drugbank_target|P05327 Deoxyribodipyrimidine photo-lyase (DB03147)
 OpenBabel12092120263D

  0  0  0     0  0            999 V3000
M  V30 BEGIN CTAB
M  V30 COUNTS 7611 7724 0 0 0
M  V30 BEGIN ATOM
M  V30 1 H -0.908 1.98254 -0.117106 0
M  V30 2 N 0 1.576 0 0
M  V30 3 C 0.933 2.03868 1.02534 0
M  V30 4 C 1.911 0.928543 1.3348 0
M  V30 5 O 3.095 1.19667 1.45644 0
M  V30 6 C 0.222 2.43627 2.35294 0
M  V30 7 C -0.732 3.65373 2.2001 0
M  V30 8 S 0.101 5.13292 1.52614 0
M  V30 9 C 1.257 5.56322 2.86805 0
M  V30 10 H 1.49 2.90518 0.631377 0
M  V30 11 H -0.977 1.52953 0.210867 0
M  V30 12 H 0.981 2.67203 3.11629 0
M  V30 13 H -0.358 1.57376 2.7183 0
M  V30 14 H -1.165 3.90944 3.18086 0
M  V30 15 H -1.563 3.418 1.51819 0
M  V30 16 H 0.729 5.58782 3.83104 0
M  V30 17 H 1.672 6.56266 2.65933 0
M  V30 18 H 2.08 4.83886 2.90714 0
M  V30 19 N 1.4781 -0.272755 1.55222 0
M  V30 20 C 2.4411 -1.32041 1.87344 0
M  V30 21 C 3.4411 -1.42342 0.74803 0
M  V30 22 O 4.6311 -1.41488 1.0162 0
M  V30 23 C 1.7631 -2.70173 2.07893 0
M  V30 24 H 2.9561 -1.04789 2.80997 0
M  V30 25 H 0.5091 -0.51083 1.47717 0
M  V30 26 H 1.2441 -3.02605 1.16622 0
M  V30 27 H 1.0291 -2.64082 2.89833 0
M  V30 28 H 2.5191 -3.45869 2.34017 0
M  V30 29 N 2.9562 -1.48159 -0.537278 0
M  V30 30 C 3.9192 -1.61665 -1.62472 0
M  V30 31 C 4.9192 -0.490395 -1.5314 0
M  V30 32 O 6.1092 -0.755998 -1.5694 0
M  V30 33 C 3.2412 -1.57997 -3.02076 0
M  V30 34 H 4.4342 -2.58621 -1.51839 0
M  V30 35 H 1.9872 -1.36647 -0.758771 0
M  V30 36 H 2.7222 -0.624913 -3.18222 0
M  V30 37 H 2.5072 -2.39755 -3.10258 0
M  V30 38 H 3.9972 -1.70627 -3.81151 0
M  V30 39 N 4.4343 0.785586 -1.36625 0
M  V30 40 C 5.8453 1.36101 -1.27803 0
M  V30 41 C 6.1963 1.96035 0.0804875 0
M  V30 42 O 5.3213 1.92834 0.982042 0
M  V30 43 C 5.9163 2.47442 -2.31426 0
M  V30 44 C 4.4753 3.00789 -2.26281 0
M  V30 45 C 3.6223 1.73896 -2.15999 0
M  V30 46 H 6.5733 0.586928 -1.47448 0
M  V30 47 H 6.5943 3.2656 -1.95291 0
M  V30 48 H 6.1063 2.03791 -3.30289 0
M  V30 49 H 4.2073 3.48851 -1.30896 0
M  V30 50 H 4.3203 3.57343 -3.19128 0
M  V30 51 H 2.6843 1.9628 -1.62316 0
M  V30 52 H 3.4673 1.32368 -3.16755 0
M  V30 53 N 5.9124 1.20967 1.01018 0
M  V30 54 C 7.1614 1.01796 1.74128 0
M  V30 55 C 7.4744 -0.449691 1.90361 0
M  V30 56 O 8.6804 -0.76068 2.60626 0
M  V30 57 C 7.1364 1.7727 3.13215 0
M  V30 58 C 6.7444 3.28171 3.04972 0
M  V30 59 C 8.4884 1.66489 3.90489 0
M  V30 60 C 6.3954 3.96156 4.39107 0
M  V30 61 H 5.3254 0.377276 0.652824 0
M  V30 62 H 7.9764 1.44651 1.12909 0
M  V30 63 H 6.3584 1.27205 3.75013 0
M  V30 64 H 7.5324 3.85499 2.52443 0
M  V30 65 H 5.8474 3.39437 2.41188 0
M  V30 66 H 8.4444 2.14617 4.89738 0
M  V30 67 H 8.7874 0.6222 4.11624 0
M  V30 68 H 9.3204 2.14003 3.35332 0
M  V30 69 H 6.0594 5.00604 4.23174 0
M  V30 70 H 5.5794 3.43617 4.91617 0
M  V30 71 H 7.2584 4.00774 5.07926 0
M  V30 72 N 7.3905 -1.2043 1.01659 0
M  V30 73 C 8.3205 -2.25466 0.607226 0
M  V30 74 C 9.3015 -1.65853 -0.377716 0
M  V30 75 O 10.4865 -1.92409 -0.263149 0
M  V30 76 C 7.6165 -3.47256 -0.0552949 0
M  V30 77 C 6.5705 -4.19462 0.850632 0
M  V30 78 C 5.8965 -5.34673 0.0538859 0
M  V30 79 C 7.1965 -4.75603 2.15868 0
M  V30 80 H 8.8905 -2.59962 1.48526 0
M  V30 81 H 6.4365 -1.2496 0.715605 0
M  V30 82 H 8.3895 -4.19917 -0.353233 0
M  V30 83 H 7.1135 -3.11924 -0.968045 0
M  V30 84 H 5.7725 -3.48667 1.13257 0
M  V30 85 H 5.4205 -4.95585 -0.860514 0
M  V30 86 H 5.1205 -5.83913 0.657192 0
M  V30 87 H 6.6445 -6.10138 -0.237598 0
M  V30 88 H 8.0585 -5.40083 1.92311 0
M  V30 89 H 6.4555 -5.3528 2.71284 0
M  V30 90 H 7.5255 -3.94346 2.82169 0
M  V30 91 N 8.8686 -0.792821 -1.36206 0
M  V30 92 C 10.1156 -0.366786 -1.99151 0
M  V30 93 C 10.4436 1.06243 -1.62919 0
M  V30 94 O 9.6986 1.74927 -0.877442 0
M  V30 95 C 9.9976 -0.481501 -3.54142 0
M  V30 96 C 9.6636 -1.87202 -4.10203 0
M  V30 97 C 8.3256 -2.25248 -4.25226 0
M  V30 98 C 10.6776 -2.78237 -4.40719 0
M  V30 99 C 8.0056 -3.53723 -4.68078 0
M  V30 100 C 10.3576 -4.06144 -4.85005 0
M  V30 101 C 9.0216 -4.44207 -4.98234 0
M  V30 102 H 8.2916 -0.134217 -0.728743 0
M  V30 103 H 10.9386 -1.01094 -1.62641 0
M  V30 104 H 9.2436 0.246146 -3.91026 0
M  V30 105 H 10.9406 -0.132844 -4.0078 0
M  V30 106 H 7.5306 -1.56639 -3.98951 0
M  V30 107 H 11.7146 -2.50097 -4.28679 0
M  V30 108 H 6.9706 -3.8308 -4.76508 0
M  V30 109 H 11.1446 -4.76796 -5.07581 0
M  V30 110 H 8.7716 -5.43814 -5.31197 0
M  V30 111 N 10.3467 1.47872 -0.545128 0
M  V30 112 C 11.5927 2.03385 -0.0247951 0
M  V30 113 C 11.9477 1.41325 1.30556 0
M  V30 114 O 11.2407 0.5552 1.8338 0
M  V30 115 C 11.4347 3.57131 0.13867 0
M  V30 116 C 11.2637 4.34097 -1.17429 0
M  V30 117 C 10.0337 4.74458 -1.73831 0
M  V30 118 C 12.2317 4.6998 -2.08861 0
M  V30 119 N 10.2137 5.3602 -2.99258 0
M  V30 120 C 11.5847 5.31719 -3.18866 0
M  V30 121 C 13.6397 4.5191 -2.09003 0
M  V30 122 C 12.3427 5.77295 -4.29096 0
M  V30 123 C 14.3687 4.98477 -3.18237 0
M  V30 124 C 13.7307 5.60253 -4.26961 0
M  V30 125 H 9.8297 0.780339 -0.050943 0
M  V30 126 H 12.4137 1.80507 -0.729753 0
M  V30 127 H 10.5847 3.79802 0.812733 0
M  V30 128 H 12.3167 3.99282 0.659976 0
M  V30 129 H 9.0717 4.56037 -1.2778 0
M  V30 130 H 9.4957 5.71355 -3.63157 0
M  V30 131 H 14.1377 4.03516 -1.26234 0
M  V30 132 H 11.8557 6.24687 -5.12633 0
M  V30 133 H 15.4417 4.86274 -3.1942 0
M  V30 134 H 14.3217 5.95631 -5.10091 0
M  V30 135 N 11.8248 0.280983 1.55075 0
M  V30 136 C 12.7748 -0.618585 2.19448 0
M  V30 137 C 13.7588 -1.11401 1.16098 0
M  V30 138 O 14.9508 -1.0581 1.41891 0
M  V30 139 C 12.0798 -1.79951 2.92357 0
M  V30 140 C 11.1658 -1.321 4.03002 0
M  V30 141 N 11.5568 -0.559044 5.02701 0
M  V30 142 C 9.8548 -1.60346 4.16179 0
M  V30 143 C 10.5558 -0.306722 5.80891 0
M  V30 144 N 9.5318 -0.880825 5.36416 0
M  V30 145 H 13.3338 -0.0286638 2.93886 0
M  V30 146 H 10.8478 0.0848104 1.62178 0
M  V30 147 H 12.8448 -2.45531 3.36927 0
M  V30 148 H 11.5048 -2.39333 2.19431 0
M  V30 149 H 12.5158 -0.205827 5.17491 0
M  V30 150 H 9.1928 -2.20621 3.54447 0
M  V30 151 H 10.5828 0.30391 6.71212 0
M  V30 152 N 13.3029 -1.57598 0.00835791 0
M  V30 153 C 14.7189 -1.55764 -0.347822 0
M  V30 154 C 14.9189 -1.01186 -1.74252 0
M  V30 155 O 13.9749 -0.649371 -2.44007 0
M  V30 156 C 15.2879 -2.99927 -0.215407 0
M  V30 157 C 16.8359 -3.11656 -0.289725 0
M  V30 158 C 17.3109 -4.57621 -0.18634 0
M  V30 159 N 18.8019 -4.62557 -0.243978 0
M  V30 160 C 19.5369 -5.73094 -0.18745 0
M  V30 161 N 19.0329 -6.92753 -0.0810331 0
M  V30 162 N 20.8259 -5.61588 -0.239925 0
M  V30 163 H 12.9769 -1.91411 0.92062 0
M  V30 164 H 15.2399 -0.879562 0.353659 0
M  V30 165 H 14.9459 -3.43729 0.744512 0
M  V30 166 H 14.8199 -3.63865 -0.994097 0
M  V30 167 H 17.2069 -2.67779 -1.24009 0
M  V30 168 H 17.2879 -2.5048 0.51898 0
M  V30 169 H 16.9319 -5.02174 0.760519 0
M  V30 170 H 16.8619 -5.16752 -1.01364 0
M  V30 171 H 19.3529 -3.76481 -0.327217 0
M  V30 172 H 19.6659 -7.72787 -0.0440241 0
M  V30 173 H 18.0109 -6.94984 -0.0465419 0
M  V30 174 H 21.2019 -4.66996 -0.321317 0
M  V30 175 H 21.3749 -6.47714 -0.192407 0
M  V30 176 N 14.781 0.264519 -1.55364 0
M  V30 177 C 16.197 0.61215 -1.47394 0
M  V30 178 C 16.397 1.89134 -0.695018 0
M  V30 179 O 15.453 2.51563 -0.217275 0
M  V30 180 C 16.766 0.731235 -2.91674 0
M  V30 181 C 18.314 0.82473 -3.01939 0
M  V30 182 C 18.789 0.975522 -4.4749 0
M  V30 183 N 20.28 1.04083 -4.51354 0
M  V30 184 C 21.015 1.17646 -5.61201 0
M  V30 185 N 20.511 1.27874 -6.80896 0
M  V30 186 N 22.304 1.20823 -5.48961 0
M  V30 187 H 14.455 -0.575456 -2.04456 0
M  V30 188 H 16.718 -0.196099 -0.927496 0
M  V30 189 H 16.424 -0.138392 -3.51428 0
M  V30 190 H 16.298 1.60883 -3.41169 0
M  V30 191 H 18.685 1.68482 -2.42276 0
M  V30 192 H 18.766 -0.0776479 -2.55682 0
M  V30 193 H 18.41 0.120058 -5.07758 0
M  V30 194 H 18.34 1.89268 -4.91412 0
M  V30 195 H 20.831 0.973846 -3.65136 0
M  V30 196 H 21.144 1.38081 -7.60364 0
M  V30 197 H 19.489 1.24863 -6.83692 0
M  V30 198 H 22.68 1.12469 -4.54388 0
M  V30 199 H 22.853 1.31049 -6.3461 0
M  V30 200 N 16.2591 1.48442 0.529413 0
M  V30 201 C 17.5361 1.46978 1.29062 0
M  V30 202 C 17.9161 0.181769 2.10316 0
M  V30 203 O 17.2641 -0.836481 2.12639 0
M  V30 204 C 17.4741 2.7321 2.17157 0
M  V30 205 C 18.8221 3.21562 2.77278 0
M  V30 206 O 19.8461 2.74131 2.27444 0
M  V30 207 O 18.7051 4.04094 3.67927 0
M  V30 208 H 15.7991 0.587003 0.582543 0
M  V30 209 H 18.3451 1.60676 0.546021 0
M  V30 210 H 17.1171 3.58465 1.56903 0
M  V30 211 H 16.7401 2.62235 2.98862 0
M  V30 212 N 17.7372 -0.778329 1.37039 0
M  V30 213 C 18.6672 -1.90546 1.34962 0
M  V30 214 C 19.6482 -1.68681 0.219274 0
M  V30 215 O 20.8332 -1.89634 0.418624 0
M  V30 216 C 17.9632 -3.27734 1.14925 0
M  V30 217 C 16.9172 -3.64147 2.24902 0
M  V30 218 C 16.2432 -4.99806 1.89996 0
M  V30 219 C 17.5432 -3.71579 3.67051 0
M  V30 220 H 19.2372 -1.92541 2.29277 0
M  V30 221 H 16.7832 -0.924948 1.10366 0
M  V30 222 H 18.7362 -4.06215 1.12104 0
M  V30 223 H 17.4602 -3.26154 0.170631 0
M  V30 224 H 16.1192 -2.8797 2.26868 0
M  V30 225 H 15.7672 -4.94759 0.906796 0
M  V30 226 H 15.4672 -5.25139 2.63634 0
M  V30 227 H 16.9912 -5.80694 1.88749 0
M  V30 228 H 18.4052 -4.40227 3.67251 0
M  V30 229 H 16.8022 -4.08405 4.39688 0
M  V30 230 H 17.8722 -2.72404 4.01154 0
M  V30 231 N 19.2153 -1.21501 -1.00376 0
M  V30 232 C 20.6313 -0.972629 -1.26539 0
M  V30 233 C 20.8313 0.340257 -1.98606 0
M  V30 234 O 19.8873 1.06561 -2.28913 0
M  V30 235 C 21.2003 -2.16404 -2.08781 0
M  V30 236 C 22.7483 -2.20643 -2.22004 0
M  V30 237 C 23.2233 -3.39306 -3.07629 0
M  V30 238 N 24.7143 -3.39401 -3.15217 0
M  V30 239 C 25.4493 -4.27867 -3.81729 0
M  V30 240 N 24.9453 -5.26533 -4.5026 0
M  V30 241 N 26.7383 -4.15672 -3.78382 0
M  V30 242 H 18.8893 -2.05929 -0.520281 0
M  V30 243 H 21.1523 -0.901803 -0.292328 0
M  V30 244 H 20.8583 -3.11554 -1.63178 0
M  V30 245 H 20.7323 -2.15567 -3.09533 0
M  V30 246 H 23.1193 -1.26048 -2.66825 0
M  V30 247 H 23.2003 -2.25523 -1.20718 0
M  V30 248 H 22.8443 -4.34195 -2.63509 0
M  V30 249 H 22.7743 -3.31665 -4.09031 0
M  V30 250 H 25.2653 -2.67997 -2.66432 0
M  V30 251 H 25.5783 -5.90337 -4.98721 0
M  V30 252 H 23.9233 -5.30457 -4.49044 0
M  V30 253 H 27.1143 -3.3785 -3.23998 0
M  V30 254 H 27.2873 -4.84825 -4.2994 0
M  V30 255 N 20.6934 1.19889 -1.02296 0
M  V30 256 C 21.6234 2.25141 -0.619174 0
M  V30 257 C 22.6044 1.66051 0.368915 0
M  V30 258 O 23.7894 1.92546 0.252941 0
M  V30 259 C 20.9194 3.4728 0.0368783 0
M  V30 260 C 19.8734 4.19005 -0.872865 0
M  V30 261 C 19.1994 5.34637 -0.0822402 0
M  V30 262 C 20.4994 4.74452 -2.18387 0
M  V30 263 H 22.1934 2.59171 -1.49903 0
M  V30 264 H 19.7394 1.24579 -0.722222 0
M  V30 265 H 21.6924 4.20098 0.330958 0
M  V30 266 H 20.4164 3.12433 0.95149 0
M  V30 267 H 19.0754 3.48061 -1.15105 0
M  V30 268 H 18.7234 4.96034 0.83422 0
M  V30 269 H 18.4234 5.83557 -0.688149 0
M  V30 270 H 19.9474 6.10255 0.205238 0
M  V30 271 H 21.3614 5.39055 -1.95172 0
M  V30 272 H 19.7584 5.33834 -2.74119 0
M  V30 273 H 20.8284 3.92844 -2.84257 0
M  V30 274 N 22.1715 0.800033 1.35784 0
M  V30 275 C 23.3965 0.388511 2.03729 0
M  V30 276 C 23.8215 -0.990481 1.5991 0
M  V30 277 O 23.1795 -1.64013 0.772612 0
M  V30 278 C 23.2275 0.4726 3.5749 0
M  V30 279 O 22.3315 -0.51646 4.09153 0
M  V30 280 H 21.6725 0.163271 0.643614 0
M  V30 281 H 24.2025 1.0841 1.73518 0
M  V30 282 H 24.2125 0.34003 4.06581 0
M  V30 283 H 22.8875 1.47848 3.88734 0
M  V30 284 H 21.4645 -0.344673 3.71304 0
M  V30 285 N 23.6496 -1.47581 0.552962 0
M  V30 286 C 24.9266 -1.95563 -0.0381515 0
M  V30 287 C 25.3066 -1.49552 -1.48988 0
M  V30 288 O 24.6546 -0.732414 -2.16444 0
M  V30 289 C 24.8646 -3.48848 0.102919 0
M  V30 290 C 26.2126 -4.24577 -0.0446082 0
M  V30 291 O 27.2366 -3.56187 0.0302548 0
M  V30 292 O 26.0956 -5.46116 -0.204923 0
M  V30 293 H 23.1896 -0.824321 -0.0665067 0
M  V30 294 H 25.7356 -1.58001 0.619186 0
M  V30 295 H 24.5076 -3.75129 1.11328 0
M  V30 296 H 24.1306 -3.93165 -0.592224 0
M  V30 297 N 25.1277 -0.289203 -1.54924 0
M  V30 298 C 26.0757 0.607966 -2.24514 0
M  V30 299 C 27.0697 1.14655 -1.24702 0
M  V30 300 O 28.2757 1.09856 -1.4259 0
M  V30 301 H 24.6507 0.21464 -0.720718 0
M  V30 302 H 26.6217 -0.00164182 -2.984 0
M  V30 303 C 25.3707 1.77406 -2.99036 0
M  V30 304 H 24.6937 1.36884 -3.75637 0
M  V30 305 H 26.1337 2.37814 -3.51028 0
M  V30 306 C 24.5927 2.67107 -2.05318 0
M  V30 307 O 25.1227 3.6787 -1.61353 0
M  V30 308 N 23.3287 2.34582 -1.71521 0
M  V30 309 H 22.8757 1.52688 -2.07471 0
M  V30 310 H 22.8337 2.94867 -1.0909 0
M  V30 311 N 26.6058 1.57591 -0.0167156 0
M  V30 312 C 27.8548 1.90461 0.663877 0
M  V30 313 C 28.1678 0.893515 1.73999 0
M  V30 314 O 29.3738 1.11302 2.47637 0
M  V30 315 C 27.8298 3.38155 1.23204 0
M  V30 316 C 27.4378 4.47597 0.189866 0
M  V30 317 C 29.1818 3.80111 1.88986 0
M  V30 318 C 27.0888 5.86379 0.768964 0
M  V30 319 H 26.0188 0.710738 0.251729 0
M  V30 320 H 28.6698 1.83326 -0.0799926 0
M  V30 321 H 27.0518 3.40182 2.02712 0
M  V30 322 H 28.2258 4.57112 -0.581846 0
M  V30 323 H 26.5408 4.14766 -0.368475 0
M  V30 324 H 29.1378 4.81145 2.33247 0
M  V30 325 H 29.4808 3.14511 2.72743 0
M  V30 326 H 30.0138 3.80454 1.16187 0
M  V30 327 H 26.7528 6.55493 -0.0301957 0
M  V30 328 H 26.2728 5.80496 1.50945 0
M  V30 329 H 27.9518 6.34563 1.26251 0
M  V30 330 N 28.0839 -0.256276 1.55502 0
M  V30 331 C 29.3319 -0.983672 1.76545 0
M  V30 332 C 29.6529 -1.86206 0.578982 0
M  V30 333 O 28.9229 -1.91656 -0.405577 0
M  V30 334 H 27.5029 -0.366191 0.651086 0
M  V30 335 H 30.1649 -0.276479 1.92929 0
M  V30 336 H 29.2609 -1.61087 2.67315 0
M  V30 337 N 29.562 -1.4872 -0.521534 0
M  V30 338 C 30.492 -1.66771 -1.63431 0
M  V30 339 C 31.473 -0.516499 -1.62069 0
M  V30 340 O 32.658 -0.750013 -1.79132 0
M  V30 341 C 29.788 -1.71515 -3.01993 0
M  V30 342 C 28.742 -2.86222 -3.18216 0
M  V30 343 C 28.068 -2.76061 -4.57924 0
M  V30 344 C 29.368 -4.27419 -3.00184 0
M  V30 345 H 31.062 -2.59932 -1.48579 0
M  V30 346 H 28.608 -1.25089 -0.713358 0
M  V30 347 H 30.561 -1.82731 -3.7972 0
M  V30 348 H 29.285 -0.749393 -3.17886 0
M  V30 349 H 27.944 -2.74575 -2.42908 0
M  V30 350 H 27.592 -1.77437 -4.70665 0
M  V30 351 H 27.292 -3.53037 -4.69722 0
M  V30 352 H 28.816 -2.89256 -5.37739 0
M  V30 353 H 30.23 -4.39855 -3.67697 0
M  V30 354 H 28.627 -5.05458 -3.2347 0
M  V30 355 H 29.697 -4.43293 -1.96518 0
M  V30 356 N 31.0401 0.771051 -1.3745 0
M  V30 357 C 32.0031 1.86598 -1.33093 0
M  V30 358 C 33.0031 1.59076 -0.234845 0
M  V30 359 O 34.1931 1.67145 -0.490732 0
M  V30 360 C 31.3251 3.23747 -1.06773 0
M  V30 361 H 32.5181 1.91873 -2.30488 0
M  V30 362 H 30.0711 0.970876 -1.2249 0
M  V30 363 H 30.8061 3.24148 -0.099129 0
M  V30 364 H 30.5911 3.45115 -1.86112 0
M  V30 365 H 32.0811 4.03824 -1.06377 0
M  V30 366 N 32.5182 1.22032 0.997298 0
M  V30 367 C 33.4812 0.987909 2.06816 0
M  V30 368 C 34.4812 -0.0440084 1.6074 0
M  V30 369 O 35.6712 0.194053 1.73116 0
M  V30 370 C 32.8032 0.49132 3.37341 0
M  V30 371 H 33.9962 1.93803 2.28868 0
M  V30 372 H 31.5492 1.03838 1.16822 0
M  V30 373 H 32.2842 -0.463364 3.20973 0
M  V30 374 H 32.0692 1.23575 3.72118 0
M  V30 375 H 33.5592 0.348824 4.16141 0
M  V30 376 N 33.9963 -1.19345 1.0293 0
M  V30 377 C 34.9593 -2.20793 0.615069 0
M  V30 378 C 35.9593 -1.57553 -0.321533 0
M  V30 379 O 37.1493 -1.73862 -0.108483 0
M  V30 380 C 34.2813 -3.40754 -0.0999222 0
M  V30 381 H 35.4743 -2.58955 1.51269 0
M  V30 382 H 33.0273 -1.3303 0.820534 0
M  V30 383 H 33.7623 -3.0811 -1.01187 0
M  V30 384 H 33.5473 -3.87889 0.57309 0
M  V30 385 H 35.0373 -4.15898 -0.376645 0
M  V30 386 N 35.4744 -0.807222 -1.35358 0
M  V30 387 C 36.8904 -0.491038 -1.51858 0
M  V30 388 C 37.0904 0.987648 -1.75635 0
M  V30 389 O 36.1464 1.77265 -1.79815 0
M  V30 390 C 37.4594 -1.33695 -2.69344 0
M  V30 391 C 39.0074 -1.33246 -2.83222 0
M  V30 392 C 39.4824 -2.1625 -4.03733 0
M  V30 393 N 40.9734 -2.1379 -4.10911 0
M  V30 394 C 41.7084 -2.74772 -5.03277 0
M  V30 395 N 41.2044 -3.44684 -6.0097 0
M  V30 396 N 42.9974 -2.6441 -4.96028 0
M  V30 397 H 35.1484 -1.76485 -1.18181 0
M  V30 398 H 37.4114 -0.751199 -0.578276 0
M  V30 399 H 37.1174 -2.38634 -2.58354 0
M  V30 400 H 36.9914 -0.990618 -3.6396 0
M  V30 401 H 39.3784 -0.290911 -2.93663 0
M  V30 402 H 39.4594 -1.71866 -1.89461 0
M  V30 403 H 39.1034 -3.20445 -3.94052 0
M  V30 404 H 39.0334 -1.74989 -4.96675 0
M  V30 405 H 41.5244 -1.62923 -3.40976 0
M  V30 406 H 41.8374 -3.88501 -6.68047 0
M  V30 407 H 40.1824 -3.48788 -6.01142 0
M  V30 408 H 43.3734 -2.0938 -4.18662 0
M  V30 409 H 43.5464 -3.12225 -5.6782 0
M  V30 410 N 36.9525 1.47285 -0.560781 0
M  V30 411 C 37.9155 2.28535 0.174488 0
M  V30 412 C 38.9155 1.37153 0.839388 0
M  V30 413 O 40.1055 1.59748 0.694702 0
M  V30 414 C 37.2375 3.16934 1.25561 0
M  V30 415 H 38.4305 2.95012 -0.539262 0
M  V30 416 H 35.9835 1.53034 -0.317865 0
M  V30 417 H 36.7185 2.55157 2.00164 0
M  V30 418 H 36.5035 3.8419 0.783604 0
M  V30 419 H 37.9935 3.78143 1.77193 0
M  V30 420 N 38.4306 0.297415 1.54768 0
M  V30 421 C 39.3626 -0.613881 2.20826 0
M  V30 422 C 40.3756 -1.10032 1.19987 0
M  V30 423 O 41.5646 -1.01839 1.46598 0
M  V30 424 C 38.6646 -1.852 2.83821 0
M  V30 425 C 37.8376 -1.50865 4.10559 0
M  V30 426 C 36.8966 -2.60154 4.57391 0
M  V30 427 O 35.9226 -2.25398 5.2267 0
M  V30 428 N 37.1246 -3.90629 4.29406 0
M  V30 429 H 39.8896 -0.048389 2.99661 0
M  V30 430 H 37.4506 0.11946 1.61459 0
M  V30 431 H 39.4426 -2.57652 3.12086 0
M  V30 432 H 38.0126 -2.32597 2.08847 0
M  V30 433 H 37.2326 -0.616925 3.89343 0
M  V30 434 H 38.5206 -1.25458 4.9309 0
M  V30 435 H 37.9186 -4.21677 3.77101 0
M  V30 436 H 36.4756 -4.59391 4.62388 0
M  V30 437 N 39.9087 -1.5758 0.0250728 0
M  V30 438 C 41.1337 -1.96337 -0.668317 0
M  V30 439 C 41.5587 -0.901314 -1.651 0
M  V30 440 O 40.9167 0.138187 -1.80773 0
M  V30 441 C 40.9647 -3.34191 -1.35457 0
M  V30 442 O 40.0687 -3.30269 -2.46974 0
M  V30 443 H 39.4097 -0.640281 -0.175887 0
M  V30 444 H 41.9397 -2.0442 0.0857224 0
M  V30 445 H 41.9497 -3.70331 -1.71228 0
M  V30 446 H 40.6247 -4.11036 -0.634218 0
M  V30 447 H 39.2017 -3.05841 -2.13344 0
M  V30 448 N 41.3868 0.248026 -1.55636 0
M  V30 449 C 42.3498 1.29044 -1.89421 0
M  V30 450 C 43.3498 1.41134 -0.770581 0
M  V30 451 O 44.5398 1.39854 -1.03858 0
M  V30 452 C 41.6718 2.66831 -2.12165 0
M  V30 453 H 42.8648 1.00305 -2.82629 0
M  V30 454 H 40.4178 0.487265 -1.48511 0
M  V30 455 H 41.1528 3.00711 -1.21422 0
M  V30 456 H 40.9378 2.59438 -2.93997 0
M  V30 457 H 42.4278 3.42103 -2.3949 0
M  V30 458 N 42.8649 1.48995 0.513639 0
M  V30 459 C 43.7969 1.60836 1.63293 0
M  V30 460 C 44.8099 0.491701 1.55197 0
M  V30 461 O 45.9989 0.763238 1.6136 0
M  V30 462 C 43.0989 1.53731 3.02027 0
M  V30 463 C 42.2719 2.80715 3.35437 0
M  V30 464 C 41.3309 2.66837 4.53525 0
M  V30 465 O 40.3569 3.40753 4.55934 0
M  V30 466 N 41.5589 1.77539 5.52684 0
M  V30 467 H 44.3239 2.57366 1.53566 0
M  V30 468 H 41.8849 1.45925 0.701259 0
M  V30 469 H 43.8769 1.42118 3.78926 0
M  V30 470 H 42.4469 0.651092 3.05744 0
M  V30 471 H 41.6669 3.06772 2.47557 0
M  V30 472 H 42.9549 3.64927 3.54551 0
M  V30 473 H 42.3529 1.16719 5.53528 0
M  V30 474 H 40.9099 1.71856 6.28736 0
M  V30 475 N 44.343 -0.763751 1.37857 0
M  V30 476 C 45.273 -1.89103 1.36975 0
M  V30 477 C 46.254 -1.68439 0.237152 0
M  V30 478 O 47.439 -1.8918 0.438713 0
M  V30 479 C 44.569 -3.26496 1.18395 0
M  V30 480 C 43.523 -3.61741 2.28751 0
M  V30 481 C 42.849 -4.97762 1.95286 0
M  V30 482 C 44.149 -3.67665 3.70972 0
M  V30 483 H 45.843 -1.90099 2.31307 0
M  V30 484 H 43.389 -0.91319 1.11341 0
M  V30 485 H 45.342 -4.05003 1.16406 0
M  V30 486 H 44.066 -3.25955 0.205215 0
M  V30 487 H 42.725 -2.85547 2.29909 0
M  V30 488 H 42.373 -4.93769 0.959221 0
M  V30 489 H 42.073 -5.22313 2.69189 0
M  V30 490 H 43.597 -5.7866 1.94898 0
M  V30 491 H 45.011 -4.36307 3.719 0
M  V30 492 H 43.408 -4.03718 4.43995 0
M  V30 493 H 44.478 -2.68134 4.0402 0
M  V30 494 N 45.8211 -1.22559 -0.990812 0
M  V30 495 C 47.0701 -1.04553 -1.72486 0
M  V30 496 C 47.3831 0.419349 -1.91052 0
M  V30 497 O 48.5891 0.719121 -2.61803 0
M  V30 498 C 47.0451 -1.82231 -3.10355 0
M  V30 499 C 46.6531 -3.32981 -2.99713 0
M  V30 500 C 48.3971 -1.7268 -3.87791 0
M  V30 501 C 46.3041 -4.03091 -4.32748 0
M  V30 502 H 45.2341 -0.387614 -0.646739 0
M  V30 503 H 47.8851 -1.46429 -1.10593 0
M  V30 504 H 46.2671 -1.33155 -3.72942 0
M  V30 505 H 47.4411 -3.89466 -2.46278 0
M  V30 506 H 45.7561 -3.43231 -2.35758 0
M  V30 507 H 48.3531 -2.22381 -4.86262 0
M  V30 508 H 48.6961 -0.687607 -4.10582 0
M  V30 509 H 49.2291 -2.1931 -3.31885 0
M  V30 510 H 45.9681 -5.07273 -4.15156 0
M  V30 511 H 45.4881 -3.51394 -4.86089 0
M  V30 512 H 47.1671 -4.08804 -5.01486 0
M  V30 513 N 47.2992 1.18797 -1.03562 0
M  V30 514 C 48.5472 1.88278 -0.734569 0
M  V30 515 C 48.8682 1.8043 0.739586 0
M  V30 516 O 48.1382 1.21925 1.53333 0
M  V30 517 H 46.7182 0.696991 -0.268725 0
M  V30 518 H 49.3802 1.44192 -1.31129 0
M  V30 519 H 48.4762 2.94443 -1.03489 0
M  V30 520 N 48.7773 0.814389 1.34928 0
M  V30 521 C 49.7073 0.244827 2.32213 0
M  V30 522 C 50.6883 -0.634024 1.57842 0
M  V30 523 O 51.8733 -0.562676 1.8587 0
M  V30 524 C 49.0033 -0.601106 3.42058 0
M  V30 525 C 47.9573 0.179896 4.27622 0
M  V30 526 C 47.2833 -0.788237 5.28858 0
M  V30 527 C 48.5833 1.38329 5.03649 0
M  V30 528 H 50.2773 1.05763 2.80097 0
M  V30 529 H 47.8233 0.510029 1.34665 0
M  V30 530 H 49.7763 -1.00968 4.09125 0
M  V30 531 H 48.5003 -1.44688 2.92802 0
M  V30 532 H 47.1593 0.569739 3.62146 0
M  V30 533 H 46.8073 -1.62973 4.75866 0
M  V30 534 H 46.5073 -0.269942 5.8698 0
M  V30 535 H 48.0313 -1.19485 5.98795 0
M  V30 536 H 49.4453 1.04918 5.63618 0
M  V30 537 H 47.8423 1.83662 5.71304 0
M  V30 538 H 48.9123 2.16592 4.33839 0
M  V30 539 N 50.2554 -1.46986 0.568584 0
M  V30 540 C 51.5024 -2.02441 0.0487986 0
M  V30 541 C 51.8304 -1.44169 -1.30559 0
M  V30 542 O 51.0854 -0.591213 -1.86556 0
M  V30 543 C 51.3844 -3.57306 -0.081836 0
M  V30 544 C 51.0504 -4.34552 1.20313 0
M  V30 545 C 49.7124 -4.55376 1.5552 0
M  V30 546 C 52.0644 -4.79016 2.05411 0
M  V30 547 C 49.3924 -5.17913 2.7565 0
M  V30 548 C 51.7444 -5.42879 3.24754 0
M  V30 549 C 50.4084 -5.61933 3.60261 0
M  V30 550 H 49.6784 -0.740785 0.0178567 0
M  V30 551 H 52.3254 -1.76525 0.742384 0
M  V30 552 H 50.6304 -3.8228 -0.858463 0
M  V30 553 H 52.3274 -3.97876 -0.499546 0
M  V30 554 H 48.9174 -4.18631 0.919014 0
M  V30 555 H 53.1014 -4.62696 1.79516 0
M  V30 556 H 48.3574 -5.30858 3.03315 0
M  V30 557 H 52.5314 -5.76293 3.90973 0
M  V30 558 H 50.1584 -6.10161 4.53439 0
M  V30 559 N 51.7335 -0.305618 -1.54608 0
M  V30 560 C 52.9735 0.303114 -2.0214 0
M  V30 561 C 53.3375 1.50737 -1.18921 0
M  V30 562 O 54.5385 2.18778 -1.56172 0
M  V30 563 C 52.8095 0.646332 -3.51507 0
M  V30 564 S 54.3685 1.23727 -4.20995 0
M  V30 565 H 51.1865 0.0927643 -0.704923 0
M  V30 566 H 53.7885 -0.434566 -1.90609 0
M  V30 567 H 52.4925 -0.238541 -4.09706 0
M  V30 568 H 52.0235 1.41468 -3.67084 0
M  V30 569 H 54.0385 2.52489 -4.27158 0
M  V30 570 N 53.2116 1.57565 -0.0334293 0
M  V30 571 C 54.1416 2.13511 0.945265 0
M  V30 572 C 55.1226 1.05231 1.33643 0
M  V30 573 O 56.3076 1.33084 1.41429 0
M  V30 574 C 53.4376 2.6657 2.22616 0
M  V30 575 C 52.3916 3.79676 1.97561 0
M  V30 576 C 51.7176 4.1918 3.31952 0
M  V30 577 C 53.0176 5.0557 1.31135 0
M  V30 578 H 54.7116 2.95538 0.479325 0
M  V30 579 H 52.2576 1.42166 0.229115 0
M  V30 580 H 54.2106 3.04344 2.91466 0
M  V30 581 H 52.9346 1.8171 2.71384 0
M  V30 582 H 51.5936 3.42347 1.31127 0
M  V30 583 H 51.2416 3.31296 3.78487 0
M  V30 584 H 50.9416 4.95402 3.15992 0
M  V30 585 H 52.4656 4.59541 4.02063 0
M  V30 586 H 53.8796 5.40903 1.89992 0
M  V30 587 H 52.2766 5.86818 1.25559 0
M  V30 588 H 53.3466 4.84062 0.284894 0
M  V30 589 N 54.6897 -0.239769 1.55765 0
M  V30 590 C 55.9667 -0.990056 1.68693 0
M  V30 591 C 56.3467 -2.03107 0.5754 0
M  V30 592 O 55.6947 -2.24604 -0.42017 0
M  V30 593 C 55.9047 -1.61696 3.09282 0
M  V30 594 C 57.2527 -2.11613 3.6811 0
M  V30 595 O 58.2767 -1.71624 3.12127 0
M  V30 596 O 57.1357 -2.85057 4.66267 0
M  V30 597 H 54.2297 -0.461299 0.686391 0
M  V30 598 H 56.7757 -0.232991 1.68093 0
M  V30 599 H 55.5477 -0.864357 3.81634 0
M  V30 600 H 55.1707 -2.44005 3.13923 0
M  V30 601 N 56.1678 -1.49265 -0.50573 0
M  V30 602 C 57.5788 -1.51769 -1.08734 0
M  V30 603 C 57.9298 -0.301192 -1.93874 0
M  V30 604 O 57.0548 0.589456 -2.08217 0
M  V30 605 C 57.6498 -2.75017 -1.97867 0
M  V30 606 C 56.2088 -2.80314 -2.51199 0
M  V30 607 C 55.3558 -2.4562 -1.28709 0
M  V30 608 H 58.3068 -1.56031 -0.289855 0
M  V30 609 H 58.3278 -2.5491 -2.82491 0
M  V30 610 H 57.8398 -3.63539 -1.35873 0
M  V30 611 H 55.9408 -1.96061 -3.16845 0
M  V30 612 H 56.0538 -3.82366 -2.88675 0
M  V30 613 H 54.4178 -1.97297 -1.61078 0
M  V30 614 H 55.2008 -3.36411 -0.6843 0
M  V30 615 N 57.6459 0.756429 -1.3826 0
M  V30 616 C 58.5779 1.87971 -1.31147 0
M  V30 617 C 59.5909 1.61248 -0.224239 0
M  V30 618 O 60.7799 1.71881 -0.481581 0
M  V30 619 C 57.8799 3.23545 -1.00857 0
M  V30 620 C 57.0529 3.77794 -2.20432 0
M  V30 621 C 56.1119 4.91877 -1.86931 0
M  V30 622 O 55.1379 5.06659 -2.59395 0
M  V30 623 N 56.3399 5.74643 -0.822568 0
M  V30 624 H 59.1049 1.94585 -2.2794 0
M  V30 625 H 56.6659 0.936234 -1.32084 0
M  V30 626 H 58.6579 3.97403 -0.765021 0
M  V30 627 H 57.2279 3.12335 -0.128687 0
M  V30 628 H 56.4479 2.95534 -2.6087 0
M  V30 629 H 57.7359 4.10771 -3.00241 0
M  V30 630 H 57.1339 5.65266 -0.221575 0
M  V30 631 H 55.6909 6.48661 -0.638899 0
M  V30 632 N 59.124 1.23083 0.984299 0
M  V30 633 C 60.373 1.05466 1.71929 0
M  V30 634 C 60.686 -0.409211 1.91272 0
M  V30 635 O 61.892 -0.705226 2.62181 0
M  V30 636 C 60.348 1.83874 3.09384 0
M  V30 637 C 59.956 3.34566 2.97943 0
M  V30 638 C 61.7 1.74734 3.8687 0
M  V30 639 C 59.607 4.05381 4.30605 0
M  V30 640 H 58.537 0.391039 0.644674 0
M  V30 641 H 61.188 1.47013 1.09815 0
M  V30 642 H 59.57 1.35131 3.72231 0
M  V30 643 H 60.744 3.90767 2.44209 0
M  V30 644 H 59.059 3.44476 2.33934 0
M  V30 645 H 61.656 2.24957 4.85076 0
M  V30 646 H 61.999 0.709372 4.10212 0
M  V30 647 H 62.532 2.21067 3.30717 0
M  V30 648 H 59.271 5.09467 4.1246 0
M  V30 649 H 58.791 3.53967 4.84218 0
M  V30 650 H 60.47 4.11458 4.99311 0
M  V30 651 N 60.6021 -1.18246 1.0419 0
M  V30 652 C 61.5321 -2.24127 0.654914 0
M  V30 653 C 62.5131 -1.66617 -0.342451 0
M  V30 654 O 63.6981 -1.92924 -0.222277 0
M  V30 655 C 60.8281 -3.47295 0.0183757 0
M  V30 656 C 59.7821 -4.17563 0.939414 0
M  V30 657 C 59.1081 -5.34438 0.167286 0
M  V30 658 C 60.4081 -4.70917 2.25908 0
M  V30 659 H 62.1021 -2.56753 1.54007 0
M  V30 660 H 59.6481 -1.23414 0.74195 0
M  V30 661 H 61.6011 -4.20572 -0.264082 0
M  V30 662 H 60.3251 -3.13907 -0.901664 0
M  V30 663 H 58.9841 -3.46186 1.20628 0
M  V30 664 H 58.6321 -4.97298 -0.7552 0
M  V30 665 H 58.3321 -5.82388 0.780901 0
M  V30 666 H 59.8561 -6.10504 -0.108125 0
M  V30 667 H 61.2701 -5.35882 2.03724 0
M  V30 668 H 59.6671 -5.29406 2.82577 0
M  V30 669 H 60.7371 -3.88272 2.9047 0
M  V30 670 N 62.0802 -0.821533 -1.34494 0
M  V30 671 C 63.0122 -0.199946 -2.28326 0
M  V30 672 C 64.0252 0.609377 -1.50965 0
M  V30 673 O 65.2142 0.439285 -1.7301 0
M  V30 674 C 62.3142 0.738431 -3.30757 0
M  V30 675 C 61.4872 -0.0277632 -4.37391 0
M  V30 676 C 60.5462 0.831332 -5.19591 0
M  V30 677 O 59.5722 0.276822 -5.68526 0
M  V30 678 N 60.7742 2.15132 -5.39165 0
M  V30 679 H 63.5392 -1.00609 -2.82308 0
M  V30 680 H 61.1002 -0.678366 -1.47003 0
M  V30 681 H 63.0922 1.31773 -3.82646 0
M  V30 682 H 61.6622 1.44533 -2.7718 0
M  V30 683 H 60.8822 -0.788359 -3.86236 0
M  V30 684 H 62.1702 -0.555251 -5.05761 0
M  V30 685 H 61.5682 2.62559 -5.01078 0
M  V30 686 H 60.1252 2.6795 -5.94177 0
M  V30 687 N 63.5583 1.46682 -0.576371 0
M  V30 688 C 64.7833 2.07304 -0.0630475 0
M  V30 689 C 65.2083 1.42329 1.2298 0
M  V30 690 O 64.5663 0.504865 1.74129 0
M  V30 691 C 64.6143 3.60472 0.095895 0
M  V30 692 O 63.7183 3.95927 1.15394 0
M  V30 693 H 63.0593 0.661288 -0.0599463 0
M  V30 694 H 65.5893 1.88417 -0.797511 0
M  V30 695 H 65.5993 4.06865 0.304071 0
M  V30 696 H 64.2743 4.07157 -0.84828 0
M  V30 697 H 62.8513 3.61252 0.924724 0
M  V30 698 N 65.0364 0.313813 1.54444 0
M  V30 699 C 65.9994 -0.54379 2.22656 0
M  V30 700 C 66.9994 -1.05124 1.21678 0
M  V30 701 O 68.1894 -0.945225 1.46325 0
M  V30 702 C 65.3214 -1.75427 2.92298 0
M  V30 703 H 66.5144 0.0523599 2.99854 0
M  V30 704 H 64.0674 0.0647834 1.56166 0
M  V30 705 H 64.8024 -2.38991 2.19211 0
M  V30 706 H 64.5874 -1.39791 3.66334 0
M  V30 707 H 66.0774 -2.36325 3.44297 0
M  V30 708 N 66.5145 -1.57545 0.0417849 0
M  V30 709 C 67.7915 -1.83642 -0.673433 0
M  V30 710 C 68.1715 -0.928298 -1.89594 0
M  V30 711 O 67.5195 0.0129955 -2.28496 0
M  V30 712 C 67.7295 -3.33155 -1.03964 0
M  V30 713 C 69.0775 -3.99941 -1.42592 0
M  V30 714 O 70.1015 -3.37725 -1.13226 0
M  V30 715 O 68.9605 -5.09619 -1.9736 0
M  V30 716 H 66.0545 -0.757638 -0.331533 0
M  V30 717 H 68.6005 -1.69554 0.070433 0
M  V30 718 H 67.3725 -3.9093 -0.170098 0
M  V30 719 H 66.9955 -3.52396 -1.84126 0
M  V30 720 N 67.9926 0.231505 -1.5589 0
M  V30 721 C 68.9256 1.31369 -1.86595 0
M  V30 722 C 69.9036 1.45671 -0.722397 0
M  V30 723 O 71.0876 1.61642 -0.969743 0
M  V30 724 C 68.2146 2.68529 -2.06421 0
M  V30 725 C 67.2606 2.71295 -3.29092 0
M  V30 726 S 68.0936 2.26358 -4.85306 0
M  V30 727 C 69.2496 3.65414 -5.08157 0
M  V30 728 H 69.4826 1.05128 -2.78092 0
M  V30 729 H 67.0156 0.433259 -1.48197 0
M  V30 730 H 68.9736 3.47499 -2.18528 0
M  V30 731 H 67.6346 2.91999 -1.15738 0
M  V30 732 H 66.8276 3.72063 -3.39978 0
M  V30 733 H 66.4296 2.0038 -3.15791 0
M  V30 734 H 68.7216 4.6103 -4.96445 0
M  V30 735 H 69.6646 3.5945 -6.10083 0
M  V30 736 H 70.0726 3.5864 -4.35933 0
M  V30 737 N 69.4707 1.49531 0.497807 0
M  V30 738 C 70.4337 1.65916 1.58128 0
M  V30 739 C 71.4337 0.530825 1.51786 0
M  V30 740 O 72.6237 0.797342 1.54881 0
M  V30 741 C 69.7557 1.65951 2.9778 0
M  V30 742 H 70.9487 2.62556 1.44929 0
M  V30 743 H 68.5017 1.38611 0.722275 0
M  V30 744 H 69.2367 0.709065 3.16453 0
M  V30 745 H 69.0217 2.47897 3.03792 0
M  V30 746 H 70.5117 1.80673 3.76493 0
M  V30 747 N 70.9488 -0.749086 1.3866 0
M  V30 748 C 72.3598 -1.32664 1.31366 0
M  V30 749 C 72.7108 -1.96179 -0.028484 0
M  V30 750 O 71.8358 -1.9537 -0.93057 0
M  V30 751 C 72.4308 -2.41219 2.37905 0
M  V30 752 C 70.9898 -2.94684 2.34176 0
M  V30 753 C 70.1368 -1.68108 2.20533 0
M  V30 754 H 73.0878 -0.547628 1.48952 0
M  V30 755 H 73.1088 -3.21268 2.0388 0
M  V30 756 H 72.6208 -1.94962 3.35576 0
M  V30 757 H 70.7218 -3.45258 1.401 0
M  V30 758 H 70.8348 -3.48757 3.2849 0
M  V30 759 H 69.1988 -1.91907 1.67463 0
M  V30 760 H 69.9818 -1.23923 3.20153 0
M  V30 761 N 72.4269 -1.23603 -0.977757 0
M  V30 762 C 73.3899 -1.02069 -2.05218 0
M  V30 763 C 74.3899 0.0184305 -1.60789 0
M  V30 764 O 75.5799 -0.221569 -1.72785 0
M  V30 765 C 72.7119 -0.544926 -3.36517 0
M  V30 766 H 73.9049 -1.9742 -2.25755 0
M  V30 767 H 71.4579 -1.05684 -1.15155 0
M  V30 768 H 72.1929 0.412241 -3.21669 0
M  V30 769 H 71.9779 -1.2948 -3.70105 0
M  V30 770 H 73.4679 -0.414985 -4.15533 0
M  V30 771 N 73.905 1.17692 -1.04816 0
M  V30 772 C 75.321 1.39863 -0.768794 0
M  V30 773 C 75.521 1.91118 0.638451 0
M  V30 774 O 74.577 2.10036 1.40146 0
M  V30 775 C 75.89 2.39274 -1.82122 0
M  V30 776 C 77.438 2.52987 -1.843 0
M  V30 777 C 77.913 3.55669 -2.88555 0
M  V30 778 N 79.404 3.63183 -2.87493 0
M  V30 779 C 80.139 4.42381 -3.64811 0
M  V30 780 N 79.635 5.25125 -4.51903 0
M  V30 781 N 81.428 4.37217 -3.53267 0
M  V30 782 H 73.579 0.82752 -1.95617 0
M  V30 783 H 75.842 0.426123 -0.846831 0
M  V30 784 H 75.548 2.08678 -2.83102 0
M  V30 785 H 75.422 3.38725 -1.65967 0
M  V30 786 H 77.809 2.82896 -0.839869 0
M  V30 787 H 77.89 1.53623 -2.04532 0
M  V30 788 H 77.534 3.26499 -3.89051 0
M  V30 789 H 77.464 4.54728 -2.65575 0
M  V30 790 H 79.955 3.04103 -2.24343 0
M  V30 791 H 80.268 5.82728 -5.07591 0
M  V30 792 H 78.613 5.24519 -4.55966 0
M  V30 793 H 81.804 3.71626 -2.84625 0
M  V30 794 H 81.977 4.98696 -4.13771 0
M  V30 795 N 75.3831 0.828654 1.34056 0
M  V30 796 C 76.6291 0.42008 1.98402 0
M  V30 797 C 76.9621 -1.01564 1.65525 0
M  V30 798 O 76.2371 -1.70834 0.929831 0
M  V30 799 C 76.5201 0.62927 3.54559 0
M  V30 800 C 76.3731 2.11152 3.97159 0
M  V30 801 C 77.6921 0.0688756 4.40046 0
M  V30 802 H 74.8111 0.154104 0.720709 0
M  V30 803 H 77.4531 1.04228 1.5886 0
M  V30 804 H 75.6031 0.0996418 3.88372 0
M  V30 805 H 77.2751 2.70522 3.73651 0
M  V30 806 H 75.5181 2.59985 3.47261 0
M  V30 807 H 76.1891 2.20868 5.05887 0
M  V30 808 H 78.6651 0.521458 4.1282 0
M  V30 809 H 77.5411 0.245006 5.48353 0
M  V30 810 H 77.8021 -1.0266 4.30015 0
M  V30 811 N 76.8612 -1.46375 0.584142 0
M  V30 812 C 77.8242 -2.28784 -0.138108 0
M  V30 813 C 78.8242 -1.38471 -0.817462 0
M  V30 814 O 80.0142 -1.60833 -0.669199 0
M  V30 815 C 77.1462 -3.18892 -1.20503 0
M  V30 816 H 78.3392 -2.94117 0.586127 0
M  V30 817 H 75.8922 -1.52509 0.342171 0
M  V30 818 H 76.6272 -2.58309 -1.96079 0
M  V30 819 H 76.4122 -3.85388 -0.722384 0
M  V30 820 H 77.9022 -3.80914 -1.71155 0
M  V30 821 N 78.3393 -0.321999 -1.54275 0
M  V30 822 C 79.5693 0.282642 -2.04658 0
M  V30 823 C 79.9773 1.46453 -1.19784 0
M  V30 824 O 79.3203 1.82367 -0.220932 0
M  V30 825 C 79.3823 0.781857 -3.50895 0
M  V30 826 C 79.0463 -0.277517 -4.56157 0
M  V30 827 C 80.0433 -1.11307 -5.07845 0
M  V30 828 C 77.7283 -0.425256 -5.00497 0
M  V30 829 C 79.7223 -2.08211 -6.02434 0
M  V30 830 C 77.4093 -1.39771 -5.94901 0
M  V30 831 C 78.4073 -2.2246 -6.45756 0
M  V30 832 O 78.0953 -3.18054 -7.38307 0
M  V30 833 H 77.8273 0.0622636 -0.673126 0
M  V30 834 H 80.3813 -0.465792 -2.00049 0
M  V30 835 H 78.6113 1.58118 -3.52896 0
M  V30 836 H 80.3003 1.30467 -3.84361 0
M  V30 837 H 81.0663 -1.00991 -4.74369 0
M  V30 838 H 76.9453 0.20847 -4.60528 0
M  V30 839 H 80.4893 -2.72791 -6.42052 0
M  V30 840 H 76.3863 -1.50152 -6.27794 0
M  V30 841 H 77.1543 -3.13275 -7.56175 0
M  V30 842 N 79.8174 1.5752 -0.0501392 0
M  V30 843 C 80.7474 2.14502 0.922566 0
M  V30 844 C 81.7284 1.06642 1.3252 0
M  V30 845 O 82.9134 1.34577 1.4001 0
M  V30 846 C 80.0434 2.68916 2.19776 0
M  V30 847 C 78.9974 3.8175 1.93523 0
M  V30 848 C 78.3234 4.22677 3.27487 0
M  V30 849 C 79.6234 5.06932 1.25765 0
M  V30 850 H 81.3174 2.9603 0.447952 0
M  V30 851 H 78.8634 1.42401 0.214024 0
M  V30 852 H 80.8164 3.07419 2.88222 0
M  V30 853 H 79.5404 1.84578 2.69441 0
M  V30 854 H 78.1994 3.43718 1.27489 0
M  V30 855 H 77.8474 3.35291 3.74952 0
M  V30 856 H 77.5474 4.98725 3.1072 0
M  V30 857 H 79.0714 4.63779 3.97166 0
M  V30 858 H 80.4854 5.42888 1.84244 0
M  V30 859 H 78.8824 5.88116 1.19328 0
M  V30 860 H 79.9524 4.84337 0.233536 0
M  V30 861 N 81.2955 -0.223234 1.56011 0
M  V30 862 C 82.2275 -1.30006 1.88762 0
M  V30 863 C 83.2405 -1.43129 0.775746 0
M  V30 864 O 84.4295 -1.44057 1.05403 0
M  V30 865 C 81.5295 -2.67589 2.07965 0
M  V30 866 C 80.7025 -2.76434 3.38973 0
M  V30 867 C 79.7615 -3.95019 3.47629 0
M  V30 868 O 78.7875 -3.83436 4.20672 0
M  V30 869 N 79.9895 -5.09249 2.78649 0
M  V30 870 H 82.7545 -1.02238 2.81722 0
M  V30 871 H 80.3155 -0.413278 1.56536 0
M  V30 872 H 82.3075 -3.45297 2.11073 0
M  V30 873 H 80.8775 -2.87964 1.21638 0
M  V30 874 H 80.0975 -1.85216 3.47978 0
M  V30 875 H 81.3855 -2.79313 4.25278 0
M  V30 876 H 80.7835 -5.21556 2.19081 0
M  V30 877 H 79.3405 -5.85007 2.8742 0
M  V30 878 N 82.7736 -1.49793 -0.48987 0
M  V30 879 C 84.0216 -1.59525 -1.24081 0
M  V30 880 C 84.3426 -0.288953 -1.92847 0
M  V30 881 O 83.6126 0.692436 -1.83254 0
M  V30 882 H 82.1926 -0.587796 -0.460983 0
M  V30 883 H 84.8546 -1.86477 -0.566778 0
M  V30 884 H 83.9506 -2.39696 -1.99881 0
M  V30 885 N 84.2517 0.741722 -1.39055 0
M  V30 886 C 85.4917 1.51385 -1.37338 0
M  V30 887 C 85.8557 1.91972 0.0330513 0
M  V30 888 O 87.0567 2.68229 0.175174 0
M  V30 889 C 85.3277 2.72481 -2.31276 0
M  V30 890 S 86.8867 3.62211 -2.47687 0
M  V30 891 H 83.7047 0.517906 -0.487129 0
M  V30 892 H 86.3067 0.86969 -1.7509 0
M  V30 893 H 85.0107 2.40793 -3.32336 0
M  V30 894 H 84.5417 3.41832 -1.94716 0
M  V30 895 H 86.5567 4.65812 -1.70978 0
M  V30 896 N 85.7298 1.2412 0.971189 0
M  V30 897 C 86.6598 1.05508 2.08304 0
M  V30 898 C 87.6408 -0.0308864 1.70072 0
M  V30 899 O 88.8258 0.135521 1.93727 0
M  V30 900 C 85.9558 0.655365 3.4106 0
M  V30 901 C 84.9098 1.68971 3.93234 0
M  V30 902 C 84.2358 1.14516 5.22293 0
M  V30 903 C 85.5358 3.08487 4.21465 0
M  V30 904 H 87.2298 1.98507 2.24132 0
M  V30 905 H 84.7758 0.955821 1.07704 0
M  V30 906 H 86.7288 0.51217 4.18276 0
M  V30 907 H 85.4528 -0.31032 3.25122 0
M  V30 908 H 84.1118 1.82106 3.18171 0
M  V30 909 H 83.7598 0.170189 5.02712 0
M  V30 910 H 83.4598 1.83635 5.58168 0
M  V30 911 H 84.9838 1.01401 6.02121 0
M  V30 912 H 86.3978 2.98601 4.89398 0
M  V30 913 H 84.7948 3.74926 4.68562 0
M  V30 914 H 85.8648 3.56787 3.28376 0
M  V30 915 N 87.2079 -1.17134 1.05439 0
M  V30 916 C 88.1399 -2.2078 0.615539 0
M  V30 917 C 89.1529 -1.59584 -0.322001 0
M  V30 918 O 90.3419 -1.78133 -0.114344 0
M  V30 919 C 87.4419 -3.38691 -0.118938 0
M  V30 920 C 86.6149 -4.29454 0.829924 0
M  V30 921 C 85.6739 -5.26024 0.136258 0
M  V30 922 O 84.6999 -5.63952 0.77115 0
M  V30 923 N 85.9019 -5.69487 -1.1254 0
M  V30 924 H 88.6669 -2.59052 1.50705 0
M  V30 925 H 86.2279 -1.32058 0.936603 0
M  V30 926 H 88.2199 -4.00329 -0.593179 0
M  V30 927 H 86.7899 -2.98996 -0.91215 0
M  V30 928 H 86.0099 -3.65211 1.48373 0
M  V30 929 H 87.2979 -4.86984 1.47392 0
M  V30 930 H 86.6959 -5.4075 -1.6615 0
M  V30 931 H 85.2529 -6.33257 -1.54366 0
M  V30 932 N 88.686 -0.835752 -1.33615 0
M  V30 933 C 89.596 -0.269088 -2.33052 0
M  V30 934 C 90.612 0.603251 -1.63208 0
M  V30 935 O 91.788 0.508112 -1.94885 0
M  V30 936 C 88.853 0.549091 -3.42324 0
M  V30 937 C 87.914 -0.347156 -4.27894 0
M  V30 938 C 87.147 0.43207 -5.31948 0
M  V30 939 O 87.37 1.66409 -5.45586 0
M  V30 940 O 86.304 -0.192298 -6.01593 0
M  V30 941 H 90.13 -1.09243 -2.83372 0
M  V30 942 H 87.715 -0.598198 -1.36901 0
M  V30 943 H 89.597 1.01414 -4.09015 0
M  V30 944 H 88.272 1.34955 -2.94226 0
M  V30 945 H 87.179 -0.859979 -3.64081 0
M  V30 946 H 88.512 -1.1123 -4.79467 0
M  V30 947 N 90.1641 1.46063 -0.591896 0
M  V30 948 C 91.0941 2.33172 0.123673 0
M  V30 949 C 92.0751 1.45897 0.87453 0
M  V30 950 O 93.2601 1.74698 0.848181 0
M  V30 951 C 90.3901 3.28336 1.13194 0
M  V30 952 C 89.3441 4.25124 0.495324 0
M  V30 953 C 88.6701 5.09863 1.61071 0
M  V30 954 C 89.9701 5.19143 -0.573425 0
M  V30 955 H 91.6641 2.93252 -0.603646 0
M  V30 956 H 89.2101 1.41014 -0.291741 0
M  V30 957 H 91.1631 3.88137 1.64097 0
M  V30 958 H 89.8871 2.66383 1.88965 0
M  V30 959 H 88.5461 3.66599 0.00729452 0
M  V30 960 H 88.1941 4.44288 2.35832 0
M  V30 961 H 87.8941 5.75417 1.19035 0
M  V30 962 H 89.4181 5.72529 2.12233 0
M  V30 963 H 90.8321 5.73106 -0.1491 0
M  V30 964 H 89.2291 5.93089 -0.914636 0
M  V30 965 H 90.2991 4.62519 -1.45617 0
M  V30 966 N 91.6422 0.330177 1.54103 0
M  V30 967 C 92.5742 -0.566902 2.22079 0
M  V30 968 C 93.5872 -1.07462 1.22294 0
M  V30 969 O 94.7762 -0.987065 1.48726 0
M  V30 970 C 91.8762 -1.79138 2.87685 0
M  V30 971 C 91.0492 -1.42123 4.13666 0
M  V30 972 C 90.1082 -2.50394 4.62806 0
M  V30 973 O 89.1342 -2.14261 5.27334 0
M  V30 974 N 90.3362 -3.81433 4.37595 0
M  V30 975 H 93.1012 0.0151844 2.99696 0
M  V30 976 H 90.6622 0.153681 1.61169 0
M  V30 977 H 92.6542 -2.50975 3.1748 0
M  V30 978 H 91.2242 -2.28115 2.13734 0
M  V30 979 H 90.4442 -0.534201 3.90564 0
M  V30 980 H 91.7322 -1.14971 4.9564 0
M  V30 981 H 91.1302 -4.13584 3.8596 0
M  V30 982 H 89.6872 -4.4948 4.72029 0
M  V30 983 N 93.1203 -1.57491 0.0584922 0
M  V30 984 C 94.0523 -2.08916 -0.942694 0
M  V30 985 C 95.0653 -1.0185 -1.27006 0
M  V30 986 O 96.2543 -1.29398 -1.22957 0
M  V30 987 C 93.3543 -2.52341 -2.26224 0
M  V30 988 C 92.5273 -3.82827 -2.1157 0
M  V30 989 C 91.5863 -4.12487 -3.26712 0
M  V30 990 O 90.6123 -4.82295 -3.02292 0
M  V30 991 N 91.8143 -3.64978 -4.5141 0
M  V30 992 H 94.5793 -2.95437 -0.503722 0
M  V30 993 H 92.1403 -1.61397 -0.12757 0
M  V30 994 H 94.1323 -2.69254 -3.02133 0
M  V30 995 H 92.7023 -1.7103 -2.61663 0
M  V30 996 H 91.9223 -3.75425 -1.20208 0
M  V30 997 H 93.2103 -4.68263 -1.99015 0
M  V30 998 H 92.6083 -3.08558 -4.7414 0
M  V30 999 H 91.1653 -3.87115 -5.2439 0
M  V30 1000 N 94.5984 0.214957 -1.56127 0
M  V30 1001 C 96.0144 0.564948 -1.49267 0
M  V30 1002 C 96.2144 1.86827 -0.754838 0
M  V30 1003 O 95.2704 2.50745 -0.297198 0
M  V30 1004 C 96.5834 0.638071 -2.93852 0
M  V30 1005 C 98.1314 0.728253 -3.0441 0
M  V30 1006 C 98.6064 0.832663 -4.50367 0
M  V30 1007 N 100.097 0.896712 -4.54437 0
M  V30 1008 C 100.832 0.997324 -5.6466 0
M  V30 1009 N 100.328 1.06147 -6.8462 0
M  V30 1010 N 102.121 1.03297 -5.52527 0
M  V30 1011 H 94.2724 -0.640211 -2.02522 0
M  V30 1012 H 96.5354 -0.225507 -0.920788 0
M  V30 1013 H 96.2414 -0.250126 -3.50809 0
M  V30 1014 H 96.1154 1.49947 -3.46115 0
M  V30 1015 H 98.5024 1.60689 -2.47514 0
M  V30 1016 H 98.5834 -0.158952 -2.55306 0
M  V30 1017 H 98.2274 -0.0415417 -5.07883 0
M  V30 1018 H 98.1574 1.73538 -4.97184 0
M  V30 1019 H 100.648 0.857188 -3.6805 0
M  V30 1020 H 100.961 1.1382 -7.64372 0
M  V30 1021 H 99.3064 1.03049 -6.87318 0
M  V30 1022 H 102.497 0.979558 -4.57736 0
M  V30 1023 H 102.67 1.10793 -6.38458 0
M  V30 1024 N 96.0765 1.50051 0.48192 0
M  V30 1025 C 97.3065 1.63999 1.2565 0
M  V30 1026 C 97.7145 0.318288 1.86504 0
M  V30 1027 O 97.0575 -0.708534 1.69486 0
M  V30 1028 C 97.1195 2.66504 2.4128 0
M  V30 1029 C 96.7835 4.10352 2.01148 0
M  V30 1030 C 97.7805 4.96562 1.54021 0
M  V30 1031 C 95.4655 4.56203 2.10199 0
M  V30 1032 C 97.4595 6.26668 1.16473 0
M  V30 1033 C 95.1465 5.86318 1.72264 0
M  V30 1034 C 96.1445 6.71375 1.25477 0
M  V30 1035 O 95.8325 7.99062 0.880626 0
M  V30 1036 H 95.5645 0.55456 0.386574 0
M  V30 1037 H 98.1185 1.96954 0.582944 0
M  V30 1038 H 96.3485 2.28769 3.11772 0
M  V30 1039 H 98.0375 2.69783 3.03268 0
M  V30 1040 H 98.8035 4.62358 1.46458 0
M  V30 1041 H 94.6825 3.90152 2.45566 0
M  V30 1042 H 98.2265 6.93011 0.798841 0
M  V30 1043 H 94.1235 6.20046 1.79482 0
M  V30 1044 H 94.8915 8.12239 1.01043 0
M  V30 1045 N 97.5546 -0.734337 1.39446 0
M  V30 1046 C 98.4866 -1.85861 1.34121 0
M  V30 1047 C 99.4996 -1.60871 0.249864 0
M  V30 1048 O 100.689 -1.71093 0.508865 0
M  V30 1049 C 97.7886 -3.21899 1.05991 0
M  V30 1050 C 96.9616 -3.74239 2.26415 0
M  V30 1051 C 96.0206 -4.88841 1.94733 0
M  V30 1052 O 95.0466 -5.02468 2.67422 0
M  V30 1053 N 96.2486 -5.73261 0.913884 0
M  V30 1054 H 99.0136 -1.90934 2.31007 0
M  V30 1055 H 96.5746 -0.915102 1.33557 0
M  V30 1056 H 98.5666 -3.96136 0.828147 0
M  V30 1057 H 97.1366 -3.12091 0.178361 0
M  V30 1058 H 96.3566 -2.91347 2.65539 0
M  V30 1059 H 97.6446 -4.05942 3.06738 0
M  V30 1060 H 97.0426 -5.64842 0.311476 0
M  V30 1061 H 95.5996 -6.47563 0.742015 0
M  V30 1062 N 99.0327 -1.24633 -0.964593 0
M  V30 1063 C 99.9647 -0.999302 -2.06268 0
M  V30 1064 C 100.978 0.0323226 -1.62768 0
M  V30 1065 O 102.167 -0.205079 -1.77318 0
M  V30 1066 C 99.2667 -0.486816 -3.35385 0
M  V30 1067 C 98.4397 -1.5823 -4.07777 0
M  V30 1068 C 97.4987 -1.07191 -5.15166 0
M  V30 1069 O 96.5247 -1.76426 -5.41168 0
M  V30 1070 N 97.7267 0.0920373 -5.80427 0
M  V30 1071 H 100.492 -1.94477 -2.28033 0
M  V30 1072 H 98.0527 -1.15704 -1.13244 0
M  V30 1073 H 100.045 -0.130066 -4.04491 0
M  V30 1074 H 98.6147 0.364459 -3.10468 0
M  V30 1075 H 97.8347 -2.11109 -3.32906 0
M  V30 1076 H 99.1227 -2.31854 -4.52903 0
M  V30 1077 H 98.5207 0.670784 -5.61709 0
M  V30 1078 H 97.0777 0.389905 -6.50633 0
M  V30 1079 N 100.511 1.16574 -1.06058 0
M  V30 1080 C 101.474 2.19085 -0.673392 0
M  V30 1081 C 102.474 1.5835 0.279648 0
M  V30 1082 O 103.664 1.74088 0.0623488 0
M  V30 1083 C 100.796 3.40899 0.00954234 0
M  V30 1084 H 101.989 2.54853 -1.58081 0
M  V30 1085 H 99.5418 1.30808 -0.855516 0
M  V30 1086 H 100.277 3.10684 0.929826 0
M  V30 1087 H 100.062 3.86233 -0.67573 0
M  V30 1088 H 101.552 4.1675 0.266245 0
M  V30 1089 N 101.989 0.842826 1.3317 0
M  V30 1090 C 103.237 0.439577 1.97262 0
M  V30 1091 C 103.558 -1.00548 1.67078 0
M  V30 1092 O 102.828 -1.70098 0.971779 0
M  V30 1093 H 101.408 0.159558 0.72976 0
M  V30 1094 H 104.07 1.07665 1.62463 0
M  V30 1095 H 103.166 0.574886 3.0676 0
M  V30 1096 N 103.467 -1.45747 0.599634 0
M  V30 1097 C 104.692 -2.07178 0.0960198 0
M  V30 1098 C 105.117 -1.44268 -1.207 0
M  V30 1099 O 104.475 -0.532503 -1.73303 0
M  V30 1100 C 104.523 -3.60579 -0.0385348 0
M  V30 1101 O 103.627 -3.97713 -1.0908 0
M  V30 1102 H 102.968 -0.660251 0.0704593 0
M  V30 1103 H 105.498 -1.87124 0.827385 0
M  V30 1104 H 105.508 -4.07298 -0.239304 0
M  V30 1105 H 104.183 -4.05756 0.912947 0
M  V30 1106 H 102.76 -3.62678 -0.867135 0
M  V30 1107 N 104.945 -0.338344 -1.53925 0
M  V30 1108 C 106.361 0.0137736 -1.59594 0
M  V30 1109 C 106.561 1.49186 -1.35447 0
M  V30 1110 O 105.617 2.24987 -1.14616 0
M  V30 1111 C 106.93 -0.41773 -2.97784 0
M  V30 1112 C 108.478 -0.369633 -3.1081 0
M  V30 1113 C 108.953 -0.776524 -4.51369 0
M  V30 1114 N 110.444 -0.730506 -4.57403 0
M  V30 1115 C 111.179 -1.01736 -5.64303 0
M  V30 1116 N 110.675 -1.3721 -6.79077 0
M  V30 1117 N 112.468 -0.941942 -5.54151 0
M  V30 1118 H 104.619 -1.3012 -1.67876 0
M  V30 1119 H 106.882 -0.530082 -0.78595 0
M  V30 1120 H 106.588 -1.44811 -3.20504 0
M  V30 1121 H 106.462 0.209729 -3.76616 0
M  V30 1122 H 108.849 0.651568 -2.87817 0
M  V30 1123 H 108.93 -1.03223 -2.34049 0
M  V30 1124 H 108.574 -1.79571 -4.75096 0
M  V30 1125 H 108.504 -0.0914649 -5.26521 0
M  V30 1126 H 110.995 -0.468783 -3.74981 0
M  V30 1127 H 111.308 -1.57597 -7.5656 0
M  V30 1128 H 109.653 -1.4105 -6.80536 0
M  V30 1129 H 112.844 -0.664184 -4.63364 0
M  V30 1130 H 113.017 -1.16884 -6.37371 0
M  V30 1131 N 106.423 1.57458 -0.0668435 0
M  V30 1132 C 107.353 2.15468 0.899764 0
M  V30 1133 C 108.334 1.08042 1.31381 0
M  V30 1134 O 109.519 1.36054 1.38574 0
M  V30 1135 C 106.649 2.71232 2.16911 0
M  V30 1136 C 105.603 3.83781 1.89463 0
M  V30 1137 C 104.929 4.26127 3.22986 0
M  V30 1138 C 106.229 5.08238 1.20381 0
M  V30 1139 H 107.923 2.96488 0.416529 0
M  V30 1140 H 105.469 1.4262 0.198908 0
M  V30 1141 H 107.422 3.10458 2.84945 0
M  V30 1142 H 106.146 1.87426 2.67468 0
M  V30 1143 H 104.805 3.45051 1.23836 0
M  V30 1144 H 104.453 3.39249 3.71374 0
M  V30 1145 H 104.153 5.01993 3.05413 0
M  V30 1146 H 105.677 4.67966 3.92225 0
M  V30 1147 H 107.091 5.44811 1.78475 0
M  V30 1148 H 105.488 5.89349 1.13083 0
M  V30 1149 H 106.558 4.84558 0.182153 0
M  V30 1150 N 107.901 -0.206675 1.56239 0
M  V30 1151 C 108.831 -1.25909 1.96645 0
M  V30 1152 C 109.812 -1.48097 0.836734 0
M  V30 1153 O 110.997 -1.6003 1.10019 0
M  V30 1154 C 108.127 -2.6058 2.29599 0
M  V30 1155 C 107.081 -2.53024 3.452 0
M  V30 1156 C 106.407 -3.91861 3.63798 0
M  V30 1157 C 107.707 -2.06524 4.79734 0
M  V30 1158 H 109.401 -0.923369 2.84806 0
M  V30 1159 H 106.947 -0.442735 1.37025 0
M  V30 1160 H 108.9 -3.34375 2.56459 0
M  V30 1161 H 107.624 -2.95869 1.38307 0
M  V30 1162 H 106.283 -1.81684 3.18412 0
M  V30 1163 H 105.931 -4.24483 2.69857 0
M  V30 1164 H 105.631 -3.87683 4.4156 0
M  V30 1165 H 107.155 -4.67296 3.93022 0
M  V30 1166 H 108.569 -2.70072 5.05702 0
M  V30 1167 H 106.966 -2.13374 5.60885 0
M  V30 1168 H 108.036 -1.01802 4.74093 0
M  V30 1169 N 109.379 -1.50304 -0.473955 0
M  V30 1170 C 110.309 -1.71886 -1.58042 0
M  V30 1171 C 111.29 -0.567799 -1.60344 0
M  V30 1172 O 112.475 -0.806623 -1.76656 0
M  V30 1173 C 109.605 -1.81036 -2.96384 0
M  V30 1174 C 108.559 -2.962 -3.08949 0
M  V30 1175 C 107.885 -2.9049 -4.48909 0
M  V30 1176 C 109.185 -4.36752 -2.86434 0
M  V30 1177 H 110.879 -2.64527 -1.40234 0
M  V30 1178 H 108.425 -1.27295 -0.673201 0
M  V30 1179 H 110.378 -1.94719 -3.73714 0
M  V30 1180 H 109.102 -0.850147 -3.15341 0
M  V30 1181 H 107.761 -2.82164 -2.3405 0
M  V30 1182 H 107.409 -1.92321 -4.64781 0
M  V30 1183 H 107.109 -3.67802 -4.58253 0
M  V30 1184 H 108.633 -3.06218 -5.28264 0
M  V30 1185 H 110.047 -4.5133 -3.53517 0
M  V30 1186 H 108.444 -5.15493 -3.07225 0
M  V30 1187 H 109.514 -4.49321 -1.82316 0
M  V30 1188 N 110.857 0.726932 -1.39834 0
M  V30 1189 C 111.787 1.85405 -1.41941 0
M  V30 1190 C 112.768 1.67751 -0.281728 0
M  V30 1191 O 113.953 1.8795 -0.488717 0
M  V30 1192 C 111.083 3.23243 -1.2701 0
M  V30 1193 C 110.037 3.55549 -2.38262 0
M  V30 1194 C 109.363 4.9241 -2.08415 0
M  V30 1195 C 110.663 3.577 -3.80589 0
M  V30 1196 H 112.357 1.83899 -2.36266 0
M  V30 1197 H 109.903 0.883349 -1.13723 0
M  V30 1198 H 111.856 4.01775 -1.27103 0
M  V30 1199 H 110.58 3.25296 -0.291564 0
M  V30 1200 H 109.239 2.79351 -2.37399 0
M  V30 1201 H 108.887 4.91052 -1.0898 0
M  V30 1202 H 108.587 5.14992 -2.82943 0
M  V30 1203 H 110.111 5.73289 -2.10171 0
M  V30 1204 H 111.525 4.26293 -3.83337 0
M  V30 1205 H 109.922 3.91804 -4.54543 0
M  V30 1206 H 110.992 2.57328 -4.10987 0
M  V30 1207 N 112.336 1.25143 0.95797 0
M  V30 1208 C 113.268 1.01023 2.05735 0
M  V30 1209 C 114.281 -0.0236902 1.62783 0
M  V30 1210 O 115.47 0.21448 1.77207 0
M  V30 1211 C 112.57 0.504595 3.35122 0
M  V30 1212 C 111.743 1.6039 4.06932 0
M  V30 1213 C 110.802 1.09922 5.14591 0
M  V30 1214 O 109.828 1.79293 5.40225 0
M  V30 1215 N 111.03 -0.0612545 5.80468 0
M  V30 1216 H 113.795 1.95683 2.26998 0
M  V30 1217 H 111.356 1.16303 1.12629 0
M  V30 1218 H 113.348 0.151516 4.04416 0
M  V30 1219 H 111.918 -0.347989 3.10657 0
M  V30 1220 H 111.138 2.12872 3.31782 0
M  V30 1221 H 112.426 2.34252 4.51667 0
M  V30 1222 H 111.824 -0.640985 5.62057 0
M  V30 1223 H 110.381 -0.355395 6.5083 0
M  V30 1224 N 113.814 -1.1601 1.06675 0
M  V30 1225 C 115.062 -1.86264 0.784229 0
M  V30 1226 C 115.383 -1.82328 -0.691488 0
M  V30 1227 O 114.653 -1.25947 -1.50047 0
M  V30 1228 H 113.233 -0.689621 0.28711 0
M  V30 1229 H 115.895 -1.40664 1.34906 0
M  V30 1230 H 114.991 -2.91595 1.11259 0
M  V30 1231 N 115.292 -0.849877 -1.32721 0
M  V30 1232 C 116.569 -0.372405 -1.92022 0
M  V30 1233 C 116.949 1.1435 -1.77447 0
M  V30 1234 O 116.297 1.96296 -1.16962 0
M  V30 1235 C 116.507 -0.831482 -3.3895 0
M  V30 1236 C 117.855 -0.845882 -4.16089 0
M  V30 1237 O 118.879 -0.775806 -3.47649 0
M  V30 1238 O 117.738 -0.943753 -5.38289 0
M  V30 1239 H 114.832 -0.107667 -0.819961 0
M  V30 1240 H 117.378 -0.93646 -1.41522 0
M  V30 1241 H 116.15 -1.87448 -3.4348 0
M  V30 1242 H 115.773 -0.24461 -3.96847 0
M  V30 1243 N 116.77 1.45427 -0.607355 0
M  V30 1244 C 118.181 1.85756 -0.187535 0
M  V30 1245 C 118.532 1.5077 1.25551 0
M  V30 1246 O 117.657 0.93427 1.95193 0
M  V30 1247 C 118.252 3.37154 -0.333572 0
M  V30 1248 C 116.811 3.76387 0.0315542 0
M  V30 1249 C 115.958 2.69377 -0.658117 0
M  V30 1250 H 118.909 1.36231 -0.81405 0
M  V30 1251 H 118.93 3.78014 0.43428 0
M  V30 1252 H 118.442 3.62586 -1.38393 0
M  V30 1253 H 116.543 3.56571 1.0811 0
M  V30 1254 H 116.656 4.77731 -0.361935 0
M  V30 1255 H 115.02 2.5452 -0.0957873 0
M  V30 1256 H 115.803 2.97646 -1.7106 0
M  V30 1257 N 118.248 0.346503 1.53744 0
M  V30 1258 C 119.18 -0.543316 2.22667 0
M  V30 1259 C 120.193 -1.06159 1.23427 0
M  V30 1260 O 121.382 -0.971235 1.49764 0
M  V30 1261 C 118.482 -1.76076 2.89569 0
M  V30 1262 C 117.655 -1.37727 4.15151 0
M  V30 1263 C 116.714 -2.45471 4.65436 0
M  V30 1264 O 115.74 -2.08655 5.29577 0
M  V30 1265 N 116.942 -3.7677 4.41616 0
M  V30 1266 H 119.707 0.0469703 2.99663 0
M  V30 1267 H 117.268 0.170766 1.60997 0
M  V30 1268 H 119.26 -2.47593 3.20125 0
M  V30 1269 H 117.83 -2.25835 2.16142 0
M  V30 1270 H 117.05 -0.492746 3.91108 0
M  V30 1271 H 118.338 -1.09708 4.96832 0
M  V30 1272 H 117.736 -4.09467 3.90325 0
M  V30 1273 H 116.293 -4.44448 4.7677 0
M  V30 1274 N 119.726 -1.57421 0.075193 0
M  V30 1275 C 120.676 -2.09441 -0.901025 0
M  V30 1276 C 121.66 -1.00486 -1.25663 0
M  V30 1277 O 122.852 -1.2679 -1.23504 0
M  V30 1278 C 119.981 -2.66233 -2.16737 0
M  V30 1279 C 119.067 -3.82198 -1.83808 0
M  V30 1280 N 119.458 -4.91028 -1.21345 0
M  V30 1281 C 117.756 -3.91558 -2.13538 0
M  V30 1282 C 118.457 -5.71852 -1.06585 0
M  V30 1283 N 117.433 -5.20233 -1.57667 0
M  V30 1284 H 121.235 -2.90972 -0.413815 0
M  V30 1285 H 118.749 -1.6189 -0.128601 0
M  V30 1286 H 120.746 -3.01819 -2.87595 0
M  V30 1287 H 119.406 -1.8615 -2.66042 0
M  V30 1288 H 120.417 -5.10323 -0.88268 0
M  V30 1289 H 117.094 -3.22454 -2.65197 0
M  V30 1290 H 118.484 -6.69401 -0.578933 0
M  V30 1291 N 121.204 0.198386 -1.56346 0
M  V30 1292 C 122.134 1.24865 -1.9731 0
M  V30 1293 C 123.115 1.47651 -0.844576 0
M  V30 1294 O 124.3 1.59444 -1.10866 0
M  V30 1295 C 121.43 2.59358 -2.30977 0
M  V30 1296 C 120.384 2.5119 -3.46537 0
M  V30 1297 C 119.71 3.89926 -3.65871 0
M  V30 1298 C 121.01 2.03977 -4.80823 0
M  V30 1299 H 122.704 0.908252 -2.85291 0
M  V30 1300 H 120.25 0.435462 -1.37258 0
M  V30 1301 H 122.203 3.33011 -2.58228 0
M  V30 1302 H 120.927 2.95132 -1.39874 0
M  V30 1303 H 119.586 1.79993 -3.19371 0
M  V30 1304 H 119.234 4.23046 -2.72105 0
M  V30 1305 H 118.934 3.85336 -4.4361 0
M  V30 1306 H 120.458 4.65205 -3.95495 0
M  V30 1307 H 121.872 2.67386 -5.07127 0
M  V30 1308 H 120.269 2.10397 -5.62008 0
M  V30 1309 H 121.339 0.992861 -4.74626 0
M  V30 1310 N 122.682 1.50554 0.465978 0
M  V30 1311 C 123.931 1.61038 1.21448 0
M  V30 1312 C 124.244 0.31865 1.92987 0
M  V30 1313 O 125.45 0.302469 2.6981 0
M  V30 1314 C 123.906 2.84283 2.20706 0
M  V30 1315 C 123.514 4.20352 1.54946 0
M  V30 1316 C 125.258 3.04115 2.96166 0
M  V30 1317 C 123.165 5.34778 2.5252 0
M  V30 1318 H 122.095 0.599718 0.457005 0
M  V30 1319 H 124.746 1.7699 0.484424 0
M  V30 1320 H 123.128 2.61901 2.97025 0
M  V30 1321 H 124.302 4.53008 0.843811 0
M  V30 1322 H 122.617 4.06167 0.917475 0
M  V30 1323 H 125.214 3.86774 3.69202 0
M  V30 1324 H 125.557 2.16045 3.55852 0
M  V30 1325 H 126.09 3.26702 2.26959 0
M  V30 1326 H 122.829 6.25018 1.97566 0
M  V30 1327 H 122.349 5.06534 3.21222 0
M  V30 1328 H 124.028 5.65561 3.14245 0
M  V30 1329 N 124.16 -0.719506 1.40217 0
M  V30 1330 C 125.571 -1.29848 1.34151 0
M  V30 1331 C 125.922 -1.96196 0.0131349 0
M  V30 1332 O 125.047 -1.973 -0.88892 0
M  V30 1333 C 125.642 -2.36118 2.42968 0
M  V30 1334 C 124.201 -2.8965 2.40374 0
M  V30 1335 C 123.348 -1.63393 2.24049 0
M  V30 1336 H 126.299 -0.51591 1.5008 0
M  V30 1337 H 126.32 -3.16871 2.10649 0
M  V30 1338 H 125.832 -1.878 3.39636 0
M  V30 1339 H 123.933 -3.42208 1.47392 0
M  V30 1340 H 124.046 -3.4171 3.35814 0
M  V30 1341 H 122.41 -1.88312 1.71495 0
M  V30 1342 H 123.193 -1.17104 3.2271 0
M  V30 1343 N 125.638 -1.25649 -0.95132 0
M  V30 1344 C 126.57 -1.02112 -2.05197 0
M  V30 1345 C 127.583 0.0150571 -1.62793 0
M  V30 1346 O 128.772 -0.223874 -1.77091 0
M  V30 1347 C 125.872 -0.522361 -3.3485 0
M  V30 1348 C 125.045 -1.62546 -4.06076 0
M  V30 1349 C 124.104 -1.12649 -5.14001 0
M  V30 1350 O 123.13 -1.82156 -5.39266 0
M  V30 1351 N 124.332 0.03047 -5.80492 0
M  V30 1352 H 127.097 -1.96885 -2.25957 0
M  V30 1353 H 124.658 -1.16899 -1.1201 0
M  V30 1354 H 126.65 -0.172961 -4.0433 0
M  V30 1355 H 125.22 0.33151 -3.10837 0
M  V30 1356 H 124.44 -2.14628 -3.30649 0
M  V30 1357 H 125.728 -2.36644 -4.50419 0
M  V30 1358 H 125.126 0.611169 -5.62389 0
M  V30 1359 H 123.683 0.320875 -6.5101 0
M  V30 1360 N 127.117 1.15442 -1.07289 0
M  V30 1361 C 128.047 2.22312 -0.714107 0
M  V30 1362 C 129.028 1.67467 0.298155 0
M  V30 1363 O 130.213 1.93445 0.171048 0
M  V30 1364 C 127.343 3.47124 -0.110448 0
M  V30 1365 C 126.297 4.14926 -1.04979 0
M  V30 1366 C 125.623 5.33807 -0.308924 0
M  V30 1367 C 126.923 4.64762 -2.38314 0
M  V30 1368 H 128.617 2.5258 -1.6076 0
M  V30 1369 H 126.163 1.21404 -0.77441 0
M  V30 1370 H 128.116 4.21124 0.152482 0
M  V30 1371 H 126.84 3.16187 0.81812 0
M  V30 1372 H 125.499 3.42866 -1.29764 0
M  V30 1373 H 125.147 4.99126 0.623084 0
M  V30 1374 H 124.847 5.80113 -0.935036 0
M  V30 1375 H 126.371 6.10576 -0.0537771 0
M  V30 1376 H 127.785 5.30292 -2.1786 0
M  V30 1377 H 126.182 5.21728 -2.96514 0
M  V30 1378 H 127.252 3.80434 -3.00663 0
M  V30 1379 N 128.595 0.856903 1.32268 0
M  V30 1380 C 129.558 0.308171 2.27119 0
M  V30 1381 C 130.558 -0.533421 1.51695 0
M  V30 1382 O 131.748 -0.344607 1.70757 0
M  V30 1383 C 128.88 -0.563757 3.36206 0
M  V30 1384 H 130.073 1.14535 2.77167 0
M  V30 1385 H 127.626 0.631421 1.42978 0
M  V30 1386 H 128.361 -1.42266 2.91429 0
M  V30 1387 H 128.146 0.0386749 3.92081 0
M  V30 1388 H 129.636 -0.940386 4.06874 0
M  V30 1389 N 130.073 -1.45103 0.615059 0
M  V30 1390 C 131.005 -2.28786 -0.13762 0
M  V30 1391 C 132.018 -1.40376 -0.824525 0
M  V30 1392 O 133.207 -1.64681 -0.688662 0
M  V30 1393 C 130.307 -3.16322 -1.21628 0
M  V30 1394 C 129.48 -4.33054 -0.615039 0
M  V30 1395 C 128.539 -5.01743 -1.58556 0
M  V30 1396 O 127.565 -5.58293 -1.10895 0
M  V30 1397 N 128.767 -5.01714 -2.91998 0
M  V30 1398 H 131.532 -2.94025 0.580483 0
M  V30 1399 H 129.093 -1.55373 0.45507 0
M  V30 1400 H 131.085 -3.59139 -1.86552 0
M  V30 1401 H 129.655 -2.52943 -1.83681 0
M  V30 1402 H 128.875 -3.93627 0.21245 0
M  V30 1403 H 130.163 -5.08431 -0.193704 0
M  V30 1404 H 129.561 -4.57075 -3.33316 0
M  V30 1405 H 128.118 -5.48371 -3.52325 0
M  V30 1406 N 131.551 -0.354651 -1.53558 0
M  V30 1407 C 132.483 0.5315 -2.22952 0
M  V30 1408 C 133.496 1.05503 -1.23988 0
M  V30 1409 O 134.685 0.963279 -1.50277 0
M  V30 1410 C 131.785 1.74538 -2.90499 0
M  V30 1411 C 130.958 1.35524 -4.15875 0
M  V30 1412 C 130.017 2.42999 -4.66731 0
M  V30 1413 O 129.043 2.05844 -5.30676 0
M  V30 1414 N 130.245 3.74423 -4.43608 0
M  V30 1415 H 133.01 -0.0628615 -2.99634 0
M  V30 1416 H 130.571 -0.179302 -1.60904 0
M  V30 1417 H 132.563 2.45892 -3.21433 0
M  V30 1418 H 131.133 2.24686 -2.17336 0
M  V30 1419 H 130.353 0.471998 -3.91364 0
M  V30 1420 H 131.641 1.07071 -4.97406 0
M  V30 1421 H 131.039 4.07391 -3.92491 0
M  V30 1422 H 129.596 4.41913 -4.7912 0
M  V30 1423 N 133.029 1.57378 -0.0835403 0
M  V30 1424 C 133.959 2.1641 0.87686 0
M  V30 1425 C 134.94 1.09429 1.30228 0
M  V30 1426 O 136.125 1.37516 1.37124 0
M  V30 1427 C 133.255 2.73517 2.14022 0
M  V30 1428 C 132.209 3.85769 1.85381 0
M  V30 1429 C 131.535 4.29529 3.18448 0
M  V30 1430 C 132.835 5.09486 1.14984 0
M  V30 1431 H 134.529 2.96914 0.385059 0
M  V30 1432 H 132.075 1.42823 0.18377 0
M  V30 1433 H 134.028 3.13463 2.81636 0
M  V30 1434 H 132.752 1.90252 2.65465 0
M  V30 1435 H 131.411 3.46345 1.20169 0
M  V30 1436 H 131.059 3.43169 3.67755 0
M  V30 1437 H 130.759 5.05204 3.00071 0
M  V30 1438 H 132.283 4.72099 3.8724 0
M  V30 1439 H 133.697 5.46674 1.72687 0
M  V30 1440 H 132.094 5.90515 1.06826 0
M  V30 1441 H 133.164 4.84724 0.130749 0
M  V30 1442 N 134.507 -0.190092 1.56449 0
M  V30 1443 C 135.439 -1.25973 1.91477 0
M  V30 1444 C 136.452 -1.41452 0.805931 0
M  V30 1445 O 137.641 -1.41789 1.08435 0
M  V30 1446 C 134.741 -2.63117 2.13594 0
M  V30 1447 C 133.914 -2.69182 3.4476 0
M  V30 1448 C 132.973 -3.87557 3.5593 0
M  V30 1449 O 131.999 -3.74427 4.28711 0
M  V30 1450 N 133.201 -5.03224 2.89388 0
M  V30 1451 H 135.966 -0.962394 2.83828 0
M  V30 1452 H 133.527 -0.379981 1.57378 0
M  V30 1453 H 135.519 -3.40742 2.1835 0
M  V30 1454 H 134.089 -2.85319 1.27719 0
M  V30 1455 H 133.309 -1.77793 3.51828 0
M  V30 1456 H 134.597 -2.70229 4.31107 0
M  V30 1457 H 133.995 -5.16791 2.30094 0
M  V30 1458 H 132.552 -5.78778 2.99764 0
M  V30 1459 N 135.985 -1.50799 -0.457987 0
M  V30 1460 C 136.948 -1.7005 -1.53674 0
M  V30 1461 C 137.948 -0.570881 -1.50325 0
M  V30 1462 O 139.138 -0.838126 -1.52712 0
M  V30 1463 C 136.27 -1.73788 -2.93276 0
M  V30 1464 H 137.463 -2.66306 -1.37917 0
M  V30 1465 H 135.016 -1.40477 -0.685271 0
M  V30 1466 H 135.751 -0.792717 -3.14462 0
M  V30 1467 H 135.536 -2.55864 -2.97113 0
M  V30 1468 H 137.026 -1.90591 -3.71571 0
M  V30 1469 N 137.463 0.71206 -1.40597 0
M  V30 1470 C 138.373 1.8562 -1.43466 0
M  V30 1471 C 139.389 1.70902 -0.326902 0
M  V30 1472 O 140.565 1.93105 -0.572043 0
M  V30 1473 C 137.63 3.21451 -1.29884 0
M  V30 1474 C 136.691 3.48398 -2.50833 0
M  V30 1475 C 135.924 4.77749 -2.3789 0
M  V30 1476 O 136.147 5.53089 -1.39459 0
M  V30 1477 O 135.081 5.05111 -3.27333 0
M  V30 1478 H 138.907 1.86155 -2.39958 0
M  V30 1479 H 136.492 0.86295 -1.21957 0
M  V30 1480 H 138.374 4.02579 -1.24531 0
M  V30 1481 H 137.049 3.21636 -0.364997 0
M  V30 1482 H 135.956 2.67265 -2.61763 0
M  V30 1483 H 137.289 3.53014 -3.4299 0
M  V30 1484 N 138.941 1.26152 0.944643 0
M  V30 1485 C 139.904 1.07474 2.0244 0
M  V30 1486 C 140.904 0.0242064 1.60782 0
M  V30 1487 O 142.094 0.267302 1.72137 0
M  V30 1488 C 139.226 0.633956 3.34953 0
M  V30 1489 H 140.419 2.03336 2.20442 0
M  V30 1490 H 137.972 1.087 1.12312 0
M  V30 1491 H 138.707 -0.326811 3.22649 0
M  V30 1492 H 138.492 1.39247 3.66542 0
M  V30 1493 H 139.982 0.52501 4.14287 0
M  V30 1494 N 140.419 -1.14872 1.07899 0
M  V30 1495 C 141.665 -1.86064 0.806725 0
M  V30 1496 C 141.998 -1.82434 -0.665706 0
M  V30 1497 O 141.273 -1.25138 -1.48899 0
M  V30 1498 C 141.556 -3.34929 1.32267 0
M  V30 1499 C 141.409 -3.47161 2.86006 0
M  V30 1500 C 142.728 -4.29863 0.943717 0
M  V30 1501 H 139.847 -0.675591 0.294526 0
M  V30 1502 H 142.489 -1.34925 1.33773 0
M  V30 1503 H 140.639 -3.78611 0.870974 0
M  V30 1504 H 142.311 -3.12302 3.39507 0
M  V30 1505 H 140.554 -2.88539 3.23925 0
M  V30 1506 H 141.225 -4.51777 3.17177 0
M  V30 1507 H 143.701 -3.9417 1.33302 0
M  V30 1508 H 142.577 -5.32494 1.33198 0
M  V30 1509 H 142.838 -4.41846 -0.149796 0
M  V30 1510 N 141.898 -0.863906 -1.31812 0
M  V30 1511 C 143.128 -0.485406 -2.00817 0
M  V30 1512 C 143.536 0.925007 -1.65046 0
M  V30 1513 O 142.879 1.61653 -0.872574 0
M  V30 1514 C 142.941 -0.555589 -3.55181 0
M  V30 1515 C 142.605 -1.92654 -4.14407 0
M  V30 1516 C 143.602 -2.89324 -4.31958 0
M  V30 1517 C 141.287 -2.2262 -4.50273 0
M  V30 1518 C 143.281 -4.14108 -4.84555 0
M  V30 1519 C 140.968 -3.47654 -5.02573 0
M  V30 1520 C 141.966 -4.43214 -5.19664 0
M  V30 1521 O 141.654 -5.66033 -5.70843 0
M  V30 1522 H 141.386 -0.188224 -0.649267 0
M  V30 1523 H 143.94 -1.16514 -1.69156 0
M  V30 1524 H 142.17 0.181037 -3.86276 0
M  V30 1525 H 143.859 -0.19138 -4.05449 0
M  V30 1526 H 144.625 -2.6748 -4.04573 0
M  V30 1527 H 140.504 -1.4902 -4.3625 0
M  V30 1528 H 144.048 -4.88703 -4.9781 0
M  V30 1529 H 139.945 -3.69345 -5.29391 0
M  V30 1530 H 140.713 -5.6812 -5.89222 0
M  V30 1531 N 143.376 1.44774 -0.622745 0
M  V30 1532 C 144.622 2.02968 -0.13257 0
M  V30 1533 C 144.977 1.48047 1.22881 0
M  V30 1534 O 144.27 0.651625 1.80179 0
M  V30 1535 C 144.464 3.57364 -0.0508323 0
M  V30 1536 C 144.293 4.27262 -1.40275 0
M  V30 1537 C 143.063 4.64577 -1.98737 0
M  V30 1538 C 145.261 4.58248 -2.3348 0
M  V30 1539 N 143.243 5.19404 -3.27251 0
M  V30 1540 C 144.614 5.14069 -3.46603 0
M  V30 1541 C 146.669 4.40195 -2.32664 0
M  V30 1542 C 145.372 5.53738 -4.59093 0
M  V30 1543 C 147.398 4.80907 -3.44213 0
M  V30 1544 C 146.76 5.36834 -4.56058 0
M  V30 1545 H 142.859 0.776541 -0.0922354 0
M  V30 1546 H 145.443 1.76385 -0.82441 0
M  V30 1547 H 143.614 3.83576 0.610265 0
M  V30 1548 H 145.346 4.02219 0.447397 0
M  V30 1549 H 142.101 4.48622 -1.51774 0
M  V30 1550 H 142.525 5.51301 -3.92933 0
M  V30 1551 H 147.167 3.96257 -1.47446 0
M  V30 1552 H 144.885 5.96635 -5.45025 0
M  V30 1553 H 148.471 4.68659 -3.44747 0
M  V30 1554 H 147.351 5.67755 -5.40947 0
M  V30 1555 N 144.854 0.36279 1.53368 0
M  V30 1556 C 145.802 -0.500155 2.27159 0
M  V30 1557 C 146.796 -1.08575 1.3003 0
M  V30 1558 O 148.002 -1.02927 1.47668 0
M  V30 1559 H 144.377 -0.180009 0.730138 0
M  V30 1560 H 146.348 0.14401 2.98052 0
M  V30 1561 C 145.097 -1.62937 3.07159 0
M  V30 1562 H 144.42 -1.18806 3.8174 0
M  V30 1563 H 145.86 -2.20795 3.61975 0
M  V30 1564 C 144.319 -2.57007 2.17829 0
M  V30 1565 O 144.849 -3.59752 1.78721 0
M  V30 1566 N 143.055 -2.26131 1.82518 0
M  V30 1567 H 142.602 -1.42616 2.14519 0
M  V30 1568 H 142.56 -2.89327 1.23034 0
M  V30 1569 N 146.332 -1.57332 0.0918853 0
M  V30 1570 C 147.264 -2.10869 -0.898168 0
M  V30 1571 C 148.277 -1.04521 -1.24817 0
M  V30 1572 O 149.466 -1.31977 -1.20184 0
M  V30 1573 C 146.566 -2.57083 -2.2082 0
M  V30 1574 C 145.739 -3.87229 -2.03402 0
M  V30 1575 C 144.798 -4.19324 -3.17889 0
M  V30 1576 O 143.824 -4.88598 -2.91994 0
M  V30 1577 N 145.026 -3.74471 -4.43567 0
M  V30 1578 H 147.791 -2.96439 -0.440943 0
M  V30 1579 H 145.352 -1.61631 -0.0933064 0
M  V30 1580 H 147.344 -2.75602 -2.96354 0
M  V30 1581 H 145.914 -1.76541 -2.57977 0
M  V30 1582 H 145.134 -3.7789 -1.12218 0
M  V30 1583 H 146.422 -4.72379 -1.89038 0
M  V30 1584 H 145.82 -3.18546 -4.67488 0
M  V30 1585 H 144.377 -3.98151 -5.16061 0
M  V30 1586 N 147.81 0.181792 -1.56548 0
M  V30 1587 C 149.087 0.926765 -1.72251 0
M  V30 1588 C 149.467 2.00831 -0.650386 0
M  V30 1589 O 148.815 2.26008 0.336521 0
M  V30 1590 C 149.025 1.50106 -3.1507 0
M  V30 1591 C 150.373 1.97805 -3.75711 0
M  V30 1592 O 151.397 1.59922 -3.18282 0
M  V30 1593 O 150.256 2.67555 -4.76525 0
M  V30 1594 H 147.35 0.435506 -0.703039 0
M  V30 1595 H 149.896 0.170443 -1.68842 0
M  V30 1596 H 148.668 0.72212 -3.84579 0
M  V30 1597 H 148.291 2.32186 -3.22763 0
M  V30 1598 N 149.288 1.51039 0.449983 0
M  V30 1599 C 150.537 1.62317 1.19733 0
M  V30 1600 C 150.85 0.339101 1.92638 0
M  V30 1601 O 152.056 0.331069 2.69474 0
M  V30 1602 C 150.512 2.86608 2.17678 0
M  V30 1603 C 150.12 4.21972 1.50479 0
M  V30 1604 C 151.864 3.07239 2.92924 0
M  V30 1605 C 149.771 5.37426 2.46834 0
M  V30 1606 H 148.701 0.604532 0.450619 0
M  V30 1607 H 151.352 1.77494 0.465625 0
M  V30 1608 H 149.734 2.65037 2.94231 0
M  V30 1609 H 150.908 4.53878 0.795716 0
M  V30 1610 H 149.223 4.07117 0.874344 0
M  V30 1611 H 151.82 3.90668 3.65079 0
M  V30 1612 H 152.163 2.19807 3.5354 0
M  V30 1613 H 152.696 3.29091 2.23481 0
M  V30 1614 H 149.435 6.27079 1.90926 0
M  V30 1615 H 148.955 5.09912 3.15832 0
M  V30 1616 H 150.634 5.68862 3.08228 0
M  V30 1617 N 150.766 -0.704594 1.40972 0
M  V30 1618 C 151.676 -1.84856 1.44448 0
M  V30 1619 C 152.692 -1.70726 0.335961 0
M  V30 1620 O 153.868 -1.92799 0.582276 0
M  V30 1621 C 150.933 -3.20758 1.31587 0
M  V30 1622 C 149.994 -3.47063 2.52677 0
M  V30 1623 C 149.227 -4.76481 2.4042 0
M  V30 1624 O 149.45 -5.52341 1.42391 0
M  V30 1625 O 148.384 -5.03367 3.30007 0
M  V30 1626 H 152.21 -1.8488 2.40942 0
M  V30 1627 H 149.795 -0.85647 1.22413 0
M  V30 1628 H 151.677 -4.01913 1.26665 0
M  V30 1629 H 150.352 -3.21438 0.382049 0
M  V30 1630 H 149.259 -2.65873 2.63177 0
M  V30 1631 H 150.592 -3.5119 3.44858 0
M  V30 1632 N 152.244 -1.26651 -0.937939 0
M  V30 1633 C 153.655 -1.1125 -1.49934 0
M  V30 1634 C 154.006 0.306077 -1.93798 0
M  V30 1635 O 153.131 1.19792 -1.80219 0
M  V30 1636 C 153.726 -2.01339 -2.72485 0
M  V30 1637 C 152.285 -1.90074 -3.24883 0
M  V30 1638 C 151.432 -1.94498 -1.97651 0
M  V30 1639 H 154.383 -1.39693 -0.753091 0
M  V30 1640 H 154.404 -1.56319 -3.46907 0
M  V30 1641 H 153.916 -3.04577 -2.40529 0
M  V30 1642 H 152.017 -0.897827 -3.61621 0
M  V30 1643 H 152.13 -2.75778 -3.9177 0
M  V30 1644 H 150.494 -1.38591 -2.13693 0
M  V30 1645 H 151.277 -2.99372 -1.68022 0
M  V30 1646 N 153.722 1.14298 -1.08507 0
M  V30 1647 C 154.952 1.88945 -0.835663 0
M  V30 1648 C 155.36 1.78894 0.615928 0
M  V30 1649 O 154.703 1.1468 1.43506 0
M  V30 1650 C 154.765 3.39585 -1.17994 0
M  V30 1651 C 154.429 3.7342 -2.63451 0
M  V30 1652 C 155.426 3.73454 -3.61702 0
M  V30 1653 C 153.111 4.03368 -2.99332 0
M  V30 1654 C 155.105 4.02961 -4.93864 0
M  V30 1655 C 152.792 4.32538 -4.31687 0
M  V30 1656 C 153.79 4.32318 -5.28763 0
M  V30 1657 O 153.478 4.6078 -6.58739 0
M  V30 1658 H 153.21 0.605307 -0.300965 0
M  V30 1659 H 155.764 1.45673 -1.44806 0
M  V30 1660 H 153.994 3.83315 -0.51055 0
M  V30 1661 H 155.683 3.9554 -0.911182 0
M  V30 1662 H 156.449 3.50403 -3.35325 0
M  V30 1663 H 152.328 4.02692 -2.24411 0
M  V30 1664 H 155.872 4.02704 -5.69627 0
M  V30 1665 H 151.769 4.55059 -4.57812 0
M  V30 1666 H 152.537 4.78492 -6.64069 0
M  V30 1667 N 155.201 0.870884 1.31352 0
M  V30 1668 C 156.449 0.48132 1.96285 0
M  V30 1669 C 156.77 -0.969813 1.69173 0
M  V30 1670 O 156.04 -1.67998 1.00764 0
M  V30 1671 H 154.62 0.175002 0.726212 0
M  V30 1672 H 157.282 1.11087 1.60143 0
M  V30 1673 H 156.378 0.639825 3.05471 0
M  V30 1674 N 156.679 -1.44442 0.630414 0
M  V30 1675 C 158.095 -1.56832 0.295973 0
M  V30 1676 C 158.295 -1.61806 -1.20088 0
M  V30 1677 O 157.351 -1.5607 -1.9849 0
M  V30 1678 C 158.664 -2.84031 0.987264 0
M  V30 1679 C 160.212 -2.97742 0.96534 0
M  V30 1680 C 160.687 -4.27743 1.63708 0
M  V30 1681 N 162.178 -4.34555 1.60364 0
M  V30 1682 C 162.913 -5.33862 2.09234 0
M  V30 1683 N 162.409 -6.39578 2.66292 0
M  V30 1684 N 164.202 -5.25366 1.99867 0
M  V30 1685 H 156.353 -1.39457 1.60205 0
M  V30 1686 H 158.616 -0.668237 0.672431 0
M  V30 1687 H 158.322 -2.86338 2.04215 0
M  V30 1688 H 158.196 -3.73534 0.524588 0
M  V30 1689 H 160.583 -2.94989 -0.0810639 0
M  V30 1690 H 160.664 -2.09589 1.4665 0
M  V30 1691 H 160.308 -4.31255 2.68293 0
M  V30 1692 H 160.238 -5.14752 1.11076 0
M  V30 1693 H 162.729 -3.58772 1.18705 0
M  V30 1694 H 163.042 -7.11637 3.01317 0
M  V30 1695 H 161.387 -6.40265 2.70343 0
M  V30 1696 H 164.578 -4.41688 1.55013 0
M  V30 1697 H 164.751 -6.02606 2.38265 0
M  V30 1698 N 158.157 -0.370918 -1.53173 0
M  V30 1699 C 159.434 0.273754 -1.93675 0
M  V30 1700 C 159.814 1.65938 -1.3049 0
M  V30 1701 O 159.162 2.23698 -0.465999 0
M  V30 1702 C 159.372 0.318602 -3.47543 0
M  V30 1703 C 160.72 0.556392 -4.20939 0
M  V30 1704 O 161.744 0.399587 -3.53952 0
M  V30 1705 O 160.603 0.862133 -5.39657 0
M  V30 1706 H 157.697 0.165448 -0.810281 0
M  V30 1707 H 160.243 -0.42409 -1.64315 0
M  V30 1708 H 159.015 -0.652687 -3.85818 0
M  V30 1709 H 158.638 1.06212 -3.83151 0
M  V30 1710 N 159.635 1.57281 -0.100228 0
M  V30 1711 C 161.051 1.57527 0.256416 0
M  V30 1712 C 161.251 1.11173 1.68056 0
M  V30 1713 O 160.307 0.79053 2.39806 0
M  V30 1714 C 161.62 3.00673 0.0401747 0
M  V30 1715 C 163.168 3.12815 0.107528 0
M  V30 1716 C 163.643 4.57929 -0.0807834 0
M  V30 1717 N 165.134 4.63193 -0.0261207 0
M  V30 1718 C 165.869 5.73212 -0.146999 0
M  V30 1719 N 165.365 6.92047 -0.322999 0
M  V30 1720 N 167.158 5.62031 -0.0879044 0
M  V30 1721 H 159.309 1.85718 -1.03065 0
M  V30 1722 H 161.572 0.857446 -0.404339 0
M  V30 1723 H 161.278 3.38804 -0.943649 0
M  V30 1724 H 161.152 3.69042 0.780262 0
M  V30 1725 H 163.539 2.74554 1.08186 0
M  V30 1726 H 163.62 2.47028 -0.664134 0
M  V30 1727 H 163.264 4.96886 -1.05201 0
M  V30 1728 H 163.194 5.21783 0.710635 0
M  V30 1729 H 165.685 3.77748 0.107161 0
M  V30 1730 H 165.998 7.7173 -0.406608 0
M  V30 1731 H 164.343 6.94074 -0.358733 0
M  V30 1732 H 167.534 4.68075 0.048498 0
M  V30 1733 H 167.707 6.47734 -0.185557 0
M  V30 1734 N 161.113 -0.173488 1.56642 0
M  V30 1735 C 162.39 -0.917617 1.7274 0
M  V30 1736 C 162.77 -2.00484 0.661027 0
M  V30 1737 O 162.118 -2.26184 -0.32453 0
M  V30 1738 C 162.328 -1.48433 3.15862 0
M  V30 1739 C 163.676 -1.95809 3.76754 0
M  V30 1740 O 164.7 -1.58231 3.19126 0
M  V30 1741 O 163.559 -2.65024 4.77938 0
M  V30 1742 H 160.653 -0.431772 0.705338 0
M  V30 1743 H 163.199 -0.161487 1.6893 0
M  V30 1744 H 161.971 -0.701715 3.84957 0
M  V30 1745 H 161.594 -2.30471 3.23989 0
M  V30 1746 N 162.591 -1.51276 -0.441967 0
M  V30 1747 C 163.839 -1.63392 -1.18943 0
M  V30 1748 C 164.16 -0.350159 -1.9183 0
M  V30 1749 O 163.43 0.633784 -1.85364 0
M  V30 1750 H 162.01 -0.602164 -0.442049 0
M  V30 1751 H 164.672 -1.88186 -0.507165 0
M  V30 1752 H 163.768 -2.45934 -1.92154 0
M  V30 1753 N 164.069 0.697108 -1.41344 0
M  V30 1754 C 165.001 1.8224 -1.39001 0
M  V30 1755 C 166.014 1.60152 -0.292428 0
M  V30 1756 O 167.203 1.69684 -0.554048 0
M  V30 1757 C 164.303 3.18976 -1.14489 0
M  V30 1758 C 163.476 3.68105 -2.36258 0
M  V30 1759 C 162.535 4.83506 -2.07625 0
M  V30 1760 O 161.561 4.95201 -2.8065 0
M  V30 1761 N 162.763 5.70637 -1.06555 0
M  V30 1762 H 165.528 1.84742 -2.35988 0
M  V30 1763 H 163.089 0.87937 -1.35936 0
M  V30 1764 H 165.081 3.93801 -0.932885 0
M  V30 1765 H 163.651 3.11508 -0.261043 0
M  V30 1766 H 162.871 2.84204 -2.7317 0
M  V30 1767 H 164.159 3.97667 -3.17393 0
M  V30 1768 H 163.557 5.63817 -0.461125 0
M  V30 1769 H 162.114 6.45368 -0.913444 0
M  V30 1770 N 165.547 1.27147 0.931209 0
M  V30 1771 C 166.793 1.13446 1.68101 0
M  V30 1772 C 167.126 -0.319628 1.91552 0
M  V30 1773 O 166.401 -1.23407 1.50336 0
M  V30 1774 C 166.684 1.91482 3.0497 0
M  V30 1775 C 166.537 3.44855 2.88782 0
M  V30 1776 C 167.856 1.71651 4.05246 0
M  V30 1777 H 164.975 0.413498 0.610072 0
M  V30 1778 H 167.617 1.56261 1.08086 0
M  V30 1779 H 165.767 1.55095 3.56199 0
M  V30 1780 H 167.439 3.9105 2.44698 0
M  V30 1781 H 165.682 3.71373 2.24198 0
M  V30 1782 H 166.353 3.94694 3.85902 0
M  V30 1783 H 168.829 2.0337 3.63015 0
M  V30 1784 H 167.705 2.28651 4.99009 0
M  V30 1785 H 167.966 0.663555 4.37092 0
M  V30 1786 N 167.025 -1.13721 1.09112 0
M  V30 1787 C 167.988 -2.17222 0.731241 0
M  V30 1788 C 168.988 -1.59035 -0.237566 0
M  V30 1789 O 170.178 -1.74192 -0.0161704 0
M  V30 1790 C 167.31 -3.40804 0.0808443 0
M  V30 1791 H 168.503 -2.50573 1.64783 0
M  V30 1792 H 166.056 -1.28493 0.889897 0
M  V30 1793 H 166.791 -3.1304 -0.847127 0
M  V30 1794 H 166.576 -3.84306 0.777896 0
M  V30 1795 H 168.066 -4.1731 -0.155657 0
M  V30 1796 N 168.503 -0.877838 -1.30888 0
M  V30 1797 C 169.466 -0.344265 -2.266 0
M  V30 1798 C 170.466 0.50922 -1.52524 0
M  V30 1799 O 171.656 0.317398 -1.71284 0
M  V30 1800 C 168.788 0.510198 -3.37061 0
M  V30 1801 H 169.981 -1.1893 -2.7531 0
M  V30 1802 H 167.534 -0.654088 -1.41956 0
M  V30 1803 H 168.269 1.37612 -2.93655 0
M  V30 1804 H 168.054 -0.101047 -3.9197 0
M  V30 1805 H 169.544 0.875537 -4.08319 0
M  V30 1806 N 169.982 1.44106 -0.638065 0
M  V30 1807 C 170.945 2.29138 0.0531013 0
M  V30 1808 C 171.945 1.41409 0.765506 0
M  V30 1809 O 173.135 1.63206 0.609046 0
M  V30 1810 C 170.267 3.23144 1.08584 0
M  V30 1811 H 171.46 2.91739 -0.694883 0
M  V30 1812 H 169.013 1.51134 -0.398538 0
M  V30 1813 H 169.748 2.65408 1.86357 0
M  V30 1814 H 169.533 3.87804 0.578852 0
M  V30 1815 H 171.023 3.87004 1.56899 0
M  V30 1816 N 171.46 0.379036 1.52974 0
M  V30 1817 C 172.39 -0.452706 2.29069 0
M  V30 1818 C 173.371 -1.07237 1.32039 0
M  V30 1819 O 174.556 -1.08708 1.60923 0
M  V30 1820 C 171.686 -1.5856 3.08992 0
M  V30 1821 C 170.64 -1.0925 4.13822 0
M  V30 1822 C 169.966 -2.31668 4.81907 0
M  V30 1823 C 171.266 -0.167702 5.22031 0
M  V30 1824 H 172.96 0.182181 2.98845 0
M  V30 1825 H 170.506 0.0890592 1.43724 0
M  V30 1826 H 172.459 -2.1742 3.6098 0
M  V30 1827 H 171.183 -2.24792 2.36931 0
M  V30 1828 H 169.842 -0.526494 3.628 0
M  V30 1829 H 169.49 -2.96386 4.06404 0
M  V30 1830 H 169.19 -1.9934 5.52754 0
M  V30 1831 H 170.714 -2.91189 5.36695 0
M  V30 1832 H 172.128 -0.664186 5.6944 0
M  V30 1833 H 170.525 0.0653265 6.00064 0
M  V30 1834 H 171.595 0.786347 4.78482 0
M  V30 1835 N 172.938 -1.57226 0.108567 0
M  V30 1836 C 173.885 -2.14756 -0.845481 0
M  V30 1837 C 174.855 -1.06971 -1.27068 0
M  V30 1838 O 176.04 -1.34827 -1.35005 0
M  V30 1839 C 173.18 -2.74298 -2.09415 0
M  V30 1840 C 172.293 -3.96358 -1.71826 0
M  V30 1841 C 171.428 -4.44021 -2.9158 0
M  V30 1842 C 170.467 -5.58637 -2.50181 0
M  V30 1843 N 169.604 -6.01091 -3.62814 0
M  V30 1844 H 174.444 -2.95961 -0.348035 0
M  V30 1845 H 171.981 -1.46226 -0.160106 0
M  V30 1846 H 173.939 -3.06945 -2.82561 0
M  V30 1847 H 172.569 -1.95801 -2.56636 0
M  V30 1848 H 171.621 -3.69939 -0.885947 0
M  V30 1849 H 172.933 -4.79504 -1.37394 0
M  V30 1850 H 172.087 -4.78522 -3.72963 0
M  V30 1851 H 170.826 -3.59803 -3.29231 0
M  V30 1852 H 169.831 -5.23751 -1.67228 0
M  V30 1853 H 171.056 -6.44613 -2.13659 0
M  V30 1854 H 169.002 -5.19817 -4.00158 0
M  V30 1855 H 168.919 -6.79066 -3.32273 0
M  V30 1856 H 170.187 -6.40227 -4.44668 0
M  V30 1857 N 174.416 0.165178 -1.56732 0
M  V30 1858 C 175.644 0.896218 -1.86482 0
M  V30 1859 C 176.059 1.75555 -0.694675 0
M  V30 1860 O 175.416 1.79379 0.33607 0
M  V30 1861 C 175.467 1.76792 -3.1532 0
M  V30 1862 O 175.188 0.943239 -4.27825 0
M  V30 1863 C 176.689 2.6081 -3.58459 0
M  V30 1864 H 173.909 0.260064 -0.618553 0
M  V30 1865 H 176.453 0.163428 -2.03846 0
M  V30 1866 H 174.608 2.45398 -2.99764 0
M  V30 1867 H 175.022 1.53998 -5.01383 0
M  V30 1868 H 176.496 3.17579 -4.51495 0
M  V30 1869 H 176.973 3.35977 -2.82872 0
M  V30 1870 H 177.579 1.97526 -3.76648 0
M  V30 1871 N 175.894 1.51508 0.433938 0
M  V30 1872 C 176.857 1.72473 1.50949 0
M  V30 1873 C 177.857 0.594725 1.49398 0
M  V30 1874 O 179.047 0.862315 1.5136 0
M  V30 1875 C 176.179 1.78431 2.90474 0
M  V30 1876 H 177.372 2.68467 1.33662 0
M  V30 1877 H 174.925 1.41549 0.662836 0
M  V30 1878 H 175.66 0.842645 3.13161 0
M  V30 1879 H 175.445 2.60558 2.93005 0
M  V30 1880 H 176.935 1.96479 3.68491 0
M  V30 1881 N 177.372 -0.689602 1.41712 0
M  V30 1882 C 178.62 -1.4468 1.4111 0
M  V30 1883 C 178.941 -1.94986 0.0232196 0
M  V30 1884 O 178.211 -1.72097 -0.935913 0
M  V30 1885 H 176.791 -0.536847 0.519427 0
M  V30 1886 H 179.453 -0.815825 1.77004 0
M  V30 1887 H 178.549 -2.30706 2.10193 0
M  V30 1888 N 178.85 -1.27639 -0.924453 0
M  V30 1889 C 180.099 -1.13549 -1.66702 0
M  V30 1890 C 180.412 0.317487 -1.93006 0
M  V30 1891 O 181.618 0.579333 -2.65247 0
M  V30 1892 C 180.074 -1.98426 -3.00259 0
M  V30 1893 C 179.682 -3.484 -2.81641 0
M  V30 1894 C 181.426 -1.92993 -3.78092 0
M  V30 1895 C 179.333 -4.25464 -4.10773 0
M  V30 1896 H 178.263 -0.421351 -0.625283 0
M  V30 1897 H 180.914 -1.52085 -1.02676 0
M  V30 1898 H 179.296 -1.52736 -3.6536 0
M  V30 1899 H 180.47 -4.01973 -2.25287 0
M  V30 1900 H 178.785 -3.55245 -2.17232 0
M  V30 1901 H 181.382 -2.47844 -4.7379 0
M  V30 1902 H 181.725 -0.904281 -4.0636 0
M  V30 1903 H 182.258 -2.36595 -3.19793 0
M  V30 1904 H 178.997 -5.28566 -3.87683 0
M  V30 1905 H 178.517 -3.76667 -4.66779 0
M  V30 1906 H 180.196 -4.34812 -4.79111 0
M  V30 1907 N 180.328 1.1314 -1.09713 0
M  V30 1908 C 181.744 1.36477 -0.827423 0
M  V30 1909 C 181.944 1.93654 0.556817 0
M  V30 1910 O 181 2.15791 1.31112 0
M  V30 1911 C 182.313 2.31334 -1.92106 0
M  V30 1912 C 183.861 2.44943 -1.94864 0
M  V30 1913 C 184.336 3.4311 -3.0338 0
M  V30 1914 N 185.827 3.50662 -3.02639 0
M  V30 1915 C 186.562 4.2651 -3.83246 0
M  V30 1916 N 186.058 5.05485 -4.73768 0
M  V30 1917 N 187.851 4.2184 -3.71493 0
M  V30 1918 H 180.002 0.743807 -1.9895 0
M  V30 1919 H 182.265 0.389823 -0.864143 0
M  V30 1920 H 181.971 1.96483 -2.91698 0
M  V30 1921 H 181.845 3.31381 -1.80184 0
M  V30 1922 H 184.232 2.79079 -0.959099 0
M  V30 1923 H 184.313 1.4481 -2.10864 0
M  V30 1924 H 183.957 3.09704 -4.02549 0
M  V30 1925 H 183.887 4.43055 -2.84622 0
M  V30 1926 H 186.378 2.94315 -2.37039 0
M  V30 1927 H 186.691 5.60675 -5.3185 0
M  V30 1928 H 185.036 5.04708 -4.77802 0
M  V30 1929 H 188.227 3.5922 -3.00131 0
M  V30 1930 H 188.4 4.80697 -4.3455 0
M  V30 1931 N 181.806 0.884767 1.30421 0
M  V30 1932 C 182.769 0.356277 2.26414 0
M  V30 1933 C 183.769 -0.501124 1.52792 0
M  V30 1934 O 184.959 -0.30831 1.7145 0
M  V30 1935 C 182.091 -0.492316 3.37326 0
M  V30 1936 H 183.284 1.20389 2.74675 0
M  V30 1937 H 180.837 0.661607 1.41607 0
M  V30 1938 H 181.572 -1.36052 2.94381 0
M  V30 1939 H 181.357 0.121832 3.91911 0
M  V30 1940 H 182.847 -0.853871 4.08777 0
M  V30 1941 N 183.284 -1.43765 0.645699 0
M  V30 1942 C 184.53 -2.02197 0.156271 0
M  V30 1943 C 184.863 -1.50776 -1.22393 0
M  V30 1944 O 184.138 -0.697771 -1.81553 0
M  V30 1945 C 184.421 -3.59749 0.158872 0
M  V30 1946 C 184.274 -4.21419 1.57245 0
M  V30 1947 C 185.593 -4.37149 -0.50879 0
M  V30 1948 H 182.712 -0.734694 0.0582602 0
M  V30 1949 H 185.354 -1.71157 0.824951 0
M  V30 1950 H 183.504 -3.86325 -0.410525 0
M  V30 1951 H 185.176 -4.059 2.19186 0
M  V30 1952 H 183.419 -3.78356 2.122 0
M  V30 1953 H 184.09 -5.30482 1.52619 0
M  V30 1954 H 186.566 -4.16093 -0.024412 0
M  V30 1955 H 185.442 -5.4683 -0.476213 0
M  V30 1956 H 185.703 -4.12839 -1.58165 0
M  V30 1957 N 184.763 -0.387143 -1.52771 0
M  V30 1958 C 185.695 0.484089 -2.2403 0
M  V30 1959 C 186.708 1.02849 -1.26198 0
M  V30 1960 O 187.897 0.931186 -1.52286 0
M  V30 1961 C 184.997 1.68337 -2.94136 0
M  V30 1962 C 184.17 1.26672 -4.18656 0
M  V30 1963 C 183.229 2.33045 -4.7178 0
M  V30 1964 O 182.255 1.94541 -5.34923 0
M  V30 1965 N 183.457 3.64929 -4.5145 0
M  V30 1966 H 186.222 -0.126404 -2.99433 0
M  V30 1967 H 183.783 -0.213392 -1.60488 0
M  V30 1968 H 185.775 2.39019 -3.26577 0
M  V30 1969 H 184.345 2.20025 -2.22053 0
M  V30 1970 H 183.565 0.388878 -3.92277 0
M  V30 1971 H 184.853 0.964964 -4.99566 0
M  V30 1972 H 184.251 3.98974 -4.01044 0
M  V30 1973 H 182.808 4.31651 -4.88386 0
M  V30 1974 N 186.241 1.57166 -0.116904 0
M  V30 1975 C 187.171 2.18222 0.830759 0
M  V30 1976 C 188.152 1.12167 1.27877 0
M  V30 1977 O 189.337 1.40394 1.34176 0
M  V30 1978 C 186.467 2.77996 2.08172 0
M  V30 1979 C 185.421 3.89614 1.77157 0
M  V30 1980 C 184.747 4.36187 3.09265 0
M  V30 1981 C 186.047 5.1181 1.04151 0
M  V30 1982 H 187.741 2.97664 0.321992 0
M  V30 1983 H 185.287 1.4318 0.153434 0
M  V30 1984 H 187.24 3.19366 2.74924 0
M  V30 1985 H 185.964 1.9584 2.6137 0
M  V30 1986 H 184.623 3.48816 1.12796 0
M  V30 1987 H 184.271 3.50893 3.60393 0
M  V30 1988 H 183.971 5.11455 2.89288 0
M  V30 1989 H 185.495 4.80207 3.77139 0
M  V30 1990 H 186.909 5.50214 1.61052 0
M  V30 1991 H 185.306 5.92648 0.942762 0
M  V30 1992 H 186.376 4.84892 0.0279022 0
M  V30 1993 N 187.719 -0.156864 1.56817 0
M  V30 1994 C 188.965 -0.867645 1.83966 0
M  V30 1995 C 189.32 -1.79233 0.699511 0
M  V30 1996 O 188.613 -1.89186 -0.303176 0
M  V30 1997 C 188.807 -1.68737 3.1506 0
M  V30 1998 C 188.636 -0.843548 4.41718 0
M  V30 1999 C 187.406 -0.512994 5.02689 0
M  V30 2000 C 189.604 -0.178416 5.1399 0
M  V30 2001 N 187.586 0.345456 6.12927 0
M  V30 2002 C 188.957 0.540586 6.17639 0
M  V30 2003 C 191.012 -0.0980696 4.97803 0
M  V30 2004 C 189.715 1.33233 7.06853 0
M  V30 2005 C 191.741 0.680387 5.87473 0
M  V30 2006 C 191.103 1.3877 6.90596 0
M  V30 2007 H 187.202 -0.295642 0.723961 0
M  V30 2008 H 189.786 -0.13365 1.94241 0
M  V30 2009 H 187.957 -2.39268 3.0595 0
M  V30 2010 H 189.689 -2.34056 3.30151 0
M  V30 2011 H 186.444 -0.846476 4.65974 0
M  V30 2012 H 186.868 0.765415 6.72659 0
M  V30 2013 H 191.51 -0.630562 4.18071 0
M  V30 2014 H 189.228 1.87612 7.8602 0
M  V30 2015 H 192.814 0.744415 5.77018 0
M  V30 2016 H 191.694 1.9804 7.58782 0
M  V30 2017 N 189.197 -1.51736 -0.425897 0
M  V30 2018 C 190.474 -1.55519 -1.1863 0
M  V30 2019 C 190.854 -0.326219 -2.08564 0
M  V30 2020 O 190.202 0.688012 -2.17896 0
M  V30 2021 C 190.412 -2.87521 -1.9782 0
M  V30 2022 C 191.76 -3.39899 -2.54468 0
M  V30 2023 O 192.784 -2.89148 -2.08019 0
M  V30 2024 O 191.643 -4.2848 -3.39215 0
M  V30 2025 H 188.737 -0.625739 -0.540721 0
M  V30 2026 H 191.283 -1.64055 -0.434038 0
M  V30 2027 H 190.055 -3.68422 -1.31836 0
M  V30 2028 H 189.678 -2.822 -2.80088 0
M  V30 2029 N 190.675 0.682077 -1.42076 0
M  V30 2030 C 191.607 1.80755 -1.40926 0
M  V30 2031 C 192.62 1.59833 -0.309398 0
M  V30 2032 O 193.809 1.69087 -0.572014 0
M  V30 2033 C 190.909 3.17744 -1.17865 0
M  V30 2034 C 190.082 3.65578 -2.40149 0
M  V30 2035 C 189.141 4.81277 -2.12742 0
M  V30 2036 O 188.167 4.92197 -2.85887 0
M  V30 2037 N 189.369 5.69474 -1.12602 0
M  V30 2038 H 192.134 1.82229 -2.37935 0
M  V30 2039 H 189.695 0.864903 -1.36861 0
M  V30 2040 H 191.687 3.9279 -0.9746 0
M  V30 2041 H 190.257 3.11214 -0.294068 0
M  V30 2042 H 189.477 2.81291 -2.76169 0
M  V30 2043 H 190.765 3.94278 -3.21593 0
M  V30 2044 H 190.163 5.63297 -0.520899 0
M  V30 2045 H 188.72 6.44363 -0.981842 0
M  V30 2046 N 192.153 1.28127 0.917671 0
M  V30 2047 C 193.083 1.14248 2.03641 0
M  V30 2048 C 194.064 0.0412748 1.7005 0
M  V30 2049 O 195.249 0.217566 1.92977 0
M  V30 2050 C 192.379 0.799431 3.37974 0
M  V30 2051 C 191.333 1.85497 3.85713 0
M  V30 2052 C 190.659 1.36565 5.16966 0
M  V30 2053 C 191.959 3.26085 4.08002 0
M  V30 2054 H 193.653 2.07835 2.15511 0
M  V30 2055 H 191.199 1.00064 1.03553 0
M  V30 2056 H 193.152 0.689114 4.15727 0
M  V30 2057 H 191.876 -0.172145 3.26146 0
M  V30 2058 H 190.535 1.95437 3.10161 0
M  V30 2059 H 190.183 0.383253 5.01538 0
M  V30 2060 H 189.883 2.07143 5.49878 0
M  V30 2061 H 191.407 1.26848 5.97279 0
M  V30 2062 H 192.821 3.19089 4.76293 0
M  V30 2063 H 191.218 3.94462 4.52238 0
M  V30 2064 H 192.288 3.70394 3.12948 0
M  V30 2065 N 193.631 -1.12557 1.10312 0
M  V30 2066 C 194.561 -2.20341 0.772798 0
M  V30 2067 C 195.542 -1.68198 -0.25365 0
M  V30 2068 O 196.727 -1.93831 -0.119699 0
M  V30 2069 C 193.857 -3.46709 0.202443 0
M  V30 2070 C 192.811 -4.11996 1.15943 0
M  V30 2071 C 192.137 -5.328 0.450345 0
M  V30 2072 C 193.437 -4.5828 2.50552 0
M  V30 2073 H 195.131 -2.48229 1.674 0
M  V30 2074 H 192.677 -1.19308 0.806326 0
M  V30 2075 H 194.63 -4.2138 -0.0407752 0
M  V30 2076 H 193.354 -3.18245 -0.734001 0
M  V30 2077 H 192.013 -3.39305 1.38808 0
M  V30 2078 H 191.661 -5.00602 -0.490531 0
M  V30 2079 H 191.361 -5.7743 1.08851 0
M  V30 2080 H 192.885 -6.10219 0.215642 0
M  V30 2081 H 194.299 -5.2433 2.31843 0
M  V30 2082 H 192.696 -5.13683 3.10242 0
M  V30 2083 H 193.766 -3.72329 3.10643 0
M  V30 2084 N 195.109 -0.891671 -1.2995 0
M  V30 2085 C 196.059 -0.334811 -2.25528 0
M  V30 2086 C 197.043 0.540553 -1.51548 0
M  V30 2087 O 198.235 0.383882 -1.72787 0
M  V30 2088 C 195.364 0.44374 -3.4042 0
M  V30 2089 C 194.45 -0.44609 -4.21747 0
M  V30 2090 N 194.841 -1.54963 -4.81477 0
M  V30 2091 C 193.139 -0.242415 -4.45341 0
M  V30 2092 C 193.84 -2.10015 -5.42465 0
M  V30 2093 N 192.816 -1.39423 -5.25416 0
M  V30 2094 H 196.618 -1.17792 -2.69262 0
M  V30 2095 H 194.132 -0.741822 -1.44467 0
M  V30 2096 H 196.129 0.859362 -4.07947 0
M  V30 2097 H 194.789 1.28421 -2.98225 0
M  V30 2098 H 195.8 -1.93244 -4.80497 0
M  V30 2099 H 192.477 0.560342 -4.13723 0
M  V30 2100 H 193.867 -3.02724 -5.9984 0
M  V30 2101 N 196.587 1.43421 -0.653314 0
M  V30 2102 C 197.812 2.06678 -0.172846 0
M  V30 2103 C 198.237 1.48648 1.15262 0
M  V30 2104 O 197.595 0.596457 1.71208 0
M  V30 2105 C 197.643 3.60474 -0.0953184 0
M  V30 2106 O 196.747 4.01487 0.942442 0
M  V30 2107 H 196.088 0.657181 -0.0949155 0
M  V30 2108 H 198.618 1.83925 -0.896265 0
M  V30 2109 H 198.628 4.07905 0.0879728 0
M  V30 2110 H 197.303 4.02088 -1.06291 0
M  V30 2111 H 195.88 3.65646 0.731932 0
M  V30 2112 N 198.065 0.39524 1.52563 0
M  V30 2113 C 199.476 -0.0774719 1.86539 0
M  V30 2114 C 199.827 -1.45641 1.31466 0
M  V30 2115 O 198.952 -2.06459 0.648367 0
M  V30 2116 C 199.547 -0.147356 3.38479 0
M  V30 2117 C 198.106 -0.564373 3.72145 0
M  V30 2118 C 197.253 0.269919 2.75983 0
M  V30 2119 H 200.204 0.612876 1.46388 0
M  V30 2120 H 200.225 -0.965343 3.68051 0
M  V30 2121 H 199.737 0.856387 3.78534 0
M  V30 2122 H 197.838 -1.57527 3.37663 0
M  V30 2123 H 197.951 -0.318402 4.78041 0
M  V30 2124 H 196.315 -0.265696 2.5331 0
M  V30 2125 H 197.098 1.27175 3.18875 0
M  V30 2126 N 199.544 -1.57102 0.125237 0
M  V30 2127 C 200.821 -1.86953 -0.575142 0
M  V30 2128 C 201.201 -1.02749 -1.84407 0
M  V30 2129 O 200.549 -0.108144 -2.28244 0
M  V30 2130 C 200.759 -3.38198 -0.861583 0
M  V30 2131 C 202.107 -4.06937 -1.21192 0
M  V30 2132 O 203.131 -3.43252 -0.951645 0
M  V30 2133 O 201.99 -5.19364 -1.70068 0
M  V30 2134 H 199.084 -0.774147 -0.290906 0
M  V30 2135 H 201.63 -1.68942 0.160211 0
M  V30 2136 H 200.402 -3.91282 0.0373647 0
M  V30 2137 H 200.025 -3.61661 -1.65188 0
M  V30 2138 N 201.022 0.148545 -1.56898 0
M  V30 2139 C 201.954 1.20852 -1.9475 0
M  V30 2140 C 202.967 1.39265 -0.843152 0
M  V30 2141 O 204.156 1.38864 -1.12156 0
M  V30 2142 C 201.256 2.57362 -2.20495 0
M  V30 2143 C 200.429 2.59947 -3.51776 0
M  V30 2144 C 199.488 3.77984 -3.6608 0
M  V30 2145 O 198.514 3.62929 -4.38487 0
M  V30 2146 N 199.716 4.95375 -3.02629 0
M  V30 2147 H 202.481 0.886804 -2.86279 0
M  V30 2148 H 200.042 0.338121 -1.5833 0
M  V30 2149 H 202.034 3.34833 -2.27307 0
M  V30 2150 H 200.604 2.81832 -1.35238 0
M  V30 2151 H 199.824 1.68403 -3.56419 0
M  V30 2152 H 201.112 2.58704 -4.38121 0
M  V30 2153 H 200.51 5.10509 -2.43715 0
M  V30 2154 H 199.067 5.70627 -3.15004 0
M  V30 2155 N 202.5 1.5196 0.417844 0
M  V30 2156 C 203.749 1.6482 1.16264 0
M  V30 2157 C 204.062 0.379886 1.91876 0
M  V30 2158 O 205.268 0.388154 2.68711 0
M  V30 2159 C 203.724 2.91161 2.1155 0
M  V30 2160 C 203.332 4.25068 1.41495 0
M  V30 2161 C 205.076 3.13383 2.86341 0
M  V30 2162 C 202.983 5.42541 2.35379 0
M  V30 2163 H 201.913 0.613954 0.437694 0
M  V30 2164 H 204.564 1.78442 0.427871 0
M  V30 2165 H 202.946 2.71218 2.88543 0
M  V30 2166 H 204.12 4.55463 0.699263 0
M  V30 2167 H 202.435 4.0888 0.787792 0
M  V30 2168 H 205.032 3.98324 3.5671 0
M  V30 2169 H 205.375 2.27256 3.48798 0
M  V30 2170 H 205.908 3.33757 2.1645 0
M  V30 2171 H 202.647 6.30987 1.77582 0
M  V30 2172 H 202.167 5.16497 3.04945 0
M  V30 2173 H 203.846 5.75272 2.96093 0
M  V30 2174 N 203.978 -0.674533 1.42435 0
M  V30 2175 C 204.908 -1.80009 1.48724 0
M  V30 2176 C 205.889 -1.6659 0.343793 0
M  V30 2177 O 207.074 -1.86007 0.558137 0
M  V30 2178 C 204.204 -3.18306 1.38919 0
M  V30 2179 C 203.158 -3.46461 2.51294 0
M  V30 2180 C 202.484 -4.84335 2.26547 0
M  V30 2181 C 203.784 -3.43328 3.93603 0
M  V30 2182 H 205.478 -1.75004 2.42928 0
M  V30 2183 H 203.024 -0.840533 1.16923 0
M  V30 2184 H 204.977 -3.9678 1.41927 0
M  V30 2185 H 203.701 -3.2399 0.412094 0
M  V30 2186 H 202.36 -2.70348 2.47604 0
M  V30 2187 H 202.008 -4.86669 1.2713 0
M  V30 2188 H 201.708 -5.04136 3.01861 0
M  V30 2189 H 203.232 -5.65094 2.31304 0
M  V30 2190 H 204.646 -4.11772 3.98894 0
M  V30 2191 H 203.043 -3.74664 4.68771 0
M  V30 2192 H 204.113 -2.41897 4.20255 0
M  V30 2193 N 205.456 -1.28612 -0.910864 0
M  V30 2194 C 206.681 -1.1891 -1.69927 0
M  V30 2195 C 207.106 0.248372 -1.86453 0
M  V30 2196 O 206.464 1.17961 -1.37676 0
M  V30 2197 C 206.512 -1.89578 -3.06745 0
M  V30 2198 O 205.616 -1.20521 -3.94396 0
M  V30 2199 H 204.957 -0.412632 -0.520222 0
M  V30 2200 H 207.487 -1.69985 -1.1387 0
M  V30 2201 H 207.497 -1.97597 -3.56958 0
M  V30 2202 H 206.172 -2.94136 -2.94035 0
M  V30 2203 H 204.749 -1.20684 -3.52831 0
M  V30 2204 N 206.934 1.1197 -1.10907 0
M  V30 2205 C 208.182 1.83225 -0.852819 0
M  V30 2206 C 208.503 1.84769 0.623341 0
M  V30 2207 O 207.773 1.3143 1.45269 0
M  V30 2208 H 206.353 0.67849 -0.312507 0
M  V30 2209 H 209.015 1.3556 -1.40033 0
M  V30 2210 H 208.111 2.87265 -1.22005 0
M  V30 2211 N 208.412 0.89855 1.29475 0
M  V30 2212 C 209.637 0.538561 2.00285 0
M  V30 2213 C 210.062 -0.869135 1.66816 0
M  V30 2214 O 209.42 -1.57831 0.892145 0
M  V30 2215 C 209.468 0.736475 3.52999 0
M  V30 2216 O 208.572 -0.211537 4.11857 0
M  V30 2217 H 207.913 0.210563 0.62973 0
M  V30 2218 H 210.443 1.20982 1.64998 0
M  V30 2219 H 210.453 0.640685 4.02938 0
M  V30 2220 H 209.128 1.76276 3.76696 0
M  V30 2221 H 207.705 -0.0682991 3.72837 0
M  V30 2222 N 209.89 -1.43072 0.660911 0
M  V30 2223 C 211.138 -2.01323 0.177094 0
M  V30 2224 C 211.459 -1.5245 -1.2159 0
M  V30 2225 O 210.729 -0.740322 -1.81373 0
M  V30 2226 H 209.309 -0.744382 0.0624804 0
M  V30 2227 H 211.971 -1.75179 0.854305 0
M  V30 2228 H 211.067 -3.11649 0.167641 0
M  V30 2229 N 211.368 -0.403325 -1.52352 0
M  V30 2230 C 212.316 0.439752 -2.28405 0
M  V30 2231 C 213.31 1.05089 -1.32863 0
M  V30 2232 O 214.516 0.989759 -1.50345 0
M  V30 2233 H 210.891 0.160587 -0.734653 0
M  V30 2234 H 212.862 -0.222983 -2.97566 0
M  V30 2235 C 211.611 1.54736 -3.11371 0
M  V30 2236 H 210.934 1.08643 -3.84755 0
M  V30 2237 H 212.374 2.1112 -3.67701 0
M  V30 2238 C 210.833 2.51141 -2.24566 0
M  V30 2239 O 211.363 3.54887 -1.88196 0
M  V30 2240 N 209.569 2.21213 -1.8845 0
M  V30 2241 H 209.116 1.36878 -2.18225 0
M  V30 2242 H 209.074 2.85963 -1.30662 0
M  V30 2243 N 212.846 1.57033 -0.133567 0
M  V30 2244 C 214.257 1.82593 0.389464 0
M  V30 2245 C 214.608 1.05156 1.6564 0
M  V30 2246 O 213.733 0.292644 2.14412 0
M  V30 2247 C 214.328 3.31204 0.713377 0
M  V30 2248 C 212.887 3.57393 1.18098 0
M  V30 2249 C 212.034 2.76598 0.197126 0
M  V30 2250 H 214.985 1.54598 -0.358481 0
M  V30 2251 H 215.006 3.46627 1.56939 0
M  V30 2252 H 214.518 3.87537 -0.2089 0
M  V30 2253 H 212.619 3.06433 2.11966 0
M  V30 2254 H 212.732 4.65915 1.11624 0
M  V30 2255 H 211.096 2.45257 0.687088 0
M  V30 2256 H 211.879 3.35697 -0.718504 0
M  V30 2257 N 214.325 -0.140222 1.56975 0
M  V30 2258 C 215.555 -0.865181 1.87612 0
M  V30 2259 C 215.963 -1.74942 0.72055 0
M  V30 2260 O 215.306 -1.80917 -0.318561 0
M  V30 2261 C 215.368 -1.76782 3.13031 0
M  V30 2262 C 215.032 -1.06005 4.44536 0
M  V30 2263 C 216.029 -0.410768 5.18275 0
M  V30 2264 C 213.714 -1.04754 4.91255 0
M  V30 2265 C 215.708 0.241572 6.36942 0
M  V30 2266 C 213.395 -0.391394 6.09845 0
M  V30 2267 C 214.393 0.252029 6.82535 0
M  V30 2268 O 214.081 0.897757 7.98871 0
M  V30 2269 H 213.813 -0.255188 0.625983 0
M  V30 2270 H 216.367 -0.135653 2.04952 0
M  V30 2271 H 214.597 -2.53846 2.91718 0
M  V30 2272 H 216.286 -2.36533 3.29859 0
M  V30 2273 H 217.052 -0.412195 4.83245 0
M  V30 2274 H 212.931 -1.53777 4.34596 0
M  V30 2275 H 216.475 0.744375 6.93617 0
M  V30 2276 H 212.372 -0.387656 6.44335 0
M  V30 2277 H 213.14 0.800102 8.1458 0
M  V30 2278 N 215.803 -1.52179 -0.40978 0
M  V30 2279 C 217.028 -1.70347 -1.18308 0
M  V30 2280 C 217.453 -0.411887 -1.83535 0
M  V30 2281 O 216.811 0.630587 -1.6998 0
M  V30 2282 C 216.859 -2.83977 -2.22238 0
M  V30 2283 O 215.963 -2.495 -3.28365 0
M  V30 2284 H 215.304 -0.567103 -0.345384 0
M  V30 2285 H 217.834 -1.98879 -0.480445 0
M  V30 2286 H 217.844 -3.0887 -2.66577 0
M  V30 2287 H 216.519 -3.77685 -1.74146 0
M  V30 2288 H 215.096 -2.35277 -2.89308 0
M  V30 2289 N 217.281 0.66697 -1.42791 0
M  V30 2290 C 218.527 1.4291 -1.43891 0
M  V30 2291 C 218.86 1.94114 -0.0578972 0
M  V30 2292 O 218.135 1.71414 0.91911 0
M  V30 2293 C 218.418 2.62049 -2.46987 0
M  V30 2294 C 218.271 2.16426 -3.94309 0
M  V30 2295 C 219.59 3.64266 -2.46978 0
M  V30 2296 H 216.709 0.518306 -0.523954 0
M  V30 2297 H 219.351 0.757321 -1.74255 0
M  V30 2298 H 217.501 3.19361 -2.21225 0
M  V30 2299 H 219.173 1.64221 -4.31079 0
M  V30 2300 H 217.416 1.47925 -4.078 0
M  V30 2301 H 218.087 3.02038 -4.62036 0
M  V30 2302 H 220.563 3.16686 -2.69906 0
M  V30 2303 H 219.439 4.45196 -3.21079 0
M  V30 2304 H 219.7 4.15927 -1.49857 0
M  V30 2305 N 218.759 1.29093 0.90403 0
M  V30 2306 C 219.989 1.19516 1.68522 0
M  V30 2307 C 220.397 -0.24738 1.87576 0
M  V30 2308 O 219.74 -1.17798 1.40959 0
M  V30 2309 C 219.802 1.83249 3.0929 0
M  V30 2310 C 219.466 3.32531 3.13484 0
M  V30 2311 C 220.463 4.28821 2.93953 0
M  V30 2312 C 218.148 3.73656 3.35688 0
M  V30 2313 C 220.142 5.64212 2.96553 0
M  V30 2314 C 217.829 5.0917 3.37919 0
M  V30 2315 C 218.827 6.04258 3.18373 0
M  V30 2316 O 218.515 7.37298 3.20385 0
M  V30 2317 H 218.247 0.415467 0.533257 0
M  V30 2318 H 220.801 1.70912 1.13922 0
M  V30 2319 H 219.031 1.26358 3.65473 0
M  V30 2320 H 220.72 1.68054 3.69476 0
M  V30 2321 H 221.486 3.98382 2.76616 0
M  V30 2322 H 217.365 3.00101 3.49943 0
M  V30 2323 H 220.909 6.38407 2.81216 0
M  V30 2324 H 216.806 5.39256 3.54787 0
M  V30 2325 H 217.574 7.46048 3.36681 0
M  V30 2326 N 220.237 -1.11381 1.11499 0
M  V30 2327 C 221.485 -1.8277 0.862524 0
M  V30 2328 C 221.806 -1.85097 -0.613534 0
M  V30 2329 O 221.076 -1.32198 -1.4457 0
M  V30 2330 H 219.656 -0.676823 0.316101 0
M  V30 2331 H 222.318 -1.34816 1.4075 0
M  V30 2332 H 221.414 -2.86614 1.23527 0
M  V30 2333 N 221.715 -0.905404 -1.28997 0
M  V30 2334 C 223.126 -0.581953 -1.77398 0
M  V30 2335 C 223.477 0.902552 -1.74208 0
M  V30 2336 O 222.602 1.70584 -1.33154 0
M  V30 2337 C 223.197 -1.04961 -3.22131 0
M  V30 2338 C 221.756 -0.777229 -3.68288 0
M  V30 2339 C 220.903 -1.22109 -2.48967 0
M  V30 2340 H 223.854 -1.08754 -1.15578 0
M  V30 2341 H 223.875 -0.387387 -3.78523 0
M  V30 2342 H 223.387 -2.13008 -3.24421 0
M  V30 2343 H 221.488 0.290383 -3.71467 0
M  V30 2344 H 221.601 -1.37911 -4.58822 0
M  V30 2345 H 219.965 -0.639971 -2.46529 0
M  V30 2346 H 220.748 -2.30972 -2.53982 0
M  V30 2347 N 223.193 1.4272 -0.668489 0
M  V30 2348 C 224.44 2.01624 -0.18814 0
M  V30 2349 C 224.768 1.5282 1.20317 0
M  V30 2350 O 224.023 0.718323 1.8204 0
M  V30 2351 C 224.322 3.57021 -0.164499 0
M  V30 2352 C 223.988 4.25232 -1.49962 0
M  V30 2353 C 222.65 4.4358 -1.8652 0
M  V30 2354 C 225.002 4.63727 -2.37921 0
M  V30 2355 C 222.33 4.97694 -3.10674 0
M  V30 2356 C 224.682 5.19218 -3.6138 0
M  V30 2357 C 223.346 5.3578 -3.98115 0
M  V30 2358 H 222.616 0.737795 -0.0688454 0
M  V30 2359 H 225.263 1.70991 -0.862225 0
M  V30 2360 H 223.568 3.87285 0.593079 0
M  V30 2361 H 225.265 4.00372 0.224271 0
M  V30 2362 H 221.855 4.11306 -1.20522 0
M  V30 2363 H 226.039 4.4923 -2.10964 0
M  V30 2364 H 221.295 5.08702 -3.39164 0
M  V30 2365 H 225.469 5.4799 -4.29743 0
M  V30 2366 H 223.096 5.77475 -4.94395 0
M  V30 2367 N 224.671 0.411399 1.52136 0
M  V30 2368 C 225.917 -0.156262 2.02799 0
M  V30 2369 C 226.272 -1.42613 1.29149 0
M  V30 2370 O 225.565 -1.87592 0.389839 0
M  V30 2371 C 225.759 -0.455872 3.54481 0
M  V30 2372 C 225.588 0.783404 4.42824 0
M  V30 2373 C 224.358 1.30928 4.88043 0
M  V30 2374 C 226.556 1.66217 4.86699 0
M  V30 2375 N 224.538 2.5038 5.6052 0
M  V30 2376 C 225.909 2.70292 5.5798 0
M  V30 2377 C 227.964 1.67966 4.68713 0
M  V30 2378 C 226.667 3.7603 6.13184 0
M  V30 2379 C 228.693 2.72624 5.24815 0
M  V30 2380 C 228.055 3.7542 5.9602 0
M  V30 2381 H 224.154 -0.0186886 0.781777 0
M  V30 2382 H 226.738 0.566255 1.86284 0
M  V30 2383 H 224.909 -1.14743 3.71064 0
M  V30 2384 H 226.641 -1.01261 3.91827 0
M  V30 2385 H 223.396 0.866977 4.65597 0
M  V30 2386 H 223.82 3.10881 6.014 0
M  V30 2387 H 228.462 0.898312 4.13147 0
M  V30 2388 H 226.18 4.55019 6.6782 0
M  V30 2389 H 229.766 2.74887 5.12765 0
M  V30 2390 H 228.646 4.55073 6.38654 0
M  V30 2391 N 226.149 -1.5696 0.141893 0
M  V30 2392 C 227.096 -2.16501 -0.799737 0
M  V30 2393 C 228.066 -1.09643 -1.24771 0
M  V30 2394 O 229.251 -1.3766 -1.32115 0
M  V30 2395 C 226.391 -2.78679 -2.03549 0
M  V30 2396 C 225.504 -3.99914 -1.6338 0
M  V30 2397 C 224.639 -4.50106 -2.82096 0
M  V30 2398 C 223.678 -5.63819 -2.38275 0
M  V30 2399 N 222.815 -6.08651 -3.49983 0
M  V30 2400 H 227.655 -2.96632 -0.285179 0
M  V30 2401 H 225.192 -1.46533 -0.129053 0
M  V30 2402 H 227.15 -3.1287 -2.75986 0
M  V30 2403 H 225.78 -2.012 -2.52425 0
M  V30 2404 H 224.832 -3.71735 -0.807279 0
M  V30 2405 H 226.144 -4.82311 -1.27192 0
M  V30 2406 H 225.298 -4.86325 -3.62729 0
M  V30 2407 H 224.037 -3.66706 -3.21525 0
M  V30 2408 H 223.042 -5.2718 -1.56081 0
M  V30 2409 H 224.267 -6.49 -1.99938 0
M  V30 2410 H 222.213 -5.28188 -3.89042 0
M  V30 2411 H 222.13 -6.85961 -3.17794 0
M  V30 2412 H 223.398 -6.49515 -4.30988 0
M  V30 2413 N 227.627 0.131896 -1.57047 0
M  V30 2414 C 228.575 1.18146 -2.0036 0
M  V30 2415 C 229.569 1.43614 -0.898406 0
M  V30 2416 O 230.775 1.43729 -1.08361 0
M  V30 2417 H 227.15 0.398042 -0.638018 0
M  V30 2418 H 229.121 0.789564 -2.87765 0
M  V30 2419 C 227.87 2.50341 -2.41298 0
M  V30 2420 H 227.193 2.31578 -3.25902 0
M  V30 2421 H 228.633 3.22371 -2.75414 0
M  V30 2422 C 227.092 3.11984 -1.27153 0
M  V30 2423 O 227.622 3.97484 -0.580459 0
M  V30 2424 N 225.828 2.71662 -1.03189 0
M  V30 2425 H 225.375 2.02231 -1.59564 0
M  V30 2426 H 225.333 3.13238 -0.270077 0
M  V30 2427 N 229.106 1.52395 0.401703 0
M  V30 2428 C 230.352 1.68019 1.14635 0
M  V30 2429 C 230.707 0.408722 1.88009 0
M  V30 2430 O 230 -0.597133 1.82057 0
M  V30 2431 C 230.194 2.84578 2.16217 0
M  V30 2432 C 230.023 4.22938 1.5282 0
M  V30 2433 C 228.793 4.88352 1.29772 0
M  V30 2434 C 230.991 5.04778 0.985094 0
M  V30 2435 N 228.973 6.10726 0.623455 0
M  V30 2436 C 230.344 6.1845 0.438172 0
M  V30 2437 C 232.399 4.90057 0.880275 0
M  V30 2438 C 231.102 7.19013 -0.203306 0
M  V30 2439 C 233.128 5.9086 0.252639 0
M  V30 2440 C 232.49 7.03829 -0.283573 0
M  V30 2441 H 228.589 0.668413 0.405892 0
M  V30 2442 H 231.173 1.89717 0.437674 0
M  V30 2443 H 229.344 2.64483 2.84435 0
M  V30 2444 H 231.076 2.89202 2.83098 0
M  V30 2445 H 227.831 4.46846 1.56926 0
M  V30 2446 H 228.255 6.76323 0.302733 0
M  V30 2447 H 232.897 4.02938 1.28065 0
M  V30 2448 H 230.615 8.05751 -0.615726 0
M  V30 2449 H 234.201 5.81543 0.172954 0
M  V30 2450 H 233.081 7.80493 -0.761575 0
M  V30 2451 N 230.584 -0.659388 1.43143 0
M  V30 2452 C 231.516 -1.7849 1.43784 0
M  V30 2453 C 232.529 -1.5932 0.334787 0
M  V30 2454 O 233.718 -1.68155 0.598842 0
M  V30 2455 C 230.818 -3.15828 1.22906 0
M  V30 2456 C 229.991 -3.61711 2.45934 0
M  V30 2457 C 229.05 -4.77831 2.20371 0
M  V30 2458 O 228.076 -4.87586 2.93681 0
M  V30 2459 N 229.278 -5.67611 1.21647 0
M  V30 2460 H 232.043 -1.7842 2.40803 0
M  V30 2461 H 229.604 -0.84302 1.3822 0
M  V30 2462 H 231.596 -3.91189 1.03697 0
M  V30 2463 H 230.166 -3.10707 0.343542 0
M  V30 2464 H 229.386 -2.76861 2.80609 0
M  V30 2465 H 230.674 -3.89112 3.27825 0
M  V30 2466 H 230.072 -5.62397 0.610449 0
M  V30 2467 H 228.629 -6.42719 1.08423 0
M  V30 2468 N 232.062 -1.29571 -0.897171 0
M  V30 2469 C 233.025 -1.14913 -1.98312 0
M  V30 2470 C 234.025 -0.0838629 -1.60581 0
M  V30 2471 O 235.215 -0.331006 -1.71026 0
M  V30 2472 C 232.347 -0.757835 -3.3237 0
M  V30 2473 H 233.54 -2.11377 -2.12743 0
M  V30 2474 H 231.093 -1.12793 -1.08201 0
M  V30 2475 H 231.828 0.206837 -3.2364 0
M  V30 2476 H 231.613 -1.52755 -3.61121 0
M  V30 2477 H 233.103 -0.678408 -4.12053 0
M  V30 2478 N 233.54 1.10788 -1.12088 0
M  V30 2479 C 234.472 2.16816 -0.743213 0
M  V30 2480 C 235.485 1.6119 0.228412 0
M  V30 2481 O 236.674 1.78497 0.0102931 0
M  V30 2482 C 233.774 3.38809 -0.0787313 0
M  V30 2483 C 232.947 4.23885 -1.0789 0
M  V30 2484 C 232.006 5.24334 -0.442713 0
M  V30 2485 O 231.032 5.58497 -1.09864 0
M  V30 2486 N 232.234 5.75079 0.791457 0
M  V30 2487 H 234.999 2.49825 -1.65552 0
M  V30 2488 H 232.56 1.26373 -1.012 0
M  V30 2489 H 234.552 4.03107 0.358766 0
M  V30 2490 H 233.122 3.03805 0.736275 0
M  V30 2491 H 232.342 3.55939 -1.69414 0
M  V30 2492 H 233.63 4.77562 -1.75533 0
M  V30 2493 H 233.028 5.49517 1.3434 0
M  V30 2494 H 231.585 6.4118 1.17183 0
M  V30 2495 N 235.018 0.912232 1.28515 0
M  V30 2496 C 236.429 0.591352 1.77087 0
M  V30 2497 C 236.78 -0.8933 1.74684 0
M  V30 2498 O 235.905 -1.69876 1.34056 0
M  V30 2499 C 236.5 1.06668 3.2157 0
M  V30 2500 C 235.059 0.79675 3.67871 0
M  V30 2501 C 234.206 1.23427 2.48316 0
M  V30 2502 H 237.157 1.09365 1.15 0
M  V30 2503 H 237.178 0.407455 3.78312 0
M  V30 2504 H 236.69 2.14726 3.23287 0
M  V30 2505 H 234.791 -0.270679 3.71616 0
M  V30 2506 H 234.904 1.40343 4.58084 0
M  V30 2507 H 233.268 0.653036 2.46186 0
M  V30 2508 H 234.051 2.32316 2.52753 0
M  V30 2509 N 236.496 -1.42363 0.676048 0
M  V30 2510 C 237.443 -2.308 -0.00150904 0
M  V30 2511 C 238.413 -1.46032 -0.791444 0
M  V30 2512 O 239.598 -1.74861 -0.76344 0
M  V30 2513 C 236.738 -3.31883 -0.945919 0
M  V30 2514 C 235.851 -4.31741 -0.149675 0
M  V30 2515 C 234.986 -5.19898 -1.08995 0
M  V30 2516 C 234.025 -6.11434 -0.285465 0
M  V30 2517 N 233.162 -6.92138 -1.17851 0
M  V30 2518 H 238.002 -2.88187 0.758455 0
M  V30 2519 H 235.539 -1.41952 0.38576 0
M  V30 2520 H 237.497 -3.89019 -1.50731 0
M  V30 2521 H 236.127 -2.76093 -1.6725 0
M  V30 2522 H 235.179 -3.76713 0.528359 0
M  V30 2523 H 236.491 -4.96534 0.474866 0
M  V30 2524 H 235.645 -5.81772 -1.72123 0
M  V30 2525 H 234.384 -4.55284 -1.74837 0
M  V30 2526 H 233.389 -5.48627 0.359018 0
M  V30 2527 H 234.614 -6.78097 0.368883 0
M  V30 2528 H 232.56 -6.30152 -1.82332 0
M  V30 2529 H 232.477 -7.53542 -0.609082 0
M  V30 2530 H 233.745 -7.58499 -1.79722 0
M  V30 2531 N 237.974 -0.419461 -1.51915 0
M  V30 2532 C 239.385 0.0477853 -1.86639 0
M  V30 2533 C 239.736 1.43531 -1.33766 0
M  V30 2534 O 238.861 2.05401 -0.68113 0
M  V30 2535 C 239.456 0.0934885 -3.38671 0
M  V30 2536 C 238.015 0.505097 -3.72996 0
M  V30 2537 C 237.162 -0.313792 -2.75519 0
M  V30 2538 H 240.113 -0.636088 -1.45395 0
M  V30 2539 H 240.134 0.906667 -3.6954 0
M  V30 2540 H 239.646 -0.916501 -3.77123 0
M  V30 2541 H 237.747 1.52135 -3.40126 0
M  V30 2542 H 237.86 0.242309 -4.78487 0
M  V30 2543 H 236.224 0.225363 -2.53701 0
M  V30 2544 H 237.007 -1.32232 -3.16812 0
M  V30 2545 N 239.452 1.56882 -0.150215 0
M  V30 2546 C 240.68 2.00593 0.506948 0
M  V30 2547 C 241.095 1.03033 1.58208 0
M  V30 2548 O 240.452 0.0278396 1.82479 0
M  V30 2549 C 240.503 3.44209 1.10465 0
M  V30 2550 O 240.224 4.3804 0.0724636 0
M  V30 2551 C 241.725 4.03214 1.84211 0
M  V30 2552 H 238.945 0.65795 0.13169 0
M  V30 2553 H 241.489 2.03018 -0.245743 0
M  V30 2554 H 239.644 3.42625 1.80795 0
M  V30 2555 H 240.058 5.22007 0.510793 0
M  V30 2556 H 241.532 5.0569 2.21318 0
M  V30 2557 H 242.009 3.44107 2.72923 0
M  V30 2558 H 242.615 4.08437 1.18572 0
M  V30 2559 N 240.93 -0.123565 1.57115 0
M  V30 2560 C 242.341 -0.681198 1.73829 0
M  V30 2561 C 242.692 -1.80535 0.768214 0
M  V30 2562 O 241.817 -2.16317 -0.0599103 0
M  V30 2563 C 242.412 -1.24246 3.15196 0
M  V30 2564 C 240.971 -1.74643 3.33432 0
M  V30 2565 C 240.118 -0.644284 2.69711 0
M  V30 2566 H 243.069 0.102315 1.5837 0
M  V30 2567 H 243.09 -2.11216 3.16493 0
M  V30 2568 H 242.602 -0.424062 3.85776 0
M  V30 2569 H 240.703 -2.58974 2.67886 0
M  V30 2570 H 240.816 -1.85902 4.41562 0
M  V30 2571 H 239.18 -1.07676 2.3082 0
M  V30 2572 H 239.963 0.163058 3.42913 0
M  V30 2573 N 242.408 -1.52605 -0.393616 0
M  V30 2574 C 243.654 -1.67672 -1.14079 0
M  V30 2575 C 243.987 -0.413121 -1.89755 0
M  V30 2576 O 243.262 0.588952 -1.85369 0
M  V30 2577 C 243.545 -2.9088 -2.12276 0
M  V30 2578 C 243.398 -4.27329 -1.40394 0
M  V30 2579 C 244.717 -3.09628 -3.12759 0
M  V30 2580 H 241.836 -0.610168 -0.413356 0
M  V30 2581 H 244.478 -1.85193 -0.424696 0
M  V30 2582 H 242.628 -2.76073 -2.73342 0
M  V30 2583 H 244.3 -4.53894 -0.82327 0
M  V30 2584 H 242.543 -4.2802 -0.705801 0
M  V30 2585 H 243.214 -5.09615 -2.12123 0
M  V30 2586 H 245.69 -3.23436 -2.61779 0
M  V30 2587 H 244.566 -3.97322 -3.78717 0
M  V30 2588 H 244.827 -2.23637 -3.81365 0
M  V30 2589 N 243.887 0.651787 -1.4349 0
M  V30 2590 C 244.85 1.74647 -1.48429 0
M  V30 2591 C 245.85 1.56513 -0.368817 0
M  V30 2592 O 247.04 1.62385 -0.630623 0
M  V30 2593 C 244.172 3.13533 -1.33827 0
M  V30 2594 H 245.365 1.71649 -2.4592 0
M  V30 2595 H 242.918 0.863573 -1.30277 0
M  V30 2596 H 243.653 3.22142 -0.37349 0
M  V30 2597 H 243.438 3.28101 -2.14691 0
M  V30 2598 H 244.928 3.93356 -1.40218 0
M  V30 2599 N 245.365 1.30045 0.890287 0
M  V30 2600 C 246.593 1.21472 1.67487 0
M  V30 2601 C 247.008 -0.223241 1.87476 0
M  V30 2602 O 246.365 -1.14828 1.41847 0
M  V30 2603 C 246.416 1.93394 3.05419 0
M  V30 2604 O 246.137 3.31576 2.86337 0
M  V30 2605 C 247.638 1.91414 3.99844 0
M  V30 2606 H 244.858 0.420604 0.522813 0
M  V30 2607 H 247.402 1.7158 1.11268 0
M  V30 2608 H 245.557 1.47099 3.58386 0
M  V30 2609 H 245.971 3.67929 3.73802 0
M  V30 2610 H 247.445 2.46285 4.94012 0
M  V30 2611 H 247.922 0.891833 4.3005 0
M  V30 2612 H 248.528 2.37496 3.52811 0
M  V30 2613 N 246.843 -1.10192 1.12674 0
M  V30 2614 C 248.254 -1.63707 0.897604 0
M  V30 2615 C 248.605 -1.87812 -0.567546 0
M  V30 2616 O 247.73 -1.62196 -1.43253 0
M  V30 2617 C 248.325 -2.974 1.62292 0
M  V30 2618 C 246.884 -3.47772 1.43986 0
M  V30 2619 C 246.031 -2.22332 1.65722 0
M  V30 2620 H 248.982 -0.936587 1.28116 0
M  V30 2621 H 249.003 -3.64986 1.07541 0
M  V30 2622 H 248.515 -2.79824 2.68924 0
M  V30 2623 H 246.616 -3.70487 0.396206 0
M  V30 2624 H 246.729 -4.25723 2.19765 0
M  V30 2625 H 245.093 -2.30599 1.08149 0
M  V30 2626 H 245.876 -2.07285 2.73657 0
M  V30 2627 N 248.321 -0.919034 -1.28029 0
M  V30 2628 C 249.549 -0.570971 -1.98866 0
M  V30 2629 C 249.964 0.848996 -1.68634 0
M  V30 2630 O 249.321 1.56307 -0.942036 0
M  V30 2631 C 249.372 -0.776876 -3.53054 0
M  V30 2632 O 249.093 -2.14097 -3.82222 0
M  V30 2633 C 250.594 -0.436356 -4.41147 0
M  V30 2634 H 247.814 -0.217175 -0.634883 0
M  V30 2635 H 250.358 -1.23368 -1.63097 0
M  V30 2636 H 248.513 -0.161085 -3.87065 0
M  V30 2637 H 248.927 -2.18455 -4.76841 0
M  V30 2638 H 250.401 -0.63117 -5.4838 0
M  V30 2639 H 250.878 0.627686 -4.34692 0
M  V30 2640 H 251.484 -1.02991 -4.12641 0
M  V30 2641 N 249.799 1.42003 -0.683588 0
M  V30 2642 C 250.709 2.34597 -0.0109075 0
M  V30 2643 C 251.725 1.55576 0.779245 0
M  V30 2644 O 252.901 1.88107 0.719555 0
M  V30 2645 C 249.966 3.34199 0.922588 0
M  V30 2646 C 249.027 4.29115 0.125984 0
M  V30 2647 C 248.26 5.23959 1.01502 0
M  V30 2648 O 248.483 5.23952 2.25456 0
M  V30 2649 O 247.417 6.00053 0.47111 0
M  V30 2650 H 251.243 2.93675 -0.773853 0
M  V30 2651 H 248.828 1.42654 -0.443861 0
M  V30 2652 H 250.71 3.95365 1.45823 0
M  V30 2653 H 249.385 2.77582 1.66523 0
M  V30 2654 H 248.292 3.71335 -0.453969 0
M  V30 2655 H 249.625 4.88798 -0.577736 0
M  V30 2656 N 251.277 0.427512 1.51691 0
M  V30 2657 C 252.207 -0.3796 2.30394 0
M  V30 2658 C 253.188 -1.02982 1.35384 0
M  V30 2659 O 254.373 -1.03534 1.643 0
M  V30 2660 C 251.503 -1.48649 3.1388 0
M  V30 2661 C 250.457 -0.960294 4.17088 0
M  V30 2662 C 249.783 -2.16219 4.89033 0
M  V30 2663 C 251.083 -0.00153679 5.223 0
M  V30 2664 H 252.777 0.277164 2.98114 0
M  V30 2665 H 250.323 0.134739 1.43368 0
M  V30 2666 H 252.276 -2.05826 3.67714 0
M  V30 2667 H 251 -2.1714 2.43962 0
M  V30 2668 H 249.659 -0.410806 3.64291 0
M  V30 2669 H 249.307 -2.83307 4.15628 0
M  V30 2670 H 249.007 -1.81654 5.58816 0
M  V30 2671 H 250.531 -2.73968 5.45687 0
M  V30 2672 H 251.945 -0.482687 5.71264 0
M  V30 2673 H 250.342 0.256199 5.99553 0
M  V30 2674 H 251.412 0.938174 4.75738 0
M  V30 2675 N 252.755 -1.56801 0.158532 0
M  V30 2676 C 254.001 -1.96781 -0.490405 0
M  V30 2677 C 254.334 -1.04397 -1.63753 0
M  V30 2678 O 253.609 -0.0885805 -1.94298 0
M  V30 2679 C 253.892 -3.4635 -0.985594 0
M  V30 2680 C 253.745 -4.49512 0.160824 0
M  V30 2681 C 255.064 -3.98697 -1.86355 0
M  V30 2682 H 252.183 -0.715482 -0.176788 0
M  V30 2683 H 254.825 -1.88451 0.242088 0
M  V30 2684 H 252.975 -3.53579 -1.60978 0
M  V30 2685 H 254.647 -4.54353 0.797537 0
M  V30 2686 H 252.89 -4.26013 0.818256 0
M  V30 2687 H 253.561 -5.51531 -0.227569 0
M  V30 2688 H 256.037 -3.94019 -1.33746 0
M  V30 2689 H 254.913 -5.03792 -2.17909 0
M  V30 2690 H 255.174 -3.41744 -2.8047 0
M  V30 2691 N 254.233 0.115231 -1.57178 0
M  V30 2692 C 255.51 0.852873 -1.76027 0
M  V30 2693 C 255.89 1.97892 -0.73498 0
M  V30 2694 O 255.238 2.27232 0.24036 0
M  V30 2695 C 255.448 1.36608 -3.21153 0
M  V30 2696 C 256.796 1.81692 -3.83762 0
M  V30 2697 O 257.82 1.46278 -3.24779 0
M  V30 2698 O 256.679 2.47104 -4.87444 0
M  V30 2699 H 253.773 0.405296 -0.720877 0
M  V30 2700 H 256.319 0.0986785 -1.69413 0
M  V30 2701 H 255.091 0.558357 -3.87296 0
M  V30 2702 H 254.714 2.18287 -3.3232 0
M  V30 2703 N 255.711 1.52812 0.385517 0
M  V30 2704 C 256.641 1.80808 1.47752 0
M  V30 2705 C 257.622 0.660318 1.5676 0
M  V30 2706 O 258.807 0.908246 1.71652 0
M  V30 2707 C 255.937 1.98008 2.85324 0
M  V30 2708 C 254.891 3.13709 2.91154 0
M  V30 2709 C 254.217 3.16169 4.31209 0
M  V30 2710 C 255.517 4.52709 2.60483 0
M  V30 2711 H 257.211 2.72253 1.24573 0
M  V30 2712 H 254.757 1.31003 0.597839 0
M  V30 2713 H 256.71 2.16176 3.61726 0
M  V30 2714 H 255.434 1.03255 3.09848 0
M  V30 2715 H 254.093 2.95329 2.17201 0
M  V30 2716 H 253.741 2.19092 4.52778 0
M  V30 2717 H 253.441 3.93894 4.36029 0
M  V30 2718 H 254.965 3.36496 5.09512 0
M  V30 2719 H 256.379 4.71173 3.26602 0
M  V30 2720 H 254.776 5.32528 2.76648 0
M  V30 2721 H 255.846 4.59186 1.55809 0
M  V30 2722 N 257.189 -0.644168 1.43834 0
M  V30 2723 C 258.414 -1.43642 1.49605 0
M  V30 2724 C 258.839 -1.8773 0.117913 0
M  V30 2725 O 258.197 -1.57938 -0.890239 0
M  V30 2726 C 258.245 -2.6416 2.45463 0
M  V30 2727 O 257.349 -3.63538 1.94714 0
M  V30 2728 H 256.69 -0.430329 0.50568 0
M  V30 2729 H 259.22 -0.787448 1.8884 0
M  V30 2730 H 259.23 -3.11864 2.63068 0
M  V30 2731 H 257.905 -2.31414 3.45572 0
M  V30 2732 H 256.482 -3.2273 1.86814 0
M  V30 2733 N 258.668 -1.30515 -0.883378 0
M  V30 2734 C 260.079 -1.17509 -1.45081 0
M  V30 2735 C 260.43 0.223605 -1.94922 0
M  V30 2736 O 259.555 1.12041 -1.85137 0
M  V30 2737 C 260.15 -2.12715 -2.63701 0
M  V30 2738 C 258.709 -2.03682 -3.16529 0
M  V30 2739 C 257.856 -2.02706 -1.89224 0
M  V30 2740 H 260.807 -1.42762 -0.693165 0
M  V30 2741 H 260.828 -1.70891 -3.39965 0
M  V30 2742 H 260.34 -3.14505 -2.27395 0
M  V30 2743 H 258.441 -1.05039 -3.57488 0
M  V30 2744 H 258.554 -2.92146 -3.7972 0
M  V30 2745 H 256.918 -1.4753 -2.07622 0
M  V30 2746 H 257.701 -3.06229 -1.55174 0
M  V30 2747 N 260.146 1.09593 -1.13257 0
M  V30 2748 C 261.056 2.19739 -0.821691 0
M  V30 2749 C 262.072 1.72926 0.19302 0
M  V30 2750 O 263.248 2.01385 0.0244895 0
M  V30 2751 C 260.313 3.45482 -0.290333 0
M  V30 2752 C 259.374 4.06985 -1.36607 0
M  V30 2753 C 258.607 5.26726 -0.859975 0
M  V30 2754 O 258.83 5.69594 0.303082 0
M  V30 2755 O 257.764 5.7931 -1.63351 0
M  V30 2756 H 261.59 2.48781 -1.74189 0
M  V30 2757 H 259.175 1.18496 -0.909894 0
M  V30 2758 H 261.057 4.214 0.000674022 0
M  V30 2759 H 259.732 3.18047 0.602306 0
M  V30 2760 H 258.639 3.32712 -1.71037 0
M  V30 2761 H 259.972 4.38643 -2.23279 0
M  V30 2762 N 261.624 0.925811 1.2754 0
M  V30 2763 C 262.556 0.380753 2.26015 0
M  V30 2764 C 263.569 -0.487485 1.5533 0
M  V30 2765 O 264.758 -0.300413 1.75954 0
M  V30 2766 C 261.858 -0.473259 3.35579 0
M  V30 2767 C 261.031 0.375249 4.35787 0
M  V30 2768 C 260.09 -0.415809 5.24555 0
M  V30 2769 O 259.116 0.175834 5.68928 0
M  V30 2770 N 260.318 -1.71607 5.54555 0
M  V30 2771 H 263.083 1.22725 2.73421 0
M  V30 2772 H 260.644 0.793037 1.41147 0
M  V30 2773 H 262.636 -1.00949 3.91907 0
M  V30 2774 H 261.206 -1.2205 2.87789 0
M  V30 2775 H 260.426 1.09279 3.7875 0
M  V30 2776 H 261.714 0.955399 4.99749 0
M  V30 2777 H 261.112 -2.2191 5.20358 0
M  V30 2778 H 259.669 -2.19887 6.1359 0
M  V30 2779 N 263.102 -1.41638 0.69111 0
M  V30 2780 C 264.032 -2.3347 0.037248 0
M  V30 2781 C 265.013 -1.51575 -0.771947 0
M  V30 2782 O 266.198 -1.80126 -0.72582 0
M  V30 2783 C 263.328 -3.35354 -0.903064 0
M  V30 2784 C 262.282 -4.27526 -0.201288 0
M  V30 2785 C 261.608 -5.19747 -1.25565 0
M  V30 2786 C 262.908 -5.13959 0.929689 0
M  V30 2787 H 264.602 -2.88397 0.804227 0
M  V30 2788 H 262.148 -1.38669 0.388189 0
M  V30 2789 H 264.101 -3.98519 -1.36969 0
M  V30 2790 H 262.825 -2.78767 -1.70166 0
M  V30 2791 H 261.484 -3.65779 0.245265 0
M  V30 2792 H 261.132 -4.59479 -2.04666 0
M  V30 2793 H 260.832 -5.8225 -0.791128 0
M  V30 2794 H 262.356 -5.85789 -1.72288 0
M  V30 2795 H 263.77 -5.70718 0.543546 0
M  V30 2796 H 262.167 -5.85379 1.32103 0
M  V30 2797 H 263.237 -4.51389 1.77133 0
M  V30 2798 N 264.58 -0.43555 -1.51462 0
M  V30 2799 C 265.808 0.130242 -2.0649 0
M  V30 2800 C 266.223 1.36614 -1.30315 0
M  V30 2801 O 265.58 1.78869 -0.362223 0
M  V30 2802 C 265.631 0.454253 -3.58635 0
M  V30 2803 O 265.352 -0.73259 -4.31931 0
M  V30 2804 C 266.853 1.07091 -4.3017 0
M  V30 2805 H 264.073 0.00871669 -0.670943 0
M  V30 2806 H 266.617 -0.614117 -1.95061 0
M  V30 2807 H 264.772 1.14851 -3.69984 0
M  V30 2808 H 265.186 -0.455787 -5.22516 0
M  V30 2809 H 266.66 1.24764 -5.37716 0
M  V30 2810 H 267.137 2.05144 -3.88346 0
M  V30 2811 H 267.743 0.416089 -4.2326 0
M  V30 2812 N 266.058 1.56714 -0.166846 0
M  V30 2813 C 267.021 2.16539 0.751232 0
M  V30 2814 C 268.021 1.11228 1.16125 0
M  V30 2815 O 269.211 1.36765 1.07894 0
M  V30 2816 C 266.343 2.74462 2.02196 0
M  V30 2817 H 267.536 2.99013 0.230499 0
M  V30 2818 H 265.089 1.56081 0.0826982 0
M  V30 2819 H 265.824 1.95709 2.58589 0
M  V30 2820 H 265.609 3.51527 1.73698 0
M  V30 2821 H 267.099 3.20489 2.67725 0
M  V30 2822 N 267.536 -0.106894 1.57237 0
M  V30 2823 C 268.785 -0.811163 1.8467 0
M  V30 2824 C 269.098 -1.80469 0.754342 0
M  V30 2825 O 270.304 -2.55601 0.915439 0
M  V30 2826 C 268.76 -1.49337 3.27454 0
M  V30 2827 C 268.368 -0.540217 4.44731 0
M  V30 2828 C 270.112 -2.18206 3.64124 0
M  V30 2829 C 268.019 -1.22634 5.78545 0
M  V30 2830 H 266.949 -0.306679 0.688813 0
M  V30 2831 H 269.6 -0.0639887 1.83388 0
M  V30 2832 H 267.982 -2.2876 3.23241 0
M  V30 2833 H 269.156 0.221659 4.60267 0
M  V30 2834 H 267.471 0.042146 4.16379 0
M  V30 2835 H 270.068 -2.70253 4.61376 0
M  V30 2836 H 270.411 -2.96562 2.92158 0
M  V30 2837 H 270.944 -1.45658 3.70174 0
M  V30 2838 H 267.683 -0.483832 6.53712 0
M  V30 2839 H 267.203 -1.95993 5.66874 0
M  V30 2840 H 268.882 -1.75615 6.2271 0
M  V30 2841 N 269.014 -1.53014 -0.377408 0
M  V30 2842 C 269.977 -1.77957 -1.44444 0
M  V30 2843 C 270.977 -0.649763 -1.47087 0
M  V30 2844 O 272.167 -0.917897 -1.48055 0
M  V30 2845 C 269.299 -1.89089 -2.83651 0
M  V30 2846 H 270.492 -2.73243 -1.23606 0
M  V30 2847 H 268.045 -1.43912 -0.609844 0
M  V30 2848 H 268.78 -0.958293 -3.09818 0
M  V30 2849 H 268.565 -2.71254 -2.83132 0
M  V30 2850 H 270.055 -2.1002 -3.60945 0
M  V30 2851 N 270.492 0.636531 -1.44174 0
M  V30 2852 C 271.903 1.21806 -1.41493 0
M  V30 2853 C 272.254 1.95785 -0.1275 0
M  V30 2854 O 271.379 2.02147 0.772376 0
M  V30 2855 C 271.974 2.21551 -2.56321 0
M  V30 2856 C 270.533 2.75143 -2.56853 0
M  V30 2857 C 269.68 1.50052 -2.33195 0
M  V30 2858 H 272.631 0.427531 -1.52833 0
M  V30 2859 H 272.652 3.0405 -2.28765 0
M  V30 2860 H 272.164 1.67679 -3.50008 0
M  V30 2861 H 270.265 3.33033 -1.67093 0
M  V30 2862 H 270.378 3.2155 -3.55165 0
M  V30 2863 H 268.742 1.77993 -1.82183 0
M  V30 2864 H 269.525 0.980903 -3.28988 0
M  V30 2865 N 271.97 1.30982 0.876444 0
M  V30 2866 C 272.9 1.20668 1.99903 0
M  V30 2867 C 273.881 0.095354 1.69833 0
M  V30 2868 O 275.066 0.27885 1.92188 0
M  V30 2869 C 272.196 0.90655 3.3526 0
M  V30 2870 C 271.15 1.97675 3.79617 0
M  V30 2871 C 270.476 1.52943 5.1236 0
M  V30 2872 C 271.776 3.389 3.97422 0
M  V30 2873 H 273.47 2.14586 2.0879 0
M  V30 2874 H 271.016 1.03308 1.00317 0
M  V30 2875 H 272.969 0.821025 4.13324 0
M  V30 2876 H 271.693 -0.0682969 3.26529 0
M  V30 2877 H 270.352 2.05205 3.03787 0
M  V30 2878 H 270 0.54262 5.00065 0
M  V30 2879 H 269.7 2.24532 5.43009 0
M  V30 2880 H 271.224 1.45786 5.92941 0
M  V30 2881 H 272.638 3.34081 4.659 0
M  V30 2882 H 271.035 4.0865 4.3946 0
M  V30 2883 H 272.105 3.80163 3.01006 0
M  V30 2884 N 273.449 -1.08991 1.13837 0
M  V30 2885 C 274.379 -2.17771 0.842507 0
M  V30 2886 C 275.36 -1.6892 -0.20001 0
M  V30 2887 O 276.545 -1.94113 -0.0579731 0
M  V30 2888 C 273.675 -3.4589 0.312644 0
M  V30 2889 C 272.629 -4.08099 1.28992 0
M  V30 2890 C 271.955 -5.31098 0.619623 0
M  V30 2891 C 273.255 -4.50077 2.65005 0
M  V30 2892 H 274.949 -2.42777 1.75213 0
M  V30 2893 H 272.495 -1.16682 0.843875 0
M  V30 2894 H 274.448 -4.21297 0.0933043 0
M  V30 2895 H 273.172 -3.20419 -0.632382 0
M  V30 2896 H 271.831 -3.34717 1.49533 0
M  V30 2897 H 271.479 -5.0191 -0.33102 0
M  V30 2898 H 271.179 -5.73674 1.27167 0
M  V30 2899 H 272.703 -6.09224 0.409669 0
M  V30 2900 H 274.117 -5.16688 2.48407 0
M  V30 2901 H 272.514 -5.03553 3.26427 0
M  V30 2902 H 273.584 -3.62257 3.22332 0
M  V30 2903 N 274.927 -0.932562 -1.27047 0
M  V30 2904 C 275.857 -0.452902 -2.29066 0
M  V30 2905 C 276.838 0.489338 -1.62909 0
M  V30 2906 O 278.023 0.393046 -1.90181 0
M  V30 2907 C 275.153 0.290698 -3.46081 0
M  V30 2908 C 274.107 -0.564168 -4.24265 0
M  V30 2909 C 273.433 0.308886 -5.33807 0
M  V30 2910 C 274.733 -1.83112 -4.89149 0
M  V30 2911 H 276.427 -1.30552 -2.69437 0
M  V30 2912 H 273.973 -0.629201 -1.29526 0
M  V30 2913 H 275.926 0.637233 -4.16554 0
M  V30 2914 H 274.65 1.17738 -3.0464 0
M  V30 2915 H 273.309 -0.893477 -3.55545 0
M  V30 2916 H 272.957 1.19467 -4.88607 0
M  V30 2917 H 272.657 -0.259633 -5.87026 0
M  V30 2918 H 274.181 0.650884 -6.07121 0
M  V30 2919 H 275.595 -1.55236 -5.51883 0
M  V30 2920 H 273.992 -2.34353 -5.52448 0
M  V30 2921 H 275.062 -2.54772 -4.12576 0
M  V30 2922 N 276.405 1.4127 -0.698611 0
M  V30 2923 C 277.63 2.06024 -0.238512 0
M  V30 2924 C 278.055 1.5224 1.10475 0
M  V30 2925 O 277.413 0.650623 1.69223 0
M  V30 2926 C 277.461 3.59988 -0.209952 0
M  V30 2927 O 276.565 4.04282 0.814235 0
M  V30 2928 H 275.906 0.653829 -0.115775 0
M  V30 2929 H 278.436 1.8098 -0.954326 0
M  V30 2930 H 278.446 4.07979 -0.0418436 0
M  V30 2931 H 277.121 3.98503 -1.1903 0
M  V30 2932 H 275.698 3.6779 0.615234 0
M  V30 2933 N 277.883 0.443576 1.51229 0
M  V30 2934 C 278.793 -0.370721 2.31652 0
M  V30 2935 C 279.809 -1.02186 1.40833 0
M  V30 2936 O 280.985 -1.01586 1.73903 0
M  V30 2937 C 278.05 -1.45376 3.14749 0
M  V30 2938 C 277.111 -0.822099 4.21355 0
M  V30 2939 C 276.344 -1.85353 5.0048 0
M  V30 2940 O 276.567 -3.07656 4.80316 0
M  V30 2941 O 275.501 -1.4406 5.84406 0
M  V30 2942 H 279.327 0.286002 3.0235 0
M  V30 2943 H 276.912 0.20598 1.47973 0
M  V30 2944 H 278.794 -2.08173 3.66391 0
M  V30 2945 H 277.469 -2.09445 2.46809 0
M  V30 2946 H 276.376 -0.155909 3.73775 0
M  V30 2947 H 277.709 -0.224797 4.91686 0
M  V30 2948 N 279.361 -1.56624 0.175154 0
M  V30 2949 C 280.291 -2.21155 -0.749195 0
M  V30 2950 C 281.272 -1.16836 -1.23626 0
M  V30 2951 O 282.457 -1.45277 -1.28873 0
M  V30 2952 C 279.587 -2.8553 -1.97711 0
M  V30 2953 C 278.541 -3.95921 -1.62575 0
M  V30 2954 C 277.867 -4.47365 -2.92864 0
M  V30 2955 C 279.167 -5.15323 -0.850838 0
M  V30 2956 H 280.861 -2.98653 -0.211295 0
M  V30 2957 H 278.407 -1.43651 -0.100188 0
M  V30 2958 H 280.36 -3.2935 -2.62881 0
M  V30 2959 H 279.084 -2.05406 -2.53921 0
M  V30 2960 H 277.743 -3.52762 -0.997719 0
M  V30 2961 H 277.391 -3.64027 -3.47122 0
M  V30 2962 H 277.091 -5.21839 -2.70106 0
M  V30 2963 H 278.615 -4.93873 -3.59056 0
M  V30 2964 H 280.029 -5.55812 -1.40521 0
M  V30 2965 H 278.426 -5.95739 -0.722154 0
M  V30 2966 H 279.496 -4.84661 0.152082 0
M  V30 2967 N 280.839 0.0985539 -1.57292 0
M  V30 2968 C 282.25 0.653457 -1.74891 0
M  V30 2969 C 282.601 1.7929 -0.796838 0
M  V30 2970 O 281.726 2.16385 0.0254886 0
M  V30 2971 C 282.321 1.19216 -3.17133 0
M  V30 2972 C 280.88 1.69316 -3.36168 0
M  V30 2973 C 280.027 0.601294 -2.70702 0
M  V30 2974 H 282.978 -0.127497 -1.58187 0
M  V30 2975 H 282.999 2.06154 -3.19814 0
M  V30 2976 H 282.511 0.362635 -3.86402 0
M  V30 2977 H 280.612 2.5468 -2.71972 0
M  V30 2978 H 280.725 1.78853 -4.44464 0
M  V30 2979 H 279.089 1.0399 -2.32504 0
M  V30 2980 H 279.872 -0.217592 -3.4261 0
M  V30 2981 N 282.317 1.53212 0.369288 0
M  V30 2982 C 283.545 1.73119 1.13303 0
M  V30 2983 C 283.96 0.458455 1.83149 0
M  V30 2984 O 283.317 -0.568403 1.73423 0
M  V30 2985 C 283.368 2.89413 2.16616 0
M  V30 2986 O 283.089 4.11761 1.49614 0
M  V30 2987 C 284.59 3.21161 3.05566 0
M  V30 2988 H 281.81 0.579107 0.338934 0
M  V30 2989 H 284.354 1.99942 0.429338 0
M  V30 2990 H 282.509 2.64994 2.82589 0
M  V30 2991 H 282.923 4.76858 2.18419 0
M  V30 2992 H 284.397 4.05949 3.74045 0
M  V30 2993 H 284.874 2.36369 3.70171 0
M  V30 2994 H 285.48 3.47492 2.45213 0
M  V30 2995 N 283.795 -0.628877 1.44509 0
M  V30 2996 C 284.725 -1.75187 1.54376 0
M  V30 2997 C 285.706 -1.65411 0.396618 0
M  V30 2998 O 286.891 -1.84137 0.617031 0
M  V30 2999 C 284.021 -3.13725 1.48976 0
M  V30 3000 C 282.975 -3.38291 2.62189 0
M  V30 3001 C 282.301 -4.76883 2.41841 0
M  V30 3002 C 283.601 -3.30632 4.04326 0
M  V30 3003 H 285.295 -1.67187 2.48373 0
M  V30 3004 H 282.841 -0.802909 1.19538 0
M  V30 3005 H 284.794 -3.92064 1.54478 0
M  V30 3006 H 283.518 -3.22515 0.514961 0
M  V30 3007 H 282.177 -2.62334 2.56079 0
M  V30 3008 H 281.825 -4.82378 1.42548 0
M  V30 3009 H 281.525 -4.94278 3.17747 0
M  V30 3010 H 283.049 -5.57449 2.49165 0
M  V30 3011 H 284.463 -3.98873 4.11793 0
M  V30 3012 H 282.86 -3.59561 4.80454 0
M  V30 3013 H 283.93 -2.28404 4.27738 0
M  V30 3014 N 285.273 -1.31445 -0.869486 0
M  V30 3015 C 286.22 -1.19135 -1.97675 0
M  V30 3016 C 287.19 -0.0770266 -1.65921 0
M  V30 3017 O 288.375 -0.249972 -1.89155 0
M  V30 3018 C 285.515 -0.905149 -3.33018 0
M  V30 3019 C 284.628 -2.10285 -3.77365 0
M  V30 3020 C 283.763 -1.75339 -5.01427 0
M  V30 3021 C 282.802 -2.91515 -5.38224 0
M  V30 3022 N 281.939 -2.56762 -6.53466 0
M  V30 3023 H 286.779 -2.13853 -2.07535 0
M  V30 3024 H 284.316 -1.06379 -1.01597 0
M  V30 3025 H 286.274 -0.719765 -4.10944 0
M  V30 3026 H 284.904 0.00519624 -3.228 0
M  V30 3027 H 283.956 -2.39899 -2.95216 0
M  V30 3028 H 285.268 -2.97237 -4.00564 0
M  V30 3029 H 284.422 -1.53266 -5.87022 0
M  V30 3030 H 283.161 -0.855801 -4.80133 0
M  V30 3031 H 282.166 -3.14237 -4.51149 0
M  V30 3032 H 283.391 -3.81985 -5.61484 0
M  V30 3033 H 281.337 -1.69526 -6.33717 0
M  V30 3034 H 281.254 -3.37243 -6.76612 0
M  V30 3035 H 282.522 -2.38083 -7.42251 0
M  V30 3036 N 286.751 1.08385 -1.14413 0
M  V30 3037 C 287.683 2.1519 -0.789036 0
M  V30 3038 C 288.696 1.61638 0.19417 0
M  V30 3039 O 289.885 1.78479 -0.0275711 0
M  V30 3040 C 286.985 3.38565 -0.15058 0
M  V30 3041 C 286.158 4.21501 -1.16857 0
M  V30 3042 C 285.217 5.23277 -0.553832 0
M  V30 3043 O 284.243 5.56041 -1.21686 0
M  V30 3044 N 285.445 5.76629 0.669296 0
M  V30 3045 H 288.21 2.46257 -1.70814 0
M  V30 3046 H 285.771 1.24198 -1.03858 0
M  V30 3047 H 287.763 4.03777 0.273181 0
M  V30 3048 H 286.333 3.05299 0.671667 0
M  V30 3049 H 285.553 3.52265 -1.76926 0
M  V30 3050 H 286.841 4.73731 -1.85624 0
M  V30 3051 H 286.239 5.52243 1.22654 0
M  V30 3052 H 284.796 6.43521 1.03556 0
M  V30 3053 N 288.23 0.939286 1.26551 0
M  V30 3054 C 289.16 0.465044 2.28822 0
M  V30 3055 C 290.141 -0.480692 1.63167 0
M  V30 3056 O 291.326 -0.382955 1.90387 0
M  V30 3057 C 288.456 -0.27234 3.46231 0
M  V30 3058 C 287.41 0.58666 4.2396 0
M  V30 3059 C 286.736 -0.280573 5.33963 0
M  V30 3060 C 288.036 1.85704 4.88171 0
M  V30 3061 H 289.73 1.31979 2.68741 0
M  V30 3062 H 287.276 0.636061 1.29191 0
M  V30 3063 H 289.229 -0.615133 4.16886 0
M  V30 3064 H 287.953 -1.16121 3.0526 0
M  V30 3065 H 286.612 0.91232 3.55067 0
M  V30 3066 H 286.26 -1.16874 4.89234 0
M  V30 3067 H 285.96 0.29076 5.8688 0
M  V30 3068 H 287.484 -0.618678 6.07458 0
M  V30 3069 H 288.898 1.58161 5.51052 0
M  V30 3070 H 287.295 2.37279 5.51197 0
M  V30 3071 H 288.365 2.56957 4.11219 0
M  V30 3072 N 289.708 -1.40897 0.706093 0
M  V30 3073 C 290.956 -2.00657 0.241054 0
M  V30 3074 C 291.277 -1.56241 -1.16678 0
M  V30 3075 O 290.547 -0.79765 -1.78926 0
M  V30 3076 H 289.127 -0.742018 0.0861308 0
M  V30 3077 H 291.789 -1.72372 0.909604 0
M  V30 3078 H 290.885 -3.10958 0.266705 0
M  V30 3079 N 291.186 -0.45159 -1.50991 0
M  V30 3080 C 292.433 0.110074 -2.02201 0
M  V30 3081 C 292.761 1.4146 -1.33489 0
M  V30 3082 O 292.016 1.90617 -0.443125 0
M  V30 3083 C 292.315 0.361728 -3.55565 0
M  V30 3084 C 291.981 -0.858717 -4.42648 0
M  V30 3085 C 290.643 -1.19338 -4.66167 0
M  V30 3086 C 292.995 -1.67221 -4.93646 0
M  V30 3087 C 290.323 -2.34195 -5.37931 0
M  V30 3088 C 292.675 -2.8119 -5.6667 0
M  V30 3089 C 291.339 -3.15094 -5.88449 0
M  V30 3090 H 290.609 0.040279 -0.739904 0
M  V30 3091 H 293.256 -0.601696 -1.81802 0
M  V30 3092 H 291.561 1.15554 -3.74372 0
M  V30 3093 H 293.258 0.80996 -3.92735 0
M  V30 3094 H 289.848 -0.58796 -4.24548 0
M  V30 3095 H 294.032 -1.42686 -4.75347 0
M  V30 3096 H 289.288 -2.6076 -5.53005 0
M  V30 3097 H 293.462 -3.44585 -6.05173 0
M  V30 3098 H 291.089 -4.04204 -6.43835 0
M  V30 3099 N 292.664 1.56529 -0.183458 0
M  V30 3100 C 293.941 1.88959 0.50536 0
M  V30 3101 C 294.321 1.09523 1.80466 0
M  V30 3102 O 293.669 0.19278 2.27685 0
M  V30 3103 C 293.879 3.41162 0.73547 0
M  V30 3104 C 295.227 4.11155 1.06005 0
M  V30 3105 O 296.251 3.46548 0.823594 0
M  V30 3106 O 295.11 5.25318 1.50675 0
M  V30 3107 H 292.204 0.78441 0.261973 0
M  V30 3108 H 294.75 1.68231 -0.222802 0
M  V30 3109 H 293.522 3.90874 -0.182561 0
M  V30 3110 H 293.145 3.67543 1.51651 0
M  V30 3111 N 294.142 -0.090211 1.57342 0
M  V30 3112 C 295.388 -0.788838 1.8748 0
M  V30 3113 C 295.743 -1.76105 0.7749 0
M  V30 3114 O 295.036 -1.90302 -0.222663 0
M  V30 3115 C 295.23 -1.55222 3.21933 0
M  V30 3116 C 295.059 -0.655441 4.44898 0
M  V30 3117 C 293.829 -0.299325 5.04413 0
M  V30 3118 C 296.027 0.0397458 5.14285 0
M  V30 3119 N 294.009 0.605108 6.10911 0
M  V30 3120 C 295.38 0.802061 6.1479 0
M  V30 3121 C 297.435 0.113154 4.97771 0
M  V30 3122 C 296.138 1.63093 7.00566 0
M  V30 3123 C 298.164 0.928942 5.84059 0
M  V30 3124 C 297.526 1.67936 6.84088 0
M  V30 3125 H 293.625 -0.26467 0.735849 0
M  V30 3126 H 296.209 -0.0511453 1.94633 0
M  V30 3127 H 294.38 -2.26076 3.15823 0
M  V30 3128 H 296.112 -2.19843 3.39781 0
M  V30 3129 H 292.867 -0.648079 4.69145 0
M  V30 3130 H 293.291 1.05002 6.68808 0
M  V30 3131 H 297.933 -0.452676 4.2037 0
M  V30 3132 H 295.651 2.20781 7.77355 0
M  V30 3133 H 299.237 0.988478 5.73341 0
M  V30 3134 H 298.117 2.30044 7.49699 0
M  V30 3135 N 295.62 -1.53406 -0.361157 0
M  V30 3136 C 296.897 -1.60411 -1.11927 0
M  V30 3137 C 297.277 -0.414385 -2.06993 0
M  V30 3138 O 296.625 0.594976 -2.20618 0
M  V30 3139 C 296.835 -2.95652 -1.85448 0
M  V30 3140 C 298.183 -3.50386 -2.39823 0
M  V30 3141 O 299.207 -2.97711 -1.95568 0
M  V30 3142 O 298.066 -4.42482 -3.20737 0
M  V30 3143 H 295.16 -0.64811 -0.513695 0
M  V30 3144 H 297.706 -1.65749 -0.364065 0
M  V30 3145 H 296.478 -3.73682 -1.16091 0
M  V30 3146 H 296.101 -2.93825 -2.67866 0
M  V30 3147 N 297.098 0.621204 -1.44841 0
M  V30 3148 C 298.346 1.37783 -1.47852 0
M  V30 3149 C 298.667 1.94653 -0.116224 0
M  V30 3150 O 297.937 1.76367 0.852737 0
M  V30 3151 H 296.517 0.511453 -0.544449 0
M  V30 3152 H 299.179 0.730446 -1.80694 0
M  V30 3153 H 298.275 2.20414 -2.20961 0
M  V30 3154 N 298.576 1.31904 0.862503 0
M  V30 3155 C 299.824 1.21776 1.61292 0
M  V30 3156 C 300.145 -0.222413 1.93727 0
M  V30 3157 O 299.415 -1.1451 1.58947 0
M  V30 3158 H 297.995 0.447717 0.597962 0
M  V30 3159 H 300.657 1.65326 1.03215 0
M  V30 3160 H 299.753 1.7948 2.5533 0
M  V30 3161 N 300.054 -1.07777 1.14986 0
M  V30 3162 C 301.301 -1.8029 0.922056 0
M  V30 3163 C 301.629 -1.86531 -0.55105 0
M  V30 3164 O 300.884 -1.34189 -1.42449 0
M  V30 3165 C 301.183 -3.25495 1.47608 0
M  V30 3166 C 300.849 -3.39361 2.96893 0
M  V30 3167 C 299.511 -3.42852 3.37647 0
M  V30 3168 C 301.863 -3.42512 3.92854 0
M  V30 3169 C 299.191 -3.47094 4.73015 0
M  V30 3170 C 301.543 -3.4829 5.28088 0
M  V30 3171 C 300.207 -3.50058 5.68345 0
M  V30 3172 H 299.477 -0.659727 0.337404 0
M  V30 3173 H 302.124 -1.26854 1.43459 0
M  V30 3174 H 300.429 -3.81683 0.88463 0
M  V30 3175 H 302.126 -3.80168 1.27568 0
M  V30 3176 H 298.716 -3.37339 2.64387 0
M  V30 3177 H 302.9 -3.3904 3.62444 0
M  V30 3178 H 298.156 -3.46758 5.03556 0
M  V30 3179 H 302.33 -3.49675 6.02246 0
M  V30 3180 H 299.957 -3.53097 6.73221 0
M  V30 3181 N 301.532 -0.945985 -1.26051 0
M  V30 3182 C 302.943 -0.638096 -1.75457 0
M  V30 3183 C 303.294 0.846672 -1.76991 0
M  V30 3184 O 302.419 1.66262 -1.38513 0
M  V30 3185 C 303.014 -1.15157 -3.18629 0
M  V30 3186 C 301.573 -0.894004 -3.65629 0
M  V30 3187 C 300.72 -1.29967 -2.44957 0
M  V30 3188 H 303.671 -1.12376 -1.1206 0
M  V30 3189 H 303.692 -0.507615 -3.77099 0
M  V30 3190 H 303.204 -2.23222 -3.1748 0
M  V30 3191 H 301.305 0.172057 -3.72203 0
M  V30 3192 H 301.418 -1.52439 -4.54202 0
M  V30 3193 H 299.782 -0.718078 -2.44368 0
M  V30 3194 H 300.565 -2.38935 -2.46505 0
M  V30 3195 N 303.011 1.40521 -0.713556 0
M  V30 3196 C 304.257 2.01221 -0.252564 0
M  V30 3197 C 304.59 1.56444 1.1506 0
M  V30 3198 O 303.865 0.783597 1.78017 0
M  V30 3199 C 304.148 3.58582 -0.330332 0
M  V30 3200 C 304.001 4.13437 -1.77173 0
M  V30 3201 C 305.32 4.39079 0.299641 0
M  V30 3202 H 302.439 0.731077 -0.0932471 0
M  V30 3203 H 305.081 1.67026 -0.905673 0
M  V30 3204 H 303.231 3.87844 0.225737 0
M  V30 3205 H 304.903 3.9498 -2.38303 0
M  V30 3206 H 303.146 3.67801 -2.3001 0
M  V30 3207 H 303.817 5.22597 -1.77755 0
M  V30 3208 H 306.293 4.15735 -0.174139 0
M  V30 3209 H 305.169 5.4848 0.214771 0
M  V30 3210 H 305.43 4.19915 1.38288 0
M  V30 3211 N 304.489 0.459591 1.5075 0
M  V30 3212 C 305.399 -0.34613 2.32033 0
M  V30 3213 C 306.415 -1.00686 1.41909 0
M  V30 3214 O 307.591 -0.997361 1.7497 0
M  V30 3215 C 304.656 -1.42029 3.16273 0
M  V30 3216 C 303.717 -0.777362 4.22203 0
M  V30 3217 C 302.95 -1.80034 5.02418 0
M  V30 3218 O 303.173 -3.02544 4.83553 0
M  V30 3219 O 302.107 -1.37853 5.85901 0
M  V30 3220 H 305.933 0.318054 3.0203 0
M  V30 3221 H 303.518 0.221663 1.47746 0
M  V30 3222 H 305.4 -2.04275 3.68578 0
M  V30 3223 H 304.075 -2.06815 2.49016 0
M  V30 3224 H 302.982 -0.116256 3.73919 0
M  V30 3225 H 304.315 -0.172634 4.91897 0
M  V30 3226 N 305.967 -1.56429 0.191757 0
M  V30 3227 C 307.378 -1.83912 -0.321428 0
M  V30 3228 C 307.729 -1.11231 -1.61623 0
M  V30 3229 O 306.854 -0.37202 -2.13178 0
M  V30 3230 C 307.449 -3.33624 -0.589961 0
M  V30 3231 C 306.008 -3.6153 -1.04753 0
M  V30 3232 C 305.155 -2.7714 -0.0943327 0
M  V30 3233 H 308.106 -1.53161 0.415612 0
M  V30 3234 H 308.127 -3.52213 -1.43966 0
M  V30 3235 H 307.639 -3.86495 0.352588 0
M  V30 3236 H 305.74 -3.14089 -2.00447 0
M  V30 3237 H 305.853 -4.69737 -0.942549 0
M  V30 3238 H 304.217 -2.47638 -0.595589 0
M  V30 3239 H 305 -3.32799 0.842601 0
M  V30 3240 N 307.445 0.0818655 -1.57387 0
M  V30 3241 C 308.693 0.781368 -1.86384 0
M  V30 3242 C 309.014 1.78618 -0.782342 0
M  V30 3243 O 308.284 1.94976 0.190061 0
M  V30 3244 H 306.864 0.291562 -0.687751 0
M  V30 3245 H 309.526 0.060348 -1.94807 0
M  V30 3246 H 308.622 1.3038 -2.83562 0
M  V30 3247 N 308.923 1.53595 0.353017 0
M  V30 3248 C 309.833 1.83897 1.45667 0
M  V30 3249 C 310.849 0.728334 1.58023 0
M  V30 3250 O 312.025 1.01968 1.73679 0
M  V30 3251 C 309.09 2.03383 2.80778 0
M  V30 3252 C 308.151 3.27262 2.77845 0
M  V30 3253 C 307.384 3.45809 4.06512 0
M  V30 3254 O 307.607 2.68387 5.03314 0
M  V30 3255 O 306.541 4.39207 4.11559 0
M  V30 3256 H 310.367 2.77686 1.2298 0
M  V30 3257 H 307.952 1.39132 0.544308 0
M  V30 3258 H 309.834 2.17698 3.60812 0
M  V30 3259 H 308.509 1.12783 3.03417 0
M  V30 3260 H 307.416 3.18359 1.96465 0
M  V30 3261 H 308.749 4.17824 2.60161 0
M  V30 3262 N 310.401 -0.613514 1.45168 0
M  V30 3263 C 311.629 -1.39946 1.5239 0
M  V30 3264 C 312.044 -1.88167 0.154531 0
M  V30 3265 O 311.401 -1.61872 -0.842843 0
M  V30 3266 C 311.452 -2.60795 2.50337 0
M  V30 3267 O 311.173 -2.1458 3.81952 0
M  V30 3268 C 312.674 -3.53723 2.67198 0
M  V30 3269 H 309.894 -0.428593 0.516284 0
M  V30 3270 H 312.438 -0.748753 1.903 0
M  V30 3271 H 310.593 -3.21919 2.15515 0
M  V30 3272 H 311.007 -2.93055 4.34993 0
M  V30 3273 H 312.481 -4.35079 3.39721 0
M  V30 3274 H 312.958 -4.0368 1.73029 0
M  V30 3275 H 313.564 -2.98456 3.02992 0
M  V30 3276 N 311.879 -1.3236 -0.855495 0
M  V30 3277 C 312.842 -1.21164 -1.94556 0
M  V30 3278 C 313.842 -0.134908 -1.60233 0
M  V30 3279 O 315.032 -0.385249 -1.69887 0
M  V30 3280 C 312.164 -0.863192 -3.29791 0
M  V30 3281 H 313.357 -2.18038 -2.05911 0
M  V30 3282 H 310.91 -1.16179 -1.04557 0
M  V30 3283 H 311.645 0.103769 -3.24134 0
M  V30 3284 H 311.43 -1.64166 -3.56078 0
M  V30 3285 H 312.92 -0.809156 -4.09686 0
M  V30 3286 N 313.357 1.07166 -1.15556 0
M  V30 3287 C 314.32 2.12589 -0.856644 0
M  V30 3288 C 315.32 1.6015 0.14444 0
M  V30 3289 O 316.51 1.7399 -0.0854163 0
M  V30 3290 C 313.642 3.39753 -0.279405 0
M  V30 3291 H 314.835 2.40539 -1.79112 0
M  V30 3292 H 312.388 1.23086 -0.963298 0
M  V30 3293 H 313.123 3.17447 0.663174 0
M  V30 3294 H 312.908 3.79117 -1.00063 0
M  V30 3295 H 314.398 4.17507 -0.0879113 0
M  V30 3296 N 314.835 0.952656 1.25548 0
M  V30 3297 C 316.084 0.602053 1.92505 0
M  V30 3298 C 316.397 -0.864663 1.75451 0
M  V30 3299 O 317.603 -1.32514 2.36965 0
M  V30 3300 C 316.059 1.02607 3.44963 0
M  V30 3301 C 315.667 2.51519 3.70732 0
M  V30 3302 C 317.411 0.747905 4.1786 0
M  V30 3303 C 315.318 2.87732 5.16686 0
M  V30 3304 H 314.248 0.22146 0.720744 0
M  V30 3305 H 316.899 1.15684 1.42441 0
M  V30 3306 H 315.281 0.399712 3.93978 0
M  V30 3307 H 316.455 3.19157 3.32378 0
M  V30 3308 H 314.77 2.76786 3.11092 0
M  V30 3309 H 317.367 0.994647 5.25367 0
M  V30 3310 H 317.71 -0.315629 4.15102 0
M  V30 3311 H 318.243 1.33452 3.74747 0
M  V30 3312 H 314.982 3.93095 5.24554 0
M  V30 3313 H 314.502 2.24765 5.56094 0
M  V30 3314 H 316.181 2.76817 5.84792 0
M  V30 3315 N 316.313 -1.40141 0.720998 0
M  V30 3316 C 317.276 -2.29058 0.0805834 0
M  V30 3317 C 318.276 -1.45632 -0.681758 0
M  V30 3318 O 319.466 -1.6648 -0.512856 0
M  V30 3319 C 316.598 -3.28925 -0.895593 0
M  V30 3320 H 317.791 -2.87191 0.863793 0
M  V30 3321 H 315.344 -1.48553 0.485975 0
M  V30 3322 H 316.079 -2.75822 -1.70566 0
M  V30 3323 H 315.864 -3.90519 -0.351766 0
M  V30 3324 H 317.354 -3.95494 -1.34069 0
M  V30 3325 N 317.792 -0.46758 -1.50504 0
M  V30 3326 C 319.208 -0.121533 -1.59137 0
M  V30 3327 C 319.408 1.3717 -1.47603 0
M  V30 3328 O 318.464 2.14464 -1.33272 0
M  V30 3329 C 319.777 -0.6686 -2.93173 0
M  V30 3330 C 321.325 -0.631716 -3.06559 0
M  V30 3331 C 321.8 -1.15627 -4.43164 0
M  V30 3332 N 323.291 -1.11553 -4.49567 0
M  V30 3333 C 324.026 -1.49195 -5.5365 0
M  V30 3334 N 323.522 -1.94269 -6.65005 0
M  V30 3335 N 325.315 -1.4082 -5.44175 0
M  V30 3336 H 317.466 -1.4388 -1.56245 0
M  V30 3337 H 319.729 -0.594784 -0.738198 0
M  V30 3338 H 319.435 -1.71453 -3.07078 0
M  V30 3339 H 319.309 -0.11021 -3.77039 0
M  V30 3340 H 321.696 0.405297 -2.92304 0
M  V30 3341 H 321.777 -1.22687 -2.24458 0
M  V30 3342 H 321.421 -2.1919 -4.58168 0
M  V30 3343 H 321.351 -0.537365 -5.23851 0
M  V30 3344 H 323.842 -0.784895 -3.69659 0
M  V30 3345 H 324.155 -2.21148 -7.40482 0
M  V30 3346 H 322.5 -1.98219 -6.66134 0
M  V30 3347 H 325.691 -1.0545 -4.56068 0
M  V30 3348 H 325.864 -1.70481 -6.25172 0
M  V30 3349 N 319.27 1.56325 -0.20005 0
M  V30 3350 C 320.2 2.22318 0.713916 0
M  V30 3351 C 321.181 1.18788 1.21752 0
M  V30 3352 O 322.366 1.47309 1.26545 0
M  V30 3353 C 319.496 2.88639 1.93144 0
M  V30 3354 C 318.45 3.98457 1.56255 0
M  V30 3355 C 317.776 4.51967 2.85709 0
M  V30 3356 C 319.076 5.16612 0.768747 0
M  V30 3357 H 320.77 2.98952 0.163755 0
M  V30 3358 H 318.316 1.43792 0.0773219 0
M  V30 3359 H 320.269 3.33491 2.57608 0
M  V30 3360 H 318.993 2.09419 2.50621 0
M  V30 3361 H 317.652 3.54305 0.941471 0
M  V30 3362 H 317.3 3.69503 3.41287 0
M  V30 3363 H 317 5.26071 2.6177 0
M  V30 3364 H 318.524 4.99523 3.51154 0
M  V30 3365 H 319.938 5.57977 1.3166 0
M  V30 3366 H 318.335 5.96812 0.627286 0
M  V30 3367 H 319.405 4.84358 -0.229168 0
M  V30 3368 N 320.748 -0.0735177 1.57428 0
M  V30 3369 C 321.68 -1.11423 2.00294 0
M  V30 3370 C 322.693 -1.35084 0.908637 0
M  V30 3371 O 323.882 -1.33355 1.18654 0
M  V30 3372 C 320.982 -2.46548 2.32523 0
M  V30 3373 C 320.155 -2.42867 3.63778 0
M  V30 3374 C 319.214 -3.60087 3.83697 0
M  V30 3375 O 318.24 -3.41595 4.55304 0
M  V30 3376 N 319.442 -4.80372 3.25919 0
M  V30 3377 H 322.207 -0.749206 2.90184 0
M  V30 3378 H 319.768 -0.262195 1.59763 0
M  V30 3379 H 321.76 -3.23607 2.43024 0
M  V30 3380 H 320.33 -2.75059 1.48531 0
M  V30 3381 H 319.55 -1.51206 3.64047 0
M  V30 3382 H 320.838 -2.37506 4.49965 0
M  V30 3383 H 320.236 -4.983 2.67795 0
M  V30 3384 H 318.793 -5.54948 3.41871 0
M  V30 3385 N 322.226 -1.5378 -0.344866 0
M  V30 3386 C 323.136 -1.84667 -1.4469 0
M  V30 3387 C 324.152 -0.736704 -1.57635 0
M  V30 3388 O 325.328 -1.02888 -1.73136 0
M  V30 3389 C 322.393 -2.04869 -2.79696 0
M  V30 3390 C 321.454 -3.28731 -2.76106 0
M  V30 3391 C 320.687 -3.4796 -4.04673 0
M  V30 3392 O 320.91 -2.71052 -5.01883 0
M  V30 3393 O 319.844 -4.41383 -4.09224 0
M  V30 3394 H 323.67 -2.78334 -1.21506 0
M  V30 3395 H 321.255 -1.39418 -0.536921 0
M  V30 3396 H 323.137 -2.19609 -3.59652 0
M  V30 3397 H 321.812 -1.14391 -3.02814 0
M  V30 3398 H 320.719 -3.19396 -1.94774 0
M  V30 3399 H 322.052 -4.19198 -2.57941 0
M  V30 3400 N 323.704 0.605807 -1.45491 0
M  V30 3401 C 324.951 1.36476 -1.49601 0
M  V30 3402 C 325.279 1.94007 -0.138452 0
M  V30 3403 O 324.534 1.75638 0.863114 0
M  V30 3404 C 324.833 2.53012 -2.52428 0
M  V30 3405 C 324.499 2.13617 -3.97087 0
M  V30 3406 C 323.161 2.02587 -4.36477 0
M  V30 3407 C 325.513 1.82899 -4.88055 0
M  V30 3408 C 322.841 1.59064 -5.64726 0
M  V30 3409 C 325.193 1.40861 -6.16718 0
M  V30 3410 C 323.857 1.28391 -6.55036 0
M  V30 3411 H 323.127 0.499402 -0.547429 0
M  V30 3412 H 325.774 0.684546 -1.78847 0
M  V30 3413 H 324.079 3.26379 -2.16758 0
M  V30 3414 H 325.776 3.1124 -2.52845 0
M  V30 3415 H 322.366 2.23129 -3.65939 0
M  V30 3416 H 326.55 1.90317 -4.58359 0
M  V30 3417 H 321.806 1.48034 -5.93208 0
M  V30 3418 H 325.98 1.16138 -6.86648 0
M  V30 3419 H 323.607 0.944403 -7.54311 0
M  V30 3420 N 325.182 1.32811 0.848464 0
M  V30 3421 C 326.422 1.25046 1.61687 0
M  V30 3422 C 326.786 -0.183464 1.91121 0
M  V30 3423 O 327.987 -0.384937 2.66029 0
M  V30 3424 C 326.258 2.09201 2.89775 0
M  V30 3425 S 327.817 2.18526 3.80515 0
M  V30 3426 H 324.635 0.445023 0.554505 0
M  V30 3427 H 327.237 1.67733 1.00429 0
M  V30 3428 H 325.941 3.12433 2.66108 0
M  V30 3429 H 325.472 1.67315 3.56047 0
M  V30 3430 H 327.487 1.3393 4.77784 0
M  V30 3431 N 326.66 -1.06551 1.16123 0
M  V30 3432 C 327.937 -1.76097 0.85142 0
M  V30 3433 C 328.317 -2.00802 -0.6513 0
M  V30 3434 O 327.665 -1.63302 -1.59827 0
M  V30 3435 C 327.875 -3.06384 1.67122 0
M  V30 3436 C 329.223 -3.80585 1.88255 0
M  V30 3437 O 330.247 -3.16218 1.63966 0
M  V30 3438 O 329.106 -4.96212 2.2899 0
M  V30 3439 H 326.2 -0.765102 0.313923 0
M  V30 3440 H 328.746 -1.12844 1.26745 0
M  V30 3441 H 327.518 -2.84071 2.69108 0
M  V30 3442 H 327.141 -3.77371 1.25206 0
M  V30 3443 N 328.138 -0.959301 -1.25041 0
M  V30 3444 C 329.554 -0.664474 -1.4511 0
M  V30 3445 C 329.754 0.776481 -1.85938 0
M  V30 3446 O 328.81 1.55128 -1.99227 0
M  V30 3447 C 330.123 -1.64139 -2.5195 0
M  V30 3448 C 331.671 -1.65309 -2.65786 0
M  V30 3449 C 332.146 -2.61777 -3.75815 0
M  V30 3450 N 333.637 -2.60169 -3.83231 0
M  V30 3451 C 334.372 -3.31489 -4.6787 0
M  V30 3452 N 333.868 -4.12298 -5.56761 0
M  V30 3453 N 335.661 -3.20354 -4.61876 0
M  V30 3454 H 327.812 -1.89043 -0.968332 0
M  V30 3455 H 330.075 -0.813408 -0.4869 0
M  V30 3456 H 329.781 -2.67086 -2.28819 0
M  V30 3457 H 329.655 -1.40756 -3.49954 0
M  V30 3458 H 332.042 -0.630778 -2.8828 0
M  V30 3459 H 332.123 -1.92753 -1.68167 0
M  V30 3460 H 331.767 -3.64137 -3.54071 0
M  V30 3461 H 331.697 -2.31616 -4.72929 0
M  V30 3462 H 334.188 -2.01507 -3.19692 0
M  V30 3463 H 334.501 -4.63625 -6.18281 0
M  V30 3464 H 332.846 -4.16395 -5.56454 0
M  V30 3465 H 336.037 -2.56692 -3.91442 0
M  V30 3466 H 336.21 -3.76201 -5.27614 0
M  V30 3467 N 329.616 1.39756 -0.72842 0
M  V30 3468 C 330.579 2.29012 -0.0927297 0
M  V30 3469 C 331.579 1.45992 0.674025 0
M  V30 3470 O 332.769 1.66749 0.50402 0
M  V30 3471 C 329.901 3.29396 0.878137 0
M  V30 3472 H 331.094 2.86729 -0.879011 0
M  V30 3473 H 328.647 1.48293 -0.493847 0
M  V30 3474 H 329.382 2.76722 1.69101 0
M  V30 3475 H 329.167 3.907 0.331051 0
M  V30 3476 H 330.657 3.96199 1.3197 0
M  V30 3477 N 331.094 0.475555 1.50254 0
M  V30 3478 C 332.343 -0.0795996 2.01543 0
M  V30 3479 C 332.656 -1.4038 1.36209 0
M  V30 3480 O 333.862 -2.04415 1.7868 0
M  V30 3481 C 332.318 -0.192363 3.59386 0
M  V30 3482 C 331.926 1.12367 4.33679 0
M  V30 3483 C 333.67 -0.699238 4.18701 0
M  V30 3484 C 331.577 0.974453 5.83317 0
M  V30 3485 H 330.507 -0.0335228 0.753254 0
M  V30 3486 H 333.158 0.611128 1.73025 0
M  V30 3487 H 331.54 -0.946974 3.84511 0
M  V30 3488 H 332.714 1.88958 4.20276 0
M  V30 3489 H 331.029 1.562 3.85993 0
M  V30 3490 H 333.626 -0.827978 5.28251 0
M  V30 3491 H 333.969 -1.69171 3.80377 0
M  V30 3492 H 334.502 -0.00188807 3.978 0
M  V30 3493 H 331.241 1.94042 6.26121 0
M  V30 3494 H 330.761 0.248998 5.99283 0
M  V30 3495 H 332.44 0.642867 6.43798 0
M  V30 3496 N 332.573 -1.56217 0.208337 0
M  V30 3497 C 333.536 -2.18455 -0.693557 0
M  V30 3498 C 334.536 -1.14268 -1.13135 0
M  V30 3499 O 335.726 -1.39577 -1.0423 0
M  V30 3500 C 332.858 -2.79727 -1.94848 0
M  V30 3501 H 334.051 -2.99519 -0.15114 0
M  V30 3502 H 331.604 -1.56245 -0.041287 0
M  V30 3503 H 332.339 -2.02497 -2.53309 0
M  V30 3504 H 332.124 -3.56009 -1.64316 0
M  V30 3505 H 333.614 -3.27475 -2.59133 0
M  V30 3506 N 334.051 0.0651679 -1.57465 0
M  V30 3507 C 335.328 0.79644 -1.78651 0
M  V30 3508 C 335.708 1.95454 -0.797566 0
M  V30 3509 O 335.056 2.27882 0.167946 0
M  V30 3510 C 335.266 1.26322 -3.25337 0
M  V30 3511 C 336.614 1.6939 -3.89348 0
M  V30 3512 O 337.638 1.35872 -3.29268 0
M  V30 3513 O 336.497 2.31471 -4.95059 0
M  V30 3514 H 333.591 0.382157 -0.733407 0
M  V30 3515 H 336.137 0.0447311 -1.69641 0
M  V30 3516 H 334.909 0.434859 -3.88876 0
M  V30 3517 H 334.532 2.07604 -3.39096 0
M  V30 3518 N 335.529 1.53961 0.336706 0
M  V30 3519 C 336.759 1.75229 1.09446 0
M  V30 3520 C 337.167 0.494602 1.82621 0
M  V30 3521 O 336.51 -0.543764 1.75468 0
M  V30 3522 C 336.572 2.88288 2.1478 0
M  V30 3523 C 336.236 4.27656 1.6112 0
M  V30 3524 C 337.233 5.08981 1.0599 0
M  V30 3525 C 334.918 4.74161 1.6576 0
M  V30 3526 C 336.912 6.34916 0.562129 0
M  V30 3527 C 334.599 6.00067 1.15595 0
M  V30 3528 C 335.597 6.80278 0.609147 0
M  V30 3529 O 335.285 8.03818 0.114999 0
M  V30 3530 H 335.017 0.588881 0.331956 0
M  V30 3531 H 337.571 2.01614 0.392566 0
M  V30 3532 H 335.801 2.57443 2.88548 0
M  V30 3533 H 337.49 2.97461 2.76174 0
M  V30 3534 H 338.256 4.74213 1.01722 0
M  V30 3535 H 334.135 4.11781 2.07261 0
M  V30 3536 H 337.679 6.9747 0.134668 0
M  V30 3537 H 333.576 6.3433 1.19566 0
M  V30 3538 H 334.344 8.18172 0.231651 0
M  V30 3539 N 337.007 -0.598083 1.45811 0
M  V30 3540 C 338.284 -1.35777 1.40797 0
M  V30 3541 C 338.664 -2.10935 0.083462 0
M  V30 3542 O 338.012 -2.08505 -0.934763 0
M  V30 3543 C 338.222 -2.29666 2.62783 0
M  V30 3544 C 339.57 -2.91977 3.08277 0
M  V30 3545 O 340.594 -2.39984 2.63223 0
M  V30 3546 O 339.453 -3.86376 3.86491 0
M  V30 3547 H 336.547 -0.609291 0.55919 0
M  V30 3548 H 339.093 -0.620379 1.57954 0
M  V30 3549 H 337.865 -1.73454 3.50756 0
M  V30 3550 H 337.488 -3.1077 2.48008 0
M  V30 3551 N 338.485 -1.33259 -0.841409 0
M  V30 3552 C 339.896 -1.22066 -1.41269 0
M  V30 3553 C 340.247 0.161479 -1.95534 0
M  V30 3554 O 339.372 1.06094 -1.88608 0
M  V30 3555 C 339.967 -2.20996 -2.568 0
M  V30 3556 C 338.526 -2.13649 -3.09888 0
M  V30 3557 C 337.673 -2.08623 -1.82679 0
M  V30 3558 H 340.624 -1.44895 -0.647395 0
M  V30 3559 H 340.645 -1.81621 -3.34356 0
M  V30 3560 H 340.157 -3.2158 -2.17274 0
M  V30 3561 H 338.258 -1.16359 -3.53965 0
M  V30 3562 H 338.371 -3.04079 -3.70234 0
M  V30 3563 H 336.735 -1.54061 -2.02824 0
M  V30 3564 H 337.518 -3.1101 -1.45353 0
M  V30 3565 N 339.963 1.05934 -1.16686 0
M  V30 3566 C 340.895 2.13468 -0.834503 0
M  V30 3567 C 341.908 1.62013 0.15984 0
M  V30 3568 O 343.097 1.7838 -0.0654228 0
M  V30 3569 C 340.197 3.3817 -0.222361 0
M  V30 3570 C 339.37 4.18928 -1.25771 0
M  V30 3571 C 338.429 5.21985 -0.664703 0
M  V30 3572 O 337.455 5.53334 -1.33453 0
M  V30 3573 N 338.657 5.77919 0.546834 0
M  V30 3574 H 341.422 2.42578 -1.75999 0
M  V30 3575 H 338.983 1.21967 -1.06469 0
M  V30 3576 H 340.975 4.04266 0.187472 0
M  V30 3577 H 339.545 3.06655 0.606758 0
M  V30 3578 H 338.765 3.48433 -1.84358 0
M  V30 3579 H 340.053 4.69687 -1.95631 0
M  V30 3580 H 339.451 5.54721 1.10912 0
M  V30 3581 H 338.008 6.45573 0.898829 0
M  V30 3582 N 341.441 0.965919 1.2453 0
M  V30 3583 C 342.857 0.67216 1.44756 0
M  V30 3584 C 343.057 -0.766609 1.86347 0
M  V30 3585 O 342.113 -1.5407 2.00047 0
M  V30 3586 C 343.426 1.65473 2.51076 0
M  V30 3587 C 344.974 1.66716 2.64905 0
M  V30 3588 C 345.449 2.63766 3.74421 0
M  V30 3589 N 346.94 2.62198 3.81846 0
M  V30 3590 C 347.675 3.33966 4.66106 0
M  V30 3591 N 347.171 4.15245 5.54566 0
M  V30 3592 N 348.964 3.22799 4.60171 0
M  V30 3593 H 341.115 1.89553 0.958293 0
M  V30 3594 H 343.378 0.815979 0.482579 0
M  V30 3595 H 343.084 2.68296 2.27399 0
M  V30 3596 H 342.958 1.4261 3.49202 0
M  V30 3597 H 345.345 0.646057 2.87941 0
M  V30 3598 H 345.426 1.93642 1.67142 0
M  V30 3599 H 345.07 3.6601 3.52135 0
M  V30 3600 H 345 2.34121 4.71694 0
M  V30 3601 H 347.491 2.032 3.18619 0
M  V30 3602 H 347.804 4.66898 6.15814 0
M  V30 3603 H 346.149 4.1934 5.54237 0
M  V30 3604 H 349.34 2.58764 3.90075 0
M  V30 3605 H 349.513 3.78994 5.25612 0
M  V30 3606 N 342.919 -1.39368 0.735821 0
M  V30 3607 C 343.867 -2.32443 0.0855131 0
M  V30 3608 C 344.861 -1.53104 -0.724954 0
M  V30 3609 O 346.067 -1.68762 -0.626047 0
M  V30 3610 H 342.442 -0.751948 0.00885257 0
M  V30 3611 H 344.413 -2.84916 0.886883 0
M  V30 3612 C 343.162 -3.38206 -0.806983 0
M  V30 3613 H 342.485 -3.99335 -0.19274 0
M  V30 3614 H 343.925 -4.05779 -1.2296 0
M  V30 3615 C 342.384 -2.75321 -1.94165 0
M  V30 3616 O 342.914 -2.63231 -3.03435 0
M  V30 3617 N 341.12 -2.33396 -1.73132 0
M  V30 3618 H 340.667 -2.4343 -0.842596 0
M  V30 3619 H 340.625 -1.91661 -2.49225 0
M  V30 3620 N 344.397 -0.483516 -1.5 0
M  V30 3621 C 345.644 0.0671597 -2.02389 0
M  V30 3622 C 345.972 1.38597 -1.36459 0
M  V30 3623 O 345.227 1.89634 -0.483458 0
M  V30 3624 C 345.526 0.286226 -3.56252 0
M  V30 3625 C 345.192 -0.952416 -4.40726 0
M  V30 3626 C 343.854 -1.29199 -4.63531 0
M  V30 3627 C 346.206 -1.77655 -4.89988 0
M  V30 3628 C 343.534 -2.45553 -5.32842 0
M  V30 3629 C 345.886 -2.93147 -5.60578 0
M  V30 3630 C 344.55 -3.27505 -5.81633 0
M  V30 3631 H 343.82 0.0245755 -0.740592 0
M  V30 3632 H 346.467 -0.640124 -1.80485 0
M  V30 3633 H 344.772 1.07587 -3.76739 0
M  V30 3634 H 346.469 0.726473 -3.94365 0
M  V30 3635 H 343.059 -0.677881 -4.23205 0
M  V30 3636 H 347.243 -1.52737 -4.72213 0
M  V30 3637 H 342.499 -2.72431 -5.47349 0
M  V30 3638 H 346.673 -3.57344 -5.97727 0
M  V30 3639 H 344.3 -4.1777 -6.35116 0
M  V30 3640 N 345.875 1.56104 -0.216619 0
M  V30 3641 C 347.286 1.844 0.292128 0
M  V30 3642 C 347.637 1.13788 1.59833 0
M  V30 3643 O 346.762 0.405888 2.12559 0
M  V30 3644 C 347.357 3.3452 0.53681 0
M  V30 3645 C 345.916 3.63151 0.989876 0
M  V30 3646 C 345.063 2.77255 0.0502302 0
M  V30 3647 H 348.014 1.52481 -0.439926 0
M  V30 3648 H 348.035 3.54459 1.38345 0
M  V30 3649 H 347.547 3.85885 -0.414031 0
M  V30 3650 H 345.648 3.17238 1.95425 0
M  V30 3651 H 345.761 4.71177 0.867698 0
M  V30 3652 H 344.125 2.48555 0.556117 0
M  V30 3653 H 344.908 3.31416 -0.89544 0
M  V30 3654 N 347.353 -0.0568162 1.57498 0
M  V30 3655 C 348.316 -1.05038 2.03715 0
M  V30 3656 C 349.316 -1.30709 0.936577 0
M  V30 3657 O 350.506 -1.26178 1.20103 0
M  V30 3658 C 347.638 -2.39034 2.43055 0
M  V30 3659 H 348.831 -0.651715 2.92733 0
M  V30 3660 H 346.384 -0.302947 1.53336 0
M  V30 3661 H 347.119 -2.83703 1.57108 0
M  V30 3662 H 346.904 -2.21739 3.2338 0
M  V30 3663 H 348.394 -3.10421 2.79336 0
M  V30 3664 N 348.832 -1.54138 -0.328536 0
M  V30 3665 C 349.742 -1.86192 -1.42723 0
M  V30 3666 C 350.758 -0.753382 -1.56844 0
M  V30 3667 O 351.934 -1.04718 -1.72035 0
M  V30 3668 C 348.999 -2.07824 -2.77507 0
M  V30 3669 C 348.06 -3.31641 -2.72603 0
M  V30 3670 C 347.293 -3.52232 -4.00959 0
M  V30 3671 O 347.516 -2.7636 -4.9898 0
M  V30 3672 O 346.45 -4.45699 -4.0452 0
M  V30 3673 H 350.276 -2.79608 -1.18547 0
M  V30 3674 H 347.861 -1.3998 -0.522104 0
M  V30 3675 H 349.743 -2.23411 -3.57303 0
M  V30 3676 H 348.418 -1.17596 -3.01584 0
M  V30 3677 H 347.325 -3.21444 -1.91376 0
M  V30 3678 H 348.658 -4.2191 -2.53481 0
M  V30 3679 N 350.31 0.590341 -1.46126 0
M  V30 3680 C 351.273 1.68194 -1.55703 0
M  V30 3681 C 352.273 1.54808 -0.434868 0
M  V30 3682 O 353.463 1.59564 -0.698928 0
M  V30 3683 C 350.595 3.07575 -1.47005 0
M  V30 3684 H 351.788 1.61064 -2.52979 0
M  V30 3685 H 349.341 0.807541 -1.33823 0
M  V30 3686 H 350.076 3.20268 -0.509785 0
M  V30 3687 H 349.861 3.187 -2.28414 0
M  V30 3688 H 351.351 3.87055 -1.56776 0
M  V30 3689 N 351.788 1.33704 0.83433 0
M  V30 3690 C 353.036 1.25169 1.58673 0
M  V30 3691 C 353.357 -0.18127 1.94156 0
M  V30 3692 O 352.627 -1.11113 1.6134 0
M  V30 3693 H 351.207 0.4603 0.58833 0
M  V30 3694 H 353.869 1.67478 0.996847 0
M  V30 3695 H 352.965 1.84856 2.51465 0
M  V30 3696 N 353.266 -1.05314 1.17247 0
M  V30 3697 C 354.494 -1.81971 0.984593 0
M  V30 3698 C 354.909 -1.82929 -0.467166 0
M  V30 3699 O 354.266 -1.25564 -1.32438 0
M  V30 3700 C 354.317 -3.28143 1.51672 0
M  V30 3701 O 354.038 -3.27347 2.91163 0
M  V30 3702 C 355.539 -4.21493 1.37326 0
M  V30 3703 H 352.759 -0.573455 0.348411 0
M  V30 3704 H 355.303 -1.32808 1.55506 0
M  V30 3705 H 353.458 -3.74582 0.988302 0
M  V30 3706 H 353.872 -4.18824 3.15732 0
M  V30 3707 H 355.346 -5.22043 1.79375 0
M  V30 3708 H 355.823 -4.38031 0.320169 0
M  V30 3709 H 356.429 -3.80909 1.89178 0
M  V30 3710 N 354.744 -0.972509 -1.24016 0
M  V30 3711 C 355.969 -0.654417 -1.96805 0
M  V30 3712 C 356.394 0.770398 -1.716 0
M  V30 3713 O 355.752 1.52361 -0.982647 0
M  V30 3714 C 355.8 -0.941031 -3.48105 0
M  V30 3715 O 354.904 -0.0289472 -4.1239 0
M  V30 3716 H 354.245 -0.24692 -0.616382 0
M  V30 3717 H 356.775 -1.30396 -1.57664 0
M  V30 3718 H 356.785 -0.87452 -3.98517 0
M  V30 3719 H 355.46 -1.97939 -3.65777 0
M  V30 3720 H 354.037 -0.149192 -3.72601 0
M  V30 3721 N 356.222 1.38976 -0.743202 0
M  V30 3722 C 357.47 1.99948 -0.29417 0
M  V30 3723 C 357.791 1.59279 1.12495 0
M  V30 3724 O 357.061 0.844808 1.76748 0
M  V30 3725 H 355.641 0.739473 -0.105774 0
M  V30 3726 H 358.303 1.699 -0.954986 0
M  V30 3727 H 357.399 3.10142 -0.349056 0
M  V30 3728 N 357.7 0.491464 1.49741 0
M  V30 3729 C 358.63 -0.28154 2.31796 0
M  V30 3730 C 359.611 -0.971473 1.3963 0
M  V30 3731 O 360.796 -0.964719 1.68543 0
M  V30 3732 C 357.926 -1.35203 3.19902 0
M  V30 3733 C 356.88 -0.782529 4.20786 0
M  V30 3734 C 356.206 -1.95283 4.97764 0
M  V30 3735 C 357.506 0.21999 5.21837 0
M  V30 3736 H 359.2 0.403355 2.96671 0
M  V30 3737 H 356.746 0.195425 1.42668 0
M  V30 3738 H 358.699 -1.90045 3.76113 0
M  V30 3739 H 357.423 -2.06598 2.52953 0
M  V30 3740 H 356.082 -0.255928 3.65706 0
M  V30 3741 H 355.73 -2.65423 4.2727 0
M  V30 3742 H 355.43 -1.57789 5.66018 0
M  V30 3743 H 356.954 -2.50577 5.56816 0
M  V30 3744 H 358.368 -0.23996 5.72798 0
M  V30 3745 H 356.765 0.51026 5.97927 0
M  V30 3746 H 357.835 1.13911 4.7133 0
M  V30 3747 N 359.178 -1.55987 0.224894 0
M  V30 3748 C 360.403 -2.03232 -0.41369 0
M  V30 3749 C 360.828 -1.10359 -1.52323 0
M  V30 3750 O 360.186 -0.092395 -1.81064 0
M  V30 3751 C 360.234 -3.48682 -0.919405 0
M  V30 3752 O 359.338 -3.58947 -2.03054 0
M  V30 3753 H 358.679 -0.657428 -0.0931903 0
M  V30 3754 H 361.209 -2.01679 0.34451 0
M  V30 3755 H 361.219 -3.8907 -1.22835 0
M  V30 3756 H 359.894 -4.15761 -0.107339 0
M  V30 3757 H 358.471 -3.30448 -1.72796 0
M  V30 3758 N 360.656 0.0484629 -1.57525 0
M  V30 3759 C 362.067 0.597486 -1.76881 0
M  V30 3760 C 362.418 1.76664 -0.853475 0
M  V30 3761 O 361.543 2.16357 -0.0433656 0
M  V30 3762 C 362.138 1.09066 -3.20765 0
M  V30 3763 C 360.697 1.58535 -3.41385 0
M  V30 3764 C 359.844 0.514868 -2.72478 0
M  V30 3765 H 362.795 -0.177758 -1.57701 0
M  V30 3766 H 362.816 1.95875 -3.2621 0
M  V30 3767 H 362.328 0.239521 -3.8736 0
M  V30 3768 H 360.429 2.45898 -2.79937 0
M  V30 3769 H 360.542 1.64622 -4.49929 0
M  V30 3770 H 358.906 0.965407 -2.35695 0
M  V30 3771 H 359.689 -0.32648 -3.41744 0
M  V30 3772 N 362.134 1.5431 0.320358 0
M  V30 3773 C 363.097 1.83195 1.3774 0
M  V30 3774 C 364.097 0.703906 1.44575 0
M  V30 3775 O 365.287 0.972214 1.44546 0
M  V30 3776 C 362.419 1.99487 2.76438 0
M  V30 3777 H 363.612 2.77642 1.1338 0
M  V30 3778 H 361.165 1.46076 0.556012 0
M  V30 3779 H 361.9 1.07262 3.06048 0
M  V30 3780 H 361.685 2.81575 2.7287 0
M  V30 3781 H 363.175 2.23271 3.52902 0
M  V30 3782 N 363.613 -0.582584 1.46437 0
M  V30 3783 C 364.543 -1.70187 1.59871 0
M  V30 3784 C 365.524 -1.64066 0.449042 0
M  V30 3785 O 366.709 -1.82081 0.6753 0
M  V30 3786 C 363.839 -3.08827 1.58881 0
M  V30 3787 C 362.793 -3.29779 2.72819 0
M  V30 3788 C 362.119 -4.68947 2.5689 0
M  V30 3789 C 363.419 -3.17601 4.1464 0
M  V30 3790 H 365.113 -1.592 2.53566 0
M  V30 3791 H 362.659 -0.764472 1.22032 0
M  V30 3792 H 364.612 -3.86951 1.66873 0
M  V30 3793 H 363.336 -3.20713 0.617306 0
M  V30 3794 H 361.995 -2.54054 2.64296 0
M  V30 3795 H 361.643 -4.77599 1.57823 0
M  V30 3796 H 361.343 -4.83919 3.33312 0
M  V30 3797 H 362.867 -5.4924 2.66773 0
M  V30 3798 H 364.281 -3.8557 4.24274 0
M  V30 3799 H 362.678 -3.44094 4.9165 0
M  V30 3800 H 363.748 -2.14681 4.34788 0
M  V30 3801 N 365.091 -1.34144 -0.827227 0
M  V30 3802 C 366.038 -1.25364 -1.93785 0
M  V30 3803 C 367.008 -0.129774 -1.65592 0
M  V30 3804 O 368.193 -0.310024 -1.88264 0
M  V30 3805 C 365.333 -1.01064 -3.2997 0
M  V30 3806 C 364.446 -2.22185 -3.70484 0
M  V30 3807 C 363.581 -1.91203 -4.95595 0
M  V30 3808 C 362.62 -3.08491 -5.28677 0
M  V30 3809 N 361.757 -2.77421 -6.44967 0
M  V30 3810 H 366.597 -2.20347 -2.00627 0
M  V30 3811 H 364.134 -1.09558 -0.981608 0
M  V30 3812 H 366.092 -0.850139 -4.08446 0
M  V30 3813 H 364.722 -0.0975026 -3.22653 0
M  V30 3814 H 363.774 -2.4917 -2.87434 0
M  V30 3815 H 365.086 -3.0983 -3.90905 0
M  V30 3816 H 364.24 -1.71864 -5.81848 0
M  V30 3817 H 362.979 -1.00812 -4.77167 0
M  V30 3818 H 361.984 -3.28431 -4.40923 0
M  V30 3819 H 363.209 -3.99655 -5.49047 0
M  V30 3820 H 361.155 -1.89601 -6.28003 0
M  V30 3821 H 361.072 -3.58598 -6.6554 0
M  V30 3822 H 362.34 -2.61577 -7.34301 0
M  V30 3823 N 366.569 1.04691 -1.17803 0
M  V30 3824 C 367.816 1.77782 -0.969532 0
M  V30 3825 C 368.144 1.87926 0.501401 0
M  V30 3826 O 367.399 1.37918 1.38842 0
M  V30 3827 C 367.698 3.21467 -1.56186 0
M  V30 3828 C 367.364 3.3137 -3.05786 0
M  V30 3829 C 366.026 3.3378 -3.46619 0
M  V30 3830 C 368.378 3.31976 -4.01797 0
M  V30 3831 C 365.706 3.34431 -4.82051 0
M  V30 3832 C 368.058 3.34167 -5.37136 0
M  V30 3833 C 366.722 3.34866 -5.77426 0
M  V30 3834 H 365.992 0.650549 -0.354777 0
M  V30 3835 H 368.639 1.23006 -1.46772 0
M  V30 3836 H 366.944 3.79203 -0.985515 0
M  V30 3837 H 368.641 3.76652 -1.37602 0
M  V30 3838 H 365.231 3.3021 -2.73238 0
M  V30 3839 H 369.415 3.29311 -3.71306 0
M  V30 3840 H 364.671 3.33285 -5.12573 0
M  V30 3841 H 368.845 3.33585 -6.11305 0
M  V30 3842 H 366.472 3.35124 -6.82346 0
M  V30 3843 N 368.047 0.979072 1.23499 0
M  V30 3844 C 369.295 0.645941 1.91499 0
M  V30 3845 C 369.616 -0.822948 1.76784 0
M  V30 3846 O 368.886 -1.58854 1.14639 0
M  V30 3847 H 367.466 0.235919 0.708767 0
M  V30 3848 H 370.128 1.2426 1.50152 0
M  V30 3849 H 369.224 0.896411 2.9895 0
M  V30 3850 N 369.525 -1.3858 0.750561 0
M  V30 3851 C 370.488 -2.28836 0.129152 0
M  V30 3852 C 371.488 -1.47045 -0.650714 0
M  V30 3853 O 372.678 -1.6753 -0.477428 0
M  V30 3854 C 369.81 -3.30751 -0.825622 0
M  V30 3855 H 371.003 -2.85294 0.924516 0
M  V30 3856 H 368.556 -1.47489 0.517376 0
M  V30 3857 H 369.291 -2.79378 -1.64677 0
M  V30 3858 H 369.076 -3.91177 -0.268852 0
M  V30 3859 H 370.566 -3.98249 -1.2565 0
M  V30 3860 N 371.003 -0.499398 -1.49478 0
M  V30 3861 C 372.252 0.0475259 -2.01644 0
M  V30 3862 C 372.565 1.38195 -1.38425 0
M  V30 3863 O 373.771 2.01547 -1.8191 0
M  V30 3864 C 372.227 0.135164 -3.59646 0
M  V30 3865 C 371.835 -1.19252 -4.31837 0
M  V30 3866 C 373.579 0.632538 -4.19761 0
M  V30 3867 C 371.486 -1.06713 -5.81693 0
M  V30 3868 H 370.416 0.0215349 -0.753692 0
M  V30 3869 H 373.067 -0.638577 -1.7203 0
M  V30 3870 H 371.449 0.885681 -3.85969 0
M  V30 3871 H 372.623 -1.9562 -4.17216 0
M  V30 3872 H 370.938 -1.62321 -3.83459 0
M  V30 3873 H 373.535 0.743833 -5.29501 0
M  V30 3874 H 373.878 1.63098 -3.83021 0
M  V30 3875 H 374.411 -0.0613987 -3.97753 0
M  V30 3876 H 371.15 -2.03979 -6.22955 0
M  V30 3877 H 370.67 -0.344307 -5.98811 0
M  V30 3878 H 372.349 -0.745208 -6.42694 0
M  V30 3879 N 372.481 1.55866 -0.233164 0
M  V30 3880 C 373.729 1.9821 0.394593 0
M  V30 3881 C 374.05 1.12234 1.59463 0
M  V30 3882 O 373.32 0.201981 1.94856 0
M  V30 3883 H 371.9 0.732034 0.148778 0
M  V30 3884 H 374.562 1.92107 -0.32876 0
M  V30 3885 H 373.658 3.03845 0.713063 0
M  V30 3886 N 373.959 -0.0401083 1.57549 0
M  V30 3887 C 375.208 -0.732108 1.87944 0
M  V30 3888 C 375.521 -1.77107 0.830206 0
M  V30 3889 O 376.727 -2.51488 1.02302 0
M  V30 3890 C 375.183 -1.35315 3.33494 0
M  V30 3891 C 374.791 -0.351105 4.46622 0
M  V30 3892 C 376.535 -2.02566 3.73051 0
M  V30 3893 C 374.442 -0.979859 5.83226 0
M  V30 3894 H 373.372 -0.277188 0.701201 0
M  V30 3895 H 376.023 0.0138501 1.83495 0
M  V30 3896 H 374.405 -2.14844 3.32653 0
M  V30 3897 H 375.579 0.416674 4.58912 0
M  V30 3898 H 373.894 0.218708 4.15825 0
M  V30 3899 H 376.491 -2.50441 4.72423 0
M  V30 3900 H 376.834 -2.83904 3.04474 0
M  V30 3901 H 377.367 -1.29827 3.76018 0
M  V30 3902 H 374.106 -0.206135 6.55176 0
M  V30 3903 H 373.626 -1.71774 5.74677 0
M  V30 3904 H 375.305 -1.49046 6.29599 0
M  V30 3905 N 375.437 -1.54477 -0.31217 0
M  V30 3906 C 376.853 -1.45442 -0.657185 0
M  V30 3907 C 377.053 -0.63653 -1.91182 0
M  V30 3908 O 376.109 -0.139815 -2.52113 0
M  V30 3909 C 377.422 -2.89287 -0.82058 0
M  V30 3910 C 378.97 -2.9926 -0.917188 0
M  V30 3911 C 379.445 -4.44279 -1.11267 0
M  V30 3912 N 380.936 -4.4794 -1.17914 0
M  V30 3913 C 381.671 -5.57318 -1.34848 0
M  V30 3914 N 381.167 -6.76642 -1.48752 0
M  V30 3915 N 382.96 -5.44986 -1.37647 0
M  V30 3916 H 375.111 -2.06129 0.512313 0
M  V30 3917 H 377.374 -0.933088 0.167485 0
M  V30 3918 H 377.08 -3.51687 0.0302604 0
M  V30 3919 H 376.954 -3.36061 -1.71298 0
M  V30 3920 H 379.341 -2.36981 -1.75852 0
M  V30 3921 H 379.422 -2.558 -0.00101257 0
M  V30 3922 H 379.066 -5.07149 -0.27614 0
M  V30 3923 H 378.996 -4.85359 -2.04289 0
M  V30 3924 H 381.487 -3.61969 -1.08567 0
M  V30 3925 H 381.8 -7.55758 -1.61397 0
M  V30 3926 H 380.145 -6.79529 -1.45828 0
M  V30 3927 H 383.336 -4.50715 -1.26388 0
M  V30 3928 H 383.509 -6.3028 -1.50501 0
M  V30 3929 N 376.915 0.57481 -1.46744 0
M  V30 3930 C 377.847 1.69804 -1.53946 0
M  V30 3931 C 378.86 1.57098 -0.427106 0
M  V30 3932 O 380.049 1.64378 -0.695863 0
M  V30 3933 C 377.149 3.08125 -1.4111 0
M  V30 3934 C 376.322 3.46757 -2.66605 0
M  V30 3935 C 375.381 4.6417 -2.47855 0
M  V30 3936 O 374.407 4.69634 -3.21609 0
M  V30 3937 N 375.609 5.59553 -1.54534 0
M  V30 3938 H 378.374 1.64077 -2.50796 0
M  V30 3939 H 375.935 0.761 -1.429 0
M  V30 3940 H 377.927 3.84478 -1.26328 0
M  V30 3941 H 376.497 3.08175 -0.524109 0
M  V30 3942 H 375.717 2.6003 -2.96274 0
M  V30 3943 H 377.005 3.69337 -3.49954 0
M  V30 3944 H 376.403 5.57881 -0.937304 0
M  V30 3945 H 374.96 6.35304 -1.45711 0
M  V30 3946 N 378.394 1.34581 0.820102 0
M  V30 3947 C 379.357 1.2628 1.91275 0
M  V30 3948 C 380.357 0.177344 1.59819 0
M  V30 3949 O 381.547 0.430156 1.68806 0
M  V30 3950 C 378.679 0.950327 3.27386 0
M  V30 3951 H 379.872 2.23421 2.00057 0
M  V30 3952 H 377.425 1.1891 1.0144 0
M  V30 3953 H 378.16 -0.0177938 3.24295 0
M  V30 3954 H 377.945 1.73549 3.51601 0
M  V30 3955 H 379.435 0.917492 4.07396 0
M  V30 3956 N 379.872 -1.04064 1.18357 0
M  V30 3957 C 381.118 -1.77658 0.990412 0
M  V30 3958 C 381.473 -1.86446 -0.474944 0
M  V30 3959 O 380.766 -1.36153 -1.34807 0
M  V30 3960 C 380.96 -3.20634 1.57888 0
M  V30 3961 C 380.789 -3.25782 3.09994 0
M  V30 3962 C 379.559 -3.34411 3.7881 0
M  V30 3963 C 381.757 -3.13791 4.0748 0
M  V30 3964 N 379.739 -3.28809 5.18418 0
M  V30 3965 C 381.11 -3.15689 5.33611 0
M  V30 3966 C 383.165 -2.97833 3.98998 0
M  V30 3967 C 381.868 -3.03268 6.52243 0
M  V30 3968 C 383.894 -2.86759 5.17227 0
M  V30 3969 C 383.256 -2.893 6.4225 0
M  V30 3970 H 379.355 -0.661901 0.416427 0
M  V30 3971 H 381.939 -1.23968 1.50133 0
M  V30 3972 H 380.11 -3.7267 1.09414 0
M  V30 3973 H 381.842 -3.82525 1.32124 0
M  V30 3974 H 378.597 -3.40144 3.29543 0
M  V30 3975 H 379.021 -3.29448 5.91433 0
M  V30 3976 H 383.663 -2.94698 3.03171 0
M  V30 3977 H 381.381 -3.05156 7.48268 0
M  V30 3978 H 384.967 -2.75465 5.12455 0
M  V30 3979 H 383.847 -2.80818 7.32196 0
M  V30 3980 N 381.35 -0.985608 -1.22978 0
M  V30 3981 C 382.766 -0.695104 -1.43668 0
M  V30 3982 C 382.966 0.736866 -1.87543 0
M  V30 3983 O 382.022 1.50868 -2.02473 0
M  V30 3984 C 383.335 -1.69447 -2.48412 0
M  V30 3985 C 384.883 -1.70909 -2.62219 0
M  V30 3986 C 385.358 -2.6969 -3.70178 0
M  V30 3987 N 386.849 -2.6824 -3.77626 0
M  V30 3988 C 387.584 -3.41339 -4.60733 0
M  V30 3989 N 387.08 -4.24015 -5.4789 0
M  V30 3990 N 388.873 -3.30079 -4.54977 0
M  V30 3991 H 381.024 -1.91054 -0.928016 0
M  V30 3992 H 383.287 -0.823553 -0.469536 0
M  V30 3993 H 382.993 -2.7188 -2.23102 0
M  V30 3994 H 382.867 -1.48147 -3.46889 0
M  V30 3995 H 385.254 -0.691785 -2.86877 0
M  V30 3996 H 385.335 -1.96276 -1.6404 0
M  V30 3997 H 384.979 -3.71566 -3.46268 0
M  V30 3998 H 384.909 -2.41595 -4.67909 0
M  V30 3999 H 387.4 -2.08243 -3.15346 0
M  V30 4000 H 387.713 -4.76636 -6.08308 0
M  V30 4001 H 386.058 -4.28104 -5.47496 0
M  V30 4002 H 389.249 -2.64937 -3.85909 0
M  V30 4003 H 389.422 -3.87308 -5.19516 0
M  V30 4004 N 382.828 1.3818 -0.7579 0
M  V30 4005 C 383.791 2.28764 -0.141286 0
M  V30 4006 C 384.791 1.47388 0.642907 0
M  V30 4007 O 385.981 1.67781 0.468536 0
M  V30 4008 C 383.113 3.31184 0.808069 0
M  V30 4009 H 384.306 2.848 -0.939633 0
M  V30 4010 H 381.859 1.47212 -0.525191 0
M  V30 4011 H 382.594 2.80247 1.63193 0
M  V30 4012 H 382.379 3.91314 0.248104 0
M  V30 4013 H 383.869 3.98909 1.23536 0
M  V30 4014 N 384.306 0.507319 1.49211 0
M  V30 4015 C 385.269 -0.256763 2.27757 0
M  V30 4016 C 386.269 -0.888287 1.34038 0
M  V30 4017 O 387.459 -0.751841 1.5714 0
M  V30 4018 C 384.591 -1.36905 3.12202 0
M  V30 4019 H 385.784 0.432557 2.96764 0
M  V30 4020 H 383.337 0.262488 1.5408 0
M  V30 4021 H 384.072 -2.09233 2.47775 0
M  V30 4022 H 383.857 -0.921599 3.81115 0
M  V30 4023 H 385.347 -1.9071 3.7151 0
M  V30 4024 N 385.784 -1.5574 0.241426 0
M  V30 4025 C 387.009 -2.0366 -0.392111 0
M  V30 4026 C 387.434 -1.11969 -1.51144 0
M  V30 4027 O 386.792 -0.111594 -1.80956 0
M  V30 4028 C 386.84 -3.49638 -0.882371 0
M  V30 4029 O 385.944 -3.6108 -1.99235 0
M  V30 4030 H 385.285 -0.658379 -0.0862122 0
M  V30 4031 H 387.815 -2.01302 0.365881 0
M  V30 4032 H 387.825 -3.90351 -1.18702 0
M  V30 4033 H 386.5 -4.15852 -0.0632361 0
M  V30 4034 H 385.077 -3.32262 -1.69282 0
M  V30 4035 N 387.262 0.0317525 -1.57568 0
M  V30 4036 C 388.225 1.01783 -2.0536 0
M  V30 4037 C 389.225 1.29203 -0.957253 0
M  V30 4038 O 390.415 1.24251 -1.22095 0
M  V30 4039 C 387.547 2.35137 -2.46827 0
M  V30 4040 H 388.74 0.605062 -2.93733 0
M  V30 4041 H 386.293 0.278514 -1.53799 0
M  V30 4042 H 387.028 2.81168 -1.61602 0
M  V30 4043 H 386.813 2.16566 -3.26866 0
M  V30 4044 H 388.303 3.05938 -2.84239 0
M  V30 4045 N 388.74 1.54641 0.303973 0
M  V30 4046 C 389.703 1.84646 1.35789 0
M  V30 4047 C 390.703 0.7192 1.4382 0
M  V30 4048 O 391.893 0.987491 1.43507 0
M  V30 4049 C 389.025 2.02407 2.74307 0
M  V30 4050 H 390.218 2.78829 1.10429 0
M  V30 4051 H 387.771 1.46658 0.540487 0
M  V30 4052 H 388.506 1.10502 3.04893 0
M  V30 4053 H 388.291 2.84453 2.69868 0
M  V30 4054 H 389.781 2.27002 3.50514 0
M  V30 4055 N 390.218 -0.567019 1.47046 0
M  V30 4056 C 391.168 -1.67018 1.55207 0
M  V30 4057 C 392.152 -1.55543 0.411714 0
M  V30 4058 O 393.344 -1.64192 0.661064 0
M  V30 4059 C 390.473 -3.05801 1.56014 0
M  V30 4060 C 389.559 -3.22515 2.75399 0
M  V30 4061 N 389.95 -3.09329 4.00186 0
M  V30 4062 C 388.248 -3.53493 2.71954 0
M  V30 4063 C 388.949 -3.2847 4.80086 0
M  V30 4064 N 387.925 -3.54352 4.12233 0
M  V30 4065 H 391.727 -1.55377 2.4947 0
M  V30 4066 H 389.241 -0.771503 1.42904 0
M  V30 4067 H 391.238 -3.84996 1.59949 0
M  V30 4068 H 389.898 -3.18561 0.628396 0
M  V30 4069 H 390.909 -2.86863 4.31196 0
M  V30 4070 H 387.586 -3.7284 1.87873 0
M  V30 4071 H 388.976 -3.23326 5.88991 0
M  V30 4072 N 391.696 -1.35014 -0.812953 0
M  V30 4073 C 392.659 -1.27292 -1.90602 0
M  V30 4074 C 393.659 -0.185817 -1.59723 0
M  V30 4075 O 394.849 -0.439102 -1.68575 0
M  V30 4076 C 391.981 -0.967676 -3.26877 0
M  V30 4077 H 393.174 -2.24479 -1.9887 0
M  V30 4078 H 390.727 -1.19446 -1.00808 0
M  V30 4079 H 391.462 0.0005954 -3.243 0
M  V30 4080 H 391.247 -1.75412 -3.50675 0
M  V30 4081 H 392.737 -0.939085 -4.06904 0
M  V30 4082 N 393.175 1.03435 -1.18907 0
M  V30 4083 C 394.105 2.13503 -0.945448 0
M  V30 4084 C 395.086 1.69682 0.119189 0
M  V30 4085 O 396.271 1.94169 -0.034707 0
M  V30 4086 C 393.401 3.44004 -0.477316 0
M  V30 4087 C 392.355 4.0148 -1.48316 0
M  V30 4088 C 391.681 5.27537 -0.872311 0
M  V30 4089 C 392.981 4.36921 -2.86177 0
M  V30 4090 H 394.675 2.34141 -1.86597 0
M  V30 4091 H 392.221 1.12523 -0.898584 0
M  V30 4092 H 394.174 4.20372 -0.294204 0
M  V30 4093 H 392.898 3.23072 0.478786 0
M  V30 4094 H 391.557 3.27201 -1.65332 0
M  V30 4095 H 391.205 5.02917 0.0911752 0
M  V30 4096 H 390.905 5.66954 -1.54393 0
M  V30 4097 H 392.429 6.06576 -0.699871 0
M  V30 4098 H 393.843 5.04248 -2.72776 0
M  V30 4099 H 392.24 4.87405 -3.50081 0
M  V30 4100 H 393.31 3.46466 -3.39248 0
M  V30 4101 N 394.653 0.992116 1.22453 0
M  V30 4102 C 395.878 0.685644 1.95739 0
M  V30 4103 C 396.303 -0.743 1.72804 0
M  V30 4104 O 395.661 -1.50778 1.00676 0
M  V30 4105 C 395.709 0.996293 3.46564 0
M  V30 4106 O 394.813 0.0945512 4.12292 0
M  V30 4107 H 394.154 0.256694 0.612376 0
M  V30 4108 H 396.684 1.32888 1.5557 0
M  V30 4109 H 396.694 0.93781 3.97076 0
M  V30 4110 H 395.369 2.03733 3.62582 0
M  V30 4111 H 393.946 0.208451 3.72317 0
M  V30 4112 N 396.131 -1.37776 0.765217 0
M  V30 4113 C 397.547 -1.53297 0.444108 0
M  V30 4114 C 397.747 -1.72515 -1.04119 0
M  V30 4115 O 396.803 -1.74278 -1.82711 0
M  V30 4116 C 398.116 -2.73328 1.25349 0
M  V30 4117 C 399.664 -2.87185 1.24473 0
M  V30 4118 C 400.139 -4.10191 2.03733 0
M  V30 4119 N 401.63 -4.17291 2.01053 0
M  V30 4120 C 402.365 -5.11488 2.59166 0
M  V30 4121 N 401.861 -6.11285 3.26041 0
M  V30 4122 N 403.654 -5.03924 2.49032 0
M  V30 4123 H 395.805 -1.23552 1.72768 0
M  V30 4124 H 398.068 -0.601103 0.733062 0
M  V30 4125 H 397.774 -2.6557 2.30577 0
M  V30 4126 H 397.648 -3.66834 0.87823 0
M  V30 4127 H 400.035 -2.94418 0.20047 0
M  V30 4128 H 400.116 -1.94657 1.65959 0
M  V30 4129 H 399.76 -4.0372 3.08176 0
M  V30 4130 H 399.69 -5.01821 1.59633 0
M  V30 4131 H 402.181 -3.45825 1.5236 0
M  V30 4132 H 402.494 -6.79678 3.67774 0
M  V30 4133 H 400.839 -6.11583 3.30138 0
M  V30 4134 H 404.03 -4.24902 1.96407 0
M  V30 4135 H 404.203 -5.77152 2.94617 0
M  V30 4136 N 397.609 -0.515225 -1.4894 0
M  V30 4137 C 398.834 0.022727 -2.07388 0
M  V30 4138 C 399.259 1.2876 -1.37122 0
M  V30 4139 O 398.617 1.76067 -0.432431 0
M  V30 4140 C 398.665 0.244869 -3.59768 0
M  V30 4141 O 397.769 1.31667 -3.90817 0
M  V30 4142 H 397.11 -0.0325506 -0.663202 0
M  V30 4143 H 399.64 -0.718918 -1.91553 0
M  V30 4144 H 399.65 0.47205 -4.0526 0
M  V30 4145 H 398.325 -0.679194 -4.10317 0
M  V30 4146 H 396.902 1.07331 -3.5712 0
M  V30 4147 N 399.087 1.5561 -0.249682 0
M  V30 4148 C 400.364 1.90932 0.424761 0
M  V30 4149 C 400.744 1.17078 1.75658 0
M  V30 4150 O 400.092 0.289176 2.26663 0
M  V30 4151 C 400.302 3.43975 0.590109 0
M  V30 4152 C 401.65 4.15281 0.884714 0
M  V30 4153 O 402.674 3.49729 0.67587 0
M  V30 4154 O 401.533 5.31236 1.28259 0
M  V30 4155 H 398.627 0.794815 0.228468 0
M  V30 4156 H 401.173 1.67135 -0.293954 0
M  V30 4157 H 399.945 3.89748 -0.34818 0
M  V30 4158 H 399.568 3.73644 1.35926 0
M  V30 4159 N 400.565 -0.0233959 1.57583 0
M  V30 4160 C 401.475 -1.03907 2.10334 0
M  V30 4161 C 402.491 -1.39257 1.04323 0
M  V30 4162 O 403.667 -1.48462 1.36091 0
M  V30 4163 C 400.732 -2.31938 2.57693 0
M  V30 4164 C 399.793 -2.03117 3.78209 0
M  V30 4165 C 399.026 -3.25043 4.233 0
M  V30 4166 O 399.249 -4.35916 3.67876 0
M  V30 4167 O 398.183 -3.10411 5.15683 0
M  V30 4168 H 402.009 -0.620748 2.97288 0
M  V30 4169 H 399.594 -0.240743 1.47448 0
M  V30 4170 H 401.476 -3.07196 2.88458 0
M  V30 4171 H 400.151 -2.73055 1.73847 0
M  V30 4172 H 399.058 -1.25408 3.52454 0
M  V30 4173 H 400.391 -1.66852 4.63056 0
M  V30 4174 N 402.043 -1.548 -0.295768 0
M  V30 4175 C 403.006 -1.85363 -1.34808 0
M  V30 4176 C 404.006 -0.726817 -1.43436 0
M  V30 4177 O 405.196 -0.995088 -1.42981 0
M  V30 4178 C 402.328 -2.03859 -2.73229 0
M  V30 4179 H 403.521 -2.7941 -1.08949 0
M  V30 4180 H 401.074 -1.46942 -0.532702 0
M  V30 4181 H 401.809 -1.12117 -3.04303 0
M  V30 4182 H 401.594 -2.8588 -2.68356 0
M  V30 4183 H 403.084 -2.28857 -3.49305 0
M  V30 4184 N 403.521 0.559213 -1.47345 0
M  V30 4185 C 404.937 0.884943 -1.32819 0
M  V30 4186 C 405.137 1.98988 -0.317173 0
M  V30 4187 O 404.193 2.51031 0.272011 0
M  V30 4188 C 405.506 1.28007 -2.72093 0
M  V30 4189 C 407.054 1.39161 -2.80363 0
M  V30 4190 C 407.529 1.82031 -4.20272 0
M  V30 4191 N 409.02 1.89185 -4.22804 0
M  V30 4192 C 409.755 2.2368 -5.27973 0
M  V30 4193 N 409.251 2.56802 -6.43447 0
M  V30 4194 N 411.044 2.24436 -5.15349 0
M  V30 4195 H 403.195 -0.170304 -2.11716 0
M  V30 4196 H 405.458 -0.0135247 -0.947904 0
M  V30 4197 H 405.164 0.542027 -3.47498 0
M  V30 4198 H 405.038 2.23665 -3.03733 0
M  V30 4199 H 407.425 2.12048 -2.05231 0
M  V30 4200 H 407.506 0.41696 -2.52379 0
M  V30 4201 H 407.15 1.09715 -4.95908 0
M  V30 4202 H 407.08 2.80495 -4.45679 0
M  V30 4203 H 409.571 1.65982 -3.39497 0
M  V30 4204 H 409.884 2.82144 -7.19454 0
M  V30 4205 H 408.229 2.54387 -6.46771 0
M  V30 4206 H 411.42 1.97998 -4.24163 0
M  V30 4207 H 411.593 2.50989 -5.97418 0
M  V30 4208 N 404.999 1.35443 0.805782 0
M  V30 4209 C 405.947 1.28465 1.93906 0
M  V30 4210 C 406.941 0.17943 1.68447 0
M  V30 4211 O 408.147 0.345459 1.76654 0
M  V30 4212 H 404.522 0.399528 0.637088 0
M  V30 4213 H 406.493 2.24206 1.96912 0
M  V30 4214 C 405.242 1.07432 3.30687 0
M  V30 4215 H 404.565 1.91716 3.50835 0
M  V30 4216 H 406.005 1.06591 4.10383 0
M  V30 4217 C 404.464 -0.22179 3.36169 0
M  V30 4218 O 404.994 -1.21731 3.82811 0
M  V30 4219 N 403.2 -0.260841 2.89427 0
M  V30 4220 H 402.747 0.549884 2.51663 0
M  V30 4221 H 402.705 -1.12777 2.93477 0
M  V30 4222 N 406.477 -1.02803 1.19454 0
M  V30 4223 C 407.702 -1.80378 1.02364 0
M  V30 4224 C 408.127 -1.83282 -0.423007 0
M  V30 4225 O 407.485 -1.25945 -1.30413 0
M  V30 4226 C 407.533 -3.23248 1.59821 0
M  V30 4227 O 406.637 -4.04 0.828105 0
M  V30 4228 H 405.978 -0.556799 0.361761 0
M  V30 4229 H 408.508 -1.29385 1.58495 0
M  V30 4230 H 408.518 -3.73994 1.63073 0
M  V30 4231 H 407.193 -3.2045 2.65113 0
M  V30 4232 H 405.77 -3.62635 0.86891 0
M  V30 4233 N 407.956 -0.998596 -1.21925 0
M  V30 4234 C 409.205 -0.673085 -1.90138 0
M  V30 4235 C 409.518 0.79895 -1.78539 0
M  V30 4236 O 410.724 1.23628 -2.4172 0
M  V30 4237 C 409.18 -1.15339 -3.40918 0
M  V30 4238 C 408.788 -2.65106 -3.61141 0
M  V30 4239 C 410.532 -0.902476 -4.14796 0
M  V30 4240 C 408.439 -3.0671 -5.05651 0
M  V30 4241 H 407.369 -0.248057 -0.712028 0
M  V30 4242 H 410.02 -1.20891 -1.38049 0
M  V30 4243 H 408.402 -0.545658 -3.92223 0
M  V30 4244 H 409.576 -3.31274 -3.20304 0
M  V30 4245 H 407.891 -2.88142 -3.00605 0
M  V30 4246 H 410.488 -1.18895 -5.21314 0
M  V30 4247 H 410.831 0.161349 -4.15987 0
M  V30 4248 H 411.364 -1.47269 -3.69536 0
M  V30 4249 H 408.103 -4.12292 -5.09603 0
M  V30 4250 H 407.623 -2.45249 -5.47369 0
M  V30 4251 H 409.302 -2.9833 -5.74115 0
M  V30 4252 N 409.434 1.37368 -0.772513 0
M  V30 4253 C 410.85 1.53059 -0.452231 0
M  V30 4254 C 411.05 1.73065 1.03203 0
M  V30 4255 O 410.106 1.75245 1.81784 0
M  V30 4256 C 411.419 2.72659 -1.26797 0
M  V30 4257 C 412.967 2.86521 -1.25995 0
M  V30 4258 C 413.442 4.09105 -2.05905 0
M  V30 4259 N 414.933 4.16219 -2.03263 0
M  V30 4260 C 415.668 5.10107 -2.61875 0
M  V30 4261 N 415.164 6.09547 -3.29278 0
M  V30 4262 N 416.957 5.02596 -2.51701 0
M  V30 4263 H 409.108 1.22634 -1.7342 0
M  V30 4264 H 411.371 0.597206 -0.736239 0
M  V30 4265 H 411.077 2.64343 -2.31982 0
M  V30 4266 H 410.951 3.66363 -0.897672 0
M  V30 4267 H 413.338 2.94308 -0.216081 0
M  V30 4268 H 413.419 1.93774 -1.66989 0
M  V30 4269 H 413.063 4.0208 -3.10313 0
M  V30 4270 H 412.993 5.00968 -1.62292 0
M  V30 4271 H 415.484 3.45012 -1.54192 0
M  V30 4272 H 415.797 6.77718 -3.71374 0
M  V30 4273 H 414.142 6.09824 -3.33377 0
M  V30 4274 H 417.333 4.23855 -1.98657 0
M  V30 4275 H 417.506 5.75582 -2.97673 0
M  V30 4276 N 410.912 0.523116 1.48665 0
M  V30 4277 C 412.158 -0.0134963 2.02796 0
M  V30 4278 C 412.491 -1.34582 1.40004 0
M  V30 4279 O 411.766 -1.86756 0.543381 0
M  V30 4280 C 412.049 -0.14276 3.59817 0
M  V30 4281 C 411.902 1.21425 4.331 0
M  V30 4282 C 413.221 -0.872856 4.31357 0
M  V30 4283 H 410.34 -0.00343074 0.736992 0
M  V30 4284 H 412.982 0.678816 1.7746 0
M  V30 4285 H 411.132 -0.732401 3.81534 0
M  V30 4286 H 412.804 1.84447 4.2282 0
M  V30 4287 H 411.047 1.79791 3.94788 0
M  V30 4288 H 411.718 1.07687 5.41394 0
M  V30 4289 H 414.194 -0.372555 4.14429 0
M  V30 4290 H 413.07 -0.932185 5.40927 0
M  V30 4291 H 413.331 -1.92161 3.98154 0
M  V30 4292 N 412.39 -1.55475 0.257931 0
M  V30 4293 C 413.636 -2.00237 -0.357338 0
M  V30 4294 C 413.991 -1.14313 -1.54759 0
M  V30 4295 O 413.284 -0.201187 -1.90541 0
M  V30 4296 C 413.478 -3.48183 -0.806433 0
M  V30 4297 C 413.307 -4.48422 0.338758 0
M  V30 4298 C 412.077 -4.98651 0.817011 0
M  V30 4299 C 414.275 -5.00827 1.16949 0
M  V30 4300 N 412.257 -5.82658 1.93346 0
M  V30 4301 C 413.628 -5.82113 2.13413 0
M  V30 4302 C 415.683 -4.83104 1.2048 0
M  V30 4303 C 414.386 -6.47566 3.13131 0
M  V30 4304 C 416.412 -5.49343 2.19034 0
M  V30 4305 C 415.774 -6.30427 3.14232 0
M  V30 4306 H 411.873 -0.776034 -0.0964083 0
M  V30 4307 H 414.457 -1.90995 0.37803 0
M  V30 4308 H 412.628 -3.57801 -1.51107 0
M  V30 4309 H 414.36 -3.79802 -1.39758 0
M  V30 4310 H 411.115 -4.71914 0.39925 0
M  V30 4311 H 411.539 -6.29356 2.49478 0
M  V30 4312 H 416.181 -4.20036 0.482634 0
M  V30 4313 H 413.899 -7.09793 3.8629 0
M  V30 4314 H 417.485 -5.37579 2.22485 0
M  V30 4315 H 416.365 -6.80777 3.89246 0
M  V30 4316 N 413.868 0.0150385 -1.57593 0
M  V30 4317 C 414.8 1.03912 -2.04291 0
M  V30 4318 C 415.813 1.31618 -0.958146 0
M  V30 4319 O 417.002 1.28859 -1.23522 0
M  V30 4320 C 414.102 2.37749 -2.41514 0
M  V30 4321 C 413.275 2.29198 -3.72541 0
M  V30 4322 C 412.334 3.45598 -3.96797 0
M  V30 4323 O 411.36 3.24461 -4.67668 0
M  V30 4324 N 412.562 4.67945 -3.43523 0
M  V30 4325 H 415.327 0.64099 -2.92765 0
M  V30 4326 H 412.888 0.20272 -1.60626 0
M  V30 4327 H 414.88 3.14364 -2.54867 0
M  V30 4328 H 413.45 2.69357 -1.58637 0
M  V30 4329 H 412.67 1.3759 -3.69408 0
M  V30 4330 H 413.958 2.20642 -4.5847 0
M  V30 4331 H 413.356 4.88017 -2.86104 0
M  V30 4332 H 411.913 5.41878 -3.62232 0
M  V30 4333 N 415.346 1.54954 0.287554 0
M  V30 4334 C 416.278 1.83224 1.37701 0
M  V30 4335 C 417.291 0.715898 1.46215 0
M  V30 4336 O 418.48 0.993565 1.48292 0
M  V30 4337 C 415.58 1.96723 2.75959 0
M  V30 4338 C 414.753 3.27253 2.90215 0
M  V30 4339 C 413.812 3.30998 4.09056 0
M  V30 4340 O 412.838 4.04457 4.00503 0
M  V30 4341 N 414.04 2.57353 5.20336 0
M  V30 4342 H 416.805 2.77254 1.138 0
M  V30 4343 H 414.366 1.54694 0.477652 0
M  V30 4344 H 416.358 1.96615 3.5373 0
M  V30 4345 H 414.928 1.09626 2.92747 0
M  V30 4346 H 414.148 3.40022 1.99447 0
M  V30 4347 H 415.436 4.13365 2.96659 0
M  V30 4348 H 414.834 1.97327 5.30169 0
M  V30 4349 H 413.391 2.62984 5.96391 0
M  V30 4350 N 416.824 -0.551391 1.4764 0
M  V30 4351 C 417.734 -1.68525 1.63207 0
M  V30 4352 C 418.75 -1.6621 0.514815 0
M  V30 4353 O 419.926 -1.85551 0.783113 0
M  V30 4354 C 416.991 -3.05025 1.64805 0
M  V30 4355 C 416.052 -3.18362 2.88 0
M  V30 4356 C 415.285 -4.4835 2.89513 0
M  V30 4357 O 415.508 -5.34163 2.00065 0
M  V30 4358 O 414.442 -4.65602 3.81443 0
M  V30 4359 H 418.268 -1.58333 2.59161 0
M  V30 4360 H 415.853 -0.722063 1.30792 0
M  V30 4361 H 417.735 -3.86245 1.68502 0
M  V30 4362 H 416.41 -3.15587 0.720197 0
M  V30 4363 H 415.317 -2.36518 2.89845 0
M  V30 4364 H 416.65 -3.12707 3.80099 0
M  V30 4365 N 418.302 -1.35869 -0.798587 0
M  V30 4366 C 419.232 -1.32118 -1.92528 0
M  V30 4367 C 420.213 -0.194209 -1.68988 0
M  V30 4368 O 421.398 -0.390426 -1.90235 0
M  V30 4369 C 418.528 -1.10047 -3.29404 0
M  V30 4370 C 417.482 -2.19471 -3.67446 0
M  V30 4371 C 416.808 -1.82555 -5.02571 0
M  V30 4372 C 418.108 -3.61495 -3.76987 0
M  V30 4373 H 419.802 -2.26394 -1.95924 0
M  V30 4374 H 417.348 -1.08981 -0.94123 0
M  V30 4375 H 419.301 -1.06061 -4.07835 0
M  V30 4376 H 418.025 -0.122195 -3.26371 0
M  V30 4377 H 416.684 -2.22568 -2.91306 0
M  V30 4378 H 416.332 -0.833249 -4.9605 0
M  V30 4379 H 416.032 -2.5581 -5.28995 0
M  V30 4380 H 417.556 -1.80108 -5.83432 0
M  V30 4381 H 418.97 -3.60676 -4.4563 0
M  V30 4382 H 417.367 -4.33577 -4.14887 0
M  V30 4383 H 418.437 -3.97065 -2.78329 0
M  V30 4384 N 419.78 1.02168 -1.19998 0
M  V30 4385 C 420.743 2.08765 -0.94604 0
M  V30 4386 C 421.743 1.60618 0.0763846 0
M  V30 4387 O 422.933 1.73472 -0.159135 0
M  V30 4388 C 420.065 3.38262 -0.423255 0
M  V30 4389 H 421.258 2.32726 -1.89153 0
M  V30 4390 H 418.811 1.1889 -1.01464 0
M  V30 4391 H 419.546 3.19974 0.527938 0
M  V30 4392 H 419.331 3.74532 -1.16053 0
M  V30 4393 H 420.821 4.16759 -0.264911 0
M  V30 4394 N 421.258 1.00505 1.21394 0
M  V30 4395 C 422.504 0.698477 1.91031 0
M  V30 4396 C 422.859 -0.762448 1.76648 0
M  V30 4397 O 422.152 -1.54554 1.13241 0
M  V30 4398 C 422.346 1.0546 3.41486 0
M  V30 4399 C 422.175 2.5486 3.70508 0
M  V30 4400 C 420.945 3.21461 3.8986 0
M  V30 4401 C 423.143 3.53019 3.74008 0
M  V30 4402 N 421.125 4.60211 4.06299 0
M  V30 4403 C 422.496 4.77279 3.95733 0
M  V30 4404 C 424.551 3.47154 3.56915 0
M  V30 4405 C 423.254 5.96388 4.02137 0
M  V30 4406 C 425.28 4.65652 3.64585 0
M  V30 4407 C 424.642 5.88717 3.86771 0
M  V30 4408 H 420.741 0.30707 0.719189 0
M  V30 4409 H 423.325 1.28753 1.46051 0
M  V30 4410 H 421.496 0.494007 3.85246 0
M  V30 4411 H 423.228 0.702765 3.98552 0
M  V30 4412 H 419.983 2.71906 3.87768 0
M  V30 4413 H 420.407 5.32216 4.1842 0
M  V30 4414 H 425.049 2.53015 3.38738 0
M  V30 4415 H 422.767 6.90919 4.19114 0
M  V30 4416 H 426.353 4.62717 3.52681 0
M  V30 4417 H 425.233 6.78877 3.92549 0
M  V30 4418 N 422.737 -1.36956 0.779787 0
M  V30 4419 C 424.153 -1.52817 0.460342 0
M  V30 4420 C 424.353 -1.7361 -1.02283 0
M  V30 4421 O 423.409 -1.76207 -1.80852 0
M  V30 4422 C 424.722 -2.71983 1.28241 0
M  V30 4423 C 426.27 -2.85849 1.27512 0
M  V30 4424 C 426.745 -4.08008 2.08072 0
M  V30 4425 N 428.236 -4.15135 2.05467 0
M  V30 4426 C 428.971 -5.08711 2.64577 0
M  V30 4427 N 428.467 -6.07792 3.32506 0
M  V30 4428 N 430.26 -5.01254 2.54363 0
M  V30 4429 H 422.411 -1.21713 1.74068 0
M  V30 4430 H 424.674 -0.593294 0.739396 0
M  V30 4431 H 424.38 -2.63109 2.33381 0
M  V30 4432 H 424.254 -3.65882 0.917088 0
M  V30 4433 H 426.641 -2.94189 0.231686 0
M  V30 4434 H 426.722 -1.92886 1.68014 0
M  V30 4435 H 426.366 -4.00429 3.12441 0
M  V30 4436 H 426.296 -5.001 1.64947 0
M  V30 4437 H 428.787 -3.44189 1.5602 0
M  V30 4438 H 429.1 -6.75739 3.74963 0
M  V30 4439 H 427.445 -6.08047 3.36606 0
M  V30 4440 H 430.636 -4.22795 2.00902 0
M  V30 4441 H 430.809 -5.73995 3.00722 0
M  V30 4442 N 424.215 -0.530993 -1.48385 0
M  V30 4443 C 425.125 0.23503 -2.3342 0
M  V30 4444 C 426.141 0.93801 -1.46552 0
M  V30 4445 O 427.317 0.912745 -1.7953 0
M  V30 4446 C 424.382 1.26778 -3.22689 0
M  V30 4447 C 423.443 0.575038 -4.25431 0
M  V30 4448 C 422.676 1.55858 -5.10435 0
M  V30 4449 O 422.899 2.79129 -4.97437 0
M  V30 4450 O 421.833 1.09742 -5.91811 0
M  V30 4451 H 425.659 -0.461794 -3.00169 0
M  V30 4452 H 423.244 -0.291903 -1.46521 0
M  V30 4453 H 425.126 1.86457 -3.77904 0
M  V30 4454 H 423.801 1.94699 -2.586 0
M  V30 4455 H 422.708 -0.0622782 -3.74048 0
M  V30 4456 H 424.041 -0.062253 -4.92161 0
M  V30 4457 N 425.693 1.55336 -0.266172 0
M  V30 4458 C 426.94 1.99397 0.353158 0
M  V30 4459 C 427.268 1.15451 1.56529 0
M  V30 4460 O 426.523 0.209974 1.9457 0
M  V30 4461 C 426.822 3.48606 0.787957 0
M  V30 4462 C 426.488 4.49773 -0.318541 0
M  V30 4463 C 425.15 4.77158 -0.62239 0
M  V30 4464 C 427.502 5.10212 -1.06459 0
M  V30 4465 C 424.83 5.62251 -1.67602 0
M  V30 4466 C 427.182 5.96449 -2.10788 0
M  V30 4467 C 425.846 6.22158 -2.41817 0
M  V30 4468 H 425.116 0.729644 0.12923 0
M  V30 4469 H 427.763 1.87732 -0.37802 0
M  V30 4470 H 426.068 3.57701 1.59866 0
M  V30 4471 H 427.765 3.80098 1.27775 0
M  V30 4472 H 424.355 4.2854 -0.0715925 0
M  V30 4473 H 428.539 4.89086 -0.843098 0
M  V30 4474 H 423.795 5.80419 -1.92155 0
M  V30 4475 H 427.969 6.42317 -2.69076 0
M  V30 4476 H 425.596 6.87888 -3.23596 0
M  V30 4477 N 427.171 -0.0066808 1.57599 0
M  V30 4478 C 428.401 -0.703066 1.94269 0
M  V30 4479 C 428.809 -1.68206 0.866222 0
M  V30 4480 O 428.152 -1.82966 -0.164087 0
M  V30 4481 C 428.214 -1.49616 3.26887 0
M  V30 4482 C 427.878 -0.679494 4.5192 0
M  V30 4483 C 428.875 0.0299508 5.19891 0
M  V30 4484 C 426.56 -0.627433 4.98366 0
M  V30 4485 C 428.554 0.780514 6.32603 0
M  V30 4486 C 426.241 0.126861 6.10968 0
M  V30 4487 C 427.239 0.829574 6.77943 0
M  V30 4488 O 426.927 1.57157 7.88389 0
M  V30 4489 H 426.659 -0.201217 0.645359 0
M  V30 4490 H 429.213 0.0385326 2.05364 0
M  V30 4491 H 427.443 -2.28209 3.12182 0
M  V30 4492 H 429.132 -2.07726 3.48719 0
M  V30 4493 H 429.898 -0.00115963 4.85 0
M  V30 4494 H 425.777 -1.16392 4.46065 0
M  V30 4495 H 429.321 1.32954 6.84813 0
M  V30 4496 H 425.218 0.159815 6.45302 0
M  V30 4497 H 425.986 1.48758 8.04868 0
M  V30 4498 N 428.649 -1.55105 -0.279332 0
M  V30 4499 C 429.581 -1.83952 -1.36727 0
M  V30 4500 C 430.594 -0.723642 -1.45833 0
M  V30 4501 O 431.783 -1.00141 -1.47763 0
M  V30 4502 C 428.883 -1.98183 -2.74912 0
M  V30 4503 C 428.056 -3.28787 -2.88475 0
M  V30 4504 C 427.115 -3.33162 -4.07295 0
M  V30 4505 O 426.141 -4.06576 -3.98353 0
M  V30 4506 N 427.343 -2.60109 -5.18964 0
M  V30 4507 H 430.108 -2.77853 -1.12328 0
M  V30 4508 H 427.669 -1.54945 -0.469442 0
M  V30 4509 H 429.661 -1.98488 -3.52682 0
M  V30 4510 H 428.231 -1.11177 -2.92162 0
M  V30 4511 H 427.451 -3.41075 -1.97641 0
M  V30 4512 H 428.739 -4.14933 -2.94463 0
M  V30 4513 H 428.137 -2.00136 -5.29115 0
M  V30 4514 H 426.694 -2.66143 -5.94988 0
M  V30 4515 N 430.127 0.543554 -1.4793 0
M  V30 4516 C 431.077 1.64527 -1.57844 0
M  V30 4517 C 432.061 1.54869 -0.436408 0
M  V30 4518 O 433.253 1.63119 -0.687101 0
M  V30 4519 C 430.382 3.03281 -1.6086 0
M  V30 4520 C 429.468 3.18093 -2.80495 0
M  V30 4521 N 429.859 3.02923 -4.05057 0
M  V30 4522 C 428.157 3.49121 -2.77543 0
M  V30 4523 C 428.858 3.20791 -4.85251 0
M  V30 4524 N 427.834 3.47749 -4.17818 0
M  V30 4525 H 431.636 1.51388 -2.5191 0
M  V30 4526 H 429.15 0.748671 -1.44113 0
M  V30 4527 H 431.147 3.82403 -1.66054 0
M  V30 4528 H 429.807 3.17521 -0.678996 0
M  V30 4529 H 430.818 2.79966 -4.35705 0
M  V30 4530 H 427.495 3.69804 -1.93781 0
M  V30 4531 H 428.885 3.13915 -5.9406 0
M  V30 4532 N 431.605 1.3629 0.791371 0
M  V30 4533 C 432.568 1.30309 1.88553 0
M  V30 4534 C 433.568 0.211204 1.59407 0
M  V30 4535 O 434.758 0.465865 1.67855 0
M  V30 4536 C 431.89 1.01956 3.25297 0
M  V30 4537 H 433.083 2.27614 1.95273 0
M  V30 4538 H 430.636 1.21035 0.988953 0
M  V30 4539 H 431.371 0.050998 3.2426 0
M  V30 4540 H 431.156 1.80968 3.4784 0
M  V30 4541 H 432.646 1.0037 4.05359 0
M  V30 4542 N 433.083 -1.0153 1.20538 0
M  V30 4543 C 434.013 -2.11972 0.979295 0
M  V30 4544 C 434.994 -1.6985 -0.0921787 0
M  V30 4545 O 436.179 -1.94089 0.0655932 0
M  V30 4546 C 433.309 -3.43201 0.531984 0
M  V30 4547 C 432.263 -3.9907 1.54685 0
M  V30 4548 C 431.589 -5.26082 0.956127 0
M  V30 4549 C 432.889 -4.32313 2.93092 0
M  V30 4550 H 434.583 -2.31143 1.90298 0
M  V30 4551 H 432.129 -1.11079 0.916372 0
M  V30 4552 H 434.082 -4.1985 0.361044 0
M  V30 4553 H 432.806 -3.23792 -0.427327 0
M  V30 4554 H 431.465 -3.2453 1.70517 0
M  V30 4555 H 431.113 -5.02999 -0.0111538 0
M  V30 4556 H 430.813 -5.64426 1.63393 0
M  V30 4557 H 432.337 -6.05386 0.796284 0
M  V30 4558 H 433.751 -4.99845 2.80763 0
M  V30 4559 H 432.148 -4.81774 3.57791 0
M  V30 4560 H 433.218 -3.41025 3.44717 0
M  V30 4561 N 434.561 -1.01147 -1.20859 0
M  V30 4562 C 435.791 -0.715872 -1.93801 0
M  V30 4563 C 436.199 0.726592 -1.74692 0
M  V30 4564 O 435.542 1.50397 -1.05482 0
M  V30 4565 C 435.604 -0.965269 -3.46299 0
M  V30 4566 C 435.268 -2.39584 -3.89164 0
M  V30 4567 C 436.265 -3.3764 -3.95342 0
M  V30 4568 C 433.95 -2.73522 -4.21297 0
M  V30 4569 C 435.944 -4.67698 -4.33056 0
M  V30 4570 C 433.631 -4.03794 -4.58687 0
M  V30 4571 C 434.629 -5.00693 -4.64538 0
M  V30 4572 O 434.317 -6.28635 -5.01072 0
M  V30 4573 H 434.049 -0.262524 -0.622942 0
M  V30 4574 H 436.603 -1.35413 -1.54443 0
M  V30 4575 H 434.833 -0.269847 -3.85757 0
M  V30 4576 H 436.522 -0.662051 -4.00464 0
M  V30 4577 H 437.288 -3.12757 -3.70686 0
M  V30 4578 H 433.167 -1.9879 -4.15937 0
M  V30 4579 H 436.711 -5.4333 -4.37537 0
M  V30 4580 H 432.608 -4.28459 -4.82797 0
M  V30 4581 H 433.376 -6.32847 -5.19083 0
M  V30 4582 N 436.039 1.36541 -0.78704 0
M  V30 4583 C 436.989 2.27459 -0.156957 0
M  V30 4584 C 437.973 1.46843 0.657709 0
M  V30 4585 O 439.165 1.69245 0.518173 0
M  V30 4586 C 436.294 3.35893 0.709278 0
M  V30 4587 C 435.38 4.23947 -0.114049 0
M  V30 4588 N 435.771 4.92145 -1.16736 0
M  V30 4589 C 434.069 4.4587 0.107497 0
M  V30 4590 C 434.77 5.57261 -1.66837 0
M  V30 4591 N 433.746 5.3473 -0.977992 0
M  V30 4592 H 437.548 2.77669 -0.963185 0
M  V30 4593 H 435.062 1.49839 -0.62627 0
M  V30 4594 H 437.059 3.99953 1.17656 0
M  V30 4595 H 435.719 2.87238 1.51408 0
M  V30 4596 H 436.73 4.94169 -1.54976 0
M  V30 4597 H 433.407 4.08056 0.882994 0
M  V30 4598 H 434.797 6.21728 -2.54762 0
M  V30 4599 N 437.518 0.538854 1.48102 0
M  V30 4600 C 438.765 0.0080018 2.02498 0
M  V30 4601 C 439.093 -1.33437 1.41509 0
M  V30 4602 O 438.348 -1.87709 0.553507 0
M  V30 4603 C 438.647 -0.153808 3.57069 0
M  V30 4604 C 438.313 1.11533 4.36888 0
M  V30 4605 C 436.975 1.46314 4.58417 0
M  V30 4606 C 439.327 1.95718 4.83057 0
M  V30 4607 C 436.655 2.6516 5.23361 0
M  V30 4608 C 439.007 3.13751 5.49312 0
M  V30 4609 C 437.671 3.48866 5.69077 0
M  V30 4610 H 436.941 0.00292807 0.740994 0
M  V30 4611 H 439.588 0.706668 1.77984 0
M  V30 4612 H 437.893 -0.935309 3.80472 0
M  V30 4613 H 439.59 -0.579607 3.96789 0
M  V30 4614 H 436.18 0.834484 4.20398 0
M  V30 4615 H 440.364 1.70158 4.66219 0
M  V30 4616 H 435.62 2.92558 5.36861 0
M  V30 4617 H 439.794 3.79282 5.84053 0
M  V30 4618 H 437.421 4.41054 6.19173 0
M  V30 4619 N 438.996 -1.55193 0.274407 0
M  V30 4620 C 440.407 -1.85358 -0.223488 0
M  V30 4621 C 440.758 -1.19642 -1.555 0
M  V30 4622 O 439.883 -0.484498 -2.10907 0
M  V30 4623 C 440.478 -3.36282 -0.412285 0
M  V30 4624 C 439.037 -3.66574 -0.854413 0
M  V30 4625 C 438.184 -2.7725 0.0527056 0
M  V30 4626 H 441.135 -1.50743 0.496215 0
M  V30 4627 H 441.156 -3.59349 -1.25094 0
M  V30 4628 H 440.668 -3.84083 0.556965 0
M  V30 4629 H 438.769 -3.24273 -1.83516 0
M  V30 4630 H 438.882 -4.74073 -0.692226 0
M  V30 4631 H 437.246 -2.50447 -0.463484 0
M  V30 4632 H 438.029 -3.27865 1.01783 0
M  V30 4633 N 440.474 -0.00167713 -1.576 0
M  V30 4634 C 441.699 0.69739 -1.95323 0
M  V30 4635 C 442.124 1.6642 -0.876706 0
M  V30 4636 O 441.482 1.80548 0.165007 0
M  V30 4637 C 441.53 1.40403 -3.32144 0
M  V30 4638 O 440.634 2.5185 -3.26566 0
M  V30 4639 H 439.975 0.185373 -0.637599 0
M  V30 4640 H 442.505 -0.0553665 -2.04525 0
M  V30 4641 H 442.515 1.76707 -3.67748 0
M  V30 4642 H 441.19 0.695167 -4.10049 0
M  V30 4643 H 439.767 2.17861 -3.0264 0
M  V30 4644 N 441.952 1.55251 0.271103 0
M  V30 4645 C 442.882 1.9127 1.33933 0
M  V30 4646 C 443.863 0.77478 1.5143 0
M  V30 4647 O 445.048 1.03307 1.64442 0
M  V30 4648 C 442.178 2.18627 2.69851 0
M  V30 4649 C 441.132 3.34442 2.67081 0
M  V30 4650 C 440.458 3.47284 4.06569 0
M  V30 4651 C 441.758 4.70784 2.26185 0
M  V30 4652 H 443.452 2.80744 1.04035 0
M  V30 4653 H 440.998 1.35077 0.499017 0
M  V30 4654 H 442.951 2.42413 3.44694 0
M  V30 4655 H 441.675 1.25955 3.01335 0
M  V30 4656 H 440.334 3.10627 1.94695 0
M  V30 4657 H 439.982 2.52074 4.35279 0
M  V30 4658 H 439.682 4.25152 4.0561 0
M  V30 4659 H 441.206 3.73363 4.83148 0
M  V30 4660 H 442.62 4.94102 2.90751 0
M  V30 4661 H 441.017 5.51582 2.36384 0
M  V30 4662 H 442.087 4.69478 1.21319 0
M  V30 4663 N 443.43 -0.535701 1.48216 0
M  V30 4664 C 444.393 -1.623 1.61838 0
M  V30 4665 C 445.393 -1.53087 0.492024 0
M  V30 4666 O 446.583 -1.5686 0.757668 0
M  V30 4667 C 443.715 -3.01907 1.58319 0
M  V30 4668 H 444.908 -1.51564 2.58783 0
M  V30 4669 H 442.461 -0.757317 1.36727 0
M  V30 4670 H 443.196 -3.18155 0.628299 0
M  V30 4671 H 442.981 -3.10003 2.40085 0
M  V30 4672 H 444.471 -3.80969 1.71033 0
M  V30 4673 N 444.908 -1.36708 -0.784132 0
M  V30 4674 C 446.185 -1.21776 -1.53069 0
M  V30 4675 C 446.565 0.193876 -2.10208 0
M  V30 4676 O 445.913 1.20012 -1.94446 0
M  V30 4677 C 446.123 -2.30395 -2.62143 0
M  V30 4678 C 447.471 -2.67325 -3.29882 0
M  V30 4679 O 448.495 -2.29478 -2.7243 0
M  V30 4680 O 447.354 -3.32485 -4.33724 0
M  V30 4681 H 444.448 -0.474459 -0.677361 0
M  V30 4682 H 446.994 -1.48454 -0.82216 0
M  V30 4683 H 445.766 -3.2498 -2.17953 0
M  V30 4684 H 445.389 -2.05112 -3.40609 0
M  V30 4685 N 446.386 1.0089 -1.21074 0
M  V30 4686 C 447.634 1.74262 -1.02358 0
M  V30 4687 C 447.955 1.89869 0.444393 0
M  V30 4688 O 447.225 1.44677 1.32081 0
M  V30 4689 H 445.805 0.645615 -0.375754 0
M  V30 4690 H 448.467 1.21596 -1.52317 0
M  V30 4691 H 447.563 2.74328 -1.4883 0
M  V30 4692 N 447.864 1.01787 1.20321 0
M  V30 4693 C 449.275 0.739307 1.71438 0
M  V30 4694 C 449.626 -0.742041 1.81627 0
M  V30 4695 O 448.751 -1.57903 1.47971 0
M  V30 4696 C 449.346 1.33538 3.11373 0
M  V30 4697 C 447.905 1.10566 3.59795 0
M  V30 4698 C 447.052 1.44028 2.36962 0
M  V30 4699 H 450.003 1.18718 1.05317 0
M  V30 4700 H 450.024 0.726611 3.73498 0
M  V30 4701 H 449.536 2.41352 3.03926 0
M  V30 4702 H 447.637 0.0452405 3.72573 0
M  V30 4703 H 447.75 1.78661 4.44542 0
M  V30 4704 H 446.114 0.85933 2.39766 0
M  V30 4705 H 446.897 2.52901 2.32155 0
M  V30 4706 N 449.342 -1.36122 0.79427 0
M  V30 4707 C 450.572 -2.03067 0.380437 0
M  V30 4708 C 450.98 -1.60018 -1.00949 0
M  V30 4709 O 450.323 -0.787425 -1.65968 0
M  V30 4710 C 450.385 -3.57587 0.37034 0
M  V30 4711 C 450.049 -4.23855 1.70867 0
M  V30 4712 C 451.046 -4.46404 2.66496 0
M  V30 4713 C 448.731 -4.61229 1.9893 0
M  V30 4714 C 450.725 -5.05412 3.88378 0
M  V30 4715 C 448.412 -5.19953 3.21079 0
M  V30 4716 C 449.41 -5.41985 4.15621 0
M  V30 4717 O 449.098 -5.99475 5.35616 0
M  V30 4718 H 448.83 -0.658168 0.154243 0
M  V30 4719 H 451.384 -1.7498 1.0757 0
M  V30 4720 H 449.614 -3.84814 -0.381444 0
M  V30 4721 H 451.303 -4.05895 -0.0194894 0
M  V30 4722 H 452.069 -4.17921 2.46103 0
M  V30 4723 H 447.948 -4.43402 1.26158 0
M  V30 4724 H 451.492 -5.22524 4.62185 0
M  V30 4725 H 447.389 -5.47862 3.41347 0
M  V30 4726 H 448.157 -6.17937 5.36745 0
M  V30 4727 N 450.82 -0.546701 -1.47814 0
M  V30 4728 C 452.236 -0.205717 -1.58269 0
M  V30 4729 C 452.436 1.29153 -1.54667 0
M  V30 4730 O 451.492 2.07098 -1.44453 0
M  V30 4731 C 452.805 -0.823065 -2.89216 0
M  V30 4732 C 454.353 -0.793328 -3.02779 0
M  V30 4733 C 454.828 -1.38955 -4.36412 0
M  V30 4734 N 456.319 -1.35227 -4.43021 0
M  V30 4735 C 457.054 -1.78333 -5.44963 0
M  V30 4736 N 456.55 -2.29246 -6.53772 0
M  V30 4737 N 458.343 -1.69467 -5.35945 0
M  V30 4738 H 450.494 -1.5196 -1.48398 0
M  V30 4739 H 452.757 -0.633078 -0.705632 0
M  V30 4740 H 452.463 -1.8749 -2.97558 0
M  V30 4741 H 452.337 -0.309915 -3.75925 0
M  V30 4742 H 454.724 0.249784 -2.94041 0
M  V30 4743 H 454.805 -1.34412 -2.17639 0
M  V30 4744 H 454.449 -2.43168 -4.45906 0
M  V30 4745 H 454.379 -0.814291 -5.20266 0
M  V30 4746 H 456.87 -0.979739 -3.64979 0
M  V30 4747 H 457.183 -2.60089 -7.27718 0
M  V30 4748 H 455.528 -2.3325 -6.5469 0
M  V30 4749 H 458.719 -1.29477 -4.49837 0
M  V30 4750 H 458.892 -2.03381 -6.15256 0
M  V30 4751 N 452.299 1.55045 -0.282633 0
M  V30 4752 C 453.524 2.04628 0.337977 0
M  V30 4753 C 453.949 1.15937 1.48123 0
M  V30 4754 O 453.307 0.159532 1.80597 0
M  V30 4755 C 453.355 3.51854 0.78936 0
M  V30 4756 O 452.459 3.66236 1.89592 0
M  V30 4757 H 451.8 0.660434 0.0687261 0
M  V30 4758 H 454.33 2.00261 -0.419124 0
M  V30 4759 H 454.34 3.93361 1.08311 0
M  V30 4760 H 453.015 4.15873 -0.0470419 0
M  V30 4761 H 451.592 3.36633 1.60413 0
M  V30 4762 N 453.777 0.010035 1.57597 0
M  V30 4763 C 454.707 -0.976857 2.12084 0
M  V30 4764 C 455.688 -1.35191 1.03235 0
M  V30 4765 O 456.873 -1.43389 1.3097 0
M  V30 4766 C 454.003 -2.26548 2.63236 0
M  V30 4767 C 452.957 -2.03175 3.76701 0
M  V30 4768 C 452.283 -3.38138 4.14206 0
M  V30 4769 C 453.583 -1.38625 5.03568 0
M  V30 4770 H 455.277 -0.523145 2.94794 0
M  V30 4771 H 452.823 -0.250195 1.4181 0
M  V30 4772 H 454.776 -2.95952 2.99984 0
M  V30 4773 H 453.5 -2.74051 1.77661 0
M  V30 4774 H 452.159 -1.36195 3.40362 0
M  V30 4775 H 451.807 -3.83363 3.25641 0
M  V30 4776 H 451.507 -3.23312 4.90656 0
M  V30 4777 H 453.031 -4.08841 4.53521 0
M  V30 4778 H 454.445 -1.98 5.38023 0
M  V30 4779 H 452.842 -1.34256 5.84889 0
M  V30 4780 H 453.912 -0.356722 4.83586 0
M  V30 4781 N 455.255 -1.55392 -0.262866 0
M  V30 4782 C 456.501 -1.77657 -0.990424 0
M  V30 4783 C 456.856 -0.576333 -1.83565 0
M  V30 4784 O 456.149 0.430795 -1.86694 0
M  V30 4785 C 456.343 -3.02889 -1.89718 0
M  V30 4786 C 456.172 -4.34979 -1.14121 0
M  V30 4787 C 454.942 -4.98052 -0.852768 0
M  V30 4788 C 457.14 -5.11597 -0.526625 0
M  V30 4789 N 455.122 -6.13859 -0.0710649 0
M  V30 4790 C 456.493 -6.19883 0.12042 0
M  V30 4791 C 458.548 -4.95992 -0.435485 0
M  V30 4792 C 457.251 -7.14262 0.849833 0
M  V30 4793 C 459.277 -5.90735 0.280359 0
M  V30 4794 C 458.639 -6.98417 0.916103 0
M  V30 4795 H 454.738 -0.702242 -0.344064 0
M  V30 4796 H 457.322 -1.92887 -0.265088 0
M  V30 4797 H 455.493 -2.89017 -2.59468 0
M  V30 4798 H 457.225 -3.13516 -2.5591 0
M  V30 4799 H 453.98 -4.5916 -1.16058 0
M  V30 4800 H 454.404 -6.76302 0.307413 0
M  V30 4801 H 459.046 -4.12832 -0.912671 0
M  V30 4802 H 456.764 -7.96935 1.33867 0
M  V30 4803 H 460.35 -5.80738 0.351332 0
M  V30 4804 H 459.23 -7.70467 1.46119 0
M  V30 4805 N 456.733 0.527833 -1.48498 0
M  V30 4806 C 457.665 1.6482 -1.5927 0
M  V30 4807 C 458.678 1.55659 -0.476869 0
M  V30 4808 O 459.867 1.62081 -0.747806 0
M  V30 4809 C 456.967 3.0348 -1.50842 0
M  V30 4810 C 456.14 3.381 -2.77502 0
M  V30 4811 C 455.199 4.5605 -2.62497 0
M  V30 4812 O 454.225 4.59165 -3.36387 0
M  V30 4813 N 455.427 5.54353 -1.72257 0
M  V30 4814 H 458.192 1.56015 -2.55889 0
M  V30 4815 H 455.753 0.715152 -1.45249 0
M  V30 4816 H 457.745 3.80264 -1.38496 0
M  V30 4817 H 456.315 3.06352 -0.621887 0
M  V30 4818 H 455.535 2.50473 -3.04396 0
M  V30 4819 H 456.823 3.58017 -3.61527 0
M  V30 4820 H 456.221 5.54617 -1.11431 0
M  V30 4821 H 454.778 6.30347 -1.65849 0
M  V30 4822 N 458.211 1.37122 0.776871 0
M  V30 4823 C 459.143 1.28342 1.89897 0
M  V30 4824 C 460.156 0.200277 1.61563 0
M  V30 4825 O 461.345 0.456012 1.72577 0
M  V30 4826 C 458.445 0.960427 3.25006 0
M  V30 4827 C 457.618 2.148 3.81025 0
M  V30 4828 C 456.677 1.79608 4.94598 0
M  V30 4829 O 455.703 2.51845 5.10454 0
M  V30 4830 N 456.905 0.737171 5.758 0
M  V30 4831 H 459.67 2.25027 1.97947 0
M  V30 4832 H 457.231 1.3068 0.955739 0
M  V30 4833 H 459.223 0.705942 3.98495 0
M  V30 4834 H 457.793 0.0823066 3.12492 0
M  V30 4835 H 457.013 2.56454 2.99374 0
M  V30 4836 H 458.301 2.9411 4.15183 0
M  V30 4837 H 457.699 0.137637 5.65533 0
M  V30 4838 H 456.256 0.542534 6.49538 0
M  V30 4839 N 459.689 -1.00246 1.21608 0
M  V30 4840 C 460.936 -1.74061 1.03485 0
M  V30 4841 C 461.264 -1.89658 -0.431308 0
M  V30 4842 O 460.519 -1.42976 -1.33627 0
M  V30 4843 C 460.818 -3.15448 1.68009 0
M  V30 4844 C 460.484 -3.19792 3.17874 0
M  V30 4845 C 459.146 -3.20685 3.58768 0
M  V30 4846 C 461.498 -3.16835 4.13842 0
M  V30 4847 C 458.826 -3.16309 4.94131 0
M  V30 4848 C 461.178 -3.14001 5.49169 0
M  V30 4849 C 459.842 -3.13204 5.89457 0
M  V30 4850 H 459.112 -0.636934 0.378677 0
M  V30 4851 H 461.759 -1.17473 1.51236 0
M  V30 4852 H 460.064 -3.75284 1.12557 0
M  V30 4853 H 461.761 -3.71285 1.51487 0
M  V30 4854 H 458.351 -3.19842 2.85305 0
M  V30 4855 H 462.535 -3.15303 3.83272 0
M  V30 4856 H 457.791 -3.14032 5.24589 0
M  V30 4857 H 461.965 -3.10667 6.23265 0
M  V30 4858 H 459.592 -3.09568 6.94314 0
M  V30 4859 N 461.167 -1.02423 -1.1978 0
M  V30 4860 C 462.578 -0.748389 -1.71044 0
M  V30 4861 C 462.929 0.732398 -1.82017 0
M  V30 4862 O 462.054 1.57116 -1.48807 0
M  V30 4863 C 462.649 -1.35187 -3.1066 0
M  V30 4864 C 461.208 -1.12472 -3.59203 0
M  V30 4865 C 460.355 -1.45283 -2.36195 0
M  V30 4866 H 463.306 -1.19275 -1.04686 0
M  V30 4867 H 463.327 -0.746408 -3.73107 0
M  V30 4868 H 462.839 -2.4296 -3.02642 0
M  V30 4869 H 460.94 -0.0649983 -3.72543 0
M  V30 4870 H 461.053 -1.81016 -4.43588 0
M  V30 4871 H 459.417 -0.872034 -2.39307 0
M  V30 4872 H 460.2 -2.54129 -2.30811 0
M  V30 4873 N 462.645 1.35699 -0.801477 0
M  V30 4874 C 463.891 1.99643 -0.389135 0
M  V30 4875 C 464.246 1.62447 1.03095 0
M  V30 4876 O 463.539 0.875064 1.7045 0
M  V30 4877 C 463.733 3.53828 -0.504041 0
M  V30 4878 C 463.562 4.06 -1.93375 0
M  V30 4879 C 462.332 4.35592 -2.561 0
M  V30 4880 C 464.53 4.24905 -2.89759 0
M  V30 4881 N 462.512 4.73663 -3.90534 0
M  V30 4882 C 463.883 4.65914 -4.09052 0
M  V30 4883 C 465.938 4.07101 -2.86658 0
M  V30 4884 C 464.641 4.90984 -5.25669 0
M  V30 4885 C 466.667 4.33324 -4.02472 0
M  V30 4886 C 466.029 4.74601 -5.20512 0
M  V30 4887 H 462.128 0.758552 -0.19006 0
M  V30 4888 H 464.712 1.64493 -1.04164 0
M  V30 4889 H 462.883 3.88219 0.118437 0
M  V30 4890 H 464.615 4.04645 -0.0667794 0
M  V30 4891 H 461.37 4.25728 -2.07492 0
M  V30 4892 H 461.794 4.96965 -4.59734 0
M  V30 4893 H 466.436 3.74335 -1.96552 0
M  V30 4894 H 464.154 5.22626 -6.1635 0
M  V30 4895 H 467.74 4.21107 -4.01447 0
M  V30 4896 H 466.62 4.94497 -6.08639 0
M  V30 4897 N 464.123 0.554532 1.47522 0
M  V30 4898 C 465.033 -0.197865 2.33764 0
M  V30 4899 C 466.049 -0.914576 1.48025 0
M  V30 4900 O 467.225 -0.884067 1.80959 0
M  V30 4901 C 464.29 -1.21628 3.24665 0
M  V30 4902 C 463.351 -0.507283 4.26292 0
M  V30 4903 C 462.584 -1.47718 5.1285 0
M  V30 4904 O 462.807 -2.7118 5.01814 0
M  V30 4905 O 461.741 -1.00313 5.93482 0
M  V30 4906 H 465.567 0.50949 2.99396 0
M  V30 4907 H 463.152 0.315176 1.46038 0
M  V30 4908 H 465.034 -1.80421 3.80823 0
M  V30 4909 H 463.709 -1.9056 2.61665 0
M  V30 4910 H 462.616 0.121778 3.73902 0
M  V30 4911 H 463.949 0.140544 4.91999 0
M  V30 4912 N 465.601 -1.54893 0.290851 0
M  V30 4913 C 466.549 -2.24579 -0.605576 0
M  V30 4914 C 467.543 -1.24824 -1.14522 0
M  V30 4915 O 468.749 -1.42706 -1.09704 0
M  V30 4916 H 465.124 -0.720946 -0.213872 0
M  V30 4917 H 467.095 -2.984 0.0048173 0
M  V30 4918 C 465.844 -2.99224 -1.77088 0
M  V30 4919 H 465.167 -3.75782 -1.36484 0
M  V30 4920 H 466.607 -3.51281 -2.3744 0
M  V30 4921 C 465.066 -2.05602 -2.66888 0
M  V30 4922 O 465.596 -1.61745 -3.67698 0
M  V30 4923 N 463.802 -1.71771 -2.34399 0
M  V30 4924 H 463.349 -2.07633 -1.52468 0
M  V30 4925 H 463.307 -1.09403 -2.94751 0
M  V30 4926 N 467.08 -0.0183926 -1.57589 0
M  V30 4927 C 468.496 0.337897 -1.55982 0
M  V30 4928 C 468.696 1.73604 -1.02294 0
M  V30 4929 O 467.752 2.43589 -0.664895 0
M  V30 4930 C 469.065 0.196305 -3.00059 0
M  V30 4931 C 470.613 0.269875 -3.11834 0
M  V30 4932 C 471.088 0.157197 -4.5773 0
M  V30 4933 N 472.579 0.214521 -4.62703 0
M  V30 4934 C 473.314 0.150955 -5.73201 0
M  V30 4935 N 472.81 0.0369212 -6.9279 0
M  V30 4936 N 474.603 0.204162 -5.61729 0
M  V30 4937 H 466.754 -0.93279 -1.90821 0
M  V30 4938 H 469.017 -0.359253 -0.877292 0
M  V30 4939 H 468.723 -0.766383 -3.43248 0
M  V30 4940 H 468.597 0.970908 -3.6449 0
M  V30 4941 H 470.984 1.22302 -2.68563 0
M  V30 4942 H 471.065 -0.534918 -2.50144 0
M  V30 4943 H 470.709 -0.792479 -5.01679 0
M  V30 4944 H 470.639 0.980717 -5.17387 0
M  V30 4945 H 473.13 0.303238 -3.76681 0
M  V30 4946 H 473.443 -0.00518321 -7.728 0
M  V30 4947 H 471.788 0.0022886 -6.95 0
M  V30 4948 H 474.979 0.291575 -4.67191 0
M  V30 4949 H 475.152 0.15116 -6.47824 0
M  V30 4950 N 468.558 1.5553 0.254621 0
M  V30 4951 C 469.468 1.92789 1.33677 0
M  V30 4952 C 470.484 0.827356 1.53071 0
M  V30 4953 O 471.66 1.12807 1.66843 0
M  V30 4954 C 468.725 2.20827 2.67275 0
M  V30 4955 C 467.786 3.4427 2.5647 0
M  V30 4956 C 467.019 3.70961 3.83697 0
M  V30 4957 O 467.242 2.99852 4.85227 0
M  V30 4958 O 466.176 4.64491 3.82794 0
M  V30 4959 H 470.002 2.84945 1.05071 0
M  V30 4960 H 467.587 1.42312 0.454723 0
M  V30 4961 H 469.469 2.40204 3.46237 0
M  V30 4962 H 468.144 1.31851 2.9563 0
M  V30 4963 H 467.051 3.30209 1.75821 0
M  V30 4964 H 468.384 4.33524 2.33062 0
M  V30 4965 N 470.036 -0.519951 1.48776 0
M  V30 4966 C 470.999 -1.60574 1.6355 0
M  V30 4967 C 471.999 -1.52557 0.508234 0
M  V30 4968 O 473.189 -1.56047 0.774262 0
M  V30 4969 C 470.321 -3.00211 1.61512 0
M  V30 4970 H 471.514 -1.4881 2.60376 0
M  V30 4971 H 469.067 -0.742772 1.37523 0
M  V30 4972 H 469.802 -3.17471 0.662009 0
M  V30 4973 H 469.587 -3.07439 2.43359 0
M  V30 4974 H 471.077 -3.79134 1.75064 0
M  V30 4975 N 471.514 -1.37532 -0.769588 0
M  V30 4976 C 472.444 -1.36172 -1.89682 0
M  V30 4977 C 473.425 -0.23001 -1.68538 0
M  V30 4978 O 474.61 -0.43069 -1.89364 0
M  V30 4979 C 471.74 -1.1701 -3.26995 0
M  V30 4980 C 470.694 -2.27216 -3.62708 0
M  V30 4981 C 470.02 -1.93174 -4.98586 0
M  V30 4982 C 471.32 -3.6941 -3.69234 0
M  V30 4983 H 473.014 -2.30499 -1.91078 0
M  V30 4984 H 470.56 -1.10953 -0.917902 0
M  V30 4985 H 472.513 -1.14688 -4.05493 0
M  V30 4986 H 471.237 -0.191395 -3.26039 0
M  V30 4987 H 469.896 -2.28697 -2.86519 0
M  V30 4988 H 469.544 -0.938281 -4.94171 0
M  V30 4989 H 469.244 -2.66973 -5.23449 0
M  V30 4990 H 470.768 -1.92443 -5.79481 0
M  V30 4991 H 472.182 -3.70047 -4.37879 0
M  V30 4992 H 470.579 -4.4228 -4.05597 0
M  V30 4993 H 471.649 -4.0288 -2.69844 0
M  V30 4994 N 472.992 0.995999 -1.22138 0
M  V30 4995 C 474.239 1.7351 -1.04406 0
M  V30 4996 C 474.567 1.89884 0.421244 0
M  V30 4997 O 473.822 1.43683 1.32867 0
M  V30 4998 C 474.121 3.14553 -1.6968 0
M  V30 4999 C 473.787 3.18102 -3.19565 0
M  V30 5000 C 472.449 3.18778 -3.60464 0
M  V30 5001 C 474.801 3.14636 -4.15516 0
M  V30 5002 C 472.129 3.13684 -4.95801 0
M  V30 5003 C 474.481 3.11084 -5.50826 0
M  V30 5004 C 473.145 3.10074 -5.91109 0
M  V30 5005 H 472.415 0.634916 -0.38205 0
M  V30 5006 H 475.062 1.1667 -1.51857 0
M  V30 5007 H 473.367 3.74682 -1.14546 0
M  V30 5008 H 475.064 3.70477 -1.53454 0
M  V30 5009 H 471.654 3.18324 -2.86998 0
M  V30 5010 H 475.838 3.13266 -3.84939 0
M  V30 5011 H 471.094 3.11245 -5.26247 0
M  V30 5012 H 475.268 3.07357 -6.24904 0
M  V30 5013 H 472.895 3.05882 -6.95946 0
M  V30 5014 N 474.47 1.03057 1.19235 0
M  V30 5015 C 475.698 0.747697 1.92917 0
M  V30 5016 C 476.113 -0.69372 1.75593 0
M  V30 5017 O 475.47 -1.47191 1.07894 0
M  V30 5018 C 475.521 1.09159 3.44625 0
M  V30 5019 O 475.242 2.47641 3.61394 0
M  V30 5020 C 476.743 0.831763 4.35427 0
M  V30 5021 H 473.963 0.273453 0.612751 0
M  V30 5022 H 476.507 1.37552 1.51327 0
M  V30 5023 H 474.662 0.508919 3.84043 0
M  V30 5024 H 475.076 2.60499 4.55237 0
M  V30 5025 H 476.55 1.12233 5.4047 0
M  V30 5026 H 477.027 -0.233769 4.38577 0
M  V30 5027 H 477.633 1.39725 4.01693 0
M  V30 5028 N 475.948 -1.35272 0.808662 0
M  V30 5029 C 476.911 -2.28082 0.226093 0
M  V30 5030 C 477.911 -1.49673 -0.587762 0
M  V30 5031 O 479.101 -1.69404 -0.405943 0
M  V30 5032 C 476.233 -3.33955 -0.684596 0
M  V30 5033 H 477.426 -2.81116 1.04469 0
M  V30 5034 H 474.979 -1.45162 0.579466 0
M  V30 5035 H 475.714 -2.86111 -1.5268 0
M  V30 5036 H 475.499 -3.91965 -0.102699 0
M  V30 5037 H 476.989 -4.03219 -1.08646 0
M  V30 5038 N 477.426 -0.562348 -1.47226 0
M  V30 5039 C 478.672 -0.0485293 -2.03342 0
M  V30 5040 C 479.027 1.28898 -1.42839 0
M  V30 5041 O 478.32 1.82719 -0.576563 0
M  V30 5042 C 478.514 0.0969817 -3.57268 0
M  V30 5043 C 478.343 -1.22487 -4.32697 0
M  V30 5044 C 477.113 -1.79357 -4.72397 0
M  V30 5045 C 479.311 -2.14332 -4.67511 0
M  V30 5046 N 477.293 -3.05493 -5.32491 0
M  V30 5047 C 478.664 -3.25049 -5.27961 0
M  V30 5048 C 480.719 -2.14263 -4.4944 0
M  V30 5049 C 479.422 -4.35804 -5.72248 0
M  V30 5050 C 481.448 -3.24033 -4.94729 0
M  V30 5051 C 480.81 -4.3347 -5.55233 0
M  V30 5052 H 476.909 -0.0600464 -0.779691 0
M  V30 5053 H 479.493 -0.750769 -1.79643 0
M  V30 5054 H 477.664 0.768353 -3.80724 0
M  V30 5055 H 479.396 0.613333 -4.00025 0
M  V30 5056 H 476.151 -1.33093 -4.54514 0
M  V30 5057 H 476.575 -3.698 -5.67077 0
M  V30 5058 H 481.217 -1.30935 -4.02015 0
M  V30 5059 H 478.935 -5.19888 -6.18661 0
M  V30 5060 H 482.521 -3.25073 -4.82513 0
M  V30 5061 H 481.401 -5.17008 -5.89638 0
M  V30 5062 N 478.904 1.54736 -0.299062 0
M  V30 5063 C 480.132 2.04512 0.313447 0
M  V30 5064 C 480.547 1.17643 1.47667 0
M  V30 5065 O 479.904 0.20164 1.81383 0
M  V30 5066 C 479.955 3.53171 0.771542 0
M  V30 5067 O 479.676 4.36736 -0.345379 0
M  V30 5068 C 481.177 4.18936 1.4494 0
M  V30 5069 H 478.397 0.667507 0.0683784 0
M  V30 5070 H 480.941 1.99752 -0.438129 0
M  V30 5071 H 479.096 3.58298 1.47314 0
M  V30 5072 H 479.51 5.24499 0.0109219 0
M  V30 5073 H 480.984 5.24482 1.72111 0
M  V30 5074 H 481.461 3.68554 2.38883 0
M  V30 5075 H 482.067 4.17879 0.791028 0
M  V30 5076 N 480.382 0.0267497 1.57577 0
M  V30 5077 C 481.314 -0.984594 2.06974 0
M  V30 5078 C 482.327 -1.29032 0.992705 0
M  V30 5079 O 483.516 -1.25539 1.26895 0
M  V30 5080 C 480.616 -2.31262 2.47732 0
M  V30 5081 C 479.789 -2.1924 3.78487 0
M  V30 5082 C 478.848 -3.34956 4.05821 0
M  V30 5083 O 477.874 -3.11948 4.76106 0
M  V30 5084 N 479.076 -4.58672 3.55809 0
M  V30 5085 H 481.841 -0.563143 2.94362 0
M  V30 5086 H 479.402 -0.160061 1.61107 0
M  V30 5087 H 481.394 -3.07496 2.63112 0
M  V30 5088 H 479.964 -2.65056 1.65723 0
M  V30 5089 H 479.184 -1.27747 3.72927 0
M  V30 5090 H 480.472 -2.08409 4.64158 0
M  V30 5091 H 479.87 -4.8026 2.98942 0
M  V30 5092 H 478.427 -5.32083 3.76472 0
M  V30 5093 N 481.861 -1.55662 -0.24637 0
M  V30 5094 C 482.824 -1.89558 -1.28842 0
M  V30 5095 C 483.824 -0.772082 -1.41052 0
M  V30 5096 O 485.014 -1.04007 -1.39743 0
M  V30 5097 C 482.146 -2.12449 -2.66605 0
M  V30 5098 H 483.339 -2.82735 -1.00004 0
M  V30 5099 H 480.892 -1.48562 -0.485684 0
M  V30 5100 H 481.627 -1.21742 -3.00582 0
M  V30 5101 H 481.412 -2.94273 -2.59125 0
M  V30 5102 H 482.902 -2.39854 -3.41847 0
M  V30 5103 N 483.339 0.512053 -1.4905 0
M  V30 5104 C 484.271 1.63121 -1.6101 0
M  V30 5105 C 485.284 1.55145 -0.493352 0
M  V30 5106 O 486.473 1.61278 -0.764955 0
M  V30 5107 C 483.573 3.01863 -1.54052 0
M  V30 5108 C 482.746 3.35138 -2.81072 0
M  V30 5109 C 481.805 4.5324 -2.67319 0
M  V30 5110 O 480.831 4.55571 -3.41238 0
M  V30 5111 N 482.033 5.52495 -1.78127 0
M  V30 5112 H 484.798 1.53292 -2.5753 0
M  V30 5113 H 482.359 0.699706 -1.45999 0
M  V30 5114 H 484.351 3.78774 -1.42521 0
M  V30 5115 H 482.921 3.05675 -0.654345 0
M  V30 5116 H 482.141 2.4723 -3.07036 0
M  V30 5117 H 483.429 3.54162 -3.65304 0
M  V30 5118 H 482.827 5.53403 -1.17308 0
M  V30 5119 H 481.384 6.28553 -1.72525 0
M  V30 5120 N 484.817 1.37938 0.762283 0
M  V30 5121 C 486.045 1.36883 1.55147 0
M  V30 5122 C 486.46 -0.0435348 1.8875 0
M  V30 5123 O 485.817 -1.00786 1.52146 0
M  V30 5124 C 485.868 2.21624 2.85596 0
M  V30 5125 O 485.589 3.57358 2.5343 0
M  V30 5126 C 487.09 2.28653 3.7978 0
M  V30 5127 H 484.31 0.468521 0.480343 0
M  V30 5128 H 486.854 1.81404 0.944079 0
M  V30 5129 H 485.009 1.80588 3.42734 0
M  V30 5130 H 485.423 4.01883 3.37032 0
M  V30 5131 H 486.897 2.9225 4.68288 0
M  V30 5132 H 487.374 1.29767 4.19592 0
M  V30 5133 H 487.98 2.70043 3.28568 0
M  V30 5134 N 486.295 -0.989507 1.22664 0
M  V30 5135 C 487.543 -1.72612 1.05117 0
M  V30 5136 C 487.864 -1.90552 -0.414131 0
M  V30 5137 O 487.134 -1.4676 -1.29762 0
M  V30 5138 H 485.714 -0.639555 0.385977 0
M  V30 5139 H 488.376 -1.19158 1.54232 0
M  V30 5140 H 487.472 -2.71926 1.53175 0
M  V30 5141 N 487.773 -1.03688 -1.18687 0
M  V30 5142 C 489.003 -0.756819 -1.92239 0
M  V30 5143 C 489.411 0.689374 -1.76194 0
M  V30 5144 O 488.754 1.48126 -1.08648 0
M  V30 5145 C 488.816 -1.03851 -3.44173 0
M  V30 5146 C 488.48 -2.47785 -3.83994 0
M  V30 5147 C 489.477 -3.4595 -3.88091 0
M  V30 5148 C 487.162 -2.82397 -4.154 0
M  V30 5149 C 489.156 -4.76779 -4.23038 0
M  V30 5150 C 486.843 -4.13433 -4.50018 0
M  V30 5151 C 487.841 -5.10434 -4.53813 0
M  V30 5152 O 487.529 -6.39122 -4.87625 0
M  V30 5153 H 487.261 -0.275678 -0.617234 0
M  V30 5154 H 489.815 -1.38658 -1.51536 0
M  V30 5155 H 488.045 -0.351612 -3.85098 0
M  V30 5156 H 489.734 -0.746846 -3.9897 0
M  V30 5157 H 490.5 -3.20549 -3.63969 0
M  V30 5158 H 486.379 -2.07568 -4.11627 0
M  V30 5159 H 489.923 -5.52488 -4.25914 0
M  V30 5160 H 485.82 -4.38604 -4.736 0
M  V30 5161 H 486.588 -6.43715 -5.05542 0
M  V30 5162 N 489.251 1.34841 -0.815825 0
M  V30 5163 C 490.662 1.80937 -0.46029 0
M  V30 5164 C 491.013 1.67685 1.01863 0
M  V30 5165 O 490.138 1.21277 1.79223 0
M  V30 5166 C 490.733 3.28509 -0.828708 0
M  V30 5167 C 489.292 3.72712 -0.525644 0
M  V30 5168 C 488.439 2.56676 -1.04941 0
M  V30 5169 H 491.39 1.22688 -1.00664 0
M  V30 5170 H 491.411 3.80279 -0.129757 0
M  V30 5171 H 490.923 3.38122 -1.90513 0
M  V30 5172 H 489.024 3.68642 0.541666 0
M  V30 5173 H 489.137 4.67119 -1.06474 0
M  V30 5174 H 487.501 2.50302 -0.471286 0
M  V30 5175 H 488.284 2.69063 -2.13214 0
M  V30 5176 N 490.729 0.570148 1.46925 0
M  V30 5177 C 491.978 0.0487352 2.01641 0
M  V30 5178 C 492.291 -1.31433 1.44861 0
M  V30 5179 O 493.497 -1.92638 1.91318 0
M  V30 5180 C 491.953 0.0365817 3.59881 0
M  V30 5181 C 491.561 1.39719 4.25655 0
M  V30 5182 C 493.305 -0.431545 4.22301 0
M  V30 5183 C 491.212 1.34345 5.75939 0
M  V30 5184 H 490.142 0.0144492 0.753862 0
M  V30 5185 H 492.793 0.719928 1.68788 0
M  V30 5186 H 491.175 -0.700522 3.89755 0
M  V30 5187 H 492.349 2.15303 4.07408 0
M  V30 5188 H 490.664 1.80431 3.75278 0
M  V30 5189 H 493.261 -0.490354 5.32447 0
M  V30 5190 H 493.604 -1.44638 3.90366 0
M  V30 5191 H 494.137 0.251102 3.97007 0
M  V30 5192 H 490.876 2.33469 6.12513 0
M  V30 5193 H 490.396 0.629615 5.96486 0
M  V30 5194 H 492.075 1.051 6.38407 0
M  V30 5195 N 492.207 -1.54576 0.307264 0
M  V30 5196 C 493.453 -2.0056 -0.300612 0
M  V30 5197 C 493.786 -1.1953 -1.53057 0
M  V30 5198 O 493.061 -0.27337 -1.92569 0
M  V30 5199 C 493.344 -3.54167 -0.650987 0
M  V30 5200 C 493.197 -4.45933 0.588539 0
M  V30 5201 C 494.516 -4.14645 -1.47506 0
M  V30 5202 H 491.635 -0.729075 -0.107788 0
M  V30 5203 H 494.277 -1.85286 0.420606 0
M  V30 5204 H 492.427 -3.67313 -1.26544 0
M  V30 5205 H 494.099 -4.44683 1.22697 0
M  V30 5206 H 492.342 -4.16274 1.22058 0
M  V30 5207 H 493.013 -5.51189 0.299153 0
M  V30 5208 H 495.489 -4.04973 -0.955821 0
M  V30 5209 H 494.365 -5.22269 -1.68899 0
M  V30 5210 H 494.626 -3.66921 -2.4662 0
M  V30 5211 N 493.685 -0.035106 -1.57561 0
M  V30 5212 C 494.962 0.681212 -1.83354 0
M  V30 5213 C 495.342 1.89986 -0.920252 0
M  V30 5214 O 494.69 2.28489 0.0226815 0
M  V30 5215 C 494.9 1.05376 -3.32712 0
M  V30 5216 C 496.248 1.44286 -3.99333 0
M  V30 5217 O 497.272 1.14656 -3.37242 0
M  V30 5218 O 496.131 1.99518 -5.08778 0
M  V30 5219 H 493.225 0.334741 -0.756226 0
M  V30 5220 H 495.771 -0.0632448 -1.69582 0
M  V30 5221 H 494.543 0.186668 -3.90854 0
M  V30 5222 H 494.166 1.85619 -3.51613 0
M  V30 5223 N 495.163 1.55791 0.238111 0
M  V30 5224 C 496.126 1.90239 1.27835 0
M  V30 5225 C 497.126 0.779552 1.4064 0
M  V30 5226 O 498.316 1.04747 1.3919 0
M  V30 5227 C 495.448 2.13859 2.65475 0
M  V30 5228 H 496.641 2.83262 0.985034 0
M  V30 5229 H 494.194 1.48818 0.477799 0
M  V30 5230 H 494.929 1.23334 2.99932 0
M  V30 5231 H 494.714 2.95643 2.57561 0
M  V30 5232 H 496.204 2.41664 3.40571 0
M  V30 5233 N 496.642 -0.504142 1.49319 0
M  V30 5234 C 497.605 -1.5883 1.65244 0
M  V30 5235 C 498.605 -1.52009 0.524386 0
M  V30 5236 O 499.795 -1.55218 0.79077 0
M  V30 5237 C 496.927 -2.98481 1.64687 0
M  V30 5238 H 498.12 -1.4604 2.61939 0
M  V30 5239 H 495.673 -0.728144 1.38303 0
M  V30 5240 H 496.408 -3.16751 0.695644 0
M  V30 5241 H 496.193 -3.0484 2.46607 0
M  V30 5242 H 497.683 -3.77256 1.79075 0
M  V30 5243 N 498.12 -1.38341 -0.754957 0
M  V30 5244 C 499.053 -1.29837 -1.87663 0
M  V30 5245 C 500.031 -0.175659 -1.61648 0
M  V30 5246 O 501.215 -0.352745 -1.8517 0
M  V30 5247 C 498.342 -1.01141 -3.23246 0
M  V30 5248 C 497.388 -2.15331 -3.6815 0
M  V30 5249 S 498.221 -3.77459 -3.79849 0
M  V30 5250 C 499.377 -3.50948 -5.18253 0
M  V30 5251 H 499.61 -2.24771 -1.9459 0
M  V30 5252 H 497.143 -1.24161 -0.917796 0
M  V30 5253 H 499.101 -0.852687 -4.01546 0
M  V30 5254 H 497.762 -0.0792784 -3.14 0
M  V30 5255 H 496.955 -1.90795 -4.6649 0
M  V30 5256 H 496.557 -2.27304 -2.97 0
M  V30 5257 H 498.849 -3.06977 -6.03963 0
M  V30 5258 H 499.792 -4.48677 -5.47809 0
M  V30 5259 H 500.2 -2.85492 -4.86985 0
M  V30 5260 N 499.598 0.982988 -1.23187 0
M  V30 5261 C 501.014 1.2487 -0.993967 0
M  V30 5262 C 501.214 1.99155 0.306498 0
M  V30 5263 O 500.27 2.30688 1.0266 0
M  V30 5264 C 501.583 2.05078 -2.19917 0
M  V30 5265 C 503.131 2.18227 -2.2438 0
M  V30 5266 C 503.606 3.01825 -3.44479 0
M  V30 5267 N 505.097 3.09411 -3.44702 0
M  V30 5268 C 505.832 3.74412 -4.34285 0
M  V30 5269 N 505.328 4.41259 -5.341 0
M  V30 5270 N 507.121 3.71273 -4.22035 0
M  V30 5271 H 499.272 0.485253 -2.06783 0
M  V30 5272 H 501.535 0.276979 -0.906635 0
M  V30 5273 H 501.241 1.57867 -3.14279 0
M  V30 5274 H 501.115 3.05829 -2.2079 0
M  V30 5275 H 503.502 2.64648 -1.30559 0
M  V30 5276 H 503.583 1.16873 -2.2754 0
M  V30 5277 H 503.227 2.56102 -4.38605 0
M  V30 5278 H 503.157 4.03342 -3.38559 0
M  V30 5279 H 505.648 2.61845 -2.7248 0
M  V30 5280 H 505.961 4.88629 -5.98717 0
M  V30 5281 H 504.306 4.39975 -5.38002 0
M  V30 5282 H 507.497 3.18217 -3.43301 0
M  V30 5283 H 507.67 4.21649 -4.92053 0
M  V30 5284 N 501.076 1.04316 1.18135 0
M  V30 5285 C 502.008 0.594444 2.21357 0
M  V30 5286 C 503.021 -0.337215 1.59269 0
M  V30 5287 O 504.21 -0.131337 1.78016 0
M  V30 5288 C 501.31 -0.151251 3.38562 0
M  V30 5289 C 500.483 0.788907 4.30227 0
M  V30 5290 C 499.542 0.0860572 5.2613 0
M  V30 5291 O 498.568 0.717302 5.64662 0
M  V30 5292 N 499.77 -1.17969 5.68387 0
M  V30 5293 H 502.535 1.48227 2.60478 0
M  V30 5294 H 500.096 0.92396 1.32946 0
M  V30 5295 H 502.088 -0.631352 3.99745 0
M  V30 5296 H 500.658 -0.940639 2.98112 0
M  V30 5297 H 499.878 1.44882 3.6661 0
M  V30 5298 H 501.166 1.42738 4.88368 0
M  V30 5299 H 500.564 -1.71302 5.3914 0
M  V30 5300 H 499.121 -1.60402 6.31755 0
M  V30 5301 N 502.554 -1.34406 0.822964 0
M  V30 5302 C 503.484 -2.32052 0.259608 0
M  V30 5303 C 504.465 -1.58243 -0.623961 0
M  V30 5304 O 505.65 -1.86224 -0.55083 0
M  V30 5305 C 502.78 -3.42434 -0.579314 0
M  V30 5306 C 501.734 -4.27499 0.20712 0
M  V30 5307 C 501.06 -5.29349 -0.754547 0
M  V30 5308 C 502.36 -5.02758 1.41533 0
M  V30 5309 H 504.054 -2.79418 1.07545 0
M  V30 5310 H 501.6 -1.34338 0.518593 0
M  V30 5311 H 503.553 -4.0976 -0.983612 0
M  V30 5312 H 502.277 -2.93717 -1.4282 0
M  V30 5313 H 500.936 -3.61776 0.592787 0
M  V30 5314 H 500.584 -4.76895 -1.59939 0
M  V30 5315 H 500.284 -5.8714 -0.232561 0
M  V30 5316 H 501.808 -5.99544 -1.1567 0
M  V30 5317 H 503.222 -5.62938 1.08504 0
M  V30 5318 H 501.619 -5.70123 1.87296 0
M  V30 5319 H 502.689 -4.32451 2.1935 0
M  V30 5320 N 504.032 -0.577932 -1.46621 0
M  V30 5321 C 505.26 -0.0671642 -2.06791 0
M  V30 5322 C 505.675 1.23571 -1.42743 0
M  V30 5323 O 505.032 1.74602 -0.531062 0
M  V30 5324 C 505.083 0.110357 -3.61332 0
M  V30 5325 O 504.804 -1.14095 -4.22982 0
M  V30 5326 C 506.305 0.656025 -4.38419 0
M  V30 5327 H 503.525 -0.0552732 -0.66872 0
M  V30 5328 H 506.069 -0.797242 -1.8832 0
M  V30 5329 H 504.224 0.790637 -3.79246 0
M  V30 5330 H 504.638 -0.951742 -5.15793 0
M  V30 5331 H 506.112 0.729438 -5.47159 0
M  V30 5332 H 506.589 1.67195 -4.06131 0
M  V30 5333 H 507.195 0.0107692 -4.25299 0
M  V30 5334 N 505.51 1.54411 -0.315457 0
M  V30 5335 C 506.42 2.27737 0.56329 0
M  V30 5336 C 507.436 1.31787 1.13614 0
M  V30 5337 O 508.612 1.64791 1.15784 0
M  V30 5338 C 505.677 3.01478 1.71207 0
M  V30 5339 C 504.738 4.12997 1.17185 0
M  V30 5340 C 503.971 4.83212 2.26588 0
M  V30 5341 O 504.194 4.52884 3.46775 0
M  V30 5342 O 503.128 5.70299 1.92463 0
M  V30 5343 H 506.954 3.03683 -0.0319614 0
M  V30 5344 H 504.539 1.49178 -0.0814188 0
M  V30 5345 H 506.421 3.47683 2.38106 0
M  V30 5346 H 505.096 2.28414 2.29366 0
M  V30 5347 H 504.003 3.71159 0.468174 0
M  V30 5348 H 505.336 4.8808 0.635501 0
M  V30 5349 N 506.988 0.0434614 1.5754 0
M  V30 5350 C 508.216 -0.641835 1.96693 0
M  V30 5351 C 508.631 -1.64832 0.920652 0
M  V30 5352 O 507.988 -1.82247 -0.095993 0
M  V30 5353 C 508.039 -1.33557 3.35924 0
M  V30 5354 O 507.76 -0.369403 4.3654 0
M  V30 5355 C 509.261 -2.11135 3.89791 0
M  V30 5356 H 506.481 -0.176013 0.647503 0
M  V30 5357 H 509.025 0.107478 2.04217 0
M  V30 5358 H 507.18 -2.03617 3.29574 0
M  V30 5359 H 507.594 -0.863674 5.1734 0
M  V30 5360 H 509.068 -2.55107 4.89514 0
M  V30 5361 H 509.545 -2.95634 3.24803 0
M  V30 5362 H 510.151 -1.46002 3.99454 0
M  V30 5363 N 508.466 -1.55915 -0.229846 0
M  V30 5364 C 509.714 -1.7819 -0.953565 0
M  V30 5365 C 510.035 -0.610504 -1.85197 0
M  V30 5366 O 509.305 0.372988 -1.92316 0
M  V30 5367 H 507.885 -0.657208 -0.355087 0
M  V30 5368 H 510.547 -1.9337 -0.243693 0
M  V30 5369 H 509.643 -2.70011 -1.56527 0
M  V30 5370 N 509.944 0.496216 -1.49584 0
M  V30 5371 C 511.19 1.24918 -1.60521 0
M  V30 5372 C 511.545 1.90197 -0.290352 0
M  V30 5373 O 510.838 1.77967 0.709813 0
M  V30 5374 C 511.032 2.3359 -2.705 0
M  V30 5375 C 510.861 1.78969 -4.12553 0
M  V30 5376 C 509.631 1.60057 -4.79281 0
M  V30 5377 C 511.829 1.29883 -4.97629 0
M  V30 5378 N 509.811 1.00415 -6.05632 0
M  V30 5379 C 511.182 0.824057 -6.14499 0
M  V30 5380 C 513.237 1.18501 -4.83593 0
M  V30 5381 C 511.94 0.246721 -7.18877 0
M  V30 5382 C 513.966 0.621634 -5.88124 0
M  V30 5383 C 513.328 0.157116 -7.04225 0
M  V30 5384 H 509.427 0.446896 -0.641722 0
M  V30 5385 H 512.011 0.555456 -1.86609 0
M  V30 5386 H 510.182 3.00418 -2.46178 0
M  V30 5387 H 511.914 3.00628 -2.70933 0
M  V30 5388 H 508.669 1.84562 -4.36158 0
M  V30 5389 H 509.093 0.725074 -6.73106 0
M  V30 5390 H 513.735 1.53012 -3.94141 0
M  V30 5391 H 511.453 -0.110651 -8.08024 0
M  V30 5392 H 515.039 0.536279 -5.79323 0
M  V30 5393 H 513.919 -0.272009 -7.83728 0
M  V30 5394 N 511.423 1.38739 0.74761 0
M  V30 5395 C 512.356 1.3083 1.86972 0
M  V30 5396 C 513.334 0.184229 1.61553 0
M  V30 5397 O 514.518 0.36256 1.8498 0
M  V30 5398 C 511.645 1.02854 3.22705 0
M  V30 5399 C 510.691 2.17281 3.67003 0
M  V30 5400 S 511.524 3.79468 3.77842 0
M  V30 5401 C 512.68 3.53692 5.16385 0
M  V30 5402 H 512.913 2.258 1.93395 0
M  V30 5403 H 510.446 1.24646 0.911199 0
M  V30 5404 H 512.404 0.87397 4.01089 0
M  V30 5405 H 511.065 0.0959295 3.13953 0
M  V30 5406 H 510.258 1.93267 4.65472 0
M  V30 5407 H 509.86 2.28876 2.9579 0
M  V30 5408 H 512.152 3.10176 6.02327 0
M  V30 5409 H 513.095 4.51576 5.45422 0
M  V30 5410 H 513.503 2.8807 4.85464 0
M  V30 5411 N 512.901 -0.976442 1.23707 0
M  V30 5412 C 513.851 -2.0544 0.988851 0
M  V30 5413 C 514.835 -1.60762 -0.0665901 0
M  V30 5414 O 516.027 -1.76396 0.14604 0
M  V30 5415 C 513.156 -3.38258 0.586223 0
M  V30 5416 C 512.242 -3.89523 1.67728 0
M  V30 5417 N 512.633 -4.13823 2.90834 0
M  V30 5418 C 510.931 -4.18097 1.55277 0
M  V30 5419 C 511.632 -4.55731 3.61502 0
M  V30 5420 N 510.608 -4.60394 2.8903 0
M  V30 5421 H 514.41 -2.22191 1.92376 0
M  V30 5422 H 511.924 -1.15954 1.13704 0
M  V30 5423 H 513.921 -4.15075 0.389658 0
M  V30 5424 H 512.581 -3.22898 -0.341594 0
M  V30 5425 H 513.592 -4.01529 3.271 0
M  V30 5426 H 510.269 -4.11719 0.692351 0
M  V30 5427 H 511.659 -4.83018 4.67059 0
M  V30 5428 N 514.379 -1.04941 -1.1758 0
M  V30 5429 C 515.327 -0.64204 -2.23563 0
M  V30 5430 C 516.321 0.335453 -1.66045 0
M  V30 5431 O 517.527 0.20179 -1.78865 0
M  V30 5432 H 513.902 -0.18944 -0.727748 0
M  V30 5433 H 515.873 -1.54609 -2.55223 0
M  V30 5434 C 514.622 -0.0301051 -3.47687 0
M  V30 5435 H 513.945 -0.773339 -3.92249 0
M  V30 5436 H 515.385 0.217592 -4.23441 0
M  V30 5437 C 513.844 1.2225 -3.13937 0
M  V30 5438 O 514.374 2.3122 -3.28482 0
M  V30 5439 N 512.58 1.11917 -2.68185 0
M  V30 5440 H 512.127 0.232403 -2.5655 0
M  V30 5441 H 512.085 1.95814 -2.45976 0
M  V30 5442 N 515.857 1.33968 -0.830081 0
M  V30 5443 C 517.273 1.51003 -0.516742 0
M  V30 5444 C 517.473 1.77286 0.957694 0
M  V30 5445 O 516.529 1.82797 1.74188 0
M  V30 5446 C 517.842 2.67036 -1.38247 0
M  V30 5447 C 519.39 2.80919 -1.38034 0
M  V30 5448 C 519.865 4.00004 -2.23071 0
M  V30 5449 N 521.356 4.07224 -2.20733 0
M  V30 5450 C 522.091 4.98541 -2.83275 0
M  V30 5451 N 521.587 5.95033 -3.54835 0
M  V30 5452 N 523.38 4.91469 -2.72791 0
M  V30 5453 H 515.531 1.15168 -1.78466 0
M  V30 5454 H 517.794 0.565443 -0.760906 0
M  V30 5455 H 517.5 2.54266 -2.42985 0
M  V30 5456 H 517.374 3.62226 -1.05225 0
M  V30 5457 H 519.761 2.93127 -0.340713 0
M  V30 5458 H 519.842 1.86517 -1.75057 0
M  V30 5459 H 519.486 3.88557 -3.27087 0
M  V30 5460 H 519.416 4.93634 -1.83394 0
M  V30 5461 H 521.907 3.38162 -1.68687 0
M  V30 5462 H 522.22 6.61357 -3.99784 0
M  V30 5463 H 520.565 5.95135 -3.58942 0
M  V30 5464 H 523.756 4.15048 -2.16456 0
M  V30 5465 H 523.929 5.62439 -3.21818 0
M  V30 5466 N 517.335 0.585699 1.46312 0
M  V30 5467 C 518.575 0.0751432 2.04262 0
M  V30 5468 C 518.939 -1.26201 1.44697 0
M  V30 5469 O 520.14 -1.86198 1.93865 0
M  V30 5470 C 518.411 0.013478 3.57397 0
M  V30 5471 S 519.97 -0.439068 4.36598 0
M  V30 5472 H 516.788 0.0389228 0.709934 0
M  V30 5473 H 519.39 0.778871 1.79315 0
M  V30 5474 H 518.094 0.990558 3.98266 0
M  V30 5475 H 517.625 -0.712927 3.86886 0
M  V30 5476 H 519.64 -1.6932 4.66417 0
M  V30 5477 N 518.813 -1.54241 0.323641 0
M  V30 5478 C 520.059 -2.01572 -0.272089 0
M  V30 5479 C 520.414 -1.20774 -1.49771 0
M  V30 5480 O 519.707 -0.281821 -1.89516 0
M  V30 5481 C 519.901 -3.5129 -0.658031 0
M  V30 5482 C 519.73 -4.46582 0.528645 0
M  V30 5483 C 518.5 -4.94737 1.02777 0
M  V30 5484 C 520.698 -4.95416 1.38086 0
M  V30 5485 N 518.68 -5.73933 2.17885 0
M  V30 5486 C 520.051 -5.72537 2.3791 0
M  V30 5487 C 522.106 -4.77559 1.40861 0
M  V30 5488 C 520.809 -6.33702 3.40314 0
M  V30 5489 C 522.835 -5.39559 2.42136 0
M  V30 5490 C 522.197 -6.16532 3.40688 0
M  V30 5491 H 518.296 -0.779425 -0.0634072 0
M  V30 5492 H 520.88 -1.8922 0.458697 0
M  V30 5493 H 519.051 -3.63888 -1.35795 0
M  V30 5494 H 520.783 -3.85388 -1.23524 0
M  V30 5495 H 517.538 -4.69796 0.599046 0
M  V30 5496 H 517.962 -6.18209 2.75947 0
M  V30 5497 H 522.604 -4.17611 0.660352 0
M  V30 5498 H 520.322 -6.9277 4.16047 0
M  V30 5499 H 523.908 -5.27659 2.45086 0
M  V30 5500 H 522.788 -6.63655 4.1777 0
M  V30 5501 N 520.291 -0.0518155 -1.57515 0
M  V30 5502 C 521.224 0.957758 -2.07129 0
M  V30 5503 C 522.202 1.30355 -0.971927 0
M  V30 5504 O 523.386 1.41631 -1.2439 0
M  V30 5505 C 520.513 2.27157 -2.51232 0
M  V30 5506 C 519.559 2.07879 -3.72409 0
M  V30 5507 S 520.392 1.35656 -5.18033 0
M  V30 5508 C 521.548 2.68359 -5.65451 0
M  V30 5509 H 521.781 0.53552 -2.92437 0
M  V30 5510 H 519.314 0.160465 -1.53564 0
M  V30 5511 H 521.272 3.02676 -2.77304 0
M  V30 5512 H 519.933 2.66509 -1.66228 0
M  V30 5513 H 519.126 3.05061 -4.01191 0
M  V30 5514 H 518.728 1.40499 -3.46606 0
M  V30 5515 H 521.02 3.64526 -5.71076 0
M  V30 5516 H 521.963 2.44213 -6.64654 0
M  V30 5517 H 522.371 2.74647 -4.93183 0
M  V30 5518 N 521.769 1.56035 0.221574 0
M  V30 5519 C 523.018 1.78245 0.944016 0
M  V30 5520 C 523.331 0.620371 1.85501 0
M  V30 5521 O 524.537 0.726103 2.6161 0
M  V30 5522 C 522.993 3.15659 1.7288 0
M  V30 5523 C 522.601 4.39591 0.863942 0
M  V30 5524 C 524.345 3.47195 2.44246 0
M  V30 5525 C 522.252 5.6803 1.64607 0
M  V30 5526 H 521.182 0.664547 0.356222 0
M  V30 5527 H 523.833 1.8243 0.197904 0
M  V30 5528 H 522.215 3.0565 2.51781 0
M  V30 5529 H 523.389 4.60655 0.115464 0
M  V30 5530 H 521.704 4.15572 0.262407 0
M  V30 5531 H 524.301 4.40381 3.03263 0
M  V30 5532 H 524.644 2.69693 3.1713 0
M  V30 5533 H 525.177 3.58533 1.72334 0
M  V30 5534 H 521.916 6.48425 0.960507 0
M  V30 5535 H 521.436 5.51027 2.36917 0
M  V30 5536 H 523.115 6.08203 2.20675 0
M  V30 5537 N 523.247 -0.488276 1.49845 0
M  V30 5538 C 524.493 -1.24341 1.6021 0
M  V30 5539 C 524.826 -1.91967 0.293651 0
M  V30 5540 O 524.101 -1.81323 -0.703718 0
M  V30 5541 C 524.384 -2.3005 2.77036 0
M  V30 5542 C 524.237 -1.66842 4.17713 0
M  V30 5543 C 525.556 -3.31509 2.89464 0
M  V30 5544 H 522.675 -0.450704 0.583125 0
M  V30 5545 H 525.317 -0.539673 1.82174 0
M  V30 5546 H 523.467 -2.90071 2.58439 0
M  V30 5547 H 525.139 -1.1055 4.47858 0
M  V30 5548 H 523.382 -0.972079 4.22768 0
M  V30 5549 H 524.053 -2.43576 4.95353 0
M  V30 5550 H 526.529 -2.81493 3.06433 0
M  V30 5551 H 525.405 -4.02822 3.72861 0
M  V30 5552 H 525.666 -3.94603 1.99351 0
M  V30 5553 N 524.725 -1.39134 -0.740242 0
M  V30 5554 C 525.688 -1.37217 -1.83587 0
M  V30 5555 C 526.688 -0.270221 -1.58513 0
M  V30 5556 O 527.878 -0.527843 -1.6601 0
M  V30 5557 C 525.01 -1.13959 -3.21288 0
M  V30 5558 H 526.203 -2.34705 -1.86691 0
M  V30 5559 H 523.756 -1.24622 -0.94335 0
M  V30 5560 H 524.491 -0.17131 -3.23847 0
M  V30 5561 H 524.276 -1.93754 -3.40884 0
M  V30 5562 H 525.766 -1.15346 -4.01354 0
M  V30 5563 N 526.204 0.969867 -1.24223 0
M  V30 5564 C 527.429 1.75289 -1.10853 0
M  V30 5565 C 527.854 1.85091 0.335079 0
M  V30 5566 O 527.212 1.32024 1.24255 0
M  V30 5567 C 527.26 3.15255 -1.75062 0
M  V30 5568 O 526.364 3.99589 -1.01992 0
M  V30 5569 H 525.705 0.538904 -0.387915 0
M  V30 5570 H 528.235 1.21675 -1.64488 0
M  V30 5571 H 528.245 3.65787 -1.80731 0
M  V30 5572 H 526.92 3.07436 -2.801 0
M  V30 5573 H 525.497 3.58077 -1.04094 0
M  V30 5574 N 527.682 1.05563 1.17022 0
M  V30 5575 C 528.929 0.767937 1.87374 0
M  V30 5576 C 529.257 -0.705224 1.81265 0
M  V30 5577 O 528.512 -1.5318 1.21796 0
M  V30 5578 C 528.811 1.19849 3.36706 0
M  V30 5579 C 528.477 2.6745 3.63017 0
M  V30 5580 C 527.139 3.0777 3.69907 0
M  V30 5581 C 529.491 3.62811 3.74189 0
M  V30 5582 C 526.819 4.42307 3.85463 0
M  V30 5583 C 529.171 4.97087 3.91264 0
M  V30 5584 C 527.835 5.37055 3.96394 0
M  V30 5585 H 527.105 0.281008 0.68565 0
M  V30 5586 H 529.752 1.32339 1.38415 0
M  V30 5587 H 528.057 0.562096 3.87747 0
M  V30 5588 H 529.754 0.953038 3.8951 0
M  V30 5589 H 526.344 2.35228 3.58282 0
M  V30 5590 H 530.528 3.32798 3.68183 0
M  V30 5591 H 525.784 4.72769 3.87684 0
M  V30 5592 H 529.958 5.70869 3.9885 0
M  V30 5593 H 527.585 6.41308 4.082 0
M  V30 5594 N 529.16 -1.33526 0.837174 0
M  V30 5595 C 530.09 -2.31764 0.284206 0
M  V30 5596 C 531.071 -1.58896 -0.607142 0
M  V30 5597 O 532.256 -1.86798 -0.531047 0
M  V30 5598 C 529.386 -3.43029 -0.542962 0
M  V30 5599 C 528.34 -4.27255 0.252451 0
M  V30 5600 C 527.666 -5.3012 -0.69836 0
M  V30 5601 C 528.966 -5.01229 1.46858 0
M  V30 5602 H 530.66 -2.78262 1.10502 0
M  V30 5603 H 528.206 -1.3378 0.532812 0
M  V30 5604 H 530.159 -4.1078 -0.940096 0
M  V30 5605 H 528.883 -2.95216 -1.39697 0
M  V30 5606 H 527.542 -3.61127 0.631124 0
M  V30 5607 H 527.19 -4.78564 -1.54872 0
M  V30 5608 H 526.89 -5.87353 -0.170274 0
M  V30 5609 H 528.414 -6.00737 -1.09305 0
M  V30 5610 H 529.828 -5.61756 1.14469 0
M  V30 5611 H 528.225 -5.68104 1.93333 0
M  V30 5612 H 529.295 -4.301 2.23924 0
M  V30 5613 N 530.638 -0.59345 -1.46 0
M  V30 5614 C 531.866 -0.0890934 -2.06708 0
M  V30 5615 C 532.281 1.2205 -1.44046 0
M  V30 5616 O 531.638 1.74029 -0.549551 0
M  V30 5617 C 531.689 0.0720263 -3.61428 0
M  V30 5618 O 531.41 -1.18574 -4.21748 0
M  V30 5619 C 532.911 0.609487 -4.3909 0
M  V30 5620 H 530.131 -0.0623628 -0.668096 0
M  V30 5621 H 532.675 -0.817171 -1.87464 0
M  V30 5622 H 530.83 0.750369 -3.80063 0
M  V30 5623 H 531.244 -1.0064 -5.14754 0
M  V30 5624 H 532.718 0.671363 -5.47902 0
M  V30 5625 H 533.195 1.62878 -4.07882 0
M  V30 5626 H 533.801 -0.03434 -4.25286 0
M  V30 5627 N 532.116 1.54067 -0.331816 0
M  V30 5628 C 533.063 2.24623 0.530372 0
M  V30 5629 C 534.033 1.24009 1.10503 0
M  V30 5630 O 535.218 1.52712 1.14384 0
M  V30 5631 C 532.358 3.01374 1.68129 0
M  V30 5632 C 531.471 4.16821 1.13507 0
M  V30 5633 C 530.606 4.81085 2.25234 0
M  V30 5634 C 529.645 5.88621 1.67903 0
M  V30 5635 N 528.782 6.46713 2.73326 0
M  V30 5636 H 533.622 2.97898 -0.0778607 0
M  V30 5637 H 531.159 1.47014 -0.0501965 0
M  V30 5638 H 533.117 3.44125 2.35868 0
M  V30 5639 H 531.747 2.30419 2.26069 0
M  V30 5640 H 530.799 3.78796 0.348979 0
M  V30 5641 H 532.111 4.94203 0.675633 0
M  V30 5642 H 531.265 5.26846 3.00862 0
M  V30 5643 H 530.004 4.03102 2.74518 0
M  V30 5644 H 529.009 5.42254 0.907773 0
M  V30 5645 H 530.234 6.68506 1.19487 0
M  V30 5646 H 528.18 5.71599 3.21886 0
M  V30 5647 H 528.097 7.19532 2.3197 0
M  V30 5648 H 529.365 6.97129 3.48758 0
M  V30 5649 N 533.594 0.0601682 1.57485 0
M  V30 5650 C 534.871 -0.651956 1.84415 0
M  V30 5651 C 535.251 -1.88498 0.950361 0
M  V30 5652 O 534.599 -2.28496 0.0136719 0
M  V30 5653 C 534.809 -1.00069 3.34346 0
M  V30 5654 C 536.157 -1.37915 4.01578 0
M  V30 5655 O 537.181 -1.09277 3.39024 0
M  V30 5656 O 536.04 -1.91399 5.11887 0
M  V30 5657 H 533.134 -0.322668 0.761455 0
M  V30 5658 H 535.68 0.0902159 1.6946 0
M  V30 5659 H 534.452 -0.124463 3.91102 0
M  V30 5660 H 534.075 -1.80001 3.54521 0
M  V30 5661 N 535.072 -1.5615 -0.213296 0
M  V30 5662 C 536.002 -1.96109 -1.26742 0
M  V30 5663 C 536.983 -0.830448 -1.48451 0
M  V30 5664 O 538.168 -1.09339 -1.60495 0
M  V30 5665 C 535.298 -2.28492 -2.61551 0
M  V30 5666 C 534.252 -3.44124 -2.54485 0
M  V30 5667 C 533.578 -3.62134 -3.93399 0
M  V30 5668 C 534.878 -4.78855 -2.08556 0
M  V30 5669 H 536.572 -2.84412 -0.935434 0
M  V30 5670 H 534.118 -1.36836 -0.44854 0
M  V30 5671 H 536.071 -2.55039 -3.3546 0
M  V30 5672 H 534.795 -1.37052 -2.96453 0
M  V30 5673 H 533.454 -3.17639 -1.83033 0
M  V30 5674 H 533.102 -2.68055 -4.25623 0
M  V30 5675 H 532.802 -4.39913 -3.89551 0
M  V30 5676 H 534.326 -3.91038 -4.68958 0
M  V30 5677 H 535.74 -5.04552 -2.72213 0
M  V30 5678 H 534.137 -5.59975 -2.1575 0
M  V30 5679 H 535.207 -4.73657 -1.03811 0
M  V30 5680 N 536.55 0.480323 -1.50102 0
M  V30 5681 C 537.799 1.22979 -1.59872 0
M  V30 5682 C 538.112 1.93282 -0.30022 0
M  V30 5683 O 539.318 2.70086 -0.276709 0
M  V30 5684 C 537.774 2.23408 -2.82164 0
M  V30 5685 C 537.382 1.5895 -4.18854 0
M  V30 5686 C 539.126 2.99055 -3.01275 0
M  V30 5687 C 537.033 2.57611 -5.32344 0
M  V30 5688 H 535.963 0.462707 -0.59533 0
M  V30 5689 H 538.614 0.501291 -1.7652 0
M  V30 5690 H 536.996 2.99511 -2.59055 0
M  V30 5691 H 538.17 0.887 -4.52182 0
M  V30 5692 H 536.485 0.956191 -4.05273 0
M  V30 5693 H 539.082 3.72876 -3.83233 0
M  V30 5694 H 539.425 3.57897 -2.12639 0
M  V30 5695 H 539.958 2.30066 -3.24522 0
M  V30 5696 H 536.697 2.03521 -6.23105 0
M  V30 5697 H 536.217 3.26041 -5.03445 0
M  V30 5698 H 537.896 3.19627 -5.62537 0
M  V30 5699 N 538.028 1.39524 0.732853 0
M  V30 5700 C 539.277 1.36175 1.48792 0
M  V30 5701 C 539.59 -0.0388195 1.95561 0
M  V30 5702 O 540.796 -0.194899 2.708 0
M  V30 5703 C 539.252 2.39242 2.68871 0
M  V30 5704 C 538.86 3.85024 2.29042 0
M  V30 5705 C 540.604 2.44972 3.46683 0
M  V30 5706 C 538.511 4.79727 3.45856 0
M  V30 5707 H 537.441 0.506267 0.558757 0
M  V30 5708 H 540.092 1.65181 0.799226 0
M  V30 5709 H 538.474 2.0331 3.39825 0
M  V30 5710 H 539.648 4.30008 1.6562 0
M  V30 5711 H 537.963 3.82609 1.64316 0
M  V30 5712 H 540.56 3.12918 4.33574 0
M  V30 5713 H 540.903 1.4749 3.89297 0
M  V30 5714 H 541.436 2.79808 2.82759 0
M  V30 5715 H 538.175 5.78479 3.08289 0
M  V30 5716 H 537.695 4.39421 4.08251 0
M  V30 5717 H 539.374 4.98731 4.12161 0
M  V30 5718 N 539.506 -0.963266 1.24736 0
M  V30 5719 C 540.783 -1.68248 0.9976 0
M  V30 5720 C 541.163 -2.05599 -0.478776 0
M  V30 5721 O 540.511 -1.7626 -1.45412 0
M  V30 5722 C 540.721 -2.91118 1.92487 0
M  V30 5723 C 542.069 -3.63261 2.19833 0
M  V30 5724 O 543.093 -3.01184 1.90176 0
M  V30 5725 O 541.952 -4.75019 2.7022 0
M  V30 5726 H 539.046 -0.735744 0.377637 0
M  V30 5727 H 541.592 -1.01696 1.35853 0
M  V30 5728 H 540.364 -2.60242 2.92215 0
M  V30 5729 H 539.987 -3.65402 1.56738 0
M  V30 5730 N 540.985 -1.06182 -1.16461 0
M  V30 5731 C 542.231 -0.788825 -1.87481 0
M  V30 5732 C 542.586 0.677298 -1.80085 0
M  V30 5733 O 541.879 1.48976 -1.20486 0
M  V30 5734 C 542.073 -1.21633 -3.36066 0
M  V30 5735 C 541.902 -2.72247 -3.57927 0
M  V30 5736 C 540.672 -3.39696 -3.74079 0
M  V30 5737 C 542.87 -3.70461 -3.56739 0
M  V30 5738 N 540.852 -4.79072 -3.83879 0
M  V30 5739 C 542.223 -4.95616 -3.72511 0
M  V30 5740 C 544.278 -3.63788 -3.39945 0
M  V30 5741 C 542.981 -6.14895 -3.73225 0
M  V30 5742 C 545.007 -4.82517 -3.41953 0
M  V30 5743 C 544.369 -6.065 -3.58242 0
M  V30 5744 H 540.468 -0.341034 -0.703719 0
M  V30 5745 H 543.052 -1.35575 -1.39741 0
M  V30 5746 H 541.223 -0.67725 -3.8245 0
M  V30 5747 H 542.955 -0.892119 -3.94745 0
M  V30 5748 H 539.71 -2.90097 -3.74354 0
M  V30 5749 H 540.134 -5.51573 -3.92551 0
M  V30 5750 H 544.776 -2.68888 -3.26281 0
M  V30 5751 H 542.494 -7.10129 -3.85672 0
M  V30 5752 H 546.08 -4.79017 -3.30203 0
M  V30 5753 H 544.96 -6.96833 -3.59712 0
M  V30 5754 N 542.463 1.3308 -0.844243 0
M  V30 5755 C 543.879 1.50447 -0.532729 0
M  V30 5756 C 544.079 1.78292 0.938837 0
M  V30 5757 O 543.135 1.84635 1.72239 0
M  V30 5758 C 544.448 2.65555 -1.41072 0
M  V30 5759 C 545.996 2.7944 -1.41005 0
M  V30 5760 C 546.471 3.97616 -2.27301 0
M  V30 5761 N 547.962 4.0486 -2.2504 0
M  V30 5762 C 548.697 4.95508 -2.88547 0
M  V30 5763 N 548.193 5.91236 -3.61126 0
M  V30 5764 N 549.986 4.88548 -2.77989 0
M  V30 5765 H 542.137 1.13269 -1.79677 0
M  V30 5766 H 544.4 0.55734 -0.766861 0
M  V30 5767 H 544.106 2.51675 -2.45668 0
M  V30 5768 H 543.98 3.61089 -1.09061 0
M  V30 5769 H 546.367 2.92749 -0.371784 0
M  V30 5770 H 546.448 1.8465 -1.77026 0
M  V30 5771 H 546.092 3.85066 -3.3119 0
M  V30 5772 H 546.022 4.91661 -1.88619 0
M  V30 5773 H 548.513 3.36353 -1.72264 0
M  V30 5774 H 548.826 6.57079 -4.06776 0
M  V30 5775 H 547.171 5.91295 -3.65234 0
M  V30 5776 H 550.362 4.12729 -2.20846 0
M  V30 5777 H 550.535 5.58994 -3.27765 0
M  V30 5778 N 543.941 0.601185 1.45683 0
M  V30 5779 C 545.357 0.264315 1.57396 0
M  V30 5780 C 545.557 -1.23324 1.59353 0
M  V30 5781 O 544.613 -2.01594 1.52039 0
M  V30 5782 C 545.926 0.929839 2.85962 0
M  V30 5783 C 547.474 0.905156 2.99626 0
M  V30 5784 C 547.949 1.55057 4.30954 0
M  V30 5785 N 549.44 1.51576 4.37697 0
M  V30 5786 C 550.175 1.98436 5.37969 0
M  V30 5787 N 549.671 2.53352 6.44813 0
M  V30 5788 N 551.464 1.89242 5.29286 0
M  V30 5789 H 543.615 1.57363 1.42656 0
M  V30 5790 H 545.878 0.658831 0.681649 0
M  V30 5791 H 545.584 1.98404 2.90394 0
M  V30 5792 H 545.458 0.449224 3.74515 0
M  V30 5793 H 547.845 -0.14048 2.94765 0
M  V30 5794 H 547.926 1.42397 2.12501 0
M  V30 5795 H 547.57 2.5955 4.36573 0
M  V30 5796 H 547.5 1.00682 5.16886 0
M  V30 5797 H 549.991 1.11452 3.61091 0
M  V30 5798 H 550.304 2.86918 7.17564 0
M  V30 5799 H 548.649 2.57388 6.45582 0
M  V30 5800 H 551.84 1.46083 4.44722 0
M  V30 5801 H 552.013 2.26075 6.07284 0
M  V30 5802 N 545.419 -1.53889 0.339982 0
M  V30 5803 C 546.667 -2.00458 -0.257112 0
M  V30 5804 C 546.988 -1.22953 -1.51353 0
M  V30 5805 O 546.258 -0.335734 -1.93002 0
M  V30 5806 H 544.838 -0.740544 -0.0979965 0
M  V30 5807 H 547.5 -1.89386 0.460317 0
M  V30 5808 H 546.596 -3.08035 -0.502057 0
M  V30 5809 N 546.897 -0.0685191 -1.57451 0
M  V30 5810 C 547.807 0.914677 -2.16034 0
M  V30 5811 C 548.823 1.32938 -1.12265 0
M  V30 5812 O 549.999 1.40275 -1.44516 0
M  V30 5813 C 547.064 2.16519 -2.70777 0
M  V30 5814 C 546.125 1.80721 -3.89408 0
M  V30 5815 C 545.358 2.9981 -4.41531 0
M  V30 5816 O 545.581 4.13727 -3.92666 0
M  V30 5817 O 544.515 2.79817 -5.32903 0
M  V30 5818 H 548.341 0.446364 -3.00402 0
M  V30 5819 H 545.926 0.154367 -1.486 0
M  V30 5820 H 547.808 2.89856 -3.05878 0
M  V30 5821 H 546.483 2.62454 -1.89471 0
M  V30 5822 H 545.39 1.04646 -3.59166 0
M  V30 5823 H 546.723 1.39571 -4.71997 0
M  V30 5824 N 548.375 1.56261 0.205012 0
M  V30 5825 C 549.307 1.90266 1.27795 0
M  V30 5826 C 550.32 0.792397 1.42214 0
M  V30 5827 O 551.509 1.07077 1.42817 0
M  V30 5828 C 548.609 2.11074 2.65143 0
M  V30 5829 C 547.782 3.42176 2.7246 0
M  V30 5830 C 546.841 3.52216 3.90936 0
M  V30 5831 O 545.867 4.25119 3.78501 0
M  V30 5832 N 547.069 2.84573 5.05963 0
M  V30 5833 H 549.834 2.82896 0.989434 0
M  V30 5834 H 547.395 1.57008 0.394981 0
M  V30 5835 H 549.387 2.15089 3.4281 0
M  V30 5836 H 547.957 1.2499 2.86524 0
M  V30 5837 H 547.177 3.50116 1.81142 0
M  V30 5838 H 548.465 4.28509 2.74331 0
M  V30 5839 H 547.863 2.25152 5.18963 0
M  V30 5840 H 546.42 2.94228 5.81613 0
M  V30 5841 N 549.853 -0.472356 1.50355 0
M  V30 5842 C 551.1 -1.22453 1.61281 0
M  V30 5843 C 551.428 -1.91972 0.31256 0
M  V30 5844 O 550.683 -1.82696 -0.701475 0
M  V30 5845 C 550.982 -2.29257 2.74182 0
M  V30 5846 C 550.648 -1.76999 4.14708 0
M  V30 5847 C 549.31 -1.62467 4.52944 0
M  V30 5848 C 551.662 -1.38215 5.0254 0
M  V30 5849 C 548.99 -1.07574 5.76754 0
M  V30 5850 C 551.342 -0.847638 6.26895 0
M  V30 5851 C 550.006 -0.688946 6.63935 0
M  V30 5852 H 549.276 -0.448087 0.590168 0
M  V30 5853 H 551.923 -0.520744 1.84284 0
M  V30 5854 H 550.228 -3.05538 2.45263 0
M  V30 5855 H 551.925 -2.87212 2.7984 0
M  V30 5856 H 548.515 -1.89276 3.84542 0
M  V30 5857 H 552.699 -1.48276 4.73633 0
M  V30 5858 H 547.955 -0.940237 6.04127 0
M  V30 5859 H 552.129 -0.538455 6.94315 0
M  V30 5860 H 549.756 -0.261435 7.5975 0
M  V30 5861 N 551.331 -1.39911 -0.725443 0
M  V30 5862 C 552.578 -1.37654 -1.48518 0
M  V30 5863 C 552.906 0.0243982 -1.94485 0
M  V30 5864 O 552.161 1.00708 -1.67799 0
M  V30 5865 C 552.46 -2.30368 -2.7325 0
M  V30 5866 C 552.126 -3.77817 -2.461 0
M  V30 5867 C 550.788 -4.17991 -2.38405 0
M  V30 5868 C 553.14 -4.71036 -2.23103 0
M  V30 5869 C 550.468 -5.49433 -2.05768 0
M  V30 5870 C 552.82 -6.02766 -1.9198 0
M  V30 5871 C 551.484 -6.41993 -1.82761 0
M  V30 5872 H 550.754 -0.503713 -0.543465 0
M  V30 5873 H 553.401 -1.7249 -0.831822 0
M  V30 5874 H 551.706 -1.88683 -3.43375 0
M  V30 5875 H 553.403 -2.2591 -3.31309 0
M  V30 5876 H 549.993 -3.45982 -2.52972 0
M  V30 5877 H 554.177 -4.40823 -2.2801 0
M  V30 5878 H 549.433 -5.78738 -1.9716 0
M  V30 5879 H 553.607 -6.74519 -1.73197 0
M  V30 5880 H 551.234 -7.43761 -1.57237 0
M  V30 5881 N 552.809 0.956637 -1.25245 0
M  V30 5882 C 553.742 2.05232 -0.99775 0
M  V30 5883 C 554.72 1.62439 0.0723137 0
M  V30 5884 O 555.904 1.88381 -0.066926 0
M  V30 5885 C 553.031 3.34871 -0.507861 0
M  V30 5886 C 552.077 3.96625 -1.56815 0
M  V30 5887 S 552.91 4.32853 -3.15276 0
M  V30 5888 C 554.066 5.65613 -2.68017 0
M  V30 5889 H 554.299 2.26521 -1.9255 0
M  V30 5890 H 551.832 1.09601 -1.08752 0
M  V30 5891 H 553.79 4.09845 -0.231858 0
M  V30 5892 H 552.451 3.11551 0.399356 0
M  V30 5893 H 551.644 4.90087 -1.17604 0
M  V30 5894 H 551.246 3.28124 -1.79473 0
M  V30 5895 H 553.538 6.43635 -2.11518 0
M  V30 5896 H 554.481 6.09693 -3.60112 0
M  V30 5897 H 554.889 5.24751 -2.0808 0
M  V30 5898 N 554.287 1.06798 1.15896 0
M  V30 5899 C 555.219 0.641263 2.20046 0
M  V30 5900 C 556.232 -0.303355 1.59949 0
M  V30 5901 O 557.421 -0.0935478 1.78255 0
M  V30 5902 C 554.521 -0.0794029 3.38807 0
M  V30 5903 C 553.694 0.879986 4.28457 0
M  V30 5904 C 552.753 0.197638 5.25829 0
M  V30 5905 O 551.779 0.836913 5.63014 0
M  V30 5906 N 552.981 -1.05886 5.70761 0
M  V30 5907 H 555.746 1.53718 2.57276 0
M  V30 5908 H 553.307 0.951951 1.30956 0
M  V30 5909 H 555.299 -0.546418 4.00994 0
M  V30 5910 H 553.869 -0.877193 3.0004 0
M  V30 5911 H 553.089 1.52625 3.63454 0
M  V30 5912 H 554.377 1.53065 4.8523 0
M  V30 5913 H 553.775 -1.59828 5.42652 0
M  V30 5914 H 552.332 -1.46965 6.35015 0
M  V30 5915 N 555.766 -1.3263 0.851289 0
M  V30 5916 C 556.716 -2.26451 0.265302 0
M  V30 5917 C 557.7 -1.49814 -0.586899 0
M  V30 5918 O 558.892 -1.71525 -0.436834 0
M  V30 5919 C 556.021 -3.38895 -0.548212 0
M  V30 5920 C 555.107 -4.2292 0.316189 0
M  V30 5921 N 555.498 -4.86014 1.40084 0
M  V30 5922 C 553.796 -4.45876 0.105356 0
M  V30 5923 C 554.497 -5.48667 1.93235 0
M  V30 5924 N 553.473 -5.29455 1.232 0
M  V30 5925 H 557.275 -2.72757 1.09457 0
M  V30 5926 H 554.789 -1.4668 0.697047 0
M  V30 5927 H 556.786 -4.05111 -0.984402 0
M  V30 5928 H 555.446 -2.94135 -1.37531 0
M  V30 5929 H 556.457 -4.86212 1.78377 0
M  V30 5930 H 553.134 -4.11804 -0.687299 0
M  V30 5931 H 554.524 -6.08865 2.84135 0
M  V30 5932 N 557.244 -0.608902 -1.45362 0
M  V30 5933 C 558.174 0.0964526 -2.33301 0
M  V30 5934 C 559.155 0.857444 -1.46908 0
M  V30 5935 O 560.34 0.827735 -1.75676 0
M  V30 5936 C 557.47 1.09354 -3.29635 0
M  V30 5937 C 556.424 0.445676 -4.25673 0
M  V30 5938 C 555.75 1.5511 -5.11708 0
M  V30 5939 C 557.05 -0.633972 -5.18438 0
M  V30 5940 H 558.744 -0.637829 -2.92527 0
M  V30 5941 H 556.29 -0.308178 -1.40664 0
M  V30 5942 H 558.243 1.59556 -3.90025 0
M  V30 5943 H 556.967 1.85843 -2.6857 0
M  V30 5944 H 555.626 -0.0354897 -3.66583 0
M  V30 5945 H 555.274 2.30631 -4.4701 0
M  V30 5946 H 554.974 1.12311 -5.76767 0
M  V30 5947 H 556.498 2.05537 -5.74967 0
M  V30 5948 H 557.912 -0.215974 -5.72893 0
M  V30 5949 H 556.309 -0.983789 -5.91981 0
M  V30 5950 H 557.379 -1.51005 -4.60788 0
M  V30 5951 N 558.722 1.53707 -0.348139 0
M  V30 5952 C 559.968 2.01286 0.247332 0
M  V30 5953 C 560.301 1.23546 1.49834 0
M  V30 5954 O 559.576 0.324331 1.91777 0
M  V30 5955 C 559.859 3.55768 0.556858 0
M  V30 5956 C 559.712 4.44216 -0.706564 0
M  V30 5957 C 561.031 4.1841 1.3646 0
M  V30 5958 H 558.15 0.731677 0.0884201 0
M  V30 5959 H 560.792 1.84106 -0.469584 0
M  V30 5960 H 558.942 3.70539 1.16761 0
M  V30 5961 H 560.614 4.41274 -1.34444 0
M  V30 5962 H 558.857 4.12892 -1.33052 0
M  V30 5963 H 559.528 5.50202 -0.445186 0
M  V30 5964 H 562.004 4.07365 0.848113 0
M  V30 5965 H 560.88 5.26563 1.54992 0
M  V30 5966 H 561.141 3.7333 2.36805 0
M  V30 5967 N 560.2 0.0768682 1.57412 0
M  V30 5968 C 561.477 -0.632359 1.85096 0
M  V30 5969 C 561.857 -1.87479 0.9703 0
M  V30 5970 O 561.205 -2.28469 0.0379062 0
M  V30 5971 C 561.415 -0.965174 3.35388 0
M  V30 5972 C 562.763 -1.33648 4.03018 0
M  V30 5973 O 563.787 -1.05675 3.40164 0
M  V30 5974 O 562.646 -1.85959 5.13889 0
M  V30 5975 H 559.74 -0.314574 0.764835 0
M  V30 5976 H 562.286 0.108184 1.69355 0
M  V30 5977 H 561.058 -0.0829745 3.91212 0
M  V30 5978 H 560.681 -1.76231 3.5641 0
M  V30 5979 N 561.678 -1.56367 -0.196722 0
M  V30 5980 C 562.926 -1.80172 -0.915554 0
M  V30 5981 C 563.247 -0.649649 -1.8386 0
M  V30 5982 O 562.517 0.332111 -1.93064 0
M  V30 5983 H 561.097 -0.664592 -0.341067 0
M  V30 5984 H 563.759 -1.93844 -0.202622 0
M  V30 5985 H 562.855 -2.7327 -1.50764 0
M  V30 5986 N 563.156 0.464375 -1.50603 0
M  V30 5987 C 564.433 1.22549 -1.5245 0
M  V30 5988 C 564.813 2.09327 -0.273035 0
M  V30 5989 O 564.161 2.16074 0.743242 0
M  V30 5990 C 564.371 2.05074 -2.82393 0
M  V30 5991 C 565.719 2.63036 -3.33313 0
M  V30 5992 O 566.743 2.1531 -2.8376 0
M  V30 5993 O 565.602 3.5001 -4.19709 0
M  V30 5994 H 562.696 0.556471 -0.611775 0
M  V30 5995 H 565.242 0.475648 -1.62898 0
M  V30 5996 H 564.014 1.41169 -3.64948 0
M  V30 5997 H 563.637 2.87179 -2.7498 0
M  V30 5998 N 564.634 1.40294 0.718013 0
M  V30 5999 C 565.564 1.43118 1.84498 0
M  V30 6000 C 566.545 0.292403 1.67568 0
M  V30 6001 O 567.73 0.500675 1.87635 0
M  V30 6002 C 564.86 1.29065 3.22427 0
M  V30 6003 C 563.814 2.40521 3.54025 0
M  V30 6004 C 563.14 2.11546 4.91073 0
M  V30 6005 C 564.44 3.82859 3.55269 0
M  V30 6006 H 566.134 2.37432 1.82391 0
M  V30 6007 H 563.68 1.14283 0.87609 0
M  V30 6008 H 565.633 1.29658 4.00957 0
M  V30 6009 H 564.357 0.312271 3.25104 0
M  V30 6010 H 563.016 2.39173 2.77834 0
M  V30 6011 H 562.664 1.12104 4.90348 0
M  V30 6012 H 562.364 2.86216 5.1318 0
M  V30 6013 H 563.888 2.13817 5.71939 0
M  V30 6014 H 565.302 3.86044 4.23843 0
M  V30 6015 H 563.699 4.57029 3.88902 0
M  V30 6016 H 564.769 4.12617 2.54706 0
M  V30 6017 N 566.112 -0.949982 1.2575 0
M  V30 6018 C 567.075 -2.02894 1.06615 0
M  V30 6019 C 568.075 -1.60791 0.0173905 0
M  V30 6020 O 569.265 -1.72249 0.260003 0
M  V30 6021 C 566.397 -3.35219 0.619751 0
M  V30 6022 H 567.59 -2.21302 2.02399 0
M  V30 6023 H 565.143 -1.12772 1.08223 0
M  V30 6024 H 565.878 -3.22508 -0.340486 0
M  V30 6025 H 565.663 -3.67129 1.37692 0
M  V30 6026 H 567.153 -4.14505 0.507443 0
M  V30 6027 N 567.59 -1.07411 -1.15328 0
M  V30 6028 C 568.553 -0.698914 -2.18284 0
M  V30 6029 C 569.553 0.261149 -1.58665 0
M  V30 6030 O 570.743 0.0420277 -1.74149 0
M  V30 6031 C 567.875 -0.0302427 -3.40887 0
M  V30 6032 H 569.068 -1.61045 -2.52991 0
M  V30 6033 H 566.621 -0.870724 -1.298 0
M  V30 6034 H 567.356 0.893505 -3.11748 0
M  V30 6035 H 567.141 -0.720759 -3.85419 0
M  V30 6036 H 568.631 0.21759 -4.17033 0
M  V30 6037 N 569.068 1.32177 -0.85831 0
M  V30 6038 C 570.016 2.30729 -0.294442 0
M  V30 6039 C 571.01 1.59009 0.584165 0
M  V30 6040 O 572.216 1.73713 0.471562 0
M  V30 6041 H 568.591 0.748097 -0.0765171 0
M  V30 6042 H 570.562 2.75774 -1.1398 0
M  V30 6043 C 569.311 3.44098 0.499208 0
M  V30 6044 H 568.634 3.99449 -0.167579 0
M  V30 6045 H 570.074 4.15202 0.859273 0
M  V30 6046 C 568.533 2.91684 1.68588 0
M  V30 6047 O 569.063 2.89481 2.78503 0
M  V30 6048 N 567.269 2.48036 1.51415 0
M  V30 6049 H 566.816 2.50027 0.620006 0
M  V30 6050 H 566.774 2.13322 2.30957 0
M  V30 6051 N 570.547 0.616602 1.45037 0
M  V30 6052 C 571.495 -0.109318 2.32343 0
M  V30 6053 C 572.489 -0.850543 1.465 0
M  V30 6054 O 573.695 -0.765088 1.62931 0
M  V30 6055 H 570.07 -0.0541091 0.750051 0
M  V30 6056 H 572.041 0.645326 2.91338 0
M  V30 6057 C 570.79 -1.0872 3.30266 0
M  V30 6058 H 570.113 -0.526267 3.96321 0
M  V30 6059 H 571.553 -1.56489 3.94065 0
M  V30 6060 C 570.012 -2.16525 2.58105 0
M  V30 6061 O 570.542 -3.244 2.36913 0
M  V30 6062 N 568.748 -1.92057 2.18088 0
M  V30 6063 H 568.295 -1.04337 2.35524 0
M  V30 6064 H 568.253 -2.64391 1.70131 0
M  V30 6065 N 572.025 -1.5352 0.356285 0
M  V30 6066 C 573.273 -2.00719 -0.235837 0
M  V30 6067 C 573.594 -1.24551 -1.5004 0
M  V30 6068 O 572.864 -0.356185 -1.92635 0
M  V30 6069 H 571.444 -0.741542 -0.0901366 0
M  V30 6070 H 574.106 -1.88887 0.480378 0
M  V30 6071 H 573.202 -3.08551 -0.469357 0
M  V30 6072 N 573.503 -0.0852151 -1.57369 0
M  V30 6073 C 574.751 0.579658 -1.93609 0
M  V30 6074 C 575.072 1.69332 -0.967043 0
M  V30 6075 O 574.342 1.95892 -0.0174215 0
M  V30 6076 H 572.922 0.217113 -0.714752 0
M  V30 6077 H 575.584 -0.146226 -1.94351 0
M  V30 6078 H 574.68 0.996276 -2.95771 0
M  V30 6079 N 574.981 1.5647 0.188427 0
M  V30 6080 C 576.227 1.82181 0.904534 0
M  V30 6081 C 576.582 0.663258 1.80606 0
M  V30 6082 O 575.875 -0.341231 1.88537 0
M  V30 6083 C 576.069 3.11596 1.7505 0
M  V30 6084 C 575.898 4.39928 0.932372 0
M  V30 6085 C 574.668 5.01554 0.61417 0
M  V30 6086 C 576.866 5.13527 0.281936 0
M  V30 6087 N 574.848 6.13499 -0.221896 0
M  V30 6088 C 576.219 6.18603 -0.416037 0
M  V30 6089 C 578.274 4.97505 0.198345 0
M  V30 6090 C 576.977 7.09394 -1.18965 0
M  V30 6091 C 579.003 5.88725 -0.561887 0
M  V30 6092 C 578.365 6.93251 -1.24828 0
M  V30 6093 H 574.464 0.717858 0.310168 0
M  V30 6094 H 577.048 1.93932 0.172757 0
M  V30 6095 H 575.219 3.01068 2.45383 0
M  V30 6096 H 576.951 3.25369 2.4066 0
M  V30 6097 H 573.706 4.64174 0.940187 0
M  V30 6098 H 574.13 6.74065 -0.629735 0
M  V30 6099 H 578.772 4.16716 0.714665 0
M  V30 6100 H 576.49 7.8964 -1.71737 0
M  V30 6101 H 580.076 5.78401 -0.628009 0
M  V30 6102 H 578.956 7.62618 -1.82712 0
M  V30 6103 N 576.459 -0.456382 1.50847 0
M  V30 6104 C 577.391 -1.57033 1.66953 0
M  V30 6105 C 578.404 -1.53207 0.550593 0
M  V30 6106 O 579.593 -1.58328 0.824285 0
M  V30 6107 C 576.693 -2.95937 1.65149 0
M  V30 6108 C 575.866 -3.24475 2.93317 0
M  V30 6109 C 574.925 -4.43007 2.83957 0
M  V30 6110 O 573.951 -4.42592 3.57912 0
M  V30 6111 N 575.153 -5.45503 1.9851 0
M  V30 6112 H 577.918 -1.43629 2.63042 0
M  V30 6113 H 575.479 -0.645037 1.48495 0
M  V30 6114 H 577.471 -3.73224 1.56481 0
M  V30 6115 H 576.041 -3.03036 0.767343 0
M  V30 6116 H 575.261 -2.35664 3.16 0
M  V30 6117 H 576.549 -3.4036 3.78196 0
M  V30 6118 H 575.947 -5.48668 1.37766 0
M  V30 6119 H 574.504 -6.21716 1.95735 0
M  V30 6120 N 577.937 -1.40673 -0.710563 0
M  V30 6121 C 579.183 -1.4043 -1.47142 0
M  V30 6122 C 579.538 -0.00781557 -1.92398 0
M  V30 6123 O 578.831 0.963535 -1.6561 0
M  V30 6124 C 579.025 -2.33253 -2.70791 0
M  V30 6125 C 578.854 -3.81789 -2.37629 0
M  V30 6126 C 577.624 -4.5057 -2.28724 0
M  V30 6127 C 579.822 -4.73152 -2.01572 0
M  V30 6128 N 577.804 -5.84312 -1.88289 0
M  V30 6129 C 579.175 -5.95728 -1.71778 0
M  V30 6130 C 581.23 -4.6094 -1.88252 0
M  V30 6131 C 579.933 -7.07454 -1.30003 0
M  V30 6132 C 581.959 -5.72613 -1.47881 0
M  V30 6133 C 581.321 -6.94278 -1.18987 0
M  V30 6134 H 577.42 -0.569115 -0.536314 0
M  V30 6135 H 580.004 -1.76425 -0.823547 0
M  V30 6136 H 578.175 -1.99378 -3.33321 0
M  V30 6137 H 579.907 -2.23833 -3.37166 0
M  V30 6138 H 576.662 -4.04315 -2.46629 0
M  V30 6139 H 577.086 -6.55153 -1.70596 0
M  V30 6140 H 581.728 -3.67389 -2.09249 0
M  V30 6141 H 579.446 -8.00884 -1.07749 0
M  V30 6142 H 583.032 -5.65161 -1.38145 0
M  V30 6143 H 581.912 -7.79222 -0.88219 0
M  V30 6144 N 579.415 0.9433 -1.26252 0
M  V30 6145 C 580.64 1.72898 -1.14547 0
M  V30 6146 C 581.065 1.85761 0.295743 0
M  V30 6147 O 580.423 1.3463 1.21427 0
M  V30 6148 C 580.471 3.11471 -1.8171 0
M  V30 6149 O 579.575 3.97336 -1.10445 0
M  V30 6150 H 578.916 0.530555 -0.399259 0
M  V30 6151 H 581.446 1.18159 -1.67032 0
M  V30 6152 H 581.456 3.61872 -1.88449 0
M  V30 6153 H 580.131 3.01425 -2.86558 0
M  V30 6154 H 578.708 3.55788 -1.11666 0
M  V30 6155 N 580.893 1.08022 1.14757 0
M  V30 6156 C 581.856 0.71048 2.1791 0
M  V30 6157 C 582.856 -0.252731 1.58801 0
M  V30 6158 O 584.046 -0.0327915 1.74169 0
M  V30 6159 C 581.178 0.0483203 3.40866 0
M  V30 6160 H 582.371 1.62384 2.52134 0
M  V30 6161 H 579.924 0.877595 1.29337 0
M  V30 6162 H 580.659 -0.876959 3.12218 0
M  V30 6163 H 580.444 0.741189 3.85031 0
M  V30 6164 H 581.934 -0.195471 4.17142 0
M  V30 6165 N 582.371 -1.3172 0.865308 0
M  V30 6166 C 583.596 -2.01591 0.487415 0
M  V30 6167 C 584.021 -1.6455 -0.911307 0
M  V30 6168 O 583.379 -0.851689 -1.6005 0
M  V30 6169 C 583.427 -3.54759 0.646401 0
M  V30 6170 O 582.531 -4.11185 -0.316284 0
M  V30 6171 H 581.872 -0.634884 0.194468 0
M  V30 6172 H 584.402 -1.68024 1.16744 0
M  V30 6173 H 584.412 -4.04438 0.537932 0
M  V30 6174 H 583.087 -3.8106 1.66632 0
M  V30 6175 H 581.664 -3.72543 -0.163162 0
M  V30 6176 N 583.85 -0.624285 -1.44708 0
M  V30 6177 C 585.075 -0.131171 -2.06985 0
M  V30 6178 C 585.5 1.18234 -1.46295 0
M  V30 6179 O 584.858 1.72375 -0.561842 0
M  V30 6180 C 584.906 -0.0226724 -3.60593 0
M  V30 6181 O 584.01 1.02314 -3.99507 0
M  V30 6182 H 583.351 -0.0816556 -0.65896 0
M  V30 6183 H 585.88 -0.859027 -1.85693 0
M  V30 6184 H 585.891 0.170138 -4.07645 0
M  V30 6185 H 584.566 -0.981685 -4.04148 0
M  V30 6186 H 583.143 0.805452 -3.64097 0
M  V30 6187 N 585.328 1.53329 -0.364422 0
M  V30 6188 C 586.576 2.00842 0.225189 0
M  V30 6189 C 586.897 1.25345 1.49378 0
M  V30 6190 O 586.167 0.366396 1.92443 0
M  V30 6191 H 584.747 0.742009 0.0862027 0
M  V30 6192 H 587.409 1.8863 -0.490389 0
M  V30 6193 H 586.505 3.08795 0.452987 0
M  V30 6194 N 586.806 0.0935595 1.57322 0
M  V30 6195 C 587.739 -0.902505 2.09595 0
M  V30 6196 C 588.717 -1.27732 1.00615 0
M  V30 6197 O 589.901 -1.38283 1.28102 0
M  V30 6198 C 587.028 -2.20416 2.57166 0
M  V30 6199 C 586.074 -1.97932 3.7779 0
M  V30 6200 S 586.907 -1.21873 5.21447 0
M  V30 6201 C 588.063 -2.53273 5.72367 0
M  V30 6202 H 588.296 -0.457797 2.93754 0
M  V30 6203 H 585.829 -0.119694 1.53935 0
M  V30 6204 H 587.787 -2.95217 2.85232 0
M  V30 6205 H 586.448 -2.62008 1.73235 0
M  V30 6206 H 585.641 -2.94316 4.09138 0
M  V30 6207 H 585.243 -1.3126 3.5021 0
M  V30 6208 H 587.535 -3.49256 5.8054 0
M  V30 6209 H 588.478 -2.26505 6.70896 0
M  V30 6210 H 588.886 -2.61475 5.00291 0
M  V30 6211 N 588.284 -1.56567 -0.180126 0
M  V30 6212 C 589.561 -1.7235 -0.924931 0
M  V30 6213 C 589.941 -0.652523 -2.00762 0
M  V30 6214 O 589.289 0.334115 -2.26044 0
M  V30 6215 C 589.499 -3.1523 -1.49771 0
M  V30 6216 C 590.847 -3.75921 -1.97405 0
M  V30 6217 O 591.871 -3.18452 -1.59583 0
M  V30 6218 O 590.73 -4.7681 -2.67048 0
M  V30 6219 H 587.824 -0.703502 -0.434758 0
M  V30 6220 H 590.37 -1.6886 -0.168647 0
M  V30 6221 H 589.142 -3.84656 -0.718027 0
M  V30 6222 H 588.765 -3.23009 -2.31842 0
M  V30 6223 N 589.762 0.448376 -1.51087 0
M  V30 6224 C 591.173 1.0286 -1.5581 0
M  V30 6225 C 591.524 1.92583 -0.374989 0
M  V30 6226 O 590.649 2.10316 0.509533 0
M  V30 6227 C 591.244 1.87223 -2.8237 0
M  V30 6228 C 589.803 2.40314 -2.897 0
M  V30 6229 C 588.95 1.19238 -2.50355 0
M  V30 6230 H 591.901 0.230075 -1.57023 0
M  V30 6231 H 591.922 2.72553 -2.6551 0
M  V30 6232 H 591.434 1.21894 -3.68461 0
M  V30 6233 H 589.535 3.09129 -2.08014 0
M  V30 6234 H 589.648 2.73866 -3.93108 0
M  V30 6235 H 588.012 1.53428 -2.03303 0
M  V30 6236 H 588.795 0.555367 -3.38778 0
M  V30 6237 N 591.24 1.41047 0.703093 0
M  V30 6238 C 592.187 1.42302 1.81711 0
M  V30 6239 C 593.157 0.278336 1.63751 0
M  V30 6240 O 594.342 0.478266 1.84709 0
M  V30 6241 C 591.482 1.30362 3.19531 0
M  V30 6242 C 590.595 2.54638 3.48975 0
M  V30 6243 C 589.73 2.35047 4.76368 0
M  V30 6244 C 588.769 3.54837 4.98756 0
M  V30 6245 N 587.906 3.34363 6.1737 0
M  V30 6246 H 592.746 2.37516 1.79973 0
M  V30 6247 H 590.283 1.1795 0.878983 0
M  V30 6248 H 592.241 1.21443 3.99134 0
M  V30 6249 H 590.871 0.387602 3.20464 0
M  V30 6250 H 589.923 2.74037 2.63833 0
M  V30 6251 H 591.235 3.43766 3.61423 0
M  V30 6252 H 590.389 2.23552 5.64012 0
M  V30 6253 H 589.128 1.43363 4.66153 0
M  V30 6254 H 588.133 3.66795 4.09563 0
M  V30 6255 H 589.358 4.47464 5.10835 0
M  V30 6256 H 587.304 2.45373 6.08382 0
M  V30 6257 H 587.221 4.17063 6.30551 0
M  V30 6258 H 588.489 3.26626 7.07768 0
M  V30 6259 N 592.718 -0.936591 1.26751 0
M  V30 6260 C 594.129 -1.49816 1.1141 0
M  V30 6261 C 594.48 -1.9383 -0.304015 0
M  V30 6262 O 593.605 -1.80346 -1.196 0
M  V30 6263 C 594.2 -2.72271 2.01629 0
M  V30 6264 C 592.759 -3.2468 1.9042 0
M  V30 6265 C 591.906 -1.97444 1.94708 0
M  V30 6266 H 594.857 -0.751604 1.39773 0
M  V30 6267 H 594.878 -3.46741 1.56688 0
M  V30 6268 H 594.39 -2.40205 3.04833 0
M  V30 6269 H 592.491 -3.61525 0.901674 0
M  V30 6270 H 592.604 -3.91476 2.76195 0
M  V30 6271 H 590.968 -2.13545 1.38818 0
M  V30 6272 H 591.751 -1.67703 2.9955 0
M  V30 6273 N 594.196 -1.08629 -1.14182 0
M  V30 6274 C 595.126 -0.740003 -2.21464 0
M  V30 6275 C 596.107 0.278591 -1.67803 0
M  V30 6276 O 597.292 0.148461 -1.93632 0
M  V30 6277 C 594.422 -0.150952 -3.46972 0
M  V30 6278 C 593.376 -1.09815 -4.13672 0
M  V30 6279 C 592.702 -0.3712 -5.3341 0
M  V30 6280 C 594.002 -2.43722 -4.61949 0
M  V30 6281 H 595.696 -1.63697 -2.50686 0
M  V30 6282 H 593.242 -0.788526 -1.20492 0
M  V30 6283 H 595.195 0.103325 -4.21273 0
M  V30 6284 H 593.919 0.781164 -3.1712 0
M  V30 6285 H 592.578 -1.33756 -3.41328 0
M  V30 6286 H 592.226 0.564792 -4.99819 0
M  V30 6287 H 591.926 -1.00267 -5.78982 0
M  V30 6288 H 593.45 -0.12503 -6.10472 0
M  V30 6289 H 594.864 -2.24034 -5.27714 0
M  V30 6290 H 593.261 -3.02582 -5.18232 0
M  V30 6291 H 594.331 -3.05082 -3.76899 0
M  V30 6292 N 595.674 1.31259 -0.872281 0
M  V30 6293 C 597.09 1.49283 -0.564521 0
M  V30 6294 C 597.29 1.80243 0.900807 0
M  V30 6295 O 596.346 1.88246 1.68284 0
M  V30 6296 C 597.659 2.62503 -1.46673 0
M  V30 6297 C 599.207 2.76386 -1.46901 0
M  V30 6298 C 599.682 3.92705 -2.35684 0
M  V30 6299 N 601.173 3.99995 -2.33577 0
M  V30 6300 C 601.908 4.89276 -2.98992 0
M  V30 6301 N 601.404 5.83443 -3.73585 0
M  V30 6302 N 603.197 4.82541 -2.88289 0
M  V30 6303 H 595.348 1.09432 -1.82039 0
M  V30 6304 H 597.611 0.540949 -0.77851 0
M  V30 6305 H 597.317 2.46407 -2.50951 0
M  V30 6306 H 597.191 3.58695 -1.16696 0
M  V30 6307 H 599.578 2.91894 -0.433796 0
M  V30 6308 H 599.659 1.80853 -1.80903 0
M  V30 6309 H 599.303 3.77954 -3.39283 0
M  V30 6310 H 599.233 4.87549 -1.99006 0
M  V30 6311 H 601.724 3.32624 -1.7936 0
M  V30 6312 H 602.037 6.48303 -4.20622 0
M  V30 6313 H 600.382 5.83415 -3.77694 0
M  V30 6314 H 603.573 4.07951 -2.2955 0
M  V30 6315 H 603.746 5.51916 -3.39549 0
M  V30 6316 N 597.152 0.631951 1.44375 0
M  V30 6317 C 598.401 0.134214 2.01253 0
M  V30 6318 C 598.714 -1.25171 1.50305 0
M  V30 6319 O 599.92 -1.8435 1.99317 0
M  V30 6320 C 598.376 0.189187 3.59402 0
M  V30 6321 C 597.984 1.57647 4.19346 0
M  V30 6322 C 599.728 -0.252044 4.23751 0
M  V30 6323 C 597.635 1.58651 5.69722 0
M  V30 6324 H 596.565 0.0464101 0.75257 0
M  V30 6325 H 599.216 0.790868 1.65582 0
M  V30 6326 H 597.598 -0.534584 3.92375 0
M  V30 6327 H 598.772 2.32389 3.97909 0
M  V30 6328 H 597.087 1.96186 3.67288 0
M  V30 6329 H 599.684 -0.264084 5.34047 0
M  V30 6330 H 600.027 -1.27951 3.96149 0
M  V30 6331 H 600.56 0.41926 3.95584 0
M  V30 6332 H 597.299 2.59237 6.0206 0
M  V30 6333 H 596.819 0.882039 5.93279 0
M  V30 6334 H 598.498 1.32082 6.33375 0
M  V30 6335 N 598.631 -1.53133 0.372548 0
M  V30 6336 C 599.878 -2.01356 -0.214959 0
M  V30 6337 C 600.206 -1.2596 -1.48204 0
M  V30 6338 O 599.461 -0.343511 -1.92662 0
M  V30 6339 C 599.76 -3.53206 -0.545938 0
M  V30 6340 C 599.426 -4.46511 0.627624 0
M  V30 6341 C 598.088 -4.71737 0.949615 0
M  V30 6342 C 600.44 -5.01666 1.41353 0
M  V30 6343 C 597.768 -5.4937 2.05936 0
M  V30 6344 C 600.12 -5.80511 2.51375 0
M  V30 6345 C 598.784 -6.04022 2.84101 0
M  V30 6346 H 598.054 -0.736813 -0.078659 0
M  V30 6347 H 600.701 -1.84682 0.506447 0
M  V30 6348 H 599.006 -3.67864 -1.34845 0
M  V30 6349 H 600.703 -3.87997 -1.01287 0
M  V30 6350 H 597.293 -4.27029 0.366635 0
M  V30 6351 H 601.477 -4.82117 1.17802 0
M  V30 6352 H 596.733 -5.65803 2.31682 0
M  V30 6353 H 600.907 -6.22255 3.12684 0
M  V30 6354 H 598.534 -6.63962 3.70214 0
M  V30 6355 N 600.109 -0.101901 -1.5727 0
M  V30 6356 C 601.057 0.872034 -2.15635 0
M  V30 6357 C 602.051 1.28742 -1.10099 0
M  V30 6358 O 603.257 1.26116 -1.28432 0
M  V30 6359 H 599.632 0.299269 -0.689886 0
M  V30 6360 H 601.603 0.355137 -2.96279 0
M  V30 6361 C 600.352 2.11886 -2.7568 0
M  V30 6362 H 599.675 1.80813 -3.56576 0
M  V30 6363 H 601.115 2.78077 -3.20077 0
M  V30 6364 C 599.574 2.89739 -1.7191 0
M  V30 6365 O 600.104 3.84522 -1.16213 0
M  V30 6366 N 598.31 2.53407 -1.42245 0
M  V30 6367 H 597.857 1.76398 -1.87727 0
M  V30 6368 H 597.815 3.05795 -0.730529 0
M  V30 6369 N 601.587 1.56661 0.17182 0
M  V30 6370 C 602.998 1.71652 0.734329 0
M  V30 6371 C 603.349 0.712335 1.82812 0
M  V30 6372 O 602.474 -0.126401 2.16031 0
M  V30 6373 C 603.069 3.11226 1.3388 0
M  V30 6374 C 601.628 3.27904 1.84813 0
M  V30 6375 C 600.775 2.67603 0.726917 0
M  V30 6376 H 603.726 1.5861 -0.0535665 0
M  V30 6377 H 603.747 3.09849 2.20849 0
M  V30 6378 H 603.259 3.8429 0.54249 0
M  V30 6379 H 601.36 2.59796 2.6709 0
M  V30 6380 H 601.473 4.35637 1.99392 0
M  V30 6381 H 599.837 2.274 1.14723 0
M  V30 6382 H 600.62 3.43252 -0.0575334 0
M  V30 6383 N 603.065 -0.440357 1.51323 0
M  V30 6384 C 604.028 -1.51679 1.71832 0
M  V30 6385 C 605.028 -1.49648 0.588386 0
M  V30 6386 O 606.218 -1.51724 0.855891 0
M  V30 6387 C 603.35 -2.91228 1.77199 0
M  V30 6388 H 604.543 -1.34799 2.67898 0
M  V30 6389 H 602.096 -0.66883 1.41267 0
M  V30 6390 H 602.831 -3.13516 0.829363 0
M  V30 6391 H 602.616 -2.94107 2.59314 0
M  V30 6392 H 604.106 -3.69321 1.94915 0
M  V30 6393 N 604.543 -1.41418 -0.695603 0
M  V30 6394 C 605.768 -1.44329 -1.48942 0
M  V30 6395 C 606.193 -0.0501579 -1.88033 0
M  V30 6396 O 605.551 0.946598 -1.54626 0
M  V30 6397 C 605.599 -2.3578 -2.72837 0
M  V30 6398 O 604.703 -1.81482 -3.70322 0
M  V30 6399 H 604.044 -0.489838 -0.44828 0
M  V30 6400 H 606.574 -1.85878 -0.855014 0
M  V30 6401 H 606.584 -2.51654 -3.21145 0
M  V30 6402 H 605.259 -3.37005 -2.43722 0
M  V30 6403 H 603.836 -1.75058 -3.29255 0
M  V30 6404 N 606.021 0.929856 -1.27246 0
M  V30 6405 C 606.953 2.03434 -1.0558 0
M  V30 6406 C 607.966 1.62795 -0.0125762 0
M  V30 6407 O 609.155 1.76685 -0.2539 0
M  V30 6408 C 606.255 3.33915 -0.57912 0
M  V30 6409 C 605.428 4.03259 -1.69415 0
M  V30 6410 C 604.487 5.12014 -1.21357 0
M  V30 6411 O 603.513 5.36097 -1.91282 0
M  V30 6412 N 604.715 5.8046 -0.0680622 0
M  V30 6413 H 607.48 2.22583 -2.00691 0
M  V30 6414 H 605.041 1.1001 -1.18783 0
M  V30 6415 H 607.033 4.03978 -0.241563 0
M  V30 6416 H 605.603 3.11355 0.278703 0
M  V30 6417 H 604.823 3.26958 -2.20209 0
M  V30 6418 H 606.111 4.46337 -2.44255 0
M  V30 6419 H 605.509 5.63345 0.515626 0
M  V30 6420 H 604.066 6.51461 0.210332 0
M  V30 6421 N 607.499 1.09233 1.13605 0
M  V30 6422 C 608.462 0.733553 2.17144 0
M  V30 6423 C 609.462 -0.235873 1.59061 0
M  V30 6424 O 610.652 -0.0143167 1.74194 0
M  V30 6425 C 607.784 0.084471 3.40795 0
M  V30 6426 H 608.977 1.65049 2.50397 0
M  V30 6427 H 606.53 0.891264 1.28399 0
M  V30 6428 H 607.265 -0.843795 3.1313 0
M  V30 6429 H 607.05 0.781985 3.84223 0
M  V30 6430 H 608.54 -0.151216 4.17326 0
M  V30 6431 N 608.977 -1.30795 0.87923 0
M  V30 6432 C 609.924 -2.28282 0.339968 0
M  V30 6433 C 610.894 -1.56134 -0.566685 0
M  V30 6434 O 612.079 -1.84231 -0.496338 0
M  V30 6435 C 609.219 -3.42225 -0.444501 0
M  V30 6436 C 608.332 -4.29204 0.490717 0
M  V30 6437 C 607.467 -5.30302 -0.308784 0
M  V30 6438 C 606.506 -6.08929 0.622272 0
M  V30 6439 N 605.643 -7.01957 -0.14155 0
M  V30 6440 H 610.483 -2.73794 1.17647 0
M  V30 6441 H 608.02 -1.34682 0.591527 0
M  V30 6442 H 609.978 -4.07038 -0.915186 0
M  V30 6443 H 608.608 -2.97799 -1.24562 0
M  V30 6444 H 607.66 -3.6475 1.07988 0
M  V30 6445 H 608.972 -4.84045 1.20425 0
M  V30 6446 H 608.126 -6.00835 -0.841575 0
M  V30 6447 H 606.865 -4.7614 -1.05556 0
M  V30 6448 H 605.87 -5.37278 1.16674 0
M  V30 6449 H 607.095 -6.65178 1.36804 0
M  V30 6450 H 605.041 -6.50192 -0.870966 0
M  V30 6451 H 604.958 -7.54261 0.51246 0
M  V30 6452 H 606.226 -7.76741 -0.655271 0
M  V30 6453 N 610.455 -0.639598 -1.44038 0
M  V30 6454 C 611.402 0.0602458 -2.30721 0
M  V30 6455 C 612.372 0.828352 -1.43971 0
M  V30 6456 O 613.557 0.807693 -1.72861 0
M  V30 6457 C 610.697 1.03008 -3.29368 0
M  V30 6458 C 609.81 0.259502 -4.3122 0
M  V30 6459 C 608.945 1.22191 -5.16955 0
M  V30 6460 C 607.984 0.440978 -6.10509 0
M  V30 6461 N 607.121 1.35428 -6.88915 0
M  V30 6462 H 611.961 -0.684867 -2.90023 0
M  V30 6463 H 609.498 -0.349509 -1.42888 0
M  V30 6464 H 611.456 1.60583 -3.85057 0
M  V30 6465 H 610.086 1.74222 -2.71747 0
M  V30 6466 H 609.138 -0.432317 -3.77935 0
M  V30 6467 H 610.45 -0.348347 -4.97582 0
M  V30 6468 H 609.604 1.86873 -5.77203 0
M  V30 6469 H 608.343 1.86367 -4.50687 0
M  V30 6470 H 607.348 -0.219279 -5.49363 0
M  V30 6471 H 608.573 -0.196192 -6.78817 0
M  V30 6472 H 606.519 1.9831 -6.25307 0
M  V30 6473 H 606.436 0.800657 -7.51748 0
M  V30 6474 H 607.704 1.98967 -7.53679 0
M  V30 6475 N 611.933 1.52934 -0.380664 0
M  V30 6476 C 613.18 2.01467 0.204278 0
M  V30 6477 C 613.508 1.26744 1.47533 0
M  V30 6478 O 612.763 0.353723 1.92477 0
M  V30 6479 C 613.062 3.5349 0.527199 0
M  V30 6480 C 612.728 4.46171 -0.651295 0
M  V30 6481 C 611.39 4.71227 -0.974619 0
M  V30 6482 C 613.742 5.00909 -1.44012 0
M  V30 6483 C 611.07 5.4827 -2.08847 0
M  V30 6484 C 613.422 5.7917 -2.5445 0
M  V30 6485 C 612.086 6.02507 -2.87301 0
M  V30 6486 H 611.356 0.73722 0.0747504 0
M  V30 6487 H 614.003 1.84411 -0.516234 0
M  V30 6488 H 612.308 3.68574 1.32892 0
M  V30 6489 H 614.005 3.88529 0.992283 0
M  V30 6490 H 610.595 4.26829 -0.389276 0
M  V30 6491 H 614.779 4.81485 -1.20357 0
M  V30 6492 H 610.035 5.64567 -2.34679 0
M  V30 6493 H 614.209 6.20588 -3.1598 0
M  V30 6494 H 611.836 6.61989 -3.7373 0
M  V30 6495 N 613.412 0.11024 1.57214 0
M  V30 6496 C 614.689 -0.592956 1.86396 0
M  V30 6497 C 615.069 -1.85379 1.00985 0
M  V30 6498 O 614.417 -2.28337 0.0863592 0
M  V30 6499 C 614.627 -0.893816 3.3736 0
M  V30 6500 C 615.975 -1.25069 4.05762 0
M  V30 6501 O 616.999 -0.984356 3.42329 0
M  V30 6502 O 615.858 -1.75017 5.17718 0
M  V30 6503 H 612.952 -0.29828 0.771335 0
M  V30 6504 H 615.498 0.144083 1.69087 0
M  V30 6505 H 614.27 2.6031e-05 3.913 0
M  V30 6506 H 613.893 -1.68631 3.60068 0
M  V30 6507 N 614.89 -1.56749 -0.16351 0
M  V30 6508 C 615.853 -1.96121 -1.18613 0
M  V30 6509 C 616.853 -0.845765 -1.36761 0
M  V30 6510 O 618.043 -1.11268 -1.34033 0
M  V30 6511 C 615.175 -2.26282 -2.54969 0
M  V30 6512 H 616.368 -2.87639 -0.848764 0
M  V30 6513 H 613.921 -1.50928 -0.406251 0
M  V30 6514 H 614.656 -1.37504 -2.93706 0
M  V30 6515 H 614.441 -3.07595 -2.43162 0
M  V30 6516 H 615.931 -2.57638 -3.28653 0
M  V30 6517 N 616.368 0.432326 -1.51554 0
M  V30 6518 C 617.596 1.20364 -1.68286 0
M  V30 6519 C 618.011 1.84888 -0.38233 0
M  V30 6520 O 617.368 1.70924 0.639627 0
M  V30 6521 C 617.419 2.28398 -2.80208 0
M  V30 6522 O 617.14 1.66512 -4.05223 0
M  V30 6523 C 618.641 3.18584 -3.08251 0
M  V30 6524 H 615.861 0.36259 -0.564596 0
M  V30 6525 H 618.405 0.511647 -1.97996 0
M  V30 6526 H 616.56 2.93305 -2.53083 0
M  V30 6527 H 616.974 2.37951 -4.67418 0
M  V30 6528 H 618.448 3.90511 -3.90135 0
M  V30 6529 H 618.925 3.79628 -2.2086 0
M  V30 6530 H 619.531 2.59372 -3.37055 0
M  V30 6531 N 617.846 1.41785 0.688094 0
M  V30 6532 C 618.809 1.43936 1.78368 0
M  V30 6533 C 619.809 0.328866 1.57401 0
M  V30 6534 O 620.999 0.589093 1.63937 0
M  V30 6535 C 618.131 1.25804 3.16838 0
M  V30 6536 H 619.324 2.41472 1.77852 0
M  V30 6537 H 616.877 1.28037 0.896448 0
M  V30 6538 H 617.612 0.291386 3.22988 0
M  V30 6539 H 617.397 2.06272 3.33458 0
M  V30 6540 H 618.887 1.30162 3.96797 0
M  V30 6541 N 619.324 -0.923095 1.27737 0
M  V30 6542 C 620.552 -1.70525 1.17171 0
M  V30 6543 C 620.967 -1.86847 -0.270881 0
M  V30 6544 O 620.324 -1.38879 -1.18401 0
M  V30 6545 C 620.375 -3.10242 1.85559 0
M  V30 6546 O 620.096 -2.94683 3.24182 0
M  V30 6547 C 621.597 -4.04586 1.81176 0
M  V30 6548 H 618.817 -0.533347 0.407163 0
M  V30 6549 H 621.361 -1.15599 1.68692 0
M  V30 6550 H 619.516 -3.62014 1.3793 0
M  V30 6551 H 619.93 -3.83045 3.58297 0
M  V30 6552 H 621.404 -5.00119 2.33633 0
M  V30 6553 H 621.881 -4.3218 0.782099 0
M  V30 6554 H 622.487 -3.58741 2.2844 0
M  V30 6555 N 620.802 -1.09834 -1.13024 0
M  V30 6556 C 622.032 -0.857657 -1.87957 0
M  V30 6557 C 622.44 0.595008 -1.796 0
M  V30 6558 O 621.783 1.42158 -1.16347 0
M  V30 6559 C 621.845 -1.21949 -3.38185 0
M  V30 6560 C 621.509 -2.67791 -3.7032 0
M  V30 6561 C 622.506 -3.66036 -3.69207 0
M  V30 6562 C 620.191 -3.04019 -3.99847 0
M  V30 6563 C 622.185 -4.98533 -3.9717 0
M  V30 6564 C 619.872 -4.36706 -4.27471 0
M  V30 6565 C 620.87 -5.33772 -4.26118 0
M  V30 6566 O 620.558 -6.64072 -4.53061 0
M  V30 6567 H 620.29 -0.308009 -0.601753 0
M  V30 6568 H 622.844 -1.46496 -1.43973 0
M  V30 6569 H 621.074 -0.555249 -3.82693 0
M  V30 6570 H 622.763 -0.957281 -3.9445 0
M  V30 6571 H 623.529 -3.39392 -3.46465 0
M  V30 6572 H 619.408 -2.29096 -4.00045 0
M  V30 6573 H 622.952 -5.74288 -3.96029 0
M  V30 6574 H 618.849 -4.63091 -4.49685 0
M  V30 6575 H 619.617 -6.69608 -4.7071 0
M  V30 6576 N 622.28 1.30327 -0.886154 0
M  V30 6577 C 623.529 1.95373 -0.501243 0
M  V30 6578 C 623.842 1.70722 0.954634 0
M  V30 6579 O 625.048 2.29761 1.44644 0
M  V30 6580 C 623.504 3.49828 -0.845493 0
M  V30 6581 C 623.112 3.83296 -2.31922 0
M  V30 6582 C 624.856 4.2118 -0.529838 0
M  V30 6583 C 622.763 5.30935 -2.60504 0
M  V30 6584 H 621.693 0.731274 -0.183722 0
M  V30 6585 H 624.344 1.48258 -1.08129 0
M  V30 6586 H 622.726 3.95522 -0.19452 0
M  V30 6587 H 623.9 3.48508 -3.01461 0
M  V30 6588 H 622.215 3.2505 -2.60253 0
M  V30 6589 H 624.812 5.29825 -0.720401 0
M  V30 6590 H 625.155 4.12902 0.530828 0
M  V30 6591 H 625.688 3.81173 -1.13806 0
M  V30 6592 H 622.427 5.44265 -3.65316 0
M  V30 6593 H 621.947 5.67019 -1.95575 0
M  V30 6594 H 623.626 5.98381 -2.46066 0
M  V30 6595 N 623.758 0.647228 1.43697 0
M  V30 6596 C 624.705 -0.0480092 2.3075 0
M  V30 6597 C 625.675 -0.820705 1.44408 0
M  V30 6598 O 626.86 -0.798515 1.73287 0
M  V30 6599 C 624 -1.01259 3.2991 0
M  V30 6600 C 623.113 -0.236629 4.31351 0
M  V30 6601 C 622.248 -1.19447 5.17596 0
M  V30 6602 C 621.287 -0.408595 6.10735 0
M  V30 6603 N 620.424 -1.31772 6.89623 0
M  V30 6604 H 625.264 0.700238 2.89656 0
M  V30 6605 H 622.801 0.357082 1.427 0
M  V30 6606 H 624.759 -1.58538 3.85903 0
M  V30 6607 H 623.389 -1.72778 2.72667 0
M  V30 6608 H 622.441 0.452353 3.77701 0
M  V30 6609 H 623.753 0.374731 4.9739 0
M  V30 6610 H 622.907 -1.83809 5.78186 0
M  V30 6611 H 621.646 -1.83975 4.51669 0
M  V30 6612 H 620.651 0.24841 5.49239 0
M  V30 6613 H 621.876 0.232188 6.78703 0
M  V30 6614 H 619.822 -1.94991 6.2635 0
M  V30 6615 H 619.739 -0.760779 7.52162 0
M  V30 6616 H 621.007 -1.94967 7.54724 0
M  V30 6617 N 625.236 -1.5273 0.388769 0
M  V30 6618 C 626.652 -1.59553 0.0387049 0
M  V30 6619 C 626.852 -1.40278 -1.44652 0
M  V30 6620 O 625.908 -1.21951 -2.21098 0
M  V30 6621 C 627.221 -2.9625 0.515409 0
M  V30 6622 C 628.769 -3.09426 0.471621 0
M  V30 6623 C 629.244 -4.48572 0.924505 0
M  V30 6624 N 630.735 -4.54754 0.880496 0
M  V30 6625 C 631.47 -5.60653 1.20234 0
M  V30 6626 N 630.966 -6.74198 1.59463 0
M  V30 6627 N 632.759 -5.50755 1.12363 0
M  V30 6628 H 624.91 -1.63508 1.35569 0
M  V30 6629 H 627.173 -0.768097 0.555636 0
M  V30 6630 H 626.879 -3.15569 1.5527 0
M  V30 6631 H 626.753 -3.77102 -0.085792 0
M  V30 6632 H 629.14 -2.89804 -0.556588 0
M  V30 6633 H 629.221 -2.30528 1.10862 0
M  V30 6634 H 628.865 -4.68936 1.95094 0
M  V30 6635 H 628.795 -5.25935 0.264524 0
M  V30 6636 H 631.286 -3.73237 0.591815 0
M  V30 6637 H 631.599 -7.5097 1.82385 0
M  V30 6638 H 629.944 -6.75531 1.63349 0
M  V30 6639 H 633.135 -4.6093 0.816169 0
M  V30 6640 H 633.308 -6.33184 1.37777 0
M  V30 6641 N 626.714 -0.118576 -1.57153 0
M  V30 6642 C 627.96 0.534078 -1.96263 0
M  V30 6643 C 628.315 1.64316 -1.0009 0
M  V30 6644 O 627.608 1.91575 -0.0308582 0
M  V30 6645 C 627.802 1.11303 -3.39627 0
M  V30 6646 C 627.631 0.0615624 -4.49658 0
M  V30 6647 C 626.401 -0.370103 -5.03943 0
M  V30 6648 C 628.599 -0.719249 -5.09246 0
M  V30 6649 N 626.581 -1.40738 -5.9755 0
M  V30 6650 C 627.952 -1.60774 -5.98792 0
M  V30 6651 C 630.007 -0.770183 -4.91907 0
M  V30 6652 C 628.71 -2.54272 -6.72858 0
M  V30 6653 C 630.736 -1.69288 -5.66653 0
M  V30 6654 C 630.098 -2.56894 -6.55885 0
M  V30 6655 H 626.197 0.165072 -0.764379 0
M  V30 6656 H 628.781 -0.206596 -1.93601 0
M  V30 6657 H 626.952 1.82342 -3.42937 0
M  V30 6658 H 628.684 1.72996 -3.65861 0
M  V30 6659 H 625.439 0.0222121 -4.73595 0
M  V30 6660 H 625.863 -1.92493 -6.49057 0
M  V30 6661 H 630.505 -0.106999 -4.22665 0
M  V30 6662 H 628.223 -3.21605 -7.41347 0
M  V30 6663 H 631.809 -1.73772 -5.55243 0
M  V30 6664 H 630.689 -3.27131 -7.1271 0
M  V30 6665 N 628.193 1.56834 0.155195 0
M  V30 6666 C 629.123 2.00678 1.19376 0
M  V30 6667 C 630.104 0.884973 1.45266 0
M  V30 6668 O 631.289 1.1522 1.56326 0
M  V30 6669 C 628.419 2.38042 2.5289 0
M  V30 6670 C 627.373 3.53332 2.41538 0
M  V30 6671 C 626.699 3.76485 3.79688 0
M  V30 6672 C 627.999 4.86265 1.9064 0
M  V30 6673 H 629.693 2.87688 0.829232 0
M  V30 6674 H 627.239 1.38407 0.397445 0
M  V30 6675 H 629.192 2.67314 3.25763 0
M  V30 6676 H 627.916 1.4796 2.91162 0
M  V30 6677 H 626.575 3.24213 1.71117 0
M  V30 6678 H 626.223 2.83667 4.15382 0
M  V30 6679 H 625.923 4.54068 3.72956 0
M  V30 6680 H 627.447 4.08174 4.54122 0
M  V30 6681 H 628.861 5.14308 2.53299 0
M  V30 6682 H 627.258 5.67597 1.94818 0
M  V30 6683 H 628.328 4.77184 0.861596 0
M  V30 6684 N 629.671 -0.424282 1.51781 0
M  V30 6685 C 631.082 -1.00368 1.57427 0
M  V30 6686 C 631.433 -1.91962 0.40558 0
M  V30 6687 O 630.558 -2.111 -0.47601 0
M  V30 6688 C 631.153 -1.82707 2.85313 0
M  V30 6689 C 629.712 -2.35675 2.93487 0
M  V30 6690 C 628.859 -1.1524 2.5222 0
M  V30 6691 H 631.81 -0.205064 1.5737 0
M  V30 6692 H 631.831 -2.68294 2.69812 0
M  V30 6693 H 631.343 -1.16017 3.70353 0
M  V30 6694 H 629.444 -3.05781 2.12906 0
M  V30 6695 H 629.557 -2.67578 3.97415 0
M  V30 6696 H 627.921 -1.50174 2.05718 0
M  V30 6697 H 628.704 -0.5014 3.39619 0
M  V30 6698 N 631.149 -1.42148 -0.680565 0
M  V30 6699 C 632.059 -1.47565 -1.82378 0
M  V30 6700 C 633.075 -0.36489 -1.70131 0
M  V30 6701 O 634.251 -0.614916 -1.91783 0
M  V30 6702 C 631.316 -1.37013 -3.18478 0
M  V30 6703 C 630.377 -2.58532 -3.42724 0
M  V30 6704 C 629.61 -2.48473 -4.72331 0
M  V30 6705 O 629.833 -1.51745 -5.49845 0
M  V30 6706 O 628.767 -3.38503 -4.97694 0
M  V30 6707 H 632.593 -2.44045 -1.80764 0
M  V30 6708 H 630.178 -1.23849 -0.835569 0
M  V30 6709 H 632.06 -1.33468 -3.99705 0
M  V30 6710 H 630.735 -0.436552 -3.20743 0
M  V30 6711 H 629.642 -2.67652 -2.61368 0
M  V30 6712 H 630.975 -3.50769 -3.45286 0
M  V30 6713 N 632.627 0.916307 -1.28225 0
M  V30 6714 C 633.557 2.0352 -1.14464 0
M  V30 6715 C 634.538 1.70045 -0.0430844 0
M  V30 6716 O 635.723 1.92954 -0.219619 0
M  V30 6717 C 632.853 3.37889 -0.803027 0
M  V30 6718 C 631.807 3.85516 -1.85908 0
M  V30 6719 C 631.133 5.1682 -1.37116 0
M  V30 6720 C 632.433 4.07655 -3.26519 0
M  V30 6721 H 634.127 2.1529 -2.08064 0
M  V30 6722 H 631.673 1.03446 -1.00174 0
M  V30 6723 H 633.626 4.15654 -0.693537 0
M  V30 6724 H 632.35 3.26164 0.168674 0
M  V30 6725 H 631.009 3.09953 -1.95767 0
M  V30 6726 H 630.657 5.01497 -0.38859 0
M  V30 6727 H 630.357 5.49657 -2.07728 0
M  V30 6728 H 631.881 5.97143 -1.27484 0
M  V30 6729 H 633.295 4.75953 -3.19596 0
M  V30 6730 H 631.692 4.51818 -3.94943 0
M  V30 6731 H 632.762 3.12553 -3.70727 0
M  V30 6732 N 634.105 1.10431 1.1244 0
M  V30 6733 C 635.521 0.836096 1.35947 0
M  V30 6734 C 635.721 -0.544475 1.94004 0
M  V30 6735 O 634.777 -1.29735 2.16622 0
M  V30 6736 C 636.09 1.93575 2.30107 0
M  V30 6737 C 637.638 1.9642 2.43697 0
M  V30 6738 C 638.113 3.05559 3.41171 0
M  V30 6739 N 639.604 3.04865 3.48728 0
M  V30 6740 C 640.339 3.85954 4.24061 0
M  V30 6741 N 639.835 4.76977 5.02458 0
M  V30 6742 N 641.628 3.74172 4.19466 0
M  V30 6743 H 633.779 1.9942 0.731124 0
M  V30 6744 H 636.042 0.866607 0.384312 0
M  V30 6745 H 635.748 2.92943 1.94621 0
M  V30 6746 H 635.622 1.8229 3.30227 0
M  V30 6747 H 638.009 0.97685 2.78463 0
M  V30 6748 H 638.09 2.11782 1.43465 0
M  V30 6749 H 637.734 4.04513 3.07135 0
M  V30 6750 H 637.664 2.87438 4.41234 0
M  V30 6751 H 640.155 2.38908 2.92799 0
M  V30 6752 H 640.468 5.35409 5.57277 0
M  V30 6753 H 638.813 4.81006 5.01655 0
M  V30 6754 H 642.004 3.02412 3.57302 0
M  V30 6755 H 642.177 4.37602 4.77921 0
M  V30 6756 N 635.583 -1.29855 0.893053 0
M  V30 6757 C 636.533 -2.25493 0.337211 0
M  V30 6758 C 637.517 -1.51606 -0.53894 0
M  V30 6759 O 638.709 -1.72828 -0.382043 0
M  V30 6760 C 635.838 -3.40467 -0.440117 0
M  V30 6761 C 634.924 -4.217 0.450578 0
M  V30 6762 N 635.315 -4.81312 1.55476 0
M  V30 6763 C 633.613 -4.45315 0.247154 0
M  V30 6764 C 634.314 -5.42241 2.10593 0
M  V30 6765 N 633.29 -5.25267 1.39982 0
M  V30 6766 H 637.092 -2.69137 1.18079 0
M  V30 6767 H 634.606 -1.44388 0.743359 0
M  V30 6768 H 636.603 -4.08038 -0.855021 0
M  V30 6769 H 635.263 -2.98361 -1.28104 0
M  V30 6770 H 636.274 -4.80291 1.93755 0
M  V30 6771 H 632.951 -4.13782 -0.555939 0
M  V30 6772 H 634.341 -5.99517 3.03362 0
M  V30 6773 N 637.061 -0.65484 -1.43351 0
M  V30 6774 C 638.307 -0.169142 -2.02093 0
M  V30 6775 C 638.64 1.21431 -1.51553 0
M  V30 6776 O 637.915 1.81105 -0.709317 0
M  V30 6777 C 638.198 -0.181775 -3.59641 0
M  V30 6778 C 638.051 -1.59926 -4.20409 0
M  V30 6779 C 639.37 0.480945 -4.37464 0
M  V30 6780 H 636.489 -0.0629371 -0.734308 0
M  V30 6781 H 639.131 -0.835833 -1.70628 0
M  V30 6782 H 637.281 0.385918 -3.86578 0
M  V30 6783 H 638.953 -2.21766 -4.04497 0
M  V30 6784 H 637.196 -2.14605 -3.76998 0
M  V30 6785 H 637.867 -1.55994 -5.295 0
M  V30 6786 H 640.343 -0.00208273 -4.161 0
M  V30 6787 H 639.219 0.441384 -5.47122 0
M  V30 6788 H 639.48 1.55533 -4.13838 0
M  V30 6789 N 638.539 1.52521 -0.396863 0
M  V30 6790 C 639.489 2.2348 0.451722 0
M  V30 6791 C 640.473 1.2415 1.0235 0
M  V30 6792 O 641.665 1.4945 0.948348 0
M  V30 6793 C 638.794 3.05067 1.57445 0
M  V30 6794 C 637.88 4.11799 1.01404 0
M  V30 6795 N 638.271 5.05482 0.179234 0
M  V30 6796 C 636.569 4.27064 1.28578 0
M  V30 6797 C 637.27 5.81552 -0.131202 0
M  V30 6798 N 636.246 5.41523 0.474735 0
M  V30 6799 H 640.048 2.93269 -0.192534 0
M  V30 6800 H 637.562 1.61081 -0.206591 0
M  V30 6801 H 639.559 3.54446 2.19485 0
M  V30 6802 H 638.219 2.36816 2.22145 0
M  V30 6803 H 639.23 5.17573 -0.18411 0
M  V30 6804 H 635.907 3.70042 1.93327 0
M  V30 6805 H 637.297 6.67023 -0.808061 0
M  V30 6806 N 640.017 0.126909 1.57088 0
M  V30 6807 C 641.428 -0.397201 1.82426 0
M  V30 6808 C 641.779 -1.66084 1.04453 0
M  V30 6809 O 640.904 -2.14534 0.283552 0
M  V30 6810 C 641.499 -0.727411 3.30899 0
M  V30 6811 C 640.058 -1.19612 3.56889 0
M  V30 6812 C 639.205 -0.20885 2.76512 0
M  V30 6813 H 642.156 0.351924 1.54749 0
M  V30 6814 H 642.177 -1.58407 3.45959 0
M  V30 6815 H 641.689 0.19247 3.87622 0
M  V30 6816 H 639.79 -2.13263 3.05532 0
M  V30 6817 H 639.903 -1.13598 4.65438 0
M  V30 6818 H 638.267 -0.697479 2.44964 0
M  V30 6819 H 639.05 0.704267 3.35998 0
M  V30 6820 N 641.495 -1.56914 -0.146875 0
M  V30 6821 C 642.442 -1.98275 -1.18134 0
M  V30 6822 C 643.412 -0.850367 -1.42681 0
M  V30 6823 O 644.597 -1.11244 -1.55014 0
M  V30 6824 C 641.737 -2.36861 -2.5098 0
M  V30 6825 C 640.85 -3.63391 -2.33605 0
M  V30 6826 C 639.985 -3.91079 -3.59486 0
M  V30 6827 C 639.024 -5.10879 -3.37149 0
M  V30 6828 N 638.161 -5.34577 -4.55161 0
M  V30 6829 H 643.001 -2.8645 -0.821622 0
M  V30 6830 H 640.538 -1.41718 -0.394248 0
M  V30 6831 H 642.496 -2.57262 -3.28439 0
M  V30 6832 H 641.126 -1.51766 -2.84898 0
M  V30 6833 H 640.178 -3.50766 -1.47199 0
M  V30 6834 H 641.49 -4.51007 -2.13059 0
M  V30 6835 H 640.644 -4.11979 -4.45374 0
M  V30 6836 H 639.383 -3.01885 -3.83036 0
M  V30 6837 H 638.388 -4.89853 -2.49649 0
M  V30 6838 H 639.613 -6.01626 -3.14997 0
M  V30 6839 H 637.559 -4.48337 -4.78884 0
M  V30 6840 H 637.476 -6.16463 -4.37618 0
M  V30 6841 H 638.744 -5.59975 -5.42263 0
M  V30 6842 N 642.974 0.416227 -1.52004 0
M  V30 6843 C 644.251 1.17637 -1.56272 0
M  V30 6844 C 644.631 2.08352 -0.339493 0
M  V30 6845 O 643.979 2.1833 0.674124 0
M  V30 6846 C 644.189 1.95986 -2.88774 0
M  V30 6847 C 645.537 2.52299 -3.41512 0
M  V30 6848 O 646.561 2.06174 -2.90467 0
M  V30 6849 O 645.42 3.3648 -4.30631 0
M  V30 6850 H 642.514 0.536726 -0.629169 0
M  V30 6851 H 645.06 0.423583 -1.64329 0
M  V30 6852 H 643.832 1.29487 -3.69254 0
M  V30 6853 H 643.455 2.78285 -2.83978 0
M  V30 6854 N 644.452 1.42507 0.673017 0
M  V30 6855 C 645.382 1.48916 1.79851 0
M  V30 6856 C 646.363 0.345566 1.66553 0
M  V30 6857 O 647.548 0.560116 1.85947 0
M  V30 6858 C 644.678 1.39258 3.18158 0
M  V30 6859 C 643.632 2.51662 3.46194 0
M  V30 6860 C 642.958 2.27062 4.84094 0
M  V30 6861 C 644.258 3.93968 3.42909 0
M  V30 6862 H 645.952 2.43114 1.74745 0
M  V30 6863 H 643.498 1.17013 0.839288 0
M  V30 6864 H 645.451 1.42349 3.96629 0
M  V30 6865 H 644.175 0.415542 3.23946 0
M  V30 6866 H 642.834 2.47891 2.70084 0
M  V30 6867 H 642.482 1.27648 4.86534 0
M  V30 6868 H 642.182 3.02398 5.03815 0
M  V30 6869 H 643.706 2.31905 5.64847 0
M  V30 6870 H 645.12 3.99332 4.11347 0
M  V30 6871 H 643.517 4.6917 3.74165 0
M  V30 6872 H 644.587 4.20512 2.41449 0
M  V30 6873 N 645.93 -0.909495 1.28709 0
M  V30 6874 C 647.179 -1.65365 1.15487 0
M  V30 6875 C 647.492 -1.93364 -0.294941 0
M  V30 6876 O 648.698 -2.65905 -0.548338 0
M  V30 6877 C 647.154 -2.97923 2.01916 0
M  V30 6878 C 646.762 -2.77556 3.51663 0
M  V30 6879 C 648.506 -3.75814 1.97393 0
M  V30 6880 C 646.413 -4.0578 4.30229 0
M  V30 6881 H 645.343 -0.620323 0.42862 0
M  V30 6882 H 647.994 -1.00894 1.53273 0
M  V30 6883 H 646.376 -3.63552 1.5699 0
M  V30 6884 H 647.55 -2.2058 4.04575 0
M  V30 6885 H 645.865 -2.13072 3.57756 0
M  V30 6886 H 648.462 -4.70866 2.53357 0
M  V30 6887 H 648.805 -4.05277 0.951643 0
M  V30 6888 H 649.338 -3.1701 2.40311 0
M  V30 6889 H 646.077 -3.81488 5.33055 0
M  V30 6890 H 645.597 -4.62351 3.82089 0
M  V30 6891 H 647.276 -4.74004 4.40374 0
M  V30 6892 N 647.408 -1.11026 -1.11852 0
M  V30 6893 C 648.633 -0.879064 -1.87849 0
M  V30 6894 C 649.058 0.565406 -1.79401 0
M  V30 6895 O 648.416 1.39886 -1.15333 0
M  V30 6896 C 648.464 -1.33985 -3.34784 0
M  V30 6897 O 647.568 -0.508803 -4.09249 0
M  V30 6898 H 646.909 -0.316992 -0.583448 0
M  V30 6899 H 649.439 -1.47863 -1.41413 0
M  V30 6900 H 649.449 -1.33248 -3.85628 0
M  V30 6901 H 648.124 -2.39172 -3.40249 0
M  V30 6902 H 646.701 -0.581913 -3.68332 0
M  V30 6903 N 648.886 1.2938 -0.899927 0
M  V30 6904 C 650.134 1.95164 -0.524924 0
M  V30 6905 C 650.455 1.71292 0.931888 0
M  V30 6906 O 649.725 1.04481 1.65712 0
M  V30 6907 H 648.305 0.722133 -0.191135 0
M  V30 6908 H 650.967 1.57628 -1.14627 0
M  V30 6909 H 650.063 3.0397 -0.707711 0
M  V30 6910 N 650.364 0.662433 1.43002 0
M  V30 6911 C 651.274 -0.0239199 2.34588 0
M  V30 6912 C 652.29 -0.802255 1.54402 0
M  V30 6913 O 653.466 -0.747401 1.87018 0
M  V30 6914 C 650.531 -0.972098 3.32793 0
M  V30 6915 C 649.592 -0.189673 4.28881 0
M  V30 6916 C 648.825 -1.09269 5.22395 0
M  V30 6917 O 649.048 -2.33209 5.20547 0
M  V30 6918 O 647.982 -0.560136 5.99288 0
M  V30 6919 H 651.808 0.730171 2.94792 0
M  V30 6920 H 649.393 0.422635 1.43297 0
M  V30 6921 H 651.275 -1.51676 3.93157 0
M  V30 6922 H 649.95 -1.70626 2.75079 0
M  V30 6923 H 648.857 0.398794 3.71968 0
M  V30 6924 H 650.19 0.50511 4.89601 0
M  V30 6925 N 651.842 -1.52309 0.404946 0
M  V30 6926 C 653.091 -2.00952 -0.173529 0
M  V30 6927 C 653.404 -1.29512 -1.46581 0
M  V30 6928 O 654.61 -1.6895 -2.12528 0
M  V30 6929 C 653.066 -3.58097 -0.359801 0
M  V30 6930 C 652.674 -4.38449 0.920138 0
M  V30 6931 C 654.418 -4.14984 -0.893794 0
M  V30 6932 C 652.325 -5.87227 0.701285 0
M  V30 6933 H 651.255 -0.750871 -0.0686244 0
M  V30 6934 H 653.906 -1.75687 0.529749 0
M  V30 6935 H 652.288 -3.79675 -1.12531 0
M  V30 6936 H 653.462 -4.28633 1.69147 0
M  V30 6937 H 651.777 -3.92859 1.38024 0
M  V30 6938 H 654.374 -5.23813 -1.0735 0
M  V30 6939 H 654.717 -3.72072 -1.8673 0
M  V30 6940 H 655.25 -3.97358 -0.187453 0
M  V30 6941 H 651.989 -6.34491 1.64624 0
M  V30 6942 H 651.509 -5.99792 -0.0308288 0
M  V30 6943 H 653.188 -6.46096 0.341846 0
M  V30 6944 N 653.32 -0.135238 -1.57019 0
M  V30 6945 C 654.548 0.526066 -2.001 0
M  V30 6946 C 654.963 1.59184 -1.01519 0
M  V30 6947 O 654.32 1.82497 -0.0104258 0
M  V30 6948 C 654.371 1.13744 -3.43139 0
M  V30 6949 O 654.092 0.114259 -4.37951 0
M  V30 6950 C 655.593 1.8805 -4.01438 0
M  V30 6951 H 652.813 0.137962 -0.656664 0
M  V30 6952 H 655.357 -0.226359 -2.03243 0
M  V30 6953 H 653.512 1.84056 -3.40885 0
M  V30 6954 H 653.926 0.56058 -5.21496 0
M  V30 6955 H 655.4 2.26133 -5.03555 0
M  V30 6956 H 655.877 2.76194 -3.41487 0
M  V30 6957 H 656.483 1.22464 -4.07287 0
M  V30 6958 N 654.798 1.5699 0.138552 0
M  V30 6959 C 656.209 1.73171 0.697754 0
M  V30 6960 C 656.56 0.750952 1.8126 0
M  V30 6961 O 655.685 -0.080549 2.1625 0
M  V30 6962 C 656.28 3.13996 1.27248 0
M  V30 6963 C 654.839 3.3175 1.77816 0
M  V30 6964 C 653.986 2.69084 0.669991 0
M  V30 6965 H 656.937 1.5846 -0.0871979 0
M  V30 6966 H 656.958 3.14463 2.14227 0
M  V30 6967 H 656.47 3.85354 0.460855 0
M  V30 6968 H 654.571 2.65403 2.61519 0
M  V30 6969 H 654.684 4.39768 1.90107 0
M  V30 6970 H 653.048 2.29782 1.09874 0
M  V30 6971 H 653.831 3.43053 -0.130329 0
M  V30 6972 N 656.276 -0.40816 1.52223 0
M  V30 6973 C 657.525 -1.15212 1.65557 0
M  V30 6974 C 657.838 -1.9163 0.392096 0
M  V30 6975 O 659.044 -2.68458 0.405256 0
M  V30 6976 C 657.5 -2.09691 2.92502 0
M  V30 6977 C 657.108 -1.38785 4.25961 0
M  V30 6978 C 658.852 -2.8434 3.152 0
M  V30 6979 C 656.759 -2.31919 5.44029 0
M  V30 6980 H 655.689 -0.433776 0.616729 0
M  V30 6981 H 658.34 -0.4165 1.78711 0
M  V30 6982 H 656.722 -2.8681 2.7305 0
M  V30 6983 H 657.896 -0.670248 4.55899 0
M  V30 6984 H 656.211 -0.761741 4.09373 0
M  V30 6985 H 658.808 -3.54166 4.00587 0
M  V30 6986 H 659.151 -3.47344 2.29473 0
M  V30 6987 H 659.684 -2.14321 3.35129 0
M  V30 6988 H 656.423 -1.7356 6.32105 0
M  V30 6989 H 655.943 -3.0165 5.18428 0
M  V30 6990 H 657.622 -2.92424 5.77146 0
M  V30 6991 N 657.755 -1.42862 -0.66545 0
M  V30 6992 C 659.003 -1.43546 -1.42264 0
M  V30 6993 C 659.324 -0.0563116 -1.94919 0
M  V30 6994 O 658.594 0.906568 -1.73661 0
M  V30 6995 H 657.174 -0.528464 -0.527953 0
M  V30 6996 H 659.836 -1.78363 -0.785665 0
M  V30 6997 H 658.932 -2.14079 -2.27105 0
M  V30 6998 N 659.233 0.902656 -1.29189 0
M  V30 6999 C 660.649 1.18296 -1.07137 0
M  V30 7000 C 660.849 2.00701 0.179223 0
M  V30 7001 O 659.905 2.3675 0.877812 0
M  V30 7002 C 661.218 1.90677 -2.32514 0
M  V30 7003 C 662.766 2.03515 -2.37804 0
M  V30 7004 C 663.241 2.79307 -3.62976 0
M  V30 7005 N 664.732 2.86862 -3.63681 0
M  V30 7006 C 665.467 3.46035 -4.57217 0
M  V30 7007 N 664.963 4.06399 -5.61081 0
M  V30 7008 N 666.756 3.43681 -4.44792 0
M  V30 7009 H 658.907 0.352765 -2.0945 0
M  V30 7010 H 661.17 0.21876 -0.922414 0
M  V30 7011 H 660.876 1.3756 -3.23682 0
M  V30 7012 H 660.75 2.91169 -2.39793 0
M  V30 7013 H 663.137 2.55809 -1.47125 0
M  V30 7014 H 663.218 1.02166 -2.34512 0
M  V30 7015 H 662.862 2.2769 -4.54004 0
M  V30 7016 H 662.792 3.80995 -3.63525 0
M  V30 7017 H 665.283 2.43987 -2.88581 0
M  V30 7018 H 665.596 4.49564 -6.2858 0
M  V30 7019 H 663.941 4.0487 -5.64894 0
M  V30 7020 H 667.132 2.9574 -3.62843 0
M  V30 7021 H 667.305 3.89503 -5.17872 0
M  V30 7022 N 660.711 1.11618 1.11262 0
M  V30 7023 C 662.127 0.850468 1.35053 0
M  V30 7024 C 662.327 -0.523868 1.94571 0
M  V30 7025 O 661.383 -1.2743 2.17986 0
M  V30 7026 C 662.696 1.96005 2.28041 0
M  V30 7027 C 664.244 1.98993 2.416 0
M  V30 7028 C 664.719 3.0916 3.37911 0
M  V30 7029 N 666.21 3.08547 3.45475 0
M  V30 7030 C 666.945 3.9043 4.19943 0
M  V30 7031 N 666.441 4.8228 4.97371 0
M  V30 7032 N 668.234 3.786 4.15474 0
M  V30 7033 H 660.385 2.00184 0.709932 0
M  V30 7034 H 662.648 0.870635 0.375099 0
M  V30 7035 H 662.354 2.9499 1.91503 0
M  V30 7036 H 662.228 1.85782 3.28275 0
M  V30 7037 H 664.615 1.00633 2.77411 0
M  V30 7038 H 664.696 2.13292 1.4121 0
M  V30 7039 H 664.34 4.07748 3.02827 0
M  V30 7040 H 664.27 2.92102 4.3816 0
M  V30 7041 H 666.761 2.42 2.90249 0
M  V30 7042 H 667.074 5.41289 5.51567 0
M  V30 7043 H 665.419 4.863 4.96525 0
M  V30 7044 H 668.61 3.06185 3.54074 0
M  V30 7045 H 668.783 4.42647 4.73253 0
M  V30 7046 N 662.189 -1.289 0.906776 0
M  V30 7047 C 663.437 -1.94883 0.535266 0
M  V30 7048 C 663.758 -1.71784 -0.922791 0
M  V30 7049 O 663.028 -1.05359 -1.65156 0
M  V30 7050 H 661.608 -0.721109 0.194962 0
M  V30 7051 H 664.27 -1.57018 1.15461 0
M  V30 7052 H 663.366 -3.03591 0.723821 0
M  V30 7053 N 663.667 -0.670007 -1.42649 0
M  V30 7054 C 664.897 -0.198252 -2.05647 0
M  V30 7055 C 665.305 1.14786 -1.50402 0
M  V30 7056 O 664.648 1.72316 -0.636634 0
M  V30 7057 C 664.71 -0.0507132 -3.59464 0
M  V30 7058 C 664.374 -1.32478 -4.37377 0
M  V30 7059 C 665.371 -2.2572 -4.68344 0
M  V30 7060 C 663.056 -1.57104 -4.77099 0
M  V30 7061 C 665.05 -3.4187 -5.37963 0
M  V30 7062 C 662.737 -2.73543 -5.46459 0
M  V30 7063 C 663.735 -3.65751 -5.76815 0
M  V30 7064 O 663.423 -4.80154 -6.44753 0
M  V30 7065 H 663.155 -0.0950721 -0.669281 0
M  V30 7066 H 665.709 -0.915745 -1.83857 0
M  V30 7067 H 663.939 0.722314 -3.79894 0
M  V30 7068 H 665.628 0.380552 -4.04112 0
M  V30 7069 H 666.394 -2.07943 -4.38161 0
M  V30 7070 H 662.273 -0.862069 -4.52868 0
M  V30 7071 H 665.817 -4.13861 -5.61574 0
M  V30 7072 H 661.714 -2.91248 -5.7606 0
M  V30 7073 H 662.482 -4.79637 -6.63243 0
M  V30 7074 N 665.145 1.52092 -0.413018 0
M  V30 7075 C 666.556 1.86617 0.0556967 0
M  V30 7076 C 666.907 1.33156 1.44097 0
M  V30 7077 O 666.032 0.672417 2.05688 0
M  V30 7078 C 666.627 3.38628 0.107844 0
M  V30 7079 C 665.186 3.72778 0.520904 0
M  V30 7080 C 664.333 2.75649 -0.302109 0
M  V30 7081 H 667.284 1.45663 -0.629919 0
M  V30 7082 H 667.305 3.69152 0.922324 0
M  V30 7083 H 666.817 3.77508 -0.900506 0
M  V30 7084 H 664.918 3.39478 1.53575 0
M  V30 7085 H 665.031 4.7838 0.262591 0
M  V30 7086 H 663.395 2.53603 0.236115 0
M  V30 7087 H 664.178 3.17369 -1.30888 0
M  V30 7088 N 666.623 0.143563 1.56945 0
M  V30 7089 C 667.586 -0.783295 2.154 0
M  V30 7090 C 668.586 -1.17763 1.09492 0
M  V30 7091 O 669.776 -1.09912 1.35148 0
M  V30 7092 C 666.908 -2.06248 2.7143 0
M  V30 7093 H 668.101 -0.274863 2.98638 0
M  V30 7094 H 665.654 -0.105859 1.55941 0
M  V30 7095 H 666.389 -2.61466 1.91849 0
M  V30 7096 H 666.174 -1.78897 3.4891 0
M  V30 7097 H 667.664 -2.72453 3.16479 0
M  V30 7098 N 668.101 -1.57061 -0.130224 0
M  V30 7099 C 669.512 -1.73539 -0.68856 0
M  V30 7100 C 669.863 -0.760554 -1.80859 0
M  V30 7101 O 668.988 0.0690796 -2.1629 0
M  V30 7102 C 669.583 -3.14666 -1.25581 0
M  V30 7103 C 668.142 -3.32689 -1.76055 0
M  V30 7104 C 667.289 -2.69436 -0.655712 0
M  V30 7105 H 670.24 -1.58412 0.0956002 0
M  V30 7106 H 670.261 -3.15595 -2.12556 0
M  V30 7107 H 669.773 -3.85593 -0.440412 0
M  V30 7108 H 667.874 -2.66786 -2.60108 0
M  V30 7109 H 667.987 -4.4077 -1.87772 0
M  V30 7110 H 666.351 -2.30362 -1.08654 0
M  V30 7111 H 667.134 -3.42979 0.14852 0
M  V30 7112 N 669.579 0.400081 -1.52437 0
M  V30 7113 C 670.828 1.14332 -1.66166 0
M  V30 7114 C 671.141 1.91419 -0.402253 0
M  V30 7115 O 672.347 2.6824 -0.419487 0
M  V30 7116 C 670.803 2.08137 -2.9361 0
M  V30 7117 C 670.411 1.36524 -4.26691 0
M  V30 7118 C 672.155 2.82664 -3.16703 0
M  V30 7119 C 670.062 2.29031 -5.45251 0
M  V30 7120 H 668.992 0.430499 -0.61902 0
M  V30 7121 H 671.643 0.407017 -1.78929 0
M  V30 7122 H 670.025 2.85358 -2.74567 0
M  V30 7123 H 671.199 0.646061 -4.56249 0
M  V30 7124 H 669.514 0.74002 -4.09771 0
M  V30 7125 H 672.111 3.52037 -4.0246 0
M  V30 7126 H 672.454 3.46122 -2.31312 0
M  V30 7127 H 672.987 2.12541 -3.36261 0
M  V30 7128 H 669.726 1.70206 -6.33017 0
M  V30 7129 H 669.246 2.98896 -5.2002 0
M  V30 7130 H 670.925 2.89359 -5.78689 0
M  V30 7131 N 671.057 1.43213 0.657864 0
M  V30 7132 C 672.303 1.44798 1.41991 0
M  V30 7133 C 672.636 0.070256 1.94073 0
M  V30 7134 O 671.911 -0.908177 1.71995 0
M  V30 7135 C 672.194 2.4865 2.60471 0
M  V30 7136 C 672.047 3.95679 2.13911 0
M  V30 7137 C 673.366 2.49292 3.62686 0
M  V30 7138 H 670.485 0.527244 0.514959 0
M  V30 7139 H 673.127 1.74733 0.74621 0
M  V30 7140 H 671.277 2.23254 3.17946 0
M  V30 7141 H 672.949 4.32116 1.61472 0
M  V30 7142 H 671.192 4.08733 1.45325 0
M  V30 7143 H 671.863 4.6395 2.99089 0
M  V30 7144 H 674.339 2.71917 3.14961 0
M  V30 7145 H 673.215 3.23907 4.43143 0
M  V30 7146 H 673.476 1.52502 4.14964 0
M  V30 7147 N 672.536 -0.895792 1.29666 0
M  V30 7148 C 673.484 -2.02173 1.15017 0
M  V30 7149 C 674.478 -1.69276 0.0647651 0
M  V30 7150 O 675.684 -1.7859 0.224846 0
M  V30 7151 H 672.059 -0.662719 0.355397 0
M  V30 7152 H 674.03 -2.11666 2.10334 0
M  V30 7153 C 672.779 -3.37212 0.847555 0
M  V30 7154 H 672.102 -3.6303 1.67479 0
M  V30 7155 H 673.542 -4.16668 0.785106 0
M  V30 7156 C 672.001 -3.33891 -0.44929 0
M  V30 7157 O 672.531 -3.73673 -1.47415 0
M  V30 7158 N 670.737 -2.86991 -0.456547 0
M  V30 7159 H 670.284 -2.54813 0.377925 0
M  V30 7160 H 670.242 -2.85152 -1.32423 0
M  V30 7161 N 674.014 -1.12206 -1.10668 0
M  V30 7162 C 674.964 -0.75669 -2.15077 0
M  V30 7163 C 675.948 0.243154 -1.59052 0
M  V30 7164 O 677.14 0.0490268 -1.76932 0
M  V30 7165 C 674.269 -0.210303 -3.42655 0
M  V30 7166 C 673.355 -1.23829 -4.05619 0
M  V30 7167 N 673.746 -2.43513 -4.43323 0
M  V30 7168 C 672.044 -1.08309 -4.32649 0
M  V30 7169 C 672.745 -3.09138 -4.92756 0
M  V30 7170 N 671.721 -2.36593 -4.89413 0
M  V30 7171 H 675.523 -1.66747 -2.42018 0
M  V30 7172 H 673.037 -1.00248 -1.27765 0
M  V30 7173 H 675.034 0.0696287 -4.16842 0
M  V30 7174 H 673.694 0.694967 -3.17176 0
M  V30 7175 H 674.705 -2.80912 -4.35097 0
M  V30 7176 H 671.382 -0.234919 -4.16839 0
M  V30 7177 H 672.772 -4.11049 -5.31496 0
M  V30 7178 N 675.492 1.28418 -0.913599 0
M  V30 7179 C 676.44 2.29272 -0.392037 0
M  V30 7180 C 677.434 1.61344 0.516198 0
M  V30 7181 O 678.64 1.75557 0.39746 0
M  V30 7182 H 675.015 0.744178 -0.108178 0
M  V30 7183 H 676.986 2.70691 -1.25574 0
M  V30 7184 C 675.735 3.45905 0.352815 0
M  V30 7185 H 675.058 3.98378 -0.336848 0
M  V30 7186 H 676.498 4.18473 0.682398 0
M  V30 7187 C 674.957 2.98572 1.56065 0
M  V30 7188 O 675.487 3.01033 2.65974 0
M  V30 7189 N 673.693 2.54235 1.40759 0
M  V30 7190 H 673.24 2.52432 0.513403 0
M  V30 7191 H 673.198 2.22925 2.21702 0
M  V30 7192 N 676.97 0.677563 1.42291 0
M  V30 7193 C 677.9 0.014968 2.33495 0
M  V30 7194 C 678.881 -0.786376 1.50831 0
M  V30 7195 O 680.066 -0.742975 1.79426 0
M  V30 7196 C 677.196 -0.935023 3.34477 0
M  V30 7197 C 676.15 -0.242074 4.27315 0
M  V30 7198 C 675.476 -1.30519 5.18526 0
M  V30 7199 C 676.776 0.880604 5.14823 0
M  V30 7200 H 678.47 0.776671 2.89151 0
M  V30 7201 H 676.016 0.37494 1.39033 0
M  V30 7202 H 677.969 -1.40766 3.97194 0
M  V30 7203 H 676.693 -1.72818 2.77131 0
M  V30 7204 H 675.352 0.210351 3.65996 0
M  V30 7205 H 675 -2.09041 4.57505 0
M  V30 7206 H 674.7 -0.846652 5.81468 0
M  V30 7207 H 676.224 -1.7787 5.84119 0
M  V30 7208 H 677.638 0.489062 5.7121 0
M  V30 7209 H 676.035 1.26511 5.86613 0
M  V30 7210 H 677.105 1.72818 4.53059 0
M  V30 7211 N 678.448 -1.51871 0.421078 0
M  V30 7212 C 679.864 -1.59435 0.0725398 0
M  V30 7213 C 680.064 -1.43315 -1.41644 0
M  V30 7214 O 679.12 -1.26614 -2.18461 0
M  V30 7215 C 680.433 -2.9509 0.578132 0
M  V30 7216 C 681.981 -3.08356 0.537149 0
M  V30 7217 C 682.456 -4.4651 1.01945 0
M  V30 7218 N 683.947 -4.52784 0.976758 0
M  V30 7219 C 684.682 -5.57976 1.32099 0
M  V30 7220 N 684.178 -6.70664 1.73727 0
M  V30 7221 N 685.971 -5.48248 1.2402 0
M  V30 7222 H 678.122 -1.60595 1.39007 0
M  V30 7223 H 680.385 -0.756138 0.571803 0
M  V30 7224 H 680.091 -3.12205 1.61929 0
M  V30 7225 H 679.965 -3.772 -0.00578374 0
M  V30 7226 H 682.352 -2.90919 -0.494991 0
M  V30 7227 H 682.433 -2.28125 1.15727 0
M  V30 7228 H 682.077 -4.64692 2.04997 0
M  V30 7229 H 682.007 -5.25256 0.376023 0
M  V30 7230 H 684.498 -3.71898 0.670851 0
M  V30 7231 H 684.811 -7.46932 1.98274 0
M  V30 7232 H 683.156 -6.71914 1.77641 0
M  V30 7233 H 686.347 -4.59095 0.913756 0
M  V30 7234 H 686.52 -6.30119 1.51176 0
M  V30 7235 N 679.926 -0.151884 -1.56866 0
M  V30 7236 C 680.858 0.817008 -2.14144 0
M  V30 7237 C 681.871 1.20735 -1.0921 0
M  V30 7238 O 683.06 1.15058 -1.36469 0
M  V30 7239 C 680.16 2.10844 -2.65326 0
M  V30 7240 C 679.333 1.88471 -3.94712 0
M  V30 7241 C 678.392 3.01649 -4.31155 0
M  V30 7242 O 677.418 2.73127 -4.9939 0
M  V30 7243 N 678.62 4.28947 -3.91132 0
M  V30 7244 H 681.385 0.327448 -2.97906 0
M  V30 7245 H 678.946 0.0315313 -1.61869 0
M  V30 7246 H 680.938 2.85616 -2.86715 0
M  V30 7247 H 679.508 2.51049 -1.86262 0
M  V30 7248 H 678.728 0.977088 -3.81899 0
M  V30 7249 H 680.016 1.70866 -4.79252 0
M  V30 7250 H 679.414 4.54986 -3.36161 0
M  V30 7251 H 677.971 5.00484 -4.17563 0
M  V30 7252 N 681.404 1.57128 0.121893 0
M  V30 7253 C 682.351 2.0013 1.14964 0
M  V30 7254 C 683.321 0.872959 1.4131 0
M  V30 7255 O 684.506 1.13696 1.53225 0
M  V30 7256 C 681.646 2.40824 2.4718 0
M  V30 7257 C 680.759 3.67061 2.27794 0
M  V30 7258 C 679.894 3.96749 3.53219 0
M  V30 7259 C 678.933 5.16178 3.28978 0
M  V30 7260 N 678.07 5.41751 4.46599 0
M  V30 7261 H 682.91 2.8772 0.775947 0
M  V30 7262 H 680.447 1.42328 0.371652 0
M  V30 7263 H 682.405 2.62454 3.24305 0
M  V30 7264 H 681.035 1.56279 2.82448 0
M  V30 7265 H 680.087 3.53063 1.416 0
M  V30 7266 H 681.399 4.5434 2.05857 0
M  V30 7267 H 680.553 4.19012 4.38764 0
M  V30 7268 H 679.292 3.07941 3.78185 0
M  V30 7269 H 678.297 4.93762 2.41824 0
M  V30 7270 H 679.522 6.06561 3.05386 0
M  V30 7271 H 677.468 4.55899 4.71691 0
M  V30 7272 H 677.385 6.23347 4.27756 0
M  V30 7273 H 678.653 5.68531 5.33285 0
M  V30 7274 N 682.882 -0.391992 1.52647 0
M  V30 7275 C 683.814 -1.49811 1.73463 0
M  V30 7276 C 684.827 -1.50734 0.615078 0
M  V30 7277 O 686.016 -1.5469 0.890696 0
M  V30 7278 C 683.116 -2.88667 1.77552 0
M  V30 7279 C 682.289 -3.11743 3.06815 0
M  V30 7280 C 681.348 -4.30564 3.02491 0
M  V30 7281 O 680.374 -4.27014 3.76361 0
M  V30 7282 N 681.576 -5.36593 2.21468 0
M  V30 7283 H 684.341 -1.32343 2.68897 0
M  V30 7284 H 681.902 -0.581475 1.51098 0
M  V30 7285 H 683.894 -3.66251 1.7217 0
M  V30 7286 H 682.464 -2.99508 0.895181 0
M  V30 7287 H 681.684 -2.2205 3.25711 0
M  V30 7288 H 682.972 -3.24013 3.92292 0
M  V30 7289 H 682.37 -5.42332 1.60913 0
M  V30 7290 H 680.927 -6.12855 2.21928 0
M  V30 7291 N 684.36 -1.4356 -0.65026 0
M  V30 7292 C 685.607 -1.45333 -1.41012 0
M  V30 7293 C 685.935 -0.0787282 -1.94341 0
M  V30 7294 O 685.19 0.916715 -1.72901 0
M  V30 7295 C 685.489 -2.44528 -2.60654 0
M  V30 7296 C 685.155 -3.90331 -2.25727 0
M  V30 7297 C 683.817 -4.3004 -2.15914 0
M  V30 7298 C 686.169 -4.822 -1.97821 0
M  V30 7299 C 683.497 -5.59568 -1.76354 0
M  V30 7300 C 685.849 -6.12095 -1.59759 0
M  V30 7301 C 684.513 -6.50778 -1.48473 0
M  V30 7302 H 683.783 -0.531813 -0.516 0
M  V30 7303 H 686.43 -1.76657 -0.739219 0
M  V30 7304 H 684.735 -2.06619 -3.3289 0
M  V30 7305 H 686.432 -2.43155 -3.18868 0
M  V30 7306 H 683.022 -3.58905 -2.34276 0
M  V30 7307 H 687.206 -4.5229 -2.04322 0
M  V30 7308 H 682.462 -5.88376 -1.66205 0
M  V30 7309 H 686.636 -6.82751 -1.37198 0
M  V30 7310 H 684.263 -7.5105 -1.17591 0
M  V30 7311 N 685.838 0.888903 -1.30139 0
M  V30 7312 C 686.785 1.99422 -1.16188 0
M  V30 7313 C 687.755 1.66017 -0.0523869 0
M  V30 7314 O 688.94 1.89506 -0.221864 0
M  V30 7315 C 686.08 3.34325 -0.855612 0
M  V30 7316 C 685.193 3.80445 -2.0466 0
M  V30 7317 C 684.328 5.03975 -1.67876 0
M  V30 7318 C 683.367 5.42492 -2.83493 0
M  V30 7319 N 682.504 6.57206 -2.47032 0
M  V30 7320 H 687.344 2.10687 -2.10749 0
M  V30 7321 H 684.881 1.03165 -1.04859 0
M  V30 7322 H 686.839 4.11968 -0.658681 0
M  V30 7323 H 685.469 3.22756 0.0531155 0
M  V30 7324 H 684.521 2.98745 -2.3549 0
M  V30 7325 H 685.833 4.04933 -2.91257 0
M  V30 7326 H 684.987 5.89232 -1.44535 0
M  V30 7327 H 683.726 4.8135 -0.784431 0
M  V30 7328 H 682.731 4.55764 -3.07505 0
M  V30 7329 H 683.956 5.67093 -3.73607 0
M  V30 7330 H 681.902 6.36164 -1.601 0
M  V30 7331 H 681.819 6.81543 -3.27161 0
M  V30 7332 H 683.087 7.45704 -2.27038 0
M  V30 7333 N 687.317 1.12792 1.10072 0
M  V30 7334 C 688.28 0.802264 2.14701 0
M  V30 7335 C 689.28 -0.18515 1.59731 0
M  V30 7336 O 690.47 0.041109 1.74151 0
M  V30 7337 C 687.602 0.19285 3.40354 0
M  V30 7338 H 688.795 1.72932 2.45019 0
M  V30 7339 H 686.348 0.931662 1.25498 0
M  V30 7340 H 687.083 -0.743748 3.15656 0
M  V30 7341 H 686.868 0.903827 3.81541 0
M  V30 7342 H 688.358 -0.0183704 4.17596 0
M  V30 7343 N 688.795 -1.27931 0.920396 0
M  V30 7344 C 689.725 -2.29487 0.431024 0
M  V30 7345 C 690.706 -1.62435 -0.504861 0
M  V30 7346 O 691.891 -1.89797 -0.411176 0
M  V30 7347 C 689.021 -3.45788 -0.323709 0
M  V30 7348 C 687.975 -4.24784 0.523658 0
M  V30 7349 C 687.301 -5.33488 -0.359809 0
M  V30 7350 C 688.601 -4.90874 1.78437 0
M  V30 7351 H 690.295 -2.70671 1.27975 0
M  V30 7352 H 687.841 -1.30121 0.616813 0
M  V30 7353 H 689.794 -4.15927 -0.676952 0
M  V30 7354 H 688.518 -3.03502 -1.2064 0
M  V30 7355 H 687.177 -3.56382 0.85951 0
M  V30 7356 H 686.825 -4.87445 -1.24124 0
M  V30 7357 H 686.525 -5.87247 0.203605 0
M  V30 7358 H 688.049 -6.06472 -0.708787 0
M  V30 7359 H 689.463 -5.53339 1.49963 0
M  V30 7360 H 687.86 -5.54659 2.29071 0
M  V30 7361 H 688.93 -4.14988 2.50824 0
M  V30 7362 N 690.273 -0.685099 -1.4193 0
M  V30 7363 C 691.503 -0.220052 -2.05425 0
M  V30 7364 C 691.911 1.13185 -1.51611 0
M  V30 7365 O 691.254 1.71631 -0.654875 0
M  V30 7366 C 691.316 -0.0888364 -3.5939 0
M  V30 7367 C 690.98 -1.37109 -4.35947 0
M  V30 7368 C 691.977 -2.30675 -4.65924 0
M  V30 7369 C 689.662 -1.62155 -4.75406 0
M  V30 7370 C 691.656 -3.47556 -5.34306 0
M  V30 7371 C 689.343 -2.79324 -5.43527 0
M  V30 7372 C 690.341 -3.71848 -5.72903 0
M  V30 7373 O 690.029 -4.86966 -6.39624 0
M  V30 7374 H 689.761 -0.102165 -0.668235 0
M  V30 7375 H 692.315 -0.935194 -1.82875 0
M  V30 7376 H 690.545 0.681981 -3.80639 0
M  V30 7377 H 692.234 0.337669 -4.04493 0
M  V30 7378 H 693 -2.12579 -4.3593 0
M  V30 7379 H 688.879 -0.910053 -4.51928 0
M  V30 7380 H 692.423 -4.19794 -5.57153 0
M  V30 7381 H 688.32 -2.97342 -5.72938 0
M  V30 7382 H 689.088 -4.86644 -6.58118 0
M  V30 7383 N 691.751 1.51645 -0.429126 0
M  V30 7384 C 692.699 2.29119 0.400921 0
M  V30 7385 C 693.693 1.34628 1.02819 0
M  V30 7386 O 694.899 1.52004 0.964098 0
M  V30 7387 H 691.274 0.737273 0.148095 0
M  V30 7388 H 693.245 2.97144 -0.273457 0
M  V30 7389 C 691.994 3.13953 1.49429 0
M  V30 7390 H 691.317 3.86544 1.02097 0
M  V30 7391 H 692.757 3.71232 2.04849 0
M  V30 7392 C 691.216 2.28796 2.47293 0
M  V30 7393 O 691.746 1.94193 3.51642 0
M  V30 7394 N 689.952 1.92177 2.17982 0
M  V30 7395 H 689.499 2.20517 1.33154 0
M  V30 7396 H 689.457 1.35497 2.83704 0
M  V30 7397 N 693.229 0.160201 1.56784 0
M  V30 7398 C 694.161 -0.80564 2.14574 0
M  V30 7399 C 695.174 -1.20154 1.09849 0
M  V30 7400 O 696.363 -1.14333 1.37078 0
M  V30 7401 C 693.463 -2.09434 2.6644 0
M  V30 7402 C 692.636 -1.86375 3.95706 0
M  V30 7403 C 691.695 -2.99358 4.32749 0
M  V30 7404 O 690.721 -2.70475 5.00831 0
M  V30 7405 N 691.923 -4.26867 3.93402 0
M  V30 7406 H 694.688 -0.311644 2.98075 0
M  V30 7407 H 692.249 -0.0229465 1.61884 0
M  V30 7408 H 694.241 -2.84091 2.88226 0
M  V30 7409 H 692.811 -2.50057 1.8759 0
M  V30 7410 H 692.031 -0.956821 3.82412 0
M  V30 7411 H 693.319 -1.68322 4.80151 0
M  V30 7412 H 692.717 -4.53197 3.38569 0
M  V30 7413 H 691.274 -4.98263 4.20211 0
M  V30 7414 N 694.707 -1.5719 -0.113559 0
M  V30 7415 C 695.637 -2.03772 -1.14013 0
M  V30 7416 C 696.618 -0.923176 -1.42869 0
M  V30 7417 O 697.803 -1.19325 -1.53216 0
M  V30 7418 C 694.933 -2.44663 -2.4649 0
M  V30 7419 C 693.887 -3.59612 -2.32085 0
M  V30 7420 C 693.213 -3.8642 -3.69573 0
M  V30 7421 C 694.513 -4.91149 -1.7768 0
M  V30 7422 H 696.207 -2.89785 -0.752665 0
M  V30 7423 H 693.753 -1.39412 -0.360609 0
M  V30 7424 H 695.706 -2.75857 -3.18561 0
M  V30 7425 H 694.43 -1.55628 -2.87137 0
M  V30 7426 H 693.089 -3.28636 -1.62461 0
M  V30 7427 H 692.737 -2.94581 -4.07715 0
M  V30 7428 H 692.437 -4.63797 -3.60786 0
M  V30 7429 H 693.961 -4.2007 -4.4314 0
M  V30 7430 H 695.375 -5.20843 -2.39574 0
M  V30 7431 H 693.772 -5.72562 -1.79701 0
M  V30 7432 H 694.842 -4.79301 -0.734776 0
M  V30 7433 N 696.185 0.383891 -1.52853 0
M  V30 7434 C 697.132 1.46924 -1.77995 0
M  V30 7435 C 698.102 1.53958 -0.623396 0
M  V30 7436 O 699.287 1.70134 -0.863657 0
M  V30 7437 C 696.427 2.84093 -1.95921 0
M  V30 7438 C 695.54 2.86171 -3.23621 0
M  V30 7439 C 694.675 4.14799 -3.31836 0
M  V30 7440 C 693.714 4.10948 -4.53639 0
M  V30 7441 N 692.851 5.31192 -4.59107 0
M  V30 7442 H 697.691 1.24786 -2.70615 0
M  V30 7443 H 695.228 0.605265 -1.34071 0
M  V30 7444 H 697.186 3.63755 -2.04299 0
M  V30 7445 H 695.816 3.04671 -1.06656 0
M  V30 7446 H 694.868 1.9885 -3.24288 0
M  V30 7447 H 696.18 2.79194 -4.13343 0
M  V30 7448 H 695.334 5.02867 -3.39425 0
M  V30 7449 H 694.073 4.24505 -2.40097 0
M  V30 7450 H 693.078 3.21268 -4.46169 0
M  V30 7451 H 694.303 4.0286 -5.467 0
M  V30 7452 H 692.249 5.41518 -3.70262 0
M  V30 7453 H 692.166 5.26311 -5.42708 0
M  V30 7454 H 693.434 6.21143 -4.70958 0
M  V30 7455 N 697.663 1.43903 0.642637 0
M  V30 7456 C 698.626 1.49538 1.73698 0
M  V30 7457 C 699.626 0.378776 1.56275 0
M  V30 7458 O 700.816 0.64095 1.6198 0
M  V30 7459 C 697.948 1.35821 3.12675 0
M  V30 7460 H 699.141 2.47008 1.70079 0
M  V30 7461 H 696.694 1.30824 0.85526 0
M  V30 7462 H 697.429 0.393994 3.21898 0
M  V30 7463 H 697.214 2.16776 3.26727 0
M  V30 7464 H 698.704 1.4272 3.92455 0
M  V30 7465 N 699.141 -0.881989 1.30609 0
M  V30 7466 C 700.104 -1.96957 1.1722 0
M  V30 7467 C 701.104 -1.60472 0.102598 0
M  V30 7468 O 702.294 -1.70628 0.350943 0
M  V30 7469 C 699.426 -3.31463 0.796572 0
M  V30 7470 H 700.619 -2.10262 2.13846 0
M  V30 7471 H 698.172 -1.06877 1.14048 0
M  V30 7472 H 698.907 -3.23859 -0.169053 0
M  V30 7473 H 698.692 -3.59314 1.56959 0
M  V30 7474 H 700.182 -4.11233 0.72645 0
M  V30 7475 N 700.619 -1.13374 -1.09472 0
M  V30 7476 C 701.868 -0.889844 -1.8101 0
M  V30 7477 C 702.181 0.585686 -1.86625 0
M  V30 7478 O 703.387 0.946497 -2.54467 0
M  V30 7479 C 701.843 -1.54241 -3.25174 0
M  V30 7480 C 701.451 -3.05343 -3.27826 0
M  V30 7481 C 703.195 -1.37919 -4.0147 0
M  V30 7482 C 701.102 -3.63486 -4.6651 0
M  V30 7483 H 700.032 -0.329256 -0.678311 0
M  V30 7484 H 702.683 -1.36139 -1.23038 0
M  V30 7485 H 701.065 -0.998525 -3.83204 0
M  V30 7486 H 702.239 -3.66307 -2.79563 0
M  V30 7487 H 700.554 -3.21175 -2.65019 0
M  V30 7488 H 703.151 -1.78771 -5.03929 0
M  V30 7489 H 703.494 -0.323987 -4.15037 0
M  V30 7490 H 704.027 -1.89284 -3.49881 0
M  V30 7491 H 700.766 -4.68811 -4.58145 0
M  V30 7492 H 700.286 -3.073 -5.15099 0
M  V30 7493 H 701.965 -3.63134 -5.35484 0
M  V30 7494 N 702.098 1.27442 -0.927168 0
M  V30 7495 C 703.061 2.2512 -0.430525 0
M  V30 7496 C 704.061 1.54357 0.450619 0
M  V30 7497 O 705.251 1.72371 0.251774 0
M  V30 7498 C 702.383 3.38763 0.381144 0
M  V30 7499 H 703.576 2.70569 -1.29354 0
M  V30 7500 H 701.129 1.39355 -0.707806 0
M  V30 7501 H 701.864 2.98695 1.263 0
M  V30 7502 H 701.649 3.91298 -0.250618 0
M  V30 7503 H 703.139 4.11364 0.719012 0
M  V30 7504 N 703.576 0.692616 1.41565 0
M  V30 7505 C 704.486 0.0258451 2.34586 0
M  V30 7506 C 705.502 -0.769324 1.56069 0
M  V30 7507 O 706.678 -0.707563 1.88562 0
M  V30 7508 C 703.743 -0.901289 3.3478 0
M  V30 7509 C 702.804 -0.0986579 4.29187 0
M  V30 7510 C 702.037 -0.981634 5.24595 0
M  V30 7511 O 702.26 -2.22115 5.25377 0
M  V30 7512 O 701.194 -0.432892 6.00341 0
M  V30 7513 H 705.02 0.792537 2.93177 0
M  V30 7514 H 702.605 0.452935 1.42369 0
M  V30 7515 H 704.487 -1.43302 3.96286 0
M  V30 7516 H 703.162 -1.64752 2.78637 0
M  V30 7517 H 702.069 0.477604 3.71039 0
M  V30 7518 H 703.402 0.608848 4.8842 0
M  V30 7519 N 705.054 -1.51416 0.437162 0
M  V30 7520 C 706.465 -1.86682 -0.0260005 0
M  V30 7521 C 706.816 -1.35432 -1.4196 0
M  V30 7522 O 705.941 -0.705055 -2.04592 0
M  V30 7523 C 706.536 -3.38757 -0.0539577 0
M  V30 7524 C 705.095 -3.7356 -0.461532 0
M  V30 7525 C 704.242 -2.75134 0.345924 0
M  V30 7526 H 707.193 -1.44642 0.653013 0
M  V30 7527 H 707.214 -3.70573 -0.863478 0
M  V30 7528 H 706.726 -3.76028 0.96045 0
M  V30 7529 H 704.827 -3.41878 -1.48155 0
M  V30 7530 H 704.94 -4.78737 -0.186451 0
M  V30 7531 H 703.304 -2.53947 -0.195739 0
M  V30 7532 H 704.087 -3.15247 1.35921 0
M  V30 7533 N 706.532 -0.168513 -1.56696 0
M  V30 7534 C 707.442 0.775435 -2.21414 0
M  V30 7535 C 708.458 1.25529 -1.20492 0
M  V30 7536 O 709.634 1.30801 -1.53144 0
M  V30 7537 C 706.699 1.9886 -2.83999 0
M  V30 7538 C 705.76 1.5559 -4.00113 0
M  V30 7539 C 704.993 2.71124 -4.59704 0
M  V30 7540 O 705.216 3.87917 -4.18182 0
M  V30 7541 O 704.15 2.4536 -5.4962 0
M  V30 7542 H 707.976 0.254416 -3.02632 0
M  V30 7543 H 705.561 0.0595507 -1.49281 0
M  V30 7544 H 707.443 2.69816 -3.23693 0
M  V30 7545 H 706.118 2.49874 -2.05779 0
M  V30 7546 H 705.025 0.815924 -3.65094 0
M  V30 7547 H 706.358 1.09271 -4.79917 0
M  V30 7548 N 708.01 1.57248 0.105221 0
M  V30 7549 C 708.973 2.00388 1.11252 0
M  V30 7550 C 709.973 0.89594 1.33527 0
M  V30 7551 O 711.163 1.16166 1.29811 0
M  V30 7552 C 708.295 2.35589 2.46395 0
M  V30 7553 H 709.488 2.90591 0.741424 0
M  V30 7554 H 707.041 1.52332 0.349956 0
M  V30 7555 H 707.776 1.4831 2.884 0
M  V30 7556 H 707.561 3.16408 2.31578 0
M  V30 7557 H 709.051 2.69658 3.18864 0
M  V30 7558 N 709.488 -0.375779 1.53054 0
M  V30 7559 C 710.398 -1.48381 1.81715 0
M  V30 7560 C 711.414 -1.59087 0.704795 0
M  V30 7561 O 712.59 -1.75174 0.993785 0
M  V30 7562 C 709.655 -2.83767 1.99192 0
M  V30 7563 C 708.716 -2.82673 3.23102 0
M  V30 7564 C 707.949 -4.11601 3.39736 0
M  V30 7565 O 708.172 -5.07243 2.60885 0
M  V30 7566 O 707.106 -4.18034 4.33049 0
M  V30 7567 H 710.932 -1.27089 2.7583 0
M  V30 7568 H 708.517 -0.564902 1.38308 0
M  V30 7569 H 710.399 -3.64004 2.12318 0
M  V30 7570 H 709.074 -3.05057 1.08267 0
M  V30 7571 H 707.981 -2.0117 3.15407 0
M  V30 7572 H 709.314 -2.66335 4.13916 0
M  V30 7573 N 710.966 -1.44241 -0.634997 0
M  V30 7574 C 712.377 -1.41622 -1.21655 0
M  V30 7575 C 712.728 -0.129584 -1.95772 0
M  V30 7576 O 711.853 0.770225 -2.02229 0
M  V30 7577 C 712.448 -2.56557 -2.21278 0
M  V30 7578 C 711.007 -2.57145 -2.7487 0
M  V30 7579 C 710.154 -2.33354 -1.49804 0
M  V30 7580 H 713.105 -1.52878 -0.425905 0
M  V30 7581 H 713.126 -2.29089 -3.03807 0
M  V30 7582 H 712.638 -3.50186 -1.67306 0
M  V30 7583 H 710.739 -1.67447 -3.32855 0
M  V30 7584 H 710.852 -3.55507 -3.21172 0
M  V30 7585 H 709.216 -1.82372 -1.77799 0
M  V30 7586 H 709.999 -3.29092 -0.977402 0
M  V30 7587 N 712.444 0.87505 -1.31075 0
M  V30 7588 C 713.721 1.60976 -1.11113 0
M  V30 7589 C 714.101 2.08409 0.336006 0
M  V30 7590 O 713.449 1.85858 1.32924 0
M  V30 7591 C 713.659 2.77166 -2.12085 0
M  V30 7592 C 715.007 3.47254 -2.44335 0
M  V30 7593 O 716.031 2.87367 -2.10472 0
M  V30 7594 O 714.89 4.55276 -3.02301 0
M  V30 7595 H 711.984 0.707982 -0.427424 0
M  V30 7596 H 714.53 0.920957 -1.42536 0
M  V30 7597 H 713.302 2.39494 -3.09449 0
M  V30 7598 H 712.925 3.53737 -1.81538 0
M  V30 7599 N 713.922 1.13953 1.08869 0
M  V30 7600 C 715.147 0.928559 1.85452 0
M  V30 7601 C 715.572 -0.517642 1.80837 0
M  V30 7602 O 714.93 -1.36779 1.19001 0
M  V30 7603 C 714.978 1.42814 3.31114 0
M  V30 7604 O 714.082 0.617129 4.07756 0
M  V30 7605 H 713.423 0.33235 0.574839 0
M  V30 7606 H 715.953 1.5156 1.37443 0
M  V30 7607 H 715.963 1.43425 3.8196 0
M  V30 7608 H 714.638 2.48109 3.33788 0
M  V30 7609 H 713.215 0.679365 3.66659 0
M  V30 7610 O 715.439 -1.21416 1.06491 0
M  V30 7611 H 716.13 -1.7871 0.747168 0
M  V30 END ATOM
M  V30 BEGIN BOND
M  V30 END BOND
M  V30 END CTAB
M  END
$$$$
