drugbank_target|P05364 Beta-lactamase (DB02122; DB02816; DB02876; DB03970; DB04123; DB08109; DB08110; DB09060; DB12107; DB12377)
 OpenBabel12092119543D

  0  0  0     0  0            999 V3000
M  V30 BEGIN CTAB
M  V30 COUNTS 5820 5896 0 0 0
M  V30 BEGIN ATOM
M  V30 1 H -0.908 1.98254 -0.117106 0
M  V30 2 N 0 1.576 0 0
M  V30 3 C 0.933 2.03868 1.02534 0
M  V30 4 C 1.911 0.928543 1.3348 0
M  V30 5 O 3.095 1.19667 1.45644 0
M  V30 6 C 0.222 2.43627 2.35294 0
M  V30 7 C -0.732 3.65373 2.2001 0
M  V30 8 S 0.101 5.13292 1.52614 0
M  V30 9 C 1.257 5.56322 2.86805 0
M  V30 10 H 1.49 2.90518 0.631377 0
M  V30 11 H -0.977 1.52953 0.210867 0
M  V30 12 H 0.981 2.67203 3.11629 0
M  V30 13 H -0.358 1.57376 2.7183 0
M  V30 14 H -1.165 3.90944 3.18086 0
M  V30 15 H -1.563 3.418 1.51819 0
M  V30 16 H 0.729 5.58782 3.83104 0
M  V30 17 H 1.672 6.56266 2.65933 0
M  V30 18 H 2.08 4.83886 2.90714 0
M  V30 19 N 1.4781 -0.272755 1.55222 0
M  V30 20 C 2.4111 -1.3627 1.83046 0
M  V30 21 C 3.3891 -1.47536 0.683521 0
M  V30 22 O 4.5731 -1.64157 0.926545 0
M  V30 23 C 1.7001 -2.73908 1.99229 0
M  V30 24 C 0.7461 -2.79925 3.21783 0
M  V30 25 S 1.5791 -2.39146 4.79134 0
M  V30 26 C 2.7351 -3.78758 4.9829 0
M  V30 27 H 2.9681 -1.12464 2.75207 0
M  V30 28 H 0.5011 -0.472398 1.46996 0
M  V30 29 H 2.4591 -3.53171 2.09238 0
M  V30 30 H 1.1201 -2.94965 1.07956 0
M  V30 31 H 0.3131 -3.80946 3.29994 0
M  V30 32 H -0.0849 -2.08683 3.10367 0
M  V30 33 H 2.2071 -4.7403 4.84047 0
M  V30 34 H 3.1501 -3.75499 6.00338 0
M  V30 35 H 3.5581 -3.70072 4.26271 0
M  V30 36 N 2.9562 -1.48159 -0.537278 0
M  V30 37 C 4.3722 -1.34118 -0.865129 0
M  V30 38 C 4.5722 -0.346678 -1.98495 0
M  V30 39 O 3.6282 0.234715 -2.51407 0
M  V30 40 C 4.9412 -2.73963 -1.23954 0
M  V30 41 C 6.4892 -2.82397 -1.34984 0
M  V30 42 C 6.9642 -4.22928 -1.75772 0
M  V30 43 N 8.4552 -4.25566 -1.82887 0
M  V30 44 C 9.1902 -5.31235 -2.15817 0
M  V30 45 N 8.6862 -6.47189 -2.47222 0
M  V30 46 N 10.4792 -5.18624 -2.16761 0
M  V30 47 H 2.6302 -2.1144 0.201715 0
M  V30 48 H 4.8932 -0.947598 0.0275949 0
M  V30 49 H 4.5992 -3.48264 -0.490381 0
M  V30 50 H 4.4732 -3.0702 -2.19132 0
M  V30 51 H 6.8602 -2.08356 -2.08978 0
M  V30 52 H 6.9412 -2.5297 -0.379448 0
M  V30 53 H 6.5852 -4.97482 -1.02341 0
M  V30 54 H 6.5152 -4.49794 -2.73848 0
M  V30 55 H 9.0062 -3.41924 -1.60924 0
M  V30 56 H 9.3192 -7.23564 -2.71433 0
M  V30 57 H 7.6642 -6.50476 -2.44757 0
M  V30 58 H 10.8552 -4.27056 -1.91679 0
M  V30 59 H 11.0282 -6.01078 -2.42093 0
M  V30 60 N 4.4343 0.785586 -1.36625 0
M  V30 61 C 5.3813 1.89838 -1.31264 0
M  V30 62 C 6.3513 1.65115 -0.180633 0
M  V30 63 O 7.5363 1.87222 -0.36777 0
M  V30 64 C 4.6763 3.26706 -1.11163 0
M  V30 65 C 3.7893 3.63476 -2.33472 0
M  V30 66 C 2.9243 4.89481 -2.06353 0
M  V30 67 C 1.9633 5.18941 -3.24602 0
M  V30 68 N 1.1003 6.36131 -2.97123 0
M  V30 69 H 5.9403 1.93756 -2.26413 0
M  V30 70 H 3.4773 0.947454 -1.12524 0
M  V30 71 H 5.4353 4.05639 -0.975337 0
M  V30 72 H 4.0653 3.222 -0.196674 0
M  V30 73 H 3.1173 2.79636 -2.57891 0
M  V30 74 H 4.4293 3.81193 -3.21704 0
M  V30 75 H 3.5833 5.76288 -1.89675 0
M  V30 76 H 2.3223 4.73841 -1.15437 0
M  V30 77 H 1.3273 4.30615 -3.41834 0
M  V30 78 H 2.5523 5.36498 -4.16349 0
M  V30 79 H 0.4983 6.21875 -2.08823 0
M  V30 80 H 0.4153 6.54198 -3.78894 0
M  V30 81 H 1.6833 7.2591 -2.84033 0
M  V30 82 N 5.9124 1.20967 1.01018 0
M  V30 83 C 7.1374 1.0503 1.78839 0
M  V30 84 C 7.5624 -0.395752 1.8389 0
M  V30 85 O 6.9204 -1.28529 1.27867 0
M  V30 86 C 6.9684 1.64602 3.2084 0
M  V30 87 O 6.0724 0.887988 4.02726 0
M  V30 88 H 5.4134 0.369987 0.551367 0
M  V30 89 H 7.9434 1.60399 1.27018 0
M  V30 90 H 7.9534 1.68607 3.71532 0
M  V30 91 H 6.6284 2.69841 3.16479 0
M  V30 92 H 5.2054 0.922648 3.61305 0
M  V30 93 N 7.3905 -1.2043 1.01659 0
M  V30 94 C 8.3205 -2.25466 0.607226 0
M  V30 95 C 9.3015 -1.65853 -0.377716 0
M  V30 96 O 10.4865 -1.92409 -0.263149 0
M  V30 97 C 7.6165 -3.47256 -0.0552949 0
M  V30 98 C 6.5705 -4.19462 0.850632 0
M  V30 99 C 5.8965 -5.34673 0.0538859 0
M  V30 100 C 7.1965 -4.75603 2.15868 0
M  V30 101 H 8.8905 -2.59962 1.48526 0
M  V30 102 H 6.4365 -1.2496 0.715605 0
M  V30 103 H 8.3895 -4.19917 -0.353233 0
M  V30 104 H 7.1135 -3.11924 -0.968045 0
M  V30 105 H 5.7725 -3.48667 1.13257 0
M  V30 106 H 5.4205 -4.95585 -0.860514 0
M  V30 107 H 5.1205 -5.83913 0.657192 0
M  V30 108 H 6.6445 -6.10138 -0.237598 0
M  V30 109 H 8.0585 -5.40083 1.92311 0
M  V30 110 H 6.4555 -5.3528 2.71284 0
M  V30 111 H 7.5255 -3.94346 2.82169 0
M  V30 112 N 8.8686 -0.792821 -1.36206 0
M  V30 113 C 10.1086 -0.372238 -2.00982 0
M  V30 114 C 10.4726 1.03749 -1.61555 0
M  V30 115 O 11.6736 1.55934 -2.18948 0
M  V30 116 C 9.9446 -0.534566 -3.5338 0
M  V30 117 S 11.5036 -0.202365 -4.38333 0
M  V30 118 H 8.3216 -0.142044 -0.696667 0
M  V30 119 H 10.9236 -1.03206 -1.66039 0
M  V30 120 H 9.6276 -1.5608 -3.79562 0
M  V30 121 H 9.1586 0.141065 -3.93147 0
M  V30 122 H 11.1736 0.994869 -4.86124 0
M  V30 123 N 10.3467 1.47872 -0.545128 0
M  V30 124 C 11.5867 2.04391 -0.0187854 0
M  V30 125 C 11.9507 1.41162 1.30144 0
M  V30 126 O 13.1517 1.88656 1.91474 0
M  V30 127 C 11.4227 3.57299 0.0850867 0
M  V30 128 S 12.9817 4.35221 0.559302 0
M  V30 129 H 9.7997 0.710737 -0.0193301 0
M  V30 130 H 12.4017 1.81395 -0.729125 0
M  V30 131 H 11.1057 4.00847 -0.880351 0
M  V30 132 H 10.6367 3.84773 0.819348 0
M  V30 133 H 12.6517 4.61571 1.82118 0
M  V30 134 N 11.8248 0.280983 1.55075 0
M  V30 135 C 12.7878 -0.590896 2.21452 0
M  V30 136 C 13.7878 -1.07682 1.19421 0
M  V30 137 O 14.9778 -0.97605 1.44288 0
M  V30 138 C 12.1098 -1.81587 2.88511 0
M  V30 139 H 13.3028 -0.0112554 2.99898 0
M  V30 140 H 10.8558 0.0316438 1.56268 0
M  V30 141 H 11.5908 -2.43587 2.14093 0
M  V30 142 H 11.3758 -1.4753 3.63287 0
M  V30 143 H 12.8658 -2.43575 3.39206 0
M  V30 144 N 13.3029 -1.57598 0.00835791 0
M  V30 145 C 14.2329 -2.1198 -0.979113 0
M  V30 146 C 15.2139 -1.03091 -1.35301 0
M  V30 147 O 16.3989 -1.30818 -1.43528 0
M  V30 148 C 13.5289 -2.62995 -2.26828 0
M  V30 149 C 12.4829 -3.76485 -2.03576 0
M  V30 150 C 11.8089 -4.13846 -3.38579 0
M  V30 151 C 13.1089 -5.0342 -1.39161 0
M  V30 152 H 14.8029 -2.94738 -0.526281 0
M  V30 153 H 12.3489 -1.41783 -0.251704 0
M  V30 154 H 14.3019 -2.99669 -2.96271 0
M  V30 155 H 13.0259 -1.7737 -2.7424 0
M  V30 156 H 11.6849 -3.40217 -1.36557 0
M  V30 157 H 11.3329 -3.25232 -3.83709 0
M  V30 158 H 11.0329 -4.90312 -3.23834 0
M  V30 159 H 12.5569 -4.53086 -4.09323 0
M  V30 160 H 13.9709 -5.37812 -1.98573 0
M  V30 161 H 12.3679 -5.84746 -1.34878 0
M  V30 162 H 13.4379 -4.83548 -0.361868 0
M  V30 163 N 14.781 0.264519 -1.55364 0
M  V30 164 C 15.711 1.33121 -1.91836 0
M  V30 165 C 16.692 1.51101 -0.781192 0
M  V30 166 O 17.877 1.64003 -1.04003 0
M  V30 167 C 15.007 2.68921 -2.19769 0
M  V30 168 C 13.961 2.65661 -3.35571 0
M  V30 169 C 13.287 4.05093 -3.49004 0
M  V30 170 C 14.587 2.24187 -4.71739 0
M  V30 171 H 16.281 1.02844 -2.81182 0
M  V30 172 H 13.827 0.493286 -1.35287 0
M  V30 173 H 15.78 3.43663 -2.43872 0
M  V30 174 H 14.504 3.00799 -1.27231 0
M  V30 175 H 13.163 1.93377 -3.1145 0
M  V30 176 H 12.811 4.34206 -2.53917 0
M  V30 177 H 12.511 4.03804 -4.26868 0
M  V30 178 H 14.035 4.81561 -3.75408 0
M  V30 179 H 15.449 2.88654 -4.9533 0
M  V30 180 H 13.846 2.34044 -5.52579 0
M  V30 181 H 14.916 1.19327 -4.69988 0
M  V30 182 N 16.2591 1.48442 0.529413 0
M  V30 183 C 17.1891 1.65902 1.64313 0
M  V30 184 C 18.1701 0.507897 1.6234 0
M  V30 185 O 19.3551 0.740503 1.79528 0
M  V30 186 C 16.4851 1.69911 3.02898 0
M  V30 187 C 15.4391 2.8453 3.19729 0
M  V30 188 C 14.7651 2.73629 4.59381 0
M  V30 189 C 16.0651 4.25821 3.02447 0
M  V30 190 H 17.7591 2.5914 1.49955 0
M  V30 191 H 15.3051 1.24709 0.719982 0
M  V30 192 H 17.2581 1.80715 3.80684 0
M  V30 193 H 15.9821 0.732524 3.18279 0
M  V30 194 H 14.6411 2.73283 2.44361 0
M  V30 195 H 14.2891 1.74938 4.71599 0
M  V30 196 H 13.9891 3.50541 4.71588 0
M  V30 197 H 15.5131 2.86401 5.39265 0
M  V30 198 H 16.9271 4.37898 3.70024 0
M  V30 199 H 15.3241 5.03735 3.26146 0
M  V30 200 H 16.3941 4.42244 1.98867 0
M  V30 201 N 17.7372 -0.778329 1.37039 0
M  V30 202 C 18.9852 -1.53361 1.31623 0
M  V30 203 C 19.3062 -1.94739 -0.100831 0
M  V30 204 O 18.5762 -1.65797 -1.04347 0
M  V30 205 H 17.1562 -0.568794 0.484234 0
M  V30 206 H 19.8182 -0.926742 1.71457 0
M  V30 207 H 18.9142 -2.43606 1.95096 0
M  V30 208 N 19.2153 -1.21501 -1.00376 0
M  V30 209 C 20.4643 -1.02718 -1.73586 0
M  V30 210 C 20.7773 0.439589 -1.90596 0
M  V30 211 O 21.9833 0.746848 -2.61026 0
M  V30 212 C 20.4393 -1.78929 -3.1227 0
M  V30 213 C 20.0473 -3.29783 -3.03228 0
M  V30 214 C 21.7913 -1.68557 -3.89601 0
M  V30 215 C 19.6983 -3.98479 -4.36999 0
M  V30 216 H 18.6283 -0.380733 -0.650814 0
M  V30 217 H 21.2793 -1.45248 -1.1214 0
M  V30 218 H 19.6613 -1.29192 -3.74333 0
M  V30 219 H 20.8353 -3.86832 -2.50395 0
M  V30 220 H 19.1503 -3.40711 -2.39385 0
M  V30 221 H 21.7473 -2.17211 -4.88593 0
M  V30 222 H 22.0903 -0.644021 -4.11288 0
M  V30 223 H 22.6233 -2.15778 -3.34193 0
M  V30 224 H 19.3623 -5.02841 -4.20513 0
M  V30 225 H 18.8823 -3.46219 -4.89788 0
M  V30 226 H 20.5613 -4.03462 -5.05794 0
M  V30 227 N 20.6934 1.19889 -1.02296 0
M  V30 228 C 21.9184 1.9393 -0.735237 0
M  V30 229 C 22.3434 1.74639 0.698782 0
M  V30 230 O 21.7014 1.04481 1.48167 0
M  V30 231 C 21.7494 3.43916 -1.08417 0
M  V30 232 O 20.8534 4.11917 -0.199446 0
M  V30 233 H 20.1944 0.605645 -0.272196 0
M  V30 234 H 22.7244 1.52137 -1.36804 0
M  V30 235 H 22.7344 3.9456 -1.03856 0
M  V30 236 H 21.4094 3.5728 -2.12894 0
M  V30 237 H 19.9864 3.71666 -0.303136 0
M  V30 238 N 22.1715 0.800033 1.35784 0
M  V30 239 C 23.4115 0.382891 2.00782 0
M  V30 240 C 23.7755 -1.02891 1.62103 0
M  V30 241 O 24.9765 -1.54771 2.19771 0
M  V30 242 C 23.2475 0.553299 3.53091 0
M  V30 243 S 24.8065 0.225608 4.3822 0
M  V30 244 H 21.6245 0.145737 0.695904 0
M  V30 245 H 24.2265 1.04085 1.65489 0
M  V30 246 H 22.9305 1.58091 3.78729 0
M  V30 247 H 22.4615 -0.120214 3.93216 0
M  V30 248 H 24.4765 -0.969074 4.86645 0
M  V30 249 N 23.6496 -1.47581 0.552962 0
M  V30 250 C 24.8746 -2.07378 0.0300593 0
M  V30 251 C 25.2996 -1.40355 -1.25229 0
M  V30 252 O 24.6576 -0.477099 -1.7491 0
M  V30 253 C 24.7056 -3.60274 -0.153231 0
M  V30 254 O 23.8096 -3.94041 -1.21678 0
M  V30 255 H 23.1506 -0.662158 0.0494182 0
M  V30 256 H 25.6806 -1.89662 0.767434 0
M  V30 257 H 25.6906 -4.0633 -0.368761 0
M  V30 258 H 24.3656 -4.08455 0.783397 0
M  V30 259 H 22.9426 -3.59735 -0.982079 0
M  V30 260 N 25.1277 -0.289203 -1.54924 0
M  V30 261 C 26.0907 0.579144 -2.21762 0
M  V30 262 C 27.0907 1.07047 -1.1999 0
M  V30 263 O 28.2807 0.968384 -1.44803 0
M  V30 264 C 25.4127 1.80055 -2.8947 0
M  V30 265 H 26.6057 -0.00464908 -2.999 0
M  V30 266 H 24.1587 -0.0399306 -1.56249 0
M  V30 267 H 24.8937 2.42449 -2.15381 0
M  V30 268 H 24.6787 1.45602 -3.64064 0
M  V30 269 H 26.1687 2.41773 -3.40493 0
M  V30 270 N 26.6058 1.57591 -0.0167156 0
M  V30 271 C 27.5358 2.12496 0.967858 0
M  V30 272 C 28.5168 1.03807 1.34752 0
M  V30 273 O 29.7018 1.31577 1.42833 0
M  V30 274 C 26.8318 2.64194 2.25431 0
M  V30 275 C 25.7858 3.77559 2.01576 0
M  V30 276 C 25.1118 4.15636 3.36379 0
M  V30 277 C 26.4118 5.04151 1.36489 0
M  V30 278 H 28.1058 2.95013 0.510643 0
M  V30 279 H 25.6518 1.41915 0.244181 0
M  V30 280 H 27.6048 3.01236 2.94678 0
M  V30 281 H 26.3288 1.78821 2.73296 0
M  V30 282 H 24.9878 3.40937 1.34751 0
M  V30 283 H 24.6358 3.27263 3.81979 0
M  V30 284 H 24.3358 4.92022 3.21229 0
M  V30 285 H 25.8598 4.5525 4.06915 0
M  V30 286 H 27.2738 5.38857 1.95718 0
M  V30 287 H 25.6708 5.85453 1.31776 0
M  V30 288 H 26.7408 4.83733 0.336219 0
M  V30 289 N 28.0839 -0.256276 1.55502 0
M  V30 290 C 29.0469 -1.30047 1.88734 0
M  V30 291 C 30.0469 -1.4154 0.763086 0
M  V30 292 O 31.2369 -1.40403 1.03115 0
M  V30 293 C 28.3689 -2.67953 2.10747 0
M  V30 294 H 29.5619 -1.01802 2.82093 0
M  V30 295 H 27.1149 -0.495134 1.4825 0
M  V30 296 H 27.8499 -3.01351 1.19825 0
M  V30 297 H 27.6349 -2.60993 2.92617 0
M  V30 298 H 29.1249 -3.43368 2.37673 0
M  V30 299 N 29.562 -1.4872 -0.521534 0
M  V30 300 C 30.79 -1.60843 -1.30142 0
M  V30 301 C 31.205 -0.271897 -1.86832 0
M  V30 302 O 30.562 0.739969 -1.66825 0
M  V30 303 C 30.613 -2.66155 -2.4463 0
M  V30 304 O 30.334 -3.94623 -1.90275 0
M  V30 305 C 31.835 -2.88795 -3.36322 0
M  V30 306 H 29.055 -0.542075 -0.395468 0
M  V30 307 H 31.599 -1.94609 -0.628285 0
M  V30 308 H 29.754 -2.35224 -3.07812 0
M  V30 309 H 30.168 -4.52468 -2.65279 0
M  V30 310 H 31.642 -3.66264 -4.12983 0
M  V30 311 H 32.119 -1.97934 -3.9207 0
M  V30 312 H 32.725 -3.21063 -2.78924 0
M  V30 313 N 31.0401 0.771051 -1.3745 0
M  V30 314 C 32.4511 1.34737 -1.29239 0
M  V30 315 C 32.8021 1.96109 0.0596908 0
M  V30 316 O 31.9271 1.93865 0.961534 0
M  V30 317 C 32.5221 2.44973 -2.34037 0
M  V30 318 C 31.0811 2.98372 -2.29458 0
M  V30 319 C 30.2281 1.71595 -2.17831 0
M  V30 320 H 33.1791 0.571256 -1.48062 0
M  V30 321 H 33.2001 3.24471 -1.98744 0
M  V30 322 H 32.7121 2.00276 -3.32432 0
M  V30 323 H 30.8131 3.47443 -1.34589 0
M  V30 324 H 30.9261 3.53939 -3.229 0
M  V30 325 H 29.2901 1.94547 -1.64388 0
M  V30 326 H 30.0731 1.29001 -3.18141 0
M  V30 327 N 32.5182 1.22032 0.997298 0
M  V30 328 C 33.7642 1.04376 1.73878 0
M  V30 329 C 34.0972 -0.420716 1.89588 0
M  V30 330 O 33.3722 -1.31202 1.43583 0
M  V30 331 C 33.6552 1.75047 3.14691 0
M  V30 332 C 33.5082 3.29062 3.06656 0
M  V30 333 C 34.8272 1.49928 4.13775 0
M  V30 334 H 31.9462 0.380578 0.631133 0
M  V30 335 H 34.5882 1.50312 1.16217 0
M  V30 336 H 32.7382 1.35996 3.63919 0
M  V30 337 H 34.4102 3.7753 2.65083 0
M  V30 338 H 32.6532 3.58967 2.43568 0
M  V30 339 H 33.3242 3.73683 4.06282 0
M  V30 340 H 35.8002 1.83842 3.73285 0
M  V30 341 H 34.6762 2.01878 5.10428 0
M  V30 342 H 34.9372 0.430929 4.39995 0
M  V30 343 N 33.9963 -1.19345 1.0293 0
M  V30 344 C 35.2213 -1.93538 0.745511 0
M  V30 345 C 35.6463 -1.75007 -0.689511 0
M  V30 346 O 35.0043 -1.05265 -1.47611 0
M  V30 347 C 35.0523 -3.43336 1.10239 0
M  V30 348 O 34.1563 -4.11806 0.221289 0
M  V30 349 H 33.4973 -0.604193 0.275404 0
M  V30 350 H 36.0273 -1.5141 1.37609 0
M  V30 351 H 36.0373 -3.94004 1.05947 0
M  V30 352 H 34.7123 -3.56146 2.14786 0
M  V30 353 H 33.2893 -3.715 0.322842 0
M  V30 354 N 35.4744 -0.807222 -1.35358 0
M  V30 355 C 36.3844 -0.219594 -2.3357 0
M  V30 356 C 37.4004 0.637734 -1.61892 0
M  V30 357 O 38.5764 0.549336 -1.93763 0
M  V30 358 C 35.6414 0.62158 -3.41083 0
M  V30 359 C 34.7024 -0.256315 -4.28534 0
M  V30 360 C 33.9354 0.544807 -5.30912 0
M  V30 361 O 34.1584 1.77944 -5.41934 0
M  V30 362 O 33.0924 -0.0646478 -6.01865 0
M  V30 363 H 36.9184 -1.03208 -2.85625 0
M  V30 364 H 34.5034 -0.569025 -1.38139 0
M  V30 365 H 36.3854 1.10067 -4.06772 0
M  V30 366 H 35.0604 1.41165 -2.91297 0
M  V30 367 H 33.9674 -0.782559 -3.65823 0
M  V30 368 H 35.3004 -1.01034 -4.81719 0
M  V30 369 N 36.9525 1.47285 -0.560781 0
M  V30 370 C 37.8995 2.30058 0.18491 0
M  V30 371 C 38.8695 1.39281 0.904986 0
M  V30 372 O 40.0545 1.68241 0.899979 0
M  V30 373 C 37.1945 3.23317 1.20666 0
M  V30 374 C 36.3075 4.29186 0.492285 0
M  V30 375 C 35.4425 5.09592 1.49964 0
M  V30 376 C 34.4815 6.07232 0.770439 0
M  V30 377 N 33.6185 6.80584 1.72479 0
M  V30 378 H 38.4585 2.93302 -0.527048 0
M  V30 379 H 35.9955 1.44568 -0.271738 0
M  V30 380 H 37.9535 3.75811 1.81168 0
M  V30 381 H 36.5835 2.61929 1.88661 0
M  V30 382 H 35.6355 3.7972 -0.227333 0
M  V30 383 H 36.9475 4.98738 -0.0787929 0
M  V30 384 H 36.1015 5.66254 2.17809 0
M  V30 385 H 34.8405 4.3995 2.10464 0
M  V30 386 H 33.8455 5.49745 0.0780846 0
M  V30 387 H 35.0705 6.78884 0.171134 0
M  V30 388 H 33.0165 6.1367 2.3183 0
M  V30 389 H 32.9335 7.46319 1.20596 0
M  V30 390 H 34.2015 7.41818 2.39428 0
M  V30 391 N 38.4306 0.297415 1.54768 0
M  V30 392 C 39.3626 -0.613881 2.20826 0
M  V30 393 C 40.3756 -1.10032 1.19987 0
M  V30 394 O 41.5646 -1.01839 1.46598 0
M  V30 395 C 38.6646 -1.852 2.83821 0
M  V30 396 C 37.8376 -1.50865 4.10559 0
M  V30 397 C 36.8966 -2.60154 4.57391 0
M  V30 398 O 35.9226 -2.25398 5.2267 0
M  V30 399 N 37.1246 -3.90629 4.29406 0
M  V30 400 H 39.8896 -0.048389 2.99661 0
M  V30 401 H 37.4506 0.11946 1.61459 0
M  V30 402 H 39.4426 -2.57652 3.12086 0
M  V30 403 H 38.0126 -2.32597 2.08847 0
M  V30 404 H 37.2326 -0.616925 3.89343 0
M  V30 405 H 38.5206 -1.25458 4.9309 0
M  V30 406 H 37.9186 -4.21677 3.77101 0
M  V30 407 H 36.4756 -4.59391 4.62388 0
M  V30 408 N 39.9087 -1.5758 0.0250728 0
M  V30 409 C 40.8387 -2.13007 -0.956575 0
M  V30 410 C 41.8197 -1.0452 -1.342 0
M  V30 411 O 43.0047 -1.32332 -1.42133 0
M  V30 412 C 40.1347 -2.65386 -2.24026 0
M  V30 413 C 39.0887 -3.78623 -1.99571 0
M  V30 414 C 38.4147 -4.17414 -3.3417 0
M  V30 415 C 39.7147 -5.04867 -1.33814 0
M  V30 416 H 41.4087 -2.9528 -0.494991 0
M  V30 417 H 38.9547 -1.42042 -0.236651 0
M  V30 418 H 40.9077 -3.02794 -2.93076 0
M  V30 419 H 39.6317 -1.80268 -2.72343 0
M  V30 420 H 38.2907 -3.41646 -1.32941 0
M  V30 421 H 37.9387 -3.29284 -3.80238 0
M  V30 422 H 37.6387 -4.93719 -3.18615 0
M  V30 423 H 39.1627 -4.57402 -4.04495 0
M  V30 424 H 40.5767 -5.39888 -1.92857 0
M  V30 425 H 38.9737 -5.86144 -1.28669 0
M  V30 426 H 40.0437 -4.83904 -0.310561 0
M  V30 427 N 41.3868 0.248026 -1.55636 0
M  V30 428 C 42.3498 1.29044 -1.89421 0
M  V30 429 C 43.3498 1.41134 -0.770581 0
M  V30 430 O 44.5398 1.39854 -1.03858 0
M  V30 431 C 41.6718 2.66831 -2.12165 0
M  V30 432 H 42.8648 1.00305 -2.82629 0
M  V30 433 H 40.4178 0.487265 -1.48511 0
M  V30 434 H 41.1528 3.00711 -1.21422 0
M  V30 435 H 40.9378 2.59438 -2.93997 0
M  V30 436 H 42.4278 3.42103 -2.3949 0
M  V30 437 N 42.8649 1.48995 0.513639 0
M  V30 438 C 43.7749 1.67443 1.64317 0
M  V30 439 C 44.7909 0.556947 1.64846 0
M  V30 440 O 45.9669 0.830082 1.83498 0
M  V30 441 C 43.0319 1.72515 3.00732 0
M  V30 442 C 42.0929 2.96009 3.1093 0
M  V30 443 C 41.3259 3.00829 4.40837 0
M  V30 444 O 41.5489 2.13594 5.28898 0
M  V30 445 O 40.4829 3.93168 4.55744 0
M  V30 446 H 44.3089 2.63106 1.51687 0
M  V30 447 H 41.8939 1.32588 0.688543 0
M  V30 448 H 43.7759 1.78277 3.81831 0
M  V30 449 H 42.4509 0.800278 3.13651 0
M  V30 450 H 41.3579 2.9577 2.29065 0
M  V30 451 H 42.6909 3.87934 3.02933 0
M  V30 452 N 44.343 -0.763751 1.37857 0
M  V30 453 C 45.589 -1.52483 1.33704 0
M  V30 454 C 45.922 -1.94051 -0.0759612 0
M  V30 455 O 45.197 -1.64675 -1.03501 0
M  V30 456 C 45.48 -2.78441 2.28348 0
M  V30 457 C 45.333 -2.43075 3.78463 0
M  V30 458 C 46.652 -3.80415 2.21298 0
M  V30 459 H 43.771 -0.553169 0.487005 0
M  V30 460 H 46.413 -0.875562 1.68624 0
M  V30 461 H 44.563 -3.33842 1.987 0
M  V30 462 H 46.235 -1.93527 4.18742 0
M  V30 463 H 44.478 -1.75666 3.96641 0
M  V30 464 H 45.149 -3.33149 4.40132 0
M  V30 465 H 47.625 -3.34527 2.47449 0
M  V30 466 H 46.501 -4.66257 2.89647 0
M  V30 467 H 46.762 -4.25262 1.20849 0
M  V30 468 N 45.8211 -1.22559 -0.990812 0
M  V30 469 C 47.0671 -1.05297 -1.73322 0
M  V30 470 C 47.4001 0.410655 -1.89808 0
M  V30 471 O 46.6751 1.30439 -1.44277 0
M  V30 472 C 46.9581 -1.76713 -3.13759 0
M  V30 473 C 46.8111 -3.30684 -3.04907 0
M  V30 474 C 48.1301 -1.52121 -4.12974 0
M  V30 475 H 45.2491 -0.38392 -0.629106 0
M  V30 476 H 47.8911 -1.50926 -1.15418 0
M  V30 477 H 46.0411 -1.37924 -3.63193 0
M  V30 478 H 47.7131 -3.7893 -2.63077 0
M  V30 479 H 45.9561 -3.60253 -2.41661 0
M  V30 480 H 46.6271 -3.75833 -4.04294 0
M  V30 481 H 49.1031 -1.85819 -3.72304 0
M  V30 482 H 47.9791 -2.04582 -5.0935 0
M  V30 483 H 48.2401 -0.454257 -4.3976 0
M  V30 484 N 47.2992 1.18797 -1.03562 0
M  V30 485 C 48.2622 2.20464 -0.626769 0
M  V30 486 C 49.2622 1.57721 0.313173 0
M  V30 487 O 50.4522 1.73917 0.0992615 0
M  V30 488 C 47.5842 3.40802 0.0818498 0
M  V30 489 H 48.7772 2.58149 -1.5264 0
M  V30 490 H 46.3302 1.32593 -0.827578 0
M  V30 491 H 47.0652 3.08642 0.995518 0
M  V30 492 H 46.8502 3.8758 -0.593652 0
M  V30 493 H 48.3402 4.16092 0.354584 0
M  V30 494 N 48.7773 0.814389 1.34928 0
M  V30 495 C 49.7253 0.218424 2.31572 0
M  V30 496 C 50.7193 -0.636128 1.57002 0
M  V30 497 O 51.9253 -0.52842 1.72069 0
M  V30 498 H 48.3003 0.0518799 0.750208 0
M  V30 499 H 50.2713 1.04852 2.79372 0
M  V30 500 C 49.0203 -0.61207 3.4227 0
M  V30 501 H 48.3433 0.0361578 3.99784 0
M  V30 502 H 49.7833 -0.995317 4.12152 0
M  V30 503 C 48.2423 -1.78087 2.85984 0
M  V30 504 O 48.7723 -2.8787 2.80168 0
M  V30 505 N 46.9783 -1.59488 2.42924 0
M  V30 506 H 46.5253 -0.701874 2.47854 0
M  V30 507 H 46.4833 -2.37846 2.05613 0
M  V30 508 N 50.2554 -1.46986 0.568584 0
M  V30 509 C 51.4834 -2.0683 0.0539956 0
M  V30 510 C 51.8984 -1.41953 -1.24478 0
M  V30 511 O 51.2554 -0.519933 -1.74937 0
M  V30 512 C 51.3064 -3.61254 -0.133362 0
M  V30 513 O 51.0274 -4.237 1.11399 0
M  V30 514 C 52.5284 -4.37992 -0.683927 0
M  V30 515 H 49.7484 -0.669058 0.0510141 0
M  V30 516 H 52.2924 -1.88824 0.785234 0
M  V30 517 H 50.4474 -3.78735 -0.81477 0
M  V30 518 H 50.8614 -5.16388 0.91888 0
M  V30 519 H 52.3354 -5.46684 -0.764263 0
M  V30 520 H 52.8124 -4.05058 -1.69778 0
M  V30 521 H 53.4184 -4.25283 -0.0378494 0
M  V30 522 N 51.7335 -0.305618 -1.54608 0
M  V30 523 C 52.9825 0.303098 -1.9941 0
M  V30 524 C 53.2955 1.54648 -1.19764 0
M  V30 525 O 54.5015 2.23007 -1.54855 0
M  V30 526 C 52.9575 0.590588 -3.55021 0
M  V30 527 C 52.5655 -0.634719 -4.43481 0
M  V30 528 C 54.3095 1.16025 -4.08336 0
M  V30 529 C 52.2165 -0.320126 -5.90533 0
M  V30 530 H 51.1465 0.117031 -0.744862 0
M  V30 531 H 53.7975 -0.415045 -1.78745 0
M  V30 532 H 52.1795 1.36845 -3.71604 0
M  V30 533 H 53.3535 -1.41079 -4.38672 0
M  V30 534 H 51.6685 -1.12333 -4.00962 0
M  V30 535 H 54.2655 1.40994 -5.15776 0
M  V30 536 H 54.6085 2.10397 -3.5922 0
M  V30 537 H 55.1415 0.443985 -3.95315 0
M  V30 538 H 51.8805 -1.23254 -6.43808 0
M  V30 539 H 51.4005 0.418579 -5.98338 0
M  V30 540 H 53.0795 0.0766241 -6.46955 0
M  V30 541 N 53.2116 1.57565 -0.0334293 0
M  V30 542 C 54.4396 1.9628 0.654347 0
M  V30 543 C 54.8546 0.910138 1.65414 0
M  V30 544 O 54.2116 -0.107595 1.82183 0
M  V30 545 C 54.2626 3.35067 1.35693 0
M  V30 546 O 53.9836 4.36296 0.397191 0
M  V30 547 C 55.4846 3.88439 2.13613 0
M  V30 548 H 52.7046 0.646369 0.180132 0
M  V30 549 H 55.2486 2.04282 -0.0944721 0
M  V30 550 H 53.4036 3.2827 2.05712 0
M  V30 551 H 53.8176 5.1678 0.896597 0
M  V30 552 H 55.2916 4.8788 2.58219 0
M  V30 553 H 55.7686 3.22914 2.97696 0
M  V30 554 H 56.3746 3.98516 1.48543 0
M  V30 555 N 54.6897 -0.239769 1.55765 0
M  V30 556 C 56.1007 -0.808263 1.68297 0
M  V30 557 C 56.4517 -1.85736 0.632181 0
M  V30 558 O 55.5767 -2.15277 -0.220204 0
M  V30 559 C 56.1717 -1.47284 3.05111 0
M  V30 560 C 54.7307 -1.98895 3.19559 0
M  V30 561 C 53.8777 -0.842575 2.64189 0
M  V30 562 H 56.8287 -0.0154422 1.58692 0
M  V30 563 H 56.8497 -2.34111 2.99954 0
M  V30 564 H 56.3617 -0.709053 3.81568 0
M  V30 565 H 54.4627 -2.78132 2.47938 0
M  V30 566 H 54.5757 -2.18143 4.26556 0
M  V30 567 H 52.9397 -1.24501 2.22197 0
M  V30 568 H 53.7227 -0.0917552 3.43177 0
M  V30 569 N 56.1678 -1.49265 -0.50573 0
M  V30 570 C 57.0978 -1.68495 -1.61653 0
M  V30 571 C 58.0788 -0.53366 -1.61512 0
M  V30 572 O 59.2638 -0.76897 -1.78327 0
M  V30 573 C 56.3938 -1.74709 -3.00157 0
M  V30 574 C 55.3478 -2.89581 -3.15162 0
M  V30 575 C 54.6738 -2.80903 -4.5497 0
M  V30 576 C 55.9738 -4.30578 -2.95634 0
M  V30 577 H 57.6678 -2.61493 -1.45814 0
M  V30 578 H 55.2138 -1.25838 -0.70005 0
M  V30 579 H 57.1668 -1.86748 -3.77761 0
M  V30 580 H 55.8908 -0.783067 -3.17074 0
M  V30 581 H 54.5498 -2.77136 -2.39982 0
M  V30 582 H 54.1978 -1.82419 -4.68756 0
M  V30 583 H 53.8978 -3.57999 -4.65951 0
M  V30 584 H 55.4218 -2.94944 -5.34641 0
M  V30 585 H 56.8358 -4.4373 -3.63011 0
M  V30 586 H 55.2328 -5.0886 -3.18091 0
M  V30 587 H 56.3028 -4.45352 -1.91806 0
M  V30 588 N 57.6459 0.756429 -1.3826 0
M  V30 589 C 58.5789 1.87802 -1.29637 0
M  V30 590 C 59.5569 1.61667 -0.173939 0
M  V30 591 O 60.7409 1.85208 -0.350775 0
M  V30 592 C 57.8679 3.23354 -1.00797 0
M  V30 593 C 56.9139 3.68379 -2.14939 0
M  V30 594 S 57.7469 3.8025 -3.77054 0
M  V30 595 C 58.9029 5.18626 -3.50396 0
M  V30 596 H 59.1359 1.94829 -2.24564 0
M  V30 597 H 56.6689 0.919117 -1.24063 0
M  V30 598 H 58.6269 4.01637 -0.848413 0
M  V30 599 H 57.2879 3.14008 -0.0759369 0
M  V30 600 H 56.4809 4.66693 -1.90299 0
M  V30 601 H 56.0829 2.97242 -2.26988 0
M  V30 602 H 58.3749 6.04289 -3.06334 0
M  V30 603 H 59.3179 5.48286 -4.48094 0
M  V30 604 H 59.7259 4.87289 -2.84973 0
M  V30 605 N 59.124 1.23083 0.984299 0
M  V30 606 C 60.071 1.00854 2.07598 0
M  V30 607 C 61.041 -0.0726709 1.65941 0
M  V30 608 O 62.226 0.0786535 1.90638 0
M  V30 609 C 59.366 0.601645 3.39815 0
M  V30 610 C 58.479 1.75456 3.94765 0
M  V30 611 C 57.614 1.29482 5.15177 0
M  V30 612 C 56.653 2.41873 5.62284 0
M  V30 613 N 55.79 1.96885 6.73929 0
M  V30 614 H 60.63 1.943 2.25946 0
M  V30 615 H 58.167 0.968001 1.10762 0
M  V30 616 H 60.125 0.346854 4.15756 0
M  V30 617 H 58.755 -0.295803 3.21442 0
M  V30 618 H 57.807 2.12346 3.15616 0
M  V30 619 H 59.119 2.59965 4.25699 0
M  V30 620 H 58.273 0.997923 5.98437 0
M  V30 621 H 57.012 0.420046 4.85888 0
M  V30 622 H 56.017 2.72342 4.77608 0
M  V30 623 H 57.242 3.29881 5.93595 0
M  V30 624 H 55.188 1.11782 6.46406 0
M  V30 625 H 55.105 2.74956 7.04227 0
M  V30 626 H 56.373 1.70289 7.60672 0
M  V30 627 N 60.6021 -1.18246 1.0419 0
M  V30 628 C 61.5651 -2.20128 0.638452 0
M  V30 629 C 62.5651 -1.57885 -0.304805 0
M  V30 630 O 63.7551 -1.73967 -0.0900369 0
M  V30 631 C 60.8871 -3.4084 -0.0637751 0
M  V30 632 H 62.0801 -2.57336 1.54007 0
M  V30 633 H 59.6331 -1.32152 0.834598 0
M  V30 634 H 60.3681 -3.09166 -0.979136 0
M  V30 635 H 60.1531 -3.8726 0.614198 0
M  V30 636 H 61.6431 -4.16274 -0.332512 0
M  V30 637 N 62.0802 -0.821533 -1.34494 0
M  V30 638 C 63.0122 -0.199946 -2.28326 0
M  V30 639 C 64.0252 0.609377 -1.50965 0
M  V30 640 O 65.2142 0.439285 -1.7301 0
M  V30 641 C 62.3142 0.738431 -3.30757 0
M  V30 642 C 61.4872 -0.0277632 -4.37391 0
M  V30 643 C 60.5462 0.831332 -5.19591 0
M  V30 644 O 59.5722 0.276822 -5.68526 0
M  V30 645 N 60.7742 2.15132 -5.39165 0
M  V30 646 H 63.5392 -1.00609 -2.82308 0
M  V30 647 H 61.1002 -0.678366 -1.47003 0
M  V30 648 H 63.0922 1.31773 -3.82646 0
M  V30 649 H 61.6622 1.44533 -2.7718 0
M  V30 650 H 60.8822 -0.788359 -3.86236 0
M  V30 651 H 62.1702 -0.555251 -5.05761 0
M  V30 652 H 61.5682 2.62559 -5.01078 0
M  V30 653 H 60.1252 2.6795 -5.94177 0
M  V30 654 N 63.5583 1.46682 -0.576371 0
M  V30 655 C 64.7833 2.07304 -0.0630475 0
M  V30 656 C 65.2083 1.42329 1.2298 0
M  V30 657 O 64.5663 0.504865 1.74129 0
M  V30 658 C 64.6143 3.60472 0.095895 0
M  V30 659 O 63.7183 3.95927 1.15394 0
M  V30 660 H 63.0593 0.661288 -0.0599463 0
M  V30 661 H 65.5893 1.88417 -0.797511 0
M  V30 662 H 65.5993 4.06865 0.304071 0
M  V30 663 H 64.2743 4.07157 -0.84828 0
M  V30 664 H 62.8513 3.61252 0.924724 0
M  V30 665 N 65.0364 0.313813 1.54444 0
M  V30 666 C 66.2824 -0.292108 2.00685 0
M  V30 667 C 66.6154 -1.52548 1.20177 0
M  V30 668 O 65.8904 -1.92452 0.281531 0
M  V30 669 C 66.1734 -0.635968 3.5444 0
M  V30 670 C 66.0264 0.607437 4.4568 0
M  V30 671 C 67.3454 -1.45747 4.15266 0
M  V30 672 H 64.4644 -0.104697 0.729526 0
M  V30 673 H 67.1064 0.428457 1.85106 0
M  V30 674 H 65.2564 -1.24986 3.67846 0
M  V30 675 H 66.9284 1.24581 4.44159 0
M  V30 676 H 65.1714 1.23822 4.15753 0
M  V30 677 H 65.8424 0.322515 5.51057 0
M  V30 678 H 68.3184 -0.938645 4.05375 0
M  V30 679 H 67.1944 -1.66683 5.2298 0
M  V30 680 H 67.4554 -2.45063 3.67963 0
M  V30 681 N 66.5145 -1.57545 0.0417849 0
M  V30 682 C 67.9255 -1.80011 -0.495259 0
M  V30 683 C 68.2765 -0.953199 -1.71489 0
M  V30 684 O 67.4015 -0.167138 -2.15754 0
M  V30 685 C 67.9965 -3.26482 -0.905265 0
M  V30 686 C 66.5555 -3.499 -1.38734 0
M  V30 687 C 65.7025 -2.74979 -0.358056 0
M  V30 688 H 68.6535 -1.56425 0.267736 0
M  V30 689 H 68.6745 -3.36887 -1.76882 0
M  V30 690 H 68.1865 -3.88096 -0.017401 0
M  V30 691 H 66.2875 -2.93553 -2.29471 0
M  V30 692 H 66.4005 -4.58615 -1.38598 0
M  V30 693 H 64.7645 -2.40834 -0.828912 0
M  V30 694 H 65.5475 -3.39315 0.521561 0
M  V30 695 N 67.9926 0.231505 -1.5589 0
M  V30 696 C 69.2406 0.955461 -1.78088 0
M  V30 697 C 69.5616 1.85262 -0.608533 0
M  V30 698 O 68.8316 1.92277 0.375035 0
M  V30 699 H 67.4116 0.355787 -0.656829 0
M  V30 700 H 70.0736 0.245751 -1.93344 0
M  V30 701 H 69.1696 1.56814 -2.69844 0
M  V30 702 N 69.4707 1.49531 0.497807 0
M  V30 703 C 70.4037 1.61043 1.6168 0
M  V30 704 C 71.3817 0.459386 1.55976 0
M  V30 705 O 72.5657 0.675358 1.75986 0
M  V30 706 C 69.6927 1.56833 3.00202 0
M  V30 707 C 68.7387 2.77173 3.24156 0
M  V30 708 S 69.5717 4.38808 3.06933 0
M  V30 709 C 70.7277 4.37248 4.47845 0
M  V30 710 H 70.9607 2.55702 1.51671 0
M  V30 711 H 68.4937 1.38462 0.683201 0
M  V30 712 H 70.4517 1.55089 3.80076 0
M  V30 713 H 69.1127 0.634561 3.07623 0
M  V30 714 H 68.3057 2.70456 4.25288 0
M  V30 715 H 67.9077 2.76346 2.5201 0
M  V30 716 H 70.1997 4.09164 5.39992 0
M  V30 717 H 71.1427 5.38668 4.59612 0
M  V30 718 H 71.5507 3.67286 4.28674 0
M  V30 719 N 70.9488 -0.749086 1.3866 0
M  V30 720 C 71.9118 -1.84457 1.36045 0
M  V30 721 C 72.9118 -1.58682 0.260122 0
M  V30 722 O 74.1018 -1.66343 0.517261 0
M  V30 723 C 71.2338 -3.22008 1.11911 0
M  V30 724 H 72.4268 -1.88182 2.33512 0
M  V30 725 H 69.9798 -0.951266 1.24019 0
M  V30 726 H 70.7148 -3.2395 0.150686 0
M  V30 727 H 70.4998 -3.42111 1.91579 0
M  V30 728 H 71.9898 -4.0208 1.12788 0
M  V30 729 N 72.4269 -1.23603 -0.977757 0
M  V30 730 C 73.6729 -1.07129 -1.72195 0
M  V30 731 C 74.0059 0.390501 -1.90233 0
M  V30 732 O 73.2809 1.28902 -1.45653 0
M  V30 733 C 73.5639 -1.80031 -3.11867 0
M  V30 734 C 73.4169 -3.33899 -3.01383 0
M  V30 735 C 74.7359 -1.56492 -4.11337 0
M  V30 736 H 71.8549 -0.390571 -0.624999 0
M  V30 737 H 74.4969 -1.52142 -1.13811 0
M  V30 738 H 72.6469 -1.41768 -3.6171 0
M  V30 739 H 74.3189 -3.81699 -2.59043 0
M  V30 740 H 72.5619 -3.62796 -2.37827 0
M  V30 741 H 73.2329 -3.801 -4.00285 0
M  V30 742 H 75.7089 -1.89757 -3.70313 0
M  V30 743 H 74.5849 -2.09973 -5.07151 0
M  V30 744 H 74.8459 -0.500874 -4.39254 0
M  V30 745 N 73.905 1.17692 -1.04816 0
M  V30 746 C 74.868 2.19787 -0.650117 0
M  V30 747 C 75.868 1.58044 0.296427 0
M  V30 748 O 77.058 1.74012 0.0808097 0
M  V30 749 C 74.19 3.40869 0.0456987 0
M  V30 750 H 75.383 2.56516 -1.5537 0
M  V30 751 H 72.936 1.31708 -0.841594 0
M  V30 752 H 73.671 3.09681 0.962726 0
M  V30 753 H 73.456 3.86928 -0.634727 0
M  V30 754 H 74.946 4.16445 0.310432 0
M  V30 755 N 75.3831 0.828654 1.34056 0
M  V30 756 C 76.6291 0.42008 1.98402 0
M  V30 757 C 76.9621 -1.01564 1.65525 0
M  V30 758 O 76.2371 -1.70834 0.929831 0
M  V30 759 C 76.5201 0.62927 3.54559 0
M  V30 760 C 76.3731 2.11152 3.97159 0
M  V30 761 C 77.6921 0.0688756 4.40046 0
M  V30 762 H 74.8111 0.154104 0.720709 0
M  V30 763 H 77.4531 1.04228 1.5886 0
M  V30 764 H 75.6031 0.0996418 3.88372 0
M  V30 765 H 77.2751 2.70522 3.73651 0
M  V30 766 H 75.5181 2.59985 3.47261 0
M  V30 767 H 76.1891 2.20868 5.05887 0
M  V30 768 H 78.6651 0.521458 4.1282 0
M  V30 769 H 77.5411 0.245006 5.48353 0
M  V30 770 H 77.8021 -1.0266 4.30015 0
M  V30 771 N 76.8612 -1.46375 0.584142 0
M  V30 772 C 78.1102 -2.01585 0.0679741 0
M  V30 773 C 78.4232 -1.46109 -1.30045 0
M  V30 774 O 79.6292 -1.93148 -1.90804 0
M  V30 775 C 78.0852 -3.5983 0.0709207 0
M  V30 776 C 77.6932 -4.24303 1.43775 0
M  V30 777 C 79.4372 -4.22693 -0.391228 0
M  V30 778 C 77.3442 -5.74631 1.39834 0
M  V30 779 H 76.2742 -0.753689 0.0216421 0
M  V30 780 H 78.9252 -1.68093 0.736001 0
M  V30 781 H 77.3072 -3.90405 -0.663299 0
M  V30 782 H 78.4812 -4.05335 2.19181 0
M  V30 783 H 76.7962 -3.73539 1.84004 0
M  V30 784 H 79.3932 -5.3289 -0.439524 0
M  V30 785 H 79.7362 -3.91728 -1.40906 0
M  V30 786 H 80.2692 -3.96749 0.288974 0
M  V30 787 H 77.0082 -6.10258 2.39303 0
M  V30 788 H 76.5282 -5.95858 0.686505 0
M  V30 789 H 78.2072 -6.37375 1.11187 0
M  V30 790 N 78.3393 -0.321999 -1.54275 0
M  V30 791 C 79.5693 0.282642 -2.04658 0
M  V30 792 C 79.9773 1.46453 -1.19784 0
M  V30 793 O 79.3203 1.82367 -0.220932 0
M  V30 794 C 79.3823 0.781857 -3.50895 0
M  V30 795 C 79.0463 -0.277517 -4.56157 0
M  V30 796 C 80.0433 -1.11307 -5.07845 0
M  V30 797 C 77.7283 -0.425256 -5.00497 0
M  V30 798 C 79.7223 -2.08211 -6.02434 0
M  V30 799 C 77.4093 -1.39771 -5.94901 0
M  V30 800 C 78.4073 -2.2246 -6.45756 0
M  V30 801 O 78.0953 -3.18054 -7.38307 0
M  V30 802 H 77.8273 0.0622636 -0.673126 0
M  V30 803 H 80.3813 -0.465792 -2.00049 0
M  V30 804 H 78.6113 1.58118 -3.52896 0
M  V30 805 H 80.3003 1.30467 -3.84361 0
M  V30 806 H 81.0663 -1.00991 -4.74369 0
M  V30 807 H 76.9453 0.20847 -4.60528 0
M  V30 808 H 80.4893 -2.72791 -6.42052 0
M  V30 809 H 76.3863 -1.50152 -6.27794 0
M  V30 810 H 77.1543 -3.13275 -7.56175 0
M  V30 811 N 79.8174 1.5752 -0.0501392 0
M  V30 812 C 80.7494 2.08413 0.95376 0
M  V30 813 C 81.7624 1.01175 1.27544 0
M  V30 814 O 82.9514 1.28744 1.23641 0
M  V30 815 C 80.0514 2.51138 2.27559 0
M  V30 816 C 79.2244 3.817 2.13598 0
M  V30 817 C 78.2834 4.10749 3.28895 0
M  V30 818 O 77.3094 4.80685 3.04845 0
M  V30 819 N 78.5114 3.62579 4.5334 0
M  V30 820 H 81.2764 2.95165 0.519383 0
M  V30 821 H 78.8374 1.61327 0.136127 0
M  V30 822 H 80.8294 2.67648 3.03557 0
M  V30 823 H 79.3994 1.6964 2.62567 0
M  V30 824 H 78.6194 3.74782 1.22197 0
M  V30 825 H 79.9074 4.67201 2.01496 0
M  V30 826 H 79.3054 3.06039 4.75769 0
M  V30 827 H 77.8624 3.84329 5.26436 0
M  V30 828 N 81.2955 -0.223234 1.56011 0
M  V30 829 C 82.5435 -0.946003 1.78592 0
M  V30 830 C 82.8645 -1.84936 0.618349 0
M  V30 831 O 82.1345 -1.92473 -0.364833 0
M  V30 832 H 80.7145 -0.352298 0.658707 0
M  V30 833 H 83.3765 -0.235494 1.93472 0
M  V30 834 H 82.4725 -1.55381 2.70672 0
M  V30 835 N 82.7736 -1.49793 -0.48987 0
M  V30 836 C 83.7206 -1.67281 -1.59014 0
M  V30 837 C 84.6906 -0.514177 -1.57941 0
M  V30 838 O 85.8756 -0.742533 -1.75759 0
M  V30 839 C 83.0156 -1.75569 -2.97102 0
M  V30 840 C 82.1286 -3.0281 -3.08107 0
M  V30 841 C 81.2636 -3.02008 -4.36995 0
M  V30 842 C 80.3026 -4.23782 -4.41673 0
M  V30 843 N 79.4396 -4.20826 -5.62005 0
M  V30 844 H 84.2796 -2.61224 -1.43409 0
M  V30 845 H 81.8166 -1.29508 -0.697565 0
M  V30 846 H 83.7746 -1.78354 -3.77155 0
M  V30 847 H 82.4046 -0.850827 -3.11385 0
M  V30 848 H 81.4566 -3.09584 -2.21047 0
M  V30 849 H 82.7686 -3.92801 -3.07423 0
M  V30 850 H 81.9226 -3.03418 -5.25378 0
M  V30 851 H 80.6616 -2.09815 -4.4026 0
M  V30 852 H 79.6666 -4.22604 -3.5169 0
M  V30 853 H 80.8916 -5.17181 -4.40115 0
M  V30 854 H 78.8376 -3.31476 -5.66091 0
M  V30 855 H 78.7546 -5.04564 -5.62984 0
M  V30 856 H 80.0226 -4.26355 -6.52565 0
M  V30 857 N 84.2517 0.741722 -1.39055 0
M  V30 858 C 85.6627 1.31966 -1.32068 0
M  V30 859 C 86.0137 1.96192 0.0180797 0
M  V30 860 O 85.1387 1.95861 0.920196 0
M  V30 861 C 85.7337 2.39954 -2.39181 0
M  V30 862 C 84.2927 2.93438 -2.35735 0
M  V30 863 C 83.4397 1.66936 -2.21422 0
M  V30 864 H 86.3907 0.539721 -1.4924 0
M  V30 865 H 86.4117 3.20182 -2.05581 0
M  V30 866 H 85.9237 1.9318 -3.36605 0
M  V30 867 H 84.0247 3.4451 -1.41929 0
M  V30 868 H 84.1377 3.4701 -3.30335 0
M  V30 869 H 82.5017 1.91016 -1.68478 0
M  V30 870 H 83.2847 1.22224 -3.20806 0
M  V30 871 N 85.7298 1.2412 0.971189 0
M  V30 872 C 86.6798 0.997551 2.05019 0
M  V30 873 C 87.6638 -0.0597747 1.60789 0
M  V30 874 O 88.8558 0.153516 1.76333 0
M  V30 875 C 85.9848 0.600557 3.38006 0
M  V30 876 C 85.0708 1.69377 3.88809 0
M  V30 877 N 85.4618 2.92586 4.12586 0
M  V30 878 C 83.7598 1.57048 4.17435 0
M  V30 879 C 84.4608 3.63431 4.54195 0
M  V30 880 N 83.4368 2.90979 4.59165 0
M  V30 881 H 87.2388 1.93316 2.21374 0
M  V30 882 H 84.7528 1.14194 1.1547 0
M  V30 883 H 86.7498 0.40725 4.14906 0
M  V30 884 H 85.4098 -0.327903 3.2304 0
M  V30 885 H 86.4208 3.288 4.00139 0
M  V30 886 H 83.0978 0.709798 4.11422 0
M  V30 887 H 84.4878 4.69102 4.81033 0
M  V30 888 N 87.2079 -1.17134 1.05439 0
M  V30 889 C 88.4379 -1.91094 0.785274 0
M  V30 890 C 88.8459 -1.77198 -0.663142 0
M  V30 891 O 88.1889 -1.10835 -1.46497 0
M  V30 892 C 88.2509 -3.42594 1.08949 0
M  V30 893 C 87.9149 -3.80274 2.53458 0
M  V30 894 C 88.9119 -3.82912 3.51673 0
M  V30 895 C 86.5969 -4.11162 2.88532 0
M  V30 896 C 88.5909 -4.15913 4.83006 0
M  V30 897 C 86.2779 -4.43831 4.20068 0
M  V30 898 C 87.2759 -4.46185 5.17115 0
M  V30 899 O 86.9639 -4.78083 6.46291 0
M  V30 900 H 86.6959 -0.613073 0.284811 0
M  V30 901 H 89.2499 -1.49461 1.40893 0
M  V30 902 H 87.4799 -3.84534 0.408741 0
M  V30 903 H 89.1689 -3.97817 0.805991 0
M  V30 904 H 89.9349 -3.5917 3.25917 0
M  V30 905 H 85.8139 -4.085 2.13656 0
M  V30 906 H 89.3579 -4.17665 5.5875 0
M  V30 907 H 85.2549 -4.67037 4.45586 0
M  V30 908 H 86.0229 -4.9593 6.51149 0
M  V30 909 N 88.686 -0.835752 -1.33615 0
M  V30 910 C 89.916 -0.442701 -2.01801 0
M  V30 911 C 90.324 0.959807 -1.63047 0
M  V30 912 O 89.667 1.63468 -0.838088 0
M  V30 913 C 89.729 -0.480125 -3.56279 0
M  V30 914 C 89.393 -1.8382 -4.18401 0
M  V30 915 C 90.39 -2.80097 -4.37998 0
M  V30 916 C 88.075 -2.13019 -4.54894 0
M  V30 917 C 90.069 -4.03736 -4.9323 0
M  V30 918 C 87.756 -3.36916 -5.09834 0
M  V30 919 C 88.754 -4.32091 -5.28948 0
M  V30 920 O 88.442 -5.53797 -5.82721 0
M  V30 921 H 88.174 -0.17441 -0.653114 0
M  V30 922 H 90.728 -1.129 -1.71589 0
M  V30 923 H 88.958 0.262931 -3.85805 0
M  V30 924 H 90.647 -0.105335 -4.05763 0
M  V30 925 H 91.413 -2.58838 -4.10156 0
M  V30 926 H 87.292 -1.39733 -4.39313 0
M  V30 927 H 90.836 -4.78034 -5.08064 0
M  V30 928 H 86.733 -3.58033 -5.37106 0
M  V30 929 H 87.501 -5.55494 -6.0114 0
M  V30 930 N 90.1641 1.46063 -0.591896 0
M  V30 931 C 91.3921 2.06717 -0.0868936 0
M  V30 932 C 91.8071 1.43916 1.22203 0
M  V30 933 O 91.1641 0.547698 1.74088 0
M  V30 934 C 91.2151 3.6142 0.0758725 0
M  V30 935 O 90.9361 4.21874 -1.18126 0
M  V30 936 C 92.4371 4.39025 0.61416 0
M  V30 937 H 89.6571 0.668162 -0.0616518 0
M  V30 938 H 92.2011 1.8755 -0.815175 0
M  V30 939 H 90.3561 3.79983 0.754413 0
M  V30 940 H 90.7701 5.14861 -1.00092 0
M  V30 941 H 92.2441 5.4783 0.677193 0
M  V30 942 H 92.7211 4.07708 1.63312 0
M  V30 943 H 93.3271 4.2529 -0.0298142 0
M  V30 944 N 91.6422 0.330177 1.54103 0
M  V30 945 C 92.8892 -0.270405 2.00686 0
M  V30 946 C 93.2172 -1.51621 1.21825 0
M  V30 947 O 92.4722 -1.93536 0.29025 0
M  V30 948 C 92.7712 -0.643134 3.51566 0
M  V30 949 C 92.4372 0.504251 4.48072 0
M  V30 950 C 91.0992 0.819163 4.74176 0
M  V30 951 C 93.4512 1.27465 5.05373 0
M  V30 952 C 90.7792 1.90708 5.5484 0
M  V30 953 C 93.1312 2.35271 5.87223 0
M  V30 954 C 91.7952 2.67336 6.11627 0
M  V30 955 H 91.0652 -0.0989482 0.734364 0
M  V30 956 H 93.7122 0.455324 1.86008 0
M  V30 957 H 92.0172 -1.44938 3.64006 0
M  V30 958 H 93.7142 -1.11949 3.85056 0
M  V30 959 H 90.3042 0.248733 4.27878 0
M  V30 960 H 94.4882 1.04462 4.85182 0
M  V30 961 H 89.7442 2.15991 5.71977 0
M  V30 962 H 93.9182 2.95405 6.30641 0
M  V30 963 H 91.5452 3.51763 6.73919 0
M  V30 964 N 93.1203 -1.57491 0.0584922 0
M  V30 965 C 94.3683 -1.92597 -0.612436 0
M  V30 966 C 94.6893 -0.938162 -1.70949 0
M  V30 967 O 93.9593 0.0158301 -1.95894 0
M  V30 968 H 92.5393 -0.710964 -0.229214 0
M  V30 969 H 95.2013 -1.94571 0.113218 0
M  V30 970 H 94.2973 -2.94038 -1.04633 0
M  V30 971 N 94.5984 0.214957 -1.56127 0
M  V30 972 C 95.5454 1.26642 -1.92952 0
M  V30 973 C 96.5154 1.46244 -0.78753 0
M  V30 974 O 97.7004 1.59704 -1.04399 0
M  V30 975 C 94.8404 2.6104 -2.25726 0
M  V30 976 C 93.9534 2.49183 -3.52891 0
M  V30 977 C 93.0884 3.76149 -3.7508 0
M  V30 978 C 92.1274 3.59041 -4.95738 0
M  V30 979 N 91.2644 4.77972 -5.14283 0
M  V30 980 H 96.1044 0.945384 -2.82607 0
M  V30 981 H 93.6414 0.455489 -1.3987 0
M  V30 982 H 95.5994 3.39313 -2.42739 0
M  V30 983 H 94.2294 2.91227 -1.39236 0
M  V30 984 H 93.2814 1.6231 -3.44034 0
M  V30 985 H 94.5934 2.32466 -4.41318 0
M  V30 986 H 93.7474 4.62865 -3.92226 0
M  V30 987 H 92.4864 3.95799 -2.84947 0
M  V30 988 H 91.4914 2.7071 -4.78535 0
M  V30 989 H 92.7164 3.40856 -5.87362 0
M  V30 990 H 90.6624 4.97923 -4.27093 0
M  V30 991 H 90.5794 4.64006 -5.96853 0
M  V30 992 H 91.8474 5.66096 -5.35869 0
M  V30 993 N 96.0765 1.50051 0.48192 0
M  V30 994 C 97.0395 1.67584 1.5636 0
M  V30 995 C 98.0395 0.546894 1.51214 0
M  V30 996 O 99.2295 0.813725 1.54026 0
M  V30 997 C 96.3615 1.691 2.96003 0
M  V30 998 H 97.5545 2.64078 1.42136 0
M  V30 999 H 95.1075 1.39369 0.707533 0
M  V30 1000 H 95.8425 0.742589 3.15684 0
M  V30 1001 H 95.6275 2.51105 3.01146 0
M  V30 1002 H 97.1175 1.84656 3.74556 0
M  V30 1003 N 97.5546 -0.734337 1.39446 0
M  V30 1004 C 98.8316 -1.48579 1.27215 0
M  V30 1005 C 99.2116 -2.1077 -0.117968 0
M  V30 1006 O 98.5596 -1.98646 -1.12924 0
M  V30 1007 C 98.7696 -2.53667 2.39696 0
M  V30 1008 C 100.118 -3.20031 2.79044 0
M  V30 1009 O 101.142 -2.6398 2.39151 0
M  V30 1010 O 100.001 -4.21455 3.47905 0
M  V30 1011 H 97.0946 -0.659816 0.49857 0
M  V30 1012 H 99.6406 -0.768106 1.51322 0
M  V30 1013 H 98.4126 -2.06096 3.32626 0
M  V30 1014 H 98.0356 -3.32994 2.17258 0
M  V30 1015 N 99.0327 -1.24633 -0.964593 0
M  V30 1016 C 100.282 -1.08188 -1.7023 0
M  V30 1017 C 100.595 0.37873 -1.91898 0
M  V30 1018 O 101.801 0.663427 -2.6327 0
M  V30 1019 C 100.257 -1.88773 -3.06419 0
M  V30 1020 C 99.8647 -3.39263 -2.92582 0
M  V30 1021 C 101.609 -1.80867 -3.84041 0
M  V30 1022 C 99.5157 -4.1218 -4.24101 0
M  V30 1023 H 98.4457 -0.401245 -0.638372 0
M  V30 1024 H 101.097 -1.48742 -1.07462 0
M  V30 1025 H 99.4787 -1.41035 -3.70034 0
M  V30 1026 H 100.653 -3.94603 -2.37961 0
M  V30 1027 H 98.9677 -3.48154 -2.28424 0
M  V30 1028 H 101.565 -2.32646 -4.81435 0
M  V30 1029 H 101.908 -0.774543 -4.09031 0
M  V30 1030 H 102.441 -2.26301 -3.27159 0
M  V30 1031 H 99.1797 -5.15965 -4.04303 0
M  V30 1032 H 98.6997 -3.61626 -4.78526 0
M  V30 1033 H 100.379 -4.19349 -4.92702 0
M  V30 1034 N 100.511 1.16574 -1.06058 0
M  V30 1035 C 101.474 2.19085 -0.673392 0
M  V30 1036 C 102.474 1.5835 0.279648 0
M  V30 1037 O 103.664 1.74088 0.0623488 0
M  V30 1038 C 100.796 3.40899 0.00954234 0
M  V30 1039 H 101.989 2.54853 -1.58081 0
M  V30 1040 H 99.5418 1.30808 -0.855516 0
M  V30 1041 H 100.277 3.10684 0.929826 0
M  V30 1042 H 100.062 3.86233 -0.67573 0
M  V30 1043 H 101.552 4.1675 0.266245 0
M  V30 1044 N 101.989 0.842826 1.3317 0
M  V30 1045 C 102.952 0.284065 2.27433 0
M  V30 1046 C 103.952 -0.54948 1.5112 0
M  V30 1047 O 105.142 -0.362699 1.70382 0
M  V30 1048 C 102.274 -0.599384 3.35589 0
M  V30 1049 H 103.467 1.11589 2.78366 0
M  V30 1050 H 101.02 0.616221 1.4364 0
M  V30 1051 H 101.755 -1.45349 2.89904 0
M  V30 1052 H 101.54 -0.00291266 3.921 0
M  V30 1053 H 103.03 -0.983488 4.05854 0
M  V30 1054 N 103.467 -1.45747 0.599634 0
M  V30 1055 C 104.415 -2.322 -0.136426 0
M  V30 1056 C 105.409 -1.45497 -0.867583 0
M  V30 1057 O 106.615 -1.62027 -0.78405 0
M  V30 1058 H 102.99 -0.749368 -0.0628588 0
M  V30 1059 H 104.961 -2.92072 0.611281 0
M  V30 1060 C 103.71 -3.28974 -1.12567 0
M  V30 1061 H 103.033 -3.9568 -0.572484 0
M  V30 1062 H 104.473 -3.92212 -1.61077 0
M  V30 1063 C 102.932 -2.55561 -2.19523 0
M  V30 1064 O 103.462 -2.33111 -3.27143 0
M  V30 1065 N 101.668 -2.15832 -1.94589 0
M  V30 1066 H 101.215 -2.3429 -1.07078 0
M  V30 1067 H 101.173 -1.67034 -2.66359 0
M  V30 1068 N 104.945 -0.338344 -1.53925 0
M  V30 1069 C 105.892 0.520845 -2.24846 0
M  V30 1070 C 106.862 1.09976 -1.24477 0
M  V30 1071 O 108.047 1.13735 -1.53196 0
M  V30 1072 C 105.187 1.6685 -3.02084 0
M  V30 1073 C 104.3 1.11739 -4.17299 0
M  V30 1074 C 103.435 2.23193 -4.82036 0
M  V30 1075 C 102.474 1.65407 -5.89328 0
M  V30 1076 N 101.611 2.70582 -6.47866 0
M  V30 1077 H 106.451 -0.0904881 -2.97863 0
M  V30 1078 H 103.988 -0.0564282 -1.46992 0
M  V30 1079 H 105.946 2.34407 -3.45122 0
M  V30 1080 H 104.576 2.2509 -2.31375 0
M  V30 1081 H 103.628 0.332919 -3.7894 0
M  V30 1082 H 104.94 0.654677 -4.94485 0
M  V30 1083 H 104.094 2.98626 -5.28117 0
M  V30 1084 H 102.833 2.72807 -4.04262 0
M  V30 1085 H 101.838 0.884779 -5.42634 0
M  V30 1086 H 103.063 1.16652 -6.69006 0
M  V30 1087 H 101.009 3.1946 -5.72959 0
M  V30 1088 H 100.926 2.28917 -7.20509 0
M  V30 1089 H 102.194 3.45799 -6.98601 0
M  V30 1090 N 106.423 1.57458 -0.0668435 0
M  V30 1091 C 107.834 1.80776 0.466558 0
M  V30 1092 C 108.185 0.980361 1.69951 0
M  V30 1093 O 107.31 0.201441 2.1546 0
M  V30 1094 C 107.905 3.27881 0.85321 0
M  V30 1095 C 106.464 3.52062 1.3315 0
M  V30 1096 C 105.611 2.75513 0.314264 0
M  V30 1097 H 108.562 1.5598 -0.292588 0
M  V30 1098 H 108.583 3.39659 1.715 0
M  V30 1099 H 108.095 3.88075 -0.0443439 0
M  V30 1100 H 106.196 2.97167 2.24772 0
M  V30 1101 H 106.309 4.60762 1.31285 0
M  V30 1102 H 104.673 2.42123 0.790492 0
M  V30 1103 H 105.456 3.38442 -0.575477 0
M  V30 1104 N 107.901 -0.206675 1.56239 0
M  V30 1105 C 109.147 -0.930218 1.80208 0
M  V30 1106 C 109.48 -1.83387 0.638981 0
M  V30 1107 O 108.755 -1.91119 -0.361066 0
M  V30 1108 C 109.038 -1.75641 3.1436 0
M  V30 1109 C 108.891 -0.878257 4.41142 0
M  V30 1110 C 110.21 -2.73129 3.45092 0
M  V30 1111 H 107.329 -0.336742 0.655571 0
M  V30 1112 H 109.971 -0.198222 1.88963 0
M  V30 1113 H 108.121 -2.38048 3.07027 0
M  V30 1114 H 109.793 -0.269787 4.6051 0
M  V30 1115 H 108.036 -0.184385 4.33408 0
M  V30 1116 H 108.707 -1.49106 5.3148 0
M  V30 1117 H 111.183 -2.20856 3.52649 0
M  V30 1118 H 110.059 -3.28028 4.40101 0
M  V30 1119 H 110.32 -3.51606 2.68003 0
M  V30 1120 N 109.379 -1.50304 -0.473955 0
M  V30 1121 C 110.607 -1.64902 -1.24959 0
M  V30 1122 C 111.022 -0.331198 -1.85872 0
M  V30 1123 O 110.379 0.68652 -1.69095 0
M  V30 1124 C 110.43 -2.73803 -2.36038 0
M  V30 1125 O 110.151 -4.00477 -1.77624 0
M  V30 1126 C 111.652 -2.99349 -3.26964 0
M  V30 1127 H 108.872 -0.554383 -0.378022 0
M  V30 1128 H 111.416 -1.9651 -0.566054 0
M  V30 1129 H 109.571 -2.44898 -3.00173 0
M  V30 1130 H 109.985 -4.60678 -2.5075 0
M  V30 1131 H 111.459 -3.79217 -4.01121 0
M  V30 1132 H 111.936 -2.10307 -3.85574 0
M  V30 1133 H 112.542 -3.29774 -2.68569 0
M  V30 1134 N 110.857 0.726932 -1.39834 0
M  V30 1135 C 112.268 1.30558 -1.3346 0
M  V30 1136 C 112.619 1.962 -0.00273003 0
M  V30 1137 O 111.744 1.96826 0.899371 0
M  V30 1138 C 112.339 2.37404 -2.41713 0
M  V30 1139 C 110.898 2.90921 -2.38835 0
M  V30 1140 C 110.045 1.64578 -2.2318 0
M  V30 1141 H 112.996 0.523862 -1.49804 0
M  V30 1142 H 113.017 3.17984 -2.08966 0
M  V30 1143 H 112.529 1.89599 -3.38635 0
M  V30 1144 H 110.63 3.42985 -1.45575 0
M  V30 1145 H 110.743 3.43487 -3.33997 0
M  V30 1146 H 109.107 1.89219 -1.70494 0
M  V30 1147 H 109.89 1.18814 -3.22084 0
M  V30 1148 N 112.336 1.25143 0.95797 0
M  V30 1149 C 113.268 1.01023 2.05735 0
M  V30 1150 C 114.281 -0.0236902 1.62783 0
M  V30 1151 O 115.47 0.21448 1.77207 0
M  V30 1152 C 112.57 0.504595 3.35122 0
M  V30 1153 C 111.743 1.6039 4.06932 0
M  V30 1154 C 110.802 1.09922 5.14591 0
M  V30 1155 O 109.828 1.79293 5.40225 0
M  V30 1156 N 111.03 -0.0612545 5.80468 0
M  V30 1157 H 113.795 1.95683 2.26998 0
M  V30 1158 H 111.356 1.16303 1.12629 0
M  V30 1159 H 113.348 0.151516 4.04416 0
M  V30 1160 H 111.918 -0.347989 3.10657 0
M  V30 1161 H 111.138 2.12872 3.31782 0
M  V30 1162 H 112.426 2.34252 4.51667 0
M  V30 1163 H 111.824 -0.640985 5.62057 0
M  V30 1164 H 110.381 -0.355395 6.5083 0
M  V30 1165 N 113.814 -1.1601 1.06675 0
M  V30 1166 C 115.042 -1.90527 0.806667 0
M  V30 1167 C 115.457 -1.77643 -0.639396 0
M  V30 1168 O 114.814 -1.12369 -1.43803 0
M  V30 1169 C 114.865 -3.41106 1.19705 0
M  V30 1170 O 114.586 -3.53608 2.58636 0
M  V30 1171 C 116.087 -4.32663 0.965266 0
M  V30 1172 H 113.307 -0.604053 0.292166 0
M  V30 1173 H 115.851 -1.47026 1.4214 0
M  V30 1174 H 114.006 -3.82296 0.626774 0
M  V30 1175 H 114.42 -4.47011 2.74375 0
M  V30 1176 H 115.894 -5.36763 1.288 0
M  V30 1177 H 116.371 -4.39089 -0.0987936 0
M  V30 1178 H 116.977 -3.97206 1.52011 0
M  V30 1179 N 115.292 -0.849877 -1.32721 0
M  V30 1180 C 116.222 -0.306308 -2.31482 0
M  V30 1181 C 117.203 0.591952 -1.59468 0
M  V30 1182 O 118.388 0.513199 -1.87296 0
M  V30 1183 C 115.518 0.510204 -3.43532 0
M  V30 1184 C 114.472 -0.293209 -4.26994 0
M  V30 1185 C 113.798 0.647743 -5.30762 0
M  V30 1186 C 115.098 -1.51634 -4.99804 0
M  V30 1187 H 116.792 -1.13153 -2.77195 0
M  V30 1188 H 114.338 -0.545553 -1.33266 0
M  V30 1189 H 116.291 0.900856 -4.11658 0
M  V30 1190 H 115.015 1.36874 -2.96535 0
M  V30 1191 H 113.674 -0.665555 -3.60508 0
M  V30 1192 H 113.322 1.50299 -4.8002 0
M  V30 1193 H 113.022 0.11422 -5.87489 0
M  V30 1194 H 114.546 1.03567 -6.01753 0
M  V30 1195 H 115.96 -1.19824 -5.60638 0
M  V30 1196 H 114.357 -1.98745 -5.66234 0
M  V30 1197 H 115.427 -2.28018 -4.27943 0
M  V30 1198 N 116.77 1.45427 -0.607355 0
M  V30 1199 C 118.017 2.02241 -0.102455 0
M  V30 1200 C 118.345 1.4758 1.26691 0
M  V30 1201 O 117.6 0.640468 1.84923 0
M  V30 1202 C 117.899 3.57398 -0.0129263 0
M  V30 1203 C 117.565 4.3121 -1.31792 0
M  V30 1204 C 116.227 4.51092 -1.67539 0
M  V30 1205 C 118.579 4.73401 -2.18039 0
M  V30 1206 C 115.907 5.10422 -2.89285 0
M  V30 1207 C 118.259 5.34078 -3.39034 0
M  V30 1208 C 116.923 5.52184 -3.75033 0
M  V30 1209 H 116.193 0.740051 -0.037491 0
M  V30 1210 H 118.84 1.74494 -0.788926 0
M  V30 1211 H 117.145 3.84421 0.756806 0
M  V30 1212 H 118.842 3.99061 0.393881 0
M  V30 1213 H 115.432 4.16047 -1.02968 0
M  V30 1214 H 119.616 4.57774 -1.91721 0
M  V30 1215 H 114.872 5.22629 -3.17283 0
M  V30 1216 H 119.046 5.65724 -4.06115 0
M  V30 1217 H 116.673 5.97925 -4.69457 0
M  V30 1218 N 118.248 0.346503 1.53744 0
M  V30 1219 C 119.158 -0.517293 2.28826 0
M  V30 1220 C 120.174 -1.10935 1.3405 0
M  V30 1221 O 121.35 -1.1244 1.6709 0
M  V30 1222 C 118.415 -1.65098 3.04866 0
M  V30 1223 C 117.476 -1.0884 4.15274 0
M  V30 1224 C 116.709 -2.16806 4.87679 0
M  V30 1225 O 116.932 -3.3758 4.59778 0
M  V30 1226 O 115.866 -1.80934 5.74061 0
M  V30 1227 H 119.692 0.0931396 3.03557 0
M  V30 1228 H 117.277 0.111458 1.48984 0
M  V30 1229 H 119.159 -2.31053 3.5241 0
M  V30 1230 H 117.834 -2.24717 2.32989 0
M  V30 1231 H 116.741 -0.3933 3.72027 0
M  V30 1232 H 118.074 -0.537036 4.89261 0
M  V30 1233 N 119.726 -1.57421 0.075193 0
M  V30 1234 C 120.656 -2.15942 -0.888324 0
M  V30 1235 C 121.637 -1.08737 -1.30806 0
M  V30 1236 O 122.822 -1.36787 -1.37851 0
M  V30 1237 C 119.952 -2.72379 -2.1547 0
M  V30 1238 C 118.906 -3.8478 -1.87425 0
M  V30 1239 C 118.232 -4.27834 -3.20721 0
M  V30 1240 C 119.532 -5.08869 -1.17684 0
M  V30 1241 H 121.226 -2.96705 -0.400799 0
M  V30 1242 H 118.772 -1.42723 -0.191342 0
M  V30 1243 H 120.725 -3.11965 -2.83295 0
M  V30 1244 H 119.449 -1.88841 -2.6647 0
M  V30 1245 H 118.108 -3.45703 -1.22004 0
M  V30 1246 H 117.756 -3.41214 -3.6957 0
M  V30 1247 H 117.456 -5.03605 -3.02746 0
M  V30 1248 H 118.98 -4.70039 -3.89738 0
M  V30 1249 H 120.394 -5.4575 -1.75584 0
M  V30 1250 H 118.791 -5.8994 -1.09956 0
M  V30 1251 H 119.861 -4.84648 -0.156453 0
M  V30 1252 N 121.204 0.198386 -1.56346 0
M  V30 1253 C 122.452 0.91747 -1.80075 0
M  V30 1254 C 122.773 1.83929 -0.647692 0
M  V30 1255 O 122.043 1.93029 0.334166 0
M  V30 1256 H 120.623 0.341774 -0.664228 0
M  V30 1257 H 123.285 0.204684 -1.93822 0
M  V30 1258 H 122.381 1.51055 -2.7311 0
M  V30 1259 N 122.682 1.50554 0.465978 0
M  V30 1260 C 123.907 1.65838 1.24549 0
M  V30 1261 C 124.332 0.343486 1.84937 0
M  V30 1262 O 123.69 -0.69324 1.67523 0
M  V30 1263 C 123.738 2.75533 2.32624 0
M  V30 1264 O 122.842 2.37142 3.37398 0
M  V30 1265 H 122.183 0.553893 0.366194 0
M  V30 1266 H 124.713 1.96959 0.553927 0
M  V30 1267 H 124.723 2.98763 2.77857 0
M  V30 1268 H 123.398 3.70962 1.88043 0
M  V30 1269 H 121.975 2.24377 2.97841 0
M  V30 1270 N 124.16 -0.719506 1.40217 0
M  V30 1271 C 125.409 -1.47486 1.37589 0
M  V30 1272 C 125.722 -1.9559 -0.0201568 0
M  V30 1273 O 126.928 -2.70973 -0.169049 0
M  V30 1274 C 125.384 -2.66575 2.41796 0
M  V30 1275 C 124.992 -2.25358 3.87192 0
M  V30 1276 C 126.736 -3.4433 2.48269 0
M  V30 1277 C 124.643 -3.41262 4.83005 0
M  V30 1278 H 123.573 -0.553901 0.511576 0
M  V30 1279 H 126.224 -0.783427 1.65936 0
M  V30 1280 H 124.606 -3.3787 2.06543 0
M  V30 1281 H 125.78 -1.61509 4.31569 0
M  V30 1282 H 124.095 -1.60657 3.84159 0
M  V30 1283 H 126.692 -4.30569 3.17041 0
M  V30 1284 H 127.035 -3.87872 1.51198 0
M  V30 1285 H 127.568 -2.80076 2.82493 0
M  V30 1286 H 124.307 -3.02755 5.81394 0
M  V30 1287 H 123.827 -4.0404 4.43297 0
M  V30 1288 H 125.506 -4.07383 5.02641 0
M  V30 1289 N 125.638 -1.25649 -0.95132 0
M  V30 1290 C 126.863 -1.13443 -1.73624 0
M  V30 1291 C 127.288 0.307565 -1.85568 0
M  V30 1292 O 126.646 1.22282 -1.33854 0
M  V30 1293 C 126.694 -1.79723 -3.12621 0
M  V30 1294 O 125.798 -1.07912 -3.98031 0
M  V30 1295 H 125.139 -0.395872 -0.533086 0
M  V30 1296 H 127.669 -1.66276 -1.1922 0
M  V30 1297 H 127.679 -1.86141 -3.63064 0
M  V30 1298 H 126.354 -2.84633 -3.03244 0
M  V30 1299 H 124.931 -1.09398 -3.56492 0
M  V30 1300 N 127.117 1.15442 -1.07289 0
M  V30 1301 C 128.064 2.20161 -0.692653 0
M  V30 1302 C 129.034 1.63073 0.31564 0
M  V30 1303 O 130.219 1.89725 0.202235 0
M  V30 1304 C 127.359 3.44967 -0.0959509 0
M  V30 1305 C 126.472 4.16256 -1.15564 0
M  V30 1306 C 125.607 5.28609 -0.524011 0
M  V30 1307 C 124.646 5.91715 -1.56653 0
M  V30 1308 N 123.783 6.9554 -0.957531 0
M  V30 1309 H 128.623 2.52037 -1.59002 0
M  V30 1310 H 126.16 1.2378 -0.794798 0
M  V30 1311 H 128.118 4.16341 0.267628 0
M  V30 1312 H 126.748 3.1361 0.764772 0
M  V30 1313 H 125.8 3.43385 -1.6368 0
M  V30 1314 H 127.112 4.59268 -1.94613 0
M  V30 1315 H 126.266 6.06604 -0.108032 0
M  V30 1316 H 125.005 4.86787 0.29825 0
M  V30 1317 H 124.01 5.12433 -1.9923 0
M  V30 1318 H 125.235 6.35614 -2.39107 0
M  V30 1319 H 123.181 6.55814 -0.156162 0
M  V30 1320 H 123.098 7.36977 -1.68526 0
M  V30 1321 H 124.366 7.77435 -0.567032 0
M  V30 1322 N 128.595 0.856903 1.32268 0
M  V30 1323 C 129.823 0.475439 2.01363 0
M  V30 1324 C 130.238 -0.928486 1.64392 0
M  V30 1325 O 129.595 -1.60624 0.866387 0
M  V30 1326 C 129.646 0.607545 3.56358 0
M  V30 1327 O 129.367 1.95617 3.92002 0
M  V30 1328 C 130.868 0.225382 4.42727 0
M  V30 1329 H 128.088 0.186636 0.644521 0
M  V30 1330 H 130.632 1.15446 1.68797 0
M  V30 1331 H 128.787 -0.0237719 3.87393 0
M  V30 1332 H 129.201 1.95455 4.86721 0
M  V30 1333 H 130.675 0.368813 5.50767 0
M  V30 1334 H 131.152 -0.834369 4.31202 0
M  V30 1335 H 131.758 0.831864 4.17085 0
M  V30 1336 N 130.073 -1.45103 0.615059 0
M  V30 1337 C 131.32 -2.02183 0.113179 0
M  V30 1338 C 131.648 -1.48249 -1.25906 0
M  V30 1339 O 130.903 -0.650265 -1.84581 0
M  V30 1340 C 131.202 -3.57386 0.0318797 0
M  V30 1341 C 130.868 -4.30505 1.34077 0
M  V30 1342 C 129.53 -4.50197 1.69929 0
M  V30 1343 C 131.882 -4.72238 2.20546 0
M  V30 1344 C 129.21 -5.08881 2.91988 0
M  V30 1345 C 131.562 -5.32272 3.41861 0
M  V30 1346 C 130.226 -5.50187 3.77956 0
M  V30 1347 H 129.496 -0.739842 0.0414151 0
M  V30 1348 H 132.143 -1.74073 0.798168 0
M  V30 1349 H 130.448 -3.84817 -0.736409 0
M  V30 1350 H 132.145 -3.99264 -0.372712 0
M  V30 1351 H 128.735 -4.15496 1.05173 0
M  V30 1352 H 132.919 -4.56751 1.94146 0
M  V30 1353 H 128.175 -5.20939 3.2005 0
M  V30 1354 H 132.349 -5.63563 4.09109 0
M  V30 1355 H 129.976 -5.95427 4.72622 0
M  V30 1356 N 131.551 -0.354651 -1.53558 0
M  V30 1357 C 132.779 0.239515 -2.05509 0
M  V30 1358 C 133.194 1.4333 -1.2289 0
M  V30 1359 O 132.551 1.80538 -0.266899 0
M  V30 1360 C 132.602 0.643719 -3.55723 0
M  V30 1361 O 132.323 -0.502602 -4.35207 0
M  V30 1362 C 133.824 1.29743 -4.23889 0
M  V30 1363 H 131.044 0.0442697 -0.669538 0
M  V30 1364 H 133.588 -0.509856 -1.98042 0
M  V30 1365 H 131.743 1.34302 -3.63376 0
M  V30 1366 H 132.157 -0.178172 -5.24197 0
M  V30 1367 H 133.631 1.53091 -5.30346 0
M  V30 1368 H 134.108 2.25441 -3.76926 0
M  V30 1369 H 134.714 0.639865 -4.20459 0
M  V30 1370 N 133.029 1.57378 -0.0835403 0
M  V30 1371 C 134.277 1.93547 0.581718 0
M  V30 1372 C 134.598 0.96524 1.69435 0
M  V30 1373 O 133.868 0.0153369 1.95894 0
M  V30 1374 H 132.448 0.714521 0.217874 0
M  V30 1375 H 135.11 1.94366 -0.144158 0
M  V30 1376 H 134.206 2.95665 0.999423 0
M  V30 1377 N 134.507 -0.190092 1.56449 0
M  V30 1378 C 135.753 -0.911052 1.81184 0
M  V30 1379 C 136.086 -1.82699 0.658396 0
M  V30 1380 O 135.361 -1.91491 -0.340775 0
M  V30 1381 C 135.644 -1.72297 3.16205 0
M  V30 1382 C 135.497 -0.831419 4.42049 0
M  V30 1383 C 136.816 -2.69454 3.47969 0
M  V30 1384 H 133.935 -0.32977 0.659106 0
M  V30 1385 H 136.577 -0.178169 1.89163 0
M  V30 1386 H 134.727 -2.34778 3.09534 0
M  V30 1387 H 136.399 -0.220929 4.60771 0
M  V30 1388 H 134.642 -0.138406 4.33579 0
M  V30 1389 H 135.313 -1.43461 5.33032 0
M  V30 1390 H 137.789 -2.17104 3.54972 0
M  V30 1391 H 136.665 -3.23342 4.43555 0
M  V30 1392 H 136.926 -3.48744 2.71717 0
M  V30 1393 N 135.985 -1.50799 -0.457987 0
M  V30 1394 C 136.915 -1.73553 -1.5621 0
M  V30 1395 C 137.896 -0.584774 -1.59732 0
M  V30 1396 O 139.081 -0.825314 -1.7579 0
M  V30 1397 C 136.211 -1.84169 -2.94447 0
M  V30 1398 C 135.165 -2.99461 -3.0579 0
M  V30 1399 C 134.491 -2.95235 -4.45803 0
M  V30 1400 C 135.791 -4.39766 -2.81786 0
M  V30 1401 H 137.485 -2.66 -1.37421 0
M  V30 1402 H 135.031 -1.28002 -0.659662 0
M  V30 1403 H 136.984 -1.98672 -3.71628 0
M  V30 1404 H 135.708 -0.883545 -3.14422 0
M  V30 1405 H 134.367 -2.8463 -2.31044 0
M  V30 1406 H 134.015 -1.97239 -4.62715 0
M  V30 1407 H 133.715 -3.72642 -4.54326 0
M  V30 1408 H 135.239 -3.11803 -5.24987 0
M  V30 1409 H 136.653 -4.55054 -3.4871 0
M  V30 1410 H 135.05 -5.18722 -3.0174 0
M  V30 1411 H 136.12 -4.51229 -1.7754 0
M  V30 1412 N 137.463 0.71206 -1.40597 0
M  V30 1413 C 138.711 1.46907 -1.38791 0
M  V30 1414 C 139.032 1.94998 0.00780391 0
M  V30 1415 O 138.302 1.70587 0.963174 0
M  V30 1416 H 136.882 0.545043 -0.51082 0
M  V30 1417 H 139.544 0.843882 -1.75683 0
M  V30 1418 H 138.64 2.34021 -2.06496 0
M  V30 1419 N 138.941 1.26152 0.944643 0
M  V30 1420 C 140.189 1.11271 1.6871 0
M  V30 1421 C 140.51 -0.345166 1.91921 0
M  V30 1422 O 139.78 -1.24387 1.51343 0
M  V30 1423 H 138.36 0.408783 0.625224 0
M  V30 1424 H 141.022 1.58427 1.1352 0
M  V30 1425 H 140.118 1.62879 2.66227 0
M  V30 1426 N 140.419 -1.14872 1.07899 0
M  V30 1427 C 141.696 -1.81928 0.71845 0
M  V30 1428 C 142.076 -1.95417 -0.798455 0
M  V30 1429 O 141.424 -1.50997 -1.715 0
M  V30 1430 C 141.634 -3.17937 1.43935 0
M  V30 1431 C 142.982 -3.93501 1.59506 0
M  V30 1432 O 144.006 -3.27509 1.40058 0
M  V30 1433 O 142.865 -5.1183 1.91551 0
M  V30 1434 H 139.959 -0.78628 0.256305 0
M  V30 1435 H 142.505 -1.21934 1.18026 0
M  V30 1436 H 141.277 -3.0325 2.47295 0
M  V30 1437 H 140.9 -3.85619 0.968687 0
M  V30 1438 N 141.898 -0.863906 -1.31812 0
M  V30 1439 C 142.861 -0.320212 -2.26952 0
M  V30 1440 C 143.861 0.525369 -1.51975 0
M  V30 1441 O 145.051 0.335547 -1.70938 0
M  V30 1442 C 142.183 0.545919 -3.365 0
M  V30 1443 H 143.376 -1.16004 -2.76556 0
M  V30 1444 H 140.929 -0.638995 -1.42641 0
M  V30 1445 H 141.664 1.40718 -2.92179 0
M  V30 1446 H 141.449 -0.0594674 -3.92055 0
M  V30 1447 H 142.939 0.918796 -4.07367 0
M  V30 1448 N 143.376 1.44774 -0.622745 0
M  V30 1449 C 144.625 2.01334 -0.121397 0
M  V30 1450 C 144.938 1.49505 1.26125 0
M  V30 1451 O 146.144 1.98139 1.85616 0
M  V30 1452 C 144.6 3.59516 -0.166298 0
M  V30 1453 C 144.208 4.20342 -1.54974 0
M  V30 1454 C 145.952 4.23582 0.279021 0
M  V30 1455 C 143.859 5.70721 -1.55021 0
M  V30 1456 H 142.789 0.752851 -0.0416172 0
M  V30 1457 H 145.44 1.66083 -0.780309 0
M  V30 1458 H 143.822 3.92027 0.559557 0
M  V30 1459 H 144.996 3.99381 -2.29851 0
M  V30 1460 H 143.311 3.68529 -1.93843 0
M  V30 1461 H 145.908 5.33868 0.298083 0
M  V30 1462 H 146.251 3.95327 1.30471 0
M  V30 1463 H 146.784 3.95843 -0.394063 0
M  V30 1464 H 143.523 6.03698 -2.55399 0
M  V30 1465 H 143.043 5.93829 -0.844245 0
M  V30 1466 H 144.722 6.34203 -1.28047 0
M  V30 1467 N 144.854 0.36279 1.53368 0
M  V30 1468 C 145.817 -0.472679 2.24273 0
M  V30 1469 C 146.817 -1.012 1.24961 0
M  V30 1470 O 148.007 -0.898194 1.49259 0
M  V30 1471 C 145.139 -1.66039 2.97731 0
M  V30 1472 H 146.332 0.14773 2.99536 0
M  V30 1473 H 143.885 0.114434 1.55881 0
M  V30 1474 H 144.62 -2.31896 2.26704 0
M  V30 1475 H 144.405 -1.28066 3.70596 0
M  V30 1476 H 145.895 -2.25252 3.51641 0
M  V30 1477 N 146.332 -1.57332 0.0918853 0
M  V30 1478 C 147.748 -1.57389 -0.264766 0
M  V30 1479 C 147.948 -1.10281 -1.68643 0
M  V30 1480 O 147.004 -0.777801 -2.40222 0
M  V30 1481 C 148.317 -3.00648 -0.0561195 0
M  V30 1482 C 149.865 -3.12754 -0.124116 0
M  V30 1483 C 150.34 -4.57965 0.0564972 0
M  V30 1484 N 151.831 -4.632 0.00155611 0
M  V30 1485 C 152.566 -5.73281 0.116598 0
M  V30 1486 N 152.062 -6.92208 0.286294 0
M  V30 1487 N 153.855 -5.6207 0.0580973 0
M  V30 1488 H 146.006 -1.86262 1.02079 0
M  V30 1489 H 148.269 -0.859579 0.399786 0
M  V30 1490 H 147.975 -3.393 0.925669 0
M  V30 1491 H 147.849 -3.68623 -0.799823 0
M  V30 1492 H 150.236 -2.73976 -1.09641 0
M  V30 1493 H 150.317 -2.47377 0.651024 0
M  V30 1494 H 149.961 -4.97436 1.02564 0
M  V30 1495 H 149.891 -5.21399 -0.738297 0
M  V30 1496 H 152.382 -3.77686 -0.127192 0
M  V30 1497 H 152.695 -7.71934 0.365676 0
M  V30 1498 H 151.04 -6.94254 0.32192 0
M  V30 1499 H 154.231 -4.68043 -0.0733204 0
M  V30 1500 H 154.404 -6.47824 0.151203 0
M  V30 1501 N 147.81 0.181792 -1.56548 0
M  V30 1502 C 149.058 0.89832 -1.81038 0
M  V30 1503 C 149.379 1.83232 -0.667164 0
M  V30 1504 O 148.649 1.93372 0.313673 0
M  V30 1505 H 147.229 0.33471 -0.667816 0
M  V30 1506 H 149.891 0.184116 -1.94028 0
M  V30 1507 H 148.987 1.4815 -2.74696 0
M  V30 1508 N 149.288 1.51039 0.449983 0
M  V30 1509 C 150.198 1.74261 1.57067 0
M  V30 1510 C 151.214 0.626363 1.62335 0
M  V30 1511 O 152.39 0.907162 1.79812 0
M  V30 1512 C 149.455 1.85114 2.93144 0
M  V30 1513 C 148.516 3.0893 2.98095 0
M  V30 1514 C 147.749 3.19256 4.27681 0
M  V30 1515 O 147.972 2.35835 5.19363 0
M  V30 1516 O 146.906 4.12144 4.38658 0
M  V30 1517 H 150.732 2.69303 1.40391 0
M  V30 1518 H 148.317 1.35389 0.631688 0
M  V30 1519 H 150.199 1.94311 3.73926 0
M  V30 1520 H 148.874 0.932588 3.09975 0
M  V30 1521 H 147.781 3.0522 2.16314 0
M  V30 1522 H 149.114 4.00433 2.86206 0
M  V30 1523 N 150.766 -0.704594 1.40972 0
M  V30 1524 C 152.015 -1.46018 1.39146 0
M  V30 1525 C 152.328 -1.956 0.000589254 0
M  V30 1526 O 153.534 -2.71137 -0.1403 0
M  V30 1527 C 151.99 -2.63996 2.4461 0
M  V30 1528 C 151.598 -2.21238 3.89561 0
M  V30 1529 C 153.342 -3.41677 2.51907 0
M  V30 1530 C 151.249 -3.3612 4.86598 0
M  V30 1531 H 150.179 -0.548444 0.517422 0
M  V30 1532 H 152.83 -0.765784 1.66757 0
M  V30 1533 H 151.212 -3.3566 2.10115 0
M  V30 1534 H 152.386 -1.56923 4.33257 0
M  V30 1535 H 150.701 -1.56574 3.85841 0
M  V30 1536 H 153.298 -4.27182 3.2159 0
M  V30 1537 H 153.641 -3.86247 1.55303 0
M  V30 1538 H 154.174 -2.77064 2.85448 0
M  V30 1539 H 150.913 -2.96572 5.84573 0
M  V30 1540 H 150.433 -3.99315 4.47557 0
M  V30 1541 H 152.112 -4.02029 5.06934 0
M  V30 1542 N 152.244 -1.26651 -0.937939 0
M  V30 1543 C 153.469 -1.15279 -1.72411 0
M  V30 1544 C 153.894 0.287866 -1.85884 0
M  V30 1545 O 153.252 1.20855 -1.35143 0
M  V30 1546 C 153.3 -1.83028 -3.10698 0
M  V30 1547 O 152.404 -1.12128 -3.96864 0
M  V30 1548 H 151.745 -0.401504 -0.528858 0
M  V30 1549 H 154.275 -1.67531 -1.1745 0
M  V30 1550 H 154.285 -1.89981 -3.6107 0
M  V30 1551 H 152.96 -2.87833 -3.00208 0
M  V30 1552 H 151.537 -1.13173 -3.55312 0
M  V30 1553 N 153.722 1.14298 -1.08507 0
M  V30 1554 C 154.652 2.21542 -0.737646 0
M  V30 1555 C 155.633 1.67773 0.280377 0
M  V30 1556 O 156.818 1.93616 0.150521 0
M  V30 1557 C 153.948 3.46988 -0.147259 0
M  V30 1558 C 152.902 4.13789 -1.09374 0
M  V30 1559 C 152.228 5.33449 -0.365524 0
M  V30 1560 C 153.528 4.62208 -2.4323 0
M  V30 1561 H 155.222 2.5086 -1.6343 0
M  V30 1562 H 152.768 1.20576 -0.787243 0
M  V30 1563 H 154.721 4.21262 0.107808 0
M  V30 1564 H 153.445 3.17037 0.784538 0
M  V30 1565 H 152.104 3.4147 -1.33393 0
M  V30 1566 H 151.752 4.99759 0.57011 0
M  V30 1567 H 151.452 5.79088 -0.996512 0
M  V30 1568 H 152.976 6.10485 -0.118534 0
M  V30 1569 H 154.39 5.27952 -2.23472 0
M  V30 1570 H 152.787 5.18553 -3.02031 0
M  V30 1571 H 153.857 3.77224 -3.04681 0
M  V30 1572 N 155.201 0.870884 1.31352 0
M  V30 1573 C 156.478 0.402907 1.91405 0
M  V30 1574 C 156.858 -1.11512 1.79244 0
M  V30 1575 O 156.206 -1.94411 1.2007 0
M  V30 1576 C 156.416 0.885301 3.37585 0
M  V30 1577 C 157.764 0.911971 4.14691 0
M  V30 1578 O 158.788 0.831016 3.46371 0
M  V30 1579 O 157.647 1.02927 5.3672 0
M  V30 1580 H 154.741 0.120698 0.818145 0
M  V30 1581 H 157.287 0.958857 1.40014 0
M  V30 1582 H 156.059 1.92889 3.40455 0
M  V30 1583 H 155.682 0.307714 3.96407 0
M  V30 1584 N 156.679 -1.44442 0.630414 0
M  V30 1585 C 157.956 -1.9549 0.0655657 0
M  V30 1586 C 158.336 -1.5724 -1.40851 0
M  V30 1587 O 157.684 -0.846116 -2.12257 0
M  V30 1588 C 157.894 -3.47812 0.287691 0
M  V30 1589 C 159.242 -4.24216 0.180513 0
M  V30 1590 O 160.266 -3.55526 0.219019 0
M  V30 1591 O 159.125 -5.46434 0.0848493 0
M  V30 1592 H 156.219 -0.826688 -0.0227177 0
M  V30 1593 H 158.765 -1.54496 0.702068 0
M  V30 1594 H 157.537 -3.687 1.31056 0
M  V30 1595 H 157.16 -3.95751 -0.382984 0
M  V30 1596 N 158.157 -0.370918 -1.53173 0
M  V30 1597 C 159.12 0.460778 -2.24521 0
M  V30 1598 C 160.12 1.00536 -1.25496 0
M  V30 1599 O 161.31 0.890266 -1.49733 0
M  V30 1600 C 158.442 1.64457 -2.98608 0
M  V30 1601 H 159.635 -0.163613 -2.99453 0
M  V30 1602 H 157.188 -0.122699 -1.55818 0
M  V30 1603 H 157.923 2.30691 -2.2793 0
M  V30 1604 H 157.708 1.26099 -3.7127 0
M  V30 1605 H 159.198 2.23384 -3.5283 0
M  V30 1606 N 159.635 1.57281 -0.100228 0
M  V30 1607 C 160.881 1.94826 0.563101 0
M  V30 1608 C 161.214 0.982475 1.67514 0
M  V30 1609 O 160.489 0.0164069 1.94493 0
M  V30 1610 C 160.772 3.42453 1.11346 0
M  V30 1611 C 160.625 4.498 0.00612081 0
M  V30 1612 C 161.944 3.91506 2.01024 0
M  V30 1613 H 159.063 0.708428 0.203221 0
M  V30 1614 H 161.705 1.8922 -0.171979 0
M  V30 1615 H 159.855 3.47361 1.7399 0
M  V30 1616 H 161.527 4.57 -0.628357 0
M  V30 1617 H 159.77 4.28756 -0.659581 0
M  V30 1618 H 160.441 5.50306 0.432109 0
M  V30 1619 H 162.917 3.88784 1.48278 0
M  V30 1620 H 161.793 4.95358 2.36457 0
M  V30 1621 H 162.054 3.31099 2.92961 0
M  V30 1622 N 161.113 -0.173488 1.56642 0
M  V30 1623 C 162.341 -0.906095 1.86004 0
M  V30 1624 C 162.756 -1.75921 0.685355 0
M  V30 1625 O 162.113 -1.79198 -0.345578 0
M  V30 1626 C 162.164 -1.78462 3.14378 0
M  V30 1627 O 161.885 -0.965914 4.27319 0
M  V30 1628 C 163.386 -2.62707 3.57071 0
M  V30 1629 H 160.606 -0.263341 0.617165 0
M  V30 1630 H 163.15 -0.174236 2.03756 0
M  V30 1631 H 161.305 -2.46984 2.98459 0
M  V30 1632 H 161.719 -1.56655 5.00559 0
M  V30 1633 H 163.193 -3.19969 4.49804 0
M  V30 1634 H 163.67 -3.37472 2.81086 0
M  V30 1635 H 164.276 -1.99521 3.75595 0
M  V30 1636 N 162.591 -1.51276 -0.441967 0
M  V30 1637 C 164.007 -1.39349 -0.778083 0
M  V30 1638 C 164.207 -0.472212 -1.95889 0
M  V30 1639 O 163.263 0.0743551 -2.5239 0
M  V30 1640 C 164.576 -2.81292 -1.0628 0
M  V30 1641 C 166.124 -2.9041 -1.16751 0
M  V30 1642 C 166.599 -4.33251 -1.48519 0
M  V30 1643 N 168.09 -4.36336 -1.55453 0
M  V30 1644 C 168.825 -5.43885 -1.81596 0
M  V30 1645 N 168.321 -6.61601 -2.05562 0
M  V30 1646 N 170.114 -5.3136 -1.8334 0
M  V30 1647 H 162.265 -2.09729 0.335774 0
M  V30 1648 H 164.528 -0.943925 0.0878028 0
M  V30 1649 H 164.234 -3.50678 -0.267905 0
M  V30 1650 H 164.108 -3.20334 -1.99163 0
M  V30 1651 H 166.495 -2.21225 -1.95304 0
M  V30 1652 H 166.576 -2.54871 -0.217801 0
M  V30 1653 H 166.22 -5.02984 -0.704958 0
M  V30 1654 H 166.15 -4.66299 -2.44689 0
M  V30 1655 H 168.641 -3.51466 -1.38853 0
M  V30 1656 H 168.954 -7.39361 -2.24867 0
M  V30 1657 H 167.299 -6.64725 -2.02894 0
M  V30 1658 H 170.49 -4.38382 -1.64132 0
M  V30 1659 H 170.663 -6.15258 -2.03377 0
M  V30 1660 N 164.069 0.697108 -1.41344 0
M  V30 1661 C 165.299 1.48377 -1.43763 0
M  V30 1662 C 165.707 1.89156 -0.0408726 0
M  V30 1663 O 165.05 1.57239 0.949812 0
M  V30 1664 C 165.112 2.7781 -2.2817 0
M  V30 1665 C 164.776 2.59244 -3.76353 0
M  V30 1666 C 165.773 2.25292 -4.68551 0
M  V30 1667 C 163.458 2.74933 -4.20378 0
M  V30 1668 C 165.452 2.07264 -6.02761 0
M  V30 1669 C 163.139 2.56521 -5.54653 0
M  V30 1670 C 164.137 2.22737 -6.4566 0
M  V30 1671 O 163.825 2.04485 -7.77458 0
M  V30 1672 H 163.557 0.463842 -0.491759 0
M  V30 1673 H 166.111 0.865934 -1.86255 0
M  V30 1674 H 164.341 3.41995 -1.8049 0
M  V30 1675 H 166.03 3.39608 -2.22309 0
M  V30 1676 H 166.796 2.12787 -4.35829 0
M  V30 1677 H 162.675 3.00213 -3.49848 0
M  V30 1678 H 166.219 1.80817 -6.73759 0
M  V30 1679 H 162.116 2.68616 -5.86955 0
M  V30 1680 H 162.884 2.1926 -7.88586 0
M  V30 1681 N 165.547 1.27147 0.931209 0
M  V30 1682 C 166.793 1.14455 1.68141 0
M  V30 1683 C 167.148 -0.307172 1.89932 0
M  V30 1684 O 166.441 -1.22158 1.47607 0
M  V30 1685 C 166.635 1.8579 3.05314 0
M  V30 1686 C 166.464 3.3775 2.96909 0
M  V30 1687 C 165.234 4.07062 2.99381 0
M  V30 1688 C 167.432 4.33783 2.76291 0
M  V30 1689 N 165.414 5.45618 2.8138 0
M  V30 1690 C 166.785 5.59582 2.6696 0
M  V30 1691 C 168.84 4.23915 2.61152 0
M  V30 1692 C 167.543 6.76639 2.44033 0
M  V30 1693 C 169.569 5.40689 2.39602 0
M  V30 1694 C 168.931 6.65443 2.3101 0
M  V30 1695 H 165.03 0.473667 0.622225 0
M  V30 1696 H 167.614 1.60568 1.10118 0
M  V30 1697 H 165.785 1.42138 3.61457 0
M  V30 1698 H 167.517 1.65634 3.69253 0
M  V30 1699 H 164.272 3.585 3.09475 0
M  V30 1700 H 164.696 6.184 2.75519 0
M  V30 1701 H 169.338 3.28189 2.66555 0
M  V30 1702 H 167.056 7.72451 2.3737 0
M  V30 1703 H 170.642 5.34932 2.28778 0
M  V30 1704 H 169.522 7.54277 2.14558 0
M  V30 1705 N 167.025 -1.13721 1.09112 0
M  V30 1706 C 168.436 -1.6648 0.845068 0
M  V30 1707 C 168.787 -1.85911 -0.62701 0
M  V30 1708 O 167.912 -1.57556 -1.48341 0
M  V30 1709 C 168.507 -3.02413 1.52748 0
M  V30 1710 C 167.066 -3.52176 1.32849 0
M  V30 1711 C 166.213 -2.27492 1.58564 0
M  V30 1712 H 169.164 -0.976872 1.25072 0
M  V30 1713 H 169.185 -3.68223 0.958752 0
M  V30 1714 H 168.697 -2.88238 2.59885 0
M  V30 1715 H 166.798 -3.7156 0.278137 0
M  V30 1716 H 166.911 -4.32499 2.0611 0
M  V30 1717 H 165.275 -2.33923 1.00758 0
M  V30 1718 H 166.058 -2.15886 2.66924 0
M  V30 1719 N 168.503 -0.877838 -1.30888 0
M  V30 1720 C 169.435 -0.296607 -2.27273 0
M  V30 1721 C 170.448 0.544799 -1.53414 0
M  V30 1722 O 171.637 0.365511 -1.74718 0
M  V30 1723 C 168.737 0.597481 -3.33592 0
M  V30 1724 C 167.91 -0.213251 -4.3688 0
M  V30 1725 C 166.969 0.610208 -5.2265 0
M  V30 1726 O 165.995 0.035441 -5.69189 0
M  V30 1727 N 167.197 1.92071 -5.47804 0
M  V30 1728 H 169.962 -1.12492 -2.77787 0
M  V30 1729 H 167.523 -0.740105 -1.43993 0
M  V30 1730 H 169.515 1.15425 -3.87891 0
M  V30 1731 H 168.085 1.32647 -2.83061 0
M  V30 1732 H 167.305 -0.951466 -3.82545 0
M  V30 1733 H 168.593 -0.769262 -5.02951 0
M  V30 1734 H 167.991 2.4107 -5.11763 0
M  V30 1735 H 166.548 2.42508 -6.05007 0
M  V30 1736 N 169.982 1.44106 -0.638065 0
M  V30 1737 C 170.912 2.33448 0.0494287 0
M  V30 1738 C 171.893 1.48606 0.827672 0
M  V30 1739 O 173.078 1.77308 0.792173 0
M  V30 1740 C 170.208 3.31771 1.02691 0
M  V30 1741 C 169.162 4.26485 0.359823 0
M  V30 1742 C 168.488 5.14729 1.44769 0
M  V30 1743 C 169.788 5.17056 -0.738296 0
M  V30 1744 H 171.482 2.91183 -0.696636 0
M  V30 1745 H 169.028 1.40014 -0.336456 0
M  V30 1746 H 170.981 3.93161 1.51666 0
M  V30 1747 H 169.705 2.7226 1.80395 0
M  V30 1748 H 168.364 3.66437 -0.10934 0
M  V30 1749 H 168.012 4.51566 2.21578 0
M  V30 1750 H 167.712 5.78913 1.00668 0
M  V30 1751 H 169.236 5.78991 1.93911 0
M  V30 1752 H 170.65 5.72342 -0.331354 0
M  V30 1753 H 169.047 5.89879 -1.10286 0
M  V30 1754 H 170.117 4.57652 -1.60258 0
M  V30 1755 N 171.46 0.379036 1.52974 0
M  V30 1756 C 172.688 -0.20679 2.05864 0
M  V30 1757 C 173.103 -1.41356 1.25155 0
M  V30 1758 O 172.46 -1.8009 0.295588 0
M  V30 1759 C 172.511 -0.587045 3.56702 0
M  V30 1760 O 172.232 0.571776 4.34353 0
M  V30 1761 C 173.733 -1.22983 4.25899 0
M  V30 1762 H 170.953 -0.0336123 0.670158 0
M  V30 1763 H 173.497 0.541298 1.97206 0
M  V30 1764 H 171.652 -1.28504 3.65466 0
M  V30 1765 H 172.066 0.261544 5.23847 0
M  V30 1766 H 173.54 -1.44635 5.32715 0
M  V30 1767 H 174.017 -2.19416 3.80465 0
M  V30 1768 H 174.623 -0.572892 4.21424 0
M  V30 1769 N 172.938 -1.57226 0.108567 0
M  V30 1770 C 174.186 -1.94448 -0.550853 0
M  V30 1771 C 174.507 -0.992074 -1.67878 0
M  V30 1772 O 173.777 -0.0465 -1.95845 0
M  V30 1773 H 172.357 -0.717897 -0.206479 0
M  V30 1774 H 175.019 -1.94112 0.175062 0
M  V30 1775 H 174.115 -2.97218 -0.952259 0
M  V30 1776 N 174.416 0.165178 -1.56732 0
M  V30 1777 C 175.363 1.2044 -1.96883 0
M  V30 1778 C 176.333 1.43664 -0.833657 0
M  V30 1779 O 177.518 1.56302 -1.09427 0
M  V30 1780 C 174.658 2.53727 -2.33916 0
M  V30 1781 C 173.771 2.3783 -3.6064 0
M  V30 1782 C 172.906 3.64026 -3.86857 0
M  V30 1783 C 171.945 3.43088 -5.06909 0
M  V30 1784 N 171.082 4.61369 -5.29229 0
M  V30 1785 H 175.922 0.854996 -2.85471 0
M  V30 1786 H 173.459 0.41076 -1.41249 0
M  V30 1787 H 175.417 3.31419 -2.53411 0
M  V30 1788 H 174.047 2.8665 -1.48431 0
M  V30 1789 H 173.099 1.51282 -3.49024 0
M  V30 1790 H 174.411 2.18308 -4.4849 0
M  V30 1791 H 173.565 4.50152 -4.06753 0
M  V30 1792 H 172.304 3.86533 -2.97394 0
M  V30 1793 H 171.309 2.55349 -4.86906 0
M  V30 1794 H 172.534 3.21997 -5.97909 0
M  V30 1795 H 170.48 4.84084 -4.42718 0
M  V30 1796 H 170.397 4.44783 -6.11313 0
M  V30 1797 H 171.665 5.48761 -5.53608 0
M  V30 1798 N 175.894 1.51508 0.433938 0
M  V30 1799 C 176.826 1.69266 1.54537 0
M  V30 1800 C 177.839 0.573276 1.52373 0
M  V30 1801 O 179.028 0.847698 1.57087 0
M  V30 1802 C 176.128 1.69524 2.93453 0
M  V30 1803 C 175.301 2.98101 3.20085 0
M  V30 1804 C 174.36 2.90502 4.38742 0
M  V30 1805 O 173.386 3.64442 4.3723 0
M  V30 1806 N 174.588 2.06586 5.42496 0
M  V30 1807 H 177.353 2.65145 1.39708 0
M  V30 1808 H 174.914 1.49437 0.622922 0
M  V30 1809 H 176.906 1.62004 3.70859 0
M  V30 1810 H 175.476 0.812245 3.01863 0
M  V30 1811 H 174.696 3.19464 2.30947 0
M  V30 1812 H 175.984 3.83207 3.34708 0
M  V30 1813 H 175.382 1.45896 5.46563 0
M  V30 1814 H 173.939 2.04943 6.18742 0
M  V30 1815 N 177.372 -0.689602 1.41712 0
M  V30 1816 C 178.618 -1.45041 1.42599 0
M  V30 1817 C 178.973 -1.92366 0.0363764 0
M  V30 1818 O 178.266 -1.67022 -0.938844 0
M  V30 1819 C 178.46 -2.67298 2.37247 0
M  V30 1820 C 178.289 -2.31935 3.85274 0
M  V30 1821 C 177.059 -2.2201 4.53916 0
M  V30 1822 C 179.257 -1.94526 4.76093 0
M  V30 1823 N 177.239 -1.79594 5.87043 0
M  V30 1824 C 178.61 -1.62915 5.98213 0
M  V30 1825 C 180.665 -1.81388 4.63684 0
M  V30 1826 C 179.368 -1.19486 7.09306 0
M  V30 1827 C 181.394 -1.39364 5.74745 0
M  V30 1828 C 180.756 -1.08668 6.95967 0
M  V30 1829 H 176.855 -0.527806 0.577014 0
M  V30 1830 H 179.439 -0.797266 1.77628 0
M  V30 1831 H 177.61 -3.30325 2.04304 0
M  V30 1832 H 179.342 -3.33806 2.28814 0
M  V30 1833 H 176.097 -2.406 4.07932 0
M  V30 1834 H 176.521 -1.60851 6.57614 0
M  V30 1835 H 181.163 -2.03772 3.70455 0
M  V30 1836 H 178.881 -0.958477 8.02396 0
M  V30 1837 H 182.467 -1.2974 5.6715 0
M  V30 1838 H 181.347 -0.766417 7.80446 0
M  V30 1839 N 178.85 -1.27639 -0.924453 0
M  V30 1840 C 179.782 -1.06442 -2.02985 0
M  V30 1841 C 180.795 -0.0194771 -1.62788 0
M  V30 1842 O 181.984 -0.261388 -1.76576 0
M  V30 1843 C 179.084 -0.59327 -3.33667 0
M  V30 1844 C 178.257 -1.71123 -4.02537 0
M  V30 1845 C 177.316 -1.23527 -5.11495 0
M  V30 1846 O 176.342 -1.93553 -5.35281 0
M  V30 1847 N 177.544 -0.0926678 -5.80426 0
M  V30 1848 H 180.309 -2.01633 -2.2173 0
M  V30 1849 H 177.87 -1.19248 -1.09505 0
M  V30 1850 H 179.862 -0.258686 -4.03872 0
M  V30 1851 H 178.432 0.265502 -3.1147 0
M  V30 1852 H 177.652 -2.21593 -3.26022 0
M  V30 1853 H 178.94 -2.46145 -4.45298 0
M  V30 1854 H 178.338 0.491741 -5.63559 0
M  V30 1855 H 176.895 0.182714 -6.51544 0
M  V30 1856 N 180.328 1.1314 -1.09713 0
M  V30 1857 C 181.576 1.84119 -0.833338 0
M  V30 1858 C 181.897 1.84097 0.642904 0
M  V30 1859 O 181.167 1.29881 1.46655 0
M  V30 1860 H 179.747 0.681766 -0.305293 0
M  V30 1861 H 182.409 1.37038 -1.38588 0
M  V30 1862 H 181.505 2.88543 -1.18951 0
M  V30 1863 N 181.806 0.884767 1.30421 0
M  V30 1864 C 183.055 0.499164 1.95426 0
M  V30 1865 C 183.368 -0.95645 1.70621 0
M  V30 1866 O 184.574 -1.44889 2.29607 0
M  V30 1867 C 183.03 0.84177 3.49917 0
M  V30 1868 C 182.638 2.31514 3.83543 0
M  V30 1869 C 184.382 0.525355 4.21237 0
M  V30 1870 C 182.289 2.59939 5.31212 0
M  V30 1871 H 181.219 0.182944 0.73147 0
M  V30 1872 H 183.87 1.07971 1.48373 0
M  V30 1873 H 182.252 0.190311 3.95542 0
M  V30 1874 H 183.426 3.0109 3.48829 0
M  V30 1875 H 181.741 2.59907 3.25326 0
M  V30 1876 H 184.338 0.714762 5.29901 0
M  V30 1877 H 184.681 -0.535222 4.12845 0
M  V30 1878 H 185.214 1.134 3.81294 0
M  V30 1879 H 181.953 3.64736 5.44654 0
M  V30 1880 H 181.473 1.94972 5.67227 0
M  V30 1881 H 183.152 2.45429 5.98643 0
M  V30 1882 N 183.284 -1.43765 0.645699 0
M  V30 1883 C 184.7 -1.56509 0.312591 0
M  V30 1884 C 184.9 -1.6307 -1.18365 0
M  V30 1885 O 183.956 -1.58167 -1.96824 0
M  V30 1886 C 185.269 -2.82968 1.01733 0
M  V30 1887 C 186.817 -2.96701 0.996865 0
M  V30 1888 C 187.292 -4.25982 1.68236 0
M  V30 1889 N 188.783 -4.32829 1.64964 0
M  V30 1890 C 189.518 -5.31613 2.14885 0
M  V30 1891 N 189.014 -6.36718 2.73061 0
M  V30 1892 N 190.807 -5.23217 2.05428 0
M  V30 1893 H 182.958 -1.3775 1.61675 0
M  V30 1894 H 185.221 -0.661067 0.679481 0
M  V30 1895 H 184.927 -2.84156 2.0724 0
M  V30 1896 H 184.801 -3.72957 0.564177 0
M  V30 1897 H 187.188 -2.95058 -0.0497719 0
M  V30 1898 H 187.269 -2.08022 1.48865 0
M  V30 1899 H 186.913 -4.28386 2.72852 0
M  V30 1900 H 186.843 -5.13545 1.16529 0
M  V30 1901 H 189.334 -3.57493 1.22503 0
M  V30 1902 H 189.647 -7.08401 3.08848 0
M  V30 1903 H 187.992 -6.37362 2.77118 0
M  V30 1904 H 191.183 -4.40019 1.59689 0
M  V30 1905 H 191.356 -6.00045 2.44643 0
M  V30 1906 N 184.763 -0.387143 -1.52771 0
M  V30 1907 C 185.696 0.493123 -2.22808 0
M  V30 1908 C 186.674 1.0658 -1.22798 0
M  V30 1909 O 187.858 1.11785 -1.51777 0
M  V30 1910 C 184.985 1.68238 -2.93962 0
M  V30 1911 C 184.031 1.23515 -4.08223 0
M  V30 1912 S 184.864 0.21848 -5.35054 0
M  V30 1913 C 186.02 1.41357 -6.09729 0
M  V30 1914 H 186.253 -0.101625 -2.97126 0
M  V30 1915 H 183.786 -0.171323 -1.53447 0
M  V30 1916 H 185.744 2.36443 -3.35567 0
M  V30 1917 H 184.405 2.24842 -2.19328 0
M  V30 1918 H 183.598 2.12304 -4.57103 0
M  V30 1919 H 183.2 0.632044 -3.68621 0
M  V30 1920 H 185.492 2.34101 -6.3577 0
M  V30 1921 H 186.435 0.965736 -7.01484 0
M  V30 1922 H 186.843 1.6294 -5.40473 0
M  V30 1923 N 186.241 1.57166 -0.116904 0
M  V30 1924 C 187.171 2.18222 0.830759 0
M  V30 1925 C 188.152 1.12167 1.27877 0
M  V30 1926 O 189.337 1.40394 1.34176 0
M  V30 1927 C 186.467 2.77996 2.08172 0
M  V30 1928 C 185.421 3.89614 1.77157 0
M  V30 1929 C 184.747 4.36187 3.09265 0
M  V30 1930 C 186.047 5.1181 1.04151 0
M  V30 1931 H 187.741 2.97664 0.321992 0
M  V30 1932 H 185.287 1.4318 0.153434 0
M  V30 1933 H 187.24 3.19366 2.74924 0
M  V30 1934 H 185.964 1.9584 2.6137 0
M  V30 1935 H 184.623 3.48816 1.12796 0
M  V30 1936 H 184.271 3.50893 3.60393 0
M  V30 1937 H 183.971 5.11455 2.89288 0
M  V30 1938 H 185.495 4.80207 3.77139 0
M  V30 1939 H 186.909 5.50214 1.61052 0
M  V30 1940 H 185.306 5.92648 0.942762 0
M  V30 1941 H 186.376 4.84892 0.0279022 0
M  V30 1942 N 187.719 -0.156864 1.56817 0
M  V30 1943 C 188.996 -0.899244 1.73704 0
M  V30 1944 C 189.376 -1.99771 0.682254 0
M  V30 1945 O 188.724 -2.26515 -0.300522 0
M  V30 1946 C 188.934 -1.45075 3.17418 0
M  V30 1947 C 190.282 -1.91802 3.7881 0
M  V30 1948 O 191.306 -1.54838 3.20786 0
M  V30 1949 O 190.165 -2.5994 4.80722 0
M  V30 1950 H 187.259 -0.424267 0.709878 0
M  V30 1951 H 189.805 -0.143561 1.69092 0
M  V30 1952 H 188.577 -0.660846 3.85679 0
M  V30 1953 H 188.2 -2.27021 3.26416 0
M  V30 1954 N 189.197 -1.51736 -0.425897 0
M  V30 1955 C 190.127 -1.76827 -1.52494 0
M  V30 1956 C 191.108 -0.618524 -1.58456 0
M  V30 1957 O 192.293 -0.862416 -1.74 0
M  V30 1958 C 189.423 -1.90374 -2.90474 0
M  V30 1959 C 188.377 -3.0588 -2.99369 0
M  V30 1960 C 187.703 -3.04625 -4.3944 0
M  V30 1961 C 189.003 -4.45644 -2.72394 0
M  V30 1962 H 190.697 -2.68855 -1.31748 0
M  V30 1963 H 188.243 -1.29372 -0.632362 0
M  V30 1964 H 190.196 -2.0651 -3.6733 0
M  V30 1965 H 188.92 -0.95004 -3.12477 0
M  V30 1966 H 187.579 -2.89467 -2.24954 0
M  V30 1967 H 187.227 -2.0701 -4.58428 0
M  V30 1968 H 186.927 -3.82195 -4.46319 0
M  V30 1969 H 188.451 -3.22869 -5.18255 0
M  V30 1970 H 189.865 -4.62348 -3.38979 0
M  V30 1971 H 188.262 -5.25006 -2.9067 0
M  V30 1972 H 189.332 -4.54893 -1.67929 0
M  V30 1973 N 190.675 0.682077 -1.42076 0
M  V30 1974 C 191.638 1.77756 -1.44691 0
M  V30 1975 C 192.638 1.5726 -0.335535 0
M  V30 1976 O 193.828 1.63686 -0.596037 0
M  V30 1977 C 190.96 3.16301 -1.27146 0
M  V30 1978 H 192.153 1.76826 -2.42224 0
M  V30 1979 H 189.706 0.891012 -1.28416 0
M  V30 1980 H 190.441 3.22862 -0.305075 0
M  V30 1981 H 190.226 3.32581 -2.07683 0
M  V30 1982 H 191.716 3.96241 -1.31843 0
M  V30 1983 N 192.153 1.28127 0.917671 0
M  V30 1984 C 193.381 1.17892 1.70026 0
M  V30 1985 C 193.796 -0.262958 1.8696 0
M  V30 1986 O 193.153 -1.17811 1.3938 0
M  V30 1987 C 193.204 1.86872 3.09453 0
M  V30 1988 O 192.925 3.25428 2.93306 0
M  V30 1989 C 194.426 1.8289 4.03815 0
M  V30 1990 H 191.646 0.40942 0.531617 0
M  V30 1991 H 194.19 1.69181 1.14883 0
M  V30 1992 H 192.345 1.39464 3.61426 0
M  V30 1993 H 192.759 3.59918 3.81523 0
M  V30 1994 H 194.233 2.35751 4.99125 0
M  V30 1995 H 194.71 0.800412 4.31845 0
M  V30 1996 H 195.316 2.29959 3.57769 0
M  V30 1997 N 193.631 -1.12557 1.10312 0
M  V30 1998 C 194.861 -1.87592 0.865617 0
M  V30 1999 C 195.269 -1.79851 -0.587389 0
M  V30 2000 O 194.612 -1.16949 -1.41664 0
M  V30 2001 C 194.674 -3.37665 1.23381 0
M  V30 2002 C 194.338 -3.69181 2.69359 0
M  V30 2003 C 195.335 -3.67652 3.67597 0
M  V30 2004 C 193.02 -3.98555 3.05711 0
M  V30 2005 C 195.014 -3.95053 5.00212 0
M  V30 2006 C 192.701 -4.25616 4.38514 0
M  V30 2007 C 193.699 -4.23851 5.35574 0
M  V30 2008 O 193.387 -4.50242 6.65986 0
M  V30 2009 H 193.119 -0.600442 0.310557 0
M  V30 2010 H 195.673 -1.4335 1.47105 0
M  V30 2011 H 193.903 -3.82454 0.571467 0
M  V30 2012 H 195.592 -3.94041 0.973994 0
M  V30 2013 H 196.358 -3.45024 3.40857 0
M  V30 2014 H 192.237 -3.99071 2.30789 0
M  V30 2015 H 195.781 -3.93591 5.75962 0
M  V30 2016 H 191.678 -4.47718 4.64994 0
M  V30 2017 H 192.446 -4.67867 6.71597 0
M  V30 2018 N 195.109 -0.891671 -1.2995 0
M  V30 2019 C 196.337 -0.52866 -2.00032 0
M  V30 2020 C 196.752 0.884574 -1.66795 0
M  V30 2021 O 196.109 1.5827 -0.908669 0
M  V30 2022 C 196.16 -0.701814 -3.54622 0
M  V30 2023 O 195.881 -2.05942 -3.86678 0
M  V30 2024 C 197.382 -0.342683 -4.41973 0
M  V30 2025 H 194.602 -0.203659 -0.639347 0
M  V30 2026 H 197.146 -1.19881 -1.65677 0
M  V30 2027 H 195.301 -0.0789468 -3.8732 0
M  V30 2028 H 195.715 -2.08291 -4.81368 0
M  V30 2029 H 197.189 -0.514709 -5.49595 0
M  V30 2030 H 197.666 0.71975 -4.33262 0
M  V30 2031 H 198.272 -0.942154 -4.14733 0
M  V30 2032 N 196.587 1.43421 -0.653314 0
M  V30 2033 C 197.55 2.29182 0.0287951 0
M  V30 2034 C 198.55 1.42213 0.750465 0
M  V30 2035 O 199.74 1.63843 0.591701 0
M  V30 2036 C 196.872 3.24278 1.05151 0
M  V30 2037 H 198.065 2.90985 -0.725786 0
M  V30 2038 H 195.618 1.50702 -0.414545 0
M  V30 2039 H 196.353 2.6737 1.83532 0
M  V30 2040 H 196.138 3.88396 0.537687 0
M  V30 2041 H 197.628 3.88647 1.52786 0
M  V30 2042 N 198.065 0.39524 1.52563 0
M  V30 2043 C 199.313 -0.184678 2.01254 0
M  V30 2044 C 199.634 -1.46822 1.28329 0
M  V30 2045 O 198.904 -1.91666 0.405094 0
M  V30 2046 H 197.484 -0.0712355 0.743596 0
M  V30 2047 H 200.146 0.528293 1.87603 0
M  V30 2048 H 199.242 -0.390681 3.09645 0
M  V30 2049 N 199.544 -1.57102 0.125237 0
M  V30 2050 C 200.792 -1.95021 -0.530198 0
M  V30 2051 C 201.113 -1.00982 -1.66816 0
M  V30 2052 O 200.383 -0.0672693 -1.95784 0
M  V30 2053 H 198.963 -0.720046 -0.198853 0
M  V30 2054 H 201.625 -1.93916 0.19564 0
M  V30 2055 H 200.721 -2.98211 -0.920681 0
M  V30 2056 N 201.022 0.148545 -1.56898 0
M  V30 2057 C 201.952 1.18524 -2.01182 0
M  V30 2058 C 202.933 1.4489 -0.891123 0
M  V30 2059 O 204.118 1.55836 -1.15882 0
M  V30 2060 C 201.248 2.51879 -2.39112 0
M  V30 2061 C 200.202 2.40038 -3.54353 0
M  V30 2062 C 199.528 3.78089 -3.78091 0
M  V30 2063 C 200.828 1.88577 -4.87069 0
M  V30 2064 H 202.522 0.817029 -2.88036 0
M  V30 2065 H 200.068 0.391575 -1.38574 0
M  V30 2066 H 202.021 3.24627 -2.68692 0
M  V30 2067 H 200.745 2.90532 -1.49193 0
M  V30 2068 H 199.404 1.69742 -3.24936 0
M  V30 2069 H 199.052 4.14175 -2.85426 0
M  V30 2070 H 198.752 3.71028 -4.55645 0
M  V30 2071 H 200.276 4.52387 -4.10095 0
M  V30 2072 H 201.69 2.51117 -5.15377 0
M  V30 2073 H 200.087 1.9241 -5.68417 0
M  V30 2074 H 201.157 0.84136 -4.77545 0
M  V30 2075 N 202.5 1.5196 0.417844 0
M  V30 2076 C 203.911 1.57851 0.997 0
M  V30 2077 C 204.262 0.413714 1.91789 0
M  V30 2078 O 203.387 -0.467057 2.113 0
M  V30 2079 C 203.982 2.86085 1.81496 0
M  V30 2080 C 202.541 2.94483 2.34428 0
M  V30 2081 C 201.688 2.52707 1.14169 0
M  V30 2082 H 204.639 1.57455 0.198392 0
M  V30 2083 H 204.66 2.70947 2.67148 0
M  V30 2084 H 204.172 3.70842 1.14446 0
M  V30 2085 H 202.273 2.142 3.04875 0
M  V30 2086 H 202.386 3.98546 2.65891 0
M  V30 2087 H 200.75 2.06353 1.49301 0
M  V30 2088 H 201.533 3.39828 0.486999 0
M  V30 2089 N 203.978 -0.674533 1.42435 0
M  V30 2090 C 204.908 -1.80009 1.48724 0
M  V30 2091 C 205.889 -1.6659 0.343793 0
M  V30 2092 O 207.074 -1.86007 0.558137 0
M  V30 2093 C 204.204 -3.18306 1.38919 0
M  V30 2094 C 203.158 -3.46461 2.51294 0
M  V30 2095 C 202.484 -4.84335 2.26547 0
M  V30 2096 C 203.784 -3.43328 3.93603 0
M  V30 2097 H 205.478 -1.75004 2.42928 0
M  V30 2098 H 203.024 -0.840533 1.16923 0
M  V30 2099 H 204.977 -3.9678 1.41927 0
M  V30 2100 H 203.701 -3.2399 0.412094 0
M  V30 2101 H 202.36 -2.70348 2.47604 0
M  V30 2102 H 202.008 -4.86669 1.2713 0
M  V30 2103 H 201.708 -5.04136 3.01861 0
M  V30 2104 H 203.232 -5.65094 2.31304 0
M  V30 2105 H 204.646 -4.11772 3.98894 0
M  V30 2106 H 203.043 -3.74664 4.68771 0
M  V30 2107 H 204.113 -2.41897 4.20255 0
M  V30 2108 N 205.456 -1.28612 -0.910864 0
M  V30 2109 C 206.388 -1.08589 -2.01844 0
M  V30 2110 C 207.401 -0.0367419 -1.62759 0
M  V30 2111 O 208.59 -0.280101 -1.76289 0
M  V30 2112 C 205.69 -0.628626 -3.33019 0
M  V30 2113 C 204.863 -1.75382 -4.00699 0
M  V30 2114 C 203.922 -1.28945 -5.10156 0
M  V30 2115 O 202.948 -1.9922 -5.33198 0
M  V30 2116 N 204.15 -0.154224 -5.80295 0
M  V30 2117 H 206.915 -2.03973 -2.19579 0
M  V30 2118 H 204.476 -1.20403 -1.08234 0
M  V30 2119 H 206.468 -0.301508 -4.03575 0
M  V30 2120 H 205.038 0.232451 -3.11735 0
M  V30 2121 H 204.258 -2.25039 -3.23653 0
M  V30 2122 H 205.546 -2.50854 -4.42662 0
M  V30 2123 H 204.944 0.43194 -5.64049 0
M  V30 2124 H 203.501 0.113599 -6.51701 0
M  V30 2125 N 206.934 1.1197 -1.10907 0
M  V30 2126 C 208.18 1.8386 -0.855773 0
M  V30 2127 C 208.513 1.84134 0.617103 0
M  V30 2128 O 207.788 1.29041 1.45529 0
M  V30 2129 C 208.071 3.31305 -1.411 0
M  V30 2130 C 207.924 3.39456 -2.9511 0
M  V30 2131 C 209.243 4.2721 -1.05736 0
M  V30 2132 H 206.362 0.667545 -0.312334 0
M  V30 2133 H 209.004 1.31331 -1.37303 0
M  V30 2134 H 207.154 3.76169 -0.97105 0
M  V30 2135 H 208.826 3.03191 -3.47668 0
M  V30 2136 H 207.069 2.79849 -3.31462 0
M  V30 2137 H 207.74 4.43209 -3.29044 0
M  V30 2138 H 210.216 3.90497 -1.43706 0
M  V30 2139 H 209.092 5.28775 -1.47269 0
M  V30 2140 H 209.353 4.42088 0.0325958 0
M  V30 2141 N 208.412 0.89855 1.29475 0
M  V30 2142 C 209.823 0.572537 1.77705 0
M  V30 2143 C 210.174 -0.911778 1.73727 0
M  V30 2144 O 209.299 -1.71288 1.32247 0
M  V30 2145 C 209.894 1.03252 3.22683 0
M  V30 2146 C 208.453 0.757687 3.68695 0
M  V30 2147 C 207.6 1.20787 2.49612 0
M  V30 2148 H 210.551 1.08139 1.16153 0
M  V30 2149 H 210.572 0.367307 3.78723 0
M  V30 2150 H 210.084 2.11285 3.25546 0
M  V30 2151 H 208.185 -0.310079 3.71308 0
M  V30 2152 H 208.298 1.35476 4.59547 0
M  V30 2153 H 206.662 0.626888 2.46865 0
M  V30 2154 H 207.445 2.29622 2.55203 0
M  V30 2155 N 209.89 -1.43072 0.660911 0
M  V30 2156 C 211.167 -1.95307 0.107017 0
M  V30 2157 C 211.547 -1.60192 -1.37484 0
M  V30 2158 O 210.895 -0.890949 -2.10415 0
M  V30 2159 C 211.105 -3.47124 0.361402 0
M  V30 2160 C 212.453 -4.23738 0.270455 0
M  V30 2161 O 213.477 -3.54981 0.294382 0
M  V30 2162 O 212.336 -5.46131 0.200737 0
M  V30 2163 H 209.43 -0.826984 -0.00517729 0
M  V30 2164 H 211.976 -1.52972 0.734681 0
M  V30 2165 H 210.748 -3.65837 1.38848 0
M  V30 2166 H 210.371 -3.96475 -0.298953 0
M  V30 2167 N 211.368 -0.403325 -1.52352 0
M  V30 2168 C 212.278 0.432009 -2.30588 0
M  V30 2169 C 213.294 1.05884 -1.38075 0
M  V30 2170 O 214.47 1.06161 -1.71148 0
M  V30 2171 C 211.535 1.53669 -3.10784 0
M  V30 2172 C 210.596 0.933525 -4.19027 0
M  V30 2173 C 209.829 1.98557 -4.9539 0
M  V30 2174 O 210.052 3.20283 -4.71991 0
M  V30 2175 O 208.986 1.59504 -5.80381 0
M  V30 2176 H 212.812 -0.205739 -3.03002 0
M  V30 2177 H 210.397 -0.166675 -1.48467 0
M  V30 2178 H 212.279 2.17814 -3.60742 0
M  V30 2179 H 210.954 2.15915 -2.41169 0
M  V30 2180 H 209.861 0.254954 -3.7323 0
M  V30 2181 H 211.194 0.35508 -4.90918 0
M  V30 2182 N 212.846 1.57033 -0.133567 0
M  V30 2183 C 214.092 1.95976 0.521649 0
M  V30 2184 C 214.425 1.01779 1.65393 0
M  V30 2185 O 213.7 0.0576581 1.94415 0
M  V30 2186 C 213.983 3.44738 1.04057 0
M  V30 2187 C 213.836 4.49711 -0.0892897 0
M  V30 2188 C 215.155 3.95682 1.92675 0
M  V30 2189 H 212.274 0.712579 0.188149 0
M  V30 2190 H 214.916 1.88813 -0.212076 0
M  V30 2191 H 213.066 3.50973 1.66583 0
M  V30 2192 H 214.738 4.55565 -0.725152 0
M  V30 2193 H 212.981 4.27261 -0.750378 0
M  V30 2194 H 213.652 5.51099 0.315284 0
M  V30 2195 H 216.128 3.91841 1.39998 0
M  V30 2196 H 215.004 5.00262 2.25897 0
M  V30 2197 H 215.265 3.37239 2.85872 0
M  V30 2198 N 214.325 -0.140222 1.56975 0
M  V30 2199 C 215.553 -0.866437 1.87884 0
M  V30 2200 C 215.968 -1.74428 0.722517 0
M  V30 2201 O 215.325 -1.79891 -0.30749 0
M  V30 2202 C 215.376 -1.71753 3.18093 0
M  V30 2203 O 215.097 -0.875056 4.29272 0
M  V30 2204 C 216.598 -2.55074 3.62563 0
M  V30 2205 H 213.818 -0.25019 0.622612 0
M  V30 2206 H 216.362 -0.130977 2.0408 0
M  V30 2207 H 214.517 -2.40598 3.03631 0
M  V30 2208 H 214.931 -1.46002 5.03769 0
M  V30 2209 H 216.405 -3.10356 4.5649 0
M  V30 2210 H 216.882 -3.31434 2.88181 0
M  V30 2211 H 217.488 -1.91509 3.79743 0
M  V30 2212 N 215.803 -1.52179 -0.40978 0
M  V30 2213 C 217.08 -1.56769 -1.16974 0
M  V30 2214 C 217.46 -0.348322 -2.08206 0
M  V30 2215 O 216.808 0.664862 -2.18613 0
M  V30 2216 C 217.018 -2.89603 -1.9476 0
M  V30 2217 C 218.366 -3.42579 -2.50849 0
M  V30 2218 O 219.39 -2.91338 -2.04941 0
M  V30 2219 O 218.249 -4.32054 -3.34652 0
M  V30 2220 H 215.343 -0.631439 -0.534054 0
M  V30 2221 H 217.889 -1.64507 -0.416613 0
M  V30 2222 H 216.661 -3.698 -1.27921 0
M  V30 2223 H 216.284 -2.85155 -2.77079 0
M  V30 2224 N 217.281 0.66697 -1.42791 0
M  V30 2225 C 218.229 1.80157 -1.47127 0
M  V30 2226 C 219.223 1.65825 -0.346199 0
M  V30 2227 O 220.429 1.72338 -0.519572 0
M  V30 2228 H 216.804 0.594158 -0.460956 0
M  V30 2229 H 218.775 1.73619 -2.42692 0
M  V30 2230 C 217.524 3.18351 -1.39813 0
M  V30 2231 H 216.847 3.3001 -2.25684 0
M  V30 2232 H 218.287 3.97736 -1.46908 0
M  V30 2233 C 216.746 3.36707 -0.11391 0
M  V30 2234 O 217.276 3.93027 0.830241 0
M  V30 2235 N 215.482 2.90586 -0.0285295 0
M  V30 2236 H 215.029 2.4494 -0.79764 0
M  V30 2237 H 214.987 3.03245 0.830063 0
M  V30 2238 N 218.759 1.29093 0.90403 0
M  V30 2239 C 219.722 1.1386 1.98919 0
M  V30 2240 C 220.722 0.0753457 1.60623 0
M  V30 2241 O 221.912 0.321931 1.71199 0
M  V30 2242 C 219.044 0.740198 3.32767 0
M  V30 2243 H 220.237 2.10246 2.13861 0
M  V30 2244 H 217.79 1.12218 1.08797 0
M  V30 2245 H 218.525 -0.223997 3.23525 0
M  V30 2246 H 218.31 1.50838 3.61926 0
M  V30 2247 H 219.8 0.656546 4.12407 0
M  V30 2248 N 220.237 -1.11381 1.11499 0
M  V30 2249 C 221.462 -1.87475 0.887019 0
M  V30 2250 C 221.887 -1.79639 -0.557796 0
M  V30 2251 O 221.245 -1.15924 -1.39396 0
M  V30 2252 C 221.293 -3.34213 1.35403 0
M  V30 2253 O 220.397 -4.0903 0.526146 0
M  V30 2254 H 219.738 -0.582099 0.319463 0
M  V30 2255 H 222.268 -1.40785 1.48461 0
M  V30 2256 H 222.278 -3.8506 1.34881 0
M  V30 2257 H 220.953 -3.39232 2.40612 0
M  V30 2258 H 219.53 -3.68082 0.597522 0
M  V30 2259 N 221.715 -0.905404 -1.28997 0
M  V30 2260 C 222.645 -0.404212 -2.29975 0
M  V30 2261 C 223.626 0.523784 -1.61835 0
M  V30 2262 O 224.811 0.433298 -1.89304 0
M  V30 2263 C 221.941 0.364042 -3.45387 0
M  V30 2264 C 220.895 -0.474048 -4.25367 0
M  V30 2265 C 220.221 0.422045 -5.33032 0
M  V30 2266 C 221.521 -1.72696 -4.92923 0
M  V30 2267 H 223.215 -1.24807 -2.72146 0
M  V30 2268 H 220.761 -0.601585 -1.30832 0
M  V30 2269 H 222.714 0.725447 -4.15109 0
M  V30 2270 H 221.438 1.24174 -3.02074 0
M  V30 2271 H 220.097 -0.81786 -3.57361 0
M  V30 2272 H 219.745 1.29804 -4.85963 0
M  V30 2273 H 219.445 -0.135057 -5.87445 0
M  V30 2274 H 220.969 0.779517 -6.05604 0
M  V30 2275 H 222.383 -1.43495 -5.55051 0
M  V30 2276 H 220.78 -2.22582 -5.57295 0
M  V30 2277 H 221.85 -2.45964 -4.17887 0
M  V30 2278 N 223.193 1.4272 -0.668489 0
M  V30 2279 C 224.123 2.335 -0.000100175 0
M  V30 2280 C 225.104 1.50328 0.795964 0
M  V30 2281 O 226.289 1.78949 0.754385 0
M  V30 2282 C 223.419 3.33874 0.956302 0
M  V30 2283 C 222.373 4.27152 0.269278 0
M  V30 2284 C 221.699 5.17684 1.33818 0
M  V30 2285 C 222.999 5.15373 -0.847805 0
M  V30 2286 H 224.693 2.89639 -0.758244 0
M  V30 2287 H 222.239 1.39269 -0.366079 0
M  V30 2288 H 224.192 3.9629 1.43292 0
M  V30 2289 H 222.916 2.76025 1.74579 0
M  V30 2290 H 221.575 3.66123 -0.187042 0
M  V30 2291 H 221.223 4.56165 2.1195 0
M  V30 2292 H 220.923 5.80918 0.883659 0
M  V30 2293 H 222.447 5.82974 1.81586 0
M  V30 2294 H 223.861 5.7151 -0.452681 0
M  V30 2295 H 222.258 5.87407 -1.22773 0
M  V30 2296 H 223.328 4.5415 -1.69929 0
M  V30 2297 N 224.671 0.411399 1.52136 0
M  V30 2298 C 226.087 0.0623865 1.59478 0
M  V30 2299 C 226.287 -1.42554 1.4241 0
M  V30 2300 O 225.343 -2.19263 1.2522 0
M  V30 2301 C 226.656 0.559331 2.95452 0
M  V30 2302 C 228.204 0.517503 3.08692 0
M  V30 2303 C 228.679 0.990994 4.4715 0
M  V30 2304 N 230.17 0.947908 4.53397 0
M  V30 2305 C 230.905 1.28544 5.58806 0
M  V30 2306 N 230.401 1.69454 6.71757 0
M  V30 2307 N 232.194 1.20526 5.49026 0
M  V30 2308 H 224.345 1.37982 1.61477 0
M  V30 2309 H 226.608 0.566977 0.759764 0
M  V30 2310 H 226.314 1.59938 3.1323 0
M  V30 2311 H 226.188 -0.0298014 3.77188 0
M  V30 2312 H 228.575 -0.513505 2.90598 0
M  V30 2313 H 228.656 1.14272 2.28857 0
M  V30 2314 H 228.3 2.02034 4.65988 0
M  V30 2315 H 228.23 0.34257 5.25485 0
M  V30 2316 H 230.721 0.647157 3.72317 0
M  V30 2317 H 231.034 1.93513 7.48179 0
M  V30 2318 H 229.379 1.73359 6.73032 0
M  V30 2319 H 232.57 0.884505 4.59667 0
M  V30 2320 H 232.743 1.47161 6.31069 0
M  V30 2321 N 226.149 -1.5696 0.141893 0
M  V30 2322 C 227.396 -1.9596 -0.510492 0
M  V30 2323 C 227.724 -1.02648 -1.65208 0
M  V30 2324 O 226.979 -0.0546947 -1.95624 0
M  V30 2325 C 227.278 -3.41242 -1.06249 0
M  V30 2326 C 226.944 -4.50882 -0.0398791 0
M  V30 2327 C 225.606 -4.80595 0.241247 0
M  V30 2328 C 227.958 -5.17058 0.65578 0
M  V30 2329 C 225.286 -5.73792 1.22393 0
M  V30 2330 C 227.638 -6.11313 1.62724 0
M  V30 2331 C 226.302 -6.39407 1.91612 0
M  V30 2332 H 225.572 -0.717068 -0.186802 0
M  V30 2333 H 228.219 -1.90142 0.227643 0
M  V30 2334 H 226.524 -3.43866 -1.87785 0
M  V30 2335 H 228.221 -3.68742 -1.57576 0
M  V30 2336 H 224.811 -4.27754 -0.269174 0
M  V30 2337 H 228.995 -4.94239 0.451779 0
M  V30 2338 H 224.251 -5.93853 1.45424 0
M  V30 2339 H 228.425 -6.61668 2.17183 0
M  V30 2340 H 226.052 -7.11427 2.6791 0
M  V30 2341 N 227.627 0.131896 -1.57047 0
M  V30 2342 C 228.857 0.855219 -1.88068 0
M  V30 2343 C 229.265 1.74557 -0.729817 0
M  V30 2344 O 228.608 1.81083 0.308962 0
M  V30 2345 C 228.67 1.75119 -3.13964 0
M  V30 2346 C 228.334 1.03646 -4.45091 0
M  V30 2347 C 229.331 0.383276 -5.18485 0
M  V30 2348 C 227.016 1.02148 -4.91804 0
M  V30 2349 C 229.01 -0.275347 -6.36805 0
M  V30 2350 C 226.697 0.359047 -6.10044 0
M  V30 2351 C 227.695 -0.288222 -6.82392 0
M  V30 2352 O 227.383 -0.94011 -7.98384 0
M  V30 2353 H 227.115 0.251864 -0.627328 0
M  V30 2354 H 229.669 0.124782 -2.05021 0
M  V30 2355 H 227.899 2.52295 -2.9306 0
M  V30 2356 H 229.588 2.3478 -3.31109 0
M  V30 2357 H 230.354 0.386562 -4.83457 0
M  V30 2358 H 226.233 1.5147 -4.35405 0
M  V30 2359 H 229.777 -0.781148 -6.93213 0
M  V30 2360 H 225.674 0.35348 -6.44531 0
M  V30 2361 H 226.442 -0.84329 -8.14144 0
M  V30 2362 N 229.106 1.52395 0.401703 0
M  V30 2363 C 230.038 1.72505 1.50912 0
M  V30 2364 C 231.051 0.605468 1.51122 0
M  V30 2365 O 232.24 0.880828 1.55254 0
M  V30 2366 C 229.34 1.75711 2.89791 0
M  V30 2367 C 228.513 3.04824 3.1369 0
M  V30 2368 C 227.572 2.99743 4.32482 0
M  V30 2369 O 226.598 3.73635 4.29402 0
M  V30 2370 N 227.8 2.18047 5.37992 0
M  V30 2371 H 230.565 2.68049 1.34052 0
M  V30 2372 H 228.126 1.50724 0.591084 0
M  V30 2373 H 230.118 1.69834 3.6734 0
M  V30 2374 H 228.688 0.876092 3.00072 0
M  V30 2375 H 227.908 3.2429 2.24119 0
M  V30 2376 H 229.196 3.90221 3.26504 0
M  V30 2377 H 228.594 1.57456 5.43345 0
M  V30 2378 H 227.151 2.18021 6.14256 0
M  V30 2379 N 230.584 -0.659388 1.43143 0
M  V30 2380 C 231.532 -1.79374 1.4808 0
M  V30 2381 C 232.526 -1.65639 0.354988 0
M  V30 2382 O 233.732 -1.7206 0.528704 0
M  V30 2383 H 230.107 -0.591705 0.4641 0
M  V30 2384 H 232.078 -1.72329 2.43609 0
M  V30 2385 C 230.827 -3.17606 1.41499 0
M  V30 2386 H 230.15 -3.28809 2.27431 0
M  V30 2387 H 231.59 -3.96951 1.49015 0
M  V30 2388 C 230.049 -3.36642 0.131765 0
M  V30 2389 O 230.579 -3.93461 -0.809386 0
M  V30 2390 N 228.785 -2.90567 0.0439396 0
M  V30 2391 H 228.332 -2.44513 0.810619 0
M  V30 2392 H 228.29 -3.03681 -0.813969 0
M  V30 2393 N 232.062 -1.29571 -0.897171 0
M  V30 2394 C 233.308 -1.18873 -1.65048 0
M  V30 2395 C 233.663 0.256707 -1.9068 0
M  V30 2396 O 232.956 1.18202 -1.50794 0
M  V30 2397 C 233.15 -1.9382 -3.00281 0
M  V30 2398 C 232.979 -3.45503 -2.8785 0
M  V30 2399 C 231.749 -4.14856 -2.88483 0
M  V30 2400 C 233.947 -4.40956 -2.64693 0
M  V30 2401 N 231.929 -5.52886 -2.66815 0
M  V30 2402 C 233.3 -5.66464 -2.5203 0
M  V30 2403 C 235.355 -4.3069 -2.49821 0
M  V30 2404 C 234.058 -6.82871 -2.26008 0
M  V30 2405 C 236.084 -5.46852 -2.25182 0
M  V30 2406 C 235.446 -6.71333 -2.13286 0
M  V30 2407 H 231.545 -0.489998 -0.609447 0
M  V30 2408 H 234.129 -1.63431 -1.05822 0
M  V30 2409 H 232.3 -1.51671 -3.57562 0
M  V30 2410 H 234.032 -1.75366 -3.64731 0
M  V30 2411 H 230.787 -3.66579 -2.99861 0
M  V30 2412 H 231.211 -6.25487 -2.59027 0
M  V30 2413 H 235.853 -3.35141 -2.5776 0
M  V30 2414 H 233.571 -7.78473 -2.16806 0
M  V30 2415 H 237.157 -5.40809 -2.14515 0
M  V30 2416 H 236.037 -7.59701 -1.94485 0
M  V30 2417 N 233.54 1.10788 -1.12088 0
M  V30 2418 C 234.472 2.16816 -0.743213 0
M  V30 2419 C 235.485 1.6119 0.228412 0
M  V30 2420 O 236.674 1.78497 0.0102931 0
M  V30 2421 C 233.774 3.38809 -0.0787313 0
M  V30 2422 C 232.947 4.23885 -1.0789 0
M  V30 2423 C 232.006 5.24334 -0.442713 0
M  V30 2424 O 231.032 5.58497 -1.09864 0
M  V30 2425 N 232.234 5.75079 0.791457 0
M  V30 2426 H 234.999 2.49825 -1.65552 0
M  V30 2427 H 232.56 1.26373 -1.012 0
M  V30 2428 H 234.552 4.03107 0.358766 0
M  V30 2429 H 233.122 3.03805 0.736275 0
M  V30 2430 H 232.342 3.55939 -1.69414 0
M  V30 2431 H 233.63 4.77562 -1.75533 0
M  V30 2432 H 233.028 5.49517 1.3434 0
M  V30 2433 H 231.585 6.4118 1.17183 0
M  V30 2434 N 235.018 0.912232 1.28515 0
M  V30 2435 C 236.429 0.591352 1.77087 0
M  V30 2436 C 236.78 -0.8933 1.74684 0
M  V30 2437 O 235.905 -1.69876 1.34056 0
M  V30 2438 C 236.5 1.06668 3.2157 0
M  V30 2439 C 235.059 0.79675 3.67871 0
M  V30 2440 C 234.206 1.23427 2.48316 0
M  V30 2441 H 237.157 1.09365 1.15 0
M  V30 2442 H 237.178 0.407455 3.78312 0
M  V30 2443 H 236.69 2.14726 3.23287 0
M  V30 2444 H 234.791 -0.270679 3.71616 0
M  V30 2445 H 234.904 1.40343 4.58084 0
M  V30 2446 H 233.268 0.653036 2.46186 0
M  V30 2447 H 234.051 2.32316 2.52753 0
M  V30 2448 N 236.496 -1.42363 0.676048 0
M  V30 2449 C 237.428 -2.29164 -0.0404605 0
M  V30 2450 C 238.441 -1.43747 -0.764245 0
M  V30 2451 O 239.63 -1.67453 -0.618195 0
M  V30 2452 C 236.73 -3.21196 -1.08103 0
M  V30 2453 C 235.903 -4.35273 -0.430812 0
M  V30 2454 C 234.962 -5.08017 -1.37133 0
M  V30 2455 O 233.988 -5.62494 -0.87116 0
M  V30 2456 N 235.19 -5.13647 -2.70456 0
M  V30 2457 H 237.955 -2.91298 0.704667 0
M  V30 2458 H 235.516 -1.53303 0.520559 0
M  V30 2459 H 237.508 -3.66728 -1.71152 0
M  V30 2460 H 236.078 -2.60505 -1.72788 0
M  V30 2461 H 235.298 -3.92372 0.379209 0
M  V30 2462 H 236.586 -5.08795 0.0221132 0
M  V30 2463 H 235.984 -4.708 -3.1363 0
M  V30 2464 H 234.541 -5.62821 -3.28749 0
M  V30 2465 N 237.974 -0.419461 -1.51915 0
M  V30 2466 C 239.22 0.145505 -2.02879 0
M  V30 2467 C 239.575 1.41926 -1.29903 0
M  V30 2468 O 238.868 1.87383 -0.399782 0
M  V30 2469 C 239.062 0.437067 -3.54717 0
M  V30 2470 C 238.891 -0.806877 -4.42402 0
M  V30 2471 C 237.661 -1.33514 -4.87342 0
M  V30 2472 C 239.859 -1.68796 -4.85811 0
M  V30 2473 N 237.841 -2.53349 -5.59185 0
M  V30 2474 C 239.212 -2.73247 -5.56539 0
M  V30 2475 C 241.267 -1.70449 -4.67816 0
M  V30 2476 C 239.97 -3.79276 -6.11181 0
M  V30 2477 C 241.996 -2.75403 -5.23361 0
M  V30 2478 C 241.358 -3.78575 -5.9402 0
M  V30 2479 H 237.457 0.0145424 -0.781865 0
M  V30 2480 H 240.041 -0.576126 -1.85981 0
M  V30 2481 H 238.212 1.12774 -3.71667 0
M  V30 2482 H 239.944 0.99182 -3.92358 0
M  V30 2483 H 236.699 -0.891657 -4.65131 0
M  V30 2484 H 237.123 -3.14066 -5.99743 0
M  V30 2485 H 241.765 -0.920209 -4.12664 0
M  V30 2486 H 239.483 -4.58554 -6.65397 0
M  V30 2487 H 243.069 -2.77603 -5.113 0
M  V30 2488 H 241.949 -4.58453 -6.36231 0
M  V30 2489 N 239.452 1.56882 -0.150215 0
M  V30 2490 C 240.399 2.16922 0.788244 0
M  V30 2491 C 241.369 1.10303 1.24187 0
M  V30 2492 O 242.554 1.38359 1.31383 0
M  V30 2493 C 239.694 2.79754 2.02068 0
M  V30 2494 C 238.807 4.00775 1.61257 0
M  V30 2495 C 237.942 4.51595 2.79705 0
M  V30 2496 C 236.981 5.65074 2.35282 0
M  V30 2497 N 236.118 6.10499 3.4675 0
M  V30 2498 H 240.958 2.96779 0.269444 0
M  V30 2499 H 238.495 1.46599 0.12128 0
M  V30 2500 H 240.453 3.14329 2.74323 0
M  V30 2501 H 239.083 2.02536 2.51354 0
M  V30 2502 H 238.135 3.72158 0.787553 0
M  V30 2503 H 239.447 4.82978 1.24633 0
M  V30 2504 H 238.601 4.88242 3.60145 0
M  V30 2505 H 237.34 3.68406 3.19576 0
M  V30 2506 H 236.345 5.28 1.53283 0
M  V30 2507 H 237.57 6.50052 1.96493 0
M  V30 2508 H 235.516 5.30243 3.86236 0
M  V30 2509 H 235.433 6.87637 3.14152 0
M  V30 2510 H 236.701 6.51791 4.27537 0
M  V30 2511 N 240.93 -0.123565 1.57115 0
M  V30 2512 C 242.341 -0.681198 1.73829 0
M  V30 2513 C 242.692 -1.80535 0.768214 0
M  V30 2514 O 241.817 -2.16317 -0.0599103 0
M  V30 2515 C 242.412 -1.24246 3.15196 0
M  V30 2516 C 240.971 -1.74643 3.33432 0
M  V30 2517 C 240.118 -0.644284 2.69711 0
M  V30 2518 H 243.069 0.102315 1.5837 0
M  V30 2519 H 243.09 -2.11216 3.16493 0
M  V30 2520 H 242.602 -0.424062 3.85776 0
M  V30 2521 H 240.703 -2.58974 2.67886 0
M  V30 2522 H 240.816 -1.85902 4.41562 0
M  V30 2523 H 239.18 -1.07676 2.3082 0
M  V30 2524 H 239.963 0.163058 3.42913 0
M  V30 2525 N 242.408 -1.52605 -0.393616 0
M  V30 2526 C 243.656 -1.67093 -1.13685 0
M  V30 2527 C 243.977 -0.411011 -1.90619 0
M  V30 2528 O 243.247 0.574491 -1.87287 0
M  V30 2529 H 241.827 -0.615923 -0.422668 0
M  V30 2530 H 244.489 -1.89704 -0.447039 0
M  V30 2531 H 243.585 -2.51922 -1.84232 0
M  V30 2532 N 243.887 0.651787 -1.4349 0
M  V30 2533 C 245.115 1.43937 -1.48626 0
M  V30 2534 C 245.53 1.8851 -0.104587 0
M  V30 2535 O 244.887 1.5958 0.885464 0
M  V30 2536 C 244.938 2.6734 -2.43334 0
M  V30 2537 O 244.659 2.24631 -3.76128 0
M  V30 2538 C 246.16 3.60683 -2.57726 0
M  V30 2539 H 243.38 0.44213 -0.504739 0
M  V30 2540 H 245.924 0.798944 -1.88248 0
M  V30 2541 H 244.079 3.2752 -2.06904 0
M  V30 2542 H 244.493 3.04485 -4.2707 0
M  V30 2543 H 245.967 4.43933 -3.28067 0
M  V30 2544 H 246.444 4.08126 -1.62265 0
M  V30 2545 H 247.05 3.06384 -2.94973 0
M  V30 2546 N 245.365 1.30045 0.890287 0
M  V30 2547 C 246.593 1.21472 1.67487 0
M  V30 2548 C 247.008 -0.223241 1.87476 0
M  V30 2549 O 246.365 -1.14828 1.41847 0
M  V30 2550 C 246.416 1.93394 3.05419 0
M  V30 2551 O 246.137 3.31576 2.86337 0
M  V30 2552 C 247.638 1.91414 3.99844 0
M  V30 2553 H 244.858 0.420604 0.522813 0
M  V30 2554 H 247.402 1.7158 1.11268 0
M  V30 2555 H 245.557 1.47099 3.58386 0
M  V30 2556 H 245.971 3.67929 3.73802 0
M  V30 2557 H 247.445 2.46285 4.94012 0
M  V30 2558 H 247.922 0.891833 4.3005 0
M  V30 2559 H 248.528 2.37496 3.52811 0
M  V30 2560 N 246.843 -1.10192 1.12674 0
M  V30 2561 C 248.259 -1.34235 0.863317 0
M  V30 2562 C 248.459 -1.95062 -0.505277 0
M  V30 2563 O 247.515 -2.19192 -1.25345 0
M  V30 2564 C 248.828 -2.2616 1.98172 0
M  V30 2565 C 250.376 -2.3969 2.0129 0
M  V30 2566 C 250.851 -3.34946 3.1237 0
M  V30 2567 N 252.342 -3.42515 3.11829 0
M  V30 2568 C 253.077 -4.16199 3.94419 0
M  V30 2569 N 252.573 -4.92747 4.87004 0
M  V30 2570 N 254.366 -4.11843 3.82547 0
M  V30 2571 H 246.517 -0.690798 2.00853 0
M  V30 2572 H 248.78 -0.366774 0.874174 0
M  V30 2573 H 248.486 -1.8868 2.96804 0
M  V30 2574 H 248.36 -3.26488 1.88906 0
M  V30 2575 H 250.747 -2.76438 1.03276 0
M  V30 2576 H 250.828 -1.39169 2.14629 0
M  V30 2577 H 250.472 -2.98923 4.10619 0
M  V30 2578 H 250.402 -4.35353 2.96269 0
M  V30 2579 H 252.893 -2.87926 2.44759 0
M  V30 2580 H 253.206 -5.46376 5.46528 0
M  V30 2581 H 251.551 -4.91862 4.91016 0
M  V30 2582 H 254.742 -3.51136 3.0955 0
M  V30 2583 H 254.915 -4.69007 4.47142 0
M  V30 2584 N 248.321 -0.919034 -1.28029 0
M  V30 2585 C 249.251 -0.428581 -2.29533 0
M  V30 2586 C 250.232 0.50659 -1.62381 0
M  V30 2587 O 251.417 0.413195 -1.89753 0
M  V30 2588 C 248.547 0.327388 -3.45753 0
M  V30 2589 C 247.501 -0.519137 -4.2484 0
M  V30 2590 C 246.827 0.365486 -5.33449 0
M  V30 2591 C 248.127 -1.77914 -4.91064 0
M  V30 2592 H 249.821 -1.27687 -2.70807 0
M  V30 2593 H 247.367 -0.615428 -1.30186 0
M  V30 2594 H 249.32 0.681378 -4.15855 0
M  V30 2595 H 248.044 1.20963 -3.03374 0
M  V30 2596 H 246.703 -0.855717 -3.56473 0
M  V30 2597 H 246.351 1.24642 -4.87312 0
M  V30 2598 H 246.051 -0.197356 -5.87268 0
M  V30 2599 H 247.575 0.715241 -6.06396 0
M  V30 2600 H 248.989 -1.49374 -5.53498 0
M  V30 2601 H 247.386 -2.2848 -5.54903 0
M  V30 2602 H 248.456 -2.50382 -4.15255 0
M  V30 2603 N 249.799 1.42003 -0.683588 0
M  V30 2604 C 251.029 2.05448 -0.217866 0
M  V30 2605 C 251.437 1.51491 1.13346 0
M  V30 2606 O 250.78 0.653048 1.717 0
M  V30 2607 C 250.842 3.59399 -0.0850118 0
M  V30 2608 C 250.506 4.36093 -1.36645 0
M  V30 2609 C 251.503 4.66169 -2.30179 0
M  V30 2610 C 249.188 4.75578 -1.61649 0
M  V30 2611 C 251.182 5.34676 -3.46988 0
M  V30 2612 C 248.869 5.43824 -2.78745 0
M  V30 2613 C 249.867 5.73299 -3.71238 0
M  V30 2614 O 249.555 6.40142 -4.86285 0
M  V30 2615 H 249.287 0.668344 -0.101454 0
M  V30 2616 H 251.841 1.82974 -0.933248 0
M  V30 2617 H 250.071 3.80566 0.686031 0
M  V30 2618 H 251.76 4.04457 0.341973 0
M  V30 2619 H 252.526 4.36156 -2.12115 0
M  V30 2620 H 248.405 4.52025 -0.905243 0
M  V30 2621 H 251.949 5.57599 -4.19201 0
M  V30 2622 H 247.846 5.73254 -2.96732 0
M  V30 2623 H 248.614 6.58636 -4.85944 0
M  V30 2624 N 251.277 0.427512 1.51691 0
M  V30 2625 C 252.24 -0.377132 2.26076 0
M  V30 2626 C 253.24 -0.958089 1.29141 0
M  V30 2627 O 254.43 -0.83408 1.52934 0
M  V30 2628 C 251.562 -1.53262 3.04506 0
M  V30 2629 H 252.755 0.27464 2.9864 0
M  V30 2630 H 250.308 0.180445 1.55255 0
M  V30 2631 H 251.043 -2.22072 2.36335 0
M  V30 2632 H 250.828 -1.12232 3.75694 0
M  V30 2633 H 252.318 -2.10135 3.60878 0
M  V30 2634 N 252.755 -1.56801 0.158532 0
M  V30 2635 C 253.703 -2.18638 -0.793729 0
M  V30 2636 C 254.697 -1.14669 -1.24689 0
M  V30 2637 O 255.903 -1.32895 -1.21403 0
M  V30 2638 H 252.278 -0.700226 -0.274204 0
M  V30 2639 H 254.249 -2.97367 -0.248095 0
M  V30 2640 C 252.998 -2.83139 -2.0181 0
M  V30 2641 H 252.321 -3.62863 -1.67841 0
M  V30 2642 H 253.761 -3.29894 -2.66357 0
M  V30 2643 C 252.22 -1.82244 -2.83353 0
M  V30 2644 O 252.75 -1.3 -3.80083 0
M  V30 2645 N 250.956 -1.51288 -2.48114 0
M  V30 2646 H 250.503 -1.93964 -1.69516 0
M  V30 2647 H 250.461 -0.840296 -3.02963 0
M  V30 2648 N 254.233 0.115231 -1.57178 0
M  V30 2649 C 255.196 1.12526 -1.99676 0
M  V30 2650 C 256.196 1.34095 -0.88742 0
M  V30 2651 O 257.386 1.30548 -1.15337 0
M  V30 2652 C 254.518 2.4789 -2.34015 0
M  V30 2653 H 255.711 0.759912 -2.90113 0
M  V30 2654 H 253.264 0.359648 -1.52106 0
M  V30 2655 H 253.999 2.89339 -1.4647 0
M  V30 2656 H 253.784 2.33588 -3.14927 0
M  V30 2657 H 255.274 3.20575 -2.67622 0
M  V30 2658 N 255.711 1.52812 0.385517 0
M  V30 2659 C 256.936 1.72207 1.15583 0
M  V30 2660 C 257.361 0.441034 1.82857 0
M  V30 2661 O 256.719 -0.603465 1.70962 0
M  V30 2662 C 256.767 2.87476 2.17692 0
M  V30 2663 O 255.871 2.54693 3.24354 0
M  V30 2664 H 255.212 0.572526 0.336319 0
M  V30 2665 H 257.742 1.99618 0.448744 0
M  V30 2666 H 257.752 3.13072 2.6163 0
M  V30 2667 H 256.427 3.80408 1.68115 0
M  V30 2668 H 255.004 2.3985 2.85529 0
M  V30 2669 N 257.189 -0.644168 1.43834 0
M  V30 2670 C 258.438 -1.39985 1.45214 0
M  V30 2671 C 258.751 -1.95421 0.0835494 0
M  V30 2672 O 259.957 -2.71488 -0.0251748 0
M  V30 2673 C 258.413 -2.53384 2.55587 0
M  V30 2674 C 258.021 -2.04517 3.98594 0
M  V30 2675 C 259.765 -3.30685 2.66172 0
M  V30 2676 C 257.672 -3.1518 5.00416 0
M  V30 2677 H 256.602 -0.526005 0.540218 0
M  V30 2678 H 259.253 -0.694367 1.69855 0
M  V30 2679 H 257.635 -3.26446 2.24163 0
M  V30 2680 H 258.809 -1.38405 4.39523 0
M  V30 2681 H 257.124 -1.40068 3.92135 0
M  V30 2682 H 259.721 -4.13158 3.39418 0
M  V30 2683 H 260.064 -3.79312 1.71546 0
M  V30 2684 H 260.597 -2.64708 2.96942 0
M  V30 2685 H 257.336 -2.71511 5.96625 0
M  V30 2686 H 256.856 -3.79974 4.64091 0
M  V30 2687 H 258.535 -3.80166 5.23529 0
M  V30 2688 N 258.668 -1.30515 -0.883378 0
M  V30 2689 C 259.916 -1.19194 -1.63209 0
M  V30 2690 C 260.237 0.253205 -1.93349 0
M  V30 2691 O 259.507 1.17025 -1.57105 0
M  V30 2692 H 258.087 -0.438148 -0.605009 0
M  V30 2693 H 260.749 -1.63663 -1.05832 0
M  V30 2694 H 259.845 -1.75396 -2.58153 0
M  V30 2695 N 260.146 1.09593 -1.13257 0
M  V30 2696 C 261.076 2.18214 -0.830946 0
M  V30 2697 C 262.057 1.68812 0.208966 0
M  V30 2698 O 263.242 1.9408 0.0682666 0
M  V30 2699 C 260.372 3.46051 -0.294296 0
M  V30 2700 C 259.326 4.08778 -1.26826 0
M  V30 2701 C 258.652 5.31419 -0.591449 0
M  V30 2702 C 259.952 4.51476 -2.62615 0
M  V30 2703 H 261.646 2.43703 -1.73923 0
M  V30 2704 H 259.192 1.17128 -0.837675 0
M  V30 2705 H 261.145 4.2134 -0.0709606 0
M  V30 2706 H 259.869 3.20079 0.649366 0
M  V30 2707 H 258.528 3.35505 -1.47756 0
M  V30 2708 H 258.176 5.01727 0.357633 0
M  V30 2709 H 257.876 5.74341 -1.24123 0
M  V30 2710 H 259.4 6.09433 -0.377355 0
M  V30 2711 H 260.814 5.17999 -2.45663 0
M  V30 2712 H 259.211 5.05277 -3.23752 0
M  V30 2713 H 260.281 3.63962 -3.20406 0
M  V30 2714 N 261.624 0.925811 1.2754 0
M  V30 2715 C 262.871 0.565255 1.94451 0
M  V30 2716 C 263.199 -0.89316 1.7278 0
M  V30 2717 O 262.454 -1.65213 1.04895 0
M  V30 2718 C 262.753 0.835296 3.47502 0
M  V30 2719 C 262.419 2.27515 3.89291 0
M  V30 2720 C 261.081 2.66879 4.00411 0
M  V30 2721 C 263.433 3.21158 4.10496 0
M  V30 2722 C 260.761 3.99014 4.30122 0
M  V30 2723 C 263.113 4.52871 4.4169 0
M  V30 2724 C 261.777 4.92072 4.51023 0
M  V30 2725 H 261.047 0.206841 0.711546 0
M  V30 2726 H 263.694 1.16942 1.51647 0
M  V30 2727 H 261.999 0.148442 3.91519 0
M  V30 2728 H 263.696 0.535322 3.97411 0
M  V30 2729 H 260.286 1.95976 3.81171 0
M  V30 2730 H 264.47 2.9195 4.01346 0
M  V30 2731 H 259.726 4.2907 4.35556 0
M  V30 2732 H 263.9 5.25436 4.57045 0
M  V30 2733 H 261.527 5.9449 4.738 0
M  V30 2734 N 263.102 -1.41638 0.69111 0
M  V30 2735 C 264.35 -2.00902 0.219758 0
M  V30 2736 C 264.671 -1.54994 -1.18329 0
M  V30 2737 O 263.941 -0.778628 -1.79762 0
M  V30 2738 H 262.521 -0.74289 0.0782558 0
M  V30 2739 H 265.183 -1.73327 0.891271 0
M  V30 2740 H 264.279 -3.11224 0.233708 0
M  V30 2741 N 264.58 -0.43555 -1.51462 0
M  V30 2742 C 265.543 0.365137 -2.26273 0
M  V30 2743 C 266.543 0.951227 -1.29647 0
M  V30 2744 O 267.733 0.825958 -1.53374 0
M  V30 2745 C 264.865 1.51645 -3.05314 0
M  V30 2746 H 266.058 -0.290474 -2.9849 0
M  V30 2747 H 263.611 -0.188676 -1.55157 0
M  V30 2748 H 264.346 2.20816 -2.3751 0
M  V30 2749 H 264.131 1.10238 -3.76284 0
M  V30 2750 H 265.621 2.08218 -3.61987 0
M  V30 2751 N 266.058 1.56714 -0.166846 0
M  V30 2752 C 266.988 2.20754 0.760913 0
M  V30 2753 C 267.969 1.16178 1.24244 0
M  V30 2754 O 269.154 1.44592 1.29641 0
M  V30 2755 C 266.284 2.84478 1.99223 0
M  V30 2756 C 265.238 3.95053 1.64672 0
M  V30 2757 C 264.564 4.45805 2.95232 0
M  V30 2758 C 265.864 5.14865 0.878155 0
M  V30 2759 H 267.558 2.98537 0.22713 0
M  V30 2760 H 265.104 1.43596 0.107805 0
M  V30 2761 H 267.057 3.27951 2.64624 0
M  V30 2762 H 265.781 2.04056 2.55007 0
M  V30 2763 H 264.44 3.52228 1.01641 0
M  V30 2764 H 264.088 3.62181 3.49047 0
M  V30 2765 H 263.788 5.204 2.7287 0
M  V30 2766 H 265.312 4.91962 3.6167 0
M  V30 2767 H 266.726 5.55059 1.43466 0
M  V30 2768 H 265.123 5.95348 0.753738 0
M  V30 2769 H 266.193 4.84735 -0.126377 0
M  V30 2770 N 267.536 -0.106894 1.57237 0
M  V30 2771 C 268.499 -1.11466 2.0027 0
M  V30 2772 C 269.499 -1.33623 0.894519 0
M  V30 2773 O 270.689 -1.29935 1.16028 0
M  V30 2774 C 267.821 -2.46646 2.35327 0
M  V30 2775 H 269.014 -0.744516 2.90512 0
M  V30 2776 H 266.567 -0.351576 1.52295 0
M  V30 2777 H 267.302 -2.88558 1.48003 0
M  V30 2778 H 267.087 -2.31915 3.16161 0
M  V30 2779 H 268.577 -3.19151 2.69318 0
M  V30 2780 N 269.014 -1.53014 -0.377408 0
M  V30 2781 C 270.26 -1.68872 -1.12294 0
M  V30 2782 C 270.593 -0.433224 -1.89306 0
M  V30 2783 O 269.868 0.569258 -1.85983 0
M  V30 2784 C 270.151 -2.93115 -2.09179 0
M  V30 2785 C 270.004 -4.28794 -1.35853 0
M  V30 2786 C 271.323 -3.12928 -3.09458 0
M  V30 2787 H 268.442 -0.614518 -0.406862 0
M  V30 2788 H 271.084 -1.85633 -0.40503 0
M  V30 2789 H 269.234 -2.78956 -2.70399 0
M  V30 2790 H 270.906 -4.54742 -0.775082 0
M  V30 2791 H 269.149 -4.28744 -0.660364 0
M  V30 2792 H 269.82 -5.11837 -2.06706 0
M  V30 2793 H 272.296 -3.26194 -2.58334 0
M  V30 2794 H 271.172 -4.01316 -3.74482 0
M  V30 2795 H 271.433 -2.27669 -3.78971 0
M  V30 2796 N 270.492 0.636531 -1.44174 0
M  V30 2797 C 271.439 1.74875 -1.50624 0
M  V30 2798 C 272.409 1.62275 -0.35442 0
M  V30 2799 O 273.594 1.82276 -0.563908 0
M  V30 2800 C 270.734 3.13102 -1.45125 0
M  V30 2801 C 269.847 3.36717 -2.7064 0
M  V30 2802 C 268.982 4.64885 -2.57013 0
M  V30 2803 C 268.021 4.8166 -3.77717 0
M  V30 2804 N 267.158 6.01101 -3.62798 0
M  V30 2805 H 271.998 1.68697 -2.45653 0
M  V30 2806 H 269.535 0.823004 -1.21922 0
M  V30 2807 H 271.493 3.93034 -1.39929 0
M  V30 2808 H 270.123 3.18308 -0.536671 0
M  V30 2809 H 269.175 2.50763 -2.86046 0
M  V30 2810 H 270.487 3.44993 -3.60252 0
M  V30 2811 H 269.641 5.52969 -2.49619 0
M  V30 2812 H 268.38 4.58957 -1.64953 0
M  V30 2813 H 267.385 3.92007 -3.85501 0
M  V30 2814 H 268.61 4.89406 -4.70807 0
M  V30 2815 H 266.556 5.96273 -2.73486 0
M  V30 2816 H 266.473 6.10409 -4.46023 0
M  V30 2817 H 267.741 6.91761 -3.59286 0
M  V30 2818 N 271.97 1.30982 0.876444 0
M  V30 2819 C 273.381 1.18277 1.44456 0
M  V30 2820 C 273.732 -0.213265 1.95037 0
M  V30 2821 O 272.857 -1.11057 1.85729 0
M  V30 2822 C 273.452 2.1411 2.62569 0
M  V30 2823 C 272.011 2.05358 3.15444 0
M  V30 2824 C 271.158 2.03706 1.88146 0
M  V30 2825 H 274.109 1.43127 0.685584 0
M  V30 2826 H 274.13 1.72692 3.39054 0
M  V30 2827 H 273.642 3.15706 2.25724 0
M  V30 2828 H 271.743 1.06934 3.56926 0
M  V30 2829 H 271.856 2.94156 3.78166 0
M  V30 2830 H 270.22 1.48629 2.06837 0
M  V30 2831 H 271.003 3.07047 1.53547 0
M  V30 2832 N 273.449 -1.08991 1.13837 0
M  V30 2833 C 274.674 -1.85551 0.926585 0
M  V30 2834 C 275.099 -1.80782 -0.519566 0
M  V30 2835 O 274.457 -1.18855 -1.36906 0
M  V30 2836 C 274.505 -3.31266 1.42462 0
M  V30 2837 O 273.609 -4.07822 0.612789 0
M  V30 2838 H 272.95 -0.575192 0.331738 0
M  V30 2839 H 275.48 -1.37604 1.51414 0
M  V30 2840 H 275.49 -3.82112 1.43019 0
M  V30 2841 H 274.165 -3.34052 2.47754 0
M  V30 2842 H 272.742 -3.66731 0.675463 0
M  V30 2843 N 274.927 -0.932562 -1.27047 0
M  V30 2844 C 276.175 -0.574422 -1.93765 0
M  V30 2845 C 276.496 0.887993 -1.73608 0
M  V30 2846 O 275.766 1.62999 -1.08665 0
M  V30 2847 H 274.346 -0.209451 -0.717035 0
M  V30 2848 H 277.008 -1.18601 -1.5466 0
M  V30 2849 H 276.104 -0.784841 -3.02071 0
M  V30 2850 N 276.405 1.4127 -0.698611 0
M  V30 2851 C 277.338 2.28195 0.0153898 0
M  V30 2852 C 278.316 1.42402 0.784883 0
M  V30 2853 O 279.5 1.71828 0.775067 0
M  V30 2854 C 276.627 3.22685 1.02918 0
M  V30 2855 C 275.673 4.25041 0.352501 0
M  V30 2856 S 276.506 5.27757 -0.907322 0
M  V30 2857 C 277.662 6.25812 0.104796 0
M  V30 2858 H 277.895 2.88403 -0.721858 0
M  V30 2859 H 275.428 1.46452 -0.488996 0
M  V30 2860 H 277.386 3.77655 1.60893 0
M  V30 2861 H 276.047 2.61566 1.73902 0
M  V30 2862 H 275.24 4.91437 1.11828 0
M  V30 2863 H 274.842 3.73682 -0.154254 0
M  V30 2864 H 277.134 6.70705 0.957103 0
M  V30 2865 H 278.077 7.06149 -0.525323 0
M  V30 2866 H 278.485 5.62615 0.460931 0
M  V30 2867 N 277.883 0.443576 1.51229 0
M  V30 2868 C 279.294 -0.0180867 1.86691 0
M  V30 2869 C 279.645 -1.41384 1.36033 0
M  V30 2870 O 278.77 -2.04291 0.713722 0
M  V30 2871 C 279.365 -0.039597 3.38777 0
M  V30 2872 C 277.924 -0.445692 3.73752 0
M  V30 2873 C 277.071 0.357584 2.74985 0
M  V30 2874 H 280.022 0.659138 1.44364 0
M  V30 2875 H 280.043 -0.847761 3.70936 0
M  V30 2876 H 279.555 0.976382 3.75617 0
M  V30 2877 H 277.656 -1.46704 3.42503 0
M  V30 2878 H 277.769 -0.166155 4.78812 0
M  V30 2879 H 276.133 -0.184973 2.54027 0
M  V30 2880 H 276.916 1.37256 3.14668 0
M  V30 2881 N 279.361 -1.56624 0.175154 0
M  V30 2882 C 280.591 -2.01082 -0.474283 0
M  V30 2883 C 280.999 -1.05447 -1.57091 0
M  V30 2884 O 280.342 -0.0480595 -1.83637 0
M  V30 2885 C 280.404 -3.41963 -1.10911 0
M  V30 2886 C 280.068 -4.56742 -0.153666 0
M  V30 2887 C 281.065 -5.16076 0.629448 0
M  V30 2888 C 278.75 -5.02277 -0.0483776 0
M  V30 2889 C 280.744 -6.19377 1.50501 0
M  V30 2890 C 278.431 -6.05427 0.830768 0
M  V30 2891 C 279.429 -6.63849 1.60605 0
M  V30 2892 O 279.117 -7.64998 2.47049 0
M  V30 2893 H 278.849 -0.664261 -0.125432 0
M  V30 2894 H 281.403 -2.03549 0.275163 0
M  V30 2895 H 279.633 -3.36422 -1.90676 0
M  V30 2896 H 281.322 -3.70352 -1.66114 0
M  V30 2897 H 282.088 -4.81776 0.558297 0
M  V30 2898 H 277.967 -4.56513 -0.641611 0
M  V30 2899 H 281.511 -6.64906 2.1106 0
M  V30 2900 H 277.408 -6.39151 0.903107 0
M  V30 2901 H 278.176 -7.82336 2.40607 0
M  V30 2902 N 280.839 0.0985539 -1.57292 0
M  V30 2903 C 281.749 1.13824 -2.05137 0
M  V30 2904 C 282.765 1.44076 -0.975604 0
M  V30 2905 O 283.941 1.54786 -1.28853 0
M  V30 2906 C 281.006 2.43969 -2.46333 0
M  V30 2907 C 280.067 2.2093 -3.68087 0
M  V30 2908 C 279.3 3.44869 -4.0731 0
M  V30 2909 O 279.523 4.52972 -3.46659 0
M  V30 2910 O 278.457 3.34661 -5.00285 0
M  V30 2911 H 282.283 0.761881 -2.93988 0
M  V30 2912 H 279.868 0.310818 -1.46131 0
M  V30 2913 H 281.75 3.20609 -2.73473 0
M  V30 2914 H 280.425 2.81038 -1.60621 0
M  V30 2915 H 279.332 1.42081 -3.46069 0
M  V30 2916 H 280.665 1.88755 -4.54568 0
M  V30 2917 N 282.317 1.53212 0.369288 0
M  V30 2918 C 283.249 1.75668 1.47219 0
M  V30 2919 C 284.262 0.637387 1.49804 0
M  V30 2920 O 285.451 0.913561 1.5335 0
M  V30 2921 C 282.551 1.81818 2.85999 0
M  V30 2922 C 281.724 3.11409 3.07153 0
M  V30 2923 C 280.783 3.08849 4.26026 0
M  V30 2924 O 279.809 3.82659 4.2138 0
M  V30 2925 N 281.011 2.29409 5.33246 0
M  V30 2926 H 283.776 2.70832 1.28337 0
M  V30 2927 H 281.337 1.51944 0.55898 0
M  V30 2928 H 283.329 1.77588 3.63655 0
M  V30 2929 H 281.899 0.939544 2.98146 0
M  V30 2930 H 281.119 3.28971 2.1719 0
M  V30 2931 H 282.407 3.97059 3.18154 0
M  V30 2932 H 281.805 1.68946 5.39883 0
M  V30 2933 H 280.362 2.31001 6.09493 0
M  V30 2934 N 283.795 -0.628877 1.44509 0
M  V30 2935 C 284.758 -1.72263 1.51188 0
M  V30 2936 C 285.758 -1.55907 0.39367 0
M  V30 2937 O 286.948 -1.61361 0.656377 0
M  V30 2938 C 284.08 -3.11365 1.38798 0
M  V30 2939 H 285.273 -1.67714 2.4862 0
M  V30 2940 H 282.826 -0.842737 1.31634 0
M  V30 2941 H 283.561 -3.21507 0.424693 0
M  V30 2942 H 283.346 -3.24644 2.19884 0
M  V30 2943 H 284.836 -3.91075 1.46458 0
M  V30 2944 N 285.273 -1.31445 -0.869486 0
M  V30 2945 C 286.206 -1.13465 -1.97992 0
M  V30 2946 C 287.184 -0.0380291 -1.62556 0
M  V30 2947 O 288.368 -0.194544 -1.87493 0
M  V30 2948 C 285.495 -0.733822 -3.30655 0
M  V30 2949 C 284.541 -1.83356 -3.85075 0
M  V30 2950 S 285.374 -3.43909 -4.10472 0
M  V30 2951 C 286.53 -3.05763 -5.46132 0
M  V30 2952 H 286.763 -2.07471 -2.1294 0
M  V30 2953 H 284.296 -1.15936 -1.01972 0
M  V30 2954 H 286.254 -0.509306 -4.07328 0
M  V30 2955 H 284.915 0.187123 -3.13542 0
M  V30 2956 H 284.108 -1.50574 -4.80982 0
M  V30 2957 H 283.71 -2.01315 -3.15195 0
M  V30 2958 H 286.002 -2.54686 -6.27807 0
M  V30 2959 H 286.945 -4.00635 -5.83864 0
M  V30 2960 H 287.353 -2.43192 -5.09429 0
M  V30 2961 N 286.751 1.08385 -1.14413 0
M  V30 2962 C 287.979 1.84517 -0.936001 0
M  V30 2963 C 288.394 1.81626 0.515503 0
M  V30 2964 O 287.751 1.22008 1.35721 0
M  V30 2965 C 287.802 3.32049 -1.42918 0
M  V30 2966 O 287.523 3.34951 -2.82381 0
M  V30 2967 C 289.024 4.24986 -1.26103 0
M  V30 2968 H 286.244 0.582491 -0.333084 0
M  V30 2969 H 288.788 1.36885 -1.5193 0
M  V30 2970 H 286.943 3.7707 -0.888641 0
M  V30 2971 H 287.357 4.27048 -3.04517 0
M  V30 2972 H 288.831 5.26615 -1.6547 0
M  V30 2973 H 289.308 4.38726 -0.20392 0
M  V30 2974 H 289.914 3.85791 -1.79012 0
M  V30 2975 N 288.23 0.939286 1.26551 0
M  V30 2976 C 289.458 0.602536 1.97932 0
M  V30 2977 C 289.873 -0.82206 1.69964 0
M  V30 2978 O 289.23 -1.54789 0.966784 0
M  V30 2979 C 289.281 0.832946 3.51773 0
M  V30 2980 O 289.002 2.20151 3.78768 0
M  V30 2981 C 290.503 0.506483 4.40397 0
M  V30 2982 H 287.723 0.227248 0.631347 0
M  V30 2983 H 290.267 1.25948 1.61113 0
M  V30 2984 H 288.422 0.222644 3.8676 0
M  V30 2985 H 288.836 2.26013 4.73306 0
M  V30 2986 H 290.31 0.718333 5.47306 0
M  V30 2987 H 290.787 -0.558451 4.35635 0
M  V30 2988 H 291.393 1.09543 4.10951 0
M  V30 2989 N 289.708 -1.40897 0.706093 0
M  V30 2990 C 291.124 -1.55042 0.37869 0
M  V30 2991 C 291.324 -1.67944 -1.11342 0
M  V30 2992 O 290.38 -1.66372 -1.89938 0
M  V30 2993 C 291.693 -2.78398 1.13643 0
M  V30 2994 C 293.241 -2.92206 1.12181 0
M  V30 2995 C 293.716 -4.18463 1.86152 0
M  V30 2996 N 295.207 -4.25443 1.83173 0
M  V30 2997 C 295.942 -5.2202 2.37239 0
M  V30 2998 N 295.438 -6.24563 2.99821 0
M  V30 2999 N 297.231 -5.14033 2.27435 0
M  V30 3000 H 289.382 -1.30769 1.67372 0
M  V30 3001 H 291.645 -0.631653 0.706907 0
M  V30 3002 H 291.351 -2.7511 2.19106 0
M  V30 3003 H 291.225 -3.70228 0.721853 0
M  V30 3004 H 293.612 -2.95004 0.0754171 0
M  V30 3005 H 293.693 -2.01521 1.57554 0
M  V30 3006 H 293.337 -4.16427 2.90776 0
M  V30 3007 H 293.267 -5.08141 1.38206 0
M  V30 3008 H 295.758 -3.51976 1.37556 0
M  V30 3009 H 296.071 -6.94665 3.38616 0
M  V30 3010 H 294.416 -6.25035 3.03902 0
M  V30 3011 H 297.607 -4.3285 1.78208 0
M  V30 3012 H 297.78 -5.89129 2.69873 0
M  V30 3013 N 291.186 -0.45159 -1.50991 0
M  V30 3014 C 292.432 0.110237 -2.025 0
M  V30 3015 C 292.765 1.41109 -1.33424 0
M  V30 3016 O 292.04 1.89135 -0.453659 0
M  V30 3017 C 292.323 0.314271 -3.58726 0
M  V30 3018 C 292.176 -1.00623 -4.38401 0
M  V30 3019 C 293.495 1.07767 -4.26702 0
M  V30 3020 H 290.614 0.0385897 -0.735989 0
M  V30 3021 H 293.256 -0.593374 -1.80497 0
M  V30 3022 H 291.406 0.913601 -3.77605 0
M  V30 3023 H 293.078 -1.64064 -4.31139 0
M  V30 3024 H 291.321 -1.6075 -4.02917 0
M  V30 3025 H 291.992 -0.817341 -5.45915 0
M  V30 3026 H 294.468 0.56986 -4.12179 0
M  V30 3027 H 293.344 1.18921 -5.35863 0
M  V30 3028 H 293.605 2.10939 -3.88532 0
M  V30 3029 N 292.664 1.56529 -0.183458 0
M  V30 3030 C 293.594 2.21549 0.737456 0
M  V30 3031 C 294.575 1.17489 1.23005 0
M  V30 3032 O 295.76 1.45959 1.281 0
M  V30 3033 C 292.89 2.86575 1.96194 0
M  V30 3034 C 291.844 3.96778 1.60473 0
M  V30 3035 C 291.17 4.48911 2.90487 0
M  V30 3036 C 292.47 5.15767 0.823497 0
M  V30 3037 H 294.164 2.98761 0.195453 0
M  V30 3038 H 291.71 1.43702 0.0925686 0
M  V30 3039 H 293.663 3.30739 2.61131 0
M  V30 3040 H 292.387 2.06749 2.52828 0
M  V30 3041 H 291.046 3.53286 0.978997 0
M  V30 3042 H 290.694 3.65862 3.45186 0
M  V30 3043 H 290.394 5.23265 2.67335 0
M  V30 3044 H 291.918 4.95771 3.56432 0
M  V30 3045 H 293.332 5.56549 1.37571 0
M  V30 3046 H 291.729 5.96114 0.690551 0
M  V30 3047 H 292.799 4.84574 -0.177782 0
M  V30 3048 N 294.142 -0.090211 1.57342 0
M  V30 3049 C 295.089 -1.10909 2.02405 0
M  V30 3050 C 296.059 -1.39523 0.901252 0
M  V30 3051 O 297.244 -1.50903 1.1676 0
M  V30 3052 C 294.384 -2.42277 2.45755 0
M  V30 3053 C 293.497 -2.20352 3.71576 0
M  V30 3054 C 292.632 -3.45154 4.03785 0
M  V30 3055 C 291.671 -3.18512 5.22701 0
M  V30 3056 N 290.808 -4.35593 5.50639 0
M  V30 3057 H 295.648 -0.71782 2.89225 0
M  V30 3058 H 293.185 -0.342901 1.43048 0
M  V30 3059 H 295.143 -3.18951 2.68935 0
M  V30 3060 H 293.773 -2.79242 1.61938 0
M  V30 3061 H 292.825 -1.34458 3.55844 0
M  V30 3062 H 294.137 -1.96661 4.58395 0
M  V30 3063 H 293.291 -4.30233 4.27767 0
M  V30 3064 H 292.03 -3.71904 3.15498 0
M  V30 3065 H 291.035 -2.31827 4.98534 0
M  V30 3066 H 292.26 -2.93103 6.12591 0
M  V30 3067 H 290.206 -4.6241 4.6531 0
M  V30 3068 H 290.123 -4.1511 6.31838 0
M  V30 3069 H 291.391 -5.21723 5.7916 0
M  V30 3070 N 295.62 -1.53406 -0.361157 0
M  V30 3071 C 297.031 -1.61442 -0.937728 0
M  V30 3072 C 297.382 -0.48461 -1.90121 0
M  V30 3073 O 296.507 0.388312 -2.12888 0
M  V30 3074 C 297.102 -2.92624 -1.70753 0
M  V30 3075 C 295.661 -3.02981 -2.23337 0
M  V30 3076 C 294.808 -2.5677 -1.04712 0
M  V30 3077 H 297.759 -1.58083 -0.139816 0
M  V30 3078 H 297.78 -2.80675 -2.56908 0
M  V30 3079 H 297.292 -3.74834 -1.00604 0
M  V30 3080 H 295.393 -2.25368 -2.96715 0
M  V30 3081 H 295.506 -4.0814 -2.50916 0
M  V30 3082 H 293.87 -2.11752 -1.41539 0
M  V30 3083 H 294.653 -3.41402 -0.360539 0
M  V30 3084 N 297.098 0.621204 -1.44841 0
M  V30 3085 C 298.028 1.74366 -1.55303 0
M  V30 3086 C 299.009 1.65199 -0.405385 0
M  V30 3087 O 300.194 1.83807 -0.626787 0
M  V30 3088 C 297.324 3.12931 -1.50637 0
M  V30 3089 C 296.278 3.36896 -2.63979 0
M  V30 3090 C 295.604 4.75594 -2.44366 0
M  V30 3091 C 296.904 3.28483 -4.06074 0
M  V30 3092 H 298.598 1.65867 -2.49256 0
M  V30 3093 H 296.144 0.796558 -1.19962 0
M  V30 3094 H 298.097 3.9124 -1.56555 0
M  V30 3095 H 296.821 3.22237 -0.532057 0
M  V30 3096 H 295.48 2.60972 -2.57467 0
M  V30 3097 H 295.128 4.81616 -1.45105 0
M  V30 3098 H 294.828 4.92586 -3.20364 0
M  V30 3099 H 296.352 5.5612 -2.52117 0
M  V30 3100 H 297.766 3.96684 -4.13902 0
M  V30 3101 H 296.163 3.57008 -4.82354 0
M  V30 3102 H 297.233 2.26133 -4.28943 0
M  V30 3103 N 298.576 1.31904 0.862503 0
M  V30 3104 C 299.523 1.20182 1.9704 0
M  V30 3105 C 300.493 0.0858247 1.65878 0
M  V30 3106 O 301.678 0.26 1.8902 0
M  V30 3107 C 298.818 0.922797 3.32533 0
M  V30 3108 C 297.931 2.12284 3.76244 0
M  V30 3109 C 297.066 1.77996 5.00491 0
M  V30 3110 C 296.105 2.94366 5.36671 0
M  V30 3111 N 295.242 2.60223 6.52095 0
M  V30 3112 H 300.082 2.14951 2.06398 0
M  V30 3113 H 297.619 1.06917 1.01031 0
M  V30 3114 H 299.577 0.741548 4.10557 0
M  V30 3115 H 298.207 0.0119227 3.22798 0
M  V30 3116 H 297.259 2.41461 2.9394 0
M  V30 3117 H 298.571 2.99357 3.98982 0
M  V30 3118 H 297.725 1.56377 5.862 0
M  V30 3119 H 296.464 0.881252 4.79672 0
M  V30 3120 H 295.469 3.16625 4.49476 0
M  V30 3121 H 296.694 3.84957 5.59451 0
M  V30 3122 H 294.64 1.72884 6.32809 0
M  V30 3123 H 294.557 3.40827 6.74814 0
M  V30 3124 H 295.825 2.42016 7.40978 0
M  V30 3125 N 300.054 -1.07777 1.14986 0
M  V30 3126 C 300.984 -2.16865 0.865557 0
M  V30 3127 C 301.965 -1.69123 -0.182083 0
M  V30 3128 O 303.15 -1.94164 -0.0373815 0
M  V30 3129 C 300.28 -3.45539 0.349313 0
M  V30 3130 C 299.234 -4.06708 1.33313 0
M  V30 3131 C 298.56 -5.30411 0.675918 0
M  V30 3132 C 299.86 -4.47241 2.69764 0
M  V30 3133 H 301.554 -2.40905 1.77778 0
M  V30 3134 H 299.1 -1.15781 0.856203 0
M  V30 3135 H 301.053 -4.21174 0.137983 0
M  V30 3136 H 299.777 -3.21072 -0.598362 0
M  V30 3137 H 298.436 -3.33112 1.53075 0
M  V30 3138 H 298.084 -5.02232 -0.277767 0
M  V30 3139 H 297.784 -5.72293 1.33244 0
M  V30 3140 H 299.308 -6.08755 0.474262 0
M  V30 3141 H 300.722 -5.14025 2.53873 0
M  V30 3142 H 299.119 -5.00062 3.3175 0
M  V30 3143 H 300.189 -3.58818 3.26156 0
M  V30 3144 N 301.532 -0.945985 -1.26051 0
M  V30 3145 C 302.809 -0.513816 -1.88731 0
M  V30 3146 C 303.189 1.00872 -1.8544 0
M  V30 3147 O 302.537 1.8708 -1.312 0
M  V30 3148 C 302.747 -1.08062 -3.31849 0
M  V30 3149 C 304.095 -1.1522 -4.08668 0
M  V30 3150 O 305.119 -1.03155 -3.40936 0
M  V30 3151 O 303.978 -1.34044 -5.29806 0
M  V30 3152 H 301.072 -0.168193 -0.809716 0
M  V30 3153 H 303.618 -1.03886 -1.34186 0
M  V30 3154 H 302.39 -2.1241 -3.2863 0
M  V30 3155 H 302.013 -0.538307 -3.93939 0
M  V30 3156 N 303.011 1.40521 -0.713556 0
M  V30 3157 C 303.961 2.27971 -0.036165 0
M  V30 3158 C 304.945 1.43151 0.734623 0
M  V30 3159 O 306.137 1.66261 0.607158 0
M  V30 3160 C 303.266 3.31661 0.886331 0
M  V30 3161 C 302.352 4.23955 0.110836 0
M  V30 3162 N 302.743 4.97641 -0.904847 0
M  V30 3163 C 301.041 4.44674 0.343692 0
M  V30 3164 C 301.742 5.65322 -1.37064 0
M  V30 3165 N 300.718 5.39162 -0.693168 0
M  V30 3166 H 304.52 2.82384 -0.814645 0
M  V30 3167 H 302.034 1.52948 -0.545963 0
M  V30 3168 H 304.031 3.93154 1.38692 0
M  V30 3169 H 302.691 2.78808 1.66421 0
M  V30 3170 H 303.702 5.01689 -1.28563 0
M  V30 3171 H 300.379 4.02801 1.09805 0
M  V30 3172 H 301.769 6.34359 -2.21447 0
M  V30 3173 N 304.489 0.459591 1.5075 0
M  V30 3174 C 305.717 -0.0973749 2.06671 0
M  V30 3175 C 306.132 -1.34524 1.32472 0
M  V30 3176 O 305.489 -1.7827 0.390634 0
M  V30 3177 C 305.54 -0.39714 3.59312 0
M  V30 3178 O 305.261 0.801214 4.30711 0
M  V30 3179 C 306.762 -1.00234 4.31819 0
M  V30 3180 H 303.982 0.00195854 0.670997 0
M  V30 3181 H 306.526 0.645072 1.94059 0
M  V30 3182 H 304.681 -1.08951 3.71764 0
M  V30 3183 H 305.095 0.538857 5.21725 0
M  V30 3184 H 306.569 -1.16193 5.39632 0
M  V30 3185 H 307.046 -1.98939 3.91561 0
M  V30 3186 H 307.652 -0.348699 4.23868 0
M  V30 3187 N 305.967 -1.56429 0.191757 0
M  V30 3188 C 307.213 -1.98541 -0.441943 0
M  V30 3189 C 307.568 -1.07646 -1.59468 0
M  V30 3190 O 306.861 -0.120191 -1.91223 0
M  V30 3191 C 307.055 -3.44449 -0.953384 0
M  V30 3192 C 306.884 -4.49456 0.148262 0
M  V30 3193 C 305.654 -5.01668 0.604781 0
M  V30 3194 C 307.852 -5.05336 0.95602 0
M  V30 3195 N 305.834 -5.90334 1.6846 0
M  V30 3196 C 307.205 -5.9064 1.88531 0
M  V30 3197 C 309.26 -4.87779 0.998811 0
M  V30 3198 C 307.963 -6.60264 2.85383 0
M  V30 3199 C 309.989 -5.58139 1.95537 0
M  V30 3200 C 309.351 -6.43187 2.8721 0
M  V30 3201 H 305.45 -0.771247 -0.129236 0
M  V30 3202 H 308.034 -1.92426 0.296682 0
M  V30 3203 H 306.205 -3.5107 -1.66146 0
M  V30 3204 H 307.937 -3.73533 -1.55741 0
M  V30 3205 H 304.692 -4.73183 0.198736 0
M  V30 3206 H 305.116 -6.39371 2.22561 0
M  V30 3207 H 309.758 -4.21705 0.304048 0
M  V30 3208 H 307.476 -7.25538 3.55837 0
M  V30 3209 H 311.062 -5.46532 1.99484 0
M  V30 3210 H 309.942 -6.96674 3.60022 0
M  V30 3211 N 307.445 0.0818655 -1.57387 0
M  V30 3212 C 308.694 0.781681 -1.85937 0
M  V30 3213 C 309.007 1.79246 -0.782957 0
M  V30 3214 O 310.213 2.54112 -0.955987 0
M  V30 3215 C 308.669 1.44109 -3.29789 0
M  V30 3216 C 308.277 0.469396 -4.45534 0
M  V30 3217 C 310.021 2.12386 -3.67549 0
M  V30 3218 C 307.928 1.13415 -5.80423 0
M  V30 3219 H 306.858 0.295682 -0.693605 0
M  V30 3220 H 309.509 0.0348051 -1.83467 0
M  V30 3221 H 307.891 2.23588 -3.2684 0
M  V30 3222 H 309.065 -0.294856 -4.59856 0
M  V30 3223 H 307.38 -0.108383 -4.16259 0
M  V30 3224 H 309.977 2.62878 -4.65617 0
M  V30 3225 H 310.32 2.91877 -2.96839 0
M  V30 3226 H 310.853 1.39751 -3.72444 0
M  V30 3227 H 307.592 0.379771 -6.54399 0
M  V30 3228 H 307.112 1.8695 -5.69921 0
M  V30 3229 H 308.791 1.65686 -6.25426 0
M  V30 3230 N 308.923 1.53595 0.353017 0
M  V30 3231 C 309.871 1.81605 1.45335 0
M  V30 3232 C 310.865 0.685923 1.54892 0
M  V30 3233 O 312.071 0.869095 1.57628 0
M  V30 3234 H 308.446 0.575204 0.484401 0
M  V30 3235 H 310.417 2.73679 1.18921 0
M  V30 3236 C 309.166 2.03406 2.81995 0
M  V30 3237 H 308.489 2.89814 2.75405 0
M  V30 3238 H 309.929 2.26975 3.58132 0
M  V30 3239 C 308.388 0.816794 3.26849 0
M  V30 3240 O 308.918 0.0115856 4.01698 0
M  V30 3241 N 307.124 0.636682 2.8354 0
M  V30 3242 H 306.671 1.2931 2.22793 0
M  V30 3243 H 306.629 -0.176336 3.13905 0
M  V30 3244 N 310.401 -0.613514 1.45168 0
M  V30 3245 C 311.647 -1.37471 1.49096 0
M  V30 3246 C 311.98 -1.93765 0.129901 0
M  V30 3247 O 311.255 -1.74707 -0.854858 0
M  V30 3248 C 311.538 -2.52701 2.56542 0
M  V30 3249 C 311.391 -2.01643 4.0207 0
M  V30 3250 C 312.71 -3.54849 2.60327 0
M  V30 3251 H 309.829 -0.498502 0.54283 0
M  V30 3252 H 312.471 -0.692125 1.76945 0
M  V30 3253 H 310.621 -3.10931 2.32926 0
M  V30 3254 H 312.293 -1.48108 4.36877 0
M  V30 3255 H 310.536 -1.32688 4.13009 0
M  V30 3256 H 311.207 -2.84681 4.72928 0
M  V30 3257 H 313.683 -3.0645 2.81474 0
M  V30 3258 H 312.559 -4.32973 3.37381 0
M  V30 3259 H 312.82 -4.10079 1.6519 0
M  V30 3260 N 311.879 -1.3236 -0.855495 0
M  V30 3261 C 313.29 -1.2056 -1.42556 0
M  V30 3262 C 313.641 0.182209 -1.95352 0
M  V30 3263 O 312.766 1.08088 -1.87472 0
M  V30 3264 C 313.361 -2.1826 -2.59129 0
M  V30 3265 C 311.92 -2.10351 -3.12137 0
M  V30 3266 C 311.067 -2.06674 -1.84882 0
M  V30 3267 H 314.018 -1.442 -0.662727 0
M  V30 3268 H 314.039 -1.78064 -3.36264 0
M  V30 3269 H 313.551 -3.19257 -2.20673 0
M  V30 3270 H 311.652 -1.12599 -3.55179 0
M  V30 3271 H 311.765 -3.00135 -3.73438 0
M  V30 3272 H 310.129 -1.51901 -2.04446 0
M  V30 3273 H 310.912 -3.09451 -1.48643 0
M  V30 3274 N 313.357 1.07166 -1.15556 0
M  V30 3275 C 314.304 2.14417 -0.854055 0
M  V30 3276 C 315.274 1.64965 0.193806 0
M  V30 3277 O 316.459 1.90703 0.0609443 0
M  V30 3278 C 313.599 3.43304 -0.351574 0
M  V30 3279 C 312.712 4.06537 -1.46123 0
M  V30 3280 C 311.847 5.23266 -0.914677 0
M  V30 3281 C 310.886 5.78464 -2.00114 0
M  V30 3282 N 310.023 6.86521 -1.47083 0
M  V30 3283 H 314.863 2.39548 -1.77259 0
M  V30 3284 H 312.4 1.17543 -0.884425 0
M  V30 3285 H 314.358 4.17179 -0.0419409 0
M  V30 3286 H 312.988 3.18419 0.530037 0
M  V30 3287 H 312.04 3.30297 -1.88701 0
M  V30 3288 H 313.352 4.43567 -2.28144 0
M  V30 3289 H 312.506 6.04131 -0.557698 0
M  V30 3290 H 311.245 4.87658 -0.0636583 0
M  V30 3291 H 310.25 4.96243 -2.36692 0
M  V30 3292 H 311.475 6.16126 -2.85597 0
M  V30 3293 H 309.421 6.52849 -0.642198 0
M  V30 3294 H 309.338 7.22446 -2.22729 0
M  V30 3295 H 310.606 7.71087 -1.14215 0
M  V30 3296 N 314.835 0.952656 1.25548 0
M  V30 3297 C 315.798 0.475794 2.24207 0
M  V30 3298 C 316.798 -0.419428 1.55234 0
M  V30 3299 O 317.988 -0.216994 1.72843 0
M  V30 3300 C 315.12 -0.312814 3.39462 0
M  V30 3301 H 316.313 1.34779 2.67908 0
M  V30 3302 H 313.866 0.735739 1.37901 0
M  V30 3303 H 314.601 -1.20257 3.01179 0
M  V30 3304 H 314.386 0.329404 3.90714 0
M  V30 3305 H 315.876 -0.635986 4.12729 0
M  V30 3306 N 316.313 -1.40141 0.720998 0
M  V30 3307 C 317.223 -2.34486 0.0731031 0
M  V30 3308 C 318.239 -1.57587 -0.737723 0
M  V30 3309 O 319.415 -1.89949 -0.669429 0
M  V30 3310 C 316.48 -3.36528 -0.833656 0
M  V30 3311 C 315.541 -4.29298 -0.0121673 0
M  V30 3312 C 314.774 -5.26466 -0.875742 0
M  V30 3313 O 314.997 -5.29745 -2.11485 0
M  V30 3314 O 313.931 -6.01092 -0.31185 0
M  V30 3315 H 317.757 -2.9152 0.851444 0
M  V30 3316 H 315.342 -1.41427 0.481527 0
M  V30 3317 H 317.224 -3.99093 -1.35289 0
M  V30 3318 H 315.899 -2.81899 -1.59105 0
M  V30 3319 H 314.806 -3.70001 0.552262 0
M  V30 3320 H 316.139 -4.87094 0.707129 0
M  V30 3321 N 317.792 -0.46758 -1.50504 0
M  V30 3322 C 318.702 0.33382 -2.32213 0
M  V30 3323 C 319.718 0.999323 -1.42441 0
M  V30 3324 O 320.894 0.988068 -1.75497 0
M  V30 3325 C 317.959 1.4035 -3.17022 0
M  V30 3326 C 317.02 0.754961 -4.2261 0
M  V30 3327 C 316.253 1.77367 -5.03365 0
M  V30 3328 O 316.476 2.99976 -4.8515 0
M  V30 3329 O 315.41 1.34744 -5.86624 0
M  V30 3330 H 319.236 -0.334067 -3.01857 0
M  V30 3331 H 316.821 -0.229496 -1.47627 0
M  V30 3332 H 318.703 2.02318 -3.69656 0
M  V30 3333 H 317.378 2.05492 -2.5011 0
M  V30 3334 H 316.285 0.0964244 -3.73976 0
M  V30 3335 H 317.618 0.146545 -4.91982 0
M  V30 3336 N 319.27 1.56325 -0.20005 0
M  V30 3337 C 320.233 2.18084 0.705132 0
M  V30 3338 C 321.233 1.13666 1.1374 0
M  V30 3339 O 322.423 1.39023 1.04968 0
M  V30 3340 C 319.555 2.78689 1.96329 0
M  V30 3341 H 320.748 2.99435 0.167023 0
M  V30 3342 H 318.301 1.56221 0.0495725 0
M  V30 3343 H 319.036 2.0115 2.5438 0
M  V30 3344 H 318.821 3.55133 1.66202 0
M  V30 3345 H 320.311 3.26096 2.60866 0
M  V30 3346 N 320.748 -0.0735177 1.57428 0
M  V30 3347 C 321.698 -1.09442 2.00016 0
M  V30 3348 C 322.682 -1.34575 0.881947 0
M  V30 3349 O 323.874 -1.34905 1.14585 0
M  V30 3350 C 321.003 -2.40865 2.4462 0
M  V30 3351 C 320.089 -2.19014 3.63172 0
M  V30 3352 N 320.48 -1.67087 4.77405 0
M  V30 3353 C 318.778 -2.49494 3.69688 0
M  V30 3354 C 319.479 -1.6001 5.5926 0
M  V30 3355 N 318.455 -2.05999 5.03056 0
M  V30 3356 H 322.257 -0.686227 2.85776 0
M  V30 3357 H 319.771 -0.280617 1.59957 0
M  V30 3358 H 321.768 -3.14763 2.73368 0
M  V30 3359 H 320.428 -2.82403 1.60246 0
M  V30 3360 H 321.439 -1.35975 4.99731 0
M  V30 3361 H 318.116 -2.94409 2.96023 0
M  V30 3362 H 319.506 -1.2073 6.60964 0
M  V30 3363 N 322.226 -1.5378 -0.344866 0
M  V30 3364 C 323.456 -1.74646 -1.10374 0
M  V30 3365 C 323.864 -0.48491 -1.8288 0
M  V30 3366 O 323.207 0.553062 -1.75177 0
M  V30 3367 C 323.269 -2.87145 -2.16306 0
M  V30 3368 C 322.933 -4.26795 -1.63386 0
M  V30 3369 C 323.93 -5.08412 -1.08688 0
M  V30 3370 C 321.615 -4.73276 -1.68272 0
M  V30 3371 C 323.609 -6.34609 -0.595792 0
M  V30 3372 C 321.296 -5.99446 -1.18776 0
M  V30 3373 C 322.294 -6.79946 -0.645215 0
M  V30 3374 O 321.982 -8.03745 -0.157626 0
M  V30 3375 H 321.714 -0.587112 -0.335075 0
M  V30 3376 H 324.268 -2.01403 -0.403252 0
M  V30 3377 H 322.498 -2.55909 -2.89909 0
M  V30 3378 H 324.187 -2.95992 -2.77747 0
M  V30 3379 H 324.953 -4.73666 -1.04236 0
M  V30 3380 H 320.832 -4.10677 -2.09442 0
M  V30 3381 H 324.376 -6.97389 -0.171654 0
M  V30 3382 H 320.273 -6.33687 -1.22928 0
M  V30 3383 H 321.041 -8.18038 -0.275037 0
M  V30 3384 N 323.704 0.605807 -1.45491 0
M  V30 3385 C 324.667 1.69836 -1.5391 0
M  V30 3386 C 325.667 1.55261 -0.418424 0
M  V30 3387 O 326.857 1.60296 -0.681965 0
M  V30 3388 C 323.989 3.09117 -1.43734 0
M  V30 3389 H 325.182 1.63738 -2.51257 0
M  V30 3390 H 322.735 0.821689 -1.32959 0
M  V30 3391 H 323.47 3.20791 -0.475788 0
M  V30 3392 H 323.255 3.21104 -2.25021 0
M  V30 3393 H 324.745 3.88696 -1.52661 0
M  V30 3394 N 325.182 1.32811 0.848464 0
M  V30 3395 C 326.428 1.24917 1.60522 0
M  V30 3396 C 326.783 -0.185761 1.91501 0
M  V30 3397 O 326.076 -1.12524 1.55077 0
M  V30 3398 C 326.27 2.04831 2.92881 0
M  V30 3399 C 326.099 3.55949 2.74828 0
M  V30 3400 C 324.869 4.25277 2.72887 0
M  V30 3401 C 327.067 4.50476 2.48145 0
M  V30 3402 N 325.049 5.62408 2.46111 0
M  V30 3403 C 326.42 5.75427 2.30832 0
M  V30 3404 C 328.475 4.39665 2.33664 0
M  V30 3405 C 327.178 6.90789 2.00508 0
M  V30 3406 C 329.204 5.54833 2.04731 0
M  V30 3407 C 328.566 6.78787 1.88223 0
M  V30 3408 H 324.665 0.512279 0.590842 0
M  V30 3409 H 327.249 1.67246 0.996839 0
M  V30 3410 H 325.42 1.64837 3.51686 0
M  V30 3411 H 327.152 1.88782 3.57971 0
M  V30 3412 H 323.907 3.77456 2.86049 0
M  V30 3413 H 324.331 6.3467 2.35634 0
M  V30 3414 H 328.973 3.44477 2.45144 0
M  V30 3415 H 326.691 7.85984 1.87765 0
M  V30 3416 H 330.277 5.48398 1.94295 0
M  V30 3417 H 329.157 7.66396 1.66155 0
M  V30 3418 N 326.66 -1.06551 1.16123 0
M  V30 3419 C 327.908 -1.78947 0.939267 0
M  V30 3420 C 328.229 -1.87532 -0.534476 0
M  V30 3421 O 327.499 -1.38211 -1.38833 0
M  V30 3422 H 326.079 -0.662807 0.344523 0
M  V30 3423 H 328.741 -1.28725 1.46342 0
M  V30 3424 H 327.837 -2.81117 1.35572 0
M  V30 3425 N 328.138 -0.959301 -1.25041 0
M  V30 3426 C 329.368 -0.63303 -1.96663 0
M  V30 3427 C 329.776 0.800031 -1.71453 0
M  V30 3428 O 329.119 1.54736 -0.99008 0
M  V30 3429 C 329.181 -0.817523 -3.50081 0
M  V30 3430 C 328.845 -2.22863 -3.98975 0
M  V30 3431 C 329.842 -3.20569 -4.09306 0
M  V30 3432 C 327.527 -2.55407 -4.32519 0
M  V30 3433 C 329.521 -4.4891 -4.52503 0
M  V30 3434 C 327.208 -3.83976 -4.754 0
M  V30 3435 C 328.206 -4.8054 -4.85356 0
M  V30 3436 O 327.894 -6.06817 -5.27284 0
M  V30 3437 H 327.626 -0.235866 -0.633516 0
M  V30 3438 H 330.18 -1.2874 -1.60047 0
M  V30 3439 H 328.41 -0.105992 -3.86555 0
M  V30 3440 H 330.099 -0.491604 -4.02912 0
M  V30 3441 H 330.865 -2.96753 -3.83618 0
M  V30 3442 H 326.744 -1.8097 -4.23994 0
M  V30 3443 H 330.288 -5.24283 -4.60188 0
M  V30 3444 H 326.185 -4.07596 -5.00535 0
M  V30 3445 H 326.953 -6.10262 -5.45457 0
M  V30 3446 N 329.616 1.39756 -0.72842 0
M  V30 3447 C 331.032 1.5442 -0.403308 0
M  V30 3448 C 331.232 1.69694 1.08656 0
M  V30 3449 O 330.288 1.69373 1.87267 0
M  V30 3450 C 331.601 2.76555 -1.18058 0
M  V30 3451 C 333.149 2.90384 -1.16815 0
M  V30 3452 C 333.624 4.15449 -1.92785 0
M  V30 3453 N 335.115 4.22475 -1.89918 0
M  V30 3454 C 335.85 5.1818 -2.45514 0
M  V30 3455 N 335.346 6.19714 -3.09719 0
M  V30 3456 N 337.139 5.1035 -2.35584 0
M  V30 3457 H 329.29 1.28089 -1.69431 0
M  V30 3458 H 331.553 0.620327 -0.716867 0
M  V30 3459 H 331.259 2.7159 -2.23455 0
M  V30 3460 H 331.133 3.69033 -0.780662 0
M  V30 3461 H 333.52 2.94846 -0.12234 0
M  V30 3462 H 333.601 1.98988 -1.6074 0
M  V30 3463 H 333.245 4.11749 -2.97364 0
M  V30 3464 H 333.175 5.05877 -1.46272 0
M  V30 3465 H 335.666 3.49743 -1.43138 0
M  V30 3466 H 335.979 6.8919 -3.49625 0
M  V30 3467 H 334.324 6.20121 -3.13807 0
M  V30 3468 H 337.515 4.2996 -1.85072 0
M  V30 3469 H 337.688 5.84761 -2.79211 0
M  V30 3470 N 331.094 0.475555 1.50254 0
M  V30 3471 C 332.371 -0.139685 1.95101 0
M  V30 3472 C 332.751 -1.56555 1.41611 0
M  V30 3473 O 332.099 -2.19956 0.618993 0
M  V30 3474 C 332.309 -0.0784298 3.48912 0
M  V30 3475 C 333.657 -0.265095 4.23772 0
M  V30 3476 O 334.681 -0.154808 3.55863 0
M  V30 3477 O 333.54 -0.488327 5.44314 0
M  V30 3478 H 330.634 -0.109236 0.819754 0
M  V30 3479 H 333.18 0.536276 1.61004 0
M  V30 3480 H 331.952 0.916918 3.80405 0
M  V30 3481 H 331.575 -0.795655 3.89558 0
M  V30 3482 N 332.573 -1.56217 0.208337 0
M  V30 3483 C 333.821 -1.97558 -0.426076 0
M  V30 3484 C 334.142 -1.09683 -1.61229 0
M  V30 3485 O 333.412 -0.170956 -1.95153 0
M  V30 3486 H 331.992 -0.729575 -0.160405 0
M  V30 3487 H 334.654 -1.92606 0.298155 0
M  V30 3488 H 333.75 -3.02672 -0.761312 0
M  V30 3489 N 334.051 0.0651679 -1.57465 0
M  V30 3490 C 334.998 1.07675 -2.04144 0
M  V30 3491 C 335.968 1.38071 -0.923335 0
M  V30 3492 O 337.153 1.49026 -1.19146 0
M  V30 3493 C 334.293 2.38337 -2.49579 0
M  V30 3494 C 333.406 2.14413 -3.75035 0
M  V30 3495 C 332.541 3.38686 -4.09225 0
M  V30 3496 C 331.58 3.10156 -5.27702 0
M  V30 3497 N 330.717 4.26778 -5.57499 0
M  V30 3498 H 335.557 0.671716 -2.90331 0
M  V30 3499 H 333.094 0.3201 -1.43575 0
M  V30 3500 H 335.052 3.14632 -2.73975 0
M  V30 3501 H 333.682 2.7663 -1.6636 0
M  V30 3502 H 332.734 1.2878 -3.57939 0
M  V30 3503 H 334.046 1.89344 -4.61466 0
M  V30 3504 H 333.2 4.23373 -4.34558 0
M  V30 3505 H 331.939 3.66837 -3.21374 0
M  V30 3506 H 330.944 2.23866 -5.02159 0
M  V30 3507 H 332.169 2.8332 -6.17176 0
M  V30 3508 H 330.115 4.54948 -4.72608 0
M  V30 3509 H 330.032 4.05005 -6.38362 0
M  V30 3510 H 331.3 5.12443 -5.87386 0
M  V30 3511 N 335.529 1.53961 0.336706 0
M  V30 3512 C 336.492 1.81724 1.39675 0
M  V30 3513 C 337.492 0.688532 1.45313 0
M  V30 3514 O 338.682 0.956829 1.45569 0
M  V30 3515 C 335.814 1.96543 2.78538 0
M  V30 3516 H 337.007 2.76424 1.16318 0
M  V30 3517 H 334.56 1.45478 0.571474 0
M  V30 3518 H 335.295 1.0401 3.07168 0
M  V30 3519 H 335.08 2.78665 2.75841 0
M  V30 3520 H 336.57 2.19516 3.5525 0
M  V30 3521 N 337.007 -0.598083 1.45811 0
M  V30 3522 C 338.253 -1.35882 1.50545 0
M  V30 3523 C 338.586 -1.93616 0.150445 0
M  V30 3524 O 337.861 -1.75604 -0.83628 0
M  V30 3525 C 338.144 -2.49966 2.59208 0
M  V30 3526 C 337.997 -1.97367 4.04186 0
M  V30 3527 C 339.316 -3.52068 2.64076 0
M  V30 3528 H 336.435 -0.492717 0.548087 0
M  V30 3529 H 339.077 -0.673319 1.77669 0
M  V30 3530 H 337.227 -3.08443 2.3621 0
M  V30 3531 H 338.899 -1.43466 4.38423 0
M  V30 3532 H 337.142 -1.283 4.14393 0
M  V30 3533 H 337.813 -2.79649 4.75921 0
M  V30 3534 H 340.289 -3.03448 2.84708 0
M  V30 3535 H 339.165 -4.2937 3.41954 0
M  V30 3536 H 339.426 -4.08304 1.69531 0
M  V30 3537 N 338.485 -1.33259 -0.841409 0
M  V30 3538 C 339.901 -1.12538 -1.13169 0
M  V30 3539 C 340.101 0.0854037 -2.01319 0
M  V30 3540 O 339.157 0.766417 -2.40587 0
M  V30 3541 C 340.47 -2.41156 -1.79623 0
M  V30 3542 C 342.018 -2.47038 -1.922 0
M  V30 3543 C 342.493 -3.7561 -2.6207 0
M  V30 3544 N 343.984 -3.76667 -2.69585 0
M  V30 3545 C 344.719 -4.72861 -3.2433 0
M  V30 3546 N 344.215 -5.79428 -3.79783 0
M  V30 3547 N 346.008 -4.6034 -3.22558 0
M  V30 3548 H 338.159 -2.10868 -0.254676 0
M  V30 3549 H 340.422 -0.931615 -0.175493 0
M  V30 3550 H 340.128 -3.29747 -1.22311 0
M  V30 3551 H 340.002 -2.53114 -2.79666 0
M  V30 3552 H 342.389 -1.58898 -2.48667 0
M  V30 3553 H 342.47 -2.39022 -0.911148 0
M  V30 3554 H 342.114 -4.64131 -2.06263 0
M  V30 3555 H 342.044 -3.80902 -3.63622 0
M  V30 3556 H 344.535 -2.99648 -2.30259 0
M  V30 3557 H 344.848 -6.48867 -4.19752 0
M  V30 3558 H 343.193 -5.83166 -3.78078 0
M  V30 3559 H 346.384 -3.76244 -2.78492 0
M  V30 3560 H 346.557 -5.35478 -3.64921 0
M  V30 3561 N 339.963 1.05934 -1.16686 0
M  V30 3562 C 341.209 1.79065 -0.95203 0
M  V30 3563 C 341.542 1.87147 0.518629 0
M  V30 3564 O 340.817 1.36574 1.38484 0
M  V30 3565 C 341.1 3.23359 -1.58464 0
M  V30 3566 C 340.953 3.23336 -3.12689 0
M  V30 3567 C 342.272 4.21004 -1.28232 0
M  V30 3568 H 339.391 0.65005 -0.34728 0
M  V30 3569 H 342.033 1.23868 -1.44072 0
M  V30 3570 H 340.183 3.70493 -1.16908 0
M  V30 3571 H 341.855 2.84336 -3.6325 0
M  V30 3572 H 340.098 2.61886 -3.4583 0
M  V30 3573 H 340.769 4.25144 -3.52075 0
M  V30 3574 H 343.245 3.8233 -1.64203 0
M  V30 3575 H 342.121 5.20225 -1.75092 0
M  V30 3576 H 342.382 4.41639 -0.201791 0
M  V30 3577 N 341.441 0.965919 1.2453 0
M  V30 3578 C 342.666 0.643971 1.97149 0
M  V30 3579 C 343.091 -0.779487 1.71189 0
M  V30 3580 O 342.449 -1.5288 0.974553 0
M  V30 3581 C 342.497 0.922557 3.48599 0
M  V30 3582 O 341.601 0.00707672 4.12399 0
M  V30 3583 H 340.942 0.243647 0.617683 0
M  V30 3584 H 343.472 1.29558 1.58353 0
M  V30 3585 H 343.482 0.853373 3.98976 0
M  V30 3586 H 342.157 1.95996 3.66822 0
M  V30 3587 H 340.734 0.12943 3.72675 0
M  V30 3588 N 342.919 -1.39368 0.735821 0
M  V30 3589 C 344.33 -1.83313 0.354015 0
M  V30 3590 C 344.681 -1.61461 -1.11466 0
M  V30 3591 O 343.806 -1.10621 -1.85989 0
M  V30 3592 C 344.401 -3.32781 0.635769 0
M  V30 3593 C 342.96 -3.75142 0.307448 0
M  V30 3594 C 342.107 -2.62358 0.897974 0
M  V30 3595 H 345.058 -1.28349 0.933398 0
M  V30 3596 H 345.079 -3.80388 -0.0921773 0
M  V30 3597 H 344.591 -3.48654 1.70476 0
M  V30 3598 H 342.692 -3.64857 -0.755674 0
M  V30 3599 H 342.805 -4.72532 0.790583 0
M  V30 3600 H 341.169 -2.52624 0.324551 0
M  V30 3601 H 341.952 -2.81036 1.97164 0
M  V30 3602 N 344.397 -0.483516 -1.5 0
M  V30 3603 C 345.645 0.067027 -2.01989 0
M  V30 3604 C 345.966 1.3909 -1.36671 0
M  V30 3605 O 345.236 1.88978 -0.516152 0
M  V30 3606 H 343.816 0.0277606 -0.746484 0
M  V30 3607 H 346.478 -0.636773 -1.84204 0
M  V30 3608 H 345.574 0.209484 -3.11396 0
M  V30 3609 N 345.875 1.56104 -0.216619 0
M  V30 3610 C 346.808 2.16026 0.735395 0
M  V30 3611 C 347.786 1.1032 1.1945 0
M  V30 3612 O 348.97 1.38549 1.27814 0
M  V30 3613 C 346.097 2.73656 1.99575 0
M  V30 3614 C 345.143 3.92146 1.67702 0
M  V30 3615 S 345.976 5.29397 0.806145 0
M  V30 3616 C 347.132 5.90463 2.07617 0
M  V30 3617 H 347.365 2.96439 0.226072 0
M  V30 3618 H 344.898 1.544 -0.00136639 0
M  V30 3619 H 346.856 3.075 2.71945 0
M  V30 3620 H 345.517 1.93245 2.47619 0
M  V30 3621 H 344.71 4.30954 2.61332 0
M  V30 3622 H 344.312 3.59423 1.03398 0
M  V30 3623 H 346.604 6.06136 3.02664 0
M  V30 3624 H 347.547 6.86589 1.73207 0
M  V30 3625 H 347.955 5.19252 2.21445 0
M  V30 3626 N 347.353 -0.0568162 1.57498 0
M  V30 3627 C 348.283 -1.06593 2.0775 0
M  V30 3628 C 349.264 -1.39448 0.974082 0
M  V30 3629 O 350.449 -1.48815 1.24771 0
M  V30 3630 C 347.579 -2.37509 2.5339 0
M  V30 3631 C 346.533 -2.1897 3.67745 0
M  V30 3632 C 345.859 -3.55402 3.99492 0
M  V30 3633 C 347.159 -1.59859 4.97235 0
M  V30 3634 H 348.853 -0.647706 2.9231 0
M  V30 3635 H 346.399 -0.310116 1.40621 0
M  V30 3636 H 348.352 -3.08409 2.87162 0
M  V30 3637 H 347.076 -2.8134 1.65878 0
M  V30 3638 H 345.735 -1.50508 3.3428 0
M  V30 3639 H 345.383 -3.9683 3.09088 0
M  V30 3640 H 345.083 -3.43831 4.76502 0
M  V30 3641 H 346.607 -4.27708 4.35773 0
M  V30 3642 H 348.021 -2.20642 5.29141 0
M  V30 3643 H 346.418 -1.58942 5.78669 0
M  V30 3644 H 347.488 -0.561506 4.81638 0
M  V30 3645 N 348.832 -1.54138 -0.328536 0
M  V30 3646 C 350.109 -1.62749 -1.08499 0
M  V30 3647 C 350.489 -0.458198 -2.06067 0
M  V30 3648 O 349.837 0.548046 -2.2183 0
M  V30 3649 C 350.047 -2.99519 -1.79135 0
M  V30 3650 C 351.395 -3.55394 -2.32337 0
M  V30 3651 O 352.419 -3.01792 -1.89209 0
M  V30 3652 O 351.278 -4.49186 -3.11279 0
M  V30 3653 H 348.372 -0.65886 -0.499832 0
M  V30 3654 H 350.918 -1.66484 -0.328826 0
M  V30 3655 H 349.69 -3.76061 -1.08139 0
M  V30 3656 H 349.313 -2.99441 -2.61574 0
M  V30 3657 N 350.31 0.590341 -1.46126 0
M  V30 3658 C 351.273 1.68194 -1.55703 0
M  V30 3659 C 352.273 1.54808 -0.434868 0
M  V30 3660 O 353.463 1.59564 -0.698928 0
M  V30 3661 C 350.595 3.07575 -1.47005 0
M  V30 3662 H 351.788 1.61064 -2.52979 0
M  V30 3663 H 349.341 0.807541 -1.33823 0
M  V30 3664 H 350.076 3.20268 -0.509785 0
M  V30 3665 H 349.861 3.187 -2.28414 0
M  V30 3666 H 351.351 3.87055 -1.56776 0
M  V30 3667 N 351.788 1.33704 0.83433 0
M  V30 3668 C 352.72 1.20172 1.9517 0
M  V30 3669 C 353.733 0.131572 1.62267 0
M  V30 3670 O 354.922 0.382406 1.74356 0
M  V30 3671 C 352.022 0.821716 3.28787 0
M  V30 3672 C 351.195 1.98446 3.89792 0
M  V30 3673 C 350.254 1.58469 5.01771 0
M  V30 3674 O 349.28 2.29968 5.20676 0
M  V30 3675 N 350.482 0.492291 5.78409 0
M  V30 3676 H 353.247 2.16429 2.07313 0
M  V30 3677 H 350.808 1.26509 1.0103 0
M  V30 3678 H 352.8 0.536291 4.01131 0
M  V30 3679 H 351.37 -0.0503058 3.1256 0
M  V30 3680 H 350.59 2.43526 3.09982 0
M  V30 3681 H 351.878 2.76236 4.27283 0
M  V30 3682 H 351.276 -0.102349 5.65607 0
M  V30 3683 H 349.833 0.266555 6.51255 0
M  V30 3684 N 353.266 -1.05314 1.17247 0
M  V30 3685 C 354.229 -2.112 0.890357 0
M  V30 3686 C 355.229 -1.60359 -0.118943 0
M  V30 3687 O 356.419 -1.73833 0.113086 0
M  V30 3688 C 353.551 -3.39266 0.333422 0
M  V30 3689 H 354.744 -2.37659 1.82916 0
M  V30 3690 H 352.297 -1.21538 0.982758 0
M  V30 3691 H 353.032 -3.18462 -0.612587 0
M  V30 3692 H 352.817 -3.77477 1.06082 0
M  V30 3693 H 354.307 -4.17315 0.154322 0
M  V30 3694 N 354.744 -0.972509 -1.24016 0
M  V30 3695 C 355.974 -0.653853 -1.9598 0
M  V30 3696 C 356.382 0.781801 -1.72292 0
M  V30 3697 O 355.725 1.53677 -1.00644 0
M  V30 3698 C 355.787 -0.854608 -3.49194 0
M  V30 3699 C 355.451 -2.27082 -3.96589 0
M  V30 3700 C 356.448 -3.24892 -4.05883 0
M  V30 3701 C 354.133 -2.5998 -4.29786 0
M  V30 3702 C 356.127 -4.53684 -4.47716 0
M  V30 3703 C 353.814 -3.88997 -4.71301 0
M  V30 3704 C 354.812 -4.85661 -4.80232 0
M  V30 3705 O 354.5 -6.12376 -5.20818 0
M  V30 3706 H 354.232 -0.242572 -0.630979 0
M  V30 3707 H 356.786 -1.30431 -1.58673 0
M  V30 3708 H 355.016 -0.146985 -3.86421 0
M  V30 3709 H 356.705 -0.534311 -4.02368 0
M  V30 3710 H 357.471 -3.00805 -3.80449 0
M  V30 3711 H 353.35 -1.85457 -4.22051 0
M  V30 3712 H 356.894 -5.29135 -4.54601 0
M  V30 3713 H 352.791 -4.12882 -4.96184 0
M  V30 3714 H 353.559 -6.16013 -5.38953 0
M  V30 3715 N 356.222 1.38976 -0.743202 0
M  V30 3716 C 357.47 1.99948 -0.29417 0
M  V30 3717 C 357.791 1.59279 1.12495 0
M  V30 3718 O 357.061 0.844808 1.76748 0
M  V30 3719 H 355.641 0.739473 -0.105774 0
M  V30 3720 H 358.303 1.699 -0.954986 0
M  V30 3721 H 357.399 3.10142 -0.349056 0
M  V30 3722 N 357.7 0.491464 1.49741 0
M  V30 3723 C 358.946 -0.0565092 2.02721 0
M  V30 3724 C 359.279 -1.37522 1.37118 0
M  V30 3725 O 358.554 -1.87866 0.503645 0
M  V30 3726 C 358.837 -0.219051 3.59433 0
M  V30 3727 C 358.69 1.12211 4.35579 0
M  V30 3728 C 360.009 -0.964157 4.29409 0
M  V30 3729 H 357.128 -0.0190627 0.736753 0
M  V30 3730 H 359.77 0.641021 1.7886 0
M  V30 3731 H 357.92 -0.813165 3.79895 0
M  V30 3732 H 359.592 1.75437 4.26637 0
M  V30 3733 H 357.835 1.71377 3.98513 0
M  V30 3734 H 358.506 0.961794 5.43556 0
M  V30 3735 H 360.982 -0.460378 4.13545 0
M  V30 3736 H 359.858 -1.04671 5.38828 0
M  V30 3737 H 360.119 -2.00563 3.93988 0
M  V30 3738 N 359.178 -1.55987 0.224894 0
M  V30 3739 C 360.125 -2.20436 -0.68385 0
M  V30 3740 C 361.095 -1.16102 -1.18783 0
M  V30 3741 O 362.28 -1.4447 -1.24632 0
M  V30 3742 C 359.42 -2.89076 -1.88491 0
M  V30 3743 C 358.533 -4.08012 -1.41951 0
M  V30 3744 C 357.668 -4.64426 -2.5784 0
M  V30 3745 C 356.707 -5.75656 -2.08053 0
M  V30 3746 N 355.844 -6.26347 -3.17227 0
M  V30 3747 H 360.684 -2.97727 -0.12754 0
M  V30 3748 H 358.221 -1.47011 -0.0511978 0
M  V30 3749 H 360.179 -3.27059 -2.59014 0
M  V30 3750 H 358.809 -2.14298 -2.41405 0
M  V30 3751 H 357.861 -3.75492 -0.609095 0
M  V30 3752 H 359.173 -4.88375 -1.01447 0
M  V30 3753 H 358.327 -5.04869 -3.3644 0
M  V30 3754 H 357.066 -3.83233 -3.01635 0
M  V30 3755 H 356.071 -5.34712 -1.27916 0
M  V30 3756 H 357.296 -6.58686 -1.65255 0
M  V30 3757 H 355.242 -5.48067 -3.60497 0
M  V30 3758 H 355.159 -7.01843 -2.80986 0
M  V30 3759 H 356.427 -6.71447 -3.95953 0
M  V30 3760 N 360.656 0.0484629 -1.57525 0
M  V30 3761 C 361.884 0.755421 -1.92616 0
M  V30 3762 C 362.299 1.69919 -0.822984 0
M  V30 3763 O 361.656 1.81378 0.202085 0
M  V30 3764 C 361.707 1.52915 -3.27566 0
M  V30 3765 O 361.428 0.62329 -4.33644 0
M  V30 3766 C 362.929 2.33502 -3.76818 0
M  V30 3767 H 360.149 0.213465 -0.63614 0
M  V30 3768 H 362.693 0.0117698 -2.04497 0
M  V30 3769 H 360.848 2.22486 -3.17142 0
M  V30 3770 H 361.262 1.16383 -5.11425 0
M  V30 3771 H 362.736 2.83214 -4.73808 0
M  V30 3772 H 363.213 3.14068 -3.07014 0
M  V30 3773 H 363.819 1.69043 -3.90262 0
M  V30 3774 N 362.134 1.5431 0.320358 0
M  V30 3775 C 363.082 1.84647 1.4145 0
M  V30 3776 C 364.076 0.718624 1.53402 0
M  V30 3777 O 365.282 0.902335 1.5575 0
M  V30 3778 H 361.657 0.585349 0.472091 0
M  V30 3779 H 363.628 2.7614 1.13089 0
M  V30 3780 C 362.377 2.09341 2.77617 0
M  V30 3781 H 361.7 2.9559 2.69196 0
M  V30 3782 H 363.14 2.3452 3.53237 0
M  V30 3783 C 361.599 0.885939 3.25043 0
M  V30 3784 O 362.129 0.0967891 4.01583 0
M  V30 3785 N 360.335 0.696682 2.82125 0
M  V30 3786 H 359.882 1.34006 2.2 0
M  V30 3787 H 359.84 -0.109712 3.14209 0
M  V30 3788 N 363.613 -0.582584 1.46437 0
M  V30 3789 C 364.859 -1.34278 1.51978 0
M  V30 3790 C 365.192 -1.93446 0.170973 0
M  V30 3791 O 364.467 -1.76481 -0.817608 0
M  V30 3792 C 364.75 -2.47203 2.61845 0
M  V30 3793 C 364.603 -1.93069 4.06257 0
M  V30 3794 C 365.922 -3.49247 2.67795 0
M  V30 3795 H 363.041 -0.486876 0.553282 0
M  V30 3796 H 365.683 -0.654437 1.78374 0
M  V30 3797 H 363.833 -3.0592 2.39469 0
M  V30 3798 H 365.505 -1.38808 4.3992 0
M  V30 3799 H 363.748 -1.23898 4.1573 0
M  V30 3800 H 364.419 -2.74586 4.7886 0
M  V30 3801 H 366.895 -3.00411 2.8791 0
M  V30 3802 H 365.771 -4.25719 3.46489 0
M  V30 3803 H 366.032 -4.06482 1.73852 0
M  V30 3804 N 365.091 -1.34144 -0.827227 0
M  V30 3805 C 366.023 -1.21206 -1.9453 0
M  V30 3806 C 367.036 -0.140176 -1.62195 0
M  V30 3807 O 368.225 -0.391647 -1.7415 0
M  V30 3808 C 365.325 -0.839141 -3.28347 0
M  V30 3809 C 364.498 -2.0051 -3.88734 0
M  V30 3810 C 363.557 -1.61128 -5.00923 0
M  V30 3811 O 362.583 -2.32726 -5.19449 0
M  V30 3812 N 363.785 -0.522958 -5.7814 0
M  V30 3813 H 366.55 -2.17525 -2.06162 0
M  V30 3814 H 364.111 -1.27043 -1.00358 0
M  V30 3815 H 366.103 -0.557556 -4.00841 0
M  V30 3816 H 364.673 0.0337293 -3.12582 0
M  V30 3817 H 363.893 -2.45166 -3.08686 0
M  V30 3818 H 365.181 -2.78498 -4.25812 0
M  V30 3819 H 364.579 0.0723518 -5.65654 0
M  V30 3820 H 363.136 -0.301089 -6.51104 0
M  V30 3821 N 366.569 1.04691 -1.17803 0
M  V30 3822 C 367.846 1.7472 -0.879328 0
M  V30 3823 C 368.226 2.01812 0.619271 0
M  V30 3824 O 367.574 1.65824 1.57209 0
M  V30 3825 C 367.784 3.03686 -1.71976 0
M  V30 3826 C 369.132 3.77542 -1.94286 0
M  V30 3827 O 370.156 3.13569 -1.68976 0
M  V30 3828 O 369.015 4.92506 -2.36855 0
M  V30 3829 H 366.109 0.760011 -0.326056 0
M  V30 3830 H 368.655 1.10813 -1.28525 0
M  V30 3831 H 367.427 2.79754 -2.73594 0
M  V30 3832 H 367.05 3.75332 -1.31194 0
M  V30 3833 N 368.047 0.979072 1.23499 0
M  V30 3834 C 368.98 0.463027 2.23453 0
M  V30 3835 C 369.958 -0.469128 1.55685 0
M  V30 3836 O 371.142 -0.397882 1.84253 0
M  V30 3837 C 368.269 -0.330308 3.37086 0
M  V30 3838 C 367.315 0.545795 4.22993 0
M  V30 3839 S 368.148 1.99285 4.97037 0
M  V30 3840 C 369.304 1.20862 6.1412 0
M  V30 3841 H 369.537 1.31005 2.6688 0
M  V30 3842 H 367.07 0.784965 1.32957 0
M  V30 3843 H 369.028 -0.782027 4.02982 0
M  V30 3844 H 367.689 -1.15244 2.92194 0
M  V30 3845 H 366.882 -0.0638928 5.03959 0
M  V30 3846 H 366.484 0.933705 3.62157 0
M  V30 3847 H 368.776 0.469284 6.75873 0
M  V30 3848 H 369.719 1.99307 6.79472 0
M  V30 3849 H 370.127 0.727992 5.59786 0
M  V30 3850 N 369.525 -1.3858 0.750561 0
M  V30 3851 C 370.488 -2.28836 0.129152 0
M  V30 3852 C 371.488 -1.47045 -0.650714 0
M  V30 3853 O 372.678 -1.6753 -0.477428 0
M  V30 3854 C 369.81 -3.30751 -0.825622 0
M  V30 3855 H 371.003 -2.85294 0.924516 0
M  V30 3856 H 368.556 -1.47489 0.517376 0
M  V30 3857 H 369.291 -2.79378 -1.64677 0
M  V30 3858 H 369.076 -3.91177 -0.268852 0
M  V30 3859 H 370.566 -3.98249 -1.2565 0
M  V30 3860 N 371.003 -0.499398 -1.49478 0
M  V30 3861 C 371.951 0.293604 -2.3074 0
M  V30 3862 C 372.945 0.96427 -1.39277 0
M  V30 3863 O 374.151 0.892141 -1.56336 0
M  V30 3864 H 370.526 0.113541 -0.743379 0
M  V30 3865 H 372.497 -0.411772 -2.95545 0
M  V30 3866 C 371.246 1.3462 -3.20582 0
M  V30 3867 H 370.569 0.83954 -3.90886 0
M  V30 3868 H 372.009 1.87308 -3.80384 0
M  V30 3869 C 370.468 2.36351 -2.40083 0
M  V30 3870 O 370.998 3.422 -2.10385 0
M  V30 3871 N 369.204 2.0878 -2.02137 0
M  V30 3872 H 368.751 1.22723 -2.26488 0
M  V30 3873 H 368.709 2.77075 -1.48583 0
M  V30 3874 N 372.481 1.55866 -0.233164 0
M  V30 3875 C 373.727 1.99643 0.389148 0
M  V30 3876 C 374.082 1.11836 1.56558 0
M  V30 3877 O 373.375 0.170848 1.90837 0
M  V30 3878 C 373.569 3.46856 0.861724 0
M  V30 3879 C 373.398 4.48904 -0.267376 0
M  V30 3880 C 372.168 4.99888 -0.737577 0
M  V30 3881 C 374.366 5.02624 -1.08966 0
M  V30 3882 N 372.348 5.8566 -1.84052 0
M  V30 3883 C 373.719 5.85434 -2.04125 0
M  V30 3884 C 375.774 4.84959 -1.12779 0
M  V30 3885 C 374.477 6.52466 -3.02789 0
M  V30 3886 C 376.503 5.52759 -2.10266 0
M  V30 3887 C 375.865 6.35346 -3.04162 0
M  V30 3888 H 371.964 0.774402 0.108742 0
M  V30 3889 H 374.548 1.91572 -0.347596 0
M  V30 3890 H 372.719 3.55352 1.5678 0
M  V30 3891 H 374.451 3.77531 1.45783 0
M  V30 3892 H 371.206 4.7249 -0.324122 0
M  V30 3893 H 371.63 6.33246 -2.39434 0
M  V30 3894 H 376.272 4.20751 -0.415749 0
M  V30 3895 H 373.99 7.15849 -3.74948 0
M  V30 3896 H 377.576 5.41051 -2.13905 0
M  V30 3897 H 376.456 6.86883 -3.78366 0
M  V30 3898 N 373.959 -0.0401083 1.57549 0
M  V30 3899 C 375.205 -0.734211 1.89043 0
M  V30 3900 C 375.538 -1.75591 0.829535 0
M  V30 3901 O 374.813 -1.93868 -0.156706 0
M  V30 3902 C 375.096 -1.41374 3.31188 0
M  V30 3903 C 374.949 -0.406299 4.47961 0
M  V30 3904 C 376.268 -2.35061 3.72068 0
M  V30 3905 H 373.387 -0.265447 0.687537 0
M  V30 3906 H 376.029 0.00294087 1.9 0
M  V30 3907 H 374.179 -2.04206 3.30503 0
M  V30 3908 H 375.851 0.219255 4.60779 0
M  V30 3909 H 374.094 0.275485 4.32924 0
M  V30 3910 H 374.765 -0.920022 5.44279 0
M  V30 3911 H 377.241 -1.82282 3.74049 0
M  V30 3912 H 376.117 -2.79593 4.72355 0
M  V30 3913 H 376.378 -3.21258 3.0372 0
M  V30 3914 N 375.437 -1.54477 -0.31217 0
M  V30 3915 C 376.37 -1.79519 -1.40884 0
M  V30 3916 C 377.348 -0.645753 -1.49227 0
M  V30 3917 O 378.532 -0.884468 -1.66461 0
M  V30 3918 C 375.659 -1.92194 -2.78889 0
M  V30 3919 C 374.705 -3.14555 -2.88023 0
M  V30 3920 S 375.538 -4.72893 -2.51262 0
M  V30 3921 C 376.694 -4.8849 -3.91317 0
M  V30 3922 H 376.927 -2.72256 -1.19432 0
M  V30 3923 H 374.46 -1.45746 -0.509654 0
M  V30 3924 H 376.418 -2.00182 -3.58382 0
M  V30 3925 H 375.079 -1.00414 -2.97617 0
M  V30 3926 H 374.272 -3.20193 -3.89221 0
M  V30 3927 H 373.874 -3.04955 -2.16514 0
M  V30 3928 H 376.166 -4.71826 -4.86196 0
M  V30 3929 H 377.109 -5.90588 -3.90656 0
M  V30 3930 H 377.517 -4.16715 -3.80801 0
M  V30 3931 N 376.915 0.57481 -1.46744 0
M  V30 3932 C 377.878 1.66533 -1.57478 0
M  V30 3933 C 378.878 1.54338 -0.451263 0
M  V30 3934 O 380.068 1.58814 -0.715813 0
M  V30 3935 C 377.2 3.05999 -1.50259 0
M  V30 3936 H 378.393 1.58372 -2.54673 0
M  V30 3937 H 375.946 0.793301 -1.34672 0
M  V30 3938 H 376.681 3.19709 -0.543725 0
M  V30 3939 H 376.466 3.16259 -2.31781 0
M  V30 3940 H 377.956 3.8537 -1.60872 0
M  V30 3941 N 378.394 1.34581 0.820102 0
M  V30 3942 C 379.342 1.26401 1.95258 0
M  V30 3943 C 380.336 0.161553 1.68628 0
M  V30 3944 O 381.542 0.326703 1.7701 0
M  V30 3945 H 377.917 0.392749 0.64129 0
M  V30 3946 H 379.888 2.22105 1.99279 0
M  V30 3947 C 378.637 1.03919 3.31807 0
M  V30 3948 H 377.96 1.87984 3.52848 0
M  V30 3949 H 379.4 1.02232 4.11491 0
M  V30 3950 C 377.859 -0.257433 3.35915 0
M  V30 3951 O 378.389 -1.25784 3.81499 0
M  V30 3952 N 376.595 -0.291524 2.89134 0
M  V30 3953 H 376.142 0.523161 2.52232 0
M  V30 3954 H 376.1 -1.15883 2.92264 0
M  V30 3955 N 379.872 -1.04064 1.18357 0
M  V30 3956 C 380.805 -2.11618 0.854 0
M  V30 3957 C 381.783 -1.61555 -0.184043 0
M  V30 3958 O 382.967 -1.88395 -0.0630048 0
M  V30 3959 C 380.094 -3.37574 0.27597 0
M  V30 3960 C 379.14 -4.06485 1.2912 0
M  V30 3961 S 379.973 -4.53543 2.84709 0
M  V30 3962 C 381.129 -5.82732 2.28417 0
M  V30 3963 H 381.362 -2.39247 1.76488 0
M  V30 3964 H 378.895 -1.16832 1.00944 0
M  V30 3965 H 380.853 -4.10468 -0.051026 0
M  V30 3966 H 379.514 -3.0806 -0.613028 0
M  V30 3967 H 378.707 -4.97024 0.835633 0
M  V30 3968 H 378.309 -3.39708 1.56443 0
M  V30 3969 H 380.601 -6.56677 1.66677 0
M  V30 3970 H 381.544 -6.33052 3.17256 0
M  V30 3971 H 381.952 -5.37838 1.71436 0
M  V30 3972 N 381.35 -0.985608 -1.22978 0
M  V30 3973 C 382.313 -0.535071 -2.22867 0
M  V30 3974 C 383.313 0.378123 -1.56291 0
M  V30 3975 O 384.503 0.171092 -1.73358 0
M  V30 3976 C 381.635 0.222702 -3.40172 0
M  V30 3977 H 382.828 -1.41835 -2.6424 0
M  V30 3978 H 380.381 -0.772042 -1.35901 0
M  V30 3979 H 381.116 1.12229 -3.04262 0
M  V30 3980 H 380.901 -0.43288 -3.89703 0
M  V30 3981 H 382.391 0.526335 -4.1427 0
M  V30 3982 N 382.828 1.3818 -0.7579 0
M  V30 3983 C 384.239 1.82726 -0.383134 0
M  V30 3984 C 384.59 1.63214 1.08884 0
M  V30 3985 O 383.715 1.13566 1.84205 0
M  V30 3986 C 384.31 3.31728 -0.688631 0
M  V30 3987 C 382.869 3.74606 -0.367091 0
M  V30 3988 C 382.016 2.60896 -0.939599 0
M  V30 3989 H 384.967 1.26847 -0.953699 0
M  V30 3990 H 384.988 3.80487 0.0316492 0
M  V30 3991 H 384.5 3.45898 -1.76001 0
M  V30 3992 H 382.601 3.66013 0.697532 0
M  V30 3993 H 382.714 4.71215 -0.865658 0
M  V30 3994 H 381.078 2.52075 -0.3647 0
M  V30 3995 H 381.861 2.77864 -2.0161 0
M  V30 3996 N 384.306 0.507319 1.49211 0
M  V30 3997 C 385.216 -0.272136 2.33016 0
M  V30 3998 C 386.232 -0.961206 1.45041 0
M  V30 3999 O 387.408 -0.941191 1.78055 0
M  V30 4000 C 384.473 -1.31895 3.20631 0
M  V30 4001 C 383.534 -0.642648 4.24463 0
M  V30 4002 C 382.767 -1.63959 5.07891 0
M  V30 4003 O 382.99 -2.87007 4.92933 0
M  V30 4004 O 381.924 -1.19143 5.8999 0
M  V30 4005 H 385.75 0.413982 3.00865 0
M  V30 4006 H 383.335 0.268556 1.46966 0
M  V30 4007 H 385.217 -1.92446 3.7489 0
M  V30 4008 H 383.892 -1.98788 2.5547 0
M  V30 4009 H 382.799 0.00276252 3.741 0
M  V30 4010 H 384.132 -0.0160534 4.92197 0
M  V30 4011 N 385.784 -1.5574 0.241426 0
M  V30 4012 C 386.732 -2.22538 -0.676718 0
M  V30 4013 C 387.726 -1.21117 -1.18436 0
M  V30 4014 O 388.932 -1.39144 -1.14188 0
M  V30 4015 H 385.307 -0.713776 -0.236701 0
M  V30 4016 H 387.278 -2.98264 -0.0901187 0
M  V30 4017 C 386.027 -2.93439 -1.86518 0
M  V30 4018 H 385.35 -3.7125 -1.4837 0
M  V30 4019 H 386.79 -3.43549 -2.48495 0
M  V30 4020 C 385.249 -1.97008 -2.73294 0
M  V30 4021 O 385.779 -1.49965 -3.72657 0
M  V30 4022 N 383.985 -1.64227 -2.39745 0
M  V30 4023 H 383.532 -2.02677 -1.58996 0
M  V30 4024 H 383.49 -0.999708 -2.98083 0
M  V30 4025 N 387.262 0.0317525 -1.57568 0
M  V30 4026 C 388.508 0.724175 -1.8943 0
M  V30 4027 C 388.841 1.75149 -0.838836 0
M  V30 4028 O 388.116 1.93948 0.146422 0
M  V30 4029 C 388.399 1.39615 -3.31933 0
M  V30 4030 C 388.252 0.382537 -4.4817 0
M  V30 4031 C 389.571 2.33084 -3.73309 0
M  V30 4032 H 386.69 0.261797 -0.688935 0
M  V30 4033 H 389.332 -0.013017 -1.89996 0
M  V30 4034 H 387.482 2.02451 -3.31581 0
M  V30 4035 H 389.154 -0.243689 -4.60656 0
M  V30 4036 H 387.397 -0.29844 -4.32772 0
M  V30 4037 H 388.068 0.891145 -5.44759 0
M  V30 4038 H 390.544 1.80295 -3.7501 0
M  V30 4039 H 389.42 2.77084 -4.73831 0
M  V30 4040 H 389.681 3.19643 -3.05419 0
M  V30 4041 N 388.74 1.54641 0.303973 0
M  V30 4042 C 389.703 1.84646 1.35789 0
M  V30 4043 C 390.703 0.7192 1.4382 0
M  V30 4044 O 391.893 0.987491 1.43507 0
M  V30 4045 C 389.025 2.02407 2.74307 0
M  V30 4046 H 390.218 2.78829 1.10429 0
M  V30 4047 H 387.771 1.46658 0.540487 0
M  V30 4048 H 388.506 1.10502 3.04893 0
M  V30 4049 H 388.291 2.84453 2.69868 0
M  V30 4050 H 389.781 2.27002 3.50514 0
M  V30 4051 N 390.218 -0.567019 1.47046 0
M  V30 4052 C 391.495 -1.3276 1.43646 0
M  V30 4053 C 391.875 -2.1071 0.128186 0
M  V30 4054 O 391.223 -2.10441 -0.890326 0
M  V30 4055 C 391.433 -2.2404 2.67595 0
M  V30 4056 C 392.781 -2.85372 3.14401 0
M  V30 4057 O 393.805 -2.34346 2.68254 0
M  V30 4058 O 392.664 -3.78091 3.946 0
M  V30 4059 H 389.758 -0.597293 0.571988 0
M  V30 4060 H 392.304 -0.586735 1.59234 0
M  V30 4061 H 391.076 -1.65975 3.54356 0
M  V30 4062 H 390.699 -3.05439 2.54544 0
M  V30 4063 N 391.696 -1.35014 -0.812953 0
M  V30 4064 C 392.659 -1.27292 -1.90602 0
M  V30 4065 C 393.659 -0.185817 -1.59723 0
M  V30 4066 O 394.849 -0.439102 -1.68575 0
M  V30 4067 C 391.981 -0.967676 -3.26877 0
M  V30 4068 H 393.174 -2.24479 -1.9887 0
M  V30 4069 H 390.727 -1.19446 -1.00808 0
M  V30 4070 H 391.462 0.0005954 -3.243 0
M  V30 4071 H 391.247 -1.75412 -3.50675 0
M  V30 4072 H 392.737 -0.939085 -4.06904 0
M  V30 4073 N 393.175 1.03435 -1.18907 0
M  V30 4074 C 394.4 1.80919 -1.01406 0
M  V30 4075 C 394.825 1.83055 0.432721 0
M  V30 4076 O 394.183 1.25252 1.31079 0
M  V30 4077 C 394.231 3.24091 -1.58105 0
M  V30 4078 O 393.335 4.04434 -0.806669 0
M  V30 4079 H 392.676 0.558709 -0.358803 0
M  V30 4080 H 395.206 1.30223 -1.57807 0
M  V30 4081 H 395.216 3.74853 -1.61087 0
M  V30 4082 H 393.891 3.21851 -2.6341 0
M  V30 4083 H 392.468 3.63091 -0.849666 0
M  V30 4084 N 394.653 0.992116 1.22453 0
M  V30 4085 C 395.583 0.561677 2.26644 0
M  V30 4086 C 396.564 -0.411055 1.65059 0
M  V30 4087 O 397.749 -0.301861 1.9184 0
M  V30 4088 C 394.879 -0.125247 3.47074 0
M  V30 4089 C 393.833 0.765948 4.21091 0
M  V30 4090 C 393.159 -0.0538484 5.34673 0
M  V30 4091 C 394.459 2.06242 4.79856 0
M  V30 4092 H 396.153 1.43259 2.62902 0
M  V30 4093 H 393.699 0.690283 1.26377 0
M  V30 4094 H 395.652 -0.437764 4.1912 0
M  V30 4095 H 394.376 -1.03069 3.0991 0
M  V30 4096 H 393.035 1.0621 3.50878 0
M  V30 4097 H 392.683 -0.960188 4.9375 0
M  V30 4098 H 392.383 0.539415 5.85119 0
M  V30 4099 H 393.907 -0.360477 6.09535 0
M  V30 4100 H 395.321 1.8139 5.43848 0
M  V30 4101 H 393.718 2.60444 5.40638 0
M  V30 4102 H 394.788 2.74167 3.99951 0
M  V30 4103 N 396.131 -1.37776 0.765217 0
M  V30 4104 C 397.078 -2.30342 0.145274 0
M  V30 4105 C 398.048 -1.5077 -0.696971 0
M  V30 4106 O 399.233 -1.79362 -0.650689 0
M  V30 4107 C 396.373 -3.37227 -0.732939 0
M  V30 4108 C 395.486 -4.31819 0.125199 0
M  V30 4109 C 394.621 -5.25777 -0.757107 0
M  V30 4110 C 393.66 -6.12012 0.103963 0
M  V30 4111 N 392.797 -6.98232 -0.735953 0
M  V30 4112 H 397.637 -2.8278 0.940195 0
M  V30 4113 H 395.174 -1.39211 0.475255 0
M  V30 4114 H 397.132 -3.97818 -1.25686 0
M  V30 4115 H 395.762 -2.86171 -1.49353 0
M  V30 4116 H 394.814 -3.7259 0.766865 0
M  V30 4117 H 396.126 -4.92509 0.789683 0
M  V30 4118 H 395.28 -5.91541 -1.34776 0
M  V30 4119 H 394.019 -4.65481 -1.45529 0
M  V30 4120 H 393.024 -5.45233 0.707197 0
M  V30 4121 H 394.249 -6.74379 0.799381 0
M  V30 4122 H 392.195 -6.40472 -1.41887 0
M  V30 4123 H 392.112 -7.55891 -0.128624 0
M  V30 4124 H 393.38 -7.68393 -1.31121 0
M  V30 4125 N 397.609 -0.515225 -1.4894 0
M  V30 4126 C 398.541 0.292481 -2.27326 0
M  V30 4127 C 399.554 0.917838 -1.3446 0
M  V30 4128 O 400.743 0.798772 -1.5963 0
M  V30 4129 C 397.843 1.42803 -3.07344 0
M  V30 4130 C 397.016 0.907347 -4.27885 0
M  V30 4131 C 396.075 1.92222 -4.89834 0
M  V30 4132 O 395.101 1.48506 -5.49486 0
M  V30 4133 N 396.303 3.25355 -4.80754 0
M  V30 4134 H 399.068 -0.379721 -2.97285 0
M  V30 4135 H 396.629 -0.348638 -1.58102 0
M  V30 4136 H 398.621 2.10481 -3.45658 0
M  V30 4137 H 397.191 2.00414 -2.39902 0
M  V30 4138 H 396.411 0.0550218 -3.94162 0
M  V30 4139 H 397.699 0.538108 -5.05946 0
M  V30 4140 H 397.097 3.6355 -4.33414 0
M  V30 4141 H 395.654 3.88707 -5.23211 0
M  V30 4142 N 399.087 1.5561 -0.249682 0
M  V30 4143 C 400.335 1.98618 0.373548 0
M  V30 4144 C 400.656 1.13919 1.58264 0
M  V30 4145 O 399.926 0.222637 1.94631 0
M  V30 4146 H 398.506 0.733571 0.141006 0
M  V30 4147 H 401.168 1.91748 -0.349117 0
M  V30 4148 H 400.264 3.04584 0.680796 0
M  V30 4149 N 400.565 -0.0233959 1.57583 0
M  V30 4150 C 401.814 -0.712133 1.8871 0
M  V30 4151 C 402.127 -1.76217 0.848944 0
M  V30 4152 O 403.333 -2.50389 1.04964 0
M  V30 4153 C 401.789 -1.3177 3.3491 0
M  V30 4154 C 401.397 -0.303715 4.46969 0
M  V30 4155 C 403.141 -1.98598 3.75179 0
M  V30 4156 C 401.048 -0.917945 5.84233 0
M  V30 4157 H 399.978 -0.269735 0.704101 0
M  V30 4158 H 402.629 0.0333114 1.8347 0
M  V30 4159 H 401.011 -2.11304 3.34913 0
M  V30 4160 H 402.185 0.465325 4.58445 0
M  V30 4161 H 400.5 0.2628 4.1557 0
M  V30 4162 H 403.097 -2.45416 4.75053 0
M  V30 4163 H 403.44 -2.80659 3.07468 0
M  V30 4164 H 403.973 -1.25831 3.77374 0
M  V30 4165 H 400.712 -0.136633 6.55358 0
M  V30 4166 H 400.232 -1.65669 5.76467 0
M  V30 4167 H 401.911 -1.4236 6.31144 0
M  V30 4168 N 402.043 -1.548 -0.295768 0
M  V30 4169 C 403.006 -1.85363 -1.34808 0
M  V30 4170 C 404.006 -0.726817 -1.43436 0
M  V30 4171 O 405.196 -0.995088 -1.42981 0
M  V30 4172 C 402.328 -2.03859 -2.73229 0
M  V30 4173 H 403.521 -2.7941 -1.08949 0
M  V30 4174 H 401.074 -1.46942 -0.532702 0
M  V30 4175 H 401.809 -1.12117 -3.04303 0
M  V30 4176 H 401.594 -2.8588 -2.68356 0
M  V30 4177 H 403.084 -2.28857 -3.49305 0
M  V30 4178 N 403.521 0.559213 -1.47345 0
M  V30 4179 C 404.451 1.67622 -1.62558 0
M  V30 4180 C 405.432 1.63331 -0.475087 0
M  V30 4181 O 406.617 1.80983 -0.704182 0
M  V30 4182 C 403.747 3.0626 -1.63774 0
M  V30 4183 C 402.701 3.25397 -2.7803 0
M  V30 4184 C 402.027 4.64801 -2.64318 0
M  V30 4185 C 403.327 3.10965 -4.19641 0
M  V30 4186 H 405.021 1.55146 -2.56067 0
M  V30 4187 H 402.567 0.744961 -1.23233 0
M  V30 4188 H 404.52 3.84247 -1.73008 0
M  V30 4189 H 403.244 3.1969 -0.66825 0
M  V30 4190 H 401.903 2.49817 -2.68304 0
M  V30 4191 H 401.551 4.75028 -1.65401 0
M  V30 4192 H 401.251 4.78555 -3.40968 0
M  V30 4193 H 402.775 5.44926 -2.75478 0
M  V30 4194 H 404.189 3.78772 -4.30354 0
M  V30 4195 H 402.586 3.36229 -4.97062 0
M  V30 4196 H 403.656 2.07736 -4.38148 0
M  V30 4197 N 404.999 1.35443 0.805782 0
M  V30 4198 C 405.962 1.28301 1.89925 0
M  V30 4199 C 406.962 0.194285 1.59622 0
M  V30 4200 O 408.152 0.448036 1.6834 0
M  V30 4201 C 405.284 0.984997 3.2636 0
M  V30 4202 H 406.477 2.2553 1.97677 0
M  V30 4203 H 404.03 1.19979 1.00173 0
M  V30 4204 H 404.765 0.016603 3.24296 0
M  V30 4205 H 404.55 1.77269 3.4974 0
M  V30 4206 H 406.04 0.960651 4.064 0
M  V30 4207 N 406.477 -1.02803 1.19454 0
M  V30 4208 C 407.409 -2.11181 0.890807 0
M  V30 4209 C 408.422 -1.6238 -0.116829 0
M  V30 4210 O 409.611 -1.78144 0.112694 0
M  V30 4211 C 406.711 -3.37461 0.311942 0
M  V30 4212 C 405.884 -4.15446 1.36834 0
M  V30 4213 C 404.943 -5.20039 0.802864 0
M  V30 4214 O 403.969 -5.49602 1.48077 0
M  V30 4215 N 405.171 -5.79165 -0.393417 0
M  V30 4216 H 407.936 -2.37827 1.82369 0
M  V30 4217 H 405.497 -1.19101 1.09666 0
M  V30 4218 H 407.489 -4.0462 -0.0802225 0
M  V30 4219 H 406.059 -3.08156 -0.52524 0
M  V30 4220 H 405.279 -3.43423 1.93531 0
M  V30 4221 H 406.567 -4.64335 2.08015 0
M  V30 4222 H 405.965 -5.57466 -0.961658 0
M  V30 4223 H 404.522 -6.47729 -0.727351 0
M  V30 4224 N 407.956 -0.998596 -1.21925 0
M  V30 4225 C 409.181 -0.696015 -1.95372 0
M  V30 4226 C 409.606 0.733826 -1.73195 0
M  V30 4227 O 408.964 1.50242 -1.01474 0
M  V30 4228 C 409.012 -1.01466 -3.4603 0
M  V30 4229 O 408.116 -0.116415 -4.12236 0
M  V30 4230 H 407.457 -0.259938 -0.611006 0
M  V30 4231 H 409.987 -1.33711 -1.54863 0
M  V30 4232 H 409.997 -0.958855 -3.96573 0
M  V30 4233 H 408.672 -2.05653 -3.61497 0
M  V30 4234 H 407.249 -0.228193 -3.72201 0
M  V30 4235 N 409.434 1.37368 -0.772513 0
M  V30 4236 C 410.85 1.53059 -0.452231 0
M  V30 4237 C 411.05 1.73065 1.03203 0
M  V30 4238 O 410.106 1.75245 1.81784 0
M  V30 4239 C 411.419 2.72659 -1.26797 0
M  V30 4240 C 412.967 2.86521 -1.25995 0
M  V30 4241 C 413.442 4.09105 -2.05905 0
M  V30 4242 N 414.933 4.16219 -2.03263 0
M  V30 4243 C 415.668 5.10107 -2.61875 0
M  V30 4244 N 415.164 6.09547 -3.29278 0
M  V30 4245 N 416.957 5.02596 -2.51701 0
M  V30 4246 H 409.108 1.22634 -1.7342 0
M  V30 4247 H 411.371 0.597206 -0.736239 0
M  V30 4248 H 411.077 2.64343 -2.31982 0
M  V30 4249 H 410.951 3.66363 -0.897672 0
M  V30 4250 H 413.338 2.94308 -0.216081 0
M  V30 4251 H 413.419 1.93774 -1.66989 0
M  V30 4252 H 413.063 4.0208 -3.10313 0
M  V30 4253 H 412.993 5.00968 -1.62292 0
M  V30 4254 H 415.484 3.45012 -1.54192 0
M  V30 4255 H 415.797 6.77718 -3.71374 0
M  V30 4256 H 414.142 6.09824 -3.33377 0
M  V30 4257 H 417.333 4.23855 -1.98657 0
M  V30 4258 H 417.506 5.75582 -2.97673 0
M  V30 4259 N 410.912 0.523116 1.48665 0
M  V30 4260 C 412.142 -0.00961724 2.06598 0
M  V30 4261 C 412.55 -1.29333 1.38093 0
M  V30 4262 O 411.893 -1.77846 0.46007 0
M  V30 4263 C 411.955 -0.311135 3.58151 0
M  V30 4264 C 411.619 0.878092 4.48485 0
M  V30 4265 C 412.616 1.77464 4.88674 0
M  V30 4266 C 410.301 1.08315 4.90483 0
M  V30 4267 C 412.295 2.86021 5.69623 0
M  V30 4268 C 409.982 2.17187 5.71203 0
M  V30 4269 C 410.98 3.05873 6.10681 0
M  V30 4270 O 410.668 4.12862 6.89783 0
M  V30 4271 H 410.4 0.0272658 0.67545 0
M  V30 4272 H 412.954 0.726156 1.92136 0
M  V30 4273 H 411.184 -1.10079 3.70701 0
M  V30 4274 H 412.873 -0.785125 3.98234 0
M  V30 4275 H 413.639 1.62813 4.56855 0
M  V30 4276 H 409.518 0.402149 4.59243 0
M  V30 4277 H 413.062 3.55272 6.00356 0
M  V30 4278 H 408.959 2.31824 6.02435 0
M  V30 4279 H 409.727 4.10487 7.08126 0
M  V30 4280 N 412.39 -1.55475 0.257931 0
M  V30 4281 C 413.636 -2.00237 -0.357338 0
M  V30 4282 C 413.991 -1.14313 -1.54759 0
M  V30 4283 O 413.284 -0.201187 -1.90541 0
M  V30 4284 C 413.478 -3.48183 -0.806433 0
M  V30 4285 C 413.307 -4.48422 0.338758 0
M  V30 4286 C 412.077 -4.98651 0.817011 0
M  V30 4287 C 414.275 -5.00827 1.16949 0
M  V30 4288 N 412.257 -5.82658 1.93346 0
M  V30 4289 C 413.628 -5.82113 2.13413 0
M  V30 4290 C 415.683 -4.83104 1.2048 0
M  V30 4291 C 414.386 -6.47566 3.13131 0
M  V30 4292 C 416.412 -5.49343 2.19034 0
M  V30 4293 C 415.774 -6.30427 3.14232 0
M  V30 4294 H 411.873 -0.776034 -0.0964083 0
M  V30 4295 H 414.457 -1.90995 0.37803 0
M  V30 4296 H 412.628 -3.57801 -1.51107 0
M  V30 4297 H 414.36 -3.79802 -1.39758 0
M  V30 4298 H 411.115 -4.71914 0.39925 0
M  V30 4299 H 411.539 -6.29356 2.49478 0
M  V30 4300 H 416.181 -4.20036 0.482634 0
M  V30 4301 H 413.899 -7.09793 3.8629 0
M  V30 4302 H 417.485 -5.37579 2.22485 0
M  V30 4303 H 416.365 -6.80777 3.89246 0
M  V30 4304 N 413.868 0.0150385 -1.57593 0
M  V30 4305 C 415.284 0.370907 -1.5523 0
M  V30 4306 C 415.484 1.75735 -0.985882 0
M  V30 4307 O 414.54 2.44944 -0.613077 0
M  V30 4308 C 415.853 0.259908 -2.99575 0
M  V30 4309 C 417.401 0.335959 -3.11192 0
M  V30 4310 C 417.876 0.254253 -4.57294 0
M  V30 4311 N 419.367 0.312618 -4.62144 0
M  V30 4312 C 420.102 0.272505 -5.72752 0
M  V30 4313 N 419.598 0.183864 -6.92556 0
M  V30 4314 N 421.391 0.323267 -5.6117 0
M  V30 4315 H 413.542 -0.892104 -1.92757 0
M  V30 4316 H 415.805 -0.340563 -0.884715 0
M  V30 4317 H 415.511 -0.693403 -3.44797 0
M  V30 4318 H 415.385 1.048 -3.62349 0
M  V30 4319 H 417.772 1.27971 -2.65909 0
M  V30 4320 H 417.853 -0.481739 -2.51223 0
M  V30 4321 H 417.497 -0.685887 -5.03247 0
M  V30 4322 H 417.427 1.09024 -5.15191 0
M  V30 4323 H 419.918 0.38307 -3.75953 0
M  V30 4324 H 420.231 0.15874 -7.72637 0
M  V30 4325 H 418.576 0.149708 -6.94839 0
M  V30 4326 H 421.767 0.390607 -4.66467 0
M  V30 4327 H 421.94 0.288539 -6.47357 0
M  V30 4328 N 415.346 1.54954 0.287554 0
M  V30 4329 C 416.595 1.74081 1.01877 0
M  V30 4330 C 416.908 0.541135 1.87966 0
M  V30 4331 O 418.114 0.614491 2.64455 0
M  V30 4332 C 416.57 3.08042 1.86113 0
M  V30 4333 C 416.178 4.35531 1.04961 0
M  V30 4334 C 417.922 3.36523 2.58752 0
M  V30 4335 C 415.829 5.60538 1.88551 0
M  V30 4336 H 414.759 0.64884 0.384087 0
M  V30 4337 H 417.41 1.81426 0.275101 0
M  V30 4338 H 415.792 2.94696 2.64519 0
M  V30 4339 H 416.966 4.59751 0.31074 0
M  V30 4340 H 415.281 4.14085 0.43843 0
M  V30 4341 H 417.878 4.27122 3.21668 0
M  V30 4342 H 418.221 2.56 3.28283 0
M  V30 4343 H 418.754 3.50901 1.87386 0
M  V30 4344 H 415.493 6.43767 1.23466 0
M  V30 4345 H 415.013 5.40483 2.60074 0
M  V30 4346 H 416.692 5.98297 2.46273 0
M  V30 4347 N 416.824 -0.551391 1.4764 0
M  V30 4348 C 418.072 -1.30572 1.54258 0
M  V30 4349 C 418.393 -1.93877 0.208963 0
M  V30 4350 O 417.663 -1.80234 -0.767619 0
M  V30 4351 H 416.243 -0.484894 0.568231 0
M  V30 4352 H 418.905 -0.643402 1.83974 0
M  V30 4353 H 418.001 -2.09621 2.31226 0
M  V30 4354 N 418.302 -1.35869 -0.798587 0
M  V30 4355 C 419.527 -1.32883 -1.59238 0
M  V30 4356 C 419.952 0.0894587 -1.87887 0
M  V30 4357 O 419.31 1.05869 -1.47178 0
M  V30 4358 C 419.358 -2.14892 -2.89575 0
M  V30 4359 O 418.462 -1.53512 -3.82763 0
M  V30 4360 H 417.803 -0.455236 -0.48338 0
M  V30 4361 H 420.333 -1.79024 -0.990539 0
M  V30 4362 H 420.343 -2.27139 -3.38928 0
M  V30 4363 H 419.018 -3.17998 -2.68049 0
M  V30 4364 H 417.595 -1.50153 -3.41334 0
M  V30 4365 N 419.78 1.02168 -1.19998 0
M  V30 4366 C 420.713 2.10232 -0.887558 0
M  V30 4367 C 421.691 1.61827 0.158317 0
M  V30 4368 O 422.875 1.88471 0.0330249 0
M  V30 4369 C 420.002 3.37092 -0.32964 0
M  V30 4370 C 419.048 4.0438 -1.3557 0
M  V30 4371 S 419.881 4.48956 -2.91888 0
M  V30 4372 C 421.037 5.79024 -2.37658 0
M  V30 4373 H 421.27 2.36409 -1.80272 0
M  V30 4374 H 418.803 1.15211 -1.0279 0
M  V30 4375 H 420.761 4.10498 -0.0142824 0
M  V30 4376 H 419.422 3.08996 0.563941 0
M  V30 4377 H 418.615 4.95632 -0.9146 0
M  V30 4378 H 418.217 3.37176 -1.61828 0
M  V30 4379 H 420.509 6.53942 -1.77103 0
M  V30 4380 H 421.452 6.27924 -3.27287 0
M  V30 4381 H 421.86 5.35043 -1.79971 0
M  V30 4382 N 421.258 1.00505 1.21394 0
M  V30 4383 C 422.488 0.705584 1.94178 0
M  V30 4384 C 422.896 -0.735846 1.74304 0
M  V30 4385 O 422.239 -1.50954 1.04683 0
M  V30 4386 C 422.301 0.94689 3.46806 0
M  V30 4387 C 421.965 2.37517 3.90429 0
M  V30 4388 C 422.962 3.35539 3.97127 0
M  V30 4389 C 420.647 2.71284 4.22742 0
M  V30 4390 C 422.641 4.65395 4.3553 0
M  V30 4391 C 420.328 4.01356 4.60822 0
M  V30 4392 C 421.326 4.98223 4.67186 0
M  V30 4393 O 421.014 6.25969 5.04399 0
M  V30 4394 H 420.746 0.259216 0.624326 0
M  V30 4395 H 423.3 1.34592 1.55159 0
M  V30 4396 H 421.53 0.249386 3.85895 0
M  V30 4397 H 423.219 0.640804 4.0081 0
M  V30 4398 H 423.985 3.10786 3.7234 0
M  V30 4399 H 419.864 1.96581 4.16985 0
M  V30 4400 H 423.408 5.41002 4.40412 0
M  V30 4401 H 419.305 4.25893 4.85063 0
M  V30 4402 H 420.073 6.30085 5.22431 0
M  V30 4403 N 422.737 -1.36956 0.779787 0
M  V30 4404 C 423.669 -2.28833 0.129639 0
M  V30 4405 C 424.682 -1.4902 -0.655511 0
M  V30 4406 O 425.871 -1.71578 -0.492279 0
M  V30 4407 C 422.971 -3.2833 -0.839792 0
M  V30 4408 C 422.144 -4.3727 -0.10675 0
M  V30 4409 C 421.203 -5.16789 -0.990717 0
M  V30 4410 O 420.229 -5.67406 -0.451516 0
M  V30 4411 N 421.431 -5.32294 -2.3161 0
M  V30 4412 H 424.196 -2.85268 0.918803 0
M  V30 4413 H 421.757 -1.49019 0.632841 0
M  V30 4414 H 423.749 -3.78413 -1.43477 0
M  V30 4415 H 422.319 -2.72605 -1.52988 0
M  V30 4416 H 421.539 -3.88478 0.669216 0
M  V30 4417 H 422.827 -5.07229 0.399464 0
M  V30 4418 H 422.225 -4.92768 -2.77843 0
M  V30 4419 H 420.782 -5.85656 -2.86095 0
M  V30 4420 N 424.215 -0.530993 -1.48385 0
M  V30 4421 C 425.463 0.00273189 -2.021 0
M  V30 4422 C 425.784 1.34672 -1.41027 0
M  V30 4423 O 425.054 1.8724 -0.576012 0
M  V30 4424 H 423.634 0.00399774 -0.746989 0
M  V30 4425 H 426.296 -0.695054 -1.82085 0
M  V30 4426 H 425.392 0.11031 -3.11905 0
M  V30 4427 N 425.693 1.55336 -0.266172 0
M  V30 4428 C 426.623 2.25146 0.618981 0
M  V30 4429 C 427.604 1.23845 1.16604 0
M  V30 4430 O 428.789 1.52544 1.20183 0
M  V30 4431 C 425.919 2.96572 1.80728 0
M  V30 4432 C 424.873 4.04726 1.39215 0
M  V30 4433 C 424.199 4.63678 2.66283 0
M  V30 4434 C 425.499 5.19407 0.548942 0
M  V30 4435 H 427.193 2.99377 0.0368116 0
M  V30 4436 H 424.739 1.43991 0.0162651 0
M  V30 4437 H 426.692 3.44116 2.43232 0
M  V30 4438 H 425.416 2.19861 2.41514 0
M  V30 4439 H 424.075 3.57979 0.790351 0
M  V30 4440 H 423.723 3.83646 3.25308 0
M  V30 4441 H 423.423 5.367 2.39222 0
M  V30 4442 H 424.947 5.13967 3.29651 0
M  V30 4443 H 426.361 5.63059 1.07876 0
M  V30 4444 H 424.758 5.98936 0.373593 0
M  V30 4445 H 425.828 4.8295 -0.434394 0
M  V30 4446 N 427.171 -0.0066808 1.57599 0
M  V30 4447 C 428.419 -0.691552 1.899 0
M  V30 4448 C 428.74 -1.74682 0.866672 0
M  V30 4449 O 428.01 -1.95661 -0.0968189 0
M  V30 4450 H 426.59 -0.258416 0.700878 0
M  V30 4451 H 429.252 0.0326655 1.94873 0
M  V30 4452 H 428.348 -1.16702 2.8946 0
M  V30 4453 N 428.649 -1.55105 -0.279332 0
M  V30 4454 C 429.895 -1.76597 -1.00921 0
M  V30 4455 C 430.25 -0.556831 -1.84166 0
M  V30 4456 O 429.543 0.450573 -1.86227 0
M  V30 4457 C 429.737 -3.0086 -1.92919 0
M  V30 4458 C 429.566 -4.33744 -1.18728 0
M  V30 4459 C 428.336 -4.9712 -0.905545 0
M  V30 4460 C 430.534 -5.11009 -0.580857 0
M  V30 4461 N 428.516 -6.13749 -0.136169 0
M  V30 4462 C 429.887 -6.19976 0.0546661 0
M  V30 4463 C 431.942 -4.95502 -0.488067 0
M  V30 4464 C 430.645 -7.15123 0.774028 0
M  V30 4465 C 432.671 -5.90999 0.217688 0
M  V30 4466 C 432.033 -6.9935 0.841975 0
M  V30 4467 H 428.132 -0.698553 -0.351493 0
M  V30 4468 H 430.716 -1.92595 -0.285531 0
M  V30 4469 H 428.887 -2.86249 -2.62519 0
M  V30 4470 H 430.619 -3.10784 -2.59221 0
M  V30 4471 H 427.374 -4.57903 -1.20921 0
M  V30 4472 H 427.798 -6.7659 0.235665 0
M  V30 4473 H 432.44 -4.11841 -0.956406 0
M  V30 4474 H 430.158 -7.9831 1.25407 0
M  V30 4475 H 433.744 -5.81078 0.289717 0
M  V30 4476 H 432.624 -7.71973 1.37939 0
M  V30 4477 N 430.127 0.543554 -1.4793 0
M  V30 4478 C 431.037 1.67657 -1.64098 0
M  V30 4479 C 432.053 1.65934 -0.523622 0
M  V30 4480 O 433.229 1.85133 -0.792943 0
M  V30 4481 C 430.294 3.04146 -1.66421 0
M  V30 4482 C 429.355 3.16831 -2.89684 0
M  V30 4483 C 428.588 4.46809 -2.91886 0
M  V30 4484 O 428.811 5.33095 -2.02895 0
M  V30 4485 O 427.745 4.63573 -3.83906 0
M  V30 4486 H 431.571 1.56957 -2.59997 0
M  V30 4487 H 429.156 0.715116 -1.31173 0
M  V30 4488 H 431.038 3.85346 -1.70548 0
M  V30 4489 H 429.713 3.152 -0.736923 0
M  V30 4490 H 428.62 2.34977 -2.91095 0
M  V30 4491 H 429.953 3.10687 -3.81752 0
M  V30 4492 N 431.605 1.3629 0.791371 0
M  V30 4493 C 432.538 1.24816 1.9104 0
M  V30 4494 C 433.516 0.132739 1.62057 0
M  V30 4495 O 434.7 0.303527 1.8604 0
M  V30 4496 C 431.827 0.925355 3.25814 0
M  V30 4497 C 430.873 2.05495 3.7373 0
M  V30 4498 S 431.706 3.67255 3.89723 0
M  V30 4499 C 432.862 3.37084 5.27376 0
M  V30 4500 H 433.095 2.19533 2.00481 0
M  V30 4501 H 430.628 1.21684 0.950393 0
M  V30 4502 H 432.586 0.745924 4.03666 0
M  V30 4503 H 431.247 -0.00400098 3.141 0
M  V30 4504 H 430.44 1.7836 4.71385 0
M  V30 4505 H 430.042 2.1935 3.02922 0
M  V30 4506 H 432.334 2.90856 6.1189 0
M  V30 4507 H 433.277 4.33995 5.59512 0
M  V30 4508 H 433.685 2.7248 4.94383 0
M  V30 4509 N 433.083 -1.0153 1.20538 0
M  V30 4510 C 434.013 -2.11972 0.979295 0
M  V30 4511 C 434.994 -1.6985 -0.0921787 0
M  V30 4512 O 436.179 -1.94089 0.0655932 0
M  V30 4513 C 433.309 -3.43201 0.531984 0
M  V30 4514 C 432.263 -3.9907 1.54685 0
M  V30 4515 C 431.589 -5.26082 0.956127 0
M  V30 4516 C 432.889 -4.32313 2.93092 0
M  V30 4517 H 434.583 -2.31143 1.90298 0
M  V30 4518 H 432.129 -1.11079 0.916372 0
M  V30 4519 H 434.082 -4.1985 0.361044 0
M  V30 4520 H 432.806 -3.23792 -0.427327 0
M  V30 4521 H 431.465 -3.2453 1.70517 0
M  V30 4522 H 431.113 -5.02999 -0.0111538 0
M  V30 4523 H 430.813 -5.64426 1.63393 0
M  V30 4524 H 432.337 -6.05386 0.796284 0
M  V30 4525 H 433.751 -4.99845 2.80763 0
M  V30 4526 H 432.148 -4.81774 3.57791 0
M  V30 4527 H 433.218 -3.41025 3.44717 0
M  V30 4528 N 434.561 -1.01147 -1.20859 0
M  V30 4529 C 435.509 -0.57059 -2.25493 0
M  V30 4530 C 436.503 0.388109 -1.64894 0
M  V30 4531 O 437.709 0.258592 -1.78133 0
M  V30 4532 H 434.084 -0.166191 -0.733406 0
M  V30 4533 H 436.055 -1.46411 -2.60012 0
M  V30 4534 C 434.804 0.0805241 -3.47607 0
M  V30 4535 H 434.127 -0.648156 -3.94511 0
M  V30 4536 H 435.567 0.352197 -4.22535 0
M  V30 4537 C 434.026 1.32175 -3.09889 0
M  V30 4538 O 434.556 2.41553 -3.20959 0
M  V30 4539 N 432.762 1.20392 -2.64488 0
M  V30 4540 H 432.309 0.313905 -2.5568 0
M  V30 4541 H 432.267 2.03541 -2.39621 0
M  V30 4542 N 436.039 1.36541 -0.78704 0
M  V30 4543 C 437.285 2.00044 -0.367938 0
M  V30 4544 C 437.64 1.61345 1.04812 0
M  V30 4545 O 436.933 0.856936 1.71368 0
M  V30 4546 C 437.127 3.54343 -0.466485 0
M  V30 4547 C 436.956 4.08029 -1.89058 0
M  V30 4548 C 435.726 4.38284 -2.51466 0
M  V30 4549 C 437.924 4.27954 -2.85236 0
M  V30 4550 N 435.906 4.77778 -3.85488 0
M  V30 4551 C 437.277 4.70227 -4.04088 0
M  V30 4552 C 439.332 4.10119 -2.82324 0
M  V30 4553 C 438.035 4.96532 -5.20432 0
M  V30 4554 C 440.061 4.37569 -3.97854 0
M  V30 4555 C 439.423 4.80095 -5.15449 0
M  V30 4556 H 435.522 0.760525 -0.182004 0
M  V30 4557 H 438.106 1.65589 -1.02413 0
M  V30 4558 H 436.277 3.88072 0.159606 0
M  V30 4559 H 438.009 4.04693 -0.0238577 0
M  V30 4560 H 434.764 4.27905 -2.02965 0
M  V30 4561 H 435.188 5.01813 -4.54437 0
M  V30 4562 H 439.83 3.76399 -1.92571 0
M  V30 4563 H 437.548 5.29134 -6.10773 0
M  V30 4564 H 441.134 4.25341 -3.96958 0
M  V30 4565 H 440.014 5.00925 -6.0336 0
M  V30 4566 N 437.518 0.538854 1.48102 0
M  V30 4567 C 438.929 0.100679 1.86428 0
M  V30 4568 C 439.28 -1.32447 1.44749 0
M  V30 4569 O 438.405 -1.99339 0.842199 0
M  V30 4570 C 439 0.175933 3.38343 0
M  V30 4571 C 437.559 -0.207098 3.7583 0
M  V30 4572 C 436.706 0.531741 2.72154 0
M  V30 4573 H 439.657 0.749614 1.3988 0
M  V30 4574 H 439.678 -0.610144 3.75576 0
M  V30 4575 H 439.19 1.21328 3.68648 0
M  V30 4576 H 437.291 -1.24626 3.5114 0
M  V30 4577 H 437.404 0.138687 4.78899 0
M  V30 4578 H 435.768 -0.0230462 2.5469 0
M  V30 4579 H 436.551 1.56989 3.05302 0
M  V30 4580 N 438.996 -1.55193 0.274407 0
M  V30 4581 C 440.242 -1.99877 -0.343086 0
M  V30 4582 C 440.575 -1.16256 -1.55558 0
M  V30 4583 O 439.85 -0.232462 -1.93106 0
M  V30 4584 C 440.133 -3.52706 -0.725965 0
M  V30 4585 C 439.986 -4.47081 0.493818 0
M  V30 4586 C 441.305 -4.11422 -1.56268 0
M  V30 4587 H 438.424 -0.726625 -0.123229 0
M  V30 4588 H 441.066 -1.86136 0.38121 0
M  V30 4589 H 439.216 -3.64546 -1.34307 0
M  V30 4590 H 440.888 -4.47186 1.13237 0
M  V30 4591 H 439.131 -4.1877 1.13201 0
M  V30 4592 H 439.802 -5.51699 0.18217 0
M  V30 4593 H 442.278 -4.02855 -1.04151 0
M  V30 4594 H 441.154 -5.18568 -1.79939 0
M  V30 4595 H 441.415 -3.61607 -2.54348 0
M  V30 4596 N 440.474 -0.00167713 -1.576 0
M  V30 4597 C 441.384 1.00548 -2.1196 0
M  V30 4598 C 442.4 1.3758 -1.06526 0
M  V30 4599 O 443.576 1.46278 -1.38436 0
M  V30 4600 C 440.641 2.27809 -2.6135 0
M  V30 4601 C 439.702 1.97074 -3.81393 0
M  V30 4602 C 438.935 3.18267 -4.28417 0
M  V30 4603 O 439.158 4.30009 -3.74765 0
M  V30 4604 O 438.092 3.02167 -5.20556 0
M  V30 4605 H 441.918 0.573373 -2.98238 0
M  V30 4606 H 439.503 0.217255 -1.47812 0
M  V30 4607 H 441.385 3.02568 -2.93309 0
M  V30 4608 H 440.06 2.70254 -1.78169 0
M  V30 4609 H 438.967 1.19785 -3.54404 0
M  V30 4610 H 440.3 1.59464 -4.65652 0
M  V30 4611 N 441.952 1.55251 0.271103 0
M  V30 4612 C 442.915 1.87484 1.31842 0
M  V30 4613 C 443.915 0.749545 1.42262 0
M  V30 4614 O 445.105 1.01771 1.4138 0
M  V30 4615 C 442.237 2.0818 2.69951 0
M  V30 4616 H 443.43 2.81108 1.0449 0
M  V30 4617 H 440.983 1.47771 0.509258 0
M  V30 4618 H 441.718 1.16944 3.02481 0
M  V30 4619 H 441.503 2.90114 2.63774 0
M  V30 4620 H 442.993 2.34385 3.4562 0
M  V30 4621 N 443.43 -0.535701 1.48216 0
M  V30 4622 C 444.378 -1.66179 1.62749 0
M  V30 4623 C 445.372 -1.62034 0.49409 0
M  V30 4624 O 446.578 -1.6696 0.672624 0
M  V30 4625 H 442.953 -0.550244 0.512578 0
M  V30 4626 H 444.924 -1.51063 2.57337 0
M  V30 4627 C 443.673 -3.04471 1.67907 0
M  V30 4628 H 442.996 -3.08351 2.54479 0
M  V30 4629 H 444.436 -3.82894 1.82121 0
M  V30 4630 C 442.895 -3.34314 0.416596 0
M  V30 4631 O 443.425 -3.98905 -0.473014 0
M  V30 4632 N 441.631 -2.89149 0.290038 0
M  V30 4633 H 441.178 -2.36764 1.01493 0
M  V30 4634 H 441.136 -3.09486 -0.55367 0
M  V30 4635 N 444.908 -1.36708 -0.784132 0
M  V30 4636 C 446.136 -1.34398 -1.57305 0
M  V30 4637 C 446.551 0.0735577 -1.88657 0
M  V30 4638 O 445.908 1.03193 -1.50524 0
M  V30 4639 C 445.959 -2.17053 -2.89085 0
M  V30 4640 O 445.68 -3.53281 -2.59083 0
M  V30 4641 C 447.181 -2.22583 -3.83369 0
M  V30 4642 H 444.401 -0.460819 -0.487736 0
M  V30 4643 H 446.945 -1.79879 -0.972819 0
M  V30 4644 H 445.1 -1.75113 -3.45564 0
M  V30 4645 H 445.514 -3.9647 -3.43383 0
M  V30 4646 H 446.988 -2.84763 -4.72878 0
M  V30 4647 H 447.465 -1.23075 -4.21603 0
M  V30 4648 H 448.071 -2.64781 -3.32823 0
M  V30 4649 N 446.386 1.0089 -1.21074 0
M  V30 4650 C 447.632 1.74866 -1.02712 0
M  V30 4651 C 447.965 1.89178 0.438787 0
M  V30 4652 O 447.24 1.42325 1.32567 0
M  V30 4653 C 447.523 3.16347 -1.72036 0
M  V30 4654 C 447.376 3.09782 -3.26121 0
M  V30 4655 C 448.695 4.15187 -1.45973 0
M  V30 4656 H 445.814 0.634736 -0.374539 0
M  V30 4657 H 448.456 1.17646 -1.49196 0
M  V30 4658 H 446.606 3.65201 -1.32517 0
M  V30 4659 H 448.278 2.68673 -3.74983 0
M  V30 4660 H 446.521 2.46982 -3.56626 0
M  V30 4661 H 447.192 4.09829 -3.6979 0
M  V30 4662 H 449.668 3.75022 -1.80272 0
M  V30 4663 H 448.544 5.12331 -1.96999 0
M  V30 4664 H 448.805 4.40386 -0.388924 0
M  V30 4665 N 447.864 1.01787 1.20321 0
M  V30 4666 C 449.11 0.708985 1.90003 0
M  V30 4667 C 449.443 -0.759572 1.78729 0
M  V30 4668 O 448.718 -1.55198 1.17234 0
M  V30 4669 C 449.001 1.1469 3.41348 0
M  V30 4670 C 448.854 2.67586 3.61549 0
M  V30 4671 C 450.173 0.71915 4.34185 0
M  V30 4672 H 447.292 0.259034 0.689978 0
M  V30 4673 H 449.934 1.26584 1.41692 0
M  V30 4674 H 448.084 0.673128 3.82624 0
M  V30 4675 H 449.756 3.22826 3.29517 0
M  V30 4676 H 447.999 3.085 3.04976 0
M  V30 4677 H 448.67 2.93281 4.67643 0
M  V30 4678 H 451.146 1.12647 4.00562 0
M  V30 4679 H 450.022 1.05358 5.38694 0
M  V30 4680 H 450.283 -0.379111 4.40472 0
M  V30 4681 N 449.342 -1.36122 0.79427 0
M  V30 4682 C 450.252 -2.33769 0.197296 0
M  V30 4683 C 451.268 -1.61276 -0.653153 0
M  V30 4684 O 452.444 -1.9323 -0.5678 0
M  V30 4685 C 449.509 -3.40474 -0.654098 0
M  V30 4686 C 448.57 -4.28759 0.215411 0
M  V30 4687 C 447.803 -5.30368 -0.595443 0
M  V30 4688 O 448.026 -5.40211 -1.83107 0
M  V30 4689 O 446.96 -6.019 0.00721351 0
M  V30 4690 H 450.786 -2.86597 1.00478 0
M  V30 4691 H 448.371 -1.38676 0.555818 0
M  V30 4692 H 450.253 -4.05703 -1.13944 0
M  V30 4693 H 448.928 -2.89937 -1.43938 0
M  V30 4694 H 447.835 -3.66554 0.747615 0
M  V30 4695 H 449.168 -4.82661 0.964332 0
M  V30 4696 N 450.82 -0.546701 -1.47814 0
M  V30 4697 C 452.068 -0.0187037 -2.02091 0
M  V30 4698 C 452.389 1.33168 -1.42447 0
M  V30 4699 O 451.659 1.86619 -0.595839 0
M  V30 4700 H 450.239 -0.00392531 -0.74699 0
M  V30 4701 H 452.901 -0.714327 -1.81338 0
M  V30 4702 H 451.997 0.0772219 -3.12004 0
M  V30 4703 N 452.299 1.55045 -0.282633 0
M  V30 4704 C 453.524 2.04628 0.337977 0
M  V30 4705 C 453.949 1.15937 1.48123 0
M  V30 4706 O 453.307 0.159532 1.80597 0
M  V30 4707 C 453.355 3.51854 0.78936 0
M  V30 4708 O 452.459 3.66236 1.89592 0
M  V30 4709 H 451.8 0.660434 0.0687261 0
M  V30 4710 H 454.33 2.00261 -0.419124 0
M  V30 4711 H 454.34 3.93361 1.08311 0
M  V30 4712 H 453.015 4.15873 -0.0470419 0
M  V30 4713 H 451.592 3.36633 1.60413 0
M  V30 4714 N 453.777 0.010035 1.57597 0
M  V30 4715 C 455.054 -0.710296 1.82248 0
M  V30 4716 C 455.434 -1.91426 0.889911 0
M  V30 4717 O 454.782 -2.28424 -0.0590292 0
M  V30 4718 C 454.992 -1.10655 3.30993 0
M  V30 4719 C 456.34 -1.50621 3.96987 0
M  V30 4720 O 457.364 -1.20007 3.35375 0
M  V30 4721 O 456.223 -2.07587 5.05539 0
M  V30 4722 H 453.317 -0.34673 0.750804 0
M  V30 4723 H 455.863 0.0362578 1.69661 0
M  V30 4724 H 454.635 -0.248826 3.90508 0
M  V30 4725 H 454.258 -1.91189 3.48615 0
M  V30 4726 N 455.255 -1.55392 -0.262866 0
M  V30 4727 C 456.48 -1.80847 -1.01533 0
M  V30 4728 C 456.905 -0.584946 -1.78774 0
M  V30 4729 O 456.263 0.465701 -1.75217 0
M  V30 4730 C 456.311 -3.03866 -1.94159 0
M  V30 4731 O 455.415 -2.79662 -3.03089 0
M  V30 4732 H 454.756 -0.597441 -0.289759 0
M  V30 4733 H 457.286 -2.02553 -0.288698 0
M  V30 4734 H 457.296 -3.32872 -2.35924 0
M  V30 4735 H 455.971 -3.92564 -1.37354 0
M  V30 4736 H 454.548 -2.61781 -2.65566 0
M  V30 4737 N 456.733 0.527833 -1.48498 0
M  V30 4738 C 457.68 1.6322 -1.6318 0
M  V30 4739 C 458.65 1.59199 -0.473815 0
M  V30 4740 O 459.835 1.77591 -0.697563 0
M  V30 4741 C 456.975 3.01474 -1.67951 0
M  V30 4742 C 456.088 3.15713 -2.94871 0
M  V30 4743 C 455.223 4.44539 -2.90789 0
M  V30 4744 C 454.262 4.52315 -4.12404 0
M  V30 4745 N 453.399 5.72533 -4.06387 0
M  V30 4746 H 458.239 1.50011 -2.57489 0
M  V30 4747 H 455.776 0.730298 -1.27691 0
M  V30 4748 H 457.734 3.81572 -1.68698 0
M  V30 4749 H 456.364 3.1345 -0.771306 0
M  V30 4750 H 455.416 2.28854 -3.03859 0
M  V30 4751 H 456.728 3.1732 -3.8485 0
M  V30 4752 H 455.882 5.3293 -2.89949 0
M  V30 4753 H 454.621 4.45457 -1.98542 0
M  V30 4754 H 453.626 3.62331 -4.13517 0
M  V30 4755 H 454.851 4.53134 -5.05812 0
M  V30 4756 H 452.797 5.74344 -3.16962 0
M  V30 4757 H 452.714 5.75643 -4.90073 0
M  V30 4758 H 453.982 6.63204 -4.0961 0
M  V30 4759 N 458.211 1.37122 0.776871 0
M  V30 4760 C 459.457 1.32243 1.53752 0
M  V30 4761 C 459.79 -0.0944745 1.9397 0
M  V30 4762 O 459.065 -1.05068 1.6368 0
M  V30 4763 C 459.348 2.25681 2.80607 0
M  V30 4764 C 459.201 3.76127 2.46676 0
M  V30 4765 C 460.52 2.17657 3.82509 0
M  V30 4766 H 457.639 0.481704 0.557791 0
M  V30 4767 H 460.281 1.6778 0.891612 0
M  V30 4768 H 458.431 1.95505 3.35723 0
M  V30 4769 H 460.103 4.16877 1.97513 0
M  V30 4770 H 458.346 3.94946 1.79443 0
M  V30 4771 H 459.017 4.36933 3.37333 0
M  V30 4772 H 461.493 2.44245 3.36873 0
M  V30 4773 H 460.369 2.85185 4.69 0
M  V30 4774 H 460.63 1.16785 4.26396 0
M  V30 4775 N 459.689 -1.00246 1.21608 0
M  V30 4776 C 460.652 -2.07233 0.979133 0
M  V30 4777 C 461.652 -1.6072 -0.0508219 0
M  V30 4778 O 462.842 -1.73196 0.186712 0
M  V30 4779 C 459.974 -3.37546 0.477016 0
M  V30 4780 H 461.167 -2.29687 1.92831 0
M  V30 4781 H 458.72 -1.17261 1.03342 0
M  V30 4782 H 459.455 -3.20773 -0.476966 0
M  V30 4783 H 459.24 -3.72638 1.21997 0
M  V30 4784 H 460.73 -4.16285 0.331181 0
M  V30 4785 N 461.167 -1.02423 -1.1978 0
M  V30 4786 C 462.097 -0.62157 -2.25075 0
M  V30 4787 C 463.078 0.367148 -1.6609 0
M  V30 4788 O 464.263 0.250892 -1.92573 0
M  V30 4789 C 461.393 0.0331826 -3.47284 0
M  V30 4790 C 460.347 -0.877323 -4.18912 0
M  V30 4791 C 459.673 -0.0879296 -5.34628 0
M  V30 4792 C 460.973 -2.18892 -4.74219 0
M  V30 4793 H 462.667 -1.50179 -2.59011 0
M  V30 4794 H 460.213 -0.723547 -1.24502 0
M  V30 4795 H 462.166 0.326488 -4.20133 0
M  V30 4796 H 460.89 0.948164 -3.12534 0
M  V30 4797 H 459.549 -1.15475 -3.47938 0
M  V30 4798 H 459.197 0.828941 -4.96123 0
M  V30 4799 H 458.897 -0.694359 -5.83483 0
M  V30 4800 H 460.421 0.198743 -6.10276 0
M  V30 4801 H 461.835 -1.95746 -5.38847 0
M  V30 4802 H 460.232 -2.74686 -5.33542 0
M  V30 4803 H 461.302 -2.84674 -3.92541 0
M  V30 4804 N 462.645 1.35699 -0.801477 0
M  V30 4805 C 463.608 2.28199 -0.213994 0
M  V30 4806 C 464.608 1.49359 0.595691 0
M  V30 4807 O 465.798 1.69186 0.414921 0
M  V30 4808 C 462.93 3.33587 0.702297 0
M  V30 4809 H 464.123 2.81666 -1.02976 0
M  V30 4810 H 461.676 1.45467 -0.571759 0
M  V30 4811 H 462.411 2.85297 1.54195 0
M  V30 4812 H 462.196 3.91906 0.123484 0
M  V30 4813 H 463.686 4.02638 1.10783 0
M  V30 4814 N 464.123 0.554532 1.47522 0
M  V30 4815 C 465.534 0.120446 1.86311 0
M  V30 4816 C 465.885 -1.30904 1.46145 0
M  V30 4817 O 465.01 -1.98434 0.863294 0
M  V30 4818 C 465.605 0.211808 3.38137 0
M  V30 4819 C 464.164 -0.167224 3.76028 0
M  V30 4820 C 463.311 0.560576 2.71575 0
M  V30 4821 H 466.262 0.764408 1.39077 0
M  V30 4822 H 466.283 -0.570275 3.76202 0
M  V30 4823 H 465.795 1.25232 3.6734 0
M  V30 4824 H 463.896 -1.20894 3.52442 0
M  V30 4825 H 464.009 0.189473 4.78725 0
M  V30 4826 H 462.373 0.00396836 2.547 0
M  V30 4827 H 463.156 1.60219 3.0362 0
M  V30 4828 N 465.601 -1.54893 0.290851 0
M  V30 4829 C 466.531 -2.26103 -0.583084 0
M  V30 4830 C 467.512 -1.25684 -1.14619 0
M  V30 4831 O 468.697 -1.54436 -1.17741 0
M  V30 4832 C 465.827 -2.99409 -1.75987 0
M  V30 4833 C 464.781 -4.0689 -1.32758 0
M  V30 4834 C 464.107 -4.67856 -2.58872 0
M  V30 4835 C 465.407 -5.20215 -0.46624 0
M  V30 4836 H 467.101 -2.99398 0.0108214 0
M  V30 4837 H 464.647 -1.43998 0.00664468 0
M  V30 4838 H 466.6 -3.47943 -2.37727 0
M  V30 4839 H 465.324 -2.23675 -2.37985 0
M  V30 4840 H 463.983 -3.59191 -0.733299 0
M  V30 4841 H 463.631 -3.88772 -3.19163 0
M  V30 4842 H 463.331 -5.40438 -2.30653 0
M  V30 4843 H 464.855 -5.19147 -3.21433 0
M  V30 4844 H 466.269 -5.64704 -0.989047 0
M  V30 4845 H 464.666 -5.99455 -0.27826 0
M  V30 4846 H 465.736 -4.82198 0.511173 0
M  V30 4847 N 467.08 -0.0183926 -1.57589 0
M  V30 4848 C 468.491 0.521927 -1.79256 0
M  V30 4849 C 468.842 1.72885 -0.927636 0
M  V30 4850 O 467.967 2.15978 -0.135091 0
M  V30 4851 C 468.562 0.953632 -3.25102 0
M  V30 4852 C 467.121 1.43913 -3.47801 0
M  V30 4853 C 466.268 0.398837 -2.74417 0
M  V30 4854 H 469.219 -0.244485 -1.56805 0
M  V30 4855 H 469.24 1.81863 -3.34224 0
M  V30 4856 H 468.752 0.0750123 -3.88028 0
M  V30 4857 H 466.853 2.33804 -2.90115 0
M  V30 4858 H 466.966 1.45391 -4.56507 0
M  V30 4859 H 465.33 0.864572 -2.39577 0
M  V30 4860 H 466.113 -0.471132 -3.40052 0
M  V30 4861 N 468.558 1.5553 0.254621 0
M  V30 4862 C 469.804 1.77262 0.985193 0
M  V30 4863 C 470.137 0.582286 1.85265 0
M  V30 4864 O 469.412 -0.419666 1.89919 0
M  V30 4865 C 469.695 3.0881 1.85225 0
M  V30 4866 C 469.548 4.38233 1.0135 0
M  V30 4867 C 470.867 3.3653 2.83612 0
M  V30 4868 H 467.986 0.644906 0.356742 0
M  V30 4869 H 470.628 1.88264 0.256236 0
M  V30 4870 H 468.778 2.99562 2.47376 0
M  V30 4871 H 470.45 4.59463 0.411269 0
M  V30 4872 H 468.693 4.32636 0.317574 0
M  V30 4873 H 469.364 5.26644 1.65379 0
M  V30 4874 H 471.84 3.45691 2.31596 0
M  V30 4875 H 470.716 4.29805 3.41407 0
M  V30 4876 H 470.977 2.57064 3.59681 0
M  V30 4877 N 470.036 -0.519951 1.48776 0
M  V30 4878 C 470.999 -1.60574 1.6355 0
M  V30 4879 C 471.999 -1.52557 0.508234 0
M  V30 4880 O 473.189 -1.56047 0.774262 0
M  V30 4881 C 470.321 -3.00211 1.61512 0
M  V30 4882 H 471.514 -1.4881 2.60376 0
M  V30 4883 H 469.067 -0.742772 1.37523 0
M  V30 4884 H 469.802 -3.17471 0.662009 0
M  V30 4885 H 469.587 -3.07439 2.43359 0
M  V30 4886 H 471.077 -3.79134 1.75064 0
M  V30 4887 N 471.514 -1.37532 -0.769588 0
M  V30 4888 C 472.424 -1.35668 -1.91393 0
M  V30 4889 C 473.44 -0.255954 -1.72107 0
M  V30 4890 O 474.616 -0.491704 -1.95305 0
M  V30 4891 C 471.681 -1.16481 -3.26547 0
M  V30 4892 C 470.742 -2.36212 -3.58472 0
M  V30 4893 C 469.975 -2.17932 -4.87177 0
M  V30 4894 O 470.198 -1.1647 -5.58382 0
M  V30 4895 O 469.132 -3.06167 -5.18214 0
M  V30 4896 H 472.958 -2.32055 -1.95918 0
M  V30 4897 H 470.543 -1.18284 -0.912641 0
M  V30 4898 H 472.425 -1.07778 -4.07384 0
M  V30 4899 H 471.1 -0.231687 -3.2287 0
M  V30 4900 H 470.007 -2.50488 -2.77861 0
M  V30 4901 H 471.34 -3.281 -3.66894 0
M  V30 4902 N 472.992 0.995999 -1.22138 0
M  V30 4903 C 474.238 1.73767 -1.04561 0
M  V30 4904 C 474.571 1.89633 0.418698 0
M  V30 4905 O 473.846 1.43723 1.3105 0
M  V30 4906 C 474.129 3.14505 -1.75382 0
M  V30 4907 C 473.982 3.06306 -3.29388 0
M  V30 4908 C 475.301 4.13615 -1.50369 0
M  V30 4909 H 472.42 0.630728 -0.38125 0
M  V30 4910 H 475.062 1.16057 -1.50435 0
M  V30 4911 H 473.212 3.63775 -1.36383 0
M  V30 4912 H 474.884 2.64681 -3.77812 0
M  V30 4913 H 473.127 2.43186 -3.59226 0
M  V30 4914 H 473.798 4.05884 -3.74116 0
M  V30 4915 H 476.274 3.73089 -1.84239 0
M  V30 4916 H 475.15 5.10212 -2.02421 0
M  V30 4917 H 475.411 4.39949 -0.435611 0
M  V30 4918 N 474.47 1.03057 1.19235 0
M  V30 4919 C 475.418 0.606391 2.24557 0
M  V30 4920 C 476.412 -0.361826 1.65491 0
M  V30 4921 O 477.618 -0.23022 1.78522 0
M  V30 4922 H 473.993 0.177838 0.730669 0
M  V30 4923 H 475.964 1.50529 2.5765 0
M  V30 4924 C 474.713 -0.0252127 3.47691 0
M  V30 4925 H 474.036 0.710838 3.9343 0
M  V30 4926 H 475.476 -0.284931 4.23042 0
M  V30 4927 C 473.935 -1.27229 3.11953 0
M  V30 4928 O 474.465 -2.36416 3.24762 0
M  V30 4929 N 472.671 -1.16169 2.6637 0
M  V30 4930 H 472.218 -0.273189 2.56147 0
M  V30 4931 H 472.176 -1.99703 2.42829 0
M  V30 4932 N 475.948 -1.35272 0.808662 0
M  V30 4933 C 477.359 -1.81179 0.450688 0
M  V30 4934 C 477.71 -1.67143 -1.02751 0
M  V30 4935 O 476.835 -1.20325 -1.79864 0
M  V30 4936 C 477.43 -3.28943 0.811275 0
M  V30 4937 C 475.989 -3.72985 0.505871 0
M  V30 4938 C 475.136 -2.57229 1.03578 0
M  V30 4939 H 478.087 -1.2322 1.00012 0
M  V30 4940 H 478.108 -3.80342 0.109588 0
M  V30 4941 H 477.62 -3.39127 1.88718 0
M  V30 4942 H 475.721 -3.68349 -0.561209 0
M  V30 4943 H 475.834 -4.67677 1.03995 0
M  V30 4944 H 474.198 -2.50548 0.458005 0
M  V30 4945 H 474.981 -2.7019 2.11784 0
M  V30 4946 N 477.426 -0.562348 -1.47226 0
M  V30 4947 C 478.837 -0.130325 -1.86245 0
M  V30 4948 C 479.188 1.30128 -1.46838 0
M  V30 4949 O 478.313 1.97974 -0.873805 0
M  V30 4950 C 478.908 -0.229738 -3.3802 0
M  V30 4951 C 477.467 0.14728 -3.76112 0
M  V30 4952 C 476.614 -0.574971 -2.71274 0
M  V30 4953 H 479.565 -0.771773 -1.3867 0
M  V30 4954 H 479.586 0.550316 -3.76499 0
M  V30 4955 H 479.098 -1.27178 -3.66671 0
M  V30 4956 H 477.199 1.19023 -3.53078 0
M  V30 4957 H 477.312 -0.214858 -4.78618 0
M  V30 4958 H 475.676 -0.0174756 -2.54694 0
M  V30 4959 H 476.459 -1.61827 -3.02766 0
M  V30 4960 N 478.904 1.54736 -0.299062 0
M  V30 4961 C 479.867 2.22127 0.565012 0
M  V30 4962 C 480.867 1.20669 1.06281 0
M  V30 4963 O 482.057 1.45417 0.959145 0
M  V30 4964 C 479.189 2.90611 1.78208 0
M  V30 4965 H 480.382 2.99891 -0.0237448 0
M  V30 4966 H 477.935 1.5622 -0.0498788 0
M  V30 4967 H 478.67 2.16921 2.41072 0
M  V30 4968 H 478.455 3.64984 1.43281 0
M  V30 4969 H 479.945 3.42026 2.396 0
M  V30 4970 N 480.382 0.0267497 1.57577 0
M  V30 4971 C 481.793 -0.512413 1.79531 0
M  V30 4972 C 482.144 -1.72391 0.936791 0
M  V30 4973 O 481.269 -2.15903 0.146543 0
M  V30 4974 C 481.864 -0.936378 3.25603 0
M  V30 4975 C 480.423 -1.42067 3.4856 0
M  V30 4976 C 479.57 -0.384278 2.74624 0
M  V30 4977 H 482.521 0.252797 1.56674 0
M  V30 4978 H 482.542 -1.80088 3.35184 0
M  V30 4979 H 482.054 -0.0544332 3.88062 0
M  V30 4980 H 480.155 -2.32262 2.9135 0
M  V30 4981 H 480.268 -1.42968 4.57271 0
M  V30 4982 H 478.632 -0.851855 2.40032 0
M  V30 4983 H 479.415 0.489159 3.39797 0
M  V30 4984 N 481.861 -1.55662 -0.24637 0
M  V30 4985 C 483.272 -1.67953 -0.81539 0
M  V30 4986 C 483.623 -0.624302 -1.86002 0
M  V30 4987 O 482.748 0.229328 -2.15181 0
M  V30 4988 C 483.343 -3.04484 -1.48576 0
M  V30 4989 C 481.902 -3.18713 -2.00248 0
M  V30 4990 C 481.049 -2.6383 -0.853766 0
M  V30 4991 H 484 -1.58685 -0.0221692 0
M  V30 4992 H 484.021 -2.98959 -2.3538 0
M  V30 4993 H 483.533 -3.81264 -0.725222 0
M  V30 4994 H 481.634 -2.46757 -2.79181 0
M  V30 4995 H 481.747 -4.25628 -2.1995 0
M  V30 4996 H 480.111 -2.21667 -1.25442 0
M  V30 4997 H 480.894 -3.43135 -0.106302 0
M  V30 4998 N 483.339 0.512053 -1.4905 0
M  V30 4999 C 484.585 1.26874 -1.58212 0
M  V30 5000 C 484.918 1.9241 -0.263073 0
M  V30 5001 O 484.193 1.80181 0.732476 0
M  V30 5002 C 484.476 2.34428 -2.73341 0
M  V30 5003 C 484.329 1.73466 -4.15006 0
M  V30 5004 C 485.648 3.36073 -2.84154 0
M  V30 5005 H 482.767 0.459924 -0.575881 0
M  V30 5006 H 485.409 0.568587 -1.81293 0
M  V30 5007 H 483.559 2.94146 -2.53792 0
M  V30 5008 H 485.231 1.17661 -4.46042 0
M  V30 5009 H 483.474 1.03921 -4.21168 0
M  V30 5010 H 484.145 2.51426 -4.91415 0
M  V30 5011 H 486.621 2.86332 -3.01916 0
M  V30 5012 H 485.497 4.08703 -3.66406 0
M  V30 5013 H 485.758 3.97725 -1.93048 0
M  V30 5014 N 484.817 1.37938 0.762283 0
M  V30 5015 C 485.764 1.34467 1.87583 0
M  V30 5016 C 486.734 0.208633 1.64785 0
M  V30 5017 O 487.919 0.399494 1.86571 0
M  V30 5018 C 485.059 1.16692 3.24772 0
M  V30 5019 C 484.172 2.39608 3.59461 0
M  V30 5020 C 483.307 2.14631 4.85908 0
M  V30 5021 C 482.346 3.33364 5.13357 0
M  V30 5022 N 481.483 3.07877 6.30996 0
M  V30 5023 H 486.323 2.29669 1.89885 0
M  V30 5024 H 483.86 1.14116 0.928219 0
M  V30 5025 H 485.818 1.04405 4.03925 0
M  V30 5026 H 484.448 0.251333 3.2182 0
M  V30 5027 H 483.5 2.626 2.75219 0
M  V30 5028 H 484.812 3.28128 3.75678 0
M  V30 5029 H 483.966 1.99429 5.72986 0
M  V30 5030 H 482.705 1.23463 4.71814 0
M  V30 5031 H 481.71 3.49094 4.24751 0
M  V30 5032 H 482.935 4.25395 5.29354 0
M  V30 5033 H 480.881 2.19348 6.18241 0
M  V30 5034 H 480.798 3.89944 6.47673 0
M  V30 5035 H 482.066 2.96313 7.20985 0
M  V30 5036 N 486.295 -0.989507 1.22664 0
M  V30 5037 C 487.258 -2.06183 1.00106 0
M  V30 5038 C 488.258 -1.60765 -0.0337726 0
M  V30 5039 O 489.448 -1.72989 0.205072 0
M  V30 5040 C 486.58 -3.37021 0.51279 0
M  V30 5041 H 487.773 -2.27629 1.95256 0
M  V30 5042 H 485.326 -1.16158 1.0458 0
M  V30 5043 H 486.061 -3.21261 -0.442917 0
M  V30 5044 H 485.846 -3.71323 1.25942 0
M  V30 5045 H 487.336 -4.1591 0.375315 0
M  V30 5046 N 487.773 -1.03688 -1.18687 0
M  V30 5047 C 488.998 -0.757819 -1.93059 0
M  V30 5048 C 489.423 0.678353 -1.75442 0
M  V30 5049 O 488.781 1.46938 -1.06203 0
M  V30 5050 C 488.829 -1.12423 -3.42627 0
M  V30 5051 O 487.933 -0.247505 -4.11657 0
M  V30 5052 H 487.274 -0.279245 -0.602427 0
M  V30 5053 H 489.804 -1.3857 -1.5053 0
M  V30 5054 H 489.814 -1.08454 -3.93322 0
M  V30 5055 H 488.489 -2.17049 -3.54771 0
M  V30 5056 H 487.066 -0.34649 -3.71287 0
M  V30 5057 N 489.251 1.34841 -0.815825 0
M  V30 5058 C 490.497 1.99219 -0.410288 0
M  V30 5059 C 490.852 1.63532 1.01366 0
M  V30 5060 O 490.145 0.893093 1.69512 0
M  V30 5061 C 490.339 3.53273 -0.541541 0
M  V30 5062 C 490.168 4.03927 -1.9767 0
M  V30 5063 C 488.938 4.32852 -2.60706 0
M  V30 5064 C 491.136 4.21808 -2.9425 0
M  V30 5065 N 489.118 4.69494 -3.95536 0
M  V30 5066 C 490.489 4.6155 -4.13971 0
M  V30 5067 C 492.544 4.04038 -2.9096 0
M  V30 5068 C 491.247 4.85381 -5.30847 0
M  V30 5069 C 493.273 4.29031 -4.07046 0
M  V30 5070 C 492.635 4.69054 -5.25517 0
M  V30 5071 H 488.734 0.756494 -0.198094 0
M  V30 5072 H 491.318 1.63379 -1.05902 0
M  V30 5073 H 489.489 3.88323 0.0772544 0
M  V30 5074 H 491.221 4.04551 -0.109694 0
M  V30 5075 H 487.976 4.23503 -2.11995 0
M  V30 5076 H 488.4 4.92061 -4.64979 0
M  V30 5077 H 493.042 3.7223 -2.00512 0
M  V30 5078 H 490.76 5.16059 -6.21859 0
M  V30 5079 H 494.346 4.16826 -4.05891 0
M  V30 5080 H 493.226 4.88014 -6.1385 0
M  V30 5081 N 490.729 0.570148 1.46925 0
M  V30 5082 C 491.975 0.0510284 2.02736 0
M  V30 5083 C 492.308 -1.3006 1.44215 0
M  V30 5084 O 491.583 -1.84932 0.602521 0
M  V30 5085 C 491.866 -0.028215 3.60089 0
M  V30 5086 C 491.719 1.35142 4.29018 0
M  V30 5087 C 493.038 -0.735181 4.33916 0
M  V30 5088 H 490.157 0.0200178 0.736728 0
M  V30 5089 H 492.799 0.73493 1.75211 0
M  V30 5090 H 490.949 -0.610648 3.83671 0
M  V30 5091 H 492.621 1.97806 4.16738 0
M  V30 5092 H 490.864 1.9226 3.88868 0
M  V30 5093 H 491.535 1.24857 5.37694 0
M  V30 5094 H 494.011 -0.240519 4.15404 0
M  V30 5095 H 492.887 -0.759622 5.43618 0
M  V30 5096 H 493.148 -1.79397 4.04066 0
M  V30 5097 N 492.207 -1.54576 0.307264 0
M  V30 5098 C 493.157 -2.20467 -0.581249 0
M  V30 5099 C 494.141 -1.17972 -1.09414 0
M  V30 5100 O 495.333 -1.43667 -1.03387 0
M  V30 5101 C 492.462 -2.95369 -1.74963 0
M  V30 5102 C 491.548 -4.05186 -1.25241 0
M  V30 5103 N 491.939 -5.03577 -0.47364 0
M  V30 5104 C 490.237 -4.18841 -1.53259 0
M  V30 5105 C 490.938 -5.81328 -0.208083 0
M  V30 5106 N 489.914 -5.37834 -0.789651 0
M  V30 5107 H 493.716 -2.93892 0.0212221 0
M  V30 5108 H 491.23 -1.62011 0.112325 0
M  V30 5109 H 493.227 -3.41046 -2.39777 0
M  V30 5110 H 491.887 -2.23461 -2.35574 0
M  V30 5111 H 492.898 -5.17766 -0.117963 0
M  V30 5112 H 489.575 -3.58141 -2.14573 0
M  V30 5113 H 490.965 -6.706 0.417793 0
M  V30 5114 N 493.685 -0.035106 -1.57561 0
M  V30 5115 C 494.632 0.94474 -2.10578 0
M  V30 5116 C 495.602 1.3192 -1.00927 0
M  V30 5117 O 496.787 1.41147 -1.28382 0
M  V30 5118 C 493.927 2.21982 -2.64231 0
M  V30 5119 C 493.04 1.90128 -3.87911 0
M  V30 5120 C 492.175 3.11975 -4.29936 0
M  V30 5121 C 491.214 2.75968 -5.46359 0
M  V30 5122 N 490.351 3.90459 -5.83512 0
M  V30 5123 H 495.191 0.485717 -2.94015 0
M  V30 5124 H 492.728 0.228143 -1.4532 0
M  V30 5125 H 494.686 2.96572 -2.9343 0
M  V30 5126 H 493.316 2.6549 -1.83616 0
M  V30 5127 H 492.368 1.05755 -3.65404 0
M  V30 5128 H 493.68 1.59613 -4.72573 0
M  V30 5129 H 492.834 3.9488 -4.60603 0
M  V30 5130 H 491.573 3.45657 -3.44053 0
M  V30 5131 H 490.578 1.91478 -5.1538 0
M  V30 5132 H 491.803 2.43497 -6.33945 0
M  V30 5133 H 489.749 4.23971 -5.00584 0
M  V30 5134 H 489.666 3.63588 -6.62827 0
M  V30 5135 H 490.934 4.7405 -6.18787 0
M  V30 5136 N 495.163 1.55791 0.238111 0
M  V30 5137 C 496.391 1.82098 0.982233 0
M  V30 5138 C 496.806 0.612025 1.78605 0
M  V30 5139 O 496.163 -0.419381 1.77616 0
M  V30 5140 C 496.214 3.0673 1.91309 0
M  V30 5141 O 495.935 4.2296 1.14179 0
M  V30 5142 C 497.436 3.45903 2.77248 0
M  V30 5143 H 494.656 0.605748 0.288635 0
M  V30 5144 H 497.2 2.02862 0.258341 0
M  V30 5145 H 495.355 2.87991 2.59114 0
M  V30 5146 H 495.769 4.93653 1.7722 0
M  V30 5147 H 497.243 4.36189 3.38295 0
M  V30 5148 H 497.72 2.66891 3.48806 0
M  V30 5149 H 498.326 3.67024 2.14881 0
M  V30 5150 N 496.642 -0.504142 1.49319 0
M  V30 5151 C 497.89 -1.25598 1.58334 0
M  V30 5152 C 498.211 -1.93114 0.270538 0
M  V30 5153 O 497.481 -1.82585 -0.709891 0
M  V30 5154 H 496.061 -0.466571 0.58337 0
M  V30 5155 H 498.723 -0.584547 1.85928 0
M  V30 5156 H 497.819 -2.02159 2.37778 0
M  V30 5157 N 498.12 -1.38341 -0.754957 0
M  V30 5158 C 499.345 -1.37882 -1.5493 0
M  V30 5159 C 499.77 0.0296385 -1.88077 0
M  V30 5160 O 499.128 1.01133 -1.50472 0
M  V30 5161 C 499.176 -2.23996 -2.82592 0
M  V30 5162 O 498.28 -1.65612 -3.77686 0
M  V30 5163 H 497.621 -0.470384 -0.468652 0
M  V30 5164 H 500.151 -1.82084 -0.933082 0
M  V30 5165 H 500.161 -2.37806 -3.3153 0
M  V30 5166 H 498.836 -3.26365 -2.57796 0
M  V30 5167 H 497.413 -1.60936 -3.36384 0
M  V30 5168 N 499.598 0.982988 -1.23187 0
M  V30 5169 C 500.826 1.75921 -1.08901 0
M  V30 5170 C 501.241 1.85341 0.359719 0
M  V30 5171 O 500.598 1.33072 1.24892 0
M  V30 5172 C 500.649 3.18742 -1.70545 0
M  V30 5173 O 500.37 3.09814 -3.09753 0
M  V30 5174 C 501.871 4.1277 -1.61667 0
M  V30 5175 H 499.091 0.552166 -0.381252 0
M  V30 5176 H 501.635 1.23516 -1.62985 0
M  V30 5177 H 499.79 3.68182 -1.20501 0
M  V30 5178 H 500.204 3.99703 -3.39614 0
M  V30 5179 H 501.678 5.10697 -2.09506 0
M  V30 5180 H 502.155 4.3542 -0.575009 0
M  V30 5181 H 502.761 3.69232 -2.11064 0
M  V30 5182 N 501.076 1.04316 1.18135 0
M  V30 5183 C 502.324 0.746542 1.87806 0
M  V30 5184 C 502.645 -0.728082 1.80898 0
M  V30 5185 O 501.915 -1.52554 1.22899 0
M  V30 5186 H 500.495 0.273157 0.695265 0
M  V30 5187 H 503.157 1.32044 1.43354 0
M  V30 5188 H 502.253 1.05362 2.93778 0
M  V30 5189 N 502.554 -1.34406 0.822964 0
M  V30 5190 C 503.802 -1.97892 0.410245 0
M  V30 5191 C 504.123 -1.65567 -1.03017 0
M  V30 5192 O 503.393 -0.94642 -1.71522 0
M  V30 5193 H 501.973 -0.732049 0.148707 0
M  V30 5194 H 504.635 -1.64043 1.05242 0
M  V30 5195 H 503.731 -3.07579 0.529284 0
M  V30 5196 N 504.032 -0.577932 -1.46621 0
M  V30 5197 C 505.279 -0.0616879 -2.02406 0
M  V30 5198 C 505.607 1.29638 -1.44997 0
M  V30 5199 O 504.862 1.86176 -0.60308 0
M  V30 5200 C 505.161 0.0590832 -3.57351 0
M  V30 5201 C 504.827 -1.23077 -4.33777 0
M  V30 5202 C 503.489 -1.58416 -4.54376 0
M  V30 5203 C 505.841 -2.08457 -4.77698 0
M  V30 5204 C 503.169 -2.78943 -5.16147 0
M  V30 5205 C 505.521 -3.28204 -5.408 0
M  V30 5206 C 504.185 -3.63832 -5.59627 0
M  V30 5207 H 503.455 -0.0225732 -0.740656 0
M  V30 5208 H 506.102 -0.753609 -1.76048 0
M  V30 5209 H 504.407 0.834104 -3.82818 0
M  V30 5210 H 506.104 0.474202 -3.98186 0
M  V30 5211 H 502.694 -0.945652 -4.18038 0
M  V30 5212 H 506.878 -1.82459 -4.61544 0
M  V30 5213 H 502.134 -3.06689 -5.28916 0
M  V30 5214 H 506.308 -3.94634 -5.73792 0
M  V30 5215 H 503.935 -4.57315 -6.07262 0
M  V30 5216 N 505.51 1.54411 -0.315457 0
M  V30 5217 C 506.758 2.00023 0.288971 0
M  V30 5218 C 507.079 1.20529 1.5329 0
M  V30 5219 O 506.349 0.304986 1.93511 0
M  V30 5220 H 504.929 0.738891 0.109766 0
M  V30 5221 H 507.591 1.90094 -0.430129 0
M  V30 5222 H 506.687 3.07198 0.550999 0
M  V30 5223 N 506.988 0.0434614 1.5754 0
M  V30 5224 C 508.213 -0.645358 1.97104 0
M  V30 5225 C 508.638 -1.64037 0.920521 0
M  V30 5226 O 507.996 -1.80922 -0.11708 0
M  V30 5227 C 508.044 -1.31547 3.35749 0
M  V30 5228 O 507.148 -2.43103 3.33129 0
M  V30 5229 H 506.489 -0.168403 0.64229 0
M  V30 5230 H 509.019 0.109573 2.04306 0
M  V30 5231 H 509.029 -1.66895 3.72304 0
M  V30 5232 H 507.704 -0.586205 4.11748 0
M  V30 5233 H 506.281 -2.0976 3.0831 0
M  V30 5234 N 508.466 -1.55915 -0.229846 0
M  V30 5235 C 509.696 -1.82352 -0.971152 0
M  V30 5236 C 510.104 -0.619231 -1.7878 0
M  V30 5237 O 509.447 0.421597 -1.78797 0
M  V30 5238 C 509.509 -3.02399 -1.9441 0
M  V30 5239 C 509.173 -4.37739 -1.31277 0
M  V30 5240 C 510.17 -5.15074 -0.706757 0
M  V30 5241 C 507.855 -4.84454 -1.32702 0
M  V30 5242 C 509.849 -6.37281 -0.123413 0
M  V30 5243 C 507.536 -6.06605 -0.739831 0
M  V30 5244 C 508.534 -6.82858 -0.139071 0
M  V30 5245 O 508.222 -8.027 0.439007 0
M  V30 5246 H 507.954 -0.61035 -0.290601 0
M  V30 5247 H 510.508 -2.03839 -0.252746 0
M  V30 5248 H 508.738 -2.76709 -2.70128 0
M  V30 5249 H 510.427 -3.15779 -2.55026 0
M  V30 5250 H 511.193 -4.80093 -0.688131 0
M  V30 5251 H 507.072 -4.25081 -1.78402 0
M  V30 5252 H 510.616 -6.96741 0.346124 0
M  V30 5253 H 506.513 -6.4106 -0.755841 0
M  V30 5254 H 507.281 -8.17824 0.332521 0
M  V30 5255 N 509.944 0.496216 -1.49584 0
M  V30 5256 C 511.19 1.25189 -1.59548 0
M  V30 5257 C 511.523 1.9212 -0.283466 0
M  V30 5258 O 510.798 1.80947 0.713324 0
M  V30 5259 C 511.081 2.31516 -2.75812 0
M  V30 5260 C 510.934 1.69054 -4.16822 0
M  V30 5261 C 512.253 3.3304 -2.87702 0
M  V30 5262 H 509.372 0.45379 -0.580727 0
M  V30 5263 H 512.014 0.549327 -1.81886 0
M  V30 5264 H 510.164 2.91438 -2.56897 0
M  V30 5265 H 511.836 1.12923 -4.47265 0
M  V30 5266 H 510.079 0.994485 -4.22247 0
M  V30 5267 H 510.75 2.462 -4.94054 0
M  V30 5268 H 513.226 2.83114 -3.04936 0
M  V30 5269 H 512.102 4.04794 -3.7072 0
M  V30 5270 H 512.363 3.95655 -1.97255 0
M  V30 5271 N 511.423 1.38739 0.74761 0
M  V30 5272 C 512.386 1.36241 1.84312 0
M  V30 5273 C 513.386 0.261811 1.58654 0
M  V30 5274 O 514.576 0.519031 1.66288 0
M  V30 5275 C 511.708 1.12253 3.21888 0
M  V30 5276 H 512.901 2.33712 1.87933 0
M  V30 5277 H 510.454 1.2412 0.949946 0
M  V30 5278 H 511.189 0.154133 3.23934 0
M  V30 5279 H 510.974 1.91943 3.41907 0
M  V30 5280 H 512.464 1.13215 4.0196 0
M  V30 5281 N 512.901 -0.976442 1.23707 0
M  V30 5282 C 514.148 -1.71827 1.07153 0
M  V30 5283 C 514.476 -1.9053 -0.390982 0
M  V30 5284 O 513.731 -1.45779 -1.30564 0
M  V30 5285 C 514.03 -3.11814 1.74662 0
M  V30 5286 C 513.696 -3.12978 3.24585 0
M  V30 5287 C 512.358 -3.13003 3.6549 0
M  V30 5288 C 514.71 -3.07986 4.20469 0
M  V30 5289 C 512.038 -3.05757 5.00729 0
M  V30 5290 C 514.39 -3.02282 5.55705 0
M  V30 5291 C 513.054 -3.00631 5.95968 0
M  V30 5292 H 512.324 -0.628758 0.392102 0
M  V30 5293 H 514.971 -1.14239 1.53693 0
M  V30 5294 H 513.276 -3.72812 1.20492 0
M  V30 5295 H 514.973 -3.67989 1.59328 0
M  V30 5296 H 511.563 -3.13718 2.92026 0
M  V30 5297 H 515.747 -3.07103 3.89874 0
M  V30 5298 H 511.003 -3.02834 5.31132 0
M  V30 5299 H 515.177 -2.97376 6.29714 0
M  V30 5300 H 512.804 -2.94771 7.00724 0
M  V30 5301 N 514.379 -1.04941 -1.1758 0
M  V30 5302 C 515.628 -0.753124 -1.87112 0
M  V30 5303 C 515.941 0.722507 -1.81767 0
M  V30 5304 O 517.147 1.13265 -2.46746 0
M  V30 5305 C 515.603 -1.29695 -3.35719 0
M  V30 5306 C 515.211 -2.80184 -3.49572 0
M  V30 5307 C 516.955 -1.07759 -4.10595 0
M  V30 5308 C 514.862 -3.2788 -4.92187 0
M  V30 5309 H 513.792 -0.278034 -0.700866 0
M  V30 5310 H 516.443 -1.26637 -1.32798 0
M  V30 5311 H 514.825 -0.711522 -3.89555 0
M  V30 5312 H 515.999 -3.44561 -3.05965 0
M  V30 5313 H 514.314 -3.00632 -2.88113 0
M  V30 5314 H 516.911 -1.40899 -5.15802 0
M  V30 5315 H 517.254 -0.0152302 -4.16297 0
M  V30 5316 H 517.787 -1.62809 -3.62957 0
M  V30 5317 H 514.526 -4.33535 -4.91658 0
M  V30 5318 H 514.046 -2.68245 -5.36475 0
M  V30 5319 H 515.725 -3.22412 -5.60945 0
M  V30 5320 N 515.857 1.33968 -0.830081 0
M  V30 5321 C 517.268 1.80439 -0.479455 0
M  V30 5322 C 517.619 1.68756 1.00079 0
M  V30 5323 O 516.744 1.23171 1.77927 0
M  V30 5324 C 517.339 3.27611 -0.863505 0
M  V30 5325 C 515.898 3.72133 -0.565145 0
M  V30 5326 C 515.045 2.55549 -1.07657 0
M  V30 5327 H 517.996 1.21614 -1.0196 0
M  V30 5328 H 518.017 3.8012 -0.170083 0
M  V30 5329 H 517.529 3.36082 -1.94089 0
M  V30 5330 H 515.63 3.69196 0.502536 0
M  V30 5331 H 515.743 4.65963 -1.11422 0
M  V30 5332 H 514.107 2.49788 -0.497807 0
M  V30 5333 H 514.89 2.66786 -2.16055 0
M  V30 5334 N 517.335 0.585699 1.46312 0
M  V30 5335 C 518.245 -0.148236 2.34131 0
M  V30 5336 C 519.261 -0.882972 1.49932 0
M  V30 5337 O 520.437 -0.845484 1.82794 0
M  V30 5338 C 517.502 -1.14714 3.27172 0
M  V30 5339 C 516.563 -0.416746 4.27272 0
M  V30 5340 C 515.796 -1.36806 5.15868 0
M  V30 5341 O 516.019 -2.60475 5.07454 0
M  V30 5342 O 514.953 -0.877018 5.95476 0
M  V30 5343 H 518.779 0.572882 2.98248 0
M  V30 5344 H 516.364 0.346082 1.45336 0
M  V30 5345 H 518.246 -1.72303 3.84564 0
M  V30 5346 H 516.921 -1.84967 2.65648 0
M  V30 5347 H 515.828 0.201061 3.73559 0
M  V30 5348 H 517.161 0.244872 4.9159 0
M  V30 5349 N 518.813 -1.54241 0.323641 0
M  V30 5350 C 519.76 -2.24339 -0.542277 0
M  V30 5351 C 520.73 -1.23421 -1.11159 0
M  V30 5352 O 521.915 -1.52104 -1.15192 0
M  V30 5353 C 519.055 -3.00479 -1.69725 0
M  V30 5354 C 518.168 -4.16214 -1.15716 0
M  V30 5355 C 517.303 -4.79884 -2.27783 0
M  V30 5356 C 516.342 -5.87722 -1.71023 0
M  V30 5357 N 515.479 -6.45254 -2.76752 0
M  V30 5358 H 520.319 -2.97935 0.0620613 0
M  V30 5359 H 517.856 -1.47039 0.0423993 0
M  V30 5360 H 519.814 -3.42869 -2.3769 0
M  V30 5361 H 518.444 -2.29217 -2.27288 0
M  V30 5362 H 517.496 -3.78605 -0.369063 0
M  V30 5363 H 518.808 -4.93838 -0.701832 0
M  V30 5364 H 517.962 -5.25243 -3.03651 0
M  V30 5365 H 516.701 -4.01641 -2.76652 0
M  V30 5366 H 515.706 -5.41765 -0.936518 0
M  V30 5367 H 516.931 -6.67863 -1.2303 0
M  V30 5368 H 514.877 -5.69884 -3.24912 0
M  V30 5369 H 514.794 -7.18292 -2.35782 0
M  V30 5370 H 516.062 -6.95269 -3.5245 0
M  V30 5371 N 520.291 -0.0518155 -1.57515 0
M  V30 5372 C 521.223 0.951542 -2.08515 0
M  V30 5373 C 522.236 1.27436 -1.01311 0
M  V30 5374 O 523.425 1.23504 -1.28876 0
M  V30 5375 C 520.525 2.27291 -2.5138 0
M  V30 5376 C 519.698 2.13191 -3.81927 0
M  V30 5377 C 518.757 3.28458 -4.11098 0
M  V30 5378 O 517.783 3.04334 -4.81009 0
M  V30 5379 N 518.985 4.52954 -3.63061 0
M  V30 5380 H 521.75 0.516242 -2.9522 0
M  V30 5381 H 519.311 0.13441 -1.61341 0
M  V30 5382 H 521.303 3.03272 -2.67971 0
M  V30 5383 H 519.873 2.62386 -1.69919 0
M  V30 5384 H 519.093 1.21798 -3.74912 0
M  V30 5385 H 520.381 2.00999 -4.67415 0
M  V30 5386 H 519.779 4.75444 -3.06545 0
M  V30 5387 H 518.336 5.26026 -3.84889 0
M  V30 5388 N 521.769 1.56035 0.221574 0
M  V30 5389 C 523.018 1.78245 0.944016 0
M  V30 5390 C 523.331 0.620371 1.85501 0
M  V30 5391 O 524.537 0.726103 2.6161 0
M  V30 5392 C 522.993 3.15659 1.7288 0
M  V30 5393 C 522.601 4.39591 0.863942 0
M  V30 5394 C 524.345 3.47195 2.44246 0
M  V30 5395 C 522.252 5.6803 1.64607 0
M  V30 5396 H 521.182 0.664547 0.356222 0
M  V30 5397 H 523.833 1.8243 0.197904 0
M  V30 5398 H 522.215 3.0565 2.51781 0
M  V30 5399 H 523.389 4.60655 0.115464 0
M  V30 5400 H 521.704 4.15572 0.262407 0
M  V30 5401 H 524.301 4.40381 3.03263 0
M  V30 5402 H 524.644 2.69693 3.1713 0
M  V30 5403 H 525.177 3.58533 1.72334 0
M  V30 5404 H 521.916 6.48425 0.960507 0
M  V30 5405 H 521.436 5.51027 2.36917 0
M  V30 5406 H 523.115 6.08203 2.20675 0
M  V30 5407 N 523.247 -0.488276 1.49845 0
M  V30 5408 C 524.495 -1.23911 1.59657 0
M  V30 5409 C 524.816 -1.92816 0.291005 0
M  V30 5410 O 524.086 -1.83328 -0.690485 0
M  V30 5411 H 522.666 -0.460357 0.588286 0
M  V30 5412 H 525.328 -0.564794 1.86537 0
M  V30 5413 H 524.424 -1.99625 2.39909 0
M  V30 5414 N 524.725 -1.39134 -0.740242 0
M  V30 5415 C 525.974 -1.35384 -1.49512 0
M  V30 5416 C 526.287 0.04919 -1.95538 0
M  V30 5417 O 527.493 0.209257 -2.70692 0
M  V30 5418 C 525.949 -2.37812 -2.70136 0
M  V30 5419 C 525.557 -3.83804 -2.31081 0
M  V30 5420 C 527.301 -2.4313 -3.47977 0
M  V30 5421 C 525.208 -4.77886 -3.48395 0
M  V30 5422 H 524.138 -0.503297 -0.561434 0
M  V30 5423 H 526.789 -1.64754 -0.807974 0
M  V30 5424 H 525.171 -2.01505 -3.40899 0
M  V30 5425 H 526.345 -4.29123 -1.67898 0
M  V30 5426 H 524.66 -3.81732 -1.66343 0
M  V30 5427 H 527.257 -3.10614 -4.35228 0
M  V30 5428 H 527.6 -1.45423 -3.90074 0
M  V30 5429 H 528.133 -2.78304 -2.84239 0
M  V30 5430 H 524.872 -5.76836 -3.11353 0
M  V30 5431 H 524.392 -4.3725 -4.10576 0
M  V30 5432 H 526.071 -4.96538 -4.148 0
M  V30 5433 N 526.204 0.969867 -1.24223 0
M  V30 5434 C 527.45 1.7151 -1.08223 0
M  V30 5435 C 527.783 1.90478 0.37838 0
M  V30 5436 O 527.058 1.4647 1.27971 0
M  V30 5437 C 527.341 3.10714 -1.82013 0
M  V30 5438 C 527.194 2.9925 -3.35811 0
M  V30 5439 C 528.513 4.10332 -1.59108 0
M  V30 5440 H 525.632 0.622499 -0.394543 0
M  V30 5441 H 528.274 1.1284 -1.52863 0
M  V30 5442 H 526.424 3.608 -1.44068 0
M  V30 5443 H 528.096 2.56608 -3.83341 0
M  V30 5444 H 526.339 2.35512 -3.64303 0
M  V30 5445 H 527.01 3.97857 -3.82641 0
M  V30 5446 H 529.486 3.69097 -1.92111 0
M  V30 5447 H 528.362 5.05804 -2.13198 0
M  V30 5448 H 528.623 4.38926 -0.528832 0
M  V30 5449 N 527.682 1.05563 1.17022 0
M  V30 5450 C 528.615 0.604197 2.20056 0
M  V30 5451 C 529.593 -0.369169 1.58354 0
M  V30 5452 O 530.777 -0.279898 1.8641 0
M  V30 5453 C 527.904 -0.115265 3.38504 0
M  V30 5454 C 526.95 0.813698 4.18666 0
M  V30 5455 S 527.783 2.30492 4.83357 0
M  V30 5456 C 528.939 1.59674 6.0519 0
M  V30 5457 H 529.172 1.47713 2.58008 0
M  V30 5458 H 526.705 0.867932 1.27696 0
M  V30 5459 H 528.663 -0.524162 4.0714 0
M  V30 5460 H 527.324 -0.964284 2.98932 0
M  V30 5461 H 526.517 0.256736 5.03346 0
M  V30 5462 H 526.119 1.16213 3.55486 0
M  V30 5463 H 528.411 0.898164 6.7152 0
M  V30 5464 H 529.354 2.42115 6.65422 0
M  V30 5465 H 529.762 1.08252 5.54023 0
M  V30 5466 N 529.16 -1.33526 0.837174 0
M  V30 5467 C 530.09 -2.31764 0.284206 0
M  V30 5468 C 531.071 -1.58896 -0.607142 0
M  V30 5469 O 532.256 -1.86798 -0.531047 0
M  V30 5470 C 529.386 -3.43029 -0.542962 0
M  V30 5471 C 528.34 -4.27255 0.252451 0
M  V30 5472 C 527.666 -5.3012 -0.69836 0
M  V30 5473 C 528.966 -5.01229 1.46858 0
M  V30 5474 H 530.66 -2.78262 1.10502 0
M  V30 5475 H 528.206 -1.3378 0.532812 0
M  V30 5476 H 530.159 -4.1078 -0.940096 0
M  V30 5477 H 528.883 -2.95216 -1.39697 0
M  V30 5478 H 527.542 -3.61127 0.631124 0
M  V30 5479 H 527.19 -4.78564 -1.54872 0
M  V30 5480 H 526.89 -5.87353 -0.170274 0
M  V30 5481 H 528.414 -6.00737 -1.09305 0
M  V30 5482 H 529.828 -5.61756 1.14469 0
M  V30 5483 H 528.225 -5.68104 1.93333 0
M  V30 5484 H 529.295 -4.301 2.23924 0
M  V30 5485 N 530.638 -0.59345 -1.46 0
M  V30 5486 C 531.601 0.123538 -2.28867 0
M  V30 5487 C 532.601 0.808628 -1.38989 0
M  V30 5488 O 533.791 0.658945 -1.61256 0
M  V30 5489 C 530.923 1.1847 -3.19653 0
M  V30 5490 H 532.116 -0.604843 -2.93737 0
M  V30 5491 H 529.669 -0.351875 -1.52288 0
M  V30 5492 H 530.404 1.94431 -2.59552 0
M  V30 5493 H 530.189 0.69783 -3.8584 0
M  V30 5494 H 531.679 1.68726 -3.81997 0
M  V30 5495 N 532.116 1.54067 -0.331816 0
M  V30 5496 C 533.064 2.26105 0.54582 0
M  V30 5497 C 534.058 1.27816 1.11173 0
M  V30 5498 O 535.264 1.45565 1.05882 0
M  V30 5499 H 531.639 0.726363 0.194683 0
M  V30 5500 H 533.61 2.98282 -0.083931 0
M  V30 5501 C 532.359 3.03814 1.69092 0
M  V30 5502 H 531.682 3.79269 1.26473 0
M  V30 5503 H 533.122 3.57453 2.28043 0
M  V30 5504 C 531.581 2.12606 2.61343 0
M  V30 5505 O 532.111 1.71437 3.6328 0
M  V30 5506 N 530.317 1.77925 2.29763 0
M  V30 5507 H 529.864 2.11602 1.46909 0
M  V30 5508 H 529.822 1.1718 2.91747 0
M  V30 5509 N 533.594 0.0601682 1.57485 0
M  V30 5510 C 534.822 -0.620937 1.97363 0
M  V30 5511 C 535.237 -1.63846 0.938082 0
M  V30 5512 O 534.594 -1.82339 -0.0766578 0
M  V30 5513 C 534.645 -1.29987 3.37321 0
M  V30 5514 O 534.366 -0.323081 4.36907 0
M  V30 5515 C 535.867 -2.06989 3.92008 0
M  V30 5516 H 533.087 -0.169135 0.649334 0
M  V30 5517 H 535.631 0.129132 2.04092 0
M  V30 5518 H 533.786 -2.0011 3.31715 0
M  V30 5519 H 534.2 -0.808754 5.18227 0
M  V30 5520 H 535.674 -2.49901 4.92192 0
M  V30 5521 H 536.151 -2.92173 3.2792 0
M  V30 5522 H 536.757 -1.41757 4.0098 0
M  V30 5523 N 535.072 -1.5615 -0.213296 0
M  V30 5524 C 536.297 -1.83986 -0.957282 0
M  V30 5525 C 536.722 -0.641526 -1.76822 0
M  V30 5526 O 536.08 0.409722 -1.7661 0
M  V30 5527 C 536.128 -3.09889 -1.84393 0
M  V30 5528 O 535.232 -2.89163 -2.94038 0
M  V30 5529 H 534.573 -0.606357 -0.270605 0
M  V30 5530 H 537.103 -2.03369 -0.224111 0
M  V30 5531 H 537.113 -3.40209 -2.25215 0
M  V30 5532 H 535.788 -3.96735 -1.24795 0
M  V30 5533 H 534.365 -2.70097 -2.57103 0
M  V30 5534 N 536.55 0.480323 -1.50102 0
M  V30 5535 C 537.78 1.25475 -1.64133 0
M  V30 5536 C 538.188 1.8647 -0.320272 0
M  V30 5537 O 537.531 1.69561 0.70673 0
M  V30 5538 C 537.593 2.40996 -2.6676 0
M  V30 5539 C 537.257 2.00711 -4.10565 0
M  V30 5540 C 538.254 1.53492 -4.96725 0
M  V30 5541 C 535.939 2.09714 -4.56427 0
M  V30 5542 C 537.933 1.15806 -6.26792 0
M  V30 5543 C 535.62 1.7164 -5.86501 0
M  V30 5544 C 536.618 1.24763 -6.71508 0
M  V30 5545 O 536.306 0.872122 -7.99155 0
M  V30 5546 H 536.038 0.385983 -0.554971 0
M  V30 5547 H 538.592 0.580848 -1.97016 0
M  V30 5548 H 536.822 3.11528 -2.291 0
M  V30 5549 H 538.511 3.02981 -2.70106 0
M  V30 5550 H 539.277 1.45966 -4.62514 0
M  V30 5551 H 535.156 2.4515 -3.90413 0
M  V30 5552 H 538.7 0.791465 -6.93096 0
M  V30 5553 H 534.597 1.78822 -6.20236 0
M  V30 5554 H 535.365 1.00178 -8.12346 0
M  V30 5555 N 538.028 1.39524 0.732853 0
M  V30 5556 C 539.439 1.32905 1.31122 0
M  V30 5557 C 539.79 -0.00558708 1.96199 0
M  V30 5558 O 538.915 -0.907706 1.96443 0
M  V30 5559 C 539.51 2.40704 2.38426 0
M  V30 5560 C 538.069 2.37599 2.91931 0
M  V30 5561 C 537.216 2.2248 1.65523 0
M  V30 5562 H 540.167 1.49581 0.530207 0
M  V30 5563 H 540.188 2.07616 3.18867 0
M  V30 5564 H 539.7 3.37829 1.91033 0
M  V30 5565 H 537.801 1.44119 3.43599 0
M  V30 5566 H 537.914 3.32538 3.44899 0
M  V30 5567 H 536.278 1.69691 1.8994 0
M  V30 5568 H 537.061 3.21577 1.20178 0
M  V30 5569 N 539.506 -0.963266 1.24736 0
M  V30 5570 C 540.454 -2.07985 1.04139 0
M  V30 5571 C 541.448 -1.69381 -0.0250556 0
M  V30 5572 O 542.654 -1.79531 0.129863 0
M  V30 5573 H 539.029 -0.680627 0.319768 0
M  V30 5574 H 541 -2.22517 1.98818 0
M  V30 5575 C 539.749 -3.4123 0.667615 0
M  V30 5576 H 539.072 -3.71397 1.48 0
M  V30 5577 H 540.512 -4.20244 0.563136 0
M  V30 5578 C 538.971 -3.3104 -0.625647 0
M  V30 5579 O 539.501 -3.65334 -1.67016 0
M  V30 5580 N 537.707 -2.84168 -0.608033 0
M  V30 5581 H 537.254 -2.56458 0.242323 0
M  V30 5582 H 537.212 -2.77732 -1.47352 0
M  V30 5583 N 540.985 -1.06182 -1.16461 0
M  V30 5584 C 542.396 -0.802426 -1.68576 0
M  V30 5585 C 542.747 0.67412 -1.84255 0
M  V30 5586 O 541.872 1.52303 -1.5373 0
M  V30 5587 C 542.467 -1.45002 -3.06202 0
M  V30 5588 C 541.026 -1.23843 -3.55443 0
M  V30 5589 C 540.173 -1.52724 -2.31454 0
M  V30 5590 H 543.124 -1.22545 -1.00839 0
M  V30 5591 H 543.145 -0.864731 -3.70544 0
M  V30 5592 H 542.657 -2.52466 -2.94759 0
M  V30 5593 H 540.758 -0.183487 -3.72148 0
M  V30 5594 H 540.871 -1.95036 -4.37604 0
M  V30 5595 H 539.235 -0.947726 -2.36411 0
M  V30 5596 H 540.018 -2.61343 -2.22609 0
M  V30 5597 N 542.463 1.3308 -0.844243 0
M  V30 5598 C 543.426 2.27403 -0.286485 0
M  V30 5599 C 544.426 1.51179 0.547872 0
M  V30 5600 O 545.616 1.70421 0.360886 0
M  V30 5601 C 542.748 3.35653 0.595813 0
M  V30 5602 H 543.941 2.78248 -1.11885 0
M  V30 5603 H 541.494 1.43574 -0.617749 0
M  V30 5604 H 542.229 2.90058 1.4504 0
M  V30 5605 H 542.014 3.921 -0.00125994 0
M  V30 5606 H 543.504 4.05958 0.979168 0
M  V30 5607 N 543.941 0.601185 1.45683 0
M  V30 5608 C 545.357 0.264315 1.57396 0
M  V30 5609 C 545.557 -1.23324 1.59353 0
M  V30 5610 O 544.613 -2.01594 1.52039 0
M  V30 5611 C 545.926 0.929839 2.85962 0
M  V30 5612 C 547.474 0.905156 2.99626 0
M  V30 5613 C 547.949 1.55057 4.30954 0
M  V30 5614 N 549.44 1.51576 4.37697 0
M  V30 5615 C 550.175 1.98436 5.37969 0
M  V30 5616 N 549.671 2.53352 6.44813 0
M  V30 5617 N 551.464 1.89242 5.29286 0
M  V30 5618 H 543.615 1.57363 1.42656 0
M  V30 5619 H 545.878 0.658831 0.681649 0
M  V30 5620 H 545.584 1.98404 2.90394 0
M  V30 5621 H 545.458 0.449224 3.74515 0
M  V30 5622 H 547.845 -0.14048 2.94765 0
M  V30 5623 H 547.926 1.42397 2.12501 0
M  V30 5624 H 547.57 2.5955 4.36573 0
M  V30 5625 H 547.5 1.00682 5.16886 0
M  V30 5626 H 549.991 1.11452 3.61091 0
M  V30 5627 H 550.304 2.86918 7.17564 0
M  V30 5628 H 548.649 2.57388 6.45582 0
M  V30 5629 H 551.84 1.46083 4.44722 0
M  V30 5630 H 552.013 2.26075 6.07284 0
M  V30 5631 N 545.419 -1.53889 0.339982 0
M  V30 5632 C 546.665 -2.01152 -0.258003 0
M  V30 5633 C 546.998 -1.22749 -1.50487 0
M  V30 5634 O 546.273 -0.314156 -1.91946 0
M  V30 5635 C 546.556 -3.55468 -0.575717 0
M  V30 5636 C 546.409 -4.44584 0.682996 0
M  V30 5637 C 547.728 -4.1768 -1.38677 0
M  V30 5638 H 544.847 -0.731198 -0.0922992 0
M  V30 5639 H 547.489 -1.84352 0.459814 0
M  V30 5640 H 545.639 -3.69914 -1.18725 0
M  V30 5641 H 547.311 -4.41981 1.32102 0
M  V30 5642 H 545.554 -4.13592 1.3086 0
M  V30 5643 H 546.225 -5.5043 0.416001 0
M  V30 5644 H 548.701 -4.0691 -0.869705 0
M  V30 5645 H 547.577 -5.25734 -1.57783 0
M  V30 5646 H 547.838 -3.72069 -2.38782 0
M  V30 5647 N 546.897 -0.0685191 -1.57451 0
M  V30 5648 C 547.807 0.914677 -2.16034 0
M  V30 5649 C 548.823 1.32938 -1.12265 0
M  V30 5650 O 549.999 1.40275 -1.44516 0
M  V30 5651 C 547.064 2.16519 -2.70777 0
M  V30 5652 C 546.125 1.80721 -3.89408 0
M  V30 5653 C 545.358 2.9981 -4.41531 0
M  V30 5654 O 545.581 4.13727 -3.92666 0
M  V30 5655 O 544.515 2.79817 -5.32903 0
M  V30 5656 H 548.341 0.446364 -3.00402 0
M  V30 5657 H 545.926 0.154367 -1.486 0
M  V30 5658 H 547.808 2.89856 -3.05878 0
M  V30 5659 H 546.483 2.62454 -1.89471 0
M  V30 5660 H 545.39 1.04646 -3.59166 0
M  V30 5661 H 546.723 1.39571 -4.71997 0
M  V30 5662 N 548.375 1.56261 0.205012 0
M  V30 5663 C 549.338 1.92908 1.23771 0
M  V30 5664 C 550.338 0.809208 1.38955 0
M  V30 5665 O 551.528 1.07676 1.36936 0
M  V30 5666 C 548.66 2.19442 2.60879 0
M  V30 5667 H 549.853 2.85287 0.924728 0
M  V30 5668 H 547.406 1.49798 0.446125 0
M  V30 5669 H 548.141 1.29668 2.97248 0
M  V30 5670 H 547.926 3.0104 2.51232 0
M  V30 5671 H 549.416 2.48833 3.35368 0
M  V30 5672 N 549.853 -0.472356 1.50355 0
M  V30 5673 C 550.816 -1.5529 1.68576 0
M  V30 5674 C 551.816 -1.50863 0.556511 0
M  V30 5675 O 553.006 -1.53505 0.823516 0
M  V30 5676 C 550.138 -2.94921 1.70981 0
M  V30 5677 H 551.331 -1.40451 2.64978 0
M  V30 5678 H 548.884 -0.698645 1.39816 0
M  V30 5679 H 549.619 -3.15204 0.762675 0
M  V30 5680 H 549.404 -2.99541 2.53017 0
M  V30 5681 H 550.894 -3.73372 1.87037 0
M  V30 5682 N 551.331 -1.39911 -0.725443 0
M  V30 5683 C 552.561 -1.40744 -1.51244 0
M  V30 5684 C 552.969 -0.00275403 -1.892 0
M  V30 5685 O 552.312 0.981299 -1.55294 0
M  V30 5686 C 552.374 -2.22527 -2.82351 0
M  V30 5687 C 552.038 -3.71053 -2.66774 0
M  V30 5688 C 553.035 -4.63916 -2.34686 0
M  V30 5689 C 550.72 -4.14753 -2.83347 0
M  V30 5690 C 552.714 -5.98463 -2.19366 0
M  V30 5691 C 550.401 -5.49372 -2.67644 0
M  V30 5692 C 551.399 -6.41042 -2.357 0
M  V30 5693 O 551.087 -7.73181 -2.20107 0
M  V30 5694 H 550.819 -0.482314 -0.473655 0
M  V30 5695 H 553.373 -1.84472 -0.903284 0
M  V30 5696 H 551.603 -1.73563 -3.45562 0
M  V30 5697 H 553.292 -2.15421 -3.44018 0
M  V30 5698 H 554.058 -4.31453 -2.21525 0
M  V30 5699 H 549.937 -3.43728 -3.072 0
M  V30 5700 H 553.481 -6.69979 -1.94354 0
M  V30 5701 H 549.378 -5.81424 -2.80387 0
M  V30 5702 H 550.146 -7.84008 -2.35103 0
M  V30 5703 N 552.809 0.956637 -1.25245 0
M  V30 5704 C 553.759 2.03841 -1.02141 0
M  V30 5705 C 554.743 1.60848 0.0410058 0
M  V30 5706 O 555.935 1.76142 -0.174084 0
M  V30 5707 C 553.064 3.37282 -0.639963 0
M  V30 5708 C 552.15 3.86805 -1.73903 0
M  V30 5709 N 552.541 4.09143 -2.97381 0
M  V30 5710 C 550.839 4.15574 -1.61909 0
M  V30 5711 C 551.54 4.49923 -3.68707 0
M  V30 5712 N 550.516 4.55737 -2.96318 0
M  V30 5713 H 554.318 2.19102 -1.95886 0
M  V30 5714 H 551.832 1.1413 -1.15534 0
M  V30 5715 H 553.829 4.14403 -0.455643 0
M  V30 5716 H 552.489 3.23401 0.29018 0
M  V30 5717 H 553.5 3.96275 -3.33447 0
M  V30 5718 H 550.177 4.10566 -0.757764 0
M  V30 5719 H 551.567 4.75526 -4.74684 0
M  V30 5720 N 554.287 1.06798 1.15896 0
M  V30 5721 C 555.536 0.782796 1.8589 0
M  V30 5722 C 555.849 -0.693498 1.82893 0
M  V30 5723 O 557.055 -1.09325 2.48516 0
M  V30 5724 C 555.511 1.3502 3.33613 0
M  V30 5725 C 555.119 2.8571 3.45071 0
M  V30 5726 C 556.863 1.14278 4.08829 0
M  V30 5727 C 554.77 3.35669 4.86909 0
M  V30 5728 H 553.7 0.289149 0.696354 0
M  V30 5729 H 556.351 1.28734 1.30766 0
M  V30 5730 H 554.733 0.773407 3.88374 0
M  V30 5731 H 555.907 3.49385 3.00445 0
M  V30 5732 H 554.222 3.05178 2.83294 0
M  V30 5733 H 556.819 1.49087 5.13495 0
M  V30 5734 H 557.162 0.0814575 4.1622 0
M  V30 5735 H 557.695 1.68563 3.60321 0
M  V30 5736 H 554.434 4.41302 4.84698 0
M  V30 5737 H 553.954 2.76745 5.32139 0
M  V30 5738 H 555.633 3.31296 5.55745 0
M  V30 5739 N 555.766 -1.3263 0.851289 0
M  V30 5740 C 556.696 -2.31449 0.308771 0
M  V30 5741 C 557.677 -1.59531 -0.590255 0
M  V30 5742 O 558.862 -1.87351 -0.511205 0
M  V30 5743 C 555.992 -3.43586 -0.506548 0
M  V30 5744 C 554.946 -4.26963 0.297753 0
M  V30 5745 C 554.272 -5.30831 -0.642094 0
M  V30 5746 C 555.572 -4.99643 1.52166 0
M  V30 5747 H 557.266 -2.77074 1.13447 0
M  V30 5748 H 554.812 -1.33207 0.546971 0
M  V30 5749 H 556.765 -4.11754 -0.896474 0
M  V30 5750 H 555.489 -2.96681 -1.36558 0
M  V30 5751 H 554.148 -3.60437 0.669391 0
M  V30 5752 H 553.796 -4.8018 -1.49788 0
M  V30 5753 H 553.496 -5.87501 -0.107968 0
M  V30 5754 H 555.02 -6.01862 -1.02927 0
M  V30 5755 H 556.434 -5.6051 1.20421 0
M  V30 5756 H 554.831 -5.66022 1.99347 0
M  V30 5757 H 555.901 -4.27701 2.28474 0
M  V30 5758 N 557.244 -0.608902 -1.45362 0
M  V30 5759 C 558.154 0.110969 -2.34337 0
M  V30 5760 C 559.17 0.859007 -1.51318 0
M  V30 5761 O 560.346 0.816296 -1.84116 0
M  V30 5762 C 557.411 1.09494 -3.28956 0
M  V30 5763 C 556.472 0.348718 -4.27881 0
M  V30 5764 C 555.705 1.28582 -5.17979 0
M  V30 5765 O 555.928 2.52369 -5.11533 0
M  V30 5766 O 554.862 0.782172 -5.96796 0
M  V30 5767 H 558.688 -0.620258 -2.97299 0
M  V30 5768 H 556.273 -0.36916 -1.44767 0
M  V30 5769 H 558.155 1.66163 -3.87257 0
M  V30 5770 H 556.83 1.80717 -2.68557 0
M  V30 5771 H 555.737 -0.260465 -3.73192 0
M  V30 5772 H 557.07 -0.323049 -4.91139 0
M  V30 5773 N 558.722 1.53707 -0.348139 0
M  V30 5774 C 559.685 2.23812 0.494058 0
M  V30 5775 C 560.685 1.23989 1.02388 0
M  V30 5776 O 561.875 1.48395 0.912396 0
M  V30 5777 C 559.007 2.96133 1.68872 0
M  V30 5778 H 560.2 2.99663 -0.119141 0
M  V30 5779 H 557.753 1.55983 -0.0995539 0
M  V30 5780 H 558.488 2.24481 2.34049 0
M  V30 5781 H 558.273 3.69357 1.31596 0
M  V30 5782 H 559.763 3.49475 2.28597 0
M  V30 5783 N 560.2 0.0768682 1.57412 0
M  V30 5784 C 561.13 -0.886026 2.16037 0
M  V30 5785 C 562.111 -1.30691 1.08876 0
M  V30 5786 O 563.296 -1.37705 1.36934 0
M  V30 5787 C 560.426 -2.1518 2.72608 0
M  V30 5788 C 559.38 -1.87015 3.8498 0
M  V30 5789 C 558.706 -3.20266 4.28175 0
M  V30 5790 C 560.006 -1.17143 5.08994 0
M  V30 5791 H 561.7 -0.397642 2.96748 0
M  V30 5792 H 559.246 -0.189823 1.42743 0
M  V30 5793 H 561.199 -2.82962 3.12266 0
M  V30 5794 H 559.923 -2.66269 1.89125 0
M  V30 5795 H 558.582 -1.21636 3.45833 0
M  V30 5796 H 558.23 -3.69207 3.41607 0
M  V30 5797 H 557.93 -3.0221 5.03927 0
M  V30 5798 H 559.454 -3.89237 4.70454 0
M  V30 5799 H 560.868 -1.75003 5.45937 0
M  V30 5800 H 559.265 -1.09328 5.90057 0
M  V30 5801 H 560.335 -0.151295 4.84664 0
M  V30 5802 N 561.678 -1.56367 -0.196722 0
M  V30 5803 C 562.61 -1.90941 -1.26784 0
M  V30 5804 C 563.623 -0.799928 -1.41792 0
M  V30 5805 O 564.812 -1.07833 -1.42247 0
M  V30 5806 C 561.912 -2.12477 -2.6402 0
M  V30 5807 C 561.085 -3.43616 -2.70641 0
M  V30 5808 C 560.144 -3.54284 -3.89062 0
M  V30 5809 O 559.17 -4.2712 -3.76241 0
M  V30 5810 N 560.372 -2.87252 -5.04447 0
M  V30 5811 H 563.137 -2.83417 -0.974417 0
M  V30 5812 H 560.698 -1.57215 -0.386649 0
M  V30 5813 H 562.69 -2.16904 -3.41665 0
M  V30 5814 H 561.26 -1.26508 -2.85857 0
M  V30 5815 H 560.48 -3.51072 -1.79283 0
M  V30 5816 H 561.768 -4.29958 -2.72054 0
M  V30 5817 H 561.166 -2.27901 -5.17762 0
M  V30 5818 H 559.723 -2.97308 -5.80044 0
M  V30 5819 O 563.195 0.341958 -1.57838 0
M  V30 5820 H 563.886 0.991482 -1.66401 0
M  V30 END ATOM
M  V30 BEGIN BOND
M  V30 END BOND
M  V30 END CTAB
M  END
$$$$
