drugbank_target|P05452 Tetranectin (DB00031; DB06245; DB09130)
 OpenBabel12092120053D

  0  0  0     0  0            999 V3000
M  V30 BEGIN CTAB
M  V30 COUNTS 3153 3182 0 0 0
M  V30 BEGIN ATOM
M  V30 1 H -0.908 1.98254 -0.117106 0
M  V30 2 N 0 1.576 0 0
M  V30 3 C 0.933 2.03868 1.02534 0
M  V30 4 C 1.911 0.928543 1.3348 0
M  V30 5 O 3.095 1.19667 1.45644 0
M  V30 6 C 0.222 2.43627 2.35294 0
M  V30 7 C -0.732 3.65373 2.2001 0
M  V30 8 S 0.101 5.13292 1.52614 0
M  V30 9 C 1.257 5.56322 2.86805 0
M  V30 10 H 1.49 2.90518 0.631377 0
M  V30 11 H -0.977 1.52953 0.210867 0
M  V30 12 H 0.981 2.67203 3.11629 0
M  V30 13 H -0.358 1.57376 2.7183 0
M  V30 14 H -1.165 3.90944 3.18086 0
M  V30 15 H -1.563 3.418 1.51819 0
M  V30 16 H 0.729 5.58782 3.83104 0
M  V30 17 H 1.672 6.56266 2.65933 0
M  V30 18 H 2.08 4.83886 2.90714 0
M  V30 19 N 1.4781 -0.272755 1.55222 0
M  V30 20 C 2.3881 -1.35918 1.91216 0
M  V30 21 C 3.4041 -1.54026 0.809436 0
M  V30 22 O 4.5801 -1.68148 1.10852 0
M  V30 23 C 1.6451 -2.69834 2.17693 0
M  V30 24 C 0.7061 -2.6047 3.41253 0
M  V30 25 C -0.0609 -3.88 3.66458 0
M  V30 26 O 0.1621 -4.88693 2.94169 0
M  V30 27 O -0.9039 -3.88189 4.59992 0
M  V30 28 H 2.9221 -1.0839 2.83699 0
M  V30 29 H 0.5071 -0.471301 1.41771 0
M  V30 30 H 2.3891 -3.49017 2.36147 0
M  V30 31 H 1.0641 -2.97148 1.28392 0
M  V30 32 H -0.0289 -1.79663 3.28134 0
M  V30 33 H 1.3041 -2.38106 4.30774 0
M  V30 34 N 2.9562 -1.48159 -0.537278 0
M  V30 35 C 3.8862 -1.65029 -1.6519 0
M  V30 36 C 4.8672 -0.499281 -1.62607 0
M  V30 37 O 6.0522 -0.730972 -1.79918 0
M  V30 38 C 3.1822 -1.68303 -3.03795 0
M  V30 39 C 2.1362 -2.8283 -3.21234 0
M  V30 40 C 1.4622 -2.71189 -4.60826 0
M  V30 41 C 2.7622 -4.24211 -3.04701 0
M  V30 42 H 4.4562 -2.58341 -1.51328 0
M  V30 43 H 2.0022 -1.24325 -0.726585 0
M  V30 44 H 3.9552 -1.78693 -3.81637 0
M  V30 45 H 2.6792 -0.715635 -3.18663 0
M  V30 46 H 1.3382 -2.71983 -2.45807 0
M  V30 47 H 0.9862 -1.72435 -4.7252 0
M  V30 48 H 0.6862 -3.48035 -4.7344 0
M  V30 49 H 2.2102 -2.83537 -5.40777 0
M  V30 50 H 3.6242 -4.3593 -3.72341 0
M  V30 51 H 2.0212 -5.01998 -3.28813 0
M  V30 52 H 3.0912 -4.41184 -2.01209 0
M  V30 53 N 4.4343 0.785586 -1.36625 0
M  V30 54 C 5.6803 1.5452 -1.32269 0
M  V30 55 C 6.0353 1.92159 0.0962266 0
M  V30 56 O 5.3283 1.60158 1.05167 0
M  V30 57 C 5.5223 2.83007 -2.1827 0
M  V30 58 C 5.3513 2.57925 -3.68382 0
M  V30 59 C 4.1213 2.52752 -4.37544 0
M  V30 60 C 6.3193 2.26861 -4.61561 0
M  V30 61 N 4.3013 2.19608 -5.73276 0
M  V30 62 C 5.6723 2.03738 -5.85569 0
M  V30 63 C 7.7273 2.129 -4.50087 0
M  V30 64 C 6.4303 1.68065 -6.9939 0
M  V30 65 C 8.4563 1.78626 -5.63779 0
M  V30 66 C 7.8183 1.56353 -6.86828 0
M  V30 67 H 3.9173 0.566301 -0.539283 0
M  V30 68 H 6.5013 0.917736 -1.71714 0
M  V30 69 H 4.6723 3.43614 -1.81063 0
M  V30 70 H 6.4043 3.48775 -2.05275 0
M  V30 71 H 3.1593 2.6813 -3.90389 0
M  V30 72 H 3.5833 2.05771 -6.44971 0
M  V30 73 H 8.2253 2.28808 -3.55537 0
M  V30 74 H 5.9433 1.50895 -7.93887 0
M  V30 75 H 9.5293 1.68502 -5.56865 0
M  V30 76 H 8.4093 1.30223 -7.73312 0
M  V30 77 N 5.9124 1.20967 1.01018 0
M  V30 78 C 7.1604 1.02172 1.74371 0
M  V30 79 C 7.4814 -0.446414 1.89821 0
M  V30 80 O 6.7514 -1.32234 1.44537 0
M  V30 81 H 5.3314 0.375066 0.646014 0
M  V30 82 H 7.9934 1.52187 1.21758 0
M  V30 83 H 7.0894 1.48538 2.74487 0
M  V30 84 N 7.3905 -1.2043 1.01659 0
M  V30 85 C 8.3535 -2.21433 0.591616 0
M  V30 86 C 9.3535 -1.57203 -0.338226 0
M  V30 87 O 10.5435 -1.73737 -0.126918 0
M  V30 88 C 7.6755 -3.40628 -0.136058 0
M  V30 89 H 8.8685 -2.60545 1.48514 0
M  V30 90 H 6.4215 -1.33893 0.806379 0
M  V30 91 H 7.1565 -3.07019 -1.04449 0
M  V30 92 H 6.9415 -3.88475 0.531917 0
M  V30 93 H 8.4315 -4.15475 -0.420735 0
M  V30 94 N 8.8686 -0.792821 -1.36206 0
M  V30 95 C 10.0986 -0.378275 -2.03107 0
M  V30 96 C 10.5066 1.01119 -1.59911 0
M  V30 97 O 9.8496 1.66052 -0.785658 0
M  V30 98 C 9.9116 -0.366535 -3.57627 0
M  V30 99 C 9.5756 -1.70416 -4.24037 0
M  V30 100 C 10.5726 -2.6602 -4.46687 0
M  V30 101 C 8.2576 -1.98439 -4.6144 0
M  V30 102 C 10.2516 -3.8784 -5.05825 0
M  V30 103 C 7.9386 -3.20525 -5.20295 0
M  V30 104 C 8.9366 -4.15044 -5.42427 0
M  V30 105 O 8.6246 -5.34978 -6.00045 0
M  V30 106 H 8.3566 -0.153543 -0.658332 0
M  V30 107 H 10.9106 -1.07383 -1.75094 0
M  V30 108 H 9.1406 0.385539 -3.84773 0
M  V30 109 H 10.8296 0.0238088 -4.05893 0
M  V30 110 H 11.5956 -2.45658 -4.18183 0
M  V30 111 H 7.4746 -1.25686 -4.43536 0
M  V30 112 H 11.0186 -4.61628 -5.23015 0
M  V30 113 H 6.9156 -3.40764 -5.48225 0
M  V30 114 H 7.6836 -5.36088 -6.18508 0
M  V30 115 N 10.3467 1.47872 -0.545128 0
M  V30 116 C 11.2767 2.32661 0.197793 0
M  V30 117 C 12.2577 1.43041 0.920504 0
M  V30 118 O 13.4427 1.71912 0.90333 0
M  V30 119 C 10.5727 3.24569 1.23582 0
M  V30 120 C 9.5267 4.23333 0.630323 0
M  V30 121 C 8.8527 5.0448 1.77211 0
M  V30 122 C 10.1527 5.20704 -0.407974 0
M  V30 123 H 11.8467 2.95024 -0.510045 0
M  V30 124 H 9.3927 1.4187 -0.246731 0
M  V30 125 H 11.3457 3.8272 1.76362 0
M  V30 126 H 10.0697 2.60236 1.97344 0
M  V30 127 H 8.7287 3.6639 0.123922 0
M  V30 128 H 8.3767 4.36561 2.49847 0
M  V30 129 H 8.0767 5.71339 1.37281 0
M  V30 130 H 9.6007 5.65487 2.3034 0
M  V30 131 H 11.0147 5.7329 0.033305 0
M  V30 132 H 9.4117 5.95699 -0.725486 0
M  V30 133 H 10.4817 4.66917 -1.30828 0
M  V30 134 N 11.8248 0.280983 1.55075 0
M  V30 135 C 12.7548 -0.597469 2.25727 0
M  V30 136 C 13.7358 -1.15417 1.24952 0
M  V30 137 O 14.9208 -1.18722 1.53684 0
M  V30 138 C 12.0508 -1.7789 2.98283 0
M  V30 139 C 11.0048 -1.35347 4.06036 0
M  V30 140 C 10.3308 -2.61846 4.66198 0
M  V30 141 C 11.6308 -0.499354 5.19907 0
M  V30 142 H 13.3248 -0.00824265 2.99399 0
M  V30 143 H 10.8708 -0.0025244 1.44 0
M  V30 144 H 12.8238 -2.39937 3.46422 0
M  V30 145 H 11.5478 -2.39405 2.22155 0
M  V30 146 H 10.2068 -0.756156 3.58717 0
M  V30 147 H 9.8548 -3.21632 3.86732 0
M  V30 148 H 9.5548 -2.3409 5.38958 0
M  V30 149 H 11.0788 -3.24732 5.1709 0
M  V30 150 H 12.4928 -1.02498 5.64063 0
M  V30 151 H 10.8898 -0.316424 5.99265 0
M  V30 152 H 11.9598 0.480459 4.82514 0
M  V30 153 N 13.3029 -1.57598 0.00835791 0
M  V30 154 C 14.2329 -2.1198 -0.979113 0
M  V30 155 C 15.2139 -1.03091 -1.35301 0
M  V30 156 O 16.3989 -1.30818 -1.43528 0
M  V30 157 C 13.5289 -2.62995 -2.26828 0
M  V30 158 C 12.4829 -3.76485 -2.03576 0
M  V30 159 C 11.8089 -4.13846 -3.38579 0
M  V30 160 C 13.1089 -5.0342 -1.39161 0
M  V30 161 H 14.8029 -2.94738 -0.526281 0
M  V30 162 H 12.3489 -1.41783 -0.251704 0
M  V30 163 H 14.3019 -2.99669 -2.96271 0
M  V30 164 H 13.0259 -1.7737 -2.7424 0
M  V30 165 H 11.6849 -3.40217 -1.36557 0
M  V30 166 H 11.3329 -3.25232 -3.83709 0
M  V30 167 H 11.0329 -4.90312 -3.23834 0
M  V30 168 H 12.5569 -4.53086 -4.09323 0
M  V30 169 H 13.9709 -5.37812 -1.98573 0
M  V30 170 H 12.3679 -5.84746 -1.34878 0
M  V30 171 H 13.4379 -4.83548 -0.361868 0
M  V30 172 N 14.781 0.264519 -1.55364 0
M  V30 173 C 16.021 1.00254 -1.78125 0
M  V30 174 C 16.385 1.83187 -0.575017 0
M  V30 175 O 17.586 2.60029 -0.681042 0
M  V30 176 C 15.857 1.85478 -3.05504 0
M  V30 177 S 17.416 2.6543 -3.49417 0
M  V30 178 H 14.234 0.337522 -0.625779 0
M  V30 179 H 16.836 0.272111 -1.93597 0
M  V30 180 H 15.54 1.23491 -3.9138 0
M  V30 181 H 15.071 2.62827 -2.92721 0
M  V30 182 H 17.086 3.87958 -3.09359 0
M  V30 183 N 16.2591 1.48442 0.529413 0
M  V30 184 C 17.1891 1.65902 1.64313 0
M  V30 185 C 18.1701 0.507897 1.6234 0
M  V30 186 O 19.3551 0.740503 1.79528 0
M  V30 187 C 16.4851 1.69911 3.02898 0
M  V30 188 C 15.4391 2.8453 3.19729 0
M  V30 189 C 14.7651 2.73629 4.59381 0
M  V30 190 C 16.0651 4.25821 3.02447 0
M  V30 191 H 17.7591 2.5914 1.49955 0
M  V30 192 H 15.3051 1.24709 0.719982 0
M  V30 193 H 17.2581 1.80715 3.80684 0
M  V30 194 H 15.9821 0.732524 3.18279 0
M  V30 195 H 14.6411 2.73283 2.44361 0
M  V30 196 H 14.2891 1.74938 4.71599 0
M  V30 197 H 13.9891 3.50541 4.71588 0
M  V30 198 H 15.5131 2.86401 5.39265 0
M  V30 199 H 16.9271 4.37898 3.70024 0
M  V30 200 H 15.3241 5.03735 3.26146 0
M  V30 201 H 16.3941 4.42244 1.98867 0
M  V30 202 N 17.7372 -0.778329 1.37039 0
M  V30 203 C 18.9842 -1.53665 1.31884 0
M  V30 204 C 19.3122 -1.9425 -0.0986303 0
M  V30 205 O 18.5672 -1.63832 -1.07041 0
M  V30 206 C 18.8662 -2.81845 2.19768 0
M  V30 207 C 18.5322 -2.60345 3.68146 0
M  V30 208 C 17.1942 -2.5419 4.08584 0
M  V30 209 C 19.5462 -2.40923 4.62175 0
M  V30 210 C 16.8742 -2.26594 5.41177 0
M  V30 211 C 19.2262 -2.14852 5.94997 0
M  V30 212 C 17.8902 -2.07137 6.34547 0
M  V30 213 H 17.1602 -0.562299 0.482598 0
M  V30 214 H 19.8072 -0.897069 1.69189 0
M  V30 215 H 18.1122 -3.50328 1.75436 0
M  V30 216 H 19.8092 -3.39692 2.13097 0
M  V30 217 H 16.3992 -2.65996 3.36072 0
M  V30 218 H 20.5832 -2.44673 4.31797 0
M  V30 219 H 15.8392 -2.19111 5.70789 0
M  V30 220 H 20.0132 -1.98822 6.67415 0
M  V30 221 H 17.6402 -1.85518 7.37216 0
M  V30 222 N 19.2153 -1.21501 -1.00376 0
M  V30 223 C 20.4403 -1.05977 -1.78279 0
M  V30 224 C 20.8653 0.385994 -1.84097 0
M  V30 225 O 20.2233 1.27849 -1.28547 0
M  V30 226 C 20.2713 -1.66302 -3.19963 0
M  V30 227 O 19.3753 -0.909333 -4.0225 0
M  V30 228 H 18.7163 -0.372906 -0.549397 0
M  V30 229 H 21.2463 -1.6107 -1.26165 0
M  V30 230 H 21.2563 -1.70574 -3.70632 0
M  V30 231 H 19.9313 -2.71515 -3.15043 0
M  V30 232 H 18.5083 -0.941795 -3.60811 0
M  V30 233 N 20.6934 1.19889 -1.02296 0
M  V30 234 C 21.6234 2.25141 -0.619174 0
M  V30 235 C 22.6044 1.66051 0.368915 0
M  V30 236 O 23.7894 1.92546 0.252941 0
M  V30 237 C 20.9194 3.4728 0.0368783 0
M  V30 238 C 19.8734 4.19005 -0.872865 0
M  V30 239 C 19.1994 5.34637 -0.0822402 0
M  V30 240 C 20.4994 4.74452 -2.18387 0
M  V30 241 H 22.1934 2.59171 -1.49903 0
M  V30 242 H 19.7394 1.24579 -0.722222 0
M  V30 243 H 21.6924 4.20098 0.330958 0
M  V30 244 H 20.4164 3.12433 0.95149 0
M  V30 245 H 19.0754 3.48061 -1.15105 0
M  V30 246 H 18.7234 4.96034 0.83422 0
M  V30 247 H 18.4234 5.83557 -0.688149 0
M  V30 248 H 19.9474 6.10255 0.205238 0
M  V30 249 H 21.3614 5.39055 -1.95172 0
M  V30 250 H 19.7584 5.33834 -2.74119 0
M  V30 251 H 20.8284 3.92844 -2.84257 0
M  V30 252 N 22.1715 0.800033 1.35784 0
M  V30 253 C 23.1015 0.220184 2.3246 0
M  V30 254 C 24.0825 -0.65073 1.57161 0
M  V30 255 O 25.2675 -0.582359 1.85263 0
M  V30 256 C 22.3975 -0.637353 3.41402 0
M  V30 257 C 21.3515 0.134531 4.27789 0
M  V30 258 C 20.6775 -0.844285 5.27992 0
M  V30 259 C 21.9775 1.32979 5.05088 0
M  V30 260 H 23.6715 1.02787 2.81203 0
M  V30 261 H 21.2175 0.495717 1.35199 0
M  V30 262 H 23.1705 -1.05302 4.08031 0
M  V30 263 H 21.8945 -1.47785 2.91251 0
M  V30 264 H 20.5535 0.531296 3.6273 0
M  V30 265 H 20.2015 -1.68011 4.74111 0
M  V30 266 H 19.9015 -0.332184 5.8666 0
M  V30 267 H 21.4255 -1.2583 5.97494 0
M  V30 268 H 22.8395 0.98934 5.64699 0
M  V30 269 H 21.2365 1.77593 5.7322 0
M  V30 270 H 22.3065 2.11978 4.36111 0
M  V30 271 N 23.6496 -1.47581 0.552962 0
M  V30 272 C 24.8776 -2.06875 0.0320556 0
M  V30 273 C 25.2926 -1.40625 -1.25976 0
M  V30 274 O 24.6496 -0.501349 -1.75479 0
M  V30 275 C 24.7006 -3.61092 -0.17167 0
M  V30 276 O 24.4216 -4.24858 1.06899 0
M  V30 277 C 25.9226 -4.37242 -0.730344 0
M  V30 278 H 23.1426 -0.669561 0.043915 0
M  V30 279 H 25.6866 -1.89646 0.765163 0
M  V30 280 H 23.8416 -3.7785 -0.854894 0
M  V30 281 H 24.2556 -5.17334 0.864059 0
M  V30 282 H 25.7296 -5.45842 -0.822203 0
M  V30 283 H 26.2066 -4.03235 -1.74064 0
M  V30 284 H 26.8126 -4.25219 -0.0829543 0
M  V30 285 N 25.1277 -0.289203 -1.54924 0
M  V30 286 C 26.0597 0.625583 -2.20497 0
M  V30 287 C 27.0727 1.10667 -1.19402 0
M  V30 288 O 28.2617 1.02615 -1.46056 0
M  V30 289 C 25.3617 1.86702 -2.82835 0
M  V30 290 C 24.5347 1.5304 -4.09753 0
M  V30 291 C 23.5937 2.62576 -4.56005 0
M  V30 292 O 22.6197 2.28167 -5.21468 0
M  V30 293 N 23.8217 3.92901 -4.27328 0
M  V30 294 H 26.5867 0.0642801 -2.99631 0
M  V30 295 H 24.1477 -0.110896 -1.6152 0
M  V30 296 H 26.1397 2.59304 -3.10715 0
M  V30 297 H 24.7097 2.33702 -2.07611 0
M  V30 298 H 23.9297 0.637564 -3.8901 0
M  V30 299 H 25.2177 1.28072 -4.92418 0
M  V30 300 H 24.6157 4.23671 -3.74859 0
M  V30 301 H 23.1727 4.61837 -4.59946 0
M  V30 302 N 26.6058 1.57591 -0.0167156 0
M  V30 303 C 27.8518 1.91567 0.665582 0
M  V30 304 C 28.1848 0.892298 1.72487 0
M  V30 305 O 27.4598 -0.0867127 1.94307 0
M  V30 306 C 27.7428 3.36069 1.29342 0
M  V30 307 C 27.5958 4.49135 0.244541 0
M  V30 308 C 28.9148 3.803 2.21495 0
M  V30 309 H 26.0338 0.69666 0.240488 0
M  V30 310 H 28.6758 1.89866 -0.0714356 0
M  V30 311 H 26.8258 3.3765 1.92158 0
M  V30 312 H 28.4978 4.59689 -0.385228 0
M  V30 313 H 26.7408 4.3165 -0.431379 0
M  V30 314 H 27.4118 5.47242 0.723207 0
M  V30 315 H 29.8878 3.80377 1.68678 0
M  V30 316 H 28.7638 4.82127 2.62382 0
M  V30 317 H 29.0248 3.15104 3.101 0
M  V30 318 N 28.0839 -0.256276 1.55502 0
M  V30 319 C 29.3119 -1.00342 1.8094 0
M  V30 320 C 29.7269 -1.79307 0.59114 0
M  V30 321 O 29.0839 -1.77114 -0.440081 0
M  V30 322 C 29.1349 -1.94875 3.04476 0
M  V30 323 O 28.8559 -1.19107 4.21598 0
M  V30 324 C 30.3569 -2.81266 3.42644 0
M  V30 325 H 27.5769 -0.295685 0.602338 0
M  V30 326 H 30.1209 -0.281998 2.02546 0
M  V30 327 H 28.2759 -2.62457 2.84947 0
M  V30 328 H 28.6899 -1.82969 4.91551 0
M  V30 329 H 30.1639 -3.43362 4.32211 0
M  V30 330 H 30.6409 -3.51897 2.62802 0
M  V30 331 H 31.2469 -2.1915 3.64491 0
M  V30 332 N 29.562 -1.4872 -0.521534 0
M  V30 333 C 30.79 -1.60843 -1.30142 0
M  V30 334 C 31.205 -0.271897 -1.86832 0
M  V30 335 O 30.562 0.739969 -1.66825 0
M  V30 336 C 30.613 -2.66155 -2.4463 0
M  V30 337 O 30.334 -3.94623 -1.90275 0
M  V30 338 C 31.835 -2.88795 -3.36322 0
M  V30 339 H 29.055 -0.542075 -0.395468 0
M  V30 340 H 31.599 -1.94609 -0.628285 0
M  V30 341 H 29.754 -2.35224 -3.07812 0
M  V30 342 H 30.168 -4.52468 -2.65279 0
M  V30 343 H 31.642 -3.66264 -4.12983 0
M  V30 344 H 32.119 -1.97934 -3.9207 0
M  V30 345 H 32.725 -3.21063 -2.78924 0
M  V30 346 N 31.0401 0.771051 -1.3745 0
M  V30 347 C 31.9501 1.91538 -1.35464 0
M  V30 348 C 32.9661 1.72134 -0.254123 0
M  V30 349 O 34.1421 1.95358 -0.489626 0
M  V30 350 C 31.2071 3.26671 -1.16134 0
M  V30 351 C 30.2681 3.58723 -2.35831 0
M  V30 352 C 29.5011 4.87409 -2.17413 0
M  V30 353 O 29.7241 5.58506 -1.15876 0
M  V30 354 O 28.6581 5.18539 -3.05615 0
M  V30 355 H 32.4841 1.96165 -2.31847 0
M  V30 356 H 30.0691 0.9139 -1.18187 0
M  V30 357 H 31.9511 4.07499 -1.07345 0
M  V30 358 H 30.6261 3.22894 -0.228251 0
M  V30 359 H 29.5331 2.78127 -2.50192 0
M  V30 360 H 30.8661 3.67243 -3.27709 0
M  V30 361 N 32.5182 1.22032 0.997298 0
M  V30 362 C 33.9292 1.0397 1.55071 0
M  V30 363 C 34.2802 -0.398192 1.92117 0
M  V30 364 O 33.4052 -1.28254 1.74298 0
M  V30 365 C 34.0002 1.88109 2.81781 0
M  V30 366 C 32.5592 1.74357 3.33581 0
M  V30 367 C 31.7062 1.84846 2.06706 0
M  V30 368 H 34.6572 1.35941 0.818883 0
M  V30 369 H 34.6782 1.39589 3.53971 0
M  V30 370 H 34.1902 2.92754 2.54787 0
M  V30 371 H 32.2912 0.72427 3.65493 0
M  V30 372 H 32.4042 2.56772 4.04481 0
M  V30 373 H 30.7682 1.28238 2.20062 0
M  V30 374 H 31.5512 2.91014 1.82114 0
M  V30 375 N 33.9963 -1.19345 1.0293 0
M  V30 376 C 35.4073 -1.70725 0.755633 0
M  V30 377 C 35.7583 -1.82326 -0.724676 0
M  V30 378 O 34.8833 -1.49471 -1.56484 0
M  V30 379 C 35.4783 -3.10084 1.36503 0
M  V30 380 C 34.0373 -3.58723 1.13994 0
M  V30 381 C 33.1843 -2.35577 1.46283 0
M  V30 382 H 36.1353 -1.0418 1.19718 0
M  V30 383 H 36.1563 -3.72787 0.762217 0
M  V30 384 H 35.6683 -3.01609 2.44241 0
M  V30 385 H 33.7693 -3.72512 0.0807901 0
M  V30 386 H 33.8823 -4.42816 1.82894 0
M  V30 387 H 32.2463 -2.38935 0.88217 0
M  V30 388 H 33.0293 -2.29731 2.55105 0
M  V30 389 N 35.4744 -0.807222 -1.35358 0
M  V30 390 C 36.7024 -0.400377 -2.02989 0
M  V30 391 C 37.1174 0.988859 -1.60832 0
M  V30 392 O 36.4744 1.63729 -0.806175 0
M  V30 393 C 36.5254 -0.474867 -3.58368 0
M  V30 394 O 36.2464 -1.80933 -3.98992 0
M  V30 395 C 37.7474 -0.0609112 -4.43258 0
M  V30 396 H 34.9674 -0.162587 -0.651004 0
M  V30 397 H 37.5114 -1.09102 -1.72965 0
M  V30 398 H 35.6664 0.167534 -3.87038 0
M  V30 399 H 36.0804 -1.77256 -4.9364 0
M  V30 400 H 37.5544 -0.164145 -5.51756 0
M  V30 401 H 38.0314 0.993831 -4.27808 0
M  V30 402 H 38.6374 -0.676492 -4.19885 0
M  V30 403 N 36.9525 1.47285 -0.560781 0
M  V30 404 C 37.8845 2.28118 0.222438 0
M  V30 405 C 38.8975 1.37219 0.876056 0
M  V30 406 O 40.0865 1.62011 0.749307 0
M  V30 407 C 37.1865 3.1159 1.33285 0
M  V30 408 C 36.3595 4.30473 0.77534 0
M  V30 409 C 35.4185 4.95513 1.77069 0
M  V30 410 O 34.4445 5.53792 1.31539 0
M  V30 411 N 35.6465 4.90531 3.10418 0
M  V30 412 H 38.4115 2.95976 -0.470958 0
M  V30 413 H 35.9725 1.56955 -0.39709 0
M  V30 414 H 37.9645 3.51967 1.99752 0
M  V30 415 H 36.5345 2.45951 1.92943 0
M  V30 416 H 35.7545 3.94144 -0.0662113 0
M  V30 417 H 37.0425 5.07362 0.382272 0
M  V30 418 H 36.4405 4.44389 3.5005 0
M  V30 419 H 34.9975 5.34917 3.72434 0
M  V30 420 N 38.4306 0.297415 1.54768 0
M  V30 421 C 39.3776 -0.580276 2.23386 0
M  V30 422 C 40.3476 -1.13238 1.21517 0
M  V30 423 O 41.5326 -1.17757 1.50126 0
M  V30 424 C 38.6726 -1.74801 2.97555 0
M  V30 425 C 37.7856 -1.22764 4.1419 0
M  V30 426 C 36.9206 -2.35895 4.75949 0
M  V30 427 C 35.9596 -1.80974 5.84735 0
M  V30 428 N 35.0966 -2.87664 6.40464 0
M  V30 429 H 39.9366 0.0114833 2.97998 0
M  V30 430 H 37.4736 0.0174361 1.4709 0
M  V30 431 H 39.4316 -2.43475 3.38786 0
M  V30 432 H 38.0616 -2.31145 2.25326 0
M  V30 433 H 37.1136 -0.433271 3.77924 0
M  V30 434 H 38.4256 -0.785551 4.92575 0
M  V30 435 H 37.5796 -3.12523 5.20014 0
M  V30 436 H 36.3186 -2.83429 3.96887 0
M  V30 437 H 35.3236 -1.02834 5.40097 0
M  V30 438 H 36.5486 -1.34348 6.65678 0
M  V30 439 H 34.4946 -3.34538 5.64287 0
M  V30 440 H 34.4116 -2.4794 7.14186 0
M  V30 441 H 35.6796 -3.642 6.89187 0
M  V30 442 N 39.9087 -1.5758 0.0250728 0
M  V30 443 C 41.3197 -1.79476 -0.514323 0
M  V30 444 C 41.6707 -0.934956 -1.72491 0
M  V30 445 O 40.7957 -0.144245 -2.15919 0
M  V30 446 C 41.3907 -3.25503 -0.939842 0
M  V30 447 C 39.9497 -3.48408 -1.42438 0
M  V30 448 C 39.0967 -2.74583 -0.387201 0
M  V30 449 H 42.0477 -1.567 0.25113 0
M  V30 450 H 42.0687 -3.34992 -1.80445 0
M  V30 451 H 41.5807 -3.88056 -0.0585628 0
M  V30 452 H 39.6817 -2.91103 -2.32572 0
M  V30 453 H 39.7947 -4.57119 -1.43455 0
M  V30 454 H 38.1587 -2.39942 -0.854409 0
M  V30 455 H 38.9417 -3.39849 0.485543 0
M  V30 456 N 41.3868 0.248026 -1.55636 0
M  V30 457 C 42.3338 1.30707 -1.90222 0
M  V30 458 C 43.3038 1.47881 -0.756332 0
M  V30 459 O 44.4888 1.61883 -1.00988 0
M  V30 460 C 41.6288 2.65769 -2.20138 0
M  V30 461 C 40.7418 2.56612 -3.47526 0
M  V30 462 C 39.8768 3.8402 -3.67017 0
M  V30 463 C 38.9158 3.69476 -4.8801 0
M  V30 464 N 38.0528 4.88774 -5.04029 0
M  V30 465 H 42.8928 1.00512 -2.80538 0
M  V30 466 H 40.4298 0.485055 -1.38873 0
M  V30 467 H 42.3878 3.44386 -2.35487 0
M  V30 468 H 41.0178 2.94115 -1.33027 0
M  V30 469 H 40.0698 1.69571 -3.40514 0
M  V30 470 H 41.3818 2.41774 -4.36287 0
M  V30 471 H 40.5358 4.7108 -3.8232 0
M  V30 472 H 39.2748 4.01754 -2.76487 0
M  V30 473 H 38.2798 2.80799 -4.72686 0
M  V30 474 H 39.5048 3.53238 -5.8 0
M  V30 475 H 37.4508 5.0687 -4.16435 0
M  V30 476 H 37.3678 4.76562 -5.86877 0
M  V30 477 H 38.6358 5.77335 -5.23741 0
M  V30 478 N 42.8649 1.48995 0.513639 0
M  V30 479 C 43.8119 1.6473 1.61656 0
M  V30 480 C 44.7819 0.488984 1.58739 0
M  V30 481 O 45.9669 0.714478 1.76918 0
M  V30 482 C 43.1069 1.7082 2.99858 0
M  V30 483 C 42.2199 2.9787 3.12885 0
M  V30 484 C 41.3549 2.95017 4.41744 0
M  V30 485 C 40.3939 4.16702 4.48359 0
M  V30 486 N 39.5309 4.11832 5.68629 0
M  V30 487 H 44.3709 2.58909 1.47547 0
M  V30 488 H 41.9079 1.28382 0.71808 0
M  V30 489 H 43.8659 1.72331 3.79944 0
M  V30 490 H 42.4959 0.801181 3.12699 0
M  V30 491 H 41.5479 3.06029 2.25944 0
M  V30 492 H 42.8599 3.8786 3.13633 0
M  V30 493 H 42.0139 2.95021 5.30139 0
M  V30 494 H 40.7529 2.02784 4.43542 0
M  V30 495 H 39.7579 4.16955 3.58369 0
M  V30 496 H 40.9829 5.10113 4.48287 0
M  V30 497 H 38.9289 3.22428 5.71293 0
M  V30 498 H 38.8459 4.95543 5.7094 0
M  V30 499 H 40.1139 4.1592 6.59266 0
M  V30 500 N 44.343 -0.763751 1.37857 0
M  V30 501 C 45.592 -1.51789 1.32827 0
M  V30 502 C 45.905 -1.95426 -0.0823719 0
M  V30 503 O 47.111 -2.70298 -0.255172 0
M  V30 504 C 45.567 -2.74133 2.33193 0
M  V30 505 C 45.175 -2.37562 3.79827 0
M  V30 506 C 46.919 -3.52054 2.37188 0
M  V30 507 C 44.826 -3.56456 4.71904 0
M  V30 508 H 43.756 -0.569896 0.493695 0
M  V30 509 H 46.407 -0.835822 1.63359 0
M  V30 510 H 44.789 -3.4427 1.9569 0
M  V30 511 H 45.963 -1.75157 4.26212 0
M  V30 512 H 44.278 -1.72798 3.78853 0
M  V30 513 H 46.875 -4.40437 3.03182 0
M  V30 514 H 47.218 -3.92486 1.38782 0
M  V30 515 H 47.751 -2.88921 2.7344 0
M  V30 516 H 44.49 -3.21099 5.71468 0
M  V30 517 H 44.01 -4.17938 4.30218 0
M  V30 518 H 45.689 -4.23168 4.89426 0
M  V30 519 N 45.8211 -1.22559 -0.990812 0
M  V30 520 C 47.0671 -1.05297 -1.73322 0
M  V30 521 C 47.4001 0.410655 -1.89808 0
M  V30 522 O 46.6751 1.30439 -1.44277 0
M  V30 523 C 46.9581 -1.76713 -3.13759 0
M  V30 524 C 46.8111 -3.30684 -3.04907 0
M  V30 525 C 48.1301 -1.52121 -4.12974 0
M  V30 526 H 45.2491 -0.38392 -0.629106 0
M  V30 527 H 47.8911 -1.50926 -1.15418 0
M  V30 528 H 46.0411 -1.37924 -3.63193 0
M  V30 529 H 47.7131 -3.7893 -2.63077 0
M  V30 530 H 45.9561 -3.60253 -2.41661 0
M  V30 531 H 46.6271 -3.75833 -4.04294 0
M  V30 532 H 49.1031 -1.85819 -3.72304 0
M  V30 533 H 47.9791 -2.04582 -5.0935 0
M  V30 534 H 48.2401 -0.454257 -4.3976 0
M  V30 535 N 47.2992 1.18797 -1.03562 0
M  V30 536 C 48.2472 2.24297 -0.615905 0
M  V30 537 C 49.2412 1.65643 0.354808 0
M  V30 538 O 50.4472 1.78618 0.22265 0
M  V30 539 H 46.8222 0.729909 -0.180934 0
M  V30 540 H 48.7932 2.5701 -1.5162 0
M  V30 541 C 47.5422 3.47698 0.0104735 0
M  V30 542 H 46.8652 3.93125 -0.727509 0
M  V30 543 H 48.3052 4.23159 0.266995 0
M  V30 544 C 46.7642 3.12489 1.25905 0
M  V30 545 O 47.2942 3.25761 2.35038 0
M  V30 546 N 45.5002 2.6686 1.15039 0
M  V30 547 H 45.0472 2.56261 0.262328 0
M  V30 548 H 45.0052 2.43674 1.98672 0
M  V30 549 N 48.7773 0.814389 1.34928 0
M  V30 550 C 49.7403 0.235759 2.27984 0
M  V30 551 C 50.7403 -0.581412 1.49921 0
M  V30 552 O 51.9303 -0.398758 1.69575 0
M  V30 553 C 49.0623 -0.670433 3.34242 0
M  V30 554 H 50.2553 1.05659 2.80671 0
M  V30 555 H 47.8083 0.585614 1.44915 0
M  V30 556 H 48.5433 -1.51466 2.86755 0
M  V30 557 H 48.3283 -0.0860822 3.92005 0
M  V30 558 H 49.8183 -1.06935 4.03676 0
M  V30 559 N 50.2554 -1.46986 0.568584 0
M  V30 560 C 51.2024 -2.30153 -0.172707 0
M  V30 561 C 52.1724 -1.39759 -0.897586 0
M  V30 562 O 53.3574 -1.68716 -0.891044 0
M  V30 563 C 50.4974 -3.23952 -1.1895 0
M  V30 564 C 49.6104 -4.29441 -0.469517 0
M  V30 565 C 48.7454 -5.1038 -1.47259 0
M  V30 566 C 47.7844 -6.07632 -0.738225 0
M  V30 567 N 46.9214 -6.8149 -1.68868 0
M  V30 568 H 51.7614 -2.93019 0.542596 0
M  V30 569 H 49.2984 -1.44422 0.279401 0
M  V30 570 H 51.2564 -3.76767 -1.79173 0
M  V30 571 H 49.8864 -2.62926 -1.87269 0
M  V30 572 H 48.9384 -3.79594 0.247467 0
M  V30 573 H 50.2504 -4.98689 0.105241 0
M  V30 574 H 49.4044 -5.67402 -2.14803 0
M  V30 575 H 48.1434 -4.4106 -2.08128 0
M  V30 576 H 47.1484 -5.49778 -0.0489293 0
M  V30 577 H 48.3734 -6.78966 -0.135129 0
M  V30 578 H 46.3194 -6.14891 -2.28573 0
M  V30 579 H 46.2364 -7.46948 -1.16636 0
M  V30 580 H 47.5044 -7.43078 -2.3549 0
M  V30 581 N 51.7335 -0.305618 -1.54608 0
M  V30 582 C 52.6805 0.568421 -2.23691 0
M  V30 583 C 53.6505 1.12592 -1.22116 0
M  V30 584 O 54.8355 1.16959 -1.50749 0
M  V30 585 C 51.9755 1.7322 -2.98477 0
M  V30 586 C 51.0885 1.20566 -4.14835 0
M  V30 587 C 50.2235 2.33368 -4.77193 0
M  V30 588 C 49.2625 1.7787 -5.85686 0
M  V30 589 N 48.3995 2.84263 -6.4198 0
M  V30 590 H 53.2395 -0.0272867 -2.97988 0
M  V30 591 H 50.7765 -0.0252363 -1.47078 0
M  V30 592 H 52.7345 2.41675 -3.40072 0
M  V30 593 H 51.3645 2.29947 -2.26548 0
M  V30 594 H 50.4165 0.413223 -3.78149 0
M  V30 595 H 51.7285 0.759417 -4.92985 0
M  V30 596 H 50.8825 3.09761 -5.21664 0
M  V30 597 H 49.6215 2.8132 -3.98385 0
M  V30 598 H 48.6265 0.99968 -5.40635 0
M  V30 599 H 49.8515 1.30816 -6.66381 0
M  V30 600 H 47.7975 3.31541 -5.66053 0
M  V30 601 H 47.7145 2.44149 -7.15491 0
M  V30 602 H 48.9825 3.6054 -6.91109 0
M  V30 603 N 53.2116 1.57565 -0.0334293 0
M  V30 604 C 54.4886 1.83282 0.683163 0
M  V30 605 C 54.8686 0.91823 1.90084 0
M  V30 606 O 54.2166 -0.025113 2.28486 0
M  V30 607 C 54.4266 3.32599 1.0573 0
M  V30 608 C 55.7746 3.99179 1.44711 0
M  V30 609 O 56.7986 3.3712 1.15015 0
M  V30 610 O 55.6576 5.08565 2.0006 0
M  V30 611 H 52.7516 0.755869 0.335546 0
M  V30 612 H 55.2976 1.69589 -0.0614402 0
M  V30 613 H 54.0696 3.90834 0.190828 0
M  V30 614 H 53.6926 3.51415 1.85993 0
M  V30 615 N 54.6897 -0.239769 1.55765 0
M  V30 616 C 55.9357 -0.968234 1.78194 0
M  V30 617 C 56.2687 -1.84701 0.599938 0
M  V30 618 O 55.5437 -1.9031 -0.401524 0
M  V30 619 C 55.8267 -1.8227 3.10564 0
M  V30 620 C 55.6797 -0.971633 4.3918 0
M  V30 621 C 56.9987 -2.80388 3.39221 0
M  V30 622 H 54.1177 -0.350572 0.648281 0
M  V30 623 H 56.7597 -0.238259 1.885 0
M  V30 624 H 54.9097 -2.44507 3.01908 0
M  V30 625 H 56.5817 -0.367408 4.59835 0
M  V30 626 H 54.8247 -0.276276 4.32919 0
M  V30 627 H 55.4957 -1.60346 5.28198 0
M  V30 628 H 57.9717 -2.28287 3.47885 0
M  V30 629 H 56.8477 -3.3729 4.33044 0
M  V30 630 H 57.1087 -3.57212 2.60484 0
M  V30 631 N 56.1678 -1.49265 -0.50573 0
M  V30 632 C 57.4138 -1.58748 -1.26202 0
M  V30 633 C 57.7468 -0.271227 -1.92297 0
M  V30 634 O 57.0218 0.724831 -1.80489 0
M  V30 635 C 57.3048 -2.74332 -2.33268 0
M  V30 636 C 57.1578 -4.15737 -1.71705 0
M  V30 637 C 58.4768 -2.85576 -3.34865 0
M  V30 638 H 55.5958 -0.577826 -0.457478 0
M  V30 639 H 58.2378 -1.81532 -0.560897 0
M  V30 640 H 56.3878 -2.55036 -2.93068 0
M  V30 641 H 58.0598 -4.46537 -1.15769 0
M  V30 642 H 56.3028 -4.21605 -1.02135 0
M  V30 643 H 56.9738 -4.92477 -2.49341 0
M  V30 644 H 59.4498 -3.03127 -2.8505 0
M  V30 645 H 58.3258 -3.68135 -4.07146 0
M  V30 646 H 58.5868 -1.94732 -3.96903 0
M  V30 647 N 57.6459 0.756429 -1.3826 0
M  V30 648 C 58.5939 1.89149 -1.35372 0
M  V30 649 C 59.5879 1.67691 -0.24004 0
M  V30 650 O 60.7939 1.75294 -0.408919 0
M  V30 651 H 57.1689 0.622271 -0.422236 0
M  V30 652 H 59.1399 1.88701 -2.31159 0
M  V30 653 C 57.8889 3.26599 -1.19284 0
M  V30 654 H 57.2119 3.43695 -2.0424 0
M  V30 655 H 58.6519 4.06274 -1.21316 0
M  V30 656 C 57.1109 3.3675 0.100454 0
M  V30 657 O 57.6409 3.86951 1.07851 0
M  V30 658 N 55.8469 2.90179 0.15633 0
M  V30 659 H 55.3939 2.49517 -0.640253 0
M  V30 660 H 55.3519 2.97352 1.02123 0
M  V30 661 N 59.124 1.23083 0.984299 0
M  V30 662 C 60.352 1.08714 1.76037 0
M  V30 663 C 60.767 -0.361691 1.85303 0
M  V30 664 O 60.124 -1.25034 1.32939 0
M  V30 665 C 60.175 1.70206 3.18923 0
M  V30 666 O 59.896 3.09423 3.10144 0
M  V30 667 C 61.397 1.61227 4.12941 0
M  V30 668 H 58.617 0.380664 0.552572 0
M  V30 669 H 61.161 1.62853 1.23689 0
M  V30 670 H 59.316 1.20109 3.6831 0
M  V30 671 H 59.73 3.39188 4.00065 0
M  V30 672 H 61.204 2.08962 5.10919 0
M  V30 673 H 61.681 0.570375 4.35481 0
M  V30 674 H 62.287 2.10671 3.69456 0
M  V30 675 N 60.6021 -1.18246 1.0419 0
M  V30 676 C 61.5491 -2.2192 0.634037 0
M  V30 677 C 62.5191 -1.62179 -0.358765 0
M  V30 678 O 63.7041 -1.89122 -0.252466 0
M  V30 679 C 60.8441 -3.451 0.00445535 0
M  V30 680 C 59.9571 -4.19174 1.04487 0
M  V30 681 C 59.0921 -5.29813 0.383676 0
M  V30 682 C 58.1311 -5.9566 1.4091 0
M  V30 683 N 57.2681 -6.97834 0.772784 0
M  V30 684 H 62.1081 -2.56164 1.52263 0
M  V30 685 H 59.6451 -1.25843 0.761701 0
M  V30 686 H 61.6031 -4.15485 -0.377919 0
M  V30 687 H 60.2331 -3.11472 -0.847652 0
M  V30 688 H 59.2851 -3.47604 1.54518 0
M  V30 689 H 60.5971 -4.64267 1.82368 0
M  V30 690 H 59.7511 -6.06677 -0.0528366 0
M  V30 691 H 58.4901 -4.85825 -0.427208 0
M  V30 692 H 57.4951 -5.17535 1.85574 0
M  V30 693 H 58.7201 -6.4173 2.22171 0
M  V30 694 H 56.6661 -6.55998 -0.0177708 0
M  V30 695 H 56.5831 -7.41186 1.48928 0
M  V30 696 H 57.8511 -7.78665 0.36071 0
M  V30 697 N 62.0802 -0.821533 -1.34494 0
M  V30 698 C 63.0132 -0.187704 -2.27427 0
M  V30 699 C 63.9912 0.65507 -1.48821 0
M  V30 700 O 65.1752 0.619111 -1.78043 0
M  V30 701 C 62.3022 0.737996 -3.30562 0
M  V30 702 C 61.3482 -0.0270713 -4.26491 0
M  V30 703 S 62.1812 -1.37329 -5.17592 0
M  V30 704 C 63.3372 -0.452427 -6.24263 0
M  V30 705 H 63.5702 -0.975598 -2.80837 0
M  V30 706 H 61.1032 -0.61736 -1.4152 0
M  V30 707 H 63.0612 1.26654 -3.90473 0
M  V30 708 H 61.7222 1.4994 -2.76001 0
M  V30 709 H 60.9152 0.6766 -4.99438 0
M  V30 710 H 60.5172 -0.48612 -3.70827 0
M  V30 711 H 62.8092 0.356557 -6.76561 0
M  V30 712 H 63.7522 -1.15153 -6.98674 0
M  V30 713 H 64.1602 -0.0414755 -5.64485 0
M  V30 714 N 63.5583 1.46682 -0.576371 0
M  V30 715 C 64.8053 2.02412 -0.0595339 0
M  V30 716 C 65.1333 1.44859 1.29793 0
M  V30 717 O 64.3883 0.601099 1.8624 0
M  V30 718 C 64.6873 3.57345 0.062886 0
M  V30 719 C 64.3533 4.33908 -1.22616 0
M  V30 720 C 63.0153 4.54544 -1.57933 0
M  V30 721 C 65.3673 4.77919 -2.07948 0
M  V30 722 C 62.6953 5.16444 -2.78393 0
M  V30 723 C 65.0473 5.41149 -3.27629 0
M  V30 724 C 63.7113 5.60014 -3.63236 0
M  V30 725 H 62.9813 0.74068 -0.021785 0
M  V30 726 H 65.6283 1.76128 -0.751735 0
M  V30 727 H 63.9333 3.82729 0.838178 0
M  V30 728 H 65.6303 3.98136 0.478439 0
M  V30 729 H 62.2203 4.18138 -0.941202 0
M  V30 730 H 66.4043 4.61738 -1.81967 0
M  V30 731 H 61.6603 5.29242 -3.06126 0
M  V30 732 H 65.8343 5.74211 -3.94023 0
M  V30 733 H 63.4613 6.07748 -4.56669 0
M  V30 734 N 65.0364 0.313813 1.54444 0
M  V30 735 C 65.9464 -0.565714 2.27677 0
M  V30 736 C 66.9624 -1.13754 1.31666 0
M  V30 737 O 68.1384 -1.15959 1.64668 0
M  V30 738 C 65.2034 -1.71528 3.01296 0
M  V30 739 C 64.2644 -1.17624 4.12872 0
M  V30 740 C 63.4974 -2.27102 4.8297 0
M  V30 741 O 63.7204 -3.47256 4.52514 0
M  V30 742 O 62.6544 -1.9307 5.70094 0
M  V30 743 H 66.4804 0.0287296 3.03686 0
M  V30 744 H 64.0654 0.0798312 1.49187 0
M  V30 745 H 65.9474 -2.38476 3.4743 0
M  V30 746 H 64.6224 -2.29608 2.2817 0
M  V30 747 H 63.5294 -0.472124 3.71109 0
M  V30 748 H 64.8624 -0.640695 4.88012 0
M  V30 749 N 66.5145 -1.57545 0.0417849 0
M  V30 750 C 67.4245 -2.14451 -0.951213 0
M  V30 751 C 68.4405 -1.09992 -1.34825 0
M  V30 752 O 69.6165 -1.42114 -1.42708 0
M  V30 753 C 66.6815 -2.67063 -2.21084 0
M  V30 754 C 65.7425 -3.86284 -1.87304 0
M  V30 755 C 64.9755 -4.36378 -3.07261 0
M  V30 756 O 65.1985 -3.85587 -4.20332 0
M  V30 757 O 64.1325 -5.28077 -2.88822 0
M  V30 758 H 67.9585 -2.99601 -0.497287 0
M  V30 759 H 65.5435 -1.48317 -0.179567 0
M  V30 760 H 67.4255 -3.00914 -2.95006 0
M  V30 761 H 66.1005 -1.84989 -2.65633 0
M  V30 762 H 65.0075 -3.57338 -1.10727 0
M  V30 763 H 66.3405 -4.6956 -1.47562 0
M  V30 764 N 67.9926 0.231505 -1.5589 0
M  V30 765 C 68.9226 1.29022 -1.94617 0
M  V30 766 C 69.9036 1.4941 -0.813067 0
M  V30 767 O 71.0886 1.6176 -1.07459 0
M  V30 768 C 68.2186 2.64199 -2.25424 0
M  V30 769 C 67.1726 2.58484 -3.41131 0
M  V30 770 C 66.4986 3.97599 -3.57518 0
M  V30 771 C 67.7986 2.1413 -4.76388 0
M  V30 772 H 69.4926 0.968563 -2.83301 0
M  V30 773 H 67.0386 0.464479 -1.36303 0
M  V30 774 H 68.9916 3.38413 -2.51107 0
M  V30 775 H 67.7156 2.98032 -1.33583 0
M  V30 776 H 66.3746 1.86727 -3.15481 0
M  V30 777 H 66.0226 4.28723 -2.6307 0
M  V30 778 H 65.7226 3.94659 -4.35337 0
M  V30 779 H 67.2466 4.7349 -3.85538 0
M  V30 780 H 68.6606 2.78083 -5.01341 0
M  V30 781 H 67.0576 2.2227 -5.57419 0
M  V30 782 H 68.1276 1.09331 -4.72414 0
M  V30 783 N 69.4707 1.49531 0.497807 0
M  V30 784 C 70.4177 1.66436 1.59899 0
M  V30 785 C 71.3877 0.505793 1.58212 0
M  V30 786 O 72.5727 0.733202 1.7615 0
M  V30 787 C 69.7127 1.7399 2.98029 0
M  V30 788 C 68.8257 3.01172 3.09708 0
M  V30 789 C 67.9607 2.99686 4.38591 0
M  V30 790 C 66.9997 4.21434 4.43914 0
M  V30 791 N 66.1367 4.1784 5.64229 0
M  V30 792 H 70.9767 2.60459 1.44793 0
M  V30 793 H 68.5137 1.29137 0.704423 0
M  V30 794 H 70.4717 1.76352 3.78095 0
M  V30 795 H 69.1017 0.834301 3.11832 0
M  V30 796 H 68.1537 3.08408 2.22685 0
M  V30 797 H 69.4657 3.91165 3.09502 0
M  V30 798 H 68.6197 3.00628 5.2698 0
M  V30 799 H 67.3587 2.07477 4.41367 0
M  V30 800 H 66.3637 4.20733 3.53926 0
M  V30 801 H 67.5887 5.14839 4.42851 0
M  V30 802 H 65.5347 3.28469 5.67841 0
M  V30 803 H 65.4517 5.01571 5.65652 0
M  V30 804 H 66.7197 4.22889 6.54817 0
M  V30 805 N 70.9488 -0.749086 1.3866 0
M  V30 806 C 72.1738 -1.54344 1.38538 0
M  V30 807 C 72.5988 -1.88088 -0.0216655 0
M  V30 808 O 71.9568 -1.50899 -1.00494 0
M  V30 809 C 72.0048 -2.8164 2.25192 0
M  V30 810 O 71.1088 -3.7698 1.67212 0
M  V30 811 H 70.4498 -0.466654 0.472367 0
M  V30 812 H 72.9798 -0.925355 1.82478 0
M  V30 813 H 72.9898 -3.30519 2.3921 0
M  V30 814 H 71.6648 -2.56411 3.27454 0
M  V30 815 H 70.2418 -3.35699 1.6236 0
M  V30 816 N 72.4269 -1.23603 -0.977757 0
M  V30 817 C 73.8429 -0.999251 -1.24447 0
M  V30 818 C 74.0429 0.298053 -1.99283 0
M  V30 819 O 73.0989 1.01681 -2.31122 0
M  V30 820 C 74.4119 -2.20784 -2.04144 0
M  V30 821 C 75.9599 -2.25303 -2.17273 0
M  V30 822 C 76.4349 -3.45755 -3.00362 0
M  V30 823 N 77.9259 -3.4601 -3.07947 0
M  V30 824 C 78.6609 -4.35868 -3.72568 0
M  V30 825 N 78.1569 -5.35966 -4.38991 0
M  V30 826 N 79.9499 -4.23605 -3.6948 0
M  V30 827 H 72.1009 -2.06986 -0.476483 0
M  V30 828 H 74.3639 -0.907801 -0.273134 0
M  V30 829 H 74.0699 -3.14945 -1.56533 0
M  V30 830 H 73.9439 -2.22085 -3.04891 0
M  V30 831 H 76.3309 -1.3168 -2.64092 0
M  V30 832 H 76.4119 -2.28033 -1.15907 0
M  V30 833 H 76.0559 -4.39687 -2.5424 0
M  V30 834 H 75.9859 -3.40266 -4.01904 0
M  V30 835 H 78.4769 -2.73588 -2.60688 0
M  V30 836 H 78.7899 -6.00783 -4.86086 0
M  V30 837 H 77.1349 -5.39863 -4.37691 0
M  V30 838 H 80.3259 -3.44647 -3.16759 0
M  V30 839 H 80.4989 -4.93836 -4.1956 0
M  V30 840 N 73.905 1.17692 -1.04816 0
M  V30 841 C 74.835 2.23777 -0.666791 0
M  V30 842 C 75.816 1.66796 0.33361 0
M  V30 843 O 77.001 1.93039 0.212042 0
M  V30 844 C 74.131 3.47281 -0.0367933 0
M  V30 845 C 73.085 4.17059 -0.961546 0
M  V30 846 C 72.411 5.34342 -0.195626 0
M  V30 847 C 73.711 4.69713 -2.28402 0
M  V30 848 H 75.405 2.55933 -1.55367 0
M  V30 849 H 72.951 1.23019 -0.748484 0
M  V30 850 H 74.904 4.20706 0.241775 0
M  V30 851 H 73.628 3.14381 0.885004 0
M  V30 852 H 72.287 3.45541 -1.22462 0
M  V30 853 H 71.935 4.97692 0.728816 0
M  V30 854 H 71.635 5.81966 -0.811775 0
M  V30 855 H 73.159 6.10553 0.0757473 0
M  V30 856 H 74.573 5.34794 -2.06563 0
M  V30 857 H 72.97 5.279 -2.8538 0
M  V30 858 H 74.04 3.86726 -2.92525 0
M  V30 859 N 75.3831 0.828654 1.34056 0
M  V30 860 C 76.6601 0.341809 1.9259 0
M  V30 861 C 77.0401 -1.17158 1.75605 0
M  V30 862 O 76.3881 -1.98132 1.13824 0
M  V30 863 C 76.5981 0.777453 3.4023 0
M  V30 864 C 77.9461 0.779579 4.17382 0
M  V30 865 O 78.9701 0.7204 3.48839 0
M  V30 866 O 77.8291 0.857996 5.39723 0
M  V30 867 H 74.9231 0.0946085 0.821571 0
M  V30 868 H 77.4691 0.913827 1.42994 0
M  V30 869 H 76.2411 1.8196 3.46419 0
M  V30 870 H 75.8641 0.181444 3.97186 0
M  V30 871 N 76.8612 -1.46375 0.584142 0
M  V30 872 C 78.0892 -2.06761 0.0759296 0
M  V30 873 C 78.5042 -1.43266 -1.22965 0
M  V30 874 O 77.8612 -0.538458 -1.74376 0
M  V30 875 C 77.9122 -3.61375 -0.0950384 0
M  V30 876 O 77.6332 -4.22495 1.15887 0
M  V30 877 C 79.1342 -4.38693 -0.637434 0
M  V30 878 H 76.3542 -0.668479 0.0581075 0
M  V30 879 H 78.8982 -1.8798 0.805218 0
M  V30 880 H 77.0532 -3.79578 -0.774554 0
M  V30 881 H 77.4672 -5.15385 0.973598 0
M  V30 882 H 78.9412 -5.47464 -0.706237 0
M  V30 883 H 79.4182 -4.06836 -1.65472 0
M  V30 884 H 80.0242 -4.25299 0.00725967 0
M  V30 885 N 78.3393 -0.321999 -1.54275 0
M  V30 886 C 79.2693 0.537411 -2.27231 0
M  V30 887 C 80.2503 1.12064 -1.27968 0
M  V30 888 O 81.4353 1.14606 -1.56777 0
M  V30 889 C 78.5653 1.69919 -3.02894 0
M  V30 890 C 77.5193 1.24534 -4.09482 0
M  V30 891 C 76.8453 2.49394 -4.72977 0
M  V30 892 C 78.1453 0.361335 -5.21049 0
M  V30 893 H 79.8393 -0.0711406 -2.99315 0
M  V30 894 H 77.3853 -0.0356555 -1.43956 0
M  V30 895 H 79.3383 2.30668 -3.52662 0
M  V30 896 H 78.0623 2.33431 -2.28424 0
M  V30 897 H 76.7213 0.660782 -3.60596 0
M  V30 898 H 76.3693 3.11265 -3.95124 0
M  V30 899 H 76.0693 2.19718 -5.44975 0
M  V30 900 H 77.5933 3.10908 -5.25517 0
M  V30 901 H 79.0073 0.875072 -5.66582 0
M  V30 902 H 77.4043 0.157428 -5.99893 0
M  V30 903 H 78.4743 -0.60822 -4.8107 0
M  V30 904 N 79.8174 1.5752 -0.0501392 0
M  V30 905 C 80.7804 2.1037 0.909786 0
M  V30 906 C 81.7804 1.02308 1.24056 0
M  V30 907 O 82.9704 1.28385 1.17741 0
M  V30 908 C 80.1024 2.58708 2.21998 0
M  V30 909 H 81.2954 2.96479 0.451665 0
M  V30 910 H 78.8484 1.55038 0.198248 0
M  V30 911 H 79.5834 1.75989 2.72394 0
M  V30 912 H 79.3684 3.37675 1.99295 0
M  V30 913 H 80.8584 2.99747 2.9076 0
M  V30 914 N 81.2955 -0.223234 1.56011 0
M  V30 915 C 82.2275 -1.30006 1.88762 0
M  V30 916 C 83.2405 -1.43129 0.775746 0
M  V30 917 O 84.4295 -1.44057 1.05403 0
M  V30 918 C 81.5295 -2.67589 2.07965 0
M  V30 919 C 80.7025 -2.76434 3.38973 0
M  V30 920 C 79.7615 -3.95019 3.47629 0
M  V30 921 O 78.7875 -3.83436 4.20672 0
M  V30 922 N 79.9895 -5.09249 2.78649 0
M  V30 923 H 82.7545 -1.02238 2.81722 0
M  V30 924 H 80.3155 -0.413278 1.56536 0
M  V30 925 H 82.3075 -3.45297 2.11073 0
M  V30 926 H 80.8775 -2.87964 1.21638 0
M  V30 927 H 80.0975 -1.85216 3.47978 0
M  V30 928 H 81.3855 -2.79313 4.25278 0
M  V30 929 H 80.7835 -5.21556 2.19081 0
M  V30 930 H 79.3405 -5.85007 2.8742 0
M  V30 931 N 82.7736 -1.49793 -0.48987 0
M  V30 932 C 83.6836 -1.70036 -1.61632 0
M  V30 933 C 84.6996 -0.583102 -1.63939 0
M  V30 934 O 85.8756 -0.859169 -1.82154 0
M  V30 935 C 82.9406 -1.77277 -2.97949 0
M  V30 936 C 82.0016 -3.00918 -3.06181 0
M  V30 937 C 81.2346 -3.07804 -4.35996 0
M  V30 938 O 81.4576 -2.21982 -5.25433 0
M  V30 939 O 80.3916 -4.00369 -4.49431 0
M  V30 940 H 84.2176 -2.65486 -1.47482 0
M  V30 941 H 81.8026 -1.33666 -0.667362 0
M  V30 942 H 83.6846 -1.84329 -3.78947 0
M  V30 943 H 82.3596 -0.850076 -3.12339 0
M  V30 944 H 81.2666 -2.99377 -2.2433 0
M  V30 945 H 82.5996 -3.92704 -2.96723 0
M  V30 946 N 84.2517 0.741722 -1.39055 0
M  V30 947 C 85.4977 1.50336 -1.36113 0
M  V30 948 C 85.8307 1.94148 0.0450796 0
M  V30 949 O 85.1057 1.66301 1.00868 0
M  V30 950 C 85.3887 2.74773 -2.32749 0
M  V30 951 C 85.2417 2.37023 -3.82283 0
M  V30 952 C 86.5607 3.76846 -2.27322 0
M  V30 953 H 83.6797 0.545351 -0.495743 0
M  V30 954 H 86.3217 0.848624 -1.69995 0
M  V30 955 H 84.4717 3.30639 -2.03986 0
M  V30 956 H 86.1437 1.8684 -4.21768 0
M  V30 957 H 84.3867 1.69334 -3.99385 0
M  V30 958 H 85.0577 3.26104 -4.45376 0
M  V30 959 H 87.5337 3.30548 -2.5274 0
M  V30 960 H 86.4097 4.6159 -2.97028 0
M  V30 961 H 86.6707 4.23286 -1.27599 0
M  V30 962 N 85.7298 1.2412 0.971189 0
M  V30 963 C 86.6928 1.03156 2.04674 0
M  V30 964 C 87.6928 -0.00990322 1.60797 0
M  V30 965 O 88.8828 0.230729 1.72665 0
M  V30 966 C 86.0148 0.562765 3.36223 0
M  V30 967 H 87.2078 1.98614 2.24705 0
M  V30 968 H 84.7608 1.06293 1.14593 0
M  V30 969 H 85.4958 -0.395176 3.21883 0
M  V30 970 H 85.2808 1.31441 3.69413 0
M  V30 971 H 86.7708 0.437015 4.15307 0
M  V30 972 N 87.2079 -1.17134 1.05439 0
M  V30 973 C 88.1379 -2.2342 0.678649 0
M  V30 974 C 89.1189 -1.66971 -0.32476 0
M  V30 975 O 90.3039 -1.93149 -0.201802 0
M  V30 976 C 87.4339 -3.47256 0.0552099 0
M  V30 977 C 86.3879 -4.16543 0.98365 0
M  V30 978 C 85.7139 -5.34231 0.223961 0
M  V30 979 C 87.0139 -4.68495 2.3089 0
M  V30 980 H 88.7079 -2.55105 1.56722 0
M  V30 981 H 86.2539 -1.2262 0.754998 0
M  V30 982 H 88.2069 -4.20828 -0.21946 0
M  V30 983 H 86.9309 -3.14846 -0.868319 0
M  V30 984 H 85.5899 -3.44887 1.24293 0
M  V30 985 H 85.2379 -4.98071 -0.702412 0
M  V30 986 H 84.9379 -5.81527 0.842627 0
M  V30 987 H 86.4619 -6.10585 -0.0433671 0
M  V30 988 H 87.8759 -5.33691 2.09396 0
M  V30 989 H 86.2729 -5.26379 2.88176 0
M  V30 990 H 87.3429 -3.85169 2.94572 0
M  V30 991 N 88.686 -0.835752 -1.33615 0
M  V30 992 C 89.616 -0.281739 -2.31794 0
M  V30 993 C 90.597 0.608833 -1.58831 0
M  V30 994 O 91.782 0.533035 -1.86741 0
M  V30 995 C 88.912 0.546612 -3.42971 0
M  V30 996 C 87.866 -0.247904 -4.27281 0
M  V30 997 C 87.192 0.704001 -5.30045 0
M  V30 998 C 88.492 -1.46324 -5.01385 0
M  V30 999 H 90.186 -1.10206 -2.78379 0
M  V30 1000 H 87.732 -0.531388 -1.33837 0
M  V30 1001 H 89.685 0.944467 -4.1068 0
M  V30 1002 H 88.409 1.40011 -2.95067 0
M  V30 1003 H 87.068 -0.627281 -3.61194 0
M  V30 1004 H 86.716 1.55381 -4.78399 0
M  V30 1005 H 86.416 0.176524 -5.87335 0
M  V30 1006 H 87.94 1.09944 -6.0062 0
M  V30 1007 H 89.354 -1.13871 -5.61877 0
M  V30 1008 H 87.751 -1.92728 -5.6831 0
M  V30 1009 H 88.821 -2.23467 -4.30338 0
M  V30 1010 N 90.1641 1.46063 -0.591896 0
M  V30 1011 C 91.1111 2.30399 0.136069 0
M  V30 1012 C 92.0811 1.41169 0.875238 0
M  V30 1013 O 93.2661 1.70112 0.86409 0
M  V30 1014 C 90.4061 3.25804 1.13781 0
M  V30 1015 C 89.5191 4.30134 0.401137 0
M  V30 1016 C 88.6541 5.12659 1.39121 0
M  V30 1017 C 87.6931 6.0873 0.641462 0
M  V30 1018 N 86.8301 6.8409 1.58004 0
M  V30 1019 H 91.6701 2.92118 -0.589144 0
M  V30 1020 H 89.2071 1.43959 -0.302342 0
M  V30 1021 H 91.1651 3.79569 1.73156 0
M  V30 1022 H 89.7951 2.65872 1.83062 0
M  V30 1023 H 88.8471 3.79152 -0.307826 0
M  V30 1024 H 90.1591 4.98458 -0.184565 0
M  V30 1025 H 89.3131 5.70747 2.05749 0
M  V30 1026 H 88.0521 4.44316 2.01084 0
M  V30 1027 H 87.0571 5.49786 -0.0385419 0
M  V30 1028 H 88.2821 6.79095 0.0270945 0
M  V30 1029 H 86.2281 6.18449 2.18761 0
M  V30 1030 H 86.1451 7.48709 1.04738 0
M  V30 1031 H 87.4131 7.4673 2.23639 0
M  V30 1032 N 91.6422 0.330177 1.54103 0
M  V30 1033 C 92.5522 -0.541534 2.28264 0
M  V30 1034 C 93.5682 -1.12351 1.32866 0
M  V30 1035 O 94.7442 -1.14206 1.65888 0
M  V30 1036 C 91.8092 -1.68322 3.03098 0
M  V30 1037 C 90.8702 -1.13238 4.14096 0
M  V30 1038 C 90.1032 -2.21966 4.85352 0
M  V30 1039 O 90.3262 -3.42437 4.56172 0
M  V30 1040 O 89.2602 -1.87013 5.7211 0
M  V30 1041 H 93.0862 0.060938 3.03639 0
M  V30 1042 H 90.6712 0.09565 1.49093 0
M  V30 1043 H 92.5532 -2.34777 3.49939 0
M  V30 1044 H 91.2282 -2.27176 2.30593 0
M  V30 1045 H 90.1352 -0.432736 3.71589 0
M  V30 1046 H 91.4682 -0.588898 4.88664 0
M  V30 1047 N 93.1203 -1.57491 0.0584922 0
M  V30 1048 C 94.0523 -2.08916 -0.942694 0
M  V30 1049 C 95.0653 -1.0185 -1.27006 0
M  V30 1050 O 96.2543 -1.29398 -1.22957 0
M  V30 1051 C 93.3543 -2.52341 -2.26224 0
M  V30 1052 C 92.5273 -3.82827 -2.1157 0
M  V30 1053 C 91.5863 -4.12487 -3.26712 0
M  V30 1054 O 90.6123 -4.82295 -3.02292 0
M  V30 1055 N 91.8143 -3.64978 -4.5141 0
M  V30 1056 H 94.5793 -2.95437 -0.503722 0
M  V30 1057 H 92.1403 -1.61397 -0.12757 0
M  V30 1058 H 94.1323 -2.69254 -3.02133 0
M  V30 1059 H 92.7023 -1.7103 -2.61663 0
M  V30 1060 H 91.9223 -3.75425 -1.20208 0
M  V30 1061 H 93.2103 -4.68263 -1.99015 0
M  V30 1062 H 92.6083 -3.08558 -4.7414 0
M  V30 1063 H 91.1653 -3.87115 -5.2439 0
M  V30 1064 N 94.5984 0.214957 -1.56127 0
M  V30 1065 C 95.5304 1.29004 -1.89448 0
M  V30 1066 C 96.5434 1.42716 -0.783326 0
M  V30 1067 O 97.7324 1.43496 -1.06166 0
M  V30 1068 C 94.8324 2.66482 -2.09381 0
M  V30 1069 C 94.0054 2.74633 -3.40434 0
M  V30 1070 C 93.0644 3.9317 -3.49719 0
M  V30 1071 O 92.0904 3.812 -4.227 0
M  V30 1072 N 93.2924 5.07765 -2.81346 0
M  V30 1073 H 96.0574 1.00743 -2.82261 0
M  V30 1074 H 93.6184 0.40497 -1.56753 0
M  V30 1075 H 95.6104 3.44173 -2.12901 0
M  V30 1076 H 94.1804 2.87314 -1.23163 0
M  V30 1077 H 93.4004 1.83368 -3.48955 0
M  V30 1078 H 94.6884 2.77054 -4.26754 0
M  V30 1079 H 94.0864 5.20386 -2.21843 0
M  V30 1080 H 92.6434 5.83474 -2.90519 0
M  V30 1081 N 96.0765 1.50051 0.48192 0
M  V30 1082 C 97.0395 1.67584 1.5636 0
M  V30 1083 C 98.0395 0.546894 1.51214 0
M  V30 1084 O 99.2295 0.813725 1.54026 0
M  V30 1085 C 96.3615 1.691 2.96003 0
M  V30 1086 H 97.5545 2.64078 1.42136 0
M  V30 1087 H 95.1075 1.39369 0.707533 0
M  V30 1088 H 95.8425 0.742589 3.15684 0
M  V30 1089 H 95.6275 2.51105 3.01146 0
M  V30 1090 H 97.1175 1.84656 3.74556 0
M  V30 1091 N 97.5546 -0.734337 1.39446 0
M  V30 1092 C 98.4846 -1.86155 1.40955 0
M  V30 1093 C 99.4656 -1.67898 0.272827 0
M  V30 1094 O 100.651 -1.88207 0.478743 0
M  V30 1095 C 97.7806 -3.23912 1.25294 0
M  V30 1096 C 96.7346 -3.56808 2.36373 0
M  V30 1097 C 96.0606 -4.93508 2.058 0
M  V30 1098 C 97.3606 -3.59713 3.78687 0
M  V30 1099 H 99.0546 -1.8515 2.35287 0
M  V30 1100 H 96.6006 -0.889367 1.13253 0
M  V30 1101 H 98.5536 -4.02443 1.2497 0
M  V30 1102 H 97.2776 -3.25446 0.274308 0
M  V30 1103 H 95.9366 -2.80606 2.35914 0
M  V30 1104 H 95.5846 -4.91623 1.06374 0
M  V30 1105 H 95.2846 -5.16486 2.80208 0
M  V30 1106 H 96.8086 -5.74396 2.07128 0
M  V30 1107 H 98.2226 -4.2832 3.81071 0
M  V30 1108 H 96.6196 -3.94209 4.52459 0
M  V30 1109 H 97.6896 -2.59504 4.09617 0
M  V30 1110 N 99.0327 -1.24633 -0.964593 0
M  V30 1111 C 99.9647 -0.999302 -2.06268 0
M  V30 1112 C 100.978 0.0323226 -1.62768 0
M  V30 1113 O 102.167 -0.205079 -1.77318 0
M  V30 1114 C 99.2667 -0.486816 -3.35385 0
M  V30 1115 C 98.4397 -1.5823 -4.07777 0
M  V30 1116 C 97.4987 -1.07191 -5.15166 0
M  V30 1117 O 96.5247 -1.76426 -5.41168 0
M  V30 1118 N 97.7267 0.0920373 -5.80427 0
M  V30 1119 H 100.492 -1.94477 -2.28033 0
M  V30 1120 H 98.0527 -1.15704 -1.13244 0
M  V30 1121 H 100.045 -0.130066 -4.04491 0
M  V30 1122 H 98.6147 0.364459 -3.10468 0
M  V30 1123 H 97.8347 -2.11109 -3.32906 0
M  V30 1124 H 99.1227 -2.31854 -4.52903 0
M  V30 1125 H 98.5207 0.670784 -5.61709 0
M  V30 1126 H 97.0777 0.389905 -6.50633 0
M  V30 1127 N 100.511 1.16574 -1.06058 0
M  V30 1128 C 101.739 1.90952 -0.796552 0
M  V30 1129 C 102.154 1.77302 0.648808 0
M  V30 1130 O 101.511 1.11605 1.44397 0
M  V30 1131 C 101.562 3.41736 -1.17894 0
M  V30 1132 O 101.283 3.54975 -2.56758 0
M  V30 1133 C 102.784 4.33169 -0.942308 0
M  V30 1134 H 100.004 0.605594 -0.288959 0
M  V30 1135 H 102.548 1.47777 -1.41358 0
M  V30 1136 H 100.703 3.82623 -0.606491 0
M  V30 1137 H 101.117 4.4846 -2.72 0
M  V30 1138 H 102.591 5.37439 -1.25952 0
M  V30 1139 H 103.068 4.3903 0.122078 0
M  V30 1140 H 103.674 3.98007 -1.49902 0
M  V30 1141 N 101.989 0.842826 1.3317 0
M  V30 1142 C 103.235 0.441099 1.97945 0
M  V30 1143 C 103.568 -0.998024 1.66593 0
M  V30 1144 O 102.843 -1.69839 0.947898 0
M  V30 1145 C 103.126 0.666841 3.53872 0
M  V30 1146 C 102.979 2.15352 3.94897 0
M  V30 1147 C 104.298 0.115544 4.39948 0
M  V30 1148 H 101.417 0.161739 0.719034 0
M  V30 1149 H 104.059 1.05907 1.57746 0
M  V30 1150 H 102.209 0.140828 3.88245 0
M  V30 1151 H 103.881 2.7447 3.70761 0
M  V30 1152 H 102.124 2.63653 3.44484 0
M  V30 1153 H 102.795 2.26221 5.03516 0
M  V30 1154 H 105.271 0.565213 4.12243 0
M  V30 1155 H 104.147 0.303152 5.48062 0
M  V30 1156 H 104.408 -0.980935 4.3108 0
M  V30 1157 N 103.467 -1.45747 0.599634 0
M  V30 1158 C 104.707 -2.04181 0.0946309 0
M  V30 1159 C 105.071 -1.45895 -1.24815 0
M  V30 1160 O 106.272 -1.95633 -1.8434 0
M  V30 1161 C 104.543 -3.57368 0.047581 0
M  V30 1162 S 106.102 -4.36997 -0.397387 0
M  V30 1163 H 102.92 -0.70953 0.0456954 0
M  V30 1164 H 105.522 -1.78564 0.795946 0
M  V30 1165 H 104.226 -3.97303 1.02852 0
M  V30 1166 H 103.757 -3.87549 -0.675977 0
M  V30 1167 H 105.772 -4.68012 -1.64862 0
M  V30 1168 N 104.945 -0.338344 -1.53925 0
M  V30 1169 C 105.875 0.51328 -2.27789 0
M  V30 1170 C 106.856 1.107 -1.29149 0
M  V30 1171 O 108.041 1.12937 -1.57984 0
M  V30 1172 C 105.171 1.66697 -3.04679 0
M  V30 1173 C 104.125 1.20183 -4.1078 0
M  V30 1174 C 103.451 2.44363 -4.75595 0
M  V30 1175 C 104.751 0.30605 -5.21403 0
M  V30 1176 H 106.445 -0.102883 -2.99223 0
M  V30 1177 H 103.991 -0.0509219 -1.4391 0
M  V30 1178 H 105.944 2.26915 -3.55088 0
M  V30 1179 H 104.668 2.30995 -2.30887 0
M  V30 1180 H 103.327 0.622499 -3.61276 0
M  V30 1181 H 102.975 3.07057 -3.98403 0
M  V30 1182 H 102.675 2.13925 -5.47275 0
M  V30 1183 H 104.199 3.05317 -5.28786 0
M  V30 1184 H 105.613 0.814929 -5.67478 0
M  V30 1185 H 104.01 0.0937929 -6.00027 0
M  V30 1186 H 105.08 -0.65921 -4.80398 0
M  V30 1187 N 106.423 1.57458 -0.0668435 0
M  V30 1188 C 107.37 2.12439 0.902122 0
M  V30 1189 C 108.34 1.03565 1.2986 0
M  V30 1190 O 109.525 1.312 1.38532 0
M  V30 1191 C 106.665 2.6865 2.16614 0
M  V30 1192 C 105.778 3.91663 1.82274 0
M  V30 1193 C 104.913 4.36134 3.0325 0
M  V30 1194 C 103.952 5.51808 2.64904 0
M  V30 1195 N 103.089 5.9126 3.78624 0
M  V30 1196 H 107.929 2.94934 0.426382 0
M  V30 1197 H 105.466 1.4575 0.198819 0
M  V30 1198 H 107.424 2.99346 2.90599 0
M  V30 1199 H 106.054 1.88928 2.61737 0
M  V30 1200 H 105.106 3.6746 0.983719 0
M  V30 1201 H 106.418 4.75693 1.50059 0
M  V30 1202 H 105.572 4.68465 3.85519 0
M  V30 1203 H 104.311 3.50948 3.38655 0
M  V30 1204 H 103.316 5.19133 1.81055 0
M  V30 1205 H 104.541 6.38722 2.30675 0
M  V30 1206 H 102.487 5.09024 4.138 0
M  V30 1207 H 102.404 6.70018 3.5016 0
M  V30 1208 H 103.672 6.28212 4.61486 0
M  V30 1209 N 107.901 -0.206675 1.56239 0
M  V30 1210 C 109.149 -0.927007 1.79586 0
M  V30 1211 C 109.47 -1.8427 0.637929 0
M  V30 1212 O 108.74 -1.92849 -0.344398 0
M  V30 1213 H 107.32 -0.345292 0.662407 0
M  V30 1214 H 109.982 -0.21496 1.93711 0
M  V30 1215 H 109.078 -1.52501 2.72305 0
M  V30 1216 N 109.379 -1.50304 -0.473955 0
M  V30 1217 C 110.607 -1.64902 -1.24959 0
M  V30 1218 C 111.022 -0.331198 -1.85872 0
M  V30 1219 O 110.379 0.68652 -1.69095 0
M  V30 1220 C 110.43 -2.73803 -2.36038 0
M  V30 1221 O 110.151 -4.00477 -1.77624 0
M  V30 1222 C 111.652 -2.99349 -3.26964 0
M  V30 1223 H 108.872 -0.554383 -0.378022 0
M  V30 1224 H 111.416 -1.9651 -0.566054 0
M  V30 1225 H 109.571 -2.44898 -3.00173 0
M  V30 1226 H 109.985 -4.60678 -2.5075 0
M  V30 1227 H 111.459 -3.79217 -4.01121 0
M  V30 1228 H 111.936 -2.10307 -3.85574 0
M  V30 1229 H 112.542 -3.29774 -2.68569 0
M  V30 1230 N 110.857 0.726932 -1.39834 0
M  V30 1231 C 111.804 1.841 -1.39197 0
M  V30 1232 C 112.774 1.642 -0.250502 0
M  V30 1233 O 113.959 1.85494 -0.446846 0
M  V30 1234 C 111.099 3.21697 -1.24919 0
M  V30 1235 C 110.212 3.53247 -2.48678 0
M  V30 1236 C 109.347 4.80289 -2.26928 0
M  V30 1237 C 108.386 5.04707 -3.4632 0
M  V30 1238 N 107.523 6.22956 -3.23836 0
M  V30 1239 H 112.363 1.83979 -2.34427 0
M  V30 1240 H 109.9 0.898876 -1.16442 0
M  V30 1241 H 111.858 4.01137 -1.1465 0
M  V30 1242 H 110.488 3.21076 -0.333153 0
M  V30 1243 H 109.54 2.68447 -2.69519 0
M  V30 1244 H 110.852 3.67205 -3.37582 0
M  V30 1245 H 110.006 5.67725 -2.13947 0
M  V30 1246 H 108.745 4.68519 -1.35431 0
M  V30 1247 H 107.75 4.1573 -3.5979 0
M  V30 1248 H 108.975 5.18357 -4.38729 0
M  V30 1249 H 106.921 6.12459 -2.35011 0
M  V30 1250 H 106.838 6.37539 -4.063 0
M  V30 1251 H 108.106 7.1321 -3.14566 0
M  V30 1252 N 112.336 1.25143 0.95797 0
M  V30 1253 C 113.582 1.09855 1.70469 0
M  V30 1254 C 113.915 -0.360187 1.90831 0
M  V30 1255 O 113.19 -1.26568 1.47685 0
M  V30 1256 C 113.473 1.8497 3.08963 0
M  V30 1257 C 113.326 3.38652 2.96032 0
M  V30 1258 C 114.645 1.63016 4.08795 0
M  V30 1259 H 111.764 0.400465 0.618706 0
M  V30 1260 H 114.406 1.53933 1.11376 0
M  V30 1261 H 112.556 1.47505 3.59409 0
M  V30 1262 H 114.228 3.85772 2.52938 0
M  V30 1263 H 112.471 3.66534 2.32025 0
M  V30 1264 H 113.142 3.8642 3.94187 0
M  V30 1265 H 115.618 1.95625 3.67247 0
M  V30 1266 H 114.494 2.18015 5.03747 0
M  V30 1267 H 114.755 0.570692 4.38401 0
M  V30 1268 N 113.814 -1.1601 1.06675 0
M  V30 1269 C 114.764 -2.18512 0.650888 0
M  V30 1270 C 115.748 -1.57677 -0.320441 0
M  V30 1271 O 116.94 -1.76482 -0.135266 0
M  V30 1272 C 114.069 -3.43273 0.0429255 0
M  V30 1273 C 113.155 -4.11176 1.03898 0
M  V30 1274 N 113.546 -4.54672 2.216 0
M  V30 1275 C 111.844 -4.37417 0.870779 0
M  V30 1276 C 112.545 -5.07248 2.84736 0
M  V30 1277 N 111.521 -5.0037 2.12441 0
M  V30 1278 H 115.323 -2.49863 1.54745 0
M  V30 1279 H 112.837 -1.32503 0.938975 0
M  V30 1280 H 114.834 -4.16006 -0.272857 0
M  V30 1281 H 113.494 -3.13408 -0.84884 0
M  V30 1282 H 114.505 -4.4828 2.59356 0
M  V30 1283 H 111.182 -4.17488 0.0313293 0
M  V30 1284 H 112.572 -5.50912 3.84636 0
M  V30 1285 N 115.292 -0.849877 -1.32721 0
M  V30 1286 C 116.225 -0.235903 -2.26977 0
M  V30 1287 C 117.203 0.623355 -1.50177 0
M  V30 1288 O 118.387 0.581207 -1.79316 0
M  V30 1289 C 115.514 0.667712 -3.32053 0
M  V30 1290 C 114.56 -0.11753 -4.26338 0
M  V30 1291 S 115.393 -1.48277 -5.14562 0
M  V30 1292 C 116.549 -0.584741 -6.23163 0
M  V30 1293 H 116.782 -1.03495 -2.78704 0
M  V30 1294 H 114.315 -0.64724 -1.40179 0
M  V30 1295 H 116.273 1.18343 -3.93072 0
M  V30 1296 H 114.934 1.44052 -2.7912 0
M  V30 1297 H 114.127 0.57051 -5.00761 0
M  V30 1298 H 113.729 -0.564668 -3.69713 0
M  V30 1299 H 116.021 0.212968 -6.77165 0
M  V30 1300 H 116.964 -1.29947 -6.96074 0
M  V30 1301 H 117.372 -0.161202 -5.6427 0
M  V30 1302 N 116.77 1.45427 -0.607355 0
M  V30 1303 C 117.717 2.3053 0.111625 0
M  V30 1304 C 118.687 1.4209 0.860216 0
M  V30 1305 O 119.872 1.71019 0.845998 0
M  V30 1306 C 117.012 3.26992 1.10319 0
M  V30 1307 C 116.125 4.30535 0.355493 0
M  V30 1308 C 115.26 5.14105 1.33676 0
M  V30 1309 C 114.299 6.09376 0.576862 0
M  V30 1310 N 113.436 6.85727 1.5074 0
M  V30 1311 H 118.276 2.91477 -0.620093 0
M  V30 1312 H 115.813 1.43631 -0.317594 0
M  V30 1313 H 117.771 3.81385 1.6912 0
M  V30 1314 H 116.401 2.67799 1.80232 0
M  V30 1315 H 115.453 3.78805 -0.348023 0
M  V30 1316 H 116.765 4.98235 -0.237423 0
M  V30 1317 H 115.919 5.72897 1.99684 0
M  V30 1318 H 114.658 4.46423 1.9636 0
M  V30 1319 H 113.663 5.49715 -0.0968519 0
M  V30 1320 H 114.888 6.79085 -0.0449341 0
M  V30 1321 H 112.834 6.20735 2.12189 0
M  V30 1322 H 112.751 7.49778 0.967913 0
M  V30 1323 H 114.019 7.4906 2.15706 0
M  V30 1324 N 118.248 0.346503 1.53744 0
M  V30 1325 C 119.488 -0.249413 2.02873 0
M  V30 1326 C 119.852 -1.47532 1.22876 0
M  V30 1327 O 121.053 -2.1456 1.61918 0
M  V30 1328 C 119.324 -0.552909 3.53097 0
M  V30 1329 S 120.883 -1.12521 4.24128 0
M  V30 1330 H 117.701 -0.074042 0.707134 0
M  V30 1331 H 120.303 0.48495 1.8939 0
M  V30 1332 H 119.007 0.347083 4.0893 0
M  V30 1333 H 118.538 -1.31686 3.70705 0
M  V30 1334 H 120.553 -2.41075 4.33702 0
M  V30 1335 N 119.726 -1.57421 0.075193 0
M  V30 1336 C 120.973 -1.93618 -0.593146 0
M  V30 1337 C 121.301 -0.955484 -1.69413 0
M  V30 1338 O 120.556 0.0283251 -1.9568 0
M  V30 1339 C 120.855 -3.36428 -1.20626 0
M  V30 1340 C 120.521 -4.50307 -0.231078 0
M  V30 1341 C 119.183 -4.81186 0.0371936 0
M  V30 1342 C 121.535 -5.19374 0.435888 0
M  V30 1343 C 118.863 -5.78466 0.979461 0
M  V30 1344 C 121.215 -6.17665 1.3665 0
M  V30 1345 C 119.879 -6.46958 1.6432 0
M  V30 1346 H 119.149 -0.708499 -0.217047 0
M  V30 1347 H 121.796 -1.90937 0.146793 0
M  V30 1348 H 120.101 -3.35592 -2.02201 0
M  V30 1349 H 121.798 -3.61727 -1.73073 0
M  V30 1350 H 118.388 -4.26227 -0.450357 0
M  V30 1351 H 122.572 -4.95711 0.241748 0
M  V30 1352 H 117.828 -5.99487 1.20106 0
M  V30 1353 H 122.002 -6.70284 1.88924 0
M  V30 1354 H 119.629 -7.2215 2.37494 0
M  V30 1355 N 121.204 0.198386 -1.56346 0
M  V30 1356 C 122.134 1.24865 -1.9731 0
M  V30 1357 C 123.115 1.47651 -0.844576 0
M  V30 1358 O 124.3 1.59444 -1.10866 0
M  V30 1359 C 121.43 2.59358 -2.30977 0
M  V30 1360 C 120.384 2.5119 -3.46537 0
M  V30 1361 C 119.71 3.89926 -3.65871 0
M  V30 1362 C 121.01 2.03977 -4.80823 0
M  V30 1363 H 122.704 0.908252 -2.85291 0
M  V30 1364 H 120.25 0.435462 -1.37258 0
M  V30 1365 H 122.203 3.33011 -2.58228 0
M  V30 1366 H 120.927 2.95132 -1.39874 0
M  V30 1367 H 119.586 1.79993 -3.19371 0
M  V30 1368 H 119.234 4.23046 -2.72105 0
M  V30 1369 H 118.934 3.85336 -4.4361 0
M  V30 1370 H 120.458 4.65205 -3.95495 0
M  V30 1371 H 121.872 2.67386 -5.07127 0
M  V30 1372 H 120.269 2.10397 -5.62008 0
M  V30 1373 H 121.339 0.992861 -4.74626 0
M  V30 1374 N 122.682 1.50554 0.465978 0
M  V30 1375 C 123.645 1.69233 1.54574 0
M  V30 1376 C 124.645 0.562901 1.50626 0
M  V30 1377 O 125.835 0.830016 1.53155 0
M  V30 1378 C 122.967 1.7223 2.94193 0
M  V30 1379 H 124.16 2.65571 1.39327 0
M  V30 1380 H 121.713 1.40111 0.692711 0
M  V30 1381 H 122.448 0.77603 3.14878 0
M  V30 1382 H 122.233 2.54285 2.98466 0
M  V30 1383 H 123.723 1.88618 3.72576 0
M  V30 1384 N 124.16 -0.719506 1.40217 0
M  V30 1385 C 125.407 -1.47933 1.38283 0
M  V30 1386 C 125.735 -1.94493 -0.0161536 0
M  V30 1387 O 124.99 -1.68224 -0.999956 0
M  V30 1388 C 125.289 -2.72271 2.31524 0
M  V30 1389 C 124.955 -2.44496 3.78857 0
M  V30 1390 C 123.617 -2.36631 4.18998 0
M  V30 1391 C 125.969 -2.21104 4.71977 0
M  V30 1392 C 123.297 -2.03437 5.503 0
M  V30 1393 C 125.649 -1.89423 6.03574 0
M  V30 1394 C 124.313 -1.80038 6.42762 0
M  V30 1395 H 123.583 -0.541325 0.506012 0
M  V30 1396 H 126.23 -0.824502 1.72842 0
M  V30 1397 H 124.535 -3.42572 1.90137 0
M  V30 1398 H 126.232 -3.30348 2.27313 0
M  V30 1399 H 122.822 -2.51503 3.47051 0
M  V30 1400 H 127.006 -2.26139 4.41786 0
M  V30 1401 H 122.262 -1.94705 5.79569 0
M  V30 1402 H 126.436 -1.70336 6.75247 0
M  V30 1403 H 124.063 -1.54083 7.44421 0
M  V30 1404 N 125.638 -1.25649 -0.95132 0
M  V30 1405 C 126.866 -1.13343 -1.73092 0
M  V30 1406 C 127.281 0.312434 -1.86197 0
M  V30 1407 O 126.638 1.21465 -1.36207 0
M  V30 1408 C 126.689 -1.78602 -3.14299 0
M  V30 1409 O 126.41 -3.17537 -3.01831 0
M  V30 1410 C 127.911 -1.72119 -4.08522 0
M  V30 1411 H 125.131 -0.395181 -0.542285 0
M  V30 1412 H 127.675 -1.66076 -1.19328 0
M  V30 1413 H 125.83 -1.29832 -3.64996 0
M  V30 1414 H 126.244 -3.49676 -3.90931 0
M  V30 1415 H 127.718 -2.22435 -5.052 0
M  V30 1416 H 128.195 -0.685635 -4.33815 0
M  V30 1417 H 128.801 -2.20393 -3.63741 0
M  V30 1418 N 127.117 1.15442 -1.07289 0
M  V30 1419 C 128.049 2.19773 -0.650585 0
M  V30 1420 C 129.062 1.60076 0.296572 0
M  V30 1421 O 130.251 1.78293 0.0859905 0
M  V30 1422 C 127.351 3.38838 0.0650398 0
M  V30 1423 C 126.524 4.2808 -0.898141 0
M  V30 1424 C 125.583 5.2574 -0.219926 0
M  V30 1425 O 124.609 5.62654 -0.860773 0
M  V30 1426 N 125.811 5.71205 1.03466 0
M  V30 1427 H 128.576 2.56622 -1.54808 0
M  V30 1428 H 126.137 1.30551 -0.957494 0
M  V30 1429 H 128.129 4.01222 0.529415 0
M  V30 1430 H 126.699 3.00409 0.864466 0
M  V30 1431 H 125.919 3.62804 -1.54165 0
M  V30 1432 H 127.207 4.84577 -1.5512 0
M  V30 1433 H 126.605 5.43325 1.57526 0
M  V30 1434 H 125.162 6.35633 1.44272 0
M  V30 1435 N 128.595 0.856903 1.32268 0
M  V30 1436 C 129.823 0.475439 2.01363 0
M  V30 1437 C 130.238 -0.928486 1.64392 0
M  V30 1438 O 129.595 -1.60624 0.866387 0
M  V30 1439 C 129.646 0.607545 3.56358 0
M  V30 1440 O 129.367 1.95617 3.92002 0
M  V30 1441 C 130.868 0.225382 4.42727 0
M  V30 1442 H 128.088 0.186636 0.644521 0
M  V30 1443 H 130.632 1.15446 1.68797 0
M  V30 1444 H 128.787 -0.0237719 3.87393 0
M  V30 1445 H 129.201 1.95455 4.86721 0
M  V30 1446 H 130.675 0.368813 5.50767 0
M  V30 1447 H 131.152 -0.834369 4.31202 0
M  V30 1448 H 131.758 0.831864 4.17085 0
M  V30 1449 N 130.073 -1.45103 0.615059 0
M  V30 1450 C 131.02 -2.30586 -0.0993978 0
M  V30 1451 C 131.99 -1.42544 -0.852669 0
M  V30 1452 O 133.175 -1.71465 -0.836917 0
M  V30 1453 C 130.315 -3.27572 -1.08583 0
M  V30 1454 C 129.428 -4.30717 -0.332656 0
M  V30 1455 C 128.563 -5.14807 -1.30947 0
M  V30 1456 C 127.602 -6.09673 -0.544538 0
M  V30 1457 N 126.739 -6.86517 -1.47101 0
M  V30 1458 H 131.579 -2.91144 0.635542 0
M  V30 1459 H 129.116 -1.4346 0.325206 0
M  V30 1460 H 131.074 -3.82276 -1.67095 0
M  V30 1461 H 129.704 -2.68751 -1.78809 0
M  V30 1462 H 128.756 -3.78615 0.368107 0
M  V30 1463 H 130.068 -4.98102 0.263842 0
M  V30 1464 H 129.222 -5.73948 -1.96643 0
M  V30 1465 H 127.961 -4.47458 -1.9399 0
M  V30 1466 H 126.966 -5.49656 0.126003 0
M  V30 1467 H 128.191 -6.79052 0.080947 0
M  V30 1468 H 126.137 -6.21851 -2.08895 0
M  V30 1469 H 126.054 -7.50281 -0.928137 0
M  V30 1470 H 127.322 -7.50194 -2.11731 0
M  V30 1471 N 131.551 -0.354651 -1.53558 0
M  V30 1472 C 132.779 0.239515 -2.05509 0
M  V30 1473 C 133.194 1.4333 -1.2289 0
M  V30 1474 O 132.551 1.80538 -0.266899 0
M  V30 1475 C 132.602 0.643719 -3.55723 0
M  V30 1476 O 132.323 -0.502602 -4.35207 0
M  V30 1477 C 133.824 1.29743 -4.23889 0
M  V30 1478 H 131.044 0.0442697 -0.669538 0
M  V30 1479 H 133.588 -0.509856 -1.98042 0
M  V30 1480 H 131.743 1.34302 -3.63376 0
M  V30 1481 H 132.157 -0.178172 -5.24197 0
M  V30 1482 H 133.631 1.53091 -5.30346 0
M  V30 1483 H 134.108 2.25441 -3.76926 0
M  V30 1484 H 134.714 0.639865 -4.20459 0
M  V30 1485 N 133.029 1.57378 -0.0835403 0
M  V30 1486 C 134.276 1.9393 0.58287 0
M  V30 1487 C 134.604 0.964455 1.68904 0
M  V30 1488 O 133.859 -0.0179474 1.95692 0
M  V30 1489 C 134.158 3.37063 1.1884 0
M  V30 1490 C 133.824 4.50424 0.207194 0
M  V30 1491 C 132.486 4.81159 -0.0627115 0
M  V30 1492 C 134.838 5.19136 -0.463426 0
M  V30 1493 C 132.166 5.77939 -1.01012 0
M  V30 1494 C 134.518 6.16931 -1.39924 0
M  V30 1495 C 133.182 6.46078 -1.67749 0
M  V30 1496 H 132.452 0.70964 0.213287 0
M  V30 1497 H 135.099 1.90856 -0.156916 0
M  V30 1498 H 133.404 3.3666 2.00418 0
M  V30 1499 H 135.101 3.6264 1.71153 0
M  V30 1500 H 131.691 4.2646 0.427747 0
M  V30 1501 H 135.875 4.95576 -0.268034 0
M  V30 1502 H 131.131 5.98842 -1.23283 0
M  V30 1503 H 135.305 6.69273 -1.92476 0
M  V30 1504 H 132.932 7.2088 -2.41321 0
M  V30 1505 N 134.507 -0.190092 1.56449 0
M  V30 1506 C 135.457 -1.23977 1.91347 0
M  V30 1507 C 136.441 -1.40747 0.779693 0
M  V30 1508 O 137.633 -1.43033 1.04262 0
M  V30 1509 C 134.762 -2.58347 2.26079 0
M  V30 1510 C 133.848 -2.4535 3.45925 0
M  V30 1511 N 134.239 -2.02039 4.63696 0
M  V30 1512 C 132.537 -2.76229 3.50162 0
M  V30 1513 C 133.238 -2.01053 5.4585 0
M  V30 1514 N 132.214 -2.42747 4.8639 0
M  V30 1515 H 136.016 -0.896318 2.79899 0
M  V30 1516 H 133.53 -0.398496 1.57435 0
M  V30 1517 H 135.527 -3.34173 2.49267 0
M  V30 1518 H 134.187 -2.93512 1.38856 0
M  V30 1519 H 135.198 -1.7267 4.88268 0
M  V30 1520 H 131.875 -3.15556 2.73369 0
M  V30 1521 H 133.265 -1.69426 6.50188 0
M  V30 1522 N 135.985 -1.50799 -0.457987 0
M  V30 1523 C 136.895 -1.73426 -1.57989 0
M  V30 1524 C 137.911 -0.617745 -1.62665 0
M  V30 1525 O 139.087 -0.897614 -1.80291 0
M  V30 1526 C 136.152 -1.83557 -2.94122 0
M  V30 1527 C 135.213 -3.07345 -2.99729 0
M  V30 1528 C 134.446 -3.16983 -4.29368 0
M  V30 1529 O 134.669 -2.33077 -5.20607 0
M  V30 1530 O 133.603 -4.09812 -4.40837 0
M  V30 1531 H 137.429 -2.68555 -1.41817 0
M  V30 1532 H 135.014 -1.35052 -0.638859 0
M  V30 1533 H 136.896 -1.92326 -3.74952 0
M  V30 1534 H 135.571 -0.916137 -3.10465 0
M  V30 1535 H 134.478 -3.04068 -2.1793 0
M  V30 1536 H 135.811 -3.9891 -2.88326 0
M  V30 1537 N 137.463 0.71206 -1.40597 0
M  V30 1538 C 138.426 1.80785 -1.40888 0
M  V30 1539 C 139.426 1.57937 -0.302103 0
M  V30 1540 O 140.616 1.64913 -0.561182 0
M  V30 1541 C 137.748 3.18927 -1.20409 0
M  V30 1542 H 138.941 1.81924 -2.38419 0
M  V30 1543 H 136.494 0.91805 -1.26497 0
M  V30 1544 H 137.229 3.23436 -0.236522 0
M  V30 1545 H 137.014 3.36911 -2.00582 0
M  V30 1546 H 138.504 3.98949 -1.23408 0
M  V30 1547 N 138.941 1.26152 0.944643 0
M  V30 1548 C 140.166 1.14363 1.7302 0
M  V30 1549 C 140.591 -0.29772 1.85729 0
M  V30 1550 O 139.949 -1.2157 1.34501 0
M  V30 1551 C 139.997 1.81378 3.11664 0
M  V30 1552 O 139.101 1.10022 3.97453 0
M  V30 1553 H 138.442 0.398694 0.53098 0
M  V30 1554 H 140.972 1.66906 1.18337 0
M  V30 1555 H 140.982 1.88064 3.62072 0
M  V30 1556 H 139.657 2.86237 3.0173 0
M  V30 1557 H 138.234 1.11287 3.55907 0
M  V30 1558 N 140.419 -1.14872 1.07899 0
M  V30 1559 C 141.329 -2.2341 0.715915 0
M  V30 1560 C 142.345 -1.71808 -0.275306 0
M  V30 1561 O 143.521 -2.01039 -0.120545 0
M  V30 1562 C 140.586 -3.46474 0.125168 0
M  V30 1563 C 139.647 -4.13039 1.17034 0
M  V30 1564 C 138.88 -5.30229 0.607688 0
M  V30 1565 O 139.103 -5.675 -0.574497 0
M  V30 1566 O 138.037 -5.86444 1.35526 0
M  V30 1567 H 141.863 -2.56808 1.62121 0
M  V30 1568 H 139.448 -1.22702 0.852322 0
M  V30 1569 H 141.33 -4.20917 -0.201729 0
M  V30 1570 H 140.005 -3.14811 -0.753364 0
M  V30 1571 H 138.912 -3.40493 1.54968 0
M  V30 1572 H 140.245 -4.48796 2.02097 0
M  V30 1573 N 141.898 -0.863906 -1.31812 0
M  V30 1574 C 143.175 -0.39275 -1.91616 0
M  V30 1575 C 143.555 1.12461 -1.7865 0
M  V30 1576 O 142.903 1.95045 -1.19037 0
M  V30 1577 C 143.113 -0.867385 -3.38049 0
M  V30 1578 C 144.461 -0.889966 -4.15168 0
M  V30 1579 O 145.485 -0.812635 -3.46806 0
M  V30 1580 O 144.344 -1.00079 -5.37258 0
M  V30 1581 H 141.438 -0.116358 -0.818773 0
M  V30 1582 H 143.984 -0.951418 -1.40521 0
M  V30 1583 H 142.756 -1.91081 -3.41473 0
M  V30 1584 H 142.379 -0.286687 -3.96565 0
M  V30 1585 N 143.376 1.44774 -0.622745 0
M  V30 1586 C 144.616 2.04004 -0.127102 0
M  V30 1587 C 144.98 1.47862 1.22478 0
M  V30 1588 O 146.181 1.98541 1.81204 0
M  V30 1589 C 144.452 3.57247 -0.104429 0
M  V30 1590 S 146.011 4.37574 0.327814 0
M  V30 1591 H 142.829 0.708713 -0.0569776 0
M  V30 1592 H 145.431 1.77275 -0.824253 0
M  V30 1593 H 144.135 3.95616 -1.09159 0
M  V30 1594 H 143.666 3.88575 0.614236 0
M  V30 1595 H 145.681 4.70575 1.57395 0
M  V30 1596 N 144.854 0.36279 1.53368 0
M  V30 1597 C 146.103 -0.22888 2.00397 0
M  V30 1598 C 146.416 -1.50096 1.25421 0
M  V30 1599 O 147.622 -2.17106 1.63025 0
M  V30 1600 C 146.078 -0.458417 3.56969 0
M  V30 1601 C 145.686 0.798877 4.4082 0
M  V30 1602 C 147.43 -1.00789 4.12361 0
M  V30 1603 C 145.337 0.539078 5.88938 0
M  V30 1604 H 144.267 -0.089305 0.748693 0
M  V30 1605 H 146.918 0.481099 1.77081 0
M  V30 1606 H 145.3 -1.22959 3.76427 0
M  V30 1607 H 146.474 1.57262 4.33134 0
M  V30 1608 H 144.789 1.27137 3.96516 0
M  V30 1609 H 147.386 -1.21754 5.20653 0
M  V30 1610 H 147.729 -1.9692 3.66781 0
M  V30 1611 H 148.262 -0.296961 3.9669 0
M  V30 1612 H 145.001 1.47064 6.3879 0
M  V30 1613 H 144.521 -0.196222 5.99479 0
M  V30 1614 H 146.2 0.163542 6.46793 0
M  V30 1615 N 146.332 -1.57332 0.0918853 0
M  V30 1616 C 147.557 -1.98995 -0.584442 0
M  V30 1617 C 147.982 -0.970528 -1.61128 0
M  V30 1618 O 147.34 0.0613904 -1.81196 0
M  V30 1619 C 147.388 -3.39636 -1.21161 0
M  V30 1620 O 146.492 -3.40447 -2.32744 0
M  V30 1621 H 145.833 -0.647165 -0.148572 0
M  V30 1622 H 148.363 -2.03873 0.172347 0
M  V30 1623 H 148.373 -3.7726 -1.55367 0
M  V30 1624 H 147.048 -4.13356 -0.459313 0
M  V30 1625 H 145.625 -3.14614 -2.0018 0
M  V30 1626 N 147.81 0.181792 -1.56548 0
M  V30 1627 C 149.226 0.53316 -1.50431 0
M  V30 1628 C 149.426 1.85184 -0.794297 0
M  V30 1629 O 148.482 2.50058 -0.350318 0
M  V30 1630 C 149.795 0.575597 -2.9514 0
M  V30 1631 C 151.343 0.663519 -3.05886 0
M  V30 1632 C 151.818 0.736946 -4.52032 0
M  V30 1633 N 153.309 0.800118 -4.56237 0
M  V30 1634 C 154.044 0.877327 -5.66649 0
M  V30 1635 N 153.54 0.916016 -6.86718 0
M  V30 1636 N 155.333 0.915542 -5.54594 0
M  V30 1637 H 147.484 -0.683025 -2.01118 0
M  V30 1638 H 149.747 -0.244988 -0.915797 0
M  V30 1639 H 149.453 -0.324482 -3.502 0
M  V30 1640 H 149.327 1.42572 -3.49218 0
M  V30 1641 H 151.714 1.55403 -2.50867 0
M  V30 1642 H 151.795 -0.21307 -2.54911 0
M  V30 1643 H 151.439 -0.149262 -5.07681 0
M  V30 1644 H 151.369 1.62953 -5.00753 0
M  V30 1645 H 153.86 0.778926 -3.69785 0
M  V30 1646 H 154.173 0.975813 -7.66614 0
M  V30 1647 H 152.518 0.884469 -6.89349 0
M  V30 1648 H 155.709 0.882245 -4.59711 0
M  V30 1649 H 155.882 0.972253 -6.40665 0
M  V30 1650 N 149.288 1.51039 0.449983 0
M  V30 1651 C 150.536 1.62759 1.19808 0
M  V30 1652 C 150.857 0.339981 1.92013 0
M  V30 1653 O 150.127 -0.643606 1.85026 0
M  V30 1654 H 148.707 0.599811 0.445237 0
M  V30 1655 H 151.369 1.87914 0.517138 0
M  V30 1656 H 150.465 2.44911 1.93455 0
M  V30 1657 N 150.766 -0.704594 1.40972 0
M  V30 1658 C 152.014 -1.46169 1.39568 0
M  V30 1659 C 152.335 -1.95 0.00253745 0
M  V30 1660 O 151.605 -1.71095 -0.954114 0
M  V30 1661 H 150.185 -0.542326 0.513704 0
M  V30 1662 H 152.847 -0.834553 1.76128 0
M  V30 1663 H 151.943 -2.32922 2.07735 0
M  V30 1664 N 152.244 -1.26651 -0.937939 0
M  V30 1665 C 153.472 -1.15173 -1.7188 0
M  V30 1666 C 153.887 0.292668 -1.86518 0
M  V30 1667 O 153.244 1.20014 -1.37488 0
M  V30 1668 C 153.295 -1.81925 -3.12387 0
M  V30 1669 O 153.016 -3.2072 -2.98446 0
M  V30 1670 C 154.517 -1.76442 -4.06673 0
M  V30 1671 H 151.737 -0.400911 -0.538063 0
M  V30 1672 H 154.281 -1.67332 -1.1756 0
M  V30 1673 H 152.436 -1.33696 -3.63599 0
M  V30 1674 H 152.85 -3.53802 -3.872 0
M  V30 1675 H 154.324 -2.27781 -5.02812 0
M  V30 1676 H 154.801 -0.731608 -4.33064 0
M  V30 1677 H 155.407 -2.24238 -3.61382 0
M  V30 1678 N 153.722 1.14298 -1.08507 0
M  V30 1679 C 154.652 2.21542 -0.737646 0
M  V30 1680 C 155.633 1.67773 0.280377 0
M  V30 1681 O 156.818 1.93616 0.150521 0
M  V30 1682 C 153.948 3.46988 -0.147259 0
M  V30 1683 C 152.902 4.13789 -1.09374 0
M  V30 1684 C 152.228 5.33449 -0.365524 0
M  V30 1685 C 153.528 4.62208 -2.4323 0
M  V30 1686 H 155.222 2.5086 -1.6343 0
M  V30 1687 H 152.768 1.20576 -0.787243 0
M  V30 1688 H 154.721 4.21262 0.107808 0
M  V30 1689 H 153.445 3.17037 0.784538 0
M  V30 1690 H 152.104 3.4147 -1.33393 0
M  V30 1691 H 151.752 4.99759 0.57011 0
M  V30 1692 H 151.452 5.79088 -0.996512 0
M  V30 1693 H 152.976 6.10485 -0.118534 0
M  V30 1694 H 154.39 5.27952 -2.23472 0
M  V30 1695 H 152.787 5.18553 -3.02031 0
M  V30 1696 H 153.857 3.77224 -3.04681 0
M  V30 1697 N 155.201 0.870884 1.31352 0
M  V30 1698 C 156.449 0.48132 1.96285 0
M  V30 1699 C 156.77 -0.969813 1.69173 0
M  V30 1700 O 156.04 -1.67998 1.00764 0
M  V30 1701 H 154.62 0.175002 0.726212 0
M  V30 1702 H 157.282 1.11087 1.60143 0
M  V30 1703 H 156.378 0.639825 3.05471 0
M  V30 1704 N 156.679 -1.44442 0.630414 0
M  V30 1705 C 157.907 -2.06414 0.141671 0
M  V30 1706 C 158.322 -1.47105 -1.18345 0
M  V30 1707 O 157.679 -0.593662 -1.72574 0
M  V30 1708 C 157.73 -3.61494 0.0199784 0
M  V30 1709 O 157.451 -4.18594 1.29269 0
M  V30 1710 C 158.952 -4.40499 -0.497544 0
M  V30 1711 H 156.172 -0.666292 0.0793452 0
M  V30 1712 H 158.716 -1.85323 0.864614 0
M  V30 1713 H 156.871 -3.8185 -0.653402 0
M  V30 1714 H 157.285 -5.12026 1.13707 0
M  V30 1715 H 158.759 -5.49433 -0.531708 0
M  V30 1716 H 159.236 -4.11895 -1.52445 0
M  V30 1717 H 159.842 -4.25061 0.142562 0
M  V30 1718 N 158.157 -0.370918 -1.53173 0
M  V30 1719 C 159.568 0.107139 -1.86392 0
M  V30 1720 C 159.919 1.47714 -1.29132 0
M  V30 1721 O 159.044 2.07464 -0.615439 0
M  V30 1722 C 159.639 0.201187 -3.38202 0
M  V30 1723 C 158.198 0.623507 -3.712 0
M  V30 1724 C 157.345 -0.225978 -2.76378 0
M  V30 1725 H 160.296 -0.58951 -1.47345 0
M  V30 1726 H 160.317 1.02377 -3.66468 0
M  V30 1727 H 159.829 -0.796058 -3.79848 0
M  V30 1728 H 157.93 1.62879 -3.35114 0
M  V30 1729 H 158.043 0.394414 -4.77474 0
M  V30 1730 H 156.407 0.305962 -2.52856 0
M  V30 1731 H 157.19 -1.22086 -3.20858 0
M  V30 1732 N 159.635 1.57281 -0.100228 0
M  V30 1733 C 160.567 2.11342 0.886972 0
M  V30 1734 C 161.58 1.05182 1.24261 0
M  V30 1735 O 162.769 1.32613 1.19483 0
M  V30 1736 C 159.869 2.5825 2.19454 0
M  V30 1737 C 159.042 3.88302 2.01346 0
M  V30 1738 C 158.101 4.21004 3.15661 0
M  V30 1739 O 157.127 4.9014 2.89398 0
M  V30 1740 N 158.329 3.76818 4.41575 0
M  V30 1741 H 161.094 2.96668 0.425216 0
M  V30 1742 H 158.655 1.61678 0.0847334 0
M  V30 1743 H 160.647 2.7717 2.94888 0
M  V30 1744 H 159.217 1.77907 2.57037 0
M  V30 1745 H 158.437 3.7848 1.10212 0
M  V30 1746 H 159.725 4.73375 1.8653 0
M  V30 1747 H 159.123 3.2102 4.65792 0
M  V30 1748 H 157.68 4.00882 5.13942 0
M  V30 1749 N 161.113 -0.173488 1.56642 0
M  V30 1750 C 162.341 -0.906095 1.86004 0
M  V30 1751 C 162.756 -1.75921 0.685355 0
M  V30 1752 O 162.113 -1.79198 -0.345578 0
M  V30 1753 C 162.164 -1.78462 3.14378 0
M  V30 1754 O 161.885 -0.965914 4.27319 0
M  V30 1755 C 163.386 -2.62707 3.57071 0
M  V30 1756 H 160.606 -0.263341 0.617165 0
M  V30 1757 H 163.15 -0.174236 2.03756 0
M  V30 1758 H 161.305 -2.46984 2.98459 0
M  V30 1759 H 161.719 -1.56655 5.00559 0
M  V30 1760 H 163.193 -3.19969 4.49804 0
M  V30 1761 H 163.67 -3.37472 2.81086 0
M  V30 1762 H 164.276 -1.99521 3.75595 0
M  V30 1763 N 162.591 -1.51276 -0.441967 0
M  V30 1764 C 163.839 -1.63392 -1.18943 0
M  V30 1765 C 164.16 -0.350159 -1.9183 0
M  V30 1766 O 163.43 0.633784 -1.85364 0
M  V30 1767 H 162.01 -0.602164 -0.442049 0
M  V30 1768 H 164.672 -1.88186 -0.507165 0
M  V30 1769 H 163.768 -2.45934 -1.92154 0
M  V30 1770 N 164.069 0.697108 -1.41344 0
M  V30 1771 C 165.294 1.49096 -1.44171 0
M  V30 1772 C 165.719 1.88038 -0.0481568 0
M  V30 1773 O 165.077 1.54525 0.948243 0
M  V30 1774 C 165.125 2.73088 -2.3549 0
M  V30 1775 O 164.229 3.70514 -1.81088 0
M  V30 1776 H 163.57 0.448801 -0.489361 0
M  V30 1777 H 166.1 0.856992 -1.85787 0
M  V30 1778 H 166.11 3.21413 -2.51312 0
M  V30 1779 H 164.785 2.44081 -3.36745 0
M  V30 1780 H 163.362 3.29441 -1.74708 0
M  V30 1781 N 165.547 1.27147 0.931209 0
M  V30 1782 C 166.457 1.11372 2.06478 0
M  V30 1783 C 167.473 0.044645 1.73943 0
M  V30 1784 O 168.649 0.250417 1.99837 0
M  V30 1785 C 165.714 0.758838 3.38294 0
M  V30 1786 C 164.775 1.90841 3.84549 0
M  V30 1787 C 164.008 1.57036 5.10074 0
M  V30 1788 O 164.231 0.476645 5.68405 0
M  V30 1789 O 163.165 2.40839 5.51616 0
M  V30 1790 H 166.991 2.06493 2.22698 0
M  V30 1791 H 164.576 1.06301 1.04978 0
M  V30 1792 H 166.458 0.574098 4.17471 0
M  V30 1793 H 165.133 -0.162879 3.2329 0
M  V30 1794 H 164.04 2.14819 3.06274 0
M  V30 1795 H 165.373 2.81021 4.04089 0
M  V30 1796 N 167.025 -1.13721 1.09112 0
M  V30 1797 C 167.973 -2.21103 0.722219 0
M  V30 1798 C 168.967 -1.67147 -0.275374 0
M  V30 1799 O 170.173 -1.79477 -0.137176 0
M  V30 1800 H 166.548 -0.720445 0.215553 0
M  V30 1801 H 168.519 -2.49483 1.63709 0
M  V30 1802 C 167.268 -3.47352 0.15543 0
M  V30 1803 H 166.591 -3.89206 0.914246 0
M  V30 1804 H 168.031 -4.2395 -0.0647967 0
M  V30 1805 C 166.49 -3.1814 -1.10852 0
M  V30 1806 O 167.02 -3.36604 -2.19227 0
M  V30 1807 N 165.226 -2.72045 -1.02176 0
M  V30 1808 H 164.773 -2.57221 -0.139764 0
M  V30 1809 H 164.731 -2.52875 -1.8682 0
M  V30 1810 N 168.503 -0.877838 -1.30888 0
M  V30 1811 C 169.78 -0.413052 -1.91189 0
M  V30 1812 C 170.16 1.1056 -1.79832 0
M  V30 1813 O 169.508 1.93771 -1.21099 0
M  V30 1814 C 169.718 -0.903191 -3.3711 0
M  V30 1815 C 171.066 -0.93395 -4.14201 0
M  V30 1816 O 172.09 -0.849373 -3.45925 0
M  V30 1817 O 170.949 -1.05772 -5.36167 0
M  V30 1818 H 168.043 -0.125035 -0.817493 0
M  V30 1819 H 170.589 -0.966269 -1.39504 0
M  V30 1820 H 169.361 -1.94692 -3.39427 0
M  V30 1821 H 168.984 -0.328732 -3.96239 0
M  V30 1822 N 169.982 1.44106 -0.638065 0
M  V30 1823 C 170.945 2.29138 0.0531013 0
M  V30 1824 C 171.945 1.41409 0.765506 0
M  V30 1825 O 173.135 1.63206 0.609046 0
M  V30 1826 C 170.267 3.23144 1.08584 0
M  V30 1827 H 171.46 2.91739 -0.694883 0
M  V30 1828 H 169.013 1.51134 -0.398538 0
M  V30 1829 H 169.748 2.65408 1.86357 0
M  V30 1830 H 169.533 3.87804 0.578852 0
M  V30 1831 H 171.023 3.87004 1.56899 0
M  V30 1832 N 171.46 0.379036 1.52974 0
M  V30 1833 C 172.39 -0.452706 2.29069 0
M  V30 1834 C 173.371 -1.07237 1.32039 0
M  V30 1835 O 174.556 -1.08708 1.60923 0
M  V30 1836 C 171.686 -1.5856 3.08992 0
M  V30 1837 C 170.64 -1.0925 4.13822 0
M  V30 1838 C 169.966 -2.31668 4.81907 0
M  V30 1839 C 171.266 -0.167702 5.22031 0
M  V30 1840 H 172.96 0.182181 2.98845 0
M  V30 1841 H 170.506 0.0890592 1.43724 0
M  V30 1842 H 172.459 -2.1742 3.6098 0
M  V30 1843 H 171.183 -2.24792 2.36931 0
M  V30 1844 H 169.842 -0.526494 3.628 0
M  V30 1845 H 169.49 -2.96386 4.06404 0
M  V30 1846 H 169.19 -1.9934 5.52754 0
M  V30 1847 H 170.714 -2.91189 5.36695 0
M  V30 1848 H 172.128 -0.664186 5.6944 0
M  V30 1849 H 170.525 0.0653265 6.00064 0
M  V30 1850 H 171.595 0.786347 4.78482 0
M  V30 1851 N 172.938 -1.57226 0.108567 0
M  V30 1852 C 174.168 -1.9889 -0.559142 0
M  V30 1853 C 174.576 -0.986889 -1.61422 0
M  V30 1854 O 173.919 0.0298705 -1.83676 0
M  V30 1855 C 173.981 -3.36952 -1.25315 0
M  V30 1856 C 173.645 -4.55679 -0.347248 0
M  V30 1857 C 174.642 -5.18281 0.409996 0
M  V30 1858 C 172.327 -5.0162 -0.261367 0
M  V30 1859 C 174.321 -6.25203 1.24096 0
M  V30 1860 C 172.008 -6.08405 0.573238 0
M  V30 1861 C 173.006 -6.70063 1.32304 0
M  V30 1862 O 172.694 -7.74788 2.14381 0
M  V30 1863 H 172.426 -0.658343 -0.153492 0
M  V30 1864 H 174.98 -2.04532 0.188584 0
M  V30 1865 H 173.21 -3.28032 -2.04773 0
M  V30 1866 H 174.899 -3.62974 -1.81673 0
M  V30 1867 H 175.665 -4.8371 0.353457 0
M  V30 1868 H 171.544 -4.53381 -0.834656 0
M  V30 1869 H 175.088 -6.73259 1.82669 0
M  V30 1870 H 170.985 -6.42406 0.631208 0
M  V30 1871 H 171.753 -7.91837 2.07209 0
M  V30 1872 N 174.416 0.165178 -1.56732 0
M  V30 1873 C 175.326 1.22423 -2.00125 0
M  V30 1874 C 176.342 1.48084 -0.913619 0
M  V30 1875 O 177.518 1.60112 -1.22172 0
M  V30 1876 C 174.583 2.54197 -2.35764 0
M  V30 1877 C 173.644 2.36343 -3.58386 0
M  V30 1878 C 172.877 3.61834 -3.92316 0
M  V30 1879 O 173.1 4.67267 -3.27135 0
M  V30 1880 O 172.034 3.55579 -4.85641 0
M  V30 1881 H 175.86 0.885886 -2.90492 0
M  V30 1882 H 173.445 0.372518 -1.44681 0
M  V30 1883 H 175.327 3.3192 -2.59629 0
M  V30 1884 H 174.002 2.87598 -1.48557 0
M  V30 1885 H 172.909 1.56632 -3.39731 0
M  V30 1886 H 174.242 2.07865 -4.46154 0
M  V30 1887 N 175.894 1.51508 0.433938 0
M  V30 1888 C 177.124 1.67914 1.20369 0
M  V30 1889 C 177.532 0.377461 1.85397 0
M  V30 1890 O 176.875 -0.654255 1.71654 0
M  V30 1891 C 176.937 2.74045 2.32679 0
M  V30 1892 C 176.601 4.16543 1.87991 0
M  V30 1893 C 177.598 5.01211 1.38145 0
M  V30 1894 C 175.283 4.6266 1.95579 0
M  V30 1895 C 177.277 6.30056 0.964774 0
M  V30 1896 C 174.964 5.91501 1.53523 0
M  V30 1897 C 175.962 6.75027 1.04055 0
M  V30 1898 O 175.65 8.01459 0.625964 0
M  V30 1899 H 175.382 0.566578 0.368735 0
M  V30 1900 H 177.936 1.98709 0.51999 0
M  V30 1901 H 176.166 2.38572 3.04336 0
M  V30 1902 H 177.855 2.79295 2.94532 0
M  V30 1903 H 178.621 4.66783 1.31675 0
M  V30 1904 H 174.5 3.97767 2.33029 0
M  V30 1905 H 178.044 6.95202 0.57796 0
M  V30 1906 H 173.941 6.25442 1.59665 0
M  V30 1907 H 174.709 8.15043 0.751509 0
M  V30 1908 N 177.372 -0.689602 1.41712 0
M  V30 1909 C 178.302 -1.81577 1.46806 0
M  V30 1910 C 179.283 -1.66945 0.326105 0
M  V30 1911 O 180.468 -1.86588 0.538377 0
M  V30 1912 C 177.598 -3.19762 1.35535 0
M  V30 1913 C 176.552 -3.49107 2.47605 0
M  V30 1914 C 175.878 -4.86711 2.21397 0
M  V30 1915 C 177.178 -3.47483 3.89939 0
M  V30 1916 H 178.872 -1.7757 2.41058 0
M  V30 1917 H 176.418 -0.852887 1.16025 0
M  V30 1918 H 178.371 -3.98263 1.3771 0
M  V30 1919 H 177.095 -3.24409 0.377708 0
M  V30 1920 H 175.754 -2.72959 2.44722 0
M  V30 1921 H 175.402 -4.8799 1.21961 0
M  V30 1922 H 175.102 -5.0731 2.96497 0
M  V30 1923 H 176.626 -5.67515 2.25297 0
M  V30 1924 H 178.04 -4.1598 3.94505 0
M  V30 1925 H 176.437 -3.79615 4.64771 0
M  V30 1926 H 177.507 -2.46341 4.17665 0
M  V30 1927 N 178.85 -1.27639 -0.924453 0
M  V30 1928 C 180.266 -1.05113 -1.20097 0
M  V30 1929 C 180.466 0.213262 -2.00368 0
M  V30 1930 O 179.522 0.91787 -2.35226 0
M  V30 1931 C 180.835 -2.29244 -1.94596 0
M  V30 1932 C 182.383 -2.34315 -2.07522 0
M  V30 1933 C 182.858 -3.58183 -2.85427 0
M  V30 1934 N 184.349 -3.5876 -2.92994 0
M  V30 1935 C 185.084 -4.51277 -3.53746 0
M  V30 1936 N 184.58 -5.54102 -4.15863 0
M  V30 1937 N 186.373 -4.38894 -3.51181 0
M  V30 1938 H 178.524 -2.08821 -0.388264 0
M  V30 1939 H 180.787 -0.918568 -0.234385 0
M  V30 1940 H 180.493 -3.21301 -1.43034 0
M  V30 1941 H 180.367 -2.34816 -2.95197 0
M  V30 1942 H 182.754 -1.42762 -2.58269 0
M  V30 1943 H 182.835 -2.32744 -1.06131 0
M  V30 1944 H 182.479 -4.50074 -2.35363 0
M  V30 1945 H 182.409 -3.57006 -3.8711 0
M  V30 1946 H 184.9 -2.84398 -2.4885 0
M  V30 1947 H 185.213 -6.20859 -4.60168 0
M  V30 1948 H 183.558 -5.57941 -4.144 0
M  V30 1949 H 186.749 -3.57772 -3.01856 0
M  V30 1950 H 186.922 -5.11186 -3.98237 0
M  V30 1951 N 180.328 1.1314 -1.09713 0
M  V30 1952 C 181.26 2.18343 -0.697056 0
M  V30 1953 C 182.273 1.60669 0.262551 0
M  V30 1954 O 183.462 1.78435 0.0481527 0
M  V30 1955 C 180.562 3.38899 -0.00684728 0
M  V30 1956 C 179.735 4.26078 -0.988741 0
M  V30 1957 C 178.794 5.25155 -0.331394 0
M  V30 1958 O 177.82 5.60701 -0.979926 0
M  V30 1959 N 179.022 5.73271 0.913261 0
M  V30 1960 H 181.787 2.5328 -1.60216 0
M  V30 1961 H 179.348 1.28491 -0.984971 0
M  V30 1962 H 181.34 4.02255 0.444191 0
M  V30 1963 H 179.91 3.02175 0.800551 0
M  V30 1964 H 179.13 3.59453 -1.61826 0
M  V30 1965 H 180.418 4.81178 -1.65364 0
M  V30 1966 H 179.816 5.46544 1.45966 0
M  V30 1967 H 178.373 6.3855 1.30757 0
M  V30 1968 N 181.806 0.884767 1.30421 0
M  V30 1969 C 183.031 0.517288 2.00845 0
M  V30 1970 C 183.456 -0.886779 1.65885 0
M  V30 1971 O 182.814 -1.58768 0.875354 0
M  V30 1972 C 182.862 0.698994 3.5376 0
M  V30 1973 O 181.966 -0.255208 4.1161 0
M  V30 1974 H 181.307 0.203872 0.631927 0
M  V30 1975 H 183.837 1.19225 1.66272 0
M  V30 1976 H 183.847 0.597912 4.03595 0
M  V30 1977 H 182.522 1.72271 3.78544 0
M  V30 1978 H 181.099 -0.10784 3.72744 0
M  V30 1979 N 183.284 -1.43765 0.645699 0
M  V30 1980 C 184.53 -2.02197 0.156271 0
M  V30 1981 C 184.863 -1.50776 -1.22393 0
M  V30 1982 O 184.138 -0.697771 -1.81553 0
M  V30 1983 C 184.421 -3.59749 0.158872 0
M  V30 1984 C 184.274 -4.21419 1.57245 0
M  V30 1985 C 185.593 -4.37149 -0.50879 0
M  V30 1986 H 182.712 -0.734694 0.0582602 0
M  V30 1987 H 185.354 -1.71157 0.824951 0
M  V30 1988 H 183.504 -3.86325 -0.410525 0
M  V30 1989 H 185.176 -4.059 2.19186 0
M  V30 1990 H 183.419 -3.78356 2.122 0
M  V30 1991 H 184.09 -5.30482 1.52619 0
M  V30 1992 H 186.566 -4.16093 -0.024412 0
M  V30 1993 H 185.442 -5.4683 -0.476213 0
M  V30 1994 H 185.703 -4.12839 -1.58165 0
M  V30 1995 N 184.763 -0.387143 -1.52771 0
M  V30 1996 C 186.011 0.195349 -2.01154 0
M  V30 1997 C 186.332 1.475 -1.27549 0
M  V30 1998 O 185.602 1.91878 -0.394924 0
M  V30 1999 H 184.182 0.075178 -0.743207 0
M  V30 2000 H 186.844 -0.518337 -1.87881 0
M  V30 2001 H 185.94 0.407096 -3.09434 0
M  V30 2002 N 186.241 1.57166 -0.116904 0
M  V30 2003 C 187.189 2.16457 0.851418 0
M  V30 2004 C 188.183 1.11323 1.27686 0
M  V30 2005 O 189.389 1.2963 1.24884 0
M  V30 2006 H 185.764 0.69271 0.292672 0
M  V30 2007 H 187.735 2.96605 0.32685 0
M  V30 2008 C 186.484 2.77689 2.09246 0
M  V30 2009 H 185.807 3.58285 1.77402 0
M  V30 2010 H 187.247 3.22716 2.7501 0
M  V30 2011 C 185.706 1.74667 2.88085 0
M  V30 2012 O 186.236 1.19877 3.83396 0
M  V30 2013 N 184.442 1.44656 2.52038 0
M  V30 2014 H 183.989 1.89402 1.74599 0
M  V30 2015 H 183.947 0.759675 3.05084 0
M  V30 2016 N 187.719 -0.156864 1.56817 0
M  V30 2017 C 188.629 -1.2136 2.00771 0
M  V30 2018 C 189.645 -1.47598 0.921459 0
M  V30 2019 O 190.821 -1.59462 1.2302 0
M  V30 2020 C 187.886 -2.52943 2.37109 0
M  V30 2021 C 186.947 -2.34439 3.59634 0
M  V30 2022 C 186.18 -3.59748 3.94229 0
M  V30 2023 O 186.403 -4.65526 3.29609 0
M  V30 2024 O 185.337 -3.52998 4.8752 0
M  V30 2025 H 189.163 -0.870468 2.90958 0
M  V30 2026 H 186.748 -0.36484 1.44877 0
M  V30 2027 H 188.63 -3.30538 2.61386 0
M  V30 2028 H 187.305 -2.86806 1.5008 0
M  V30 2029 H 186.212 -1.54828 3.40557 0
M  V30 2030 H 187.545 -2.05496 4.4725 0
M  V30 2031 N 189.197 -1.51736 -0.425897 0
M  V30 2032 C 190.16 -1.73271 -1.50032 0
M  V30 2033 C 191.16 -0.602639 -1.4908 0
M  V30 2034 O 192.35 -0.87033 -1.509 0
M  V30 2035 C 189.482 -1.79969 -2.89523 0
M  V30 2036 H 190.675 -2.69172 -1.32237 0
M  V30 2037 H 188.228 -1.41899 -0.65532 0
M  V30 2038 H 188.963 -0.859241 -3.1271 0
M  V30 2039 H 188.748 -2.62109 -2.91619 0
M  V30 2040 H 190.238 -1.9843 -3.67444 0
M  V30 2041 N 190.675 0.682077 -1.42076 0
M  V30 2042 C 191.585 1.82535 -1.47371 0
M  V30 2043 C 192.601 1.7017 -0.363079 0
M  V30 2044 O 193.777 1.91848 -0.612875 0
M  V30 2045 C 190.842 3.18624 -1.36674 0
M  V30 2046 C 189.903 3.42999 -2.58167 0
M  V30 2047 C 189.136 4.72595 -2.4797 0
M  V30 2048 O 189.359 5.50006 -1.5116 0
M  V30 2049 O 188.293 4.98054 -3.37974 0
M  V30 2050 H 192.119 1.81023 -2.43853 0
M  V30 2051 H 189.704 0.836887 -1.2376 0
M  V30 2052 H 191.586 3.99847 -1.33043 0
M  V30 2053 H 190.261 3.20789 -0.433138 0
M  V30 2054 H 189.168 2.61653 -2.67373 0
M  V30 2055 H 190.501 3.45659 -3.50401 0
M  V30 2056 N 192.153 1.28127 0.917671 0
M  V30 2057 C 193.402 1.14432 1.66097 0
M  V30 2058 C 193.715 -0.307247 1.93172 0
M  V30 2059 O 194.921 -0.565259 2.65551 0
M  V30 2060 C 193.377 2.00015 2.99202 0
M  V30 2061 C 192.985 3.49889 2.79789 0
M  V30 2062 C 194.729 1.94996 3.77064 0
M  V30 2063 C 192.636 4.27636 4.08511 0
M  V30 2064 H 191.566 0.424662 0.62304 0
M  V30 2065 H 194.217 1.52628 1.01868 0
M  V30 2066 H 192.599 1.54672 3.64544 0
M  V30 2067 H 193.773 4.03162 2.23152 0
M  V30 2068 H 192.088 3.56392 2.15345 0
M  V30 2069 H 194.685 2.50354 4.72469 0
M  V30 2070 H 195.028 0.925819 4.05875 0
M  V30 2071 H 195.561 2.38287 3.18534 0
M  V30 2072 H 192.3 5.30615 3.84874 0
M  V30 2073 H 191.82 3.79137 4.64774 0
M  V30 2074 H 193.499 4.37346 4.76799 0
M  V30 2075 N 193.631 -1.12557 1.10312 0
M  V30 2076 C 194.877 -1.84515 0.855901 0
M  V30 2077 C 195.232 -1.82409 -0.611936 0
M  V30 2078 O 194.525 -1.25778 -1.44535 0
M  V30 2079 C 194.719 -3.31462 1.33669 0
M  V30 2080 C 194.548 -3.47879 2.84974 0
M  V30 2081 C 193.318 -3.61589 3.52961 0
M  V30 2082 C 195.516 -3.43152 3.83081 0
M  V30 2083 N 193.498 -3.66359 4.926 0
M  V30 2084 C 194.869 -3.54401 5.08724 0
M  V30 2085 C 196.924 -3.2661 3.75807 0
M  V30 2086 C 195.627 -3.50815 6.2795 0
M  V30 2087 C 197.653 -3.24335 4.94531 0
M  V30 2088 C 197.015 -3.36144 6.19021 0
M  V30 2089 H 193.114 -0.690967 0.366182 0
M  V30 2090 H 195.698 -1.34763 1.40524 0
M  V30 2091 H 193.869 -3.7976 0.814686 0
M  V30 2092 H 195.601 -3.91272 1.03385 0
M  V30 2093 H 192.356 -3.63652 3.03404 0
M  V30 2094 H 192.78 -3.72411 5.65366 0
M  V30 2095 H 197.422 -3.16375 2.80476 0
M  V30 2096 H 195.14 -3.5982 7.23571 0
M  V30 2097 H 198.726 -3.12719 4.9061 0
M  V30 2098 H 197.606 -3.34357 7.09348 0
M  V30 2099 N 195.109 -0.891671 -1.2995 0
M  V30 2100 C 196.039 -0.379797 -2.30391 0
M  V30 2101 C 197.02 0.540919 -1.6127 0
M  V30 2102 O 198.205 0.453352 -1.88834 0
M  V30 2103 C 195.335 0.400654 -3.44981 0
M  V30 2104 C 194.289 -0.428905 -4.25846 0
M  V30 2105 C 193.615 0.478557 -5.32554 0
M  V30 2106 C 194.915 -1.67458 -4.94727 0
M  V30 2107 H 196.609 -1.21914 -2.73454 0
M  V30 2108 H 194.155 -0.587675 -1.31462 0
M  V30 2109 H 196.108 0.769434 -4.14316 0
M  V30 2110 H 194.832 1.27371 -3.0074 0
M  V30 2111 H 193.491 -0.779911 -3.58208 0
M  V30 2112 H 193.139 1.34951 -4.84559 0
M  V30 2113 H 192.839 -0.0727433 -5.87555 0
M  V30 2114 H 194.363 0.843705 -6.04743 0
M  V30 2115 H 195.777 -1.376 -5.56542 0
M  V30 2116 H 194.174 -2.16659 -5.59624 0
M  V30 2117 H 195.244 -2.41518 -4.20473 0
M  V30 2118 N 196.587 1.43421 -0.653314 0
M  V30 2119 C 197.835 2.01414 -0.166415 0
M  V30 2120 C 198.156 1.51803 1.22397 0
M  V30 2121 O 197.426 0.730693 1.81763 0
M  V30 2122 H 196.006 0.744703 -0.0585319 0
M  V30 2123 H 198.668 1.75629 -0.845003 0
M  V30 2124 H 197.764 3.11734 -0.151111 0
M  V30 2125 N 198.065 0.39524 1.52563 0
M  V30 2126 C 198.995 -0.428384 2.29537 0
M  V30 2127 C 199.976 -1.05831 1.33169 0
M  V30 2128 O 201.161 -1.06995 1.62067 0
M  V30 2129 C 198.291 -1.55274 3.10656 0
M  V30 2130 C 197.245 -1.04855 4.14957 0
M  V30 2131 C 196.571 -2.26543 4.84337 0
M  V30 2132 C 197.871 -0.112324 5.22179 0
M  V30 2133 H 199.565 0.213867 2.98635 0
M  V30 2134 H 197.111 0.104298 1.43622 0
M  V30 2135 H 199.064 -2.1358 3.63265 0
M  V30 2136 H 197.788 -2.22266 2.39302 0
M  V30 2137 H 196.447 -0.487985 3.63338 0
M  V30 2138 H 196.095 -2.92059 4.09525 0
M  V30 2139 H 195.795 -1.93466 5.54837 0
M  V30 2140 H 197.319 -2.85481 5.39753 0
M  V30 2141 H 198.733 -0.603752 5.70112 0
M  V30 2142 H 197.13 0.128968 5.99961 0
M  V30 2143 H 198.2 0.837052 4.77621 0
M  V30 2144 N 199.544 -1.57102 0.125237 0
M  V30 2145 C 200.492 -2.16905 -0.839927 0
M  V30 2146 C 201.486 -1.11998 -1.27094 0
M  V30 2147 O 202.692 -1.3029 -1.24195 0
M  V30 2148 H 199.067 -0.694252 -0.288995 0
M  V30 2149 H 201.038 -2.96774 -0.311115 0
M  V30 2150 C 199.787 -2.78795 -2.07771 0
M  V30 2151 H 199.11 -3.59221 -1.755 0
M  V30 2152 H 200.55 -3.2417 -2.73295 0
M  V30 2153 C 199.009 -1.76193 -2.87155 0
M  V30 2154 O 199.539 -1.21909 -3.82755 0
M  V30 2155 N 197.745 -1.45991 -2.51267 0
M  V30 2156 H 197.292 -1.90325 -1.73592 0
M  V30 2157 H 197.25 -0.775844 -3.04677 0
M  V30 2158 N 201.022 0.148545 -1.56898 0
M  V30 2159 C 202.299 0.890019 -1.74178 0
M  V30 2160 C 202.679 1.99407 -0.692839 0
M  V30 2161 O 202.027 2.26671 0.288505 0
M  V30 2162 C 202.237 1.43389 -3.18183 0
M  V30 2163 C 203.585 1.89791 -3.79822 0
M  V30 2164 O 204.609 1.53134 -3.21603 0
M  V30 2165 O 203.468 2.57387 -4.82093 0
M  V30 2166 H 200.562 0.420496 -0.712118 0
M  V30 2167 H 203.108 0.134591 -1.69165 0
M  V30 2168 H 201.88 0.640383 -3.86024 0
M  V30 2169 H 201.503 2.25287 -3.27615 0
M  V30 2170 N 202.5 1.5196 0.417844 0
M  V30 2171 C 203.433 1.69387 1.52916 0
M  V30 2172 C 204.411 0.541419 1.53321 0
M  V30 2173 O 205.595 0.767695 1.72159 0
M  V30 2174 C 202.722 1.72525 2.91467 0
M  V30 2175 C 201.768 2.93967 3.09008 0
M  V30 2176 S 202.601 4.54461 2.83242 0
M  V30 2177 C 203.757 4.60372 4.24038 0
M  V30 2178 H 203.99 2.63382 1.37903 0
M  V30 2179 H 201.523 1.41889 0.608845 0
M  V30 2180 H 203.481 1.75018 3.7132 0
M  V30 2181 H 202.142 0.796733 3.03827 0
M  V30 2182 H 201.335 2.92619 4.10353 0
M  V30 2183 H 200.937 2.89316 2.37007 0
M  V30 2184 H 203.229 4.37213 5.17544 0
M  V30 2185 H 204.172 5.62273 4.30412 0
M  V30 2186 H 204.58 3.89492 4.08602 0
M  V30 2187 N 203.978 -0.674533 1.42435 0
M  V30 2188 C 204.941 -1.76986 1.45632 0
M  V30 2189 C 205.941 -1.5708 0.343871 0
M  V30 2190 O 207.131 -1.63367 0.604709 0
M  V30 2191 C 204.263 -3.15623 1.28822 0
M  V30 2192 H 205.456 -1.75539 2.43158 0
M  V30 2193 H 203.009 -0.884189 1.28887 0
M  V30 2194 H 203.744 -3.22696 0.322193 0
M  V30 2195 H 203.529 -3.31475 2.09444 0
M  V30 2196 H 205.019 -3.95537 1.33942 0
M  V30 2197 N 205.456 -1.28612 -0.910864 0
M  V30 2198 C 206.419 -1.12803 -1.9952 0
M  V30 2199 C 207.419 -0.0668264 -1.60661 0
M  V30 2200 O 208.609 -0.312847 -1.71368 0
M  V30 2201 C 205.741 -0.72254 -3.33155 0
M  V30 2202 H 206.934 -2.09109 -2.14973 0
M  V30 2203 H 204.487 -1.11639 -1.09391 0
M  V30 2204 H 205.222 0.241152 -3.23402 0
M  V30 2205 H 205.007 -1.48916 -3.62721 0
M  V30 2206 H 206.497 -0.634666 -4.12749 0
M  V30 2207 N 206.934 1.1197 -1.10907 0
M  V30 2208 C 207.844 2.21433 -0.774896 0
M  V30 2209 C 208.86 1.72478 0.229657 0
M  V30 2210 O 210.036 2.01288 0.0672008 0
M  V30 2211 C 207.101 3.4602 -0.216986 0
M  V30 2212 C 206.162 4.09791 -1.27944 0
M  V30 2213 C 205.395 5.28431 -0.748055 0
M  V30 2214 O 205.618 5.68823 0.423833 0
M  V30 2215 O 204.552 5.82644 -1.51027 0
M  V30 2216 H 208.378 2.5242 -1.68873 0
M  V30 2217 H 205.963 1.20399 -0.884555 0
M  V30 2218 H 207.845 4.21304 0.090059 0
M  V30 2219 H 206.52 3.16698 0.669633 0
M  V30 2220 H 205.427 3.36265 -1.63941 0
M  V30 2221 H 206.76 4.4328 -2.13925 0
M  V30 2222 N 208.412 0.89855 1.29475 0
M  V30 2223 C 209.66 0.522847 1.9522 0
M  V30 2224 C 209.981 -0.93371 1.71192 0
M  V30 2225 O 209.251 -1.65823 1.04305 0
M  V30 2226 H 207.831 0.190366 0.722336 0
M  V30 2227 H 210.493 1.14459 1.5775 0
M  V30 2228 H 209.589 0.704476 3.04045 0
M  V30 2229 N 209.89 -1.43072 0.660911 0
M  V30 2230 C 211.118 -2.06067 0.185422 0
M  V30 2231 C 211.533 -1.49582 -1.15198 0
M  V30 2232 O 210.89 -0.630134 -1.71276 0
M  V30 2233 C 210.941 -3.61371 0.0966523 0
M  V30 2234 O 210.662 -4.15758 1.38119 0
M  V30 2235 C 212.163 -4.41455 -0.403996 0
M  V30 2236 H 209.383 -0.664459 0.0934604 0
M  V30 2237 H 211.927 -1.83447 0.90373 0
M  V30 2238 H 210.082 -3.8315 -0.572259 0
M  V30 2239 H 210.496 -5.09499 1.24542 0
M  V30 2240 H 211.97 -5.50437 -0.415045 0
M  V30 2241 H 212.447 -4.15036 -1.43674 0
M  V30 2242 H 213.053 -4.24663 0.232691 0
M  V30 2243 N 211.368 -0.403325 -1.52352 0
M  V30 2244 C 212.614 0.167015 -2.02713 0
M  V30 2245 C 212.969 1.43296 -1.28391 0
M  V30 2246 O 212.262 1.87796 -0.379885 0
M  V30 2247 C 212.456 0.474665 -3.54234 0
M  V30 2248 C 212.285 -0.759909 -4.43233 0
M  V30 2249 C 211.055 -1.28338 -4.88731 0
M  V30 2250 C 213.253 -1.63634 -4.87574 0
M  V30 2251 N 211.235 -2.47404 -5.6184 0
M  V30 2252 C 212.606 -2.67329 -5.59406 0
M  V30 2253 C 214.661 -1.65478 -4.69597 0
M  V30 2254 C 213.364 -3.72773 -6.15169 0
M  V30 2255 C 215.39 -2.69837 -5.26253 0
M  V30 2256 C 214.752 -3.72253 -5.98002 0
M  V30 2257 H 210.851 0.0228343 -0.781667 0
M  V30 2258 H 213.435 -0.556368 -1.86581 0
M  V30 2259 H 211.606 1.16709 -3.7045 0
M  V30 2260 H 213.338 1.03338 -3.91284 0
M  V30 2261 H 210.093 -0.842273 -4.6605 0
M  V30 2262 H 210.517 -3.07688 -6.0304 0
M  V30 2263 H 215.159 -0.876389 -4.13617 0
M  V30 2264 H 212.877 -4.51471 -6.70223 0
M  V30 2265 H 216.463 -2.72164 -5.14216 0
M  V30 2266 H 215.343 -4.51679 -6.41058 0
M  V30 2267 N 212.846 1.57033 -0.133567 0
M  V30 2268 C 214.092 1.95976 0.521649 0
M  V30 2269 C 214.425 1.01779 1.65393 0
M  V30 2270 O 213.7 0.0576581 1.94415 0
M  V30 2271 C 213.983 3.44738 1.04057 0
M  V30 2272 C 213.836 4.49711 -0.0892897 0
M  V30 2273 C 215.155 3.95682 1.92675 0
M  V30 2274 H 212.274 0.712579 0.188149 0
M  V30 2275 H 214.916 1.88813 -0.212076 0
M  V30 2276 H 213.066 3.50973 1.66583 0
M  V30 2277 H 214.738 4.55565 -0.725152 0
M  V30 2278 H 212.981 4.27261 -0.750378 0
M  V30 2279 H 213.652 5.51099 0.315284 0
M  V30 2280 H 216.128 3.91841 1.39998 0
M  V30 2281 H 215.004 5.00262 2.25897 0
M  V30 2282 H 215.265 3.37239 2.85872 0
M  V30 2283 N 214.325 -0.140222 1.56975 0
M  V30 2284 C 215.602 -0.880769 1.74648 0
M  V30 2285 C 215.982 -1.99036 0.703404 0
M  V30 2286 O 215.33 -2.26821 -0.27648 0
M  V30 2287 C 215.54 -1.417 3.18939 0
M  V30 2288 C 216.888 -1.87774 3.80823 0
M  V30 2289 O 217.912 -1.51427 3.2241 0
M  V30 2290 O 216.771 -2.54827 4.83452 0
M  V30 2291 H 213.865 -0.416713 0.714338 0
M  V30 2292 H 216.411 -0.125618 1.69234 0
M  V30 2293 H 215.183 -0.619902 3.86359 0
M  V30 2294 H 214.806 -2.23546 3.28805 0
M  V30 2295 N 215.803 -1.52179 -0.40978 0
M  V30 2296 C 216.736 -1.70196 -1.52015 0
M  V30 2297 C 217.714 -0.549542 -1.53032 0
M  V30 2298 O 218.898 -0.776815 -1.71749 0
M  V30 2299 C 216.025 -1.74069 -2.90547 0
M  V30 2300 C 215.071 -2.95601 -3.07445 0
M  V30 2301 S 215.904 -4.55956 -2.80827 0
M  V30 2302 C 217.06 -4.62614 -4.21591 0
M  V30 2303 H 217.293 -2.64109 -1.36504 0
M  V30 2304 H 214.826 -1.4221 -0.601312 0
M  V30 2305 H 216.784 -1.76985 -3.70387 0
M  V30 2306 H 215.445 -0.812835 -3.034 0
M  V30 2307 H 214.638 -2.94791 -4.08796 0
M  V30 2308 H 214.24 -2.90569 -2.35469 0
M  V30 2309 H 216.532 -4.39951 -5.15218 0
M  V30 2310 H 217.475 -5.64548 -4.27424 0
M  V30 2311 H 217.883 -3.91654 -4.06531 0
M  V30 2312 N 217.281 0.66697 -1.42791 0
M  V30 2313 C 218.509 1.45505 -1.47091 0
M  V30 2314 C 218.924 1.8861 -0.0845873 0
M  V30 2315 O 218.281 1.58632 0.90234 0
M  V30 2316 C 218.332 2.69906 -2.40485 0
M  V30 2317 O 218.053 2.28608 -3.73725 0
M  V30 2318 C 219.554 3.63396 -2.53886 0
M  V30 2319 H 216.774 0.447459 -0.500022 0
M  V30 2320 H 219.318 0.818866 -1.8739 0
M  V30 2321 H 217.473 3.29696 -2.03419 0
M  V30 2322 H 217.887 3.08997 -4.23817 0
M  V30 2323 H 219.361 4.47387 -3.2334 0
M  V30 2324 H 219.838 4.09824 -1.57927 0
M  V30 2325 H 220.444 3.09495 -2.91706 0
M  V30 2326 N 218.759 1.29093 0.90403 0
M  V30 2327 C 220.007 1.16583 1.65085 0
M  V30 2328 C 220.328 -0.283933 1.92922 0
M  V30 2329 O 219.598 -1.19509 1.55224 0
M  V30 2330 H 218.178 0.428467 0.611903 0
M  V30 2331 H 220.84 1.61959 1.08422 0
M  V30 2332 H 219.936 1.71266 2.6091 0
M  V30 2333 N 220.237 -1.11381 1.11499 0
M  V30 2334 C 221.2 -2.15622 0.777153 0
M  V30 2335 C 222.2 -1.59504 -0.203779 0
M  V30 2336 O 223.39 -1.74188 0.020782 0
M  V30 2337 C 220.522 -3.40556 0.153116 0
M  V30 2338 H 221.715 -2.47021 1.70061 0
M  V30 2339 H 219.268 -1.26577 0.916952 0
M  V30 2340 H 220.003 -3.14767 -0.780536 0
M  V30 2341 H 219.788 -3.8257 0.859238 0
M  V30 2342 H 221.278 -4.17546 -0.0671044 0
M  V30 2343 N 221.715 -0.905404 -1.28997 0
M  V30 2344 C 223.131 -0.60233 -1.47798 0
M  V30 2345 C 223.331 0.854645 -1.82478 0
M  V30 2346 O 222.387 1.63439 -1.92468 0
M  V30 2347 C 223.7 -1.53306 -2.58685 0
M  V30 2348 C 225.248 -1.53887 -2.72558 0
M  V30 2349 C 225.723 -2.45602 -3.86579 0
M  V30 2350 N 227.214 -2.43681 -3.93921 0
M  V30 2351 C 227.949 -3.11347 -4.81509 0
M  V30 2352 N 227.445 -3.88313 -5.73746 0
M  V30 2353 N 229.238 -3.00476 -4.75048 0
M  V30 2354 H 221.389 -1.84765 -1.04764 0
M  V30 2355 H 223.652 -0.792025 -0.520961 0
M  V30 2356 H 223.358 -2.57141 -2.39941 0
M  V30 2357 H 223.232 -1.25787 -3.55609 0
M  V30 2358 H 225.619 -0.507941 -2.90696 0
M  V30 2359 H 225.7 -1.85447 -1.76191 0
M  V30 2360 H 225.344 -3.48792 -3.69197 0
M  V30 2361 H 225.274 -2.11349 -4.82327 0
M  V30 2362 H 227.765 -1.87767 -3.27951 0
M  V30 2363 H 228.078 -4.36985 -6.37389 0
M  V30 2364 H 226.423 -3.92419 -5.73614 0
M  V30 2365 H 229.614 -2.39858 -4.01977 0
M  V30 2366 H 229.787 -3.53485 -5.43095 0
M  V30 2367 N 223.193 1.4272 -0.668489 0
M  V30 2368 C 224.442 2.00846 -0.185389 0
M  V30 2369 C 224.755 1.53442 1.21305 0
M  V30 2370 O 225.961 2.03944 1.79218 0
M  V30 2371 C 224.417 3.58805 -0.280591 0
M  V30 2372 C 224.025 4.15198 -1.68268 0
M  V30 2373 C 225.769 4.24255 0.14412 0
M  V30 2374 C 223.676 5.655 -1.73099 0
M  V30 2375 H 222.606 0.751145 -0.0655475 0
M  V30 2376 H 225.257 1.63516 -0.832752 0
M  V30 2377 H 223.639 3.93608 0.434553 0
M  V30 2378 H 224.813 3.91866 -2.42441 0
M  V30 2379 H 223.128 3.62176 -2.05469 0
M  V30 2380 H 225.725 5.34547 0.128086 0
M  V30 2381 H 226.068 3.99277 1.17827 0
M  V30 2382 H 226.601 3.94389 -0.519798 0
M  V30 2383 H 223.34 5.95268 -2.74475 0
M  V30 2384 H 222.86 5.90842 -1.03274 0
M  V30 2385 H 224.539 6.29808 -1.48158 0
M  V30 2386 N 224.671 0.411399 1.52136 0
M  V30 2387 C 225.634 -0.401089 2.25663 0
M  V30 2388 C 226.634 -0.971732 1.28117 0
M  V30 2389 O 227.824 -0.850254 1.52041 0
M  V30 2390 C 224.956 -1.56483 3.02863 0
M  V30 2391 H 226.149 0.24295 2.98914 0
M  V30 2392 H 223.702 0.163968 1.55438 0
M  V30 2393 H 224.437 -2.24567 2.33967 0
M  V30 2394 H 224.222 -1.16211 3.74483 0
M  V30 2395 H 225.712 -2.13951 3.58629 0
M  V30 2396 N 226.149 -1.5696 0.141893 0
M  V30 2397 C 227.379 -2.00031 -0.516828 0
M  V30 2398 C 227.787 -1.02091 -1.59293 0
M  V30 2399 O 227.13 -0.00909657 -1.83698 0
M  V30 2400 C 227.192 -3.39534 -1.1814 0
M  V30 2401 C 226.856 -4.56313 -0.250513 0
M  V30 2402 C 227.853 -5.17295 0.519839 0
M  V30 2403 C 225.538 -5.02061 -0.154907 0
M  V30 2404 C 227.532 -6.2243 1.3733 0
M  V30 2405 C 225.219 -6.07053 0.702161 0
M  V30 2406 C 226.217 -6.67106 1.46487 0
M  V30 2407 O 225.905 -7.70066 2.30767 0
M  V30 2408 H 225.637 -0.661451 -0.139493 0
M  V30 2409 H 228.191 -2.04086 0.231926 0
M  V30 2410 H 226.421 -3.32302 -1.97769 0
M  V30 2411 H 228.11 -3.66745 -1.73933 0
M  V30 2412 H 228.876 -4.82852 0.45598 0
M  V30 2413 H 224.755 -4.5505 -0.7383 0
M  V30 2414 H 228.299 -6.69233 1.96909 0
M  V30 2415 H 224.196 -6.40923 0.76733 0
M  V30 2416 H 224.964 -7.87264 2.23959 0
M  V30 2417 N 227.627 0.131896 -1.57047 0
M  V30 2418 C 228.574 1.16236 -1.99393 0
M  V30 2419 C 229.544 1.41863 -0.863943 0
M  V30 2420 O 230.729 1.53946 -1.12718 0
M  V30 2421 C 227.869 2.48708 -2.39245 0
M  V30 2422 C 226.982 2.30127 -3.65603 0
M  V30 2423 C 226.117 3.55738 -3.94492 0
M  V30 2424 C 225.156 3.32259 -5.14073 0
M  V30 2425 N 224.293 4.50039 -5.38896 0
M  V30 2426 H 229.133 0.794251 -2.87221 0
M  V30 2427 H 226.67 0.380707 -1.42088 0
M  V30 2428 H 228.628 3.25969 -2.60384 0
M  V30 2429 H 227.258 2.83437 -1.54478 0
M  V30 2430 H 226.31 1.43845 -3.52154 0
M  V30 2431 H 227.622 2.08746 -4.5302 0
M  V30 2432 H 226.776 4.41423 -4.1621 0
M  V30 2433 H 225.515 3.80138 -3.05526 0
M  V30 2434 H 224.52 2.44963 -4.92212 0
M  V30 2435 H 225.745 3.09242 -6.04604 0
M  V30 2436 H 223.691 4.74584 -4.52886 0
M  V30 2437 H 223.608 4.31716 -6.2061 0
M  V30 2438 H 224.876 5.36895 -5.65123 0
M  V30 2439 N 229.106 1.52395 0.401703 0
M  V30 2440 C 230.054 1.7689 1.51039 0
M  V30 2441 C 231.048 0.636298 1.56996 0
M  V30 2442 O 232.254 0.818507 1.60314 0
M  V30 2443 H 228.629 0.559502 0.502456 0
M  V30 2444 H 230.6 2.69757 1.27568 0
M  V30 2445 C 229.349 1.94331 2.88324 0
M  V30 2446 H 228.672 2.80905 2.84486 0
M  V30 2447 H 230.112 2.15466 3.65172 0
M  V30 2448 C 228.571 0.712396 3.29282 0
M  V30 2449 O 229.101 -0.116218 4.01532 0
M  V30 2450 N 227.307 0.546154 2.85422 0
M  V30 2451 H 226.854 1.22156 2.26794 0
M  V30 2452 H 226.812 -0.276113 3.13185 0
M  V30 2453 N 230.584 -0.659388 1.43143 0
M  V30 2454 C 231.83 -1.41984 1.45644 0
M  V30 2455 C 232.185 -1.92245 0.0771718 0
M  V30 2456 O 231.478 -1.68976 -0.903205 0
M  V30 2457 C 231.672 -2.62206 2.42864 0
M  V30 2458 C 231.501 -2.23711 3.90107 0
M  V30 2459 C 230.271 -2.12332 4.58523 0
M  V30 2460 C 232.469 -1.84384 4.80112 0
M  V30 2461 N 230.451 -1.67102 5.9072 0
M  V30 2462 C 231.822 -1.5019 6.01534 0
M  V30 2463 C 233.877 -1.71512 4.67427 0
M  V30 2464 C 232.58 -1.04414 7.11681 0
M  V30 2465 C 234.606 -1.27142 5.77572 0
M  V30 2466 C 233.968 -0.938808 6.98116 0
M  V30 2467 H 230.067 -0.515448 0.588079 0
M  V30 2468 H 232.651 -0.759409 1.79279 0
M  V30 2469 H 230.822 -3.25917 2.11265 0
M  V30 2470 H 232.554 -3.28877 2.35843 0
M  V30 2471 H 229.309 -2.31893 4.12944 0
M  V30 2472 H 229.733 -1.46866 6.60878 0
M  V30 2473 H 234.375 -1.95868 3.74694 0
M  V30 2474 H 232.093 -0.788061 8.04248 0
M  V30 2475 H 235.679 -1.17681 5.69774 0
M  V30 2476 H 234.559 -0.6007 7.81896 0
M  V30 2477 N 232.062 -1.29571 -0.897171 0
M  V30 2478 C 232.972 -1.16808 -2.03453 0
M  V30 2479 C 233.988 -0.0907471 -1.73763 0
M  V30 2480 O 235.164 -0.303312 -1.99103 0
M  V30 2481 C 232.229 -0.848264 -3.36163 0
M  V30 2482 C 231.29 -2.0097 -3.79354 0
M  V30 2483 C 230.523 -1.70505 -5.05731 0
M  V30 2484 O 230.746 -0.62718 -5.66941 0
M  V30 2485 O 229.68 -2.5538 -5.45036 0
M  V30 2486 H 233.506 -2.12325 -2.17144 0
M  V30 2487 H 231.091 -1.09047 -1.02123 0
M  V30 2488 H 232.973 -0.684581 -4.15802 0
M  V30 2489 H 231.648 0.0771071 -3.23608 0
M  V30 2490 H 230.555 -2.22863 -3.00471 0
M  V30 2491 H 231.888 -2.91636 -3.96496 0
M  V30 2492 N 233.54 1.10788 -1.12088 0
M  V30 2493 C 234.768 1.86461 -0.896651 0
M  V30 2494 C 235.183 1.80492 0.553912 0
M  V30 2495 O 234.54 1.19102 1.38278 0
M  V30 2496 C 234.591 3.35006 -1.35843 0
M  V30 2497 O 234.312 3.40866 -2.75213 0
M  V30 2498 C 235.813 4.27565 -1.1706 0
M  V30 2499 H 233.033 0.589425 -0.320654 0
M  V30 2500 H 235.577 1.40076 -1.48993 0
M  V30 2501 H 233.732 3.7887 -0.808458 0
M  V30 2502 H 234.146 4.33411 -2.9539 0
M  V30 2503 H 235.62 5.30007 -1.54263 0
M  V30 2504 H 236.097 4.3906 -0.110814 0
M  V30 2505 H 236.703 3.89501 -1.70789 0
M  V30 2506 N 235.018 0.912232 1.28515 0
M  V30 2507 C 235.928 0.404506 2.31086 0
M  V30 2508 C 236.944 -0.50707 1.66448 0
M  V30 2509 O 238.12 -0.393624 1.97516 0
M  V30 2510 C 235.185 -0.348572 3.44943 0
M  V30 2511 C 234.246 0.59604 4.25142 0
M  V30 2512 C 233.479 -0.121194 5.33562 0
M  V30 2513 O 233.702 -1.34317 5.5436 0
M  V30 2514 O 232.636 0.542716 5.99448 0
M  V30 2515 H 236.462 1.25579 2.76521 0
M  V30 2516 H 234.047 0.676998 1.33181 0
M  V30 2517 H 235.929 -0.77395 4.14232 0
M  V30 2518 H 234.604 -1.17571 3.01594 0
M  V30 2519 H 233.511 1.07079 3.58448 0
M  V30 2520 H 234.844 1.38995 4.72167 0
M  V30 2521 N 236.496 -1.42363 0.676048 0
M  V30 2522 C 237.745 -2.00745 0.196037 0
M  V30 2523 C 238.058 -1.54083 -1.20489 0
M  V30 2524 O 239.264 -2.04891 -1.78134 0
M  V30 2525 C 237.72 -3.58651 0.299616 0
M  V30 2526 C 237.328 -4.143 1.70468 0
M  V30 2527 C 239.072 -4.24326 -0.121619 0
M  V30 2528 C 236.979 -5.64574 1.76096 0
M  V30 2529 H 235.909 -0.750787 0.0695301 0
M  V30 2530 H 238.56 -1.63072 0.841412 0
M  V30 2531 H 236.942 -3.93833 -0.413673 0
M  V30 2532 H 238.116 -3.90575 2.44515 0
M  V30 2533 H 236.431 -3.61081 2.07387 0
M  V30 2534 H 239.028 -5.34607 -0.0997362 0
M  V30 2535 H 239.371 -3.99897 -1.15708 0
M  V30 2536 H 239.904 -3.94108 0.540706 0
M  V30 2537 H 236.643 -5.93804 2.77628 0
M  V30 2538 H 236.163 -5.90286 1.06406 0
M  V30 2539 H 237.842 -6.29013 1.51496 0
M  V30 2540 N 237.974 -0.419461 -1.51915 0
M  V30 2541 C 239.202 0.152136 -2.0634 0
M  V30 2542 C 239.617 1.37988 -1.28859 0
M  V30 2543 O 238.974 1.79243 -0.343232 0
M  V30 2544 C 239.025 0.492266 -3.58133 0
M  V30 2545 O 238.746 -0.686736 -4.32684 0
M  V30 2546 C 240.247 1.11648 -4.2901 0
M  V30 2547 H 237.467 0.0158325 -0.670813 0
M  V30 2548 H 240.011 -0.593394 -1.95702 0
M  V30 2549 H 238.166 1.18769 -3.68745 0
M  V30 2550 H 238.58 -0.400341 -5.2297 0
M  V30 2551 H 240.054 1.3046 -5.36362 0
M  V30 2552 H 240.531 2.09251 -3.86148 0
M  V30 2553 H 241.137 0.460958 -4.22795 0
M  V30 2554 N 239.452 1.56882 -0.150215 0
M  V30 2555 C 240.415 2.1573 0.774157 0
M  V30 2556 C 241.415 1.0999 1.17298 0
M  V30 2557 O 242.605 1.35613 1.09338 0
M  V30 2558 C 239.737 2.72302 2.05096 0
M  V30 2559 H 240.93 2.98752 0.262201 0
M  V30 2560 H 238.483 1.55985 0.099248 0
M  V30 2561 H 239.218 1.92956 2.6065 0
M  V30 2562 H 239.003 3.49665 1.77416 0
M  V30 2563 H 240.493 3.17632 2.71109 0
M  V30 2564 N 240.93 -0.123565 1.57115 0
M  V30 2565 C 241.862 -1.17739 1.96648 0
M  V30 2566 C 242.875 -1.37906 0.865201 0
M  V30 2567 O 244.064 -1.37062 1.14351 0
M  V30 2568 C 241.164 -2.53821 2.24562 0
M  V30 2569 C 240.337 -2.54317 3.55867 0
M  V30 2570 C 239.396 -3.72112 3.72047 0
M  V30 2571 O 238.422 -3.55907 4.44206 0
M  V30 2572 N 239.624 -4.90498 3.10471 0
M  V30 2573 H 242.389 -0.841147 2.87654 0
M  V30 2574 H 239.95 -0.31289 1.58848 0
M  V30 2575 H 241.942 -3.31175 2.32606 0
M  V30 2576 H 240.512 -2.79645 1.39705 0
M  V30 2577 H 239.732 -1.62711 3.59053 0
M  V30 2578 H 241.02 -2.51701 4.42181 0
M  V30 2579 H 240.418 -5.06567 2.51806 0
M  V30 2580 H 238.975 -5.65544 3.24043 0
M  V30 2581 N 242.408 -1.52605 -0.393616 0
M  V30 2582 C 243.819 -1.59417 -0.971761 0
M  V30 2583 C 244.17 -0.444173 -1.91106 0
M  V30 2584 O 243.295 0.433382 -2.12016 0
M  V30 2585 C 243.89 -2.88936 -1.76921 0
M  V30 2586 C 242.449 -2.98175 -2.29714 0
M  V30 2587 C 241.596 -2.54491 -1.10135 0
M  V30 2588 H 244.547 -1.57751 -0.173317 0
M  V30 2589 H 244.568 -2.75163 -2.62804 0
M  V30 2590 H 244.08 -3.72616 -1.08532 0
M  V30 2591 H 242.181 -2.19024 -3.01429 0
M  V30 2592 H 242.294 -4.02726 -2.59517 0
M  V30 2593 H 240.658 -2.08702 -1.45999 0
M  V30 2594 H 241.441 -3.4056 -0.432874 0
M  V30 2595 N 243.887 0.651787 -1.4349 0
M  V30 2596 C 245.164 1.40909 -1.35661 0
M  V30 2597 C 245.544 2.11099 -0.00511733 0
M  V30 2598 O 244.892 2.04892 1.0115 0
M  V30 2599 C 245.102 2.3926 -2.54078 0
M  V30 2600 C 246.45 3.03217 -2.97228 0
M  V30 2601 O 247.474 2.49588 -2.54135 0
M  V30 2602 O 246.333 4.00455 -3.71885 0
M  V30 2603 H 243.427 0.629625 -0.536191 0
M  V30 2604 H 245.973 0.678575 -1.55542 0
M  V30 2605 H 244.745 1.86352 -3.44076 0
M  V30 2606 H 244.368 3.1976 -2.36303 0
M  V30 2607 N 245.365 1.30045 0.890287 0
M  V30 2608 C 246.613 1.18327 1.63839 0
M  V30 2609 C 246.934 -0.263455 1.93212 0
M  V30 2610 O 246.204 -1.17856 1.56482 0
M  V30 2611 H 244.784 0.434933 0.607324 0
M  V30 2612 H 247.446 1.631 1.06698 0
M  V30 2613 H 246.542 1.74024 2.59079 0
M  V30 2614 N 246.843 -1.10192 1.12674 0
M  V30 2615 C 248.091 -1.81845 0.881861 0
M  V30 2616 C 248.412 -1.85737 -0.593867 0
M  V30 2617 O 247.682 -1.33724 -1.4316 0
M  V30 2618 H 246.262 -0.673432 0.323261 0
M  V30 2619 H 248.924 -1.33316 1.42172 0
M  V30 2620 H 248.02 -2.85288 1.2656 0
M  V30 2621 N 248.321 -0.919034 -1.28029 0
M  V30 2622 C 249.268 -0.410005 -2.27129 0
M  V30 2623 C 250.238 0.518405 -1.57803 0
M  V30 2624 O 251.423 0.439451 -1.8567 0
M  V30 2625 C 248.563 0.339054 -3.4343 0
M  V30 2626 C 247.676 -0.622468 -4.27492 0
M  V30 2627 C 246.811 0.145567 -5.31001 0
M  V30 2628 C 245.85 -0.809226 -6.06727 0
M  V30 2629 N 244.987 -0.0743728 -7.02061 0
M  V30 2630 H 249.827 -1.26011 -2.70047 0
M  V30 2631 H 247.364 -0.632663 -1.328 0
M  V30 2632 H 249.322 0.789586 -4.0966 0
M  V30 2633 H 247.952 1.15346 -3.01488 0
M  V30 2634 H 247.004 -1.19153 -3.61257 0
M  V30 2635 H 248.316 -1.35252 -4.80113 0
M  V30 2636 H 247.47 0.656417 -6.03139 0
M  V30 2637 H 246.209 0.908643 -4.79161 0
M  V30 2638 H 245.214 -1.3314 -5.33436 0
M  V30 2639 H 246.439 -1.57194 -6.60656 0
M  V30 2640 H 244.385 0.670616 -6.52563 0
M  V30 2641 H 244.302 -0.744157 -7.52329 0
M  V30 2642 H 245.57 0.416109 -7.78389 0
M  V30 2643 N 249.799 1.42003 -0.683588 0
M  V30 2644 C 251.027 2.05746 -0.218182 0
M  V30 2645 C 251.442 1.51396 1.12804 0
M  V30 2646 O 250.799 0.657303 1.70252 0
M  V30 2647 C 250.85 3.61171 -0.154131 0
M  V30 2648 O 250.571 4.13508 -1.44716 0
M  V30 2649 C 252.072 4.42042 0.333713 0
M  V30 2650 H 249.292 0.662888 -0.10402 0
M  V30 2651 H 251.836 1.81987 -0.9328 0
M  V30 2652 H 249.991 3.84012 0.511231 0
M  V30 2653 H 250.405 5.07453 -1.32632 0
M  V30 2654 H 251.879 5.51028 0.327423 0
M  V30 2655 H 252.356 4.17269 1.37053 0
M  V30 2656 H 252.962 4.24239 -0.300222 0
M  V30 2657 N 251.277 0.427512 1.51691 0
M  V30 2658 C 252.187 -0.39527 2.31246 0
M  V30 2659 C 253.203 -1.03674 1.39742 0
M  V30 2660 O 254.379 -1.03425 1.72816 0
M  V30 2661 C 251.444 -1.48706 3.13189 0
M  V30 2662 C 250.505 -0.866743 4.20459 0
M  V30 2663 C 249.738 -1.90651 4.98486 0
M  V30 2664 O 249.961 -3.12733 4.77026 0
M  V30 2665 O 248.895 -1.5025 5.82845 0
M  V30 2666 H 252.721 0.253918 3.02637 0
M  V30 2667 H 250.306 0.190274 1.48183 0
M  V30 2668 H 252.188 -2.12047 3.64162 0
M  V30 2669 H 250.863 -2.12051 2.44573 0
M  V30 2670 H 249.77 -0.195544 3.73589 0
M  V30 2671 H 251.103 -0.276934 4.9142 0
M  V30 2672 N 252.755 -1.56801 0.158532 0
M  V30 2673 C 253.703 -2.18638 -0.793729 0
M  V30 2674 C 254.697 -1.14669 -1.24689 0
M  V30 2675 O 255.903 -1.32895 -1.21403 0
M  V30 2676 H 252.278 -0.700226 -0.274204 0
M  V30 2677 H 254.249 -2.97367 -0.248095 0
M  V30 2678 C 252.998 -2.83139 -2.0181 0
M  V30 2679 H 252.321 -3.62863 -1.67841 0
M  V30 2680 H 253.761 -3.29894 -2.66357 0
M  V30 2681 C 252.22 -1.82244 -2.83353 0
M  V30 2682 O 252.75 -1.3 -3.80083 0
M  V30 2683 N 250.956 -1.51288 -2.48114 0
M  V30 2684 H 250.503 -1.93964 -1.69516 0
M  V30 2685 H 250.461 -0.840296 -3.02963 0
M  V30 2686 N 254.233 0.115231 -1.57178 0
M  V30 2687 C 255.473 0.828199 -1.8687 0
M  V30 2688 C 255.837 1.76873 -0.747002 0
M  V30 2689 O 257.038 2.52354 -0.925785 0
M  V30 2690 C 255.309 1.55515 -3.21792 0
M  V30 2691 S 256.868 2.30917 -3.73125 0
M  V30 2692 H 253.686 0.27634 -0.655101 0
M  V30 2693 H 256.288 0.0863469 -1.95309 0
M  V30 2694 H 254.992 0.856248 -4.01368 0
M  V30 2695 H 254.523 2.3373 -3.16439 0
M  V30 2696 H 256.538 3.56705 -3.44929 0
M  V30 2697 N 255.711 1.52812 0.385517 0
M  V30 2698 C 256.674 1.77188 1.45386 0
M  V30 2699 C 257.674 0.641953 1.4743 0
M  V30 2700 O 258.864 0.910033 1.4854 0
M  V30 2701 C 255.996 1.87582 2.8465 0
M  V30 2702 H 257.189 2.72583 1.25054 0
M  V30 2703 H 254.742 1.43586 0.617467 0
M  V30 2704 H 255.477 0.941849 3.10322 0
M  V30 2705 H 255.262 2.69748 2.84567 0
M  V30 2706 H 256.752 2.08102 3.62054 0
M  V30 2707 N 257.189 -0.644168 1.43834 0
M  V30 2708 C 258.435 -1.40603 1.46146 0
M  V30 2709 C 258.768 -1.93997 0.0887717 0
M  V30 2710 O 258.043 -1.72854 -0.891724 0
M  V30 2711 C 258.326 -2.58086 2.51124 0
M  V30 2712 C 258.179 -2.10126 3.97702 0
M  V30 2713 C 259.498 -3.60291 2.52742 0
M  V30 2714 H 256.617 -0.509905 0.532134 0
M  V30 2715 H 259.259 -0.729502 1.75437 0
M  V30 2716 H 257.409 -3.15801 2.26278 0
M  V30 2717 H 259.081 -1.57342 4.33637 0
M  V30 2718 H 257.324 -1.41419 4.10101 0
M  V30 2719 H 257.995 -2.94649 4.66783 0
M  V30 2720 H 260.471 -3.12352 2.7491 0
M  V30 2721 H 259.347 -4.40032 3.28121 0
M  V30 2722 H 259.608 -4.1349 1.56455 0
M  V30 2723 N 258.668 -1.30515 -0.883378 0
M  V30 2724 C 259.598 -1.19607 -2.00541 0
M  V30 2725 C 260.579 -0.086346 -1.69881 0
M  V30 2726 O 261.764 -0.268654 -1.92333 0
M  V30 2727 C 258.894 -0.888758 -3.35736 0
M  V30 2728 C 257.848 -1.95659 -3.8066 0
M  V30 2729 C 257.174 -1.50224 -5.13164 0
M  V30 2730 C 258.474 -3.36788 -3.99213 0
M  V30 2731 H 260.168 -2.13476 -2.09925 0
M  V30 2732 H 257.714 -1.02775 -1.00863 0
M  V30 2733 H 259.667 -0.799094 -4.13754 0
M  V30 2734 H 258.391 0.0856125 -3.26488 0
M  V30 2735 H 257.05 -2.03591 -3.04871 0
M  V30 2736 H 256.698 -0.516092 -5.00345 0
M  V30 2737 H 256.398 -2.2165 -5.44192 0
M  V30 2738 H 257.922 -1.42639 -5.93706 0
M  V30 2739 H 259.336 -3.31605 -4.67665 0
M  V30 2740 H 257.733 -4.06314 -4.41621 0
M  V30 2741 H 258.803 -3.78561 -3.03017 0
M  V30 2742 N 260.146 1.09593 -1.13257 0
M  V30 2743 C 261.371 1.8604 -0.916732 0
M  V30 2744 C 261.796 1.80504 0.529146 0
M  V30 2745 O 261.154 1.18127 1.37534 0
M  V30 2746 C 261.202 3.32017 -1.40703 0
M  V30 2747 O 260.306 4.08141 -0.591153 0
M  V30 2748 H 259.647 0.576943 -0.328683 0
M  V30 2749 H 262.177 1.38405 -1.50682 0
M  V30 2750 H 262.187 3.82865 -1.4099 0
M  V30 2751 H 260.862 3.35361 -2.45979 0
M  V30 2752 H 259.439 3.67084 -0.656005 0
M  V30 2753 N 261.624 0.925811 1.2754 0
M  V30 2754 C 262.872 0.564138 1.94067 0
M  V30 2755 C 263.193 -0.897188 1.73134 0
M  V30 2756 O 262.463 -1.63573 1.07799 0
M  V30 2757 H 261.043 0.205645 0.718136 0
M  V30 2758 H 263.705 1.1778 1.55287 0
M  V30 2759 H 262.801 0.76881 3.02483 0
M  V30 2760 N 263.102 -1.41638 0.69111 0
M  V30 2761 C 264.065 -2.29178 0.0319786 0
M  V30 2762 C 265.065 -1.44153 -0.712496 0
M  V30 2763 O 266.255 -1.65354 -0.548053 0
M  V30 2764 C 263.387 -3.26952 -0.965161 0
M  V30 2765 H 264.58 -2.88959 0.802681 0
M  V30 2766 H 262.133 -1.4955 0.454356 0
M  V30 2767 H 262.868 -2.72142 -1.76378 0
M  V30 2768 H 262.653 -3.89685 -0.434522 0
M  V30 2769 H 264.143 -3.92561 -1.42428 0
M  V30 2770 N 264.58 -0.43555 -1.51462 0
M  V30 2771 C 265.543 0.365137 -2.26273 0
M  V30 2772 C 266.543 0.951227 -1.29647 0
M  V30 2773 O 267.733 0.825958 -1.53374 0
M  V30 2774 C 264.865 1.51645 -3.05314 0
M  V30 2775 H 266.058 -0.290474 -2.9849 0
M  V30 2776 H 263.611 -0.188676 -1.55157 0
M  V30 2777 H 264.346 2.20816 -2.3751 0
M  V30 2778 H 264.131 1.10238 -3.76284 0
M  V30 2779 H 265.621 2.08218 -3.61987 0
M  V30 2780 N 266.058 1.56714 -0.166846 0
M  V30 2781 C 267.006 2.19056 0.782123 0
M  V30 2782 C 268 1.15328 1.24079 0
M  V30 2783 O 269.206 1.33537 1.20697 0
M  V30 2784 H 265.581 0.70167 0.270486 0
M  V30 2785 H 267.552 2.97494 0.232322 0
M  V30 2786 C 266.301 2.84206 2.00306 0
M  V30 2787 H 265.624 3.63748 1.65914 0
M  V30 2788 H 267.064 3.31302 2.64604 0
M  V30 2789 C 265.523 1.83744 2.82382 0
M  V30 2790 O 266.053 1.32014 3.79388 0
M  V30 2791 N 264.259 1.52601 2.47308 0
M  V30 2792 H 263.806 1.9486 1.68485 0
M  V30 2793 H 263.764 0.856351 3.02513 0
M  V30 2794 N 267.536 -0.106894 1.57237 0
M  V30 2795 C 268.784 -0.810921 1.85117 0
M  V30 2796 C 269.105 -1.7984 0.753827 0
M  V30 2797 O 268.375 -1.94649 -0.221056 0
M  V30 2798 H 266.955 -0.302466 0.683025 0
M  V30 2799 H 269.617 -0.0913324 1.94686 0
M  V30 2800 H 268.713 -1.34875 2.81452 0
M  V30 2801 N 269.014 -1.53014 -0.377408 0
M  V30 2802 C 269.961 -1.78616 -1.46168 0
M  V30 2803 C 270.931 -0.629917 -1.53692 0
M  V30 2804 O 272.116 -0.870861 -1.69766 0
M  V30 2805 C 269.256 -1.97123 -2.8326 0
M  V30 2806 C 268.369 -3.24831 -2.84796 0
M  V30 2807 C 267.504 -3.33591 -4.13389 0
M  V30 2808 C 266.543 -4.55377 -4.09021 0
M  V30 2809 N 265.68 -4.61355 -5.29241 0
M  V30 2810 H 270.52 -2.71142 -1.23637 0
M  V30 2811 H 268.057 -1.34326 -0.599577 0
M  V30 2812 H 270.015 -2.05839 -3.62886 0
M  V30 2813 H 268.645 -1.07946 -3.04216 0
M  V30 2814 H 267.697 -3.25128 -1.97474 0
M  V30 2815 H 269.009 -4.14523 -2.77439 0
M  V30 2816 H 268.163 -3.41554 -5.01424 0
M  V30 2817 H 266.902 -2.41894 -4.23484 0
M  V30 2818 H 265.907 -4.47527 -3.19373 0
M  V30 2819 H 267.132 -5.48402 -4.00539 0
M  V30 2820 H 265.078 -3.72554 -5.39944 0
M  V30 2821 H 264.995 -5.44935 -5.24006 0
M  V30 2822 H 266.263 -4.73586 -6.19141 0
M  V30 2823 N 270.492 0.636531 -1.44174 0
M  V30 2824 C 271.738 1.39649 -1.47884 0
M  V30 2825 C 272.093 1.92098 -0.107747 0
M  V30 2826 O 271.386 1.70391 0.876208 0
M  V30 2827 C 271.58 2.58309 -2.47005 0
M  V30 2828 C 271.409 2.17476 -3.93617 0
M  V30 2829 C 270.179 2.0501 -4.61843 0
M  V30 2830 C 272.377 1.76722 -4.82984 0
M  V30 2831 N 270.359 1.57683 -5.93304 0
M  V30 2832 C 271.73 1.40601 -6.03847 0
M  V30 2833 C 273.785 1.64054 -4.70096 0
M  V30 2834 C 272.488 0.930787 -7.13252 0
M  V30 2835 C 274.514 1.17937 -5.79521 0
M  V30 2836 C 273.876 0.827625 -6.99521 0
M  V30 2837 H 269.975 0.506027 -0.596205 0
M  V30 2838 H 272.559 0.730791 -1.80465 0
M  V30 2839 H 270.73 3.22514 -2.16423 0
M  V30 2840 H 272.462 3.25083 -2.41045 0
M  V30 2841 H 269.217 2.25294 -4.16581 0
M  V30 2842 H 269.641 1.36334 -6.63131 0
M  V30 2843 H 274.283 1.89882 -3.77762 0
M  V30 2844 H 272.001 0.660012 -8.054 0
M  V30 2845 H 275.587 1.08601 -5.71574 0
M  V30 2846 H 274.467 0.476231 -7.82753 0
M  V30 2847 N 271.97 1.30982 0.876444 0
M  V30 2848 C 273.217 1.20296 1.62896 0
M  V30 2849 C 273.545 -0.240395 1.93009 0
M  V30 2850 O 272.8 -1.18733 1.55567 0
M  V30 2851 C 273.099 1.98572 2.9716 0
M  V30 2852 C 272.765 3.48125 2.86566 0
M  V30 2853 C 271.427 3.88905 2.83383 0
M  V30 2854 C 273.779 4.43322 2.74071 0
M  V30 2855 C 271.107 5.2316 2.65556 0
M  V30 2856 C 273.459 5.77695 2.57781 0
M  V30 2857 C 272.123 6.17704 2.52979 0
M  V30 2858 H 271.393 0.440193 0.59608 0
M  V30 2859 H 274.04 1.62177 1.01837 0
M  V30 2860 H 272.345 1.49352 3.62217 0
M  V30 2861 H 274.042 1.8769 3.54364 0
M  V30 2862 H 270.632 3.15723 2.89856 0
M  V30 2863 H 274.816 4.12752 2.75589 0
M  V30 2864 H 270.072 5.53241 2.60259 0
M  V30 2865 H 274.246 6.51091 2.47089 0
M  V30 2866 H 271.873 7.21678 2.38924 0
M  V30 2867 N 273.449 -1.08991 1.13837 0
M  V30 2868 C 274.726 -1.77863 0.813876 0
M  V30 2869 C 275.106 -1.99375 -0.693746 0
M  V30 2870 O 274.454 -1.59875 -1.63255 0
M  V30 2871 C 274.664 -3.0986 1.60586 0
M  V30 2872 C 276.012 -3.84493 1.8014 0
M  V30 2873 O 277.036 -3.19624 1.57222 0
M  V30 2874 O 275.895 -5.00957 2.18413 0
M  V30 2875 H 272.989 -0.771589 0.297624 0
M  V30 2876 H 275.535 -1.15507 1.24323 0
M  V30 2877 H 274.307 -2.89715 2.63022 0
M  V30 2878 H 273.93 -3.79942 1.17173 0
M  V30 2879 N 274.927 -0.932562 -1.27047 0
M  V30 2880 C 275.874 -0.434072 -2.26681 0
M  V30 2881 C 276.844 0.501639 -1.58344 0
M  V30 2882 O 278.029 0.419734 -1.86126 0
M  V30 2883 C 275.169 0.30261 -3.43771 0
M  V30 2884 C 274.282 -0.667774 -4.26808 0
M  V30 2885 C 273.417 0.0892393 -5.31125 0
M  V30 2886 C 272.456 -0.873532 -6.05835 0
M  V30 2887 N 271.593 -0.148832 -7.01942 0
M  V30 2888 H 276.433 -1.28868 -2.68695 0
M  V30 2889 H 273.97 -0.646713 -1.32121 0
M  V30 2890 H 275.928 0.746092 -4.10474 0
M  V30 2891 H 274.558 1.12142 -3.02695 0
M  V30 2892 H 273.61 -1.22978 -3.59973 0
M  V30 2893 H 274.922 -1.40337 -4.78651 0
M  V30 2894 H 274.076 0.592409 -6.03801 0
M  V30 2895 H 272.815 0.85777 -4.80097 0
M  V30 2896 H 271.82 -1.38791 -5.31994 0
M  V30 2897 H 273.045 -1.64193 -6.58952 0
M  V30 2898 H 270.991 0.601365 -6.53238 0
M  V30 2899 H 270.908 -0.82391 -7.51497 0
M  V30 2900 H 272.176 0.333527 -7.78786 0
M  V30 2901 N 276.405 1.4127 -0.698611 0
M  V30 2902 C 277.821 1.55241 -0.370462 0
M  V30 2903 C 278.021 1.67351 1.12231 0
M  V30 2904 O 277.077 1.65363 1.90818 0
M  V30 2905 C 278.39 2.78997 -1.12165 0
M  V30 2906 C 279.938 2.92797 -1.1063 0
M  V30 2907 C 280.413 4.19445 -1.8393 0
M  V30 2908 N 281.904 4.26409 -1.80914 0
M  V30 2909 C 282.639 5.23271 -2.34467 0
M  V30 2910 N 282.135 6.26145 -2.96504 0
M  V30 2911 N 283.928 5.15232 -2.24706 0
M  V30 2912 H 276.079 1.31654 -1.66676 0
M  V30 2913 H 278.342 0.635393 -0.703548 0
M  V30 2914 H 278.048 2.76268 -2.17644 0
M  V30 2915 H 277.922 3.70606 -0.702209 0
M  V30 2916 H 280.309 2.95039 -0.0597713 0
M  V30 2917 H 280.39 2.02353 -1.56483 0
M  V30 2918 H 280.034 4.17964 -2.88563 0
M  V30 2919 H 279.964 5.08866 -1.35509 0
M  V30 2920 H 282.455 3.527 -1.35687 0
M  V30 2921 H 282.768 6.96451 -3.34927 0
M  V30 2922 H 281.113 6.26638 -3.00583 0
M  V30 2923 H 284.304 4.33789 -1.7591 0
M  V30 2924 H 284.477 5.90552 -2.66745 0
M  V30 2925 N 277.883 0.443576 1.51229 0
M  V30 2926 C 279.123 -0.119889 2.04048 0
M  V30 2927 C 279.487 -1.39418 1.32009 0
M  V30 2928 O 280.688 -2.03829 1.75235 0
M  V30 2929 C 278.959 -0.327233 3.55899 0
M  V30 2930 S 280.518 -0.853208 4.30425 0
M  V30 2931 H 277.336 -0.028921 0.710412 0
M  V30 2932 H 279.938 0.604413 1.85922 0
M  V30 2933 H 278.642 0.606445 4.05895 0
M  V30 2934 H 278.173 -1.07844 3.7833 0
M  V30 2935 H 280.188 -2.13005 4.48155 0
M  V30 2936 N 279.361 -1.56624 0.175154 0
M  V30 2937 C 280.777 -1.58571 -0.180966 0
M  V30 2938 C 280.977 -1.19065 -1.6256 0
M  V30 2939 O 280.033 -0.904044 -2.35761 0
M  V30 2940 C 281.346 -3.00522 0.103326 0
M  V30 2941 C 282.894 -3.12972 0.0418426 0
M  V30 2942 C 283.369 -4.57022 0.299175 0
M  V30 2943 N 284.86 -4.62541 0.247086 0
M  V30 2944 C 285.595 -5.71857 0.420318 0
M  V30 2945 N 285.091 -6.89717 0.652816 0
M  V30 2946 N 286.884 -5.60972 0.355957 0
M  V30 2947 H 279.035 -1.80589 1.11809 0
M  V30 2948 H 281.298 -0.837178 0.444788 0
M  V30 2949 H 281.004 -3.33916 1.10422 0
M  V30 2950 H 280.878 -3.72344 -0.603299 0
M  V30 2951 H 283.265 -2.79403 -0.949636 0
M  V30 2952 H 283.346 -2.43578 0.781238 0
M  V30 2953 H 282.99 -4.913 1.28788 0
M  V30 2954 H 282.92 -5.24579 -0.460876 0
M  V30 2955 H 285.411 -3.77829 0.0731895 0
M  V30 2956 H 285.724 -7.68911 0.774347 0
M  V30 2957 H 284.069 -6.91572 0.689476 0
M  V30 2958 H 287.26 -4.67773 0.174882 0
M  V30 2959 H 287.433 -6.46111 0.494388 0
M  V30 2960 N 280.839 0.0985539 -1.57292 0
M  V30 2961 C 282.116 0.834155 -1.76921 0
M  V30 2962 C 282.496 1.97101 -0.755928 0
M  V30 2963 O 281.844 2.27474 0.216245 0
M  V30 2964 C 282.054 1.33194 -3.22584 0
M  V30 2965 C 283.402 1.77611 -3.85668 0
M  V30 2966 O 284.426 1.42825 -3.26312 0
M  V30 2967 O 283.285 2.4192 -4.90038 0
M  V30 2968 H 280.379 0.397628 -0.725135 0
M  V30 2969 H 282.925 0.0807044 -1.69508 0
M  V30 2970 H 281.697 0.517248 -3.87866 0
M  V30 2971 H 281.32 2.1475 -3.34616 0
M  V30 2972 N 282.317 1.53212 0.369288 0
M  V30 2973 C 283.249 1.75668 1.47219 0
M  V30 2974 C 284.262 0.637387 1.49804 0
M  V30 2975 O 285.451 0.913561 1.5335 0
M  V30 2976 C 282.551 1.81818 2.85999 0
M  V30 2977 C 281.724 3.11409 3.07153 0
M  V30 2978 C 280.783 3.08849 4.26026 0
M  V30 2979 O 279.809 3.82659 4.2138 0
M  V30 2980 N 281.011 2.29409 5.33246 0
M  V30 2981 H 283.776 2.70832 1.28337 0
M  V30 2982 H 281.337 1.51944 0.55898 0
M  V30 2983 H 283.329 1.77588 3.63655 0
M  V30 2984 H 281.899 0.939544 2.98146 0
M  V30 2985 H 281.119 3.28971 2.1719 0
M  V30 2986 H 282.407 3.97059 3.18154 0
M  V30 2987 H 281.805 1.68946 5.39883 0
M  V30 2988 H 280.362 2.31001 6.09493 0
M  V30 2989 N 283.795 -0.628877 1.44509 0
M  V30 2990 C 284.725 -1.75187 1.54376 0
M  V30 2991 C 285.706 -1.65411 0.396618 0
M  V30 2992 O 286.891 -1.84137 0.617031 0
M  V30 2993 C 284.021 -3.13725 1.48976 0
M  V30 2994 C 282.975 -3.38291 2.62189 0
M  V30 2995 C 282.301 -4.76883 2.41841 0
M  V30 2996 C 283.601 -3.30632 4.04326 0
M  V30 2997 H 285.295 -1.67187 2.48373 0
M  V30 2998 H 282.841 -0.802909 1.19538 0
M  V30 2999 H 284.794 -3.92064 1.54478 0
M  V30 3000 H 283.518 -3.22515 0.514961 0
M  V30 3001 H 282.177 -2.62334 2.56079 0
M  V30 3002 H 281.825 -4.82378 1.42548 0
M  V30 3003 H 281.525 -4.94278 3.17747 0
M  V30 3004 H 283.049 -5.57449 2.49165 0
M  V30 3005 H 284.463 -3.98873 4.11793 0
M  V30 3006 H 282.86 -3.59561 4.80454 0
M  V30 3007 H 283.93 -2.28404 4.27738 0
M  V30 3008 N 285.273 -1.31445 -0.869486 0
M  V30 3009 C 286.684 -1.19042 -1.43826 0
M  V30 3010 C 287.035 0.202919 -1.95148 0
M  V30 3011 O 286.16 1.10071 -1.86315 0
M  V30 3012 C 286.755 -2.15499 -2.6143 0
M  V30 3013 C 285.314 -2.07028 -3.14351 0
M  V30 3014 C 284.461 -2.04701 -1.87063 0
M  V30 3015 H 287.412 -1.43489 -0.677984 0
M  V30 3016 H 287.433 -1.74488 -3.38134 0
M  V30 3017 H 286.945 -3.16899 -2.24046 0
M  V30 3018 H 285.046 -1.08825 -3.56354 0
M  V30 3019 H 285.159 -2.96157 -3.766 0
M  V30 3020 H 283.523 -1.49724 -2.06046 0
M  V30 3021 H 284.306 -3.07857 -1.51917 0
M  V30 3022 N 286.751 1.08385 -1.14413 0
M  V30 3023 C 287.981 1.8425 -0.934644 0
M  V30 3024 C 288.389 1.81907 0.520234 0
M  V30 3025 O 287.732 1.22126 1.37226 0
M  V30 3026 C 287.794 3.32853 -1.35828 0
M  V30 3027 C 287.458 3.5893 -2.82875 0
M  V30 3028 C 288.455 3.53756 -3.80989 0
M  V30 3029 C 286.14 3.86934 -3.20293 0
M  V30 3030 C 288.134 3.76216 -5.14529 0
M  V30 3031 C 285.821 4.09047 -4.54008 0
M  V30 3032 C 286.819 4.03682 -5.50936 0
M  V30 3033 O 286.507 4.25214 -6.82238 0
M  V30 3034 H 286.239 0.588502 -0.332628 0
M  V30 3035 H 288.793 1.37792 -1.52324 0
M  V30 3036 H 287.023 3.8007 -0.713019 0
M  V30 3037 H 288.712 3.90154 -1.11957 0
M  V30 3038 H 289.478 3.32135 -3.53428 0
M  V30 3039 H 285.357 3.9023 -2.45442 0
M  V30 3040 H 288.901 3.71943 -5.90173 0
M  V30 3041 H 284.798 4.30151 -4.8129 0
M  V30 3042 H 285.566 4.42619 -6.88499 0
M  V30 3043 N 288.23 0.939286 1.26551 0
M  V30 3044 C 289.479 0.581601 1.93133 0
M  V30 3045 C 289.792 -0.883224 1.74524 0
M  V30 3046 O 290.998 -1.3502 2.35546 0
M  V30 3047 C 289.454 0.989425 3.46032 0
M  V30 3048 C 289.062 2.47573 3.73379 0
M  V30 3049 C 290.806 0.703544 4.18629 0
M  V30 3050 C 288.713 2.82235 5.19709 0
M  V30 3051 H 287.643 0.213803 0.723052 0
M  V30 3052 H 290.294 1.14167 1.4366 0
M  V30 3053 H 288.676 0.357902 3.94379 0
M  V30 3054 H 289.85 3.15614 3.35744 0
M  V30 3055 H 288.165 2.73471 3.1401 0
M  V30 3056 H 290.762 0.938869 5.26393 0
M  V30 3057 H 291.105 -0.359639 4.14744 0
M  V30 3058 H 291.638 1.2947 3.76141 0
M  V30 3059 H 288.377 3.87509 5.28694 0
M  V30 3060 H 287.897 2.18854 5.58447 0
M  V30 3061 H 289.576 2.70599 5.87695 0
M  V30 3062 N 289.708 -1.40897 0.706093 0
M  V30 3063 C 290.948 -2.02916 0.245827 0
M  V30 3064 C 291.312 -1.54751 -1.13649 0
M  V30 3065 O 292.513 -2.08768 -1.69321 0
M  V30 3066 C 290.784 -3.56031 0.312537 0
M  V30 3067 S 292.343 -4.38741 -0.0721388 0
M  V30 3068 H 289.161 -0.704186 0.0982007 0
M  V30 3069 H 291.763 -1.72168 0.926207 0
M  V30 3070 H 290.467 -3.88579 1.32039 0
M  V30 3071 H 289.998 -3.91495 -0.386641 0
M  V30 3072 H 292.013 -4.78952 -1.29692 0
M  V30 3073 N 291.186 -0.45159 -1.50991 0
M  V30 3074 C 292.118 0.388634 -2.25881 0
M  V30 3075 C 293.131 0.974041 -1.30446 0
M  V30 3076 O 294.32 0.865758 -1.56099 0
M  V30 3077 C 291.42 1.5571 -3.01011 0
M  V30 3078 C 290.593 1.08801 -4.23652 0
M  V30 3079 C 289.652 2.12825 -4.8124 0
M  V30 3080 O 288.678 1.71678 -5.42693 0
M  V30 3081 N 289.88 3.45453 -4.66522 0
M  V30 3082 H 292.645 -0.25329 -2.98628 0
M  V30 3083 H 290.206 -0.281268 -1.59438 0
M  V30 3084 H 292.198 2.24952 -3.3642 0
M  V30 3085 H 290.768 2.10409 -2.31186 0
M  V30 3086 H 289.988 0.22215 -3.93574 0
M  V30 3087 H 291.276 0.752213 -5.03209 0
M  V30 3088 H 290.674 3.81605 -4.17605 0
M  V30 3089 H 289.231 4.10549 -5.06254 0
M  V30 3090 N 292.664 1.56529 -0.183458 0
M  V30 3091 C 293.911 1.97244 0.458357 0
M  V30 3092 C 294.239 1.06992 1.62428 0
M  V30 3093 O 293.494 0.106542 1.9541 0
M  V30 3094 C 293.793 3.43939 0.971637 0
M  V30 3095 C 293.459 4.5083 -0.0796784 0
M  V30 3096 C 292.121 4.79786 -0.368584 0
M  V30 3097 C 294.473 5.15138 -0.792638 0
M  V30 3098 C 291.801 5.70345 -1.37563 0
M  V30 3099 C 294.153 6.06784 -1.78875 0
M  V30 3100 C 292.817 6.34102 -2.08497 0
M  V30 3101 H 292.087 0.721768 0.167725 0
M  V30 3102 H 294.734 1.89472 -0.277976 0
M  V30 3103 H 293.039 3.48724 1.78602 0
M  V30 3104 H 294.736 3.72791 1.47744 0
M  V30 3105 H 291.326 4.28317 0.155668 0
M  V30 3106 H 295.51 4.92868 -0.582659 0
M  V30 3107 H 290.766 5.89789 -1.61118 0
M  V30 3108 H 294.94 6.55677 -2.3465 0
M  V30 3109 H 292.567 7.04074 -2.86678 0
M  V30 3110 N 294.142 -0.090211 1.57342 0
M  V30 3111 C 295.39 -0.791241 1.85967 0
M  V30 3112 C 295.711 -1.7903 0.772859 0
M  V30 3113 O 294.981 -1.94872 -0.200398 0
M  V30 3114 H 293.561 -0.295205 0.686195 0
M  V30 3115 H 296.223 -0.0706782 1.94772 0
M  V30 3116 H 295.319 -1.31882 2.82867 0
M  V30 3117 N 295.62 -1.53406 -0.361157 0
M  V30 3118 C 296.869 -1.69022 -1.10066 0
M  V30 3119 C 297.182 -0.450838 -1.90333 0
M  V30 3120 O 298.388 -0.487617 -2.67085 0
M  V30 3121 C 296.844 -2.98812 -2.00598 0
M  V30 3122 C 296.452 -4.30027 -1.25621 0
M  V30 3123 C 298.196 -3.23795 -2.74513 0
M  V30 3124 C 296.103 -5.50903 -2.1508 0
M  V30 3125 H 295.033 -0.629776 -0.414606 0
M  V30 3126 H 297.684 -1.79907 -0.361348 0
M  V30 3127 H 296.066 -2.8174 -2.78278 0
M  V30 3128 H 297.24 -4.57745 -0.529739 0
M  V30 3129 H 295.555 -4.11522 -0.635496 0
M  V30 3130 H 298.152 -4.11289 -3.41681 0
M  V30 3131 H 298.495 -2.40045 -3.40123 0
M  V30 3132 H 299.028 -3.41561 -2.03914 0
M  V30 3133 H 295.767 -6.37143 -1.54041 0
M  V30 3134 H 295.287 -5.27459 -2.85565 0
M  V30 3135 H 296.966 -5.85865 -2.74538 0
M  V30 3136 N 297.098 0.621204 -1.44841 0
M  V30 3137 C 298.344 1.3826 -1.48365 0
M  V30 3138 C 298.677 1.93831 -0.119624 0
M  V30 3139 O 297.952 1.74251 0.864111 0
M  V30 3140 C 298.235 2.54058 -2.55199 0
M  V30 3141 C 298.088 2.03772 -4.00995 0
M  V30 3142 C 299.407 3.56225 -2.58442 0
M  V30 3143 H 296.526 0.501374 -0.540179 0
M  V30 3144 H 299.168 0.7015 -1.76576 0
M  V30 3145 H 297.318 3.12162 -2.31274 0
M  V30 3146 H 298.99 1.50423 -4.36086 0
M  V30 3147 H 297.233 1.34876 -4.12299 0
M  V30 3148 H 297.904 2.87185 -4.71411 0
M  V30 3149 H 300.38 3.07939 -2.79844 0
M  V30 3150 H 299.256 4.34756 -3.3508 0
M  V30 3151 H 299.517 4.10949 -1.63013 0
M  V30 3152 O 298.615 1.4224 0.764848 0
M  V30 3153 H 299.306 1.32519 1.41274 0
M  V30 END ATOM
M  V30 BEGIN BOND
M  V30 END BOND
M  V30 END CTAB
M  END
$$$$
