drugbank_target|P05451 Lithostathine-1-alpha (DB03721; DB04522)
 OpenBabel12092119433D

  0  0  0     0  0            999 V3000
M  V30 BEGIN CTAB
M  V30 COUNTS 2556 2592 0 0 0
M  V30 BEGIN ATOM
M  V30 1 H -0.908 1.98254 -0.117106 0
M  V30 2 N 0 1.576 0 0
M  V30 3 C 0.933 2.03868 1.02534 0
M  V30 4 C 1.911 0.928543 1.3348 0
M  V30 5 O 3.095 1.19667 1.45644 0
M  V30 6 C 0.222 2.43627 2.35294 0
M  V30 7 C -0.732 3.65373 2.2001 0
M  V30 8 S 0.101 5.13292 1.52614 0
M  V30 9 C 1.257 5.56322 2.86805 0
M  V30 10 H 1.49 2.90518 0.631377 0
M  V30 11 H -0.977 1.52953 0.210867 0
M  V30 12 H 0.981 2.67203 3.11629 0
M  V30 13 H -0.358 1.57376 2.7183 0
M  V30 14 H -1.165 3.90944 3.18086 0
M  V30 15 H -1.563 3.418 1.51819 0
M  V30 16 H 0.729 5.58782 3.83104 0
M  V30 17 H 1.672 6.56266 2.65933 0
M  V30 18 H 2.08 4.83886 2.90714 0
M  V30 19 N 1.4781 -0.272755 1.55222 0
M  V30 20 C 2.4411 -1.32041 1.87344 0
M  V30 21 C 3.4411 -1.42342 0.74803 0
M  V30 22 O 4.6311 -1.41488 1.0162 0
M  V30 23 C 1.7631 -2.70173 2.07893 0
M  V30 24 H 2.9561 -1.04789 2.80997 0
M  V30 25 H 0.5091 -0.51083 1.47717 0
M  V30 26 H 1.2441 -3.02605 1.16622 0
M  V30 27 H 1.0291 -2.64082 2.89833 0
M  V30 28 H 2.5191 -3.45869 2.34017 0
M  V30 29 N 2.9562 -1.48159 -0.537278 0
M  V30 30 C 3.8882 -1.58218 -1.65831 0
M  V30 31 C 4.9012 -0.466948 -1.5596 0
M  V30 32 O 6.0902 -0.73747 -1.62553 0
M  V30 33 C 3.1902 -1.48906 -3.04434 0
M  V30 34 C 2.3632 -2.75343 -3.3986 0
M  V30 35 C 1.4222 -2.59588 -4.57712 0
M  V30 36 O 0.4482 -3.33457 -4.61297 0
M  V30 37 N 1.6502 -1.68724 -5.55439 0
M  V30 38 H 4.4152 -2.54891 -1.57641 0
M  V30 39 H 1.9762 -1.4479 -0.724386 0
M  V30 40 H 3.9682 -1.36072 -3.81139 0
M  V30 41 H 2.5382 -0.602368 -3.06741 0
M  V30 42 H 1.7582 -3.02795 -2.52406 0
M  V30 43 H 3.0462 -3.5924 -3.60311 0
M  V30 44 H 2.4442 -1.07898 -5.55315 0
M  V30 45 H 1.0012 -1.61832 -6.3139 0
M  V30 46 N 4.4343 0.785586 -1.36625 0
M  V30 47 C 5.6623 1.57448 -1.3423 0
M  V30 48 C 6.0773 1.88649 0.0755653 0
M  V30 49 O 5.4343 1.50414 1.03354 0
M  V30 50 C 5.4853 2.89316 -2.16745 0
M  V30 51 O 5.2063 2.59459 -3.53005 0
M  V30 52 C 6.7073 3.83606 -2.22174 0
M  V30 53 H 3.9273 0.488226 -0.4603 0
M  V30 54 H 6.4713 0.974733 -1.79775 0
M  V30 55 H 4.6263 3.4575 -1.74745 0
M  V30 56 H 5.0403 3.43804 -3.96105 0
M  V30 57 H 6.5143 4.73181 -2.8426 0
M  V30 58 H 6.9913 4.21734 -1.22627 0
M  V30 59 H 7.5973 3.33104 -2.64427 0
M  V30 60 N 5.9124 1.20967 1.01018 0
M  V30 61 C 7.1374 1.0503 1.78839 0
M  V30 62 C 7.5624 -0.395752 1.8389 0
M  V30 63 O 6.9204 -1.28529 1.27867 0
M  V30 64 C 6.9684 1.64602 3.2084 0
M  V30 65 O 6.0724 0.887988 4.02726 0
M  V30 66 H 5.4134 0.369987 0.551367 0
M  V30 67 H 7.9434 1.60399 1.27018 0
M  V30 68 H 7.9534 1.68607 3.71532 0
M  V30 69 H 6.6284 2.69841 3.16479 0
M  V30 70 H 5.2054 0.922648 3.61305 0
M  V30 71 N 7.3905 -1.2043 1.01659 0
M  V30 72 C 8.6155 -1.94318 0.724942 0
M  V30 73 C 9.0405 -1.74266 -0.708034 0
M  V30 74 O 8.3985 -1.03694 -1.48719 0
M  V30 75 C 8.4465 -3.44486 1.06591 0
M  V30 76 O 7.5505 -4.12017 0.177599 0
M  V30 77 H 6.8915 -0.60708 0.26898 0
M  V30 78 H 9.4215 -1.52861 1.35995 0
M  V30 79 H 9.4315 -3.95106 1.01762 0
M  V30 80 H 8.1065 -3.58404 2.10997 0
M  V30 81 H 6.6835 -3.71821 0.283421 0
M  V30 82 N 8.8686 -0.792821 -1.36206 0
M  V30 83 C 10.0986 -0.378275 -2.03107 0
M  V30 84 C 10.5066 1.01119 -1.59911 0
M  V30 85 O 9.8496 1.66052 -0.785658 0
M  V30 86 C 9.9116 -0.366535 -3.57627 0
M  V30 87 C 9.5756 -1.70416 -4.24037 0
M  V30 88 C 10.5726 -2.6602 -4.46687 0
M  V30 89 C 8.2576 -1.98439 -4.6144 0
M  V30 90 C 10.2516 -3.8784 -5.05825 0
M  V30 91 C 7.9386 -3.20525 -5.20295 0
M  V30 92 C 8.9366 -4.15044 -5.42427 0
M  V30 93 O 8.6246 -5.34978 -6.00045 0
M  V30 94 H 8.3566 -0.153543 -0.658332 0
M  V30 95 H 10.9106 -1.07383 -1.75094 0
M  V30 96 H 9.1406 0.385539 -3.84773 0
M  V30 97 H 10.8296 0.0238088 -4.05893 0
M  V30 98 H 11.5956 -2.45658 -4.18183 0
M  V30 99 H 7.4746 -1.25686 -4.43536 0
M  V30 100 H 11.0186 -4.61628 -5.23015 0
M  V30 101 H 6.9156 -3.40764 -5.48225 0
M  V30 102 H 7.6836 -5.36088 -6.18508 0
M  V30 103 N 10.3467 1.47872 -0.545128 0
M  V30 104 C 11.5937 2.02493 -0.0165858 0
M  V30 105 C 11.9217 1.42073 1.32836 0
M  V30 106 O 11.1767 0.561459 1.87473 0
M  V30 107 C 11.4757 3.57131 0.13867 0
M  V30 108 C 11.1417 4.36411 -1.13384 0
M  V30 109 C 9.8037 4.57792 -1.48256 0
M  V30 110 C 12.1557 4.82223 -1.97764 0
M  V30 111 C 9.4837 5.22233 -2.67376 0
M  V30 112 C 11.8357 5.47977 -3.16076 0
M  V30 113 C 10.4997 5.67593 -3.51275 0
M  V30 114 H 9.7697 0.740975 -0.00606918 0
M  V30 115 H 12.4167 1.77683 -0.714207 0
M  V30 116 H 10.7217 3.80865 0.919172 0
M  V30 117 H 12.4187 3.97031 0.562782 0
M  V30 118 H 9.0087 4.2004 -0.852297 0
M  V30 119 H 13.1927 4.65493 -1.72132 0
M  V30 120 H 8.4487 5.35616 -2.94831 0
M  V30 121 H 12.6227 5.8244 -3.81755 0
M  V30 122 H 10.2497 6.17298 -4.43675 0
M  V30 123 N 11.8248 0.280983 1.55075 0
M  V30 124 C 12.7578 -0.645439 2.18882 0
M  V30 125 C 13.7358 -1.14786 1.15165 0
M  V30 126 O 14.9198 -1.21975 1.43716 0
M  V30 127 C 12.0468 -1.88088 2.81674 0
M  V30 128 C 11.0928 -1.51343 3.98745 0
M  V30 129 S 11.9258 -0.586548 5.32278 0
M  V30 130 C 13.0818 -1.83024 5.98543 0
M  V30 131 H 13.3148 -0.1033 2.9712 0
M  V30 132 H 10.8478 0.0652099 1.54262 0
M  V30 133 H 12.8058 -2.58997 3.18482 0
M  V30 134 H 11.4668 -2.39417 2.03318 0
M  V30 135 H 10.6598 -2.43289 4.41392 0
M  V30 136 H 10.2618 -0.884477 3.63391 0
M  V30 137 H 12.5538 -2.77342 6.18133 0
M  V30 138 H 13.4968 -1.44668 6.93164 0
M  V30 139 H 13.9048 -1.99785 5.27964 0
M  V30 140 N 13.3029 -1.57598 0.00835791 0
M  V30 141 C 14.2329 -2.1198 -0.979113 0
M  V30 142 C 15.2139 -1.03091 -1.35301 0
M  V30 143 O 16.3989 -1.30818 -1.43528 0
M  V30 144 C 13.5289 -2.62995 -2.26828 0
M  V30 145 C 12.4829 -3.76485 -2.03576 0
M  V30 146 C 11.8089 -4.13846 -3.38579 0
M  V30 147 C 13.1089 -5.0342 -1.39161 0
M  V30 148 H 14.8029 -2.94738 -0.526281 0
M  V30 149 H 12.3489 -1.41783 -0.251704 0
M  V30 150 H 14.3019 -2.99669 -2.96271 0
M  V30 151 H 13.0259 -1.7737 -2.7424 0
M  V30 152 H 11.6849 -3.40217 -1.36557 0
M  V30 153 H 11.3329 -3.25232 -3.83709 0
M  V30 154 H 11.0329 -4.90312 -3.23834 0
M  V30 155 H 12.5569 -4.53086 -4.09323 0
M  V30 156 H 13.9709 -5.37812 -1.98573 0
M  V30 157 H 12.3679 -5.84746 -1.34878 0
M  V30 158 H 13.4379 -4.83548 -0.361868 0
M  V30 159 N 14.781 0.264519 -1.55364 0
M  V30 160 C 16.03 0.992812 -1.75574 0
M  V30 161 C 16.343 1.87142 -0.568979 0
M  V30 162 O 17.549 2.63513 -0.653682 0
M  V30 163 C 16.005 1.81519 -3.10771 0
M  V30 164 C 15.613 0.984839 -4.37041 0
M  V30 165 C 17.357 2.53727 -3.40327 0
M  V30 166 C 15.264 1.80209 -5.63275 0
M  V30 167 H 14.194 0.374412 -0.65447 0
M  V30 168 H 16.845 0.248138 -1.81815 0
M  V30 169 H 15.227 2.60115 -2.98591 0
M  V30 170 H 16.401 0.242455 -4.60162 0
M  V30 171 H 14.716 0.37691 -4.14691 0
M  V30 172 H 17.313 3.15292 -4.3185 0
M  V30 173 H 17.656 3.24447 -2.60845 0
M  V30 174 H 18.189 1.82156 -3.53644 0
M  V30 175 H 14.928 1.13896 -6.45529 0
M  V30 176 H 14.448 2.52022 -5.44284 0
M  V30 177 H 16.127 2.37364 -6.01887 0
M  V30 178 N 16.2591 1.48442 0.529413 0
M  V30 179 C 17.4841 1.60406 1.31471 0
M  V30 180 C 17.9091 0.264738 1.86228 0
M  V30 181 O 17.2671 -0.763668 1.64432 0
M  V30 182 C 17.3151 2.65419 2.44101 0
M  V30 183 O 16.4191 2.22618 3.47153 0
M  V30 184 H 15.7601 0.537863 0.389357 0
M  V30 185 H 18.2901 1.94432 0.636965 0
M  V30 186 H 18.3001 2.86709 2.90279 0
M  V30 187 H 16.9751 3.62652 2.03608 0
M  V30 188 H 15.5521 2.11543 3.0709 0
M  V30 189 N 17.7372 -0.778329 1.37039 0
M  V30 190 C 18.9772 -1.54973 1.33276 0
M  V30 191 C 19.3412 -1.91816 -0.0839376 0
M  V30 192 O 20.5422 -2.6767 -0.246228 0
M  V30 193 C 18.8132 -2.78517 2.23971 0
M  V30 194 S 20.3722 -3.6865 2.37997 0
M  V30 195 H 17.1902 -0.530639 0.473226 0
M  V30 196 H 19.7922 -0.915806 1.72723 0
M  V30 197 H 18.4962 -2.4952 3.25835 0
M  V30 198 H 18.0272 -3.46875 1.85584 0
M  V30 199 H 20.0422 -4.70182 1.58567 0
M  V30 200 N 19.2153 -1.21501 -1.00376 0
M  V30 201 C 20.1453 -0.999478 -2.11028 0
M  V30 202 C 21.1263 0.0759671 -1.6993 0
M  V30 203 O 22.3113 -0.0841106 -1.94018 0
M  V30 204 C 19.4413 -0.564709 -3.42678 0
M  V30 205 C 18.3953 -1.58486 -3.97576 0
M  V30 206 C 17.7213 -1.00628 -5.25146 0
M  V30 207 C 19.0213 -2.97204 -4.29496 0
M  V30 208 H 20.7153 -1.92495 -2.29317 0
M  V30 209 H 18.2613 -0.92693 -1.102 0
M  V30 210 H 20.2143 -0.401091 -4.19487 0
M  V30 211 H 18.9383 0.396411 -3.24185 0
M  V30 212 H 17.5973 -1.73606 -3.22888 0
M  V30 213 H 17.2453 -0.0368439 -5.02987 0
M  V30 214 H 16.9453 -1.68771 -5.62841 0
M  V30 215 H 18.4693 -0.854015 -6.04598 0
M  V30 216 H 19.8833 -2.8552 -4.97143 0
M  V30 217 H 18.2803 -3.62372 -4.78338 0
M  V30 218 H 19.3503 -3.47956 -3.3772 0
M  V30 219 N 20.6934 1.19889 -1.02296 0
M  V30 220 C 21.6264 2.21639 -0.543282 0
M  V30 221 C 22.6044 1.57275 0.412698 0
M  V30 222 O 23.7884 1.85568 0.331198 0
M  V30 223 C 20.9154 3.38057 0.208571 0
M  V30 224 C 19.9614 4.20751 -0.697933 0
M  V30 225 S 20.7944 4.89529 -2.17075 0
M  V30 226 C 21.9504 6.09363 -1.42923 0
M  V30 227 H 22.1834 2.61984 -1.40541 0
M  V30 228 H 19.7164 1.30041 -0.832387 0
M  V30 229 H 21.6744 4.05539 0.63624 0
M  V30 230 H 20.3354 2.96159 1.04635 0
M  V30 231 H 19.5284 5.03862 -0.117831 0
M  V30 232 H 19.1304 3.58556 -1.06366 0
M  V30 233 H 21.4224 6.73742 -0.712637 0
M  V30 234 H 22.3654 6.71845 -2.23673 0
M  V30 235 H 22.7734 5.56798 -0.929327 0
M  V30 236 N 22.1715 0.800033 1.35784 0
M  V30 237 C 23.4185 0.377342 1.98953 0
M  V30 238 C 23.7465 -1.05378 1.6348 0
M  V30 239 O 23.0015 -1.74459 0.886707 0
M  V30 240 C 23.3005 0.500276 3.53881 0
M  V30 241 C 22.9665 1.89375 4.09204 0
M  V30 242 C 21.6285 2.27499 4.24025 0
M  V30 243 C 23.9805 2.8057 4.39238 0
M  V30 244 C 21.3085 3.562 4.66195 0
M  V30 245 C 23.6605 4.0871 4.82844 0
M  V30 246 C 22.3245 4.46843 4.95871 0
M  V30 247 H 21.5945 0.138079 0.728021 0
M  V30 248 H 24.2415 1.01955 1.62103 0
M  V30 249 H 22.5465 -0.225405 3.91151 0
M  V30 250 H 24.2435 0.154097 4.00704 0
M  V30 251 H 20.8335 1.58753 3.98115 0
M  V30 252 H 25.0175 2.52367 4.27346 0
M  V30 253 H 20.2735 3.85602 4.74469 0
M  V30 254 H 24.4475 4.79481 5.05046 0
M  V30 255 H 22.0745 5.46623 5.28306 0
M  V30 256 N 23.6496 -1.47581 0.552962 0
M  V30 257 C 24.5796 -2.32762 -0.185451 0
M  V30 258 C 25.5606 -1.43527 -0.912905 0
M  V30 259 O 26.7456 -1.72388 -0.894201 0
M  V30 260 C 23.8756 -3.25219 -1.21859 0
M  V30 261 C 22.8296 -4.23661 -0.607864 0
M  V30 262 C 22.1556 -5.05413 -1.74533 0
M  V30 263 C 23.4556 -5.20481 0.435582 0
M  V30 264 H 25.1496 -2.94749 0.525684 0
M  V30 265 H 22.6956 -1.41738 0.254251 0
M  V30 266 H 24.6486 -3.8365 -1.7433 0
M  V30 267 H 23.3726 -2.61279 -1.95961 0
M  V30 268 H 22.0316 -3.66451 -0.104489 0
M  V30 269 H 21.6796 -4.3788 -2.47529 0
M  V30 270 H 21.3796 -5.72059 -1.34249 0
M  V30 271 H 22.9036 -5.66701 -2.27338 0
M  V30 272 H 24.3176 -5.733 -0.00290157 0
M  V30 273 H 22.7146 -5.95305 0.757067 0
M  V30 274 H 23.7846 -4.66217 1.33303 0
M  V30 275 N 25.1277 -0.289203 -1.54924 0
M  V30 276 C 26.3527 0.329299 -2.04769 0
M  V30 277 C 26.7777 1.4763 -1.16564 0
M  V30 278 O 26.1357 1.80527 -0.167186 0
M  V30 279 C 26.1837 0.774438 -3.52186 0
M  V30 280 O 25.2877 1.88038 -3.67036 0
M  V30 281 H 24.6287 0.0659259 -0.660719 0
M  V30 282 H 27.1587 -0.42761 -2.00082 0
M  V30 283 H 27.1687 1.06642 -3.93816 0
M  V30 284 H 25.8437 -0.0646707 -4.1585 0
M  V30 285 H 24.4207 1.58985 -3.3731 0
M  V30 286 N 26.6058 1.57591 -0.0167156 0
M  V30 287 C 27.5378 2.06343 0.997753 0
M  V30 288 C 28.5508 0.984469 1.29661 0
M  V30 289 O 29.7398 1.26093 1.26344 0
M  V30 290 C 26.8398 2.46255 2.32834 0
M  V30 291 C 26.0128 3.77083 2.21646 0
M  V30 292 C 25.0718 4.0368 3.37534 0
M  V30 293 O 24.0978 4.7411 3.14973 0
M  V30 294 N 25.2998 3.52881 4.60929 0
M  V30 295 H 28.0648 2.93997 0.581875 0
M  V30 296 H 25.6258 1.61002 0.170316 0
M  V30 297 H 27.6178 2.61149 3.09166 0
M  V30 298 H 26.1878 1.64032 2.66106 0
M  V30 299 H 25.4078 3.72106 1.30119 0
M  V30 300 H 26.6958 4.62822 2.11361 0
M  V30 301 H 26.0938 2.95878 4.82154 0
M  V30 302 H 24.6508 3.73076 5.34469 0
M  V30 303 N 28.0839 -0.256276 1.55502 0
M  V30 304 C 29.3089 -1.00766 1.81276 0
M  V30 305 C 29.7339 -1.78524 0.59252 0
M  V30 306 O 29.0919 -1.75413 -0.45827 0
M  V30 307 C 29.1399 -1.92869 3.04687 0
M  V30 308 O 28.2439 -3.019 2.80945 0
M  V30 309 H 27.5849 -0.287224 0.598664 0
M  V30 310 H 30.1149 -0.280109 2.02674 0
M  V30 311 H 30.1249 -2.34511 3.33869 0
M  V30 312 H 28.7999 -1.35689 3.93143 0
M  V30 313 H 27.3769 -2.64454 2.62904 0
M  V30 314 N 29.562 -1.4872 -0.521534 0
M  V30 315 C 30.494 -1.59968 -1.64143 0
M  V30 316 C 31.507 -0.483463 -1.55456 0
M  V30 317 O 32.696 -0.75467 -1.61762 0
M  V30 318 C 29.796 -1.52127 -3.02838 0
M  V30 319 C 28.969 -2.78932 -3.36921 0
M  V30 320 C 28.028 -2.64428 -4.54933 0
M  V30 321 O 27.054 -3.38331 -4.57735 0
M  V30 322 N 28.256 -1.74606 -5.53618 0
M  V30 323 H 31.021 -2.56548 -1.54929 0
M  V30 324 H 28.582 -1.45551 -0.708988 0
M  V30 325 H 30.574 -1.40106 -3.79674 0
M  V30 326 H 29.144 -0.634868 -3.06085 0
M  V30 327 H 28.364 -3.05455 -2.4918 0
M  V30 328 H 29.652 -3.63041 -3.56481 0
M  V30 329 H 29.05 -1.13782 -5.54139 0
M  V30 330 H 27.607 -1.6852 -6.29638 0
M  V30 331 N 31.0401 0.771051 -1.3745 0
M  V30 332 C 32.2881 1.52661 -1.32435 0
M  V30 333 C 32.6091 1.9479 0.0905024 0
M  V30 334 O 31.8791 1.66348 1.03466 0
M  V30 335 H 30.4591 0.566218 -0.487244 0
M  V30 336 H 33.1211 0.917636 -1.71946 0
M  V30 337 H 32.2171 2.42568 -1.96385 0
M  V30 338 N 32.5182 1.22032 0.997298 0
M  V30 339 C 33.4502 0.944263 2.08845 0
M  V30 340 C 34.4632 -0.0754663 1.62625 0
M  V30 341 O 35.6522 0.157994 1.77799 0
M  V30 342 C 32.7522 0.397723 3.36558 0
M  V30 343 C 31.9252 1.47362 4.11829 0
M  V30 344 C 30.9842 0.934951 5.17827 0
M  V30 345 O 30.0102 1.62016 5.45655 0
M  V30 346 N 31.2122 -0.245895 5.79979 0
M  V30 347 H 33.9772 1.88363 2.33109 0
M  V30 348 H 31.5382 1.12661 1.16272 0
M  V30 349 H 33.5302 0.0227771 4.04694 0
M  V30 350 H 32.1002 -0.446646 3.09393 0
M  V30 351 H 31.3202 2.02208 3.38386 0
M  V30 352 H 32.6082 2.19764 4.58891 0
M  V30 353 H 32.0062 -0.819475 5.59733 0
M  V30 354 H 30.5632 -0.562272 6.4937 0
M  V30 355 N 33.9963 -1.19345 1.0293 0
M  V30 356 C 34.9063 -2.26245 0.620515 0
M  V30 357 C 35.9223 -1.70486 -0.347928 0
M  V30 358 O 37.0983 -2.00347 -0.205704 0
M  V30 359 C 34.1633 -3.46693 -0.0218957 0
M  V30 360 C 33.2243 -4.17632 0.994102 0
M  V30 361 C 32.4573 -5.32329 0.382253 0
M  V30 362 O 32.6803 -5.64552 -0.814676 0
M  V30 363 O 31.6143 -5.91664 1.10531 0
M  V30 364 H 35.4403 -2.63453 1.51083 0
M  V30 365 H 33.0253 -1.26207 0.799513 0
M  V30 366 H 34.9073 -4.19683 -0.380072 0
M  V30 367 H 33.5823 -3.11333 -0.886209 0
M  V30 368 H 32.4893 -3.4676 1.40387 0
M  V30 369 H 33.8223 -4.56964 1.8288 0
M  V30 370 N 35.4744 -0.807222 -1.35358 0
M  V30 371 C 36.4374 -0.223665 -2.28106 0
M  V30 372 C 37.4374 0.589354 -1.4961 0
M  V30 373 O 38.6274 0.407745 -1.69361 0
M  V30 374 C 35.7594 0.688149 -3.33882 0
M  V30 375 H 36.9524 -1.04169 -2.81227 0
M  V30 376 H 34.5054 -0.577921 -1.45223 0
M  V30 377 H 35.2404 1.52984 -2.85948 0
M  V30 378 H 35.0254 0.10687 -3.91954 0
M  V30 379 H 36.5154 1.09075 -4.03104 0
M  V30 380 N 36.9525 1.47285 -0.560781 0
M  V30 381 C 37.8845 2.28118 0.222438 0
M  V30 382 C 38.8975 1.37219 0.876056 0
M  V30 383 O 40.0865 1.62011 0.749307 0
M  V30 384 C 37.1865 3.1159 1.33285 0
M  V30 385 C 36.3595 4.30473 0.77534 0
M  V30 386 C 35.4185 4.95513 1.77069 0
M  V30 387 O 34.4445 5.53792 1.31539 0
M  V30 388 N 35.6465 4.90531 3.10418 0
M  V30 389 H 38.4115 2.95976 -0.470958 0
M  V30 390 H 35.9725 1.56955 -0.39709 0
M  V30 391 H 37.9645 3.51967 1.99752 0
M  V30 392 H 36.5345 2.45951 1.92943 0
M  V30 393 H 35.7545 3.94144 -0.0662113 0
M  V30 394 H 37.0425 5.07362 0.382272 0
M  V30 395 H 36.4405 4.44389 3.5005 0
M  V30 396 H 34.9975 5.34917 3.72434 0
M  V30 397 N 38.4306 0.297415 1.54768 0
M  V30 398 C 39.6586 -0.315623 2.04478 0
M  V30 399 C 40.0736 -1.47792 1.17486 0
M  V30 400 O 39.4306 -1.81404 0.19971 0
M  V30 401 C 39.4816 -0.7753 3.53088 0
M  V30 402 O 39.2026 0.340732 4.36773 0
M  V30 403 C 40.7036 -1.45386 4.18781 0
M  V30 404 H 37.9236 -0.0690887 0.667434 0
M  V30 405 H 40.4676 0.436003 1.99798 0
M  V30 406 H 38.6226 -1.47696 3.58141 0
M  V30 407 H 39.0366 -0.0165035 5.24497 0
M  V30 408 H 40.5106 -1.72669 5.24299 0
M  V30 409 H 40.9876 -2.39275 3.68299 0
M  V30 410 H 41.5936 -0.795475 4.17795 0
M  V30 411 N 39.9087 -1.5758 0.0250728 0
M  V30 412 C 40.8187 -2.1343 -0.973905 0
M  V30 413 C 41.8347 -1.08556 -1.35984 0
M  V30 414 O 43.0107 -1.40592 -1.44207 0
M  V30 415 C 40.0757 -2.64703 -2.23904 0
M  V30 416 C 39.1367 -3.84276 -1.91391 0
M  V30 417 C 38.3697 -4.33095 -3.11873 0
M  V30 418 O 38.5927 -3.81107 -4.24398 0
M  V30 419 O 37.5267 -5.24984 -2.94406 0
M  V30 420 H 41.3527 -2.99057 -0.529036 0
M  V30 421 H 38.9377 -1.48118 -0.195288 0
M  V30 422 H 40.8197 -2.97769 -2.98181 0
M  V30 423 H 39.4947 -1.82161 -2.6758 0
M  V30 424 H 38.4017 -3.56143 -1.14511 0
M  V30 425 H 39.7347 -4.67968 -1.52534 0
M  V30 426 N 41.3868 0.248026 -1.55636 0
M  V30 427 C 42.3168 1.31079 -1.93237 0
M  V30 428 C 43.2978 1.50264 -0.797174 0
M  V30 429 O 44.4828 1.62891 -1.05737 0
M  V30 430 C 41.6128 2.66575 -2.22609 0
M  V30 431 C 40.5668 2.62087 -3.3837 0
M  V30 432 C 39.8928 4.01369 -3.53281 0
M  V30 433 C 41.1928 2.19171 -4.7409 0
M  V30 434 H 42.8868 0.998556 -2.82257 0
M  V30 435 H 40.4328 0.47891 -1.35803 0
M  V30 436 H 42.3858 3.41057 -2.47503 0
M  V30 437 H 41.1098 2.99432 -1.30414 0
M  V30 438 H 39.7688 1.90063 -3.13483 0
M  V30 439 H 39.4168 4.31489 -2.58508 0
M  V30 440 H 39.1168 3.99254 -4.31127 0
M  V30 441 H 40.6408 4.77552 -3.80495 0
M  V30 442 H 42.0548 2.83384 -4.98363 0
M  V30 443 H 40.4518 2.2817 -5.5503 0
M  V30 444 H 41.5218 1.14336 -4.71227 0
M  V30 445 N 42.8649 1.48995 0.513639 0
M  V30 446 C 44.2759 1.5119 1.09537 0
M  V30 447 C 44.6269 0.290906 1.94031 0
M  V30 448 O 43.7519 -0.60049 2.07902 0
M  V30 449 C 44.3469 2.73964 1.99322 0
M  V30 450 C 42.9059 2.78978 2.52682 0
M  V30 451 C 42.0529 2.44934 1.30009 0
M  V30 452 H 45.0039 1.55875 0.298125 0
M  V30 453 H 45.0249 2.53409 2.83838 0
M  V30 454 H 44.5369 3.62813 1.37799 0
M  V30 455 H 42.6379 1.94378 3.1788 0
M  V30 456 H 42.7509 3.8083 2.90698 0
M  V30 457 H 41.1149 1.9644 1.62122 0
M  V30 458 H 41.8979 3.36043 0.702131 0
M  V30 459 N 44.343 -0.763751 1.37857 0
M  V30 460 C 45.275 -1.88664 1.30148 0
M  V30 461 C 46.288 -1.61365 0.215685 0
M  V30 462 O 47.477 -1.72134 0.472459 0
M  V30 463 C 44.577 -3.24075 0.991396 0
M  V30 464 C 43.75 -3.78958 2.18426 0
M  V30 465 C 42.809 -4.92862 1.8432 0
M  V30 466 O 41.835 -5.08027 2.56704 0
M  V30 467 N 43.037 -5.75071 0.792081 0
M  V30 468 H 45.802 -1.95791 2.26905 0
M  V30 469 H 43.363 -0.943226 1.31586 0
M  V30 470 H 45.355 -3.97804 0.743935 0
M  V30 471 H 43.925 -3.12399 0.112122 0
M  V30 472 H 43.145 -2.96913 2.59299 0
M  V30 473 H 44.433 -4.12357 2.98058 0
M  V30 474 H 43.831 -5.65375 0.191595 0
M  V30 475 H 42.388 -6.48991 0.60449 0
M  V30 476 N 45.8211 -1.22559 -0.990812 0
M  V30 477 C 46.7841 -0.998863 -2.0629 0
M  V30 478 C 47.7841 0.0354834 -1.60761 0
M  V30 479 O 48.9741 -0.203231 -1.7301 0
M  V30 480 C 46.1061 -0.509203 -3.37076 0
M  V30 481 H 47.2991 -1.95014 -2.27837 0
M  V30 482 H 44.8521 -1.04456 -1.16269 0
M  V30 483 H 45.5871 0.446335 -3.21214 0
M  V30 484 H 45.3721 -1.25547 -3.71457 0
M  V30 485 H 46.8621 -0.370888 -4.1595 0
M  V30 486 N 47.2992 1.18797 -1.03562 0
M  V30 487 C 48.7152 1.40671 -0.753917 0
M  V30 488 C 48.9152 1.9043 0.658686 0
M  V30 489 O 47.9712 2.08538 1.42366 0
M  V30 490 C 49.2842 2.41192 -1.79574 0
M  V30 491 C 50.8322 2.54928 -1.81606 0
M  V30 492 C 51.3072 3.58709 -2.84766 0
M  V30 493 N 52.7982 3.66212 -2.83625 0
M  V30 494 C 53.5332 4.46225 -3.60098 0
M  V30 495 N 53.0292 5.29888 -4.46308 0
M  V30 496 N 54.8222 4.40939 -3.4861 0
M  V30 497 H 46.9732 0.848221 -1.94728 0
M  V30 498 H 49.2362 0.435081 -0.842264 0
M  V30 499 H 48.9422 2.11669 -2.80872 0
M  V30 500 H 48.8162 3.40467 -1.62365 0
M  V30 501 H 51.2032 2.83771 -0.809817 0
M  V30 502 H 51.2842 1.55784 -2.02891 0
M  V30 503 H 50.9282 3.30607 -3.85566 0
M  V30 504 H 50.8582 4.57519 -2.60737 0
M  V30 505 H 53.3492 3.06466 -2.21105 0
M  V30 506 H 53.6622 5.88078 -5.01382 0
M  V30 507 H 52.0072 5.29326 -4.50377 0
M  V30 508 H 55.1982 3.74624 -2.80668 0
M  V30 509 H 55.3712 5.03056 -4.08459 0
M  V30 510 N 48.7773 0.814389 1.34928 0
M  V30 511 C 50.0263 0.394871 1.97797 0
M  V30 512 C 50.3393 -1.04555 1.65311 0
M  V30 513 O 51.5453 -1.56856 2.21604 0
M  V30 514 C 50.0013 0.655103 3.53888 0
M  V30 515 C 49.6093 2.10858 3.95276 0
M  V30 516 C 51.3533 0.301329 4.23429 0
M  V30 517 C 49.2603 2.31415 5.44244 0
M  V30 518 H 48.1903 0.143913 0.740139 0
M  V30 519 H 50.8413 0.999544 1.53888 0
M  V30 520 H 49.2233 -0.0196253 3.95995 0
M  V30 521 H 50.3973 2.82176 3.64298 0
M  V30 522 H 48.7123 2.42297 3.38646 0
M  V30 523 H 51.3093 0.432869 5.32945 0
M  V30 524 H 51.6523 -0.75331 4.09428 0
M  V30 525 H 52.1853 0.930288 3.86769 0
M  V30 526 H 48.9243 3.35353 5.63222 0
M  V30 527 H 48.4443 1.6463 5.76764 0
M  V30 528 H 50.1233 2.13352 6.10811 0
M  V30 529 N 50.2554 -1.46986 0.568584 0
M  V30 530 C 51.4804 -2.07335 0.0520528 0
M  V30 531 C 51.9054 -1.41675 -1.23733 0
M  V30 532 O 51.2634 -0.495623 -1.74394 0
M  V30 533 C 51.3114 -3.60417 -0.11501 0
M  V30 534 O 50.4154 -3.95309 -1.17492 0
M  V30 535 H 49.7564 -0.661597 0.0564385 0
M  V30 536 H 52.2864 -1.88837 0.787507 0
M  V30 537 H 52.2964 -4.06698 -0.325644 0
M  V30 538 H 50.9714 -4.07601 0.826675 0
M  V30 539 H 49.5484 -3.60757 -0.943869 0
M  V30 540 N 51.7335 -0.305618 -1.54608 0
M  V30 541 C 52.9735 0.303114 -2.0214 0
M  V30 542 C 53.3375 1.50737 -1.18921 0
M  V30 543 O 54.5385 2.18778 -1.56172 0
M  V30 544 C 52.8095 0.646332 -3.51507 0
M  V30 545 S 54.3685 1.23727 -4.20995 0
M  V30 546 H 51.1865 0.0927643 -0.704923 0
M  V30 547 H 53.7885 -0.434566 -1.90609 0
M  V30 548 H 52.4925 -0.238541 -4.09706 0
M  V30 549 H 52.0235 1.41468 -3.67084 0
M  V30 550 H 54.0385 2.52489 -4.27158 0
M  V30 551 N 53.2116 1.57565 -0.0334293 0
M  V30 552 C 54.6226 1.79746 0.504798 0
M  V30 553 C 54.9736 0.944091 1.71992 0
M  V30 554 O 54.0986 0.155694 2.15839 0
M  V30 555 C 54.6936 3.25997 0.922567 0
M  V30 556 C 53.2526 3.49159 1.40588 0
M  V30 557 C 52.3996 2.74785 0.372633 0
M  V30 558 H 55.3506 1.56565 -0.259436 0
M  V30 559 H 55.3716 3.35945 1.78666 0
M  V30 560 H 54.8836 3.88081 0.0379825 0
M  V30 561 H 52.9846 2.92332 2.31025 0
M  V30 562 H 53.0976 4.57873 1.41028 0
M  V30 563 H 51.4616 2.40391 0.841672 0
M  V30 564 H 52.2446 3.39587 -0.503559 0
M  V30 565 N 54.6897 -0.239769 1.55765 0
M  V30 566 C 55.5997 -1.31831 1.94056 0
M  V30 567 C 56.6157 -1.52275 0.841925 0
M  V30 568 O 57.7917 -1.65759 1.14394 0
M  V30 569 C 54.8567 -2.65156 2.23368 0
M  V30 570 C 53.9177 -2.53173 3.46701 0
M  V30 571 C 53.1507 -3.8014 3.74606 0
M  V30 572 O 53.3737 -4.82343 3.04469 0
M  V30 573 O 52.3077 -3.78344 4.68123 0
M  V30 574 H 56.1337 -1.02347 2.85935 0
M  V30 575 H 53.7187 -0.441123 1.42739 0
M  V30 576 H 55.6007 -3.43929 2.43497 0
M  V30 577 H 54.2757 -2.94358 1.34666 0
M  V30 578 H 53.1827 -1.72662 3.31871 0
M  V30 579 H 54.5157 -2.28915 4.35728 0
M  V30 580 N 56.1678 -1.49265 -0.50573 0
M  V30 581 C 57.4158 -1.582 -1.25766 0
M  V30 582 C 57.7368 -0.268482 -1.93143 0
M  V30 583 O 57.0068 0.711833 -1.8251 0
M  V30 584 H 55.5868 -0.582873 -0.467191 0
M  V30 585 H 58.2488 -1.85865 -0.586525 0
M  V30 586 H 57.3448 -2.37563 -2.02412 0
M  V30 587 N 57.6459 0.756429 -1.3826 0
M  V30 588 C 58.8739 1.54565 -1.3754 0
M  V30 589 C 59.2889 1.88767 0.0355331 0
M  V30 590 O 58.6459 1.52572 1.0014 0
M  V30 591 C 58.6969 2.84654 -2.22833 0
M  V30 592 O 58.4179 2.51912 -3.5843 0
M  V30 593 C 59.9189 3.78807 -2.30261 0
M  V30 594 H 57.1389 0.478353 -0.470553 0
M  V30 595 H 59.6829 0.936381 -1.81803 0
M  V30 596 H 57.8379 3.41965 -1.8204 0
M  V30 597 H 58.2519 3.35325 -4.03308 0
M  V30 598 H 59.7259 4.67045 -2.94233 0
M  V30 599 H 60.2029 4.19038 -1.31545 0
M  V30 600 H 60.8089 3.2742 -2.71433 0
M  V30 601 N 59.124 1.23083 0.984299 0
M  V30 602 C 60.072 1.00593 2.09723 0
M  V30 603 C 61.066 -0.0538014 1.69315 0
M  V30 604 O 62.272 0.0993719 1.79725 0
M  V30 605 H 58.647 0.30817 0.685956 0
M  V30 606 H 60.618 1.95012 2.2586 0
M  V30 607 C 59.367 0.609601 3.42314 0
M  V30 608 H 58.69 1.41675 3.73856 0
M  V30 609 H 60.13 0.491726 4.21139 0
M  V30 610 C 58.589 -0.681745 3.2993 0
M  V30 611 O 59.119 -1.73192 3.62446 0
M  V30 612 N 57.325 -0.656178 2.83095 0
M  V30 613 H 56.872 0.198759 2.56832 0
M  V30 614 H 56.83 -1.52044 2.75191 0
M  V30 615 N 60.6021 -1.18246 1.0419 0
M  V30 616 C 61.5651 -2.20128 0.638452 0
M  V30 617 C 62.5651 -1.57885 -0.304805 0
M  V30 618 O 63.7551 -1.73967 -0.0900369 0
M  V30 619 C 60.8871 -3.4084 -0.0637751 0
M  V30 620 H 62.0801 -2.57336 1.54007 0
M  V30 621 H 59.6331 -1.32152 0.834598 0
M  V30 622 H 60.3681 -3.09166 -0.979136 0
M  V30 623 H 60.1531 -3.8726 0.614198 0
M  V30 624 H 61.6431 -4.16274 -0.332512 0
M  V30 625 N 62.0802 -0.821533 -1.34494 0
M  V30 626 C 63.3102 -0.421272 -2.02259 0
M  V30 627 C 63.7182 0.977047 -1.6202 0
M  V30 628 O 63.0612 1.64348 -0.820703 0
M  V30 629 C 63.1232 -0.44231 -3.56769 0
M  V30 630 C 62.7872 -1.79372 -4.20327 0
M  V30 631 C 63.7842 -2.75435 -4.40944 0
M  V30 632 C 61.4692 -2.08182 -4.57127 0
M  V30 633 C 63.4632 -3.98482 -4.97484 0
M  V30 634 C 61.1502 -3.31489 -5.13379 0
M  V30 635 C 62.1482 -4.26457 -5.33501 0
M  V30 636 O 61.8362 -5.47585 -5.88562 0
M  V30 637 H 61.5682 -0.167473 -0.654927 0
M  V30 638 H 64.1222 -1.11073 -1.72777 0
M  V30 639 H 62.3522 0.303836 -3.85505 0
M  V30 640 H 64.0412 -0.0622925 -4.05852 0
M  V30 641 H 64.8072 -2.54473 -4.12878 0
M  V30 642 H 60.6862 -1.35066 -4.4077 0
M  V30 643 H 64.2302 -4.72618 -5.13106 0
M  V30 644 H 60.1272 -3.52316 -5.40873 0
M  V30 645 H 60.8952 -5.49086 -6.06998 0
M  V30 646 N 63.5583 1.46682 -0.576371 0
M  V30 647 C 64.9743 1.57822 -0.237562 0
M  V30 648 C 65.1743 1.57237 1.26011 0
M  V30 649 O 64.2303 1.48596 2.04146 0
M  V30 650 C 65.5433 2.87499 -0.881168 0
M  V30 651 C 67.0913 3.01119 -0.85417 0
M  V30 652 C 67.5663 4.33524 -1.4772 0
M  V30 653 N 69.0573 4.40207 -1.44125 0
M  V30 654 C 69.7923 5.4126 -1.89276 0
M  V30 655 N 69.2883 6.49021 -2.42371 0
M  V30 656 N 71.0813 5.32422 -1.80231 0
M  V30 657 H 63.2323 1.45306 -1.54919 0
M  V30 658 H 65.4953 0.692733 -0.647167 0
M  V30 659 H 65.2013 2.9372 -1.93447 0
M  V30 660 H 65.0753 3.75224 -0.385592 0
M  V30 661 H 67.4623 2.94485 0.190491 0
M  V30 662 H 67.5433 2.14887 -1.3877 0
M  V30 663 H 67.1873 4.40916 -2.52103 0
M  V30 664 H 67.1173 5.1852 -0.918947 0
M  V30 665 H 69.6083 3.62931 -1.05307 0
M  V30 666 H 69.9213 7.2233 -2.74698 0
M  V30 667 H 68.2663 6.49858 -2.46393 0
M  V30 668 H 71.4573 4.47137 -1.38514 0
M  V30 669 H 71.6303 6.11034 -2.15735 0
M  V30 670 N 65.0364 0.313813 1.54444 0
M  V30 671 C 66.2614 -0.296681 2.05267 0
M  V30 672 C 66.6864 -1.45757 1.18897 0
M  V30 673 O 66.0444 -1.80239 0.195886 0
M  V30 674 C 66.0924 -0.71831 3.53373 0
M  V30 675 O 65.1964 -1.82175 3.69981 0
M  V30 676 H 64.5374 -0.0554061 0.661684 0
M  V30 677 H 67.0674 0.459387 1.99376 0
M  V30 678 H 67.0774 -1.00364 3.95463 0
M  V30 679 H 65.7524 0.130821 4.15694 0
M  V30 680 H 64.3294 -1.53598 3.39797 0
M  V30 681 N 66.5145 -1.57545 0.0417849 0
M  V30 682 C 67.7445 -1.96339 -0.642995 0
M  V30 683 C 68.1525 -0.917536 -1.65463 0
M  V30 684 O 67.4955 0.107747 -1.83384 0
M  V30 685 C 67.5575 -3.31333 -1.39494 0
M  V30 686 C 67.2215 -4.53796 -0.540204 0
M  V30 687 C 68.2185 -5.19553 0.189806 0
M  V30 688 C 65.9035 -5.0006 -0.473886 0
M  V30 689 C 67.8975 -6.29904 0.974674 0
M  V30 690 C 65.5845 -6.10289 0.314677 0
M  V30 691 C 66.5825 -6.75072 1.03765 0
M  V30 692 O 66.2705 -7.83183 1.81327 0
M  V30 693 H 66.0025 -0.651241 -0.181277 0
M  V30 694 H 68.5565 -2.05148 0.101665 0
M  V30 695 H 66.7865 -3.19052 -2.18502 0
M  V30 696 H 68.4755 -3.54942 -1.96904 0
M  V30 697 H 69.2415 -4.84774 0.147981 0
M  V30 698 H 65.1205 -4.49433 -1.0262 0
M  V30 699 H 68.6645 -6.80401 1.5395 0
M  V30 700 H 64.5615 -6.44506 0.358174 0
M  V30 701 H 65.3295 -7.99913 1.73438 0
M  V30 702 N 67.9926 0.231505 -1.5589 0
M  V30 703 C 69.2326 0.964533 -1.80211 0
M  V30 704 C 69.5966 1.81926 -0.613744 0
M  V30 705 O 70.7976 2.58526 -0.736045 0
M  V30 706 C 69.0686 1.78956 -3.09369 0
M  V30 707 S 70.6276 2.57959 -3.54969 0
M  V30 708 H 67.4456 0.324173 -0.632798 0
M  V30 709 H 70.0476 0.230985 -1.94131 0
M  V30 710 H 68.7516 1.15161 -3.93911 0
M  V30 711 H 68.2826 2.56559 -2.9823 0
M  V30 712 H 70.2976 3.81309 -3.17519 0
M  V30 713 N 69.4707 1.49531 0.497807 0
M  V30 714 C 70.7007 1.62657 1.27382 0
M  V30 715 C 71.1087 0.298488 1.86831 0
M  V30 716 O 70.4517 -0.72647 1.68725 0
M  V30 717 C 70.5137 2.6393 2.44093 0
M  V30 718 C 70.1777 4.08195 2.05489 0
M  V30 719 C 71.1747 4.949 1.59279 0
M  V30 720 C 68.8597 4.53948 2.15026 0
M  V30 721 C 70.8537 6.25397 1.23113 0
M  V30 722 C 68.5407 5.84458 1.78473 0
M  V30 723 C 69.5387 6.70006 1.32591 0
M  V30 724 O 69.2267 7.98083 0.965327 0
M  V30 725 H 68.9587 0.550429 0.392434 0
M  V30 726 H 71.5127 1.96325 0.603801 0
M  V30 727 H 69.7427 2.25449 3.14181 0
M  V30 728 H 71.4317 2.66552 3.06113 0
M  V30 729 H 72.1977 4.60779 1.51354 0
M  V30 730 H 68.0767 3.87525 2.4969 0
M  V30 731 H 71.6207 6.92125 0.872299 0
M  V30 732 H 67.5177 6.18107 1.86048 0
M  V30 733 H 68.2857 8.11122 1.09652 0
M  V30 734 N 70.9488 -0.749086 1.3866 0
M  V30 735 C 72.1788 -1.53611 1.38157 0
M  V30 736 C 72.5868 -1.89177 -0.0293595 0
M  V30 737 O 71.9298 -1.53606 -1.00752 0
M  V30 738 C 71.9918 -2.86087 2.17702 0
M  V30 739 C 71.6558 -2.73034 3.66472 0
M  V30 740 C 72.6528 -2.42526 4.59866 0
M  V30 741 C 70.3378 -2.90345 4.09884 0
M  V30 742 C 72.3318 -2.29492 5.94653 0
M  V30 743 C 70.0188 -2.7693 5.4475 0
M  V30 744 C 71.0168 -2.46547 6.36949 0
M  V30 745 O 70.7048 -2.33199 7.69333 0
M  V30 746 H 70.4368 -0.481773 0.474205 0
M  V30 747 H 72.9908 -0.934465 1.82912 0
M  V30 748 H 71.2208 -3.48458 1.67672 0
M  V30 749 H 72.9098 -3.47625 2.09551 0
M  V30 750 H 73.6758 -2.28816 4.27631 0
M  V30 751 H 69.5548 -3.1299 3.38464 0
M  V30 752 H 73.0988 -2.05698 6.66584 0
M  V30 753 H 68.9958 -2.90215 5.76581 0
M  V30 754 H 69.7638 -2.48376 7.79905 0
M  V30 755 N 72.4269 -1.23603 -0.977757 0
M  V30 756 C 73.6739 -1.06971 -1.71941 0
M  V30 757 C 74.0019 0.393009 -1.90488 0
M  V30 758 O 73.2569 1.30719 -1.4564 0
M  V30 759 C 73.5559 -1.7433 -3.11999 0
M  V30 760 C 73.2219 -3.24252 -3.13323 0
M  V30 761 C 71.8839 -3.65156 -3.13392 0
M  V30 762 C 74.2359 -4.20141 -3.08433 0
M  V30 763 C 71.5639 -5.00403 -3.0629 0
M  V30 764 C 73.9159 -5.55384 -3.02873 0
M  V30 765 C 72.5799 -5.95647 -3.01265 0
M  V30 766 H 71.8499 -0.391433 -0.629175 0
M  V30 767 H 74.4969 -1.53572 -1.14403 0
M  V30 768 H 72.8019 -1.20096 -3.7294 0
M  V30 769 H 74.4989 -1.58936 -3.68158 0
M  V30 770 H 71.0889 -2.91692 -3.14029 0
M  V30 771 H 75.2729 -3.89547 -3.07517 0
M  V30 772 H 70.5289 -5.3081 -3.03399 0
M  V30 773 H 74.7029 -6.29398 -2.98046 0
M  V30 774 H 72.3299 -7.0041 -2.95516 0
M  V30 775 N 73.905 1.17692 -1.04816 0
M  V30 776 C 74.853 2.23632 -0.63966 0
M  V30 777 C 75.847 1.6601 0.337219 0
M  V30 778 O 77.053 1.78844 0.203693 0
M  V30 779 H 73.428 0.727949 -0.188665 0
M  V30 780 H 75.399 2.55387 -1.54337 0
M  V30 781 C 74.148 3.4769 -0.0264051 0
M  V30 782 H 73.471 3.92331 -0.769164 0
M  V30 783 H 74.911 4.23418 0.222098 0
M  V30 784 C 73.37 3.13807 1.22584 0
M  V30 785 O 73.9 3.28236 2.31569 0
M  V30 786 N 72.106 2.68065 1.12202 0
M  V30 787 H 71.653 2.56525 0.235133 0
M  V30 788 H 71.611 2.45767 1.96076 0
M  V30 789 N 75.3831 0.828654 1.34056 0
M  V30 790 C 76.2931 0.256725 2.33191 0
M  V30 791 C 77.3091 -0.611898 1.62886 0
M  V30 792 O 78.4851 -0.51844 1.94613 0
M  V30 793 C 75.5501 -0.567238 3.42028 0
M  V30 794 C 74.6111 0.324458 4.28072 0
M  V30 795 C 73.8441 -0.460274 5.31712 0
M  V30 796 O 74.0671 -1.693 5.44696 0
M  V30 797 O 73.0011 0.160391 6.01686 0
M  V30 798 H 76.8271 1.07739 2.83947 0
M  V30 799 H 74.4121 0.59093 1.37217 0
M  V30 800 H 76.2941 -1.03582 4.08471 0
M  V30 801 H 74.9691 -1.36513 2.93506 0
M  V30 802 H 73.8761 0.840659 3.64532 0
M  V30 803 H 75.2091 1.08685 4.8005 0
M  V30 804 N 76.8612 -1.46375 0.584142 0
M  V30 805 C 78.1382 -1.956 0.0033388 0
M  V30 806 C 78.5182 -1.52679 -1.45782 0
M  V30 807 O 77.8662 -0.77816 -2.14842 0
M  V30 808 C 78.0762 -3.48551 0.176891 0
M  V30 809 C 79.4242 -4.24576 0.0454609 0
M  V30 810 O 80.4482 -3.56043 0.105801 0
M  V30 811 O 79.3072 -5.46427 -0.0890376 0
M  V30 812 H 76.4012 -0.825547 -0.0490066 0
M  V30 813 H 78.9472 -1.56652 0.65256 0
M  V30 814 H 77.7192 -3.72683 1.1926 0
M  V30 815 H 77.3422 -3.94332 -0.508695 0
M  V30 816 N 78.3393 -0.321999 -1.54275 0
M  V30 817 C 79.7553 0.0306999 -1.5957 0
M  V30 818 C 79.9553 1.50614 -1.33857 0
M  V30 819 O 79.0113 2.2619 -1.12223 0
M  V30 820 C 80.3243 -0.386122 -2.98211 0
M  V30 821 C 81.8723 -0.336647 -3.11184 0
M  V30 822 C 82.3473 -0.728607 -4.52167 0
M  V30 823 N 83.8383 -0.681952 -4.58152 0
M  V30 824 C 84.5733 -0.957449 -5.6535 0
M  V30 825 N 84.0693 -1.3 -6.80494 0
M  V30 826 N 85.8623 -0.883113 -5.55119 0
M  V30 827 H 78.0133 -1.28332 -1.69247 0
M  V30 828 H 80.2763 -0.521716 -0.791528 0
M  V30 829 H 79.9823 -1.41404 -3.22022 0
M  V30 830 H 79.8563 0.249662 -3.76373 0
M  V30 831 H 82.2433 0.682058 -2.8711 0
M  V30 832 H 82.3243 -1.00734 -2.3513 0
M  V30 833 H 81.9683 -1.74522 -4.76974 0
M  V30 834 H 81.8983 -0.0356152 -5.26588 0
M  V30 835 H 84.3893 -0.428985 -3.75457 0
M  V30 836 H 84.7023 -1.49563 -7.58189 0
M  V30 837 H 83.0473 -1.33824 -6.81994 0
M  V30 838 H 86.2383 -0.615001 -4.64042 0
M  V30 839 H 86.4113 -1.10118 -6.38575 0
M  V30 840 N 79.8174 1.5752 -0.0501392 0
M  V30 841 C 80.7274 2.14952 0.939827 0
M  V30 842 C 81.7434 1.10706 1.34239 0
M  V30 843 O 82.9194 1.42869 1.41952 0
M  V30 844 C 79.9844 2.68232 2.19665 0
M  V30 845 C 79.0454 3.87272 1.85253 0
M  V30 846 C 78.2784 4.38002 3.04943 0
M  V30 847 O 78.5014 3.87811 4.18281 0
M  V30 848 O 77.4354 5.29602 2.86017 0
M  V30 849 H 81.2614 2.9986 0.481392 0
M  V30 850 H 78.8464 1.4841 0.171699 0
M  V30 851 H 80.7284 3.02475 2.93406 0
M  V30 852 H 79.4034 1.86395 2.64648 0
M  V30 853 H 78.3104 3.5792 1.0883 0
M  V30 854 H 79.6434 4.70336 1.4507 0
M  V30 855 N 81.2955 -0.223234 1.56011 0
M  V30 856 C 82.5235 -0.964812 1.83027 0
M  V30 857 C 82.9385 -1.78013 0.62904 0
M  V30 858 O 82.2955 -1.78008 -0.402414 0
M  V30 859 C 82.3465 -1.88373 3.08542 0
M  V30 860 O 82.0675 -1.10137 4.2403 0
M  V30 861 C 83.5685 -2.73934 3.48533 0
M  V30 862 H 80.7885 -0.282842 0.608475 0
M  V30 863 H 83.3325 -0.238971 2.03099 0
M  V30 864 H 81.4875 -2.56354 2.9045 0
M  V30 865 H 81.9015 -1.72501 4.95322 0
M  V30 866 H 83.3755 -3.34117 4.39397 0
M  V30 867 H 83.8525 -3.46244 2.70207 0
M  V30 868 H 84.4585 -2.11369 3.69057 0
M  V30 869 N 82.7736 -1.49793 -0.48987 0
M  V30 870 C 84.0196 -1.61049 -1.24236 0
M  V30 871 C 84.3746 -0.298412 -1.90072 0
M  V30 872 O 83.6676 0.702262 -1.78266 0
M  V30 873 C 83.8616 -2.71488 -2.32441 0
M  V30 874 C 83.6906 -4.13308 -1.77218 0
M  V30 875 C 82.4606 -4.79955 -1.58023 0
M  V30 876 C 84.6586 -4.98176 -1.27772 0
M  V30 877 N 82.6406 -6.06052 -0.978465 0
M  V30 878 C 84.0116 -6.14843 -0.798 0
M  V30 879 C 86.0666 -4.84091 -1.16449 0
M  V30 880 C 84.7696 -7.18975 -0.216245 0
M  V30 881 C 86.7956 -5.88382 -0.596698 0
M  V30 882 C 86.1576 -7.04285 -0.127262 0
M  V30 883 H 82.2566 -0.643611 -0.444172 0
M  V30 884 H 84.8406 -1.86842 -0.54754 0
M  V30 885 H 83.0116 -2.47449 -2.99372 0
M  V30 886 H 84.7436 -2.72205 -2.99477 0
M  V30 887 H 81.4986 -4.36936 -1.82712 0
M  V30 888 H 81.9226 -6.73407 -0.696534 0
M  V30 889 H 86.5646 -3.94786 -1.5134 0
M  V30 890 H 84.2826 -8.0797 0.144903 0
M  V30 891 H 87.8686 -5.79545 -0.511716 0
M  V30 892 H 86.7486 -7.83606 0.30523 0
M  V30 893 N 84.2517 0.741722 -1.39055 0
M  V30 894 C 85.4977 1.50336 -1.36113 0
M  V30 895 C 85.8307 1.94148 0.0450796 0
M  V30 896 O 85.1057 1.66301 1.00868 0
M  V30 897 C 85.3887 2.74773 -2.32749 0
M  V30 898 C 85.2417 2.37023 -3.82283 0
M  V30 899 C 86.5607 3.76846 -2.27322 0
M  V30 900 H 83.6797 0.545351 -0.495743 0
M  V30 901 H 86.3217 0.848624 -1.69995 0
M  V30 902 H 84.4717 3.30639 -2.03986 0
M  V30 903 H 86.1437 1.8684 -4.21768 0
M  V30 904 H 84.3867 1.69334 -3.99385 0
M  V30 905 H 85.0577 3.26104 -4.45376 0
M  V30 906 H 87.5337 3.30548 -2.5274 0
M  V30 907 H 86.4097 4.6159 -2.97028 0
M  V30 908 H 86.6707 4.23286 -1.27599 0
M  V30 909 N 85.7298 1.2412 0.971189 0
M  V30 910 C 87.0068 0.986867 1.6888 0
M  V30 911 C 87.3868 -0.491857 2.0529 0
M  V30 912 O 86.7348 -1.46531 1.75331 0
M  V30 913 C 86.9448 1.9063 2.92338 0
M  V30 914 C 88.2928 2.17515 3.64654 0
M  V30 915 O 89.3168 1.88254 3.02388 0
M  V30 916 O 88.1758 2.6719 4.7673 0
M  V30 917 H 85.2698 0.372944 0.738134 0
M  V30 918 H 87.8158 1.35203 1.02559 0
M  V30 919 H 86.5878 2.90552 2.62097 0
M  V30 920 H 86.2108 1.54408 3.66393 0
M  V30 921 N 87.2079 -1.17134 1.05439 0
M  V30 922 C 88.1709 -2.19439 0.661764 0
M  V30 923 C 89.1709 -1.58199 -0.288042 0
M  V30 924 O 90.3609 -1.74053 -0.0715803 0
M  V30 925 C 87.4929 -3.40889 -0.0276209 0
M  V30 926 H 88.6859 -2.55688 1.56728 0
M  V30 927 H 86.2389 -1.31259 0.848567 0
M  V30 928 H 86.9739 -3.10187 -0.94629 0
M  V30 929 H 86.7589 -3.86586 0.655238 0
M  V30 930 H 88.2489 -4.16603 -0.288342 0
M  V30 931 N 88.686 -0.835752 -1.33615 0
M  V30 932 C 89.963 -0.352017 -1.92406 0
M  V30 933 C 90.343 1.16225 -1.76224 0
M  V30 934 O 89.691 1.97526 -1.14873 0
M  V30 935 C 89.901 -0.795485 -3.39813 0
M  V30 936 C 91.249 -0.801703 -4.16963 0
M  V30 937 O 92.273 -0.738889 -3.48452 0
M  V30 938 O 91.132 -0.886607 -5.3926 0
M  V30 939 H 88.226 -0.0989641 -0.821057 0
M  V30 940 H 90.772 -0.921397 -1.42507 0
M  V30 941 H 89.544 -1.83795 -3.45449 0
M  V30 942 H 89.167 -0.202505 -3.97084 0
M  V30 943 N 90.1641 1.46063 -0.591896 0
M  V30 944 C 91.0941 2.33172 0.123673 0
M  V30 945 C 92.0751 1.45897 0.87453 0
M  V30 946 O 93.2601 1.74698 0.848181 0
M  V30 947 C 90.3901 3.28336 1.13194 0
M  V30 948 C 89.3441 4.25124 0.495324 0
M  V30 949 C 88.6701 5.09863 1.61071 0
M  V30 950 C 89.9701 5.19143 -0.573425 0
M  V30 951 H 91.6641 2.93252 -0.603646 0
M  V30 952 H 89.2101 1.41014 -0.291741 0
M  V30 953 H 91.1631 3.88137 1.64097 0
M  V30 954 H 89.8871 2.66383 1.88965 0
M  V30 955 H 88.5461 3.66599 0.00729452 0
M  V30 956 H 88.1941 4.44288 2.35832 0
M  V30 957 H 87.8941 5.75417 1.19035 0
M  V30 958 H 89.4181 5.72529 2.12233 0
M  V30 959 H 90.8321 5.73106 -0.1491 0
M  V30 960 H 89.2291 5.93089 -0.914636 0
M  V30 961 H 90.2991 4.62519 -1.45617 0
M  V30 962 N 91.6422 0.330177 1.54103 0
M  V30 963 C 92.8722 -0.271784 2.04805 0
M  V30 964 C 93.2802 -1.45816 1.20559 0
M  V30 965 O 92.6232 -1.82247 0.2306 0
M  V30 966 C 92.6852 -0.763238 3.51305 0
M  V30 967 C 92.3492 0.301705 4.56003 0
M  V30 968 C 93.3462 1.13999 5.07248 0
M  V30 969 C 91.0312 0.451793 5.00264 0
M  V30 970 C 93.0252 2.11402 6.01322 0
M  V30 971 C 90.7122 1.42924 5.94151 0
M  V30 972 C 91.7102 2.25882 6.44567 0
M  V30 973 O 91.3982 3.21965 7.3661 0
M  V30 974 H 91.1302 -0.058693 0.673447 0
M  V30 975 H 93.6842 0.476395 1.99799 0
M  V30 976 H 91.9142 -1.56244 3.5373 0
M  V30 977 H 93.6032 -1.28427 3.85047 0
M  V30 978 H 94.3692 1.03505 4.73827 0
M  V30 979 H 90.2482 -0.184044 4.60632 0
M  V30 980 H 93.7922 2.76192 6.40596 0
M  V30 981 H 89.6892 1.53479 6.26988 0
M  V30 982 H 90.4572 3.17281 7.54503 0
M  V30 983 N 93.1203 -1.57491 0.0584922 0
M  V30 984 C 94.3603 -1.94851 -0.617458 0
M  V30 985 C 94.7243 -0.937165 -1.67575 0
M  V30 986 O 95.9253 -1.19795 -2.40629 0
M  V30 987 C 94.1963 -3.36955 -1.19147 0
M  V30 988 S 95.7553 -3.96277 -1.8844 0
M  V30 989 H 92.5733 -0.681539 -0.202547 0
M  V30 990 H 95.1753 -1.95073 0.129176 0
M  V30 991 H 93.8793 -4.08355 -0.409215 0
M  V30 992 H 93.4103 -3.40245 -1.97476 0
M  V30 993 H 95.4253 -3.82099 -3.16568 0
M  V30 994 N 94.5984 0.214957 -1.56127 0
M  V30 995 C 95.5304 1.29004 -1.89448 0
M  V30 996 C 96.5434 1.42716 -0.783326 0
M  V30 997 O 97.7324 1.43496 -1.06166 0
M  V30 998 C 94.8324 2.66482 -2.09381 0
M  V30 999 C 94.0054 2.74633 -3.40434 0
M  V30 1000 C 93.0644 3.9317 -3.49719 0
M  V30 1001 O 92.0904 3.812 -4.227 0
M  V30 1002 N 93.2924 5.07765 -2.81346 0
M  V30 1003 H 96.0574 1.00743 -2.82261 0
M  V30 1004 H 93.6184 0.40497 -1.56753 0
M  V30 1005 H 95.6104 3.44173 -2.12901 0
M  V30 1006 H 94.1804 2.87314 -1.23163 0
M  V30 1007 H 93.4004 1.83368 -3.48955 0
M  V30 1008 H 94.6884 2.77054 -4.26754 0
M  V30 1009 H 94.0864 5.20386 -2.21843 0
M  V30 1010 H 92.6434 5.83474 -2.90519 0
M  V30 1011 N 96.0765 1.50051 0.48192 0
M  V30 1012 C 97.0245 1.68635 1.60203 0
M  V30 1013 C 98.0185 0.552184 1.60148 0
M  V30 1014 O 99.2245 0.732377 1.64427 0
M  V30 1015 H 95.5995 0.532081 0.531407 0
M  V30 1016 H 97.5705 2.62616 1.41688 0
M  V30 1017 C 96.3195 1.78775 2.9822 0
M  V30 1018 H 95.6425 2.6543 2.98976 0
M  V30 1019 H 97.0825 1.95806 3.7608 0
M  V30 1020 C 95.5415 0.536849 3.32595 0
M  V30 1021 O 96.0715 -0.328897 4.00351 0
M  V30 1022 N 94.2775 0.394091 2.87915 0
M  V30 1023 H 93.8245 1.09962 2.32951 0
M  V30 1024 H 93.7825 -0.441737 3.11281 0
M  V30 1025 N 97.5546 -0.734337 1.39446 0
M  V30 1026 C 98.4876 -1.85715 1.32609 0
M  V30 1027 C 99.4656 -1.6137 0.199636 0
M  V30 1028 O 100.65 -1.84626 0.380195 0
M  V30 1029 C 97.7766 -3.21709 1.05929 0
M  V30 1030 C 96.8226 -3.64913 2.20773 0
M  V30 1031 S 97.6556 -3.74203 3.83056 0
M  V30 1032 C 98.8116 -5.12986 3.58603 0
M  V30 1033 H 99.0446 -1.91232 2.27635 0
M  V30 1034 H 96.5776 -0.899263 1.25509 0
M  V30 1035 H 98.5356 -4.00236 0.912203 0
M  V30 1036 H 97.1966 -3.13848 0.125883 0
M  V30 1037 H 96.3896 -4.63606 1.97699 0
M  V30 1038 H 95.9916 -2.93593 2.31688 0
M  V30 1039 H 98.2836 -5.99339 3.15909 0
M  V30 1040 H 99.2266 -5.41088 4.5676 0
M  V30 1041 H 99.6346 -4.82694 2.9269 0
M  V30 1042 N 99.0327 -1.24633 -0.964593 0
M  V30 1043 C 99.9807 -1.03917 -2.08096 0
M  V30 1044 C 100.975 0.0268581 -1.69379 0
M  V30 1045 O 102.181 -0.127952 -1.79545 0
M  V30 1046 H 98.5557 -0.319044 -0.680966 0
M  V30 1047 H 100.527 -1.98581 -2.22729 0
M  V30 1048 C 99.2757 -0.663983 -3.41301 0
M  V30 1049 H 98.5987 -1.47605 -3.71555 0
M  V30 1050 H 100.039 -0.558663 -4.20303 0
M  V30 1051 C 98.4977 0.629169 -3.30973 0
M  V30 1052 O 99.0277 1.67404 -3.65156 0
M  V30 1053 N 97.2337 0.611057 -2.84103 0
M  V30 1054 H 96.7807 -0.239593 -2.56483 0
M  V30 1055 H 96.7387 1.47647 -2.77575 0
M  V30 1056 N 100.511 1.16574 -1.06058 0
M  V30 1057 C 101.736 1.91493 -0.796562 0
M  V30 1058 C 102.161 1.76773 0.642868 0
M  V30 1059 O 101.519 1.09142 1.44768 0
M  V30 1060 C 101.567 3.40293 -1.19303 0
M  V30 1061 O 100.671 4.11074 -0.330394 0
M  V30 1062 H 100.012 0.596678 -0.291326 0
M  V30 1063 H 102.542 1.47708 -1.41575 0
M  V30 1064 H 102.552 3.91057 -1.16356 0
M  V30 1065 H 101.227 3.50326 -2.24153 0
M  V30 1066 H 99.8038 3.70513 -0.421225 0
M  V30 1067 N 101.989 0.842826 1.3317 0
M  V30 1068 C 103.237 0.439577 1.97262 0
M  V30 1069 C 103.558 -1.00548 1.67078 0
M  V30 1070 O 102.828 -1.70098 0.971779 0
M  V30 1071 H 101.408 0.159558 0.72976 0
M  V30 1072 H 104.07 1.07665 1.62463 0
M  V30 1073 H 103.166 0.574886 3.0676 0
M  V30 1074 N 103.467 -1.45747 0.599634 0
M  V30 1075 C 104.415 -2.322 -0.136426 0
M  V30 1076 C 105.409 -1.45497 -0.867583 0
M  V30 1077 O 106.615 -1.62027 -0.78405 0
M  V30 1078 H 102.99 -0.749368 -0.0628588 0
M  V30 1079 H 104.961 -2.92072 0.611281 0
M  V30 1080 C 103.71 -3.28974 -1.12567 0
M  V30 1081 H 103.033 -3.9568 -0.572484 0
M  V30 1082 H 104.473 -3.92212 -1.61077 0
M  V30 1083 C 102.932 -2.55561 -2.19523 0
M  V30 1084 O 103.462 -2.33111 -3.27143 0
M  V30 1085 N 101.668 -2.15832 -1.94589 0
M  V30 1086 H 101.215 -2.3429 -1.07078 0
M  V30 1087 H 101.173 -1.67034 -2.66359 0
M  V30 1088 N 104.945 -0.338344 -1.53925 0
M  V30 1089 C 105.875 0.51328 -2.27789 0
M  V30 1090 C 106.856 1.107 -1.29149 0
M  V30 1091 O 108.041 1.12937 -1.57984 0
M  V30 1092 C 105.171 1.66697 -3.04679 0
M  V30 1093 C 104.125 1.20183 -4.1078 0
M  V30 1094 C 103.451 2.44363 -4.75595 0
M  V30 1095 C 104.751 0.30605 -5.21403 0
M  V30 1096 H 106.445 -0.102883 -2.99223 0
M  V30 1097 H 103.991 -0.0509219 -1.4391 0
M  V30 1098 H 105.944 2.26915 -3.55088 0
M  V30 1099 H 104.668 2.30995 -2.30887 0
M  V30 1100 H 103.327 0.622499 -3.61276 0
M  V30 1101 H 102.975 3.07057 -3.98403 0
M  V30 1102 H 102.675 2.13925 -5.47275 0
M  V30 1103 H 104.199 3.05317 -5.28786 0
M  V30 1104 H 105.613 0.814929 -5.67478 0
M  V30 1105 H 104.01 0.0937929 -6.00027 0
M  V30 1106 H 105.08 -0.65921 -4.80398 0
M  V30 1107 N 106.423 1.57458 -0.0668435 0
M  V30 1108 C 107.669 1.93587 0.6043 0
M  V30 1109 C 108.002 0.946722 1.69561 0
M  V30 1110 O 107.277 -0.0248516 1.94484 0
M  V30 1111 C 107.56 3.40014 1.18585 0
M  V30 1112 C 107.413 4.49685 0.101529 0
M  V30 1113 C 108.732 3.87154 2.09284 0
M  V30 1114 H 105.851 0.703958 0.218202 0
M  V30 1115 H 108.493 1.89542 -0.131804 0
M  V30 1116 H 106.643 3.43592 1.81319 0
M  V30 1117 H 108.315 4.5823 -0.531279 0
M  V30 1118 H 106.558 4.30059 -0.568487 0
M  V30 1119 H 107.229 5.49266 0.54874 0
M  V30 1120 H 109.705 3.85551 1.56491 0
M  V30 1121 H 108.581 4.90231 2.46911 0
M  V30 1122 H 108.842 3.2481 2.99918 0
M  V30 1123 N 107.901 -0.206675 1.56239 0
M  V30 1124 C 109.126 -0.949474 1.8439 0
M  V30 1125 C 109.551 -1.76549 0.649016 0
M  V30 1126 O 108.909 -1.76782 -0.402231 0
M  V30 1127 C 108.957 -1.83078 3.10668 0
M  V30 1128 O 108.061 -2.9281 2.90407 0
M  V30 1129 H 107.402 -0.268033 0.607499 0
M  V30 1130 H 109.932 -0.215488 2.03462 0
M  V30 1131 H 109.942 -2.2377 3.41161 0
M  V30 1132 H 108.617 -1.23112 3.97261 0
M  V30 1133 H 107.194 -2.55956 2.71184 0
M  V30 1134 N 109.379 -1.50304 -0.473955 0
M  V30 1135 C 110.625 -1.61389 -1.22806 0
M  V30 1136 C 110.958 -0.311955 -1.91678 0
M  V30 1137 O 110.233 0.686384 -1.81986 0
M  V30 1138 C 110.516 -2.79219 -2.27396 0
M  V30 1139 C 110.369 -4.19286 -1.62848 0
M  V30 1140 C 111.688 -2.92614 -3.28732 0
M  V30 1141 H 108.807 -0.587399 -0.445119 0
M  V30 1142 H 111.449 -1.82681 -0.522265 0
M  V30 1143 H 109.599 -2.61195 -2.87592 0
M  V30 1144 H 111.271 -4.48892 -1.06271 0
M  V30 1145 H 109.514 -4.23677 -0.931693 0
M  V30 1146 H 110.185 -4.97655 -2.38838 0
M  V30 1147 H 112.661 -3.09105 -2.78556 0
M  V30 1148 H 111.537 -3.76688 -3.99246 0
M  V30 1149 H 111.798 -2.03107 -3.92683 0
M  V30 1150 N 110.857 0.726932 -1.39834 0
M  V30 1151 C 111.787 1.85405 -1.41941 0
M  V30 1152 C 112.768 1.67751 -0.281728 0
M  V30 1153 O 113.953 1.8795 -0.488717 0
M  V30 1154 C 111.083 3.23243 -1.2701 0
M  V30 1155 C 110.037 3.55549 -2.38262 0
M  V30 1156 C 109.363 4.9241 -2.08415 0
M  V30 1157 C 110.663 3.577 -3.80589 0
M  V30 1158 H 112.357 1.83899 -2.36266 0
M  V30 1159 H 109.903 0.883349 -1.13723 0
M  V30 1160 H 111.856 4.01775 -1.27103 0
M  V30 1161 H 110.58 3.25296 -0.291564 0
M  V30 1162 H 109.239 2.79351 -2.37399 0
M  V30 1163 H 108.887 4.91052 -1.0898 0
M  V30 1164 H 108.587 5.14992 -2.82943 0
M  V30 1165 H 110.111 5.73289 -2.10171 0
M  V30 1166 H 111.525 4.26293 -3.83337 0
M  V30 1167 H 109.922 3.91804 -4.54543 0
M  V30 1168 H 110.992 2.57328 -4.10987 0
M  V30 1169 N 112.336 1.25143 0.95797 0
M  V30 1170 C 113.564 1.12424 1.73691 0
M  V30 1171 C 113.979 -0.322304 1.86029 0
M  V30 1172 O 113.336 -1.22186 1.35561 0
M  V30 1173 C 113.387 1.76933 3.15241 0
M  V30 1174 O 113.108 3.15932 3.03511 0
M  V30 1175 C 114.609 1.6995 4.09429 0
M  V30 1176 H 111.829 0.3923 0.544373 0
M  V30 1177 H 114.373 1.6544 1.20207 0
M  V30 1178 H 112.528 1.27895 3.6568 0
M  V30 1179 H 112.942 3.47598 3.9278 0
M  V30 1180 H 114.416 2.19753 5.06372 0
M  V30 1181 H 114.893 0.662619 4.34173 0
M  V30 1182 H 115.499 2.18461 3.64904 0
M  V30 1183 N 113.814 -1.1601 1.06675 0
M  V30 1184 C 114.746 -2.20115 0.638921 0
M  V30 1185 C 115.759 -1.59916 -0.305057 0
M  V30 1186 O 116.948 -1.78245 -0.0954446 0
M  V30 1187 C 114.048 -3.38798 -0.0830083 0
M  V30 1188 C 113.221 -4.2855 0.875426 0
M  V30 1189 C 112.28 -5.25849 0.192042 0
M  V30 1190 O 111.306 -5.63102 0.830921 0
M  V30 1191 N 112.508 -5.70648 -1.06493 0
M  V30 1192 H 115.273 -2.57439 1.53444 0
M  V30 1193 H 112.834 -1.31057 0.950557 0
M  V30 1194 H 114.826 -4.00936 -0.550685 0
M  V30 1195 H 113.396 -2.99947 -0.880386 0
M  V30 1196 H 112.616 -3.63617 1.52238 0
M  V30 1197 H 113.904 -4.85393 1.52548 0
M  V30 1198 H 113.302 -5.42482 -1.60405 0
M  V30 1199 H 111.859 -6.34859 -1.47641 0
M  V30 1200 N 115.292 -0.849877 -1.32721 0
M  V30 1201 C 116.255 -0.296122 -2.27279 0
M  V30 1202 C 117.255 0.541458 -1.5141 0
M  V30 1203 O 118.445 0.353658 -1.70572 0
M  V30 1204 C 115.577 0.581579 -3.35902 0
M  V30 1205 H 116.77 -1.13064 -2.77771 0
M  V30 1206 H 114.323 -0.62383 -1.43311 0
M  V30 1207 H 115.058 1.43809 -2.9067 0
M  V30 1208 H 114.843 -0.0178814 -3.92096 0
M  V30 1209 H 116.333 0.961951 -4.0637 0
M  V30 1210 N 116.77 1.45427 -0.607355 0
M  V30 1211 C 117.68 2.34325 0.113463 0
M  V30 1212 C 118.696 1.51226 0.860617 0
M  V30 1213 O 119.872 1.84029 0.818255 0
M  V30 1214 C 116.937 3.28839 1.09844 0
M  V30 1215 C 115.998 4.27844 0.353271 0
M  V30 1216 C 115.231 5.17842 1.29133 0
M  V30 1217 O 115.454 5.11264 2.52913 0
M  V30 1218 O 114.388 5.96713 0.788523 0
M  V30 1219 H 118.214 2.97364 -0.617094 0
M  V30 1220 H 115.799 1.44807 -0.367619 0
M  V30 1221 H 117.681 3.8708 1.66575 0
M  V30 1222 H 116.356 2.68365 1.81003 0
M  V30 1223 H 115.263 3.7322 -0.256494 0
M  V30 1224 H 116.596 4.91173 -0.317822 0
M  V30 1225 N 118.248 0.346503 1.53744 0
M  V30 1226 C 119.496 -0.248612 2.00565 0
M  V30 1227 C 119.817 -1.5083 1.23593 0
M  V30 1228 O 119.087 -1.92858 0.343912 0
M  V30 1229 H 117.667 -0.0948564 0.740953 0
M  V30 1230 H 120.329 0.468341 1.89189 0
M  V30 1231 H 119.425 -0.488994 3.08245 0
M  V30 1232 N 119.726 -1.57421 0.075193 0
M  V30 1233 C 120.689 -2.11791 -0.876203 0
M  V30 1234 C 121.689 -1.04268 -1.22412 0
M  V30 1235 O 122.879 -1.30242 -1.15684 0
M  V30 1236 C 120.011 -2.62207 -2.17854 0
M  V30 1237 H 121.204 -2.9716 -0.40444 0
M  V30 1238 H 118.757 -1.55333 -0.173557 0
M  V30 1239 H 119.492 -1.803 -2.6956 0
M  V30 1240 H 119.277 -3.40802 -1.93897 0
M  V30 1241 H 120.767 -3.04335 -2.85955 0
M  V30 1242 N 121.204 0.198386 -1.56346 0
M  V30 1243 C 122.451 0.919286 -1.80431 0
M  V30 1244 C 122.779 1.83393 -0.647866 0
M  V30 1245 O 122.034 1.92236 0.366556 0
M  V30 1246 C 122.333 1.77031 -3.10475 0
M  V30 1247 C 121.999 1.00693 -4.39513 0
M  V30 1248 C 120.661 0.796145 -4.74568 0
M  V30 1249 C 123.013 0.469559 -5.19081 0
M  V30 1250 C 120.341 0.0364588 -5.86689 0
M  V30 1251 C 122.693 -0.2769 -6.31994 0
M  V30 1252 C 121.357 -0.49873 -6.65634 0
M  V30 1253 H 120.627 0.336391 -0.660244 0
M  V30 1254 H 123.274 0.185872 -1.90596 0
M  V30 1255 H 121.579 2.5723 -2.95533 0
M  V30 1256 H 123.276 2.33065 -3.26315 0
M  V30 1257 H 119.866 1.18122 -4.12001 0
M  V30 1258 H 124.05 0.619816 -4.92414 0
M  V30 1259 H 119.306 -0.145412 -6.11227 0
M  V30 1260 H 123.48 -0.700684 -6.92866 0
M  V30 1261 H 121.107 -1.0893 -7.52355 0
M  V30 1262 N 122.682 1.50554 0.465978 0
M  V30 1263 C 123.928 1.62038 1.21949 0
M  V30 1264 C 124.261 0.322116 1.9151 0
M  V30 1265 O 123.536 -0.676723 1.82348 0
M  V30 1266 C 123.819 2.80421 2.25912 0
M  V30 1267 C 123.672 4.20144 1.60622 0
M  V30 1268 C 124.991 2.94354 3.27176 0
M  V30 1269 H 122.11 0.589752 0.441998 0
M  V30 1270 H 124.752 1.82956 0.51257 0
M  V30 1271 H 122.902 2.62717 2.86203 0
M  V30 1272 H 124.574 4.49449 1.03889 0
M  V30 1273 H 122.817 4.24165 0.909211 0
M  V30 1274 H 123.488 4.98914 2.36196 0
M  V30 1275 H 125.964 3.10578 2.76913 0
M  V30 1276 H 124.84 3.788 3.97242 0
M  V30 1277 H 125.101 2.05186 3.916 0
M  V30 1278 N 124.16 -0.719506 1.40217 0
M  V30 1279 C 125.123 -1.8153 1.39927 0
M  V30 1280 C 126.123 -1.58095 0.293723 0
M  V30 1281 O 127.313 -1.65209 0.552429 0
M  V30 1282 C 124.445 -3.19561 1.18716 0
M  V30 1283 H 125.638 -1.83186 2.37451 0
M  V30 1284 H 123.191 -0.924746 1.26008 0
M  V30 1285 H 123.926 -3.23557 0.219366 0
M  V30 1286 H 123.711 -3.3797 1.98793 0
M  V30 1287 H 125.201 -3.99598 1.21291 0
M  V30 1288 N 125.638 -1.25649 -0.95132 0
M  V30 1289 C 126.863 -1.13443 -1.73624 0
M  V30 1290 C 127.288 0.307565 -1.85568 0
M  V30 1291 O 126.646 1.22282 -1.33854 0
M  V30 1292 C 126.694 -1.79723 -3.12621 0
M  V30 1293 O 125.798 -1.07912 -3.98031 0
M  V30 1294 H 125.139 -0.395872 -0.533086 0
M  V30 1295 H 127.669 -1.66276 -1.1922 0
M  V30 1296 H 127.679 -1.86141 -3.63064 0
M  V30 1297 H 126.354 -2.84633 -3.03244 0
M  V30 1298 H 124.931 -1.09398 -3.56492 0
M  V30 1299 N 127.117 1.15442 -1.07289 0
M  V30 1300 C 128.047 2.22312 -0.714107 0
M  V30 1301 C 129.028 1.67467 0.298155 0
M  V30 1302 O 130.213 1.93445 0.171048 0
M  V30 1303 C 127.343 3.47124 -0.110448 0
M  V30 1304 C 126.297 4.14926 -1.04979 0
M  V30 1305 C 125.623 5.33807 -0.308924 0
M  V30 1306 C 126.923 4.64762 -2.38314 0
M  V30 1307 H 128.617 2.5258 -1.6076 0
M  V30 1308 H 126.163 1.21404 -0.77441 0
M  V30 1309 H 128.116 4.21124 0.152482 0
M  V30 1310 H 126.84 3.16187 0.81812 0
M  V30 1311 H 125.499 3.42866 -1.29764 0
M  V30 1312 H 125.147 4.99126 0.623084 0
M  V30 1313 H 124.847 5.80113 -0.935036 0
M  V30 1314 H 126.371 6.10576 -0.0537771 0
M  V30 1315 H 127.785 5.30292 -2.1786 0
M  V30 1316 H 126.182 5.21728 -2.96514 0
M  V30 1317 H 127.252 3.80434 -3.00663 0
M  V30 1318 N 128.595 0.856903 1.32268 0
M  V30 1319 C 129.844 0.457599 1.96441 0
M  V30 1320 C 130.157 -0.992426 1.68553 0
M  V30 1321 O 131.363 -1.49727 2.26482 0
M  V30 1322 C 129.819 0.767358 3.51624 0
M  V30 1323 C 129.427 2.23326 3.88367 0
M  V30 1324 C 131.171 0.435887 4.22256 0
M  V30 1325 C 129.078 2.48613 5.36606 0
M  V30 1326 H 128.008 0.167387 0.735185 0
M  V30 1327 H 130.659 1.048 1.5063 0
M  V30 1328 H 129.041 0.106367 3.95857 0
M  V30 1329 H 130.215 2.93623 3.55137 0
M  V30 1330 H 128.53 2.52948 3.30766 0
M  V30 1331 H 131.127 0.602202 5.31298 0
M  V30 1332 H 131.47 -0.622672 4.11617 0
M  V30 1333 H 132.003 1.05286 3.83614 0
M  V30 1334 H 128.742 3.53101 5.52268 0
M  V30 1335 H 128.262 1.82896 5.71235 0
M  V30 1336 H 129.941 2.32676 6.03714 0
M  V30 1337 N 130.073 -1.45103 0.615059 0
M  V30 1338 C 131.02 -2.30586 -0.0993978 0
M  V30 1339 C 131.99 -1.42544 -0.852669 0
M  V30 1340 O 133.175 -1.71465 -0.836917 0
M  V30 1341 C 130.315 -3.27572 -1.08583 0
M  V30 1342 C 129.428 -4.30717 -0.332656 0
M  V30 1343 C 128.563 -5.14807 -1.30947 0
M  V30 1344 C 127.602 -6.09673 -0.544538 0
M  V30 1345 N 126.739 -6.86517 -1.47101 0
M  V30 1346 H 131.579 -2.91144 0.635542 0
M  V30 1347 H 129.116 -1.4346 0.325206 0
M  V30 1348 H 131.074 -3.82276 -1.67095 0
M  V30 1349 H 129.704 -2.68751 -1.78809 0
M  V30 1350 H 128.756 -3.78615 0.368107 0
M  V30 1351 H 130.068 -4.98102 0.263842 0
M  V30 1352 H 129.222 -5.73948 -1.96643 0
M  V30 1353 H 127.961 -4.47458 -1.9399 0
M  V30 1354 H 126.966 -5.49656 0.126003 0
M  V30 1355 H 128.191 -6.79052 0.080947 0
M  V30 1356 H 126.137 -6.21851 -2.08895 0
M  V30 1357 H 126.054 -7.50281 -0.928137 0
M  V30 1358 H 127.322 -7.50194 -2.11731 0
M  V30 1359 N 131.551 -0.354651 -1.53558 0
M  V30 1360 C 132.461 0.50515 -2.29097 0
M  V30 1361 C 133.477 1.10223 -1.34636 0
M  V30 1362 O 134.653 1.11553 -1.67684 0
M  V30 1363 C 131.718 1.63479 -3.05738 0
M  V30 1364 C 130.779 1.06636 -4.15845 0
M  V30 1365 C 130.012 2.14217 -4.88822 0
M  V30 1366 O 130.235 3.35137 -4.61562 0
M  V30 1367 O 129.169 1.77887 -5.75013 0
M  V30 1368 H 132.995 -0.109237 -3.03503 0
M  V30 1369 H 130.58 -0.119357 -1.48922 0
M  V30 1370 H 132.462 2.2918 -3.5363 0
M  V30 1371 H 131.137 2.23478 -2.34178 0
M  V30 1372 H 130.044 0.373565 -3.7223 0
M  V30 1373 H 131.377 0.511081 -4.89539 0
M  V30 1374 N 133.029 1.57378 -0.0835403 0
M  V30 1375 C 134.254 1.98682 0.594987 0
M  V30 1376 C 134.679 0.961969 1.61641 0
M  V30 1377 O 134.037 -0.0709989 1.81161 0
M  V30 1378 C 134.085 3.38988 1.2296 0
M  V30 1379 O 133.189 3.39208 2.34546 0
M  V30 1380 H 132.53 0.646368 0.152002 0
M  V30 1381 H 135.06 2.03961 -0.161533 0
M  V30 1382 H 135.07 3.76431 1.57366 0
M  V30 1383 H 133.745 4.13107 0.481228 0
M  V30 1384 H 132.322 3.13548 2.01846 0
M  V30 1385 N 134.507 -0.190092 1.56449 0
M  V30 1386 C 135.755 -0.907908 1.80559 0
M  V30 1387 C 136.076 -1.83583 0.657438 0
M  V30 1388 O 135.346 -1.93203 -0.323924 0
M  V30 1389 H 133.926 -0.338247 0.666032 0
M  V30 1390 H 136.588 -0.194403 1.93928 0
M  V30 1391 H 135.684 -1.49604 2.73907 0
M  V30 1392 N 135.985 -1.50799 -0.457987 0
M  V30 1393 C 137.213 -1.66218 -1.23203 0
M  V30 1394 C 137.628 -0.350894 -1.85511 0
M  V30 1395 O 136.985 0.668546 -1.69814 0
M  V30 1396 C 137.036 -2.76291 -2.33121 0
M  V30 1397 O 136.757 -4.02338 -1.73366 0
M  V30 1398 C 138.258 -3.028 -3.2377 0
M  V30 1399 H 135.478 -0.558361 -0.372121 0
M  V30 1400 H 138.022 -1.97099 -0.545179 0
M  V30 1401 H 136.177 -2.48068 -2.97558 0
M  V30 1402 H 136.591 -4.63312 -2.4585 0
M  V30 1403 H 138.065 -3.8345 -3.97077 0
M  V30 1404 H 138.542 -2.14385 -3.83322 0
M  V30 1405 H 139.148 -3.32604 -2.65056 0
M  V30 1406 N 137.463 0.71206 -1.40597 0
M  V30 1407 C 138.74 1.46536 -1.29563 0
M  V30 1408 C 139.12 2.10931 0.0844217 0
M  V30 1409 O 138.468 2.00418 1.0975 0
M  V30 1410 C 138.678 2.49821 -2.43701 0
M  V30 1411 C 140.026 3.15551 -2.841 0
M  V30 1412 O 141.05 2.60142 -2.4332 0
M  V30 1413 O 139.909 4.15867 -3.54566 0
M  V30 1414 H 137.003 0.651801 -0.509004 0
M  V30 1415 H 139.549 0.743935 -1.52524 0
M  V30 1416 H 138.321 2.00778 -3.35863 0
M  V30 1417 H 137.944 3.29495 -2.22528 0
M  V30 1418 N 138.941 1.26152 0.944643 0
M  V30 1419 C 140.218 1.02247 1.66748 0
M  V30 1420 C 140.598 -0.448202 2.06287 0
M  V30 1421 O 139.946 -1.42779 1.78399 0
M  V30 1422 C 140.156 1.96788 2.88228 0
M  V30 1423 C 141.504 2.25201 3.59958 0
M  V30 1424 O 142.528 1.94626 2.98327 0
M  V30 1425 O 141.387 2.77242 4.70956 0
M  V30 1426 H 138.481 0.388517 0.730057 0
M  V30 1427 H 141.027 1.37348 0.99668 0
M  V30 1428 H 139.799 2.96047 2.55875 0
M  V30 1429 H 139.422 1.62145 3.63035 0
M  V30 1430 N 140.419 -1.14872 1.07899 0
M  V30 1431 C 141.666 -1.85789 0.805532 0
M  V30 1432 C 141.994 -1.82649 -0.668561 0
M  V30 1433 O 141.249 -1.24858 -1.50695 0
M  V30 1434 C 141.548 -3.34223 1.26609 0
M  V30 1435 C 141.214 -3.57555 2.74709 0
M  V30 1436 C 139.876 -3.63631 3.1516 0
M  V30 1437 C 142.228 -3.66803 3.70277 0
M  V30 1438 C 139.556 -3.76473 4.49983 0
M  V30 1439 C 141.908 -3.8117 5.04869 0
M  V30 1440 C 140.572 -3.85494 5.44932 0
M  V30 1441 H 139.842 -0.679849 0.294765 0
M  V30 1442 H 142.489 -1.3572 1.35101 0
M  V30 1443 H 140.794 -3.86536 0.640103 0
M  V30 1444 H 142.491 -3.87511 1.03132 0
M  V30 1445 H 139.081 -3.5347 2.42398 0
M  V30 1446 H 143.265 -3.61404 3.40149 0
M  V30 1447 H 138.521 -3.7808 4.80484 0
M  V30 1448 H 142.695 -3.87268 5.78789 0
M  V30 1449 H 140.322 -3.95197 6.49403 0
M  V30 1450 N 141.898 -0.863906 -1.31812 0
M  V30 1451 C 142.846 -0.30422 -2.30602 0
M  V30 1452 C 143.84 0.577419 -1.59255 0
M  V30 1453 O 145.046 0.464194 -1.73912 0
M  V30 1454 H 141.421 -0.0796877 -0.747766 0
M  V30 1455 H 143.392 -1.15148 -2.75288 0
M  V30 1456 C 142.141 0.484617 -3.44306 0
M  V30 1457 H 141.464 -0.18451 -3.99374 0
M  V30 1458 H 142.904 0.841664 -4.15562 0
M  V30 1459 C 141.363 1.6735 -2.92396 0
M  V30 1460 O 141.893 2.77273 -2.90659 0
M  V30 1461 N 140.099 1.50362 -2.48676 0
M  V30 1462 H 139.646 0.609402 -2.50288 0
M  V30 1463 H 139.604 2.30051 -2.14299 0
M  V30 1464 N 143.376 1.44774 -0.622745 0
M  V30 1465 C 144.622 2.0242 -0.124083 0
M  V30 1466 C 144.955 1.4881 1.24777 0
M  V30 1467 O 144.23 0.668799 1.8264 0
M  V30 1468 C 144.513 3.59957 -0.101619 0
M  V30 1469 C 144.366 4.23867 -1.50521 0
M  V30 1470 C 145.685 4.36284 0.578272 0
M  V30 1471 H 142.804 0.735528 -0.0465645 0
M  V30 1472 H 145.446 1.72447 -0.797617 0
M  V30 1473 H 143.596 3.85623 0.471934 0
M  V30 1474 H 145.268 4.09336 -2.12701 0
M  V30 1475 H 143.511 3.81684 -2.06154 0
M  V30 1476 H 144.182 5.32843 -1.4416 0
M  V30 1477 H 146.658 4.16001 0.0906057 0
M  V30 1478 H 145.534 5.46004 0.563149 0
M  V30 1479 H 145.795 4.10271 1.64713 0
M  V30 1480 N 144.854 0.36279 1.53368 0
M  V30 1481 C 146.1 -0.220702 2.02199 0
M  V30 1482 C 146.455 -1.46649 1.24546 0
M  V30 1483 O 145.748 -1.88737 0.32996 0
M  V30 1484 C 145.942 -0.568417 3.52851 0
M  V30 1485 C 145.771 0.642126 4.45092 0
M  V30 1486 C 144.541 1.15335 4.91961 0
M  V30 1487 C 146.739 1.50649 4.91741 0
M  V30 1488 N 144.721 2.3242 5.68202 0
M  V30 1489 C 146.092 2.52404 5.66297 0
M  V30 1490 C 148.147 1.52969 4.73819 0
M  V30 1491 C 146.85 3.56331 6.24836 0
M  V30 1492 C 148.876 2.55789 5.33222 0
M  V30 1493 C 148.238 3.56268 6.07662 0
M  V30 1494 H 144.337 -0.0435508 0.780786 0
M  V30 1495 H 146.921 0.506704 1.87991 0
M  V30 1496 H 145.092 -1.2649 3.67226 0
M  V30 1497 H 146.824 -1.13676 3.88407 0
M  V30 1498 H 143.579 0.718412 4.68119 0
M  V30 1499 H 144.003 2.91591 6.10986 0
M  V30 1500 H 148.645 0.766418 4.15795 0
M  V30 1501 H 146.363 4.33543 6.81958 0
M  V30 1502 H 149.949 2.58435 5.21251 0
M  V30 1503 H 148.829 4.34524 6.52808 0
M  V30 1504 N 146.332 -1.57332 0.0918853 0
M  V30 1505 C 147.581 -1.93412 -0.572249 0
M  V30 1506 C 147.894 -0.975515 -1.69538 0
M  V30 1507 O 149.1 -1.22991 -2.42045 0
M  V30 1508 C 147.556 -3.43648 -1.0693 0
M  V30 1509 C 147.164 -4.47994 0.0239049 0
M  V30 1510 C 148.908 -3.88695 -1.70635 0
M  V30 1511 C 146.815 -5.89381 -0.488319 0
M  V30 1512 H 145.745 -0.721939 -0.217532 0
M  V30 1513 H 148.396 -1.82735 0.167369 0
M  V30 1514 H 146.778 -3.49466 -1.8625 0
M  V30 1515 H 147.952 -4.53815 0.799277 0
M  V30 1516 H 146.267 -4.12536 0.565946 0
M  V30 1517 H 148.864 -4.91725 -2.10025 0
M  V30 1518 H 149.207 -3.27166 -2.57426 0
M  V30 1519 H 149.74 -3.85564 -0.979023 0
M  V30 1520 H 146.479 -6.54602 0.342906 0
M  V30 1521 H 145.999 -5.87037 -1.23077 0
M  V30 1522 H 147.678 -6.39863 -0.958317 0
M  V30 1523 N 147.81 0.181792 -1.56548 0
M  V30 1524 C 149.058 0.89832 -1.81038 0
M  V30 1525 C 149.379 1.83232 -0.667164 0
M  V30 1526 O 148.649 1.93372 0.313673 0
M  V30 1527 H 147.229 0.33471 -0.667816 0
M  V30 1528 H 149.891 0.184116 -1.94028 0
M  V30 1529 H 148.987 1.4815 -2.74696 0
M  V30 1530 N 149.288 1.51039 0.449983 0
M  V30 1531 C 150.218 1.74379 1.55288 0
M  V30 1532 C 151.199 0.593236 1.5942 0
M  V30 1533 O 152.384 0.834625 1.7535 0
M  V30 1534 C 149.514 1.85728 2.93466 0
M  V30 1535 C 148.468 3.01078 3.04197 0
M  V30 1536 C 147.794 2.97595 4.44231 0
M  V30 1537 C 149.094 4.41254 2.7945 0
M  V30 1538 H 150.788 2.66725 1.36008 0
M  V30 1539 H 148.334 1.2835 0.652864 0
M  V30 1540 H 150.287 2.0064 3.70569 0
M  V30 1541 H 149.011 0.900207 3.13949 0
M  V30 1542 H 147.67 2.85851 2.29531 0
M  V30 1543 H 147.318 1.99691 4.61663 0
M  V30 1544 H 147.018 3.75046 4.52343 0
M  V30 1545 H 148.542 3.14583 5.23326 0
M  V30 1546 H 149.956 4.56897 3.46292 0
M  V30 1547 H 148.353 5.20315 2.98985 0
M  V30 1548 H 149.423 4.52164 1.75144 0
M  V30 1549 N 150.766 -0.704594 1.40972 0
M  V30 1550 C 151.716 -1.81051 1.38581 0
M  V30 1551 C 152.7 -1.58759 0.261585 0
M  V30 1552 O 153.892 -1.69745 0.501556 0
M  V30 1553 C 151.021 -3.19279 1.26157 0
M  V30 1554 C 150.107 -3.47296 2.43405 0
M  V30 1555 N 150.498 -3.46064 3.68881 0
M  V30 1556 C 148.796 -3.77804 2.37023 0
M  V30 1557 C 149.497 -3.72733 4.46592 0
M  V30 1558 N 148.473 -3.9203 3.76581 0
M  V30 1559 H 152.275 -1.78448 2.33525 0
M  V30 1560 H 149.789 -0.904198 1.349 0
M  V30 1561 H 151.786 -3.98488 1.22526 0
M  V30 1562 H 150.446 -3.231 0.321902 0
M  V30 1563 H 151.457 -3.26656 4.01891 0
M  V30 1564 H 148.134 -3.8905 1.51481 0
M  V30 1565 H 149.524 -3.77993 5.55492 0
M  V30 1566 N 152.244 -1.26651 -0.937939 0
M  V30 1567 C 153.521 -1.0313 -1.66204 0
M  V30 1568 C 153.901 0.437256 -2.06522 0
M  V30 1569 O 153.249 1.41831 -1.79154 0
M  V30 1570 C 153.459 -1.98314 -2.87181 0
M  V30 1571 C 154.807 -2.27107 -3.58758 0
M  V30 1572 O 155.831 -1.96205 -2.97291 0
M  V30 1573 O 154.69 -2.79736 -4.69479 0
M  V30 1574 H 151.784 -0.392384 -0.727986 0
M  V30 1575 H 154.33 -1.37874 -0.989382 0
M  V30 1576 H 153.102 -2.97399 -2.54302 0
M  V30 1577 H 152.725 -1.64068 -3.6217 0
M  V30 1578 N 153.722 1.14298 -1.08507 0
M  V30 1579 C 155.133 1.66926 -0.836227 0
M  V30 1580 C 155.484 1.85576 0.63686 0
M  V30 1581 O 154.609 1.56767 1.49175 0
M  V30 1582 C 155.204 3.03219 -1.51142 0
M  V30 1583 C 153.763 3.52876 -1.30979 0
M  V30 1584 C 152.91 2.2833 -1.57356 0
M  V30 1585 H 155.861 0.983491 -1.24552 0
M  V30 1586 H 155.882 3.68726 -0.939211 0
M  V30 1587 H 155.394 2.89612 -2.58353 0
M  V30 1588 H 153.495 3.71703 -0.258429 0
M  V30 1589 H 153.608 4.33586 -2.03814 0
M  V30 1590 H 151.972 2.34454 -0.995164 0
M  V30 1591 H 152.755 2.17298 -2.65775 0
M  V30 1592 N 155.201 0.870884 1.31352 0
M  V30 1593 C 156.148 0.325425 2.28494 0
M  V30 1594 C 157.118 -0.576615 1.5577 0
M  V30 1595 O 158.303 -0.508059 1.83911 0
M  V30 1596 C 155.443 -0.466283 3.41935 0
M  V30 1597 C 154.556 0.463378 4.29508 0
M  V30 1598 C 153.691 -0.342544 5.30094 0
M  V30 1599 C 152.73 0.583486 6.09313 0
M  V30 1600 N 151.867 -0.186244 7.01853 0
M  V30 1601 H 156.707 1.15901 2.74538 0
M  V30 1602 H 154.244 0.58294 1.35056 0
M  V30 1603 H 156.202 -0.941085 4.06447 0
M  V30 1604 H 154.832 -1.26456 2.97 0
M  V30 1605 H 153.884 1.05663 3.65431 0
M  V30 1606 H 155.196 1.1734 4.84802 0
M  V30 1607 H 154.35 -0.879816 6.00287 0
M  V30 1608 H 153.089 -1.08585 4.75458 0
M  V30 1609 H 152.094 1.13251 5.3801 0
M  V30 1610 H 153.319 1.32566 6.66035 0
M  V30 1611 H 151.265 -0.912348 6.49625 0
M  V30 1612 H 151.182 0.464422 7.54572 0
M  V30 1613 H 152.45 -0.704716 7.76308 0
M  V30 1614 N 156.679 -1.44442 0.630414 0
M  V30 1615 C 157.626 -2.30678 -0.0749355 0
M  V30 1616 C 158.596 -1.4344 -0.837502 0
M  V30 1617 O 159.781 -1.72343 -0.818684 0
M  V30 1618 C 156.921 -3.28706 -1.05103 0
M  V30 1619 C 156.034 -4.31046 -0.286954 0
M  V30 1620 C 155.169 -5.16167 -1.2548 0
M  V30 1621 C 154.208 -6.10216 -0.479843 0
M  V30 1622 N 153.345 -6.88039 -1.39811 0
M  V30 1623 H 158.185 -2.90454 0.666386 0
M  V30 1624 H 155.722 -1.43107 0.340404 0
M  V30 1625 H 157.68 -3.84027 -1.63031 0
M  V30 1626 H 156.31 -2.70632 -1.75949 0
M  V30 1627 H 155.362 -3.78203 0.408243 0
M  V30 1628 H 156.674 -4.97794 0.316657 0
M  V30 1629 H 155.828 -5.76002 -1.90544 0
M  V30 1630 H 154.567 -4.49491 -1.89233 0
M  V30 1631 H 153.572 -5.49491 0.184295 0
M  V30 1632 H 154.797 -6.78928 0.152965 0
M  V30 1633 H 152.743 -6.24032 -2.02287 0
M  V30 1634 H 152.66 -7.51223 -0.848508 0
M  V30 1635 H 153.928 -7.52397 -2.03762 0
M  V30 1636 N 158.157 -0.370918 -1.53173 0
M  V30 1637 C 159.105 0.488101 -2.27421 0
M  V30 1638 C 160.099 1.07884 -1.30604 0
M  V30 1639 O 161.305 1.02143 -1.48212 0
M  V30 1640 H 157.68 0.176134 -0.731082 0
M  V30 1641 H 159.651 -0.159815 -2.97972 0
M  V30 1642 C 158.4 1.61306 -3.08019 0
M  V30 1643 H 157.723 1.1678 -3.82364 0
M  V30 1644 H 159.163 2.18872 -3.63141 0
M  V30 1645 C 157.622 2.55848 -2.19188 0
M  V30 1646 O 158.152 3.58799 -1.80626 0
M  V30 1647 N 156.358 2.2516 -1.83715 0
M  V30 1648 H 155.905 1.41476 -2.15273 0
M  V30 1649 H 155.863 2.8867 -1.24567 0
M  V30 1650 N 159.635 1.57281 -0.100228 0
M  V30 1651 C 161.051 1.57527 0.256416 0
M  V30 1652 C 161.251 1.11173 1.68056 0
M  V30 1653 O 160.307 0.79053 2.39806 0
M  V30 1654 C 161.62 3.00673 0.0401747 0
M  V30 1655 C 163.168 3.12815 0.107528 0
M  V30 1656 C 163.643 4.57929 -0.0807834 0
M  V30 1657 N 165.134 4.63193 -0.0261207 0
M  V30 1658 C 165.869 5.73212 -0.146999 0
M  V30 1659 N 165.365 6.92047 -0.322999 0
M  V30 1660 N 167.158 5.62031 -0.0879044 0
M  V30 1661 H 159.309 1.85718 -1.03065 0
M  V30 1662 H 161.572 0.857446 -0.404339 0
M  V30 1663 H 161.278 3.38804 -0.943649 0
M  V30 1664 H 161.152 3.69042 0.780262 0
M  V30 1665 H 163.539 2.74554 1.08186 0
M  V30 1666 H 163.62 2.47028 -0.664134 0
M  V30 1667 H 163.264 4.96886 -1.05201 0
M  V30 1668 H 163.194 5.21783 0.710635 0
M  V30 1669 H 165.685 3.77748 0.107161 0
M  V30 1670 H 165.998 7.7173 -0.406608 0
M  V30 1671 H 164.343 6.94074 -0.358733 0
M  V30 1672 H 167.534 4.68075 0.048498 0
M  V30 1673 H 167.707 6.47734 -0.185557 0
M  V30 1674 N 161.113 -0.173488 1.56642 0
M  V30 1675 C 162.529 -0.525174 1.50712 0
M  V30 1676 C 162.729 -1.8476 0.804107 0
M  V30 1677 O 161.785 -2.49869 0.363574 0
M  V30 1678 C 163.098 -0.559937 2.95441 0
M  V30 1679 C 164.646 -0.647288 3.06234 0
M  V30 1680 C 165.121 -0.712963 4.52417 0
M  V30 1681 N 166.612 -0.775911 4.56655 0
M  V30 1682 C 167.347 -0.847264 5.67106 0
M  V30 1683 N 166.843 -0.879585 6.87194 0
M  V30 1684 N 168.636 -0.886117 5.55071 0
M  V30 1685 H 160.787 0.693681 2.00753 0
M  V30 1686 H 163.05 0.249841 0.914485 0
M  V30 1687 H 162.756 0.343049 3.50023 0
M  V30 1688 H 162.63 -1.40718 3.49969 0
M  V30 1689 H 165.017 -1.5407 2.51687 0
M  V30 1690 H 165.098 0.226586 2.54794 0
M  V30 1691 H 164.742 0.176183 5.07594 0
M  V30 1692 H 164.672 -1.60295 5.0161 0
M  V30 1693 H 167.163 -0.759304 3.70193 0
M  V30 1694 H 167.476 -0.935144 7.67121 0
M  V30 1695 H 165.821 -0.847898 6.89808 0
M  V30 1696 H 169.012 -0.857853 4.60172 0
M  V30 1697 H 169.185 -0.938263 6.41171 0
M  V30 1698 N 162.591 -1.51276 -0.441967 0
M  V30 1699 C 163.837 -1.6492 -1.1905 0
M  V30 1700 C 164.192 -0.358731 -1.89026 0
M  V30 1701 O 163.485 0.645193 -1.8041 0
M  V30 1702 C 163.679 -2.78746 -2.23686 0
M  V30 1703 C 163.508 -4.18737 -1.63979 0
M  V30 1704 C 162.278 -4.84739 -1.42674 0
M  V30 1705 C 164.476 -5.01988 -1.11858 0
M  V30 1706 N 162.458 -6.08858 -0.785159 0
M  V30 1707 C 163.829 -6.17071 -0.601989 0
M  V30 1708 C 165.884 -4.87551 -1.0099 0
M  V30 1709 C 164.587 -7.19299 0.0126012 0
M  V30 1710 C 166.613 -5.89983 -0.409206 0
M  V30 1711 C 165.975 -7.04333 0.0968651 0
M  V30 1712 H 162.074 -0.657416 -0.423471 0
M  V30 1713 H 164.658 -1.8849 -0.48782 0
M  V30 1714 H 162.829 -2.56848 -2.91348 0
M  V30 1715 H 164.561 -2.81595 -2.90666 0
M  V30 1716 H 161.316 -4.42528 -1.68719 0
M  V30 1717 H 161.74 -6.75282 -0.481942 0
M  V30 1718 H 166.382 -3.99401 -1.38703 0
M  V30 1719 H 164.1 -8.071 0.401879 0
M  V30 1720 H 167.686 -5.8088 -0.327079 0
M  V30 1721 H 166.566 -7.82238 0.554373 0
M  V30 1722 N 164.069 0.697108 -1.41344 0
M  V30 1723 C 165.019 1.80313 -1.39539 0
M  V30 1724 C 166.003 1.58618 -0.270001 0
M  V30 1725 O 167.195 1.69477 -0.510551 0
M  V30 1726 C 164.324 3.18606 -1.27848 0
M  V30 1727 C 163.41 3.46001 -2.45244 0
M  V30 1728 N 163.801 3.44103 -3.70711 0
M  V30 1729 C 162.099 3.76542 -2.39023 0
M  V30 1730 C 162.8 3.7036 -4.48563 0
M  V30 1731 N 161.776 3.90027 -3.78655 0
M  V30 1732 H 165.578 1.77207 -2.34468 0
M  V30 1733 H 163.092 0.897031 -1.35378 0
M  V30 1734 H 165.089 3.97833 -1.24637 0
M  V30 1735 H 163.749 3.22925 -0.339032 0
M  V30 1736 H 164.76 3.2452 -4.03618 0
M  V30 1737 H 161.437 3.88241 -1.53542 0
M  V30 1738 H 162.827 3.75042 -5.57488 0
M  V30 1739 N 165.547 1.27147 0.931209 0
M  V30 1740 C 166.793 1.14455 1.68141 0
M  V30 1741 C 167.148 -0.307172 1.89932 0
M  V30 1742 O 166.441 -1.22158 1.47607 0
M  V30 1743 C 166.635 1.8579 3.05314 0
M  V30 1744 C 166.464 3.3775 2.96909 0
M  V30 1745 C 165.234 4.07062 2.99381 0
M  V30 1746 C 167.432 4.33783 2.76291 0
M  V30 1747 N 165.414 5.45618 2.8138 0
M  V30 1748 C 166.785 5.59582 2.6696 0
M  V30 1749 C 168.84 4.23915 2.61152 0
M  V30 1750 C 167.543 6.76639 2.44033 0
M  V30 1751 C 169.569 5.40689 2.39602 0
M  V30 1752 C 168.931 6.65443 2.3101 0
M  V30 1753 H 165.03 0.473667 0.622225 0
M  V30 1754 H 167.614 1.60568 1.10118 0
M  V30 1755 H 165.785 1.42138 3.61457 0
M  V30 1756 H 167.517 1.65634 3.69253 0
M  V30 1757 H 164.272 3.585 3.09475 0
M  V30 1758 H 164.696 6.184 2.75519 0
M  V30 1759 H 169.338 3.28189 2.66555 0
M  V30 1760 H 167.056 7.72451 2.3737 0
M  V30 1761 H 170.642 5.34932 2.28778 0
M  V30 1762 H 169.522 7.54277 2.14558 0
M  V30 1763 N 167.025 -1.13721 1.09112 0
M  V30 1764 C 168.25 -1.89314 0.847053 0
M  V30 1765 C 168.675 -1.78416 -0.595774 0
M  V30 1766 O 168.033 -1.12942 -1.41823 0
M  V30 1767 C 168.081 -3.3701 1.28284 0
M  V30 1768 O 167.185 -4.10054 0.439267 0
M  V30 1769 H 166.526 -0.588745 0.307044 0
M  V30 1770 H 169.056 -1.43902 1.45442 0
M  V30 1771 H 169.066 -3.87834 1.26683 0
M  V30 1772 H 167.741 -3.4426 2.33363 0
M  V30 1773 H 166.318 -3.69266 0.519312 0
M  V30 1774 N 168.503 -0.877838 -1.30888 0
M  V30 1775 C 169.728 -0.506629 -2.01117 0
M  V30 1776 C 170.153 0.895564 -1.65412 0
M  V30 1777 O 169.511 1.5923 -0.866922 0
M  V30 1778 C 169.559 -0.680223 -3.54126 0
M  V30 1779 O 168.663 0.277033 -4.11468 0
M  V30 1780 H 168.004 -0.200518 -0.633 0
M  V30 1781 H 170.534 -1.18342 -1.66902 0
M  V30 1782 H 170.544 -0.5765 -4.03907 0
M  V30 1783 H 169.219 -1.70261 -3.79452 0
M  V30 1784 H 167.796 0.127606 -3.72682 0
M  V30 1785 N 169.982 1.44106 -0.638065 0
M  V30 1786 C 171.23 2.01579 -0.145043 0
M  V30 1787 C 171.551 1.50496 1.24 0
M  V30 1788 O 170.821 0.711374 1.82527 0
M  V30 1789 H 169.401 0.745282 -0.05063 0
M  V30 1790 H 172.063 1.76516 -0.826327 0
M  V30 1791 H 171.159 3.11877 -0.118039 0
M  V30 1792 N 171.46 0.379036 1.52974 0
M  V30 1793 C 172.685 -0.209353 2.06341 0
M  V30 1794 C 173.11 -1.40583 1.24972 0
M  V30 1795 O 172.468 -1.79246 0.272155 0
M  V30 1796 C 172.516 -0.567786 3.56102 0
M  V30 1797 O 171.62 -1.66318 3.77375 0
M  V30 1798 H 170.961 -0.0272919 0.663439 0
M  V30 1799 H 173.491 0.543536 1.97248 0
M  V30 1800 H 173.501 -0.835003 3.99364 0
M  V30 1801 H 172.176 0.307013 4.14765 0
M  V30 1802 H 170.753 -1.39048 3.46006 0
M  V30 1803 N 172.938 -1.57226 0.108567 0
M  V30 1804 C 173.868 -2.17778 -0.84232 0
M  V30 1805 C 174.849 -1.11487 -1.2847 0
M  V30 1806 O 176.034 -1.39681 -1.34918 0
M  V30 1807 C 173.164 -2.76888 -2.09644 0
M  V30 1808 C 172.118 -3.88669 -1.79221 0
M  V30 1809 C 171.444 -4.34541 -3.11574 0
M  V30 1810 C 172.744 -5.11251 -1.06864 0
M  V30 1811 H 174.438 -2.97489 -0.337774 0
M  V30 1812 H 171.984 -1.43097 -0.161025 0
M  V30 1813 H 173.937 -3.17904 -2.76614 0
M  V30 1814 H 172.661 -1.94451 -2.62405 0
M  V30 1815 H 171.32 -3.48213 -1.14644 0
M  V30 1816 H 170.968 -3.48977 -3.62249 0
M  V30 1817 H 170.668 -5.09914 -2.91996 0
M  V30 1818 H 172.192 -4.782 -3.7968 0
M  V30 1819 H 173.606 -5.49352 -1.63968 0
M  V30 1820 H 172.003 -5.9214 -0.974178 0
M  V30 1821 H 173.073 -4.8487 -0.0536168 0
M  V30 1822 N 174.416 0.165178 -1.56732 0
M  V30 1823 C 175.662 0.882112 -1.82611 0
M  V30 1824 C 175.995 1.81628 -0.687378 0
M  V30 1825 O 175.27 1.92009 0.310267 0
M  V30 1826 C 175.553 1.67245 -3.18906 0
M  V30 1827 C 175.406 0.760987 -4.43316 0
M  V30 1828 C 176.725 2.63884 -3.52212 0
M  V30 1829 H 173.844 0.319242 -0.664269 0
M  V30 1830 H 176.486 0.148052 -1.89422 0
M  V30 1831 H 174.636 2.29824 -3.1323 0
M  V30 1832 H 176.308 0.147596 -4.61064 0
M  V30 1833 H 174.551 0.0694102 -4.33744 0
M  V30 1834 H 175.222 1.34962 -5.35247 0
M  V30 1835 H 177.698 2.11429 -3.58381 0
M  V30 1836 H 176.574 3.16245 -4.48643 0
M  V30 1837 H 176.835 3.44377 -2.77231 0
M  V30 1838 N 175.894 1.51508 0.433938 0
M  V30 1839 C 177.119 1.68443 1.21003 0
M  V30 1840 C 177.544 0.382636 1.84167 0
M  V30 1841 O 176.902 -0.65755 1.68956 0
M  V30 1842 C 176.95 2.80405 2.26727 0
M  V30 1843 O 176.054 2.44245 3.32292 0
M  V30 1844 H 175.395 0.561536 0.354363 0
M  V30 1845 H 177.925 1.9809 0.512024 0
M  V30 1846 H 177.935 3.0459 2.71457 0
M  V30 1847 H 176.61 3.74867 1.80132 0
M  V30 1848 H 175.187 2.30644 2.93015 0
M  V30 1849 N 177.372 -0.689602 1.41712 0
M  V30 1850 C 178.602 -1.47613 1.44548 0
M  V30 1851 C 179.01 -1.89132 0.0509034 0
M  V30 1852 O 178.353 -1.57741 -0.94146 0
M  V30 1853 C 178.415 -2.76596 2.2964 0
M  V30 1854 C 178.079 -2.57245 3.77722 0
M  V30 1855 C 179.076 -2.22804 4.69739 0
M  V30 1856 C 176.761 -2.727 4.2183 0
M  V30 1857 C 178.755 -2.04064 6.03851 0
M  V30 1858 C 176.442 -2.53576 5.56006 0
M  V30 1859 C 177.44 -2.1931 6.46832 0
M  V30 1860 O 177.128 -2.00359 7.78532 0
M  V30 1861 H 176.86 -0.461227 0.494212 0
M  V30 1862 H 179.414 -0.856045 1.86711 0
M  V30 1863 H 177.644 -3.41033 1.82301 0
M  V30 1864 H 179.333 -3.38424 2.24107 0
M  V30 1865 H 180.099 -2.10473 4.36951 0
M  V30 1866 H 175.978 -2.98353 3.51435 0
M  V30 1867 H 179.522 -1.77241 6.74708 0
M  V30 1868 H 175.419 -2.65499 5.88371 0
M  V30 1869 H 176.187 -2.15075 7.89737 0
M  V30 1870 N 178.85 -1.27639 -0.924453 0
M  V30 1871 C 179.797 -1.10644 -2.0255 0
M  V30 1872 C 180.767 -0.00658438 -1.66099 0
M  V30 1873 O 181.952 -0.16952 -1.90045 0
M  V30 1874 C 179.092 -0.76309 -3.36557 0
M  V30 1875 C 178.205 -1.94091 -3.85944 0
M  V30 1876 C 177.34 -1.53914 -5.08413 0
M  V30 1877 C 176.379 -2.68425 -5.50104 0
M  V30 1878 N 175.516 -2.28815 -6.63768 0
M  V30 1879 H 180.356 -2.04858 -2.16419 0
M  V30 1880 H 177.893 -1.01974 -1.06017 0
M  V30 1881 H 179.851 -0.544822 -4.13627 0
M  V30 1882 H 178.481 0.142102 -3.22487 0
M  V30 1883 H 177.533 -2.27162 -3.05125 0
M  V30 1884 H 178.845 -2.7998 -4.12811 0
M  V30 1885 H 177.999 -1.28231 -5.92994 0
M  V30 1886 H 176.738 -0.651391 -4.8333 0
M  V30 1887 H 175.743 -2.94819 -4.64071 0
M  V30 1888 H 176.968 -3.57826 -5.7718 0
M  V30 1889 H 174.914 -1.42495 -6.40337 0
M  V30 1890 H 174.831 -3.08242 -6.90306 0
M  V30 1891 H 176.099 -2.06387 -7.51681 0
M  V30 1892 N 180.328 1.1314 -1.09713 0
M  V30 1893 C 181.553 1.88862 -0.857081 0
M  V30 1894 C 181.978 1.78729 0.586304 0
M  V30 1895 O 181.336 1.13692 1.41222 0
M  V30 1896 C 181.384 3.36325 -1.30069 0
M  V30 1897 O 180.488 4.09815 -0.461007 0
M  V30 1898 H 179.829 0.587108 -0.310162 0
M  V30 1899 H 182.359 1.43129 -1.46203 0
M  V30 1900 H 182.369 3.87157 -1.28738 0
M  V30 1901 H 181.044 3.43017 -2.35185 0
M  V30 1902 H 179.621 3.68986 -0.538888 0
M  V30 1903 N 181.806 0.884767 1.30421 0
M  V30 1904 C 183.052 0.513218 1.96819 0
M  V30 1905 C 183.407 -0.927347 1.68577 0
M  V30 1906 O 182.7 -1.64644 0.979941 0
M  V30 1907 C 182.894 0.724318 3.49983 0
M  V30 1908 C 182.723 2.18385 3.93113 0
M  V30 1909 C 181.493 2.82839 4.18725 0
M  V30 1910 C 183.691 3.15763 4.05953 0
M  V30 1911 N 181.673 4.1939 4.48314 0
M  V30 1912 C 183.044 4.37387 4.39423 0
M  V30 1913 C 185.099 3.11555 3.88379 0
M  V30 1914 C 183.802 5.55343 4.5715 0
M  V30 1915 C 185.828 4.28782 4.07308 0
M  V30 1916 C 185.19 5.49172 4.41123 0
M  V30 1917 H 181.289 0.237123 0.745182 0
M  V30 1918 H 183.873 1.14246 1.57658 0
M  V30 1919 H 182.044 0.124565 3.882 0
M  V30 1920 H 183.776 0.31969 4.03435 0
M  V30 1921 H 180.531 2.33708 4.11919 0
M  V30 1922 H 180.955 4.89911 4.67243 0
M  V30 1923 H 185.597 2.19576 3.61312 0
M  V30 1924 H 183.315 6.47826 4.8306 0
M  V30 1925 H 186.901 4.26995 3.95179 0
M  V30 1926 H 185.781 6.38371 4.55469 0
M  V30 1927 N 183.284 -1.43765 0.645699 0
M  V30 1928 C 184.532 -2.01499 0.155731 0
M  V30 1929 C 184.853 -1.51151 -1.232 0
M  V30 1930 O 184.123 -0.721044 -1.82148 0
M  V30 1931 H 182.703 -0.745003 0.0545817 0
M  V30 1932 H 185.365 -1.76075 0.835677 0
M  V30 1933 H 184.461 -3.1181 0.134577 0
M  V30 1934 N 184.763 -0.387143 -1.52771 0
M  V30 1935 C 186.012 0.19697 -2.00736 0
M  V30 1936 C 186.325 1.48082 -1.27793 0
M  V30 1937 O 187.531 2.14485 -1.66458 0
M  V30 1938 C 185.987 0.401568 -3.57653 0
M  V30 1939 C 185.595 -0.868907 -4.39493 0
M  V30 1940 C 187.339 0.942164 -4.13912 0
M  V30 1941 C 185.246 -0.632705 -5.88006 0
M  V30 1942 H 184.176 0.0773827 -0.750019 0
M  V30 1943 H 186.827 -0.50921 -1.76293 0
M  V30 1944 H 185.209 1.16954 -3.78335 0
M  V30 1945 H 186.383 -1.64133 -4.30577 0
M  V30 1946 H 184.698 -1.33429 -3.94443 0
M  V30 1947 H 187.295 1.13455 -5.22525 0
M  V30 1948 H 187.638 1.9106 -3.69867 0
M  V30 1949 H 188.171 0.233814 -3.97112 0
M  V30 1950 H 184.91 -1.57208 -6.36369 0
M  V30 1951 H 184.43 0.100825 -5.99715 0
M  V30 1952 H 186.109 -0.26642 -6.46451 0
M  V30 1953 N 186.241 1.57166 -0.116904 0
M  V30 1954 C 187.489 1.94737 0.540533 0
M  V30 1955 C 187.81 1.00096 1.67349 0
M  V30 1956 O 187.08 0.0568854 1.95817 0
M  V30 1957 H 185.66 0.718981 0.202669 0
M  V30 1958 H 188.322 1.94017 -0.185353 0
M  V30 1959 H 187.418 2.97719 0.936483 0
M  V30 1960 N 187.719 -0.156864 1.56817 0
M  V30 1961 C 188.682 -1.17781 1.96622 0
M  V30 1962 C 189.682 -1.36401 0.851555 0
M  V30 1963 O 190.872 -1.33561 1.11836 0
M  V30 1964 C 188.004 -2.54008 2.27361 0
M  V30 1965 H 189.197 -0.836564 2.87996 0
M  V30 1966 H 186.75 -0.39985 1.51099 0
M  V30 1967 H 187.485 -2.9312 1.38748 0
M  V30 1968 H 187.27 -2.41856 3.08623 0
M  V30 1969 H 188.76 -3.27558 2.59029 0
M  V30 1970 N 189.197 -1.51736 -0.425897 0
M  V30 1971 C 190.608 -1.5732 -1.00536 0
M  V30 1972 C 190.959 -0.403537 -1.92005 0
M  V30 1973 O 190.084 0.478256 -2.11049 0
M  V30 1974 C 190.679 -2.85119 -1.8301 0
M  V30 1975 C 189.238 -2.93236 -2.35987 0
M  V30 1976 C 188.385 -2.52098 -1.15508 0
M  V30 1977 H 191.336 -1.57348 -0.206739 0
M  V30 1978 H 191.357 -2.69526 -2.68581 0
M  V30 1979 H 190.869 -3.7023 -1.16411 0
M  V30 1980 H 188.97 -2.12581 -3.06007 0
M  V30 1981 H 189.083 -3.9713 -2.68001 0
M  V30 1982 H 187.447 -2.05558 -1.50393 0
M  V30 1983 H 188.23 -3.39565 -0.505014 0
M  V30 1984 N 190.675 0.682077 -1.42076 0
M  V30 1985 C 191.9 1.47558 -1.45744 0
M  V30 1986 C 192.325 1.87977 -0.0680981 0
M  V30 1987 O 191.683 1.55522 0.9318 0
M  V30 1988 C 191.731 2.70575 -2.38373 0
M  V30 1989 O 190.835 3.68573 -1.85007 0
M  V30 1990 H 190.176 0.443585 -0.494093 0
M  V30 1991 H 192.706 0.837238 -1.86686 0
M  V30 1992 H 192.716 3.18729 -2.54707 0
M  V30 1993 H 191.391 2.40495 -3.39315 0
M  V30 1994 H 189.968 3.2757 -1.78192 0
M  V30 1995 N 192.153 1.28127 0.917671 0
M  V30 1996 C 193.378 1.18007 1.70555 0
M  V30 1997 C 193.803 -0.258257 1.86319 0
M  V30 1998 O 193.161 -1.1869 1.37049 0
M  V30 1999 C 193.209 1.87948 3.07746 0
M  V30 2000 O 192.313 1.18427 3.9503 0
M  V30 2001 H 191.654 0.409867 0.522403 0
M  V30 2002 H 194.184 1.69379 1.1477 0
M  V30 2003 H 194.194 1.95701 3.58001 0
M  V30 2004 H 192.869 2.92573 2.95591 0
M  V30 2005 H 191.446 1.18811 3.53466 0
M  V30 2006 N 193.631 -1.12557 1.10312 0
M  V30 2007 C 194.877 -1.84311 0.846011 0
M  V30 2008 C 195.21 -1.83805 -0.626859 0
M  V30 2009 O 194.485 -1.28268 -1.46211 0
M  V30 2010 C 194.768 -3.32048 1.39341 0
M  V30 2011 C 194.621 -3.41016 2.93305 0
M  V30 2012 C 195.94 -4.27764 1.03468 0
M  V30 2013 H 193.059 -0.669192 0.30879 0
M  V30 2014 H 195.701 -1.32057 1.36605 0
M  V30 2015 H 193.851 -3.76678 0.951087 0
M  V30 2016 H 195.523 -3.05031 3.46055 0
M  V30 2017 H 193.766 -2.81603 3.29973 0
M  V30 2018 H 194.437 -4.44948 3.26689 0
M  V30 2019 H 196.913 -3.91253 1.41633 0
M  V30 2020 H 195.789 -5.29549 1.44463 0
M  V30 2021 H 196.05 -4.42064 -0.0560404 0
M  V30 2022 N 195.109 -0.891671 -1.2995 0
M  V30 2023 C 196.057 -0.353066 -2.29905 0
M  V30 2024 C 197.051 0.543509 -1.60444 0
M  V30 2025 O 198.257 0.4272 -1.74857 0
M  V30 2026 H 194.632 -0.095531 -0.745907 0
M  V30 2027 H 196.603 -1.20961 -2.72784 0
M  V30 2028 C 195.352 0.411475 -3.45257 0
M  V30 2029 H 194.675 -0.269182 -3.98893 0
M  V30 2030 H 196.115 0.753328 -4.17254 0
M  V30 2031 C 194.574 1.6111 -2.9588 0
M  V30 2032 O 195.104 2.71045 -2.96475 0
M  V30 2033 N 193.31 1.45054 -2.51809 0
M  V30 2034 H 192.857 0.556175 -2.51524 0
M  V30 2035 H 192.815 2.25453 -2.1913 0
M  V30 2036 N 196.587 1.43421 -0.653314 0
M  V30 2037 C 197.998 1.85065 -0.246537 0
M  V30 2038 C 198.349 1.54688 1.2069 0
M  V30 2039 O 197.474 0.995896 1.92122 0
M  V30 2040 C 198.069 3.35922 -0.440666 0
M  V30 2041 C 196.628 3.76297 -0.0882064 0
M  V30 2042 C 195.775 2.67147 -0.743484 0
M  V30 2043 H 198.726 1.33572 -0.856979 0
M  V30 2044 H 198.747 3.79204 0.313798 0
M  V30 2045 H 198.259 3.58 -1.49858 0
M  V30 2046 H 196.36 3.5983 0.96711 0
M  V30 2047 H 196.473 4.76338 -0.513738 0
M  V30 2048 H 194.837 2.54086 -0.176712 0
M  V30 2049 H 195.62 2.92053 -1.80443 0
M  V30 2050 N 198.065 0.39524 1.52563 0
M  V30 2051 C 199.313 -0.184678 2.01254 0
M  V30 2052 C 199.634 -1.46822 1.28329 0
M  V30 2053 O 198.904 -1.91666 0.405094 0
M  V30 2054 H 197.484 -0.0712355 0.743596 0
M  V30 2055 H 200.146 0.528293 1.87603 0
M  V30 2056 H 199.242 -0.390681 3.09645 0
M  V30 2057 N 199.544 -1.57102 0.125237 0
M  V30 2058 C 200.774 -1.99472 -0.538015 0
M  V30 2059 C 201.182 -1.00395 -1.60366 0
M  V30 2060 O 200.525 0.0103875 -1.83697 0
M  V30 2061 C 200.587 -3.38262 -1.21734 0
M  V30 2062 C 200.251 -4.56021 -0.298897 0
M  V30 2063 C 201.248 -5.17817 0.464943 0
M  V30 2064 C 198.933 -5.01869 -0.208149 0
M  V30 2065 C 200.927 -6.23852 1.3072 0
M  V30 2066 C 198.614 -6.07763 0.637736 0
M  V30 2067 C 199.612 -6.68622 1.39403 0
M  V30 2068 O 199.3 -7.7247 2.22586 0
M  V30 2069 H 199.032 -0.659934 -0.146501 0
M  V30 2070 H 201.586 -2.04321 0.210267 0
M  V30 2071 H 199.816 -3.30185 -2.01282 0
M  V30 2072 H 201.505 -3.6488 -1.77813 0
M  V30 2073 H 202.271 -4.83308 0.404741 0
M  V30 2074 H 198.15 -4.54241 -0.786522 0
M  V30 2075 H 201.694 -6.71284 1.898 0
M  V30 2076 H 197.591 -6.41701 0.699309 0
M  V30 2077 H 198.359 -7.89595 2.15596 0
M  V30 2078 N 201.022 0.148545 -1.56898 0
M  V30 2079 C 202.262 0.86765 -1.85071 0
M  V30 2080 C 202.626 1.78417 -0.709317 0
M  V30 2081 O 203.827 2.54261 -0.872049 0
M  V30 2082 C 202.098 1.62306 -3.1842 0
M  V30 2083 S 203.657 2.3878 -3.68143 0
M  V30 2084 H 200.475 0.290174 -0.649092 0
M  V30 2085 H 203.077 0.127755 -1.95082 0
M  V30 2086 H 201.781 0.941192 -3.99462 0
M  V30 2087 H 201.312 2.4039 -3.1141 0
M  V30 2088 H 203.327 3.63942 -3.37285 0
M  V30 2089 N 202.5 1.5196 0.417844 0
M  V30 2090 C 203.746 1.65836 1.16732 0
M  V30 2091 C 204.079 0.382881 1.90388 0
M  V30 2092 O 203.354 -0.618368 1.84408 0
M  V30 2093 C 203.637 2.87466 2.16876 0
M  V30 2094 C 203.49 4.25041 1.47174 0
M  V30 2095 C 204.809 3.04613 3.17646 0
M  V30 2096 H 201.928 0.603515 0.423011 0
M  V30 2097 H 204.57 1.84494 0.454105 0
M  V30 2098 H 202.72 2.71689 2.777 0
M  V30 2099 H 204.392 4.52527 0.895376 0
M  V30 2100 H 202.635 4.26843 0.773806 0
M  V30 2101 H 203.306 5.06176 2.20204 0
M  V30 2102 H 205.782 3.1923 2.66892 0
M  V30 2103 H 204.658 3.91247 3.8499 0
M  V30 2104 H 204.919 2.17541 3.84874 0
M  V30 2105 N 203.978 -0.674533 1.42435 0
M  V30 2106 C 205.203 -1.46784 1.46524 0
M  V30 2107 C 205.628 -1.87938 0.078066 0
M  V30 2108 O 204.986 -1.56014 -0.92354 0
M  V30 2109 C 205.034 -2.69307 2.39805 0
M  V30 2110 O 204.138 -3.67587 1.86959 0
M  V30 2111 H 203.479 -0.440959 0.496439 0
M  V30 2112 H 206.009 -0.827326 1.87127 0
M  V30 2113 H 206.019 -3.17374 2.56393 0
M  V30 2114 H 204.694 -2.38692 3.40586 0
M  V30 2115 H 203.271 -3.2662 1.79927 0
M  V30 2116 N 205.456 -1.28612 -0.910864 0
M  V30 2117 C 206.386 -1.15326 -2.03032 0
M  V30 2118 C 207.367 -0.0502924 -1.70026 0
M  V30 2119 O 208.552 -0.227797 -1.92859 0
M  V30 2120 C 205.682 -0.817343 -3.37545 0
M  V30 2121 C 204.636 -1.8754 -3.84724 0
M  V30 2122 C 203.962 -1.39305 -5.16235 0
M  V30 2123 C 205.262 -3.28244 -4.06267 0
M  V30 2124 H 206.956 -2.08975 -2.14406 0
M  V30 2125 H 204.502 -1.00612 -1.03021 0
M  V30 2126 H 206.455 -0.711151 -4.15356 0
M  V30 2127 H 205.179 0.154846 -3.26233 0
M  V30 2128 H 203.838 -1.97079 -3.09121 0
M  V30 2129 H 203.486 -0.409846 -5.01328 0
M  V30 2130 H 203.186 -2.10057 -5.48771 0
M  V30 2131 H 204.71 -1.30014 -5.96598 0
M  V30 2132 H 206.124 -3.21611 -4.74594 0
M  V30 2133 H 204.521 -3.96855 -4.5014 0
M  V30 2134 H 205.591 -3.72048 -3.10979 0
M  V30 2135 N 206.934 1.1197 -1.10907 0
M  V30 2136 C 208.162 1.87402 -0.876824 0
M  V30 2137 C 208.577 1.79894 0.573025 0
M  V30 2138 O 207.934 1.17629 1.39534 0
M  V30 2139 C 207.985 3.36428 -1.32282 0
M  V30 2140 O 207.706 3.43765 -2.71582 0
M  V30 2141 C 209.207 4.28783 -1.12518 0
M  V30 2142 H 206.427 0.592793 -0.314384 0
M  V30 2143 H 208.971 1.41649 -1.47499 0
M  V30 2144 H 207.126 3.79706 -0.768229 0
M  V30 2145 H 207.54 4.3652 -2.90776 0
M  V30 2146 H 209.014 5.31613 -1.48633 0
M  V30 2147 H 209.491 4.39153 -0.0642394 0
M  V30 2148 H 210.097 3.91291 -1.66648 0
M  V30 2149 N 208.412 0.89855 1.29475 0
M  V30 2150 C 209.637 0.538561 2.00285 0
M  V30 2151 C 210.062 -0.869135 1.66816 0
M  V30 2152 O 209.42 -1.57831 0.892145 0
M  V30 2153 C 209.468 0.736475 3.52999 0
M  V30 2154 O 208.572 -0.211537 4.11857 0
M  V30 2155 H 207.913 0.210563 0.62973 0
M  V30 2156 H 210.443 1.20982 1.64998 0
M  V30 2157 H 210.453 0.640685 4.02938 0
M  V30 2158 H 209.128 1.76276 3.76696 0
M  V30 2159 H 207.705 -0.0682991 3.72837 0
M  V30 2160 N 209.89 -1.43072 0.660911 0
M  V30 2161 C 211.115 -2.06584 0.183805 0
M  V30 2162 C 211.54 -1.49257 -1.14472 0
M  V30 2163 O 210.898 -0.605528 -1.70889 0
M  V30 2164 C 210.946 -3.60418 0.114434 0
M  V30 2165 O 210.05 -4.01981 -0.921137 0
M  V30 2166 H 209.391 -0.656669 0.0983994 0
M  V30 2167 H 211.921 -1.83447 0.906006 0
M  V30 2168 H 211.931 -4.07946 -0.0663394 0
M  V30 2169 H 210.606 -4.01519 1.08422 0
M  V30 2170 H 209.183 -3.66029 -0.71253 0
M  V30 2171 N 211.368 -0.403325 -1.52352 0
M  V30 2172 C 212.596 0.174012 -2.06167 0
M  V30 2173 C 213.011 1.39347 -1.27388 0
M  V30 2174 O 212.368 1.79597 -0.324201 0
M  V30 2175 C 212.419 0.530223 -3.5759 0
M  V30 2176 O 212.14 -0.640806 -4.33388 0
M  V30 2177 C 213.641 1.16192 -4.27802 0
M  V30 2178 H 210.861 0.0229464 -0.670608 0
M  V30 2179 H 213.405 -0.572604 -1.9632 0
M  V30 2180 H 211.56 1.22673 -3.67464 0
M  V30 2181 H 211.974 -0.344851 -5.23365 0
M  V30 2182 H 213.448 1.36141 -5.34948 0
M  V30 2183 H 213.925 2.13335 -3.83907 0
M  V30 2184 H 214.531 0.505775 -4.22282 0
M  V30 2185 N 212.846 1.57033 -0.133567 0
M  V30 2186 C 214.094 1.953 0.519848 0
M  V30 2187 C 214.415 1.01866 1.66278 0
M  V30 2188 O 213.685 0.0776513 1.95746 0
M  V30 2189 H 212.265 0.721091 0.195032 0
M  V30 2190 H 214.927 1.93809 -0.205921 0
M  V30 2191 H 214.023 2.98695 0.904854 0
M  V30 2192 N 214.325 -0.140222 1.56975 0
M  V30 2193 C 215.572 -0.851687 1.83719 0
M  V30 2194 C 215.9 -1.80862 0.715485 0
M  V30 2195 O 215.155 -1.93464 -0.294956 0
M  V30 2196 C 215.454 -1.65386 3.16832 0
M  V30 2197 C 215.12 -0.843112 4.42947 0
M  V30 2198 C 213.782 -0.619464 4.77196 0
M  V30 2199 C 216.134 -0.276582 5.20466 0
M  V30 2200 C 213.462 0.181312 5.8642 0
M  V30 2201 C 215.814 0.51127 6.30531 0
M  V30 2202 C 214.478 0.745432 6.63325 0
M  V30 2203 H 213.748 -0.311654 0.672274 0
M  V30 2204 H 216.395 -0.115006 1.91154 0
M  V30 2205 H 214.7 -2.46084 3.04877 0
M  V30 2206 H 216.397 -2.20793 3.34741 0
M  V30 2207 H 212.987 -1.0275 4.16101 0
M  V30 2208 H 217.171 -0.436632 4.94376 0
M  V30 2209 H 212.427 0.372165 6.10266 0
M  V30 2210 H 216.601 0.957354 6.89788 0
M  V30 2211 H 214.228 1.36778 7.47794 0
M  V30 2212 N 215.803 -1.52179 -0.40978 0
M  V30 2213 C 216.735 -1.71703 -1.51825 0
M  V30 2214 C 217.748 -0.597445 -1.51441 0
M  V30 2215 O 218.937 -0.872582 -1.55719 0
M  V30 2216 C 216.037 -1.74171 -2.90719 0
M  V30 2217 C 215.21 -3.03156 -3.15302 0
M  V30 2218 C 214.269 -2.97445 -4.34065 0
M  V30 2219 O 213.295 -3.71352 -4.31377 0
M  V30 2220 N 214.497 -2.15191 -5.39141 0
M  V30 2221 H 217.262 -2.67334 -1.35472 0
M  V30 2222 H 214.823 -1.50409 -0.599069 0
M  V30 2223 H 216.815 -1.67884 -3.68235 0
M  V30 2224 H 215.385 -0.860166 -3.00533 0
M  V30 2225 H 214.605 -3.23097 -2.25836 0
M  V30 2226 H 215.893 -3.88484 -3.28569 0
M  V30 2227 H 215.291 -1.54573 -5.44173 0
M  V30 2228 H 213.848 -2.1476 -6.15403 0
M  V30 2229 N 217.281 0.66697 -1.42791 0
M  V30 2230 C 218.228 1.7803 -1.4688 0
M  V30 2231 C 219.198 1.6299 -0.319919 0
M  V30 2232 O 220.383 1.83432 -0.525118 0
M  V30 2233 C 217.523 3.1611 -1.38451 0
M  V30 2234 C 216.636 3.42381 -2.63437 0
M  V30 2235 C 215.771 4.70232 -2.47094 0
M  V30 2236 C 214.81 4.89564 -3.67415 0
M  V30 2237 N 213.947 6.08661 -3.49966 0
M  V30 2238 H 218.787 1.7387 -2.42019 0
M  V30 2239 H 216.324 0.84868 -1.20149 0
M  V30 2240 H 218.282 3.95914 -1.31561 0
M  V30 2241 H 216.912 3.19374 -0.469033 0
M  V30 2242 H 215.964 2.56774 -2.80662 0
M  V30 2243 H 217.276 3.52557 -3.52853 0
M  V30 2244 H 216.43 5.5814 -2.37834 0
M  V30 2245 H 215.169 4.62353 -1.5518 0
M  V30 2246 H 214.174 4.00096 -3.77099 0
M  V30 2247 H 215.399 4.99282 -4.6032 0
M  V30 2248 H 213.345 6.0194 -2.60776 0
M  V30 2249 H 213.262 6.19733 -4.32975 0
M  V30 2250 H 214.53 6.99226 -3.44532 0
M  V30 2251 N 218.759 1.29093 0.90403 0
M  V30 2252 C 220.005 1.17996 1.65676 0
M  V30 2253 C 220.36 -0.266816 1.90541 0
M  V30 2254 O 219.653 -1.19 1.50165 0
M  V30 2255 C 219.847 1.92224 3.01305 0
M  V30 2256 C 219.676 3.43972 2.89678 0
M  V30 2257 C 218.446 4.1332 2.90679 0
M  V30 2258 C 220.644 4.39546 2.67028 0
M  V30 2259 N 218.626 5.51463 2.69743 0
M  V30 2260 C 219.997 5.65119 2.5503 0
M  V30 2261 C 222.052 4.29359 2.52101 0
M  V30 2262 C 220.755 6.81663 2.29626 0
M  V30 2263 C 222.781 5.4565 2.28079 0
M  V30 2264 C 222.143 6.70193 2.16843 0
M  V30 2265 H 218.242 0.486759 0.612037 0
M  V30 2266 H 220.826 1.62868 1.06688 0
M  V30 2267 H 218.997 1.49773 3.58361 0
M  V30 2268 H 220.729 1.73429 3.65656 0
M  V30 2269 H 217.484 3.64984 3.01801 0
M  V30 2270 H 217.908 6.24105 2.6234 0
M  V30 2271 H 222.55 3.33769 2.59534 0
M  V30 2272 H 220.268 7.77313 2.20932 0
M  V30 2273 H 223.854 5.39664 2.1738 0
M  V30 2274 H 222.734 7.58659 1.98511 0
M  V30 2275 N 220.237 -1.11381 1.11499 0
M  V30 2276 C 221.184 -2.17439 0.773887 0
M  V30 2277 C 222.154 -1.64132 -0.254899 0
M  V30 2278 O 223.339 -1.90345 -0.13168 0
M  V30 2279 C 220.479 -3.44373 0.223917 0
M  V30 2280 C 219.592 -4.1168 1.30934 0
M  V30 2281 C 218.727 -5.263 0.71984 0
M  V30 2282 C 217.766 -5.85493 1.78507 0
M  V30 2283 N 216.903 -6.91507 1.21502 0
M  V30 2284 H 221.743 -2.45962 1.68246 0
M  V30 2285 H 219.28 -1.20744 0.840191 0
M  V30 2286 H 221.238 -4.17047 -0.112921 0
M  V30 2287 H 219.868 -3.16232 -0.647851 0
M  V30 2288 H 218.92 -3.37073 1.76312 0
M  V30 2289 H 220.232 -4.51729 2.11524 0
M  V30 2290 H 219.386 -6.05785 0.333094 0
M  V30 2291 H 218.125 -4.87559 -0.117377 0
M  V30 2292 H 217.13 -5.04686 2.18111 0
M  V30 2293 H 218.355 -6.26301 2.62533 0
M  V30 2294 H 216.301 -6.54783 0.399455 0
M  V30 2295 H 216.218 -7.30214 1.95763 0
M  V30 2296 H 217.486 -7.74795 0.855181 0
M  V30 2297 N 221.715 -0.905404 -1.28997 0
M  V30 2298 C 222.992 -0.453513 -1.9027 0
M  V30 2299 C 223.372 1.06721 -1.82137 0
M  V30 2300 O 222.72 1.91159 -1.25182 0
M  V30 2301 C 222.93 -0.974494 -3.35119 0
M  V30 2302 C 224.278 -1.0216 -4.12127 0
M  V30 2303 O 225.302 -0.922557 -3.44046 0
M  V30 2304 O 224.161 -1.17121 -5.33802 0
M  V30 2305 H 221.255 -0.142347 -0.814657 0
M  V30 2306 H 223.801 -0.995642 -1.37423 0
M  V30 2307 H 222.573 -2.01848 -3.35221 0
M  V30 2308 H 222.196 -0.412706 -3.95452 0
M  V30 2309 N 223.193 1.4272 -0.668489 0
M  V30 2310 C 224.439 2.01923 -0.188419 0
M  V30 2311 C 224.772 1.52704 1.19979 0
M  V30 2312 O 224.047 0.726566 1.8042 0
M  V30 2313 C 224.33 3.59451 -0.216085 0
M  V30 2314 C 224.183 4.18864 -1.6393 0
M  V30 2315 C 225.502 4.37903 0.439179 0
M  V30 2316 H 222.621 0.733674 -0.0699412 0
M  V30 2317 H 225.263 1.69822 -0.852076 0
M  V30 2318 H 223.413 3.86929 0.349012 0
M  V30 2319 H 225.085 4.02362 -2.25616 0
M  V30 2320 H 223.328 3.74933 -2.18193 0
M  V30 2321 H 223.999 5.27987 -1.61039 0
M  V30 2322 H 226.475 4.16079 -0.0417878 0
M  V30 2323 H 225.351 5.47519 0.389157 0
M  V30 2324 H 225.612 4.15303 1.51577 0
M  V30 2325 N 224.671 0.411399 1.52136 0
M  V30 2326 C 226.082 -0.0576826 1.86611 0
M  V30 2327 C 226.433 -1.44238 1.33003 0
M  V30 2328 O 225.558 -2.05759 0.670228 0
M  V30 2329 C 226.153 -0.111448 3.38617 0
M  V30 2330 C 224.712 -0.52487 3.72723 0
M  V30 2331 C 223.859 0.299176 2.75681 0
M  V30 2332 H 226.81 0.628368 1.4573 0
M  V30 2333 H 226.831 -0.926252 3.69054 0
M  V30 2334 H 226.343 0.896488 3.77604 0
M  V30 2335 H 224.444 -1.53936 3.39315 0
M  V30 2336 H 224.557 -0.267681 4.78352 0
M  V30 2337 H 222.921 -0.238814 2.53578 0
M  V30 2338 H 223.704 1.3055 3.17508 0
M  V30 2339 N 226.149 -1.5696 0.141893 0
M  V30 2340 C 227.389 -1.9785 -0.513304 0
M  V30 2341 C 227.753 -1.02467 -1.62371 0
M  V30 2342 O 228.954 -1.32382 -2.33941 0
M  V30 2343 C 227.225 -3.42797 -1.01118 0
M  V30 2344 S 228.784 -4.05709 -1.67169 0
M  V30 2345 H 225.602 -0.691318 -0.166135 0
M  V30 2346 H 228.204 -1.94114 0.232398 0
M  V30 2347 H 226.908 -4.0995 -0.192179 0
M  V30 2348 H 226.439 -3.50235 -1.79162 0
M  V30 2349 H 228.454 -3.98342 -2.95868 0
M  V30 2350 N 227.627 0.131896 -1.57047 0
M  V30 2351 C 228.537 1.1815 -2.02676 0
M  V30 2352 C 229.553 1.46113 -0.944824 0
M  V30 2353 O 230.729 1.57485 -1.25541 0
M  V30 2354 C 227.794 2.49139 -2.41103 0
M  V30 2355 C 226.855 2.28688 -3.63318 0
M  V30 2356 C 226.088 3.53431 -3.99903 0
M  V30 2357 O 226.311 4.60223 -3.36973 0
M  V30 2358 O 225.245 3.45198 -4.93074 0
M  V30 2359 H 229.071 0.824069 -2.92306 0
M  V30 2360 H 226.656 0.341745 -1.45439 0
M  V30 2361 H 228.538 3.26338 -2.66611 0
M  V30 2362 H 227.213 2.84382 -1.54624 0
M  V30 2363 H 226.12 1.4939 -3.42977 0
M  V30 2364 H 227.453 1.98355 -4.50462 0
M  V30 2365 N 229.106 1.52395 0.401703 0
M  V30 2366 C 230.383 1.57387 1.16141 0
M  V30 2367 C 230.763 0.359359 2.08019 0
M  V30 2368 O 230.111 -0.65326 2.18963 0
M  V30 2369 C 230.321 2.90631 1.93221 0
M  V30 2370 C 231.669 3.43904 2.49028 0
M  V30 2371 O 232.693 2.92421 2.03393 0
M  V30 2372 O 231.552 4.33823 3.32356 0
M  V30 2373 H 228.646 0.634262 0.530698 0
M  V30 2374 H 231.192 1.64725 0.407883 0
M  V30 2375 H 229.964 3.70473 1.25958 0
M  V30 2376 H 229.587 2.8662 2.75563 0
M  V30 2377 N 230.584 -0.659388 1.43143 0
M  V30 2378 C 231.531 -1.77249 1.47822 0
M  V30 2379 C 232.501 -1.62818 0.328558 0
M  V30 2380 O 233.686 -1.83151 0.534838 0
M  V30 2381 C 230.826 -3.15371 1.40126 0
M  V30 2382 C 229.939 -3.4098 2.65249 0
M  V30 2383 C 229.074 -4.68915 2.49584 0
M  V30 2384 C 228.113 -4.87608 3.70006 0
M  V30 2385 N 227.25 -6.06796 3.53189 0
M  V30 2386 H 232.09 -1.72584 2.42938 0
M  V30 2387 H 229.627 -0.842297 1.20598 0
M  V30 2388 H 231.585 -3.9521 1.33659 0
M  V30 2389 H 230.215 -3.19121 0.485964 0
M  V30 2390 H 229.267 -2.55282 2.8202 0
M  V30 2391 H 230.579 -3.50681 3.54717 0
M  V30 2392 H 229.733 -5.56871 2.4079 0
M  V30 2393 H 228.472 -4.61524 1.5763 0
M  V30 2394 H 227.477 -3.9809 3.79215 0
M  V30 2395 H 228.702 -4.96834 4.62961 0
M  V30 2396 H 226.648 -6.00549 2.63965 0
M  V30 2397 H 226.565 -6.17428 4.36255 0
M  V30 2398 H 227.833 -6.9739 3.48236 0
M  V30 2399 N 232.062 -1.29571 -0.897171 0
M  V30 2400 C 233.309 -1.17689 -1.6479 0
M  V30 2401 C 233.637 0.27107 -1.92602 0
M  V30 2402 O 232.892 1.21193 -1.53658 0
M  V30 2403 C 233.191 -1.9382 -3.00281 0
M  V30 2404 C 232.857 -3.43522 -2.92068 0
M  V30 2405 C 231.519 -3.84348 -2.89535 0
M  V30 2406 C 233.871 -4.38906 -2.81089 0
M  V30 2407 C 231.199 -5.18869 -2.73846 0
M  V30 2408 C 233.551 -5.73521 -2.66939 0
M  V30 2409 C 232.215 -6.13601 -2.62774 0
M  V30 2410 H 231.485 -0.430654 -0.603008 0
M  V30 2411 H 234.132 -1.60536 -1.04404 0
M  V30 2412 H 232.437 -1.4357 -3.64547 0
M  V30 2413 H 234.134 -1.82028 -3.57305 0
M  V30 2414 H 230.724 -3.11072 -2.94842 0
M  V30 2415 H 234.908 -4.08315 -2.82121 0
M  V30 2416 H 230.164 -5.4903 -2.69027 0
M  V30 2417 H 234.338 -6.47078 -2.57416 0
M  V30 2418 H 231.965 -7.17786 -2.50375 0
M  V30 2419 N 233.54 1.10788 -1.12088 0
M  V30 2420 C 234.765 1.87002 -0.896949 0
M  V30 2421 C 235.19 1.79933 0.548261 0
M  V30 2422 O 234.548 1.16662 1.38779 0
M  V30 2423 C 234.596 3.3349 -1.37174 0
M  V30 2424 O 233.7 4.08745 -0.547831 0
M  V30 2425 H 233.041 0.580397 -0.322545 0
M  V30 2426 H 235.571 1.39996 -1.49206 0
M  V30 2427 H 235.581 3.84339 -1.36922 0
M  V30 2428 H 234.256 3.37951 -2.42408 0
M  V30 2429 H 232.833 3.6776 -0.617034 0
M  V30 2430 N 235.018 0.912232 1.28515 0
M  V30 2431 C 236.265 0.544599 1.95039 0
M  V30 2432 C 236.593 -0.911435 1.71823 0
M  V30 2433 O 235.848 -1.66317 1.03137 0
M  V30 2434 C 236.147 0.798392 3.48368 0
M  V30 2435 C 235.813 2.23374 3.91682 0
M  V30 2436 C 234.475 2.62617 4.03219 0
M  V30 2437 C 236.827 3.16786 4.13879 0
M  V30 2438 C 234.155 3.94429 4.3433 0
M  V30 2439 C 236.507 4.48161 4.46469 0
M  V30 2440 C 235.171 4.8726 4.56217 0
M  V30 2441 H 234.441 0.199283 0.7137 0
M  V30 2442 H 237.088 1.15327 1.52879 0
M  V30 2443 H 235.393 0.106908 3.91654 0
M  V30 2444 H 237.09 0.493141 3.97956 0
M  V30 2445 H 233.68 1.91922 3.83228 0
M  V30 2446 H 237.864 2.87677 4.0442 0
M  V30 2447 H 233.12 4.24426 4.40082 0
M  V30 2448 H 237.294 5.20559 4.62592 0
M  V30 2449 H 234.921 5.89431 4.80078 0
M  V30 2450 N 236.496 -1.42363 0.676048 0
M  V30 2451 C 237.742 -2.0182 0.199125 0
M  V30 2452 C 238.075 -1.53339 -1.19168 0
M  V30 2453 O 237.35 -0.736124 -1.80032 0
M  V30 2454 C 237.633 -3.59331 0.235144 0
M  V30 2455 C 237.486 -4.17989 1.66149 0
M  V30 2456 C 238.805 -4.3813 -0.41595 0
M  V30 2457 H 235.924 -0.733293 0.0738311 0
M  V30 2458 H 238.566 -1.69368 0.86107 0
M  V30 2459 H 236.716 -3.87109 -0.328487 0
M  V30 2460 H 238.388 -4.0116 2.27747 0
M  V30 2461 H 236.631 -3.7377 2.20178 0
M  V30 2462 H 237.302 -5.27126 1.63837 0
M  V30 2463 H 239.778 -4.16051 0.0638529 0
M  V30 2464 H 238.654 -5.47717 -0.360115 0
M  V30 2465 H 238.915 -4.16101 -1.49373 0
M  V30 2466 N 237.974 -0.419461 -1.51915 0
M  V30 2467 C 239.214 0.152336 -2.03832 0
M  V30 2468 C 239.578 1.41501 -1.29775 0
M  V30 2469 O 240.779 2.06591 -1.7197 0
M  V30 2470 C 239.05 0.383812 -3.55333 0
M  V30 2471 S 240.609 0.921577 -4.29013 0
M  V30 2472 H 237.427 0.0402193 -0.709862 0
M  V30 2473 H 240.029 -0.574758 -1.8686 0
M  V30 2474 H 238.733 -0.541794 -4.06808 0
M  V30 2475 H 238.264 1.13849 -3.76566 0
M  V30 2476 H 240.279 2.20108 -4.4471 0
M  V30 2477 N 239.452 1.56882 -0.150215 0
M  V30 2478 C 240.399 2.16922 0.788244 0
M  V30 2479 C 241.369 1.10303 1.24187 0
M  V30 2480 O 242.554 1.38359 1.31383 0
M  V30 2481 C 239.694 2.79754 2.02068 0
M  V30 2482 C 238.807 4.00775 1.61257 0
M  V30 2483 C 237.942 4.51595 2.79705 0
M  V30 2484 C 236.981 5.65074 2.35282 0
M  V30 2485 N 236.118 6.10499 3.4675 0
M  V30 2486 H 240.958 2.96779 0.269444 0
M  V30 2487 H 238.495 1.46599 0.12128 0
M  V30 2488 H 240.453 3.14329 2.74323 0
M  V30 2489 H 239.083 2.02536 2.51354 0
M  V30 2490 H 238.135 3.72158 0.787553 0
M  V30 2491 H 239.447 4.82978 1.24633 0
M  V30 2492 H 238.601 4.88242 3.60145 0
M  V30 2493 H 237.34 3.68406 3.19576 0
M  V30 2494 H 236.345 5.28 1.53283 0
M  V30 2495 H 237.57 6.50052 1.96493 0
M  V30 2496 H 235.516 5.30243 3.86236 0
M  V30 2497 H 235.433 6.87637 3.14152 0
M  V30 2498 H 236.701 6.51791 4.27537 0
M  V30 2499 N 240.93 -0.123565 1.57115 0
M  V30 2500 C 242.177 -0.832153 1.84612 0
M  V30 2501 C 242.505 -1.80093 0.734627 0
M  V30 2502 O 241.76 -1.93766 -0.27442 0
M  V30 2503 C 242.059 -1.62016 3.18568 0
M  V30 2504 C 241.725 -0.796084 4.43817 0
M  V30 2505 C 240.387 -0.568816 4.77826 0
M  V30 2506 C 242.739 -0.221364 5.2073 0
M  V30 2507 C 240.067 0.243499 5.86194 0
M  V30 2508 C 242.419 0.578117 6.29953 0
M  V30 2509 C 241.083 0.815744 6.62497 0
M  V30 2510 H 240.353 -0.304507 0.675542 0
M  V30 2511 H 243 -0.0947248 1.91266 0
M  V30 2512 H 241.305 -2.42837 3.0747 0
M  V30 2513 H 243.002 -2.17231 3.37064 0
M  V30 2514 H 239.592 -0.983307 4.17168 0
M  V30 2515 H 243.776 -0.384173 4.94811 0
M  V30 2516 H 239.032 0.436871 6.09837 0
M  V30 2517 H 243.206 1.03046 6.88734 0
M  V30 2518 H 240.833 1.44701 7.46301 0
M  V30 2519 N 242.408 -1.52605 -0.393616 0
M  V30 2520 C 243.355 -1.77055 -1.48054 0
M  V30 2521 C 244.325 -0.61358 -1.54352 0
M  V30 2522 O 245.51 -0.852806 -1.70681 0
M  V30 2523 C 242.65 -1.94108 -2.85335 0
M  V30 2524 C 241.763 -3.21792 -2.88226 0
M  V30 2525 C 240.898 -3.29188 -4.16904 0
M  V30 2526 C 239.937 -4.51013 -4.13828 0
M  V30 2527 N 239.074 -4.55716 -5.34105 0
M  V30 2528 H 243.914 -2.69815 -1.26506 0
M  V30 2529 H 241.451 -1.33683 -0.61379 0
M  V30 2530 H 243.409 -2.01979 -3.65049 0
M  V30 2531 H 242.039 -1.04713 -3.05344 0
M  V30 2532 H 241.091 -3.23015 -2.00911 0
M  V30 2533 H 242.403 -4.11557 -2.8182 0
M  V30 2534 H 241.557 -3.36216 -5.05018 0
M  V30 2535 H 240.296 -2.37389 -4.26026 0
M  V30 2536 H 239.301 -4.44115 -3.24102 0
M  V30 2537 H 240.526 -5.44123 -4.06333 0
M  V30 2538 H 238.472 -3.66807 -5.43865 0
M  V30 2539 H 238.389 -5.39346 -5.29756 0
M  V30 2540 H 239.657 -4.66993 -6.2413 0
M  V30 2541 N 243.887 0.651787 -1.4349 0
M  V30 2542 C 244.835 1.78586 -1.49029 0
M  V30 2543 C 245.829 1.65448 -0.363767 0
M  V30 2544 O 247.035 1.71777 -0.537821 0
M  V30 2545 H 243.41 0.589236 -0.467231 0
M  V30 2546 H 245.381 1.71035 -2.44519 0
M  V30 2547 C 244.13 3.16851 -1.43181 0
M  V30 2548 H 243.453 3.27598 -2.29171 0
M  V30 2549 H 244.893 3.96156 -1.51118 0
M  V30 2550 C 243.352 3.36568 -0.149616 0
M  V30 2551 O 243.882 3.93885 0.788509 0
M  V30 2552 N 242.088 2.90539 -0.0593484 0
M  V30 2553 H 241.635 2.4408 -0.823575 0
M  V30 2554 H 241.593 3.04108 0.797853 0
M  V30 2555 O 245.404 1.40586 0.794848 0
M  V30 2556 H 246.095 1.29493 1.44053 0
M  V30 END ATOM
M  V30 BEGIN BOND
M  V30 END BOND
M  V30 END CTAB
M  END
$$$$
