drugbank_target|P05543 Thyroxine-binding globulin (DB09130)
 OpenBabel12092119343D

  0  0  0     0  0            999 V3000
M  V30 BEGIN CTAB
M  V30 COUNTS 6527 6598 0 0 0
M  V30 BEGIN ATOM
M  V30 1 H -0.908 1.98254 -0.117106 0
M  V30 2 N 0 1.576 0 0
M  V30 3 C 0.933 2.03868 1.02534 0
M  V30 4 C 1.911 0.928543 1.3348 0
M  V30 5 O 3.095 1.19667 1.45644 0
M  V30 6 C 0.222 2.43627 2.35294 0
M  V30 7 C -0.732 3.65373 2.2001 0
M  V30 8 S 0.101 5.13292 1.52614 0
M  V30 9 C 1.257 5.56322 2.86805 0
M  V30 10 H 1.49 2.90518 0.631377 0
M  V30 11 H -0.977 1.52953 0.210867 0
M  V30 12 H 0.981 2.67203 3.11629 0
M  V30 13 H -0.358 1.57376 2.7183 0
M  V30 14 H -1.165 3.90944 3.18086 0
M  V30 15 H -1.563 3.418 1.51819 0
M  V30 16 H 0.729 5.58782 3.83104 0
M  V30 17 H 1.672 6.56266 2.65933 0
M  V30 18 H 2.08 4.83886 2.90714 0
M  V30 19 N 1.4781 -0.272755 1.55222 0
M  V30 20 C 2.7031 -1.02683 1.80197 0
M  V30 21 C 3.1281 -1.79142 0.573551 0
M  V30 22 O 2.4861 -1.74917 -0.476849 0
M  V30 23 C 2.5341 -1.9609 3.02624 0
M  V30 24 O 1.6381 -3.04863 2.77727 0
M  V30 25 H 0.9791 -0.293557 0.595584 0
M  V30 26 H 3.5091 -0.30159 2.02365 0
M  V30 27 H 3.5191 -2.38039 3.31363 0
M  V30 28 H 2.1941 -1.39851 3.91682 0
M  V30 29 H 0.7711 -2.67228 2.60084 0
M  V30 30 N 2.9562 -1.48159 -0.537278 0
M  V30 31 C 4.3672 -1.49429 -1.11928 0
M  V30 32 C 4.7182 -0.26 -1.9447 0
M  V30 33 O 3.8432 0.633489 -2.0692 0
M  V30 34 C 4.4382 -2.70758 -2.03656 0
M  V30 35 C 2.9972 -2.74923 -2.57088 0
M  V30 36 C 2.1442 -2.42835 -1.3389 0
M  V30 37 H 5.0952 -1.55381 -0.322886 0
M  V30 38 H 5.1162 -2.48861 -2.87834 0
M  V30 39 H 4.6282 -3.60575 -1.43553 0
M  V30 40 H 2.7292 -1.89296 -3.20933 0
M  V30 41 H 2.8422 -3.76157 -2.9672 0
M  V30 42 H 1.2062 -1.93836 -1.65226 0
M  V30 43 H 1.9892 -3.34884 -0.755504 0
M  V30 44 N 4.4343 0.785586 -1.36625 0
M  V30 45 C 5.6813 1.54362 -1.31067 0
M  V30 46 C 6.0093 1.94195 0.10893 0
M  V30 47 O 5.2643 1.63262 1.07908 0
M  V30 48 C 5.5633 2.83007 -2.1827 0
M  V30 49 C 5.2293 2.62294 -3.6676 0
M  V30 50 C 3.8913 2.56353 -4.0723 0
M  V30 51 C 6.2433 2.43371 -4.6089 0
M  V30 52 C 3.5713 2.29461 -5.39967 0
M  V30 53 C 5.9233 2.18005 -5.93849 0
M  V30 54 C 4.5873 2.105 -6.3344 0
M  V30 55 H 3.8573 0.564851 -0.479609 0
M  V30 56 H 6.5043 0.906028 -1.68711 0
M  V30 57 H 4.8093 3.51253 -1.73576 0
M  V30 58 H 6.5063 3.40817 -2.11292 0
M  V30 59 H 3.0963 2.67774 -3.34656 0
M  V30 60 H 7.2803 2.46959 -4.30494 0
M  V30 61 H 2.5363 2.22135 -5.69619 0
M  V30 62 H 6.7103 2.02359 -6.66351 0
M  V30 63 H 4.3373 1.89425 -7.36222 0
M  V30 64 N 5.9124 1.20967 1.01018 0
M  V30 65 C 6.8424 0.988272 2.11555 0
M  V30 66 C 7.8234 -0.0849778 1.69888 0
M  V30 67 O 9.0084 0.0738202 1.9406 0
M  V30 68 C 6.1384 0.546528 3.42973 0
M  V30 69 C 5.0924 1.56375 3.9841 0
M  V30 70 C 4.4184 0.97842 5.25672 0
M  V30 71 C 5.7184 2.94922 4.31066 0
M  V30 72 H 7.4124 1.91276 2.30334 0
M  V30 73 H 4.9584 0.921073 1.1069 0
M  V30 74 H 6.9114 0.378839 4.19694 0
M  V30 75 H 5.6354 -0.413598 3.23971 0
M  V30 76 H 4.2944 1.71891 3.23804 0
M  V30 77 H 3.9424 0.0101688 5.02999 0
M  V30 78 H 3.6424 1.65784 5.63728 0
M  V30 79 H 5.1664 0.821939 6.05043 0
M  V30 80 H 6.5804 2.8288 4.9865 0
M  V30 81 H 4.9774 3.5983 4.80253 0
M  V30 82 H 6.0474 3.4616 3.39561 0
M  V30 83 N 7.3905 -1.2043 1.01659 0
M  V30 84 C 8.6205 -1.93496 0.724081 0
M  V30 85 C 9.0285 -1.74998 -0.71918 0
M  V30 86 O 8.3715 -1.06118 -1.49949 0
M  V30 87 C 8.4335 -3.45886 0.97994 0
M  V30 88 C 8.0975 -3.88145 2.41232 0
M  V30 89 C 9.0945 -3.93907 3.39313 0
M  V30 90 C 6.7795 -4.20134 2.75305 0
M  V30 91 C 8.7735 -4.31069 4.6953 0
M  V30 92 C 6.4605 -4.56971 4.05735 0
M  V30 93 C 7.4585 -4.62411 5.02658 0
M  V30 94 O 7.1465 -4.98403 6.30754 0
M  V30 95 H 6.8785 -0.621824 0.265162 0
M  V30 96 H 9.4325 -1.53867 1.36066 0
M  V30 97 H 7.6625 -3.85639 0.286198 0
M  V30 98 H 9.3515 -4.0018 0.679021 0
M  V30 99 H 10.1175 -3.69357 3.14325 0
M  V30 100 H 5.9965 -4.1509 2.00551 0
M  V30 101 H 9.5405 -4.3523 5.45179 0
M  V30 102 H 5.4375 -4.80977 4.30502 0
M  V30 103 H 6.2055 -5.16395 6.35042 0
M  V30 104 N 8.8686 -0.792821 -1.36206 0
M  V30 105 C 9.7986 -0.207853 -2.32573 0
M  V30 106 C 10.7796 0.659055 -1.56813 0
M  V30 107 O 11.9646 0.592176 -1.84951 0
M  V30 108 C 9.0946 0.655449 -3.41059 0
M  V30 109 C 8.0486 -0.111842 -4.27854 0
M  V30 110 C 7.3746 0.872274 -5.27537 0
M  V30 111 C 8.6746 -1.30299 -5.05786 0
M  V30 112 H 10.3686 -1.01294 -2.81744 0
M  V30 113 H 7.9146 -0.48854 -1.3546 0
M  V30 114 H 9.8676 1.07464 -4.07467 0
M  V30 115 H 8.5916 1.49328 -2.90463 0
M  V30 116 H 7.2506 -0.512053 -3.63006 0
M  V30 117 H 6.8986 1.70523 -4.73214 0
M  V30 118 H 6.5986 0.363291 -5.86476 0
M  V30 119 H 8.1226 1.28996 -5.96818 0
M  V30 120 H 9.5366 -0.959379 -5.65216 0
M  V30 121 H 7.9336 -1.7455 -5.74154 0
M  V30 122 H 9.0036 -2.09663 -4.37229 0
M  V30 123 N 10.3467 1.47872 -0.545128 0
M  V30 124 C 11.5927 2.02793 -0.0166104 0
M  V30 125 C 11.9257 1.41987 1.32489 0
M  V30 126 O 11.2007 0.571045 1.85928 0
M  V30 127 C 11.4837 3.59989 0.0893294 0
M  V30 128 C 11.3367 4.3125 -1.27841 0
M  V30 129 C 12.6557 4.32606 0.808724 0
M  V30 130 H 9.7747 0.736962 -0.00751035 0
M  V30 131 H 12.4167 1.76433 -0.705085 0
M  V30 132 H 10.5667 3.82579 0.675681 0
M  V30 133 H 12.2387 4.20035 -1.90704 0
M  V30 134 H 10.4817 3.92076 -1.85632 0
M  V30 135 H 11.1527 5.39736 -1.15713 0
M  V30 136 H 13.6287 4.14936 0.310992 0
M  V30 137 H 12.5047 5.42251 0.851782 0
M  V30 138 H 12.7657 4.00963 1.86229 0
M  V30 139 N 11.8248 0.280983 1.55075 0
M  V30 140 C 12.7548 -0.597469 2.25727 0
M  V30 141 C 13.7358 -1.15417 1.24952 0
M  V30 142 O 14.9208 -1.18722 1.53684 0
M  V30 143 C 12.0508 -1.7789 2.98283 0
M  V30 144 C 11.0048 -1.35347 4.06036 0
M  V30 145 C 10.3308 -2.61846 4.66198 0
M  V30 146 C 11.6308 -0.499354 5.19907 0
M  V30 147 H 13.3248 -0.00824265 2.99399 0
M  V30 148 H 10.8708 -0.0025244 1.44 0
M  V30 149 H 12.8238 -2.39937 3.46422 0
M  V30 150 H 11.5478 -2.39405 2.22155 0
M  V30 151 H 10.2068 -0.756156 3.58717 0
M  V30 152 H 9.8548 -3.21632 3.86732 0
M  V30 153 H 9.5548 -2.3409 5.38958 0
M  V30 154 H 11.0788 -3.24732 5.1709 0
M  V30 155 H 12.4928 -1.02498 5.64063 0
M  V30 156 H 10.8898 -0.316424 5.99265 0
M  V30 157 H 11.9598 0.480459 4.82514 0
M  V30 158 N 13.3029 -1.57598 0.00835791 0
M  V30 159 C 14.2329 -2.1198 -0.979113 0
M  V30 160 C 15.2139 -1.03091 -1.35301 0
M  V30 161 O 16.3989 -1.30818 -1.43528 0
M  V30 162 C 13.5289 -2.62995 -2.26828 0
M  V30 163 C 12.4829 -3.76485 -2.03576 0
M  V30 164 C 11.8089 -4.13846 -3.38579 0
M  V30 165 C 13.1089 -5.0342 -1.39161 0
M  V30 166 H 14.8029 -2.94738 -0.526281 0
M  V30 167 H 12.3489 -1.41783 -0.251704 0
M  V30 168 H 14.3019 -2.99669 -2.96271 0
M  V30 169 H 13.0259 -1.7737 -2.7424 0
M  V30 170 H 11.6849 -3.40217 -1.36557 0
M  V30 171 H 11.3329 -3.25232 -3.83709 0
M  V30 172 H 11.0329 -4.90312 -3.23834 0
M  V30 173 H 12.5569 -4.53086 -4.09323 0
M  V30 174 H 13.9709 -5.37812 -1.98573 0
M  V30 175 H 12.3679 -5.84746 -1.34878 0
M  V30 176 H 13.4379 -4.83548 -0.361868 0
M  V30 177 N 14.781 0.264519 -1.55364 0
M  V30 178 C 16.027 0.99646 -1.76631 0
M  V30 179 C 16.36 1.85632 -0.570478 0
M  V30 180 O 15.635 1.89647 0.43175 0
M  V30 181 C 15.918 1.87187 -3.07625 0
M  V30 182 C 15.771 1.04138 -4.37579 0
M  V30 183 C 17.09 2.85749 -3.34717 0
M  V30 184 H 14.209 0.360841 -0.642622 0
M  V30 185 H 16.851 0.268218 -1.88097 0
M  V30 186 H 15.001 2.49279 -2.9798 0
M  V30 187 H 16.673 0.440517 -4.59192 0
M  V30 188 H 14.916 0.345115 -4.32425 0
M  V30 189 H 15.587 1.68729 -5.2558 0
M  V30 190 H 18.063 2.33793 -3.4421 0
M  V30 191 H 16.939 3.44136 -4.27623 0
M  V30 192 H 17.2 3.61311 -2.54768 0
M  V30 193 N 16.2591 1.48442 0.529413 0
M  V30 194 C 17.1891 1.65902 1.64313 0
M  V30 195 C 18.1701 0.507897 1.6234 0
M  V30 196 O 19.3551 0.740503 1.79528 0
M  V30 197 C 16.4851 1.69911 3.02898 0
M  V30 198 C 15.4391 2.8453 3.19729 0
M  V30 199 C 14.7651 2.73629 4.59381 0
M  V30 200 C 16.0651 4.25821 3.02447 0
M  V30 201 H 17.7591 2.5914 1.49955 0
M  V30 202 H 15.3051 1.24709 0.719982 0
M  V30 203 H 17.2581 1.80715 3.80684 0
M  V30 204 H 15.9821 0.732524 3.18279 0
M  V30 205 H 14.6411 2.73283 2.44361 0
M  V30 206 H 14.2891 1.74938 4.71599 0
M  V30 207 H 13.9891 3.50541 4.71588 0
M  V30 208 H 15.5131 2.86401 5.39265 0
M  V30 209 H 16.9271 4.37898 3.70024 0
M  V30 210 H 15.3241 5.03735 3.26146 0
M  V30 211 H 16.3941 4.42244 1.98867 0
M  V30 212 N 17.7372 -0.778329 1.37039 0
M  V30 213 C 18.9852 -1.53361 1.31623 0
M  V30 214 C 19.3062 -1.94739 -0.100831 0
M  V30 215 O 18.5762 -1.65797 -1.04347 0
M  V30 216 H 17.1562 -0.568794 0.484234 0
M  V30 217 H 19.8182 -0.926742 1.71457 0
M  V30 218 H 18.9142 -2.43606 1.95096 0
M  V30 219 N 19.2153 -1.21501 -1.00376 0
M  V30 220 C 20.1453 -0.999478 -2.11028 0
M  V30 221 C 21.1263 0.0759671 -1.6993 0
M  V30 222 O 22.3113 -0.0841106 -1.94018 0
M  V30 223 C 19.4413 -0.564709 -3.42678 0
M  V30 224 C 18.3953 -1.58486 -3.97576 0
M  V30 225 C 17.7213 -1.00628 -5.25146 0
M  V30 226 C 19.0213 -2.97204 -4.29496 0
M  V30 227 H 20.7153 -1.92495 -2.29317 0
M  V30 228 H 18.2613 -0.92693 -1.102 0
M  V30 229 H 20.2143 -0.401091 -4.19487 0
M  V30 230 H 18.9383 0.396411 -3.24185 0
M  V30 231 H 17.5973 -1.73606 -3.22888 0
M  V30 232 H 17.2453 -0.0368439 -5.02987 0
M  V30 233 H 16.9453 -1.68771 -5.62841 0
M  V30 234 H 18.4693 -0.854015 -6.04598 0
M  V30 235 H 19.8833 -2.8552 -4.97143 0
M  V30 236 H 18.2803 -3.62372 -4.78338 0
M  V30 237 H 19.3503 -3.47956 -3.3772 0
M  V30 238 N 20.6934 1.19889 -1.02296 0
M  V30 239 C 21.6434 2.20777 -0.56934 0
M  V30 240 C 22.6274 1.56379 0.378741 0
M  V30 241 O 23.8194 1.75859 0.200673 0
M  V30 242 C 20.9484 3.43196 0.0845077 0
M  V30 243 C 20.0344 4.14749 -0.88566 0
M  V30 244 N 20.4254 4.62584 -2.04573 0
M  V30 245 C 18.7234 4.40347 -0.707835 0
M  V30 246 C 19.4244 5.17466 -2.65714 0
M  V30 247 N 18.4004 5.0791 -1.93723 0
M  V30 248 H 22.2024 2.55434 -1.45365 0
M  V30 249 H 19.7164 1.35897 -0.88915 0
M  V30 250 H 21.7134 4.14707 0.427067 0
M  V30 251 H 20.3734 3.10042 0.964574 0
M  V30 252 H 21.3844 4.57597 -2.4254 0
M  V30 253 H 18.0614 4.17317 0.12364 0
M  V30 254 H 19.4514 5.64808 -3.63925 0
M  V30 255 N 22.1715 0.800033 1.35784 0
M  V30 256 C 23.1345 0.211565 2.28221 0
M  V30 257 C 24.1345 -0.59728 1.49296 0
M  V30 258 O 25.3245 -0.416721 1.69142 0
M  V30 259 C 22.4565 -0.705846 3.33513 0
M  V30 260 H 23.6495 1.02677 2.81776 0
M  V30 261 H 21.2025 0.570211 1.45528 0
M  V30 262 H 21.9375 -1.54498 2.85133 0
M  V30 263 H 21.7225 -0.127655 3.91892 0
M  V30 264 H 23.2125 -1.11211 4.02519 0
M  V30 265 N 23.6496 -1.47581 0.552962 0
M  V30 266 C 24.8776 -2.06875 0.0320556 0
M  V30 267 C 25.2926 -1.40625 -1.25976 0
M  V30 268 O 24.6496 -0.501349 -1.75479 0
M  V30 269 C 24.7006 -3.61092 -0.17167 0
M  V30 270 O 24.4216 -4.24858 1.06899 0
M  V30 271 C 25.9226 -4.37242 -0.730344 0
M  V30 272 H 23.1426 -0.669561 0.043915 0
M  V30 273 H 25.6866 -1.89646 0.765163 0
M  V30 274 H 23.8416 -3.7785 -0.854894 0
M  V30 275 H 24.2556 -5.17334 0.864059 0
M  V30 276 H 25.7296 -5.45842 -0.822203 0
M  V30 277 H 26.2066 -4.03235 -1.74064 0
M  V30 278 H 26.8126 -4.25219 -0.0829543 0
M  V30 279 N 25.1277 -0.289203 -1.54924 0
M  V30 280 C 26.3767 0.324231 -1.99077 0
M  V30 281 C 26.6897 1.5591 -1.18117 0
M  V30 282 O 27.8957 2.24637 -1.52481 0
M  V30 283 C 26.3517 0.628209 -3.54375 0
M  V30 284 C 25.9597 -0.587647 -4.44129 0
M  V30 285 C 27.7037 1.20349 -4.07083 0
M  V30 286 C 25.6107 -0.257475 -5.90839 0
M  V30 287 H 24.5407 0.124924 -0.743579 0
M  V30 288 H 27.1917 -0.396063 -1.79175 0
M  V30 289 H 25.5737 1.40778 -3.70132 0
M  V30 290 H 26.7477 -1.36418 -4.40144 0
M  V30 291 H 25.0627 -1.08074 -4.0213 0
M  V30 292 H 27.6597 1.46456 -5.14252 0
M  V30 293 H 28.0027 2.14195 -3.56968 0
M  V30 294 H 28.5357 0.485889 -3.94821 0
M  V30 295 H 25.2747 -1.16419 -6.45079 0
M  V30 296 H 24.7947 0.482018 -5.9786 0
M  V30 297 H 26.4737 0.145238 -6.46837 0
M  V30 298 N 26.6058 1.57591 -0.0167156 0
M  V30 299 C 27.5558 2.05953 0.978137 0
M  V30 300 C 28.5398 0.957532 1.29306 0
M  V30 301 O 29.7318 1.22119 1.28125 0
M  V30 302 C 26.8608 2.58006 2.26468 0
M  V30 303 C 25.9468 3.75113 1.97867 0
M  V30 304 N 26.3378 4.86187 1.39486 0
M  V30 305 C 24.6358 3.83363 2.27924 0
M  V30 306 C 25.3368 5.67502 1.27735 0
M  V30 307 N 24.3128 5.14023 1.76866 0
M  V30 308 H 28.1148 2.89236 0.521522 0
M  V30 309 H 25.6288 1.61301 0.188596 0
M  V30 310 H 27.6258 2.90937 2.98599 0
M  V30 311 H 26.2858 1.76148 2.72767 0
M  V30 312 H 27.2968 5.06695 1.07147 0
M  V30 313 H 23.9738 3.1239 2.76982 0
M  V30 314 H 25.3638 6.66791 0.826978 0
M  V30 315 N 28.0839 -0.256276 1.55502 0
M  V30 316 C 29.3239 -0.993081 1.78654 0
M  V30 317 C 29.6879 -1.8288 0.584724 0
M  V30 318 O 30.8889 -2.59665 0.694822 0
M  V30 319 C 29.1599 -1.83856 3.06483 0
M  V30 320 S 30.7189 -2.63573 3.5082 0
M  V30 321 H 27.5369 -0.334199 0.62756 0
M  V30 322 H 30.1389 -0.26184 1.93739 0
M  V30 323 H 28.8429 -1.21414 3.92029 0
M  V30 324 H 28.3739 -2.61271 2.94111 0
M  V30 325 H 30.3889 -3.86312 3.11412 0
M  V30 326 N 29.562 -1.4872 -0.521534 0
M  V30 327 C 30.525 -1.63379 -1.60748 0
M  V30 328 C 31.525 -0.50661 -1.52611 0
M  V30 329 O 32.715 -0.772601 -1.5613 0
M  V30 330 C 29.847 -1.61192 -3.00383 0
M  V30 331 H 31.04 -2.60217 -1.49087 0
M  V30 332 H 28.593 -1.37444 -0.744235 0
M  V30 333 H 29.328 -0.65863 -3.17541 0
M  V30 334 H 29.113 -2.43032 -3.07698 0
M  V30 335 H 30.603 -1.7466 -3.7932 0
M  V30 336 N 31.0401 0.771051 -1.3745 0
M  V30 337 C 32.2651 1.56529 -1.36065 0
M  V30 338 C 32.6901 1.88029 0.0515859 0
M  V30 339 O 32.0481 1.49282 1.02882 0
M  V30 340 C 32.0961 2.85187 -2.20683 0
M  V30 341 O 31.2001 3.79593 -1.61193 0
M  V30 342 H 30.5411 0.47411 -0.464883 0
M  V30 343 H 33.0711 0.954269 -1.80983 0
M  V30 344 H 33.0811 3.34283 -2.33921 0
M  V30 345 H 31.7561 2.61588 -3.23334 0
M  V30 346 H 30.3331 3.38239 -1.56999 0
M  V30 347 N 32.5182 1.22032 0.997298 0
M  V30 348 C 33.9292 1.0397 1.55071 0
M  V30 349 C 34.2802 -0.398192 1.92117 0
M  V30 350 O 33.4052 -1.28254 1.74298 0
M  V30 351 C 34.0002 1.88109 2.81781 0
M  V30 352 C 32.5592 1.74357 3.33581 0
M  V30 353 C 31.7062 1.84846 2.06706 0
M  V30 354 H 34.6572 1.35941 0.818883 0
M  V30 355 H 34.6782 1.39589 3.53971 0
M  V30 356 H 34.1902 2.92754 2.54787 0
M  V30 357 H 32.2912 0.72427 3.65493 0
M  V30 358 H 32.4042 2.56772 4.04481 0
M  V30 359 H 30.7682 1.28238 2.20062 0
M  V30 360 H 31.5512 2.91014 1.82114 0
M  V30 361 N 33.9963 -1.19345 1.0293 0
M  V30 362 C 34.9063 -2.26245 0.620515 0
M  V30 363 C 35.9223 -1.70486 -0.347928 0
M  V30 364 O 37.0983 -2.00347 -0.205704 0
M  V30 365 C 34.1633 -3.46693 -0.0218957 0
M  V30 366 C 33.2243 -4.17632 0.994102 0
M  V30 367 C 32.4573 -5.32329 0.382253 0
M  V30 368 O 32.6803 -5.64552 -0.814676 0
M  V30 369 O 31.6143 -5.91664 1.10531 0
M  V30 370 H 35.4403 -2.63453 1.51083 0
M  V30 371 H 33.0253 -1.26207 0.799513 0
M  V30 372 H 34.9073 -4.19683 -0.380072 0
M  V30 373 H 33.5823 -3.11333 -0.886209 0
M  V30 374 H 32.4893 -3.4676 1.40387 0
M  V30 375 H 33.8223 -4.56964 1.8288 0
M  V30 376 N 35.4744 -0.807222 -1.35358 0
M  V30 377 C 36.7224 -0.387122 -1.98358 0
M  V30 378 C 37.0434 1.04942 -1.64354 0
M  V30 379 O 36.3134 1.72615 -0.926339 0
M  V30 380 H 34.8934 -0.140154 -0.733734 0
M  V30 381 H 37.5554 -1.0332 -1.6526 0
M  V30 382 H 36.6514 -0.493352 -3.08176 0
M  V30 383 N 36.9525 1.47285 -0.560781 0
M  V30 384 C 37.8995 2.30058 0.18491 0
M  V30 385 C 38.8695 1.39281 0.904986 0
M  V30 386 O 40.0545 1.68241 0.899979 0
M  V30 387 C 37.1945 3.23317 1.20666 0
M  V30 388 C 36.3075 4.29186 0.492285 0
M  V30 389 C 35.4425 5.09592 1.49964 0
M  V30 390 C 34.4815 6.07232 0.770439 0
M  V30 391 N 33.6185 6.80584 1.72479 0
M  V30 392 H 38.4585 2.93302 -0.527048 0
M  V30 393 H 35.9955 1.44568 -0.271738 0
M  V30 394 H 37.9535 3.75811 1.81168 0
M  V30 395 H 36.5835 2.61929 1.88661 0
M  V30 396 H 35.6355 3.7972 -0.227333 0
M  V30 397 H 36.9475 4.98738 -0.0787929 0
M  V30 398 H 36.1015 5.66254 2.17809 0
M  V30 399 H 34.8405 4.3995 2.10464 0
M  V30 400 H 33.8455 5.49745 0.0780846 0
M  V30 401 H 35.0705 6.78884 0.171134 0
M  V30 402 H 33.0165 6.1367 2.3183 0
M  V30 403 H 32.9335 7.46319 1.20596 0
M  V30 404 H 34.2015 7.41818 2.39428 0
M  V30 405 N 38.4306 0.297415 1.54768 0
M  V30 406 C 39.6766 -0.313376 2.00364 0
M  V30 407 C 40.0096 -1.53815 1.18553 0
M  V30 408 O 39.2846 -1.92739 0.261103 0
M  V30 409 C 39.5676 -0.673525 3.53745 0
M  V30 410 C 39.4206 0.560133 4.46299 0
M  V30 411 C 40.7396 -1.50143 4.13697 0
M  V30 412 H 37.8586 -0.112428 0.728374 0
M  V30 413 H 40.5006 0.4088 1.8555 0
M  V30 414 H 38.6506 -1.28881 3.665 0
M  V30 415 H 40.3226 1.19863 4.45455 0
M  V30 416 H 38.5656 1.19405 4.17043 0
M  V30 417 H 39.2366 0.26405 5.51368 0
M  V30 418 H 41.7126 -0.981588 4.04356 0
M  V30 419 H 40.5886 -1.72221 5.21182 0
M  V30 420 H 40.8496 -2.48952 3.65343 0
M  V30 421 N 39.9087 -1.5758 0.0250728 0
M  V30 422 C 41.1367 -1.9593 -0.664747 0
M  V30 423 C 41.5517 -0.901352 -1.65895 0
M  V30 424 O 40.9087 0.117255 -1.82123 0
M  V30 425 C 40.9597 -3.34342 -1.37468 0
M  V30 426 O 40.6807 -4.36079 -0.420324 0
M  V30 427 C 42.1817 -3.873 -2.1567 0
M  V30 428 H 39.4017 -0.645405 -0.183557 0
M  V30 429 H 41.9457 -2.04329 0.0836372 0
M  V30 430 H 40.1007 -3.27175 -2.0745 0
M  V30 431 H 40.5147 -5.16297 -0.923991 0
M  V30 432 H 41.9887 -4.86504 -2.60803 0
M  V30 433 H 42.4657 -3.21331 -2.99405 0
M  V30 434 H 43.0717 -3.97723 -1.50654 0
M  V30 435 N 41.3868 0.248026 -1.55636 0
M  V30 436 C 42.3498 1.29044 -1.89421 0
M  V30 437 C 43.3498 1.41134 -0.770581 0
M  V30 438 O 44.5398 1.39854 -1.03858 0
M  V30 439 C 41.6718 2.66831 -2.12165 0
M  V30 440 H 42.8648 1.00305 -2.82629 0
M  V30 441 H 40.4178 0.487265 -1.48511 0
M  V30 442 H 41.1528 3.00711 -1.21422 0
M  V30 443 H 40.9378 2.59438 -2.93997 0
M  V30 444 H 42.4278 3.42103 -2.3949 0
M  V30 445 N 42.8649 1.48995 0.513639 0
M  V30 446 C 44.1049 1.59452 1.27885 0
M  V30 447 C 44.4689 0.269479 1.90099 0
M  V30 448 O 45.6699 0.249139 2.67643 0
M  V30 449 C 43.9409 2.71277 2.32688 0
M  V30 450 S 45.4999 3.01604 3.18717 0
M  V30 451 H 42.3179 0.562565 0.434789 0
M  V30 452 H 44.9199 1.86595 0.583301 0
M  V30 453 H 43.6239 3.66089 1.8549 0
M  V30 454 H 43.1549 2.46086 3.06929 0
M  V30 455 H 45.1699 2.42155 4.331 0
M  V30 456 N 44.343 -0.763751 1.37857 0
M  V30 457 C 45.293 -1.86765 1.30777 0
M  V30 458 C 46.277 -1.59726 0.194015 0
M  V30 459 O 47.469 -1.7172 0.42911 0
M  V30 460 C 44.598 -3.24343 1.12502 0
M  V30 461 C 43.684 -3.57307 2.28456 0
M  V30 462 N 44.075 -3.61398 3.53871 0
M  V30 463 C 42.373 -3.87517 2.20786 0
M  V30 464 C 43.074 -3.91339 4.30382 0
M  V30 465 N 42.05 -4.07649 3.59615 0
M  V30 466 H 45.852 -1.88191 2.25746 0
M  V30 467 H 43.366 -0.9606 1.30944 0
M  V30 468 H 45.363 -4.03327 1.05514 0
M  V30 469 H 44.023 -3.24175 0.184574 0
M  V30 470 H 45.034 -3.43407 3.87675 0
M  V30 471 H 41.711 -3.95125 1.34844 0
M  V30 472 H 43.101 -4.01213 5.3896 0
M  V30 473 N 45.8211 -1.22559 -0.990812 0
M  V30 474 C 47.0461 -1.07862 -1.77145 0
M  V30 475 C 47.4711 0.366447 -1.84496 0
M  V30 476 O 46.8291 1.26478 -1.29896 0
M  V30 477 C 46.8771 -1.69686 -3.18181 0
M  V30 478 O 45.9811 -0.951946 -4.01263 0
M  V30 479 H 45.3221 -0.378712 -0.545411 0
M  V30 480 H 47.8521 -1.62399 -1.2445 0
M  V30 481 H 47.8621 -1.74496 -3.68802 0
M  V30 482 H 46.5371 -2.74841 -3.12146 0
M  V30 483 H 45.1141 -0.980011 -3.59792 0
M  V30 484 N 47.2992 1.18797 -1.03562 0
M  V30 485 C 48.5242 1.9314 -0.755764 0
M  V30 486 C 48.9492 1.7537 0.68022 0
M  V30 487 O 48.3072 1.06046 1.47051 0
M  V30 488 C 48.3552 3.42747 -1.12058 0
M  V30 489 O 47.4592 4.11683 -0.243124 0
M  V30 490 H 46.8002 0.602724 -0.278604 0
M  V30 491 H 49.3302 1.50678 -1.3841 0
M  V30 492 H 49.3402 3.93437 -1.08035 0
M  V30 493 H 48.0152 3.55002 -2.16672 0
M  V30 494 H 46.5922 3.71323 -0.342539 0
M  V30 495 N 48.7773 0.814389 1.34928 0
M  V30 496 C 49.7093 0.187834 2.28429 0
M  V30 497 C 50.7223 -0.617374 1.5064 0
M  V30 498 O 51.9113 -0.448454 1.72775 0
M  V30 499 C 49.0113 -0.755962 3.30361 0
M  V30 500 C 48.1843 0.00456686 4.374 0
M  V30 501 C 47.2433 -0.858876 5.19143 0
M  V30 502 O 46.2693 -0.306968 5.68372 0
M  V30 503 N 47.4713 -2.17988 5.38016 0
M  V30 504 H 50.2363 0.991105 2.82838 0
M  V30 505 H 47.7973 0.670561 1.4736 0
M  V30 506 H 49.7893 -1.338 3.81942 0
M  V30 507 H 48.3593 -1.46001 2.7641 0
M  V30 508 H 47.5793 0.767865 3.86649 0
M  V30 509 H 48.8673 0.528422 5.06049 0
M  V30 510 H 48.2653 -2.65212 4.99679 0
M  V30 511 H 46.8223 -2.71098 5.92747 0
M  V30 512 N 50.2554 -1.46986 0.568584 0
M  V30 513 C 51.6664 -1.86188 0.138219 0
M  V30 514 C 52.0174 -1.47388 -1.29504 0
M  V30 515 O 51.1424 -0.88219 -1.97602 0
M  V30 516 C 51.7374 -3.3792 0.244065 0
M  V30 517 C 50.2964 -3.76171 -0.131335 0
M  V30 518 C 49.4434 -2.71027 0.586465 0
M  V30 519 H 52.3944 -1.38342 0.777645 0
M  V30 520 H 52.4154 -3.76729 -0.534351 0
M  V30 521 H 51.9274 -3.66128 1.28731 0
M  V30 522 H 50.0284 -3.5358 -1.17526 0
M  V30 523 H 50.1414 -4.78523 0.235146 0
M  V30 524 H 48.5054 -2.54684 0.0282722 0
M  V30 525 H 49.2884 -3.02077 1.63109 0
M  V30 526 N 51.7335 -0.305618 -1.54608 0
M  V30 527 C 52.6815 0.584119 -2.25146 0
M  V30 528 C 53.6755 1.13326 -1.25911 0
M  V30 529 O 54.8815 1.08337 -1.43747 0
M  V30 530 H 51.2565 0.206983 -0.722954 0
M  V30 531 H 53.2275 -0.033291 -2.98381 0
M  V30 532 C 51.9765 1.74225 -3.009 0
M  V30 533 H 51.2995 1.32892 -3.77067 0
M  V30 534 H 52.7395 2.34077 -3.53531 0
M  V30 535 C 51.1985 2.64914 -2.0814 0
M  V30 536 O 51.7285 3.66137 -1.65246 0
M  V30 537 N 49.9345 2.3275 -1.74 0
M  V30 538 H 49.4815 1.50479 -2.09078 0
M  V30 539 H 49.4395 2.93694 -1.12211 0
M  V30 540 N 53.2116 1.57565 -0.0334293 0
M  V30 541 C 54.1746 2.09393 0.932048 0
M  V30 542 C 55.1746 1.00986 1.25134 0
M  V30 543 O 56.3646 1.27129 1.19096 0
M  V30 544 C 53.4966 2.56338 2.2473 0
M  V30 545 H 54.6896 2.95984 0.483085 0
M  V30 546 H 52.2426 1.54819 0.21468 0
M  V30 547 H 52.9776 1.7309 2.74245 0
M  V30 548 H 52.7626 3.35542 2.02865 0
M  V30 549 H 54.2526 2.96646 2.93923 0
M  V30 550 N 54.6897 -0.239769 1.55765 0
M  V30 551 C 55.9177 -0.98417 1.81994 0
M  V30 552 C 56.3327 -1.7867 0.610124 0
M  V30 553 O 55.6897 -1.77571 -0.421271 0
M  V30 554 C 55.7407 -1.91635 3.06526 0
M  V30 555 O 55.4617 -1.14629 4.22838 0
M  V30 556 C 56.9627 -2.77616 3.45607 0
M  V30 557 H 54.1827 -0.28928 0.605441 0
M  V30 558 H 56.7267 -0.260499 2.02834 0
M  V30 559 H 54.8817 -2.5942 2.87715 0
M  V30 560 H 55.2957 -1.77745 4.93464 0
M  V30 561 H 56.7697 -3.38759 4.35828 0
M  V30 562 H 57.2467 -3.4909 2.6652 0
M  V30 563 H 57.8527 -2.15271 3.66795 0
M  V30 564 N 56.1678 -1.49265 -0.50573 0
M  V30 565 C 57.0978 -1.68495 -1.61653 0
M  V30 566 C 58.0788 -0.53366 -1.61512 0
M  V30 567 O 59.2638 -0.76897 -1.78327 0
M  V30 568 C 56.3938 -1.74709 -3.00157 0
M  V30 569 C 55.3478 -2.89581 -3.15162 0
M  V30 570 C 54.6738 -2.80903 -4.5497 0
M  V30 571 C 55.9738 -4.30578 -2.95634 0
M  V30 572 H 57.6678 -2.61493 -1.45814 0
M  V30 573 H 55.2138 -1.25838 -0.70005 0
M  V30 574 H 57.1668 -1.86748 -3.77761 0
M  V30 575 H 55.8908 -0.783067 -3.17074 0
M  V30 576 H 54.5498 -2.77136 -2.39982 0
M  V30 577 H 54.1978 -1.82419 -4.68756 0
M  V30 578 H 53.8978 -3.57999 -4.65951 0
M  V30 579 H 55.4218 -2.94944 -5.34641 0
M  V30 580 H 56.8358 -4.4373 -3.63011 0
M  V30 581 H 55.2328 -5.0886 -3.18091 0
M  V30 582 H 56.3028 -4.45352 -1.91806 0
M  V30 583 N 57.6459 0.756429 -1.3826 0
M  V30 584 C 58.8759 1.54341 -1.3734 0
M  V30 585 C 59.2839 1.89159 0.0393917 0
M  V30 586 O 58.6269 1.5307 1.01565 0
M  V30 587 C 58.6889 2.87238 -2.16182 0
M  V30 588 C 58.3529 2.74973 -3.65019 0
M  V30 589 C 59.3499 2.44962 -4.58574 0
M  V30 590 C 57.0349 2.92515 -4.08338 0
M  V30 591 C 59.0289 2.32642 -5.93428 0
M  V30 592 C 56.7159 2.79815 -5.43274 0
M  V30 593 C 57.7139 2.49921 -6.35632 0
M  V30 594 O 57.4019 2.37275 -7.68086 0
M  V30 595 H 57.1339 0.484281 -0.471643 0
M  V30 596 H 59.6879 0.944152 -1.82414 0
M  V30 597 H 57.9179 3.49342 -1.65822 0
M  V30 598 H 59.6069 3.48731 -2.07705 0
M  V30 599 H 60.3729 2.31081 -4.26412 0
M  V30 600 H 56.2519 3.14781 -3.368 0
M  V30 601 H 59.7959 2.0923 -6.65484 0
M  V30 602 H 55.6929 2.93269 -5.75034 0
M  V30 603 H 56.4609 2.52509 -7.78577 0
M  V30 604 N 59.124 1.23083 0.984299 0
M  V30 605 C 60.071 1.00854 2.07598 0
M  V30 606 C 61.041 -0.0726709 1.65941 0
M  V30 607 O 62.226 0.0786535 1.90638 0
M  V30 608 C 59.366 0.601645 3.39815 0
M  V30 609 C 58.479 1.75456 3.94765 0
M  V30 610 C 57.614 1.29482 5.15177 0
M  V30 611 C 56.653 2.41873 5.62284 0
M  V30 612 N 55.79 1.96885 6.73929 0
M  V30 613 H 60.63 1.943 2.25946 0
M  V30 614 H 58.167 0.968001 1.10762 0
M  V30 615 H 60.125 0.346854 4.15756 0
M  V30 616 H 58.755 -0.295803 3.21442 0
M  V30 617 H 57.807 2.12346 3.15616 0
M  V30 618 H 59.119 2.59965 4.25699 0
M  V30 619 H 58.273 0.997923 5.98437 0
M  V30 620 H 57.012 0.420046 4.85888 0
M  V30 621 H 56.017 2.72342 4.77608 0
M  V30 622 H 57.242 3.29881 5.93595 0
M  V30 623 H 55.188 1.11782 6.46406 0
M  V30 624 H 55.105 2.74956 7.04227 0
M  V30 625 H 56.373 1.70289 7.60672 0
M  V30 626 N 60.6021 -1.18246 1.0419 0
M  V30 627 C 61.5351 -2.20746 0.578474 0
M  V30 628 C 62.5131 -1.57912 -0.387624 0
M  V30 629 O 63.6971 -1.86071 -0.301634 0
M  V30 630 C 60.8241 -3.38346 -0.154762 0
M  V30 631 C 59.8701 -4.19587 0.764782 0
M  V30 632 S 60.7031 -4.86014 2.24835 0
M  V30 633 C 61.8591 -6.07012 1.526 0
M  V30 634 H 62.0921 -2.59715 1.44691 0
M  V30 635 H 59.6251 -1.287 0.85297 0
M  V30 636 H 61.5831 -4.065 -0.571641 0
M  V30 637 H 60.2441 -2.97786 -0.999105 0
M  V30 638 H 59.4371 -5.03611 0.197976 0
M  V30 639 H 59.0391 -3.56818 1.12057 0
M  V30 640 H 61.3311 -6.72523 0.819733 0
M  V30 641 H 62.2741 -6.68202 2.34333 0
M  V30 642 H 62.6821 -5.55249 1.01779 0
M  V30 643 N 62.0802 -0.821533 -1.34494 0
M  V30 644 C 63.3052 -0.420873 -2.03085 0
M  V30 645 C 63.7302 0.964915 -1.61465 0
M  V30 646 O 63.0882 1.62763 -0.798607 0
M  V30 647 C 63.1362 -0.529414 -3.56693 0
M  V30 648 O 62.2402 0.451302 -4.09923 0
M  V30 649 H 61.5812 -0.173489 -0.640935 0
M  V30 650 H 64.1112 -1.11157 -1.71771 0
M  V30 651 H 64.1212 -0.404671 -4.05988 0
M  V30 652 H 62.7962 -1.54014 -3.86332 0
M  V30 653 H 61.3732 0.285558 -3.71805 0
M  V30 654 N 63.5583 1.46682 -0.576371 0
M  V30 655 C 64.7833 2.07304 -0.0630475 0
M  V30 656 C 65.2083 1.42329 1.2298 0
M  V30 657 O 64.5663 0.504865 1.74129 0
M  V30 658 C 64.6143 3.60472 0.095895 0
M  V30 659 O 63.7183 3.95927 1.15394 0
M  V30 660 H 63.0593 0.661288 -0.0599463 0
M  V30 661 H 65.5893 1.88417 -0.797511 0
M  V30 662 H 65.5993 4.06865 0.304071 0
M  V30 663 H 64.2743 4.07157 -0.84828 0
M  V30 664 H 62.8513 3.61252 0.924724 0
M  V30 665 N 65.0364 0.313813 1.54444 0
M  V30 666 C 66.2854 -0.292519 1.99568 0
M  V30 667 C 66.5984 -1.54011 1.20582 0
M  V30 668 O 67.8044 -2.22183 1.56035 0
M  V30 669 C 66.2604 -0.571752 3.55329 0
M  V30 670 C 65.8684 0.658229 4.43138 0
M  V30 671 C 67.6124 -1.13857 4.08946 0
M  V30 672 C 65.5194 0.351439 5.90355 0
M  V30 673 H 64.4494 -0.113079 0.745472 0
M  V30 674 H 67.1004 0.424518 1.78522 0
M  V30 675 H 65.4824 -1.34872 3.72325 0
M  V30 676 H 66.6564 1.43403 4.37918 0
M  V30 677 H 64.9714 1.14458 4.0036 0
M  V30 678 H 67.5684 -1.38257 5.16516 0
M  V30 679 H 67.9114 -2.08489 3.6033 0
M  V30 680 H 68.4444 -0.423015 3.95544 0
M  V30 681 H 65.1834 1.26667 6.43145 0
M  V30 682 H 64.7034 -0.386842 5.98551 0
M  V30 683 H 66.3824 -0.0423134 6.46986 0
M  V30 684 N 66.5145 -1.57545 0.0417849 0
M  V30 685 C 67.4625 -2.12148 -0.953723 0
M  V30 686 C 68.4565 -1.05104 -1.32852 0
M  V30 687 O 69.6625 -1.23524 -1.30927 0
M  V30 688 H 66.0375 -0.677957 -0.325389 0
M  V30 689 H 68.0085 -2.94707 -0.467991 0
M  V30 690 C 66.7575 -2.6739 -2.22257 0
M  V30 691 H 66.0805 -3.49413 -1.94295 0
M  V30 692 H 67.5205 -3.09227 -2.90094 0
M  V30 693 C 65.9795 -1.60723 -2.96091 0
M  V30 694 O 66.5095 -1.01449 -3.88679 0
M  V30 695 N 64.7155 -1.32466 -2.58652 0
M  V30 696 H 64.2625 -1.80856 -1.83437 0
M  V30 697 H 64.2205 -0.61325 -3.08361 0
M  V30 698 N 67.9926 0.231505 -1.5589 0
M  V30 699 C 68.9556 1.27028 -1.90779 0
M  V30 700 C 69.9556 1.40308 -0.785507 0
M  V30 701 O 71.1456 1.38744 -1.05336 0
M  V30 702 C 68.2776 2.64566 -2.14983 0
M  V30 703 H 69.4706 0.973017 -2.83677 0
M  V30 704 H 67.0236 0.471486 -1.49019 0
M  V30 705 H 67.7586 2.99406 -1.24604 0
M  V30 706 H 67.5436 2.56305 -2.96732 0
M  V30 707 H 69.0336 3.39543 -2.43105 0
M  V30 708 N 69.4707 1.49531 0.497807 0
M  V30 709 C 70.7477 1.49682 1.25915 0
M  V30 710 C 71.1277 0.226339 2.09883 0
M  V30 711 O 70.4757 -0.791189 2.14365 0
M  V30 712 C 70.6857 2.77755 2.11313 0
M  V30 713 C 72.0337 3.27371 2.70395 0
M  V30 714 O 73.0577 2.78894 2.21578 0
M  V30 715 O 71.9167 4.11808 3.59272 0
M  V30 716 H 69.0107 0.599228 0.56996 0
M  V30 717 H 71.5567 1.61798 0.511816 0
M  V30 718 H 70.3287 3.61713 1.49264 0
M  V30 719 H 69.9517 2.68515 2.93233 0
M  V30 720 N 70.9488 -0.749086 1.3866 0
M  V30 721 C 72.1958 -1.50833 1.35114 0
M  V30 722 C 72.5238 -1.94415 -0.0574049 0
M  V30 723 O 71.7788 -1.66065 -1.03541 0
M  V30 724 C 72.0778 -2.7712 2.25697 0
M  V30 725 C 71.7438 -2.52477 3.73585 0
M  V30 726 C 70.4058 -2.45466 4.13884 0
M  V30 727 C 72.7578 -2.31066 4.67181 0
M  V30 728 C 70.0858 -2.15064 5.45861 0
M  V30 729 C 72.4378 -2.02183 5.9942 0
M  V30 730 C 71.1018 -1.93631 6.38798 0
M  V30 731 H 70.3718 -0.551936 0.494416 0
M  V30 732 H 73.0188 -0.860979 1.71054 0
M  V30 733 H 71.3238 -3.46528 1.82827 0
M  V30 734 H 73.0208 -3.35096 2.20254 0
M  V30 735 H 69.6108 -2.58807 3.41638 0
M  V30 736 H 73.7948 -2.35459 4.3689 0
M  V30 737 H 69.0508 -2.06954 5.75308 0
M  V30 738 H 73.2248 -1.8462 6.71482 0
M  V30 739 H 70.8518 -1.69839 7.40985 0
M  V30 740 N 72.4269 -1.23603 -0.977757 0
M  V30 741 C 73.3899 -1.02069 -2.05218 0
M  V30 742 C 74.3899 0.0184305 -1.60789 0
M  V30 743 O 75.5799 -0.221569 -1.72785 0
M  V30 744 C 72.7119 -0.544926 -3.36517 0
M  V30 745 H 73.9049 -1.9742 -2.25755 0
M  V30 746 H 71.4579 -1.05684 -1.15155 0
M  V30 747 H 72.1929 0.412241 -3.21669 0
M  V30 748 H 71.9779 -1.2948 -3.70105 0
M  V30 749 H 73.4679 -0.414985 -4.15533 0
M  V30 750 N 73.905 1.17692 -1.04816 0
M  V30 751 C 75.152 1.87859 -0.75599 0
M  V30 752 C 75.48 1.80812 0.716752 0
M  V30 753 O 74.735 1.20819 1.53952 0
M  V30 754 C 75.034 3.37462 -1.17703 0
M  V30 755 C 74.7 3.64713 -2.65133 0
M  V30 756 C 73.362 3.71859 -3.05408 0
M  V30 757 C 75.714 3.76492 -3.60421 0
M  V30 758 C 73.042 3.88271 -4.39843 0
M  V30 759 C 75.394 3.94421 -4.94585 0
M  V30 760 C 74.058 3.99806 -5.3452 0
M  V30 761 H 73.328 0.687425 -0.276636 0
M  V30 762 H 75.975 1.39255 -1.31455 0
M  V30 763 H 74.28 3.88097 -0.537395 0
M  V30 764 H 75.977 3.90109 -0.928218 0
M  V30 765 H 72.567 3.59772 -2.32942 0
M  V30 766 H 76.751 3.70295 -3.30447 0
M  V30 767 H 72.007 3.90687 -4.70291 0
M  V30 768 H 76.181 4.02477 -5.68318 0
M  V30 769 H 73.808 4.12276 -6.38696 0
M  V30 770 N 75.3831 0.828654 1.34056 0
M  V30 771 C 76.3311 0.242973 2.31327 0
M  V30 772 C 77.3251 -0.61944 1.57668 0
M  V30 773 O 78.5311 -0.51014 1.7262 0
M  V30 774 H 74.9061 0.059834 0.749616 0
M  V30 775 H 76.8771 1.07809 2.78244 0
M  V30 776 C 75.6261 -0.575733 3.429 0
M  V30 777 H 74.9491 0.0785582 3.99723 0
M  V30 778 H 76.3891 -0.951547 4.13185 0
M  V30 779 C 74.8481 -1.75044 2.87856 0
M  V30 780 O 75.3781 -2.84882 2.83205 0
M  V30 781 N 73.5841 -1.56903 2.44602 0
M  V30 782 H 73.1311 -0.675547 2.48584 0
M  V30 783 H 73.0891 -2.35652 2.08124 0
M  V30 784 N 76.8612 -1.46375 0.584142 0
M  V30 785 C 77.7912 -2.33103 -0.136037 0
M  V30 786 C 78.7722 -1.45431 -0.882255 0
M  V30 787 O 79.9572 -1.74246 -0.857434 0
M  V30 788 C 77.0872 -3.27731 -1.14933 0
M  V30 789 C 76.0412 -4.24855 -0.517862 0
M  V30 790 C 75.3672 -5.09001 -1.63773 0
M  V30 791 C 76.6672 -5.19439 0.545886 0
M  V30 792 H 78.3612 -2.93568 0.588086 0
M  V30 793 H 75.9072 -1.41166 0.284259 0
M  V30 794 H 77.8602 -3.87261 -1.66153 0
M  V30 795 H 76.5842 -2.65377 -1.90375 0
M  V30 796 H 75.2432 -3.6659 -0.0267361 0
M  V30 797 H 74.8912 -4.43031 -2.38185 0
M  V30 798 H 74.5912 -5.74777 -1.22085 0
M  V30 799 H 76.1152 -5.71396 -2.15266 0
M  V30 800 H 77.5292 -5.73177 0.118704 0
M  V30 801 H 75.9262 -5.93566 0.88317 0
M  V30 802 H 76.9962 -4.63285 1.43162 0
M  V30 803 N 78.3393 -0.321999 -1.54275 0
M  V30 804 C 79.5693 0.282642 -2.04658 0
M  V30 805 C 79.9773 1.46453 -1.19784 0
M  V30 806 O 79.3203 1.82367 -0.220932 0
M  V30 807 C 79.3823 0.781857 -3.50895 0
M  V30 808 C 79.0463 -0.277517 -4.56157 0
M  V30 809 C 80.0433 -1.11307 -5.07845 0
M  V30 810 C 77.7283 -0.425256 -5.00497 0
M  V30 811 C 79.7223 -2.08211 -6.02434 0
M  V30 812 C 77.4093 -1.39771 -5.94901 0
M  V30 813 C 78.4073 -2.2246 -6.45756 0
M  V30 814 O 78.0953 -3.18054 -7.38307 0
M  V30 815 H 77.8273 0.0622636 -0.673126 0
M  V30 816 H 80.3813 -0.465792 -2.00049 0
M  V30 817 H 78.6113 1.58118 -3.52896 0
M  V30 818 H 80.3003 1.30467 -3.84361 0
M  V30 819 H 81.0663 -1.00991 -4.74369 0
M  V30 820 H 76.9453 0.20847 -4.60528 0
M  V30 821 H 80.4893 -2.72791 -6.42052 0
M  V30 822 H 76.3863 -1.50152 -6.27794 0
M  V30 823 H 77.1543 -3.13275 -7.56175 0
M  V30 824 N 79.8174 1.5752 -0.0501392 0
M  V30 825 C 81.2334 1.56631 0.306402 0
M  V30 826 C 81.4334 1.0577 1.71508 0
M  V30 827 O 80.4894 0.713837 2.422 0
M  V30 828 C 81.8024 3.00393 0.135811 0
M  V30 829 C 83.3504 3.12315 0.206993 0
M  V30 830 C 83.8254 4.57954 0.064944 0
M  V30 831 N 85.3164 4.63041 0.121254 0
M  V30 832 C 86.0514 5.73389 0.0354381 0
M  V30 833 N 85.5474 6.92724 -0.102666 0
M  V30 834 N 87.3404 5.62026 0.090946 0
M  V30 835 H 79.4914 1.88903 -0.971046 0
M  V30 836 H 81.7544 0.869876 -0.376855 0
M  V30 837 H 81.4604 3.41635 -0.835384 0
M  V30 838 H 81.3344 3.66373 0.897275 0
M  V30 839 H 83.7214 2.70973 1.16866 0
M  V30 840 H 83.8024 2.49016 -0.585208 0
M  V30 841 H 83.4464 4.99981 -0.893394 0
M  V30 842 H 83.3764 5.19258 0.876277 0
M  V30 843 H 85.8674 3.77216 0.227284 0
M  V30 844 H 86.1804 7.72633 -0.160882 0
M  V30 845 H 84.5254 6.94864 -0.137737 0
M  V30 846 H 87.7164 4.67684 0.197388 0
M  V30 847 H 87.8894 6.47997 0.0206089 0
M  V30 848 N 81.2955 -0.223234 1.56011 0
M  V30 849 C 82.7115 -0.572856 1.48965 0
M  V30 850 C 82.9115 -1.87225 0.74492 0
M  V30 851 O 81.9675 -2.50899 0.283896 0
M  V30 852 C 83.2805 -0.653646 2.9351 0
M  V30 853 C 84.8285 -0.744386 3.0402 0
M  V30 854 C 85.3035 -0.856535 4.49919 0
M  V30 855 N 86.7945 -0.9208 4.53955 0
M  V30 856 C 87.5295 -1.02726 5.64123 0
M  V30 857 N 87.0255 -1.09777 6.84047 0
M  V30 858 N 88.8185 -1.06226 5.51971 0
M  V30 859 H 80.9695 0.629462 2.02858 0
M  V30 860 H 83.2325 0.220621 0.921971 0
M  V30 861 H 82.9385 0.231518 3.50937 0
M  V30 862 H 82.8125 -1.51781 3.45315 0
M  V30 863 H 85.1995 -1.61999 2.46658 0
M  V30 864 H 85.2805 0.14541 2.55386 0
M  V30 865 H 84.9245 0.0146069 5.07898 0
M  V30 866 H 84.8545 -1.76172 4.96257 0
M  V30 867 H 87.3455 -0.876694 3.6759 0
M  V30 868 H 87.6585 -1.17872 7.63758 0
M  V30 869 H 86.0035 -1.06693 6.86762 0
M  V30 870 H 89.1945 -1.00382 4.5721 0
M  V30 871 H 89.3675 -1.14177 6.37862 0
M  V30 872 N 82.7736 -1.49793 -0.48987 0
M  V30 873 C 84.0206 -1.59841 -1.24327 0
M  V30 874 C 84.3486 -0.290135 -1.92324 0
M  V30 875 O 83.6036 0.722749 -1.81865 0
M  V30 876 C 83.9026 -2.71488 -2.32441 0
M  V30 877 C 83.5686 -4.12614 -1.81826 0
M  V30 878 C 82.2306 -4.51017 -1.67742 0
M  V30 879 C 84.5826 -5.00892 -1.4407 0
M  V30 880 C 81.9106 -5.75459 -1.14297 0
M  V30 881 C 84.2626 -6.25863 -0.920742 0
M  V30 882 C 82.9266 -6.63086 -0.766383 0
M  V30 883 H 82.1966 -0.584899 -0.454944 0
M  V30 884 H 84.8436 -1.83663 -0.542215 0
M  V30 885 H 83.1486 -2.4168 -3.0838 0
M  V30 886 H 84.8456 -2.76469 -2.90458 0
M  V30 887 H 81.4356 -3.82307 -1.93751 0
M  V30 888 H 85.6196 -4.7187 -1.53794 0
M  V30 889 H 80.8756 -6.02989 -1.01068 0
M  V30 890 H 85.0496 -6.9364 -0.619448 0
M  V30 891 H 82.6766 -7.59393 -0.350083 0
M  V30 892 N 84.2517 0.741722 -1.39055 0
M  V30 893 C 85.4797 1.53098 -1.39171 0
M  V30 894 C 85.8947 1.88794 0.0155099 0
M  V30 895 O 85.2517 1.53626 0.985159 0
M  V30 896 C 85.3027 2.82274 -2.2584 0
M  V30 897 O 85.0237 2.48097 -3.61081 0
M  V30 898 C 86.5247 3.76343 -2.34266 0
M  V30 899 H 83.7447 0.473335 -0.4756 0
M  V30 900 H 86.2887 0.917045 -1.82785 0
M  V30 901 H 84.4437 3.40015 -1.85656 0
M  V30 902 H 84.8577 3.31029 -4.06842 0
M  V30 903 H 86.3317 4.63898 -2.9917 0
M  V30 904 H 86.8087 4.17619 -1.35982 0
M  V30 905 H 87.4147 3.24523 -2.74891 0
M  V30 906 N 85.7298 1.2412 0.971189 0
M  V30 907 C 86.9758 1.08041 1.71625 0
M  V30 908 C 87.3088 -0.380407 1.90438 0
M  V30 909 O 86.5838 -1.28127 1.46334 0
M  V30 910 C 86.8668 1.81682 3.10908 0
M  V30 911 C 86.7198 3.35493 2.99608 0
M  V30 912 C 88.0388 1.58671 4.10501 0
M  V30 913 H 85.1578 0.39388 0.622919 0
M  V30 914 H 87.7998 1.52743 1.13003 0
M  V30 915 H 85.9498 1.43684 3.60953 0
M  V30 916 H 87.6218 3.83068 2.57015 0
M  V30 917 H 85.8648 3.64052 2.35899 0
M  V30 918 H 86.5358 3.82217 3.98264 0
M  V30 919 H 89.0118 1.91719 3.69301 0
M  V30 920 H 87.8878 2.1266 5.06031 0
M  V30 921 H 88.1488 0.524161 4.38982 0
M  V30 922 N 87.2079 -1.17134 1.05439 0
M  V30 923 C 88.1179 -2.24878 0.668365 0
M  V30 924 C 89.1339 -1.71186 -0.311687 0
M  V30 925 O 90.3099 -2.00738 -0.163161 0
M  V30 926 C 87.3749 -3.46662 0.051648 0
M  V30 927 C 86.4359 -4.15429 1.08246 0
M  V30 928 C 85.6689 -5.31399 0.495082 0
M  V30 929 O 85.8919 -5.66153 -0.694743 0
M  V30 930 O 84.8259 -5.89187 1.23056 0
M  V30 931 H 88.6519 -2.60189 1.56637 0
M  V30 932 H 86.2369 -1.24482 0.826104 0
M  V30 933 H 88.1189 -4.20394 -0.290966 0
M  V30 934 H 86.7939 -3.13142 -0.819971 0
M  V30 935 H 85.7009 -3.43704 1.47711 0
M  V30 936 H 87.0339 -4.52982 1.92532 0
M  V30 937 N 88.686 -0.835752 -1.33615 0
M  V30 938 C 89.914 -0.443344 -2.02094 0
M  V30 939 C 90.329 0.954522 -1.62894 0
M  V30 940 O 89.686 1.61982 -0.840723 0
M  V30 941 C 89.737 -0.550775 -3.5728 0
M  V30 942 O 89.458 -1.89356 -3.95065 0
M  V30 943 C 90.959 -0.154919 -4.43029 0
M  V30 944 H 88.179 -0.176359 -0.647409 0
M  V30 945 H 90.723 -1.12746 -1.70612 0
M  V30 946 H 88.878 0.0853997 -3.87306 0
M  V30 947 H 89.292 -1.87687 -4.89769 0
M  V30 948 H 90.766 -0.281144 -5.51284 0
M  V30 949 H 91.243 0.902863 -4.2982 0
M  V30 950 H 91.849 -0.765404 -4.18356 0
M  V30 951 N 90.1641 1.46063 -0.591896 0
M  V30 952 C 91.5751 1.85944 -0.167822 0
M  V30 953 C 91.9261 1.49429 1.27143 0
M  V30 954 O 91.0511 0.913515 1.96173 0
M  V30 955 C 91.6461 3.37489 -0.297794 0
M  V30 956 C 90.2051 3.76332 0.0714732 0
M  V30 957 C 89.3521 2.7006 -0.629509 0
M  V30 958 H 92.3031 1.37087 -0.799555 0
M  V30 959 H 92.3241 3.77532 0.474349 0
M  V30 960 H 91.8361 3.64034 -1.3454 0
M  V30 961 H 89.9371 3.55405 1.11886 0
M  V30 962 H 90.0501 4.78088 -0.311245 0
M  V30 963 H 88.4141 2.54607 -0.0687867 0
M  V30 964 H 89.1971 2.99444 -1.67894 0
M  V30 965 N 91.6422 0.330177 1.54103 0
M  V30 966 C 92.9192 -0.325007 1.92881 0
M  V30 967 C 93.2992 -1.6934 1.26045 0
M  V30 968 O 92.6472 -2.24855 0.406526 0
M  V30 969 C 92.8572 -0.410634 3.46576 0
M  V30 970 C 94.2052 -0.667801 4.19316 0
M  V30 971 O 95.2292 -0.49329 3.52768 0
M  V30 972 O 94.0882 -1.00491 5.37181 0
M  V30 973 H 91.1822 -0.186873 0.80561 0
M  V30 974 H 93.7282 0.380376 1.65382 0
M  V30 975 H 92.5002 0.550164 3.87413 0
M  V30 976 H 92.1232 -1.16333 3.802 0
M  V30 977 N 93.1203 -1.57491 0.0584922 0
M  V30 978 C 94.0673 -2.11958 -0.913376 0
M  V30 979 C 95.0373 -1.02875 -1.30407 0
M  V30 980 O 96.2223 -1.30464 -1.39226 0
M  V30 981 C 93.3623 -2.67497 -2.18035 0
M  V30 982 C 92.4753 -3.90691 -1.84349 0
M  V30 983 C 91.6103 -4.3452 -3.05559 0
M  V30 984 C 90.6493 -5.50395 -2.67827 0
M  V30 985 N 89.7863 -5.89244 -3.81754 0
M  V30 986 H 94.6263 -2.94704 -0.442017 0
M  V30 987 H 92.1633 -1.45643 -0.206545 0
M  V30 988 H 94.1213 -2.978 -2.92183 0
M  V30 989 H 92.7513 -1.87537 -2.62735 0
M  V30 990 H 91.8033 -3.66934 -1.00319 0
M  V30 991 H 93.1153 -4.7489 -1.5258 0
M  V30 992 H 92.2693 -4.66414 -3.87998 0
M  V30 993 H 91.0083 -3.49147 -3.40511 0
M  V30 994 H 90.0133 -5.18165 -1.83806 0
M  V30 995 H 91.2383 -6.3749 -2.34059 0
M  V30 996 H 89.1843 -5.06823 -4.16493 0
M  V30 997 H 89.1013 -6.68151 -3.53708 0
M  V30 998 H 90.3693 -6.25756 -4.64811 0
M  V30 999 N 94.5984 0.214957 -1.56127 0
M  V30 1000 C 95.5464 1.28601 -1.93816 0
M  V30 1001 C 96.5404 1.48175 -0.821016 0
M  V30 1002 O 97.7464 1.49271 -1.0059 0
M  V30 1003 H 94.1214 0.431302 -0.616022 0
M  V30 1004 H 96.0924 0.940991 -2.83175 0
M  V30 1005 C 94.8414 2.62779 -2.27689 0
M  V30 1006 H 94.1644 2.48527 -3.13168 0
M  V30 1007 H 95.6044 3.36517 -2.57939 0
M  V30 1008 C 94.0634 3.18285 -1.10436 0
M  V30 1009 O 94.5934 4.00002 -0.368945 0
M  V30 1010 N 92.7994 2.7675 -0.886433 0
M  V30 1011 H 92.3464 2.10404 -1.48619 0
M  V30 1012 H 92.3044 3.14229 -0.103656 0
M  V30 1013 N 96.0765 1.50051 0.48192 0
M  V30 1014 C 97.3255 1.59741 1.23149 0
M  V30 1015 C 97.6385 0.298163 1.93314 0
M  V30 1016 O 98.8445 0.273835 2.70116 0
M  V30 1017 C 97.3005 2.81926 2.23708 0
M  V30 1018 C 96.9085 4.18685 1.59396 0
M  V30 1019 C 98.6525 3.00956 2.99375 0
M  V30 1020 C 96.5595 5.3207 2.58178 0
M  V30 1021 H 95.4895 0.594838 0.46334 0
M  V30 1022 H 98.1405 1.76467 0.503169 0
M  V30 1023 H 96.5225 2.58736 2.99786 0
M  V30 1024 H 97.6965 4.52088 0.891811 0
M  V30 1025 H 96.0115 4.05171 0.960503 0
M  V30 1026 H 98.6085 3.82836 3.73283 0
M  V30 1027 H 98.9515 2.12258 3.58123 0
M  V30 1028 H 99.4845 3.24277 2.30411 0
M  V30 1029 H 96.2235 6.22888 2.04184 0
M  V30 1030 H 95.7435 5.03098 3.26577 0
M  V30 1031 H 97.4225 5.62196 3.20225 0
M  V30 1032 N 97.5546 -0.734337 1.39446 0
M  V30 1033 C 98.8016 -1.49391 1.36706 0
M  V30 1034 C 99.1296 -1.94465 -0.0367813 0
M  V30 1035 O 98.3846 -1.67154 -1.01774 0
M  V30 1036 C 98.6836 -2.74711 2.28623 0
M  V30 1037 C 98.3496 -2.48501 3.76242 0
M  V30 1038 C 97.0116 -2.41062 4.16464 0
M  V30 1039 C 99.3636 -2.26098 4.69606 0
M  V30 1040 C 96.6916 -2.09262 5.48112 0
M  V30 1041 C 99.0436 -1.95814 6.01531 0
M  V30 1042 C 97.7076 -1.86845 6.40816 0
M  V30 1043 H 96.9776 -0.546661 0.500243 0
M  V30 1044 H 99.6246 -0.842788 1.71957 0
M  V30 1045 H 97.9296 -3.44569 1.86492 0
M  V30 1046 H 99.6266 -3.32741 2.23796 0
M  V30 1047 H 96.2166 -2.55169 3.44364 0
M  V30 1048 H 100.401 -2.30812 4.39363 0
M  V30 1049 H 95.6566 -2.00841 5.77471 0
M  V30 1050 H 99.8306 -1.77488 6.73403 0
M  V30 1051 H 97.4576 -1.6197 7.42745 0
M  V30 1052 N 99.0327 -1.24633 -0.964593 0
M  V30 1053 C 100.28 -1.08788 -1.70796 0
M  V30 1054 C 100.608 0.372783 -1.90894 0
M  V30 1055 O 99.8627 1.29167 -1.47018 0
M  V30 1056 C 100.162 -1.7763 -3.10133 0
M  V30 1057 C 99.8277 -3.27557 -3.09866 0
M  V30 1058 C 98.4897 -3.6846 -3.09501 0
M  V30 1059 C 100.842 -4.23389 -3.03959 0
M  V30 1060 C 98.1697 -5.03624 -3.00965 0
M  V30 1061 C 100.522 -5.58565 -2.96965 0
M  V30 1062 C 99.1857 -5.98809 -2.9493 0
M  V30 1063 H 98.4557 -0.398084 -0.624988 0
M  V30 1064 H 101.103 -1.54777 -1.12767 0
M  V30 1065 H 99.4077 -1.24044 -3.71645 0
M  V30 1066 H 101.105 -1.62832 -3.66451 0
M  V30 1067 H 97.6947 -2.95006 -3.10917 0
M  V30 1068 H 101.879 -3.92787 -3.03368 0
M  V30 1069 H 97.1347 -5.33998 -2.97752 0
M  V30 1070 H 101.309 -6.32523 -2.91354 0
M  V30 1071 H 98.9357 -7.03505 -2.88071 0
M  V30 1072 N 100.511 1.16574 -1.06058 0
M  V30 1073 C 101.736 1.91493 -0.796562 0
M  V30 1074 C 102.161 1.76773 0.642868 0
M  V30 1075 O 101.519 1.09142 1.44768 0
M  V30 1076 C 101.567 3.40293 -1.19303 0
M  V30 1077 O 100.671 4.11074 -0.330394 0
M  V30 1078 H 100.012 0.596678 -0.291326 0
M  V30 1079 H 102.542 1.47708 -1.41575 0
M  V30 1080 H 102.552 3.91057 -1.16356 0
M  V30 1081 H 101.227 3.50326 -2.24153 0
M  V30 1082 H 99.8038 3.70513 -0.421225 0
M  V30 1083 N 101.989 0.842826 1.3317 0
M  V30 1084 C 103.4 0.496651 1.79973 0
M  V30 1085 C 103.751 -0.984641 1.69703 0
M  V30 1086 O 102.876 -1.76743 1.24863 0
M  V30 1087 C 103.471 0.894727 3.26772 0
M  V30 1088 C 102.03 0.600629 3.71577 0
M  V30 1089 C 101.177 1.10091 2.5451 0
M  V30 1090 H 104.128 1.03116 1.20635 0
M  V30 1091 H 104.149 0.206347 3.7994 0
M  V30 1092 H 103.661 1.97287 3.34215 0
M  V30 1093 H 101.762 -0.467284 3.69658 0
M  V30 1094 H 101.875 1.15863 4.64879 0
M  V30 1095 H 100.239 0.52162 2.49301 0
M  V30 1096 H 101.022 2.18591 2.64713 0
M  V30 1097 N 103.467 -1.45747 0.599634 0
M  V30 1098 C 104.713 -2.02592 0.0918643 0
M  V30 1099 C 105.046 -1.46806 -1.27128 0
M  V30 1100 O 104.321 -0.639658 -1.83681 0
M  V30 1101 C 104.604 -3.60073 0.0443398 0
M  V30 1102 C 104.457 -4.26208 1.43759 0
M  V30 1103 C 105.776 -4.35309 -0.647608 0
M  V30 1104 H 102.895 -0.736175 0.034857 0
M  V30 1105 H 105.537 -1.73694 0.770081 0
M  V30 1106 H 103.687 -3.84823 -0.533224 0
M  V30 1107 H 105.359 -4.12668 2.06162 0
M  V30 1108 H 103.602 -3.84916 2.00056 0
M  V30 1109 H 104.273 -5.35069 1.35665 0
M  V30 1110 H 106.749 -4.15805 -0.156776 0
M  V30 1111 H 105.625 -5.45038 -0.649942 0
M  V30 1112 H 105.886 -4.07598 -1.71219 0
M  V30 1113 N 104.945 -0.338344 -1.53925 0
M  V30 1114 C 106.17 0.263987 -2.05713 0
M  V30 1115 C 106.595 1.43847 -1.21201 0
M  V30 1116 O 105.953 1.79904 -0.224535 0
M  V30 1117 C 106.001 0.662 -3.54471 0
M  V30 1118 O 105.105 1.76265 -3.72833 0
M  V30 1119 H 104.446 0.0448722 -0.662482 0
M  V30 1120 H 106.976 -0.491048 -1.9862 0
M  V30 1121 H 106.986 0.940594 -3.9701 0
M  V30 1122 H 105.661 -0.196937 -4.15433 0
M  V30 1123 H 104.238 1.48173 -3.42198 0
M  V30 1124 N 106.423 1.57458 -0.0668435 0
M  V30 1125 C 107.672 1.92477 0.602947 0
M  V30 1126 C 107.985 0.948419 1.71068 0
M  V30 1127 O 109.191 1.19124 2.43971 0
M  V30 1128 C 107.647 3.41903 1.12383 0
M  V30 1129 C 107.255 4.47975 0.04737 0
M  V30 1130 C 108.999 3.85931 1.76797 0
M  V30 1131 C 106.906 5.88529 0.582022 0
M  V30 1132 H 105.836 0.718387 0.22899 0
M  V30 1133 H 108.487 1.82978 -0.138276 0
M  V30 1134 H 106.869 3.46459 1.91787 0
M  V30 1135 H 108.043 4.55029 -0.726978 0
M  V30 1136 H 106.358 4.13384 -0.500243 0
M  V30 1137 H 108.955 4.88322 2.17821 0
M  V30 1138 H 109.298 3.23029 2.62599 0
M  V30 1139 H 109.831 3.83958 1.04024 0
M  V30 1140 H 106.57 6.55065 -0.238721 0
M  V30 1141 H 106.09 5.85004 1.324 0
M  V30 1142 H 107.769 6.38258 1.05999 0
M  V30 1143 N 107.901 -0.206675 1.56239 0
M  V30 1144 C 109.126 -0.949474 1.8439 0
M  V30 1145 C 109.551 -1.76549 0.649016 0
M  V30 1146 O 108.909 -1.76782 -0.402231 0
M  V30 1147 C 108.957 -1.83078 3.10668 0
M  V30 1148 O 108.061 -2.9281 2.90407 0
M  V30 1149 H 107.402 -0.268033 0.607499 0
M  V30 1150 H 109.932 -0.215488 2.03462 0
M  V30 1151 H 109.942 -2.2377 3.41161 0
M  V30 1152 H 108.617 -1.23112 3.97261 0
M  V30 1153 H 107.194 -2.55956 2.71184 0
M  V30 1154 N 109.379 -1.50304 -0.473955 0
M  V30 1155 C 110.342 -1.6841 -1.55469 0
M  V30 1156 C 111.342 -0.554905 -1.50922 0
M  V30 1157 O 112.532 -0.821882 -1.53593 0
M  V30 1158 C 109.664 -1.70667 -2.95102 0
M  V30 1159 H 110.857 -2.64828 -1.40733 0
M  V30 1160 H 108.41 -1.39742 -0.700132 0
M  V30 1161 H 109.145 -0.75932 -3.15285 0
M  V30 1162 H 108.93 -2.52698 -2.9981 0
M  V30 1163 H 110.42 -1.8664 -3.73571 0
M  V30 1164 N 110.857 0.726932 -1.39834 0
M  V30 1165 C 111.82 1.82269 -1.38962 0
M  V30 1166 C 112.82 1.58248 -0.285334 0
M  V30 1167 O 114.01 1.65499 -0.54366 0
M  V30 1168 C 111.142 3.20186 -1.17019 0
M  V30 1169 H 112.335 1.84443 -2.36476 0
M  V30 1170 H 109.888 0.931416 -1.25516 0
M  V30 1171 H 110.623 3.23669 -0.202204 0
M  V30 1172 H 110.408 3.3902 -1.96998 0
M  V30 1173 H 111.898 4.00235 -1.1917 0
M  V30 1174 N 112.336 1.25143 0.95797 0
M  V30 1175 C 113.266 1.07711 2.07173 0
M  V30 1176 C 114.247 -0.0128462 1.70095 0
M  V30 1177 O 115.432 0.156061 1.93572 0
M  V30 1178 C 112.562 0.691503 3.40346 0
M  V30 1179 C 111.516 1.73132 3.9142 0
M  V30 1180 C 110.842 1.20049 5.21049 0
M  V30 1181 C 112.142 3.1294 4.1817 0
M  V30 1182 H 113.836 2.00873 2.22014 0
M  V30 1183 H 111.382 0.967191 1.06684 0
M  V30 1184 H 113.335 0.556505 4.17709 0
M  V30 1185 H 112.059 -0.275819 3.25433 0
M  V30 1186 H 110.718 1.8547 3.16222 0
M  V30 1187 H 110.366 0.223499 5.02503 0
M  V30 1188 H 110.066 1.89545 5.56189 0
M  V30 1189 H 111.59 1.07782 6.01012 0
M  V30 1190 H 113.004 3.03775 4.86203 0
M  V30 1191 H 111.401 3.79875 4.64559 0
M  V30 1192 H 112.471 3.6025 3.24573 0
M  V30 1193 N 113.814 -1.1601 1.06675 0
M  V30 1194 C 115.06 -1.86909 0.786945 0
M  V30 1195 C 115.393 -1.81717 -0.685018 0
M  V30 1196 O 114.668 -1.23551 -1.50218 0
M  V30 1197 C 114.951 -3.36313 1.28707 0
M  V30 1198 C 114.804 -3.50175 2.82308 0
M  V30 1199 C 116.123 -4.3084 0.898071 0
M  V30 1200 H 113.242 -0.678677 0.287343 0
M  V30 1201 H 115.884 -1.36336 1.32334 0
M  V30 1202 H 114.034 -3.79513 0.830768 0
M  V30 1203 H 115.706 -3.15886 3.36175 0
M  V30 1204 H 113.949 -2.91959 3.20847 0
M  V30 1205 H 114.62 -4.55116 3.12368 0
M  V30 1206 H 117.096 -3.95561 1.29114 0
M  V30 1207 H 115.972 -5.33876 1.27543 0
M  V30 1208 H 116.233 -4.41662 -0.196651 0
M  V30 1209 N 115.292 -0.849877 -1.32721 0
M  V30 1210 C 116.225 -0.235903 -2.26977 0
M  V30 1211 C 117.203 0.623355 -1.50177 0
M  V30 1212 O 118.387 0.581207 -1.79316 0
M  V30 1213 C 115.514 0.667712 -3.32053 0
M  V30 1214 C 114.56 -0.11753 -4.26338 0
M  V30 1215 S 115.393 -1.48277 -5.14562 0
M  V30 1216 C 116.549 -0.584741 -6.23163 0
M  V30 1217 H 116.782 -1.03495 -2.78704 0
M  V30 1218 H 114.315 -0.64724 -1.40179 0
M  V30 1219 H 116.273 1.18343 -3.93072 0
M  V30 1220 H 114.934 1.44052 -2.7912 0
M  V30 1221 H 114.127 0.57051 -5.00761 0
M  V30 1222 H 113.729 -0.564668 -3.69713 0
M  V30 1223 H 116.021 0.212968 -6.77165 0
M  V30 1224 H 116.964 -1.29947 -6.96074 0
M  V30 1225 H 117.372 -0.161202 -5.6427 0
M  V30 1226 N 116.77 1.45427 -0.607355 0
M  V30 1227 C 117.7 2.3329 0.0989352 0
M  V30 1228 C 118.681 1.46816 0.859007 0
M  V30 1229 O 119.866 1.75588 0.829604 0
M  V30 1230 C 116.996 3.29518 1.09705 0
M  V30 1231 C 115.95 4.25626 0.450206 0
M  V30 1232 C 115.276 5.11542 1.55655 0
M  V30 1233 C 116.576 5.18505 -0.628455 0
M  V30 1234 H 118.27 2.92595 -0.634716 0
M  V30 1235 H 115.816 1.40696 -0.306681 0
M  V30 1236 H 117.769 3.89855 1.59971 0
M  V30 1237 H 116.493 2.68372 1.86129 0
M  V30 1238 H 115.152 3.66586 -0.0315886 0
M  V30 1239 H 114.8 4.46765 2.31107 0
M  V30 1240 H 114.5 5.76647 1.12925 0
M  V30 1241 H 116.024 5.74748 2.06148 0
M  V30 1242 H 117.438 5.72916 -0.209877 0
M  V30 1243 H 115.835 5.92085 -0.977489 0
M  V30 1244 H 116.905 4.60948 -1.50514 0
M  V30 1245 N 118.248 0.346503 1.53744 0
M  V30 1246 C 119.473 -0.253074 2.0585 0
M  V30 1247 C 119.898 -1.43202 1.21962 0
M  V30 1248 O 119.256 -1.79783 0.234073 0
M  V30 1249 C 119.304 -0.643193 3.54817 0
M  V30 1250 O 118.408 -1.74286 3.73762 0
M  V30 1251 H 117.749 -0.0413583 0.662711 0
M  V30 1252 H 120.279 0.501574 1.98357 0
M  V30 1253 H 120.289 -0.919526 3.97503 0
M  V30 1254 H 118.964 0.218966 4.15323 0
M  V30 1255 H 117.541 -1.46356 3.42979 0
M  V30 1256 N 119.726 -1.57421 0.075193 0
M  V30 1257 C 120.973 -1.93618 -0.593146 0
M  V30 1258 C 121.301 -0.955484 -1.69413 0
M  V30 1259 O 120.556 0.0283251 -1.9568 0
M  V30 1260 C 120.855 -3.36428 -1.20626 0
M  V30 1261 C 120.521 -4.50307 -0.231078 0
M  V30 1262 C 119.183 -4.81186 0.0371936 0
M  V30 1263 C 121.535 -5.19374 0.435888 0
M  V30 1264 C 118.863 -5.78466 0.979461 0
M  V30 1265 C 121.215 -6.17665 1.3665 0
M  V30 1266 C 119.879 -6.46958 1.6432 0
M  V30 1267 H 119.149 -0.708499 -0.217047 0
M  V30 1268 H 121.796 -1.90937 0.146793 0
M  V30 1269 H 120.101 -3.35592 -2.02201 0
M  V30 1270 H 121.798 -3.61727 -1.73073 0
M  V30 1271 H 118.388 -4.26227 -0.450357 0
M  V30 1272 H 122.572 -4.95711 0.241748 0
M  V30 1273 H 117.828 -5.99487 1.20106 0
M  V30 1274 H 122.002 -6.70284 1.88924 0
M  V30 1275 H 119.629 -7.2215 2.37494 0
M  V30 1276 N 121.204 0.198386 -1.56346 0
M  V30 1277 C 122.452 0.91747 -1.80075 0
M  V30 1278 C 122.773 1.83929 -0.647692 0
M  V30 1279 O 122.043 1.93029 0.334166 0
M  V30 1280 H 120.623 0.341774 -0.664228 0
M  V30 1281 H 123.285 0.204684 -1.93822 0
M  V30 1282 H 122.381 1.51055 -2.7311 0
M  V30 1283 N 122.682 1.50554 0.465978 0
M  V30 1284 C 123.645 1.69233 1.54574 0
M  V30 1285 C 124.645 0.562901 1.50626 0
M  V30 1286 O 125.835 0.830016 1.53155 0
M  V30 1287 C 122.967 1.7223 2.94193 0
M  V30 1288 H 124.16 2.65571 1.39327 0
M  V30 1289 H 121.713 1.40111 0.692711 0
M  V30 1290 H 122.448 0.77603 3.14878 0
M  V30 1291 H 122.233 2.54285 2.98466 0
M  V30 1292 H 123.723 1.88618 3.72576 0
M  V30 1293 N 124.16 -0.719506 1.40217 0
M  V30 1294 C 125.4 -1.49181 1.39729 0
M  V30 1295 C 125.764 -1.92 -0.00250614 0
M  V30 1296 O 126.965 -2.68473 -0.132479 0
M  V30 1297 C 125.236 -2.68767 2.35582 0
M  V30 1298 S 126.795 -3.58224 2.53418 0
M  V30 1299 H 123.613 -0.510091 0.495307 0
M  V30 1300 H 126.215 -0.841724 1.76452 0
M  V30 1301 H 124.919 -2.35475 3.36124 0
M  V30 1302 H 124.45 -3.38691 2.0013 0
M  V30 1303 H 126.465 -4.63033 1.78367 0
M  V30 1304 N 125.638 -1.25649 -0.95132 0
M  V30 1305 C 126.878 -1.11802 -1.71113 0
M  V30 1306 C 127.242 0.334758 -1.89059 0
M  V30 1307 O 128.443 0.595121 -2.62129 0
M  V30 1308 C 126.714 -1.85512 -3.05483 0
M  V30 1309 S 128.273 -1.87597 -3.96677 0
M  V30 1310 H 125.091 -0.399552 -0.588115 0
M  V30 1311 H 127.693 -1.59222 -1.1344 0
M  V30 1312 H 126.397 -2.90299 -2.90094 0
M  V30 1313 H 125.928 -1.38493 -3.68216 0
M  V30 1314 H 127.943 -0.955389 -4.86916 0
M  V30 1315 N 127.117 1.15442 -1.07289 0
M  V30 1316 C 128.342 1.90638 -0.816828 0
M  V30 1317 C 128.767 1.77445 0.624083 0
M  V30 1318 O 128.125 1.10671 1.43602 0
M  V30 1319 C 128.173 3.39008 -1.22906 0
M  V30 1320 O 127.277 4.10701 -0.373975 0
M  V30 1321 H 126.618 0.593555 -0.297638 0
M  V30 1322 H 129.148 1.46198 -1.43134 0
M  V30 1323 H 129.158 3.89801 -1.20497 0
M  V30 1324 H 127.833 3.47929 -2.27856 0
M  V30 1325 H 126.41 3.70046 -0.460499 0
M  V30 1326 N 128.595 0.856903 1.32268 0
M  V30 1327 C 129.823 0.475439 2.01363 0
M  V30 1328 C 130.238 -0.928486 1.64392 0
M  V30 1329 O 129.595 -1.60624 0.866387 0
M  V30 1330 C 129.646 0.607545 3.56358 0
M  V30 1331 O 129.367 1.95617 3.92002 0
M  V30 1332 C 130.868 0.225382 4.42727 0
M  V30 1333 H 128.088 0.186636 0.644521 0
M  V30 1334 H 130.632 1.15446 1.68797 0
M  V30 1335 H 128.787 -0.0237719 3.87393 0
M  V30 1336 H 129.201 1.95455 4.86721 0
M  V30 1337 H 130.675 0.368813 5.50767 0
M  V30 1338 H 131.152 -0.834369 4.31202 0
M  V30 1339 H 131.758 0.831864 4.17085 0
M  V30 1340 N 130.073 -1.45103 0.615059 0
M  V30 1341 C 131.005 -2.28786 -0.13762 0
M  V30 1342 C 132.018 -1.40376 -0.824525 0
M  V30 1343 O 133.207 -1.64681 -0.688662 0
M  V30 1344 C 130.307 -3.16322 -1.21628 0
M  V30 1345 C 129.48 -4.33054 -0.615039 0
M  V30 1346 C 128.539 -5.01743 -1.58556 0
M  V30 1347 O 127.565 -5.58293 -1.10895 0
M  V30 1348 N 128.767 -5.01714 -2.91998 0
M  V30 1349 H 131.532 -2.94025 0.580483 0
M  V30 1350 H 129.093 -1.55373 0.45507 0
M  V30 1351 H 131.085 -3.59139 -1.86552 0
M  V30 1352 H 129.655 -2.52943 -1.83681 0
M  V30 1353 H 128.875 -3.93627 0.21245 0
M  V30 1354 H 130.163 -5.08431 -0.193704 0
M  V30 1355 H 129.561 -4.57075 -3.33316 0
M  V30 1356 H 128.118 -5.48371 -3.52325 0
M  V30 1357 N 131.551 -0.354651 -1.53558 0
M  V30 1358 C 132.779 0.239515 -2.05509 0
M  V30 1359 C 133.194 1.4333 -1.2289 0
M  V30 1360 O 132.551 1.80538 -0.266899 0
M  V30 1361 C 132.602 0.643719 -3.55723 0
M  V30 1362 O 132.323 -0.502602 -4.35207 0
M  V30 1363 C 133.824 1.29743 -4.23889 0
M  V30 1364 H 131.044 0.0442697 -0.669538 0
M  V30 1365 H 133.588 -0.509856 -1.98042 0
M  V30 1366 H 131.743 1.34302 -3.63376 0
M  V30 1367 H 132.157 -0.178172 -5.24197 0
M  V30 1368 H 133.631 1.53091 -5.30346 0
M  V30 1369 H 134.108 2.25441 -3.76926 0
M  V30 1370 H 134.714 0.639865 -4.20459 0
M  V30 1371 N 133.029 1.57378 -0.0835403 0
M  V30 1372 C 133.939 2.16897 0.894021 0
M  V30 1373 C 134.955 1.13528 1.31861 0
M  V30 1374 O 136.131 1.45848 1.3889 0
M  V30 1375 C 133.196 2.72831 2.13925 0
M  V30 1376 C 132.257 3.91115 1.76997 0
M  V30 1377 C 131.49 4.44371 2.95584 0
M  V30 1378 O 131.713 3.96596 4.09961 0
M  V30 1379 O 130.647 5.35549 2.74719 0
M  V30 1380 H 134.473 3.00814 0.417679 0
M  V30 1381 H 132.058 1.48741 0.140181 0
M  V30 1382 H 133.94 3.0863 2.86924 0
M  V30 1383 H 132.615 1.91967 2.60635 0
M  V30 1384 H 131.522 3.60148 1.01214 0
M  V30 1385 H 132.855 4.73307 1.3506 0
M  V30 1386 N 134.507 -0.190092 1.56449 0
M  V30 1387 C 135.756 -0.907912 1.80111 0
M  V30 1388 C 136.069 -1.84214 0.657619 0
M  V30 1389 O 137.275 -2.60094 0.778663 0
M  V30 1390 C 135.731 -1.66485 3.19078 0
M  V30 1391 C 135.339 -0.7752 4.41242 0
M  V30 1392 C 137.083 -2.37201 3.52045 0
M  V30 1393 C 134.99 -1.53129 5.71231 0
M  V30 1394 H 133.92 -0.34276 0.671589 0
M  V30 1395 H 136.571 -0.161109 1.82791 0
M  V30 1396 H 134.953 -2.45572 3.10661 0
M  V30 1397 H 136.127 -0.0226298 4.60794 0
M  V30 1398 H 134.442 -0.178627 4.16017 0
M  V30 1399 H 137.039 -2.94329 4.46402 0
M  V30 1400 H 137.382 -3.11632 2.76028 0
M  V30 1401 H 137.915 -1.65075 3.61932 0
M  V30 1402 H 134.654 -0.82967 6.50228 0
M  V30 1403 H 134.174 -2.25767 5.55688 0
M  V30 1404 H 135.853 -2.08377 6.12526 0
M  V30 1405 N 135.985 -1.50799 -0.457987 0
M  V30 1406 C 137.231 -1.62683 -1.21088 0
M  V30 1407 C 137.564 -0.332268 -1.91336 0
M  V30 1408 O 136.839 0.667043 -1.82704 0
M  V30 1409 C 137.122 -2.81615 -2.24422 0
M  V30 1410 C 136.975 -4.20989 -1.58392 0
M  V30 1411 C 138.294 -2.96085 -3.2561 0
M  V30 1412 H 135.413 -0.592087 -0.438864 0
M  V30 1413 H 138.055 -1.83225 -0.50286 0
M  V30 1414 H 136.205 -2.64231 -2.84806 0
M  V30 1415 H 137.877 -4.49994 -1.01504 0
M  V30 1416 H 136.12 -4.24641 -0.886704 0
M  V30 1417 H 136.791 -5.0016 -2.33547 0
M  V30 1418 H 139.267 -3.12042 -2.75262 0
M  V30 1419 H 138.143 -3.80902 -3.95228 0
M  V30 1420 H 138.404 -2.0726 -3.90507 0
M  V30 1421 N 137.463 0.71206 -1.40597 0
M  V30 1422 C 138.373 1.8562 -1.43466 0
M  V30 1423 C 139.389 1.70902 -0.326902 0
M  V30 1424 O 140.565 1.93105 -0.572043 0
M  V30 1425 C 137.63 3.21451 -1.29884 0
M  V30 1426 C 136.691 3.48398 -2.50833 0
M  V30 1427 C 135.924 4.77749 -2.3789 0
M  V30 1428 O 136.147 5.53089 -1.39459 0
M  V30 1429 O 135.081 5.05111 -3.27333 0
M  V30 1430 H 138.907 1.86155 -2.39958 0
M  V30 1431 H 136.492 0.86295 -1.21957 0
M  V30 1432 H 138.374 4.02579 -1.24531 0
M  V30 1433 H 137.049 3.21636 -0.364997 0
M  V30 1434 H 135.956 2.67265 -2.61763 0
M  V30 1435 H 137.289 3.53014 -3.4299 0
M  V30 1436 N 138.941 1.26152 0.944643 0
M  V30 1437 C 140.169 1.14259 1.72489 0
M  V30 1438 C 140.584 -0.302555 1.8636 0
M  V30 1439 O 139.941 -1.20741 1.36849 0
M  V30 1440 C 139.992 1.80266 3.13347 0
M  V30 1441 O 139.713 3.19133 3.00143 0
M  V30 1442 C 141.214 1.74283 4.07603 0
M  V30 1443 H 138.434 0.398051 0.540181 0
M  V30 1444 H 140.978 1.66706 1.18446 0
M  V30 1445 H 139.133 1.31766 3.64303 0
M  V30 1446 H 139.547 3.51744 3.89071 0
M  V30 1447 H 141.021 2.25111 5.04013 0
M  V30 1448 H 141.498 0.708631 4.33446 0
M  V30 1449 H 142.104 2.22319 3.62567 0
M  V30 1450 N 140.419 -1.14872 1.07899 0
M  V30 1451 C 141.349 -2.2193 0.725887 0
M  V30 1452 C 142.33 -1.67622 -0.28927 0
M  V30 1453 O 143.515 -1.93533 -0.160787 0
M  V30 1454 C 140.645 -3.47061 0.128856 0
M  V30 1455 C 139.599 -4.14363 1.07178 0
M  V30 1456 C 138.925 -5.33636 0.337229 0
M  V30 1457 C 140.225 -4.63492 2.40775 0
M  V30 1458 H 141.919 -2.51724 1.62097 0
M  V30 1459 H 139.465 -1.20991 0.780838 0
M  V30 1460 H 141.418 -4.21199 -0.130147 0
M  V30 1461 H 140.142 -3.16617 -0.80134 0
M  V30 1462 H 138.801 -3.42173 1.3158 0
M  V30 1463 H 138.449 -4.99449 -0.596606 0
M  V30 1464 H 138.149 -5.79609 0.965788 0
M  V30 1465 H 139.673 -6.10539 0.0861567 0
M  V30 1466 H 141.087 -5.2913 2.20669 0
M  V30 1467 H 139.484 -5.20148 2.99276 0
M  V30 1468 H 140.554 -3.78834 3.02676 0
M  V30 1469 N 141.898 -0.863906 -1.31812 0
M  V30 1470 C 143.146 -0.470904 -1.96537 0
M  V30 1471 C 143.467 0.978771 -1.68657 0
M  V30 1472 O 142.737 1.6853 -0.998717 0
M  V30 1473 H 141.317 -0.171148 -0.72713 0
M  V30 1474 H 143.979 -1.10236 -1.60729 0
M  V30 1475 H 143.075 -0.623616 -3.05806 0
M  V30 1476 N 143.376 1.44774 -0.622745 0
M  V30 1477 C 144.623 2.02121 -0.1239 0
M  V30 1478 C 144.951 1.48915 1.25118 0
M  V30 1479 O 144.206 0.660045 1.84233 0
M  V30 1480 C 144.505 3.57364 -0.0508323 0
M  V30 1481 C 144.171 4.29787 -1.36358 0
M  V30 1482 C 142.833 4.4929 -1.72314 0
M  V30 1483 C 145.185 4.71062 -2.23048 0
M  V30 1484 C 142.513 5.07325 -2.94682 0
M  V30 1485 C 144.865 5.30452 -3.44679 0
M  V30 1486 C 143.529 5.48175 -3.80868 0
M  V30 1487 H 142.799 0.739612 -0.0453381 0
M  V30 1488 H 145.446 1.73648 -0.807389 0
M  V30 1489 H 143.751 3.85202 0.715991 0
M  V30 1490 H 145.448 3.99456 0.351533 0
M  V30 1491 H 142.038 4.14932 -1.07375 0
M  V30 1492 H 146.222 4.55715 -1.96565 0
M  V30 1493 H 141.478 5.19235 -3.22809 0
M  V30 1494 H 145.652 5.61385 -4.12092 0
M  V30 1495 H 143.279 5.92912 -4.75773 0
M  V30 1496 N 144.854 0.36279 1.53368 0
M  V30 1497 C 145.802 -0.500155 2.27159 0
M  V30 1498 C 146.796 -1.08575 1.3003 0
M  V30 1499 O 148.002 -1.02927 1.47668 0
M  V30 1500 H 144.377 -0.180009 0.730138 0
M  V30 1501 H 146.348 0.14401 2.98052 0
M  V30 1502 C 145.097 -1.62937 3.07159 0
M  V30 1503 H 144.42 -1.18806 3.8174 0
M  V30 1504 H 145.86 -2.20795 3.61975 0
M  V30 1505 C 144.319 -2.57007 2.17829 0
M  V30 1506 O 144.849 -3.59752 1.78721 0
M  V30 1507 N 143.055 -2.26131 1.82518 0
M  V30 1508 H 142.602 -1.42616 2.14519 0
M  V30 1509 H 142.56 -2.89327 1.23034 0
M  V30 1510 N 146.332 -1.57332 0.0918853 0
M  V30 1511 C 147.262 -2.16872 -0.865371 0
M  V30 1512 C 148.243 -1.10118 -1.29646 0
M  V30 1513 O 149.428 -1.38242 -1.36392 0
M  V30 1514 C 146.558 -2.74649 -2.12569 0
M  V30 1515 C 145.512 -3.86747 -1.83333 0
M  V30 1516 C 144.838 -4.31212 -3.16166 0
M  V30 1517 C 146.138 -5.10089 -1.1228 0
M  V30 1518 H 147.832 -2.97114 -0.369307 0
M  V30 1519 H 145.378 -1.42918 -0.176194 0
M  V30 1520 H 147.331 -3.14952 -2.7997 0
M  V30 1521 H 146.055 -1.91657 -2.64452 0
M  V30 1522 H 144.714 -3.46978 -1.18331 0
M  V30 1523 H 144.362 -3.45115 -3.6593 0
M  V30 1524 H 144.062 -5.06788 -2.97388 0
M  V30 1525 H 145.586 -4.74146 -3.84731 0
M  V30 1526 H 147 -5.47582 -1.69785 0
M  V30 1527 H 145.397 -5.91073 -1.03693 0
M  V30 1528 H 146.467 -4.84786 -0.105041 0
M  V30 1529 N 147.81 0.181792 -1.56548 0
M  V30 1530 C 149.038 0.915947 -1.85521 0
M  V30 1531 C 149.453 1.76282 -0.676016 0
M  V30 1532 O 148.81 1.79012 0.355077 0
M  V30 1533 C 148.861 1.80126 -3.13427 0
M  V30 1534 O 148.582 0.988562 -4.26801 0
M  V30 1535 C 150.083 2.64597 -3.55673 0
M  V30 1536 H 147.303 0.26661 -0.61576 0
M  V30 1537 H 149.847 0.185039 -2.03661 0
M  V30 1538 H 148.002 2.48563 -2.97145 0
M  V30 1539 H 148.416 1.59308 -4.99721 0
M  V30 1540 H 149.89 3.2235 -4.48101 0
M  V30 1541 H 150.367 3.38958 -2.79292 0
M  V30 1542 H 150.973 2.0151 -3.74532 0
M  V30 1543 N 149.288 1.51039 0.449983 0
M  V30 1544 C 150.565 1.53612 1.21089 0
M  V30 1545 C 150.945 0.292997 2.09057 0
M  V30 1546 O 150.293 -0.72259 2.16774 0
M  V30 1547 C 150.503 2.84337 2.0237 0
M  V30 1548 C 151.851 3.35807 2.59843 0
M  V30 1549 O 152.875 2.85802 2.12593 0
M  V30 1550 O 151.734 4.23029 3.45989 0
M  V30 1551 H 148.828 0.617057 0.550608 0
M  V30 1552 H 151.374 1.63344 0.460082 0
M  V30 1553 H 150.146 3.66278 1.37681 0
M  V30 1554 H 149.769 2.77708 2.84542 0
M  V30 1555 N 150.766 -0.704594 1.40972 0
M  V30 1556 C 151.994 -1.49354 1.43182 0
M  V30 1557 C 152.409 -1.88768 0.0345508 0
M  V30 1558 O 151.766 -1.56184 -0.944081 0
M  V30 1559 C 151.817 -2.76187 2.33244 0
M  V30 1560 O 151.538 -2.38436 3.67532 0
M  V30 1561 C 153.039 -3.7 2.44162 0
M  V30 1562 H 150.259 -0.460559 0.487982 0
M  V30 1563 H 152.803 -0.868261 1.85153 0
M  V30 1564 H 150.958 -3.34974 1.94606 0
M  V30 1565 H 151.372 -3.20126 4.15475 0
M  V30 1566 H 152.846 -4.55803 3.11364 0
M  V30 1567 H 153.323 -4.13867 1.47006 0
M  V30 1568 H 153.929 -3.17121 2.83398 0
M  V30 1569 N 152.244 -1.26651 -0.937939 0
M  V30 1570 C 153.655 -1.1125 -1.49934 0
M  V30 1571 C 154.006 0.306077 -1.93798 0
M  V30 1572 O 153.131 1.19792 -1.80219 0
M  V30 1573 C 153.726 -2.01339 -2.72485 0
M  V30 1574 C 152.285 -1.90074 -3.24883 0
M  V30 1575 C 151.432 -1.94498 -1.97651 0
M  V30 1576 H 154.383 -1.39693 -0.753091 0
M  V30 1577 H 154.404 -1.56319 -3.46907 0
M  V30 1578 H 153.916 -3.04577 -2.40529 0
M  V30 1579 H 152.017 -0.897827 -3.61621 0
M  V30 1580 H 152.13 -2.75778 -3.9177 0
M  V30 1581 H 150.494 -1.38591 -2.13693 0
M  V30 1582 H 151.277 -2.99372 -1.68022 0
M  V30 1583 N 153.722 1.14298 -1.08507 0
M  V30 1584 C 154.655 2.18447 -0.660004 0
M  V30 1585 C 155.633 1.59242 0.328749 0
M  V30 1586 O 156.817 1.87062 0.232367 0
M  V30 1587 C 153.944 3.38688 0.0290807 0
M  V30 1588 C 152.99 4.1646 -0.919982 0
M  V30 1589 S 153.823 4.77334 -2.42718 0
M  V30 1590 C 154.979 6.00931 -1.75024 0
M  V30 1591 H 155.212 2.54166 -1.54231 0
M  V30 1592 H 152.745 1.25446 -0.900149 0
M  V30 1593 H 154.703 4.08342 0.420378 0
M  V30 1594 H 153.364 3.01289 0.887895 0
M  V30 1595 H 152.557 5.02529 -0.384751 0
M  V30 1596 H 152.159 3.52414 -1.25223 0
M  V30 1597 H 154.451 6.69017 -1.06877 0
M  V30 1598 H 155.394 6.59044 -2.58971 0
M  V30 1599 H 155.802 5.51089 -1.22317 0
M  V30 1600 N 155.201 0.870884 1.31352 0
M  V30 1601 C 156.447 0.482987 1.96965 0
M  V30 1602 C 156.78 -0.962462 1.68672 0
M  V30 1603 O 156.055 -1.6779 0.98371 0
M  V30 1604 C 156.338 0.741752 3.52378 0
M  V30 1605 C 156.191 2.2368 3.9024 0
M  V30 1606 C 157.51 0.208838 4.39604 0
M  V30 1607 H 154.629 0.176955 0.715441 0
M  V30 1608 H 157.271 1.09229 1.55464 0
M  V30 1609 H 155.421 0.223149 3.87859 0
M  V30 1610 H 157.093 2.82273 3.64856 0
M  V30 1611 H 155.336 2.70901 3.38814 0
M  V30 1612 H 156.007 2.3685 4.98604 0
M  V30 1613 H 158.483 0.652529 4.10952 0
M  V30 1614 H 157.359 0.419336 5.47296 0
M  V30 1615 H 157.62 -0.889275 4.33064 0
M  V30 1616 N 156.679 -1.44442 0.630414 0
M  V30 1617 C 157.589 -2.34476 -0.0761693 0
M  V30 1618 C 158.605 -1.52576 -0.836449 0
M  V30 1619 O 159.781 -1.85307 -0.788874 0
M  V30 1620 C 156.846 -3.30545 -1.04599 0
M  V30 1621 C 155.907 -4.28352 -0.28516 0
M  V30 1622 C 155.14 -5.19831 -1.20878 0
M  V30 1623 O 155.363 -5.15223 -2.44747 0
M  V30 1624 O 154.297 -5.97892 -0.693491 0
M  V30 1625 H 158.123 -2.96345 0.664324 0
M  V30 1626 H 155.708 -1.44203 0.39061 0
M  V30 1627 H 157.59 -3.89681 -1.60396 0
M  V30 1628 H 156.265 -2.7121 -1.76711 0
M  V30 1629 H 155.172 -3.72764 0.315837 0
M  V30 1630 H 156.505 -4.90605 0.395924 0
M  V30 1631 N 158.157 -0.370918 -1.53173 0
M  V30 1632 C 159.406 0.218249 -2.00516 0
M  V30 1633 C 159.719 1.49429 -1.26215 0
M  V30 1634 O 160.925 2.16239 -1.64174 0
M  V30 1635 C 159.381 0.43948 -3.57207 0
M  V30 1636 C 158.989 -0.822244 -4.4039 0
M  V30 1637 C 160.733 0.986012 -4.1289 0
M  V30 1638 C 158.64 -0.570304 -5.88644 0
M  V30 1639 H 157.57 0.0853333 -0.749156 0
M  V30 1640 H 160.221 -0.490483 -1.76823 0
M  V30 1641 H 158.603 1.20961 -3.77074 0
M  V30 1642 H 159.777 -1.59557 -4.32294 0
M  V30 1643 H 158.092 -1.29238 -3.95836 0
M  V30 1644 H 160.689 1.18991 -5.21292 0
M  V30 1645 H 161.032 1.94972 -3.6782 0
M  V30 1646 H 161.565 0.27592 -3.96842 0
M  V30 1647 H 158.304 -1.50449 -6.38001 0
M  V30 1648 H 157.824 0.164427 -5.99575 0
M  V30 1649 H 159.503 -0.19784 -6.46697 0
M  V30 1650 N 159.635 1.57281 -0.100228 0
M  V30 1651 C 160.567 2.11342 0.886972 0
M  V30 1652 C 161.58 1.05182 1.24261 0
M  V30 1653 O 162.769 1.32613 1.19483 0
M  V30 1654 C 159.869 2.5825 2.19454 0
M  V30 1655 C 159.042 3.88302 2.01346 0
M  V30 1656 C 158.101 4.21004 3.15661 0
M  V30 1657 O 157.127 4.9014 2.89398 0
M  V30 1658 N 158.329 3.76818 4.41575 0
M  V30 1659 H 161.094 2.96668 0.425216 0
M  V30 1660 H 158.655 1.61678 0.0847334 0
M  V30 1661 H 160.647 2.7717 2.94888 0
M  V30 1662 H 159.217 1.77907 2.57037 0
M  V30 1663 H 158.437 3.7848 1.10212 0
M  V30 1664 H 159.725 4.73375 1.8653 0
M  V30 1665 H 159.123 3.2102 4.65792 0
M  V30 1666 H 157.68 4.00882 5.13942 0
M  V30 1667 N 161.113 -0.173488 1.56642 0
M  V30 1668 C 162.063 -1.21941 1.92651 0
M  V30 1669 C 163.047 -1.39912 0.794577 0
M  V30 1670 O 164.239 -1.41919 1.05773 0
M  V30 1671 C 161.368 -2.55935 2.28806 0
M  V30 1672 C 160.454 -2.41667 3.48508 0
M  V30 1673 N 160.845 -1.9711 4.65813 0
M  V30 1674 C 159.143 -2.72499 3.53072 0
M  V30 1675 C 159.844 -1.95253 5.47952 0
M  V30 1676 N 158.82 -2.37575 4.88937 0
M  V30 1677 H 162.622 -0.866581 2.80834 0
M  V30 1678 H 160.136 -0.381776 1.57849 0
M  V30 1679 H 162.133 -3.31511 2.52797 0
M  V30 1680 H 160.793 -2.92022 1.41961 0
M  V30 1681 H 161.804 -1.67481 4.90072 0
M  V30 1682 H 158.481 -3.12639 2.767 0
M  V30 1683 H 159.871 -1.6252 6.51948 0
M  V30 1684 N 162.591 -1.51276 -0.441967 0
M  V30 1685 C 163.839 -1.63392 -1.18943 0
M  V30 1686 C 164.16 -0.350159 -1.9183 0
M  V30 1687 O 163.43 0.633784 -1.85364 0
M  V30 1688 H 162.01 -0.602164 -0.442049 0
M  V30 1689 H 164.672 -1.88186 -0.507165 0
M  V30 1690 H 163.768 -2.45934 -1.92154 0
M  V30 1691 N 164.069 0.697108 -1.41344 0
M  V30 1692 C 165.316 1.45714 -1.40619 0
M  V30 1693 C 165.644 1.94494 -0.0147907 0
M  V30 1694 O 164.899 1.69794 0.973066 0
M  V30 1695 C 165.198 2.68553 -2.35826 0
M  V30 1696 C 164.864 2.38438 -3.82698 0
M  V30 1697 C 163.526 2.29936 -4.22709 0
M  V30 1698 C 165.878 2.13567 -4.75435 0
M  V30 1699 C 163.206 1.94656 -5.53467 0
M  V30 1700 C 165.558 1.79797 -6.06511 0
M  V30 1701 C 164.222 1.69789 -6.45545 0
M  V30 1702 H 163.492 0.533206 -0.51456 0
M  V30 1703 H 166.139 0.796901 -1.74131 0
M  V30 1704 H 164.444 3.39503 -1.95563 0
M  V30 1705 H 166.141 3.2669 -2.32539 0
M  V30 1706 H 162.731 2.4595 -3.51008 0
M  V30 1707 H 166.915 2.19082 -4.45328 0
M  V30 1708 H 162.171 1.8546 -5.82593 0
M  V30 1709 H 166.345 1.59572 -6.77872 0
M  V30 1710 H 163.972 1.4222 -7.46778 0
M  V30 1711 N 165.547 1.27147 0.931209 0
M  V30 1712 C 166.479 1.05364 2.03546 0
M  V30 1713 C 167.492 0.0108438 1.62796 0
M  V30 1714 O 168.681 0.25202 1.76712 0
M  V30 1715 C 165.781 0.575566 3.33977 0
M  V30 1716 C 164.954 1.68985 4.03439 0
M  V30 1717 C 164.013 1.20813 5.12143 0
M  V30 1718 O 163.039 1.90712 5.363 0
M  V30 1719 N 164.241 0.0618851 5.80467 0
M  V30 1720 H 167.006 2.00454 2.22796 0
M  V30 1721 H 164.567 1.18666 1.10136 0
M  V30 1722 H 166.559 0.237264 4.04004 0
M  V30 1723 H 165.129 -0.282016 3.11325 0
M  V30 1724 H 164.349 2.19861 3.27192 0
M  V30 1725 H 165.637 2.4378 4.46597 0
M  V30 1726 H 165.035 -0.521621 5.6329 0
M  V30 1727 H 163.592 -0.217264 6.51438 0
M  V30 1728 N 167.025 -1.13721 1.09112 0
M  V30 1729 C 167.975 -2.17082 0.697091 0
M  V30 1730 C 168.959 -1.58321 -0.286923 0
M  V30 1731 O 170.151 -1.7673 -0.0978008 0
M  V30 1732 C 167.28 -3.43105 0.115729 0
M  V30 1733 C 166.366 -4.0888 1.12596 0
M  V30 1734 N 166.757 -4.4987 2.31195 0
M  V30 1735 C 165.055 -4.35471 0.963366 0
M  V30 1736 C 165.756 -5.01094 2.95431 0
M  V30 1737 N 164.732 -4.95751 2.23006 0
M  V30 1738 H 168.534 -2.46524 1.6001 0
M  V30 1739 H 166.048 -1.30481 0.966869 0
M  V30 1740 H 168.045 -4.16491 -0.184555 0
M  V30 1741 H 166.705 -3.15138 -0.78217 0
M  V30 1742 H 167.716 -4.42678 2.68806 0
M  V30 1743 H 164.393 -4.17328 0.119878 0
M  V30 1744 H 165.783 -5.4263 3.96236 0
M  V30 1745 N 168.503 -0.877838 -1.30888 0
M  V30 1746 C 169.433 -0.35534 -2.3078 0
M  V30 1747 C 170.414 0.557994 -1.60687 0
M  V30 1748 O 171.599 0.473355 -1.88343 0
M  V30 1749 C 168.729 0.437221 -3.44537 0
M  V30 1750 C 167.683 -0.383715 -4.26276 0
M  V30 1751 C 167.009 0.535014 -5.32017 0
M  V30 1752 C 168.309 -1.62201 -4.96476 0
M  V30 1753 H 170.003 -1.19007 -2.74732 0
M  V30 1754 H 167.549 -0.573698 -1.32078 0
M  V30 1755 H 169.502 0.813334 -4.13477 0
M  V30 1756 H 168.226 1.30553 -2.99372 0
M  V30 1757 H 166.885 -0.741874 -3.59015 0
M  V30 1758 H 166.533 1.40083 -4.831 0
M  V30 1759 H 166.233 -0.0104211 -5.87599 0
M  V30 1760 H 167.757 0.907799 -6.03814 0
M  V30 1761 H 169.171 -1.31689 -5.5797 0
M  V30 1762 H 167.568 -2.10711 -5.61891 0
M  V30 1763 H 168.638 -2.37044 -4.23011 0
M  V30 1764 N 169.982 1.44106 -0.638065 0
M  V30 1765 C 171.231 2.01194 -0.142744 0
M  V30 1766 C 171.544 1.50835 1.24532 0
M  V30 1767 O 172.75 2.00096 1.83504 0
M  V30 1768 C 171.206 3.59319 -0.20442 0
M  V30 1769 C 170.814 4.18674 -1.59423 0
M  V30 1770 C 172.558 4.23854 0.234079 0
M  V30 1771 C 170.465 5.69045 -1.61065 0
M  V30 1772 H 169.395 0.752367 -0.0495998 0
M  V30 1773 H 172.046 1.65246 -0.797881 0
M  V30 1774 H 170.428 3.92598 0.517946 0
M  V30 1775 H 171.602 3.96921 -2.34074 0
M  V30 1776 H 169.917 3.66453 -1.97741 0
M  V30 1777 H 172.514 5.34155 0.241443 0
M  V30 1778 H 172.857 3.96688 1.2627 0
M  V30 1779 H 173.39 3.95403 -0.436025 0
M  V30 1780 H 170.129 6.00956 -2.61787 0
M  V30 1781 H 169.649 5.929 -0.90718 0
M  V30 1782 H 171.328 6.32809 -1.34766 0
M  V30 1783 N 171.46 0.379036 1.52974 0
M  V30 1784 C 172.7 -0.206325 2.03356 0
M  V30 1785 C 173.064 -1.44892 1.25977 0
M  V30 1786 O 174.265 -2.11078 1.66432 0
M  V30 1787 C 172.536 -0.477887 3.54191 0
M  V30 1788 S 174.095 -1.035 4.26419 0
M  V30 1789 H 170.913 -0.0590259 0.708546 0
M  V30 1790 H 173.515 0.525013 1.88319 0
M  V30 1791 H 172.219 0.433745 4.08101 0
M  V30 1792 H 171.75 -1.23793 3.73415 0
M  V30 1793 H 173.765 -2.31821 4.38718 0
M  V30 1794 N 172.938 -1.57226 0.108567 0
M  V30 1795 C 174.163 -1.99604 -0.563303 0
M  V30 1796 C 174.588 -0.987563 -1.6009 0
M  V30 1797 O 173.946 0.0421687 -1.81251 0
M  V30 1798 C 173.994 -3.40902 -1.17552 0
M  V30 1799 O 173.098 -3.42896 -2.2912 0
M  V30 1800 H 172.439 -0.648704 -0.1417 0
M  V30 1801 H 174.969 -2.03679 0.193961 0
M  V30 1802 H 174.979 -3.78886 -1.51357 0
M  V30 1803 H 173.654 -4.1382 -0.415445 0
M  V30 1804 H 172.231 -3.1672 -1.96832 0
M  V30 1805 N 174.416 0.165178 -1.56732 0
M  V30 1806 C 175.346 1.20651 -1.99914 0
M  V30 1807 C 176.327 1.45827 -0.875705 0
M  V30 1808 O 177.512 1.57057 -1.14223 0
M  V30 1809 C 174.642 2.54401 -2.36427 0
M  V30 1810 C 173.596 2.43782 -3.51787 0
M  V30 1811 C 172.922 3.82078 -3.7406 0
M  V30 1812 C 174.222 1.93732 -4.85041 0
M  V30 1813 H 175.916 0.847534 -2.87154 0
M  V30 1814 H 173.462 0.40625 -1.38151 0
M  V30 1815 H 175.415 3.27458 -2.65234 0
M  V30 1816 H 174.139 2.92098 -1.46103 0
M  V30 1817 H 172.798 1.73178 -3.23117 0
M  V30 1818 H 172.446 4.17179 -2.81017 0
M  V30 1819 H 172.146 3.7584 -4.51684 0
M  V30 1820 H 173.67 4.56712 -4.05274 0
M  V30 1821 H 175.084 2.56569 -5.12684 0
M  V30 1822 H 173.481 1.98428 -5.66345 0
M  V30 1823 H 174.551 0.891962 -4.76626 0
M  V30 1824 N 175.894 1.51508 0.433938 0
M  V30 1825 C 176.842 1.73646 1.54757 0
M  V30 1826 C 177.836 0.602854 1.5831 0
M  V30 1827 O 179.042 0.784318 1.62014 0
M  V30 1828 H 175.417 0.548718 0.51421 0
M  V30 1829 H 177.388 2.66991 1.33261 0
M  V30 1830 C 176.137 1.88172 2.92381 0
M  V30 1831 H 175.46 2.74808 2.90381 0
M  V30 1832 H 176.9 2.07672 3.6966 0
M  V30 1833 C 175.359 0.64239 3.30719 0
M  V30 1834 O 175.889 -0.201362 4.01195 0
M  V30 1835 N 174.095 0.485489 2.86516 0
M  V30 1836 H 173.642 1.17318 2.29334 0
M  V30 1837 H 173.6 -0.342482 3.12529 0
M  V30 1838 N 177.372 -0.689602 1.41712 0
M  V30 1839 C 178.619 -1.44966 1.4139 0
M  V30 1840 C 178.947 -1.94484 0.025105 0
M  V30 1841 O 178.202 -1.70307 -0.964048 0
M  V30 1842 C 178.501 -2.67298 2.37247 0
M  V30 1843 C 178.167 -2.36405 3.83958 0
M  V30 1844 C 176.829 -2.27691 4.23923 0
M  V30 1845 C 179.181 -2.11043 4.76561 0
M  V30 1846 C 176.509 -1.91719 5.54492 0
M  V30 1847 C 178.861 -1.76578 6.07456 0
M  V30 1848 C 177.525 -1.66363 6.46436 0
M  V30 1849 H 176.795 -0.53047 0.517381 0
M  V30 1850 H 179.442 -0.787655 1.74552 0
M  V30 1851 H 177.747 -3.38461 1.9736 0
M  V30 1852 H 179.444 -3.25452 2.34269 0
M  V30 1853 H 176.034 -2.44085 3.52308 0
M  V30 1854 H 180.218 -2.16717 4.46483 0
M  V30 1855 H 175.474 -1.82367 5.83568 0
M  V30 1856 H 179.648 -1.55974 6.78708 0
M  V30 1857 H 177.275 -1.38258 7.47522 0
M  V30 1858 N 178.85 -1.27639 -0.924453 0
M  V30 1859 C 180.261 -1.12834 -1.48746 0
M  V30 1860 C 180.612 0.285505 -1.94112 0
M  V30 1861 O 179.737 1.17874 -1.81479 0
M  V30 1862 C 180.332 -2.04217 -2.70334 0
M  V30 1863 C 178.891 -1.93509 -3.22848 0
M  V30 1864 C 178.038 -1.96583 -1.95577 0
M  V30 1865 H 180.989 -1.40484 -0.738233 0
M  V30 1866 H 181.01 -1.59989 -3.4523 0
M  V30 1867 H 180.522 -3.07111 -2.37285 0
M  V30 1868 H 178.623 -0.936131 -3.60649 0
M  V30 1869 H 178.736 -2.79917 -3.88823 0
M  V30 1870 H 177.1 -1.4085 -2.12211 0
M  V30 1871 H 177.883 -3.01137 -1.64837 0
M  V30 1872 N 180.328 1.1314 -1.09713 0
M  V30 1873 C 181.275 2.18642 -0.739196 0
M  V30 1874 C 182.245 1.63706 0.280978 0
M  V30 1875 O 183.43 1.90111 0.161946 0
M  V30 1876 C 180.57 3.44685 -0.169102 0
M  V30 1877 C 179.683 4.13711 -1.24367 0
M  V30 1878 C 178.818 5.27379 -0.636019 0
M  V30 1879 C 177.857 5.88259 -1.69169 0
M  V30 1880 N 176.994 6.93352 -1.10485 0
M  V30 1881 H 181.834 2.48607 -1.64312 0
M  V30 1882 H 179.371 1.22066 -0.820875 0
M  V30 1883 H 181.329 4.16815 0.179256 0
M  V30 1884 H 179.959 3.15161 0.698079 0
M  V30 1885 H 179.011 3.39835 -1.70927 0
M  V30 1886 H 180.323 4.55037 -2.04311 0
M  V30 1887 H 179.477 6.06238 -0.236677 0
M  V30 1888 H 178.216 4.8731 0.194928 0
M  V30 1889 H 177.221 5.08092 -2.10055 0
M  V30 1890 H 178.446 6.30399 -2.52536 0
M  V30 1891 H 176.392 6.55335 -0.295234 0
M  V30 1892 H 176.309 7.33236 -1.84121 0
M  V30 1893 H 177.577 7.76057 -0.73181 0
M  V30 1894 N 181.806 0.884767 1.30421 0
M  V30 1895 C 182.753 0.349642 2.28136 0
M  V30 1896 C 183.723 -0.560061 1.56373 0
M  V30 1897 O 184.908 -0.488524 1.8444 0
M  V30 1898 C 182.048 -0.42999 3.42411 0
M  V30 1899 C 181.161 0.508907 4.28992 0
M  V30 1900 C 180.296 -0.286301 5.30428 0
M  V30 1901 C 179.335 0.648079 6.08659 0
M  V30 1902 N 178.472 -0.111792 7.02011 0
M  V30 1903 H 183.312 1.18807 2.73293 0
M  V30 1904 H 180.849 0.597231 1.3443 0
M  V30 1905 H 182.807 -0.897923 4.07423 0
M  V30 1906 H 181.437 -1.23299 2.98324 0
M  V30 1907 H 180.489 1.09533 3.64289 0
M  V30 1908 H 181.801 1.22475 4.8353 0
M  V30 1909 H 180.955 -0.816098 6.01186 0
M  V30 1910 H 179.694 -1.03536 4.76583 0
M  V30 1911 H 178.699 1.18951 5.36778 0
M  V30 1912 H 179.924 1.39623 6.64592 0
M  V30 1913 H 177.87 -0.843395 6.50556 0
M  V30 1914 H 177.787 0.544429 7.54037 0
M  V30 1915 H 179.055 -0.622339 7.77012 0
M  V30 1916 N 183.284 -1.43765 0.645699 0
M  V30 1917 C 184.194 -2.34544 -0.0512957 0
M  V30 1918 C 185.21 -1.53455 -0.82022 0
M  V30 1919 O 186.386 -1.86133 -0.769176 0
M  V30 1920 C 183.451 -3.31636 -1.01087 0
M  V30 1921 C 182.512 -4.2863 -0.239712 0
M  V30 1922 C 181.745 -5.21084 -1.15358 0
M  V30 1923 O 181.968 -5.1779 -2.39269 0
M  V30 1924 O 180.902 -5.98593 -0.630038 0
M  V30 1925 H 184.728 -2.95624 0.695718 0
M  V30 1926 H 182.313 -1.43781 0.405882 0
M  V30 1927 H 184.195 -3.9136 -1.56254 0
M  V30 1928 H 182.87 -2.73069 -1.73824 0
M  V30 1929 H 181.777 -3.72408 0.355356 0
M  V30 1930 H 183.11 -4.90157 0.447936 0
M  V30 1931 N 184.763 -0.387143 -1.52771 0
M  V30 1932 C 185.693 0.440551 -2.29306 0
M  V30 1933 C 186.674 1.06535 -1.32606 0
M  V30 1934 O 187.859 1.07853 -1.61497 0
M  V30 1935 C 184.989 1.56919 -3.09829 0
M  V30 1936 C 183.943 1.07054 -4.14395 0
M  V30 1937 C 183.269 2.29109 -4.83129 0
M  V30 1938 C 184.569 0.140015 -5.22112 0
M  V30 1939 H 186.263 -0.198026 -2.98744 0
M  V30 1940 H 183.809 -0.09668 -1.43675 0
M  V30 1941 H 185.762 2.15503 -3.62128 0
M  V30 1942 H 184.486 2.23532 -2.3812 0
M  V30 1943 H 183.145 0.507247 -3.63074 0
M  V30 1944 H 182.793 2.94227 -4.0797 0
M  V30 1945 H 182.493 1.96406 -5.53804 0
M  V30 1946 H 184.017 2.88339 -5.38231 0
M  V30 1947 H 185.431 0.633978 -5.69784 0
M  V30 1948 H 183.828 -0.0971485 -6.00021 0
M  V30 1949 H 184.898 -0.811711 -4.78058 0
M  V30 1950 N 186.241 1.57166 -0.116904 0
M  V30 1951 C 187.151 2.18745 0.847812 0
M  V30 1952 C 188.167 1.163 1.29423 0
M  V30 1953 O 189.343 1.48761 1.35765 0
M  V30 1954 C 186.408 2.77307 2.0809 0
M  V30 1955 C 185.469 3.94781 1.68661 0
M  V30 1956 C 184.702 4.50541 2.86091 0
M  V30 1957 O 184.925 4.05202 4.01456 0
M  V30 1958 O 183.859 5.41256 2.63298 0
M  V30 1959 H 187.685 3.01632 0.353778 0
M  V30 1960 H 185.27 1.49005 0.108599 0
M  V30 1961 H 187.152 3.14647 2.80313 0
M  V30 1962 H 185.827 1.97452 2.56504 0
M  V30 1963 H 184.734 3.62214 0.935518 0
M  V30 1964 H 186.067 4.76065 1.24991 0
M  V30 1965 N 187.719 -0.156864 1.56817 0
M  V30 1966 C 188.649 -1.19589 2.00551 0
M  V30 1967 C 189.63 -1.4536 0.883426 0
M  V30 1968 O 190.815 -1.56449 1.15054 0
M  V30 1969 C 187.945 -2.53143 2.37773 0
M  V30 1970 C 186.899 -2.41913 3.53075 0
M  V30 1971 C 186.225 -3.80088 3.76081 0
M  V30 1972 C 187.525 -1.91157 4.86062 0
M  V30 1973 H 189.219 -0.832293 2.87599 0
M  V30 1974 H 186.765 -0.398918 1.38364 0
M  V30 1975 H 188.718 -3.26047 2.66967 0
M  V30 1976 H 187.442 -2.91319 1.4765 0
M  V30 1977 H 186.101 -1.71462 3.24031 0
M  V30 1978 H 185.749 -4.15683 2.83225 0
M  V30 1979 H 185.449 -3.73439 4.53671 0
M  V30 1980 H 186.973 -4.54556 4.0769 0
M  V30 1981 H 188.387 -2.53846 5.14038 0
M  V30 1982 H 186.784 -1.95422 5.67389 0
M  V30 1983 H 187.854 -0.866673 4.77092 0
M  V30 1984 N 189.197 -1.51736 -0.425897 0
M  V30 1985 C 190.129 -1.70083 -1.53638 0
M  V30 1986 C 191.142 -0.581349 -1.52066 0
M  V30 1987 O 192.331 -0.856017 -1.56635 0
M  V30 1988 C 189.431 -1.71078 -2.9255 0
M  V30 1989 C 188.604 -2.99795 -3.185 0
M  V30 1990 C 187.663 -2.92825 -4.37196 0
M  V30 1991 O 186.689 -3.66756 -4.35291 0
M  V30 1992 N 187.891 -2.0946 -5.41393 0
M  V30 1993 H 190.656 -2.65882 -1.383 0
M  V30 1994 H 188.217 -1.49765 -0.614988 0
M  V30 1995 H 190.209 -1.63969 -3.69995 0
M  V30 1996 H 188.779 -0.828242 -3.01428 0
M  V30 1997 H 187.999 -3.20684 -2.2925 0
M  V30 1998 H 189.287 -3.84977 -3.32671 0
M  V30 1999 H 188.685 -1.48792 -5.45781 0
M  V30 2000 H 187.242 -2.08221 -6.17647 0
M  V30 2001 N 190.675 0.682077 -1.42076 0
M  V30 2002 C 191.924 1.43786 -1.41451 0
M  V30 2003 C 192.237 1.95574 -0.0317074 0
M  V30 2004 O 193.443 2.71326 0.0971462 0
M  V30 2005 C 191.899 2.60071 -2.48779 0
M  V30 2006 C 191.507 2.15013 -3.93031 0
M  V30 2007 C 193.251 3.37626 -2.57311 0
M  V30 2008 C 191.158 3.28336 -4.91883 0
M  V30 2009 H 190.088 0.540143 -0.526082 0
M  V30 2010 H 192.739 0.739157 -1.67955 0
M  V30 2011 H 191.121 3.32275 -2.15429 0
M  V30 2012 H 192.295 1.5001 -4.35699 0
M  V30 2013 H 190.61 1.50416 -3.88284 0
M  V30 2014 H 193.207 4.22012 -3.28345 0
M  V30 2015 H 193.55 3.83727 -1.61429 0
M  V30 2016 H 194.083 2.72488 -2.89819 0
M  V30 2017 H 190.822 2.87234 -5.89217 0
M  V30 2018 H 190.342 3.92145 -4.53853 0
M  V30 2019 H 192.021 3.93913 -5.13265 0
M  V30 2020 N 192.153 1.28127 0.917671 0
M  V30 2021 C 193.401 1.14825 1.66312 0
M  V30 2022 C 193.722 -0.304379 1.9261 0
M  V30 2023 O 192.992 -1.21149 1.53947 0
M  V30 2024 H 191.572 0.421953 0.616413 0
M  V30 2025 H 194.234 1.608 1.10134 0
M  V30 2026 H 193.33 1.68489 2.62712 0
M  V30 2027 N 193.631 -1.12557 1.10312 0
M  V30 2028 C 194.579 -2.20325 0.745629 0
M  V30 2029 C 195.573 -1.67429 -0.25763 0
M  V30 2030 O 196.779 -1.79612 -0.118132 0
M  V30 2031 H 193.154 -0.718118 0.223182 0
M  V30 2032 H 195.125 -2.47733 1.66346 0
M  V30 2033 C 193.874 -3.47168 0.192262 0
M  V30 2034 H 193.197 -3.88215 0.955475 0
M  V30 2035 H 194.637 -4.23995 -0.0198274 0
M  V30 2036 C 193.096 -3.19298 -1.07472 0
M  V30 2037 O 193.626 -3.3891 -2.15645 0
M  V30 2038 N 191.832 -2.73113 -0.992847 0
M  V30 2039 H 191.379 -2.57354 -0.112474 0
M  V30 2040 H 191.337 -2.54842 -1.84127 0
M  V30 2041 N 195.109 -0.891671 -1.2995 0
M  V30 2042 C 196.072 -0.36828 -2.26222 0
M  V30 2043 C 197.072 0.493014 -1.53056 0
M  V30 2044 O 198.262 0.299213 -1.71611 0
M  V30 2045 C 195.394 0.47442 -3.37583 0
M  V30 2046 H 196.587 -1.21844 -2.74033 0
M  V30 2047 H 194.14 -0.669107 -1.41254 0
M  V30 2048 H 194.875 1.34489 -2.95099 0
M  V30 2049 H 194.66 -0.142615 -3.91841 0
M  V30 2050 H 196.15 0.83218 -4.09224 0
M  V30 2051 N 196.587 1.43421 -0.653314 0
M  V30 2052 C 197.517 2.33487 0.0246656 0
M  V30 2053 C 198.498 1.49475 0.811863 0
M  V30 2054 O 199.683 1.78139 0.773322 0
M  V30 2055 C 196.813 3.32841 0.99166 0
M  V30 2056 C 195.767 4.26842 0.314568 0
M  V30 2057 C 195.093 5.16236 1.39302 0
M  V30 2058 C 196.393 5.16243 -0.793095 0
M  V30 2059 H 198.087 2.90427 -0.727481 0
M  V30 2060 H 195.633 1.39649 -0.351287 0
M  V30 2061 H 197.586 3.94747 1.47487 0
M  V30 2062 H 196.31 2.74158 1.77497 0
M  V30 2063 H 194.969 3.663 -0.148199 0
M  V30 2064 H 194.617 4.53891 2.16776 0
M  V30 2065 H 194.317 5.79948 0.945223 0
M  V30 2066 H 195.841 5.81015 1.87759 0
M  V30 2067 H 197.255 5.71958 -0.392039 0
M  V30 2068 H 195.652 5.88676 -1.16536 0
M  V30 2069 H 196.722 4.55927 -1.65103 0
M  V30 2070 N 198.065 0.39524 1.52563 0
M  V30 2071 C 199.312 -0.185044 2.01653 0
M  V30 2072 C 199.64 -1.46317 1.28146 0
M  V30 2073 O 198.895 -1.9213 0.372074 0
M  V30 2074 C 199.194 -0.493444 3.53977 0
M  V30 2075 C 198.86 0.69384 4.4553 0
M  V30 2076 C 197.522 1.01954 4.70275 0
M  V30 2077 C 199.874 1.48785 4.99512 0
M  V30 2078 C 197.202 2.14069 5.46252 0
M  V30 2079 C 199.554 2.59965 5.76716 0
M  V30 2080 C 198.218 2.93037 5.99738 0
M  V30 2081 H 197.488 -0.0677123 0.7379 0
M  V30 2082 H 200.135 0.533807 1.8391 0
M  V30 2083 H 198.44 -1.29369 3.69825 0
M  V30 2084 H 200.137 -0.955163 3.89458 0
M  V30 2085 H 196.727 0.429987 4.26438 0
M  V30 2086 H 200.911 1.24946 4.80315 0
M  V30 2087 H 196.167 2.40056 5.62302 0
M  V30 2088 H 200.341 3.21887 6.17545 0
M  V30 2089 H 197.968 3.8003 6.58393 0
M  V30 2090 N 199.544 -1.57102 0.125237 0
M  V30 2091 C 200.793 -1.94582 -0.531095 0
M  V30 2092 C 201.106 -1.01126 -1.6743 0
M  V30 2093 O 202.312 -1.28097 -2.39381 0
M  V30 2094 C 200.768 -3.45839 -0.996164 0
M  V30 2095 C 200.376 -4.47842 0.118926 0
M  V30 2096 C 202.12 -3.92227 -1.62352 0
M  V30 2097 C 200.027 -5.90284 -0.363192 0
M  V30 2098 H 198.957 -0.726391 -0.20217 0
M  V30 2099 H 201.608 -1.82339 0.206092 0
M  V30 2100 H 199.99 -3.53338 -1.78796 0
M  V30 2101 H 201.164 -4.52018 0.895358 0
M  V30 2102 H 199.479 -4.11243 0.653324 0
M  V30 2103 H 202.076 -4.96069 -1.99548 0
M  V30 2104 H 202.419 -3.32552 -2.50429 0
M  V30 2105 H 202.952 -3.87554 -0.897019 0
M  V30 2106 H 199.691 -6.53728 0.481679 0
M  V30 2107 H 199.211 -5.89515 -1.10597 0
M  V30 2108 H 200.89 -6.41752 -0.822377 0
M  V30 2109 N 201.022 0.148545 -1.56898 0
M  V30 2110 C 202.27 0.859717 -1.82902 0
M  V30 2111 C 202.591 1.81775 -0.70588 0
M  V30 2112 O 201.861 1.93994 0.272586 0
M  V30 2113 H 200.441 0.320469 -0.674766 0
M  V30 2114 H 203.103 0.142918 -1.94375 0
M  V30 2115 H 202.199 1.4229 -2.77777 0
M  V30 2116 N 202.5 1.5196 0.417844 0
M  V30 2117 C 203.447 1.74678 1.50852 0
M  V30 2118 C 204.417 0.588947 1.55308 0
M  V30 2119 O 205.602 0.825544 1.72016 0
M  V30 2120 C 202.742 1.89544 2.88387 0
M  V30 2121 C 201.855 3.17166 2.93309 0
M  V30 2122 C 200.99 3.22513 4.22088 0
M  V30 2123 C 200.029 4.44372 4.20951 0
M  V30 2124 N 199.166 4.47161 5.41287 0
M  V30 2125 H 204.006 2.67768 1.30783 0
M  V30 2126 H 201.543 1.32689 0.63498 0
M  V30 2127 H 203.501 1.96146 3.68216 0
M  V30 2128 H 202.131 0.998424 3.06971 0
M  V30 2129 H 201.183 3.19778 2.06024 0
M  V30 2130 H 202.495 4.07021 2.88332 0
M  V30 2131 H 201.649 3.28139 5.10303 0
M  V30 2132 H 200.388 2.30581 4.29748 0
M  V30 2133 H 199.393 4.38902 3.31127 0
M  V30 2134 H 200.618 5.3759 4.14938 0
M  V30 2135 H 198.564 3.58108 5.49632 0
M  V30 2136 H 198.481 5.3085 5.3827 0
M  V30 2137 H 199.749 4.57005 6.3148 0
M  V30 2138 N 203.978 -0.674533 1.42435 0
M  V30 2139 C 204.928 -1.7807 1.4239 0
M  V30 2140 C 205.912 -1.58169 0.295202 0
M  V30 2141 O 207.104 -1.68643 0.537449 0
M  V30 2142 C 204.233 -3.16532 1.32901 0
M  V30 2143 C 203.319 -3.42055 2.50717 0
M  V30 2144 N 203.71 -3.38162 3.76139 0
M  V30 2145 C 202.008 -3.72692 2.44983 0
M  V30 2146 C 202.709 -3.63177 4.54398 0
M  V30 2147 N 201.685 -3.83954 3.84812 0
M  V30 2148 H 205.487 -1.73454 2.37257 0
M  V30 2149 H 203.001 -0.875381 1.36788 0
M  V30 2150 H 204.998 -3.958 1.30951 0
M  V30 2151 H 203.658 -3.22345 0.390363 0
M  V30 2152 H 204.669 -3.18057 4.0873 0
M  V30 2153 H 201.346 -3.85749 1.59699 0
M  V30 2154 H 202.736 -3.66125 5.63384 0
M  V30 2155 N 205.456 -1.28612 -0.910864 0
M  V30 2156 C 206.386 -1.15326 -2.03032 0
M  V30 2157 C 207.367 -0.0502924 -1.70026 0
M  V30 2158 O 208.552 -0.227797 -1.92859 0
M  V30 2159 C 205.682 -0.817343 -3.37545 0
M  V30 2160 C 204.636 -1.8754 -3.84724 0
M  V30 2161 C 203.962 -1.39305 -5.16235 0
M  V30 2162 C 205.262 -3.28244 -4.06267 0
M  V30 2163 H 206.956 -2.08975 -2.14406 0
M  V30 2164 H 204.502 -1.00612 -1.03021 0
M  V30 2165 H 206.455 -0.711151 -4.15356 0
M  V30 2166 H 205.179 0.154846 -3.26233 0
M  V30 2167 H 203.838 -1.97079 -3.09121 0
M  V30 2168 H 203.486 -0.409846 -5.01328 0
M  V30 2169 H 203.186 -2.10057 -5.48771 0
M  V30 2170 H 204.71 -1.30014 -5.96598 0
M  V30 2171 H 206.124 -3.21611 -4.74594 0
M  V30 2172 H 204.521 -3.96855 -4.5014 0
M  V30 2173 H 205.591 -3.72048 -3.10979 0
M  V30 2174 N 206.934 1.1197 -1.10907 0
M  V30 2175 C 207.881 2.17846 -0.762345 0
M  V30 2176 C 208.851 1.63995 0.263599 0
M  V30 2177 O 210.036 1.90273 0.141773 0
M  V30 2178 C 207.176 3.44487 -0.205651 0
M  V30 2179 C 206.289 4.12369 -1.28748 0
M  V30 2180 C 205.424 5.26674 -0.691919 0
M  V30 2181 C 204.463 5.86431 -1.75399 0
M  V30 2182 N 203.6 6.92142 -1.17833 0
M  V30 2183 H 208.44 2.46851 -1.6694 0
M  V30 2184 H 205.977 1.21188 -0.833776 0
M  V30 2185 H 207.935 4.16981 0.135037 0
M  V30 2186 H 206.565 3.15884 0.664613 0
M  V30 2187 H 205.617 3.38003 -1.74522 0
M  V30 2188 H 206.929 4.52844 -2.09125 0
M  V30 2189 H 206.083 6.05953 -0.300963 0
M  V30 2190 H 204.822 4.8749 0.143232 0
M  V30 2191 H 203.827 5.05835 -2.15432 0
M  V30 2192 H 205.052 6.27685 -2.59208 0
M  V30 2193 H 202.998 6.54985 -0.364725 0
M  V30 2194 H 202.915 7.31242 -1.91887 0
M  V30 2195 H 204.183 7.75237 -0.81408 0
M  V30 2196 N 208.412 0.89855 1.29475 0
M  V30 2197 C 209.823 0.572537 1.77705 0
M  V30 2198 C 210.174 -0.911778 1.73727 0
M  V30 2199 O 209.299 -1.71288 1.32247 0
M  V30 2200 C 209.894 1.03252 3.22683 0
M  V30 2201 C 208.453 0.757687 3.68695 0
M  V30 2202 C 207.6 1.20787 2.49612 0
M  V30 2203 H 210.551 1.08139 1.16153 0
M  V30 2204 H 210.572 0.367307 3.78723 0
M  V30 2205 H 210.084 2.11285 3.25546 0
M  V30 2206 H 208.185 -0.310079 3.71308 0
M  V30 2207 H 208.298 1.35476 4.59547 0
M  V30 2208 H 206.662 0.626888 2.46865 0
M  V30 2209 H 207.445 2.29622 2.55203 0
M  V30 2210 N 209.89 -1.43072 0.660911 0
M  V30 2211 C 210.82 -2.33497 -0.0122829 0
M  V30 2212 C 211.801 -1.49903 -0.803925 0
M  V30 2213 O 212.986 -1.78546 -0.763864 0
M  V30 2214 C 210.116 -3.33363 -0.973994 0
M  V30 2215 C 209.07 -4.27003 -0.291928 0
M  V30 2216 C 208.396 -5.16967 -1.36562 0
M  V30 2217 C 209.696 -5.15816 0.820462 0
M  V30 2218 H 211.39 -2.90038 0.742873 0
M  V30 2219 H 208.936 -1.39461 0.358688 0
M  V30 2220 H 210.889 -3.95524 -1.45392 0
M  V30 2221 H 209.613 -2.75095 -1.7604 0
M  V30 2222 H 208.272 -3.66217 0.167623 0
M  V30 2223 H 207.92 -4.55034 -2.14366 0
M  V30 2224 H 207.62 -5.80441 -0.914454 0
M  V30 2225 H 209.144 -5.82003 -1.84675 0
M  V30 2226 H 210.558 -5.71742 0.422366 0
M  V30 2227 H 208.955 -5.8805 1.19656 0
M  V30 2228 H 210.025 -4.55045 1.67518 0
M  V30 2229 N 211.368 -0.403325 -1.52352 0
M  V30 2230 C 212.331 0.413051 -2.25447 0
M  V30 2231 C 213.331 0.978513 -1.276 0
M  V30 2232 O 214.521 0.858305 -1.51587 0
M  V30 2233 C 211.653 1.58087 -3.02029 0
M  V30 2234 H 212.846 -0.227094 -2.99039 0
M  V30 2235 H 210.399 -0.155722 -1.55522 0
M  V30 2236 H 211.134 2.25804 -2.32772 0
M  V30 2237 H 210.919 1.18195 -3.73861 0
M  V30 2238 H 212.409 2.1585 -3.57489 0
M  V30 2239 N 212.846 1.57033 -0.133567 0
M  V30 2240 C 213.793 2.16074 0.811208 0
M  V30 2241 C 214.763 1.08979 1.2535 0
M  V30 2242 O 215.948 1.36958 1.32843 0
M  V30 2243 C 213.088 2.77595 2.05024 0
M  V30 2244 C 212.201 3.99042 1.65498 0
M  V30 2245 C 211.336 4.48603 2.84479 0
M  V30 2246 C 210.375 5.62547 2.41262 0
M  V30 2247 N 209.512 6.06787 3.53206 0
M  V30 2248 H 214.352 2.96477 0.300906 0
M  V30 2249 H 211.889 1.46462 0.136822 0
M  V30 2250 H 213.847 3.11402 2.77642 0
M  V30 2251 H 212.477 1.99859 2.53488 0
M  V30 2252 H 211.529 3.71302 0.826981 0
M  V30 2253 H 212.841 4.81629 1.29748 0
M  V30 2254 H 211.995 4.84395 3.65303 0
M  V30 2255 H 210.734 3.64995 3.23465 0
M  V30 2256 H 209.739 5.26345 1.58874 0
M  V30 2257 H 210.964 6.47931 2.03377 0
M  V30 2258 H 208.91 5.26117 3.91838 0
M  V30 2259 H 208.827 6.84266 3.21427 0
M  V30 2260 H 210.095 6.4722 4.34427 0
M  V30 2261 N 214.325 -0.140222 1.56975 0
M  V30 2262 C 215.572 -0.851687 1.83719 0
M  V30 2263 C 215.9 -1.80862 0.715485 0
M  V30 2264 O 215.155 -1.93464 -0.294956 0
M  V30 2265 C 215.454 -1.65386 3.16832 0
M  V30 2266 C 215.12 -0.843112 4.42947 0
M  V30 2267 C 213.782 -0.619464 4.77196 0
M  V30 2268 C 216.134 -0.276582 5.20466 0
M  V30 2269 C 213.462 0.181312 5.8642 0
M  V30 2270 C 215.814 0.51127 6.30531 0
M  V30 2271 C 214.478 0.745432 6.63325 0
M  V30 2272 H 213.748 -0.311654 0.672274 0
M  V30 2273 H 216.395 -0.115006 1.91154 0
M  V30 2274 H 214.7 -2.46084 3.04877 0
M  V30 2275 H 216.397 -2.20793 3.34741 0
M  V30 2276 H 212.987 -1.0275 4.16101 0
M  V30 2277 H 217.171 -0.436632 4.94376 0
M  V30 2278 H 212.427 0.372165 6.10266 0
M  V30 2279 H 216.601 0.957354 6.89788 0
M  V30 2280 H 214.228 1.36778 7.47794 0
M  V30 2281 N 215.803 -1.52179 -0.40978 0
M  V30 2282 C 216.733 -1.78435 -1.5061 0
M  V30 2283 C 217.714 -0.635295 -1.57791 0
M  V30 2284 O 218.899 -0.880823 -1.73076 0
M  V30 2285 C 216.029 -1.93444 -2.88439 0
M  V30 2286 C 214.983 -3.09038 -2.96108 0
M  V30 2287 C 214.309 -3.09268 -4.36185 0
M  V30 2288 C 215.609 -4.48508 -2.67652 0
M  V30 2289 H 217.303 -2.70237 -1.28889 0
M  V30 2290 H 214.849 -1.30036 -0.618605 0
M  V30 2291 H 216.802 -2.10394 -3.65119 0
M  V30 2292 H 215.526 -0.983129 -3.11452 0
M  V30 2293 H 214.185 -2.91837 -2.21872 0
M  V30 2294 H 213.833 -2.11861 -4.56206 0
M  V30 2295 H 213.533 -3.86907 -4.42241 0
M  V30 2296 H 215.057 -3.28348 -5.14801 0
M  V30 2297 H 216.471 -4.65918 -3.34056 0
M  V30 2298 H 214.868 -5.28059 -2.85085 0
M  V30 2299 H 215.938 -4.56649 -1.63095 0
M  V30 2300 N 217.281 0.66697 -1.42791 0
M  V30 2301 C 218.229 1.80157 -1.47127 0
M  V30 2302 C 219.223 1.65825 -0.346199 0
M  V30 2303 O 220.429 1.72338 -0.519572 0
M  V30 2304 H 216.804 0.594158 -0.460956 0
M  V30 2305 H 218.775 1.73619 -2.42692 0
M  V30 2306 C 217.524 3.18351 -1.39813 0
M  V30 2307 H 216.847 3.3001 -2.25684 0
M  V30 2308 H 218.287 3.97736 -1.46908 0
M  V30 2309 C 216.746 3.36707 -0.11391 0
M  V30 2310 O 217.276 3.93027 0.830241 0
M  V30 2311 N 215.482 2.90586 -0.0285295 0
M  V30 2312 H 215.029 2.4494 -0.79764 0
M  V30 2313 H 214.987 3.03245 0.830063 0
M  V30 2314 N 218.759 1.29093 0.90403 0
M  V30 2315 C 220.036 1.075 1.63411 0
M  V30 2316 C 220.416 -0.382346 2.07609 0
M  V30 2317 O 219.764 -1.37031 1.82851 0
M  V30 2318 C 219.974 2.05858 2.81822 0
M  V30 2319 C 221.322 2.36539 3.52611 0
M  V30 2320 O 222.346 2.04019 2.91984 0
M  V30 2321 O 221.205 2.92085 4.61897 0
M  V30 2322 H 218.299 0.411547 0.717327 0
M  V30 2323 H 220.845 1.40449 0.952479 0
M  V30 2324 H 219.617 3.04037 2.46327 0
M  V30 2325 H 219.24 1.73613 3.57693 0
M  V30 2326 N 220.237 -1.11381 1.11499 0
M  V30 2327 C 221.483 -1.83403 0.865512 0
M  V30 2328 C 221.816 -1.84459 -0.607329 0
M  V30 2329 O 221.091 -1.29811 -1.44842 0
M  V30 2330 C 221.374 -3.30552 1.42855 0
M  V30 2331 C 221.227 -3.37886 2.96906 0
M  V30 2332 C 222.546 -4.26643 1.08 0
M  V30 2333 H 219.665 -0.665879 0.31587 0
M  V30 2334 H 222.307 -1.30601 1.37998 0
M  V30 2335 H 220.457 -3.75648 0.990985 0
M  V30 2336 H 222.129 -3.01343 3.49271 0
M  V30 2337 H 220.372 -2.78088 3.32941 0
M  V30 2338 H 221.043 -4.41458 3.31389 0
M  V30 2339 H 223.519 -3.89729 1.45775 0
M  V30 2340 H 222.395 -5.27986 1.50072 0
M  V30 2341 H 222.656 -4.42099 -0.00915037 0
M  V30 2342 N 221.715 -0.905404 -1.28997 0
M  V30 2343 C 222.662 -0.385892 -2.27551 0
M  V30 2344 C 223.632 0.535113 -1.57244 0
M  V30 2345 O 224.817 0.459119 -1.85194 0
M  V30 2346 C 221.957 0.375461 -3.43051 0
M  V30 2347 C 221.07 -0.577092 -4.28128 0
M  V30 2348 C 220.205 0.201879 -5.30816 0
M  V30 2349 C 219.244 -0.744829 -6.07551 0
M  V30 2350 N 218.381 9.42587e-05 -7.021 0
M  V30 2351 H 223.221 -1.23139 -2.71368 0
M  V30 2352 H 220.758 -0.618542 -1.33463 0
M  V30 2353 H 222.716 0.832992 -4.088 0
M  V30 2354 H 221.346 1.18537 -3.00248 0
M  V30 2355 H 220.398 -1.15315 -3.62501 0
M  V30 2356 H 221.71 -1.30152 -4.8152 0
M  V30 2357 H 220.864 0.720351 -6.02408 0
M  V30 2358 H 219.603 0.959413 -4.7817 0
M  V30 2359 H 218.608 -1.27475 -5.34818 0
M  V30 2360 H 219.833 -1.50178 -6.62286 0
M  V30 2361 H 217.779 0.739791 -6.51815 0
M  V30 2362 H 217.696 -0.664321 -7.53076 0
M  V30 2363 H 218.964 0.498644 -7.77903 0
M  V30 2364 N 223.193 1.4272 -0.668489 0
M  V30 2365 C 224.421 2.05966 -0.196348 0
M  V30 2366 C 224.836 1.50191 1.14403 0
M  V30 2367 O 224.193 0.639208 1.7094 0
M  V30 2368 C 224.244 3.61314 -0.115815 0
M  V30 2369 O 223.965 4.1502 -1.40322 0
M  V30 2370 C 225.466 4.41663 0.380579 0
M  V30 2371 H 222.686 0.663954 -0.0969829 0
M  V30 2372 H 225.23 1.82966 -0.913446 0
M  V30 2373 H 223.385 3.83448 0.551931 0
M  V30 2374 H 223.799 5.08832 -1.27243 0
M  V30 2375 H 225.273 5.5065 0.385848 0
M  V30 2376 H 225.75 4.15792 1.41471 0
M  V30 2377 H 226.356 4.24534 -0.255209 0
M  V30 2378 N 224.671 0.411399 1.52136 0
M  V30 2379 C 225.601 -0.404015 2.29978 0
M  V30 2380 C 226.582 -1.04412 1.34284 0
M  V30 2381 O 227.767 -1.0527 1.63192 0
M  V30 2382 C 224.897 -1.5197 3.12286 0
M  V30 2383 C 223.851 -1.00448 4.16046 0
M  V30 2384 C 223.177 -2.21393 4.86712 0
M  V30 2385 C 224.477 -0.0569336 5.22269 0
M  V30 2386 H 226.171 0.245529 2.98392 0
M  V30 2387 H 223.717 0.119525 1.43503 0
M  V30 2388 H 225.67 -2.09715 3.6551 0
M  V30 2389 H 224.394 -2.19716 2.41646 0
M  V30 2390 H 223.053 -0.449421 3.63835 0
M  V30 2391 H 222.701 -2.87699 4.12599 0
M  V30 2392 H 222.401 -1.87571 5.56858 0
M  V30 2393 H 223.925 -2.7974 5.4275 0
M  V30 2394 H 225.339 -0.54325 5.7072 0
M  V30 2395 H 223.736 0.192594 5.99791 0
M  V30 2396 H 224.806 0.887663 4.76706 0
M  V30 2397 N 226.149 -1.5696 0.141893 0
M  V30 2398 C 227.379 -2.00031 -0.516828 0
M  V30 2399 C 227.787 -1.02091 -1.59293 0
M  V30 2400 O 227.13 -0.00909657 -1.83698 0
M  V30 2401 C 227.192 -3.39534 -1.1814 0
M  V30 2402 C 226.856 -4.56313 -0.250513 0
M  V30 2403 C 227.853 -5.17295 0.519839 0
M  V30 2404 C 225.538 -5.02061 -0.154907 0
M  V30 2405 C 227.532 -6.2243 1.3733 0
M  V30 2406 C 225.219 -6.07053 0.702161 0
M  V30 2407 C 226.217 -6.67106 1.46487 0
M  V30 2408 O 225.905 -7.70066 2.30767 0
M  V30 2409 H 225.637 -0.661451 -0.139493 0
M  V30 2410 H 228.191 -2.04086 0.231926 0
M  V30 2411 H 226.421 -3.32302 -1.97769 0
M  V30 2412 H 228.11 -3.66745 -1.73933 0
M  V30 2413 H 228.876 -4.82852 0.45598 0
M  V30 2414 H 224.755 -4.5505 -0.7383 0
M  V30 2415 H 228.299 -6.69233 1.96909 0
M  V30 2416 H 224.196 -6.40923 0.76733 0
M  V30 2417 H 224.964 -7.87264 2.23959 0
M  V30 2418 N 227.627 0.131896 -1.57047 0
M  V30 2419 C 228.537 1.1815 -2.02676 0
M  V30 2420 C 229.553 1.46113 -0.944824 0
M  V30 2421 O 230.729 1.57485 -1.25541 0
M  V30 2422 C 227.794 2.49139 -2.41103 0
M  V30 2423 C 226.855 2.28688 -3.63318 0
M  V30 2424 C 226.088 3.53431 -3.99903 0
M  V30 2425 O 226.311 4.60223 -3.36973 0
M  V30 2426 O 225.245 3.45198 -4.93074 0
M  V30 2427 H 229.071 0.824069 -2.92306 0
M  V30 2428 H 226.656 0.341745 -1.45439 0
M  V30 2429 H 228.538 3.26338 -2.66611 0
M  V30 2430 H 227.213 2.84382 -1.54624 0
M  V30 2431 H 226.12 1.4939 -3.42977 0
M  V30 2432 H 227.453 1.98355 -4.50462 0
M  V30 2433 N 229.106 1.52395 0.401703 0
M  V30 2434 C 230.334 1.70676 1.16949 0
M  V30 2435 C 230.749 0.419503 1.8408 0
M  V30 2436 O 230.106 -0.605061 1.72178 0
M  V30 2437 C 230.157 2.84753 2.22706 0
M  V30 2438 O 229.878 4.08495 1.58314 0
M  V30 2439 C 231.379 3.14608 3.12309 0
M  V30 2440 H 228.599 0.571787 0.351142 0
M  V30 2441 H 231.143 1.98987 0.471652 0
M  V30 2442 H 229.298 2.58941 2.88147 0
M  V30 2443 H 229.712 4.72117 2.28485 0
M  V30 2444 H 231.186 3.97923 3.82572 0
M  V30 2445 H 231.663 2.28464 3.75101 0
M  V30 2446 H 232.269 3.42212 2.52529 0
M  V30 2447 N 230.584 -0.659388 1.43143 0
M  V30 2448 C 231.494 -1.80167 1.50256 0
M  V30 2449 C 232.51 -1.69571 0.390106 0
M  V30 2450 O 233.686 -1.90849 0.643319 0
M  V30 2451 C 230.751 -3.16409 1.41725 0
M  V30 2452 C 229.812 -3.38848 2.63591 0
M  V30 2453 C 229.045 -4.68591 2.55458 0
M  V30 2454 O 229.268 -5.47532 1.59891 0
M  V30 2455 O 228.202 -4.92614 3.45854 0
M  V30 2456 H 232.028 -1.77121 2.46702 0
M  V30 2457 H 229.613 -0.817092 1.25076 0
M  V30 2458 H 231.495 -3.9768 1.39387 0
M  V30 2459 H 230.17 -3.20059 0.484118 0
M  V30 2460 H 229.077 -2.57366 2.71502 0
M  V30 2461 H 230.41 -3.4004 3.55856 0
M  V30 2462 N 232.062 -1.29571 -0.897171 0
M  V30 2463 C 233.308 -1.17863 -1.65034 0
M  V30 2464 C 233.641 0.268729 -1.92332 0
M  V30 2465 O 232.916 1.19378 -1.53555 0
M  V30 2466 C 233.199 -1.995 -2.99786 0
M  V30 2467 C 233.052 -3.5239 -2.79538 0
M  V30 2468 C 234.371 -1.82335 -4.00552 0
M  V30 2469 H 231.49 -0.429528 -0.598895 0
M  V30 2470 H 234.132 -1.59072 -1.03905 0
M  V30 2471 H 232.282 -1.64485 -3.51962 0
M  V30 2472 H 233.954 -3.97401 -2.34244 0
M  V30 2473 H 232.197 -3.77187 -2.14273 0
M  V30 2474 H 232.868 -4.04787 -3.75302 0
M  V30 2475 H 235.344 -2.12924 -3.57495 0
M  V30 2476 H 234.22 -2.41801 -4.92771 0
M  V30 2477 H 234.481 -0.779209 -4.35179 0
M  V30 2478 N 233.54 1.10788 -1.12088 0
M  V30 2479 C 234.787 1.82671 -0.873931 0
M  V30 2480 C 235.115 1.85004 0.600311 0
M  V30 2481 O 234.37 1.30365 1.45957 0
M  V30 2482 C 234.669 3.29294 -1.38926 0
M  V30 2483 C 234.335 3.47113 -2.87791 0
M  V30 2484 C 232.997 3.51684 -3.28439 0
M  V30 2485 C 235.349 3.52808 -3.83635 0
M  V30 2486 C 232.677 3.59513 -4.63646 0
M  V30 2487 C 235.029 3.62169 -5.18668 0
M  V30 2488 C 233.693 3.65003 -5.58864 0
M  V30 2489 H 232.963 0.668441 -0.319794 0
M  V30 2490 H 235.61 1.30613 -1.40045 0
M  V30 2491 H 233.915 3.83894 -0.783122 0
M  V30 2492 H 235.612 3.83416 -1.17443 0
M  V30 2493 H 232.202 3.4423 -2.5535 0
M  V30 2494 H 236.386 3.4853 -3.53328 0
M  V30 2495 H 231.642 3.59987 -4.94185 0
M  V30 2496 H 235.816 3.6552 -5.92763 0
M  V30 2497 H 233.443 3.70822 -6.63623 0
M  V30 2498 N 235.018 0.912232 1.28515 0
M  V30 2499 C 236.243 0.559774 1.99703 0
M  V30 2500 C 236.668 -0.851393 1.67729 0
M  V30 2501 O 236.026 -1.56875 0.908834 0
M  V30 2502 C 236.074 0.773874 3.52198 0
M  V30 2503 O 235.178 -0.167842 4.12058 0
M  V30 2504 H 234.519 0.21723 0.627461 0
M  V30 2505 H 237.049 1.22725 1.63706 0
M  V30 2506 H 237.059 0.683386 4.02236 0
M  V30 2507 H 235.734 1.80261 3.74805 0
M  V30 2508 H 234.311 -0.0287509 3.72889 0
M  V30 2509 N 236.496 -1.42363 0.676048 0
M  V30 2510 C 237.724 -2.05859 0.207268 0
M  V30 2511 C 238.139 -1.50796 -1.13605 0
M  V30 2512 O 237.496 -0.648265 -1.70598 0
M  V30 2513 C 237.547 -3.61248 0.134975 0
M  V30 2514 O 237.268 -4.1427 1.42521 0
M  V30 2515 C 238.769 -4.41859 -0.357151 0
M  V30 2516 H 235.989 -0.663431 0.100503 0
M  V30 2517 H 238.533 -1.82479 0.923136 0
M  V30 2518 H 236.688 -3.83735 -0.531588 0
M  V30 2519 H 237.102 -5.0815 1.29939 0
M  V30 2520 H 238.576 -5.50847 -0.356641 0
M  V30 2521 H 239.053 -4.16536 -1.39264 0
M  V30 2522 H 239.659 -4.24392 0.27772 0
M  V30 2523 N 237.974 -0.419461 -1.51915 0
M  V30 2524 C 239.251 0.211999 -1.94448 0
M  V30 2525 C 239.631 1.61703 -1.35703 0
M  V30 2526 O 238.979 2.22102 -0.536931 0
M  V30 2527 C 239.189 0.207872 -3.4838 0
M  V30 2528 C 240.537 0.422192 -4.22496 0
M  V30 2529 O 241.561 0.286778 -3.55044 0
M  V30 2530 O 240.42 0.690009 -5.42126 0
M  V30 2531 H 237.514 0.139586 -0.815135 0
M  V30 2532 H 240.06 -0.476151 -1.62883 0
M  V30 2533 H 238.832 -0.775102 -3.83546 0
M  V30 2534 H 238.455 0.939688 -3.86336 0
M  V30 2535 N 239.452 1.56882 -0.150215 0
M  V30 2536 C 240.699 1.96228 0.500093 0
M  V30 2537 C 241.027 1.03522 1.64661 0
M  V30 2538 O 240.282 0.0650683 1.95592 0
M  V30 2539 C 240.581 3.41801 1.04437 0
M  V30 2540 C 240.247 4.50897 0.0159671 0
M  V30 2541 C 238.909 4.8046 -0.266731 0
M  V30 2542 C 241.261 5.16703 -0.683192 0
M  V30 2543 C 238.589 5.73135 -1.25434 0
M  V30 2544 C 240.941 6.10441 -1.65964 0
M  V30 2545 C 239.605 6.38382 -1.95 0
M  V30 2546 H 238.875 0.718048 0.182997 0
M  V30 2547 H 241.522 1.90019 -0.237724 0
M  V30 2548 H 239.827 3.44857 1.85959 0
M  V30 2549 H 241.524 3.69573 1.55618 0
M  V30 2550 H 238.114 4.27891 0.246485 0
M  V30 2551 H 242.298 4.93993 -0.477983 0
M  V30 2552 H 237.554 5.93074 -1.48571 0
M  V30 2553 H 241.728 6.60507 -2.20689 0
M  V30 2554 H 239.355 7.09996 -2.71679 0
M  V30 2555 N 240.93 -0.123565 1.57115 0
M  V30 2556 C 242.155 -0.850398 1.89164 0
M  V30 2557 C 242.58 -1.7286 0.741688 0
M  V30 2558 O 241.938 -1.78665 -0.307958 0
M  V30 2559 C 241.986 -1.66353 3.19936 0
M  V30 2560 O 241.09 -2.77004 3.0552 0
M  V30 2561 H 240.431 -0.235454 0.620852 0
M  V30 2562 H 242.961 -0.107335 2.04318 0
M  V30 2563 H 242.971 -2.05372 3.52543 0
M  V30 2564 H 241.646 -1.01881 4.03228 0
M  V30 2565 H 240.223 -2.41221 2.84371 0
M  V30 2566 N 242.408 -1.52605 -0.393616 0
M  V30 2567 C 243.356 -1.77688 -1.50099 0
M  V30 2568 C 244.35 -0.644615 -1.56656 0
M  V30 2569 O 245.556 -0.826997 -1.59877 0
M  V30 2570 H 241.931 -0.562159 -0.499481 0
M  V30 2571 H 243.902 -2.7043 -1.26135 0
M  V30 2572 C 242.651 -1.95858 -2.87289 0
M  V30 2573 H 241.974 -2.8241 -2.82992 0
M  V30 2574 H 243.414 -2.174 -3.64024 0
M  V30 2575 C 241.873 -0.729848 -3.28899 0
M  V30 2576 O 242.403 0.0949217 -4.01588 0
M  V30 2577 N 240.609 -0.561283 -2.85128 0
M  V30 2578 H 240.156 -1.23357 -2.26143 0
M  V30 2579 H 240.114 0.2595 -3.13327 0
M  V30 2580 N 243.887 0.651787 -1.4349 0
M  V30 2581 C 245.136 1.40754 -1.44469 0
M  V30 2582 C 245.449 1.95463 -0.0731845 0
M  V30 2583 O 246.655 2.71471 0.0395721 0
M  V30 2584 C 245.111 2.54735 -2.5424 0
M  V30 2585 C 244.719 2.06628 -3.97504 0
M  V30 2586 C 246.463 3.32092 -2.64414 0
M  V30 2587 C 244.37 3.17829 -4.98737 0
M  V30 2588 H 243.3 0.528862 -0.53742 0
M  V30 2589 H 245.951 0.703365 -1.69485 0
M  V30 2590 H 244.333 3.2763 -2.22428 0
M  V30 2591 H 245.507 1.40734 -4.38783 0
M  V30 2592 H 243.822 1.42146 -3.91387 0
M  V30 2593 H 246.419 4.14952 -3.37223 0
M  V30 2594 H 246.762 3.80217 -1.69532 0
M  V30 2595 H 247.295 2.66279 -2.95534 0
M  V30 2596 H 244.034 2.74671 -5.95177 0
M  V30 2597 H 243.554 3.82429 -4.62069 0
M  V30 2598 H 245.233 3.82937 -5.21505 0
M  V30 2599 N 245.365 1.30045 0.890287 0
M  V30 2600 C 246.59 1.21598 1.68014 0
M  V30 2601 C 247.015 -0.218678 1.86825 0
M  V30 2602 O 246.373 -1.15756 1.39536 0
M  V30 2603 C 246.421 1.94434 3.03691 0
M  V30 2604 O 245.525 1.2678 3.92429 0
M  V30 2605 H 244.866 0.420856 0.513592 0
M  V30 2606 H 247.396 1.71775 1.11151 0
M  V30 2607 H 247.406 2.03251 3.5377 0
M  V30 2608 H 246.081 2.98777 2.89318 0
M  V30 2609 H 244.658 1.26282 3.50866 0
M  V30 2610 N 246.843 -1.10192 1.12674 0
M  V30 2611 C 247.806 -2.14786 0.799979 0
M  V30 2612 C 248.806 -1.59711 -0.18685 0
M  V30 2613 O 249.996 -1.74156 0.0392558 0
M  V30 2614 C 247.128 -3.40374 0.189228 0
M  V30 2615 H 248.321 -2.45203 1.72671 0
M  V30 2616 H 245.874 -1.25597 0.930326 0
M  V30 2617 H 246.609 -3.15577 -0.747107 0
M  V30 2618 H 246.394 -3.81637 0.899766 0
M  V30 2619 H 247.884 -4.17594 -0.0228143 0
M  V30 2620 N 248.321 -0.919034 -1.28029 0
M  V30 2621 C 249.284 -0.416182 -2.2539 0
M  V30 2622 C 250.284 0.460438 -1.54067 0
M  V30 2623 O 251.474 0.262744 -1.72207 0
M  V30 2624 C 248.606 0.402707 -3.38513 0
M  V30 2625 H 249.799 -1.27629 -2.71387 0
M  V30 2626 H 247.352 -0.698919 -1.39803 0
M  V30 2627 H 248.087 1.282 -2.97885 0
M  V30 2628 H 247.872 -0.225698 -3.9145 0
M  V30 2629 H 249.362 0.745191 -4.10897 0
M  V30 2630 N 249.799 1.42003 -0.683588 0
M  V30 2631 C 250.746 2.30798 -0.0107309 0
M  V30 2632 C 251.716 1.4645 0.783688 0
M  V30 2633 O 252.901 1.75263 0.754156 0
M  V30 2634 C 250.041 3.3238 0.928306 0
M  V30 2635 C 249.154 4.31814 0.126776 0
M  V30 2636 C 248.289 5.20468 1.06236 0
M  V30 2637 C 247.328 6.11577 0.253035 0
M  V30 2638 N 246.465 6.92754 1.14179 0
M  V30 2639 H 251.305 2.8778 -0.773727 0
M  V30 2640 H 248.842 1.41745 -0.393283 0
M  V30 2641 H 250.8 3.89813 1.48666 0
M  V30 2642 H 249.43 2.76976 1.65783 0
M  V30 2643 H 248.482 3.76427 -0.54833 0
M  V30 2644 H 249.794 4.96276 -0.501192 0
M  V30 2645 H 248.948 5.82677 1.69035 0
M  V30 2646 H 247.687 4.56204 1.7242 0
M  V30 2647 H 246.692 5.48428 -0.388108 0
M  V30 2648 H 247.917 6.77892 -0.404839 0
M  V30 2649 H 245.863 6.3111 1.78987 0
M  V30 2650 H 245.78 7.53855 0.569111 0
M  V30 2651 H 247.048 7.59441 1.75697 0
M  V30 2652 N 251.277 0.427512 1.51691 0
M  V30 2653 C 252.209 -0.424521 2.25234 0
M  V30 2654 C 253.222 -0.994671 1.2888 0
M  V30 2655 O 254.411 -0.890483 1.54702 0
M  V30 2656 C 251.511 -1.60479 2.98496 0
M  V30 2657 C 250.684 -1.15527 4.21868 0
M  V30 2658 C 249.743 -2.20454 4.77793 0
M  V30 2659 O 248.769 -1.8029 5.39893 0
M  V30 2660 N 249.971 -3.52831 4.60967 0
M  V30 2661 H 252.736 0.205749 2.98993 0
M  V30 2662 H 250.297 0.255867 1.59865 0
M  V30 2663 H 252.289 -2.30276 3.32799 0
M  V30 2664 H 250.859 -2.14061 2.27809 0
M  V30 2665 H 250.079 -0.284736 3.9317 0
M  V30 2666 H 251.367 -0.832173 5.01949 0
M  V30 2667 H 250.765 -3.88201 4.11481 0
M  V30 2668 H 249.322 -4.18551 4.99658 0
M  V30 2669 N 252.755 -1.56801 0.158532 0
M  V30 2670 C 253.665 -2.20916 -0.789518 0
M  V30 2671 C 254.681 -1.1969 -1.26294 0
M  V30 2672 O 255.857 -1.52308 -1.31773 0
M  V30 2673 C 252.922 -2.82727 -2.00665 0
M  V30 2674 C 251.983 -3.99114 -1.58134 0
M  V30 2675 C 251.216 -4.57968 -2.74045 0
M  V30 2676 O 251.439 -4.15704 -3.90572 0
M  V30 2677 O 250.373 -5.48047 -2.48855 0
M  V30 2678 H 254.199 -3.02464 -0.273681 0
M  V30 2679 H 251.784 -1.4924 -0.0690548 0
M  V30 2680 H 253.666 -3.21968 -2.71872 0
M  V30 2681 H 252.341 -2.04184 -2.51179 0
M  V30 2682 H 251.248 -3.64567 -0.839155 0
M  V30 2683 H 252.581 -4.79212 -1.12325 0
M  V30 2684 N 254.233 0.115231 -1.57178 0
M  V30 2685 C 255.482 0.820945 -1.84237 0
M  V30 2686 C 255.795 1.80866 -0.744761 0
M  V30 2687 O 257.001 2.56083 -0.901871 0
M  V30 2688 C 255.457 1.51072 -3.26658 0
M  V30 2689 C 255.065 0.563795 -4.44438 0
M  V30 2690 C 256.809 2.20134 -3.62962 0
M  V30 2691 C 254.716 1.25701 -5.77887 0
M  V30 2692 H 253.646 0.310328 -0.687177 0
M  V30 2693 H 256.297 0.0737134 -1.83352 0
M  V30 2694 H 254.679 2.30471 -3.22024 0
M  V30 2695 H 255.853 -0.197247 -4.60378 0
M  V30 2696 H 254.168 -0.0200638 -4.16395 0
M  V30 2697 H 256.765 2.72696 -4.59936 0
M  V30 2698 H 257.108 2.98107 -2.90582 0
M  V30 2699 H 257.641 1.47619 -3.69396 0
M  V30 2700 H 254.38 0.518493 -6.53446 0
M  V30 2701 H 253.9 1.98997 -5.65827 0
M  V30 2702 H 255.579 1.78915 -6.2177 0
M  V30 2703 N 255.711 1.52812 0.385517 0
M  V30 2704 C 256.659 1.78482 1.49155 0
M  V30 2705 C 257.653 0.652914 1.56312 0
M  V30 2706 O 258.859 0.835464 1.59436 0
M  V30 2707 H 255.234 0.5648 0.496493 0
M  V30 2708 H 257.205 2.71095 1.24699 0
M  V30 2709 C 255.954 1.97378 2.86247 0
M  V30 2710 H 255.277 2.83907 2.81491 0
M  V30 2711 H 256.717 2.19327 3.62866 0
M  V30 2712 C 255.176 0.74728 3.28508 0
M  V30 2713 O 255.706 -0.0736232 4.01633 0
M  V30 2714 N 253.912 0.576396 2.84826 0
M  V30 2715 H 253.459 1.24555 2.25486 0
M  V30 2716 H 253.417 -0.24288 3.1346 0
M  V30 2717 N 257.189 -0.644168 1.43834 0
M  V30 2718 C 258.414 -1.43642 1.49605 0
M  V30 2719 C 258.839 -1.8773 0.117913 0
M  V30 2720 O 258.197 -1.57938 -0.890239 0
M  V30 2721 C 258.245 -2.6416 2.45463 0
M  V30 2722 O 257.349 -3.63538 1.94714 0
M  V30 2723 H 256.69 -0.430329 0.50568 0
M  V30 2724 H 259.22 -0.787448 1.8884 0
M  V30 2725 H 259.23 -3.11864 2.63068 0
M  V30 2726 H 257.905 -2.31414 3.45572 0
M  V30 2727 H 256.482 -3.2273 1.86814 0
M  V30 2728 N 258.668 -1.30515 -0.883378 0
M  V30 2729 C 259.618 -1.13641 -1.9766 0
M  V30 2730 C 260.602 -0.0511314 -1.60819 0
M  V30 2731 O 261.794 -0.274623 -1.74857 0
M  V30 2732 C 258.923 -0.831976 -3.33066 0
M  V30 2733 C 258.009 -1.95759 -3.76217 0
M  V30 2734 N 258.4 -3.20313 -3.9145 0
M  V30 2735 C 256.698 -1.85431 -4.05625 0
M  V30 2736 C 257.399 -3.93856 -4.2808 0
M  V30 2737 N 256.375 -3.21919 -4.38029 0
M  V30 2738 H 260.177 -2.08106 -2.07531 0
M  V30 2739 H 257.691 -1.21877 -1.0733 0
M  V30 2740 H 259.688 -0.692102 -4.11115 0
M  V30 2741 H 258.348 0.104588 -3.24532 0
M  V30 2742 H 259.359 -3.55583 -3.76538 0
M  V30 2743 H 256.036 -0.991531 -4.05555 0
M  V30 2744 H 257.426 -5.01125 -4.47575 0
M  V30 2745 N 260.146 1.09593 -1.13257 0
M  V30 2746 C 261.392 1.82003 -0.89458 0
M  V30 2747 C 261.725 1.85402 0.577906 0
M  V30 2748 O 261 1.32099 1.42759 0
M  V30 2749 C 261.283 3.28237 -1.48096 0
M  V30 2750 C 261.136 3.3312 -3.02244 0
M  V30 2751 C 262.455 4.24871 -1.14774 0
M  V30 2752 H 259.574 0.66077 -0.326424 0
M  V30 2753 H 262.216 1.28389 -1.40058 0
M  V30 2754 H 260.366 3.74024 -1.05062 0
M  V30 2755 H 262.038 2.95748 -3.54021 0
M  V30 2756 H 260.281 2.72756 -3.37323 0
M  V30 2757 H 260.952 4.3613 -3.38371 0
M  V30 2758 H 263.428 3.87361 -1.51957 0
M  V30 2759 H 262.304 5.25532 -1.58452 0
M  V30 2760 H 262.565 4.42058 -0.0611849 0
M  V30 2761 N 261.624 0.925811 1.2754 0
M  V30 2762 C 262.534 0.428993 2.30644 0
M  V30 2763 C 263.55 -0.489387 1.66976 0
M  V30 2764 O 264.726 -0.372653 1.97922 0
M  V30 2765 C 261.791 -0.311967 3.45294 0
M  V30 2766 C 260.852 0.641098 4.24486 0
M  V30 2767 C 260.085 -0.0645955 5.33661 0
M  V30 2768 O 260.308 -1.28429 5.55754 0
M  V30 2769 O 259.242 0.606265 5.98839 0
M  V30 2770 H 263.068 1.28504 2.75173 0
M  V30 2771 H 260.653 0.691086 1.32455 0
M  V30 2772 H 262.535 -0.729972 4.15029 0
M  V30 2773 H 261.21 -1.14365 3.02824 0
M  V30 2774 H 260.117 1.10874 3.57292 0
M  V30 2775 H 261.45 1.43995 4.70666 0
M  V30 2776 N 263.102 -1.41638 0.69111 0
M  V30 2777 C 264.035 -2.28183 -0.0274913 0
M  V30 2778 C 265.013 -1.41984 -0.792424 0
M  V30 2779 O 266.197 -1.71415 -0.784169 0
M  V30 2780 C 263.324 -3.22135 -1.04628 0
M  V30 2781 C 262.37 -4.24848 -0.375037 0
M  V30 2782 S 263.203 -5.28231 0.879321 0
M  V30 2783 C 264.359 -6.25748 -0.137983 0
M  V30 2784 H 264.592 -2.88782 0.706553 0
M  V30 2785 H 262.125 -1.46709 0.481222 0
M  V30 2786 H 264.083 -3.76797 -1.62894 0
M  V30 2787 H 262.744 -2.6064 -1.75287 0
M  V30 2788 H 261.937 -4.90837 -1.14433 0
M  V30 2789 H 261.539 -3.73758 0.134434 0
M  V30 2790 H 263.831 -6.70188 -0.992659 0
M  V30 2791 H 264.774 -7.06417 0.487867 0
M  V30 2792 H 265.182 -5.62363 -0.490762 0
M  V30 2793 N 264.58 -0.43555 -1.51462 0
M  V30 2794 C 265.512 0.41257 -2.25456 0
M  V30 2795 C 266.525 0.987822 -1.29406 0
M  V30 2796 O 267.714 0.882266 -1.55172 0
M  V30 2797 C 264.814 1.58894 -2.99342 0
M  V30 2798 C 263.987 1.13288 -4.22474 0
M  V30 2799 C 263.046 2.17917 -4.78956 0
M  V30 2800 O 262.072 1.77425 -5.40841 0
M  V30 2801 N 263.274 3.50382 -4.62832 0
M  V30 2802 H 266.039 -0.221603 -2.9888 0
M  V30 2803 H 263.6 -0.264342 -1.59727 0
M  V30 2804 H 265.592 2.28508 -3.34015 0
M  V30 2805 H 264.162 2.12849 -2.28941 0
M  V30 2806 H 263.382 0.263881 -3.93316 0
M  V30 2807 H 264.67 0.805542 -5.02383 0
M  V30 2808 H 264.068 3.86013 -4.13534 0
M  V30 2809 H 262.625 4.15895 -5.01871 0
M  V30 2810 N 266.058 1.56714 -0.166846 0
M  V30 2811 C 267.286 2.0112 0.485644 0
M  V30 2812 C 267.701 1.04705 1.57106 0
M  V30 2813 O 267.058 0.0471923 1.82439 0
M  V30 2814 C 267.109 3.45361 1.06808 0
M  V30 2815 O 266.83 4.38092 0.0259995 0
M  V30 2816 C 268.331 4.05145 1.79924 0
M  V30 2817 H 265.551 0.65931 0.124704 0
M  V30 2818 H 268.095 2.02746 -0.267262 0
M  V30 2819 H 266.25 3.44524 1.7715 0
M  V30 2820 H 266.664 5.22519 0.455398 0
M  V30 2821 H 268.138 5.08009 2.15942 0
M  V30 2822 H 268.615 3.46982 2.69258 0
M  V30 2823 H 269.221 4.09672 1.14234 0
M  V30 2824 N 267.536 -0.106894 1.57237 0
M  V30 2825 C 268.483 -1.13049 2.01217 0
M  V30 2826 C 269.453 -1.40471 0.886403 0
M  V30 2827 O 270.638 -1.52133 1.15153 0
M  V30 2828 C 267.778 -2.4487 2.43172 0
M  V30 2829 C 266.891 -2.24281 3.69218 0
M  V30 2830 C 266.026 -3.49417 4.00101 0
M  V30 2831 C 265.065 -3.24038 5.19294 0
M  V30 2832 N 264.202 -4.41409 5.45988 0
M  V30 2833 H 269.042 -0.748456 2.88448 0
M  V30 2834 H 266.579 -0.358054 1.42676 0
M  V30 2835 H 268.537 -3.21786 2.65537 0
M  V30 2836 H 267.167 -2.80944 1.58967 0
M  V30 2837 H 266.219 -1.38224 3.54398 0
M  V30 2838 H 267.531 -2.01512 4.56283 0
M  V30 2839 H 266.685 -4.34746 4.2318 0
M  V30 2840 H 265.424 -3.75229 3.11535 0
M  V30 2841 H 264.429 -2.37102 4.96047 0
M  V30 2842 H 265.654 -2.99584 6.09447 0
M  V30 2843 H 263.6 -4.67319 4.60379 0
M  V30 2844 H 263.517 -4.21788 6.274 0
M  V30 2845 H 264.785 -5.27836 5.73593 0
M  V30 2846 N 269.014 -1.53014 -0.377408 0
M  V30 2847 C 270.262 -1.6829 -1.11906 0
M  V30 2848 C 270.583 -0.431206 -1.90173 0
M  V30 2849 O 269.853 0.554595 -1.87886 0
M  V30 2850 H 268.433 -0.620371 -0.416112 0
M  V30 2851 H 271.095 -1.90167 -0.426893 0
M  V30 2852 H 270.191 -2.53862 -1.8155 0
M  V30 2853 N 270.492 0.636531 -1.44174 0
M  V30 2854 C 271.439 1.74875 -1.50624 0
M  V30 2855 C 272.409 1.62275 -0.35442 0
M  V30 2856 O 273.594 1.82276 -0.563908 0
M  V30 2857 C 270.734 3.13102 -1.45125 0
M  V30 2858 C 269.847 3.36717 -2.7064 0
M  V30 2859 C 268.982 4.64885 -2.57013 0
M  V30 2860 C 268.021 4.8166 -3.77717 0
M  V30 2861 N 267.158 6.01101 -3.62798 0
M  V30 2862 H 271.998 1.68697 -2.45653 0
M  V30 2863 H 269.535 0.823004 -1.21922 0
M  V30 2864 H 271.493 3.93034 -1.39929 0
M  V30 2865 H 270.123 3.18308 -0.536671 0
M  V30 2866 H 269.175 2.50763 -2.86046 0
M  V30 2867 H 270.487 3.44993 -3.60252 0
M  V30 2868 H 269.641 5.52969 -2.49619 0
M  V30 2869 H 268.38 4.58957 -1.64953 0
M  V30 2870 H 267.385 3.92007 -3.85501 0
M  V30 2871 H 268.61 4.89406 -4.70807 0
M  V30 2872 H 266.556 5.96273 -2.73486 0
M  V30 2873 H 266.473 6.10409 -4.46023 0
M  V30 2874 H 267.741 6.91761 -3.59286 0
M  V30 2875 N 271.97 1.30982 0.876444 0
M  V30 2876 C 273.216 1.20474 1.63138 0
M  V30 2877 C 273.549 -0.238096 1.92735 0
M  V30 2878 O 272.824 -1.1692 1.55435 0
M  V30 2879 C 273.107 2.04244 2.96574 0
M  V30 2880 C 272.96 3.56793 2.73896 0
M  V30 2881 C 274.279 1.88684 3.97601 0
M  V30 2882 H 271.398 0.439001 0.591985 0
M  V30 2883 H 274.04 1.60704 1.01361 0
M  V30 2884 H 272.19 1.70063 3.493 0
M  V30 2885 H 273.862 4.01077 2.27892 0
M  V30 2886 H 272.105 3.80548 2.08245 0
M  V30 2887 H 272.776 4.10706 3.68815 0
M  V30 2888 H 275.252 2.18584 3.54062 0
M  V30 2889 H 274.128 2.4961 4.88862 0
M  V30 2890 H 274.389 0.848343 4.33884 0
M  V30 2891 N 273.449 -1.08991 1.13837 0
M  V30 2892 C 274.695 -1.81526 0.90422 0
M  V30 2893 C 275.028 -1.85706 -0.568066 0
M  V30 2894 O 274.303 -1.32855 -1.42056 0
M  V30 2895 C 274.586 -3.27447 1.49835 0
M  V30 2896 C 274.439 -3.31512 3.04006 0
M  V30 2897 C 275.758 -4.24256 1.17025 0
M  V30 2898 H 272.877 -0.659029 0.329923 0
M  V30 2899 H 275.519 -1.27644 1.40737 0
M  V30 2900 H 273.669 -3.73462 1.07044 0
M  V30 2901 H 275.341 -2.93867 3.55584 0
M  V30 2902 H 273.584 -2.70963 3.38765 0
M  V30 2903 H 274.255 -4.34329 3.40679 0
M  V30 2904 H 276.731 -3.86549 1.54009 0
M  V30 2905 H 275.607 -5.24684 1.61237 0
M  V30 2906 H 275.868 -4.42019 0.0846274 0
M  V30 2907 N 274.927 -0.932562 -1.27047 0
M  V30 2908 C 276.175 -0.574422 -1.93765 0
M  V30 2909 C 276.496 0.887993 -1.73608 0
M  V30 2910 O 275.766 1.62999 -1.08665 0
M  V30 2911 H 274.346 -0.209451 -0.717035 0
M  V30 2912 H 277.008 -1.18601 -1.5466 0
M  V30 2913 H 276.104 -0.784841 -3.02071 0
M  V30 2914 N 276.405 1.4127 -0.698611 0
M  V30 2915 C 277.335 2.33447 -0.049629 0
M  V30 2916 C 278.316 1.51982 0.763898 0
M  V30 2917 O 279.501 1.80509 0.716257 0
M  V30 2918 C 276.631 3.35828 0.885267 0
M  V30 2919 C 275.585 4.27627 0.178613 0
M  V30 2920 C 274.911 5.20406 1.22807 0
M  V30 2921 C 276.211 5.13459 -0.956933 0
M  V30 2922 H 277.905 2.87966 -0.81951 0
M  V30 2923 H 275.451 1.38461 -0.395538 0
M  V30 2924 H 277.404 3.9924 1.34854 0
M  V30 2925 H 276.128 2.79666 1.68685 0
M  V30 2926 H 274.787 3.65643 -0.26466 0
M  V30 2927 H 274.435 4.60558 2.02226 0
M  V30 2928 H 274.135 5.82661 0.760239 0
M  V30 2929 H 275.659 5.86695 1.69179 0
M  V30 2930 H 277.073 5.70421 -0.573805 0
M  V30 2931 H 275.47 5.8467 -1.35205 0
M  V30 2932 H 276.54 4.50443 -1.79524 0
M  V30 2933 N 277.883 0.443576 1.51229 0
M  V30 2934 C 279.132 -0.122332 2.01329 0
M  V30 2935 C 279.445 -1.43237 1.33201 0
M  V30 2936 O 280.651 -2.0816 1.74304 0
M  V30 2937 C 279.107 -0.268551 3.58897 0
M  V30 2938 C 278.715 1.03142 4.35965 0
M  V30 2939 C 280.459 -0.787894 4.17124 0
M  V30 2940 C 278.366 0.850504 5.85252 0
M  V30 2941 H 277.296 -0.0494929 0.752374 0
M  V30 2942 H 279.947 0.574289 1.74282 0
M  V30 2943 H 278.329 -1.02832 3.82415 0
M  V30 2944 H 279.503 1.80001 4.24189 0
M  V30 2945 H 277.818 1.47977 3.89219 0
M  V30 2946 H 280.415 -0.939841 5.26375 0
M  V30 2947 H 280.758 -1.77201 3.76703 0
M  V30 2948 H 281.291 -0.0862669 3.97706 0
M  V30 2949 H 278.03 1.80718 6.30096 0
M  V30 2950 H 277.55 0.121825 5.99676 0
M  V30 2951 H 279.229 0.506163 6.45017 0
M  V30 2952 N 279.361 -1.56624 0.175154 0
M  V30 2953 C 280.293 -2.15333 -0.785128 0
M  V30 2954 C 281.306 -1.1099 -1.19101 0
M  V30 2955 O 282.495 -1.38162 -1.13019 0
M  V30 2956 C 279.595 -2.68427 -2.06882 0
M  V30 2957 C 278.768 -3.97466 -1.8259 0
M  V30 2958 C 277.827 -4.35585 -2.95215 0
M  V30 2959 O 276.853 -5.03389 -2.65684 0
M  V30 2960 N 278.055 -3.97457 -4.23094 0
M  V30 2961 H 280.82 -2.98359 -0.283187 0
M  V30 2962 H 278.381 -1.61898 -0.00749817 0
M  V30 2963 H 280.373 -2.90924 -2.81328 0
M  V30 2964 H 278.943 -1.89968 -2.48256 0
M  V30 2965 H 278.163 -3.83307 -0.920287 0
M  V30 2966 H 279.451 -4.81736 -1.63733 0
M  V30 2967 H 278.849 -3.42878 -4.49945 0
M  V30 2968 H 277.406 -4.24947 -4.9423 0
M  V30 2969 N 280.839 0.0985539 -1.57292 0
M  V30 2970 C 282.116 0.834155 -1.76921 0
M  V30 2971 C 282.496 1.97101 -0.755928 0
M  V30 2972 O 281.844 2.27474 0.216245 0
M  V30 2973 C 282.054 1.33194 -3.22584 0
M  V30 2974 C 283.402 1.77611 -3.85668 0
M  V30 2975 O 284.426 1.42825 -3.26312 0
M  V30 2976 O 283.285 2.4192 -4.90038 0
M  V30 2977 H 280.379 0.397628 -0.725135 0
M  V30 2978 H 282.925 0.0807044 -1.69508 0
M  V30 2979 H 281.697 0.517248 -3.87866 0
M  V30 2980 H 281.32 2.1475 -3.34616 0
M  V30 2981 N 282.317 1.53212 0.369288 0
M  V30 2982 C 283.247 1.82365 1.45826 0
M  V30 2983 C 284.228 0.676907 1.56051 0
M  V30 2984 O 285.413 0.926401 1.70679 0
M  V30 2985 C 282.543 2.01023 2.83208 0
M  V30 2986 C 281.497 3.1678 2.8781 0
M  V30 2987 C 280.823 3.20724 4.27832 0
M  V30 2988 C 282.123 4.55447 2.55667 0
M  V30 2989 H 283.817 2.73559 1.21678 0
M  V30 2990 H 281.363 1.3163 0.583911 0
M  V30 2991 H 283.316 2.20001 3.59413 0
M  V30 2992 H 282.04 1.06536 3.08736 0
M  V30 2993 H 280.699 2.97616 2.14056 0
M  V30 2994 H 280.347 2.23882 4.50429 0
M  V30 2995 H 280.047 3.98496 4.31827 0
M  V30 2996 H 281.571 3.41881 5.05915 0
M  V30 2997 H 282.985 4.74611 3.21586 0
M  V30 2998 H 281.382 5.35432 2.70984 0
M  V30 2999 H 282.452 4.60812 1.5093 0
M  V30 3000 N 283.795 -0.628877 1.44509 0
M  V30 3001 C 284.742 -1.74074 1.51549 0
M  V30 3002 C 285.712 -1.62084 0.363021 0
M  V30 3003 O 286.897 -1.81975 0.573567 0
M  V30 3004 C 284.037 -3.12328 1.46784 0
M  V30 3005 C 283.15 -3.35277 2.72422 0
M  V30 3006 C 282.285 -4.63515 2.59475 0
M  V30 3007 C 281.324 -4.7965 3.80266 0
M  V30 3008 N 280.461 -5.99168 3.65981 0
M  V30 3009 H 285.301 -1.67392 2.46544 0
M  V30 3010 H 282.838 -0.816527 1.22357 0
M  V30 3011 H 284.796 -3.92286 1.42012 0
M  V30 3012 H 283.426 -3.18018 0.553544 0
M  V30 3013 H 282.478 -2.49242 2.87372 0
M  V30 3014 H 283.79 -3.43078 3.62076 0
M  V30 3015 H 282.944 -5.51638 2.52548 0
M  V30 3016 H 281.683 -4.58076 1.67384 0
M  V30 3017 H 280.688 -3.89957 3.87574 0
M  V30 3018 H 281.913 -4.86902 4.73395 0
M  V30 3019 H 279.859 -5.94814 2.76644 0
M  V30 3020 H 279.776 -6.08035 4.49254 0
M  V30 3021 H 281.044 -6.89846 3.6295 0
M  V30 3022 N 285.273 -1.31445 -0.869486 0
M  V30 3023 C 286.684 -1.19042 -1.43826 0
M  V30 3024 C 287.035 0.202919 -1.95148 0
M  V30 3025 O 286.16 1.10071 -1.86315 0
M  V30 3026 C 286.755 -2.15499 -2.6143 0
M  V30 3027 C 285.314 -2.07028 -3.14351 0
M  V30 3028 C 284.461 -2.04701 -1.87063 0
M  V30 3029 H 287.412 -1.43489 -0.677984 0
M  V30 3030 H 287.433 -1.74488 -3.38134 0
M  V30 3031 H 286.945 -3.16899 -2.24046 0
M  V30 3032 H 285.046 -1.08825 -3.56354 0
M  V30 3033 H 285.159 -2.96157 -3.766 0
M  V30 3034 H 283.523 -1.49724 -2.06046 0
M  V30 3035 H 284.306 -3.07857 -1.51917 0
M  V30 3036 N 286.751 1.08385 -1.14413 0
M  V30 3037 C 287.699 2.17406 -0.826888 0
M  V30 3038 C 288.693 1.6827 0.195312 0
M  V30 3039 O 289.899 1.79927 0.0513892 0
M  V30 3040 H 286.274 0.70934 -0.249681 0
M  V30 3041 H 288.245 2.41388 -1.75426 0
M  V30 3042 C 286.994 3.46215 -0.320979 0
M  V30 3043 H 286.317 3.84401 -1.0989 0
M  V30 3044 H 287.757 4.23777 -0.137549 0
M  V30 3045 C 286.216 3.23067 0.955472 0
M  V30 3046 O 286.746 3.4668 2.02918 0
M  V30 3047 N 284.952 2.7661 0.890798 0
M  V30 3048 H 284.499 2.57594 0.0168815 0
M  V30 3049 H 284.457 2.61501 1.74542 0
M  V30 3050 N 288.23 0.939286 1.26551 0
M  V30 3051 C 289.458 0.602536 1.97932 0
M  V30 3052 C 289.873 -0.82206 1.69964 0
M  V30 3053 O 289.23 -1.54789 0.966784 0
M  V30 3054 C 289.281 0.832946 3.51773 0
M  V30 3055 O 289.002 2.20151 3.78768 0
M  V30 3056 C 290.503 0.506483 4.40397 0
M  V30 3057 H 287.723 0.227248 0.631347 0
M  V30 3058 H 290.267 1.25948 1.61113 0
M  V30 3059 H 288.422 0.222644 3.8676 0
M  V30 3060 H 288.836 2.26013 4.73306 0
M  V30 3061 H 290.31 0.718333 5.47306 0
M  V30 3062 H 290.787 -0.558451 4.35635 0
M  V30 3063 H 291.393 1.09543 4.10951 0
M  V30 3064 N 289.708 -1.40897 0.706093 0
M  V30 3065 C 290.957 -2.00284 0.238574 0
M  V30 3066 C 291.27 -1.56604 -1.17194 0
M  V30 3067 O 292.476 -2.08624 -1.73748 0
M  V30 3068 C 290.932 -3.57934 0.375623 0
M  V30 3069 C 290.54 -4.10591 1.79217 0
M  V30 3070 C 292.284 -4.24488 -0.0315857 0
M  V30 3071 C 290.191 -5.60712 1.88032 0
M  V30 3072 H 289.121 -0.749144 0.0854398 0
M  V30 3073 H 291.772 -1.61251 0.875813 0
M  V30 3074 H 290.154 -3.94622 -0.330042 0
M  V30 3075 H 291.328 -3.85301 2.52745 0
M  V30 3076 H 289.643 -3.56601 2.15 0
M  V30 3077 H 292.24 -5.34698 0.0136842 0
M  V30 3078 H 292.583 -4.02261 -1.072 0
M  V30 3079 H 293.116 -3.92873 0.624181 0
M  V30 3080 H 289.855 -5.87781 2.90161 0
M  V30 3081 H 289.375 -5.87896 1.18903 0
M  V30 3082 H 291.054 -6.25658 1.64805 0
M  V30 3083 N 291.186 -0.45159 -1.50991 0
M  V30 3084 C 292.119 0.398179 -2.24699 0
M  V30 3085 C 293.097 1.01276 -1.27208 0
M  V30 3086 O 294.281 1.05247 -1.56382 0
M  V30 3087 C 291.408 1.55618 -3.00833 0
M  V30 3088 C 290.454 1.0609 -4.13095 0
M  V30 3089 S 291.287 -0.00865136 -5.35499 0
M  V30 3090 C 292.443 1.15369 -6.15175 0
M  V30 3091 H 292.676 -0.227555 -2.96428 0
M  V30 3092 H 290.209 -0.236251 -1.52582 0
M  V30 3093 H 292.167 2.21997 -3.45293 0
M  V30 3094 H 290.828 2.15337 -2.28667 0
M  V30 3095 H 290.021 1.92726 -4.65696 0
M  V30 3096 H 289.623 0.47513 -3.7097 0
M  V30 3097 H 291.915 2.06925 -6.45126 0
M  V30 3098 H 292.858 0.667344 -7.04948 0
M  V30 3099 H 293.266 1.3987 -5.46897 0
M  V30 3100 N 292.664 1.56529 -0.183458 0
M  V30 3101 C 293.91 1.97537 0.459036 0
M  V30 3102 C 294.243 1.06989 1.62071 0
M  V30 3103 O 293.518 0.11948 1.94133 0
M  V30 3104 C 293.801 3.47874 0.930368 0
M  V30 3105 C 293.654 4.492 -0.232317 0
M  V30 3106 C 294.973 4.01612 1.79989 0
M  V30 3107 H 292.092 0.718204 0.165383 0
M  V30 3108 H 294.734 1.88042 -0.272038 0
M  V30 3109 H 292.884 3.56095 1.55333 0
M  V30 3110 H 294.556 4.53027 -0.86972 0
M  V30 3111 H 292.799 4.24657 -0.885928 0
M  V30 3112 H 293.47 5.51823 0.139796 0
M  V30 3113 H 295.946 3.96097 1.27461 0
M  V30 3114 H 294.822 5.07195 2.09867 0
M  V30 3115 H 295.083 3.46163 2.74998 0
M  V30 3116 N 294.142 -0.090211 1.57342 0
M  V30 3117 C 295.072 -1.10976 2.05443 0
M  V30 3118 C 296.053 -1.41482 0.944284 0
M  V30 3119 O 297.238 -1.51428 1.21586 0
M  V30 3120 C 294.368 -2.42831 2.48295 0
M  V30 3121 C 293.322 -2.26721 3.63018 0
M  V30 3122 C 292.648 -3.63796 3.91863 0
M  V30 3123 C 293.948 -1.7037 4.93732 0
M  V30 3124 H 295.642 -0.709564 2.9087 0
M  V30 3125 H 293.188 -0.339874 1.39932 0
M  V30 3126 H 295.141 -3.14431 2.80555 0
M  V30 3127 H 293.865 -2.84795 1.59873 0
M  V30 3128 H 292.524 -1.57565 3.31012 0
M  V30 3129 H 292.172 -4.03297 3.00601 0
M  V30 3130 H 291.872 -3.53861 4.69101 0
M  V30 3131 H 293.396 -4.36855 4.26603 0
M  V30 3132 H 294.81 -2.31816 5.24342 0
M  V30 3133 H 293.207 -1.71181 5.75167 0
M  V30 3134 H 294.277 -0.663542 4.80339 0
M  V30 3135 N 295.62 -1.53406 -0.361157 0
M  V30 3136 C 296.866 -1.70054 -1.10496 0
M  V30 3137 C 297.199 -0.453278 -1.88836 0
M  V30 3138 O 296.474 0.5495 -1.86576 0
M  V30 3139 C 296.757 -2.95317 -2.06058 0
M  V30 3140 C 296.61 -4.3021 -1.31298 0
M  V30 3141 C 297.929 -3.16193 -3.06121 0
M  V30 3142 H 295.048 -0.618799 -0.400321 0
M  V30 3143 H 297.69 -1.86052 -0.385318 0
M  V30 3144 H 295.84 -2.81809 -2.67425 0
M  V30 3145 H 297.512 -4.55538 -0.726807 0
M  V30 3146 H 295.755 -4.29421 -0.614853 0
M  V30 3147 H 296.426 -5.14 -2.01265 0
M  V30 3148 H 298.902 -3.28916 -2.5486 0
M  V30 3149 H 297.778 -4.05266 -3.70204 0
M  V30 3150 H 298.039 -2.31676 -3.76535 0
M  V30 3151 N 297.098 0.621204 -1.44841 0
M  V30 3152 C 298.046 1.75385 -1.52784 0
M  V30 3153 C 299.04 1.64639 -0.398779 0
M  V30 3154 O 300.246 1.70598 -0.574137 0
M  V30 3155 H 296.621 0.579193 -0.479625 0
M  V30 3156 H 298.592 1.6581 -2.48092 0
M  V30 3157 C 297.341 3.13742 -1.4987 0
M  V30 3158 H 296.664 3.22663 -2.36069 0
M  V30 3159 H 298.104 3.92861 -1.59487 0
M  V30 3160 C 296.563 3.36175 -0.220973 0
M  V30 3161 O 297.093 3.95469 0.704782 0
M  V30 3162 N 295.299 2.90348 -0.120963 0
M  V30 3163 H 294.846 2.42278 -0.875162 0
M  V30 3164 H 294.804 3.05732 0.733168 0
M  V30 3165 N 298.576 1.31904 0.862503 0
M  V30 3166 C 299.806 1.24817 1.64634 0
M  V30 3167 C 300.214 -0.187579 1.88268 0
M  V30 3168 O 299.557 -1.13253 1.44635 0
M  V30 3169 C 299.619 1.92996 3.03303 0
M  V30 3170 C 299.283 3.42336 3.02746 0
M  V30 3171 C 300.28 4.37956 2.80162 0
M  V30 3172 C 297.965 3.84147 3.2363 0
M  V30 3173 C 299.959 5.73361 2.78453 0
M  V30 3174 C 297.646 5.19663 3.21549 0
M  V30 3175 C 298.644 6.14081 2.98988 0
M  V30 3176 O 298.332 7.47118 2.96766 0
M  V30 3177 H 298.064 0.432222 0.519769 0
M  V30 3178 H 300.618 1.7445 1.08427 0
M  V30 3179 H 298.848 1.37922 3.61268 0
M  V30 3180 H 300.537 1.79723 3.63943 0
M  V30 3181 H 301.303 4.06981 2.63802 0
M  V30 3182 H 297.182 3.11083 3.40218 0
M  V30 3183 H 300.726 6.4703 2.60763 0
M  V30 3184 H 296.623 5.5027 3.37451 0
M  V30 3185 H 297.391 7.56382 3.12775 0
M  V30 3186 N 300.054 -1.07777 1.14986 0
M  V30 3187 C 301.303 -1.79669 0.916617 0
M  V30 3188 C 301.616 -1.87474 -0.557917 0
M  V30 3189 O 302.822 -2.55845 -0.908617 0
M  V30 3190 C 301.278 -3.22848 1.59051 0
M  V30 3191 C 300.886 -3.23257 3.10176 0
M  V30 3192 C 302.63 -3.99379 1.43864 0
M  V30 3193 C 300.537 -4.61063 3.70372 0
M  V30 3194 H 299.467 -0.673349 0.33929 0
M  V30 3195 H 302.118 -1.21003 1.37951 0
M  V30 3196 H 300.5 -3.8168 1.0553 0
M  V30 3197 H 301.674 -2.74095 3.70417 0
M  V30 3198 H 299.989 -2.60222 3.25074 0
M  V30 3199 H 302.586 -5.0122 1.86232 0
M  V30 3200 H 302.929 -4.14511 0.385564 0
M  V30 3201 H 303.462 -3.47032 1.94457 0
M  V30 3202 H 300.201 -4.51135 4.7556 0
M  V30 3203 H 299.721 -5.1048 3.14913 0
M  V30 3204 H 301.4 -5.30034 3.71043 0
M  V30 3205 N 301.532 -0.945985 -1.26051 0
M  V30 3206 C 302.482 -0.430164 -2.23905 0
M  V30 3207 C 303.466 0.47579 -1.53704 0
M  V30 3208 O 304.658 0.310252 -1.7426 0
M  V30 3209 C 301.787 0.298957 -3.41996 0
M  V30 3210 C 300.873 -0.624566 -4.19476 0
M  V30 3211 N 301.264 -1.75245 -4.74471 0
M  V30 3212 C 299.562 -0.431082 -4.43912 0
M  V30 3213 C 300.263 -2.32834 -5.3307 0
M  V30 3214 N 299.239 -1.61583 -5.1903 0
M  V30 3215 H 303.041 -1.29107 -2.64024 0
M  V30 3216 H 300.555 -0.802428 -1.41191 0
M  V30 3217 H 302.552 0.685565 -4.11225 0
M  V30 3218 H 301.212 1.15657 -3.03403 0
M  V30 3219 H 302.223 -2.13449 -4.71868 0
M  V30 3220 H 298.9 0.384364 -4.15727 0
M  V30 3221 H 300.29 -3.27893 -5.86461 0
M  V30 3222 N 303.011 1.40521 -0.713556 0
M  V30 3223 C 304.258 2.00923 -0.25219 0
M  V30 3224 C 304.586 1.56571 1.15395 0
M  V30 3225 O 303.841 0.775874 1.79663 0
M  V30 3226 C 304.14 3.56317 -0.278 0
M  V30 3227 C 303.806 4.20246 -1.63415 0
M  V30 3228 C 302.468 4.37422 -2.00538 0
M  V30 3229 C 304.82 4.55923 -2.52554 0
M  V30 3230 C 302.148 4.87558 -3.2635 0
M  V30 3231 C 304.5 5.07458 -3.77716 0
M  V30 3232 C 303.164 5.22843 -4.14959 0
M  V30 3233 H 302.434 0.735231 -0.0922829 0
M  V30 3234 H 305.081 1.68161 -0.916188 0
M  V30 3235 H 303.386 3.88976 0.469567 0
M  V30 3236 H 305.083 4.00883 0.0967819 0
M  V30 3237 H 301.673 4.07263 -1.33546 0
M  V30 3238 H 305.857 4.42291 -2.25149 0
M  V30 3239 H 301.113 4.97654 -3.55176 0
M  V30 3240 H 305.287 5.34041 -4.4696 0
M  V30 3241 H 302.914 5.61454 -5.12516 0
M  V30 3242 N 304.489 0.459591 1.5075 0
M  V30 3243 C 305.436 -0.340524 2.28274 0
M  V30 3244 C 306.406 -0.997371 1.32822 0
M  V30 3245 O 307.591 -1.01202 1.61749 0
M  V30 3246 C 304.731 -1.42317 3.14388 0
M  V30 3247 C 303.844 -0.782251 4.24859 0
M  V30 3248 C 302.979 -1.84182 4.98247 0
M  V30 3249 C 302.018 -1.18053 6.00608 0
M  V30 3250 N 301.155 -2.18244 6.67319 0
M  V30 3251 H 305.995 0.326899 2.96202 0
M  V30 3252 H 303.532 0.173057 1.46078 0
M  V30 3253 H 305.49 -2.06241 3.62658 0
M  V30 3254 H 304.12 -2.05992 2.4853 0
M  V30 3255 H 303.172 -0.0307404 3.80388 0
M  V30 3256 H 304.484 -0.259663 4.98124 0
M  V30 3257 H 303.638 -2.55714 5.50177 0
M  V30 3258 H 302.377 -2.39819 4.24662 0
M  V30 3259 H 301.382 -0.450776 5.47949 0
M  V30 3260 H 302.607 -0.631202 6.7616 0
M  V30 3261 H 300.553 -2.72919 5.96533 0
M  V30 3262 H 300.47 -1.70938 7.36421 0
M  V30 3263 H 301.738 -2.89191 7.23871 0
M  V30 3264 N 305.967 -1.56429 0.191757 0
M  V30 3265 C 306.93 -2.17707 -0.716688 0
M  V30 3266 C 307.93 -1.13061 -1.14341 0
M  V30 3267 O 309.12 -1.38464 -1.05704 0
M  V30 3268 C 306.252 -2.77644 -1.97804 0
M  V30 3269 H 307.445 -2.99342 -0.1829 0
M  V30 3270 H 304.998 -1.56193 -0.0578566 0
M  V30 3271 H 305.733 -1.99799 -2.55443 0
M  V30 3272 H 305.518 -3.54246 -1.68083 0
M  V30 3273 H 307.008 -3.24708 -2.62592 0
M  V30 3274 N 307.445 0.0818655 -1.57387 0
M  V30 3275 C 308.377 1.12484 -1.997 0
M  V30 3276 C 309.39 1.35564 -0.90146 0
M  V30 3277 O 310.579 1.33982 -1.17945 0
M  V30 3278 C 307.679 2.47778 -2.31213 0
M  V30 3279 C 306.852 2.44793 -3.62485 0
M  V30 3280 C 305.911 3.62117 -3.81782 0
M  V30 3281 O 304.937 3.44005 -4.53486 0
M  V30 3282 N 306.139 4.82094 -3.23367 0
M  V30 3283 H 308.904 0.764585 -2.89783 0
M  V30 3284 H 306.465 0.270664 -1.59621 0
M  V30 3285 H 308.457 3.24891 -2.41304 0
M  V30 3286 H 307.027 2.75843 -1.4707 0
M  V30 3287 H 306.247 1.53134 -3.6324 0
M  V30 3288 H 307.535 2.39889 -4.48699 0
M  V30 3289 H 306.933 4.99713 -2.65148 0
M  V30 3290 H 305.49 5.56753 -3.38923 0
M  V30 3291 N 308.923 1.53595 0.353017 0
M  V30 3292 C 310.169 1.71581 1.09232 0
M  V30 3293 C 310.524 0.468328 1.86613 0
M  V30 3294 O 309.817 -0.538911 1.83865 0
M  V30 3295 C 310.011 2.91313 2.07054 0
M  V30 3296 C 309.84 4.27585 1.39287 0
M  V30 3297 C 308.61 4.92233 1.1417 0
M  V30 3298 C 310.808 5.07656 0.824005 0
M  V30 3299 N 308.79 6.124 0.428841 0
M  V30 3300 C 310.161 6.19531 0.241195 0
M  V30 3301 C 312.216 4.92609 0.723922 0
M  V30 3302 C 310.919 7.18002 -0.431952 0
M  V30 3303 C 312.945 5.91365 0.0645334 0
M  V30 3304 C 312.307 7.02571 -0.507347 0
M  V30 3305 H 308.406 0.680987 0.384422 0
M  V30 3306 H 310.99 1.91013 0.377096 0
M  V30 3307 H 309.161 2.73398 2.75877 0
M  V30 3308 H 310.893 2.98062 2.73753 0
M  V30 3309 H 307.648 4.51612 1.42631 0
M  V30 3310 H 308.072 6.76944 0.0874131 0
M  V30 3311 H 312.714 4.06808 1.15181 0
M  V30 3312 H 310.432 8.03384 -0.871758 0
M  V30 3313 H 314.018 5.81799 -0.0121469 0
M  V30 3314 H 312.898 7.77675 -1.0095 0
M  V30 3315 N 310.401 -0.613514 1.45168 0
M  V30 3316 C 311.364 -1.7065 1.53007 0
M  V30 3317 C 312.364 -1.5548 0.410184 0
M  V30 3318 O 313.554 -1.60656 0.673455 0
M  V30 3319 C 310.686 -3.09875 1.42093 0
M  V30 3320 H 311.879 -1.65068 2.50385 0
M  V30 3321 H 309.432 -0.828728 1.32521 0
M  V30 3322 H 310.167 -3.21039 0.458769 0
M  V30 3323 H 309.952 -3.22293 2.23315 0
M  V30 3324 H 311.442 -3.895 1.50598 0
M  V30 3325 N 311.879 -1.3236 -0.855495 0
M  V30 3326 C 312.827 -1.2118 -1.9854 0
M  V30 3327 C 313.821 -0.116788 -1.68997 0
M  V30 3328 O 315.027 -0.279657 -1.77814 0
M  V30 3329 H 311.402 -0.375608 -0.651477 0
M  V30 3330 H 313.373 -2.16743 -2.05098 0
M  V30 3331 C 312.122 -0.950849 -3.34446 0
M  V30 3332 H 311.445 -1.78563 -3.57708 0
M  V30 3333 H 312.885 -0.912863 -4.14057 0
M  V30 3334 C 311.344 0.346404 -3.35114 0
M  V30 3335 O 311.874 1.35855 -3.7803 0
M  V30 3336 N 310.08 0.36808 -2.88259 0
M  V30 3337 H 309.627 -0.456102 -2.5353 0
M  V30 3338 H 309.585 1.23591 -2.89089 0
M  V30 3339 N 313.357 1.07166 -1.15556 0
M  V30 3340 C 314.768 1.6127 -0.940693 0
M  V30 3341 C 315.119 1.89251 0.517551 0
M  V30 3342 O 314.244 1.65937 1.38903 0
M  V30 3343 C 314.839 2.92993 -1.7012 0
M  V30 3344 C 313.398 3.43832 -1.53156 0
M  V30 3345 C 312.545 2.1786 -1.71558 0
M  V30 3346 H 315.496 0.90229 -1.30554 0
M  V30 3347 H 315.517 3.62007 -1.17181 0
M  V30 3348 H 315.029 2.72596 -2.76248 0
M  V30 3349 H 313.13 3.69307 -0.494294 0
M  V30 3350 H 313.243 4.19747 -2.30975 0
M  V30 3351 H 311.607 2.2765 -1.14225 0
M  V30 3352 H 312.39 1.99956 -2.79056 0
M  V30 3353 N 314.835 0.952656 1.25548 0
M  V30 3354 C 316.082 0.606373 1.93208 0
M  V30 3355 C 316.41 -0.85631 1.74636 0
M  V30 3356 O 315.665 -1.62951 1.08376 0
M  V30 3357 C 315.964 0.908818 3.45652 0
M  V30 3358 C 315.63 2.35722 3.84378 0
M  V30 3359 C 314.292 2.75312 3.9466 0
M  V30 3360 C 316.644 3.29793 4.03591 0
M  V30 3361 C 313.972 4.08047 4.21562 0
M  V30 3362 C 316.324 4.62138 4.31985 0
M  V30 3363 C 314.988 5.01528 4.40484 0
M  V30 3364 H 314.258 0.221888 0.706998 0
M  V30 3365 H 316.905 1.20132 1.49133 0
M  V30 3366 H 315.21 0.231456 3.91116 0
M  V30 3367 H 316.907 0.619498 3.96186 0
M  V30 3368 H 313.497 2.04017 3.76928 0
M  V30 3369 H 317.681 3.00397 3.95064 0
M  V30 3370 H 312.937 4.38212 4.26357 0
M  V30 3371 H 317.111 5.35012 4.45797 0
M  V30 3372 H 314.738 6.04406 4.61083 0
M  V30 3373 N 316.313 -1.40141 0.720998 0
M  V30 3374 C 317.59 -1.94677 0.189757 0
M  V30 3375 C 317.97 -1.65879 -1.30566 0
M  V30 3376 O 317.318 -0.979391 -2.06447 0
M  V30 3377 C 317.528 -3.45279 0.508304 0
M  V30 3378 C 318.876 -4.22209 0.449934 0
M  V30 3379 O 319.9 -3.53413 0.444677 0
M  V30 3380 O 318.759 -5.44788 0.432189 0
M  V30 3381 H 315.853 -0.826459 0.0299026 0
M  V30 3382 H 318.399 -1.49719 0.7989 0
M  V30 3383 H 317.171 -3.59619 1.54239 0
M  V30 3384 H 316.794 -3.97386 -0.130525 0
M  V30 3385 N 317.792 -0.46758 -1.50504 0
M  V30 3386 C 319.203 -0.0116166 -1.86696 0
M  V30 3387 C 319.554 1.39202 -1.38265 0
M  V30 3388 O 318.679 2.0313 -0.746132 0
M  V30 3389 C 319.274 -0.0143044 -3.38797 0
M  V30 3390 C 317.833 0.386175 -3.74414 0
M  V30 3391 C 316.98 -0.401287 -2.74381 0
M  V30 3392 H 319.931 -0.682022 -1.43297 0
M  V30 3393 H 319.952 0.788641 -3.72237 0
M  V30 3394 H 319.464 -1.03602 -3.74016 0
M  V30 3395 H 317.565 1.41237 -3.44794 0
M  V30 3396 H 317.678 0.0899596 -4.79016 0
M  V30 3397 H 316.042 0.144536 -2.5429 0
M  V30 3398 H 316.825 -1.42244 -3.12444 0
M  V30 3399 N 319.27 1.56325 -0.20005 0
M  V30 3400 C 320.495 2.02548 0.44597 0
M  V30 3401 C 320.92 1.07922 1.5406 0
M  V30 3402 O 320.278 0.0635775 1.81188 0
M  V30 3403 C 320.326 3.47175 0.974761 0
M  V30 3404 O 319.43 3.55671 2.08739 0
M  V30 3405 H 318.771 0.655862 0.103638 0
M  V30 3406 H 321.301 2.02201 -0.312381 0
M  V30 3407 H 321.311 3.87067 1.2901 0
M  V30 3408 H 319.986 4.15538 0.17347 0
M  V30 3409 H 318.563 3.27657 1.78032 0
M  V30 3410 N 320.748 -0.0735177 1.57428 0
M  V30 3411 C 321.695 -1.08756 2.0357 0
M  V30 3412 C 322.665 -1.38559 0.916 0
M  V30 3413 O 323.85 -1.49656 1.18354 0
M  V30 3414 C 320.99 -2.39657 2.48311 0
M  V30 3415 C 320.103 -2.16399 3.73892 0
M  V30 3416 C 319.238 -3.40852 4.07423 0
M  V30 3417 C 318.277 -3.1295 5.2605 0
M  V30 3418 N 317.414 -4.29729 5.55228 0
M  V30 3419 H 322.254 -0.687104 2.8997 0
M  V30 3420 H 319.791 -0.327709 1.43403 0
M  V30 3421 H 321.749 -3.16081 2.72303 0
M  V30 3422 H 320.379 -2.77508 1.64891 0
M  V30 3423 H 319.431 -1.30676 3.57251 0
M  V30 3424 H 320.743 -1.91788 4.60455 0
M  V30 3425 H 319.897 -4.25671 4.32306 0
M  V30 3426 H 318.636 -3.68537 3.19425 0
M  V30 3427 H 317.641 -2.26526 5.00965 0
M  V30 3428 H 318.866 -2.86589 6.15665 0
M  V30 3429 H 316.812 -4.57448 4.70188 0
M  V30 3430 H 316.729 -4.08385 6.36206 0
M  V30 3431 H 317.997 -5.1555 5.84661 0
M  V30 3432 N 322.226 -1.5378 -0.344866 0
M  V30 3433 C 323.454 -1.74899 -1.10534 0
M  V30 3434 C 323.869 -0.487534 -1.82397 0
M  V30 3435 O 323.226 0.540741 -1.74305 0
M  V30 3436 C 323.277 -2.92822 -2.11984 0
M  V30 3437 O 322.998 -4.14089 -1.43044 0
M  V30 3438 C 324.499 -3.25982 -3.00417 0
M  V30 3439 H 321.719 -0.584426 -0.329678 0
M  V30 3440 H 324.263 -2.006 -0.397474 0
M  V30 3441 H 322.418 -2.69457 -2.78338 0
M  V30 3442 H 322.832 -4.80272 -2.10805 0
M  V30 3443 H 324.306 -4.11848 -3.67539 0
M  V30 3444 H 324.783 -2.42228 -3.66363 0
M  V30 3445 H 325.389 -3.51349 -2.39654 0
M  V30 3446 N 323.704 0.605807 -1.45491 0
M  V30 3447 C 324.614 1.74466 -1.56839 0
M  V30 3448 C 325.63 1.68006 -0.452772 0
M  V30 3449 O 326.806 1.8833 -0.713708 0
M  V30 3450 C 323.871 3.10931 -1.53371 0
M  V30 3451 C 322.932 3.28832 -2.75986 0
M  V30 3452 C 322.165 4.58787 -2.72673 0
M  V30 3453 O 322.388 5.4122 -1.80102 0
M  V30 3454 O 321.322 4.79438 -3.63899 0
M  V30 3455 H 325.148 1.67843 -2.53106 0
M  V30 3456 H 322.733 0.770108 -1.28022 0
M  V30 3457 H 324.615 3.92233 -1.54051 0
M  V30 3458 H 323.29 3.18042 -0.602572 0
M  V30 3459 H 322.197 2.47112 -2.80867 0
M  V30 3460 H 323.53 3.26599 -3.68231 0
M  V30 3461 N 325.182 1.32811 0.848464 0
M  V30 3462 C 326.459 1.14334 1.58704 0
M  V30 3463 C 326.839 -0.293948 2.09043 0
M  V30 3464 O 326.187 -1.29153 1.88499 0
M  V30 3465 C 326.397 2.17626 2.72837 0
M  V30 3466 C 327.745 2.51282 3.42261 0
M  V30 3467 O 328.769 2.16219 2.83068 0
M  V30 3468 O 327.628 3.11413 4.49093 0
M  V30 3469 H 324.722 0.441601 0.699226 0
M  V30 3470 H 327.268 1.44362 0.892053 0
M  V30 3471 H 326.04 3.14211 2.3321 0
M  V30 3472 H 325.663 1.88628 3.50008 0
M  V30 3473 N 326.66 -1.06551 1.16123 0
M  V30 3474 C 327.885 -1.83544 0.965735 0
M  V30 3475 C 328.31 -1.81843 -0.481102 0
M  V30 3476 O 327.668 -1.21732 -1.34354 0
M  V30 3477 C 327.716 -3.28169 1.49457 0
M  V30 3478 O 326.82 -4.0643 0.699157 0
M  V30 3479 H 326.161 -0.568026 0.343864 0
M  V30 3480 H 328.691 -1.34362 1.54299 0
M  V30 3481 H 328.701 -3.78992 1.51092 0
M  V30 3482 H 327.376 -3.28722 2.54784 0
M  V30 3483 H 325.953 -3.65216 0.7531 0
M  V30 3484 N 328.138 -0.959301 -1.25041 0
M  V30 3485 C 329.363 -0.633507 -1.97488 0
M  V30 3486 C 329.788 0.788555 -1.70773 0
M  V30 3487 O 329.146 1.53394 -0.966431 0
M  V30 3488 C 329.194 -0.904057 -3.49083 0
M  V30 3489 O 328.298 0.0147939 -4.12397 0
M  V30 3490 H 327.639 -0.240368 -0.618966 0
M  V30 3491 H 330.169 -1.28717 -1.59038 0
M  V30 3492 H 330.179 -0.832203 -3.99423 0
M  V30 3493 H 328.854 -1.94048 -3.67856 0
M  V30 3494 H 327.431 -0.109664 -3.72739 0
M  V30 3495 N 329.616 1.39756 -0.72842 0
M  V30 3496 C 330.841 2.05472 -0.282159 0
M  V30 3497 C 331.266 1.54549 1.07221 0
M  V30 3498 O 330.624 0.686372 1.67805 0
M  V30 3499 C 330.672 3.59462 -0.286264 0
M  V30 3500 O 329.776 4.05918 0.728298 0
M  V30 3501 H 329.117 0.651226 -0.129618 0
M  V30 3502 H 331.647 1.78915 -0.992499 0
M  V30 3503 H 331.657 4.07798 -0.128373 0
M  V30 3504 H 330.332 3.95889 -1.27456 0
M  V30 3505 H 328.909 3.69012 0.537081 0
M  V30 3506 N 331.094 0.475555 1.50254 0
M  V30 3507 C 332.341 -0.0778919 2.0235 0
M  V30 3508 C 332.669 -1.39319 1.35722 0
M  V30 3509 O 331.924 -1.89888 0.473395 0
M  V30 3510 C 332.223 -0.305114 3.56095 0
M  V30 3511 C 331.889 0.92903 4.41225 0
M  V30 3512 C 330.551 1.26739 4.6421 0
M  V30 3513 C 332.903 1.75054 4.90923 0
M  V30 3514 C 330.231 2.42724 5.34137 0
M  V30 3515 C 332.583 2.9017 5.62125 0
M  V30 3516 C 331.247 3.24416 5.83362 0
M  V30 3517 H 330.517 -0.0285027 0.740452 0
M  V30 3518 H 333.164 0.630543 1.80821 0
M  V30 3519 H 331.469 -1.09584 3.76163 0
M  V30 3520 H 333.166 -0.747377 3.93974 0
M  V30 3521 H 329.756 0.655428 4.23559 0
M  V30 3522 H 333.94 1.50231 4.73016 0
M  V30 3523 H 329.196 2.69525 5.48786 0
M  V30 3524 H 333.37 3.54169 5.99614 0
M  V30 3525 H 330.997 4.14396 6.37323 0
M  V30 3526 N 332.573 -1.56217 0.208337 0
M  V30 3527 C 333.503 -2.22694 -0.702116 0
M  V30 3528 C 334.484 -1.19432 -1.2112 0
M  V30 3529 O 335.669 -1.47978 -1.25762 0
M  V30 3530 C 332.799 -2.8966 -1.9161 0
M  V30 3531 C 331.753 -3.9928 -1.5414 0
M  V30 3532 C 331.079 -4.53476 -2.83308 0
M  V30 3533 C 332.379 -5.17012 -0.741339 0
M  V30 3534 H 334.073 -2.99034 -0.147898 0
M  V30 3535 H 331.619 -1.43831 -0.0696951 0
M  V30 3536 H 333.572 -3.34852 -2.55836 0
M  V30 3537 H 332.296 -2.10746 -2.49507 0
M  V30 3538 H 330.955 -3.54799 -0.922668 0
M  V30 3539 H 330.603 -3.71308 -3.39322 0
M  V30 3540 H 330.303 -5.27451 -2.58976 0
M  V30 3541 H 331.827 -5.01378 -3.485 0
M  V30 3542 H 333.241 -5.58667 -1.28699 0
M  V30 3543 H 331.638 -5.97137 -0.595627 0
M  V30 3544 H 332.708 -4.8423 0.254851 0
M  V30 3545 N 334.051 0.0651679 -1.57465 0
M  V30 3546 C 335.3 0.761916 -1.86756 0
M  V30 3547 C 335.613 1.78406 -0.801925 0
M  V30 3548 O 336.819 2.53084 -0.982885 0
M  V30 3549 C 335.275 1.40603 -3.31299 0
M  V30 3550 C 334.883 0.422115 -4.46007 0
M  V30 3551 C 336.627 2.08476 -3.69781 0
M  V30 3552 C 334.534 1.07252 -5.81593 0
M  V30 3553 H 333.464 0.288308 -0.696702 0
M  V30 3554 H 336.115 0.015344 -1.83494 0
M  V30 3555 H 334.497 2.20109 -3.29193 0
M  V30 3556 H 335.671 -0.343613 -4.59517 0
M  V30 3557 H 333.986 -0.152527 -4.16121 0
M  V30 3558 H 336.583 2.57925 -4.68379 0
M  V30 3559 H 336.926 2.88712 -2.99919 0
M  V30 3560 H 337.459 1.35792 -3.73905 0
M  V30 3561 H 334.198 0.310342 -6.54765 0
M  V30 3562 H 333.718 1.80895 -5.71872 0
M  V30 3563 H 335.397 1.59043 -6.27148 0
M  V30 3564 N 335.529 1.53961 0.336706 0
M  V30 3565 C 336.806 1.62171 1.09361 0
M  V30 3566 C 337.186 0.447263 2.06307 0
M  V30 3567 O 336.534 -0.559802 2.21537 0
M  V30 3568 C 336.744 2.98565 1.80721 0
M  V30 3569 C 338.092 3.54157 2.34218 0
M  V30 3570 O 339.116 3.00784 1.90807 0
M  V30 3571 O 337.975 4.47528 3.13657 0
M  V30 3572 H 335.069 0.6562 0.503319 0
M  V30 3573 H 337.615 1.66307 0.33765 0
M  V30 3574 H 336.387 3.75482 1.10132 0
M  V30 3575 H 336.01 2.9805 2.63158 0
M  V30 3576 N 337.007 -0.598083 1.45811 0
M  V30 3577 C 337.954 -1.7082 1.55207 0
M  V30 3578 C 338.924 -1.61278 0.39732 0
M  V30 3579 O 340.109 -1.80717 0.612038 0
M  V30 3580 C 337.249 -3.09144 1.53376 0
M  V30 3581 C 336.362 -3.29423 2.79472 0
M  V30 3582 C 335.497 -4.57907 2.69248 0
M  V30 3583 C 334.536 -4.71476 3.90354 0
M  V30 3584 N 333.673 -5.9127 3.78608 0
M  V30 3585 H 338.513 -1.62125 2.50039 0
M  V30 3586 H 336.05 -0.790389 1.24062 0
M  V30 3587 H 338.008 -3.89186 1.50301 0
M  V30 3588 H 336.638 -3.16773 0.620876 0
M  V30 3589 H 335.69 -2.43091 2.92594 0
M  V30 3590 H 337.002 -3.3532 3.69272 0
M  V30 3591 H 336.156 -5.46157 2.64192 0
M  V30 3592 H 334.895 -4.54423 1.77063 0
M  V30 3593 H 333.9 -3.81648 3.95759 0
M  V30 3594 H 335.125 -4.76751 4.83617 0
M  V30 3595 H 333.071 -5.88813 2.89199 0
M  V30 3596 H 332.988 -5.98369 4.6205 0
M  V30 3597 H 334.256 -6.81992 3.77501 0
M  V30 3598 N 338.485 -1.33259 -0.841409 0
M  V30 3599 C 339.713 -1.27605 -1.62864 0
M  V30 3600 C 340.128 0.153507 -1.88175 0
M  V30 3601 O 339.485 1.09485 -1.46011 0
M  V30 3602 C 339.536 -2.04596 -2.98031 0
M  V30 3603 O 339.257 -3.41975 -2.73834 0
M  V30 3604 C 340.758 -2.06122 -3.92465 0
M  V30 3605 H 337.978 -0.439718 -0.506842 0
M  V30 3606 H 340.522 -1.75591 -1.04824 0
M  V30 3607 H 338.677 -1.60299 -3.5268 0
M  V30 3608 H 339.091 -3.81549 -3.59889 0
M  V30 3609 H 340.565 -2.64451 -4.84531 0
M  V30 3610 H 341.042 -1.05083 -4.26444 0
M  V30 3611 H 341.648 -2.50427 -3.43753 0
M  V30 3612 N 339.963 1.05934 -1.16686 0
M  V30 3613 C 341.191 1.8249 -0.974929 0
M  V30 3614 C 341.606 1.82679 0.476861 0
M  V30 3615 O 340.963 1.2486 1.33103 0
M  V30 3616 C 341.014 3.28943 -1.49929 0
M  V30 3617 O 340.735 3.28886 -2.89423 0
M  V30 3618 C 342.236 4.22215 -1.35089 0
M  V30 3619 H 339.456 0.575295 -0.345365 0
M  V30 3620 H 342 1.33631 -1.548 0
M  V30 3621 H 340.155 3.751 -0.968423 0
M  V30 3622 H 340.569 4.20493 -3.13506 0
M  V30 3623 H 342.043 5.22987 -1.76603 0
M  V30 3624 H 342.52 4.38195 -0.296935 0
M  V30 3625 H 343.126 3.81907 -1.87155 0
M  V30 3626 N 341.441 0.965919 1.2453 0
M  V30 3627 C 342.669 0.644385 1.96609 0
M  V30 3628 C 343.084 -0.785823 1.71669 0
M  V30 3629 O 342.441 -1.52703 0.999399 0
M  V30 3630 C 342.492 0.907375 3.49927 0
M  V30 3631 O 342.213 2.28136 3.74013 0
M  V30 3632 C 343.714 0.599784 4.39224 0
M  V30 3633 H 340.934 0.240588 0.626385 0
M  V30 3634 H 343.478 1.29337 1.58405 0
M  V30 3635 H 341.633 0.304631 3.862 0
M  V30 3636 H 342.047 2.36002 4.68405 0
M  V30 3637 H 343.521 0.834263 5.45659 0
M  V30 3638 H 343.998 -0.465921 4.36722 0
M  V30 3639 H 344.604 1.18235 4.08535 0
M  V30 3640 N 342.919 -1.39368 0.735821 0
M  V30 3641 C 344.165 -2.00794 0.284544 0
M  V30 3642 C 344.498 -1.58255 -1.12557 0
M  V30 3643 O 343.773 -0.811819 -1.76748 0
M  V30 3644 C 344.056 -3.58011 0.387337 0
M  V30 3645 C 343.909 -4.10566 1.83728 0
M  V30 3646 C 345.228 -4.395 -0.22975 0
M  V30 3647 H 342.347 -0.729501 0.104866 0
M  V30 3648 H 344.989 -1.65564 0.93213 0
M  V30 3649 H 343.139 -3.88154 -0.164006 0
M  V30 3650 H 344.811 -3.91139 2.44556 0
M  V30 3651 H 343.054 -3.64095 2.35833 0
M  V30 3652 H 343.725 -5.19702 1.86047 0
M  V30 3653 H 346.201 -4.15406 0.240257 0
M  V30 3654 H 345.077 -5.48752 -0.127485 0
M  V30 3655 H 345.338 -4.22062 -1.3159 0
M  V30 3656 N 344.397 -0.483516 -1.5 0
M  V30 3657 C 345.329 0.340634 -2.26655 0
M  V30 3658 C 346.342 0.946152 -1.32483 0
M  V30 3659 O 347.531 0.832453 -1.579 0
M  V30 3660 C 344.631 1.4929 -3.04246 0
M  V30 3661 C 343.804 0.997903 -4.25865 0
M  V30 3662 C 342.863 2.02569 -4.85646 0
M  V30 3663 O 341.889 1.60128 -5.46212 0
M  V30 3664 N 343.091 3.3548 -4.73744 0
M  V30 3665 H 345.856 -0.316577 -2.98023 0
M  V30 3666 H 343.417 -0.315024 -1.58806 0
M  V30 3667 H 345.409 2.17766 -3.41116 0
M  V30 3668 H 343.979 2.05458 -2.35597 0
M  V30 3669 H 343.199 0.138617 -3.93956 0
M  V30 3670 H 344.487 0.645305 -5.04691 0
M  V30 3671 H 343.885 3.72661 -4.25605 0
M  V30 3672 H 342.442 3.99718 -5.14848 0
M  V30 3673 N 345.875 1.56104 -0.216619 0
M  V30 3674 C 347.121 1.98466 0.417033 0
M  V30 3675 C 347.454 1.10403 1.59765 0
M  V30 3676 O 346.729 0.160632 1.93836 0
M  V30 3677 C 347.012 3.49769 0.85637 0
M  V30 3678 C 346.865 4.48606 -0.327546 0
M  V30 3679 C 348.184 4.05339 1.7143 0
M  V30 3680 H 345.303 0.721551 0.150112 0
M  V30 3681 H 347.945 1.87423 -0.311864 0
M  V30 3682 H 346.095 3.5931 1.47745 0
M  V30 3683 H 347.767 4.5108 -0.965618 0
M  V30 3684 H 346.01 4.22682 -0.975805 0
M  V30 3685 H 346.681 5.51995 0.0227149 0
M  V30 3686 H 349.157 3.98712 1.19031 0
M  V30 3687 H 348.033 5.11533 1.99061 0
M  V30 3688 H 348.294 3.51918 2.67593 0
M  V30 3689 N 347.353 -0.0568162 1.57498 0
M  V30 3690 C 348.764 -0.606858 1.76562 0
M  V30 3691 C 349.115 -1.77114 0.844094 0
M  V30 3692 O 348.24 -2.16376 0.0318911 0
M  V30 3693 C 348.835 -1.10766 3.20182 0
M  V30 3694 C 347.394 -1.60344 3.40539 0
M  V30 3695 C 346.541 -0.529311 2.72201 0
M  V30 3696 H 349.492 0.169393 1.57793 0
M  V30 3697 H 349.513 -1.97602 3.25167 0
M  V30 3698 H 349.025 -0.26006 3.87228 0
M  V30 3699 H 347.126 -2.47379 2.78629 0
M  V30 3700 H 347.239 -1.67006 4.4905 0
M  V30 3701 H 345.603 -0.977893 2.35179 0
M  V30 3702 H 346.386 0.308352 3.41912 0
M  V30 3703 N 348.832 -1.54138 -0.328536 0
M  V30 3704 C 349.765 -1.78014 -1.4278 0
M  V30 3705 C 350.743 -0.629889 -1.49904 0
M  V30 3706 O 351.927 -0.866763 -1.6739 0
M  V30 3707 C 349.054 -1.89225 -2.80912 0
M  V30 3708 C 348.1 -3.11483 -2.91343 0
M  V30 3709 S 348.933 -4.70201 -2.56263 0
M  V30 3710 C 350.089 -4.84312 -3.96476 0
M  V30 3711 H 350.322 -2.70974 -1.22313 0
M  V30 3712 H 347.855 -1.45197 -0.525084 0
M  V30 3713 H 349.813 -1.9637 -3.60485 0
M  V30 3714 H 348.474 -0.972518 -2.98665 0
M  V30 3715 H 347.667 -3.16046 -3.92595 0
M  V30 3716 H 347.269 -3.02642 -2.19736 0
M  V30 3717 H 349.561 -4.66643 -4.91173 0
M  V30 3718 H 350.504 -5.86411 -3.96898 0
M  V30 3719 H 350.912 -4.12652 -3.85199 0
M  V30 3720 N 350.31 0.590341 -1.46126 0
M  V30 3721 C 351.243 1.71434 -1.50617 0
M  V30 3722 C 352.221 1.58543 -0.360948 0
M  V30 3723 O 353.405 1.79865 -0.563985 0
M  V30 3724 C 350.532 3.09422 -1.37753 0
M  V30 3725 C 349.578 3.40854 -2.5636 0
M  V30 3726 S 350.411 3.33773 -4.18755 0
M  V30 3727 C 351.567 4.74312 -4.08386 0
M  V30 3728 H 351.8 1.67364 -2.45717 0
M  V30 3729 H 349.333 0.76845 -1.33919 0
M  V30 3730 H 351.291 3.8903 -1.31018 0
M  V30 3731 H 349.952 3.10989 -0.440949 0
M  V30 3732 H 349.145 4.41368 -2.43332 0
M  V30 3733 H 348.747 2.68798 -2.60046 0
M  V30 3734 H 351.039 5.64522 -3.74595 0
M  V30 3735 H 351.982 4.92397 -5.08872 0
M  V30 3736 H 352.39 4.50803 -3.3976 0
M  V30 3737 N 351.788 1.33704 0.83433 0
M  V30 3738 C 352.738 1.20899 1.93306 0
M  V30 3739 C 353.722 0.110783 1.60518 0
M  V30 3740 O 354.914 0.339331 1.73717 0
M  V30 3741 C 352.043 0.955018 3.29749 0
M  V30 3742 C 351.129 2.09587 3.68692 0
M  V30 3743 N 351.52 3.34621 3.79292 0
M  V30 3744 C 349.818 2.00358 3.98463 0
M  V30 3745 C 350.519 4.09472 4.13167 0
M  V30 3746 N 349.495 3.37954 4.25779 0
M  V30 3747 H 353.297 2.15665 1.99664 0
M  V30 3748 H 350.811 1.25777 1.02732 0
M  V30 3749 H 352.808 0.844208 4.08263 0
M  V30 3750 H 351.468 0.0159317 3.24696 0
M  V30 3751 H 352.479 3.69313 3.63082 0
M  V30 3752 H 349.156 1.14137 4.01596 0
M  V30 3753 H 350.546 5.17391 4.28668 0
M  V30 3754 N 353.266 -1.05314 1.17247 0
M  V30 3755 C 354.198 -2.13023 0.845812 0
M  V30 3756 C 355.211 -1.62096 -0.151246 0
M  V30 3757 O 356.4 -1.78343 0.0748818 0
M  V30 3758 C 353.5 -3.38047 0.240292 0
M  V30 3759 C 352.673 -4.18255 1.27991 0
M  V30 3760 C 351.732 -5.21625 0.692375 0
M  V30 3761 O 350.758 -5.52619 1.36385 0
M  V30 3762 N 351.96 -5.78201 -0.516178 0
M  V30 3763 H 354.725 -2.41642 1.77283 0
M  V30 3764 H 352.286 -1.21401 1.07115 0
M  V30 3765 H 354.278 -4.04359 -0.16603 0
M  V30 3766 H 352.848 -3.06972 -0.590487 0
M  V30 3767 H 352.068 -3.47451 1.86203 0
M  V30 3768 H 353.356 -4.68643 1.98119 0
M  V30 3769 H 352.754 -5.55301 -1.07969 0
M  V30 3770 H 351.311 -6.4604 -0.86458 0
M  V30 3771 N 354.744 -0.972509 -1.24016 0
M  V30 3772 C 355.677 -0.45117 -2.23696 0
M  V30 3773 C 356.655 0.477378 -1.55434 0
M  V30 3774 O 357.839 0.407647 -1.84039 0
M  V30 3775 C 354.966 0.34818 -3.36906 0
M  V30 3776 C 354.012 -0.523355 -4.23277 0
M  V30 3777 S 354.845 -1.96647 -4.98087 0
M  V30 3778 C 356.001 -1.17604 -6.14752 0
M  V30 3779 H 356.234 -1.29588 -2.67571 0
M  V30 3780 H 353.767 -0.777903 -1.33372 0
M  V30 3781 H 355.725 0.803387 -4.02562 0
M  V30 3782 H 354.386 1.16792 -2.91579 0
M  V30 3783 H 353.579 0.0906181 -5.03919 0
M  V30 3784 H 353.181 -0.914485 -3.62647 0
M  V30 3785 H 355.473 -0.433434 -6.76112 0
M  V30 3786 H 356.416 -1.95701 -6.8052 0
M  V30 3787 H 356.824 -0.698295 -5.60164 0
M  V30 3788 N 356.222 1.38976 -0.743202 0
M  V30 3789 C 357.132 2.3434 -0.110399 0
M  V30 3790 C 358.148 1.58741 0.712559 0
M  V30 3791 O 359.324 1.9099 0.639125 0
M  V30 3792 C 356.389 3.37812 0.780012 0
M  V30 3793 C 355.45 4.29263 -0.0561319 0
M  V30 3794 C 354.683 5.27793 0.791875 0
M  V30 3795 O 354.906 5.33043 2.03031 0
M  V30 3796 O 353.84 6.01512 0.216183 0
M  V30 3797 H 357.666 2.90129 -0.897714 0
M  V30 3798 H 355.251 1.40643 -0.503966 0
M  V30 3799 H 357.133 4.01194 1.28923 0
M  V30 3800 H 355.808 2.84395 1.546 0
M  V30 3801 H 354.715 3.69076 -0.611056 0
M  V30 3802 H 356.048 4.85907 -0.784531 0
M  V30 3803 N 357.7 0.491464 1.49741 0
M  V30 3804 C 358.632 -0.328609 2.26832 0
M  V30 3805 C 359.645 -0.939113 1.32983 0
M  V30 3806 O 360.834 -0.824067 1.58339 0
M  V30 3807 C 357.934 -1.47675 3.05033 0
M  V30 3808 C 357.107 -0.975305 4.26388 0
M  V30 3809 C 356.166 -1.99991 4.86714 0
M  V30 3810 O 355.192 -1.57229 5.47054 0
M  V30 3811 N 356.394 -3.32962 4.75517 0
M  V30 3812 H 359.159 0.332377 2.97851 0
M  V30 3813 H 356.72 0.323441 1.58636 0
M  V30 3814 H 358.712 -2.15954 3.42266 0
M  V30 3815 H 357.282 -2.04206 2.36683 0
M  V30 3816 H 356.502 -0.117723 3.94024 0
M  V30 3817 H 357.79 -0.618531 5.05026 0
M  V30 3818 H 357.188 -3.70399 4.27576 0
M  V30 3819 H 355.745 -3.96982 5.16961 0
M  V30 3820 N 359.178 -1.55987 0.224894 0
M  V30 3821 C 360.408 -2.02489 -0.41007 0
M  V30 3822 C 360.816 -1.10391 -1.53657 0
M  V30 3823 O 360.159 -0.106458 -1.83391 0
M  V30 3824 C 360.221 -3.45319 -0.999757 0
M  V30 3825 C 359.885 -4.56999 -0.00827976 0
M  V30 3826 C 360.882 -5.13812 0.793314 0
M  V30 3827 C 358.567 -5.02176 0.111442 0
M  V30 3828 C 360.561 -6.14276 1.7013 0
M  V30 3829 C 358.248 -6.02477 1.02296 0
M  V30 3830 C 359.246 -6.58403 1.81643 0
M  V30 3831 O 358.934 -7.56751 2.71262 0
M  V30 3832 H 358.666 -0.667915 -0.104235 0
M  V30 3833 H 361.22 -2.0257 0.339782 0
M  V30 3834 H 359.45 -3.42318 -1.79876 0
M  V30 3835 H 361.139 -3.7545 -1.54248 0
M  V30 3836 H 361.905 -4.79756 0.711288 0
M  V30 3837 H 357.784 -4.58323 -0.49605 0
M  V30 3838 H 361.328 -6.57854 2.32107 0
M  V30 3839 H 357.225 -6.35954 1.10599 0
M  V30 3840 H 357.993 -7.74286 2.65375 0
M  V30 3841 N 360.656 0.0484629 -1.57525 0
M  V30 3842 C 361.886 0.754326 -1.92337 0
M  V30 3843 C 362.294 1.70443 -0.82132 0
M  V30 3844 O 361.637 1.82466 0.21254 0
M  V30 3845 C 361.699 1.58231 -3.22805 0
M  V30 3846 C 361.363 0.799074 -4.4996 0
M  V30 3847 C 362.36 0.1079 -5.19788 0
M  V30 3848 C 360.045 0.759345 -4.96527 0
M  V30 3849 C 362.039 -0.612516 -6.3445 0
M  V30 3850 C 359.726 0.0351713 -6.1109 0
M  V30 3851 C 360.724 -0.649537 -6.79904 0
M  V30 3852 O 360.412 -1.36199 -7.92278 0
M  V30 3853 H 360.144 0.218257 -0.639797 0
M  V30 3854 H 362.698 0.0159295 -2.05394 0
M  V30 3855 H 360.928 2.36406 -3.06021 0
M  V30 3856 H 362.617 2.16898 -3.43089 0
M  V30 3857 H 363.383 0.129748 -4.84826 0
M  V30 3858 H 359.262 1.28177 -4.42822 0
M  V30 3859 H 362.806 -1.14751 -6.88097 0
M  V30 3860 H 358.703 0.0113314 -6.45499 0
M  V30 3861 H 359.471 -1.27366 -8.0853 0
M  V30 3862 N 362.134 1.5431 0.320358 0
M  V30 3863 C 363.084 1.803 1.39556 0
M  V30 3864 C 364.068 0.659166 1.46778 0
M  V30 3865 O 365.26 0.91926 1.51257 0
M  V30 3866 C 362.389 2.03665 2.76361 0
M  V30 3867 C 361.475 3.24178 2.73439 0
M  V30 3868 N 361.866 4.4516 2.40137 0
M  V30 3869 C 360.164 3.25816 3.04565 0
M  V30 3870 C 360.865 5.27109 2.4603 0
M  V30 3871 N 359.841 4.64368 2.82601 0
M  V30 3872 H 363.643 2.71416 1.12742 0
M  V30 3873 H 361.157 1.53548 0.528856 0
M  V30 3874 H 363.154 2.20425 3.53862 0
M  V30 3875 H 361.814 1.13805 3.04103 0
M  V30 3876 H 362.825 4.72104 2.12927 0
M  V30 3877 H 359.502 2.46001 3.37328 0
M  V30 3878 H 360.892 6.33728 2.23246 0
M  V30 3879 N 363.613 -0.582584 1.46437 0
M  V30 3880 C 364.543 -1.70187 1.59871 0
M  V30 3881 C 365.524 -1.64066 0.449042 0
M  V30 3882 O 366.709 -1.82081 0.6753 0
M  V30 3883 C 363.839 -3.08827 1.58881 0
M  V30 3884 C 362.793 -3.29779 2.72819 0
M  V30 3885 C 362.119 -4.68947 2.5689 0
M  V30 3886 C 363.419 -3.17601 4.1464 0
M  V30 3887 H 365.113 -1.592 2.53566 0
M  V30 3888 H 362.659 -0.764472 1.22032 0
M  V30 3889 H 364.612 -3.86951 1.66873 0
M  V30 3890 H 363.336 -3.20713 0.617306 0
M  V30 3891 H 361.995 -2.54054 2.64296 0
M  V30 3892 H 361.643 -4.77599 1.57823 0
M  V30 3893 H 361.343 -4.83919 3.33312 0
M  V30 3894 H 362.867 -5.4924 2.66773 0
M  V30 3895 H 364.281 -3.8557 4.24274 0
M  V30 3896 H 362.678 -3.44094 4.9165 0
M  V30 3897 H 363.748 -2.14681 4.34788 0
M  V30 3898 N 365.091 -1.34144 -0.827227 0
M  V30 3899 C 366.337 -1.26446 -1.58554 0
M  V30 3900 C 366.67 0.1664 -1.93486 0
M  V30 3901 O 365.945 1.1107 -1.59667 0
M  V30 3902 C 366.228 -2.15111 -2.8879 0
M  V30 3903 C 366.081 -3.66712 -2.60465 0
M  V30 3904 C 367.4 -2.03311 -3.90324 0
M  V30 3905 H 364.519 -0.46067 -0.575284 0
M  V30 3906 H 367.161 -1.64356 -0.953269 0
M  V30 3907 H 365.311 -1.8291 -3.42748 0
M  V30 3908 H 366.983 -4.09259 -2.1285 0
M  V30 3909 H 365.226 -3.88014 -1.93978 0
M  V30 3910 H 365.897 -4.24112 -3.53317 0
M  V30 3911 H 368.373 -2.31574 -3.45706 0
M  V30 3912 H 367.249 -2.67582 -4.79261 0
M  V30 3913 H 367.51 -1.00879 -4.30437 0
M  V30 3914 N 366.569 1.04691 -1.17803 0
M  V30 3915 C 367.846 1.7472 -0.879328 0
M  V30 3916 C 368.226 2.01812 0.619271 0
M  V30 3917 O 367.574 1.65824 1.57209 0
M  V30 3918 C 367.784 3.03686 -1.71976 0
M  V30 3919 C 369.132 3.77542 -1.94286 0
M  V30 3920 O 370.156 3.13569 -1.68976 0
M  V30 3921 O 369.015 4.92506 -2.36855 0
M  V30 3922 H 366.109 0.760011 -0.326056 0
M  V30 3923 H 368.655 1.10813 -1.28525 0
M  V30 3924 H 367.427 2.79754 -2.73594 0
M  V30 3925 H 367.05 3.75332 -1.31194 0
M  V30 3926 N 368.047 0.979072 1.23499 0
M  V30 3927 C 368.98 0.463027 2.23453 0
M  V30 3928 C 369.958 -0.469128 1.55685 0
M  V30 3929 O 371.142 -0.397882 1.84253 0
M  V30 3930 C 368.269 -0.330308 3.37086 0
M  V30 3931 C 367.315 0.545795 4.22993 0
M  V30 3932 S 368.148 1.99285 4.97037 0
M  V30 3933 C 369.304 1.20862 6.1412 0
M  V30 3934 H 369.537 1.31005 2.6688 0
M  V30 3935 H 367.07 0.784965 1.32957 0
M  V30 3936 H 369.028 -0.782027 4.02982 0
M  V30 3937 H 367.689 -1.15244 2.92194 0
M  V30 3938 H 366.882 -0.0638928 5.03959 0
M  V30 3939 H 366.484 0.933705 3.62157 0
M  V30 3940 H 368.776 0.469284 6.75873 0
M  V30 3941 H 369.719 1.99307 6.79472 0
M  V30 3942 H 370.127 0.727992 5.59786 0
M  V30 3943 N 369.525 -1.3858 0.750561 0
M  V30 3944 C 370.435 -2.34278 0.122825 0
M  V30 3945 C 371.451 -1.59116 -0.704131 0
M  V30 3946 O 372.627 -1.91326 -0.628987 0
M  V30 3947 C 369.692 -3.38221 -0.762086 0
M  V30 3948 C 368.753 -4.29227 0.078896 0
M  V30 3949 C 367.986 -5.28205 -0.763874 0
M  V30 3950 O 368.209 -5.34112 -2.00201 0
M  V30 3951 O 367.143 -6.01618 -0.18428 0
M  V30 3952 H 370.969 -2.89649 0.913088 0
M  V30 3953 H 368.554 -1.40374 0.511417 0
M  V30 3954 H 370.436 -4.01872 -1.26793 0
M  V30 3955 H 369.111 -2.85211 -1.5309 0
M  V30 3956 H 368.018 -3.68747 0.630621 0
M  V30 3957 H 369.351 -4.85484 0.810289 0
M  V30 3958 N 371.003 -0.499398 -1.49478 0
M  V30 3959 C 371.933 0.269244 -2.31943 0
M  V30 3960 C 372.914 0.964054 -1.40143 0
M  V30 3961 O 374.099 0.955767 -1.69052 0
M  V30 3962 C 371.229 1.33504 -3.20615 0
M  V30 3963 C 370.183 0.760202 -4.21195 0
M  V30 3964 C 369.509 1.9264 -4.98792 0
M  V30 3965 C 370.809 -0.247661 -5.21712 0
M  V30 3966 H 372.503 -0.419082 -2.96452 0
M  V30 3967 H 370.049 -0.202988 -1.42562 0
M  V30 3968 H 372.002 1.88048 -3.77115 0
M  V30 3969 H 370.726 2.05253 -2.54045 0
M  V30 3970 H 369.385 0.23653 -3.65836 0
M  V30 3971 H 369.033 2.63154 -4.28671 0
M  V30 3972 H 368.733 1.54785 -5.66847 0
M  V30 3973 H 370.257 2.4762 -5.58137 0
M  V30 3974 H 371.671 0.209579 -5.72917 0
M  V30 3975 H 370.068 -0.541962 -5.97648 0
M  V30 3976 H 371.138 -1.16409 -4.7072 0
M  V30 3977 N 372.481 1.55866 -0.233164 0
M  V30 3978 C 373.429 2.22176 0.68851 0
M  V30 3979 C 374.423 1.20487 1.19076 0
M  V30 3980 O 375.629 1.38536 1.14925 0
M  V30 3981 H 372.004 0.712511 0.240483 0
M  V30 3982 H 373.975 2.98212 0.105935 0
M  V30 3983 C 372.724 2.92446 1.88071 0
M  V30 3984 H 372.047 3.70458 1.50337 0
M  V30 3985 H 373.487 3.42226 2.50314 0
M  V30 3986 C 371.946 1.95555 2.74335 0
M  V30 3987 O 372.476 1.47986 3.73447 0
M  V30 3988 N 370.682 1.62953 2.40613 0
M  V30 3989 H 370.229 2.01831 1.60069 0
M  V30 3990 H 370.187 0.983886 2.98609 0
M  V30 3991 N 373.959 -0.0401083 1.57549 0
M  V30 3992 C 375.199 -0.738098 1.90608 0
M  V30 3993 C 375.563 -1.73107 0.830539 0
M  V30 3994 O 376.764 -2.4765 1.04513 0
M  V30 3995 C 375.035 -1.39985 3.28845 0
M  V30 3996 S 376.594 -2.12852 3.83718 0
M  V30 3997 H 373.412 -0.24477 0.667539 0
M  V30 3998 H 376.014 0.00693599 1.95499 0
M  V30 3999 H 374.718 -0.663775 4.04997 0
M  V30 4000 H 374.249 -2.18366 3.2723 0
M  V30 4001 H 376.264 -3.39842 3.61555 0
M  V30 4002 N 375.437 -1.54477 -0.31217 0
M  V30 4003 C 376.665 -1.77205 -1.068 0
M  V30 4004 C 377.08 -0.526114 -1.81321 0
M  V30 4005 O 376.437 0.503647 -1.75413 0
M  V30 4006 C 376.488 -2.97253 -2.05725 0
M  V30 4007 O 376.209 -4.1703 -1.34228 0
M  V30 4008 C 377.71 -3.32281 -2.93435 0
M  V30 4009 H 374.93 -0.591287 -0.317208 0
M  V30 4010 H 377.474 -2.01398 -0.354834 0
M  V30 4011 H 375.629 -2.753 -2.72559 0
M  V30 4012 H 376.043 -4.84636 -2.00571 0
M  V30 4013 H 377.517 -4.19551 -3.58721 0
M  V30 4014 H 377.994 -2.49945 -3.61143 0
M  V30 4015 H 378.6 -3.56353 -2.32147 0
M  V30 4016 N 376.915 0.57481 -1.46744 0
M  V30 4017 C 378.161 1.3347 -1.52688 0
M  V30 4018 C 378.494 1.93353 -0.181229 0
M  V30 4019 O 377.769 1.76912 0.808237 0
M  V30 4020 C 378.052 2.45811 -2.63152 0
M  V30 4021 C 377.905 1.90912 -4.07275 0
M  V30 4022 C 379.224 3.47822 -2.69644 0
M  V30 4023 H 376.343 0.483935 -0.555856 0
M  V30 4024 H 378.985 0.644968 -1.78718 0
M  V30 4025 H 377.135 3.04646 -2.41088 0
M  V30 4026 H 378.807 1.36473 -4.4065 0
M  V30 4027 H 377.05 1.21691 -4.16382 0
M  V30 4028 H 377.721 2.72042 -4.80309 0
M  V30 4029 H 380.197 2.9888 -2.895 0
M  V30 4030 H 379.073 4.23876 -3.48742 0
M  V30 4031 H 379.334 4.05555 -1.76005 0
M  V30 4032 N 378.394 1.34581 0.820102 0
M  V30 4033 C 379.324 1.29038 1.94606 0
M  V30 4034 C 380.305 0.1673 1.69275 0
M  V30 4035 O 381.49 0.360112 1.90832 0
M  V30 4036 C 378.62 1.04793 3.31113 0
M  V30 4037 C 377.574 2.13597 3.70891 0
M  V30 4038 C 376.9 1.74537 5.05412 0
M  V30 4039 C 378.2 3.55451 3.8269 0
M  V30 4040 H 379.894 2.23248 1.99501 0
M  V30 4041 H 377.44 1.0747 0.958449 0
M  V30 4042 H 379.393 0.995592 4.0947 0
M  V30 4043 H 378.117 0.0702565 3.26524 0
M  V30 4044 H 376.776 2.17905 2.9481 0
M  V30 4045 H 376.424 0.754226 4.97313 0
M  V30 4046 H 376.124 2.47361 5.32997 0
M  V30 4047 H 377.648 1.70803 5.86224 0
M  V30 4048 H 379.062 3.5354 4.51312 0
M  V30 4049 H 377.459 4.26922 4.21732 0
M  V30 4050 H 378.529 3.92587 2.84611 0
M  V30 4051 N 379.872 -1.04064 1.18357 0
M  V30 4052 C 380.804 -2.12114 0.868358 0
M  V30 4053 C 381.817 -1.62247 -0.134045 0
M  V30 4054 O 383.006 -1.78253 0.0937933 0
M  V30 4055 C 380.106 -3.37773 0.276132 0
M  V30 4056 C 379.279 -4.16874 1.3242 0
M  V30 4057 C 378.338 -5.20861 0.747662 0
M  V30 4058 O 377.364 -5.51141 1.42239 0
M  V30 4059 N 378.566 -5.78715 -0.454823 0
M  V30 4060 H 381.331 -2.39748 1.79836 0
M  V30 4061 H 378.892 -1.20258 1.08396 0
M  V30 4062 H 380.884 -4.04513 -0.123133 0
M  V30 4063 H 379.454 -3.07581 -0.557895 0
M  V30 4064 H 378.674 -3.45456 1.89878 0
M  V30 4065 H 379.962 -4.66516 2.03078 0
M  V30 4066 H 379.36 -5.56415 -1.02073 0
M  V30 4067 H 377.917 -6.46921 -0.79601 0
M  V30 4068 N 381.35 -0.985608 -1.22978 0
M  V30 4069 C 382.283 -0.47487 -2.23204 0
M  V30 4070 C 383.261 0.460865 -1.55932 0
M  V30 4071 O 384.445 0.388105 -1.84461 0
M  V30 4072 C 381.572 0.312427 -3.37256 0
M  V30 4073 C 380.618 -0.568219 -4.22698 0
M  V30 4074 S 381.451 -2.01919 -4.95973 0
M  V30 4075 C 382.607 -1.24118 -6.1347 0
M  V30 4076 H 382.84 -1.32419 -2.66181 0
M  V30 4077 H 380.373 -0.792005 -1.32539 0
M  V30 4078 H 382.331 0.760645 -4.03391 0
M  V30 4079 H 380.992 1.13693 -2.92801 0
M  V30 4080 H 380.185 0.0371657 -5.03986 0
M  V30 4081 H 379.787 -0.952897 -3.61657 0
M  V30 4082 H 382.079 -0.505121 -6.75614 0
M  V30 4083 H 383.022 -2.02907 -6.78406 0
M  V30 4084 H 383.43 -0.757669 -5.59392 0
M  V30 4085 N 382.828 1.3818 -0.7579 0
M  V30 4086 C 384.105 1.94106 -0.241306 0
M  V30 4087 C 384.485 1.69282 1.26122 0
M  V30 4088 O 383.833 1.03378 2.03777 0
M  V30 4089 C 384.043 3.43809 -0.59967 0
M  V30 4090 C 385.391 4.20868 -0.561717 0
M  V30 4091 O 386.415 3.5211 -0.538222 0
M  V30 4092 O 385.274 5.43451 -0.576478 0
M  V30 4093 H 382.368 0.825376 -0.0518042 0
M  V30 4094 H 384.914 1.47548 -0.838315 0
M  V30 4095 H 383.686 3.55403 -1.6372 0
M  V30 4096 H 383.309 3.97592 0.0251197 0
M  V30 4097 N 384.306 0.507319 1.49211 0
M  V30 4098 C 385.536 -0.0315292 2.06576 0
M  V30 4099 C 385.944 -1.30791 1.36713 0
M  V30 4100 O 385.287 -1.78324 0.441181 0
M  V30 4101 C 385.349 -0.349104 3.57801 0
M  V30 4102 C 385.013 0.830475 4.49391 0
M  V30 4103 C 386.01 1.72271 4.90529 0
M  V30 4104 C 383.695 1.03107 4.91604 0
M  V30 4105 C 385.689 2.79964 5.72625 0
M  V30 4106 C 383.376 2.11116 5.73475 0
M  V30 4107 C 384.374 2.99379 6.1389 0
M  V30 4108 O 384.062 4.05523 6.94123 0
M  V30 4109 H 383.794 0.0201002 0.675701 0
M  V30 4110 H 386.348 0.705737 1.92895 0
M  V30 4111 H 384.578 -1.14005 3.69513 0
M  V30 4112 H 386.267 -0.827319 3.97379 0
M  V30 4113 H 387.033 1.57958 4.58557 0
M  V30 4114 H 382.912 0.353417 4.59643 0
M  V30 4115 H 386.456 3.48884 6.04091 0
M  V30 4116 H 382.353 2.25421 6.0486 0
M  V30 4117 H 383.121 4.02953 7.1244 0
M  V30 4118 N 385.784 -1.5574 0.241426 0
M  V30 4119 C 387.009 -2.0366 -0.392111 0
M  V30 4120 C 387.434 -1.11969 -1.51144 0
M  V30 4121 O 386.792 -0.111594 -1.80956 0
M  V30 4122 C 386.84 -3.49638 -0.882371 0
M  V30 4123 O 385.944 -3.6108 -1.99235 0
M  V30 4124 H 385.285 -0.658379 -0.0862122 0
M  V30 4125 H 387.815 -2.01302 0.365881 0
M  V30 4126 H 387.825 -3.90351 -1.18702 0
M  V30 4127 H 386.5 -4.15852 -0.0632361 0
M  V30 4128 H 385.077 -3.32262 -1.69282 0
M  V30 4129 N 387.262 0.0317525 -1.57568 0
M  V30 4130 C 388.209 1.0332 -2.06382 0
M  V30 4131 C 389.179 1.36082 -0.952414 0
M  V30 4132 O 390.364 1.46466 -1.2228 0
M  V30 4133 C 387.504 2.32989 -2.54578 0
M  V30 4134 C 386.617 2.0641 -3.79498 0
M  V30 4135 C 385.752 3.2993 -4.16317 0
M  V30 4136 C 384.791 2.98893 -5.34162 0
M  V30 4137 N 383.928 4.14857 -5.66426 0
M  V30 4138 H 388.768 0.609982 -2.9169 0
M  V30 4139 H 386.305 0.289573 -1.44222 0
M  V30 4140 H 388.263 3.0875 -2.80587 0
M  V30 4141 H 386.893 2.73039 -1.7219 0
M  V30 4142 H 385.945 1.21158 -3.6059 0
M  V30 4143 H 387.257 1.79513 -4.65378 0
M  V30 4144 H 386.411 4.1406 -4.4344 0
M  V30 4145 H 385.15 3.59938 -3.29083 0
M  V30 4146 H 384.155 2.13164 -5.06795 0
M  V30 4147 H 385.38 2.70165 -6.23047 0
M  V30 4148 H 383.326 4.44821 -4.82151 0
M  V30 4149 H 383.243 3.91374 -6.4681 0
M  V30 4150 H 384.511 4.99868 -5.98124 0
M  V30 4151 N 388.74 1.54641 0.303973 0
M  V30 4152 C 389.688 1.86137 1.39484 0
M  V30 4153 C 390.682 0.734854 1.52631 0
M  V30 4154 O 391.888 0.918803 1.54784 0
M  V30 4155 H 388.263 0.590324 0.465856 0
M  V30 4156 H 390.234 2.77324 1.10154 0
M  V30 4157 C 388.983 2.12274 2.75382 0
M  V30 4158 H 388.306 2.98429 2.66046 0
M  V30 4159 H 389.746 2.38254 3.5073 0
M  V30 4160 C 388.205 0.920365 3.24085 0
M  V30 4161 O 388.735 0.139377 4.01458 0
M  V30 4162 N 386.941 0.726566 2.81371 0
M  V30 4163 H 386.488 1.36332 2.18567 0
M  V30 4164 H 386.446 -0.0763799 3.14307 0
M  V30 4165 N 390.218 -0.567019 1.47046 0
M  V30 4166 C 391.181 -1.65696 1.58359 0
M  V30 4167 C 392.181 -1.54097 0.459441 0
M  V30 4168 O 393.371 -1.58432 0.724225 0
M  V30 4169 C 390.503 -3.05197 1.51879 0
M  V30 4170 H 391.696 -1.57019 2.5551 0
M  V30 4171 H 389.249 -0.786148 1.3509 0
M  V30 4172 H 389.984 -3.19417 0.560673 0
M  V30 4173 H 389.769 -3.15025 2.33455 0
M  V30 4174 H 391.259 -3.84511 1.62913 0
M  V30 4175 N 391.696 -1.35014 -0.812953 0
M  V30 4176 C 392.626 -1.30069 -1.93919 0
M  V30 4177 C 393.607 -0.176275 -1.69184 0
M  V30 4178 O 394.792 -0.370227 -1.90638 0
M  V30 4179 C 391.922 -1.06547 -3.30552 0
M  V30 4180 C 390.876 -2.15561 -3.69753 0
M  V30 4181 C 390.202 -1.77214 -5.04479 0
M  V30 4182 C 391.502 -3.57476 -3.808 0
M  V30 4183 H 393.196 -2.24303 -1.98314 0
M  V30 4184 H 390.742 -1.07977 -0.952736 0
M  V30 4185 H 392.695 -1.01729 -4.08937 0
M  V30 4186 H 391.419 -0.0875719 -3.26483 0
M  V30 4187 H 390.078 -2.19466 -2.9365 0
M  V30 4188 H 389.726 -0.780589 -4.96906 0
M  V30 4189 H 389.426 -2.50184 -5.31678 0
M  V30 4190 H 390.95 -1.7391 -5.8531 0
M  V30 4191 H 392.364 -3.55929 -4.4943 0
M  V30 4192 H 390.761 -4.29152 -4.19462 0
M  V30 4193 H 391.831 -3.94091 -2.82525 0
M  V30 4194 N 393.175 1.03435 -1.18907 0
M  V30 4195 C 394.138 2.09756 -0.923844 0
M  V30 4196 C 395.138 1.60528 0.093416 0
M  V30 4197 O 396.328 1.73631 -0.140727 0
M  V30 4198 C 393.46 3.38692 -0.387354 0
M  V30 4199 H 394.653 2.34719 -1.86674 0
M  V30 4200 H 392.206 1.19959 -1.00197 0
M  V30 4201 H 392.941 3.19396 0.561845 0
M  V30 4202 H 392.726 3.75742 -1.12074 0
M  V30 4203 H 394.216 4.17016 -0.220694 0
M  V30 4204 N 394.653 0.992116 1.22453 0
M  V30 4205 C 395.583 0.561677 2.26644 0
M  V30 4206 C 396.564 -0.411055 1.65059 0
M  V30 4207 O 397.749 -0.301861 1.9184 0
M  V30 4208 C 394.879 -0.125247 3.47074 0
M  V30 4209 C 393.833 0.765948 4.21091 0
M  V30 4210 C 393.159 -0.0538484 5.34673 0
M  V30 4211 C 394.459 2.06242 4.79856 0
M  V30 4212 H 396.153 1.43259 2.62902 0
M  V30 4213 H 393.699 0.690283 1.26377 0
M  V30 4214 H 395.652 -0.437764 4.1912 0
M  V30 4215 H 394.376 -1.03069 3.0991 0
M  V30 4216 H 393.035 1.0621 3.50878 0
M  V30 4217 H 392.683 -0.960188 4.9375 0
M  V30 4218 H 392.383 0.539415 5.85119 0
M  V30 4219 H 393.907 -0.360477 6.09535 0
M  V30 4220 H 395.321 1.8139 5.43848 0
M  V30 4221 H 393.718 2.60444 5.40638 0
M  V30 4222 H 394.788 2.74167 3.99951 0
M  V30 4223 N 396.131 -1.37776 0.765217 0
M  V30 4224 C 397.378 -1.99849 0.326588 0
M  V30 4225 C 397.706 -1.60746 -1.09504 0
M  V30 4226 O 396.961 -0.84202 -1.76659 0
M  V30 4227 C 397.26 -3.5504 0.410053 0
M  V30 4228 C 396.926 -4.13891 1.78899 0
M  V30 4229 C 395.588 -4.29678 2.16635 0
M  V30 4230 C 397.94 -4.46236 2.69301 0
M  V30 4231 C 395.268 -4.7511 3.44221 0
M  V30 4232 C 397.62 -4.93089 3.9629 0
M  V30 4233 C 396.284 -5.07082 4.34078 0
M  V30 4234 H 395.554 -0.7313 0.119507 0
M  V30 4235 H 398.201 -1.64645 0.977968 0
M  V30 4236 H 396.506 -3.90451 -0.324878 0
M  V30 4237 H 398.203 -4.00966 0.0520699 0
M  V30 4238 H 394.793 -4.02026 1.48569 0
M  V30 4239 H 398.977 -4.3363 2.41409 0
M  V30 4240 H 394.233 -4.84129 3.73402 0
M  V30 4241 H 398.407 -5.17084 4.66472 0
M  V30 4242 H 396.034 -5.42046 5.33001 0
M  V30 4243 N 397.609 -0.515225 -1.4894 0
M  V30 4244 C 398.855 0.0242508 -2.02785 0
M  V30 4245 C 399.188 1.35323 -1.39289 0
M  V30 4246 O 398.463 1.87041 -0.533469 0
M  V30 4247 C 398.746 0.16184 -3.59736 0
M  V30 4248 C 398.599 -1.19127 -4.33738 0
M  V30 4249 C 399.918 0.895719 -4.30888 0
M  V30 4250 H 397.037 0.00733914 -0.736963 0
M  V30 4251 H 399.679 -0.669395 -1.77818 0
M  V30 4252 H 397.829 0.752624 -3.8114 0
M  V30 4253 H 399.501 -1.82202 -4.23792 0
M  V30 4254 H 397.744 -1.77695 -3.95736 0
M  V30 4255 H 398.415 -1.04815 -5.41957 0
M  V30 4256 H 400.891 0.394528 -4.14225 0
M  V30 4257 H 399.767 0.960859 -5.40425 0
M  V30 4258 H 400.028 1.9427 -3.97129 0
M  V30 4259 N 399.087 1.5561 -0.249682 0
M  V30 4260 C 400.017 2.24477 0.642826 0
M  V30 4261 C 400.998 1.22601 1.17911 0
M  V30 4262 O 402.183 1.5126 1.21795 0
M  V30 4263 C 399.313 2.94638 1.83863 0
M  V30 4264 C 398.267 4.03227 1.435 0
M  V30 4265 C 397.593 4.60828 2.71186 0
M  V30 4266 C 398.893 5.18796 0.604002 0
M  V30 4267 H 400.587 2.99321 0.0685625 0
M  V30 4268 H 398.133 1.43965 0.0315363 0
M  V30 4269 H 400.086 3.41517 2.46868 0
M  V30 4270 H 398.81 2.17287 2.43832 0
M  V30 4271 H 397.469 3.57121 0.828275 0
M  V30 4272 H 397.117 3.80174 3.29358 0
M  V30 4273 H 396.817 5.34132 2.44901 0
M  V30 4274 H 398.341 5.10442 3.35084 0
M  V30 4275 H 399.755 5.61883 1.13842 0
M  V30 4276 H 398.152 5.98506 0.437097 0
M  V30 4277 H 399.222 4.83384 -0.383147 0
M  V30 4278 N 400.565 -0.0233959 1.57583 0
M  V30 4279 C 401.976 -0.56927 1.77809 0
M  V30 4280 C 402.327 -1.75284 0.881472 0
M  V30 4281 O 401.452 -2.1626 0.0777805 0
M  V30 4282 C 402.047 -1.03949 3.22459 0
M  V30 4283 C 400.606 -1.53084 3.43864 0
M  V30 4284 C 399.753 -0.471454 2.73263 0
M  V30 4285 H 402.704 0.202825 1.57399 0
M  V30 4286 H 402.725 -1.90661 3.29285 0
M  V30 4287 H 402.237 -0.177865 3.87692 0
M  V30 4288 H 400.338 -2.41414 2.83814 0
M  V30 4289 H 400.451 -1.57443 4.52491 0
M  V30 4290 H 398.815 -0.927788 2.37201 0
M  V30 4291 H 399.598 0.380808 3.41181 0
M  V30 4292 N 402.043 -1.548 -0.295768 0
M  V30 4293 C 402.99 -1.86113 -1.36494 0
M  V30 4294 C 403.96 -0.7105 -1.50137 0
M  V30 4295 O 405.145 -0.959626 -1.64912 0
M  V30 4296 C 402.285 -2.11861 -2.72413 0
M  V30 4297 C 401.398 -3.39471 -2.67177 0
M  V30 4298 C 400.533 -3.55035 -3.95125 0
M  V30 4299 C 399.572 -4.76418 -3.84308 0
M  V30 4300 N 398.709 -4.8876 -5.04042 0
M  V30 4301 H 403.549 -2.77314 -1.09091 0
M  V30 4302 H 401.086 -1.37315 -0.52753 0
M  V30 4303 H 403.044 -2.24786 -3.51464 0
M  V30 4304 H 401.674 -1.2392 -2.98066 0
M  V30 4305 H 400.726 -3.35139 -1.79962 0
M  V30 4306 H 402.038 -4.28646 -2.55076 0
M  V30 4307 H 401.192 -3.67653 -4.82614 0
M  V30 4308 H 399.931 -2.64002 -4.10066 0
M  V30 4309 H 398.936 -4.63827 -2.95202 0
M  V30 4310 H 400.161 -5.68863 -3.70906 0
M  V30 4311 H 398.107 -4.00652 -5.19436 0
M  V30 4312 H 398.024 -5.71945 -4.94384 0
M  V30 4313 H 399.292 -5.0574 -5.93167 0
M  V30 4314 N 403.521 0.559213 -1.47345 0
M  V30 4315 C 404.431 1.69388 -1.62311 0
M  V30 4316 C 405.447 1.6648 -0.505993 0
M  V30 4317 O 406.623 1.85964 -0.773262 0
M  V30 4318 C 403.688 3.05894 -1.63185 0
M  V30 4319 C 402.749 3.19885 -2.86307 0
M  V30 4320 C 401.982 4.49879 -2.87131 0
M  V30 4321 O 402.205 5.35217 -1.97229 0
M  V30 4322 O 401.139 4.67618 -3.78968 0
M  V30 4323 H 404.965 1.59706 -2.58317 0
M  V30 4324 H 402.55 0.728989 -1.30407 0
M  V30 4325 H 404.432 3.87133 -1.66451 0
M  V30 4326 H 403.107 3.15964 -0.70345 0
M  V30 4327 H 402.014 2.38052 -2.88587 0
M  V30 4328 H 403.347 3.14718 -3.78435 0
M  V30 4329 N 404.999 1.35443 0.805782 0
M  V30 4330 C 406.247 1.28507 1.55982 0
M  V30 4331 C 406.568 -0.140046 1.94496 0
M  V30 4332 O 405.838 -1.07666 1.63661 0
M  V30 4333 H 404.418 0.472676 0.578434 0
M  V30 4334 H 407.08 1.69555 0.961098 0
M  V30 4335 H 406.176 1.90148 2.47488 0
M  V30 4336 N 406.477 -1.02803 1.19454 0
M  V30 4337 C 407.409 -2.11181 0.890807 0
M  V30 4338 C 408.422 -1.6238 -0.116829 0
M  V30 4339 O 409.611 -1.78144 0.112694 0
M  V30 4340 C 406.711 -3.37461 0.311942 0
M  V30 4341 C 405.884 -4.15446 1.36834 0
M  V30 4342 C 404.943 -5.20039 0.802864 0
M  V30 4343 O 403.969 -5.49602 1.48077 0
M  V30 4344 N 405.171 -5.79165 -0.393417 0
M  V30 4345 H 407.936 -2.37827 1.82369 0
M  V30 4346 H 405.497 -1.19101 1.09666 0
M  V30 4347 H 407.489 -4.0462 -0.0802225 0
M  V30 4348 H 406.059 -3.08156 -0.52524 0
M  V30 4349 H 405.279 -3.43423 1.93531 0
M  V30 4350 H 406.567 -4.64335 2.08015 0
M  V30 4351 H 405.965 -5.57466 -0.961658 0
M  V30 4352 H 404.522 -6.47729 -0.727351 0
M  V30 4353 N 407.956 -0.998596 -1.21925 0
M  V30 4354 C 408.889 -0.498517 -2.22688 0
M  V30 4355 C 409.867 0.444301 -1.56412 0
M  V30 4356 O 411.051 0.368518 -1.84863 0
M  V30 4357 C 408.178 0.276639 -3.37568 0
M  V30 4358 C 407.224 -0.61302 -4.22071 0
M  V30 4359 S 408.057 -2.07168 -4.93803 0
M  V30 4360 C 409.213 -1.30617 -6.12119 0
M  V30 4361 H 409.446 -1.35234 -2.64762 0
M  V30 4362 H 406.979 -0.806018 -1.31692 0
M  V30 4363 H 408.937 0.717817 -4.04175 0
M  V30 4364 H 407.598 1.10581 -2.93991 0
M  V30 4365 H 406.791 -0.0162909 -5.03997 0
M  V30 4366 H 406.393 -0.991202 -3.60626 0
M  V30 4367 H 408.685 -0.57675 -6.75041 0
M  V30 4368 H 409.628 -2.10091 -6.76215 0
M  V30 4369 H 410.036 -0.816957 -5.58557 0
M  V30 4370 N 409.434 1.37368 -0.772513 0
M  V30 4371 C 410.344 2.34053 -0.160081 0
M  V30 4372 C 411.36 1.60216 0.678728 0
M  V30 4373 O 412.536 1.92303 0.59847 0
M  V30 4374 C 409.601 3.3939 0.708182 0
M  V30 4375 C 408.662 4.29048 -0.147172 0
M  V30 4376 C 407.895 5.29354 0.679744 0
M  V30 4377 O 408.118 5.3723 1.91678 0
M  V30 4378 O 407.052 6.01835 0.0885444 0
M  V30 4379 H 410.878 2.88159 -0.959053 0
M  V30 4380 H 408.463 1.39543 -0.533685 0
M  V30 4381 H 410.345 4.03839 1.20384 0
M  V30 4382 H 409.02 2.8761 1.48533 0
M  V30 4383 H 407.927 3.67697 -0.689205 0
M  V30 4384 H 409.26 4.84134 -0.887423 0
M  V30 4385 N 410.912 0.523116 1.48665 0
M  V30 4386 C 412.137 -0.0117284 2.07397 0
M  V30 4387 C 412.562 -1.28031 1.37803 0
M  V30 4388 O 411.92 -1.75836 0.441762 0
M  V30 4389 C 411.968 -0.225786 3.59892 0
M  V30 4390 O 411.072 -1.29592 3.91509 0
M  V30 4391 H 410.413 0.0360673 0.66302 0
M  V30 4392 H 412.943 0.729066 1.9117 0
M  V30 4393 H 412.953 -0.450552 4.05505 0
M  V30 4394 H 411.628 0.700944 4.09951 0
M  V30 4395 H 410.205 -1.05436 3.57684 0
M  V30 4396 N 412.39 -1.55475 0.257931 0
M  V30 4397 C 413.636 -1.99502 -0.364266 0
M  V30 4398 C 413.969 -1.146 -1.56782 0
M  V30 4399 O 413.244 -0.211968 -1.93342 0
M  V30 4400 C 413.527 -3.51917 -0.763333 0
M  V30 4401 C 413.38 -4.4758 0.446371 0
M  V30 4402 C 414.699 -4.09742 -1.60623 0
M  V30 4403 H 411.818 -0.725277 -0.130929 0
M  V30 4404 H 414.46 -1.8653 0.361446 0
M  V30 4405 H 412.61 -3.63101 -1.38166 0
M  V30 4406 H 414.282 -4.48362 1.08487 0
M  V30 4407 H 412.525 -4.19947 1.08753 0
M  V30 4408 H 413.196 -5.51862 0.123645 0
M  V30 4409 H 415.672 -4.01727 -1.08418 0
M  V30 4410 H 414.548 -5.16631 -1.85429 0
M  V30 4411 H 414.809 -3.58889 -2.58169 0
M  V30 4412 N 413.868 0.0150385 -1.57593 0
M  V30 4413 C 414.778 1.02791 -2.10882 0
M  V30 4414 C 415.794 1.38702 -1.0506 0
M  V30 4415 O 416.97 1.47739 -1.36877 0
M  V30 4416 C 414.035 2.30568 -2.58919 0
M  V30 4417 C 413.096 2.01108 -3.79281 0
M  V30 4418 C 412.329 3.22794 -4.25018 0
M  V30 4419 O 412.552 4.33959 -3.70183 0
M  V30 4420 O 411.486 3.07672 -5.17322 0
M  V30 4421 H 415.312 0.604973 -2.97613 0
M  V30 4422 H 412.897 0.23292 -1.47573 0
M  V30 4423 H 414.779 3.05662 -2.90084 0
M  V30 4424 H 413.454 2.72129 -1.75293 0
M  V30 4425 H 412.361 1.23537 -3.53114 0
M  V30 4426 H 413.694 1.64394 -4.63935 0
M  V30 4427 N 415.346 1.54954 0.287554 0
M  V30 4428 C 416.309 1.86076 1.33823 0
M  V30 4429 C 417.309 0.734414 1.43049 0
M  V30 4430 O 418.499 1.00266 1.42452 0
M  V30 4431 C 415.631 2.05305 2.72144 0
M  V30 4432 H 416.824 2.79984 1.07465 0
M  V30 4433 H 414.377 1.47223 0.524902 0
M  V30 4434 H 415.112 1.1373 3.03704 0
M  V30 4435 H 414.897 2.873 2.66836 0
M  V30 4436 H 416.387 2.30706 3.48087 0
M  V30 4437 N 416.824 -0.551391 1.4764 0
M  V30 4438 C 417.787 -1.64007 1.60107 0
M  V30 4439 C 418.787 -1.53601 0.47576 0
M  V30 4440 O 419.977 -1.57655 0.740988 0
M  V30 4441 C 417.109 -3.03569 1.55108 0
M  V30 4442 H 418.302 -1.543 2.57161 0
M  V30 4443 H 415.855 -0.771776 1.35917 0
M  V30 4444 H 416.59 -3.18804 0.594519 0
M  V30 4445 H 416.375 -3.12532 2.36783 0
M  V30 4446 H 417.865 -3.82762 1.66982 0
M  V30 4447 N 418.302 -1.35869 -0.798587 0
M  V30 4448 C 419.235 -1.23801 -1.91699 0
M  V30 4449 C 420.213 -0.124143 -1.62125 0
M  V30 4450 O 421.397 -0.293656 -1.86199 0
M  V30 4451 C 418.524 -0.908063 -3.263 0
M  V30 4452 C 417.57 -2.0351 -3.74815 0
M  V30 4453 S 418.403 -3.65183 -3.91665 0
M  V30 4454 C 419.559 -3.34283 -5.29156 0
M  V30 4455 H 419.792 -2.18466 -2.01643 0
M  V30 4456 H 417.325 -1.21178 -0.956833 0
M  V30 4457 H 419.283 -0.724506 -4.04056 0
M  V30 4458 H 417.944 0.0206584 -3.14093 0
M  V30 4459 H 417.137 -1.75858 -4.72324 0
M  V30 4460 H 416.739 -2.1774 -3.04081 0
M  V30 4461 H 419.031 -2.87607 -6.13424 0
M  V30 4462 H 419.974 -4.31022 -5.61806 0
M  V30 4463 H 420.382 -2.69854 -4.95822 0
M  V30 4464 N 419.78 1.02168 -1.19998 0
M  V30 4465 C 421.005 1.79833 -1.03319 0
M  V30 4466 C 421.43 1.83504 0.413281 0
M  V30 4467 O 420.788 1.26635 1.29743 0
M  V30 4468 C 420.836 3.22396 -1.61533 0
M  V30 4469 O 419.94 4.03555 -0.849519 0
M  V30 4470 H 419.281 0.554872 -0.364709 0
M  V30 4471 H 421.811 1.28542 -1.59179 0
M  V30 4472 H 421.821 3.73124 -1.65054 0
M  V30 4473 H 420.496 3.19039 -2.66809 0
M  V30 4474 H 419.073 3.62169 -0.888129 0
M  V30 4475 N 421.258 1.00505 1.21394 0
M  V30 4476 C 422.483 0.706367 1.95001 0
M  V30 4477 C 422.908 -0.72463 1.73582 0
M  V30 4478 O 422.266 -1.49702 1.0227 0
M  V30 4479 C 422.314 1.03299 3.45487 0
M  V30 4480 O 421.418 0.138275 4.12168 0
M  V30 4481 H 420.759 0.263175 0.609619 0
M  V30 4482 H 423.289 1.34531 1.54151 0
M  V30 4483 H 423.299 0.979872 3.96059 0
M  V30 4484 H 421.974 2.07567 3.60401 0
M  V30 4485 H 420.551 0.247928 3.72075 0
M  V30 4486 N 422.737 -1.36956 0.779787 0
M  V30 4487 C 423.684 -2.30175 0.169697 0
M  V30 4488 C 424.654 -1.51501 -0.68094 0
M  V30 4489 O 425.839 -1.80042 -0.631629 0
M  V30 4490 C 422.979 -3.37985 -0.697131 0
M  V30 4491 C 422.092 -4.31661 0.170992 0
M  V30 4492 C 421.227 -5.2655 -0.701298 0
M  V30 4493 C 420.266 -6.11867 0.168869 0
M  V30 4494 N 419.403 -6.98973 -0.661855 0
M  V30 4495 H 424.243 -2.81767 0.970135 0
M  V30 4496 H 421.78 -1.38699 0.489994 0
M  V30 4497 H 423.738 -3.99128 -1.2146 0
M  V30 4498 H 422.368 -2.87739 -1.46309 0
M  V30 4499 H 421.42 -3.71756 0.80634 0
M  V30 4500 H 422.732 -4.91644 0.841875 0
M  V30 4501 H 421.886 -5.92937 -1.28494 0
M  V30 4502 H 420.625 -4.66998 -1.40584 0
M  V30 4503 H 419.63 -5.44452 0.764986 0
M  V30 4504 H 420.855 -6.73493 0.870863 0
M  V30 4505 H 418.801 -6.41941 -1.35086 0
M  V30 4506 H 418.718 -7.55984 -0.0484447 0
M  V30 4507 H 419.986 -7.6974 -1.22963 0
M  V30 4508 N 424.215 -0.530993 -1.48385 0
M  V30 4509 C 425.443 -0.00134122 -2.069 0
M  V30 4510 C 425.858 1.2805 -1.3874 0
M  V30 4511 O 425.215 1.76204 -0.475244 0
M  V30 4512 C 425.266 0.225256 -3.60798 0
M  V30 4513 O 424.987 -1.0058 -4.26398 0
M  V30 4514 C 426.488 0.795172 -4.3611 0
M  V30 4515 H 423.708 -0.0339704 -0.67014 0
M  V30 4516 H 426.252 -0.736926 -1.90761 0
M  V30 4517 H 424.407 0.910891 -3.76539 0
M  V30 4518 H 424.821 -0.787165 -5.1856 0
M  V30 4519 H 426.295 0.903143 -5.44562 0
M  V30 4520 H 426.772 1.80031 -4.00606 0
M  V30 4521 H 427.378 0.146069 -4.25049 0
M  V30 4522 N 425.693 1.55336 -0.266172 0
M  V30 4523 C 426.623 2.25146 0.618981 0
M  V30 4524 C 427.604 1.23845 1.16604 0
M  V30 4525 O 428.789 1.52544 1.20183 0
M  V30 4526 C 425.919 2.96572 1.80728 0
M  V30 4527 C 424.873 4.04726 1.39215 0
M  V30 4528 C 424.199 4.63678 2.66283 0
M  V30 4529 C 425.499 5.19407 0.548942 0
M  V30 4530 H 427.193 2.99377 0.0368116 0
M  V30 4531 H 424.739 1.43991 0.0162651 0
M  V30 4532 H 426.692 3.44116 2.43232 0
M  V30 4533 H 425.416 2.19861 2.41514 0
M  V30 4534 H 424.075 3.57979 0.790351 0
M  V30 4535 H 423.723 3.83646 3.25308 0
M  V30 4536 H 423.423 5.367 2.39222 0
M  V30 4537 H 424.947 5.13967 3.29651 0
M  V30 4538 H 426.361 5.63059 1.07876 0
M  V30 4539 H 424.758 5.98936 0.373593 0
M  V30 4540 H 425.828 4.8295 -0.434394 0
M  V30 4541 N 427.171 -0.0066808 1.57599 0
M  V30 4542 C 428.118 -1.00024 2.08 0
M  V30 4543 C 429.088 -1.34549 0.973943 0
M  V30 4544 O 430.273 -1.44502 1.24595 0
M  V30 4545 C 427.413 -2.2891 2.58252 0
M  V30 4546 C 426.526 -2.00346 3.82734 0
M  V30 4547 C 425.661 -3.23265 4.21513 0
M  V30 4548 C 424.7 -2.90357 5.3885 0
M  V30 4549 N 423.837 -4.05793 5.72954 0
M  V30 4550 H 428.677 -0.563499 2.92624 0
M  V30 4551 H 426.214 -0.266592 1.44664 0
M  V30 4552 H 428.172 -3.04247 2.85464 0
M  V30 4553 H 426.802 -2.70265 1.76512 0
M  V30 4554 H 425.854 -1.15406 3.62471 0
M  V30 4555 H 427.166 -1.72086 4.68175 0
M  V30 4556 H 426.32 -4.06953 4.49971 0
M  V30 4557 H 425.059 -3.54657 3.34768 0
M  V30 4558 H 424.064 -2.05075 5.10122 0
M  V30 4559 H 425.289 -2.60219 6.27266 0
M  V30 4560 H 423.235 -4.37094 4.89167 0
M  V30 4561 H 423.152 -3.81034 6.52954 0
M  V30 4562 H 424.42 -4.90289 6.06001 0
M  V30 4563 N 428.649 -1.55105 -0.279332 0
M  V30 4564 C 429.596 -1.8755 -1.34513 0
M  V30 4565 C 430.566 -0.726384 -1.49375 0
M  V30 4566 O 431.751 -0.977063 -1.63884 0
M  V30 4567 C 428.891 -2.14738 -2.70151 0
M  V30 4568 C 428.004 -3.42285 -2.63562 0
M  V30 4569 C 427.139 -3.59206 -3.91337 0
M  V30 4570 C 426.178 -4.80467 -3.79233 0
M  V30 4571 N 425.315 -4.94079 -4.98829 0
M  V30 4572 H 430.155 -2.78456 -1.06143 0
M  V30 4573 H 427.692 -1.37867 -0.512936 0
M  V30 4574 H 429.65 -2.28501 -3.49061 0
M  V30 4575 H 428.28 -1.27075 -2.96735 0
M  V30 4576 H 427.332 -3.37029 -1.76397 0
M  V30 4577 H 428.644 -4.31328 -2.50515 0
M  V30 4578 H 427.798 -3.72751 -4.78687 0
M  V30 4579 H 426.537 -2.68337 -4.07243 0
M  V30 4580 H 425.542 -4.66932 -2.90266 0
M  V30 4581 H 426.767 -5.72765 -3.64852 0
M  V30 4582 H 424.713 -4.06139 -5.15158 0
M  V30 4583 H 424.63 -5.77156 -4.8829 0
M  V30 4584 H 425.898 -5.12003 -5.8777 0
M  V30 4585 N 430.127 0.543554 -1.4793 0
M  V30 4586 C 431.373 1.29961 -1.56466 0
M  V30 4587 C 431.728 1.91024 -0.229696 0
M  V30 4588 O 431.021 1.75619 0.766072 0
M  V30 4589 C 431.215 2.42078 -2.62932 0
M  V30 4590 C 431.044 1.92003 -4.06651 0
M  V30 4591 C 429.814 1.75223 -4.73946 0
M  V30 4592 C 432.012 1.45648 -4.93245 0
M  V30 4593 N 429.994 1.19632 -6.02131 0
M  V30 4594 C 431.365 1.01914 -6.11566 0
M  V30 4595 C 433.42 1.33826 -4.79578 0
M  V30 4596 C 432.123 0.475301 -7.17728 0
M  V30 4597 C 434.149 0.808427 -5.85848 0
M  V30 4598 C 433.511 0.381081 -7.03368 0
M  V30 4599 H 429.61 0.467086 -0.62718 0
M  V30 4600 H 432.194 0.614543 -1.84747 0
M  V30 4601 H 430.365 3.08098 -2.36496 0
M  V30 4602 H 432.097 3.09096 -2.61231 0
M  V30 4603 H 428.852 1.98345 -4.30065 0
M  V30 4604 H 429.276 0.93885 -6.70458 0
M  V30 4605 H 433.918 1.65474 -3.89074 0
M  V30 4606 H 431.636 0.146472 -8.07967 0
M  V30 4607 H 435.222 0.720315 -5.77324 0
M  V30 4608 H 434.102 -0.0225344 -7.84197 0
M  V30 4609 N 431.605 1.3629 0.791371 0
M  V30 4610 C 432.553 1.30514 1.92533 0
M  V30 4611 C 433.547 0.197285 1.68247 0
M  V30 4612 O 434.753 0.364176 1.76278 0
M  V30 4613 H 431.128 0.406263 0.632815 0
M  V30 4614 H 433.099 2.26282 1.94523 0
M  V30 4615 C 431.848 1.10933 3.29529 0
M  V30 4616 H 431.171 1.95427 3.48781 0
M  V30 4617 H 432.611 1.10937 4.0923 0
M  V30 4618 C 431.07 -0.186123 3.36385 0
M  V30 4619 O 431.6 -1.17664 3.84081 0
M  V30 4620 N 429.806 -0.230128 2.89687 0
M  V30 4621 H 429.353 0.576545 2.51065 0
M  V30 4622 H 429.311 -1.09658 2.94657 0
M  V30 4623 N 433.083 -1.0153 1.20538 0
M  V30 4624 C 434.499 -1.27461 0.96051 0
M  V30 4625 C 434.699 -1.98273 -0.359193 0
M  V30 4626 O 433.755 -2.27886 -1.0874 0
M  V30 4627 C 435.068 -2.10837 2.14402 0
M  V30 4628 C 436.616 -2.24099 2.18515 0
M  V30 4629 C 437.091 -3.10852 3.36355 0
M  V30 4630 N 438.582 -3.18441 3.36377 0
M  V30 4631 C 439.317 -3.85795 4.24205 0
M  V30 4632 N 438.813 -4.55264 5.22213 0
M  V30 4633 N 440.606 -3.82331 4.12043 0
M  V30 4634 H 432.757 -0.539907 2.05423 0
M  V30 4635 H 435.02 -0.30092 0.898972 0
M  V30 4636 H 434.726 -1.66144 3.09983 0
M  V30 4637 H 434.6 -3.11576 2.12604 0
M  V30 4638 H 436.987 -2.68016 1.23497 0
M  V30 4639 H 437.068 -1.22865 2.24361 0
M  V30 4640 H 436.712 -2.6764 4.31661 0
M  V30 4641 H 436.642 -4.12177 3.27746 0
M  V30 4642 H 439.133 -2.68978 2.65442 0
M  V30 4643 H 439.446 -5.04331 5.85551 0
M  V30 4644 H 437.791 -4.54085 5.26148 0
M  V30 4645 H 440.982 -3.27207 3.34743 0
M  V30 4646 H 441.155 -4.34547 4.807 0
M  V30 4647 N 434.561 -1.01147 -1.20859 0
M  V30 4648 C 435.491 -0.597663 -2.25722 0
M  V30 4649 C 436.472 0.384744 -1.65692 0
M  V30 4650 O 437.657 0.271303 -1.92296 0
M  V30 4651 C 434.787 0.0700149 -3.47229 0
M  V30 4652 C 433.741 -0.832843 -4.19819 0
M  V30 4653 C 433.067 -0.0312202 -5.34691 0
M  V30 4654 C 434.367 -2.1385 -4.76514 0
M  V30 4655 H 436.061 -1.47423 -2.60589 0
M  V30 4656 H 433.607 -0.710301 -1.25263 0
M  V30 4657 H 435.56 0.37103 -4.19763 0
M  V30 4658 H 434.284 0.981259 -3.11511 0
M  V30 4659 H 432.943 -1.11778 -3.49144 0
M  V30 4660 H 432.591 0.881515 -4.95215 0
M  V30 4661 H 432.291 -0.632434 -5.84187 0
M  V30 4662 H 433.815 0.26346 -6.10031 0
M  V30 4663 H 435.229 -1.9002 -5.40893 0
M  V30 4664 H 433.626 -2.69012 -5.36426 0
M  V30 4665 H 434.696 -2.80495 -3.95538 0
M  V30 4666 N 436.039 1.36541 -0.78704 0
M  V30 4667 C 436.969 2.32659 -0.197992 0
M  V30 4668 C 437.95 1.56533 0.665697 0
M  V30 4669 O 439.135 1.84698 0.60001 0
M  V30 4670 C 436.265 3.40778 0.669901 0
M  V30 4671 C 435.219 4.27897 -0.0937039 0
M  V30 4672 C 434.545 5.27163 0.894629 0
M  V30 4673 C 435.845 5.06334 -1.28154 0
M  V30 4674 H 437.539 2.82171 -1.00099 0
M  V30 4675 H 435.085 1.35665 -0.482793 0
M  V30 4676 H 437.038 4.07008 1.09191 0
M  V30 4677 H 435.762 2.89827 1.50558 0
M  V30 4678 H 434.421 3.6322 -0.49666 0
M  V30 4679 H 434.069 4.72486 1.72527 0
M  V30 4680 H 433.769 5.86317 0.388149 0
M  V30 4681 H 435.293 5.96266 1.31525 0
M  V30 4682 H 436.707 5.65617 -0.93541 0
M  V30 4683 H 435.104 5.74888 -1.72115 0
M  V30 4684 H 436.174 4.38114 -2.07807 0
M  V30 4685 N 437.518 0.538854 1.48102 0
M  V30 4686 C 438.45 -0.256278 2.27763 0
M  V30 4687 C 439.463 -0.89633 1.35904 0
M  V30 4688 O 440.652 -0.773275 1.60881 0
M  V30 4689 C 437.752 -1.37896 3.09577 0
M  V30 4690 C 436.925 -0.839159 4.29275 0
M  V30 4691 C 435.984 -1.84405 4.9283 0
M  V30 4692 O 435.01 -1.39746 5.51779 0
M  V30 4693 N 436.212 -3.17666 4.85869 0
M  V30 4694 H 438.977 0.426968 2.96643 0
M  V30 4695 H 436.538 0.373747 1.57527 0
M  V30 4696 H 438.53 -2.04955 3.48963 0
M  V30 4697 H 437.1 -1.96572 2.4306 0
M  V30 4698 H 436.32 0.00769287 3.94199 0
M  V30 4699 H 437.608 -0.457548 5.06739 0
M  V30 4700 H 437.006 -3.56609 4.39143 0
M  V30 4701 H 435.563 -3.80334 5.29329 0
M  V30 4702 N 438.996 -1.55193 0.274407 0
M  V30 4703 C 439.943 -2.225 -0.613374 0
M  V30 4704 C 440.913 -1.19823 -1.15029 0
M  V30 4705 O 442.098 -1.48362 -1.19973 0
M  V30 4706 C 439.238 -2.94927 -1.79199 0
M  V30 4707 C 438.351 -4.12322 -1.28899 0
M  V30 4708 C 437.486 -4.72394 -2.42934 0
M  V30 4709 C 436.525 -5.81984 -1.89634 0
M  V30 4710 N 435.662 -6.36123 -2.9714 0
M  V30 4711 H 440.502 -2.97982 -0.032756 0
M  V30 4712 H 438.039 -1.47099 -0.00440146 0
M  V30 4713 H 439.997 -3.35134 -2.48478 0
M  V30 4714 H 438.627 -2.2187 -2.34465 0
M  V30 4715 H 437.679 -3.7724 -0.489327 0
M  V30 4716 H 438.991 -4.91355 -0.858587 0
M  V30 4717 H 438.145 -5.15317 -3.20208 0
M  V30 4718 H 436.884 -3.92636 -2.8929 0
M  V30 4719 H 435.889 -5.38511 -1.1084 0
M  V30 4720 H 437.114 -6.6361 -1.44215 0
M  V30 4721 H 435.06 -5.59259 -3.42878 0
M  V30 4722 H 434.977 -7.10427 -2.58515 0
M  V30 4723 H 436.245 -6.83704 -3.74391 0
M  V30 4724 N 440.474 -0.00167713 -1.576 0
M  V30 4725 C 441.722 0.681471 -1.90264 0
M  V30 4726 C 442.043 1.7422 -0.875924 0
M  V30 4727 O 441.313 1.95709 0.0864412 0
M  V30 4728 H 439.893 0.254696 -0.702239 0
M  V30 4729 H 442.555 -0.0429996 -1.94853 0
M  V30 4730 H 441.651 1.15166 -2.90075 0
M  V30 4731 N 441.952 1.55251 0.271103 0
M  V30 4732 C 443.198 1.7713 0.999832 0
M  V30 4733 C 443.553 0.56659 1.83868 0
M  V30 4734 O 442.846 -0.44069 1.86463 0
M  V30 4735 C 443.04 3.01879 1.91321 0
M  V30 4736 C 442.869 4.34368 1.16426 0
M  V30 4737 C 441.639 4.97593 0.879169 0
M  V30 4738 C 443.837 5.1131 0.553749 0
M  V30 4739 N 441.819 6.13813 0.103618 0
M  V30 4740 C 443.19 6.19938 -0.0875442 0
M  V30 4741 C 445.245 4.95754 0.461782 0
M  V30 4742 C 443.948 7.14703 -0.811942 0
M  V30 4743 C 445.974 5.90875 -0.249027 0
M  V30 4744 C 445.336 6.98893 -0.879051 0
M  V30 4745 H 441.435 0.700407 0.347784 0
M  V30 4746 H 444.019 1.92744 0.275314 0
M  V30 4747 H 442.19 2.87637 2.60997 0
M  V30 4748 H 443.922 3.12154 2.57569 0
M  V30 4749 H 440.677 4.58538 1.18491 0
M  V30 4750 H 441.101 6.76455 -0.271543 0
M  V30 4751 H 445.743 4.12342 0.934552 0
M  V30 4752 H 443.461 7.97634 -1.29639 0
M  V30 4753 H 447.047 5.80916 -0.320529 0
M  V30 4754 H 445.927 7.71231 -1.42031 0
M  V30 4755 N 443.43 -0.535701 1.48216 0
M  V30 4756 C 444.676 -1.29375 1.56173 0
M  V30 4757 C 445.009 -1.92804 0.232429 0
M  V30 4758 O 444.284 -1.78992 -0.761048 0
M  V30 4759 C 444.567 -2.38747 2.69577 0
M  V30 4760 C 444.42 -1.80046 4.12193 0
M  V30 4761 C 445.739 -3.40551 2.78771 0
M  V30 4762 H 442.858 -0.469027 0.568491 0
M  V30 4763 H 445.5 -0.597358 1.80365 0
M  V30 4764 H 443.65 -2.98147 2.4908 0
M  V30 4765 H 445.322 -1.24742 4.44114 0
M  V30 4766 H 443.565 -1.10609 4.19462 0
M  V30 4767 H 444.236 -2.59212 4.87353 0
M  V30 4768 H 446.712 -2.91099 2.97322 0
M  V30 4769 H 445.588 -4.1448 3.59857 0
M  V30 4770 H 445.849 -4.00746 1.86696 0
M  V30 4771 N 444.908 -1.36708 -0.784132 0
M  V30 4772 C 446.185 -1.21776 -1.53069 0
M  V30 4773 C 446.565 0.193876 -2.10208 0
M  V30 4774 O 445.913 1.20012 -1.94446 0
M  V30 4775 C 446.123 -2.30395 -2.62143 0
M  V30 4776 C 447.471 -2.67325 -3.29882 0
M  V30 4777 O 448.495 -2.29478 -2.7243 0
M  V30 4778 O 447.354 -3.32485 -4.33724 0
M  V30 4779 H 444.448 -0.474459 -0.677361 0
M  V30 4780 H 446.994 -1.48454 -0.82216 0
M  V30 4781 H 445.766 -3.2498 -2.17953 0
M  V30 4782 H 445.389 -2.05112 -3.40609 0
M  V30 4783 N 446.386 1.0089 -1.21074 0
M  V30 4784 C 447.316 2.1145 -0.990523 0
M  V30 4785 C 448.297 1.69897 0.0831699 0
M  V30 4786 O 449.482 1.94052 -0.0758853 0
M  V30 4787 C 446.612 3.42914 -0.550177 0
M  V30 4788 C 445.566 3.98244 -1.56799 0
M  V30 4789 C 444.892 5.25568 -0.984013 0
M  V30 4790 C 446.192 4.30752 -2.95381 0
M  V30 4791 H 447.886 2.3013 -1.91521 0
M  V30 4792 H 445.432 1.10592 -0.92225 0
M  V30 4793 H 447.385 4.19653 -0.383305 0
M  V30 4794 H 446.109 3.24014 0.41015 0
M  V30 4795 H 444.768 3.23621 -1.72236 0
M  V30 4796 H 444.416 5.02998 -0.0155216 0
M  V30 4797 H 444.116 5.63551 -1.66384 0
M  V30 4798 H 445.64 6.04955 -0.828378 0
M  V30 4799 H 447.054 4.98349 -2.8341 0
M  V30 4800 H 445.451 4.79869 -3.60341 0
M  V30 4801 H 446.521 3.39192 -3.46521 0
M  V30 4802 N 447.864 1.01787 1.20321 0
M  V30 4803 C 449.111 0.707936 1.89722 0
M  V30 4804 C 449.439 -0.762535 1.78929 0
M  V30 4805 O 448.694 -1.56977 1.16861 0
M  V30 4806 C 448.993 1.09076 3.40349 0
M  V30 4807 C 448.659 2.55765 3.71342 0
M  V30 4808 C 447.321 2.95845 3.79511 0
M  V30 4809 C 449.673 3.50723 3.85542 0
M  V30 4810 C 447.001 4.2982 3.99339 0
M  V30 4811 C 449.353 4.84387 4.06881 0
M  V30 4812 C 448.017 5.24172 4.1328 0
M  V30 4813 H 447.287 0.259052 0.694243 0
M  V30 4814 H 449.934 1.27868 1.42555 0
M  V30 4815 H 448.239 0.438453 3.89339 0
M  V30 4816 H 449.936 0.828636 3.92345 0
M  V30 4817 H 446.526 2.2371 3.65584 0
M  V30 4818 H 450.71 3.20916 3.78585 0
M  V30 4819 H 445.966 4.60196 4.02529 0
M  V30 4820 H 450.14 5.57891 4.1681 0
M  V30 4821 H 447.767 6.27997 4.28396 0
M  V30 4822 N 449.342 -1.36122 0.79427 0
M  V30 4823 C 450.588 -1.99406 0.369452 0
M  V30 4824 C 450.921 -1.62886 -1.05743 0
M  V30 4825 O 450.196 -0.886053 -1.73145 0
M  V30 4826 C 450.479 -3.56046 0.538833 0
M  V30 4827 C 450.332 -4.02404 2.00976 0
M  V30 4828 C 451.651 -4.40079 -0.0431359 0
M  V30 4829 H 448.77 -0.724397 0.135712 0
M  V30 4830 H 451.412 -1.61461 1.00151 0
M  V30 4831 H 449.562 -3.885 0.000771004 0
M  V30 4832 H 451.234 -3.80415 2.60926 0
M  V30 4833 H 449.477 -3.53765 2.51063 0
M  V30 4834 H 450.148 -5.11344 2.07922 0
M  V30 4835 H 452.624 -4.14013 0.416228 0
M  V30 4836 H 451.5 -5.48799 0.105374 0
M  V30 4837 H 451.761 -4.27264 -1.13571 0
M  V30 4838 N 450.82 -0.546701 -1.47814 0
M  V30 4839 C 452.231 -0.110564 -1.86372 0
M  V30 4840 C 452.582 1.31678 -1.45449 0
M  V30 4841 O 451.707 1.98889 -0.852758 0
M  V30 4842 C 452.302 -0.193873 -3.38245 0
M  V30 4843 C 450.861 0.187164 -3.75934 0
M  V30 4844 C 450.008 -0.546166 -2.71868 0
M  V30 4845 H 452.959 -0.757022 -1.39481 0
M  V30 4846 H 452.98 0.590218 -3.75895 0
M  V30 4847 H 452.492 -1.23282 -3.67999 0
M  V30 4848 H 450.593 1.22762 -3.51796 0
M  V30 4849 H 450.706 -0.164083 -4.78819 0
M  V30 4850 H 449.07 0.00953904 -2.54698 0
M  V30 4851 H 449.853 -1.58606 -3.04465 0
M  V30 4852 N 452.299 1.55045 -0.282633 0
M  V30 4853 C 453.246 2.22822 0.601566 0
M  V30 4854 C 454.216 1.20431 1.14392 0
M  V30 4855 O 455.401 1.48996 1.19184 0
M  V30 4856 C 452.541 2.95873 1.77632 0
M  V30 4857 C 451.654 4.12999 1.26711 0
M  V30 4858 C 450.789 4.73676 2.40426 0
M  V30 4859 C 449.828 5.82981 1.86545 0
M  V30 4860 N 448.965 6.3769 2.93762 0
M  V30 4861 H 453.805 2.97995 0.0169528 0
M  V30 4862 H 451.342 1.471 -0.00339964 0
M  V30 4863 H 453.3 3.36447 2.46697 0
M  V30 4864 H 451.93 2.2311 2.33285 0
M  V30 4865 H 450.982 3.77494 0.469314 0
M  V30 4866 H 452.294 4.91803 0.832518 0
M  V30 4867 H 451.448 5.17008 3.17471 0
M  V30 4868 H 450.187 3.94164 2.87203 0
M  V30 4869 H 449.192 5.39092 1.07983 0
M  V30 4870 H 450.417 6.64366 1.40694 0
M  V30 4871 H 448.363 5.61069 3.39908 0
M  V30 4872 H 448.28 7.11788 2.54744 0
M  V30 4873 H 449.548 6.8568 3.7076 0
M  V30 4874 N 453.777 0.010035 1.57597 0
M  V30 4875 C 455.024 -0.6727 1.91 0
M  V30 4876 C 455.352 -1.73219 0.884614 0
M  V30 4877 O 454.607 -1.95395 -0.109215 0
M  V30 4878 C 454.906 -1.34434 3.31153 0
M  V30 4879 C 454.572 -0.417083 4.48967 0
M  V30 4880 C 453.234 -0.161809 4.80928 0
M  V30 4881 C 455.586 0.220753 5.20732 0
M  V30 4882 C 452.914 0.739426 5.82022 0
M  V30 4883 C 455.266 1.10993 6.22787 0
M  V30 4884 C 453.93 1.37428 6.532 0
M  V30 4885 H 453.2 -0.246158 0.698918 0
M  V30 4886 H 455.847 0.0677145 1.9138 0
M  V30 4887 H 454.152 -2.15905 3.26944 0
M  V30 4888 H 455.849 -1.87883 3.54261 0
M  V30 4889 H 452.439 -0.626217 4.24001 0
M  V30 4890 H 456.623 0.0365643 4.96287 0
M  V30 4891 H 451.879 0.952139 6.03941 0
M  V30 4892 H 456.053 1.61046 6.77523 0
M  V30 4893 H 453.68 2.0743 7.31353 0
M  V30 4894 N 455.255 -1.55392 -0.262866 0
M  V30 4895 C 456.48 -1.80847 -1.01533 0
M  V30 4896 C 456.905 -0.584946 -1.78774 0
M  V30 4897 O 456.263 0.465701 -1.75217 0
M  V30 4898 C 456.311 -3.03866 -1.94159 0
M  V30 4899 O 455.415 -2.79662 -3.03089 0
M  V30 4900 H 454.756 -0.597441 -0.289759 0
M  V30 4901 H 457.286 -2.02553 -0.288698 0
M  V30 4902 H 457.296 -3.32872 -2.35924 0
M  V30 4903 H 455.971 -3.92564 -1.37354 0
M  V30 4904 H 454.548 -2.61781 -2.65566 0
M  V30 4905 N 456.733 0.527833 -1.48498 0
M  V30 4906 C 457.982 1.28003 -1.55878 0
M  V30 4907 C 458.295 1.9414 -0.238577 0
M  V30 4908 O 459.501 2.7083 -0.190643 0
M  V30 4909 C 457.957 2.32272 -2.74914 0
M  V30 4910 C 457.565 1.72196 -4.13585 0
M  V30 4911 C 459.309 3.08488 -2.91608 0
M  V30 4912 C 457.216 2.74417 -5.23879 0
M  V30 4913 H 456.146 0.481413 -0.580308 0
M  V30 4914 H 458.797 0.557195 -1.74836 0
M  V30 4915 H 457.179 3.07601 -2.49395 0
M  V30 4916 H 458.353 1.03041 -4.49132 0
M  V30 4917 H 456.668 1.08464 -4.02025 0
M  V30 4918 H 459.265 3.84879 -3.71177 0
M  V30 4919 H 459.608 3.64481 -2.01145 0
M  V30 4920 H 460.141 2.40274 -3.17038 0
M  V30 4921 H 456.88 2.23242 -6.16314 0
M  V30 4922 H 456.4 3.41893 -4.92818 0
M  V30 4923 H 458.079 3.37362 -5.52083 0
M  V30 4924 N 458.211 1.37122 0.776871 0
M  V30 4925 C 459.436 1.354 1.57104 0
M  V30 4926 C 459.861 -0.0595562 1.88006 0
M  V30 4927 O 459.219 -1.03514 1.48844 0
M  V30 4928 C 459.267 2.19472 2.8612 0
M  V30 4929 O 458.371 1.59582 3.80273 0
M  V30 4930 H 457.712 0.462869 0.476076 0
M  V30 4931 H 460.242 1.80577 0.961932 0
M  V30 4932 H 460.252 2.32502 3.35271 0
M  V30 4933 H 458.927 3.22222 2.62956 0
M  V30 4934 H 457.504 1.55564 3.38902 0
M  V30 4935 N 459.689 -1.00246 1.21608 0
M  V30 4936 C 460.652 -2.07233 0.979133 0
M  V30 4937 C 461.652 -1.6072 -0.0508219 0
M  V30 4938 O 462.842 -1.73196 0.186712 0
M  V30 4939 C 459.974 -3.37546 0.477016 0
M  V30 4940 H 461.167 -2.29687 1.92831 0
M  V30 4941 H 458.72 -1.17261 1.03342 0
M  V30 4942 H 459.455 -3.20773 -0.476966 0
M  V30 4943 H 459.24 -3.72638 1.21997 0
M  V30 4944 H 460.73 -4.16285 0.331181 0
M  V30 4945 N 461.167 -1.02423 -1.1978 0
M  V30 4946 C 462.395 -0.737456 -1.93311 0
M  V30 4947 C 462.81 0.703023 -1.75223 0
M  V30 4948 O 462.167 1.47761 -1.07112 0
M  V30 4949 C 462.218 -1.0733 -3.45199 0
M  V30 4950 O 461.939 -2.4572 -3.62702 0
M  V30 4951 C 463.44 -0.80866 -4.35862 0
M  V30 4952 H 460.66 -0.2702 -0.614193 0
M  V30 4953 H 463.204 -1.36747 -1.52054 0
M  V30 4954 H 461.359 -0.488545 -3.84307 0
M  V30 4955 H 461.773 -2.58081 -4.56612 0
M  V30 4956 H 463.247 -1.09365 -5.41057 0
M  V30 4957 H 463.724 0.257025 -4.38447 0
M  V30 4958 H 464.33 -1.37592 -4.02428 0
M  V30 4959 N 462.645 1.35699 -0.801477 0
M  V30 4960 C 463.875 2.02862 -0.3912 0
M  V30 4961 C 464.283 1.60552 1.00099 0
M  V30 4962 O 463.626 0.796215 1.65548 0
M  V30 4963 C 463.688 3.57386 -0.389299 0
M  V30 4964 C 463.352 4.22943 -1.73113 0
M  V30 4965 C 464.349 4.44984 -2.68859 0
M  V30 4966 C 462.034 4.60167 -2.01373 0
M  V30 4967 C 464.028 5.03345 -3.91053 0
M  V30 4968 C 461.715 5.18243 -3.23832 0
M  V30 4969 C 462.713 5.39773 -4.1849 0
M  V30 4970 O 462.401 5.96626 -5.38788 0
M  V30 4971 H 462.133 0.657341 -0.157732 0
M  V30 4972 H 464.687 1.74407 -1.08496 0
M  V30 4973 H 462.917 3.85011 0.361031 0
M  V30 4974 H 464.606 4.059 -0.0020365 0
M  V30 4975 H 465.372 4.1661 -2.48316 0
M  V30 4976 H 461.251 4.42726 -1.28508 0
M  V30 4977 H 464.795 5.20065 -4.64949 0
M  V30 4978 H 460.692 5.46044 -3.44248 0
M  V30 4979 H 461.46 6.15082 -5.40015 0
M  V30 4980 N 464.123 0.554532 1.47522 0
M  V30 4981 C 465.4 -0.0360704 1.95567 0
M  V30 4982 C 465.78 -1.48828 1.49711 0
M  V30 4983 O 465.128 -2.16366 0.734717 0
M  V30 4984 C 465.338 0.106631 3.48837 0
M  V30 4985 C 466.686 -0.0400899 4.24581 0
M  V30 4986 O 467.71 0.0340453 3.56184 0
M  V30 4987 O 466.569 -0.199111 5.46137 0
M  V30 4988 H 463.663 -0.0656294 0.824392 0
M  V30 4989 H 466.209 0.620867 1.57935 0
M  V30 4990 H 464.981 1.11727 3.7501 0
M  V30 4991 H 464.604 -0.58804 3.93227 0
M  V30 4992 N 465.601 -1.54893 0.290851 0
M  V30 4993 C 466.531 -2.26103 -0.583084 0
M  V30 4994 C 467.512 -1.25684 -1.14619 0
M  V30 4995 O 468.697 -1.54436 -1.17741 0
M  V30 4996 C 465.827 -2.99409 -1.75987 0
M  V30 4997 C 464.781 -4.0689 -1.32758 0
M  V30 4998 C 464.107 -4.67856 -2.58872 0
M  V30 4999 C 465.407 -5.20215 -0.46624 0
M  V30 5000 H 467.101 -2.99398 0.0108214 0
M  V30 5001 H 464.647 -1.43998 0.00664468 0
M  V30 5002 H 466.6 -3.47943 -2.37727 0
M  V30 5003 H 465.324 -2.23675 -2.37985 0
M  V30 5004 H 463.983 -3.59191 -0.733299 0
M  V30 5005 H 463.631 -3.88772 -3.19163 0
M  V30 5006 H 463.331 -5.40438 -2.30653 0
M  V30 5007 H 464.855 -5.19147 -3.21433 0
M  V30 5008 H 466.269 -5.64704 -0.989047 0
M  V30 5009 H 464.666 -5.99455 -0.27826 0
M  V30 5010 H 465.736 -4.82198 0.511173 0
M  V30 5011 N 467.08 -0.0183926 -1.57589 0
M  V30 5012 C 468.328 0.661253 -1.90976 0
M  V30 5013 C 468.649 1.73281 -0.894353 0
M  V30 5014 O 467.919 1.9579 0.0656788 0
M  V30 5015 H 466.499 0.247233 -0.704901 0
M  V30 5016 H 469.161 -0.0636639 -1.94796 0
M  V30 5017 H 468.257 1.12083 -2.9128 0
M  V30 5018 N 468.558 1.5553 0.254621 0
M  V30 5019 C 469.521 1.88872 1.29846 0
M  V30 5020 C 470.521 0.764591 1.41459 0
M  V30 5021 O 471.711 1.03265 1.40293 0
M  V30 5022 C 468.843 2.11032 2.67728 0
M  V30 5023 H 470.036 2.82201 1.01502 0
M  V30 5024 H 467.589 1.48303 0.493556 0
M  V30 5025 H 468.324 1.20146 3.01223 0
M  V30 5026 H 468.109 2.92895 2.60682 0
M  V30 5027 H 469.599 2.38038 3.43115 0
M  V30 5028 N 470.036 -0.519951 1.48776 0
M  V30 5029 C 471.264 -1.29971 1.60982 0
M  V30 5030 C 471.679 -1.86803 0.273885 0
M  V30 5031 O 471.036 -1.66904 -0.738193 0
M  V30 5032 C 471.087 -2.44346 2.66415 0
M  V30 5033 O 470.808 -1.89855 3.94825 0
M  V30 5034 C 472.309 -3.36014 2.89153 0
M  V30 5035 H 469.529 -0.394891 0.542496 0
M  V30 5036 H 472.073 -0.626214 1.94676 0
M  V30 5037 H 470.228 -3.07562 2.35552 0
M  V30 5038 H 470.642 -2.64798 4.5275 0
M  V30 5039 H 472.116 -4.12593 3.66703 0
M  V30 5040 H 472.593 -3.91859 1.98351 0
M  V30 5041 H 473.199 -2.78582 3.21359 0
M  V30 5042 N 471.514 -1.37532 -0.769588 0
M  V30 5043 C 472.444 -1.36172 -1.89682 0
M  V30 5044 C 473.425 -0.23001 -1.68538 0
M  V30 5045 O 474.61 -0.43069 -1.89364 0
M  V30 5046 C 471.74 -1.1701 -3.26995 0
M  V30 5047 C 470.694 -2.27216 -3.62708 0
M  V30 5048 C 470.02 -1.93174 -4.98586 0
M  V30 5049 C 471.32 -3.6941 -3.69234 0
M  V30 5050 H 473.014 -2.30499 -1.91078 0
M  V30 5051 H 470.56 -1.10953 -0.917902 0
M  V30 5052 H 472.513 -1.14688 -4.05493 0
M  V30 5053 H 471.237 -0.191395 -3.26039 0
M  V30 5054 H 469.896 -2.28697 -2.86519 0
M  V30 5055 H 469.544 -0.938281 -4.94171 0
M  V30 5056 H 469.244 -2.66973 -5.23449 0
M  V30 5057 H 470.768 -1.92443 -5.79481 0
M  V30 5058 H 472.182 -3.70047 -4.37879 0
M  V30 5059 H 470.579 -4.4228 -4.05597 0
M  V30 5060 H 471.649 -4.0288 -2.69844 0
M  V30 5061 N 472.992 0.995999 -1.22138 0
M  V30 5062 C 473.922 2.10387 -1.01289 0
M  V30 5063 C 474.903 1.69975 0.0651454 0
M  V30 5064 O 476.088 1.9396 -0.0964628 0
M  V30 5065 C 473.218 3.42312 -0.586517 0
M  V30 5066 C 472.172 3.96558 -1.61014 0
M  V30 5067 C 471.498 5.24494 -1.0397 0
M  V30 5068 C 472.798 4.27595 -2.99933 0
M  V30 5069 H 474.492 2.28086 -1.93951 0
M  V30 5070 H 472.038 1.09607 -0.933928 0
M  V30 5071 H 473.991 4.19223 -0.427793 0
M  V30 5072 H 472.715 3.24431 0.375761 0
M  V30 5073 H 471.374 3.21776 -1.75658 0
M  V30 5074 H 471.022 5.02953 -0.0688703 0
M  V30 5075 H 470.722 5.61755 -1.72352 0
M  V30 5076 H 472.246 6.04042 -0.892494 0
M  V30 5077 H 473.66 4.95315 -2.8868 0
M  V30 5078 H 472.057 4.76021 -3.6541 0
M  V30 5079 H 473.127 3.35498 -3.50099 0
M  V30 5080 N 474.47 1.03057 1.19235 0
M  V30 5081 C 475.417 0.612832 2.22515 0
M  V30 5082 C 476.387 -0.374224 1.61829 0
M  V30 5083 O 477.572 -0.270501 1.88873 0
M  V30 5084 C 474.712 -0.028475 3.45088 0
M  V30 5085 C 473.825 1.00483 4.20151 0
M  V30 5086 C 472.96 0.333102 5.30155 0
M  V30 5087 C 471.999 1.3522 5.96977 0
M  V30 5088 N 471.136 0.70616 6.9854 0
M  V30 5089 H 475.976 1.49812 2.57605 0
M  V30 5090 H 473.513 0.749658 1.26564 0
M  V30 5091 H 475.471 -0.417548 4.15105 0
M  V30 5092 H 474.101 -0.877334 3.10649 0
M  V30 5093 H 473.153 1.51194 3.49062 0
M  V30 5094 H 474.465 1.77929 4.65986 0
M  V30 5095 H 473.619 -0.110725 6.06599 0
M  V30 5096 H 472.358 -0.473547 4.85396 0
M  V30 5097 H 471.363 1.80627 5.19282 0
M  V30 5098 H 472.588 2.16037 6.4382 0
M  V30 5099 H 470.534 -0.0803667 6.55951 0
M  V30 5100 H 470.451 1.41848 7.42573 0
M  V30 5101 H 471.719 0.286391 7.78974 0
M  V30 5102 N 475.948 -1.35272 0.808662 0
M  V30 5103 C 476.881 -2.27595 0.165994 0
M  V30 5104 C 477.859 -1.48189 -0.669241 0
M  V30 5105 O 479.043 -1.77444 -0.636073 0
M  V30 5106 C 476.17 -3.29843 -0.769505 0
M  V30 5107 C 475.216 -4.26498 -0.0136267 0
M  V30 5108 S 476.049 -5.18878 1.32384 0
M  V30 5109 C 477.205 -6.24666 0.392838 0
M  V30 5110 H 477.438 -2.81755 0.948756 0
M  V30 5111 H 474.971 -1.42103 0.603828 0
M  V30 5112 H 476.929 -3.89247 -1.30374 0
M  V30 5113 H 475.59 -2.74558 -1.52567 0
M  V30 5114 H 474.783 -4.98769 -0.724227 0
M  V30 5115 H 474.385 -3.71274 0.450713 0
M  V30 5116 H 476.677 -6.7619 -0.4211 0
M  V30 5117 H 477.62 -6.99741 1.0848 0
M  V30 5118 H 478.028 -5.64499 -0.0123908 0
M  V30 5119 N 477.426 -0.562348 -1.47226 0
M  V30 5120 C 478.674 -0.0401371 -2.0206 0
M  V30 5121 C 478.995 1.3165 -1.43852 0
M  V30 5122 O 478.265 1.85976 -0.615599 0
M  V30 5123 H 476.845 -0.0118479 -0.746906 0
M  V30 5124 H 479.507 -0.73352 -1.8057 0
M  V30 5125 H 478.603 0.0441254 -3.12069 0
M  V30 5126 N 478.904 1.54736 -0.299062 0
M  V30 5127 C 480.153 1.99279 0.311549 0
M  V30 5128 C 480.466 1.19107 1.55154 0
M  V30 5129 O 481.672 1.53908 2.23662 0
M  V30 5130 C 480.128 3.54768 0.605632 0
M  V30 5131 C 479.736 4.43746 -0.615914 0
M  V30 5132 C 481.48 4.07841 1.17754 0
M  V30 5133 C 479.387 5.90663 -0.29509 0
M  V30 5134 H 478.317 0.744359 0.120187 0
M  V30 5135 H 480.968 1.78919 -0.407464 0
M  V30 5136 H 479.35 3.71021 1.38419 0
M  V30 5137 H 480.524 4.39267 -1.39218 0
M  V30 5138 H 478.839 4.01434 -1.10633 0
M  V30 5139 H 481.436 5.15174 1.43179 0
M  V30 5140 H 481.779 3.58324 2.11918 0
M  V30 5141 H 482.312 3.95123 0.460739 0
M  V30 5142 H 479.051 6.44325 -1.20524 0
M  V30 5143 H 478.571 5.98155 0.44394 0
M  V30 5144 H 480.25 6.46916 0.104048 0
M  V30 5145 N 480.382 0.0267497 1.57577 0
M  V30 5146 C 481.314 -0.984594 2.06974 0
M  V30 5147 C 482.327 -1.29032 0.992705 0
M  V30 5148 O 483.516 -1.25539 1.26895 0
M  V30 5149 C 480.616 -2.31262 2.47732 0
M  V30 5150 C 479.789 -2.1924 3.78487 0
M  V30 5151 C 478.848 -3.34956 4.05821 0
M  V30 5152 O 477.874 -3.11948 4.76106 0
M  V30 5153 N 479.076 -4.58672 3.55809 0
M  V30 5154 H 481.841 -0.563143 2.94362 0
M  V30 5155 H 479.402 -0.160061 1.61107 0
M  V30 5156 H 481.394 -3.07496 2.63112 0
M  V30 5157 H 479.964 -2.65056 1.65723 0
M  V30 5158 H 479.184 -1.27747 3.72927 0
M  V30 5159 H 480.472 -2.08409 4.64158 0
M  V30 5160 H 479.87 -4.8026 2.98942 0
M  V30 5161 H 478.427 -5.32083 3.76472 0
M  V30 5162 N 481.861 -1.55662 -0.24637 0
M  V30 5163 C 482.811 -1.86753 -1.30795 0
M  V30 5164 C 483.795 -0.728445 -1.43466 0
M  V30 5165 O 484.987 -0.99038 -1.46699 0
M  V30 5166 C 482.116 -2.16618 -2.66329 0
M  V30 5167 C 481.202 -3.36855 -2.57661 0
M  V30 5168 N 481.593 -4.56111 -2.18624 0
M  V30 5169 C 479.891 -3.39976 -2.88673 0
M  V30 5170 C 480.592 -5.38247 -2.20601 0
M  V30 5171 N 479.568 -4.77322 -2.60124 0
M  V30 5172 H 483.37 -2.76486 -0.996642 0
M  V30 5173 H 480.884 -1.55896 -0.454994 0
M  V30 5174 H 482.881 -2.37057 -3.42942 0
M  V30 5175 H 481.541 -1.28185 -2.98327 0
M  V30 5176 H 482.552 -4.81726 -1.9016 0
M  V30 5177 H 479.229 -2.61815 -3.25206 0
M  V30 5178 H 480.619 -6.43657 -1.92756 0
M  V30 5179 N 483.339 0.512053 -1.4905 0
M  V30 5180 C 484.302 1.59704 -1.64399 0
M  V30 5181 C 485.302 1.52285 -0.516317 0
M  V30 5182 O 486.492 1.55635 -0.782527 0
M  V30 5183 C 483.624 2.9935 -1.63102 0
M  V30 5184 H 484.817 1.47428 -2.61161 0
M  V30 5185 H 482.37 0.735469 -1.37915 0
M  V30 5186 H 483.105 3.17116 -0.678836 0
M  V30 5187 H 482.89 3.06144 -2.44986 0
M  V30 5188 H 484.38 3.782 -1.77072 0
M  V30 5189 N 484.817 1.37938 0.762283 0
M  V30 5190 C 486.047 1.36685 1.54922 0
M  V30 5191 C 486.455 -0.0474099 1.89141 0
M  V30 5192 O 485.798 -1.02213 1.52638 0
M  V30 5193 C 485.86 2.14963 2.88152 0
M  V30 5194 C 485.524 3.6385 2.76518 0
M  V30 5195 C 486.521 4.57531 2.46904 0
M  V30 5196 C 484.206 4.07095 2.94243 0
M  V30 5197 C 486.2 5.92436 2.35156 0
M  V30 5198 C 483.887 5.42083 2.82116 0
M  V30 5199 C 484.885 6.34567 2.52614 0
M  V30 5200 O 484.573 7.67073 2.40529 0
M  V30 5201 H 484.305 0.469586 0.486276 0
M  V30 5202 H 486.859 1.82012 0.951876 0
M  V30 5203 H 485.089 1.6434 3.50042 0
M  V30 5204 H 486.778 2.06224 3.49609 0
M  V30 5205 H 487.544 4.25428 2.32886 0
M  V30 5206 H 483.423 3.35462 3.16206 0
M  V30 5207 H 486.967 6.64591 2.12049 0
M  V30 5208 H 482.864 5.73785 2.95704 0
M  V30 5209 H 483.632 7.77499 2.55807 0
M  V30 5210 N 486.295 -0.989507 1.22664 0
M  V30 5211 C 487.52 -1.77031 1.08051 0
M  V30 5212 C 487.945 -1.84535 -0.364483 0
M  V30 5213 O 487.303 -1.3003 -1.2634 0
M  V30 5214 C 487.351 -3.18 1.70024 0
M  V30 5215 O 486.455 -4.01161 0.956216 0
M  V30 5216 H 485.796 -0.545008 0.379292 0
M  V30 5217 H 488.326 -1.24277 1.62531 0
M  V30 5218 H 488.336 -3.68616 1.74888 0
M  V30 5219 H 487.011 -3.11853 2.75174 0
M  V30 5220 H 485.588 -3.59687 0.98384 0
M  V30 5221 N 487.773 -1.03688 -1.18687 0
M  V30 5222 C 488.683 -0.634908 -2.25845 0
M  V30 5223 C 489.699 0.337065 -1.70704 0
M  V30 5224 O 490.875 0.192943 -2.00474 0
M  V30 5225 C 487.94 -0.000180054 -3.467 0
M  V30 5226 C 487.001 -1.02067 -4.1699 0
M  V30 5227 C 486.234 -0.41614 -5.32075 0
M  V30 5228 O 486.457 0.778712 -5.65059 0
M  V30 5229 O 485.391 -1.14296 -5.90948 0
M  V30 5230 H 489.217 -1.52757 -2.62486 0
M  V30 5231 H 486.802 -0.807533 -1.25695 0
M  V30 5232 H 488.684 0.353342 -4.19916 0
M  V30 5233 H 487.359 0.866367 -3.11891 0
M  V30 5234 H 486.266 -1.42592 -3.45859 0
M  V30 5235 H 487.599 -1.85786 -4.5579 0
M  V30 5236 N 489.251 1.34841 -0.815825 0
M  V30 5237 C 490.199 2.31549 -0.220888 0
M  V30 5238 C 491.193 1.5707 0.634457 0
M  V30 5239 O 492.399 1.72125 0.526589 0
M  V30 5240 H 488.774 0.750153 -0.0526782 0
M  V30 5241 H 490.745 2.7926 -1.05149 0
M  V30 5242 C 489.494 3.42335 0.608427 0
M  V30 5243 H 488.817 3.9978 -0.0404121 0
M  V30 5244 H 490.257 4.12258 0.990931 0
M  V30 5245 C 488.716 2.86173 1.77782 0
M  V30 5246 O 489.246 2.80474 2.87571 0
M  V30 5247 N 487.452 2.43093 1.59229 0
M  V30 5248 H 486.999 2.47928 0.699237 0
M  V30 5249 H 486.957 2.05866 2.37627 0
M  V30 5250 N 490.729 0.570148 1.46925 0
M  V30 5251 C 491.692 -0.159933 2.28641 0
M  V30 5252 C 492.692 -0.830638 1.37685 0
M  V30 5253 O 493.882 -0.684516 1.60187 0
M  V30 5254 C 491.014 -1.2354 3.17727 0
M  V30 5255 H 492.207 0.558035 2.94662 0
M  V30 5256 H 489.76 0.327603 1.52828 0
M  V30 5257 H 490.495 -1.98535 2.56426 0
M  V30 5258 H 490.28 -0.759125 3.84681 0
M  V30 5259 H 491.77 -1.74782 3.79264 0
M  V30 5260 N 492.207 -1.54576 0.307264 0
M  V30 5261 C 493.484 -1.92377 -0.353605 0
M  V30 5262 C 493.864 -1.23517 -1.71192 0
M  V30 5263 O 493.212 -0.373101 -2.25433 0
M  V30 5264 C 493.422 -3.45928 -0.462039 0
M  V30 5265 C 494.77 -4.18278 -0.729975 0
M  V30 5266 O 495.794 -3.51997 -0.545605 0
M  V30 5267 O 494.653 -5.3563 -1.08454 0
M  V30 5268 H 491.747 -0.802747 -0.198812 0
M  V30 5269 H 494.293 -1.65929 0.355783 0
M  V30 5270 H 493.065 -3.88187 0.492592 0
M  V30 5271 H 492.688 -3.78431 -1.21965 0
M  V30 5272 N 493.685 -0.035106 -1.57561 0
M  V30 5273 C 494.932 0.642229 -1.92046 0
M  V30 5274 C 495.26 1.7179 -0.91206 0
M  V30 5275 O 494.515 1.95544 0.0781153 0
M  V30 5276 C 494.814 1.29149 -3.3325 0
M  V30 5277 C 494.48 0.345604 -4.49574 0
M  V30 5278 C 493.142 0.0852775 -4.81124 0
M  V30 5279 C 495.494 -0.303569 -5.20315 0
M  V30 5280 C 492.822 -0.831927 -5.80772 0
M  V30 5281 C 495.174 -1.20886 -6.20942 0
M  V30 5282 C 493.838 -1.47802 -6.50931 0
M  V30 5283 H 493.108 0.235008 -0.702746 0
M  V30 5284 H 495.755 -0.0981529 -1.91248 0
M  V30 5285 H 494.06 2.10676 -3.30337 0
M  V30 5286 H 495.757 1.82223 -3.57205 0
M  V30 5287 H 492.347 0.558683 -4.24943 0
M  V30 5288 H 496.531 -0.115515 -4.96166 0
M  V30 5289 H 491.787 -1.0481 -6.02349 0
M  V30 5290 H 495.961 -1.71804 -6.74875 0
M  V30 5291 H 493.588 -2.19039 -7.2796 0
M  V30 5292 N 495.163 1.55791 0.238111 0
M  V30 5293 C 496.388 1.8244 0.986432 0
M  V30 5294 C 496.813 0.613314 1.7782 0
M  V30 5295 O 496.171 -0.437767 1.75935 0
M  V30 5296 C 496.219 3.06917 1.893 0
M  V30 5297 O 495.323 2.84449 2.98601 0
M  V30 5298 H 494.664 0.601975 0.280218 0
M  V30 5299 H 497.194 2.02987 0.256437 0
M  V30 5300 H 497.204 3.36583 2.30598 0
M  V30 5301 H 495.879 3.947 1.31091 0
M  V30 5302 H 494.456 2.65972 2.61368 0
M  V30 5303 N 496.642 -0.504142 1.49319 0
M  V30 5304 C 497.89 -1.25598 1.58334 0
M  V30 5305 C 498.211 -1.93114 0.270538 0
M  V30 5306 O 497.481 -1.82585 -0.709891 0
M  V30 5307 H 496.061 -0.466571 0.58337 0
M  V30 5308 H 498.723 -0.584547 1.85928 0
M  V30 5309 H 497.819 -2.02159 2.37778 0
M  V30 5310 N 498.12 -1.38341 -0.754957 0
M  V30 5311 C 499.05 -1.38176 -1.88227 0
M  V30 5312 C 500.031 -0.247873 -1.68284 0
M  V30 5313 O 501.216 -0.45075 -1.88896 0
M  V30 5314 C 498.346 -1.20471 -3.25736 0
M  V30 5315 C 497.3 -2.3105 -3.60278 0
M  V30 5316 C 496.626 -1.98452 -4.96509 0
M  V30 5317 C 497.926 -3.73305 -3.65295 0
M  V30 5318 H 499.62 -2.32512 -1.88622 0
M  V30 5319 H 497.166 -1.1192 -0.906082 0
M  V30 5320 H 499.119 -1.18982 -4.04254 0
M  V30 5321 H 497.843 -0.225965 -3.25817 0
M  V30 5322 H 496.502 -2.31723 -2.84078 0
M  V30 5323 H 496.15 -0.990641 -4.93148 0
M  V30 5324 H 495.85 -2.7251 -5.20588 0
M  V30 5325 H 497.374 -1.98578 -5.77407 0
M  V30 5326 H 498.788 -3.7467 -4.3393 0
M  V30 5327 H 497.185 -4.46557 -4.00883 0
M  V30 5328 H 498.255 -4.05719 -2.65556 0
M  V30 5329 N 499.598 0.982988 -1.23187 0
M  V30 5330 C 500.826 1.75921 -1.08901 0
M  V30 5331 C 501.241 1.85341 0.359719 0
M  V30 5332 O 500.598 1.33072 1.24892 0
M  V30 5333 C 500.649 3.18742 -1.70545 0
M  V30 5334 O 500.37 3.09814 -3.09753 0
M  V30 5335 C 501.871 4.1277 -1.61667 0
M  V30 5336 H 499.091 0.552166 -0.381252 0
M  V30 5337 H 501.635 1.23516 -1.62985 0
M  V30 5338 H 499.79 3.68182 -1.20501 0
M  V30 5339 H 500.204 3.99703 -3.39614 0
M  V30 5340 H 501.678 5.10697 -2.09506 0
M  V30 5341 H 502.155 4.3542 -0.575009 0
M  V30 5342 H 502.761 3.69232 -2.11064 0
M  V30 5343 N 501.076 1.04316 1.18135 0
M  V30 5344 C 501.986 0.646876 2.25505 0
M  V30 5345 C 503.002 -0.328008 1.7088 0
M  V30 5346 O 504.178 -0.182309 2.00573 0
M  V30 5347 C 501.243 0.0185664 3.46695 0
M  V30 5348 C 500.304 1.04277 4.16443 0
M  V30 5349 C 499.537 0.444352 5.31847 0
M  V30 5350 O 499.76 -0.748735 5.65465 0
M  V30 5351 O 498.694 1.17428 5.90334 0
M  V30 5352 H 502.52 1.54147 2.61672 0
M  V30 5353 H 500.105 0.814188 1.25265 0
M  V30 5354 H 501.987 -0.331068 4.20097 0
M  V30 5355 H 500.662 -0.849814 3.12346 0
M  V30 5356 H 499.569 1.44425 3.45098 0
M  V30 5357 H 500.902 1.882 4.54798 0
M  V30 5358 N 502.554 -1.34406 0.822964 0
M  V30 5359 C 503.831 -1.92733 0.333641 0
M  V30 5360 C 504.211 -1.75107 -1.17901 0
M  V30 5361 O 503.559 -1.12983 -1.98613 0
M  V30 5362 C 503.769 -3.40557 0.763023 0
M  V30 5363 C 505.117 -4.17709 0.761879 0
M  V30 5364 O 506.141 -3.49141 0.705606 0
M  V30 5365 O 505 -5.40082 0.835109 0
M  V30 5366 H 502.094 -0.821964 0.0911249 0
M  V30 5367 H 504.64 -1.4338 0.907757 0
M  V30 5368 H 503.412 -3.47187 1.8049 0
M  V30 5369 H 503.035 -3.97259 0.164605 0
M  V30 5370 N 504.032 -0.577932 -1.46621 0
M  V30 5371 C 504.98 0.170882 -2.31971 0
M  V30 5372 C 505.974 0.889086 -1.44193 0
M  V30 5373 O 507.18 0.808017 -1.60845 0
M  V30 5374 H 503.555 0.0739763 -0.748353 0
M  V30 5375 H 505.526 -0.567856 -2.92947 0
M  V30 5376 C 504.275 1.17438 -3.27267 0
M  V30 5377 H 503.598 0.63116 -3.94787 0
M  V30 5378 H 505.038 1.66882 -3.89778 0
M  V30 5379 C 503.497 2.23292 -2.52274 0
M  V30 5380 O 504.027 3.30567 -2.28229 0
M  V30 5381 N 502.233 1.97772 -2.12919 0
M  V30 5382 H 501.78 1.10545 -2.32675 0
M  V30 5383 H 501.738 2.68809 -1.63062 0
M  V30 5384 N 505.51 1.54411 -0.315457 0
M  V30 5385 C 506.758 2.00023 0.288971 0
M  V30 5386 C 507.079 1.20529 1.5329 0
M  V30 5387 O 506.349 0.304986 1.93511 0
M  V30 5388 H 504.929 0.738891 0.109766 0
M  V30 5389 H 507.591 1.90094 -0.430129 0
M  V30 5390 H 506.687 3.07198 0.550999 0
M  V30 5391 N 506.988 0.0434614 1.5754 0
M  V30 5392 C 507.918 -0.931651 2.14109 0
M  V30 5393 C 508.899 -1.32971 1.06079 0
M  V30 5394 O 510.084 -1.40579 1.33982 0
M  V30 5395 C 507.214 -2.20914 2.67982 0
M  V30 5396 C 506.168 -1.95139 3.80926 0
M  V30 5397 C 505.494 -3.29276 4.21285 0
M  V30 5398 C 506.794 -1.27913 5.06395 0
M  V30 5399 H 508.488 -0.460497 2.95837 0
M  V30 5400 H 506.034 -0.220058 1.42309 0
M  V30 5401 H 507.987 -2.89522 3.06194 0
M  V30 5402 H 506.711 -2.70221 1.83434 0
M  V30 5403 H 505.37 -1.28945 3.43175 0
M  V30 5404 H 505.018 -3.76369 3.33699 0
M  V30 5405 H 504.718 -3.12831 4.97404 0
M  V30 5406 H 506.242 -3.99129 4.62091 0
M  V30 5407 H 507.656 -1.86544 5.42102 0
M  V30 5408 H 506.053 -1.2182 5.87605 0
M  V30 5409 H 507.123 -0.254066 4.84234 0
M  V30 5410 N 508.466 -1.55915 -0.229846 0
M  V30 5411 C 509.413 -1.91734 -1.28478 0
M  V30 5412 C 510.383 -0.773539 -1.46988 0
M  V30 5413 O 511.568 -1.02871 -1.60693 0
M  V30 5414 C 508.708 -2.23224 -2.63182 0
M  V30 5415 C 507.821 -3.50497 -2.52539 0
M  V30 5416 C 506.956 -3.71474 -3.79711 0
M  V30 5417 C 505.995 -4.92289 -3.63755 0
M  V30 5418 N 505.132 -5.09698 -4.82858 0
M  V30 5419 H 509.972 -2.81692 -0.972308 0
M  V30 5420 H 507.509 -1.39429 -0.468815 0
M  V30 5421 H 509.467 -2.3949 -3.41614 0
M  V30 5422 H 508.097 -1.36451 -2.92542 0
M  V30 5423 H 507.149 -3.4247 -1.65585 0
M  V30 5424 H 508.461 -4.39079 -2.36666 0
M  V30 5425 H 507.615 -3.87791 -4.66586 0
M  V30 5426 H 506.354 -2.81157 -3.985 0
M  V30 5427 H 505.359 -4.7593 -2.75264 0
M  V30 5428 H 506.584 -5.84083 -3.46445 0
M  V30 5429 H 504.53 -4.22322 -5.01976 0
M  V30 5430 H 504.447 -5.92399 -4.69681 0
M  V30 5431 H 505.715 -5.30443 -5.71183 0
M  V30 5432 N 509.944 0.496216 -1.49584 0
M  V30 5433 C 510.874 1.60576 -1.69521 0
M  V30 5434 C 511.855 1.61169 -0.543933 0
M  V30 5435 O 513.04 1.77834 -0.78031 0
M  V30 5436 C 510.17 2.99038 -1.76616 0
M  V30 5437 C 509.124 3.13312 -2.91581 0
M  V30 5438 C 508.45 4.53172 -2.83794 0
M  V30 5439 C 509.75 2.92886 -4.32452 0
M  V30 5440 H 511.444 1.44146 -2.62416 0
M  V30 5441 H 508.99 0.692024 -1.26282 0
M  V30 5442 H 510.943 3.76564 -1.8915 0
M  V30 5443 H 509.667 3.16568 -0.80324 0
M  V30 5444 H 508.326 2.38213 -2.78658 0
M  V30 5445 H 507.974 4.67585 -1.854 0
M  V30 5446 H 507.674 4.63662 -3.60958 0
M  V30 5447 H 509.198 5.32752 -2.98342 0
M  V30 5448 H 510.612 3.60178 -4.46032 0
M  V30 5449 H 509.009 3.14844 -5.10875 0
M  V30 5450 H 510.079 1.88966 -4.46565 0
M  V30 5451 N 511.423 1.38739 0.74761 0
M  V30 5452 C 512.648 1.38702 1.54197 0
M  V30 5453 C 513.073 -0.019664 1.8809 0
M  V30 5454 O 512.431 -1.00333 1.51006 0
M  V30 5455 C 512.479 2.25492 2.814 0
M  V30 5456 O 511.583 1.67613 3.76802 0
M  V30 5457 H 510.924 0.472863 0.466151 0
M  V30 5458 H 513.454 1.82577 0.923413 0
M  V30 5459 H 513.464 2.39561 3.30264 0
M  V30 5460 H 512.139 3.27727 2.56062 0
M  V30 5461 H 510.716 1.62718 3.35526 0
M  V30 5462 N 512.901 -0.976442 1.23707 0
M  V30 5463 C 513.849 -2.09078 1.01927 0
M  V30 5464 C 514.843 -1.69345 -0.0430193 0
M  V30 5465 O 516.049 -1.79659 0.110814 0
M  V30 5466 H 512.424 -0.68398 0.312531 0
M  V30 5467 H 514.395 -2.24614 1.96447 0
M  V30 5468 C 513.144 -3.41919 0.631385 0
M  V30 5469 H 512.467 -3.72946 1.44053 0
M  V30 5470 H 513.907 -4.20817 0.518532 0
M  V30 5471 C 512.366 -3.30357 -0.660723 0
M  V30 5472 O 512.896 -3.63542 -1.70881 0
M  V30 5473 N 511.102 -2.83507 -0.638139 0
M  V30 5474 H 510.649 -2.567 0.215108 0
M  V30 5475 H 510.607 -2.76153 -1.50289 0
M  V30 5476 N 514.379 -1.04941 -1.1758 0
M  V30 5477 C 515.342 -0.652456 -2.19717 0
M  V30 5478 C 516.342 0.294745 -1.58076 0
M  V30 5479 O 517.532 0.0789579 -1.74021 0
M  V30 5480 C 514.664 0.0420712 -3.40874 0
M  V30 5481 H 515.857 -1.55642 -2.5635 0
M  V30 5482 H 513.41 -0.842995 -1.31618 0
M  V30 5483 H 514.145 0.95943 -3.09783 0
M  V30 5484 H 513.93 -0.638844 -3.86861 0
M  V30 5485 H 515.42 0.306 -4.16477 0
M  V30 5486 N 515.857 1.33968 -0.830081 0
M  V30 5487 C 516.82 2.27694 -0.26235 0
M  V30 5488 C 517.82 1.50589 0.563876 0
M  V30 5489 O 519.01 1.70028 0.378941 0
M  V30 5490 C 516.142 3.35002 0.63138 0
M  V30 5491 H 517.335 2.79419 -1.08928 0
M  V30 5492 H 514.888 1.44221 -0.602486 0
M  V30 5493 H 515.623 2.88504 1.48109 0
M  V30 5494 H 515.408 3.92079 0.0403276 0
M  V30 5495 H 516.898 4.04897 1.02217 0
M  V30 5496 N 517.335 0.585699 1.46312 0
M  V30 5497 C 518.285 -0.166813 2.27389 0
M  V30 5498 C 519.269 -0.859076 1.36047 0
M  V30 5499 O 520.461 -0.752678 1.60199 0
M  V30 5500 C 517.59 -1.17791 3.2246 0
M  V30 5501 C 516.676 -0.487605 4.21288 0
M  V30 5502 N 517.067 0.45849 5.03718 0
M  V30 5503 C 515.365 -0.737971 4.39852 0
M  V30 5504 C 516.066 0.862213 5.75275 0
M  V30 5505 N 515.042 0.210707 5.43191 0
M  V30 5506 H 518.844 0.560167 2.88512 0
M  V30 5507 H 516.358 0.407715 1.57199 0
M  V30 5508 H 518.355 -1.73122 3.79255 0
M  V30 5509 H 517.015 -1.90568 2.62896 0
M  V30 5510 H 518.026 0.834163 5.11138 0
M  V30 5511 H 514.703 -1.45209 3.91434 0
M  V30 5512 H 516.093 1.64128 6.51546 0
M  V30 5513 N 518.813 -1.54241 0.323641 0
M  V30 5514 C 519.76 -2.24339 -0.542277 0
M  V30 5515 C 520.73 -1.23421 -1.11159 0
M  V30 5516 O 521.915 -1.52104 -1.15192 0
M  V30 5517 C 519.055 -3.00479 -1.69725 0
M  V30 5518 C 518.168 -4.16214 -1.15716 0
M  V30 5519 C 517.303 -4.79884 -2.27783 0
M  V30 5520 C 516.342 -5.87722 -1.71023 0
M  V30 5521 N 515.479 -6.45254 -2.76752 0
M  V30 5522 H 520.319 -2.97935 0.0620613 0
M  V30 5523 H 517.856 -1.47039 0.0423993 0
M  V30 5524 H 519.814 -3.42869 -2.3769 0
M  V30 5525 H 518.444 -2.29217 -2.27288 0
M  V30 5526 H 517.496 -3.78605 -0.369063 0
M  V30 5527 H 518.808 -4.93838 -0.701832 0
M  V30 5528 H 517.962 -5.25243 -3.03651 0
M  V30 5529 H 516.701 -4.01641 -2.76652 0
M  V30 5530 H 515.706 -5.41765 -0.936518 0
M  V30 5531 H 516.931 -6.67863 -1.2303 0
M  V30 5532 H 514.877 -5.69884 -3.24912 0
M  V30 5533 H 514.794 -7.18292 -2.35782 0
M  V30 5534 H 516.062 -6.95269 -3.5245 0
M  V30 5535 N 520.291 -0.0518155 -1.57515 0
M  V30 5536 C 521.254 0.907547 -2.10467 0
M  V30 5537 C 522.254 1.23947 -1.02439 0
M  V30 5538 O 523.444 1.17604 -1.2851 0
M  V30 5539 C 520.576 2.21723 -2.58944 0
M  V30 5540 H 521.769 0.44851 -2.96527 0
M  V30 5541 H 519.322 0.196598 -1.55059 0
M  V30 5542 H 520.057 2.72206 -1.76279 0
M  V30 5543 H 519.842 1.98935 -3.37886 0
M  V30 5544 H 521.332 2.90441 -3.00056 0
M  V30 5545 N 521.769 1.56035 0.221574 0
M  V30 5546 C 523.015 1.79312 0.947372 0
M  V30 5547 C 523.348 0.621453 1.83988 0
M  V30 5548 O 522.623 -0.379287 1.90766 0
M  V30 5549 C 522.906 3.1267 1.78633 0
M  V30 5550 C 522.759 4.40284 0.920312 0
M  V30 5551 C 524.078 3.4247 2.7641 0
M  V30 5552 H 521.197 0.652328 0.342982 0
M  V30 5553 H 523.839 1.88765 0.216244 0
M  V30 5554 H 521.989 3.04741 2.40967 0
M  V30 5555 H 523.661 4.60232 0.313718 0
M  V30 5556 H 521.904 4.33212 0.225734 0
M  V30 5557 H 522.575 5.30033 1.54171 0
M  V30 5558 H 525.051 3.50526 2.24211 0
M  V30 5559 H 523.927 4.3695 3.32213 0
M  V30 5560 H 524.188 2.64635 3.54148 0
M  V30 5561 N 523.247 -0.488276 1.49845 0
M  V30 5562 C 524.177 -1.59675 1.70371 0
M  V30 5563 C 525.158 -1.60878 0.552473 0
M  V30 5564 O 526.343 -1.77417 0.78973 0
M  V30 5565 C 523.473 -2.98098 1.782 0
M  V30 5566 C 522.427 -3.11761 2.93239 0
M  V30 5567 C 521.753 -4.51661 2.86193 0
M  V30 5568 C 523.053 -2.90589 4.33999 0
M  V30 5569 H 524.747 -1.42752 2.63177 0
M  V30 5570 H 522.293 -0.685317 1.26647 0
M  V30 5571 H 524.246 -3.75555 1.91144 0
M  V30 5572 H 522.97 -3.16138 0.820018 0
M  V30 5573 H 521.629 -2.36732 2.79917 0
M  V30 5574 H 521.277 -4.66595 1.87877 0
M  V30 5575 H 520.977 -4.61742 3.63412 0
M  V30 5576 H 522.501 -5.31162 3.01163 0
M  V30 5577 H 523.915 -3.57807 4.47936 0
M  V30 5578 H 522.312 -3.1213 5.12538 0
M  V30 5579 H 523.382 -1.86595 4.4756 0
M  V30 5580 N 524.725 -1.39134 -0.740242 0
M  V30 5581 C 525.675 -1.33928 -1.84519 0
M  V30 5582 C 526.659 -0.221097 -1.59374 0
M  V30 5583 O 527.851 -0.458195 -1.70967 0
M  V30 5584 C 524.98 -1.17991 -3.22387 0
M  V30 5585 C 524.066 -2.34488 -3.53378 0
M  V30 5586 N 524.457 -3.59954 -3.5534 0
M  V30 5587 C 522.755 -2.27331 -3.83714 0
M  V30 5588 C 523.456 -4.36962 -3.83978 0
M  V30 5589 N 522.432 -3.66482 -4.01487 0
M  V30 5590 H 526.234 -2.28907 -1.84333 0
M  V30 5591 H 523.748 -1.32555 -0.938237 0
M  V30 5592 H 525.745 -1.12345 -4.01478 0
M  V30 5593 H 524.405 -0.23957 -3.23815 0
M  V30 5594 H 525.416 -3.93448 -3.36778 0
M  V30 5595 H 522.093 -1.41531 -3.92779 0
M  V30 5596 H 523.483 -5.45692 -3.92008 0
M  V30 5597 N 526.204 0.969867 -1.24223 0
M  V30 5598 C 527.453 1.70687 -1.07466 0
M  V30 5599 C 527.766 1.91736 0.386861 0
M  V30 5600 O 528.972 2.62986 0.674581 0
M  V30 5601 C 527.428 3.07217 -1.87472 0
M  V30 5602 C 527.036 2.94018 -3.3802 0
M  V30 5603 C 528.78 3.84804 -1.79237 0
M  V30 5604 C 526.687 4.25844 -4.10379 0
M  V30 5605 H 525.617 0.640067 -0.398536 0
M  V30 5606 H 528.268 1.08092 -1.48285 0
M  V30 5607 H 526.65 3.70628 -1.39466 0
M  V30 5608 H 527.824 2.39632 -3.9359 0
M  V30 5609 H 526.139 2.29898 -3.47183 0
M  V30 5610 H 528.736 4.82417 -2.30603 0
M  V30 5611 H 529.079 4.09356 -0.757197 0
M  V30 5612 H 529.612 3.28115 -2.24912 0
M  V30 5613 H 526.351 4.06486 -5.14246 0
M  V30 5614 H 525.871 4.80054 -3.59594 0
M  V30 5615 H 527.55 4.94475 -4.17257 0
M  V30 5616 N 527.682 1.05563 1.17022 0
M  V30 5617 C 528.93 0.76642 1.87004 0
M  V30 5618 C 529.251 -0.708854 1.8166 0
M  V30 5619 O 528.521 -1.51242 1.2451 0
M  V30 5620 H 527.101 0.280516 0.692329 0
M  V30 5621 H 529.763 1.33557 1.41945 0
M  V30 5622 H 528.859 1.08472 2.92644 0
M  V30 5623 N 529.16 -1.33526 0.837174 0
M  V30 5624 C 530.07 -2.33023 0.271568 0
M  V30 5625 C 531.086 -1.63272 -0.601514 0
M  V30 5626 O 532.262 -1.94939 -0.506038 0
M  V30 5627 C 529.327 -3.42382 -0.545448 0
M  V30 5628 C 528.388 -4.27857 0.351709 0
M  V30 5629 C 527.621 -5.31994 -0.426409 0
M  V30 5630 O 527.844 -5.45763 -1.65828 0
M  V30 5631 O 526.778 -6.01572 0.1987 0
M  V30 5632 H 530.604 -2.83256 1.09545 0
M  V30 5633 H 528.189 -1.36837 0.599655 0
M  V30 5634 H 530.071 -4.09122 -1.00979 0
M  V30 5635 H 528.746 -2.94369 -1.34641 0
M  V30 5636 H 527.653 -3.6399 0.863853 0
M  V30 5637 H 528.986 -4.79349 1.1174 0
M  V30 5638 N 530.638 -0.59345 -1.46 0
M  V30 5639 C 531.585 0.133618 -2.30413 0
M  V30 5640 C 532.555 0.873736 -1.41262 0
M  V30 5641 O 533.74 0.862279 -1.70204 0
M  V30 5642 C 530.88 1.13434 -3.25924 0
M  V30 5643 C 529.993 0.39656 -4.30176 0
M  V30 5644 C 529.128 1.38575 -5.12806 0
M  V30 5645 C 528.167 0.634984 -6.08797 0
M  V30 5646 N 527.304 1.57276 -6.84258 0
M  V30 5647 H 532.144 -0.592252 -2.92055 0
M  V30 5648 H 529.681 -0.303874 -1.43927 0
M  V30 5649 H 531.639 1.72752 -3.79753 0
M  V30 5650 H 530.269 1.82779 -2.66067 0
M  V30 5651 H 529.321 -0.311861 -3.79119 0
M  V30 5652 H 530.633 -0.189869 -4.98438 0
M  V30 5653 H 529.787 2.05141 -5.70966 0
M  V30 5654 H 528.526 2.00611 -4.44529 0
M  V30 5655 H 527.531 -0.0443925 -5.49782 0
M  V30 5656 H 528.756 0.0198678 -6.79097 0
M  V30 5657 H 526.702 2.18103 -6.18682 0
M  V30 5658 H 526.619 1.03941 -7.48821 0
M  V30 5659 H 527.887 2.22844 -7.46968 0
M  V30 5660 N 532.116 1.54067 -0.331816 0
M  V30 5661 C 533.364 2.00319 0.267739 0
M  V30 5662 C 533.685 1.22148 1.52003 0
M  V30 5663 O 532.955 0.325494 1.93177 0
M  V30 5664 H 531.535 0.740014 0.101922 0
M  V30 5665 H 534.197 1.89628 -0.450267 0
M  V30 5666 H 533.293 3.07765 0.518385 0
M  V30 5667 N 533.594 0.0601682 1.57485 0
M  V30 5668 C 534.822 -0.620937 1.97363 0
M  V30 5669 C 535.237 -1.63846 0.938082 0
M  V30 5670 O 534.594 -1.82339 -0.0766578 0
M  V30 5671 C 534.645 -1.29987 3.37321 0
M  V30 5672 O 534.366 -0.323081 4.36907 0
M  V30 5673 C 535.867 -2.06989 3.92008 0
M  V30 5674 H 533.087 -0.169135 0.649334 0
M  V30 5675 H 535.631 0.129132 2.04092 0
M  V30 5676 H 533.786 -2.0011 3.31715 0
M  V30 5677 H 534.2 -0.808754 5.18227 0
M  V30 5678 H 535.674 -2.49901 4.92192 0
M  V30 5679 H 536.151 -2.92173 3.2792 0
M  V30 5680 H 536.757 -1.41757 4.0098 0
M  V30 5681 N 535.072 -1.5615 -0.213296 0
M  V30 5682 C 535.982 -1.96265 -1.28519 0
M  V30 5683 C 536.998 -0.86765 -1.50824 0
M  V30 5684 O 538.174 -1.17191 -1.63793 0
M  V30 5685 C 535.239 -2.27836 -2.61327 0
M  V30 5686 C 534.3 -3.50949 -2.47252 0
M  V30 5687 C 533.533 -3.81004 -3.73727 0
M  V30 5688 O 533.756 -3.12612 -4.77106 0
M  V30 5689 O 532.69 -4.74477 -3.70344 0
M  V30 5690 H 536.516 -2.87631 -0.974795 0
M  V30 5691 H 534.101 -1.43467 -0.416832 0
M  V30 5692 H 535.983 -2.49299 -3.39747 0
M  V30 5693 H 534.658 -1.39643 -2.9203 0
M  V30 5694 H 533.565 -3.34754 -1.67004 0
M  V30 5695 H 534.898 -4.39551 -2.21486 0
M  V30 5696 N 536.55 0.480323 -1.50102 0
M  V30 5697 C 537.513 1.56181 -1.6775 0
M  V30 5698 C 538.513 1.51156 -0.548503 0
M  V30 5699 O 539.703 1.5394 -0.815363 0
M  V30 5700 C 536.835 2.95823 -1.69415 0
M  V30 5701 H 538.028 1.41855 -2.6423 0
M  V30 5702 H 535.581 0.70605 -1.39444 0
M  V30 5703 H 536.316 3.15604 -0.745948 0
M  V30 5704 H 536.101 3.00878 -2.51425 0
M  V30 5705 H 537.591 3.74359 -1.85054 0
M  V30 5706 N 538.028 1.39524 0.732853 0
M  V30 5707 C 538.991 1.38189 1.82857 0
M  V30 5708 C 539.991 0.278624 1.58368 0
M  V30 5709 O 541.181 0.536639 1.65728 0
M  V30 5710 C 538.313 1.15661 3.2068 0
M  V30 5711 H 539.506 2.35692 1.85444 0
M  V30 5712 H 537.059 1.2512 0.936728 0
M  V30 5713 H 537.794 0.188482 3.23752 0
M  V30 5714 H 537.579 1.95559 3.39852 0
M  V30 5715 H 539.069 1.17472 4.00737 0
M  V30 5716 N 539.506 -0.963266 1.24736 0
M  V30 5717 C 540.469 -2.04013 1.04457 0
M  V30 5718 C 541.469 -1.608 0.000335555 0
M  V30 5719 O 542.659 -1.72515 0.241719 0
M  V30 5720 C 539.791 -3.35858 0.584162 0
M  V30 5721 H 540.984 -2.23436 2.00041 0
M  V30 5722 H 538.537 -1.13914 1.07021 0
M  V30 5723 H 539.272 -3.22128 -0.374673 0
M  V30 5724 H 539.057 -3.68568 1.3379 0
M  V30 5725 H 540.547 -4.1502 0.463451 0
M  V30 5726 N 540.985 -1.06182 -1.16461 0
M  V30 5727 C 542.231 -0.779015 -1.87241 0
M  V30 5728 C 542.564 0.692715 -1.81425 0
M  V30 5729 O 541.839 1.5074 -1.22913 0
M  V30 5730 C 542.122 -1.2728 -3.36856 0
M  V30 5731 C 541.975 -2.80821 -3.51368 0
M  V30 5732 C 543.294 -0.879799 -4.31216 0
M  V30 5733 H 540.413 -0.284464 -0.679889 0
M  V30 5734 H 543.055 -1.31755 -1.36896 0
M  V30 5735 H 541.205 -0.814673 -3.79862 0
M  V30 5736 H 542.877 -3.34833 -3.17308 0
M  V30 5737 H 541.12 -3.19606 -2.93316 0
M  V30 5738 H 541.791 -3.10435 -4.56436 0
M  V30 5739 H 544.267 -1.27436 -3.96105 0
M  V30 5740 H 543.143 -1.25278 -5.34412 0
M  V30 5741 H 543.404 0.215372 -4.41575 0
M  V30 5742 N 542.463 1.3308 -0.844243 0
M  V30 5743 C 543.874 1.7992 -0.498566 0
M  V30 5744 C 544.225 1.69808 0.982834 0
M  V30 5745 O 543.35 1.25051 1.7661 0
M  V30 5746 C 543.945 3.26677 -0.898204 0
M  V30 5747 C 542.504 3.71513 -0.604583 0
M  V30 5748 C 541.651 2.54393 -1.10362 0
M  V30 5749 H 544.602 1.20526 -1.03244 0
M  V30 5750 H 544.623 3.79918 -0.21039 0
M  V30 5751 H 544.135 3.34004 -1.97643 0
M  V30 5752 H 542.236 3.69708 0.46335 0
M  V30 5753 H 542.349 4.64755 -1.16358 0
M  V30 5754 H 540.713 2.49246 -0.524273 0
M  V30 5755 H 541.496 2.6448 -2.18873 0
M  V30 5756 N 543.941 0.601185 1.45683 0
M  V30 5757 C 544.851 -0.123395 2.34275 0
M  V30 5758 C 545.867 -0.86702 1.5086 0
M  V30 5759 O 547.043 -0.826049 1.8368 0
M  V30 5760 C 544.108 -1.11237 3.2837 0
M  V30 5761 C 543.169 -0.371405 4.2769 0
M  V30 5762 C 542.402 -1.31327 5.1729 0
M  V30 5763 O 542.625 -2.55078 5.10188 0
M  V30 5764 O 541.559 -0.813811 5.96373 0
M  V30 5765 H 545.385 0.604483 2.97623 0
M  V30 5766 H 542.97 0.361477 1.44961 0
M  V30 5767 H 544.852 -1.68214 3.8637 0
M  V30 5768 H 543.527 -1.82139 2.67595 0
M  V30 5769 H 542.434 0.24067 3.73325 0
M  V30 5770 H 543.767 0.296998 4.91303 0
M  V30 5771 N 545.419 -1.53889 0.339982 0
M  V30 5772 C 546.665 -2.01152 -0.258003 0
M  V30 5773 C 546.998 -1.22749 -1.50487 0
M  V30 5774 O 546.273 -0.314156 -1.91946 0
M  V30 5775 C 546.556 -3.55468 -0.575717 0
M  V30 5776 C 546.409 -4.44584 0.682996 0
M  V30 5777 C 547.728 -4.1768 -1.38677 0
M  V30 5778 H 544.847 -0.731198 -0.0922992 0
M  V30 5779 H 547.489 -1.84352 0.459814 0
M  V30 5780 H 545.639 -3.69914 -1.18725 0
M  V30 5781 H 547.311 -4.41981 1.32102 0
M  V30 5782 H 545.554 -4.13592 1.3086 0
M  V30 5783 H 546.225 -5.5043 0.416001 0
M  V30 5784 H 548.701 -4.0691 -0.869705 0
M  V30 5785 H 547.577 -5.25734 -1.57783 0
M  V30 5786 H 547.838 -3.72069 -2.38782 0
M  V30 5787 N 546.897 -0.0685191 -1.57451 0
M  V30 5788 C 547.807 0.914677 -2.16034 0
M  V30 5789 C 548.823 1.32938 -1.12265 0
M  V30 5790 O 549.999 1.40275 -1.44516 0
M  V30 5791 C 547.064 2.16519 -2.70777 0
M  V30 5792 C 546.125 1.80721 -3.89408 0
M  V30 5793 C 545.358 2.9981 -4.41531 0
M  V30 5794 O 545.581 4.13727 -3.92666 0
M  V30 5795 O 544.515 2.79817 -5.32903 0
M  V30 5796 H 548.341 0.446364 -3.00402 0
M  V30 5797 H 545.926 0.154367 -1.486 0
M  V30 5798 H 547.808 2.89856 -3.05878 0
M  V30 5799 H 546.483 2.62454 -1.89471 0
M  V30 5800 H 545.39 1.04646 -3.59166 0
M  V30 5801 H 546.723 1.39571 -4.71997 0
M  V30 5802 N 548.375 1.56261 0.205012 0
M  V30 5803 C 549.305 1.96779 1.257 0
M  V30 5804 C 550.286 0.838309 1.48008 0
M  V30 5805 O 551.471 1.10189 1.59913 0
M  V30 5806 C 548.601 2.29876 2.60335 0
M  V30 5807 C 547.555 3.45469 2.52656 0
M  V30 5808 C 546.881 3.64215 3.91473 0
M  V30 5809 C 548.181 4.79954 2.06014 0
M  V30 5810 H 549.875 2.84904 0.920338 0
M  V30 5811 H 547.421 1.37072 0.441277 0
M  V30 5812 H 549.374 2.56814 3.34102 0
M  V30 5813 H 548.098 1.38622 2.95722 0
M  V30 5814 H 546.757 3.18605 1.81345 0
M  V30 5815 H 546.405 2.70309 4.24196 0
M  V30 5816 H 546.105 4.41973 3.87213 0
M  V30 5817 H 547.629 3.93519 4.66878 0
M  V30 5818 H 549.043 5.05989 2.69533 0
M  V30 5819 H 547.44 5.61111 2.12777 0
M  V30 5820 H 548.51 4.74201 1.01297 0
M  V30 5821 N 549.853 -0.472356 1.50355 0
M  V30 5822 C 551.078 -1.25251 1.65309 0
M  V30 5823 C 551.503 -1.85081 0.335643 0
M  V30 5824 O 550.861 -1.67227 -0.700335 0
M  V30 5825 C 550.909 -2.3379 2.74544 0
M  V30 5826 O 550.013 -3.38401 2.35709 0
M  V30 5827 H 549.354 -0.368539 0.552336 0
M  V30 5828 H 551.884 -0.562271 1.96722 0
M  V30 5829 H 551.894 -2.79121 2.97583 0
M  V30 5830 H 550.569 -1.89614 3.70161 0
M  V30 5831 H 549.146 -2.9879 2.23112 0
M  V30 5832 N 551.331 -1.39911 -0.725443 0
M  V30 5833 C 552.608 -1.28158 -1.47766 0
M  V30 5834 C 552.988 0.104545 -2.10841 0
M  V30 5835 O 552.336 1.11657 -1.99361 0
M  V30 5836 C 552.546 -2.41306 -2.52135 0
M  V30 5837 C 553.894 -2.81076 -3.18247 0
M  V30 5838 O 554.918 -2.40827 -2.62452 0
M  V30 5839 O 553.777 -3.50581 -4.19231 0
M  V30 5840 H 550.871 -0.502761 -0.656628 0
M  V30 5841 H 553.417 -1.51808 -0.758456 0
M  V30 5842 H 552.189 -3.33932 -2.03974 0
M  V30 5843 H 551.812 -2.19374 -3.31603 0
M  V30 5844 N 552.809 0.956637 -1.25245 0
M  V30 5845 C 553.741 2.05628 -1.01242 0
M  V30 5846 C 554.754 1.62785 0.0219579 0
M  V30 5847 O 555.943 1.77184 -0.216365 0
M  V30 5848 C 553.043 3.35069 -0.508161 0
M  V30 5849 C 552.216 4.06761 -1.60823 0
M  V30 5850 C 551.275 5.14473 -1.1047 0
M  V30 5851 O 550.301 5.40033 -1.79868 0
M  V30 5852 N 551.503 5.80474 0.0550773 0
M  V30 5853 H 554.268 2.2679 -1.95925 0
M  V30 5854 H 551.829 1.12505 -1.16423 0
M  V30 5855 H 553.821 4.044 -0.155819 0
M  V30 5856 H 552.391 3.10694 0.344683 0
M  V30 5857 H 551.611 3.31555 -2.13224 0
M  V30 5858 H 552.899 4.51418 -2.34733 0
M  V30 5859 H 552.297 5.62125 0.635004 0
M  V30 5860 H 550.854 6.50868 0.348469 0
M  V30 5861 N 554.287 1.06798 1.15896 0
M  V30 5862 C 555.698 0.811355 1.68149 0
M  V30 5863 C 556.049 -0.664339 1.8461 0
M  V30 5864 O 555.174 -1.51485 1.54535 0
M  V30 5865 C 555.769 1.46624 3.05429 0
M  V30 5866 C 554.328 1.25726 3.54781 0
M  V30 5867 C 553.475 1.53949 2.3064 0
M  V30 5868 H 556.426 1.23078 1.00187 0
M  V30 5869 H 556.447 0.88437 3.7008 0
M  V30 5870 H 555.959 2.54025 2.93416 0
M  V30 5871 H 554.06 0.20322 3.72045 0
M  V30 5872 H 554.173 1.97354 4.36564 0
M  V30 5873 H 552.537 0.96025 2.35905 0
M  V30 5874 H 553.32 2.6252 2.2122 0
M  V30 5875 N 555.766 -1.3263 0.851289 0
M  V30 5876 C 556.676 -2.32722 0.296268 0
M  V30 5877 C 557.692 -1.63901 -0.584162 0
M  V30 5878 O 558.868 -1.95465 -0.485334 0
M  V30 5879 C 555.933 -3.42942 -0.509103 0
M  V30 5880 C 554.994 -4.2746 0.397069 0
M  V30 5881 C 554.227 -5.32416 -0.36996 0
M  V30 5882 O 554.45 -5.47491 -1.6003 0
M  V30 5883 O 553.384 -6.01327 0.262493 0
M  V30 5884 H 557.21 -2.82078 1.12543 0
M  V30 5885 H 554.795 -1.36194 0.614135 0
M  V30 5886 H 556.677 -4.1017 -0.96634 0
M  V30 5887 H 555.352 -2.95781 -1.31512 0
M  V30 5888 H 554.259 -3.63053 0.902411 0
M  V30 5889 H 555.592 -4.78136 1.16818 0
M  V30 5890 N 557.244 -0.608902 -1.45362 0
M  V30 5891 C 558.192 0.121639 -2.32282 0
M  V30 5892 C 559.186 0.858301 -1.46046 0
M  V30 5893 O 560.392 0.773718 -1.62523 0
M  V30 5894 H 556.767 0.058086 -0.749753 0
M  V30 5895 H 558.738 -0.629866 -2.91677 0
M  V30 5896 C 557.487 1.1047 -3.29684 0
M  V30 5897 H 556.81 0.547278 -3.96036 0
M  V30 5898 H 558.25 1.58576 -3.9323 0
M  V30 5899 C 556.709 2.17891 -2.56954 0
M  V30 5900 O 557.239 3.25652 -2.35189 0
M  V30 5901 N 555.445 1.93211 -2.17066 0
M  V30 5902 H 554.992 1.05584 -2.34967 0
M  V30 5903 H 554.95 2.6529 -1.68727 0
M  V30 5904 N 558.722 1.53707 -0.348139 0
M  V30 5905 C 559.95 2.05406 0.248224 0
M  V30 5906 C 560.365 1.22282 1.43849 0
M  V30 5907 O 559.722 0.259244 1.80649 0
M  V30 5908 C 559.773 3.55446 0.658793 0
M  V30 5909 O 559.494 4.35417 -0.484149 0
M  V30 5910 C 560.995 4.23335 1.31539 0
M  V30 5911 H 558.215 0.669344 0.0471075 0
M  V30 5912 H 560.759 1.98257 -0.501456 0
M  V30 5913 H 558.914 3.62803 1.35841 0
M  V30 5914 H 559.328 5.24268 -0.155949 0
M  V30 5915 H 560.802 5.29692 1.55338 0
M  V30 5916 H 561.279 3.75967 2.27036 0
M  V30 5917 H 561.885 4.20184 0.657683 0
M  V30 5918 N 560.2 0.0768682 1.57412 0
M  V30 5919 C 561.447 -0.591085 1.93681 0
M  V30 5920 C 561.775 -1.69311 0.957286 0
M  V30 5921 O 561.03 -1.95682 -0.0262428 0
M  V30 5922 C 561.329 -1.20268 3.36557 0
M  V30 5923 C 560.995 -0.226286 4.50332 0
M  V30 5924 C 559.657 0.0423142 4.81181 0
M  V30 5925 C 562.009 0.441415 5.19327 0
M  V30 5926 C 559.337 0.985616 5.78362 0
M  V30 5927 C 561.689 1.37307 6.17519 0
M  V30 5928 C 560.353 1.65009 6.46783 0
M  V30 5929 H 559.623 -0.216293 0.70873 0
M  V30 5930 H 562.27 0.148824 1.90921 0
M  V30 5931 H 560.575 -2.01844 3.35807 0
M  V30 5932 H 562.272 -1.72688 3.61911 0
M  V30 5933 H 558.862 -0.445821 4.26275 0
M  V30 5934 H 563.046 0.247023 4.95685 0
M  V30 5935 H 558.302 1.20743 5.99359 0
M  V30 5936 H 562.476 1.89637 6.70083 0
M  V30 5937 H 560.103 2.38263 7.21897 0
M  V30 5938 N 561.678 -1.56367 -0.196722 0
M  V30 5939 C 562.608 -1.97442 -1.24655 0
M  V30 5940 C 563.589 -0.846147 -1.47561 0
M  V30 5941 O 564.774 -1.11035 -1.59326 0
M  V30 5942 C 561.904 -2.31253 -2.59112 0
M  V30 5943 C 560.858 -3.46804 -2.50821 0
M  V30 5944 C 560.184 -3.66286 -3.89536 0
M  V30 5945 C 561.484 -4.8104 -2.03465 0
M  V30 5946 H 563.178 -2.85388 -0.905216 0
M  V30 5947 H 560.724 -1.37304 -0.434002 0
M  V30 5948 H 562.677 -2.58583 -3.32736 0
M  V30 5949 H 561.401 -1.40188 -2.94983 0
M  V30 5950 H 560.06 -3.19563 -1.79653 0
M  V30 5951 H 559.708 -2.72555 -4.22756 0
M  V30 5952 H 559.408 -4.4402 -3.84864 0
M  V30 5953 H 560.932 -3.9599 -4.64784 0
M  V30 5954 H 562.346 -5.07411 -2.66846 0
M  V30 5955 H 560.743 -5.62232 -2.09798 0
M  V30 5956 H 561.813 -4.74732 -0.98781 0
M  V30 5957 N 563.156 0.464375 -1.50603 0
M  V30 5958 C 564.106 1.55929 -1.66343 0
M  V30 5959 C 565.09 1.52338 -0.517887 0
M  V30 5960 O 566.282 1.59248 -0.772601 0
M  V30 5961 C 563.411 2.94327 -1.7671 0
M  V30 5962 C 562.497 3.02777 -2.96962 0
M  V30 5963 N 562.888 2.81026 -4.20545 0
M  V30 5964 C 561.186 3.33919 -2.95659 0
M  V30 5965 C 561.887 2.94618 -5.01573 0
M  V30 5966 N 560.863 3.25112 -4.35664 0
M  V30 5967 H 564.665 1.37822 -2.59581 0
M  V30 5968 H 562.179 0.671227 -1.47879 0
M  V30 5969 H 564.176 3.73063 -1.86091 0
M  V30 5970 H 562.836 3.13476 -0.846353 0
M  V30 5971 H 563.847 2.56477 -4.49933 0
M  V30 5972 H 560.524 3.59013 -2.13111 0
M  V30 5973 H 561.914 2.81984 -6.09865 0
M  V30 5974 N 564.634 1.40294 0.718013 0
M  V30 5975 C 566.045 1.34289 1.29705 0
M  V30 5976 C 566.396 0.0152228 1.96194 0
M  V30 5977 O 565.521 -0.88682 1.97394 0
M  V30 5978 C 566.116 2.43219 2.3586 0
M  V30 5979 C 564.675 2.40682 2.89394 0
M  V30 5980 C 563.822 2.24223 1.63154 0
M  V30 5981 H 566.773 1.50135 0.514312 0
M  V30 5982 H 566.794 2.10986 3.16647 0
M  V30 5983 H 566.306 3.39836 1.87439 0
M  V30 5984 H 564.407 1.47756 3.42051 0
M  V30 5985 H 564.52 3.36177 3.41353 0
M  V30 5986 H 562.884 1.71696 1.88129 0
M  V30 5987 H 563.667 3.22834 1.16761 0
M  V30 5988 N 566.112 -0.949982 1.2575 0
M  V30 5989 C 567.361 -1.68956 1.10168 0
M  V30 5990 C 567.674 -1.92327 -0.356309 0
M  V30 5991 O 568.88 -2.64026 -0.632657 0
M  V30 5992 C 567.336 -3.04196 1.92336 0
M  V30 5993 C 566.944 -2.88603 3.42655 0
M  V30 5994 C 568.688 -3.81904 1.85336 0
M  V30 5995 C 566.595 -4.19262 4.17101 0
M  V30 5996 H 565.525 -0.633645 0.408668 0
M  V30 5997 H 568.176 -1.05719 1.49986 0
M  V30 5998 H 566.558 -3.68363 1.45344 0
M  V30 5999 H 567.732 -2.3334 3.97353 0
M  V30 6000 H 566.047 -2.24345 3.50796 0
M  V30 6001 H 568.644 -4.78688 2.38248 0
M  V30 6002 H 568.987 -4.08099 0.822226 0
M  V30 6003 H 569.52 -3.24495 2.30104 0
M  V30 6004 H 566.259 -3.98254 5.20648 0
M  V30 6005 H 565.779 -4.74273 3.67186 0
M  V30 6006 H 567.458 -4.87775 4.25071 0
M  V30 6007 N 567.59 -1.07411 -1.15328 0
M  V30 6008 C 568.839 -0.792643 -1.85473 0
M  V30 6009 C 569.152 0.683789 -1.83259 0
M  V30 6010 O 570.358 1.08005 -2.49093 0
M  V30 6011 C 568.814 -1.36787 -3.32892 0
M  V30 6012 C 568.422 -2.87536 -3.43551 0
M  V30 6013 C 570.166 -1.16444 -4.08217 0
M  V30 6014 C 568.073 -3.38247 -4.85122 0
M  V30 6015 H 567.003 -0.292838 -0.694811 0
M  V30 6016 H 569.654 -1.29426 -1.30082 0
M  V30 6017 H 568.036 -0.793993 -3.87958 0
M  V30 6018 H 569.21 -3.50973 -2.98588 0
M  V30 6019 H 567.525 -3.06676 -2.81672 0
M  V30 6020 H 570.122 -1.51808 -5.12697 0
M  V30 6021 H 570.465 -0.10353 -4.16171 0
M  V30 6022 H 570.998 -1.70472 -3.59422 0
M  V30 6023 H 567.737 -4.43866 -4.82351 0
M  V30 6024 H 567.257 -2.79564 -5.30664 0
M  V30 6025 H 568.936 -3.34238 -5.5398 0
M  V30 6026 N 569.068 1.32177 -0.85831 0
M  V30 6027 C 570 2.27688 -0.262835 0
M  V30 6028 C 571.013 1.52588 0.567513 0
M  V30 6029 O 572.202 1.74156 0.391407 0
M  V30 6030 C 569.302 3.32668 0.646937 0
M  V30 6031 C 568.475 4.37148 -0.148372 0
M  V30 6032 C 567.534 5.21686 0.687728 0
M  V30 6033 O 566.56 5.69074 0.119934 0
M  V30 6034 N 567.762 5.44892 2.00182 0
M  V30 6035 H 570.527 2.79426 -1.08356 0
M  V30 6036 H 568.088 1.45076 -0.718647 0
M  V30 6037 H 570.08 3.86134 1.2117 0
M  V30 6038 H 568.65 2.81061 1.36834 0
M  V30 6039 H 567.87 3.83915 -0.894572 0
M  V30 6040 H 569.158 5.04038 -0.694514 0
M  V30 6041 H 568.556 5.08128 2.4864 0
M  V30 6042 H 567.113 6.0134 2.51463 0
M  V30 6043 N 570.547 0.616602 1.45037 0
M  V30 6044 C 571.796 0.112861 2.01384 0
M  V30 6045 C 572.109 -1.26758 1.48969 0
M  V30 6046 O 573.315 -1.86454 1.9735 0
M  V30 6047 C 571.771 0.151057 3.59583 0
M  V30 6048 C 571.379 1.53191 4.20995 0
M  V30 6049 C 573.123 -0.296974 4.2346 0
M  V30 6050 C 571.03 1.526 5.71373 0
M  V30 6051 H 569.96 0.0384254 0.75302 0
M  V30 6052 H 572.611 0.773262 1.66412 0
M  V30 6053 H 570.993 -0.57617 3.91786 0
M  V30 6054 H 572.167 2.28156 4.00352 0
M  V30 6055 H 570.482 1.92279 3.69348 0
M  V30 6056 H 573.079 -0.320712 5.33737 0
M  V30 6057 H 573.422 -1.32145 3.9477 0
M  V30 6058 H 573.955 0.377279 3.96007 0
M  V30 6059 H 570.694 2.52837 6.04776 0
M  V30 6060 H 570.214 0.819064 5.94181 0
M  V30 6061 H 571.893 1.25357 6.3474 0
M  V30 6062 N 572.025 -1.5352 0.356285 0
M  V30 6063 C 573.302 -1.93405 -0.292223 0
M  V30 6064 C 573.682 -1.28901 -1.67176 0
M  V30 6065 O 573.03 -0.444632 -2.24132 0
M  V30 6066 C 573.24 -3.47223 -0.35175 0
M  V30 6067 C 574.588 -4.20389 -0.596534 0
M  V30 6068 O 575.612 -3.53554 -0.433344 0
M  V30 6069 O 574.471 -5.3881 -0.913589 0
M  V30 6070 H 571.565 -0.808666 -0.173172 0
M  V30 6071 H 574.111 -1.64713 0.408391 0
M  V30 6072 H 572.883 -3.86423 0.615841 0
M  V30 6073 H 572.506 -3.8212 -1.09864 0
M  V30 6074 N 573.503 -0.0852151 -1.57369 0
M  V30 6075 C 574.919 0.271436 -1.57275 0
M  V30 6076 C 575.119 1.69109 -1.09565 0
M  V30 6077 O 574.175 2.40549 -0.767611 0
M  V30 6078 C 575.488 0.0688638 -3.00621 0
M  V30 6079 C 577.036 0.137373 -3.12698 0
M  V30 6080 C 577.511 -0.0370832 -4.57985 0
M  V30 6081 N 579.002 0.0180794 -4.63196 0
M  V30 6082 C 579.737 -0.0922953 -5.73326 0
M  V30 6083 N 579.233 -0.256948 -6.92323 0
M  V30 6084 N 581.026 -0.0342702 -5.6209 0
M  V30 6085 H 573.177 -1.01288 -1.86693 0
M  V30 6086 H 575.44 -0.396138 -0.861266 0
M  V30 6087 H 575.146 -0.911277 -3.39689 0
M  V30 6088 H 575.02 0.815442 -3.6828 0
M  V30 6089 H 577.407 1.10801 -2.73509 0
M  V30 6090 H 577.488 -0.640532 -2.47651 0
M  V30 6091 H 577.132 -1.00455 -4.97867 0
M  V30 6092 H 577.062 0.760392 -5.21081 0
M  V30 6093 H 579.553 0.143202 -3.77629 0
M  V30 6094 H 579.866 -0.332949 -7.72082 0
M  V30 6095 H 578.211 -0.292487 -6.94384 0
M  V30 6096 H 581.402 0.0931605 -4.68007 0
M  V30 6097 H 581.575 -0.12374 -6.47882 0
M  V30 6098 N 574.981 1.5647 0.188427 0
M  V30 6099 C 576.206 1.85486 0.927891 0
M  V30 6100 C 576.631 0.669575 1.75779 0
M  V30 6101 O 575.989 -0.381573 1.77239 0
M  V30 6102 C 576.037 3.12784 1.7944 0
M  V30 6103 O 575.141 2.93805 2.894 0
M  V30 6104 H 574.482 0.610585 0.260925 0
M  V30 6105 H 577.012 2.037 0.191729 0
M  V30 6106 H 577.022 3.43749 2.19774 0
M  V30 6107 H 575.697 3.98671 1.18468 0
M  V30 6108 H 574.274 2.74153 2.52774 0
M  V30 6109 N 576.459 -0.456382 1.50847 0
M  V30 6110 C 577.706 -1.20736 1.62571 0
M  V30 6111 C 578.034 -1.9163 0.332904 0
M  V30 6112 O 577.289 -1.8343 -0.682058 0
M  V30 6113 C 577.588 -2.26336 2.76599 0
M  V30 6114 C 577.254 -1.7259 4.16562 0
M  V30 6115 C 575.916 -1.57654 4.54641 0
M  V30 6116 C 578.268 -1.32877 5.03977 0
M  V30 6117 C 575.596 -1.0145 5.77862 0
M  V30 6118 C 577.948 -0.7811 6.27759 0
M  V30 6119 C 576.612 -0.618488 6.64628 0
M  V30 6120 H 575.882 -0.441803 0.594888 0
M  V30 6121 H 578.529 -0.501169 1.84826 0
M  V30 6122 H 576.834 -3.0292 2.48489 0
M  V30 6123 H 578.531 -2.84227 2.82871 0
M  V30 6124 H 575.121 -1.85187 3.86528 0
M  V30 6125 H 579.305 -1.43245 4.75179 0
M  V30 6126 H 574.561 -0.876109 6.0509 0
M  V30 6127 H 578.735 -0.464783 6.94847 0
M  V30 6128 H 576.362 -0.180838 7.59985 0
M  V30 6129 N 577.937 -1.40673 -0.710563 0
M  V30 6130 C 578.87 -1.35742 -1.83438 0
M  V30 6131 C 579.848 -0.226997 -1.61008 0
M  V30 6132 O 581.032 -0.411477 -1.83954 0
M  V30 6133 C 578.159 -1.11374 -3.19865 0
M  V30 6134 C 577.205 -2.26935 -3.61113 0
M  V30 6135 S 578.038 -3.89352 -3.67648 0
M  V30 6136 C 579.194 -3.67258 -5.06826 0
M  V30 6137 H 579.427 -2.30848 -1.87341 0
M  V30 6138 H 576.96 -1.27018 -0.877831 0
M  V30 6139 H 578.918 -0.980004 -3.9863 0
M  V30 6140 H 577.579 -0.179135 -3.13589 0
M  V30 6141 H 576.772 -2.0554 -4.60184 0
M  V30 6142 H 576.374 -2.36638 -2.89618 0
M  V30 6143 H 578.666 -3.26036 -5.93891 0
M  V30 6144 H 579.609 -4.65878 -5.33257 0
M  V30 6145 H 580.017 -3.0084 -4.77656 0
M  V30 6146 N 579.415 0.9433 -1.26252 0
M  V30 6147 C 580.345 2.05902 -1.10122 0
M  V30 6148 C 581.326 1.70099 -0.00700552 0
M  V30 6149 O 582.511 1.93377 -0.178641 0
M  V30 6150 C 579.641 3.39516 -0.731175 0
M  V30 6151 C 578.595 3.89372 -1.77688 0
M  V30 6152 C 577.921 5.19613 -1.26122 0
M  V30 6153 C 579.221 4.14489 -3.17799 0
M  V30 6154 H 580.915 2.19655 -2.03451 0
M  V30 6155 H 578.461 1.05548 -0.979576 0
M  V30 6156 H 580.414 4.17031 -0.605215 0
M  V30 6157 H 579.138 3.25733 0.23782 0
M  V30 6158 H 577.797 3.14036 -1.89148 0
M  V30 6159 H 577.445 5.02208 -0.282128 0
M  V30 6160 H 577.145 5.53939 -1.96023 0
M  V30 6161 H 578.669 5.99713 -1.14789 0
M  V30 6162 H 580.083 4.82625 -3.09428 0
M  V30 6163 H 578.48 4.60094 -3.85271 0
M  V30 6164 H 579.55 3.20347 -3.64014 0
M  V30 6165 N 580.893 1.08022 1.14757 0
M  V30 6166 C 581.823 0.728248 2.21853 0
M  V30 6167 C 582.804 -0.287486 1.67653 0
M  V30 6168 O 583.989 -0.158727 1.9355 0
M  V30 6169 C 581.119 0.132549 3.47047 0
M  V30 6170 C 580.073 1.07619 4.14249 0
M  V30 6171 C 579.399 0.342907 5.33599 0
M  V30 6172 C 580.699 2.41268 4.63235 0
M  V30 6173 H 582.393 1.62365 2.51551 0
M  V30 6174 H 579.939 0.782125 1.20908 0
M  V30 6175 H 581.892 -0.125665 4.21213 0
M  V30 6176 H 580.616 -0.797971 3.16702 0
M  V30 6177 H 579.275 1.31944 3.42033 0
M  V30 6178 H 578.923 -0.59129 4.99513 0
M  V30 6179 H 578.623 0.971955 5.79506 0
M  V30 6180 H 580.147 0.0926538 6.1053 0
M  V30 6181 H 581.561 2.21232 5.28894 0
M  V30 6182 H 579.958 2.9983 5.19829 0
M  V30 6183 H 581.028 3.03079 3.78512 0
M  V30 6184 N 582.371 -1.3172 0.865308 0
M  V30 6185 C 583.62 -1.96145 0.470098 0
M  V30 6186 C 583.933 -1.69182 -0.981674 0
M  V30 6187 O 585.139 -2.27431 -1.48281 0
M  V30 6188 C 583.595 -3.51129 0.789732 0
M  V30 6189 C 583.203 -3.86938 2.25795 0
M  V30 6190 C 584.947 -4.2197 0.462765 0
M  V30 6191 C 582.854 -5.35012 2.52024 0
M  V30 6192 H 581.784 -0.734105 0.172065 0
M  V30 6193 H 584.435 -1.49959 1.05757 0
M  V30 6194 H 582.817 -3.95781 0.131571 0
M  V30 6195 H 583.991 -3.5326 2.95879 0
M  V30 6196 H 582.306 -3.29149 2.55049 0
M  V30 6197 H 584.903 -5.30904 0.636019 0
M  V30 6198 H 585.246 -4.12005 -0.59645 0
M  V30 6199 H 585.779 -3.82936 1.07727 0
M  V30 6200 H 582.518 -5.50008 3.56611 0
M  V30 6201 H 582.038 -5.70058 1.8653 0
M  V30 6202 H 583.717 -6.0222 2.36515 0
M  V30 6203 N 583.85 -0.624285 -1.44708 0
M  V30 6204 C 584.779 0.0717025 -2.3339 0
M  V30 6205 C 585.76 0.841814 -1.47809 0
M  V30 6206 O 586.946 0.809056 -1.76544 0
M  V30 6207 C 584.076 1.05852 -3.30776 0
M  V30 6208 C 583.029 0.400503 -4.26122 0
M  V30 6209 C 582.356 1.49674 -5.13324 0
M  V30 6210 C 583.656 -0.688924 -5.17737 0
M  V30 6211 H 585.35 -0.668819 -2.91834 0
M  V30 6212 H 582.896 -0.32308 -1.40329 0
M  V30 6213 H 584.849 1.5541 -3.91696 0
M  V30 6214 H 583.572 1.82984 -2.70526 0
M  V30 6215 H 582.231 -0.0743687 -3.66525 0
M  V30 6216 H 581.88 2.25877 -4.49431 0
M  V30 6217 H 581.58 1.06188 -5.77926 0
M  V30 6218 H 583.104 1.99427 -5.77115 0
M  V30 6219 H 584.518 -0.276724 -5.72632 0
M  V30 6220 H 582.915 -1.04652 -5.90904 0
M  V30 6221 H 583.985 -1.55884 -4.5916 0
M  V30 6222 N 585.328 1.53329 -0.364422 0
M  V30 6223 C 586.238 2.29414 0.490552 0
M  V30 6224 C 587.254 1.35335 1.09363 0
M  V30 6225 O 588.43 1.68391 1.10483 0
M  V30 6226 C 585.495 3.06772 1.61529 0
M  V30 6227 C 584.556 4.16516 1.03986 0
M  V30 6228 C 583.789 4.90176 2.111 0
M  V30 6229 O 584.012 4.63687 3.32191 0
M  V30 6230 O 582.946 5.76134 1.74222 0
M  V30 6231 H 586.772 3.03428 -0.12856 0
M  V30 6232 H 584.357 1.48843 -0.128837 0
M  V30 6233 H 586.239 3.55082 2.26924 0
M  V30 6234 H 584.914 2.35596 2.21983 0
M  V30 6235 H 583.821 3.7246 0.349856 0
M  V30 6236 H 585.154 4.89855 0.4799 0
M  V30 6237 N 586.806 0.0935595 1.57322 0
M  V30 6238 C 588.222 -0.263091 1.57417 0
M  V30 6239 C 588.422 -1.68526 1.1046 0
M  V30 6240 O 587.478 -2.40139 0.780357 0
M  V30 6241 C 588.791 -0.0529201 3.00653 0
M  V30 6242 C 590.339 -0.120788 3.12767 0
M  V30 6243 C 590.814 0.0613707 4.57959 0
M  V30 6244 N 592.305 0.00648534 4.632 0
M  V30 6245 C 593.04 0.122699 5.73269 0
M  V30 6246 N 592.536 0.29366 6.92177 0
M  V30 6247 N 594.329 0.0640787 5.62063 0
M  V30 6248 H 586.48 1.02277 1.86154 0
M  V30 6249 H 588.743 0.4007 0.859153 0
M  V30 6250 H 588.449 0.929279 3.39201 0
M  V30 6251 H 588.323 -0.795899 3.68708 0
M  V30 6252 H 590.71 -1.09349 2.74093 0
M  V30 6253 H 590.791 0.653656 2.47307 0
M  V30 6254 H 590.435 1.03093 4.97327 0
M  V30 6255 H 590.365 -0.732748 5.21477 0
M  V30 6256 H 592.856 -0.123173 3.77699 0
M  V30 6257 H 593.169 0.37389 7.71895 0
M  V30 6258 H 591.514 0.329307 6.94219 0
M  V30 6259 H 594.705 -0.0683396 4.6805 0
M  V30 6260 H 594.878 0.158097 6.47807 0
M  V30 6261 N 588.284 -1.56567 -0.180126 0
M  V30 6262 C 589.509 -1.85975 -0.918041 0
M  V30 6263 C 589.934 -0.678888 -1.75422 0
M  V30 6264 O 589.292 0.372168 -1.77439 0
M  V30 6265 C 589.34 -3.13731 -1.77779 0
M  V30 6266 O 588.444 -2.95335 -2.87838 0
M  V30 6267 H 587.785 -0.61196 -0.257683 0
M  V30 6268 H 590.315 -2.03798 -0.180923 0
M  V30 6269 H 590.325 -3.4491 -2.17948 0
M  V30 6270 H 589 -3.99293 -1.16352 0
M  V30 6271 H 587.577 -2.7549 -2.51316 0
M  V30 6272 N 589.762 0.448376 -1.51087 0
M  V30 6273 C 590.99 1.22143 -1.66999 0
M  V30 6274 C 591.405 1.85283 -0.362699 0
M  V30 6275 O 590.762 1.70236 0.65772 0
M  V30 6276 C 590.813 2.31357 -2.7777 0
M  V30 6277 O 590.534 1.70801 -4.03434 0
M  V30 6278 C 592.035 3.21836 -3.04855 0
M  V30 6279 H 589.255 0.368558 -0.560719 0
M  V30 6280 H 591.799 0.532618 -1.97442 0
M  V30 6281 H 589.954 2.95973 -2.49958 0
M  V30 6282 H 590.368 2.42895 -4.64868 0
M  V30 6283 H 591.842 3.94627 -3.85971 0
M  V30 6284 H 592.319 3.81949 -2.16821 0
M  V30 6285 H 592.925 2.62933 -3.34285 0
M  V30 6286 N 591.24 1.41047 0.703093 0
M  V30 6287 C 592.656 1.23351 1.01275 0
M  V30 6288 C 592.856 0.11754 2.01157 0
M  V30 6289 O 591.912 -0.520518 2.47077 0
M  V30 6290 C 593.225 2.58001 1.54454 0
M  V30 6291 C 594.773 2.65119 1.66376 0
M  V30 6292 C 595.248 4.00067 2.22958 0
M  V30 6293 N 596.739 4.01875 2.30328 0
M  V30 6294 C 597.474 5.03087 2.75119 0
M  V30 6295 N 596.97 6.14692 3.19571 0
M  V30 6296 N 598.763 4.90451 2.74616 0
M  V30 6297 H 590.914 2.1236 0.0412686 0
M  V30 6298 H 593.177 0.944543 0.08089 0
M  V30 6299 H 592.883 3.40378 0.88521 0
M  V30 6300 H 592.757 2.79962 2.52786 0
M  V30 6301 H 595.144 1.83106 2.31422 0
M  V30 6302 H 595.225 2.46975 0.666089 0
M  V30 6303 H 594.869 4.82526 1.58529 0
M  V30 6304 H 594.799 4.15547 3.23462 0
M  V30 6305 H 597.29 3.21291 1.98949 0
M  V30 6306 H 597.603 6.87799 3.52352 0
M  V30 6307 H 595.948 6.18239 3.17498 0
M  V30 6308 H 599.139 4.0235 2.39233 0
M  V30 6309 H 599.312 5.6947 3.09206 0
M  V30 6310 N 592.718 -0.936591 1.26751 0
M  V30 6311 C 593.943 -1.72288 1.15462 0
M  V30 6312 C 594.368 -1.85915 -0.285887 0
M  V30 6313 O 593.726 -1.35272 -1.20711 0
M  V30 6314 C 593.774 -3.10503 1.83359 0
M  V30 6315 O 592.878 -3.96745 1.1255 0
M  V30 6316 H 592.219 -0.52843 0.402067 0
M  V30 6317 H 594.749 -1.17271 1.67656 0
M  V30 6318 H 594.759 -3.60867 1.90365 0
M  V30 6319 H 593.434 -2.99901 2.88153 0
M  V30 6320 H 592.011 -3.55191 1.13551 0
M  V30 6321 N 594.196 -1.08629 -1.14182 0
M  V30 6322 C 595.445 -0.812271 -1.84621 0
M  V30 6323 C 595.758 0.664313 -1.83973 0
M  V30 6324 O 596.964 1.05357 -2.50224 0
M  V30 6325 C 595.42 -1.4031 -3.31423 0
M  V30 6326 C 595.028 -2.91164 -3.40481 0
M  V30 6327 C 596.772 -1.20767 -4.06959 0
M  V30 6328 C 594.679 -3.43373 -4.81507 0
M  V30 6329 H 593.609 -0.30019 -0.691666 0
M  V30 6330 H 596.26 -1.30798 -1.28701 0
M  V30 6331 H 594.642 -0.835096 -3.87094 0
M  V30 6332 H 595.816 -3.5412 -2.94848 0
M  V30 6333 H 594.131 -3.09646 -2.78403 0
M  V30 6334 H 596.728 -1.57237 -5.11058 0
M  V30 6335 H 597.071 -0.147664 -4.16038 0
M  V30 6336 H 597.604 -1.74274 -3.57594 0
M  V30 6337 H 594.343 -4.48958 -4.77616 0
M  V30 6338 H 593.863 -2.85176 -5.27669 0
M  V30 6339 H 595.542 -3.40095 -5.50404 0
M  V30 6340 N 595.674 1.31259 -0.872281 0
M  V30 6341 C 596.604 2.30929 -0.345554 0
M  V30 6342 C 597.585 1.60449 0.5648 0
M  V30 6343 O 598.77 1.8814 0.481335 0
M  V30 6344 C 595.9 3.44348 0.451823 0
M  V30 6345 C 594.854 4.26435 -0.365641 0
M  V30 6346 C 594.18 5.31785 0.557562 0
M  V30 6347 C 595.48 4.97159 -1.60095 0
M  V30 6348 H 597.174 2.75234 -1.17841 0
M  V30 6349 H 594.72 1.3232 -0.568094 0
M  V30 6350 H 596.673 4.13128 0.830854 0
M  V30 6351 H 595.397 2.98816 1.31821 0
M  V30 6352 H 594.056 3.59326 -0.726649 0
M  V30 6353 H 593.704 4.82502 1.4213 0
M  V30 6354 H 593.404 5.87598 0.0144878 0
M  V30 6355 H 594.928 6.03424 0.933387 0
M  V30 6356 H 596.342 5.58523 -1.29323 0
M  V30 6357 H 594.739 5.62779 -2.08327 0
M  V30 6358 H 595.809 4.24012 -2.35249 0
M  V30 6359 N 597.152 0.631951 1.44375 0
M  V30 6360 C 598.399 0.136767 2.02038 0
M  V30 6361 C 598.727 -1.24168 1.49709 0
M  V30 6362 O 597.982 -1.83809 0.671763 0
M  V30 6363 C 598.281 0.0735861 3.57324 0
M  V30 6364 C 597.947 1.39092 4.28911 0
M  V30 6365 C 596.609 1.75171 4.48184 0
M  V30 6366 C 598.961 2.26042 4.69632 0
M  V30 6367 C 596.289 2.97907 5.05439 0
M  V30 6368 C 598.641 3.4805 5.28246 0
M  V30 6369 C 597.305 3.84351 5.45738 0
M  V30 6370 H 596.575 0.0500466 0.739308 0
M  V30 6371 H 599.222 0.818429 1.7313 0
M  V30 6372 H 597.527 -0.691449 3.8565 0
M  V30 6373 H 599.224 -0.326091 3.99672 0
M  V30 6374 H 595.814 1.10015 4.1424 0
M  V30 6375 H 599.998 1.99463 4.54454 0
M  V30 6376 H 595.254 3.26108 5.17169 0
M  V30 6377 H 599.428 4.15658 5.5875 0
M  V30 6378 H 597.055 4.79538 5.8987 0
M  V30 6379 N 598.631 -1.53133 0.372548 0
M  V30 6380 C 599.561 -2.28876 -0.462412 0
M  V30 6381 C 600.542 -1.31583 -1.07796 0
M  V30 6382 O 601.727 -1.60461 -1.09389 0
M  V30 6383 C 598.857 -3.08317 -1.59868 0
M  V30 6384 C 597.811 -4.13355 -1.11003 0
M  V30 6385 C 597.137 -4.8092 -2.33708 0
M  V30 6386 C 598.437 -5.21955 -0.18983 0
M  V30 6387 H 600.131 -2.9892 0.169511 0
M  V30 6388 H 597.677 -1.43761 0.0829658 0
M  V30 6389 H 599.63 -3.60055 -2.18949 0
M  V30 6390 H 598.354 -2.35976 -2.25794 0
M  V30 6391 H 597.013 -3.62573 -0.541869 0
M  V30 6392 H 596.661 -4.05144 -2.98106 0
M  V30 6393 H 596.361 -5.51904 -2.01682 0
M  V30 6394 H 597.885 -5.35455 -2.93462 0
M  V30 6395 H 599.299 -5.69153 -0.688319 0
M  V30 6396 H 597.696 -6.00087 0.0398887 0
M  V30 6397 H 598.766 -4.78811 0.766057 0
M  V30 6398 N 600.109 -0.101901 -1.5727 0
M  V30 6399 C 601.357 0.559091 -1.94213 0
M  V30 6400 C 601.678 1.68297 -0.984948 0
M  V30 6401 O 600.948 1.95863 -0.0381975 0
M  V30 6402 H 599.528 0.20952 -0.717015 0
M  V30 6403 H 602.19 -0.166831 -1.94185 0
M  V30 6404 H 601.286 0.96485 -2.96811 0
M  V30 6405 N 601.587 1.56661 0.17182 0
M  V30 6406 C 602.534 1.96371 1.21273 0
M  V30 6407 C 603.504 0.82756 1.44016 0
M  V30 6408 O 604.689 1.08764 1.56764 0
M  V30 6409 C 601.829 2.32838 2.54716 0
M  V30 6410 C 600.942 3.59628 2.39356 0
M  V30 6411 C 600.077 3.85311 3.65662 0
M  V30 6412 C 599.116 5.0545 3.45234 0
M  V30 6413 N 598.253 5.27268 4.63608 0
M  V30 6414 H 603.093 2.85106 0.86709 0
M  V30 6415 H 600.63 1.41073 0.416744 0
M  V30 6416 H 602.588 2.52004 3.3249 0
M  V30 6417 H 601.218 1.47214 2.87277 0
M  V30 6418 H 600.27 3.4838 1.52761 0
M  V30 6419 H 601.582 4.4756 2.20207 0
M  V30 6420 H 600.736 4.04841 4.51872 0
M  V30 6421 H 599.475 2.95753 3.8779 0
M  V30 6422 H 598.48 4.85819 2.5741 0
M  V30 6423 H 599.705 5.96538 3.24529 0
M  V30 6424 H 597.651 4.40662 4.85956 0
M  V30 6425 H 597.568 6.09422 4.4737 0
M  V30 6426 H 598.836 5.51277 5.51103 0
M  V30 6427 N 603.065 -0.440357 1.51323 0
M  V30 6428 C 604.311 -1.19181 1.64085 0
M  V30 6429 C 604.644 -1.90936 0.354575 0
M  V30 6430 O 603.919 -1.8347 -0.645675 0
M  V30 6431 C 604.202 -2.2112 2.84215 0
M  V30 6432 C 604.055 -1.53468 4.22809 0
M  V30 6433 C 605.374 -3.22133 2.99864 0
M  V30 6434 H 602.493 -0.431924 0.597169 0
M  V30 6435 H 605.135 -0.481443 1.83799 0
M  V30 6436 H 603.285 -2.81703 2.67537 0
M  V30 6437 H 604.957 -0.962455 4.51148 0
M  V30 6438 H 603.2 -0.837086 4.25647 0
M  V30 6439 H 603.871 -2.27694 5.02852 0
M  V30 6440 H 606.347 -2.71601 3.15233 0
M  V30 6441 H 605.223 -3.90756 3.85488 0
M  V30 6442 H 605.484 -3.88061 2.11804 0
M  V30 6443 N 604.543 -1.41418 -0.695603 0
M  V30 6444 C 605.789 -1.40982 -1.4578 0
M  V30 6445 C 606.122 -0.0187763 -1.94191 0
M  V30 6446 O 605.397 0.95346 -1.69527 0
M  V30 6447 C 605.68 -2.41657 -2.66972 0
M  V30 6448 C 605.533 -3.89869 -2.24327 0
M  V30 6449 C 606.852 -2.39589 -3.69168 0
M  V30 6450 H 603.971 -0.513405 -0.528757 0
M  V30 6451 H 606.613 -1.72693 -0.792275 0
M  V30 6452 H 604.763 -2.14746 -3.23754 0
M  V30 6453 H 606.435 -4.27683 -1.72872 0
M  V30 6454 H 604.678 -4.04737 -1.56111 0
M  V30 6455 H 605.349 -4.55857 -3.11285 0
M  V30 6456 H 607.825 -2.63471 -3.2206 0
M  V30 6457 H 606.701 -3.12044 -4.51575 0
M  V30 6458 H 606.962 -1.41447 -4.18862 0
M  V30 6459 N 606.021 0.929856 -1.27246 0
M  V30 6460 C 606.969 2.05151 -1.09616 0
M  V30 6461 C 607.963 1.69388 -0.0198617 0
M  V30 6462 O 609.169 1.79124 -0.177417 0
M  V30 6463 H 605.544 0.671909 -0.337701 0
M  V30 6464 H 607.515 2.17168 -2.04648 0
M  V30 6465 C 606.264 3.3934 -0.757851 0
M  V30 6466 H 605.587 3.67343 -1.57795 0
M  V30 6467 H 607.027 4.18603 -0.674358 0
M  V30 6468 C 605.486 3.32582 0.537658 0
M  V30 6469 O 606.016 3.69633 1.57271 0
M  V30 6470 N 604.222 2.8568 0.532478 0
M  V30 6471 H 603.769 2.55725 -0.310233 0
M  V30 6472 H 603.727 2.81541 1.39936 0
M  V30 6473 N 607.499 1.09233 1.13605 0
M  V30 6474 C 608.91 0.846839 1.6639 0
M  V30 6475 C 609.261 -0.625031 1.85978 0
M  V30 6476 O 608.386 -1.48173 1.57714 0
M  V30 6477 C 608.981 1.5307 3.0225 0
M  V30 6478 C 607.54 1.33223 3.52035 0
M  V30 6479 C 606.687 1.58806 2.27323 0
M  V30 6480 H 609.638 1.25175 0.975541 0
M  V30 6481 H 609.659 0.96267 3.68121 0
M  V30 6482 H 609.171 2.60192 2.87961 0
M  V30 6483 H 607.272 0.282091 3.71531 0
M  V30 6484 H 607.385 2.0657 4.32279 0
M  V30 6485 H 605.749 1.01007 2.33815 0
M  V30 6486 H 606.532 2.67153 2.15602 0
M  V30 6487 N 608.977 -1.30795 0.87923 0
M  V30 6488 C 610.205 -2.00527 0.509548 0
M  V30 6489 C 610.62 -1.65944 -0.90045 0
M  V30 6490 O 609.977 -0.893525 -1.5913 0
M  V30 6491 C 610.028 -3.55276 0.667943 0
M  V30 6492 O 609.749 -3.88625 2.02242 0
M  V30 6493 C 611.25 -4.4228 0.300494 0
M  V30 6494 H 608.47 -0.641261 0.197549 0
M  V30 6495 H 611.014 -1.66813 1.18295 0
M  V30 6496 H 609.169 -3.87377 0.0419843 0
M  V30 6497 H 609.583 -4.83334 2.03688 0
M  V30 6498 H 611.057 -5.50061 0.462242 0
M  V30 6499 H 611.534 -4.32556 -0.76106 0
M  V30 6500 H 612.14 -4.15613 0.902536 0
M  V30 6501 N 610.455 -0.639598 -1.44038 0
M  V30 6502 C 611.365 0.0612377 -2.3452 0
M  V30 6503 C 612.381 0.826717 -1.53106 0
M  V30 6504 O 613.557 0.777059 -1.85806 0
M  V30 6505 C 610.622 1.02492 -3.31204 0
M  V30 6506 C 609.683 0.25788 -4.28525 0
M  V30 6507 C 608.916 1.17566 -5.2059 0
M  V30 6508 O 609.139 2.41461 -5.16771 0
M  V30 6509 O 608.073 0.655407 -5.98321 0
M  V30 6510 H 611.899 -0.68318 -2.95916 0
M  V30 6511 H 609.484 -0.399784 -1.43952 0
M  V30 6512 H 611.366 1.57911 -3.90694 0
M  V30 6513 H 610.041 1.7498 -2.7233 0
M  V30 6514 H 608.948 -0.339566 -3.72556 0
M  V30 6515 H 610.281 -0.427154 -4.90343 0
M  V30 6516 N 611.933 1.52934 -0.380664 0
M  V30 6517 C 612.896 2.24809 0.446473 0
M  V30 6518 C 613.896 1.26133 0.997347 0
M  V30 6519 O 615.086 1.50297 0.880714 0
M  V30 6520 C 612.218 2.99649 1.62553 0
M  V30 6521 H 613.411 2.99343 -0.182677 0
M  V30 6522 H 610.964 1.55736 -0.132618 0
M  V30 6523 H 611.699 2.29395 2.29235 0
M  V30 6524 H 611.484 3.72066 1.23732 0
M  V30 6525 H 612.974 3.54246 2.21133 0
M  V30 6526 O 613.45 0.250515 1.59545 0
M  V30 6527 H 614.141 -0.324371 1.90965 0
M  V30 END ATOM
M  V30 BEGIN BOND
M  V30 END BOND
M  V30 END CTAB
M  END
$$$$
