drugbank_target|P05546 Heparin cofactor 2 (DB00407; DB01593; DB06271; DB09130; DB09258; DB14487; DB14533; DB14548)
 OpenBabel12092119393D

  0  0  0     0  0            999 V3000
M  V30 BEGIN CTAB
M  V30 COUNTS 8038 8120 0 0 0
M  V30 BEGIN ATOM
M  V30 1 H -0.908 1.98254 -0.117106 0
M  V30 2 N 0 1.576 0 0
M  V30 3 C 0.933 2.03868 1.02534 0
M  V30 4 C 1.911 0.928543 1.3348 0
M  V30 5 O 3.095 1.19667 1.45644 0
M  V30 6 C 0.222 2.43627 2.35294 0
M  V30 7 C -0.732 3.65373 2.2001 0
M  V30 8 S 0.101 5.13292 1.52614 0
M  V30 9 C 1.257 5.56322 2.86805 0
M  V30 10 H 1.49 2.90518 0.631377 0
M  V30 11 H -0.977 1.52953 0.210867 0
M  V30 12 H 0.981 2.67203 3.11629 0
M  V30 13 H -0.358 1.57376 2.7183 0
M  V30 14 H -1.165 3.90944 3.18086 0
M  V30 15 H -1.563 3.418 1.51819 0
M  V30 16 H 0.729 5.58782 3.83104 0
M  V30 17 H 1.672 6.56266 2.65933 0
M  V30 18 H 2.08 4.83886 2.90714 0
M  V30 19 N 1.4781 -0.272755 1.55222 0
M  V30 20 C 2.4251 -1.33716 1.88119 0
M  V30 21 C 3.3951 -1.49066 0.73271 0
M  V30 22 O 4.5801 -1.63469 0.984002 0
M  V30 23 C 1.7201 -2.69238 2.15882 0
M  V30 24 C 0.8331 -2.62108 3.43399 0
M  V30 25 C -0.0319 -3.89811 3.60861 0
M  V30 26 C -0.9929 -3.77193 4.8207 0
M  V30 27 N -1.8559 -4.9673 4.96189 0
M  V30 28 H 2.9841 -1.04962 2.78903 0
M  V30 29 H 0.5211 -0.507088 1.38083 0
M  V30 30 H 2.4791 -3.48089 2.29978 0
M  V30 31 H 1.1091 -2.96194 1.28331 0
M  V30 32 H 0.1611 -1.74967 3.37773 0
M  V30 33 H 1.4731 -2.48685 4.32386 0
M  V30 34 H 0.6271 -4.77103 3.74777 0
M  V30 35 H -0.6339 -4.06102 2.7006 0
M  V30 36 H -1.6289 -2.88284 4.68159 0
M  V30 37 H -0.4039 -3.62421 5.74307 0
M  V30 38 H -2.4579 -5.13431 4.08319 0
M  V30 39 H -2.5409 -4.85839 5.79221 0
M  V30 40 H -1.2729 -5.85594 5.1449 0
M  V30 41 N 2.9562 -1.48159 -0.537278 0
M  V30 42 C 3.9062 -1.5854 -1.63857 0
M  V30 43 C 4.8902 -0.442969 -1.54682 0
M  V30 44 O 6.0822 -0.69401 -1.62827 0
M  V30 45 C 3.2112 -1.62144 -3.02596 0
M  V30 46 C 2.2972 -2.81841 -3.16901 0
M  V30 47 N 2.6882 -4.06337 -3.01204 0
M  V30 48 C 0.9862 -2.79021 -3.47942 0
M  V30 49 C 1.6872 -4.86606 -3.18731 0
M  V30 50 N 0.6632 -4.19288 -3.45974 0
M  V30 51 H 4.4652 -2.5255 -1.50319 0
M  V30 52 H 1.9792 -1.4443 -0.742555 0
M  V30 53 H 3.9762 -1.67674 -3.81695 0
M  V30 54 H 2.6362 -0.69245 -3.17231 0
M  V30 55 H 3.6472 -4.36888 -2.78117 0
M  V30 56 H 0.3242 -1.95347 -3.6898 0
M  V30 57 H 1.7142 -5.95385 -3.11394 0
M  V30 58 N 4.4343 0.785586 -1.36625 0
M  V30 59 C 5.6593 1.57963 -1.34397 0
M  V30 60 C 6.0843 1.87964 0.071526 0
M  V30 61 O 5.4423 1.48182 1.0446 0
M  V30 62 C 5.4903 2.87511 -2.17646 0
M  V30 63 O 4.5943 3.81281 -1.57158 0
M  V30 64 H 3.9353 0.479014 -0.459828 0
M  V30 65 H 6.4653 0.973411 -1.79961 0
M  V30 66 H 6.4753 3.36745 -2.30362 0
M  V30 67 H 5.1503 2.65002 -3.20541 0
M  V30 68 H 3.7273 3.39885 -1.53403 0
M  V30 69 N 5.9124 1.20967 1.01018 0
M  V30 70 C 6.8424 0.988272 2.11555 0
M  V30 71 C 7.8234 -0.0849778 1.69888 0
M  V30 72 O 9.0084 0.0738202 1.9406 0
M  V30 73 C 6.1384 0.546528 3.42973 0
M  V30 74 C 5.0924 1.56375 3.9841 0
M  V30 75 C 4.4184 0.97842 5.25672 0
M  V30 76 C 5.7184 2.94922 4.31066 0
M  V30 77 H 7.4124 1.91276 2.30334 0
M  V30 78 H 4.9584 0.921073 1.1069 0
M  V30 79 H 6.9114 0.378839 4.19694 0
M  V30 80 H 5.6354 -0.413598 3.23971 0
M  V30 81 H 4.2944 1.71891 3.23804 0
M  V30 82 H 3.9424 0.0101688 5.02999 0
M  V30 83 H 3.6424 1.65784 5.63728 0
M  V30 84 H 5.1664 0.821939 6.05043 0
M  V30 85 H 6.5804 2.8288 4.9865 0
M  V30 86 H 4.9774 3.5983 4.80253 0
M  V30 87 H 6.0474 3.4616 3.39561 0
M  V30 88 N 7.3905 -1.2043 1.01659 0
M  V30 89 C 8.3385 -2.25249 0.580143 0
M  V30 90 C 9.3325 -1.65057 -0.381115 0
M  V30 91 O 10.5385 -1.78241 -0.251039 0
M  V30 92 H 6.9135 -0.732695 0.169299 0
M  V30 93 H 8.8845 -2.59389 1.47512 0
M  V30 94 C 7.6335 -3.47638 -0.065788 0
M  V30 95 H 6.9565 -3.94233 0.664874 0
M  V30 96 H 8.3965 -4.2268 -0.334282 0
M  V30 97 C 6.8555 -3.10447 -1.3086 0
M  V30 98 O 7.3855 -3.21981 -2.4019 0
M  V30 99 N 5.5915 -2.64996 -1.1927 0
M  V30 100 H 5.1385 -2.55811 -0.303064 0
M  V30 101 H 5.0965 -2.40482 -2.02523 0
M  V30 102 N 8.8686 -0.792821 -1.36206 0
M  V30 103 C 9.8316 -0.199459 -2.2833 0
M  V30 104 C 10.8316 0.605189 -1.48977 0
M  V30 105 O 12.0216 0.425685 -1.68919 0
M  V30 106 C 9.1536 0.723523 -3.33134 0
M  V30 107 H 10.3466 -1.01181 -2.82316 0
M  V30 108 H 7.8996 -0.562485 -1.45828 0
M  V30 109 H 8.6346 1.56008 -2.84309 0
M  V30 110 H 8.4196 0.148436 -3.91819 0
M  V30 111 H 9.9096 1.13344 -4.01924 0
M  V30 112 N 10.3467 1.47872 -0.545128 0
M  V30 113 C 11.2767 2.32661 0.197793 0
M  V30 114 C 12.2577 1.43041 0.920504 0
M  V30 115 O 13.4427 1.71912 0.90333 0
M  V30 116 C 10.5727 3.24569 1.23582 0
M  V30 117 C 9.5267 4.23333 0.630323 0
M  V30 118 C 8.8527 5.0448 1.77211 0
M  V30 119 C 10.1527 5.20704 -0.407974 0
M  V30 120 H 11.8467 2.95024 -0.510045 0
M  V30 121 H 9.3927 1.4187 -0.246731 0
M  V30 122 H 11.3457 3.8272 1.76362 0
M  V30 123 H 10.0697 2.60236 1.97344 0
M  V30 124 H 8.7287 3.6639 0.123922 0
M  V30 125 H 8.3767 4.36561 2.49847 0
M  V30 126 H 8.0767 5.71339 1.37281 0
M  V30 127 H 9.6007 5.65487 2.3034 0
M  V30 128 H 11.0147 5.7329 0.033305 0
M  V30 129 H 9.4117 5.95699 -0.725486 0
M  V30 130 H 10.4817 4.66917 -1.30828 0
M  V30 131 N 11.8248 0.280983 1.55075 0
M  V30 132 C 12.7548 -0.597469 2.25727 0
M  V30 133 C 13.7358 -1.15417 1.24952 0
M  V30 134 O 14.9208 -1.18722 1.53684 0
M  V30 135 C 12.0508 -1.7789 2.98283 0
M  V30 136 C 11.0048 -1.35347 4.06036 0
M  V30 137 C 10.3308 -2.61846 4.66198 0
M  V30 138 C 11.6308 -0.499354 5.19907 0
M  V30 139 H 13.3248 -0.00824265 2.99399 0
M  V30 140 H 10.8708 -0.0025244 1.44 0
M  V30 141 H 12.8238 -2.39937 3.46422 0
M  V30 142 H 11.5478 -2.39405 2.22155 0
M  V30 143 H 10.2068 -0.756156 3.58717 0
M  V30 144 H 9.8548 -3.21632 3.86732 0
M  V30 145 H 9.5548 -2.3409 5.38958 0
M  V30 146 H 11.0788 -3.24732 5.1709 0
M  V30 147 H 12.4928 -1.02498 5.64063 0
M  V30 148 H 10.8898 -0.316424 5.99265 0
M  V30 149 H 11.9598 0.480459 4.82514 0
M  V30 150 N 13.3029 -1.57598 0.00835791 0
M  V30 151 C 14.5519 -1.90107 -0.673968 0
M  V30 152 C 14.8649 -0.884275 -1.7447 0
M  V30 153 O 16.0709 -1.09987 -2.48224 0
M  V30 154 C 14.5269 -3.37497 -1.24995 0
M  V30 155 C 14.1349 -4.47491 -0.2136 0
M  V30 156 C 15.8789 -3.79104 -1.90999 0
M  V30 157 C 13.7859 -5.85963 -0.80005 0
M  V30 158 H 12.7159 -0.709393 -0.255495 0
M  V30 159 H 15.3669 -1.83365 0.0702693 0
M  V30 160 H 13.7489 -3.39102 -2.04513 0
M  V30 161 H 14.9229 -4.57414 0.557596 0
M  V30 162 H 13.2379 -4.14956 0.346474 0
M  V30 163 H 15.8349 -4.79901 -2.35795 0
M  V30 164 H 16.1779 -3.1306 -2.74407 0
M  V30 165 H 16.7109 -3.79833 -1.18203 0
M  V30 166 H 13.4499 -6.555 -0.00456708 0
M  V30 167 H 12.9699 -5.79687 -1.54021 0
M  V30 168 H 14.6489 -6.33884 -1.29615 0
M  V30 169 N 14.781 0.264519 -1.55364 0
M  V30 170 C 16.028 0.994986 -1.7637 0
M  V30 171 C 16.356 1.85976 -0.5695 0
M  V30 172 O 15.611 1.90509 0.44776 0
M  V30 173 C 15.91 1.9004 -3.02687 0
M  V30 174 C 15.576 1.19243 -4.34847 0
M  V30 175 C 14.238 0.996709 -4.70764 0
M  V30 176 C 16.59 0.689296 -5.16622 0
M  V30 177 C 13.918 0.285261 -5.86006 0
M  V30 178 C 16.27 -0.00860079 -6.32599 0
M  V30 179 C 14.934 -0.215963 -6.67151 0
M  V30 180 H 14.204 0.364091 -0.645383 0
M  V30 181 H 16.851 0.266543 -1.89636 0
M  V30 182 H 15.156 2.69533 -2.84357 0
M  V30 183 H 16.853 2.46695 -3.16137 0
M  V30 184 H 13.443 1.3549 -4.06621 0
M  V30 185 H 17.627 0.828108 -4.89342 0
M  V30 186 H 12.883 0.113961 -6.11294 0
M  V30 187 H 17.057 -0.406186 -6.95214 0
M  V30 188 H 14.684 -0.769217 -7.56298 0
M  V30 189 N 16.2591 1.48442 0.529413 0
M  V30 190 C 17.1891 1.65902 1.64313 0
M  V30 191 C 18.1701 0.507897 1.6234 0
M  V30 192 O 19.3551 0.740503 1.79528 0
M  V30 193 C 16.4851 1.69911 3.02898 0
M  V30 194 C 15.4391 2.8453 3.19729 0
M  V30 195 C 14.7651 2.73629 4.59381 0
M  V30 196 C 16.0651 4.25821 3.02447 0
M  V30 197 H 17.7591 2.5914 1.49955 0
M  V30 198 H 15.3051 1.24709 0.719982 0
M  V30 199 H 17.2581 1.80715 3.80684 0
M  V30 200 H 15.9821 0.732524 3.18279 0
M  V30 201 H 14.6411 2.73283 2.44361 0
M  V30 202 H 14.2891 1.74938 4.71599 0
M  V30 203 H 13.9891 3.50541 4.71588 0
M  V30 204 H 15.5131 2.86401 5.39265 0
M  V30 205 H 16.9271 4.37898 3.70024 0
M  V30 206 H 15.3241 5.03735 3.26146 0
M  V30 207 H 16.3941 4.42244 1.98867 0
M  V30 208 N 17.7372 -0.778329 1.37039 0
M  V30 209 C 18.9862 -1.53189 1.3121 0
M  V30 210 C 19.2992 -1.95328 -0.103095 0
M  V30 211 O 20.5052 -2.70012 -0.283826 0
M  V30 212 C 18.9612 -2.76591 2.30272 0
M  V30 213 C 18.5692 -2.41577 3.77286 0
M  V30 214 C 20.3132 -3.5455 2.33441 0
M  V30 215 C 18.2202 -3.61441 4.68096 0
M  V30 216 H 17.1502 -0.5751 0.487622 0
M  V30 217 H 19.8012 -0.853101 1.62464 0
M  V30 218 H 18.1832 -3.46326 1.92027 0
M  V30 219 H 19.3572 -1.79668 4.2433 0
M  V30 220 H 17.6722 -1.76806 3.76999 0
M  V30 221 H 20.2692 -4.43628 2.98493 0
M  V30 222 H 20.6122 -3.93936 1.34611 0
M  V30 223 H 21.1452 -2.91805 2.7036 0
M  V30 224 H 17.8842 -3.27142 5.6803 0
M  V30 225 H 17.4042 -4.22478 4.25761 0
M  V30 226 H 19.0832 -4.28335 4.8491 0
M  V30 227 N 19.2153 -1.21501 -1.00376 0
M  V30 228 C 20.4643 -1.02718 -1.73586 0
M  V30 229 C 20.7773 0.439589 -1.90596 0
M  V30 230 O 21.9833 0.746848 -2.61026 0
M  V30 231 C 20.4393 -1.78929 -3.1227 0
M  V30 232 C 20.0473 -3.29783 -3.03228 0
M  V30 233 C 21.7913 -1.68557 -3.89601 0
M  V30 234 C 19.6983 -3.98479 -4.36999 0
M  V30 235 H 18.6283 -0.380733 -0.650814 0
M  V30 236 H 21.2793 -1.45248 -1.1214 0
M  V30 237 H 19.6613 -1.29192 -3.74333 0
M  V30 238 H 20.8353 -3.86832 -2.50395 0
M  V30 239 H 19.1503 -3.40711 -2.39385 0
M  V30 240 H 21.7473 -2.17211 -4.88593 0
M  V30 241 H 22.0903 -0.644021 -4.11288 0
M  V30 242 H 22.6233 -2.15778 -3.34193 0
M  V30 243 H 19.3623 -5.02841 -4.20513 0
M  V30 244 H 18.8823 -3.46219 -4.89788 0
M  V30 245 H 20.5613 -4.03462 -5.05794 0
M  V30 246 N 20.6934 1.19889 -1.02296 0
M  V30 247 C 21.9214 1.9339 -0.735399 0
M  V30 248 C 22.3364 1.75148 0.704887 0
M  V30 249 O 21.6934 1.06954 1.47875 0
M  V30 250 C 21.7444 3.45313 -1.06962 0
M  V30 251 O 21.4654 3.62964 -2.45334 0
M  V30 252 C 22.9664 4.35948 -0.804021 0
M  V30 253 H 20.1864 0.61448 -0.269546 0
M  V30 254 H 22.7304 1.522 -1.36585 0
M  V30 255 H 20.8854 3.84359 -0.484455 0
M  V30 256 H 21.2994 4.56886 -2.57595 0
M  V30 257 H 22.7734 5.41174 -1.0879 0
M  V30 258 H 23.2504 4.3842 0.261691 0
M  V30 259 H 23.8564 4.02574 -1.37164 0
M  V30 260 N 22.1715 0.800033 1.35784 0
M  V30 261 C 23.3965 0.388511 2.03729 0
M  V30 262 C 23.8215 -0.990481 1.5991 0
M  V30 263 O 23.1795 -1.64013 0.772612 0
M  V30 264 C 23.2275 0.4726 3.5749 0
M  V30 265 O 22.3315 -0.51646 4.09153 0
M  V30 266 H 21.6725 0.163271 0.643614 0
M  V30 267 H 24.2025 1.0841 1.73518 0
M  V30 268 H 24.2125 0.34003 4.06581 0
M  V30 269 H 22.8875 1.47848 3.88734 0
M  V30 270 H 21.4645 -0.344673 3.71304 0
M  V30 271 N 23.6496 -1.47581 0.552962 0
M  V30 272 C 24.6126 -2.28439 -0.186605 0
M  V30 273 C 25.6126 -1.36706 -0.84665 0
M  V30 274 O 26.8026 -1.59378 -0.703164 0
M  V30 275 C 23.9346 -3.16264 -1.2724 0
M  V30 276 H 25.1276 -2.95294 0.523609 0
M  V30 277 H 22.6806 -1.532 0.309745 0
M  V30 278 H 23.4156 -2.54091 -2.01514 0
M  V30 279 H 23.2006 -3.83769 -0.803968 0
M  V30 280 H 24.6906 -3.77198 -1.79196 0
M  V30 281 N 25.1277 -0.289203 -1.54924 0
M  V30 282 C 26.3737 0.316922 -2.00916 0
M  V30 283 C 26.7287 1.52424 -1.17408 0
M  V30 284 O 26.0217 1.90097 -0.239536 0
M  V30 285 C 26.2157 0.736119 -3.49737 0
M  V30 286 C 26.0447 -0.429036 -4.47649 0
M  V30 287 C 24.8147 -0.917311 -4.96904 0
M  V30 288 C 27.0127 -1.27016 -4.98369 0
M  V30 289 N 24.9947 -2.05046 -5.78644 0
M  V30 290 C 26.3657 -2.25097 -5.77695 0
M  V30 291 C 28.4207 -1.30188 -4.80578 0
M  V30 292 C 27.1237 -3.26114 -6.41126 0
M  V30 293 C 29.1497 -2.30057 -5.44819 0
M  V30 294 C 28.5117 -3.2687 -6.23968 0
M  V30 295 H 24.6107 0.0807535 -0.777819 0
M  V30 296 H 27.1947 -0.416434 -1.90194 0
M  V30 297 H 25.3657 1.43867 -3.60773 0
M  V30 298 H 27.0977 1.32078 -3.82541 0
M  V30 299 H 23.8527 -0.494248 -4.71014 0
M  V30 300 H 24.2767 -2.62108 -6.24202 0
M  V30 301 H 28.9187 -0.567163 -4.18979 0
M  V30 302 H 26.6367 -4.00512 -7.01866 0
M  V30 303 H 30.2227 -2.33271 -5.32988 0
M  V30 304 H 29.1027 -4.02883 -6.72796 0
M  V30 305 N 26.6058 1.57591 -0.0167156 0
M  V30 306 C 27.8538 1.90906 0.663285 0
M  V30 307 C 28.1748 0.892509 1.73376 0
M  V30 308 O 27.4448 -0.0677623 1.95783 0
M  V30 309 H 26.0248 0.704637 0.247983 0
M  V30 310 H 28.6868 1.94803 -0.0615909 0
M  V30 311 H 27.7828 2.9116 1.12393 0
M  V30 312 N 28.0839 -0.256276 1.55502 0
M  V30 313 C 29.3319 -0.983672 1.76545 0
M  V30 314 C 29.6529 -1.86206 0.578982 0
M  V30 315 O 28.9229 -1.91656 -0.405577 0
M  V30 316 H 27.5029 -0.366191 0.651086 0
M  V30 317 H 30.1649 -0.276479 1.92929 0
M  V30 318 H 29.2609 -1.61087 2.67315 0
M  V30 319 N 29.562 -1.4872 -0.521534 0
M  V30 320 C 30.787 -1.61101 -1.30618 0
M  V30 321 C 31.212 -0.274611 -1.86085 0
M  V30 322 O 30.57 0.754937 -1.64834 0
M  V30 323 C 30.618 -2.66709 -2.4269 0
M  V30 324 O 29.722 -2.24456 -3.45967 0
M  V30 325 H 29.063 -0.539921 -0.386499 0
M  V30 326 H 31.593 -1.94767 -0.626645 0
M  V30 327 H 31.603 -2.88245 -2.88754 0
M  V30 328 H 30.278 -3.63727 -2.01682 0
M  V30 329 H 28.855 -2.13168 -3.05964 0
M  V30 330 N 31.0401 0.771051 -1.3745 0
M  V30 331 C 31.9871 1.88435 -1.3327 0
M  V30 332 C 32.9571 1.64914 -0.198136 0
M  V30 333 O 34.1421 1.86821 -0.387606 0
M  V30 334 C 31.2821 3.25509 -1.14622 0
M  V30 335 C 30.3951 3.60979 -2.37314 0
M  V30 336 C 29.5301 4.87265 -2.11533 0
M  V30 337 C 28.5691 5.15469 -3.30088 0
M  V30 338 N 27.7061 6.32944 -3.03853 0
M  V30 339 H 32.5461 1.91344 -2.28455 0
M  V30 340 H 30.0831 0.935466 -1.13523 0
M  V30 341 H 32.0411 4.04582 -1.01831 0
M  V30 342 H 30.6711 3.21974 -0.230837 0
M  V30 343 H 29.7231 2.76885 -2.60842 0
M  V30 344 H 31.0351 3.77759 -3.25729 0
M  V30 345 H 30.1891 5.74244 -1.95777 0
M  V30 346 H 28.9281 4.7259 -1.20457 0
M  V30 347 H 27.9331 4.26966 -3.46382 0
M  V30 348 H 29.1581 5.32052 -4.22016 0
M  V30 349 H 27.1041 6.19625 -2.15407 0
M  V30 350 H 27.0211 6.50143 -3.85812 0
M  V30 351 H 28.2891 7.22857 -2.91716 0
M  V30 352 N 32.5182 1.22032 0.997298 0
M  V30 353 C 33.7662 1.04016 1.73278 0
M  V30 354 C 34.0872 -0.426255 1.90284 0
M  V30 355 O 33.3572 -1.30694 1.45931 0
M  V30 356 H 31.9372 0.381897 0.642 0
M  V30 357 H 34.5992 1.5347 1.20137 0
M  V30 358 H 33.6952 1.51441 2.72896 0
M  V30 359 N 33.9963 -1.19345 1.0293 0
M  V30 360 C 35.4073 -1.70725 0.755633 0
M  V30 361 C 35.7583 -1.82326 -0.724676 0
M  V30 362 O 34.8833 -1.49471 -1.56484 0
M  V30 363 C 35.4783 -3.10084 1.36503 0
M  V30 364 C 34.0373 -3.58723 1.13994 0
M  V30 365 C 33.1843 -2.35577 1.46283 0
M  V30 366 H 36.1353 -1.0418 1.19718 0
M  V30 367 H 36.1563 -3.72787 0.762217 0
M  V30 368 H 35.6683 -3.01609 2.44241 0
M  V30 369 H 33.7693 -3.72512 0.0807901 0
M  V30 370 H 33.8823 -4.42816 1.82894 0
M  V30 371 H 32.2463 -2.38935 0.88217 0
M  V30 372 H 33.0293 -2.29731 2.55105 0
M  V30 373 N 35.4744 -0.807222 -1.35358 0
M  V30 374 C 36.4044 -0.232509 -2.3234 0
M  V30 375 C 37.3854 0.642386 -1.57504 0
M  V30 376 O 38.5704 0.572526 -1.85569 0
M  V30 377 C 35.7004 0.619238 -3.41735 0
M  V30 378 C 34.6544 -0.157215 -4.27711 0
M  V30 379 C 33.9804 0.816273 -5.28433 0
M  V30 380 C 35.2804 -1.35656 -5.04376 0
M  V30 381 H 36.9744 -1.04276 -2.80654 0
M  V30 382 H 34.5204 -0.50288 -1.34934 0
M  V30 383 H 36.4734 1.03137 -4.08584 0
M  V30 384 H 35.1974 1.46239 -2.92031 0
M  V30 385 H 33.8564 -0.550525 -3.62443 0
M  V30 386 H 33.5044 1.65494 -4.74996 0
M  V30 387 H 33.2044 0.301067 -5.86828 0
M  V30 388 H 34.7284 1.22659 -5.98153 0
M  V30 389 H 36.1424 -1.01927 -5.64166 0
M  V30 390 H 34.5394 -1.8063 -5.7227 0
M  V30 391 H 35.6094 -2.14288 -4.34981 0
M  V30 392 N 36.9525 1.47285 -0.560781 0
M  V30 393 C 38.2295 1.9558 0.0277798 0
M  V30 394 C 38.6095 1.5034 1.48192 0
M  V30 395 O 37.9575 0.743882 2.16052 0
M  V30 396 C 38.1675 3.48789 -0.121418 0
M  V30 397 C 39.5155 4.24594 0.0220912 0
M  V30 398 O 40.5395 3.56166 -0.0491439 0
M  V30 399 O 39.3985 5.46217 0.175958 0
M  V30 400 H 36.4925 0.824663 0.0621342 0
M  V30 401 H 39.0385 1.5767 -0.627556 0
M  V30 402 H 37.8105 3.74533 -1.13316 0
M  V30 403 H 37.4335 3.93473 0.571366 0
M  V30 404 N 38.4306 0.297415 1.54768 0
M  V30 405 C 39.3626 -0.613881 2.20826 0
M  V30 406 C 40.3756 -1.10032 1.19987 0
M  V30 407 O 41.5646 -1.01839 1.46598 0
M  V30 408 C 38.6646 -1.852 2.83821 0
M  V30 409 C 37.8376 -1.50865 4.10559 0
M  V30 410 C 36.8966 -2.60154 4.57391 0
M  V30 411 O 35.9226 -2.25398 5.2267 0
M  V30 412 N 37.1246 -3.90629 4.29406 0
M  V30 413 H 39.8896 -0.048389 2.99661 0
M  V30 414 H 37.4506 0.11946 1.61459 0
M  V30 415 H 39.4426 -2.57652 3.12086 0
M  V30 416 H 38.0126 -2.32597 2.08847 0
M  V30 417 H 37.2326 -0.616925 3.89343 0
M  V30 418 H 38.5206 -1.25458 4.9309 0
M  V30 419 H 37.9186 -4.21677 3.77101 0
M  V30 420 H 36.4756 -4.59391 4.62388 0
M  V30 421 N 39.9087 -1.5758 0.0250728 0
M  V30 422 C 40.8387 -2.13007 -0.956575 0
M  V30 423 C 41.8197 -1.0452 -1.342 0
M  V30 424 O 43.0047 -1.32332 -1.42133 0
M  V30 425 C 40.1347 -2.65386 -2.24026 0
M  V30 426 C 39.0887 -3.78623 -1.99571 0
M  V30 427 C 38.4147 -4.17414 -3.3417 0
M  V30 428 C 39.7147 -5.04867 -1.33814 0
M  V30 429 H 41.4087 -2.9528 -0.494991 0
M  V30 430 H 38.9547 -1.42042 -0.236651 0
M  V30 431 H 40.9077 -3.02794 -2.93076 0
M  V30 432 H 39.6317 -1.80268 -2.72343 0
M  V30 433 H 38.2907 -3.41646 -1.32941 0
M  V30 434 H 37.9387 -3.29284 -3.80238 0
M  V30 435 H 37.6387 -4.93719 -3.18615 0
M  V30 436 H 39.1627 -4.57402 -4.04495 0
M  V30 437 H 40.5767 -5.39888 -1.92857 0
M  V30 438 H 38.9737 -5.86144 -1.28669 0
M  V30 439 H 40.0437 -4.83904 -0.310561 0
M  V30 440 N 41.3868 0.248026 -1.55636 0
M  V30 441 C 42.2968 1.32859 -1.93354 0
M  V30 442 C 43.3128 1.52719 -0.833838 0
M  V30 443 O 44.4888 1.66363 -1.13513 0
M  V30 444 C 41.5538 2.66337 -2.21958 0
M  V30 445 C 40.6148 2.55008 -3.45354 0
M  V30 446 C 39.8478 3.82121 -3.72584 0
M  V30 447 O 40.0708 4.83951 -3.01907 0
M  V30 448 O 39.0048 3.80822 -4.6611 0
M  V30 449 H 42.8308 1.03862 -2.85388 0
M  V30 450 H 40.4158 0.448686 -1.42503 0
M  V30 451 H 42.2978 3.45216 -2.4167 0
M  V30 452 H 40.9728 2.95068 -1.33103 0
M  V30 453 H 39.8798 1.7442 -3.30951 0
M  V30 454 H 41.2128 2.31222 -4.34508 0
M  V30 455 N 42.8649 1.48995 0.513639 0
M  V30 456 C 43.8119 1.6473 1.61656 0
M  V30 457 C 44.7819 0.488984 1.58739 0
M  V30 458 O 45.9669 0.714478 1.76918 0
M  V30 459 C 43.1069 1.7082 2.99858 0
M  V30 460 C 42.2199 2.9787 3.12885 0
M  V30 461 C 41.3549 2.95017 4.41744 0
M  V30 462 C 40.3939 4.16702 4.48359 0
M  V30 463 N 39.5309 4.11832 5.68629 0
M  V30 464 H 44.3709 2.58909 1.47547 0
M  V30 465 H 41.9079 1.28382 0.71808 0
M  V30 466 H 43.8659 1.72331 3.79944 0
M  V30 467 H 42.4959 0.801181 3.12699 0
M  V30 468 H 41.5479 3.06029 2.25944 0
M  V30 469 H 42.8599 3.8786 3.13633 0
M  V30 470 H 42.0139 2.95021 5.30139 0
M  V30 471 H 40.7529 2.02784 4.43542 0
M  V30 472 H 39.7579 4.16955 3.58369 0
M  V30 473 H 40.9829 5.10113 4.48287 0
M  V30 474 H 38.9289 3.22428 5.71293 0
M  V30 475 H 38.8459 4.95543 5.7094 0
M  V30 476 H 40.1139 4.1592 6.59266 0
M  V30 477 N 44.343 -0.763751 1.37857 0
M  V30 478 C 45.591 -1.51957 1.33243 0
M  V30 479 C 45.912 -1.94835 -0.0801709 0
M  V30 480 O 45.182 -1.66894 -1.02582 0
M  V30 481 H 43.762 -0.563626 0.49024 0
M  V30 482 H 46.424 -0.908504 1.7243 0
M  V30 483 H 45.52 -2.41523 1.97669 0
M  V30 484 N 45.8211 -1.22559 -0.990812 0
M  V30 485 C 47.0691 -1.04933 -1.72724 0
M  V30 486 C 47.3901 0.416158 -1.90508 0
M  V30 487 O 46.6601 1.29918 -1.46622 0
M  V30 488 H 45.2401 -0.385296 -0.639965 0
M  V30 489 H 47.9021 -1.54105 -1.19322 0
M  V30 490 H 46.9981 -1.52886 -2.72089 0
M  V30 491 N 47.2992 1.18797 -1.03562 0
M  V30 492 C 48.2092 2.25913 -0.632505 0
M  V30 493 C 49.2252 1.70668 0.338882 0
M  V30 494 O 50.4012 2.00453 0.195076 0
M  V30 495 C 47.4662 3.467 0.00350942 0
M  V30 496 C 46.5272 4.17098 -1.01624 0
M  V30 497 C 45.7602 5.32119 -0.410478 0
M  V30 498 O 45.9832 5.64976 0.784725 0
M  V30 499 O 44.9172 5.9107 -1.13667 0
M  V30 500 H 48.7432 2.62648 -1.52478 0
M  V30 501 H 46.3282 1.25781 -0.806195 0
M  V30 502 H 48.2102 4.19878 0.35781 0
M  V30 503 H 46.8852 3.11798 0.869686 0
M  V30 504 H 45.7922 3.4601 -1.42224 0
M  V30 505 H 47.1252 4.55987 -1.85301 0
M  V30 506 N 48.7773 0.814389 1.34928 0
M  V30 507 C 50.0053 0.411136 2.02774 0
M  V30 508 C 50.4203 -0.980316 1.61354 0
M  V30 509 O 49.7773 -1.63299 0.814847 0
M  V30 510 C 49.8283 0.493865 3.58111 0
M  V30 511 O 49.5493 1.83047 3.98027 0
M  V30 512 C 51.0503 0.0844174 4.4322 0
M  V30 513 H 48.2703 0.166037 0.650133 0
M  V30 514 H 50.8143 1.10018 1.72384 0
M  V30 515 H 48.9693 -0.147006 3.87121 0
M  V30 516 H 49.3833 1.79872 4.92693 0
M  V30 517 H 50.8573 0.193404 5.51661 0
M  V30 518 H 51.3343 -0.97113 4.28329 0
M  V30 519 H 51.9403 0.69875 4.19521 0
M  V30 520 N 50.2554 -1.46986 0.568584 0
M  V30 521 C 51.2184 -2.28624 -0.162366 0
M  V30 522 C 52.2184 -1.37596 -0.832103 0
M  V30 523 O 53.4084 -1.60115 -0.68622 0
M  V30 524 C 50.5404 -3.17596 -1.23878 0
M  V30 525 H 51.7334 -2.94722 0.554899 0
M  V30 526 H 49.2864 -1.52863 0.325976 0
M  V30 527 H 50.0214 -2.56214 -1.98808 0
M  V30 528 H 49.8064 -3.846 -0.763219 0
M  V30 529 H 51.2964 -3.79078 -1.75185 0
M  V30 530 N 51.7335 -0.305618 -1.54608 0
M  V30 531 C 52.6655 0.602161 -2.21149 0
M  V30 532 C 53.6785 1.09394 -1.20569 0
M  V30 533 O 54.8675 1.0106 -1.47136 0
M  V30 534 C 51.9675 1.83692 -2.84799 0
M  V30 535 C 51.1405 1.48686 -4.11353 0
M  V30 536 C 50.1995 2.57725 -4.58764 0
M  V30 537 O 49.2255 2.22623 -5.23858 0
M  V30 538 N 50.4275 3.88346 -4.31471 0
M  V30 539 H 53.1925 0.0324966 -2.99682 0
M  V30 540 H 50.7535 -0.128021 -1.61393 0
M  V30 541 H 52.7455 2.55994 -3.13448 0
M  V30 542 H 51.3155 2.31486 -2.10078 0
M  V30 543 H 50.5355 0.596269 -3.89664 0
M  V30 544 H 51.8235 1.22842 -4.93748 0
M  V30 545 H 51.2215 4.19671 -3.79331 0
M  V30 546 H 49.7785 4.56932 -4.64818 0
M  V30 547 N 53.2116 1.57565 -0.0334293 0
M  V30 548 C 54.4366 1.96689 0.657895 0
M  V30 549 C 54.8616 0.910057 1.64619 0
M  V30 550 O 54.2196 -0.128598 1.80843 0
M  V30 551 C 54.2676 3.34905 1.33683 0
M  V30 552 O 53.3716 3.31574 2.45219 0
M  V30 553 H 52.7126 0.641205 0.172489 0
M  V30 554 H 55.2426 2.04372 -0.0965621 0
M  V30 555 H 55.2526 3.71234 1.69262 0
M  V30 556 H 53.9276 4.11366 0.612411 0
M  V30 557 H 52.5046 3.06968 2.11719 0
M  V30 558 N 54.6897 -0.239769 1.55765 0
M  V30 559 C 55.6527 -1.28038 1.90103 0
M  V30 560 C 56.6527 -1.40723 0.778055 0
M  V30 561 O 57.8427 -1.39301 1.04599 0
M  V30 562 C 54.9747 -2.65702 2.13577 0
M  V30 563 H 56.1677 -0.988048 2.83157 0
M  V30 564 H 53.7207 -0.479382 1.48767 0
M  V30 565 H 54.4557 -3.00063 1.23015 0
M  V30 566 H 54.2407 -2.57875 2.95369 0
M  V30 567 H 55.7307 -3.40828 2.41301 0
M  V30 568 N 56.1678 -1.49265 -0.50573 0
M  V30 569 C 57.4448 -1.49012 -1.26707 0
M  V30 570 C 57.8248 -0.215205 -2.1 0
M  V30 571 O 57.1728 0.802547 -2.13943 0
M  V30 572 C 57.3828 -2.7663 -2.12783 0
M  V30 573 C 58.7308 -3.25932 -2.72127 0
M  V30 574 O 59.7548 -2.77715 -2.23054 0
M  V30 575 O 58.6138 -4.09897 -3.61451 0
M  V30 576 H 55.7078 -0.596197 -0.57313 0
M  V30 577 H 58.2538 -1.61524 -0.52039 0
M  V30 578 H 57.0258 -3.60916 -1.5118 0
M  V30 579 H 56.6488 -2.66956 -2.94653 0
M  V30 580 N 57.6459 0.756429 -1.3826 0
M  V30 581 C 59.0569 1.33359 -1.30661 0
M  V30 582 C 59.4079 1.96161 0.0388875 0
M  V30 583 O 58.5329 1.94874 0.940918 0
M  V30 584 C 59.1279 2.42477 -2.36622 0
M  V30 585 C 57.6869 2.95922 -2.3261 0
M  V30 586 C 56.8339 1.69275 -2.19639 0
M  V30 587 H 59.7849 0.55552 -1.4866 0
M  V30 588 H 59.8059 3.22345 -2.02174 0
M  V30 589 H 59.3179 1.96739 -3.34538 0
M  V30 590 H 57.4189 3.45996 -1.38267 0
M  V30 591 H 57.5319 3.50494 -3.26636 0
M  V30 592 H 55.8959 1.92793 -1.66442 0
M  V30 593 H 56.6789 1.25619 -3.19491 0
M  V30 594 N 59.124 1.23083 0.984299 0
M  V30 595 C 60.056 0.96636 2.07832 0
M  V30 596 C 61.069 -0.0582135 1.62696 0
M  V30 597 O 62.258 0.176843 1.77622 0
M  V30 598 C 59.358 0.433397 3.36117 0
M  V30 599 C 58.531 1.51722 4.10243 0
M  V30 600 C 57.59 0.989821 5.16807 0
M  V30 601 O 56.616 1.67794 5.43906 0
M  V30 602 N 57.818 -0.184367 5.80207 0
M  V30 603 H 60.583 1.90824 2.31098 0
M  V30 604 H 58.144 1.13888 1.1507 0
M  V30 605 H 60.136 0.065699 4.04647 0
M  V30 606 H 58.706 -0.413806 3.09849 0
M  V30 607 H 57.926 2.05786 3.36223 0
M  V30 608 H 59.214 2.24619 4.56534 0
M  V30 609 H 58.612 -0.760062 5.60571 0
M  V30 610 H 57.169 -0.493366 6.4993 0
M  V30 611 N 60.6021 -1.18246 1.0419 0
M  V30 612 C 61.8481 -1.88793 0.75689 0
M  V30 613 C 62.2031 -1.78909 -0.707767 0
M  V30 614 O 61.4961 -1.1794 -1.50999 0
M  V30 615 C 61.6901 -3.38082 1.15911 0
M  V30 616 C 61.5191 -3.62496 2.66133 0
M  V30 617 C 60.2891 -3.7979 3.33298 0
M  V30 618 C 62.4871 -3.62976 3.64353 0
M  V30 619 N 60.4691 -3.91955 4.72487 0
M  V30 620 C 61.8401 -3.80869 4.89222 0
M  V30 621 C 63.8951 -3.46071 3.57965 0
M  V30 622 C 62.5981 -3.83608 6.08471 0
M  V30 623 C 64.6241 -3.50093 4.76643 0
M  V30 624 C 63.9861 -3.68484 6.00332 0
M  V30 625 H 60.0851 -0.709406 0.32904 0
M  V30 626 H 62.6691 -1.42022 1.33183 0
M  V30 627 H 60.8401 -3.83544 0.612238 0
M  V30 628 H 62.5721 -3.96202 0.824989 0
M  V30 629 H 59.3271 -3.79224 2.83701 0
M  V30 630 H 59.7511 -4.01857 5.44831 0
M  V30 631 H 64.3931 -3.30797 2.63311 0
M  V30 632 H 62.1111 -3.97669 7.0348 0
M  V30 633 H 65.6971 -3.38285 4.73344 0
M  V30 634 H 64.5771 -3.71488 6.90627 0
M  V30 635 N 62.0802 -0.821533 -1.34494 0
M  V30 636 C 62.9902 -0.244355 -2.33324 0
M  V30 637 C 64.0062 0.620527 -1.62559 0
M  V30 638 O 65.1822 0.528754 -1.94335 0
M  V30 639 C 62.2472 0.585368 -3.41723 0
M  V30 640 C 61.3082 -0.301752 -4.28238 0
M  V30 641 C 60.5412 0.488466 -5.3146 0
M  V30 642 O 60.7642 1.72186 -5.4379 0
M  V30 643 O 59.6982 -0.12848 -6.01763 0
M  V30 644 H 63.5242 -1.06231 -2.84515 0
M  V30 645 H 61.1092 -0.583645 -1.37528 0
M  V30 646 H 62.9912 1.05747 -4.07916 0
M  V30 647 H 61.6662 1.38068 -2.92778 0
M  V30 648 H 60.5732 -0.821315 -3.64973 0
M  V30 649 H 61.9062 -1.06138 -4.8062 0
M  V30 650 N 63.5583 1.46682 -0.576371 0
M  V30 651 C 64.4903 2.28341 0.198231 0
M  V30 652 C 65.5033 1.38141 0.861453 0
M  V30 653 O 66.6923 1.62797 0.732082 0
M  V30 654 C 63.7923 3.12986 1.29972 0
M  V30 655 C 62.9653 4.31271 0.729639 0
M  V30 656 C 62.0243 4.97363 1.71803 0
M  V30 657 O 61.0503 5.55156 1.25658 0
M  V30 658 N 62.2523 4.93796 3.05198 0
M  V30 659 H 65.0173 2.9546 -0.502324 0
M  V30 660 H 62.5783 1.56525 -0.413715 0
M  V30 661 H 64.5703 3.54066 1.96008 0
M  V30 662 H 63.1403 2.47984 1.90323 0
M  V30 663 H 62.3603 3.94052 -0.108012 0
M  V30 664 H 63.6483 5.07739 0.328438 0
M  V30 665 H 63.0463 4.48077 3.45317 0
M  V30 666 H 61.6033 5.38837 3.6674 0
M  V30 667 N 65.0364 0.313813 1.54444 0
M  V30 668 C 65.9664 -0.549454 2.26943 0
M  V30 669 C 66.9474 -1.12741 1.27372 0
M  V30 670 O 68.1324 -1.15436 1.56167 0
M  V30 671 C 65.2624 -1.71523 3.01989 0
M  V30 672 C 64.2164 -1.26703 4.08816 0
M  V30 673 C 63.5424 -2.51898 4.71647 0
M  V30 674 C 64.8424 -0.388962 5.2085 0
M  V30 675 H 66.5364 0.0552661 2.99349 0
M  V30 676 H 64.0824 0.0280207 1.43973 0
M  V30 677 H 66.0354 -2.32535 3.51433 0
M  V30 678 H 64.7594 -2.34639 2.27183 0
M  V30 679 H 63.4184 -0.679896 3.6024 0
M  V30 680 H 63.0664 -3.13356 3.93468 0
M  V30 681 H 62.7664 -2.22605 5.43802 0
M  V30 682 H 64.2904 -3.1369 5.23861 0
M  V30 683 H 65.7044 -0.905107 5.6611 0
M  V30 684 H 64.1014 -0.18924 5.99802 0
M  V30 685 H 65.1714 0.582699 4.81386 0
M  V30 686 N 66.5145 -1.57545 0.0417849 0
M  V30 687 C 67.4625 -2.12148 -0.953723 0
M  V30 688 C 68.4565 -1.05104 -1.32852 0
M  V30 689 O 69.6625 -1.23524 -1.30927 0
M  V30 690 H 66.0375 -0.677957 -0.325389 0
M  V30 691 H 68.0085 -2.94707 -0.467991 0
M  V30 692 C 66.7575 -2.6739 -2.22257 0
M  V30 693 H 66.0805 -3.49413 -1.94295 0
M  V30 694 H 67.5205 -3.09227 -2.90094 0
M  V30 695 C 65.9795 -1.60723 -2.96091 0
M  V30 696 O 66.5095 -1.01449 -3.88679 0
M  V30 697 N 64.7155 -1.32466 -2.58652 0
M  V30 698 H 64.2625 -1.80856 -1.83437 0
M  V30 699 H 64.2205 -0.61325 -3.08361 0
M  V30 700 N 67.9926 0.231505 -1.5589 0
M  V30 701 C 68.9406 1.30649 -1.92441 0
M  V30 702 C 69.9346 1.49037 -0.805254 0
M  V30 703 O 71.1406 1.50329 -0.990007 0
M  V30 704 H 67.5156 0.437812 -0.611412 0
M  V30 705 H 69.4866 0.970973 -2.82161 0
M  V30 706 C 68.2356 2.65179 -2.24889 0
M  V30 707 H 67.5586 2.51835 -3.10514 0
M  V30 708 H 68.9986 3.39234 -2.54355 0
M  V30 709 C 67.4576 3.19439 -1.07054 0
M  V30 710 O 67.9876 4.00371 -0.326499 0
M  V30 711 N 66.1936 2.77675 -0.85703 0
M  V30 712 H 65.7406 2.11969 -1.46379 0
M  V30 713 H 65.6986 3.14321 -0.0703223 0
M  V30 714 N 69.4707 1.49531 0.497807 0
M  V30 715 C 70.4177 1.66436 1.59899 0
M  V30 716 C 71.3877 0.505793 1.58212 0
M  V30 717 O 72.5727 0.733202 1.7615 0
M  V30 718 C 69.7127 1.7399 2.98029 0
M  V30 719 C 68.8257 3.01172 3.09708 0
M  V30 720 C 67.9607 2.99686 4.38591 0
M  V30 721 C 66.9997 4.21434 4.43914 0
M  V30 722 N 66.1367 4.1784 5.64229 0
M  V30 723 H 70.9767 2.60459 1.44793 0
M  V30 724 H 68.5137 1.29137 0.704423 0
M  V30 725 H 70.4717 1.76352 3.78095 0
M  V30 726 H 69.1017 0.834301 3.11832 0
M  V30 727 H 68.1537 3.08408 2.22685 0
M  V30 728 H 69.4657 3.91165 3.09502 0
M  V30 729 H 68.6197 3.00628 5.2698 0
M  V30 730 H 67.3587 2.07477 4.41367 0
M  V30 731 H 66.3637 4.20733 3.53926 0
M  V30 732 H 67.5887 5.14839 4.42851 0
M  V30 733 H 65.5347 3.28469 5.67841 0
M  V30 734 H 65.4517 5.01571 5.65652 0
M  V30 735 H 66.7197 4.22889 6.54817 0
M  V30 736 N 70.9488 -0.749086 1.3866 0
M  V30 737 C 71.8968 -1.88428 1.36373 0
M  V30 738 C 72.8908 -1.67561 0.248929 0
M  V30 739 O 74.0968 -1.75074 0.41821 0
M  V30 740 H 70.4718 -0.620023 0.42553 0
M  V30 741 H 72.4428 -1.87473 2.32156 0
M  V30 742 C 71.1918 -3.25961 1.21014 0
M  V30 743 H 70.5148 -3.42607 2.06059 0
M  V30 744 H 71.9548 -4.05625 1.23469 0
M  V30 745 C 70.4138 -3.36799 -0.0825941 0
M  V30 746 O 70.9438 -3.87517 -1.05797 0
M  V30 747 N 69.1498 -2.90258 -0.140939 0
M  V30 748 H 68.6968 -2.49174 0.653477 0
M  V30 749 H 68.6548 -2.97889 -1.00545 0
M  V30 750 N 72.4269 -1.23603 -0.977757 0
M  V30 751 C 73.3569 -1.04401 -2.0886 0
M  V30 752 C 74.3379 0.0399052 -1.70053 0
M  V30 753 O 75.5229 -0.125246 -1.93796 0
M  V30 754 C 72.6529 -0.637269 -3.41403 0
M  V30 755 C 71.6069 -1.66883 -3.94124 0
M  V30 756 C 70.9329 -1.11745 -5.22893 0
M  V30 757 C 72.2329 -3.06247 -4.23096 0
M  V30 758 H 73.9269 -1.97316 -2.25182 0
M  V30 759 H 71.4729 -0.950096 -1.08209 0
M  V30 760 H 73.4259 -0.48998 -4.18542 0
M  V30 761 H 72.1499 0.327557 -3.24953 0
M  V30 762 H 70.8089 -1.80416 -3.19133 0
M  V30 763 H 70.4569 -0.143527 -5.02795 0
M  V30 764 H 70.1569 -1.80672 -5.59134 0
M  V30 765 H 71.6809 -0.982067 -6.02651 0
M  V30 766 H 73.0949 -2.96001 -4.90975 0
M  V30 767 H 71.4919 -3.72436 -4.70544 0
M  V30 768 H 72.5619 -3.55041 -3.30263 0
M  V30 769 N 73.905 1.17692 -1.04816 0
M  V30 770 C 75.13 1.92327 -0.776207 0
M  V30 771 C 75.555 1.76082 0.661581 0
M  V30 772 O 74.913 1.076 1.45917 0
M  V30 773 C 74.961 3.41539 -1.15687 0
M  V30 774 O 74.065 4.11402 -0.286775 0
M  V30 775 H 73.406 0.599735 -0.284981 0
M  V30 776 H 75.936 1.49201 -1.4 0
M  V30 777 H 75.946 3.92269 -1.12202 0
M  V30 778 H 74.621 3.52684 -2.20425 0
M  V30 779 H 73.198 3.70939 -0.381903 0
M  V30 780 N 75.3831 0.828654 1.34056 0
M  V30 781 C 76.3161 0.199763 2.27324 0
M  V30 782 C 77.2941 -0.647168 1.49166 0
M  V30 783 O 78.4781 -0.609661 1.78369 0
M  V30 784 C 75.6051 -0.720455 3.30949 0
M  V30 785 C 74.6511 0.0496888 4.26471 0
M  V30 786 S 75.4841 1.40072 5.16856 0
M  V30 787 C 76.6401 0.485527 6.24014 0
M  V30 788 H 76.8731 0.990478 2.80316 0
M  V30 789 H 74.4061 0.624857 1.41191 0
M  V30 790 H 76.3641 -1.24581 3.91139 0
M  V30 791 H 75.0251 -1.48474 2.76793 0
M  V30 792 H 74.2181 -0.650104 4.9979 0
M  V30 793 H 73.8201 0.505779 3.70564 0
M  V30 794 H 76.1121 -0.320672 6.76741 0
M  V30 795 H 77.0551 1.18856 6.98054 0
M  V30 796 H 77.4631 0.0714109 5.64455 0
M  V30 797 N 76.8612 -1.46375 0.584142 0
M  V30 798 C 78.2722 -1.86031 0.157959 0
M  V30 799 C 78.6232 -1.48753 -1.27933 0
M  V30 800 O 77.7482 -0.903098 -1.96655 0
M  V30 801 C 78.3432 -3.37642 0.279892 0
M  V30 802 C 76.9022 -3.76289 -0.09143 0
M  V30 803 C 76.0492 -2.7039 0.615178 0
M  V30 804 H 79.0002 -1.37509 0.792274 0
M  V30 805 H 79.0212 -3.77275 -0.494364 0
M  V30 806 H 78.5332 -3.64742 1.32607 0
M  V30 807 H 76.6342 -3.54806 -1.13769 0
M  V30 808 H 76.7472 -4.78246 0.285886 0
M  V30 809 H 75.1112 -2.5464 0.0552833 0
M  V30 810 H 75.8942 -3.0033 1.66303 0
M  V30 811 N 78.3393 -0.321999 -1.54275 0
M  V30 812 C 79.2693 0.537411 -2.27231 0
M  V30 813 C 80.2503 1.12064 -1.27968 0
M  V30 814 O 81.4353 1.14606 -1.56777 0
M  V30 815 C 78.5653 1.69919 -3.02894 0
M  V30 816 C 77.5193 1.24534 -4.09482 0
M  V30 817 C 76.8453 2.49394 -4.72977 0
M  V30 818 C 78.1453 0.361335 -5.21049 0
M  V30 819 H 79.8393 -0.0711406 -2.99315 0
M  V30 820 H 77.3853 -0.0356555 -1.43956 0
M  V30 821 H 79.3383 2.30668 -3.52662 0
M  V30 822 H 78.0623 2.33431 -2.28424 0
M  V30 823 H 76.7213 0.660782 -3.60596 0
M  V30 824 H 76.3693 3.11265 -3.95124 0
M  V30 825 H 76.0693 2.19718 -5.44975 0
M  V30 826 H 77.5933 3.10908 -5.25517 0
M  V30 827 H 79.0073 0.875072 -5.66582 0
M  V30 828 H 77.4043 0.157428 -5.99893 0
M  V30 829 H 78.4743 -0.60822 -4.8107 0
M  V30 830 N 79.8174 1.5752 -0.0501392 0
M  V30 831 C 80.7474 2.14502 0.922566 0
M  V30 832 C 81.7284 1.06642 1.3252 0
M  V30 833 O 82.9134 1.34577 1.4001 0
M  V30 834 C 80.0434 2.68916 2.19776 0
M  V30 835 C 78.9974 3.8175 1.93523 0
M  V30 836 C 78.3234 4.22677 3.27487 0
M  V30 837 C 79.6234 5.06932 1.25765 0
M  V30 838 H 81.3174 2.9603 0.447952 0
M  V30 839 H 78.8634 1.42401 0.214024 0
M  V30 840 H 80.8164 3.07419 2.88222 0
M  V30 841 H 79.5404 1.84578 2.69441 0
M  V30 842 H 78.1994 3.43718 1.27489 0
M  V30 843 H 77.8474 3.35291 3.74952 0
M  V30 844 H 77.5474 4.98725 3.1072 0
M  V30 845 H 79.0714 4.63779 3.97166 0
M  V30 846 H 80.4854 5.42888 1.84244 0
M  V30 847 H 78.8824 5.88116 1.19328 0
M  V30 848 H 79.9524 4.84337 0.233536 0
M  V30 849 N 81.2955 -0.223234 1.56011 0
M  V30 850 C 82.7065 -0.790368 1.69145 0
M  V30 851 C 83.0575 -1.85055 0.651845 0
M  V30 852 O 82.1825 -2.15498 -0.197359 0
M  V30 853 C 82.7775 -1.4404 3.06656 0
M  V30 854 C 81.3365 -1.95494 3.2165 0
M  V30 855 C 80.4835 -0.814506 2.65068 0
M  V30 856 H 83.4345 0.00139011 1.587 0
M  V30 857 H 83.4555 -2.30916 3.0242 0
M  V30 858 H 82.9675 -0.668543 3.82298 0
M  V30 859 H 81.0685 -2.75487 2.50874 0
M  V30 860 H 81.1815 -2.13607 4.28846 0
M  V30 861 H 79.5455 -1.22137 2.23505 0
M  V30 862 H 80.3285 -0.0553515 3.43255 0
M  V30 863 N 82.7736 -1.49793 -0.48987 0
M  V30 864 C 83.7366 -1.66752 -1.57246 0
M  V30 865 C 84.7366 -0.538867 -1.51502 0
M  V30 866 O 85.9266 -0.805545 -1.54456 0
M  V30 867 C 83.0586 -1.67528 -2.96896 0
M  V30 868 H 84.2516 -2.63321 -1.43534 0
M  V30 869 H 81.8046 -1.38992 -0.714914 0
M  V30 870 H 82.5396 -0.725837 -3.16073 0
M  V30 871 H 82.3246 -2.49504 -3.02473 0
M  V30 872 H 83.8146 -1.82667 -3.7553 0
M  V30 873 N 84.2517 0.741722 -1.39055 0
M  V30 874 C 85.5287 1.49252 -1.26425 0
M  V30 875 C 85.9087 2.10705 0.129144 0
M  V30 876 O 85.2567 1.98045 1.13976 0
M  V30 877 C 85.4667 2.54934 -2.38347 0
M  V30 878 C 86.8147 3.21506 -2.77343 0
M  V30 879 O 87.8387 2.65245 -2.37747 0
M  V30 880 O 86.6977 4.23294 -3.45665 0
M  V30 881 H 83.7917 0.662451 -0.495064 0
M  V30 882 H 86.3377 0.776121 -1.50912 0
M  V30 883 H 85.1097 2.07857 -3.31529 0
M  V30 884 H 84.7327 3.34141 -2.15489 0
M  V30 885 N 85.7298 1.2412 0.971189 0
M  V30 886 C 86.9768 1.07881 1.71371 0
M  V30 887 C 87.3048 -0.382901 1.90694 0
M  V30 888 O 86.5598 -1.29945 1.46331 0
M  V30 889 C 86.8588 1.75983 3.11071 0
M  V30 890 C 86.5248 3.25909 3.11599 0
M  V30 891 C 85.1868 3.66813 3.11451 0
M  V30 892 C 87.5388 4.21771 3.062 0
M  V30 893 C 84.8668 5.02021 3.03631 0
M  V30 894 C 87.2188 5.56982 2.99923 0
M  V30 895 C 85.8828 5.97237 2.98102 0
M  V30 896 H 85.1528 0.394764 0.62709 0
M  V30 897 H 87.7998 1.54176 1.13587 0
M  V30 898 H 86.1048 1.22072 3.72298 0
M  V30 899 H 87.8018 1.60887 3.6731 0
M  V30 900 H 84.3918 2.93353 3.12477 0
M  V30 901 H 88.5758 3.91172 3.05447 0
M  V30 902 H 83.8318 5.32411 3.0058 0
M  V30 903 H 88.0058 6.30969 2.94704 0
M  V30 904 H 85.6328 7.01967 2.91798 0
M  V30 905 N 87.2079 -1.17134 1.05439 0
M  V30 906 C 88.1579 -2.1919 0.627675 0
M  V30 907 C 89.1419 -1.57328 -0.337147 0
M  V30 908 O 90.3339 -1.76329 -0.153976 0
M  V30 909 C 87.4629 -3.43299 0.00651435 0
M  V30 910 C 86.5489 -4.12255 0.995312 0
M  V30 911 N 86.9399 -4.56997 2.16765 0
M  V30 912 C 85.2379 -4.38316 0.824336 0
M  V30 913 C 85.9389 -5.10239 2.7934 0
M  V30 914 N 84.9149 -5.02595 2.07122 0
M  V30 915 H 88.7169 -2.5149 1.52086 0
M  V30 916 H 86.2309 -1.33491 0.924868 0
M  V30 917 H 88.2279 -4.15693 -0.316965 0
M  V30 918 H 86.8879 -3.1249 -0.882033 0
M  V30 919 H 87.8989 -4.51006 2.54587 0
M  V30 920 H 84.5759 -4.17498 -0.0129526 0
M  V30 921 H 85.9659 -5.54961 3.78772 0
M  V30 922 N 88.686 -0.835752 -1.33615 0
M  V30 923 C 89.633 -0.26473 -2.29277 0
M  V30 924 C 90.603 0.617712 -1.54187 0
M  V30 925 O 91.788 0.556641 -1.825 0
M  V30 926 C 88.928 0.556777 -3.40579 0
M  V30 927 C 88.041 -0.349339 -4.30585 0
M  V30 928 C 87.176 0.482969 -5.29 0
M  V30 929 C 86.215 -0.421732 -6.10645 0
M  V30 930 N 85.352 0.372262 -7.01112 0
M  V30 931 H 90.192 -1.08582 -2.77514 0
M  V30 932 H 87.729 -0.546927 -1.36554 0
M  V30 933 H 89.687 1.04852 -4.03809 0
M  V30 934 H 88.317 1.34286 -2.93542 0
M  V30 935 H 87.369 -0.959372 -3.68104 0
M  V30 936 H 88.681 -1.04445 -4.87742 0
M  V30 937 H 87.835 1.03866 -5.97743 0
M  V30 938 H 86.574 1.21153 -4.72412 0
M  V30 939 H 85.579 -0.989464 -5.40823 0
M  V30 940 H 86.804 -1.14861 -6.69316 0
M  V30 941 H 84.75 1.08426 -6.46977 0
M  V30 942 H 84.667 -0.264198 -7.55538 0
M  V30 943 H 85.935 0.910293 -7.74167 0
M  V30 944 N 90.1641 1.46063 -0.591896 0
M  V30 945 C 91.0741 2.34192 0.13831 0
M  V30 946 C 92.0901 1.50305 0.876608 0
M  V30 947 O 93.2661 1.8315 0.837728 0
M  V30 948 C 90.3311 3.27656 1.13326 0
M  V30 949 C 89.3921 4.27445 0.39863 0
M  V30 950 C 88.6251 5.16443 1.34618 0
M  V30 951 O 88.8481 5.08553 2.58321 0
M  V30 952 O 87.7821 5.95843 0.851768 0
M  V30 953 H 91.6081 2.98002 -0.58552 0
M  V30 954 H 89.1931 1.45188 -0.352239 0
M  V30 955 H 91.0751 3.85291 1.70671 0
M  V30 956 H 89.7501 2.6643 1.83839 0
M  V30 957 H 88.6571 3.73471 -0.216895 0
M  V30 958 H 89.9901 4.91482 -0.265709 0
M  V30 959 N 91.6422 0.330177 1.54103 0
M  V30 960 C 92.5902 -0.548226 2.26047 0
M  V30 961 C 93.5842 -1.11309 1.27698 0
M  V30 962 O 94.7902 -1.06036 1.45452 0
M  V30 963 H 91.1652 -0.195456 0.726155 0
M  V30 964 H 93.1362 0.0807567 2.98291 0
M  V30 965 C 91.8852 -1.69415 3.03634 0
M  V30 966 H 91.2082 -1.26876 3.79134 0
M  V30 967 H 92.6482 -2.28423 3.5721 0
M  V30 968 C 91.1072 -2.61569 2.12328 0
M  V30 969 O 91.6372 -3.63462 1.7105 0
M  V30 970 N 89.8432 -2.29952 1.77681 0
M  V30 971 H 89.3902 -1.47134 2.11446 0
M  V30 972 H 89.3482 -2.91871 1.16869 0
M  V30 973 N 93.1203 -1.57491 0.0584922 0
M  V30 974 C 94.3483 -1.97296 -0.623037 0
M  V30 975 C 94.7633 -0.936338 -1.63946 0
M  V30 976 O 94.1203 0.0785981 -1.82331 0
M  V30 977 C 94.1713 -3.37183 -1.30345 0
M  V30 978 O 93.8923 -4.36872 -0.32773 0
M  V30 979 C 95.3933 -3.91788 -2.07406 0
M  V30 980 H 92.6133 -0.649153 -0.169826 0
M  V30 981 H 95.1573 -2.04106 0.12696 0
M  V30 982 H 93.3123 -3.31502 -2.00463 0
M  V30 983 H 93.7263 -5.18141 -0.814269 0
M  V30 984 H 95.2003 -4.91926 -2.50425 0
M  V30 985 H 95.6773 -3.27609 -2.92521 0
M  V30 986 H 96.2833 -4.00829 -1.42184 0
M  V30 987 N 94.5984 0.214957 -1.56127 0
M  V30 988 C 95.8444 0.939762 -1.79712 0
M  V30 989 C 96.1774 1.83723 -0.629247 0
M  V30 990 O 95.4524 1.90925 0.371197 0
M  V30 991 C 95.7354 1.77306 -3.13424 0
M  V30 992 C 95.5884 0.90164 -4.40671 0
M  V30 993 C 96.9074 2.74956 -3.43638 0
M  V30 994 H 94.0264 0.340214 -0.653776 0
M  V30 995 H 96.6684 0.20824 -1.88855 0
M  V30 996 H 94.8184 2.39673 -3.0576 0
M  V30 997 H 96.4904 0.294206 -4.60361 0
M  V30 998 H 94.7334 0.207368 -4.33304 0
M  V30 999 H 95.4044 1.51923 -5.30682 0
M  V30 1000 H 97.8804 2.22724 -3.51473 0
M  V30 1001 H 96.7564 3.30358 -4.38355 0
M  V30 1002 H 97.0174 3.53023 -2.66134 0
M  V30 1003 N 96.0765 1.50051 0.48192 0
M  V30 1004 C 97.3045 1.64237 1.25832 0
M  V30 1005 C 97.7195 0.321336 1.86045 0
M  V30 1006 O 97.0765 -0.695478 1.68729 0
M  V30 1007 C 97.1275 2.72548 2.37487 0
M  V30 1008 O 96.8485 3.99529 1.79745 0
M  V30 1009 C 98.3495 2.9761 3.28547 0
M  V30 1010 H 95.5695 0.55237 0.380957 0
M  V30 1011 H 98.1135 1.96207 0.576467 0
M  V30 1012 H 96.2685 2.43303 3.01467 0
M  V30 1013 H 96.6825 4.59342 2.5319 0
M  V30 1014 H 98.1565 3.77084 4.03127 0
M  V30 1015 H 98.6335 2.0826 3.86684 0
M  V30 1016 H 99.2395 3.28345 2.70314 0
M  V30 1017 N 97.5546 -0.734337 1.39446 0
M  V30 1018 C 98.5026 -1.86971 1.38364 0
M  V30 1019 C 99.4966 -1.67288 0.266687 0
M  V30 1020 O 100.703 -1.74621 0.436755 0
M  V30 1021 H 97.0776 -0.615474 0.432082 0
M  V30 1022 H 99.0486 -1.85 2.34132 0
M  V30 1023 C 97.7976 -3.2466 1.24465 0
M  V30 1024 H 97.1206 -3.40402 2.09682 0
M  V30 1025 H 98.5606 -4.04292 1.27764 0
M  V30 1026 C 97.0196 -3.36867 -0.0468674 0
M  V30 1027 O 97.5496 -3.88618 -1.01681 0
M  V30 1028 N 95.7556 -2.90391 -0.110145 0
M  V30 1029 H 95.3026 -2.48466 0.679868 0
M  V30 1030 H 95.2606 -2.98939 -0.973799 0
M  V30 1031 N 99.0327 -1.24633 -0.964593 0
M  V30 1032 C 100.31 -0.995809 -1.68354 0
M  V30 1033 C 100.69 0.480964 -2.05548 0
M  V30 1034 O 100.038 1.45599 -1.76105 0
M  V30 1035 C 100.248 -1.92177 -2.91323 0
M  V30 1036 C 101.596 -2.19446 -3.63495 0
M  V30 1037 O 102.62 -1.89855 -3.01386 0
M  V30 1038 O 101.479 -2.69714 -4.75307 0
M  V30 1039 H 98.5727 -0.376854 -0.736146 0
M  V30 1040 H 101.119 -1.35745 -1.0184 0
M  V30 1041 H 99.8907 -2.91938 -2.60553 0
M  V30 1042 H 99.5137 -1.56349 -3.65569 0
M  V30 1043 N 100.511 1.16574 -1.06058 0
M  V30 1044 C 101.757 1.87565 -0.78683 0
M  V30 1045 C 102.112 1.80012 0.679214 0
M  V30 1046 O 101.405 1.20327 1.49104 0
M  V30 1047 C 101.599 3.36195 -1.21275 0
M  V30 1048 C 101.428 3.58216 -2.71866 0
M  V30 1049 C 100.198 3.7444 -3.39298 0
M  V30 1050 C 102.396 3.57134 -3.70081 0
M  V30 1051 N 100.378 3.84389 -4.78663 0
M  V30 1052 C 101.749 3.73038 -4.9522 0
M  V30 1053 C 103.804 3.40332 -3.63426 0
M  V30 1054 C 102.507 3.73879 -6.14497 0
M  V30 1055 C 104.533 3.42466 -4.82153 0
M  V30 1056 C 103.895 3.58887 -6.06118 0
M  V30 1057 H 99.9938 0.704081 -0.340284 0
M  V30 1058 H 102.578 1.39885 -1.35426 0
M  V30 1059 H 100.749 3.82522 -0.673179 0
M  V30 1060 H 102.481 3.94839 -0.887917 0
M  V30 1061 H 99.2358 3.74662 -2.89699 0
M  V30 1062 H 99.6598 3.93138 -5.51155 0
M  V30 1063 H 104.302 3.26566 -2.68541 0
M  V30 1064 H 102.02 3.86427 -7.09718 0
M  V30 1065 H 105.606 3.30712 -4.78666 0
M  V30 1066 H 104.486 3.60454 -6.9645 0
M  V30 1067 N 101.989 0.842826 1.3317 0
M  V30 1068 C 103.238 0.436738 1.96915 0
M  V30 1069 C 103.551 -1.01025 1.67491 0
M  V30 1070 O 104.757 -1.5212 2.24881 0
M  V30 1071 C 103.213 0.730021 3.52418 0
M  V30 1072 C 102.821 2.19195 3.90714 0
M  V30 1073 C 104.565 0.391076 4.22695 0
M  V30 1074 C 102.472 2.42907 5.39212 0
M  V30 1075 H 101.402 0.15958 0.736919 0
M  V30 1076 H 104.053 1.03196 1.51733 0
M  V30 1077 H 102.435 0.0643755 3.95948 0
M  V30 1078 H 103.609 2.8984 3.58231 0
M  V30 1079 H 101.924 2.49425 3.33431 0
M  V30 1080 H 104.521 0.545817 5.31907 0
M  V30 1081 H 104.864 -0.666294 4.10933 0
M  V30 1082 H 105.397 1.01212 3.84709 0
M  V30 1083 H 102.136 3.47224 5.55982 0
M  V30 1084 H 101.656 1.76827 5.73142 0
M  V30 1085 H 103.335 2.2626 6.06148 0
M  V30 1086 N 103.467 -1.45747 0.599634 0
M  V30 1087 C 104.878 -1.85853 0.177681 0
M  V30 1088 C 105.229 -1.50102 -1.26348 0
M  V30 1089 O 104.354 -0.923905 -1.95686 0
M  V30 1090 C 104.949 -3.37326 0.315688 0
M  V30 1091 C 103.508 -3.76365 -0.0515144 0
M  V30 1092 C 102.655 -2.69722 0.643822 0
M  V30 1093 H 105.606 -1.36661 0.806814 0
M  V30 1094 H 105.627 -3.77778 -0.454321 0
M  V30 1095 H 105.139 -3.63315 1.36468 0
M  V30 1096 H 103.24 -3.55993 -1.09999 0
M  V30 1097 H 103.353 -4.77916 0.336594 0
M  V30 1098 H 101.717 -2.54567 0.0822881 0
M  V30 1099 H 102.5 -2.98549 1.6948 0
M  V30 1100 N 104.945 -0.338344 -1.53925 0
M  V30 1101 C 105.855 0.529421 -2.28548 0
M  V30 1102 C 106.871 1.11645 -1.3346 0
M  V30 1103 O 108.047 1.13325 -1.66492 0
M  V30 1104 C 105.112 1.66713 -3.03987 0
M  V30 1105 C 104.173 1.11041 -4.14691 0
M  V30 1106 C 103.406 2.19389 -4.86522 0
M  V30 1107 O 103.629 3.40013 -4.57982 0
M  V30 1108 O 102.563 1.83976 -5.73094 0
M  V30 1109 H 106.389 -0.0770399 -3.03602 0
M  V30 1110 H 103.974 -0.103555 -1.49041 0
M  V30 1111 H 105.856 2.32918 -3.5118 0
M  V30 1112 H 104.531 2.25949 -2.31794 0
M  V30 1113 H 103.438 0.413024 -3.71813 0
M  V30 1114 H 104.771 0.562975 -4.8897 0
M  V30 1115 N 106.423 1.57458 -0.0668435 0
M  V30 1116 C 107.671 1.92919 0.602214 0
M  V30 1117 C 107.992 0.947215 1.70449 0
M  V30 1118 O 107.262 -0.00544117 1.95899 0
M  V30 1119 H 105.842 0.71217 0.22544 0
M  V30 1120 H 108.504 1.94508 -0.123535 0
M  V30 1121 H 107.6 2.94589 1.03073 0
M  V30 1122 N 107.901 -0.206675 1.56239 0
M  V30 1123 C 108.811 -1.27686 1.96808 0
M  V30 1124 C 109.827 -1.50455 0.874035 0
M  V30 1125 O 111.003 -1.63295 1.17884 0
M  V30 1126 C 108.068 -2.60358 2.28942 0
M  V30 1127 C 107.129 -2.45762 3.51994 0
M  V30 1128 C 106.362 -3.72108 3.82585 0
M  V30 1129 O 106.585 -4.75776 3.14631 0
M  V30 1130 O 105.519 -3.6833 4.76043 0
M  V30 1131 H 109.345 -0.962593 2.88041 0
M  V30 1132 H 106.93 -0.410746 1.43643 0
M  V30 1133 H 108.812 -3.38687 2.50737 0
M  V30 1134 H 107.487 -2.91435 1.4088 0
M  V30 1135 H 106.394 -1.65584 3.35459 0
M  V30 1136 H 107.727 -2.19621 4.40486 0
M  V30 1137 N 109.379 -1.50304 -0.473955 0
M  V30 1138 C 110.289 -1.7174 -1.5982 0
M  V30 1139 C 111.305 -0.600457 -1.63311 0
M  V30 1140 O 112.481 -0.878441 -1.81233 0
M  V30 1141 C 109.546 -1.80427 -2.96052 0
M  V30 1142 C 108.607 -3.04148 -3.02972 0
M  V30 1143 C 107.84 -3.12411 -4.32706 0
M  V30 1144 O 108.063 -2.27542 -5.23049 0
M  V30 1145 O 106.997 -4.05113 -4.45159 0
M  V30 1146 H 110.823 -2.67035 -1.44657 0
M  V30 1147 H 108.408 -1.34366 -0.653148 0
M  V30 1148 H 110.29 -1.88338 -3.7697 0
M  V30 1149 H 108.965 -0.883156 -3.11419 0
M  V30 1150 H 107.872 -3.0174 -2.21142 0
M  V30 1151 H 109.205 -3.95829 -2.92541 0
M  V30 1152 N 110.857 0.726932 -1.39834 0
M  V30 1153 C 112.134 1.47902 -1.28001 0
M  V30 1154 C 112.514 2.1083 0.106789 0
M  V30 1155 O 111.862 1.99242 1.11869 0
M  V30 1156 C 112.072 2.52392 -2.41038 0
M  V30 1157 C 113.42 3.18546 -2.80737 0
M  V30 1158 O 114.444 2.62708 -2.40547 0
M  V30 1159 O 113.303 4.19604 -3.50135 0
M  V30 1160 H 110.397 0.657163 -0.502062 0
M  V30 1161 H 112.943 0.760071 -1.51727 0
M  V30 1162 H 111.715 2.04329 -3.33715 0
M  V30 1163 H 111.338 3.31837 -2.19021 0
M  V30 1164 N 112.336 1.25143 0.95797 0
M  V30 1165 C 113.613 1.00472 1.67823 0
M  V30 1166 C 113.993 -0.470056 2.058 0
M  V30 1167 O 113.341 -1.44663 1.76875 0
M  V30 1168 C 113.551 1.9372 2.90299 0
M  V30 1169 C 114.899 2.21371 3.62326 0
M  V30 1170 O 115.923 1.91451 3.00375 0
M  V30 1171 O 114.782 2.72231 4.7387 0
M  V30 1172 H 111.876 0.380752 0.734137 0
M  V30 1173 H 114.422 1.36283 1.01119 0
M  V30 1174 H 113.194 2.93316 2.59001 0
M  V30 1175 H 112.817 1.58286 3.64735 0
M  V30 1176 N 113.814 -1.1601 1.06675 0
M  V30 1177 C 115.091 -1.82679 0.699114 0
M  V30 1178 C 115.471 -1.94559 -0.819137 0
M  V30 1179 O 114.819 -1.49169 -1.73092 0
M  V30 1180 C 115.029 -3.19445 1.40555 0
M  V30 1181 C 116.377 -3.95171 1.55323 0
M  V30 1182 O 117.401 -3.28976 1.36577 0
M  V30 1183 O 116.26 -5.13833 1.86112 0
M  V30 1184 H 113.354 -0.788954 0.247951 0
M  V30 1185 H 115.9 -1.23179 1.16726 0
M  V30 1186 H 114.672 -3.05856 2.44065 0
M  V30 1187 H 114.295 -3.86625 0.927733 0
M  V30 1188 N 115.292 -0.849877 -1.32721 0
M  V30 1189 C 116.522 -0.46408 -2.0132 0
M  V30 1190 C 116.93 0.94246 -1.64056 0
M  V30 1191 O 116.273 1.6257 -0.855379 0
M  V30 1192 C 116.335 -0.517887 -3.5575 0
M  V30 1193 C 115.999 -1.88248 -4.16427 0
M  V30 1194 C 116.996 -2.84726 -4.35002 0
M  V30 1195 C 114.681 -2.17832 -4.52609 0
M  V30 1196 C 116.675 -4.08945 -4.8892 0
M  V30 1197 C 114.362 -3.42304 -5.06232 0
M  V30 1198 C 115.36 -4.37677 -5.24335 0
M  V30 1199 O 115.048 -5.59946 -5.76815 0
M  V30 1200 H 114.78 -0.181327 -0.651227 0
M  V30 1201 H 117.334 -1.14713 -1.70382 0
M  V30 1202 H 115.564 0.221997 -3.86062 0
M  V30 1203 H 117.253 -0.148366 -4.05629 0
M  V30 1204 H 118.019 -2.63174 -4.07388 0
M  V30 1205 H 113.898 -1.44385 -4.37806 0
M  V30 1206 H 117.442 -4.83396 -5.02966 0
M  V30 1207 H 113.339 -3.63709 -5.33278 0
M  V30 1208 H 114.107 -5.61838 -5.95214 0
M  V30 1209 N 116.77 1.45427 -0.607355 0
M  V30 1210 C 117.7 2.3329 0.0989352 0
M  V30 1211 C 118.681 1.46816 0.859007 0
M  V30 1212 O 119.866 1.75588 0.829604 0
M  V30 1213 C 116.996 3.29518 1.09705 0
M  V30 1214 C 115.95 4.25626 0.450206 0
M  V30 1215 C 115.276 5.11542 1.55655 0
M  V30 1216 C 116.576 5.18505 -0.628455 0
M  V30 1217 H 118.27 2.92595 -0.634716 0
M  V30 1218 H 115.816 1.40696 -0.306681 0
M  V30 1219 H 117.769 3.89855 1.59971 0
M  V30 1220 H 116.493 2.68372 1.86129 0
M  V30 1221 H 115.152 3.66586 -0.0315886 0
M  V30 1222 H 114.8 4.46765 2.31107 0
M  V30 1223 H 114.5 5.76647 1.12925 0
M  V30 1224 H 116.024 5.74748 2.06148 0
M  V30 1225 H 117.438 5.72916 -0.209877 0
M  V30 1226 H 115.835 5.92085 -0.977489 0
M  V30 1227 H 116.905 4.60948 -1.50514 0
M  V30 1228 N 118.248 0.346503 1.53744 0
M  V30 1229 C 119.525 -0.304532 1.93215 0
M  V30 1230 C 119.905 -1.67993 1.27834 0
M  V30 1231 O 119.253 -2.24411 0.430352 0
M  V30 1232 C 119.463 -0.373852 3.46992 0
M  V30 1233 C 120.811 -0.62329 4.2 0
M  V30 1234 O 121.835 -0.455847 3.53271 0
M  V30 1235 O 120.694 -0.947879 5.38217 0
M  V30 1236 H 117.788 -0.178318 0.807547 0
M  V30 1237 H 120.334 0.397895 1.64969 0
M  V30 1238 H 119.106 0.591224 3.86808 0
M  V30 1239 H 118.729 -1.12294 3.81413 0
M  V30 1240 N 119.726 -1.57421 0.075193 0
M  V30 1241 C 120.656 -2.15942 -0.888324 0
M  V30 1242 C 121.637 -1.08737 -1.30806 0
M  V30 1243 O 122.822 -1.36787 -1.37851 0
M  V30 1244 C 119.952 -2.72379 -2.1547 0
M  V30 1245 C 118.906 -3.8478 -1.87425 0
M  V30 1246 C 118.232 -4.27834 -3.20721 0
M  V30 1247 C 119.532 -5.08869 -1.17684 0
M  V30 1248 H 121.226 -2.96705 -0.400799 0
M  V30 1249 H 118.772 -1.42723 -0.191342 0
M  V30 1250 H 120.725 -3.11965 -2.83295 0
M  V30 1251 H 119.449 -1.88841 -2.6647 0
M  V30 1252 H 118.108 -3.45703 -1.22004 0
M  V30 1253 H 117.756 -3.41214 -3.6957 0
M  V30 1254 H 117.456 -5.03605 -3.02746 0
M  V30 1255 H 118.98 -4.70039 -3.89738 0
M  V30 1256 H 120.394 -5.4575 -1.75584 0
M  V30 1257 H 118.791 -5.8994 -1.09956 0
M  V30 1258 H 119.861 -4.84648 -0.156453 0
M  V30 1259 N 121.204 0.198386 -1.56346 0
M  V30 1260 C 122.114 1.2664 -1.97483 0
M  V30 1261 C 123.13 1.49989 -0.882002 0
M  V30 1262 O 124.306 1.62668 -1.18748 0
M  V30 1263 C 121.371 2.59141 -2.30319 0
M  V30 1264 C 120.432 2.43892 -3.53292 0
M  V30 1265 C 119.665 3.70074 -3.84553 0
M  V30 1266 O 119.888 4.74101 -3.1715 0
M  V30 1267 O 118.822 3.658 -4.7799 0
M  V30 1268 H 122.648 0.947304 -2.88548 0
M  V30 1269 H 120.233 0.403123 -1.43859 0
M  V30 1270 H 122.115 3.37352 -2.5253 0
M  V30 1271 H 120.79 2.90684 -1.42423 0
M  V30 1272 H 119.697 1.63803 -3.36332 0
M  V30 1273 H 121.03 2.17282 -4.41644 0
M  V30 1274 N 122.682 1.50554 0.465978 0
M  V30 1275 C 123.629 1.6979 1.56333 0
M  V30 1276 C 124.599 0.539239 1.57103 0
M  V30 1277 O 125.784 0.770401 1.74555 0
M  V30 1278 C 122.924 1.80273 2.94271 0
M  V30 1279 C 122.037 3.07674 3.0325 0
M  V30 1280 C 121.172 3.08922 4.32135 0
M  V30 1281 C 120.211 4.30755 4.34875 0
M  V30 1282 N 119.348 4.29714 5.55239 0
M  V30 1283 H 124.188 2.63472 1.39235 0
M  V30 1284 H 121.725 1.30602 0.676873 0
M  V30 1285 H 123.683 1.84332 3.74269 0
M  V30 1286 H 122.313 0.900258 3.09992 0
M  V30 1287 H 121.365 3.13062 2.16094 0
M  V30 1288 H 122.677 3.97642 3.01135 0
M  V30 1289 H 121.831 3.11738 5.20485 0
M  V30 1290 H 120.57 2.16792 4.36866 0
M  V30 1291 H 119.575 4.28146 3.44922 0
M  V30 1292 H 120.8 5.24117 4.31831 0
M  V30 1293 H 118.746 3.4044 5.60746 0
M  V30 1294 H 118.663 5.13456 5.54886 0
M  V30 1295 H 119.931 4.36683 6.457 0
M  V30 1296 N 124.16 -0.719506 1.40217 0
M  V30 1297 C 125.409 -1.47486 1.37589 0
M  V30 1298 C 125.722 -1.9559 -0.0201568 0
M  V30 1299 O 126.928 -2.70973 -0.169049 0
M  V30 1300 C 125.384 -2.66575 2.41796 0
M  V30 1301 C 124.992 -2.25358 3.87192 0
M  V30 1302 C 126.736 -3.4433 2.48269 0
M  V30 1303 C 124.643 -3.41262 4.83005 0
M  V30 1304 H 123.573 -0.553901 0.511576 0
M  V30 1305 H 126.224 -0.783427 1.65936 0
M  V30 1306 H 124.606 -3.3787 2.06543 0
M  V30 1307 H 125.78 -1.61509 4.31569 0
M  V30 1308 H 124.095 -1.60657 3.84159 0
M  V30 1309 H 126.692 -4.30569 3.17041 0
M  V30 1310 H 127.035 -3.87872 1.51198 0
M  V30 1311 H 127.568 -2.80076 2.82493 0
M  V30 1312 H 124.307 -3.02755 5.81394 0
M  V30 1313 H 123.827 -4.0404 4.43297 0
M  V30 1314 H 125.506 -4.07383 5.02641 0
M  V30 1315 N 125.638 -1.25649 -0.95132 0
M  V30 1316 C 126.885 -1.10594 -1.69633 0
M  V30 1317 C 127.213 0.352515 -1.91279 0
M  V30 1318 O 126.468 1.27601 -1.4838 0
M  V30 1319 C 126.767 -1.80909 -3.08231 0
M  V30 1320 C 126.433 -3.30825 -3.06375 0
M  V30 1321 C 125.095 -3.71722 -3.05576 0
M  V30 1322 C 127.447 -4.26589 -2.99452 0
M  V30 1323 C 124.775 -5.06788 -2.95606 0
M  V30 1324 C 127.127 -5.61683 -2.91024 0
M  V30 1325 C 125.791 -6.01904 -2.88562 0
M  V30 1326 H 125.061 -0.404691 -0.620731 0
M  V30 1327 H 127.708 -1.55964 -1.11119 0
M  V30 1328 H 126.013 -1.27979 -3.70309 0
M  V30 1329 H 127.71 -1.6671 -3.64704 0
M  V30 1330 H 124.3 -2.98287 -3.07771 0
M  V30 1331 H 128.484 -3.95982 -2.99185 0
M  V30 1332 H 123.74 -5.37126 -2.92071 0
M  V30 1333 H 127.914 -6.35578 -2.84629 0
M  V30 1334 H 125.541 -7.06521 -2.80593 0
M  V30 1335 N 127.117 1.15442 -1.07289 0
M  V30 1336 C 128.342 1.90638 -0.816828 0
M  V30 1337 C 128.767 1.77445 0.624083 0
M  V30 1338 O 128.125 1.10671 1.43602 0
M  V30 1339 C 128.173 3.39008 -1.22906 0
M  V30 1340 O 127.277 4.10701 -0.373975 0
M  V30 1341 H 126.618 0.593555 -0.297638 0
M  V30 1342 H 129.148 1.46198 -1.43134 0
M  V30 1343 H 129.158 3.89801 -1.20497 0
M  V30 1344 H 127.833 3.47929 -2.27856 0
M  V30 1345 H 126.41 3.70046 -0.460499 0
M  V30 1346 N 128.595 0.856903 1.32268 0
M  V30 1347 C 129.505 0.306131 2.32594 0
M  V30 1348 C 130.521 -0.577209 1.64147 0
M  V30 1349 O 131.697 -0.477043 1.95669 0
M  V30 1350 C 128.762 -0.494561 3.43154 0
M  V30 1351 C 127.823 0.415186 4.27288 0
M  V30 1352 C 127.056 -0.347387 5.32568 0
M  V30 1353 O 127.279 -1.57708 5.48165 0
M  V30 1354 O 126.213 0.287982 6.01211 0
M  V30 1355 H 130.039 1.13737 2.81598 0
M  V30 1356 H 127.624 0.619902 1.35932 0
M  V30 1357 H 129.506 -0.948944 4.10576 0
M  V30 1358 H 128.181 -1.30257 2.96336 0
M  V30 1359 H 127.088 0.917793 3.62667 0
M  V30 1360 H 128.421 1.18844 4.77637 0
M  V30 1361 N 130.073 -1.45103 0.615059 0
M  V30 1362 C 131.35 -1.95549 0.0448276 0
M  V30 1363 C 131.73 -1.55737 -1.4251 0
M  V30 1364 O 131.078 -0.823556 -2.13143 0
M  V30 1365 C 131.288 -3.48098 0.250785 0
M  V30 1366 C 132.636 -4.24384 0.135509 0
M  V30 1367 O 133.66 -3.55738 0.181299 0
M  V30 1368 O 132.519 -5.46493 0.0268878 0
M  V30 1369 H 129.613 -0.8264 -0.0314845 0
M  V30 1370 H 132.159 -1.55232 0.685642 0
M  V30 1371 H 130.931 -3.7007 1.27139 0
M  V30 1372 H 130.554 -3.95323 -0.424937 0
M  V30 1373 N 131.551 -0.354651 -1.53558 0
M  V30 1374 C 132.828 0.294281 -1.93374 0
M  V30 1375 C 133.208 1.67313 -1.28723 0
M  V30 1376 O 132.556 2.24179 -0.442247 0
M  V30 1377 C 132.766 0.355445 -3.47185 0
M  V30 1378 C 134.114 0.601007 -4.20325 0
M  V30 1379 O 135.138 0.437106 -3.53508 0
M  V30 1380 O 133.997 0.919322 -5.38712 0
M  V30 1381 H 131.091 0.174033 -0.808481 0
M  V30 1382 H 133.637 -0.406638 -1.64756 0
M  V30 1383 H 132.409 -0.611729 -3.86489 0
M  V30 1384 H 132.032 1.1027 -3.82003 0
M  V30 1385 N 133.029 1.57378 -0.0835403 0
M  V30 1386 C 134.306 1.85363 0.624507 0
M  V30 1387 C 134.686 0.978239 1.87066 0
M  V30 1388 O 134.034 0.0475908 2.2845 0
M  V30 1389 C 134.244 3.35795 0.950947 0
M  V30 1390 C 135.592 4.03581 1.31939 0
M  V30 1391 O 136.616 3.40609 1.04232 0
M  V30 1392 O 135.475 5.14672 1.83779 0
M  V30 1393 H 132.569 0.766162 0.311329 0
M  V30 1394 H 135.115 1.69307 -0.115362 0
M  V30 1395 H 133.887 3.91244 0.0663899 0
M  V30 1396 H 133.51 3.57154 1.74719 0
M  V30 1397 N 134.507 -0.190092 1.56449 0
M  V30 1398 C 135.737 -0.92443 1.84764 0
M  V30 1399 C 136.145 -1.77146 0.664529 0
M  V30 1400 O 135.488 -1.79812 -0.375957 0
M  V30 1401 C 135.55 -1.86651 3.07248 0
M  V30 1402 C 135.214 -1.20094 4.40938 0
M  V30 1403 C 136.211 -0.575445 5.16706 0
M  V30 1404 C 133.896 -1.2033 4.87674 0
M  V30 1405 C 135.89 0.0388111 6.37388 0
M  V30 1406 C 133.577 -0.585214 6.08291 0
M  V30 1407 C 134.575 0.0347578 6.82991 0
M  V30 1408 O 134.263 0.643147 8.01323 0
M  V30 1409 H 133.995 -0.274974 0.617548 0
M  V30 1410 H 136.549 -0.200788 2.04416 0
M  V30 1411 H 134.779 -2.62998 2.83494 0
M  V30 1412 H 136.468 -2.46907 3.22167 0
M  V30 1413 H 137.234 -0.565728 4.81689 0
M  V30 1414 H 133.113 -1.67526 4.29484 0
M  V30 1415 H 136.657 0.523329 6.95634 0
M  V30 1416 H 132.554 -0.592451 6.42775 0
M  V30 1417 H 133.322 0.540545 8.16713 0
M  V30 1418 N 135.985 -1.50799 -0.457987 0
M  V30 1419 C 137.234 -1.6168 -1.20593 0
M  V30 1420 C 137.547 -0.32888 -1.92815 0
M  V30 1421 O 138.753 -0.316773 -2.69646 0
M  V30 1422 C 137.209 -2.8545 -2.19195 0
M  V30 1423 C 136.817 -4.21168 -1.52715 0
M  V30 1424 C 138.561 -3.05681 -2.94549 0
M  V30 1425 C 136.468 -5.3611 -2.4968 0
M  V30 1426 H 135.398 -0.602134 -0.453818 0
M  V30 1427 H 138.049 -1.77245 -0.475031 0
M  V30 1428 H 136.431 -2.63472 -2.95632 0
M  V30 1429 H 137.605 -4.53449 -0.819775 0
M  V30 1430 H 135.92 -4.06648 -0.895922 0
M  V30 1431 H 138.517 -3.88727 -3.67145 0
M  V30 1432 H 138.86 -2.17929 -3.54701 0
M  V30 1433 H 139.393 -3.27901 -2.25223 0
M  V30 1434 H 136.132 -6.26057 -1.94249 0
M  V30 1435 H 135.652 -5.0823 -3.18532 0
M  V30 1436 H 137.331 -5.6722 -3.11241 0
M  V30 1437 N 137.463 0.71206 -1.40597 0
M  V30 1438 C 138.74 1.46536 -1.29563 0
M  V30 1439 C 139.12 2.10931 0.0844217 0
M  V30 1440 O 138.468 2.00418 1.0975 0
M  V30 1441 C 138.678 2.49821 -2.43701 0
M  V30 1442 C 140.026 3.15551 -2.841 0
M  V30 1443 O 141.05 2.60142 -2.4332 0
M  V30 1444 O 139.909 4.15867 -3.54566 0
M  V30 1445 H 137.003 0.651801 -0.509004 0
M  V30 1446 H 139.549 0.743935 -1.52524 0
M  V30 1447 H 138.321 2.00778 -3.35863 0
M  V30 1448 H 137.944 3.29495 -2.22528 0
M  V30 1449 N 138.941 1.26152 0.944643 0
M  V30 1450 C 140.19 1.10883 1.68487 0
M  V30 1451 C 140.503 -0.348153 1.92477 0
M  V30 1452 O 141.709 -0.621459 2.64292 0
M  V30 1453 C 140.165 1.93624 3.03377 0
M  V30 1454 C 139.773 3.43875 2.87148 0
M  V30 1455 C 141.517 1.86954 3.81115 0
M  V30 1456 C 139.424 4.18875 4.1749 0
M  V30 1457 H 138.354 0.41135 0.631907 0
M  V30 1458 H 141.005 1.50433 1.05082 0
M  V30 1459 H 139.387 1.46904 3.67743 0
M  V30 1460 H 140.561 3.98338 2.31653 0
M  V30 1461 H 138.876 3.51744 2.22856 0
M  V30 1462 H 141.473 2.40275 4.77673 0
M  V30 1463 H 141.816 0.839518 4.07747 0
M  V30 1464 H 142.349 2.31477 3.23517 0
M  V30 1465 H 139.088 5.22332 3.96043 0
M  V30 1466 H 138.608 3.69193 4.72712 0
M  V30 1467 H 140.287 4.27134 4.85968 0
M  V30 1468 N 140.419 -1.14872 1.07899 0
M  V30 1469 C 141.665 -1.86064 0.806725 0
M  V30 1470 C 141.998 -1.82434 -0.665706 0
M  V30 1471 O 141.273 -1.25138 -1.48899 0
M  V30 1472 C 141.556 -3.34929 1.32267 0
M  V30 1473 C 141.409 -3.47161 2.86006 0
M  V30 1474 C 142.728 -4.29863 0.943717 0
M  V30 1475 H 139.847 -0.675591 0.294526 0
M  V30 1476 H 142.489 -1.34925 1.33773 0
M  V30 1477 H 140.639 -3.78611 0.870974 0
M  V30 1478 H 142.311 -3.12302 3.39507 0
M  V30 1479 H 140.554 -2.88539 3.23925 0
M  V30 1480 H 141.225 -4.51777 3.17177 0
M  V30 1481 H 143.701 -3.9417 1.33302 0
M  V30 1482 H 142.577 -5.32494 1.33198 0
M  V30 1483 H 142.838 -4.41846 -0.149796 0
M  V30 1484 N 141.898 -0.863906 -1.31812 0
M  V30 1485 C 143.175 -0.39275 -1.91616 0
M  V30 1486 C 143.555 1.12461 -1.7865 0
M  V30 1487 O 142.903 1.95045 -1.19037 0
M  V30 1488 C 143.113 -0.867385 -3.38049 0
M  V30 1489 C 144.461 -0.889966 -4.15168 0
M  V30 1490 O 145.485 -0.812635 -3.46806 0
M  V30 1491 O 144.344 -1.00079 -5.37258 0
M  V30 1492 H 141.438 -0.116358 -0.818773 0
M  V30 1493 H 143.984 -0.951418 -1.40521 0
M  V30 1494 H 142.756 -1.91081 -3.41473 0
M  V30 1495 H 142.379 -0.286687 -3.96565 0
M  V30 1496 N 143.376 1.44774 -0.622745 0
M  V30 1497 C 144.601 2.06999 -0.128968 0
M  V30 1498 C 145.026 1.4617 1.1839 0
M  V30 1499 O 144.384 0.560007 1.72434 0
M  V30 1500 C 144.432 3.60595 -0.0188351 0
M  V30 1501 O 143.536 3.99398 1.02739 0
M  V30 1502 H 142.877 0.659047 -0.0809544 0
M  V30 1503 H 145.407 1.85784 -0.85705 0
M  V30 1504 H 145.417 4.07627 0.174476 0
M  V30 1505 H 144.092 4.04252 -0.977384 0
M  V30 1506 H 142.669 3.64011 0.809326 0
M  V30 1507 N 144.854 0.36279 1.53368 0
M  V30 1508 C 145.784 -0.476976 2.28576 0
M  V30 1509 C 146.765 -1.08631 1.30894 0
M  V30 1510 O 147.95 -1.10409 1.59761 0
M  V30 1511 C 145.08 -1.61828 3.07293 0
M  V30 1512 C 144.034 -1.13633 4.1264 0
M  V30 1513 C 143.36 -2.36766 4.79423 0
M  V30 1514 C 144.66 -0.223061 5.21823 0
M  V30 1515 H 146.354 0.150474 2.99022 0
M  V30 1516 H 143.9 0.0738103 1.43811 0
M  V30 1517 H 145.853 -2.21237 3.58653 0
M  V30 1518 H 144.577 -2.27292 2.34533 0
M  V30 1519 H 143.236 -0.564945 3.62221 0
M  V30 1520 H 142.884 -3.0068 4.03238 0
M  V30 1521 H 142.584 -2.05192 5.50609 0
M  V30 1522 H 144.108 -2.96865 5.33576 0
M  V30 1523 H 145.522 -0.724545 5.68703 0
M  V30 1524 H 143.919 0.001678 6.001 0
M  V30 1525 H 144.989 0.735553 4.79289 0
M  V30 1526 N 146.332 -1.57332 0.0918853 0
M  V30 1527 C 147.557 -1.98995 -0.584442 0
M  V30 1528 C 147.982 -0.970528 -1.61128 0
M  V30 1529 O 147.34 0.0613904 -1.81196 0
M  V30 1530 C 147.388 -3.39636 -1.21161 0
M  V30 1531 O 146.492 -3.40447 -2.32744 0
M  V30 1532 H 145.833 -0.647165 -0.148572 0
M  V30 1533 H 148.363 -2.03873 0.172347 0
M  V30 1534 H 148.373 -3.7726 -1.55367 0
M  V30 1535 H 147.048 -4.13356 -0.459313 0
M  V30 1536 H 145.625 -3.14614 -2.0018 0
M  V30 1537 N 147.81 0.181792 -1.56548 0
M  V30 1538 C 149.056 0.901431 -1.81665 0
M  V30 1539 C 149.389 1.82347 -0.668075 0
M  V30 1540 O 148.664 1.91669 0.330615 0
M  V30 1541 C 148.947 1.70618 -3.17115 0
M  V30 1542 C 148.8 0.807964 -4.42484 0
M  V30 1543 C 150.119 2.67605 -3.49393 0
M  V30 1544 H 147.238 0.32627 -0.660846 0
M  V30 1545 H 149.88 0.168134 -1.89255 0
M  V30 1546 H 148.03 2.33133 -3.10775 0
M  V30 1547 H 149.702 0.19649 -4.60881 0
M  V30 1548 H 147.945 0.115411 -4.33646 0
M  V30 1549 H 148.616 1.40632 -5.33785 0
M  V30 1550 H 151.092 2.15218 -3.56118 0
M  V30 1551 H 149.968 3.20985 -4.45264 0
M  V30 1552 H 150.229 3.47298 -2.73563 0
M  V30 1553 N 149.288 1.51039 0.449983 0
M  V30 1554 C 150.513 1.6715 1.22783 0
M  V30 1555 C 150.938 0.363081 1.84563 0
M  V30 1556 O 150.296 -0.675433 1.68249 0
M  V30 1557 C 150.344 2.77985 2.29689 0
M  V30 1558 O 149.448 2.40707 3.34864 0
M  V30 1559 H 148.789 0.557746 0.360299 0
M  V30 1560 H 151.319 1.97535 0.533005 0
M  V30 1561 H 151.329 3.01693 2.74673 0
M  V30 1562 H 150.004 3.72935 1.84098 0
M  V30 1563 H 148.581 2.27523 2.95445 0
M  V30 1564 N 150.766 -0.704594 1.40972 0
M  V30 1565 C 152.177 -1.28418 1.3552 0
M  V30 1566 C 152.528 -1.96171 0.0339434 0
M  V30 1567 O 151.653 -1.98231 -0.867944 0
M  V30 1568 C 152.248 -2.33528 2.45459 0
M  V30 1569 C 150.807 -2.87085 2.43433 0
M  V30 1570 C 149.954 -1.61007 2.2577 0
M  V30 1571 H 152.905 -0.499963 1.50619 0
M  V30 1572 H 152.926 -3.14619 2.13998 0
M  V30 1573 H 152.438 -1.84187 3.41609 0
M  V30 1574 H 150.539 -3.40626 1.51013 0
M  V30 1575 H 150.652 -3.3813 3.39419 0
M  V30 1576 H 149.016 -1.86482 1.73483 0
M  V30 1577 H 149.799 -1.13675 3.23933 0
M  V30 1578 N 152.244 -1.26651 -0.937939 0
M  V30 1579 C 153.472 -1.15173 -1.7188 0
M  V30 1580 C 153.887 0.292668 -1.86518 0
M  V30 1581 O 153.244 1.20014 -1.37488 0
M  V30 1582 C 153.295 -1.81925 -3.12387 0
M  V30 1583 O 153.016 -3.2072 -2.98446 0
M  V30 1584 C 154.517 -1.76442 -4.06673 0
M  V30 1585 H 151.737 -0.400911 -0.538063 0
M  V30 1586 H 154.281 -1.67332 -1.1756 0
M  V30 1587 H 152.436 -1.33696 -3.63599 0
M  V30 1588 H 152.85 -3.53802 -3.872 0
M  V30 1589 H 154.324 -2.27781 -5.02812 0
M  V30 1590 H 154.801 -0.731608 -4.33064 0
M  V30 1591 H 155.407 -2.24238 -3.61382 0
M  V30 1592 N 153.722 1.14298 -1.08507 0
M  V30 1593 C 154.999 1.81544 -0.728088 0
M  V30 1594 C 155.379 1.95838 0.78808 0
M  V30 1595 O 154.727 1.51904 1.70697 0
M  V30 1596 C 154.937 3.17169 -1.45619 0
M  V30 1597 C 156.285 3.9265 -1.61591 0
M  V30 1598 O 157.309 3.26762 -1.41793 0
M  V30 1599 O 156.168 5.10807 -1.94263 0
M  V30 1600 H 153.262 0.78491 -0.260471 0
M  V30 1601 H 155.808 1.21307 -1.18671 0
M  V30 1602 H 154.58 3.01934 -2.489 0
M  V30 1603 H 154.203 3.851 -0.989124 0
M  V30 1604 N 155.201 0.870884 1.31352 0
M  V30 1605 C 156.426 0.495957 2.01383 0
M  V30 1606 C 156.851 -0.904324 1.64935 0
M  V30 1607 O 156.209 -1.59687 0.858466 0
M  V30 1608 C 156.257 0.661433 3.54482 0
M  V30 1609 O 155.361 -0.298851 4.11316 0
M  V30 1610 H 154.702 0.197158 0.634054 0
M  V30 1611 H 157.232 1.17455 1.67527 0
M  V30 1612 H 157.242 0.555072 4.04207 0
M  V30 1613 H 155.917 1.68246 3.8035 0
M  V30 1614 H 154.494 -0.147368 3.72609 0
M  V30 1615 N 156.679 -1.44442 0.630414 0
M  V30 1616 C 157.956 -1.9549 0.0655657 0
M  V30 1617 C 158.336 -1.5724 -1.40851 0
M  V30 1618 O 157.684 -0.846116 -2.12257 0
M  V30 1619 C 157.894 -3.47812 0.287691 0
M  V30 1620 C 159.242 -4.24216 0.180513 0
M  V30 1621 O 160.266 -3.55526 0.219019 0
M  V30 1622 O 159.125 -5.46434 0.0848493 0
M  V30 1623 H 156.219 -0.826688 -0.0227177 0
M  V30 1624 H 158.765 -1.54496 0.702068 0
M  V30 1625 H 157.537 -3.687 1.31056 0
M  V30 1626 H 157.16 -3.95751 -0.382984 0
M  V30 1627 N 158.157 -0.370918 -1.53173 0
M  V30 1628 C 159.403 0.217423 -2.01631 0
M  V30 1629 C 159.736 1.47983 -1.25756 0
M  V30 1630 O 159.011 1.91274 -0.352764 0
M  V30 1631 C 159.294 0.503982 -3.56556 0
M  V30 1632 C 159.147 -0.77243 -4.43118 0
M  V30 1633 C 160.466 1.30234 -4.20389 0
M  V30 1634 H 157.585 0.0775486 -0.732909 0
M  V30 1635 H 160.227 -0.496863 -1.83388 0
M  V30 1636 H 158.377 1.11248 -3.72231 0
M  V30 1637 H 160.049 -1.4098 -4.39229 0
M  V30 1638 H 158.292 -1.39167 -4.10871 0
M  V30 1639 H 158.963 -0.526815 -5.4948 0
M  V30 1640 H 161.439 0.787546 -4.08579 0
M  V30 1641 H 160.315 1.47158 -5.28806 0
M  V30 1642 H 160.576 2.31237 -3.76805 0
M  V30 1643 N 159.635 1.57281 -0.100228 0
M  V30 1644 C 160.86 1.99302 0.573881 0
M  V30 1645 C 161.285 0.979059 1.60611 0
M  V30 1646 O 160.643 -0.0517803 1.81226 0
M  V30 1647 C 160.691 3.40274 1.19358 0
M  V30 1648 O 159.795 3.41676 2.30935 0
M  V30 1649 H 159.136 0.647944 0.145138 0
M  V30 1650 H 161.666 2.03779 -0.183156 0
M  V30 1651 H 161.676 3.78078 1.53365 0
M  V30 1652 H 160.351 4.13594 0.437385 0
M  V30 1653 H 158.928 3.15672 1.98509 0
M  V30 1654 N 161.113 -0.173488 1.56642 0
M  V30 1655 C 162.076 -1.19859 1.95362 0
M  V30 1656 C 163.076 -1.37296 0.83704 0
M  V30 1657 O 164.266 -1.34739 1.10413 0
M  V30 1658 C 161.398 -2.56405 2.24654 0
M  V30 1659 H 162.591 -0.867062 2.87092 0
M  V30 1660 H 160.144 -0.415853 1.50666 0
M  V30 1661 H 160.879 -2.94576 1.35631 0
M  V30 1662 H 160.664 -2.45115 3.06041 0
M  V30 1663 H 162.154 -3.30287 2.5554 0
M  V30 1664 N 162.591 -1.51276 -0.441967 0
M  V30 1665 C 163.839 -1.63392 -1.18943 0
M  V30 1666 C 164.16 -0.350159 -1.9183 0
M  V30 1667 O 163.43 0.633784 -1.85364 0
M  V30 1668 H 162.01 -0.602164 -0.442049 0
M  V30 1669 H 164.672 -1.88186 -0.507165 0
M  V30 1670 H 163.768 -2.45934 -1.92154 0
M  V30 1671 N 164.069 0.697108 -1.41344 0
M  V30 1672 C 165.017 1.83237 -1.43272 0
M  V30 1673 C 166.011 1.66522 -0.310947 0
M  V30 1674 O 167.217 1.73402 -0.482899 0
M  V30 1675 H 163.592 0.603802 -0.448249 0
M  V30 1676 H 165.563 1.78727 -2.38954 0
M  V30 1677 C 164.312 3.21245 -1.33029 0
M  V30 1678 H 163.635 3.34723 -2.18633 0
M  V30 1679 H 165.075 4.00763 -1.38439 0
M  V30 1680 C 163.534 3.36873 -0.0424635 0
M  V30 1681 O 164.064 3.91177 0.913421 0
M  V30 1682 N 162.27 2.90581 0.0331145 0
M  V30 1683 H 161.817 2.46577 -0.745506 0
M  V30 1684 H 161.775 3.01416 0.894199 0
M  V30 1685 N 165.547 1.27147 0.931209 0
M  V30 1686 C 166.796 1.12664 1.67302 0
M  V30 1687 C 167.109 -0.327718 1.92835 0
M  V30 1688 O 168.315 -0.593392 2.64936 0
M  V30 1689 C 166.771 1.9683 3.01307 0
M  V30 1690 C 166.379 3.46901 2.83485 0
M  V30 1691 C 168.123 1.90985 3.79111 0
M  V30 1692 C 166.03 4.23279 4.13024 0
M  V30 1693 H 164.96 0.41803 0.627509 0
M  V30 1694 H 167.611 1.51539 1.03481 0
M  V30 1695 H 165.993 1.50797 3.66164 0
M  V30 1696 H 167.167 4.00773 2.27415 0
M  V30 1697 H 165.482 3.54088 2.19113 0
M  V30 1698 H 168.079 2.45328 4.75098 0
M  V30 1699 H 168.422 0.882718 4.06834 0
M  V30 1700 H 168.955 2.34895 3.21044 0
M  V30 1701 H 165.694 5.26503 3.90481 0
M  V30 1702 H 165.214 3.74186 4.6877 0
M  V30 1703 H 166.893 4.32265 4.81411 0
M  V30 1704 N 167.025 -1.13721 1.09112 0
M  V30 1705 C 167.955 -2.21148 0.749385 0
M  V30 1706 C 168.936 -1.6792 -0.271475 0
M  V30 1707 O 170.121 -1.93693 -0.140251 0
M  V30 1708 C 167.251 -3.46905 0.165659 0
M  V30 1709 C 166.205 -4.13203 1.11567 0
M  V30 1710 C 165.531 -5.33248 0.393809 0
M  V30 1711 C 166.831 -4.60912 2.45678 0
M  V30 1712 H 168.525 -2.4999 1.64758 0
M  V30 1713 H 166.071 -1.20156 0.793626 0
M  V30 1714 H 168.024 -4.21313 -0.085466 0
M  V30 1715 H 166.748 -3.17449 -0.767714 0
M  V30 1716 H 165.407 -3.40758 1.35202 0
M  V30 1717 H 165.055 -5.00054 -0.543599 0
M  V30 1718 H 164.755 -5.78552 1.02721 0
M  V30 1719 H 166.279 -6.10413 0.150908 0
M  V30 1720 H 167.693 -5.26759 2.26269 0
M  V30 1721 H 166.09 -5.16944 3.04776 0
M  V30 1722 H 167.16 -3.75603 3.06677 0
M  V30 1723 N 168.503 -0.877838 -1.30888 0
M  V30 1724 C 169.435 -0.296607 -2.27273 0
M  V30 1725 C 170.448 0.544799 -1.53414 0
M  V30 1726 O 171.637 0.365511 -1.74718 0
M  V30 1727 C 168.737 0.597481 -3.33592 0
M  V30 1728 C 167.91 -0.213251 -4.3688 0
M  V30 1729 C 166.969 0.610208 -5.2265 0
M  V30 1730 O 165.995 0.035441 -5.69189 0
M  V30 1731 N 167.197 1.92071 -5.47804 0
M  V30 1732 H 169.962 -1.12492 -2.77787 0
M  V30 1733 H 167.523 -0.740105 -1.43993 0
M  V30 1734 H 169.515 1.15425 -3.87891 0
M  V30 1735 H 168.085 1.32647 -2.83061 0
M  V30 1736 H 167.305 -0.951466 -3.82545 0
M  V30 1737 H 168.593 -0.769262 -5.02951 0
M  V30 1738 H 167.991 2.4107 -5.11763 0
M  V30 1739 H 166.548 2.42508 -6.05007 0
M  V30 1740 N 169.982 1.44106 -0.638065 0
M  V30 1741 C 170.912 2.33448 0.0494287 0
M  V30 1742 C 171.893 1.48606 0.827672 0
M  V30 1743 O 173.078 1.77308 0.792173 0
M  V30 1744 C 170.208 3.31771 1.02691 0
M  V30 1745 C 169.162 4.26485 0.359823 0
M  V30 1746 C 168.488 5.14729 1.44769 0
M  V30 1747 C 169.788 5.17056 -0.738296 0
M  V30 1748 H 171.482 2.91183 -0.696636 0
M  V30 1749 H 169.028 1.40014 -0.336456 0
M  V30 1750 H 170.981 3.93161 1.51666 0
M  V30 1751 H 169.705 2.7226 1.80395 0
M  V30 1752 H 168.364 3.66437 -0.10934 0
M  V30 1753 H 168.012 4.51566 2.21578 0
M  V30 1754 H 167.712 5.78913 1.00668 0
M  V30 1755 H 169.236 5.78991 1.93911 0
M  V30 1756 H 170.65 5.72342 -0.331354 0
M  V30 1757 H 169.047 5.89879 -1.10286 0
M  V30 1758 H 170.117 4.57652 -1.60258 0
M  V30 1759 N 171.46 0.379036 1.52974 0
M  V30 1760 C 172.707 -0.206421 2.01445 0
M  V30 1761 C 173.035 -1.47668 1.26587 0
M  V30 1762 O 172.29 -1.92514 0.351675 0
M  V30 1763 C 172.589 -0.53096 3.53434 0
M  V30 1764 C 172.255 0.646546 4.46241 0
M  V30 1765 C 170.917 0.969604 4.7133 0
M  V30 1766 C 173.269 1.43479 5.01062 0
M  V30 1767 C 170.597 2.08263 5.48492 0
M  V30 1768 C 172.949 2.53834 5.7944 0
M  V30 1769 C 171.613 2.86659 6.02812 0
M  V30 1770 H 170.883 -0.0755349 0.73714 0
M  V30 1771 H 173.53 0.514271 1.84465 0
M  V30 1772 H 171.835 -1.33285 3.68432 0
M  V30 1773 H 173.532 -0.996417 3.88423 0
M  V30 1774 H 170.122 0.384734 4.2687 0
M  V30 1775 H 174.306 1.19844 4.81613 0
M  V30 1776 H 169.562 2.34078 5.64816 0
M  V30 1777 H 173.736 3.15319 6.20924 0
M  V30 1778 H 171.363 3.73026 6.62387 0
M  V30 1779 N 172.938 -1.57226 0.108567 0
M  V30 1780 C 173.888 -2.11305 -0.856396 0
M  V30 1781 C 174.872 -1.03129 -1.23504 0
M  V30 1782 O 176.064 -1.29381 -1.20787 0
M  V30 1783 C 173.193 -2.70771 -2.11041 0
M  V30 1784 C 172.279 -3.86011 -1.7566 0
M  V30 1785 N 172.67 -4.93492 -1.10902 0
M  V30 1786 C 170.968 -3.95999 -2.05185 0
M  V30 1787 C 171.669 -5.73984 -0.944308 0
M  V30 1788 N 170.645 -5.2346 -1.46596 0
M  V30 1789 H 174.447 -2.91784 -0.352002 0
M  V30 1790 H 171.961 -1.62126 -0.0942324 0
M  V30 1791 H 173.958 -3.07851 -2.81128 0
M  V30 1792 H 172.618 -1.91751 -2.62034 0
M  V30 1793 H 173.629 -5.1208 -0.774235 0
M  V30 1794 H 170.306 -3.28007 -2.58298 0
M  V30 1795 H 171.696 -6.70479 -0.436813 0
M  V30 1796 N 174.416 0.165178 -1.56732 0
M  V30 1797 C 175.664 0.879068 -1.8198 0
M  V30 1798 C 175.985 1.82514 -0.686561 0
M  V30 1799 O 175.255 1.93694 0.293146 0
M  V30 1800 H 173.835 0.327608 -0.671329 0
M  V30 1801 H 176.497 0.163526 -1.94213 0
M  V30 1802 H 175.593 1.45228 -2.76252 0
M  V30 1803 N 175.894 1.51508 0.433938 0
M  V30 1804 C 176.841 1.73068 1.52696 0
M  V30 1805 C 177.811 0.572441 1.55924 0
M  V30 1806 O 178.996 0.807253 1.72882 0
M  V30 1807 C 176.136 1.86474 2.90381 0
M  V30 1808 C 175.249 3.14037 2.96656 0
M  V30 1809 C 174.384 3.18019 4.25485 0
M  V30 1810 C 173.423 4.39882 4.2564 0
M  V30 1811 N 172.56 4.41394 5.45999 0
M  V30 1812 H 177.4 2.66366 1.33615 0
M  V30 1813 H 174.937 1.32008 0.649018 0
M  V30 1814 H 176.895 1.92229 3.70275 0
M  V30 1815 H 175.525 0.965809 3.08013 0
M  V30 1816 H 174.577 3.17575 2.09404 0
M  V30 1817 H 175.889 4.0394 2.92633 0
M  V30 1818 H 175.043 3.22708 5.13755 0
M  V30 1819 H 173.782 2.2601 4.3217 0
M  V30 1820 H 172.787 4.35366 3.35763 0
M  V30 1821 H 174.012 5.33159 4.20617 0
M  V30 1822 H 171.958 3.52258 5.53399 0
M  V30 1823 H 171.875 5.25111 5.4387 0
M  V30 1824 H 173.143 4.50281 6.36292 0
M  V30 1825 N 177.372 -0.689602 1.41712 0
M  V30 1826 C 178.597 -1.48329 1.44959 0
M  V30 1827 C 179.022 -1.8801 0.0581283 0
M  V30 1828 O 178.38 -1.55026 -0.940035 0
M  V30 1829 C 178.428 -2.71835 2.36935 0
M  V30 1830 O 177.532 -3.69549 1.8305 0
M  V30 1831 H 176.873 -0.446199 0.491734 0
M  V30 1832 H 179.403 -0.847127 1.86239 0
M  V30 1833 H 179.413 -3.20076 2.53013 0
M  V30 1834 H 178.088 -2.42291 3.38035 0
M  V30 1835 H 176.665 -3.2851 1.76452 0
M  V30 1836 N 178.85 -1.27639 -0.924453 0
M  V30 1837 C 180.266 -1.05113 -1.20097 0
M  V30 1838 C 180.466 0.213262 -2.00368 0
M  V30 1839 O 179.522 0.91787 -2.35226 0
M  V30 1840 C 180.835 -2.29244 -1.94596 0
M  V30 1841 C 182.383 -2.34315 -2.07522 0
M  V30 1842 C 182.858 -3.58183 -2.85427 0
M  V30 1843 N 184.349 -3.5876 -2.92994 0
M  V30 1844 C 185.084 -4.51277 -3.53746 0
M  V30 1845 N 184.58 -5.54102 -4.15863 0
M  V30 1846 N 186.373 -4.38894 -3.51181 0
M  V30 1847 H 178.524 -2.08821 -0.388264 0
M  V30 1848 H 180.787 -0.918568 -0.234385 0
M  V30 1849 H 180.493 -3.21301 -1.43034 0
M  V30 1850 H 180.367 -2.34816 -2.95197 0
M  V30 1851 H 182.754 -1.42762 -2.58269 0
M  V30 1852 H 182.835 -2.32744 -1.06131 0
M  V30 1853 H 182.479 -4.50074 -2.35363 0
M  V30 1854 H 182.409 -3.57006 -3.8711 0
M  V30 1855 H 184.9 -2.84398 -2.4885 0
M  V30 1856 H 185.213 -6.20859 -4.60168 0
M  V30 1857 H 183.558 -5.57941 -4.144 0
M  V30 1858 H 186.749 -3.57772 -3.01856 0
M  V30 1859 H 186.922 -5.11186 -3.98237 0
M  V30 1860 N 180.328 1.1314 -1.09713 0
M  V30 1861 C 181.577 1.83838 -0.829851 0
M  V30 1862 C 181.89 1.84599 0.646728 0
M  V30 1863 O 183.096 2.51218 1.02965 0
M  V30 1864 C 181.552 3.30069 -1.43466 0
M  V30 1865 C 181.16 3.37688 -2.94399 0
M  V30 1866 C 182.904 4.05788 -1.24645 0
M  V30 1867 C 180.811 4.78209 -3.47952 0
M  V30 1868 H 179.741 0.68877 -0.306777 0
M  V30 1869 H 182.392 1.27448 -1.3202 0
M  V30 1870 H 180.774 3.8628 -0.871996 0
M  V30 1871 H 181.948 2.91456 -3.56918 0
M  V30 1872 H 180.263 2.75436 -3.12289 0
M  V30 1873 H 182.86 5.09535 -1.62107 0
M  V30 1874 H 183.203 4.15878 -0.187357 0
M  V30 1875 H 183.736 3.55915 -1.77678 0
M  V30 1876 H 180.475 4.73311 -4.53495 0
M  V30 1877 H 179.995 5.24924 -2.90198 0
M  V30 1878 H 181.674 5.47133 -3.45332 0
M  V30 1879 N 181.806 0.884767 1.30421 0
M  V30 1880 C 182.738 0.308655 2.27112 0
M  V30 1881 C 183.751 -0.536655 1.53701 0
M  V30 1882 O 184.94 -0.35624 1.74909 0
M  V30 1883 C 182.04 -0.579782 3.33904 0
M  V30 1884 C 181.213 0.236417 4.36761 0
M  V30 1885 C 180.272 -0.582482 5.22966 0
M  V30 1886 O 179.298 -0.00525502 5.692 0
M  V30 1887 N 180.5 -1.89163 5.48815 0
M  V30 1888 H 183.265 1.13964 2.77186 0
M  V30 1889 H 180.826 0.747731 1.43599 0
M  V30 1890 H 182.818 -1.13366 3.88497 0
M  V30 1891 H 181.388 -1.31144 2.83761 0
M  V30 1892 H 180.608 0.97174 3.82035 0
M  V30 1893 H 181.896 0.795924 5.02536 0
M  V30 1894 H 181.294 -2.38352 5.13035 0
M  V30 1895 H 179.851 -2.39296 6.06284 0
M  V30 1896 N 183.284 -1.43765 0.645699 0
M  V30 1897 C 184.7 -1.56509 0.312591 0
M  V30 1898 C 184.9 -1.6307 -1.18365 0
M  V30 1899 O 183.956 -1.58167 -1.96824 0
M  V30 1900 C 185.269 -2.82968 1.01733 0
M  V30 1901 C 186.817 -2.96701 0.996865 0
M  V30 1902 C 187.292 -4.25982 1.68236 0
M  V30 1903 N 188.783 -4.32829 1.64964 0
M  V30 1904 C 189.518 -5.31613 2.14885 0
M  V30 1905 N 189.014 -6.36718 2.73061 0
M  V30 1906 N 190.807 -5.23217 2.05428 0
M  V30 1907 H 182.958 -1.3775 1.61675 0
M  V30 1908 H 185.221 -0.661067 0.679481 0
M  V30 1909 H 184.927 -2.84156 2.0724 0
M  V30 1910 H 184.801 -3.72957 0.564177 0
M  V30 1911 H 187.188 -2.95058 -0.0497719 0
M  V30 1912 H 187.269 -2.08022 1.48865 0
M  V30 1913 H 186.913 -4.28386 2.72852 0
M  V30 1914 H 186.843 -5.13545 1.16529 0
M  V30 1915 H 189.334 -3.57493 1.22503 0
M  V30 1916 H 189.647 -7.08401 3.08848 0
M  V30 1917 H 187.992 -6.37362 2.77118 0
M  V30 1918 H 191.183 -4.40019 1.59689 0
M  V30 1919 H 191.356 -6.00045 2.44643 0
M  V30 1920 N 184.763 -0.387143 -1.52771 0
M  V30 1921 C 185.693 0.440551 -2.29306 0
M  V30 1922 C 186.674 1.06535 -1.32606 0
M  V30 1923 O 187.859 1.07853 -1.61497 0
M  V30 1924 C 184.989 1.56919 -3.09829 0
M  V30 1925 C 183.943 1.07054 -4.14395 0
M  V30 1926 C 183.269 2.29109 -4.83129 0
M  V30 1927 C 184.569 0.140015 -5.22112 0
M  V30 1928 H 186.263 -0.198026 -2.98744 0
M  V30 1929 H 183.809 -0.09668 -1.43675 0
M  V30 1930 H 185.762 2.15503 -3.62128 0
M  V30 1931 H 184.486 2.23532 -2.3812 0
M  V30 1932 H 183.145 0.507247 -3.63074 0
M  V30 1933 H 182.793 2.94227 -4.0797 0
M  V30 1934 H 182.493 1.96406 -5.53804 0
M  V30 1935 H 184.017 2.88339 -5.38231 0
M  V30 1936 H 185.431 0.633978 -5.69784 0
M  V30 1937 H 183.828 -0.0971485 -6.00021 0
M  V30 1938 H 184.898 -0.811711 -4.78058 0
M  V30 1939 N 186.241 1.57166 -0.116904 0
M  V30 1940 C 187.189 2.16457 0.851418 0
M  V30 1941 C 188.183 1.11323 1.27686 0
M  V30 1942 O 189.389 1.2963 1.24884 0
M  V30 1943 H 185.764 0.69271 0.292672 0
M  V30 1944 H 187.735 2.96605 0.32685 0
M  V30 1945 C 186.484 2.77689 2.09246 0
M  V30 1946 H 185.807 3.58285 1.77402 0
M  V30 1947 H 187.247 3.22716 2.7501 0
M  V30 1948 C 185.706 1.74667 2.88085 0
M  V30 1949 O 186.236 1.19877 3.83396 0
M  V30 1950 N 184.442 1.44656 2.52038 0
M  V30 1951 H 183.989 1.89402 1.74599 0
M  V30 1952 H 183.947 0.759675 3.05084 0
M  V30 1953 N 187.719 -0.156864 1.56817 0
M  V30 1954 C 188.968 -0.869504 1.81996 0
M  V30 1955 C 189.281 -1.82777 0.696545 0
M  V30 1956 O 190.487 -2.58384 0.833658 0
M  V30 1957 C 188.943 -1.59679 3.22538 0
M  V30 1958 C 188.551 -0.681431 4.42787 0
M  V30 1959 C 190.295 -2.2968 3.56997 0
M  V30 1960 C 188.202 -1.40978 5.74351 0
M  V30 1961 H 187.132 -0.328438 0.678708 0
M  V30 1962 H 189.783 -0.1223 1.83092 0
M  V30 1963 H 188.165 -2.38927 3.158 0
M  V30 1964 H 189.339 0.0751166 4.60739 0
M  V30 1965 H 187.654 -0.0903431 4.16302 0
M  V30 1966 H 190.251 -2.84794 4.52544 0
M  V30 1967 H 190.594 -3.05707 2.82576 0
M  V30 1968 H 191.127 -1.57361 3.65352 0
M  V30 1969 H 187.866 -0.691561 6.51842 0
M  V30 1970 H 187.386 -2.13929 5.60352 0
M  V30 1971 H 189.065 -1.95337 6.16808 0
M  V30 1972 N 189.197 -1.51736 -0.425897 0
M  V30 1973 C 190.127 -1.76827 -1.52494 0
M  V30 1974 C 191.108 -0.618524 -1.58456 0
M  V30 1975 O 192.293 -0.862416 -1.74 0
M  V30 1976 C 189.423 -1.90374 -2.90474 0
M  V30 1977 C 188.377 -3.0588 -2.99369 0
M  V30 1978 C 187.703 -3.04625 -4.3944 0
M  V30 1979 C 189.003 -4.45644 -2.72394 0
M  V30 1980 H 190.697 -2.68855 -1.31748 0
M  V30 1981 H 188.243 -1.29372 -0.632362 0
M  V30 1982 H 190.196 -2.0651 -3.6733 0
M  V30 1983 H 188.92 -0.95004 -3.12477 0
M  V30 1984 H 187.579 -2.89467 -2.24954 0
M  V30 1985 H 187.227 -2.0701 -4.58428 0
M  V30 1986 H 186.927 -3.82195 -4.46319 0
M  V30 1987 H 188.451 -3.22869 -5.18255 0
M  V30 1988 H 189.865 -4.62348 -3.38979 0
M  V30 1989 H 188.262 -5.25006 -2.9067 0
M  V30 1990 H 189.332 -4.54893 -1.67929 0
M  V30 1991 N 190.675 0.682077 -1.42076 0
M  V30 1992 C 191.623 1.81707 -1.45208 0
M  V30 1993 C 192.617 1.66183 -0.328591 0
M  V30 1994 O 193.823 1.7288 -0.501264 0
M  V30 1995 H 190.198 0.599014 -0.454628 0
M  V30 1996 H 192.169 1.76183 -2.40836 0
M  V30 1997 C 190.918 3.19816 -1.36428 0
M  V30 1998 H 190.241 3.32385 -2.22171 0
M  V30 1999 H 191.681 3.99272 -1.42681 0
M  V30 2000 C 190.14 3.36809 -0.078191 0
M  V30 2001 O 190.67 3.92124 0.87188 0
M  V30 2002 N 188.876 2.906 0.00229266 0
M  V30 2003 H 188.423 2.45772 -0.771616 0
M  V30 2004 H 188.381 3.02347 0.862179 0
M  V30 2005 N 192.153 1.28127 0.917671 0
M  V30 2006 C 193.116 1.11744 2.00115 0
M  V30 2007 C 194.116 0.0583052 1.60694 0
M  V30 2008 O 195.306 0.303755 1.71531 0
M  V30 2009 C 192.438 0.704862 3.33533 0
M  V30 2010 H 193.631 2.07966 2.16079 0
M  V30 2011 H 191.184 1.11058 1.09981 0
M  V30 2012 H 191.919 -0.258299 3.2327 0
M  V30 2013 H 191.704 1.4699 3.63505 0
M  V30 2014 H 193.194 0.612768 4.1308 0
M  V30 2015 N 193.631 -1.12557 1.10312 0
M  V30 2016 C 194.578 -2.18247 0.750781 0
M  V30 2017 C 195.548 -1.63853 -0.272293 0
M  V30 2018 O 196.733 -1.90195 -0.151862 0
M  V30 2019 C 193.873 -3.44591 0.187379 0
M  V30 2020 C 192.986 -4.13046 1.2656 0
M  V30 2021 C 192.121 -5.27034 0.663978 0
M  V30 2022 C 191.16 -5.87353 1.72287 0
M  V30 2023 N 190.297 -6.92757 1.1416 0
M  V30 2024 H 195.137 -2.47732 1.65628 0
M  V30 2025 H 192.674 -1.21629 0.827337 0
M  V30 2026 H 194.632 -4.16904 -0.157148 0
M  V30 2027 H 193.262 -3.15527 -0.681355 0
M  V30 2028 H 192.314 -3.38924 1.72727 0
M  V30 2029 H 193.626 -4.53947 2.06721 0
M  V30 2030 H 192.78 -6.06104 0.268824 0
M  V30 2031 H 191.519 -4.87407 -0.169082 0
M  V30 2032 H 190.524 -5.06971 2.12746 0
M  V30 2033 H 191.749 -6.29051 2.55875 0
M  V30 2034 H 189.695 -6.5517 0.329984 0
M  V30 2035 H 189.612 -7.3225 1.88007 0
M  V30 2036 H 190.88 -7.75658 0.772956 0
M  V30 2037 N 195.109 -0.891671 -1.2995 0
M  V30 2038 C 196.356 -0.513501 -1.95881 0
M  V30 2039 C 196.684 0.938655 -1.70351 0
M  V30 2040 O 195.939 1.67936 -1.00478 0
M  V30 2041 C 196.238 -0.742868 -3.49594 0
M  V30 2042 C 195.904 -2.17114 -3.95186 0
M  V30 2043 C 194.566 -2.56169 -4.07346 0
M  V30 2044 C 196.918 -3.10162 -4.18866 0
M  V30 2045 C 194.246 -3.87469 -4.4055 0
M  V30 2046 C 196.598 -4.41001 -4.53542 0
M  V30 2047 C 195.262 -4.79941 -4.63911 0
M  V30 2048 H 194.532 -0.187903 -0.71678 0
M  V30 2049 H 197.179 -1.1288 -1.54694 0
M  V30 2050 H 195.484 -0.044586 -3.91775 0
M  V30 2051 H 197.181 -0.429767 -3.9869 0
M  V30 2052 H 193.771 -1.85801 -3.86233 0
M  V30 2053 H 197.955 -2.81206 -4.08946 0
M  V30 2054 H 193.211 -4.17371 -4.46779 0
M  V30 2055 H 197.385 -5.13133 -4.70815 0
M  V30 2056 H 195.012 -5.81719 -4.89395 0
M  V30 2057 N 196.587 1.43421 -0.653314 0
M  V30 2058 C 197.55 2.29182 0.0287951 0
M  V30 2059 C 198.55 1.42213 0.750465 0
M  V30 2060 O 199.74 1.63843 0.591701 0
M  V30 2061 C 196.872 3.24278 1.05151 0
M  V30 2062 H 198.065 2.90985 -0.725786 0
M  V30 2063 H 195.618 1.50702 -0.414545 0
M  V30 2064 H 196.353 2.6737 1.83532 0
M  V30 2065 H 196.138 3.88396 0.537687 0
M  V30 2066 H 197.628 3.88647 1.52786 0
M  V30 2067 N 198.065 0.39524 1.52563 0
M  V30 2068 C 199.312 -0.185044 2.01653 0
M  V30 2069 C 199.64 -1.46317 1.28146 0
M  V30 2070 O 198.895 -1.9213 0.372074 0
M  V30 2071 C 199.194 -0.493444 3.53977 0
M  V30 2072 C 198.86 0.69384 4.4553 0
M  V30 2073 C 197.522 1.01954 4.70275 0
M  V30 2074 C 199.874 1.48785 4.99512 0
M  V30 2075 C 197.202 2.14069 5.46252 0
M  V30 2076 C 199.554 2.59965 5.76716 0
M  V30 2077 C 198.218 2.93037 5.99738 0
M  V30 2078 H 197.488 -0.0677123 0.7379 0
M  V30 2079 H 200.135 0.533807 1.8391 0
M  V30 2080 H 198.44 -1.29369 3.69825 0
M  V30 2081 H 200.137 -0.955163 3.89458 0
M  V30 2082 H 196.727 0.429987 4.26438 0
M  V30 2083 H 200.911 1.24946 4.80315 0
M  V30 2084 H 196.167 2.40056 5.62302 0
M  V30 2085 H 200.341 3.21887 6.17545 0
M  V30 2086 H 197.968 3.8003 6.58393 0
M  V30 2087 N 199.544 -1.57102 0.125237 0
M  V30 2088 C 200.492 -2.16905 -0.839927 0
M  V30 2089 C 201.486 -1.11998 -1.27094 0
M  V30 2090 O 202.692 -1.3029 -1.24195 0
M  V30 2091 H 199.067 -0.694252 -0.288995 0
M  V30 2092 H 201.038 -2.96774 -0.311115 0
M  V30 2093 C 199.787 -2.78795 -2.07771 0
M  V30 2094 H 199.11 -3.59221 -1.755 0
M  V30 2095 H 200.55 -3.2417 -2.73295 0
M  V30 2096 C 199.009 -1.76193 -2.87155 0
M  V30 2097 O 199.539 -1.21909 -3.82755 0
M  V30 2098 N 197.745 -1.45991 -2.51267 0
M  V30 2099 H 197.292 -1.90325 -1.73592 0
M  V30 2100 H 197.25 -0.775844 -3.04677 0
M  V30 2101 N 201.022 0.148545 -1.56898 0
M  V30 2102 C 201.952 1.18524 -2.01182 0
M  V30 2103 C 202.933 1.4489 -0.891123 0
M  V30 2104 O 204.118 1.55836 -1.15882 0
M  V30 2105 C 201.248 2.51879 -2.39112 0
M  V30 2106 C 200.202 2.40038 -3.54353 0
M  V30 2107 C 199.528 3.78089 -3.78091 0
M  V30 2108 C 200.828 1.88577 -4.87069 0
M  V30 2109 H 202.522 0.817029 -2.88036 0
M  V30 2110 H 200.068 0.391575 -1.38574 0
M  V30 2111 H 202.021 3.24627 -2.68692 0
M  V30 2112 H 200.745 2.90532 -1.49193 0
M  V30 2113 H 199.404 1.69742 -3.24936 0
M  V30 2114 H 199.052 4.14175 -2.85426 0
M  V30 2115 H 198.752 3.71028 -4.55645 0
M  V30 2116 H 200.276 4.52387 -4.10095 0
M  V30 2117 H 201.69 2.51117 -5.15377 0
M  V30 2118 H 200.087 1.9241 -5.68417 0
M  V30 2119 H 201.157 0.84136 -4.77545 0
M  V30 2120 N 202.5 1.5196 0.417844 0
M  V30 2121 C 203.73 1.69181 1.18581 0
M  V30 2122 C 204.138 0.397104 1.84986 0
M  V30 2123 O 203.481 -0.636011 1.72339 0
M  V30 2124 C 203.543 2.76497 2.29759 0
M  V30 2125 C 203.207 4.18514 1.83563 0
M  V30 2126 C 204.204 5.02648 1.32821 0
M  V30 2127 C 201.889 4.64708 1.90661 0
M  V30 2128 C 203.883 6.31044 0.897894 0
M  V30 2129 C 201.57 5.93096 1.47241 0
M  V30 2130 C 202.568 6.76093 0.968891 0
M  V30 2131 O 202.256 8.02078 0.540924 0
M  V30 2132 H 201.988 0.570457 0.362705 0
M  V30 2133 H 204.542 1.99249 0.498885 0
M  V30 2134 H 202.772 2.41786 3.01789 0
M  V30 2135 H 204.461 2.82403 2.91553 0
M  V30 2136 H 205.227 4.68154 1.26716 0
M  V30 2137 H 201.106 4.00216 2.28797 0
M  V30 2138 H 204.65 6.95776 0.504192 0
M  V30 2139 H 200.547 6.271 1.53022 0
M  V30 2140 H 201.315 8.15794 0.66502 0
M  V30 2141 N 203.978 -0.674533 1.42435 0
M  V30 2142 C 205.394 -0.98769 1.25367 0
M  V30 2143 C 205.594 -2.00879 0.158044 0
M  V30 2144 O 204.65 -2.48075 -0.470633 0
M  V30 2145 C 205.963 -1.49224 2.6106 0
M  V30 2146 C 207.511 -1.61 2.68417 0
M  V30 2147 C 207.986 -2.14852 4.04478 0
M  V30 2148 N 209.477 -2.22185 4.06434 0
M  V30 2149 C 210.212 -2.64928 5.08528 0
M  V30 2150 N 209.708 -3.07121 6.21006 0
M  V30 2151 N 211.501 -2.64679 4.95885 0
M  V30 2152 H 203.652 0.00152503 2.124 0
M  V30 2153 H 205.915 -0.0618434 0.945981 0
M  V30 2154 H 205.621 -0.816453 3.42092 0
M  V30 2155 H 205.495 -2.47094 2.84999 0
M  V30 2156 H 207.882 -2.27686 1.87732 0
M  V30 2157 H 207.963 -0.616195 2.48267 0
M  V30 2158 H 207.607 -1.48775 4.85622 0
M  V30 2159 H 207.537 -3.15024 4.2198 0
M  V30 2160 H 210.028 -1.92435 3.25234 0
M  V30 2161 H 210.341 -3.38423 6.94759 0
M  V30 2162 H 208.686 -3.04978 6.24511 0
M  V30 2163 H 211.877 -2.31078 4.07088 0
M  V30 2164 H 212.05 -2.9767 5.75584 0
M  V30 2165 N 205.456 -1.28612 -0.910864 0
M  V30 2166 C 206.702 -1.16106 -1.66274 0
M  V30 2167 C 207.035 0.289113 -1.92036 0
M  V30 2168 O 206.31 1.21 -1.52281 0
M  V30 2169 C 206.593 -1.96309 -3.01885 0
M  V30 2170 C 206.446 -3.49405 -2.8326 0
M  V30 2171 C 207.765 -1.78076 -4.02463 0
M  V30 2172 H 204.884 -0.423152 -0.603417 0
M  V30 2173 H 207.526 -1.57961 -1.05586 0
M  V30 2174 H 205.676 -1.60742 -3.53687 0
M  V30 2175 H 207.348 -3.94894 -2.38446 0
M  V30 2176 H 205.591 -3.74893 -2.18261 0
M  V30 2177 H 206.262 -4.00784 -3.79574 0
M  V30 2178 H 208.738 -2.0912 -3.59733 0
M  V30 2179 H 207.614 -2.36561 -4.95308 0
M  V30 2180 H 207.875 -0.733008 -4.35981 0
M  V30 2181 N 206.934 1.1197 -1.10907 0
M  V30 2182 C 207.864 2.19928 -0.784473 0
M  V30 2183 C 208.845 1.6833 0.244726 0
M  V30 2184 O 210.03 1.93892 0.109418 0
M  V30 2185 C 207.16 3.46597 -0.220827 0
M  V30 2186 C 206.114 4.11376 -1.18127 0
M  V30 2187 C 205.44 5.32554 -0.478594 0
M  V30 2188 C 206.74 4.56945 -2.52979 0
M  V30 2189 H 208.434 2.47337 -1.68715 0
M  V30 2190 H 205.98 1.18879 -0.812642 0
M  V30 2191 H 207.933 4.21396 0.0184278 0
M  V30 2192 H 206.657 3.1863 0.717113 0
M  V30 2193 H 205.316 3.38564 -1.40606 0
M  V30 2194 H 204.964 5.00856 0.463976 0
M  V30 2195 H 204.664 5.76844 -1.11912 0
M  V30 2196 H 206.188 6.10096 -0.248 0
M  V30 2197 H 207.602 5.23093 -2.3462 0
M  V30 2198 H 205.999 5.1203 -3.12962 0
M  V30 2199 H 207.069 3.70676 -3.12614 0
M  V30 2200 N 208.412 0.89855 1.29475 0
M  V30 2201 C 209.359 0.373819 2.27753 0
M  V30 2202 C 210.329 -0.543444 1.56958 0
M  V30 2203 O 211.514 -0.468934 1.84948 0
M  V30 2204 C 208.654 -0.393648 3.42848 0
M  V30 2205 C 207.767 0.554379 4.28428 0
M  V30 2206 C 206.902 -0.230026 5.30702 0
M  V30 2207 C 205.941 0.712599 6.07938 0
M  V30 2208 N 205.078 -0.0373283 7.0209 0
M  V30 2209 H 209.918 1.21699 2.72017 0
M  V30 2210 H 207.455 0.611456 1.33789 0
M  V30 2211 H 209.413 -0.85466 4.08352 0
M  V30 2212 H 208.043 -1.20128 2.99615 0
M  V30 2213 H 207.095 1.13391 3.63107 0
M  V30 2214 H 208.407 1.27597 4.82204 0
M  V30 2215 H 207.561 -0.752288 6.02018 0
M  V30 2216 H 206.3 -0.984758 4.77654 0
M  V30 2217 H 205.305 1.24637 5.35486 0
M  V30 2218 H 206.53 1.46664 6.63074 0
M  V30 2219 H 204.476 -0.774348 6.51414 0
M  V30 2220 H 204.393 0.624374 7.53417 0
M  V30 2221 H 205.661 -0.539891 7.77628 0
M  V30 2222 N 209.89 -1.43072 0.660911 0
M  V30 2223 C 211.167 -1.95307 0.107017 0
M  V30 2224 C 211.547 -1.60192 -1.37484 0
M  V30 2225 O 210.895 -0.890949 -2.10415 0
M  V30 2226 C 211.105 -3.47124 0.361402 0
M  V30 2227 C 212.453 -4.23738 0.270455 0
M  V30 2228 O 213.477 -3.54981 0.294382 0
M  V30 2229 O 212.336 -5.46131 0.200737 0
M  V30 2230 H 209.43 -0.826984 -0.00517729 0
M  V30 2231 H 211.976 -1.52972 0.734681 0
M  V30 2232 H 210.748 -3.65837 1.38848 0
M  V30 2233 H 210.371 -3.96475 -0.298953 0
M  V30 2234 N 211.368 -0.403325 -1.52352 0
M  V30 2235 C 212.3 0.4603 -2.2453 0
M  V30 2236 C 213.313 1.01505 -1.27282 0
M  V30 2237 O 214.502 0.914982 -1.53266 0
M  V30 2238 C 211.602 1.65208 -2.95905 0
M  V30 2239 C 210.775 1.22224 -4.19976 0
M  V30 2240 C 209.834 2.28028 -4.74226 0
M  V30 2241 O 208.86 1.88857 -5.36956 0
M  V30 2242 N 210.062 3.6012 -4.55295 0
M  V30 2243 H 212.827 -0.158156 -2.99282 0
M  V30 2244 H 210.388 -0.230402 -1.60252 0
M  V30 2245 H 212.38 2.35541 -3.29093 0
M  V30 2246 H 210.95 2.17658 -2.24374 0
M  V30 2247 H 210.17 0.34725 -3.92668 0
M  V30 2248 H 211.458 0.911924 -5.00561 0
M  V30 2249 H 210.856 3.94698 -4.05253 0
M  V30 2250 H 209.413 4.26447 -4.92936 0
M  V30 2251 N 212.846 1.57033 -0.133567 0
M  V30 2252 C 214.092 1.95976 0.521649 0
M  V30 2253 C 214.425 1.01779 1.65393 0
M  V30 2254 O 213.7 0.0576581 1.94415 0
M  V30 2255 C 213.983 3.44738 1.04057 0
M  V30 2256 C 213.836 4.49711 -0.0892897 0
M  V30 2257 C 215.155 3.95682 1.92675 0
M  V30 2258 H 212.274 0.712579 0.188149 0
M  V30 2259 H 214.916 1.88813 -0.212076 0
M  V30 2260 H 213.066 3.50973 1.66583 0
M  V30 2261 H 214.738 4.55565 -0.725152 0
M  V30 2262 H 212.981 4.27261 -0.750378 0
M  V30 2263 H 213.652 5.51099 0.315284 0
M  V30 2264 H 216.128 3.91841 1.39998 0
M  V30 2265 H 215.004 5.00262 2.25897 0
M  V30 2266 H 215.265 3.37239 2.85872 0
M  V30 2267 N 214.325 -0.140222 1.56975 0
M  V30 2268 C 215.273 -1.19207 1.99731 0
M  V30 2269 C 216.267 -1.44089 0.890777 0
M  V30 2270 O 217.473 -1.44301 1.07597 0
M  V30 2271 H 213.848 -0.40142 0.635898 0
M  V30 2272 H 215.819 -0.804813 2.87342 0
M  V30 2273 C 214.568 -2.51617 2.39967 0
M  V30 2274 H 213.891 -2.33303 3.24669 0
M  V30 2275 H 215.331 -3.23827 2.73701 0
M  V30 2276 C 213.79 -3.12654 1.25496 0
M  V30 2277 O 214.32 -3.97786 0.559371 0
M  V30 2278 N 212.526 -2.72206 1.01746 0
M  V30 2279 H 212.073 -2.03074 1.58489 0
M  V30 2280 H 212.031 -3.13377 0.253461 0
M  V30 2281 N 215.803 -1.52179 -0.40978 0
M  V30 2282 C 217.031 -1.70054 -1.17853 0
M  V30 2283 C 217.446 -0.409735 -1.843 0
M  V30 2284 O 216.803 0.614183 -1.71855 0
M  V30 2285 C 216.854 -2.83568 -2.24213 0
M  V30 2286 O 216.575 -4.0765 -1.60478 0
M  V30 2287 C 218.076 -3.12947 -3.13973 0
M  V30 2288 H 215.296 -0.569917 -0.354169 0
M  V30 2289 H 217.84 -1.98734 -0.482198 0
M  V30 2290 H 215.995 -2.57409 -2.89516 0
M  V30 2291 H 216.409 -4.70899 -2.30986 0
M  V30 2292 H 217.883 -3.95889 -3.84677 0
M  V30 2293 H 218.36 -2.26472 -3.76307 0
M  V30 2294 H 218.966 -3.40868 -2.5434 0
M  V30 2295 N 217.281 0.66697 -1.42791 0
M  V30 2296 C 218.528 1.42699 -1.43678 0
M  V30 2297 C 218.856 1.94419 -0.0560425 0
M  V30 2298 O 218.111 1.7182 0.936831 0
M  V30 2299 C 218.41 2.6349 -2.4147 0
M  V30 2300 C 218.076 2.30267 -3.8767 0
M  V30 2301 C 216.738 2.20918 -4.27491 0
M  V30 2302 C 219.09 2.03435 -4.79858 0
M  V30 2303 C 216.418 1.82873 -5.57471 0
M  V30 2304 C 218.77 1.66892 -6.10188 0
M  V30 2305 C 217.434 1.56058 -6.49001 0
M  V30 2306 H 216.704 0.522171 -0.525755 0
M  V30 2307 H 219.351 0.759785 -1.75783 0
M  V30 2308 H 217.656 3.35279 -2.0272 0
M  V30 2309 H 219.353 3.21684 -2.39417 0
M  V30 2310 H 215.943 2.38449 -3.56146 0
M  V30 2311 H 220.127 2.09586 -4.49875 0
M  V30 2312 H 215.383 1.7306 -5.86396 0
M  V30 2313 H 219.557 1.45157 -6.81104 0
M  V30 2314 H 217.184 1.26348 -7.49627 0
M  V30 2315 N 218.759 1.29093 0.90403 0
M  V30 2316 C 220.036 1.075 1.63411 0
M  V30 2317 C 220.416 -0.382346 2.07609 0
M  V30 2318 O 219.764 -1.37031 1.82851 0
M  V30 2319 C 219.974 2.05858 2.81822 0
M  V30 2320 C 221.322 2.36539 3.52611 0
M  V30 2321 O 222.346 2.04019 2.91984 0
M  V30 2322 O 221.205 2.92085 4.61897 0
M  V30 2323 H 218.299 0.411547 0.717327 0
M  V30 2324 H 220.845 1.40449 0.952479 0
M  V30 2325 H 219.617 3.04037 2.46327 0
M  V30 2326 H 219.24 1.73613 3.57693 0
M  V30 2327 N 220.237 -1.11381 1.11499 0
M  V30 2328 C 221.185 -2.19522 0.768956 0
M  V30 2329 C 222.179 -1.67693 -0.239857 0
M  V30 2330 O 223.385 -1.79727 -0.0990755 0
M  V30 2331 H 219.76 -0.715711 0.230786 0
M  V30 2332 H 221.731 -2.45954 1.68964 0
M  V30 2333 C 220.48 -3.46945 0.229073 0
M  V30 2334 H 219.803 -3.8718 0.996596 0
M  V30 2335 H 221.243 -4.23993 0.0251441 0
M  V30 2336 C 219.702 -3.2042 -1.04079 0
M  V30 2337 O 220.232 -3.41178 -2.12038 0
M  V30 2338 N 218.438 -2.74151 -0.963823 0
M  V30 2339 H 217.985 -2.57459 -0.0851722 0
M  V30 2340 H 217.943 -2.56781 -1.81414 0
M  V30 2341 N 221.715 -0.905404 -1.28997 0
M  V30 2342 C 222.964 -0.530191 -1.94607 0
M  V30 2343 C 223.277 0.929185 -1.72121 0
M  V30 2344 O 224.483 1.41218 -2.31883 0
M  V30 2345 C 222.939 -0.897333 -3.48534 0
M  V30 2346 C 222.547 -2.37587 -3.79811 0
M  V30 2347 C 224.291 -0.592304 -4.20347 0
M  V30 2348 C 222.198 -2.68357 -5.27009 0
M  V30 2349 H 221.128 -0.194558 -0.728466 0
M  V30 2350 H 223.779 -1.10318 -1.46636 0
M  V30 2351 H 222.161 -0.253214 -3.9519 0
M  V30 2352 H 223.335 -3.06602 -3.43994 0
M  V30 2353 H 221.65 -2.6505 -3.2115 0
M  V30 2354 H 224.247 -0.798975 -5.28697 0
M  V30 2355 H 224.59 0.469474 -4.13644 0
M  V30 2356 H 225.123 -1.19452 -3.79442 0
M  V30 2357 H 221.862 -3.73355 -5.38782 0
M  V30 2358 H 221.382 -2.03971 -5.64053 0
M  V30 2359 H 223.061 -2.54922 -5.94663 0
M  V30 2360 N 223.193 1.4272 -0.668489 0
M  V30 2361 C 224.44 2.01624 -0.18814 0
M  V30 2362 C 224.768 1.5282 1.20317 0
M  V30 2363 O 224.023 0.718323 1.8204 0
M  V30 2364 C 224.322 3.57021 -0.164499 0
M  V30 2365 C 223.988 4.25232 -1.49962 0
M  V30 2366 C 222.65 4.4358 -1.8652 0
M  V30 2367 C 225.002 4.63727 -2.37921 0
M  V30 2368 C 222.33 4.97694 -3.10674 0
M  V30 2369 C 224.682 5.19218 -3.6138 0
M  V30 2370 C 223.346 5.3578 -3.98115 0
M  V30 2371 H 222.616 0.737795 -0.0688454 0
M  V30 2372 H 225.263 1.70991 -0.862225 0
M  V30 2373 H 223.568 3.87285 0.593079 0
M  V30 2374 H 225.265 4.00372 0.224271 0
M  V30 2375 H 221.855 4.11306 -1.20522 0
M  V30 2376 H 226.039 4.4923 -2.10964 0
M  V30 2377 H 221.295 5.08702 -3.39164 0
M  V30 2378 H 225.469 5.4799 -4.29743 0
M  V30 2379 H 223.096 5.77475 -4.94395 0
M  V30 2380 N 224.671 0.411399 1.52136 0
M  V30 2381 C 225.92 -0.165009 2.01024 0
M  V30 2382 C 226.233 -1.4603 1.30133 0
M  V30 2383 O 227.439 -2.1181 1.69849 0
M  V30 2384 C 225.895 -0.344618 3.58246 0
M  V30 2385 C 225.503 0.938716 4.38055 0
M  V30 2386 C 227.247 -0.876195 4.15359 0
M  V30 2387 C 225.154 0.726172 5.86925 0
M  V30 2388 H 224.084 -0.0654407 0.751155 0
M  V30 2389 H 226.735 0.537192 1.75461 0
M  V30 2390 H 225.117 -1.10921 3.80148 0
M  V30 2391 H 226.291 1.70963 4.27912 0
M  V30 2392 H 224.606 1.39688 3.92271 0
M  V30 2393 H 227.203 -1.05128 5.24263 0
M  V30 2394 H 227.546 -1.85152 3.7286 0
M  V30 2395 H 228.079 -0.170607 3.97434 0
M  V30 2396 H 224.818 1.67312 6.33788 0
M  V30 2397 H 224.338 -0.00540283 5.998 0
M  V30 2398 H 226.017 0.369231 6.45946 0
M  V30 2399 N 226.149 -1.5696 0.141893 0
M  V30 2400 C 227.112 -2.15316 -0.785587 0
M  V30 2401 C 228.112 -1.09366 -1.1788 0
M  V30 2402 O 229.302 -1.35031 -1.10056 0
M  V30 2403 C 226.434 -2.71211 -2.06537 0
M  V30 2404 H 227.627 -2.98608 -0.278041 0
M  V30 2405 H 225.18 -1.5593 -0.107519 0
M  V30 2406 H 225.915 -1.91571 -2.6167 0
M  V30 2407 H 225.7 -3.4872 -1.79268 0
M  V30 2408 H 227.19 -3.16189 -2.72789 0
M  V30 2409 N 227.627 0.131896 -1.57047 0
M  V30 2410 C 229.038 0.690407 -1.73465 0
M  V30 2411 C 229.389 1.8094 -0.758629 0
M  V30 2412 O 228.514 2.16282 0.0713813 0
M  V30 2413 C 229.109 1.25916 -3.14532 0
M  V30 2414 C 227.668 1.76409 -3.32501 0
M  V30 2415 C 226.815 0.658579 -2.69366 0
M  V30 2416 H 229.766 -0.0939144 -1.58422 0
M  V30 2417 H 229.787 2.12892 -3.15369 0
M  V30 2418 H 229.299 0.444515 -3.85546 0
M  V30 2419 H 227.4 2.60391 -2.66509 0
M  V30 2420 H 227.513 1.88241 -4.4057 0
M  V30 2421 H 225.877 1.08899 -2.30246 0
M  V30 2422 H 226.66 -0.14487 -3.42994 0
M  V30 2423 N 229.106 1.52395 0.401703 0
M  V30 2424 C 230.352 1.67065 1.14966 0
M  V30 2425 C 230.685 0.403052 1.89971 0
M  V30 2426 O 229.96 -0.598774 1.85054 0
M  V30 2427 C 230.243 2.8975 2.13815 0
M  V30 2428 C 230.096 4.26578 1.42658 0
M  V30 2429 C 231.415 3.07965 3.14397 0
M  V30 2430 H 228.534 0.607968 0.416587 0
M  V30 2431 H 231.176 1.84965 0.434511 0
M  V30 2432 H 229.326 2.74619 2.74803 0
M  V30 2433 H 230.998 4.53451 0.847329 0
M  V30 2434 H 229.241 4.27639 0.72849 0
M  V30 2435 H 229.912 5.08483 2.14823 0
M  V30 2436 H 232.388 3.22043 2.63491 0
M  V30 2437 H 231.264 3.95308 3.80819 0
M  V30 2438 H 231.525 2.21611 3.82545 0
M  V30 2439 N 230.584 -0.659388 1.43143 0
M  V30 2440 C 231.832 -1.41654 1.44147 0
M  V30 2441 C 232.153 -1.94893 0.0645739 0
M  V30 2442 O 231.423 -1.74044 -0.899198 0
M  V30 2443 H 230.003 -0.525708 0.530697 0
M  V30 2444 H 232.665 -0.778097 1.78694 0
M  V30 2445 H 231.761 -2.26195 2.1504 0
M  V30 2446 N 232.062 -1.29571 -0.897171 0
M  V30 2447 C 233.311 -1.1706 -1.64256 0
M  V30 2448 C 233.624 0.276476 -1.93636 0
M  V30 2449 O 234.83 0.52294 -2.66416 0
M  V30 2450 C 233.286 -2.0475 -2.95982 0
M  V30 2451 C 232.894 -3.54295 -2.74187 0
M  V30 2452 C 234.638 -2.0097 -3.73914 0
M  V30 2453 C 232.545 -4.34081 -4.01656 0
M  V30 2454 H 231.475 -0.43452 -0.616205 0
M  V30 2455 H 234.126 -1.54229 -0.994268 0
M  V30 2456 H 232.508 -1.60452 -3.62038 0
M  V30 2457 H 233.682 -4.06662 -2.1671 0
M  V30 2458 H 231.997 -3.59773 -2.09648 0
M  V30 2459 H 234.594 -2.57838 -4.68427 0
M  V30 2460 H 234.937 -0.990273 -4.0435 0
M  V30 2461 H 235.47 -2.43325 -3.14703 0
M  V30 2462 H 232.209 -5.36671 -3.76384 0
M  V30 2463 H 231.729 -3.86483 -4.58684 0
M  V30 2464 H 233.408 -4.44877 -4.69781 0
M  V30 2465 N 233.54 1.10788 -1.12088 0
M  V30 2466 C 234.765 1.87002 -0.896949 0
M  V30 2467 C 235.19 1.79933 0.548261 0
M  V30 2468 O 234.548 1.16662 1.38779 0
M  V30 2469 C 234.596 3.3349 -1.37174 0
M  V30 2470 O 233.7 4.08745 -0.547831 0
M  V30 2471 H 233.041 0.580397 -0.322545 0
M  V30 2472 H 235.571 1.39996 -1.49206 0
M  V30 2473 H 235.581 3.84339 -1.36922 0
M  V30 2474 H 234.256 3.37951 -2.42408 0
M  V30 2475 H 232.833 3.6776 -0.617034 0
M  V30 2476 N 235.018 0.912232 1.28515 0
M  V30 2477 C 236.246 0.560416 1.99166 0
M  V30 2478 C 236.661 -0.857927 1.68182 0
M  V30 2479 O 236.018 -1.56805 0.933733 0
M  V30 2480 C 236.069 0.758142 3.53461 0
M  V30 2481 O 235.79 2.12067 3.83352 0
M  V30 2482 C 237.291 0.412954 4.41372 0
M  V30 2483 H 234.511 0.213805 0.636026 0
M  V30 2484 H 237.055 1.22502 1.63749 0
M  V30 2485 H 235.21 0.140556 3.87145 0
M  V30 2486 H 235.624 2.15923 4.77993 0
M  V30 2487 H 237.098 0.60208 5.48707 0
M  V30 2488 H 237.575 -0.65073 4.34353 0
M  V30 2489 H 238.181 1.00802 4.13182 0
M  V30 2490 N 236.496 -1.42363 0.676048 0
M  V30 2491 C 237.459 -2.29199 0.00766941 0
M  V30 2492 C 238.459 -1.43389 -0.727745 0
M  V30 2493 O 239.649 -1.64764 -0.56556 0
M  V30 2494 C 236.781 -3.2591 -0.999785 0
M  V30 2495 H 237.974 -2.89794 0.771988 0
M  V30 2496 H 235.527 -1.50024 0.438468 0
M  V30 2497 H 236.262 -2.70256 -1.79255 0
M  V30 2498 H 236.047 -3.89202 -0.475829 0
M  V30 2499 H 237.537 -3.91028 -1.46583 0
M  V30 2500 N 237.974 -0.419461 -1.51915 0
M  V30 2501 C 238.907 0.445751 -2.23804 0
M  V30 2502 C 239.885 1.03951 -1.25031 0
M  V30 2503 O 241.069 1.08541 -1.54114 0
M  V30 2504 C 238.196 1.61964 -2.97465 0
M  V30 2505 C 237.242 1.14828 -4.10751 0
M  V30 2506 S 238.075 0.104938 -5.35397 0
M  V30 2507 C 239.231 1.28391 -6.1259 0
M  V30 2508 H 239.464 -0.164627 -2.96844 0
M  V30 2509 H 236.997 -0.203833 -1.53049 0
M  V30 2510 H 238.955 2.29271 -3.40507 0
M  V30 2511 H 237.616 2.20139 -2.24048 0
M  V30 2512 H 236.809 2.02561 -4.61503 0
M  V30 2513 H 236.411 0.553712 -3.69878 0
M  V30 2514 H 238.703 2.20563 -6.40592 0
M  V30 2515 H 239.646 0.816724 -7.03374 0
M  V30 2516 H 240.054 1.51439 -5.43807 0
M  V30 2517 N 239.452 1.56882 -0.150215 0
M  V30 2518 C 240.7 1.9584 0.499105 0
M  V30 2519 C 241.021 1.03623 1.65188 0
M  V30 2520 O 240.291 0.0984084 1.95653 0
M  V30 2521 H 238.871 0.723119 0.187373 0
M  V30 2522 H 241.533 1.9358 -0.226466 0
M  V30 2523 H 240.629 2.99638 0.873122 0
M  V30 2524 N 240.93 -0.123565 1.57115 0
M  V30 2525 C 241.863 -1.18202 1.95201 0
M  V30 2526 C 242.841 -1.40349 0.821031 0
M  V30 2527 O 244.025 -1.54578 1.07879 0
M  V30 2528 C 241.152 -2.53671 2.24429 0
M  V30 2529 C 240.198 -2.4798 3.46999 0
M  V30 2530 S 241.031 -1.92389 4.99747 0
M  V30 2531 C 242.187 -3.2954 5.32123 0
M  V30 2532 H 242.42 -0.857212 2.84674 0
M  V30 2533 H 239.953 -0.33014 1.50829 0
M  V30 2534 H 241.911 -3.3162 2.41947 0
M  V30 2535 H 240.572 -2.83332 1.35579 0
M  V30 2536 H 239.765 -3.47758 3.64801 0
M  V30 2537 H 239.367 -1.7815 3.28844 0
M  V30 2538 H 241.659 -4.25736 5.27025 0
M  V30 2539 H 242.602 -3.16569 6.33395 0
M  V30 2540 H 243.01 -3.27758 4.59603 0
M  V30 2541 N 242.408 -1.52605 -0.393616 0
M  V30 2542 C 243.657 -1.66649 -1.13627 0
M  V30 2543 C 243.97 -0.410364 -1.91247 0
M  V30 2544 O 245.176 -0.430854 -2.68059 0
M  V30 2545 C 243.632 -2.9449 -2.06891 0
M  V30 2546 C 243.24 -4.27266 -1.34714 0
M  V30 2547 C 244.984 -3.17899 -2.81319 0
M  V30 2548 C 242.891 -5.46217 -2.26717 0
M  V30 2549 H 241.821 -0.62084 -0.427871 0
M  V30 2550 H 244.472 -1.791 -0.399428 0
M  V30 2551 H 242.854 -2.75774 -2.84191 0
M  V30 2552 H 244.028 -4.56518 -0.626714 0
M  V30 2553 H 242.343 -4.10081 -0.722643 0
M  V30 2554 H 244.94 -4.03949 -3.50328 0
M  V30 2555 H 245.283 -2.32777 -3.45139 0
M  V30 2556 H 245.816 -3.37159 -2.11113 0
M  V30 2557 H 242.555 -6.33733 -1.67521 0
M  V30 2558 H 242.075 -5.21283 -2.96689 0
M  V30 2559 H 243.754 -5.7991 -2.86903 0
M  V30 2560 N 243.887 0.651787 -1.4349 0
M  V30 2561 C 245.112 1.44434 -1.48841 0
M  V30 2562 C 245.537 1.8779 -0.107955 0
M  V30 2563 O 244.895 1.57464 0.898602 0
M  V30 2564 C 244.943 2.65458 -2.44059 0
M  V30 2565 O 244.047 3.64566 -1.92784 0
M  V30 2566 H 243.388 0.433005 -0.503391 0
M  V30 2567 H 245.918 0.797451 -1.88419 0
M  V30 2568 H 245.928 3.13255 -2.6141 0
M  V30 2569 H 244.603 2.33244 -3.4434 0
M  V30 2570 H 243.18 3.23716 -1.851 0
M  V30 2571 N 245.365 1.30045 0.890287 0
M  V30 2572 C 246.295 1.18541 2.01172 0
M  V30 2573 C 247.276 0.0773356 1.69924 0
M  V30 2574 O 248.461 0.25845 1.92473 0
M  V30 2575 C 245.591 0.870941 3.36202 0
M  V30 2576 C 244.545 1.93637 3.81692 0
M  V30 2577 C 243.871 1.475 5.13953 0
M  V30 2578 C 245.171 3.34666 4.00994 0
M  V30 2579 H 246.865 2.12359 2.11054 0
M  V30 2580 H 244.411 1.02238 1.01407 0
M  V30 2581 H 246.364 0.777141 4.14172 0
M  V30 2582 H 245.088 -0.102926 3.26438 0
M  V30 2583 H 243.747 2.01972 3.05946 0
M  V30 2584 H 243.395 0.489551 5.00612 0
M  V30 2585 H 243.095 2.1876 5.4536 0
M  V30 2586 H 244.619 1.39489 5.94454 0
M  V30 2587 H 246.033 3.2912 4.69417 0
M  V30 2588 H 244.43 4.03966 4.43769 0
M  V30 2589 H 245.5 3.76949 3.05021 0
M  V30 2590 N 246.843 -1.10192 1.12674 0
M  V30 2591 C 248.091 -1.81845 0.881861 0
M  V30 2592 C 248.412 -1.85737 -0.593867 0
M  V30 2593 O 247.682 -1.33724 -1.4316 0
M  V30 2594 H 246.262 -0.673432 0.323261 0
M  V30 2595 H 248.924 -1.33316 1.42172 0
M  V30 2596 H 248.02 -2.85288 1.2656 0
M  V30 2597 N 248.321 -0.919034 -1.28029 0
M  V30 2598 C 249.251 -0.428581 -2.29533 0
M  V30 2599 C 250.232 0.50659 -1.62381 0
M  V30 2600 O 251.417 0.413195 -1.89753 0
M  V30 2601 C 248.547 0.327388 -3.45753 0
M  V30 2602 C 247.501 -0.519137 -4.2484 0
M  V30 2603 C 246.827 0.365486 -5.33449 0
M  V30 2604 C 248.127 -1.77914 -4.91064 0
M  V30 2605 H 249.821 -1.27687 -2.70807 0
M  V30 2606 H 247.367 -0.615428 -1.30186 0
M  V30 2607 H 249.32 0.681378 -4.15855 0
M  V30 2608 H 248.044 1.20963 -3.03374 0
M  V30 2609 H 246.703 -0.855717 -3.56473 0
M  V30 2610 H 246.351 1.24642 -4.87312 0
M  V30 2611 H 246.051 -0.197356 -5.87268 0
M  V30 2612 H 247.575 0.715241 -6.06396 0
M  V30 2613 H 248.989 -1.49374 -5.53498 0
M  V30 2614 H 247.386 -2.2848 -5.54903 0
M  V30 2615 H 248.456 -2.50382 -4.15255 0
M  V30 2616 N 249.799 1.42003 -0.683588 0
M  V30 2617 C 250.746 2.30798 -0.0107309 0
M  V30 2618 C 251.716 1.4645 0.783688 0
M  V30 2619 O 252.901 1.75263 0.754156 0
M  V30 2620 C 250.041 3.3238 0.928306 0
M  V30 2621 C 249.154 4.31814 0.126776 0
M  V30 2622 C 248.289 5.20468 1.06236 0
M  V30 2623 C 247.328 6.11577 0.253035 0
M  V30 2624 N 246.465 6.92754 1.14179 0
M  V30 2625 H 251.305 2.8778 -0.773727 0
M  V30 2626 H 248.842 1.41745 -0.393283 0
M  V30 2627 H 250.8 3.89813 1.48666 0
M  V30 2628 H 249.43 2.76976 1.65783 0
M  V30 2629 H 248.482 3.76427 -0.54833 0
M  V30 2630 H 249.794 4.96276 -0.501192 0
M  V30 2631 H 248.948 5.82677 1.69035 0
M  V30 2632 H 247.687 4.56204 1.7242 0
M  V30 2633 H 246.692 5.48428 -0.388108 0
M  V30 2634 H 247.917 6.77892 -0.404839 0
M  V30 2635 H 245.863 6.3111 1.78987 0
M  V30 2636 H 245.78 7.53855 0.569111 0
M  V30 2637 H 247.048 7.59441 1.75697 0
M  V30 2638 N 251.277 0.427512 1.51691 0
M  V30 2639 C 252.525 -0.141948 2.01601 0
M  V30 2640 C 252.846 -1.44067 1.31414 0
M  V30 2641 O 252.116 -1.90763 0.445658 0
M  V30 2642 H 250.696 -0.0554468 0.744939 0
M  V30 2643 H 253.358 0.567968 1.86441 0
M  V30 2644 H 252.454 -0.324913 3.10404 0
M  V30 2645 N 252.755 -1.56801 0.158532 0
M  V30 2646 C 253.665 -2.20916 -0.789518 0
M  V30 2647 C 254.681 -1.1969 -1.26294 0
M  V30 2648 O 255.857 -1.52308 -1.31773 0
M  V30 2649 C 252.922 -2.82727 -2.00665 0
M  V30 2650 C 251.983 -3.99114 -1.58134 0
M  V30 2651 C 251.216 -4.57968 -2.74045 0
M  V30 2652 O 251.439 -4.15704 -3.90572 0
M  V30 2653 O 250.373 -5.48047 -2.48855 0
M  V30 2654 H 254.199 -3.02464 -0.273681 0
M  V30 2655 H 251.784 -1.4924 -0.0690548 0
M  V30 2656 H 253.666 -3.21968 -2.71872 0
M  V30 2657 H 252.341 -2.04184 -2.51179 0
M  V30 2658 H 251.248 -3.64567 -0.839155 0
M  V30 2659 H 252.581 -4.79212 -1.12325 0
M  V30 2660 N 254.233 0.115231 -1.57178 0
M  V30 2661 C 255.461 0.836437 -1.89239 0
M  V30 2662 C 255.876 1.73256 -0.750175 0
M  V30 2663 O 255.233 1.80357 0.278832 0
M  V30 2664 C 255.284 1.66671 -3.20785 0
M  V30 2665 O 255.005 0.806652 -4.3061 0
M  V30 2666 C 256.506 2.49274 -3.66575 0
M  V30 2667 H 253.726 0.240253 -0.626514 0
M  V30 2668 H 256.27 0.0984932 -2.04263 0
M  V30 2669 H 254.425 2.35737 -3.0742 0
M  V30 2670 H 254.839 1.37969 -5.06028 0
M  V30 2671 H 256.313 3.03055 -4.6137 0
M  V30 2672 H 256.79 3.26807 -2.93417 0
M  V30 2673 H 257.396 1.85443 -3.82741 0
M  V30 2674 N 255.711 1.52812 0.385517 0
M  V30 2675 C 256.661 1.74219 1.47078 0
M  V30 2676 C 257.645 0.59632 1.49442 0
M  V30 2677 O 258.837 0.85428 1.5502 0
M  V30 2678 C 255.966 1.9176 2.84751 0
M  V30 2679 C 255.052 3.12289 2.86943 0
M  V30 2680 N 255.443 4.34575 2.58802 0
M  V30 2681 C 253.741 3.12605 3.1811 0
M  V30 2682 C 254.442 5.162 2.68166 0
M  V30 2683 N 253.418 4.51964 3.02043 0
M  V30 2684 H 257.22 2.6639 1.24152 0
M  V30 2685 H 254.734 1.51166 0.593504 0
M  V30 2686 H 256.731 2.05218 3.62893 0
M  V30 2687 H 255.391 1.00805 3.08656 0
M  V30 2688 H 256.402 4.62649 2.32759 0
M  V30 2689 H 253.079 2.31472 3.47458 0
M  V30 2690 H 254.469 6.23689 2.49923 0
M  V30 2691 N 257.189 -0.644168 1.43834 0
M  V30 2692 C 258.099 -1.78563 1.52159 0
M  V30 2693 C 259.115 -1.69147 0.408069 0
M  V30 2694 O 260.291 -1.90156 0.663524 0
M  V30 2695 C 257.356 -3.14888 1.45073 0
M  V30 2696 C 256.417 -3.36034 2.6717 0
M  V30 2697 C 255.65 -4.65855 2.60413 0
M  V30 2698 O 255.873 -5.45805 1.65689 0
M  V30 2699 O 254.807 -4.88918 3.5106 0
M  V30 2700 H 258.633 -1.74494 2.48567 0
M  V30 2701 H 256.218 -0.80378 1.25935 0
M  V30 2702 H 258.1 -3.96179 1.43597 0
M  V30 2703 H 256.775 -3.19528 0.518037 0
M  V30 2704 H 255.682 -2.54472 2.74217 0
M  V30 2705 H 257.015 -3.36247 3.59442 0
M  V30 2706 N 258.668 -1.30515 -0.883378 0
M  V30 2707 C 259.6 -1.12846 -1.99496 0
M  V30 2708 C 260.613 -0.0712571 -1.62644 0
M  V30 2709 O 261.802 -0.317432 -1.75655 0
M  V30 2710 C 258.902 -0.699123 -3.3161 0
M  V30 2711 C 258.075 -1.83842 -3.96889 0
M  V30 2712 C 257.134 -1.39737 -5.07307 0
M  V30 2713 O 256.16 -2.10485 -5.28852 0
M  V30 2714 N 257.362 -0.277279 -5.79837 0
M  V30 2715 H 260.127 -2.08585 -2.15203 0
M  V30 2716 H 257.688 -1.22672 -1.05656 0
M  V30 2717 H 259.68 -0.387044 -4.02845 0
M  V30 2718 H 258.25 0.166276 -3.12157 0
M  V30 2719 H 257.47 -2.31853 -3.18807 0
M  V30 2720 H 258.758 -2.60187 -4.37241 0
M  V30 2721 H 258.156 0.3122 -5.64838 0
M  V30 2722 H 256.713 -0.0246623 -6.51795 0
M  V30 2723 N 260.146 1.09593 -1.13257 0
M  V30 2724 C 261.392 1.82003 -0.89458 0
M  V30 2725 C 261.725 1.85402 0.577906 0
M  V30 2726 O 261 1.32099 1.42759 0
M  V30 2727 C 261.283 3.28237 -1.48096 0
M  V30 2728 C 261.136 3.3312 -3.02244 0
M  V30 2729 C 262.455 4.24871 -1.14774 0
M  V30 2730 H 259.574 0.66077 -0.326424 0
M  V30 2731 H 262.216 1.28389 -1.40058 0
M  V30 2732 H 260.366 3.74024 -1.05062 0
M  V30 2733 H 262.038 2.95748 -3.54021 0
M  V30 2734 H 260.281 2.72756 -3.37323 0
M  V30 2735 H 260.952 4.3613 -3.38371 0
M  V30 2736 H 263.428 3.87361 -1.51957 0
M  V30 2737 H 262.304 5.25532 -1.58452 0
M  V30 2738 H 262.565 4.42058 -0.0611849 0
M  V30 2739 N 261.624 0.925811 1.2754 0
M  V30 2740 C 262.574 0.394488 2.24561 0
M  V30 2741 C 263.558 -0.500183 1.52928 0
M  V30 2742 O 264.75 -0.337936 1.73744 0
M  V30 2743 C 261.879 -0.353328 3.41477 0
M  V30 2744 C 260.965 0.557752 4.20416 0
M  V30 2745 N 261.356 1.67674 4.77199 0
M  V30 2746 C 259.654 0.360404 4.44541 0
M  V30 2747 C 260.355 2.24324 5.36706 0
M  V30 2748 N 259.331 1.53305 5.21535 0
M  V30 2749 H 263.133 1.2489 2.66045 0
M  V30 2750 H 260.647 0.779864 1.4245 0
M  V30 2751 H 262.644 -0.7509 4.10082 0
M  V30 2752 H 261.304 -1.20469 3.01525 0
M  V30 2753 H 262.315 2.05915 4.75204 0
M  V30 2754 H 258.992 -0.450454 4.15063 0
M  V30 2755 H 260.382 3.18521 5.91603 0
M  V30 2756 N 263.102 -1.41638 0.69111 0
M  V30 2757 C 264.327 -2.06148 0.227583 0
M  V30 2758 C 264.752 -1.51652 -1.11281 0
M  V30 2759 O 264.11 -0.64164 -1.69566 0
M  V30 2760 C 264.158 -3.60095 0.190858 0
M  V30 2761 O 263.262 -4.03845 -0.835664 0
M  V30 2762 H 262.603 -0.654434 0.112306 0
M  V30 2763 H 265.133 -1.81484 0.944714 0
M  V30 2764 H 265.143 -4.07995 0.020207 0
M  V30 2765 H 263.818 -3.99129 1.16915 0
M  V30 2766 H 262.395 -3.67458 -0.63473 0
M  V30 2767 N 264.58 -0.43555 -1.51462 0
M  V30 2768 C 265.829 0.133007 -2.01261 0
M  V30 2769 C 266.142 1.43942 -1.32439 0
M  V30 2770 O 267.348 2.09081 -1.73198 0
M  V30 2771 C 265.804 0.287581 -3.58749 0
M  V30 2772 C 265.412 -1.00829 -4.36506 0
M  V30 2773 C 267.156 0.810004 -4.167 0
M  V30 2774 C 265.063 -0.819454 -5.85695 0
M  V30 2775 H 263.993 0.0534822 -0.752101 0
M  V30 2776 H 266.644 -0.565038 -1.74584 0
M  V30 2777 H 265.026 1.04859 -3.81865 0
M  V30 2778 H 266.2 -1.77749 -4.25138 0
M  V30 2779 H 264.515 -1.45911 -3.89999 0
M  V30 2780 H 267.112 0.967743 -5.2587 0
M  V30 2781 H 267.455 1.79196 -3.75758 0
M  V30 2782 H 267.988 0.107357 -3.97655 0
M  V30 2783 H 264.727 -1.77374 -6.31046 0
M  V30 2784 H 264.247 -0.0900208 -5.99732 0
M  V30 2785 H 265.926 -0.471949 -6.45276 0
M  V30 2786 N 266.058 1.56714 -0.166846 0
M  V30 2787 C 266.988 2.20754 0.760913 0
M  V30 2788 C 267.969 1.16178 1.24244 0
M  V30 2789 O 269.154 1.44592 1.29641 0
M  V30 2790 C 266.284 2.84478 1.99223 0
M  V30 2791 C 265.238 3.95053 1.64672 0
M  V30 2792 C 264.564 4.45805 2.95232 0
M  V30 2793 C 265.864 5.14865 0.878155 0
M  V30 2794 H 267.558 2.98537 0.22713 0
M  V30 2795 H 265.104 1.43596 0.107805 0
M  V30 2796 H 267.057 3.27951 2.64624 0
M  V30 2797 H 265.781 2.04056 2.55007 0
M  V30 2798 H 264.44 3.52228 1.01641 0
M  V30 2799 H 264.088 3.62181 3.49047 0
M  V30 2800 H 263.788 5.204 2.7287 0
M  V30 2801 H 265.312 4.91962 3.6167 0
M  V30 2802 H 266.726 5.55059 1.43466 0
M  V30 2803 H 265.123 5.95348 0.753738 0
M  V30 2804 H 266.193 4.84735 -0.126377 0
M  V30 2805 N 267.536 -0.106894 1.57237 0
M  V30 2806 C 268.486 -1.1366 1.9765 0
M  V30 2807 C 269.47 -1.36416 0.853203 0
M  V30 2808 O 270.662 -1.37305 1.11697 0
M  V30 2809 C 267.791 -2.46 2.39455 0
M  V30 2810 C 266.877 -2.26668 3.58445 0
M  V30 2811 N 267.268 -1.77176 4.73754 0
M  V30 2812 C 265.566 -2.57279 3.64312 0
M  V30 2813 C 266.267 -1.71836 5.5574 0
M  V30 2814 N 265.243 -2.16623 4.98573 0
M  V30 2815 H 269.045 -0.74669 2.84256 0
M  V30 2816 H 266.559 -0.314483 1.59326 0
M  V30 2817 H 268.556 -3.2049 2.6663 0
M  V30 2818 H 267.216 -2.85738 1.54219 0
M  V30 2819 H 268.227 -1.46545 4.96734 0
M  V30 2820 H 264.904 -3.00622 2.89711 0
M  V30 2821 H 266.294 -1.34723 6.58255 0
M  V30 2822 N 269.014 -1.53014 -0.377408 0
M  V30 2823 C 270.261 -1.68623 -1.12128 0
M  V30 2824 C 270.589 -0.431997 -1.89642 0
M  V30 2825 O 269.844 0.585855 -1.86725 0
M  V30 2826 C 270.143 -2.87982 -2.11663 0
M  V30 2827 C 269.809 -4.24964 -1.50719 0
M  V30 2828 C 268.471 -4.62217 -1.33825 0
M  V30 2829 C 270.823 -5.10199 -1.06519 0
M  V30 2830 C 268.151 -5.82352 -0.712963 0
M  V30 2831 C 270.503 -6.30969 -0.453955 0
M  V30 2832 C 269.167 -6.66944 -0.272411 0
M  V30 2833 H 268.437 -0.617034 -0.410305 0
M  V30 2834 H 271.084 -1.8718 -0.404484 0
M  V30 2835 H 269.389 -2.63889 -2.89603 0
M  V30 2836 H 271.086 -2.97253 -2.6915 0
M  V30 2837 H 267.676 -3.95626 -1.64858 0
M  V30 2838 H 271.86 -4.81978 -1.18368 0
M  V30 2839 H 267.116 -6.08824 -0.560611 0
M  V30 2840 H 271.29 -6.96324 -0.103217 0
M  V30 2841 H 268.917 -7.59898 0.214181 0
M  V30 2842 N 270.492 0.636531 -1.44174 0
M  V30 2843 C 271.439 1.74875 -1.50624 0
M  V30 2844 C 272.409 1.62275 -0.35442 0
M  V30 2845 O 273.594 1.82276 -0.563908 0
M  V30 2846 C 270.734 3.13102 -1.45125 0
M  V30 2847 C 269.847 3.36717 -2.7064 0
M  V30 2848 C 268.982 4.64885 -2.57013 0
M  V30 2849 C 268.021 4.8166 -3.77717 0
M  V30 2850 N 267.158 6.01101 -3.62798 0
M  V30 2851 H 271.998 1.68697 -2.45653 0
M  V30 2852 H 269.535 0.823004 -1.21922 0
M  V30 2853 H 271.493 3.93034 -1.39929 0
M  V30 2854 H 270.123 3.18308 -0.536671 0
M  V30 2855 H 269.175 2.50763 -2.86046 0
M  V30 2856 H 270.487 3.44993 -3.60252 0
M  V30 2857 H 269.641 5.52969 -2.49619 0
M  V30 2858 H 268.38 4.58957 -1.64953 0
M  V30 2859 H 267.385 3.92007 -3.85501 0
M  V30 2860 H 268.61 4.89406 -4.70807 0
M  V30 2861 H 266.556 5.96273 -2.73486 0
M  V30 2862 H 266.473 6.10409 -4.46023 0
M  V30 2863 H 267.741 6.91761 -3.59286 0
M  V30 2864 N 271.97 1.30982 0.876444 0
M  V30 2865 C 273.247 1.10942 1.61094 0
M  V30 2866 C 273.627 -0.338223 2.08373 0
M  V30 2867 O 272.975 -1.33122 1.85717 0
M  V30 2868 C 273.185 2.11789 2.77392 0
M  V30 2869 C 274.533 2.43965 3.47514 0
M  V30 2870 O 275.557 2.10166 2.87591 0
M  V30 2871 O 274.416 3.01817 4.55597 0
M  V30 2872 H 271.51 0.42667 0.708436 0
M  V30 2873 H 274.056 1.42438 0.922474 0
M  V30 2874 H 272.828 3.09194 2.39823 0
M  V30 2875 H 272.451 1.81161 3.5393 0
M  V30 2876 N 273.449 -1.08991 1.13837 0
M  V30 2877 C 274.696 -1.81258 0.902882 0
M  V30 2878 C 275.024 -1.85936 -0.570803 0
M  V30 2879 O 274.279 -1.3267 -1.43865 0
M  V30 2880 C 274.578 -3.27042 1.44147 0
M  V30 2881 C 274.244 -3.4249 2.93276 0
M  V30 2882 C 272.906 -3.46414 3.33992 0
M  V30 2883 C 275.258 -3.4666 3.892 0
M  V30 2884 C 272.586 -3.52091 4.69307 0
M  V30 2885 C 274.938 -3.53872 5.24364 0
M  V30 2886 C 273.602 -3.56066 5.646 0
M  V30 2887 H 272.872 -0.663268 0.330388 0
M  V30 2888 H 275.519 -1.28368 1.42105 0
M  V30 2889 H 273.824 -3.82599 0.844097 0
M  V30 2890 H 275.521 -3.81499 1.23528 0
M  V30 2891 H 272.111 -3.40124 2.60794 0
M  V30 2892 H 276.295 -3.42865 3.58828 0
M  V30 2893 H 271.551 -3.52079 4.9985 0
M  V30 2894 H 275.725 -3.56043 5.98503 0
M  V30 2895 H 273.352 -3.60218 6.69438 0
M  V30 2896 N 274.927 -0.932562 -1.27047 0
M  V30 2897 C 276.173 -0.576412 -1.94436 0
M  V30 2898 C 276.506 0.880891 -1.73072 0
M  V30 2899 O 275.781 1.62905 -1.06264 0
M  V30 2900 C 276.064 -0.909031 -3.48437 0
M  V30 2901 C 275.917 -2.42044 -3.79123 0
M  V30 2902 C 277.236 -0.418341 -4.38107 0
M  V30 2903 H 274.355 -0.210888 -0.706184 0
M  V30 2904 H 276.997 -1.16522 -1.50075 0
M  V30 2905 H 275.147 -0.407947 -3.86352 0
M  V30 2906 H 276.819 -2.99359 -3.50973 0
M  V30 2907 H 275.062 -2.86758 -3.25503 0
M  V30 2908 H 275.733 -2.6037 -4.86736 0
M  V30 2909 H 278.209 -0.847856 -4.0737 0
M  V30 2910 H 277.085 -0.679981 -5.44672 0
M  V30 2911 H 277.346 0.681642 -4.36814 0
M  V30 2912 N 276.405 1.4127 -0.698611 0
M  V30 2913 C 277.353 2.32588 -0.023855 0
M  V30 2914 C 278.347 1.51128 0.765292 0
M  V30 2915 O 279.553 1.67043 0.670571 0
M  V30 2916 H 275.928 0.751918 0.0110871 0
M  V30 2917 H 277.899 2.87167 -0.811031 0
M  V30 2918 C 276.648 3.35947 0.896369 0
M  V30 2919 H 275.971 3.98684 0.298548 0
M  V30 2920 H 277.411 4.02376 1.33676 0
M  V30 2921 C 275.87 2.70076 2.01396 0
M  V30 2922 O 276.4 2.55093 3.10307 0
M  V30 2923 N 274.606 2.28724 1.79259 0
M  V30 2924 H 274.153 2.4111 0.906841 0
M  V30 2925 H 274.111 1.84986 2.54219 0
M  V30 2926 N 277.883 0.443576 1.51229 0
M  V30 2927 C 278.846 -0.353132 2.26463 0
M  V30 2928 C 279.846 -0.944338 1.3015 0
M  V30 2929 O 281.036 -0.817813 1.5381 0
M  V30 2930 C 278.168 -1.50023 3.06114 0
M  V30 2931 H 279.361 0.3063 2.98332 0
M  V30 2932 H 276.914 0.196902 1.55055 0
M  V30 2933 H 277.649 -2.19553 2.38677 0
M  V30 2934 H 277.434 -1.08241 3.76864 0
M  V30 2935 H 278.924 -2.06296 3.63087 0
M  V30 2936 N 279.361 -1.56624 0.175154 0
M  V30 2937 C 280.586 -2.01813 -0.478137 0
M  V30 2938 C 281.011 -1.05457 -1.55757 0
M  V30 2939 O 280.369 -0.0347439 -1.81267 0
M  V30 2940 C 280.417 -3.45581 -1.02987 0
M  V30 2941 O 279.521 -3.52305 -2.14371 0
M  V30 2942 H 278.862 -0.65413 -0.114059 0
M  V30 2943 H 281.392 -2.02673 0.280173 0
M  V30 2944 H 281.402 -3.84965 -1.35151 0
M  V30 2945 H 280.077 -4.1521 -0.239556 0
M  V30 2946 H 278.654 -3.24783 -1.83222 0
M  V30 2947 N 280.839 0.0985539 -1.57292 0
M  V30 2948 C 282.064 0.820196 -1.90493 0
M  V30 2949 C 282.489 1.71658 -0.769094 0
M  V30 2950 O 281.847 1.79133 0.279495 0
M  V30 2951 C 281.895 1.61242 -3.22542 0
M  V30 2952 O 280.999 2.72108 -3.09888 0
M  V30 2953 H 280.34 0.225547 -0.62452 0
M  V30 2954 H 282.87 0.0748159 -2.04463 0
M  V30 2955 H 282.88 1.99737 -3.55766 0
M  V30 2956 H 281.555 0.954535 -4.04798 0
M  V30 2957 H 280.132 2.36667 -2.88172 0
M  V30 2958 N 282.317 1.53212 0.369288 0
M  V30 2959 C 283.264 1.79388 1.45219 0
M  V30 2960 C 284.234 0.638059 1.53356 0
M  V30 2961 O 285.419 0.879852 1.69302 0
M  V30 2962 C 282.559 1.98623 2.82211 0
M  V30 2963 C 281.672 3.26337 2.8307 0
M  V30 2964 C 280.807 3.35779 4.11614 0
M  V30 2965 C 279.846 4.5754 4.06601 0
M  V30 2966 N 278.983 4.64155 5.26787 0
M  V30 2967 H 283.823 2.71794 1.22198 0
M  V30 2968 H 281.36 1.34642 0.592444 0
M  V30 2969 H 283.318 2.07761 3.61789 0
M  V30 2970 H 281.948 1.09558 3.03639 0
M  V30 2971 H 281 3.26171 1.95747 0
M  V30 2972 H 282.312 4.15988 2.75237 0
M  V30 2973 H 281.466 3.44208 4.99606 0
M  V30 2974 H 280.205 2.44137 4.22195 0
M  V30 2975 H 279.21 4.49215 3.16996 0
M  V30 2976 H 280.435 5.50519 3.97625 0
M  V30 2977 H 278.381 3.75413 5.3796 0
M  V30 2978 H 278.298 5.47706 5.21109 0
M  V30 2979 H 279.566 4.76863 6.16621 0
M  V30 2980 N 283.795 -0.628877 1.44509 0
M  V30 2981 C 285.025 -1.41349 1.50678 0
M  V30 2982 C 285.433 -1.88745 0.131075 0
M  V30 2983 O 284.776 -1.61592 -0.87371 0
M  V30 2984 C 284.838 -2.66608 2.41165 0
M  V30 2985 C 284.502 -2.40993 3.88293 0
M  V30 2986 C 285.499 -2.0268 4.78766 0
M  V30 2987 C 283.184 -2.54563 4.33016 0
M  V30 2988 C 285.178 -1.78269 6.11963 0
M  V30 2989 C 282.865 -2.29766 5.6626 0
M  V30 2990 C 283.863 -1.91678 6.55552 0
M  V30 2991 O 283.551 -1.67158 7.86329 0
M  V30 2992 H 283.283 -0.439851 0.51333 0
M  V30 2993 H 285.837 -0.776084 1.90174 0
M  V30 2994 H 284.067 -3.32994 1.96601 0
M  V30 2995 H 285.756 -3.28615 2.38259 0
M  V30 2996 H 286.522 -1.91751 4.45485 0
M  V30 2997 H 282.401 -2.83179 3.63773 0
M  V30 2998 H 285.945 -1.48465 6.81619 0
M  V30 2999 H 281.842 -2.40306 5.99102 0
M  V30 3000 H 282.61 -1.81386 7.98149 0
M  V30 3001 N 285.273 -1.31445 -0.869486 0
M  V30 3002 C 286.183 -1.21097 -2.0093 0
M  V30 3003 C 287.199 -0.127584 -1.73532 0
M  V30 3004 O 288.375 -0.345477 -1.98415 0
M  V30 3005 C 285.44 -0.919378 -3.34288 0
M  V30 3006 C 284.501 -2.08971 -3.75006 0
M  V30 3007 C 283.734 -1.81194 -5.02001 0
M  V30 3008 O 283.957 -0.747296 -5.65484 0
M  V30 3009 O 282.891 -2.66883 -5.39497 0
M  V30 3010 H 286.717 -2.16883 -2.12592 0
M  V30 3011 H 284.302 -1.11189 -0.997868 0
M  V30 3012 H 286.184 -0.772625 -4.14257 0
M  V30 3013 H 284.859 0.00844772 -3.23699 0
M  V30 3014 H 283.766 -2.29187 -2.95676 0
M  V30 3015 H 285.099 -2.9998 -3.90221 0
M  V30 3016 N 286.751 1.08385 -1.14413 0
M  V30 3017 C 288 1.80153 -0.907076 0
M  V30 3018 C 288.313 1.87176 0.567851 0
M  V30 3019 O 289.519 2.55359 0.922172 0
M  V30 3020 C 287.975 3.23687 -1.57336 0
M  V30 3021 C 287.583 3.24897 -3.08457 0
M  V30 3022 C 289.327 4.00136 -1.41744 0
M  V30 3023 C 287.234 4.6302 -3.67921 0
M  V30 3024 H 286.164 0.675139 -0.335714 0
M  V30 3025 H 288.815 1.21733 -1.37307 0
M  V30 3026 H 287.197 3.82234 -1.03505 0
M  V30 3027 H 288.371 2.76055 -3.68958 0
M  V30 3028 H 286.686 2.61943 -3.2369 0
M  V30 3029 H 289.283 5.02201 -1.83572 0
M  V30 3030 H 289.626 4.14709 -0.363576 0
M  V30 3031 H 290.159 3.48058 -1.92614 0
M  V30 3032 H 286.898 4.5365 -4.73161 0
M  V30 3033 H 286.418 5.12143 -3.12201 0
M  V30 3034 H 288.097 5.31994 -3.68227 0
M  V30 3035 N 288.23 0.939286 1.26551 0
M  V30 3036 C 289.458 0.602536 1.97932 0
M  V30 3037 C 289.873 -0.82206 1.69964 0
M  V30 3038 O 289.23 -1.54789 0.966784 0
M  V30 3039 C 289.281 0.832946 3.51773 0
M  V30 3040 O 289.002 2.20151 3.78768 0
M  V30 3041 C 290.503 0.506483 4.40397 0
M  V30 3042 H 287.723 0.227248 0.631347 0
M  V30 3043 H 290.267 1.25948 1.61113 0
M  V30 3044 H 288.422 0.222644 3.8676 0
M  V30 3045 H 288.836 2.26013 4.73306 0
M  V30 3046 H 290.31 0.718333 5.47306 0
M  V30 3047 H 290.787 -0.558451 4.35635 0
M  V30 3048 H 291.393 1.09543 4.10951 0
M  V30 3049 N 289.708 -1.40897 0.706093 0
M  V30 3050 C 290.936 -2.05373 0.250887 0
M  V30 3051 C 291.351 -1.53172 -1.10381 0
M  V30 3052 O 290.708 -0.684305 -1.69185 0
M  V30 3053 C 290.759 -3.6088 0.211571 0
M  V30 3054 O 290.48 -4.11153 1.51276 0
M  V30 3055 C 291.981 -4.42517 -0.263346 0
M  V30 3056 H 289.201 -0.66115 0.114552 0
M  V30 3057 H 291.745 -1.80479 0.961635 0
M  V30 3058 H 289.9 -3.84777 -0.450073 0
M  V30 3059 H 290.314 -5.05279 1.40689 0
M  V30 3060 H 291.788 -5.51479 -0.239718 0
M  V30 3061 H 292.265 -4.19396 -1.30397 0
M  V30 3062 H 292.871 -4.23708 0.367677 0
M  V30 3063 N 291.186 -0.45159 -1.50991 0
M  V30 3064 C 292.435 0.111653 -2.01391 0
M  V30 3065 C 292.748 1.42529 -1.33959 0
M  V30 3066 O 293.954 2.07232 -1.75405 0
M  V30 3067 C 292.41 0.249514 -3.59034 0
M  V30 3068 C 292.018 -1.05453 -4.35412 0
M  V30 3069 C 293.762 0.765762 -4.17536 0
M  V30 3070 C 291.669 -0.881529 -5.84793 0
M  V30 3071 H 290.599 0.0455022 -0.752626 0
M  V30 3072 H 293.25 -0.583524 -1.73975 0
M  V30 3073 H 291.632 1.00803 -3.82955 0
M  V30 3074 H 292.806 -1.82248 -4.23229 0
M  V30 3075 H 291.121 -1.50039 -3.88429 0
M  V30 3076 H 293.718 0.911913 -5.26866 0
M  V30 3077 H 294.061 1.75201 -3.77638 0
M  V30 3078 H 294.594 0.0651744 -3.97747 0
M  V30 3079 H 291.333 -1.84057 -6.29129 0
M  V30 3080 H 290.853 -0.153625 -5.99603 0
M  V30 3081 H 292.532 -0.540363 -6.4474 0
M  V30 3082 N 292.664 1.56529 -0.183458 0
M  V30 3083 C 293.614 2.1515 0.754605 0
M  V30 3084 C 294.598 1.08904 1.18443 0
M  V30 3085 O 295.79 1.34997 1.14476 0
M  V30 3086 C 292.919 2.80531 1.97881 0
M  V30 3087 C 292.005 3.93952 1.57043 0
M  V30 3088 N 292.396 4.98221 0.87231 0
M  V30 3089 C 290.694 4.05338 1.86057 0
M  V30 3090 C 291.395 5.77836 0.669377 0
M  V30 3091 N 290.371 5.29858 1.21454 0
M  V30 3092 H 294.173 2.93132 0.212387 0
M  V30 3093 H 291.687 1.62391 0.0167725 0
M  V30 3094 H 293.684 3.20914 2.6612 0
M  V30 3095 H 292.344 2.04035 2.52586 0
M  V30 3096 H 293.355 5.15191 0.529033 0
M  V30 3097 H 290.032 3.39957 2.42354 0
M  V30 3098 H 291.422 6.71799 0.116422 0
M  V30 3099 N 294.142 -0.090211 1.57342 0
M  V30 3100 C 295.09 -1.12792 2.03422 0
M  V30 3101 C 296.084 -1.41182 0.936166 0
M  V30 3102 O 297.29 -1.40805 1.12133 0
M  V30 3103 H 293.665 -0.380986 0.648347 0
M  V30 3104 H 295.636 -0.71299 2.89757 0
M  V30 3105 C 294.385 -2.43855 2.47851 0
M  V30 3106 H 293.708 -2.22855 3.31927 0
M  V30 3107 H 295.148 -3.14955 2.83865 0
M  V30 3108 C 293.607 -3.08503 1.3538 0
M  V30 3109 O 294.137 -3.95805 0.685641 0
M  V30 3110 N 292.343 -2.68831 1.10355 0
M  V30 3111 H 291.89 -1.97929 1.64869 0
M  V30 3112 H 291.848 -3.12412 0.353031 0
M  V30 3113 N 295.62 -1.53406 -0.361157 0
M  V30 3114 C 296.55 -1.83136 -1.44857 0
M  V30 3115 C 297.531 -0.685174 -1.5569 0
M  V30 3116 O 298.716 -0.93544 -1.70186 0
M  V30 3117 C 295.846 -2.02522 -2.82138 0
M  V30 3118 C 294.8 -3.18302 -2.86126 0
M  V30 3119 C 294.126 -3.22989 -4.26125 0
M  V30 3120 C 295.426 -4.56796 -2.53248 0
M  V30 3121 H 297.12 -2.74201 -1.20226 0
M  V30 3122 H 294.666 -1.31938 -0.576922 0
M  V30 3123 H 296.619 -2.21904 -3.58241 0
M  V30 3124 H 295.343 -1.08172 -3.08166 0
M  V30 3125 H 294.002 -2.98747 -2.12475 0
M  V30 3126 H 293.65 -2.26267 -4.49235 0
M  V30 3127 H 293.35 -4.00781 -4.29708 0
M  V30 3128 H 294.874 -3.44559 -5.04094 0
M  V30 3129 H 296.288 -4.7631 -3.19064 0
M  V30 3130 H 294.685 -5.36862 -2.68141 0
M  V30 3131 H 295.755 -4.61606 -1.48484 0
M  V30 3132 N 297.098 0.621204 -1.44841 0
M  V30 3133 C 298.345 1.38055 -1.48145 0
M  V30 3134 C 298.673 1.94143 -0.117867 0
M  V30 3135 O 297.928 1.74713 0.881694 0
M  V30 3136 C 298.227 2.55675 -2.4973 0
M  V30 3137 C 297.893 2.17817 -3.94799 0
M  V30 3138 C 296.555 2.07205 -4.34303 0
M  V30 3139 C 298.907 1.88065 -4.86087 0
M  V30 3140 C 296.235 1.65045 -5.63007 0
M  V30 3141 C 298.587 1.47394 -6.15189 0
M  V30 3142 C 297.251 1.35331 -6.53637 0
M  V30 3143 H 296.521 0.505181 -0.542101 0
M  V30 3144 H 299.168 0.703477 -1.78111 0
M  V30 3145 H 297.473 3.2866 -2.13284 0
M  V30 3146 H 299.17 3.13904 -2.4953 0
M  V30 3147 H 295.76 2.26998 -3.63552 0
M  V30 3148 H 299.944 1.95168 -4.56315 0
M  V30 3149 H 295.2 1.54317 -5.91605 0
M  V30 3150 H 299.374 1.23415 -6.85377 0
M  V30 3151 H 297.001 1.02435 -7.53267 0
M  V30 3152 N 298.576 1.31904 0.862503 0
M  V30 3153 C 299.992 1.10724 1.14945 0
M  V30 3154 C 300.192 -0.117421 2.01158 0
M  V30 3155 O 299.248 -0.804595 2.39338 0
M  V30 3156 C 300.561 2.38267 1.83437 0
M  V30 3157 C 302.109 2.43949 1.96106 0
M  V30 3158 C 302.584 3.71394 2.68013 0
M  V30 3159 N 304.075 3.72331 2.75543 0
M  V30 3160 C 304.81 4.67641 3.31812 0
M  V30 3161 N 304.306 5.73313 3.88953 0
M  V30 3162 N 306.099 4.5515 3.29841 0
M  V30 3163 H 298.25 2.10436 0.288191 0
M  V30 3164 H 300.513 0.928705 0.190292 0
M  V30 3165 H 300.219 3.27759 1.27542 0
M  V30 3166 H 300.093 2.48633 2.83657 0
M  V30 3167 H 302.48 1.54922 2.51164 0
M  V30 3168 H 302.561 2.37543 0.949059 0
M  V30 3169 H 302.205 4.60791 2.13621 0
M  V30 3170 H 302.135 3.75069 3.69636 0
M  V30 3171 H 304.626 2.95947 2.34997 0
M  V30 3172 H 304.939 6.42107 4.30022 0
M  V30 3173 H 303.284 5.77077 3.87308 0
M  V30 3174 H 306.475 3.71766 2.84443 0
M  V30 3175 H 306.648 5.29604 3.73394 0
M  V30 3176 N 300.054 -1.07777 1.14986 0
M  V30 3177 C 301.001 -2.14867 0.842672 0
M  V30 3178 C 301.971 -1.6486 -0.202552 0
M  V30 3179 O 303.156 -1.90668 -0.0710568 0
M  V30 3180 C 300.296 -3.43486 0.333363 0
M  V30 3181 C 299.409 -4.07306 1.43965 0
M  V30 3182 C 298.544 -5.23744 0.886914 0
M  V30 3183 C 297.583 -5.79517 1.97043 0
M  V30 3184 N 296.72 -6.87291 1.4344 0
M  V30 3185 H 301.56 -2.40485 1.75986 0
M  V30 3186 H 299.097 -1.1801 0.878179 0
M  V30 3187 H 301.055 -4.17195 0.0198163 0
M  V30 3188 H 299.685 -3.18133 -0.546916 0
M  V30 3189 H 298.737 -3.31293 1.86946 0
M  V30 3190 H 300.049 -4.44771 2.25788 0
M  V30 3191 H 299.203 -6.04419 0.525651 0
M  V30 3192 H 297.942 -4.87685 0.0377957 0
M  V30 3193 H 296.947 -4.97491 2.34057 0
M  V30 3194 H 298.172 -6.17632 2.82325 0
M  V30 3195 H 296.118 -6.5318 0.607567 0
M  V30 3196 H 296.035 -7.23617 2.18895 0
M  V30 3197 H 297.303 -7.71682 1.10124 0
M  V30 3198 N 301.532 -0.945985 -1.26051 0
M  V30 3199 C 302.462 -0.477172 -2.28572 0
M  V30 3200 C 303.443 0.472032 -1.63419 0
M  V30 3201 O 304.628 0.372853 -1.90587 0
M  V30 3202 C 301.758 0.253975 -3.4637 0
M  V30 3203 C 300.712 -0.609135 -4.23643 0
M  V30 3204 C 300.038 0.252252 -5.34105 0
M  V30 3205 C 301.338 -1.8829 -4.8718 0
M  V30 3206 H 303.032 -1.33402 -2.68038 0
M  V30 3207 H 300.578 -0.642904 -1.28852 0
M  V30 3208 H 302.531 0.593016 -4.17207 0
M  V30 3209 H 301.255 1.145 -3.05871 0
M  V30 3210 H 299.914 -0.931138 -3.54578 0
M  V30 3211 H 299.562 1.14278 -4.89846 0
M  V30 3212 H 299.262 -0.32188 -5.86718 0
M  V30 3213 H 300.786 0.586454 -6.07777 0
M  V30 3214 H 302.2 -1.61081 -5.50205 0
M  V30 3215 H 300.597 -2.40199 -5.49931 0
M  V30 3216 H 301.667 -2.59134 -4.09851 0
M  V30 3217 N 303.011 1.40521 -0.713556 0
M  V30 3218 C 304.239 2.05237 -0.261775 0
M  V30 3219 C 304.654 1.53755 1.09567 0
M  V30 3220 O 304.011 0.693268 1.6882 0
M  V30 3221 C 304.062 3.60763 -0.230706 0
M  V30 3222 O 303.783 4.10345 -1.53455 0
M  V30 3223 C 305.284 4.42651 0.239874 0
M  V30 3224 H 302.504 0.660533 -0.118057 0
M  V30 3225 H 305.048 1.79967 -0.971192 0
M  V30 3226 H 303.203 3.8501 0.429661 0
M  V30 3227 H 303.617 5.04526 -1.43366 0
M  V30 3228 H 305.091 5.51599 0.210468 0
M  V30 3229 H 305.568 4.20082 1.28171 0
M  V30 3230 H 306.174 4.23507 -0.390142 0
M  V30 3231 N 304.489 0.459591 1.5075 0
M  V30 3232 C 305.439 -0.358926 2.25157 0
M  V30 3233 C 306.423 -0.971285 1.28276 0
M  V30 3234 O 307.615 -0.885739 1.53244 0
M  V30 3235 C 304.744 -1.44695 3.11317 0
M  V30 3236 C 303.83 -0.842894 4.15639 0
M  V30 3237 N 304.221 0.0299373 5.05791 0
M  V30 3238 C 302.519 -1.10809 4.32015 0
M  V30 3239 C 303.22 0.371563 5.80512 0
M  V30 3240 N 302.196 -0.250409 5.43023 0
M  V30 3241 H 305.998 0.313636 2.92222 0
M  V30 3242 H 303.512 0.273021 1.60089 0
M  V30 3243 H 305.509 -2.04641 3.63218 0
M  V30 3244 H 304.169 -2.12162 2.45799 0
M  V30 3245 H 305.18 0.39797 5.16369 0
M  V30 3246 H 301.857 -1.7786 3.77719 0
M  V30 3247 H 303.247 1.08319 6.63111 0
M  V30 3248 N 305.967 -1.56429 0.191757 0
M  V30 3249 C 307.383 -1.58754 -0.164137 0
M  V30 3250 C 307.583 -1.20782 -1.61288 0
M  V30 3251 O 306.639 -0.928999 -2.34789 0
M  V30 3252 C 307.952 -3.00396 0.135195 0
M  V30 3253 C 309.5 -3.1291 0.0750351 0
M  V30 3254 C 309.975 -4.56679 0.347632 0
M  V30 3255 N 311.466 -4.62252 0.296131 0
M  V30 3256 C 312.201 -5.71379 0.480948 0
M  V30 3257 N 311.697 -6.88986 0.725933 0
M  V30 3258 N 313.49 -5.60563 0.415435 0
M  V30 3259 H 305.641 -1.79393 1.13718 0
M  V30 3260 H 307.904 -0.832414 0.453643 0
M  V30 3261 H 307.61 -3.32726 1.13958 0
M  V30 3262 H 307.484 -3.72963 -0.563773 0
M  V30 3263 H 309.871 -2.80394 -0.919948 0
M  V30 3264 H 309.952 -2.42736 0.807029 0
M  V30 3265 H 309.596 -4.89907 1.33992 0
M  V30 3266 H 309.526 -5.25039 -0.405212 0
M  V30 3267 H 312.017 -3.7773 0.113259 0
M  V30 3268 H 312.33 -7.68046 0.855857 0
M  V30 3269 H 310.675 -6.90801 0.762788 0
M  V30 3270 H 313.866 -4.67561 0.224486 0
M  V30 3271 H 314.039 -6.45551 0.562889 0
M  V30 3272 N 307.445 0.0818655 -1.57387 0
M  V30 3273 C 308.375 1.09885 -2.06028 0
M  V30 3274 C 309.356 1.4098 -0.951774 0
M  V30 3275 O 310.541 1.50781 -1.22387 0
M  V30 3276 C 307.671 2.4151 -2.4958 0
M  V30 3277 C 306.625 2.24792 -3.64215 0
M  V30 3278 C 305.951 3.61712 -3.93787 0
M  V30 3279 C 307.251 1.67749 -4.94629 0
M  V30 3280 H 308.945 0.694128 -2.91243 0
M  V30 3281 H 306.491 0.332448 -1.4011 0
M  V30 3282 H 308.444 3.12939 -2.82219 0
M  V30 3283 H 307.168 2.83943 -1.61381 0
M  V30 3284 H 305.827 1.55807 -3.31843 0
M  V30 3285 H 305.475 4.01697 -3.02735 0
M  V30 3286 H 305.175 3.51368 -4.70971 0
M  V30 3287 H 306.699 4.34587 -4.28913 0
M  V30 3288 H 308.113 2.29032 -5.25564 0
M  V30 3289 H 306.51 1.68128 -5.76067 0
M  V30 3290 H 307.58 0.638059 -4.80684 0
M  V30 3291 N 308.923 1.53595 0.353017 0
M  V30 3292 C 310.17 1.70385 1.09431 0
M  V30 3293 C 310.498 0.462113 1.88931 0
M  V30 3294 O 309.753 -0.556074 1.87633 0
M  V30 3295 C 310.052 2.91313 2.07054 0
M  V30 3296 C 309.718 4.27308 1.43939 0
M  V30 3297 C 308.38 4.64287 1.26454 0
M  V30 3298 C 310.732 5.11829 0.983883 0
M  V30 3299 C 308.06 5.83412 0.620226 0
M  V30 3300 C 310.412 6.31611 0.353516 0
M  V30 3301 C 309.076 6.67293 0.166272 0
M  V30 3302 H 308.346 0.623484 0.400436 0
M  V30 3303 H 310.993 1.87799 0.374655 0
M  V30 3304 H 309.298 2.68463 2.85368 0
M  V30 3305 H 310.995 3.01497 2.64387 0
M  V30 3306 H 307.585 3.98198 1.58543 0
M  V30 3307 H 311.769 4.838 1.10685 0
M  V30 3308 H 307.025 6.09639 0.463681 0
M  V30 3309 H 311.199 6.964 -0.00757555 0
M  V30 3310 H 308.826 7.59461 -0.335047 0
M  V30 3311 N 310.401 -0.613514 1.45168 0
M  V30 3312 C 311.817 -0.933629 1.29443 0
M  V30 3313 C 312.017 -2.00028 0.243101 0
M  V30 3314 O 311.073 -2.49848 -0.364992 0
M  V30 3315 C 312.386 -1.38018 2.67155 0
M  V30 3316 C 313.934 -1.49471 2.75004 0
M  V30 3317 C 314.409 -1.97503 4.13227 0
M  V30 3318 N 315.9 -2.04746 4.15491 0
M  V30 3319 C 316.635 -2.43121 5.19307 0
M  V30 3320 N 316.131 -2.80506 6.33473 0
M  V30 3321 N 317.924 -2.43408 5.06664 0
M  V30 3322 H 310.075 0.0916097 2.12202 0
M  V30 3323 H 312.338 -0.0216655 0.947752 0
M  V30 3324 H 312.044 -0.670625 3.45247 0
M  V30 3325 H 311.918 -2.34784 2.95222 0
M  V30 3326 H 314.305 -2.19519 1.9722 0
M  V30 3327 H 314.386 -0.510342 2.50657 0
M  V30 3328 H 314.03 -1.28045 4.91495 0
M  V30 3329 H 313.96 -2.96843 4.34962 0
M  V30 3330 H 316.451 -1.78468 3.33103 0
M  V30 3331 H 316.764 -3.08652 7.08487 0
M  V30 3332 H 315.109 -2.78216 6.36884 0
M  V30 3333 H 318.3 -2.13604 4.16523 0
M  V30 3334 H 318.473 -2.72989 5.87691 0
M  V30 3335 N 311.879 -1.3236 -0.855495 0
M  V30 3336 C 313.295 -1.11332 -1.14356 0
M  V30 3337 C 313.495 0.106751 -2.01217 0
M  V30 3338 O 312.551 0.791891 -2.39761 0
M  V30 3339 C 313.864 -2.39237 -1.82171 0
M  V30 3340 C 315.412 -2.44986 -1.9481 0
M  V30 3341 C 315.887 -3.7281 -2.66039 0
M  V30 3342 N 317.378 -3.73787 -2.73565 0
M  V30 3343 C 318.113 -4.69394 -3.29327 0
M  V30 3344 N 317.609 -5.75367 -3.85907 0
M  V30 3345 N 319.402 -4.56893 -3.27423 0
M  V30 3346 H 311.553 -2.10586 -0.277027 0
M  V30 3347 H 313.816 -0.929701 -0.185364 0
M  V30 3348 H 313.522 -3.28431 -1.25802 0
M  V30 3349 H 313.396 -2.50134 -2.82335 0
M  V30 3350 H 315.783 -1.56252 -2.50338 0
M  V30 3351 H 315.864 -2.38043 -0.936448 0
M  V30 3352 H 315.508 -4.61918 -2.11174 0
M  V30 3353 H 315.438 -3.77024 -3.67642 0
M  V30 3354 H 317.929 -2.97189 -2.33424 0
M  V30 3355 H 318.242 -6.44378 -4.26611 0
M  V30 3356 H 316.587 -5.79123 -3.84242 0
M  V30 3357 H 319.778 -3.73269 -2.82467 0
M  V30 3358 H 319.951 -5.31577 -3.7058 0
M  V30 3359 N 313.357 1.07166 -1.15556 0
M  V30 3360 C 314.305 2.16517 -0.8499 0
M  V30 3361 C 315.299 1.68468 0.177454 0
M  V30 3362 O 316.505 1.79971 0.0323026 0
M  V30 3363 H 312.88 0.706652 -0.25719 0
M  V30 3364 H 314.851 2.39514 -1.77976 0
M  V30 3365 C 313.6 3.45855 -0.357682 0
M  V30 3366 H 312.923 3.83214 -1.13961 0
M  V30 3367 H 314.363 4.23607 -0.182489 0
M  V30 3368 C 312.822 3.24062 0.921152 0
M  V30 3369 O 313.352 3.48813 1.9923 0
M  V30 3370 N 311.558 2.77539 0.86141 0
M  V30 3371 H 311.105 2.57598 -0.0104408 0
M  V30 3372 H 311.063 2.63337 1.71758 0
M  V30 3373 N 314.835 0.952656 1.25548 0
M  V30 3374 C 316.082 0.606373 1.93208 0
M  V30 3375 C 316.41 -0.85631 1.74636 0
M  V30 3376 O 315.665 -1.62951 1.08376 0
M  V30 3377 C 315.964 0.908818 3.45652 0
M  V30 3378 C 315.63 2.35722 3.84378 0
M  V30 3379 C 314.292 2.75312 3.9466 0
M  V30 3380 C 316.644 3.29793 4.03591 0
M  V30 3381 C 313.972 4.08047 4.21562 0
M  V30 3382 C 316.324 4.62138 4.31985 0
M  V30 3383 C 314.988 5.01528 4.40484 0
M  V30 3384 H 314.258 0.221888 0.706998 0
M  V30 3385 H 316.905 1.20132 1.49133 0
M  V30 3386 H 315.21 0.231456 3.91116 0
M  V30 3387 H 316.907 0.619498 3.96186 0
M  V30 3388 H 313.497 2.04017 3.76928 0
M  V30 3389 H 317.681 3.00397 3.95064 0
M  V30 3390 H 312.937 4.38212 4.26357 0
M  V30 3391 H 317.111 5.35012 4.45797 0
M  V30 3392 H 314.738 6.04406 4.61083 0
M  V30 3393 N 316.313 -1.40141 0.720998 0
M  V30 3394 C 317.561 -2.0039 0.262323 0
M  V30 3395 C 317.882 -1.57469 -1.15015 0
M  V30 3396 O 317.152 -0.816582 -1.78069 0
M  V30 3397 H 315.732 -0.741063 0.093996 0
M  V30 3398 H 318.394 -1.71398 0.927835 0
M  V30 3399 H 317.49 -3.10658 0.299671 0
M  V30 3400 N 317.792 -0.46758 -1.50504 0
M  V30 3401 C 319.022 0.086288 -2.0642 0
M  V30 3402 C 319.43 1.34369 -1.33197 0
M  V30 3403 O 318.773 1.79431 -0.393747 0
M  V30 3404 C 318.835 0.443846 -3.5675 0
M  V30 3405 C 318.499 -0.711035 -4.51435 0
M  V30 3406 C 319.496 -1.59205 -4.94924 0
M  V30 3407 C 317.181 -0.900363 -4.94165 0
M  V30 3408 C 319.175 -2.64683 -5.79846 0
M  V30 3409 C 316.862 -1.95837 -5.7887 0
M  V30 3410 C 317.86 -2.82997 -6.21612 0
M  V30 3411 O 317.548 -3.86977 -7.0463 0
M  V30 3412 H 317.28 -0.00217814 -0.675996 0
M  V30 3413 H 319.834 -0.654346 -1.94698 0
M  V30 3414 H 318.064 1.23762 -3.6636 0
M  V30 3415 H 319.753 0.932386 -3.95046 0
M  V30 3416 H 320.519 -1.45745 -4.62583 0
M  V30 3417 H 316.398 -0.231427 -4.60419 0
M  V30 3418 H 319.942 -3.32745 -6.13128 0
M  V30 3419 H 315.839 -2.09305 -6.10624 0
M  V30 3420 H 316.607 -3.83923 -7.22873 0
M  V30 3421 N 319.27 1.56325 -0.20005 0
M  V30 3422 C 320.498 2.02105 0.442874 0
M  V30 3423 C 320.913 1.08014 1.5485 0
M  V30 3424 O 320.27 0.0858797 1.82298 0
M  V30 3425 C 320.321 3.47549 0.994583 0
M  V30 3426 O 320.042 4.38049 -0.0669322 0
M  V30 3427 C 321.543 4.0887 1.7129 0
M  V30 3428 H 318.763 0.661807 0.110691 0
M  V30 3429 H 321.307 2.02134 -0.310207 0
M  V30 3430 H 319.462 3.48204 1.69803 0
M  V30 3431 H 319.876 5.23368 0.344462 0
M  V30 3432 H 321.35 5.12475 2.05118 0
M  V30 3433 H 321.827 3.52615 2.61838 0
M  V30 3434 H 322.433 4.12002 1.05518 0
M  V30 3435 N 320.748 -0.0735177 1.57428 0
M  V30 3436 C 321.678 -1.0879 2.06608 0
M  V30 3437 C 322.659 -1.40473 0.959237 0
M  V30 3438 O 323.844 -1.5013 1.23185 0
M  V30 3439 C 320.974 -2.40183 2.50857 0
M  V30 3440 C 319.928 -2.22858 3.65402 0
M  V30 3441 C 319.254 -3.59619 3.957 0
M  V30 3442 C 320.554 -1.65123 4.95511 0
M  V30 3443 H 322.248 -0.678673 2.91607 0
M  V30 3444 H 319.794 -0.325013 1.40284 0
M  V30 3445 H 321.747 -3.11437 2.83874 0
M  V30 3446 H 320.471 -2.83083 1.62885 0
M  V30 3447 H 319.13 -1.54045 3.32664 0
M  V30 3448 H 318.778 -4.00086 3.04861 0
M  V30 3449 H 318.478 -3.48866 4.72828 0
M  V30 3450 H 320.002 -4.32306 4.31212 0
M  V30 3451 H 321.416 -2.26241 5.26771 0
M  V30 3452 H 319.813 -1.65071 5.7695 0
M  V30 3453 H 320.883 -0.612559 4.81015 0
M  V30 3454 N 322.226 -1.5378 -0.344866 0
M  V30 3455 C 323.642 -1.44015 -0.687888 0
M  V30 3456 C 323.842 -0.595834 -1.92489 0
M  V30 3457 O 322.898 -0.0863064 -2.52352 0
M  V30 3458 C 324.211 -2.87481 -0.881758 0
M  V30 3459 C 325.759 -2.97247 -0.980459 0
M  V30 3460 C 326.234 -4.41819 -1.20665 0
M  V30 3461 N 327.725 -4.45339 -1.27389 0
M  V30 3462 C 328.46 -5.54333 -1.46639 0
M  V30 3463 N 327.956 -6.73335 -1.63071 0
M  V30 3464 N 329.749 -5.41944 -1.49176 0
M  V30 3465 H 321.9 -2.07169 0.468475 0
M  V30 3466 H 324.163 -0.93643 0.147655 0
M  V30 3467 H 323.869 -3.51672 -0.0443444 0
M  V30 3468 H 323.743 -3.32352 -1.78388 0
M  V30 3469 H 326.13 -2.33197 -1.8084 0
M  V30 3470 H 326.211 -2.5574 -0.0552713 0
M  V30 3471 H 325.855 -5.06449 -0.383652 0
M  V30 3472 H 325.785 -4.80917 -2.14539 0
M  V30 3473 H 328.276 -3.59585 -1.1622 0
M  V30 3474 H 328.589 -7.52165 -1.77391 0
M  V30 3475 H 326.934 -6.76282 -1.60209 0
M  V30 3476 H 330.125 -4.47932 -1.3592 0
M  V30 3477 H 330.298 -6.26946 -1.63837 0
M  V30 3478 N 323.704 0.605807 -1.45491 0
M  V30 3479 C 324.929 1.39625 -1.53361 0
M  V30 3480 C 325.354 1.87351 -0.167645 0
M  V30 3481 O 324.712 1.60243 0.848051 0
M  V30 3482 C 324.76 2.57559 -2.5238 0
M  V30 3483 O 323.864 3.58248 -2.04285 0
M  V30 3484 H 323.205 0.416771 -0.516912 0
M  V30 3485 H 325.735 0.737103 -1.90861 0
M  V30 3486 H 325.745 3.0478 -2.71244 0
M  V30 3487 H 324.42 2.22171 -3.51586 0
M  V30 3488 H 322.997 3.17664 -1.95305 0
M  V30 3489 N 325.182 1.32811 0.848464 0
M  V30 3490 C 326.428 1.23907 1.60546 0
M  V30 3491 C 326.761 -0.197161 1.93197 0
M  V30 3492 O 326.036 -1.13596 1.5788 0
M  V30 3493 C 326.319 2.10489 2.92175 0
M  V30 3494 C 326.172 3.62522 2.66266 0
M  V30 3495 C 327.491 1.97075 3.93509 0
M  V30 3496 H 324.61 0.451459 0.58254 0
M  V30 3497 H 327.252 1.62818 0.979296 0
M  V30 3498 H 325.402 1.77434 3.45614 0
M  V30 3499 H 327.074 4.05821 2.19334 0
M  V30 3500 H 325.317 3.84879 2.00126 0
M  V30 3501 H 325.988 4.18437 3.6002 0
M  V30 3502 H 328.464 2.26045 3.49346 0
M  V30 3503 H 327.34 2.59923 4.83457 0
M  V30 3504 H 327.601 0.940186 4.31987 0
M  V30 3505 N 326.66 -1.06551 1.16123 0
M  V30 3506 C 327.608 -2.16063 0.861371 0
M  V30 3507 C 328.602 -1.6856 -0.168517 0
M  V30 3508 O 329.808 -1.79986 -0.0227579 0
M  V30 3509 H 326.183 -0.705278 0.260934 0
M  V30 3510 H 328.154 -2.38567 1.79244 0
M  V30 3511 C 326.903 -3.45661 0.376018 0
M  V30 3512 H 326.226 -3.82604 1.15992 0
M  V30 3513 H 327.666 -4.23504 0.204951 0
M  V30 3514 C 326.125 -3.24546 -0.903954 0
M  V30 3515 O 326.655 -3.49865 -1.97377 0
M  V30 3516 N 324.861 -2.77992 -0.846679 0
M  V30 3517 H 324.408 -2.57589 0.0241017 0
M  V30 3518 H 324.366 -2.64244 -1.70359 0
M  V30 3519 N 328.138 -0.959301 -1.25041 0
M  V30 3520 C 329.415 -0.533805 -1.88175 0
M  V30 3521 C 329.795 0.988994 -1.865 0
M  V30 3522 O 329.143 1.85677 -1.33177 0
M  V30 3523 C 329.353 -1.11575 -3.30684 0
M  V30 3524 C 330.701 -1.19548 -4.07423 0
M  V30 3525 O 331.725 -1.06765 -3.39823 0
M  V30 3526 O 330.584 -1.39656 -5.28354 0
M  V30 3527 H 327.678 -0.176772 -0.807887 0
M  V30 3528 H 330.224 -1.05303 -1.33076 0
M  V30 3529 H 328.996 -2.15884 -3.26358 0
M  V30 3530 H 328.619 -0.580059 -3.93346 0
M  V30 3531 N 329.616 1.39756 -0.72842 0
M  V30 3532 C 330.546 2.33289 -0.0991354 0
M  V30 3533 C 331.527 1.53568 0.731489 0
M  V30 3534 O 332.712 1.81987 0.677807 0
M  V30 3535 C 329.842 3.3763 0.813834 0
M  V30 3536 C 328.796 4.2791 0.0878663 0
M  V30 3537 C 328.122 5.22894 1.11741 0
M  V30 3538 C 329.422 5.11314 -1.06563 0
M  V30 3539 H 331.116 2.86163 -0.880408 0
M  V30 3540 H 328.662 1.37591 -0.424819 0
M  V30 3541 H 330.615 4.0201 1.26355 0
M  V30 3542 H 329.339 2.83181 1.62715 0
M  V30 3543 H 327.998 3.65 -0.342159 0
M  V30 3544 H 327.646 4.64744 1.92412 0
M  V30 3545 H 327.346 5.84143 0.636477 0
M  V30 3546 H 328.87 5.90151 1.56697 0
M  V30 3547 H 330.284 5.69076 -0.694671 0
M  V30 3548 H 328.681 5.81671 -1.47577 0
M  V30 3549 H 329.751 4.46534 -1.89038 0
M  V30 3550 N 331.094 0.475555 1.50254 0
M  V30 3551 C 332.324 -0.0753399 2.06463 0
M  V30 3552 C 332.732 -1.33661 1.33908 0
M  V30 3553 O 332.075 -1.79219 0.403257 0
M  V30 3554 C 332.137 -0.424921 3.5698 0
M  V30 3555 C 331.801 0.734965 4.51051 0
M  V30 3556 C 332.798 1.61827 4.94073 0
M  V30 3557 C 330.483 0.926557 4.9368 0
M  V30 3558 C 332.477 2.67754 5.78434 0
M  V30 3559 C 330.164 1.98904 5.77824 0
M  V30 3560 C 331.162 2.8629 6.20103 0
M  V30 3561 O 330.85 3.90708 7.02568 0
M  V30 3562 H 330.582 0.00576308 0.675975 0
M  V30 3563 H 333.136 0.664662 1.94349 0
M  V30 3564 H 331.366 -1.21817 3.67012 0
M  V30 3565 H 333.055 -0.911422 3.95535 0
M  V30 3566 H 333.821 1.48196 4.61804 0
M  V30 3567 H 329.7 0.25584 4.6029 0
M  V30 3568 H 333.244 3.35992 6.11355 0
M  V30 3569 H 329.141 2.12541 6.09505 0
M  V30 3570 H 329.909 3.87751 7.20827 0
M  V30 3571 N 332.573 -1.56217 0.208337 0
M  V30 3572 C 333.822 -1.97124 -0.427204 0
M  V30 3573 C 334.135 -1.09859 -1.61835 0
M  V30 3574 O 335.341 -1.40606 -2.32255 0
M  V30 3575 C 333.797 -3.50633 -0.811442 0
M  V30 3576 C 333.405 -4.46582 0.35615 0
M  V30 3577 C 335.149 -4.00282 -1.41332 0
M  V30 3578 C 333.056 -5.91379 -0.0497852 0
M  V30 3579 H 331.986 -0.736086 -0.163381 0
M  V30 3580 H 334.637 -1.8099 0.302456 0
M  V30 3581 H 333.019 -3.62319 -1.59815 0
M  V30 3582 H 334.193 -4.46636 1.1337 0
M  V30 3583 H 332.508 -4.07202 0.870396 0
M  V30 3584 H 335.105 -5.0595 -1.72972 0
M  V30 3585 H 335.448 -3.45359 -2.32449 0
M  V30 3586 H 335.981 -3.91764 -0.690323 0
M  V30 3587 H 332.72 -6.50255 0.827529 0
M  V30 3588 H 332.24 -5.94549 -0.791926 0
M  V30 3589 H 333.919 -6.45209 -0.481042 0
M  V30 3590 N 334.051 0.0651679 -1.57465 0
M  V30 3591 C 334.983 1.10359 -2.00882 0
M  V30 3592 C 335.996 1.346 -0.915788 0
M  V30 3593 O 337.185 1.32723 -1.1936 0
M  V30 3594 C 334.285 2.45312 -2.33828 0
M  V30 3595 C 333.458 2.40934 -3.65061 0
M  V30 3596 C 332.517 3.58047 -3.85602 0
M  V30 3597 O 331.543 3.39175 -4.57109 0
M  V30 3598 N 332.745 4.78637 -3.28462 0
M  V30 3599 H 335.51 0.733807 -2.90578 0
M  V30 3600 H 333.071 0.253719 -1.599 0
M  V30 3601 H 335.063 3.22314 -2.44737 0
M  V30 3602 H 333.633 2.74267 -1.49988 0
M  V30 3603 H 332.853 1.49273 -3.64844 0
M  V30 3604 H 334.141 2.35117 -4.51218 0
M  V30 3605 H 333.539 4.96872 -2.70433 0
M  V30 3606 H 332.096 5.53127 -3.44809 0
M  V30 3607 N 335.529 1.53961 0.336706 0
M  V30 3608 C 336.476 1.82428 1.41381 0
M  V30 3609 C 337.446 0.670444 1.51968 0
M  V30 3610 O 338.631 0.915565 1.67398 0
M  V30 3611 C 335.771 2.04564 2.77934 0
M  V30 3612 C 334.884 3.32267 2.76084 0
M  V30 3613 C 334.019 3.44434 4.04399 0
M  V30 3614 C 333.058 4.66061 3.96804 0
M  V30 3615 N 332.195 4.75224 5.16823 0
M  V30 3616 H 337.035 2.74324 1.16405 0
M  V30 3617 H 334.572 1.35869 0.563752 0
M  V30 3618 H 336.53 2.15388 3.57301 0
M  V30 3619 H 335.16 1.15974 3.01247 0
M  V30 3620 H 334.212 3.3025 1.88784 0
M  V30 3621 H 335.524 4.21733 2.66351 0
M  V30 3622 H 334.678 3.54728 4.92192 0
M  V30 3623 H 333.417 2.53037 4.16921 0
M  V30 3624 H 332.422 4.55838 3.07396 0
M  V30 3625 H 333.647 5.58829 3.85858 0
M  V30 3626 H 331.593 3.86739 5.29876 0
M  V30 3627 H 331.51 5.58636 5.09374 0
M  V30 3628 H 332.778 4.89835 6.06367 0
M  V30 3629 N 337.007 -0.598083 1.45811 0
M  V30 3630 C 337.939 -1.72231 1.51225 0
M  V30 3631 C 338.952 -1.57757 0.402059 0
M  V30 3632 O 340.141 -1.65464 0.669624 0
M  V30 3633 C 337.241 -3.10331 1.3619 0
M  V30 3634 C 336.414 -3.50955 2.61054 0
M  V30 3635 C 335.473 -4.68055 2.40439 0
M  V30 3636 O 334.499 -4.74691 3.14097 0
M  V30 3637 N 335.701 -5.61941 1.45612 0
M  V30 3638 H 338.466 -1.68046 2.48154 0
M  V30 3639 H 336.027 -0.783637 1.41671 0
M  V30 3640 H 338.019 -3.86439 1.20195 0
M  V30 3641 H 336.589 -3.0897 0.475015 0
M  V30 3642 H 335.809 -2.64711 2.92099 0
M  V30 3643 H 337.097 -3.74858 3.44034 0
M  V30 3644 H 336.495 -5.59301 0.848431 0
M  V30 3645 H 335.052 -6.37542 1.35585 0
M  V30 3646 N 338.485 -1.33259 -0.841409 0
M  V30 3647 C 339.732 -1.24572 -1.5965 0
M  V30 3648 C 340.06 0.189137 -1.93578 0
M  V30 3649 O 339.315 1.14566 -1.5866 0
M  V30 3650 C 339.614 -2.06381 -2.9179 0
M  V30 3651 C 339.28 -3.556 -2.77235 0
M  V30 3652 C 337.942 -3.96282 -2.72973 0
M  V30 3653 C 340.294 -4.50433 -2.62221 0
M  V30 3654 C 337.622 -5.30017 -2.51592 0
M  V30 3655 C 339.974 -5.84327 -2.42374 0
M  V30 3656 C 338.638 -6.24194 -2.36512 0
M  V30 3657 H 337.908 -0.455842 -0.5842 0
M  V30 3658 H 340.555 -1.6482 -0.975016 0
M  V30 3659 H 338.86 -1.58903 -3.5813 0
M  V30 3660 H 340.557 -1.97019 -3.49263 0
M  V30 3661 H 337.147 -3.23298 -2.81384 0
M  V30 3662 H 341.331 -4.19914 -2.64549 0
M  V30 3663 H 336.587 -5.59947 -2.45499 0
M  V30 3664 H 340.761 -6.57414 -2.29739 0
M  V30 3665 H 338.388 -7.27759 -2.19706 0
M  V30 3666 N 339.963 1.05934 -1.16686 0
M  V30 3667 C 341.374 1.60263 -0.957745 0
M  V30 3668 C 341.725 1.89789 0.49745 0
M  V30 3669 O 340.85 1.67401 1.37135 0
M  V30 3670 C 341.445 2.91172 -1.73218 0
M  V30 3671 C 340.004 3.42188 -1.56794 0
M  V30 3672 C 339.151 2.16028 -1.73859 0
M  V30 3673 H 342.102 0.888392 -1.31504 0
M  V30 3674 H 342.123 3.60744 -1.21014 0
M  V30 3675 H 341.635 2.6965 -2.79124 0
M  V30 3676 H 339.736 3.68762 -0.533437 0
M  V30 3677 H 339.849 4.17273 -2.35414 0
M  V30 3678 H 338.213 2.26426 -1.16633 0
M  V30 3679 H 338.996 1.96985 -2.81161 0
M  V30 3680 N 341.441 0.965919 1.2453 0
M  V30 3681 C 342.69 0.622437 1.91856 0
M  V30 3682 C 343.003 -0.846006 1.76358 0
M  V30 3683 O 344.209 -1.29993 2.38357 0
M  V30 3684 C 342.665 1.0626 3.43856 0
M  V30 3685 C 342.273 2.55437 3.68043 0
M  V30 3686 C 344.017 0.792183 4.17043 0
M  V30 3687 C 341.924 2.93196 5.13605 0
M  V30 3688 H 340.854 0.229092 0.718354 0
M  V30 3689 H 343.505 1.17189 1.41206 0
M  V30 3690 H 341.887 0.441476 3.93531 0
M  V30 3691 H 343.061 3.22665 3.28974 0
M  V30 3692 H 341.376 2.8007 3.08139 0
M  V30 3693 H 343.973 1.05031 5.24283 0
M  V30 3694 H 344.316 -0.271584 4.15413 0
M  V30 3695 H 344.849 1.37419 3.73311 0
M  V30 3696 H 341.588 3.98636 5.20355 0
M  V30 3697 H 341.108 2.30651 5.53679 0
M  V30 3698 H 342.787 2.83004 5.81823 0
M  V30 3699 N 342.919 -1.39368 0.735821 0
M  V30 3700 C 343.849 -2.33234 0.111506 0
M  V30 3701 C 344.83 -1.53954 -0.723334 0
M  V30 3702 O 346.015 -1.82344 -0.668147 0
M  V30 3703 C 343.145 -3.38057 -0.795917 0
M  V30 3704 C 342.099 -4.2795 -0.065172 0
M  V30 3705 C 341.425 -5.23479 -1.08967 0
M  V30 3706 C 342.725 -5.10741 1.09273 0
M  V30 3707 H 344.419 -2.85692 0.895571 0
M  V30 3708 H 341.965 -1.37364 0.432109 0
M  V30 3709 H 343.918 -4.02675 -1.24221 0
M  V30 3710 H 342.642 -2.8404 -1.61211 0
M  V30 3711 H 341.301 -3.64813 0.361511 0
M  V30 3712 H 340.949 -4.65758 -1.89944 0
M  V30 3713 H 340.649 -5.84472 -0.605489 0
M  V30 3714 H 342.173 -5.90974 -1.53565 0
M  V30 3715 H 343.587 -5.68699 0.724841 0
M  V30 3716 H 341.984 -5.8088 1.50659 0
M  V30 3717 H 343.054 -4.45525 1.91404 0
M  V30 3718 N 344.397 -0.483516 -1.5 0
M  V30 3719 C 345.327 0.293829 -2.31644 0
M  V30 3720 C 346.308 0.978864 -1.39112 0
M  V30 3721 O 347.493 0.973644 -1.68029 0
M  V30 3722 C 344.623 1.36897 -3.19181 0
M  V30 3723 C 343.577 0.804833 -4.20365 0
M  V30 3724 C 342.903 1.9792 -4.96721 0
M  V30 3725 C 344.203 -0.192313 -5.21946 0
M  V30 3726 H 345.897 -0.387616 -2.9688 0
M  V30 3727 H 343.443 -0.187856 -1.42769 0
M  V30 3728 H 345.396 1.92037 -3.751 0
M  V30 3729 H 344.12 2.07936 -2.51853 0
M  V30 3730 H 342.779 0.275319 -3.65565 0
M  V30 3731 H 342.427 2.67686 -4.25856 0
M  V30 3732 H 342.127 1.60789 -5.65173 0
M  V30 3733 H 343.651 2.53526 -5.55479 0
M  V30 3734 H 345.065 0.270333 -5.72662 0
M  V30 3735 H 343.462 -0.478543 -5.98189 0
M  V30 3736 H 344.532 -1.11409 -4.71928 0
M  V30 3737 N 345.875 1.56104 -0.216619 0
M  V30 3738 C 347.152 1.89988 0.465165 0
M  V30 3739 C 347.532 1.13326 1.78102 0
M  V30 3740 O 346.88 0.241033 2.27225 0
M  V30 3741 C 347.09 3.42646 0.662939 0
M  V30 3742 C 348.438 4.13311 0.972602 0
M  V30 3743 O 349.462 3.48217 0.749901 0
M  V30 3744 O 348.321 5.28396 1.39499 0
M  V30 3745 H 345.415 0.78979 0.245276 0
M  V30 3746 H 347.961 1.67721 -0.258436 0
M  V30 3747 H 346.733 3.90399 -0.26543 0
M  V30 3748 H 346.356 3.70677 1.43821 0
M  V30 3749 N 347.353 -0.0568162 1.57498 0
M  V30 3750 C 348.6 -0.753104 1.87975 0
M  V30 3751 C 348.928 -1.76815 0.81035 0
M  V30 3752 O 348.183 -1.94756 -0.19199 0
M  V30 3753 C 348.482 -1.48359 3.25153 0
M  V30 3754 C 348.148 -0.60713 4.46794 0
M  V30 3755 C 346.81 -0.365642 4.79809 0
M  V30 3756 C 349.162 -0.000305978 5.212 0
M  V30 3757 C 346.49 0.491905 5.84634 0
M  V30 3758 C 348.842 0.844781 6.26934 0
M  V30 3759 C 347.506 1.096 6.58441 0
M  V30 3760 H 346.776 -0.27558 0.687849 0
M  V30 3761 H 349.423 -0.0135173 1.91495 0
M  V30 3762 H 347.728 -2.29577 3.17492 0
M  V30 3763 H 349.425 -2.02739 3.45974 0
M  V30 3764 H 346.015 -0.805487 4.20963 0
M  V30 3765 H 350.199 -0.173961 4.95995 0
M  V30 3766 H 345.455 0.695131 6.07436 0
M  V30 3767 H 349.629 1.32165 6.83744 0
M  V30 3768 H 347.256 1.76224 7.39492 0
M  V30 3769 N 348.832 -1.54138 -0.328536 0
M  V30 3770 C 349.779 -1.83176 -1.40411 0
M  V30 3771 C 350.749 -0.678494 -1.5161 0
M  V30 3772 O 351.934 -0.92443 -1.6691 0
M  V30 3773 C 349.074 -2.06035 -2.76846 0
M  V30 3774 C 348.187 -3.33727 -2.74318 0
M  V30 3775 C 347.322 -3.46574 -4.02567 0
M  V30 3776 C 346.361 -4.68159 -3.94327 0
M  V30 3777 N 345.498 -4.77959 -5.14296 0
M  V30 3778 H 350.338 -2.74938 -1.14948 0
M  V30 3779 H 347.875 -1.36166 -0.556538 0
M  V30 3780 H 349.833 -2.1728 -3.56153 0
M  V30 3781 H 348.463 -1.1757 -3.00628 0
M  V30 3782 H 347.515 -3.31246 -1.8703 0
M  V30 3783 H 348.827 -4.23139 -2.64111 0
M  V30 3784 H 347.981 -3.57333 -4.90304 0
M  V30 3785 H 346.72 -2.55245 -4.15574 0
M  V30 3786 H 345.725 -4.57461 -3.04974 0
M  V30 3787 H 346.95 -5.60868 -3.82889 0
M  V30 3788 H 344.896 -3.89544 -5.27818 0
M  V30 3789 H 344.813 -5.6133 -5.06404 0
M  V30 3790 H 346.081 -4.93044 -6.03761 0
M  V30 3791 N 350.31 0.590341 -1.46126 0
M  V30 3792 C 351.538 1.37504 -1.54597 0
M  V30 3793 C 351.953 1.87897 -0.184447 0
M  V30 3794 O 351.31 1.63192 0.816984 0
M  V30 3795 C 351.361 2.56779 -2.54454 0
M  V30 3796 O 351.082 2.08476 -3.85317 0
M  V30 3797 C 352.583 3.49427 -2.72792 0
M  V30 3798 H 349.803 0.420325 -0.523037 0
M  V30 3799 H 352.347 0.718383 -1.91467 0
M  V30 3800 H 350.502 3.1845 -2.20609 0
M  V30 3801 H 350.916 2.86097 -4.396 0
M  V30 3802 H 352.39 4.29619 -3.466 0
M  V30 3803 H 352.867 4.00876 -1.79429 0
M  V30 3804 H 353.473 2.93598 -3.07702 0
M  V30 3805 N 351.788 1.33704 0.83433 0
M  V30 3806 C 352.735 1.24335 1.94447 0
M  V30 3807 C 353.705 0.120991 1.65659 0
M  V30 3808 O 354.89 0.300035 1.88426 0
M  V30 3809 C 352.03 0.993124 3.30501 0
M  V30 3810 C 351.143 2.20217 3.71657 0
M  V30 3811 C 350.278 1.88572 4.96602 0
M  V30 3812 C 349.317 3.05683 5.30306 0
M  V30 3813 N 348.454 2.73997 6.46429 0
M  V30 3814 H 353.294 2.1928 2.01792 0
M  V30 3815 H 350.831 1.09035 0.987404 0
M  V30 3816 H 352.789 0.828467 4.08892 0
M  V30 3817 H 351.419 0.0803902 3.227 0
M  V30 3818 H 350.471 2.47642 2.88752 0
M  V30 3819 H 351.783 3.07752 3.92543 0
M  V30 3820 H 350.937 1.68776 5.82752 0
M  V30 3821 H 349.676 0.982799 4.77695 0
M  V30 3822 H 348.681 3.26088 4.42659 0
M  V30 3823 H 349.906 3.96737 5.51159 0
M  V30 3824 H 347.852 1.86268 6.28999 0
M  V30 3825 H 347.769 3.55064 6.67432 0
M  V30 3826 H 349.037 2.57679 7.35678 0
M  V30 3827 N 353.266 -1.05314 1.17247 0
M  V30 3828 C 354.512 -1.78557 0.961513 0
M  V30 3829 C 354.845 -1.87419 -0.508697 0
M  V30 3830 O 354.12 -1.37307 -1.37757 0
M  V30 3831 C 354.403 -3.22514 1.60176 0
M  V30 3832 C 354.256 -3.21673 3.14399 0
M  V30 3833 C 355.575 -4.20318 1.30463 0
M  V30 3834 H 352.694 -0.6482 0.350723 0
M  V30 3835 H 355.336 -1.23102 1.44727 0
M  V30 3836 H 353.486 -3.69867 1.18871 0
M  V30 3837 H 355.158 -2.82405 3.64753 0
M  V30 3838 H 353.401 -2.60048 3.47214 0
M  V30 3839 H 354.072 -4.23271 3.54324 0
M  V30 3840 H 356.548 -3.81454 1.66229 0
M  V30 3841 H 355.424 -5.19289 1.77848 0
M  V30 3842 H 355.685 -4.41526 0.22521 0
M  V30 3843 N 354.744 -0.972509 -1.24016 0
M  V30 3844 C 356.16 -0.679827 -1.44397 0
M  V30 3845 C 356.36 0.756716 -1.86751 0
M  V30 3846 O 355.416 1.53007 -2.00861 0
M  V30 3847 C 356.729 -1.66803 -2.50195 0
M  V30 3848 C 358.277 -1.68119 -2.64017 0
M  V30 3849 C 358.752 -2.65748 -3.73017 0
M  V30 3850 N 360.243 -2.64219 -3.8045 0
M  V30 3851 C 360.978 -3.36433 -4.64328 0
M  V30 3852 N 360.474 -4.1818 -5.52356 0
M  V30 3853 N 362.267 -3.25235 -4.58453 0
M  V30 3854 H 354.418 -1.90059 -0.948228 0
M  V30 3855 H 356.681 -0.818527 -0.478245 0
M  V30 3856 H 356.387 -2.69498 -2.25973 0
M  V30 3857 H 356.261 -1.4446 -3.48441 0
M  V30 3858 H 358.648 -0.661319 -2.87594 0
M  V30 3859 H 358.729 -1.94525 -1.66113 0
M  V30 3860 H 358.373 -3.67872 -3.50189 0
M  V30 3861 H 358.303 -2.36619 -4.70446 0
M  V30 3862 H 360.794 -2.04887 -3.17537 0
M  V30 3863 H 361.107 -4.70157 -6.13329 0
M  V30 3864 H 359.452 -4.22273 -5.52006 0
M  V30 3865 H 362.643 -2.60829 -3.88698 0
M  V30 3866 H 362.816 -3.81776 -5.23594 0
M  V30 3867 N 356.222 1.38976 -0.743202 0
M  V30 3868 C 357.132 2.3434 -0.110399 0
M  V30 3869 C 358.148 1.58741 0.712559 0
M  V30 3870 O 359.324 1.9099 0.639125 0
M  V30 3871 C 356.389 3.37812 0.780012 0
M  V30 3872 C 355.45 4.29263 -0.0561319 0
M  V30 3873 C 354.683 5.27793 0.791875 0
M  V30 3874 O 354.906 5.33043 2.03031 0
M  V30 3875 O 353.84 6.01512 0.216183 0
M  V30 3876 H 357.666 2.90129 -0.897714 0
M  V30 3877 H 355.251 1.40643 -0.503966 0
M  V30 3878 H 357.133 4.01194 1.28923 0
M  V30 3879 H 355.808 2.84395 1.546 0
M  V30 3880 H 354.715 3.69076 -0.611056 0
M  V30 3881 H 356.048 4.85907 -0.784531 0
M  V30 3882 N 357.7 0.491464 1.49741 0
M  V30 3883 C 358.93 -0.0534375 2.06531 0
M  V30 3884 C 359.338 -1.32233 1.35318 0
M  V30 3885 O 358.681 -1.78781 0.422243 0
M  V30 3886 C 358.743 -0.387034 3.57411 0
M  V30 3887 C 358.407 0.782764 4.50246 0
M  V30 3888 C 359.404 1.67059 4.92329 0
M  V30 3889 C 357.089 0.978866 4.9267 0
M  V30 3890 C 359.083 2.73874 5.75562 0
M  V30 3891 C 356.77 2.05022 5.75682 0
M  V30 3892 C 357.768 2.92851 6.17031 0
M  V30 3893 O 357.456 3.98138 6.98385 0
M  V30 3894 H 357.188 0.0129324 0.675876 0
M  V30 3895 H 359.742 0.685238 1.93633 0
M  V30 3896 H 357.972 -1.17918 3.68283 0
M  V30 3897 H 359.661 -0.869419 3.96479 0
M  V30 3898 H 360.427 1.53086 4.60206 0
M  V30 3899 H 356.306 0.304646 4.59992 0
M  V30 3900 H 359.85 3.42458 6.07757 0
M  V30 3901 H 355.747 2.18993 6.07217 0
M  V30 3902 H 356.515 3.95374 7.16674 0
M  V30 3903 N 359.178 -1.55987 0.224894 0
M  V30 3904 C 360.408 -2.02489 -0.41007 0
M  V30 3905 C 360.816 -1.10391 -1.53657 0
M  V30 3906 O 360.159 -0.106458 -1.83391 0
M  V30 3907 C 360.221 -3.45319 -0.999757 0
M  V30 3908 C 359.885 -4.56999 -0.00827976 0
M  V30 3909 C 360.882 -5.13812 0.793314 0
M  V30 3910 C 358.567 -5.02176 0.111442 0
M  V30 3911 C 360.561 -6.14276 1.7013 0
M  V30 3912 C 358.248 -6.02477 1.02296 0
M  V30 3913 C 359.246 -6.58403 1.81643 0
M  V30 3914 O 358.934 -7.56751 2.71262 0
M  V30 3915 H 358.666 -0.667915 -0.104235 0
M  V30 3916 H 361.22 -2.0257 0.339782 0
M  V30 3917 H 359.45 -3.42318 -1.79876 0
M  V30 3918 H 361.139 -3.7545 -1.54248 0
M  V30 3919 H 361.905 -4.79756 0.711288 0
M  V30 3920 H 357.784 -4.58323 -0.49605 0
M  V30 3921 H 361.328 -6.57854 2.32107 0
M  V30 3922 H 357.225 -6.35954 1.10599 0
M  V30 3923 H 357.993 -7.74286 2.65375 0
M  V30 3924 N 360.656 0.0484629 -1.57525 0
M  V30 3925 C 361.903 0.743125 -1.88372 0
M  V30 3926 C 362.231 1.76383 -0.819715 0
M  V30 3927 O 361.486 1.94855 0.181659 0
M  V30 3928 C 361.785 1.46632 -3.25935 0
M  V30 3929 C 361.451 0.583427 -4.4711 0
M  V30 3930 C 360.113 0.340191 -4.79996 0
M  V30 3931 C 362.465 -0.0273345 -5.21193 0
M  V30 3932 C 359.793 -0.522903 -5.84365 0
M  V30 3933 C 362.145 -0.878017 -6.26477 0
M  V30 3934 C 360.809 -1.1309 -6.5785 0
M  V30 3935 H 360.079 0.271929 -0.689301 0
M  V30 3936 H 362.726 0.00336166 -1.915 0
M  V30 3937 H 361.031 2.2789 -3.18706 0
M  V30 3938 H 362.728 2.00902 -3.47044 0
M  V30 3939 H 359.318 0.783151 -4.21384 0
M  V30 3940 H 363.502 0.147654 -4.9608 0
M  V30 3941 H 358.758 -0.727335 -6.07058 0
M  V30 3942 H 362.932 -1.35789 -6.83033 0
M  V30 3943 H 360.559 -1.80144 -7.38547 0
M  V30 3944 N 362.134 1.5431 0.320358 0
M  V30 3945 C 363.097 1.83195 1.3774 0
M  V30 3946 C 364.097 0.703906 1.44575 0
M  V30 3947 O 365.287 0.972214 1.44546 0
M  V30 3948 C 362.419 1.99487 2.76438 0
M  V30 3949 H 363.612 2.77642 1.1338 0
M  V30 3950 H 361.165 1.46076 0.556012 0
M  V30 3951 H 361.9 1.07262 3.06048 0
M  V30 3952 H 361.685 2.81575 2.7287 0
M  V30 3953 H 363.175 2.23271 3.52902 0
M  V30 3954 N 363.613 -0.582584 1.46437 0
M  V30 3955 C 364.523 -1.71949 1.59595 0
M  V30 3956 C 365.539 -1.67264 0.479443 0
M  V30 3957 O 366.715 -1.87171 0.743579 0
M  V30 3958 C 363.78 -3.08452 1.58298 0
M  V30 3959 C 362.841 -3.244 2.81182 0
M  V30 3960 C 362.074 -4.54391 2.79937 0
M  V30 3961 O 362.297 -5.38287 1.8869 0
M  V30 3962 O 361.231 -4.73588 3.71481 0
M  V30 3963 H 365.057 -1.63795 2.55744 0
M  V30 3964 H 362.642 -0.749643 1.29231 0
M  V30 3965 H 364.524 -3.89732 1.60271 0
M  V30 3966 H 363.199 -3.17043 0.653094 0
M  V30 3967 H 362.106 -2.42613 2.84763 0
M  V30 3968 H 363.439 -3.20699 3.7338 0
M  V30 3969 N 365.091 -1.34144 -0.827227 0
M  V30 3970 C 366.054 -1.25264 -1.91942 0
M  V30 3971 C 367.054 -0.168866 -1.59911 0
M  V30 3972 O 368.244 -0.421198 -1.69031 0
M  V30 3973 C 365.376 -0.932952 -3.27885 0
M  V30 3974 H 366.569 -2.22357 -2.0124 0
M  V30 3975 H 364.122 -1.1837 -1.0207 0
M  V30 3976 H 364.857 0.0349917 -3.24281 0
M  V30 3977 H 364.642 -1.71682 -3.52516 0
M  V30 3978 H 366.132 -0.895874 -4.07877 0
M  V30 3979 N 366.569 1.04691 -1.17803 0
M  V30 3980 C 367.501 2.12571 -0.857097 0
M  V30 3981 C 368.514 1.62174 0.142647 0
M  V30 3982 O 369.703 1.78301 -0.0843387 0
M  V30 3983 C 366.803 3.37915 -0.258216 0
M  V30 3984 C 365.976 4.1757 -1.30207 0
M  V30 3985 C 365.035 5.2125 -0.720029 0
M  V30 3986 O 364.061 5.51888 -1.39314 0
M  V30 3987 N 365.263 5.78466 0.485507 0
M  V30 3988 H 368.028 2.40698 -1.78562 0
M  V30 3989 H 365.589 1.20831 -1.07757 0
M  V30 3990 H 367.581 4.04442 0.144584 0
M  V30 3991 H 366.151 3.07281 0.574199 0
M  V30 3992 H 365.371 3.46458 -1.88043 0
M  V30 3993 H 366.659 4.67586 -2.00601 0
M  V30 3994 H 366.057 5.55866 1.05022 0
M  V30 3995 H 364.614 6.4649 0.830307 0
M  V30 3996 N 368.047 0.979072 1.23499 0
M  V30 3997 C 369.296 0.642751 1.91185 0
M  V30 3998 C 369.609 -0.827253 1.77245 0
M  V30 3999 O 370.815 -1.27458 2.39722 0
M  V30 4000 C 369.271 1.09901 3.42709 0
M  V30 4001 C 368.879 2.59327 3.65313 0
M  V30 4002 C 370.623 0.836371 4.16179 0
M  V30 4003 C 368.53 2.98627 5.10467 0
M  V30 4004 H 367.46 0.236698 0.715884 0
M  V30 4005 H 370.111 1.1868 1.39955 0
M  V30 4006 H 368.493 0.48319 3.93041 0
M  V30 4007 H 369.667 3.26136 3.25533 0
M  V30 4008 H 367.982 2.83323 3.05151 0
M  V30 4009 H 370.579 1.10586 5.23139 0
M  V30 4010 H 370.922 -0.227509 4.15678 0
M  V30 4011 H 371.455 1.41371 3.71832 0
M  V30 4012 H 368.194 4.04133 5.16098 0
M  V30 4013 H 367.714 2.3651 5.51201 0
M  V30 4014 H 369.393 2.89159 5.78788 0
M  V30 4015 N 369.525 -1.3858 0.750561 0
M  V30 4016 C 370.488 -2.28836 0.129152 0
M  V30 4017 C 371.488 -1.47045 -0.650714 0
M  V30 4018 O 372.678 -1.6753 -0.477428 0
M  V30 4019 C 369.81 -3.30751 -0.825622 0
M  V30 4020 H 371.003 -2.85294 0.924516 0
M  V30 4021 H 368.556 -1.47489 0.517376 0
M  V30 4022 H 369.291 -2.79378 -1.64677 0
M  V30 4023 H 369.076 -3.91177 -0.268852 0
M  V30 4024 H 370.566 -3.98249 -1.2565 0
M  V30 4025 N 371.003 -0.499398 -1.49478 0
M  V30 4026 C 372.28 0.108629 -1.95298 0
M  V30 4027 C 372.66 1.54282 -1.44084 0
M  V30 4028 O 372.008 2.18944 -0.653908 0
M  V30 4029 C 372.218 0.0229111 -3.48992 0
M  V30 4030 C 373.566 0.197643 -4.2414 0
M  V30 4031 O 374.59 0.0981735 -3.56065 0
M  V30 4032 O 373.449 0.401669 -5.45022 0
M  V30 4033 H 370.543 0.096181 -0.821388 0
M  V30 4034 H 373.089 -0.561822 -1.6013 0
M  V30 4035 H 371.861 -0.977321 -3.78899 0
M  V30 4036 H 371.484 0.733579 -3.90774 0
M  V30 4037 N 372.481 1.55866 -0.233164 0
M  V30 4038 C 373.728 1.98603 0.395374 0
M  V30 4039 C 374.056 1.12105 1.58942 0
M  V30 4040 O 373.311 0.168656 1.94972 0
M  V30 4041 C 373.61 3.46856 0.861724 0
M  V30 4042 C 373.276 4.50348 -0.223066 0
M  V30 4043 C 371.938 4.78371 -0.521038 0
M  V30 4044 C 374.29 5.12355 -0.956124 0
M  V30 4045 C 371.618 5.6568 -1.55638 0
M  V30 4046 C 373.97 6.00786 -1.98089 0
M  V30 4047 C 372.634 6.27148 -2.28565 0
M  V30 4048 H 371.904 0.726739 0.144677 0
M  V30 4049 H 374.551 1.88491 -0.338114 0
M  V30 4050 H 372.856 3.5423 1.67418 0
M  V30 4051 H 374.553 3.77302 1.35809 0
M  V30 4052 H 371.143 4.28596 0.0193234 0
M  V30 4053 H 375.327 4.90765 -0.739166 0
M  V30 4054 H 370.583 5.84365 -1.798 0
M  V30 4055 H 374.757 6.4788 -2.55391 0
M  V30 4056 H 372.384 6.94597 -3.08932 0
M  V30 4057 N 373.959 -0.0401083 1.57549 0
M  V30 4058 C 375.184 -0.748931 1.93406 0
M  V30 4059 C 375.609 -1.68686 0.832274 0
M  V30 4060 O 374.967 -1.80047 -0.212818 0
M  V30 4061 C 375.015 -1.4916 3.28304 0
M  V30 4062 O 374.119 -2.6042 3.19774 0
M  V30 4063 H 373.46 -0.202212 0.63246 0
M  V30 4064 H 375.99 0.00112086 2.046 0
M  V30 4065 H 376 -1.86395 3.62934 0
M  V30 4066 H 374.675 -0.80364 4.08062 0
M  V30 4067 H 373.252 -2.25808 2.96758 0
M  V30 4068 N 375.437 -1.54477 -0.31217 0
M  V30 4069 C 376.714 -1.63891 -1.06767 0
M  V30 4070 C 377.094 -0.480028 -2.0557 0
M  V30 4071 O 376.442 0.524487 -2.22399 0
M  V30 4072 C 376.652 -3.01402 -1.75948 0
M  V30 4073 C 378 -3.57838 -2.28554 0
M  V30 4074 O 379.024 -3.03782 -1.85998 0
M  V30 4075 O 377.883 -4.52462 -3.06497 0
M  V30 4076 H 374.977 -0.664125 -0.492816 0
M  V30 4077 H 377.523 -1.66823 -0.311149 0
M  V30 4078 H 376.295 -3.77187 -1.04144 0
M  V30 4079 H 375.918 -3.02199 -2.58383 0
M  V30 4080 N 376.915 0.57481 -1.46744 0
M  V30 4081 C 378.326 1.15695 -1.46532 0
M  V30 4082 C 378.677 1.95068 -0.210425 0
M  V30 4083 O 377.802 2.05241 0.685944 0
M  V30 4084 C 378.397 2.1048 -2.65487 0
M  V30 4085 C 376.956 2.64002 -2.68291 0
M  V30 4086 C 376.103 1.40026 -2.39349 0
M  V30 4087 H 379.054 0.362325 -1.54509 0
M  V30 4088 H 379.075 2.94074 -2.41455 0
M  V30 4089 H 378.587 1.52683 -3.56805 0
M  V30 4090 H 376.688 3.25646 -1.81067 0
M  V30 4091 H 376.801 3.06197 -3.68483 0
M  V30 4092 H 375.165 1.70106 -1.89568 0
M  V30 4093 H 375.948 0.840485 -3.32852 0
M  V30 4094 N 378.394 1.34581 0.820102 0
M  V30 4095 C 379.357 1.2628 1.91275 0
M  V30 4096 C 380.357 0.177344 1.59819 0
M  V30 4097 O 381.547 0.430156 1.68806 0
M  V30 4098 C 378.679 0.950327 3.27386 0
M  V30 4099 H 379.872 2.23421 2.00057 0
M  V30 4100 H 377.425 1.1891 1.0144 0
M  V30 4101 H 378.16 -0.0177938 3.24295 0
M  V30 4102 H 377.945 1.73549 3.51601 0
M  V30 4103 H 379.435 0.917492 4.07396 0
M  V30 4104 N 379.872 -1.04064 1.18357 0
M  V30 4105 C 381.119 -1.77265 0.978947 0
M  V30 4106 C 381.447 -1.88189 -0.491428 0
M  V30 4107 O 380.702 -1.38653 -1.38108 0
M  V30 4108 C 381.001 -3.20634 1.57888 0
M  V30 4109 C 380.667 -3.29743 3.07539 0
M  V30 4110 C 379.329 -3.31937 3.48384 0
M  V30 4111 C 381.681 -3.29841 4.03552 0
M  V30 4112 C 379.009 -3.3187 4.83818 0
M  V30 4113 C 381.361 -3.31313 5.38901 0
M  V30 4114 C 380.025 -3.31799 5.79194 0
M  V30 4115 H 379.295 -0.648659 0.358222 0
M  V30 4116 H 381.942 -1.22225 1.47422 0
M  V30 4117 H 380.247 -3.78675 1.00561 0
M  V30 4118 H 381.944 -3.75917 1.39598 0
M  V30 4119 H 378.534 -3.28757 2.74986 0
M  V30 4120 H 382.718 -3.27337 3.73047 0
M  V30 4121 H 377.974 -3.30562 5.14333 0
M  V30 4122 H 382.148 -3.30338 6.13066 0
M  V30 4123 H 379.775 -3.315 6.84114 0
M  V30 4124 N 381.35 -0.985608 -1.22978 0
M  V30 4125 C 382.599 -0.652881 -1.90841 0
M  V30 4126 C 382.912 0.817842 -1.77681 0
M  V30 4127 O 384.118 1.26185 -2.40395 0
M  V30 4128 C 382.574 -1.11717 -3.42122 0
M  V30 4129 C 382.182 -2.6126 -3.63933 0
M  V30 4130 C 383.926 -0.85843 -4.1573 0
M  V30 4131 C 381.833 -3.0133 -5.08876 0
M  V30 4132 H 380.763 -0.240491 -0.714619 0
M  V30 4133 H 383.414 -1.1942 -1.39324 0
M  V30 4134 H 381.796 -0.504027 -3.92779 0
M  V30 4135 H 382.97 -3.27858 -3.23799 0
M  V30 4136 H 381.285 -2.84937 -3.03644 0
M  V30 4137 H 383.882 -1.13359 -5.22546 0
M  V30 4138 H 384.225 0.205461 -4.15793 0
M  V30 4139 H 384.758 -1.43341 -3.71077 0
M  V30 4140 H 381.497 -4.06864 -5.13947 0
M  V30 4141 H 381.017 -2.3943 -5.49939 0
M  V30 4142 H 382.696 -2.92224 -5.77247 0
M  V30 4143 N 382.828 1.3818 -0.7579 0
M  V30 4144 C 384.053 2.04827 -0.325679 0
M  V30 4145 C 384.478 1.56788 1.03919 0
M  V30 4146 O 383.836 0.721811 1.66312 0
M  V30 4147 C 383.884 3.58774 -0.362447 0
M  V30 4148 O 382.988 4.07372 0.642033 0
M  V30 4149 H 382.329 0.64833 -0.143402 0
M  V30 4150 H 384.859 1.7677 -1.03023 0
M  V30 4151 H 384.869 4.07434 -0.214844 0
M  V30 4152 H 383.544 3.93096 -1.35824 0
M  V30 4153 H 382.121 3.70068 0.458688 0
M  V30 4154 N 384.306 0.507319 1.49211 0
M  V30 4155 C 385.253 -0.267728 2.29242 0
M  V30 4156 C 386.223 -0.954609 1.35928 0
M  V30 4157 O 387.408 -0.960046 1.64887 0
M  V30 4158 C 384.548 -1.32243 3.18756 0
M  V30 4159 C 383.661 -0.64669 4.27132 0
M  V30 4160 C 382.796 -1.68238 5.03855 0
M  V30 4161 C 381.835 -0.98885 6.0406 0
M  V30 4162 N 380.972 -1.96903 6.73924 0
M  V30 4163 H 385.812 0.420968 2.95012 0
M  V30 4164 H 383.349 0.219443 1.45454 0
M  V30 4165 H 385.307 -1.94599 3.69036 0
M  V30 4166 H 383.937 -1.97981 2.54958 0
M  V30 4167 H 382.989 0.0902926 3.80293 0
M  V30 4168 H 384.301 -0.101058 4.98698 0
M  V30 4169 H 383.455 -2.38081 5.58034 0
M  V30 4170 H 382.194 -2.26187 4.32077 0
M  V30 4171 H 381.199 -0.276222 5.49106 0
M  V30 4172 H 382.424 -0.415767 6.77826 0
M  V30 4173 H 380.37 -2.53803 6.04913 0
M  V30 4174 H 380.287 -1.47423 7.41487 0
M  V30 4175 H 381.555 -2.66015 7.32705 0
M  V30 4176 N 385.784 -1.5574 0.241426 0
M  V30 4177 C 387.012 -2.03208 -0.389134 0
M  V30 4178 C 387.427 -1.12082 -1.51931 0
M  V30 4179 O 386.784 -0.134183 -1.82006 0
M  V30 4180 C 386.835 -3.50064 -0.902087 0
M  V30 4181 O 386.556 -4.37717 0.18305 0
M  V30 4182 C 388.057 -4.13268 -1.60389 0
M  V30 4183 H 385.277 -0.664509 -0.0931053 0
M  V30 4184 H 387.821 -2.0124 0.36369 0
M  V30 4185 H 385.976 -3.52583 -1.60511 0
M  V30 4186 H 386.39 -5.24097 -0.205579 0
M  V30 4187 H 387.864 -5.17733 -1.91458 0
M  V30 4188 H 388.341 -3.59434 -2.52397 0
M  V30 4189 H 388.947 -4.14655 -0.945576 0
M  V30 4190 N 387.262 0.0317525 -1.57568 0
M  V30 4191 C 388.21 1.05165 -2.07468 0
M  V30 4192 C 389.204 1.3761 -0.98792 0
M  V30 4193 O 390.41 1.36546 -1.17282 0
M  V30 4194 H 386.785 0.35666 -0.66204 0
M  V30 4195 H 388.756 0.604958 -2.92203 0
M  V30 4196 C 387.505 2.34488 -2.56731 0
M  V30 4197 H 386.828 2.10383 -3.39969 0
M  V30 4198 H 388.268 3.04203 -2.95358 0
M  V30 4199 C 386.727 3.03266 -1.46736 0
M  V30 4200 O 387.257 3.92988 -0.832069 0
M  V30 4201 N 385.463 2.6455 -1.20256 0
M  V30 4202 H 385.01 1.91674 -1.72102 0
M  V30 4203 H 384.968 3.10886 -0.468737 0
M  V30 4204 N 388.74 1.54641 0.303973 0
M  V30 4205 C 389.688 1.86137 1.39484 0
M  V30 4206 C 390.682 0.734854 1.52631 0
M  V30 4207 O 391.888 0.918803 1.54784 0
M  V30 4208 H 388.263 0.590324 0.465856 0
M  V30 4209 H 390.234 2.77324 1.10154 0
M  V30 4210 C 388.983 2.12274 2.75382 0
M  V30 4211 H 388.306 2.98429 2.66046 0
M  V30 4212 H 389.746 2.38254 3.5073 0
M  V30 4213 C 388.205 0.920365 3.24085 0
M  V30 4214 O 388.735 0.139377 4.01458 0
M  V30 4215 N 386.941 0.726566 2.81371 0
M  V30 4216 H 386.488 1.36332 2.18567 0
M  V30 4217 H 386.446 -0.0763799 3.14307 0
M  V30 4218 N 390.218 -0.567019 1.47046 0
M  V30 4219 C 391.168 -1.67018 1.55207 0
M  V30 4220 C 392.152 -1.55543 0.411714 0
M  V30 4221 O 393.344 -1.64192 0.661064 0
M  V30 4222 C 390.473 -3.05801 1.56014 0
M  V30 4223 C 389.559 -3.22515 2.75399 0
M  V30 4224 N 389.95 -3.09329 4.00186 0
M  V30 4225 C 388.248 -3.53493 2.71954 0
M  V30 4226 C 388.949 -3.2847 4.80086 0
M  V30 4227 N 387.925 -3.54352 4.12233 0
M  V30 4228 H 391.727 -1.55377 2.4947 0
M  V30 4229 H 389.241 -0.771503 1.42904 0
M  V30 4230 H 391.238 -3.84996 1.59949 0
M  V30 4231 H 389.898 -3.18561 0.628396 0
M  V30 4232 H 390.909 -2.86863 4.31196 0
M  V30 4233 H 387.586 -3.7284 1.87873 0
M  V30 4234 H 388.976 -3.23326 5.88991 0
M  V30 4235 N 391.696 -1.35014 -0.812953 0
M  V30 4236 C 392.945 -1.27269 -1.56479 0
M  V30 4237 C 393.258 0.152771 -1.95002 0
M  V30 4238 O 394.464 0.352451 -2.69203 0
M  V30 4239 C 392.92 -2.23159 -2.82362 0
M  V30 4240 C 392.528 -3.71016 -2.511 0
M  V30 4241 C 394.272 -2.24342 -3.60376 0
M  V30 4242 C 392.179 -4.58746 -3.73237 0
M  V30 4243 H 391.109 -0.472829 -0.587324 0
M  V30 4244 H 393.76 -1.6024 -0.894171 0
M  V30 4245 H 392.142 -1.83151 -3.51101 0
M  V30 4246 H 393.316 -4.1962 -1.90409 0
M  V30 4247 H 391.631 -3.72378 -1.86343 0
M  V30 4248 H 394.228 -2.87107 -4.51081 0
M  V30 4249 H 394.571 -1.24542 -3.97234 0
M  V30 4250 H 395.104 -2.62846 -2.98591 0
M  V30 4251 H 391.843 -5.59521 -3.41492 0
M  V30 4252 H 391.363 -4.14871 -4.33176 0
M  V30 4253 H 393.042 -4.73852 -4.40537 0
M  V30 4254 N 393.175 1.03435 -1.18907 0
M  V30 4255 C 394.108 2.11162 -0.86521 0
M  V30 4256 C 395.086 1.6165 0.175473 0
M  V30 4257 O 396.27 1.88425 0.0530129 0
M  V30 4258 C 393.397 3.37423 -0.293868 0
M  V30 4259 C 392.443 4.05795 -1.31274 0
M  V30 4260 S 393.276 4.52027 -2.8711 0
M  V30 4261 C 394.432 5.81513 -2.31504 0
M  V30 4262 H 394.665 2.38308 -1.77754 0
M  V30 4263 H 392.198 1.16295 -1.01562 0
M  V30 4264 H 394.156 4.1049 0.0292572 0
M  V30 4265 H 392.817 3.0838 0.596682 0
M  V30 4266 H 392.01 4.96574 -0.86198 0
M  V30 4267 H 391.612 3.38874 -1.58242 0
M  V30 4268 H 393.904 6.55784 -1.70157 0
M  V30 4269 H 394.847 6.3136 -3.20608 0
M  V30 4270 H 395.255 5.36921 -1.74286 0
M  V30 4271 N 394.653 0.992116 1.22453 0
M  V30 4272 C 395.6 0.541731 2.24352 0
M  V30 4273 C 396.57 -0.425519 1.60557 0
M  V30 4274 O 397.755 -0.330453 1.87917 0
M  V30 4275 C 394.895 -0.138248 3.44823 0
M  V30 4276 C 394.008 0.870649 4.23136 0
M  V30 4277 C 393.143 0.164269 5.30946 0
M  V30 4278 C 392.182 1.16159 6.00977 0
M  V30 4279 N 391.319 0.483568 7.00433 0
M  V30 4280 H 396.159 1.41541 2.62241 0
M  V30 4281 H 393.696 0.709013 1.28885 0
M  V30 4282 H 395.654 -0.5494 4.13567 0
M  V30 4283 H 394.284 -0.975721 3.077 0
M  V30 4284 H 393.336 1.40013 3.53696 0
M  V30 4285 H 394.648 1.63014 4.7141 0
M  V30 4286 H 393.802 -0.303653 6.0594 0
M  V30 4287 H 392.541 -0.627733 4.83643 0
M  V30 4288 H 391.546 1.64015 5.24766 0
M  V30 4289 H 392.771 1.95445 6.50368 0
M  V30 4290 H 390.717 -0.289012 6.55363 0
M  V30 4291 H 390.634 1.18152 7.4671 0
M  V30 4292 H 391.902 0.0384219 7.79491 0
M  V30 4293 N 396.131 -1.37776 0.765217 0
M  V30 4294 C 397.061 -2.32945 0.160953 0
M  V30 4295 C 398.042 -1.55454 -0.690516 0
M  V30 4296 O 399.227 -1.83721 -0.629318 0
M  V30 4297 C 396.357 -3.39669 -0.724031 0
M  V30 4298 C 395.311 -4.27992 0.0256173 0
M  V30 4299 C 394.637 -5.25673 -0.978383 0
M  V30 4300 C 395.937 -5.08309 1.20082 0
M  V30 4301 H 397.631 -2.83728 0.955969 0
M  V30 4302 H 395.177 -1.36416 0.461149 0
M  V30 4303 H 397.13 -4.05219 -1.15652 0
M  V30 4304 H 395.854 -2.87396 -1.5515 0
M  V30 4305 H 394.513 -3.63964 0.438812 0
M  V30 4306 H 394.161 -4.69682 -1.80022 0
M  V30 4307 H 393.861 -5.85625 -0.481378 0
M  V30 4308 H 395.385 -5.94098 -1.40995 0
M  V30 4309 H 396.799 -5.67034 0.845307 0
M  V30 4310 H 395.196 -5.77554 1.62947 0
M  V30 4311 H 396.266 -4.41365 2.00811 0
M  V30 4312 N 397.609 -0.515225 -1.4894 0
M  V30 4313 C 398.837 0.0206034 -2.0689 0
M  V30 4314 C 399.252 1.29514 -1.37374 0
M  V30 4315 O 398.609 1.76698 -0.456529 0
M  V30 4316 C 398.66 0.26351 -3.60538 0
M  V30 4317 O 398.381 -0.960517 -4.27441 0
M  V30 4318 C 399.882 0.841383 -4.35242 0
M  V30 4319 H 397.102 -0.0268608 -0.670462 0
M  V30 4320 H 399.646 -0.716651 -1.91532 0
M  V30 4321 H 397.801 0.950777 -3.75552 0
M  V30 4322 H 398.215 -0.73212 -5.19365 0
M  V30 4323 H 399.689 0.96085 -5.43573 0
M  V30 4324 H 400.166 1.8427 -3.98674 0
M  V30 4325 H 400.772 0.191143 -4.2487 0
M  V30 4326 N 399.087 1.5561 -0.249682 0
M  V30 4327 C 400.034 2.21496 0.648694 0
M  V30 4328 C 401.004 1.17977 1.16921 0
M  V30 4329 O 402.189 1.46434 1.22318 0
M  V30 4330 C 399.329 2.92039 1.83868 0
M  V30 4331 C 398.442 4.10219 1.35442 0
M  V30 4332 C 397.577 4.6847 2.50419 0
M  V30 4333 C 396.616 5.78893 1.98869 0
M  V30 4334 N 395.753 6.31315 3.07223 0
M  V30 4335 H 400.593 2.97892 0.0801582 0
M  V30 4336 H 398.13 1.47074 0.0278031 0
M  V30 4337 H 400.088 3.31138 2.53778 0
M  V30 4338 H 398.718 2.18111 2.37965 0
M  V30 4339 H 397.77 3.76413 0.54928 0
M  V30 4340 H 399.082 4.89927 0.936649 0
M  V30 4341 H 398.236 5.10158 3.28366 0
M  V30 4342 H 396.975 3.87984 2.95499 0
M  V30 4343 H 395.98 5.3668 1.19393 0
M  V30 4344 H 397.205 6.61232 1.54755 0
M  V30 4345 H 395.151 5.53733 3.51732 0
M  V30 4346 H 395.068 7.06224 2.69784 0
M  V30 4347 H 396.336 6.77662 3.8522 0
M  V30 4348 N 400.565 -0.0233959 1.57583 0
M  V30 4349 C 401.813 -0.711654 1.89156 0
M  V30 4350 C 402.134 -1.75591 0.848096 0
M  V30 4351 O 401.404 -1.95547 -0.117566 0
M  V30 4352 H 399.984 -0.265835 0.698098 0
M  V30 4353 H 402.646 0.0119948 1.94896 0
M  V30 4354 H 401.742 -1.19766 2.88206 0
M  V30 4355 N 402.043 -1.548 -0.295768 0
M  V30 4356 C 402.973 -1.89115 -1.36959 0
M  V30 4357 C 403.954 -0.75059 -1.52644 0
M  V30 4358 O 405.139 -1.00678 -1.66065 0
M  V30 4359 C 402.269 -2.14307 -2.73295 0
M  V30 4360 C 401.223 -3.30151 -2.72368 0
M  V30 4361 C 400.549 -3.40772 -4.12042 0
M  V30 4362 C 401.849 -4.67126 -2.33646 0
M  V30 4363 H 403.543 -2.79053 -1.08488 0
M  V30 4364 H 401.089 -1.34266 -0.520443 0
M  V30 4365 H 403.042 -2.36898 -3.48507 0
M  V30 4366 H 401.766 -1.21145 -3.03301 0
M  V30 4367 H 400.425 -3.0749 -1.99613 0
M  V30 4368 H 400.073 -2.45117 -4.39234 0
M  V30 4369 H 399.773 -4.18645 -4.12322 0
M  V30 4370 H 401.297 -3.6563 -4.89027 0
M  V30 4371 H 402.711 -4.89414 -2.98575 0
M  V30 4372 H 401.108 -5.47751 -2.45129 0
M  V30 4373 H 402.178 -4.67489 -1.28772 0
M  V30 4374 N 403.521 0.559213 -1.47345 0
M  V30 4375 C 404.77 1.31281 -1.53128 0
M  V30 4376 C 405.083 1.94602 -0.197344 0
M  V30 4377 O 406.289 2.71173 -0.133154 0
M  V30 4378 C 404.745 2.38051 -2.69925 0
M  V30 4379 C 404.353 1.8093 -4.0984 0
M  V30 4380 C 406.097 3.14604 -2.84999 0
M  V30 4381 C 404.004 2.85468 -5.1794 0
M  V30 4382 H 402.934 0.493614 -0.569966 0
M  V30 4383 H 405.585 0.594155 -1.73615 0
M  V30 4384 H 403.967 3.12822 -2.42814 0
M  V30 4385 H 405.141 1.12544 -4.46845 0
M  V30 4386 H 403.456 1.16967 -3.99634 0
M  V30 4387 H 406.053 3.92666 -3.62929 0
M  V30 4388 H 406.396 3.68665 -1.93369 0
M  V30 4389 H 406.929 2.46945 -3.1187 0
M  V30 4390 H 403.668 2.36264 -6.1144 0
M  V30 4391 H 403.188 3.52269 -4.85455 0
M  V30 4392 H 404.867 3.48996 -5.44803 0
M  V30 4393 N 404.999 1.35443 0.805782 0
M  V30 4394 C 405.946 1.28431 1.91766 0
M  V30 4395 C 406.916 0.156102 1.65365 0
M  V30 4396 O 408.101 0.339936 1.87747 0
M  V30 4397 C 405.241 1.06301 3.2832 0
M  V30 4398 C 404.354 2.2805 3.66902 0
M  V30 4399 C 403.489 1.99064 4.92491 0
M  V30 4400 C 402.528 3.16863 5.23703 0
M  V30 4401 N 401.665 2.87647 6.40471 0
M  V30 4402 H 406.505 2.23511 1.97096 0
M  V30 4403 H 404.042 1.11105 0.964054 0
M  V30 4404 H 406 0.915012 4.07042 0
M  V30 4405 H 404.63 0.148822 3.22457 0
M  V30 4406 H 403.682 2.53711 2.83434 0
M  V30 4407 H 404.994 3.1601 3.85927 0
M  V30 4408 H 404.148 1.81099 5.7904 0
M  V30 4409 H 402.887 1.0839 4.75503 0
M  V30 4410 H 401.892 3.35404 4.35642 0
M  V30 4411 H 403.117 4.08339 5.4262 0
M  V30 4412 H 401.063 1.99568 6.24907 0
M  V30 4413 H 400.98 3.69141 6.59751 0
M  V30 4414 H 402.248 2.73226 7.30047 0
M  V30 4415 N 406.477 -1.02803 1.19454 0
M  V30 4416 C 407.754 -1.73299 0.907013 0
M  V30 4417 C 408.134 -2.02772 -0.587086 0
M  V30 4418 O 407.482 -1.68304 -1.54551 0
M  V30 4419 C 407.692 -3.00912 1.76785 0
M  V30 4420 C 409.04 -3.74403 2.00268 0
M  V30 4421 O 410.064 -3.10841 1.73943 0
M  V30 4422 O 408.923 -4.88675 2.4466 0
M  V30 4423 H 406.017 -0.754727 0.338106 0
M  V30 4424 H 408.563 -1.08754 1.30271 0
M  V30 4425 H 407.335 -2.75366 2.7801 0
M  V30 4426 H 406.958 -3.73197 1.37149 0
M  V30 4427 N 407.956 -0.998596 -1.21925 0
M  V30 4428 C 408.919 -0.558679 -2.22287 0
M  V30 4429 C 409.919 0.361525 -1.56683 0
M  V30 4430 O 411.109 0.152695 -1.73529 0
M  V30 4431 C 408.241 0.18661 -3.40389 0
M  V30 4432 H 409.434 -1.4463 -2.62721 0
M  V30 4433 H 406.987 -0.786413 -1.35075 0
M  V30 4434 H 407.722 1.08996 -3.05435 0
M  V30 4435 H 407.507 -0.474188 -3.89222 0
M  V30 4436 H 408.997 0.482367 -4.14805 0
M  V30 4437 N 409.434 1.37368 -0.772513 0
M  V30 4438 C 410.364 2.32856 -0.173304 0
M  V30 4439 C 411.345 1.55818 0.682262 0
M  V30 4440 O 412.53 1.84052 0.619566 0
M  V30 4441 C 409.66 3.40048 0.706007 0
M  V30 4442 C 408.614 4.27973 -0.0483144 0
M  V30 4443 C 407.94 5.26184 0.950491 0
M  V30 4444 C 409.24 5.07665 -1.22776 0
M  V30 4445 H 410.934 2.83217 -0.971002 0
M  V30 4446 H 408.48 1.3617 -0.468377 0
M  V30 4447 H 410.433 4.05827 1.13501 0
M  V30 4448 H 409.157 2.88214 1.53623 0
M  V30 4449 H 407.816 3.63726 -0.458107 0
M  V30 4450 H 407.464 4.7063 1.77529 0
M  V30 4451 H 407.164 5.85872 0.450314 0
M  V30 4452 H 408.688 5.94838 1.37842 0
M  V30 4453 H 410.102 5.66578 -0.875366 0
M  V30 4454 H 408.499 5.76681 -1.66007 0
M  V30 4455 H 409.569 4.40294 -2.03149 0
M  V30 4456 N 410.912 0.523116 1.48665 0
M  V30 4457 C 411.822 -0.247406 2.33292 0
M  V30 4458 C 412.838 -0.945769 1.46052 0
M  V30 4459 O 414.014 -0.922253 1.79043 0
M  V30 4460 C 411.079 -1.28487 3.22012 0
M  V30 4461 C 410.14 -0.597592 4.2512 0
M  V30 4462 C 409.373 -1.58563 5.09601 0
M  V30 4463 O 409.596 -2.81763 4.95949 0
M  V30 4464 O 408.53 -1.12879 5.91221 0
M  V30 4465 H 412.356 0.445869 3.00409 0
M  V30 4466 H 409.941 0.284128 1.46673 0
M  V30 4467 H 411.823 -1.88459 3.7691 0
M  V30 4468 H 410.498 -1.96068 2.57564 0
M  V30 4469 H 409.405 0.0424407 3.74076 0
M  V30 4470 H 410.738 0.0361517 4.92187 0
M  V30 4471 N 412.39 -1.55475 0.257931 0
M  V30 4472 C 413.338 -2.23244 -0.653076 0
M  V30 4473 C 414.332 -1.22366 -1.17144 0
M  V30 4474 O 415.538 -1.40347 -1.12706 0
M  V30 4475 H 411.913 -0.716247 -0.229117 0
M  V30 4476 H 413.884 -2.98343 -0.0584788 0
M  V30 4477 C 412.633 -2.95401 -1.83395 0
M  V30 4478 H 411.956 -3.72802 -1.44424 0
M  V30 4479 H 413.396 -3.46165 -2.44838 0
M  V30 4480 C 411.855 -1.99895 -2.71189 0
M  V30 4481 O 412.385 -1.53909 -3.71046 0
M  V30 4482 N 410.591 -1.6676 -2.3799 0
M  V30 4483 H 410.138 -2.04352 -1.56837 0
M  V30 4484 H 410.096 -1.03127 -2.97005 0
M  V30 4485 N 413.868 0.0150385 -1.57593 0
M  V30 4486 C 415.117 0.702115 -1.89085 0
M  V30 4487 C 415.43 1.75764 -0.858277 0
M  V30 4488 O 416.636 2.49829 -1.0629 0
M  V30 4489 C 415.092 1.29992 -3.35604 0
M  V30 4490 C 414.7 0.280007 -4.47124 0
M  V30 4491 C 416.444 1.96606 -3.76227 0
M  V30 4492 C 414.351 0.886949 -5.84711 0
M  V30 4493 H 413.281 0.265997 -0.705522 0
M  V30 4494 H 415.932 -0.0430408 -1.8345 0
M  V30 4495 H 414.314 2.09525 -3.36029 0
M  V30 4496 H 415.488 -0.489631 -4.58191 0
M  V30 4497 H 413.803 -0.284835 -4.15425 0
M  V30 4498 H 416.4 2.42893 -4.76347 0
M  V30 4499 H 416.743 2.79024 -3.08952 0
M  V30 4500 H 417.276 1.23828 -3.78036 0
M  V30 4501 H 414.015 0.101876 -6.55421 0
M  V30 4502 H 413.535 1.6261 -5.77337 0
M  V30 4503 H 415.214 1.39011 -6.3189 0
M  V30 4504 N 415.346 1.54954 0.287554 0
M  V30 4505 C 416.623 1.65569 1.04146 0
M  V30 4506 C 417.003 0.512672 2.0478 0
M  V30 4507 O 416.351 -0.489038 2.23205 0
M  V30 4508 C 416.561 3.04163 1.71131 0
M  V30 4509 C 417.909 3.61429 2.22832 0
M  V30 4510 O 418.933 3.06702 1.81141 0
M  V30 4511 O 417.792 4.57281 2.9926 0
M  V30 4512 H 414.886 0.671881 0.482188 0
M  V30 4513 H 417.432 1.67297 0.28457 0
M  V30 4514 H 416.204 3.78796 0.981303 0
M  V30 4515 H 415.827 3.06271 2.53543 0
M  V30 4516 N 416.824 -0.551391 1.4764 0
M  V30 4517 C 418.235 -1.13349 1.48354 0
M  V30 4518 C 418.586 -1.94709 0.241432 0
M  V30 4519 O 417.711 -2.06306 -0.653205 0
M  V30 4520 C 418.306 -2.0623 2.68802 0
M  V30 4521 C 416.865 -2.597 2.72457 0
M  V30 4522 C 416.012 -1.36201 2.41546 0
M  V30 4523 H 418.963 -0.337698 1.55065 0
M  V30 4524 H 418.984 -2.90196 2.46103 0
M  V30 4525 H 418.496 -1.46987 3.59188 0
M  V30 4526 H 416.597 -3.22724 1.86225 0
M  V30 4527 H 416.71 -3.00296 3.73308 0
M  V30 4528 H 415.074 -1.67068 1.9225 0
M  V30 4529 H 415.857 -0.787425 3.34147 0
M  V30 4530 N 418.302 -1.35869 -0.798587 0
M  V30 4531 C 419.265 -1.29307 -1.89242 0
M  V30 4532 C 420.265 -0.202747 -1.59517 0
M  V30 4533 O 421.455 -0.456957 -1.681 0
M  V30 4534 C 418.587 -1.00229 -3.25833 0
M  V30 4535 H 419.78 -2.26576 -1.96478 0
M  V30 4536 H 417.333 -1.20509 -0.995358 0
M  V30 4537 H 418.068 -0.033801 -3.24282 0
M  V30 4538 H 417.853 -1.79121 -3.48795 0
M  V30 4539 H 419.343 -0.98219 -4.05885 0
M  V30 4540 N 419.78 1.02168 -1.19998 0
M  V30 4541 C 421.008 1.79296 -1.03249 0
M  V30 4542 C 421.423 1.84103 0.418502 0
M  V30 4543 O 420.78 1.29031 1.29063 0
M  V30 4544 C 420.831 3.24007 -1.60319 0
M  V30 4545 O 420.552 3.19512 -2.99739 0
M  V30 4546 C 422.053 4.17704 -1.48453 0
M  V30 4547 H 419.273 0.564016 -0.363493 0
M  V30 4548 H 421.817 1.28639 -1.58973 0
M  V30 4549 H 419.972 3.7183 -1.08727 0
M  V30 4550 H 420.386 4.10306 -3.26725 0
M  V30 4551 H 421.86 5.17104 -1.93153 0
M  V30 4552 H 422.337 4.37029 -0.436193 0
M  V30 4553 H 422.943 3.7576 -1.99211 0
M  V30 4554 N 421.258 1.00505 1.21394 0
M  V30 4555 C 422.19 0.52372 2.23136 0
M  V30 4556 C 423.203 -0.387714 1.58116 0
M  V30 4557 O 424.392 -0.187905 1.77508 0
M  V30 4558 C 421.492 -0.258885 3.3791 0
M  V30 4559 C 420.665 0.651634 4.32519 0
M  V30 4560 C 419.724 -0.0813705 5.26137 0
M  V30 4561 O 418.75 0.537295 5.66658 0
M  V30 4562 N 419.952 -1.35992 5.64346 0
M  V30 4563 H 422.717 1.39865 2.65062 0
M  V30 4564 H 420.278 0.881196 1.35818 0
M  V30 4565 H 422.27 -0.758208 3.97534 0
M  V30 4566 H 420.84 -1.035 2.94968 0
M  V30 4567 H 420.06 1.33145 3.71034 0
M  V30 4568 H 421.348 1.27129 4.92662 0
M  V30 4569 H 420.746 -1.88368 5.33417 0
M  V30 4570 H 419.303 -1.8042 6.26332 0
M  V30 4571 N 422.737 -1.36956 0.779787 0
M  V30 4572 C 423.67 -2.27896 0.117681 0
M  V30 4573 C 424.648 -1.46736 -0.700523 0
M  V30 4574 O 425.832 -1.76055 -0.673568 0
M  V30 4575 C 422.959 -3.28136 -0.839296 0
M  V30 4576 C 422.005 -4.26373 -0.10409 0
M  V30 4577 S 422.838 -5.2157 1.21348 0
M  V30 4578 C 423.994 -6.25359 0.260249 0
M  V30 4579 H 424.227 -2.83704 0.888778 0
M  V30 4580 H 421.76 -1.43352 0.57355 0
M  V30 4581 H 423.718 -3.86394 -1.38601 0
M  V30 4582 H 422.379 -2.7126 -1.58356 0
M  V30 4583 H 421.572 -4.97121 -0.82986 0
M  V30 4584 H 421.174 -3.72147 0.371858 0
M  V30 4585 H 423.466 -6.75145 -0.564435 0
M  V30 4586 H 424.409 -7.01885 0.936135 0
M  V30 4587 H 424.817 -5.64345 -0.132127 0
M  V30 4588 N 424.215 -0.530993 -1.48385 0
M  V30 4589 C 425.148 0.278511 -2.26494 0
M  V30 4590 C 426.126 0.943905 -1.32398 0
M  V30 4591 O 427.31 0.968098 -1.61741 0
M  V30 4592 C 424.437 1.39453 -3.08659 0
M  V30 4593 C 423.483 0.840434 -4.18137 0
M  V30 4594 S 424.316 -0.292496 -5.34701 0
M  V30 4595 C 425.472 0.825973 -6.20426 0
M  V30 4596 H 425.705 -0.384365 -2.94805 0
M  V30 4597 H 423.238 -0.316799 -1.51115 0
M  V30 4598 H 425.196 2.03382 -3.56575 0
M  V30 4599 H 423.857 2.02913 -2.3976 0
M  V30 4600 H 423.05 1.67769 -4.75257 0
M  V30 4601 H 422.652 0.277819 -3.72967 0
M  V30 4602 H 424.944 1.72438 -6.55188 0
M  V30 4603 H 425.887 0.292728 -7.07495 0
M  V30 4604 H 426.295 1.10683 -5.53543 0
M  V30 4605 N 425.693 1.55336 -0.266172 0
M  V30 4606 C 426.942 1.98574 0.353749 0
M  V30 4607 C 427.255 1.15789 1.57646 0
M  V30 4608 O 428.461 1.49129 2.26876 0
M  V30 4609 C 426.917 3.53403 0.680747 0
M  V30 4610 C 426.525 4.44953 -0.52165 0
M  V30 4611 C 428.269 4.05251 1.26379 0
M  V30 4612 C 426.176 5.91156 -0.169736 0
M  V30 4613 H 425.106 0.741643 0.135949 0
M  V30 4614 H 427.757 1.79743 -0.369421 0
M  V30 4615 H 426.139 3.68001 1.46257 0
M  V30 4616 H 427.313 4.42121 -1.29869 0
M  V30 4617 H 425.628 4.03691 -1.02093 0
M  V30 4618 H 428.225 5.12021 1.54074 0
M  V30 4619 H 428.568 3.53749 2.19471 0
M  V30 4620 H 429.101 3.94057 0.544447 0
M  V30 4621 H 425.84 6.46736 -1.0683 0
M  V30 4622 H 425.36 5.97079 0.570717 0
M  V30 4623 H 427.039 6.4655 0.241245 0
M  V30 4624 N 427.171 -0.0066808 1.57599 0
M  V30 4625 C 428.101 -0.999296 2.11036 0
M  V30 4626 C 429.082 -1.36278 1.01795 0
M  V30 4627 O 430.267 -1.4477 1.29442 0
M  V30 4628 C 427.397 -2.29328 2.60818 0
M  V30 4629 C 426.351 -2.07159 3.74525 0
M  V30 4630 C 425.677 -3.42512 4.10596 0
M  V30 4631 C 426.977 -1.43959 5.02069 0
M  V30 4632 H 428.671 -0.554382 2.94223 0
M  V30 4633 H 426.217 -0.265221 1.41536 0
M  V30 4634 H 428.17 -2.99117 2.96828 0
M  V30 4635 H 426.894 -2.7592 1.74745 0
M  V30 4636 H 425.553 -1.39797 3.38899 0
M  V30 4637 H 425.201 -3.86795 3.21556 0
M  V30 4638 H 424.901 -3.28498 4.87199 0
M  V30 4639 H 426.425 -4.13628 4.4916 0
M  V30 4640 H 427.839 -2.03696 5.35893 0
M  V30 4641 H 426.236 -1.40452 5.83432 0
M  V30 4642 H 427.306 -0.407992 4.83181 0
M  V30 4643 N 428.649 -1.55105 -0.279332 0
M  V30 4644 C 429.597 -1.88333 -1.36505 0
M  V30 4645 C 430.591 -0.759043 -1.51443 0
M  V30 4646 O 431.797 -0.943312 -1.53302 0
M  V30 4647 H 428.172 -0.59766 -0.456406 0
M  V30 4648 H 430.143 -2.79041 -1.05728 0
M  V30 4649 C 428.892 -2.16628 -2.7197 0
M  V30 4650 H 428.215 -3.02624 -2.61264 0
M  V30 4651 H 429.655 -2.43803 -3.46895 0
M  V30 4652 C 428.114 -0.971807 -3.22579 0
M  V30 4653 O 428.644 -0.203228 -4.01186 0
M  V30 4654 N 426.85 -0.771238 -2.80179 0
M  V30 4655 H 426.397 -1.39792 -2.1637 0
M  V30 4656 H 426.355 0.0263667 -3.14389 0
M  V30 4657 N 430.127 0.543554 -1.4793 0
M  V30 4658 C 431.367 1.31072 -1.56843 0
M  V30 4659 C 431.731 1.90604 -0.231124 0
M  V30 4660 O 432.932 2.68091 -0.195165 0
M  V30 4661 C 431.203 2.38106 -2.66533 0
M  V30 4662 S 432.762 3.24729 -2.95122 0
M  V30 4663 H 429.58 0.446035 -0.553691 0
M  V30 4664 H 432.182 0.620777 -1.85382 0
M  V30 4665 H 430.886 1.92828 -3.62278 0
M  V30 4666 H 430.417 3.11824 -2.39852 0
M  V30 4667 H 432.432 4.37891 -2.3338 0
M  V30 4668 N 431.605 1.3629 0.791371 0
M  V30 4669 C 432.854 1.29742 1.54434 0
M  V30 4670 C 433.167 -0.121729 1.95221 0
M  V30 4671 O 434.373 -0.309579 2.69729 0
M  V30 4672 C 432.829 2.27623 2.78776 0
M  V30 4673 C 432.437 3.74963 2.45166 0
M  V30 4674 C 434.181 2.30047 3.56761 0
M  V30 4675 C 432.088 4.64626 3.65891 0
M  V30 4676 H 431.018 0.482113 0.579727 0
M  V30 4677 H 433.669 1.61642 0.868565 0
M  V30 4678 H 432.051 1.88714 3.48142 0
M  V30 4679 H 433.225 4.22596 1.83709 0
M  V30 4680 H 431.54 3.75295 1.80396 0
M  V30 4681 H 434.137 2.94247 4.46456 0
M  V30 4682 H 434.48 1.30846 3.95203 0
M  V30 4683 H 435.013 2.67563 2.94372 0
M  V30 4684 H 431.752 5.64883 3.32547 0
M  V30 4685 H 431.272 4.2171 4.26521 0
M  V30 4686 H 432.951 4.80801 4.32943 0
M  V30 4687 N 433.083 -1.0153 1.20538 0
M  V30 4688 C 434.313 -1.78487 1.04048 0
M  V30 4689 C 434.721 -1.84631 -0.413292 0
M  V30 4690 O 434.064 -1.29919 -1.29872 0
M  V30 4691 C 434.126 -3.24367 1.55003 0
M  V30 4692 C 433.79 -3.41827 3.0332 0
M  V30 4693 C 434.787 -3.30941 4.00966 0
M  V30 4694 C 432.472 -3.67602 3.42307 0
M  V30 4695 C 434.466 -3.45577 5.35589 0
M  V30 4696 C 432.153 -3.81881 4.77085 0
M  V30 4697 C 433.151 -3.70874 5.73534 0
M  V30 4698 O 432.839 -3.84714 7.05868 0
M  V30 4699 H 432.571 -0.568108 0.366373 0
M  V30 4700 H 435.125 -1.28677 1.60098 0
M  V30 4701 H 433.355 -3.75266 0.933397 0
M  V30 4702 H 435.044 -3.82963 1.34514 0
M  V30 4703 H 435.81 -3.10964 3.72191 0
M  V30 4704 H 431.689 -3.75256 2.67776 0
M  V30 4705 H 435.233 -3.36902 6.10854 0
M  V30 4706 H 431.13 -4.01359 5.0555 0
M  V30 4707 H 431.898 -4.01724 7.13134 0
M  V30 4708 N 434.561 -1.01147 -1.20859 0
M  V30 4709 C 435.808 -0.697865 -1.90095 0
M  V30 4710 C 436.136 0.772014 -1.78522 0
M  V30 4711 O 435.391 1.57595 -1.16027 0
M  V30 4712 C 435.69 -1.0727 -3.40922 0
M  V30 4713 C 435.356 -2.53792 -3.72693 0
M  V30 4714 C 434.018 -2.93829 -3.81075 0
M  V30 4715 C 436.37 -3.48674 -3.87397 0
M  V30 4716 C 433.698 -4.27696 -4.01613 0
M  V30 4717 C 436.05 -4.82223 -4.09444 0
M  V30 4718 C 434.714 -5.21973 -4.16054 0
M  V30 4719 H 433.984 -0.255367 -0.695607 0
M  V30 4720 H 436.631 -1.27111 -1.43231 0
M  V30 4721 H 434.936 -0.417799 -3.89566 0
M  V30 4722 H 436.633 -0.807818 -3.92779 0
M  V30 4723 H 433.223 -2.21768 -3.66765 0
M  V30 4724 H 437.407 -3.18904 -3.80281 0
M  V30 4725 H 432.663 -4.58055 -4.04964 0
M  V30 4726 H 436.837 -5.55672 -4.19763 0
M  V30 4727 H 434.464 -6.25717 -4.31721 0
M  V30 4728 N 436.039 1.36541 -0.78704 0
M  V30 4729 C 436.986 2.30082 -0.181901 0
M  V30 4730 C 437.956 1.5186 0.672896 0
M  V30 4731 O 439.141 1.80374 0.622072 0
M  V30 4732 C 436.281 3.3835 0.679197 0
M  V30 4733 C 435.394 4.31565 -0.193882 0
M  V30 4734 C 434.529 5.26915 0.673364 0
M  V30 4735 C 433.568 6.11769 -0.201315 0
M  V30 4736 N 432.705 6.99315 0.624777 0
M  V30 4737 H 437.545 2.81248 -0.985064 0
M  V30 4738 H 435.082 1.38437 -0.497342 0
M  V30 4739 H 437.04 3.99767 1.19341 0
M  V30 4740 H 435.67 2.8851 1.44781 0
M  V30 4741 H 434.722 3.71323 -0.826044 0
M  V30 4742 H 436.034 4.91191 -0.867937 0
M  V30 4743 H 435.188 5.9361 1.25348 0
M  V30 4744 H 433.927 4.67737 1.38105 0
M  V30 4745 H 432.932 5.44039 -0.793849 0
M  V30 4746 H 434.157 6.73022 -0.906568 0
M  V30 4747 H 432.103 6.42648 1.3168 0
M  V30 4748 H 432.02 7.56 0.00835237 0
M  V30 4749 H 433.288 7.70382 1.18879 0
M  V30 4750 N 437.518 0.538854 1.48102 0
M  V30 4751 C 438.766 0.00798599 2.02098 0
M  V30 4752 C 439.087 -1.33922 1.41739 0
M  V30 4753 O 438.357 -1.86932 0.585934 0
M  V30 4754 H 436.937 -3.62179e-05 0.747 0
M  V30 4755 H 439.599 0.7047 1.81714 0
M  V30 4756 H 438.695 -0.0937672 3.11959 0
M  V30 4757 N 438.996 -1.55193 0.274407 0
M  V30 4758 C 440.221 -2.04446 -0.348824 0
M  V30 4759 C 440.646 -1.15149 -1.48735 0
M  V30 4760 O 440.004 -0.149952 -1.80679 0
M  V30 4761 C 440.052 -3.51431 -0.808009 0
M  V30 4762 O 439.156 -3.65225 -1.91531 0
M  V30 4763 H 438.497 -0.66006 -0.0722276 0
M  V30 4764 H 441.027 -2.00481 0.408498 0
M  V30 4765 H 441.037 -3.92781 -1.10395 0
M  V30 4766 H 439.712 -4.15892 0.0249865 0
M  V30 4767 H 438.289 -3.35778 -1.62196 0
M  V30 4768 N 440.474 -0.00167713 -1.576 0
M  V30 4769 C 441.72 0.67819 -1.91761 0
M  V30 4770 C 442.075 1.71288 -0.876256 0
M  V30 4771 O 441.368 1.91276 0.111333 0
M  V30 4772 C 441.562 1.36189 -3.30435 0
M  V30 4773 C 441.391 0.394938 -4.47962 0
M  V30 4774 C 440.161 0.00472875 -5.053 0
M  V30 4775 C 442.359 -0.339521 -5.13178 0
M  V30 4776 N 440.341 -0.960257 -6.06343 0
M  V30 4777 C 441.712 -1.15914 -6.09068 0
M  V30 4778 C 443.767 -0.403177 -4.96265 0
M  V30 4779 C 442.47 -2.03661 -6.89866 0
M  V30 4780 C 444.496 -1.26788 -5.77649 0
M  V30 4781 C 443.858 -2.07535 -6.73134 0
M  V30 4782 H 439.957 0.221317 -0.750028 0
M  V30 4783 H 442.541 -0.0624182 -1.946 0
M  V30 4784 H 440.712 2.07278 -3.28467 0
M  V30 4785 H 442.444 1.99658 -3.52021 0
M  V30 4786 H 439.199 0.373452 -4.72125 0
M  V30 4787 H 439.623 -1.43817 -6.61548 0
M  V30 4788 H 444.265 0.206818 -4.22294 0
M  V30 4789 H 441.983 -2.65727 -7.63161 0
M  V30 4790 H 445.569 -1.32107 -5.66603 0
M  V30 4791 H 444.449 -2.73363 -7.35012 0
M  V30 4792 N 441.952 1.55251 0.271103 0
M  V30 4793 C 443.198 1.76207 1.00394 0
M  V30 4794 C 443.531 0.562604 1.85872 0
M  V30 4795 O 442.806 -0.439785 1.89463 0
M  V30 4796 C 443.089 3.06828 1.8849 0
M  V30 4797 C 442.942 4.37134 1.05992 0
M  V30 4798 C 444.261 3.33503 2.87165 0
M  V30 4799 H 441.38 0.641086 0.363562 0
M  V30 4800 H 444.022 1.87982 0.276189 0
M  V30 4801 H 442.172 2.96921 2.5054 0
M  V30 4802 H 443.844 4.59001 0.459978 0
M  V30 4803 H 442.087 4.32275 0.363443 0
M  V30 4804 H 442.758 5.2486 1.70955 0
M  V30 4805 H 445.234 3.43215 2.3525 0
M  V30 4806 H 444.11 4.2616 3.45946 0
M  V30 4807 H 444.371 2.53235 3.62387 0
M  V30 4808 N 443.43 -0.535701 1.48216 0
M  V30 4809 C 444.378 -1.66179 1.62749 0
M  V30 4810 C 445.372 -1.62034 0.49409 0
M  V30 4811 O 446.578 -1.6696 0.672624 0
M  V30 4812 H 442.953 -0.550244 0.512578 0
M  V30 4813 H 444.924 -1.51063 2.57337 0
M  V30 4814 C 443.673 -3.04471 1.67907 0
M  V30 4815 H 442.996 -3.08351 2.54479 0
M  V30 4816 H 444.436 -3.82894 1.82121 0
M  V30 4817 C 442.895 -3.34314 0.416596 0
M  V30 4818 O 443.425 -3.98905 -0.473014 0
M  V30 4819 N 441.631 -2.89149 0.290038 0
M  V30 4820 H 441.178 -2.36764 1.01493 0
M  V30 4821 H 441.136 -3.09486 -0.55367 0
M  V30 4822 N 444.908 -1.36708 -0.784132 0
M  V30 4823 C 445.855 -1.31466 -1.89698 0
M  V30 4824 C 446.825 -0.18239 -1.65096 0
M  V30 4825 O 448.01 -0.369762 -1.87183 0
M  V30 4826 C 445.15 -1.1151 -3.26588 0
M  V30 4827 C 444.263 -2.33859 -3.63227 0
M  V30 4828 C 443.398 -2.06873 -4.89262 0
M  V30 4829 C 442.437 -3.25154 -5.18595 0
M  V30 4830 N 441.574 -2.978 -6.35814 0
M  V30 4831 H 446.414 -2.26619 -1.93515 0
M  V30 4832 H 443.951 -1.12625 -0.946256 0
M  V30 4833 H 445.909 -0.979653 -4.05535 0
M  V30 4834 H 444.539 -0.200103 -3.22179 0
M  V30 4835 H 443.591 -2.58188 -2.79362 0
M  V30 4836 H 444.903 -3.22109 -3.8085 0
M  V30 4837 H 444.057 -1.90289 -5.76086 0
M  V30 4838 H 442.796 -1.15942 -4.73718 0
M  V30 4839 H 441.801 -3.42292 -4.30251 0
M  V30 4840 H 443.026 -4.1692 -5.36055 0
M  V30 4841 H 440.972 -2.09485 -6.21653 0
M  V30 4842 H 440.889 -3.7959 -6.53794 0
M  V30 4843 H 442.157 -2.84805 -7.25607 0
M  V30 4844 N 446.386 1.0089 -1.21074 0
M  V30 4845 C 447.633 1.74607 -1.0256 0
M  V30 4846 C 447.961 1.89426 0.44136 0
M  V30 4847 O 447.216 1.42266 1.34384 0
M  V30 4848 C 447.515 3.16335 -1.66334 0
M  V30 4849 C 447.181 3.21474 -3.16173 0
M  V30 4850 C 445.843 3.22583 -3.57062 0
M  V30 4851 C 448.195 3.19025 -4.12156 0
M  V30 4852 C 445.523 3.18925 -4.92446 0
M  V30 4853 C 447.875 3.16909 -5.47496 0
M  V30 4854 C 446.539 3.16326 -5.87787 0
M  V30 4855 H 445.809 0.638933 -0.375294 0
M  V30 4856 H 448.456 1.18274 -1.50611 0
M  V30 4857 H 446.761 3.75876 -1.10566 0
M  V30 4858 H 448.458 3.72083 -1.49516 0
M  V30 4859 H 445.048 3.2135 -2.83605 0
M  V30 4860 H 449.232 3.17332 -3.81595 0
M  V30 4861 H 444.488 3.16809 -5.22917 0
M  V30 4862 H 448.662 3.13968 -6.21609 0
M  V30 4863 H 446.289 3.13246 -6.92662 0
M  V30 4864 N 447.864 1.01787 1.20321 0
M  V30 4865 C 449.275 0.739307 1.71438 0
M  V30 4866 C 449.626 -0.742041 1.81627 0
M  V30 4867 O 448.751 -1.57903 1.47971 0
M  V30 4868 C 449.346 1.33538 3.11373 0
M  V30 4869 C 447.905 1.10566 3.59795 0
M  V30 4870 C 447.052 1.44028 2.36962 0
M  V30 4871 H 450.003 1.18718 1.05317 0
M  V30 4872 H 450.024 0.726611 3.73498 0
M  V30 4873 H 449.536 2.41352 3.03926 0
M  V30 4874 H 447.637 0.0452405 3.72573 0
M  V30 4875 H 447.75 1.78661 4.44542 0
M  V30 4876 H 446.114 0.85933 2.39766 0
M  V30 4877 H 446.897 2.52901 2.32155 0
M  V30 4878 N 449.342 -1.36122 0.79427 0
M  V30 4879 C 450.588 -1.99406 0.369452 0
M  V30 4880 C 450.921 -1.62886 -1.05743 0
M  V30 4881 O 450.196 -0.886053 -1.73145 0
M  V30 4882 C 450.479 -3.56046 0.538833 0
M  V30 4883 C 450.332 -4.02404 2.00976 0
M  V30 4884 C 451.651 -4.40079 -0.0431359 0
M  V30 4885 H 448.77 -0.724397 0.135712 0
M  V30 4886 H 451.412 -1.61461 1.00151 0
M  V30 4887 H 449.562 -3.885 0.000771004 0
M  V30 4888 H 451.234 -3.80415 2.60926 0
M  V30 4889 H 449.477 -3.53765 2.51063 0
M  V30 4890 H 450.148 -5.11344 2.07922 0
M  V30 4891 H 452.624 -4.14013 0.416228 0
M  V30 4892 H 451.5 -5.48799 0.105374 0
M  V30 4893 H 451.761 -4.27264 -1.13571 0
M  V30 4894 N 450.82 -0.546701 -1.47814 0
M  V30 4895 C 451.73 0.21026 -2.33656 0
M  V30 4896 C 452.746 0.922413 -1.47538 0
M  V30 4897 O 453.922 0.893652 -1.80488 0
M  V30 4898 C 450.987 1.23348 -3.24016 0
M  V30 4899 C 450.048 0.529883 -4.26017 0
M  V30 4900 C 449.281 1.50435 -5.12059 0
M  V30 4901 O 449.504 2.73837 -5.00369 0
M  V30 4902 O 448.438 1.03459 -5.92942 0
M  V30 4903 H 452.264 -0.493605 -2.99662 0
M  V30 4904 H 449.849 -0.307427 -1.46203 0
M  V30 4905 H 451.731 1.82438 -3.79861 0
M  V30 4906 H 450.406 1.91945 -2.60651 0
M  V30 4907 H 449.313 -0.101948 -3.73961 0
M  V30 4908 H 450.646 -0.11445 -4.92067 0
M  V30 4909 N 452.299 1.55045 -0.282633 0
M  V30 4910 C 453.232 2.18951 0.64311 0
M  V30 4911 C 454.21 1.15287 1.14664 0
M  V30 4912 O 455.394 1.43846 1.21822 0
M  V30 4913 C 452.521 2.81874 1.87789 0
M  V30 4914 C 451.567 3.98906 1.50919 0
M  V30 4915 S 452.4 5.3234 0.580884 0
M  V30 4916 C 453.556 5.98737 1.82387 0
M  V30 4917 H 453.789 2.97131 0.100138 0
M  V30 4918 H 451.322 1.54255 -0.0668514 0
M  V30 4919 H 453.28 3.18757 2.58658 0
M  V30 4920 H 451.941 2.03573 2.392 0
M  V30 4921 H 451.134 4.4165 2.42819 0
M  V30 4922 H 450.736 3.63485 0.88061 0
M  V30 4923 H 453.028 6.18427 2.76684 0
M  V30 4924 H 453.971 6.93318 1.4393 0
M  V30 4925 H 454.379 5.28177 1.99223 0
M  V30 4926 N 453.777 0.010035 1.57597 0
M  V30 4927 C 455.005 -0.683413 1.95287 0
M  V30 4928 C 455.42 -1.66747 0.885481 0
M  V30 4929 O 454.777 -1.82003 -0.134629 0
M  V30 4930 C 454.828 -1.40652 3.33015 0
M  V30 4931 O 454.549 -0.461916 4.35658 0
M  V30 4932 C 456.05 -2.19356 3.85225 0
M  V30 4933 H 453.27 -0.189708 0.643624 0
M  V30 4934 H 455.814 0.0641359 2.04399 0
M  V30 4935 H 453.969 -2.10562 3.2518 0
M  V30 4936 H 454.383 -0.973215 5.15392 0
M  V30 4937 H 455.857 -2.65433 4.83993 0
M  V30 4938 H 456.334 -3.02457 3.18459 0
M  V30 4939 H 456.94 -1.54442 3.96267 0
M  V30 4940 N 455.255 -1.55392 -0.262866 0
M  V30 4941 C 456.205 -1.85355 -1.32768 0
M  V30 4942 C 457.189 -0.713188 -1.44231 0
M  V30 4943 O 458.381 -0.974765 -1.47741 0
M  V30 4944 C 455.51 -2.13781 -2.68612 0
M  V30 4945 C 454.596 -3.34104 -2.61219 0
M  V30 4946 N 454.987 -4.53766 -2.2345 0
M  V30 4947 C 453.285 -3.36895 -2.92263 0
M  V30 4948 C 453.986 -5.35877 -2.26298 0
M  V30 4949 N 452.962 -4.74536 -2.65172 0
M  V30 4950 H 456.764 -2.75413 -1.02591 0
M  V30 4951 H 454.278 -1.55405 -0.471503 0
M  V30 4952 H 456.275 -2.33407 -3.45437 0
M  V30 4953 H 454.935 -1.25013 -2.99669 0
M  V30 4954 H 455.946 -4.79682 -1.95258 0
M  V30 4955 H 452.623 -2.58351 -3.27965 0
M  V30 4956 H 454.013 -6.41577 -1.99572 0
M  V30 4957 N 456.733 0.527833 -1.48498 0
M  V30 4958 C 457.681 1.65313 -1.63628 0
M  V30 4959 C 458.675 1.6177 -0.502676 0
M  V30 4960 O 459.881 1.66601 -0.681469 0
M  V30 4961 H 456.256 0.547518 -0.515488 0
M  V30 4962 H 458.227 1.49696 -2.58135 0
M  V30 4963 C 456.976 3.03576 -1.6952 0
M  V30 4964 H 456.299 3.06997 -2.56111 0
M  V30 4965 H 457.739 3.81923 -1.84149 0
M  V30 4966 C 456.198 3.34089 -0.43432 0
M  V30 4967 O 456.728 3.99151 0.451852 0
M  V30 4968 N 454.934 2.88991 -0.305368 0
M  V30 4969 H 454.481 2.36222 -1.02747 0
M  V30 4970 H 454.439 3.09776 0.537249 0
M  V30 4971 N 458.211 1.37122 0.776871 0
M  V30 4972 C 459.161 1.28989 1.88005 0
M  V30 4973 C 460.145 0.178765 1.59904 0
M  V30 4974 O 461.337 0.412705 1.72121 0
M  V30 4975 C 458.466 1.09402 3.25402 0
M  V30 4976 C 457.552 2.25036 3.59471 0
M  V30 4977 N 457.943 3.50407 3.64759 0
M  V30 4978 C 456.241 2.17078 3.89607 0
M  V30 4979 C 456.942 4.26628 3.95428 0
M  V30 4980 N 455.918 3.55709 4.11062 0
M  V30 4981 H 459.72 2.2394 1.90337 0
M  V30 4982 H 457.234 1.30021 0.973052 0
M  V30 4983 H 459.231 1.01661 4.04315 0
M  V30 4984 H 457.891 0.153632 3.24336 0
M  V30 4985 H 458.902 3.8438 3.47091 0
M  V30 4986 H 455.579 1.31067 3.96393 0
M  V30 4987 H 456.969 5.35107 4.06338 0
M  V30 4988 N 459.689 -1.00246 1.21608 0
M  V30 4989 C 460.637 -2.11193 0.97469 0
M  V30 4990 C 461.631 -1.69216 -0.0789303 0
M  V30 4991 O 462.837 -1.79853 0.0726806 0
M  V30 4992 H 459.212 -0.690455 0.297953 0
M  V30 4993 H 461.183 -2.2873 1.91638 0
M  V30 4994 C 459.932 -3.43182 0.558717 0
M  V30 4995 H 459.255 -3.75918 1.3611 0
M  V30 4996 H 460.695 -4.21823 0.429154 0
M  V30 4997 C 459.154 -3.28882 -0.730648 0
M  V30 4998 O 459.684 -3.59835 -1.78554 0
M  V30 4999 N 457.89 -2.8209 -0.698131 0
M  V30 5000 H 457.437 -2.57099 0.16061 0
M  V30 5001 H 457.395 -2.72903 -1.56113 0
M  V30 5002 N 461.167 -1.02423 -1.1978 0
M  V30 5003 C 462.414 -0.717988 -1.89344 0
M  V30 5004 C 462.742 0.753036 -1.79331 0
M  V30 5005 O 461.997 1.56355 -1.17692 0
M  V30 5006 C 462.296 -1.1088 -3.39765 0
M  V30 5007 C 461.962 -2.57731 -3.6998 0
M  V30 5008 C 460.624 -2.97854 -3.77937 0
M  V30 5009 C 462.976 -3.52763 -3.83677 0
M  V30 5010 C 460.304 -4.31931 -3.97054 0
M  V30 5011 C 462.656 -4.86538 -4.04306 0
M  V30 5012 C 461.32 -5.26356 -4.10494 0
M  V30 5013 H 460.59 -0.26273 -0.692859 0
M  V30 5014 H 463.237 -1.28623 -1.41875 0
M  V30 5015 H 461.542 -0.459094 -3.89101 0
M  V30 5016 H 463.239 -0.849432 -3.919 0
M  V30 5017 H 459.829 -2.25646 -3.64393 0
M  V30 5018 H 464.013 -3.2292 -3.76877 0
M  V30 5019 H 459.269 -4.62324 -4.00083 0
M  V30 5020 H 463.443 -5.60093 -4.13846 0
M  V30 5021 H 461.07 -6.3026 -4.2506 0
M  V30 5022 N 462.645 1.35699 -0.801477 0
M  V30 5023 C 464.061 1.52065 -0.484596 0
M  V30 5024 C 464.261 1.75215 0.995084 0
M  V30 5025 O 463.317 1.79061 1.78026 0
M  V30 5026 C 464.63 2.69908 -1.32552 0
M  V30 5027 C 466.178 2.83784 -1.32044 0
M  V30 5028 C 466.653 4.04646 -2.14536 0
M  V30 5029 N 468.144 4.11814 -2.12046 0
M  V30 5030 C 468.879 5.04437 -2.72636 0
M  V30 5031 N 468.375 6.02426 -3.42133 0
M  V30 5032 N 470.168 4.97144 -2.62305 0
M  V30 5033 H 462.319 1.18928 -1.75983 0
M  V30 5034 H 464.582 0.581455 -0.748741 0
M  V30 5035 H 464.288 2.59363 -2.37537 0
M  V30 5036 H 464.162 3.64376 -0.975181 0
M  V30 5037 H 466.549 2.93783 -0.27846 0
M  V30 5038 H 466.63 1.90188 -1.71062 0
M  V30 5039 H 466.274 3.95407 -3.18772 0
M  V30 5040 H 466.204 4.97413 -1.72882 0
M  V30 5041 H 468.695 3.41664 -1.61476 0
M  V30 5042 H 469.008 6.69688 -3.85666 0
M  V30 5043 H 467.353 6.02615 -3.46237 0
M  V30 5044 H 470.544 4.19546 -2.07603 0
M  V30 5045 H 470.717 5.69138 -3.09815 0
M  V30 5046 N 464.123 0.554532 1.47522 0
M  V30 5047 C 465.053 -0.182974 2.32782 0
M  V30 5048 C 466.034 -0.911377 1.43624 0
M  V30 5049 O 467.219 -0.892366 1.72483 0
M  V30 5050 C 464.349 -1.21513 3.25349 0
M  V30 5051 C 463.303 -0.603355 4.23726 0
M  V30 5052 C 462.629 -1.73995 5.05598 0
M  V30 5053 C 463.929 0.441121 5.20434 0
M  V30 5054 H 465.623 0.52882 2.94693 0
M  V30 5055 H 463.169 0.255759 1.41711 0
M  V30 5056 H 465.122 -1.73922 3.83835 0
M  V30 5057 H 463.846 -1.95683 2.61487 0
M  V30 5058 H 462.505 -0.10059 3.66462 0
M  V30 5059 H 462.153 -2.47063 4.38143 0
M  V30 5060 H 461.853 -1.3364 5.72201 0
M  V30 5061 H 463.377 -2.26735 5.66942 0
M  V30 5062 H 464.791 0.00319931 5.733 0
M  V30 5063 H 463.188 0.763402 5.95224 0
M  V30 5064 H 464.258 1.33799 4.66075 0
M  V30 5065 N 465.601 -1.54893 0.290851 0
M  V30 5066 C 466.549 -2.24579 -0.605576 0
M  V30 5067 C 467.543 -1.24824 -1.14522 0
M  V30 5068 O 468.749 -1.42706 -1.09704 0
M  V30 5069 H 465.124 -0.720946 -0.213872 0
M  V30 5070 H 467.095 -2.984 0.0048173 0
M  V30 5071 C 465.844 -2.99224 -1.77088 0
M  V30 5072 H 465.167 -3.75782 -1.36484 0
M  V30 5073 H 466.607 -3.51281 -2.3744 0
M  V30 5074 C 465.066 -2.05602 -2.66888 0
M  V30 5075 O 465.596 -1.61745 -3.67698 0
M  V30 5076 N 463.802 -1.71771 -2.34399 0
M  V30 5077 H 463.349 -2.07633 -1.52468 0
M  V30 5078 H 463.307 -1.09403 -2.94751 0
M  V30 5079 N 467.08 -0.0183926 -1.57589 0
M  V30 5080 C 467.99 0.982943 -2.13015 0
M  V30 5081 C 469.006 1.36443 -1.07979 0
M  V30 5082 O 470.182 1.44802 -1.3998 0
M  V30 5083 C 467.247 2.25024 -2.63752 0
M  V30 5084 C 466.308 1.93018 -3.83461 0
M  V30 5085 C 465.541 3.13706 -4.31769 0
M  V30 5086 O 465.764 4.2601 -3.79305 0
M  V30 5087 O 464.698 2.96629 -5.23732 0
M  V30 5088 H 468.524 0.541709 -2.9883 0
M  V30 5089 H 466.109 0.201565 -1.48034 0
M  V30 5090 H 467.991 2.99441 -2.96502 0
M  V30 5091 H 466.666 2.68349 -1.81026 0
M  V30 5092 H 465.573 1.16019 -3.55655 0
M  V30 5093 H 466.906 1.54516 -4.67317 0
M  V30 5094 N 468.558 1.5553 0.254621 0
M  V30 5095 C 469.974 1.4778 0.602753 0
M  V30 5096 C 470.174 0.707047 1.88688 0
M  V30 5097 O 469.23 0.233288 2.5142 0
M  V30 5098 C 470.543 2.92133 0.712648 0
M  V30 5099 C 472.091 3.02458 0.805488 0
M  V30 5100 C 472.566 4.48102 0.947009 0
M  V30 5101 N 474.057 4.52008 1.01207 0
M  V30 5102 C 474.792 5.61939 1.1407 0
M  V30 5103 N 474.288 6.81697 1.23536 0
M  V30 5104 N 476.081 5.49719 1.17325 0
M  V30 5105 H 468.232 2.04085 -0.588463 0
M  V30 5106 H 470.495 0.926229 -0.202001 0
M  V30 5107 H 470.201 3.51332 -0.160766 0
M  V30 5108 H 470.075 3.42187 1.58707 0
M  V30 5109 H 472.462 2.43344 1.66936 0
M  V30 5110 H 472.543 2.55627 -0.0939266 0
M  V30 5111 H 472.187 5.07824 0.087725 0
M  V30 5112 H 472.117 4.92607 1.86135 0
M  V30 5113 H 474.608 3.65749 0.950577 0
M  V30 5114 H 474.921 7.61228 1.33236 0
M  V30 5115 H 473.266 6.84473 1.20508 0
M  V30 5116 H 476.457 4.55095 1.09573 0
M  V30 5117 H 476.63 6.35432 1.27005 0
M  V30 5118 N 470.036 -0.519951 1.48776 0
M  V30 5119 C 470.946 -1.65025 1.66745 0
M  V30 5120 C 471.962 -1.6508 0.549954 0
M  V30 5121 O 473.138 -1.83848 0.822295 0
M  V30 5122 C 470.203 -3.0146 1.71238 0
M  V30 5123 C 469.264 -3.12182 2.94688 0
M  V30 5124 C 468.497 -4.42109 2.98958 0
M  V30 5125 O 468.72 -5.29799 2.1135 0
M  V30 5126 O 467.654 -4.57406 3.91233 0
M  V30 5127 H 471.48 -1.52801 2.62461 0
M  V30 5128 H 469.065 -0.694157 1.32294 0
M  V30 5129 H 470.947 -3.82584 1.76657 0
M  V30 5130 H 469.622 -3.13988 0.786975 0
M  V30 5131 H 468.529 -2.30316 2.94797 0
M  V30 5132 H 469.862 -3.04574 3.86646 0
M  V30 5133 N 471.514 -1.37532 -0.769588 0
M  V30 5134 C 472.76 -1.33057 -1.53048 0
M  V30 5135 C 473.093 0.0841865 -1.94017 0
M  V30 5136 O 472.368 1.04198 -1.64235 0
M  V30 5137 C 472.651 -2.27166 -2.79406 0
M  V30 5138 C 472.504 -3.77429 -2.44677 0
M  V30 5139 C 473.823 -2.19683 -3.81349 0
M  V30 5140 H 470.942 -0.484655 -0.555228 0
M  V30 5141 H 473.584 -1.68251 -0.882702 0
M  V30 5142 H 471.734 -1.97283 -3.34682 0
M  V30 5143 H 473.406 -4.17918 -1.953 0
M  V30 5144 H 471.649 -3.95892 -1.77346 0
M  V30 5145 H 472.32 -4.38716 -3.35011 0
M  V30 5146 H 474.796 -2.46029 -3.35573 0
M  V30 5147 H 473.672 -2.87668 -4.67481 0
M  V30 5148 H 473.933 -1.19045 -4.25771 0
M  V30 5149 N 472.992 0.995999 -1.22138 0
M  V30 5150 C 474.238 1.73767 -1.04561 0
M  V30 5151 C 474.571 1.89633 0.418698 0
M  V30 5152 O 473.846 1.43723 1.3105 0
M  V30 5153 C 474.129 3.14505 -1.75382 0
M  V30 5154 C 473.982 3.06306 -3.29388 0
M  V30 5155 C 475.301 4.13615 -1.50369 0
M  V30 5156 H 472.42 0.630728 -0.38125 0
M  V30 5157 H 475.062 1.16057 -1.50435 0
M  V30 5158 H 473.212 3.63775 -1.36383 0
M  V30 5159 H 474.884 2.64681 -3.77812 0
M  V30 5160 H 473.127 2.43186 -3.59226 0
M  V30 5161 H 473.798 4.05884 -3.74116 0
M  V30 5162 H 476.274 3.73089 -1.84239 0
M  V30 5163 H 475.15 5.10212 -2.02421 0
M  V30 5164 H 475.411 4.39949 -0.435611 0
M  V30 5165 N 474.47 1.03057 1.19235 0
M  V30 5166 C 475.417 0.612832 2.22515 0
M  V30 5167 C 476.387 -0.374224 1.61829 0
M  V30 5168 O 477.572 -0.270501 1.88873 0
M  V30 5169 C 474.712 -0.028475 3.45088 0
M  V30 5170 C 473.825 1.00483 4.20151 0
M  V30 5171 C 472.96 0.333102 5.30155 0
M  V30 5172 C 471.999 1.3522 5.96977 0
M  V30 5173 N 471.136 0.70616 6.9854 0
M  V30 5174 H 475.976 1.49812 2.57605 0
M  V30 5175 H 473.513 0.749658 1.26564 0
M  V30 5176 H 475.471 -0.417548 4.15105 0
M  V30 5177 H 474.101 -0.877334 3.10649 0
M  V30 5178 H 473.153 1.51194 3.49062 0
M  V30 5179 H 474.465 1.77929 4.65986 0
M  V30 5180 H 473.619 -0.110725 6.06599 0
M  V30 5181 H 472.358 -0.473547 4.85396 0
M  V30 5182 H 471.363 1.80627 5.19282 0
M  V30 5183 H 472.588 2.16037 6.4382 0
M  V30 5184 H 470.534 -0.0803667 6.55951 0
M  V30 5185 H 470.451 1.41848 7.42573 0
M  V30 5186 H 471.719 0.286391 7.78974 0
M  V30 5187 N 475.948 -1.35272 0.808662 0
M  V30 5188 C 477.194 -1.99003 0.390581 0
M  V30 5189 C 477.527 -1.63999 -1.0401 0
M  V30 5190 O 476.802 -0.904368 -1.72196 0
M  V30 5191 C 477.085 -3.55454 0.576566 0
M  V30 5192 C 476.938 -4.00249 2.05233 0
M  V30 5193 C 478.257 -4.401 0.00354277 0
M  V30 5194 H 475.376 -0.722917 0.143388 0
M  V30 5195 H 478.018 -1.6039 1.01858 0
M  V30 5196 H 476.168 -3.88477 0.0419766 0
M  V30 5197 H 477.84 -3.77626 2.64946 0
M  V30 5198 H 476.083 -3.51082 2.54801 0
M  V30 5199 H 476.754 -5.0911 2.13333 0
M  V30 5200 H 479.23 -4.13548 0.460117 0
M  V30 5201 H 478.106 -5.48656 0.163575 0
M  V30 5202 H 478.367 -4.28444 -1.09032 0
M  V30 5203 N 477.426 -0.562348 -1.47226 0
M  V30 5204 C 478.651 -0.0432632 -2.07355 0
M  V30 5205 C 479.076 1.24332 -1.41149 0
M  V30 5206 O 478.434 1.74603 -0.488226 0
M  V30 5207 C 478.482 0.130288 -3.60365 0
M  V30 5208 O 477.586 1.19166 -3.94808 0
M  V30 5209 H 476.927 -0.0536334 -0.66183 0
M  V30 5210 H 479.457 -0.779495 -1.89169 0
M  V30 5211 H 479.467 0.342881 -4.06557 0
M  V30 5212 H 478.142 -0.809389 -4.07948 0
M  V30 5213 H 476.719 0.959153 -3.60354 0
M  V30 5214 N 478.904 1.54736 -0.299062 0
M  V30 5215 C 479.837 2.1962 0.619851 0
M  V30 5216 C 480.815 1.16496 1.13434 0
M  V30 5217 O 481.999 1.4513 1.2029 0
M  V30 5218 C 479.126 2.8385 1.84788 0
M  V30 5219 C 478.172 4.00484 1.46679 0
M  V30 5220 S 479.005 5.32926 0.524389 0
M  V30 5221 C 480.161 6.00638 1.76026 0
M  V30 5222 H 480.394 2.97221 0.0686177 0
M  V30 5223 H 477.927 1.54176 -0.0832085 0
M  V30 5224 H 479.885 3.21483 2.55263 0
M  V30 5225 H 478.546 2.06099 2.37028 0
M  V30 5226 H 477.739 4.44201 2.38121 0
M  V30 5227 H 477.341 3.64398 0.842008 0
M  V30 5228 H 479.633 6.21327 2.70109 0
M  V30 5229 H 480.576 6.94805 1.36569 0
M  V30 5230 H 480.984 5.3026 1.93609 0
M  V30 5231 N 480.382 0.0267497 1.57577 0
M  V30 5232 C 481.315 -0.99059 2.05579 0
M  V30 5233 C 482.293 -1.31884 0.951065 0
M  V30 5234 O 483.477 -1.43592 1.22121 0
M  V30 5235 C 480.604 -2.31125 2.47586 0
M  V30 5236 C 479.65 -2.13777 3.69055 0
M  V30 5237 S 480.483 -1.4388 5.15809 0
M  V30 5238 C 481.639 -2.77321 5.6111 0
M  V30 5239 H 481.872 -0.581976 2.91548 0
M  V30 5240 H 479.405 -0.184876 1.53289 0
M  V30 5241 H 481.363 -3.07049 2.72454 0
M  V30 5242 H 480.024 -2.6912 1.61967 0
M  V30 5243 H 479.217 -3.11405 3.96287 0
M  V30 5244 H 478.819 -1.45996 3.44327 0
M  V30 5245 H 481.111 -3.73565 5.65204 0
M  V30 5246 H 482.054 -2.54756 6.60685 0
M  V30 5247 H 482.462 -2.82459 4.88751 0
M  V30 5248 N 481.861 -1.55662 -0.24637 0
M  V30 5249 C 482.793 -1.86811 -1.32794 0
M  V30 5250 C 483.806 -0.754413 -1.44265 0
M  V30 5251 O 484.995 -1.03253 -1.45606 0
M  V30 5252 C 482.095 -2.0397 -2.70646 0
M  V30 5253 C 481.268 -3.34832 -2.81436 0
M  V30 5254 C 480.327 -3.41727 -4.00136 0
M  V30 5255 O 479.353 -4.14934 -3.89639 0
M  V30 5256 N 480.555 -2.71058 -5.1333 0
M  V30 5257 H 483.32 -2.80174 -1.06409 0
M  V30 5258 H 480.881 -1.55906 -0.43647 0
M  V30 5259 H 482.873 -2.05924 -3.48393 0
M  V30 5260 H 481.443 -1.1735 -2.89738 0
M  V30 5261 H 480.663 -3.4519 -1.90361 0
M  V30 5262 H 481.951 -4.21085 -2.85595 0
M  V30 5263 H 481.349 -2.11314 -5.2475 0
M  V30 5264 H 479.906 -2.78704 -5.89209 0
M  V30 5265 N 483.339 0.512053 -1.4905 0
M  V30 5266 C 484.567 1.29116 -1.61669 0
M  V30 5267 C 484.982 1.86655 -0.283787 0
M  V30 5268 O 484.339 1.67293 0.729331 0
M  V30 5269 C 484.39 2.4293 -2.67707 0
M  V30 5270 O 484.111 1.87758 -3.95826 0
M  V30 5271 C 485.612 3.34476 -2.90931 0
M  V30 5272 H 482.832 0.392009 -0.544583 0
M  V30 5273 H 485.376 0.615881 -1.95006 0
M  V30 5274 H 483.531 3.06308 -2.37179 0
M  V30 5275 H 483.945 2.62393 -4.54148 0
M  V30 5276 H 485.419 4.10642 -3.68886 0
M  V30 5277 H 485.896 3.90801 -2.00427 0
M  V30 5278 H 486.502 2.76874 -3.22832 0
M  V30 5279 N 484.817 1.37938 0.762283 0
M  V30 5280 C 485.764 1.34467 1.87583 0
M  V30 5281 C 486.734 0.208633 1.64785 0
M  V30 5282 O 487.919 0.399494 1.86571 0
M  V30 5283 C 485.059 1.16692 3.24772 0
M  V30 5284 C 484.172 2.39608 3.59461 0
M  V30 5285 C 483.307 2.14631 4.85908 0
M  V30 5286 C 482.346 3.33364 5.13357 0
M  V30 5287 N 481.483 3.07877 6.30996 0
M  V30 5288 H 486.323 2.29669 1.89885 0
M  V30 5289 H 483.86 1.14116 0.928219 0
M  V30 5290 H 485.818 1.04405 4.03925 0
M  V30 5291 H 484.448 0.251333 3.2182 0
M  V30 5292 H 483.5 2.626 2.75219 0
M  V30 5293 H 484.812 3.28128 3.75678 0
M  V30 5294 H 483.966 1.99429 5.72986 0
M  V30 5295 H 482.705 1.23463 4.71814 0
M  V30 5296 H 481.71 3.49094 4.24751 0
M  V30 5297 H 482.935 4.25395 5.29354 0
M  V30 5298 H 480.881 2.19348 6.18241 0
M  V30 5299 H 480.798 3.89944 6.47673 0
M  V30 5300 H 482.066 2.96313 7.20985 0
M  V30 5301 N 486.295 -0.989507 1.22664 0
M  V30 5302 C 487.543 -1.72612 1.05117 0
M  V30 5303 C 487.864 -1.90552 -0.414131 0
M  V30 5304 O 487.134 -1.4676 -1.29762 0
M  V30 5305 H 485.714 -0.639555 0.385977 0
M  V30 5306 H 488.376 -1.19158 1.54232 0
M  V30 5307 H 487.472 -2.71926 1.53175 0
M  V30 5308 N 487.773 -1.03688 -1.18687 0
M  V30 5309 C 488.721 -0.618292 -2.24232 0
M  V30 5310 C 489.715 0.353045 -1.6568 0
M  V30 5311 O 490.921 0.220749 -1.78641 0
M  V30 5312 H 487.296 -0.181711 -0.729716 0
M  V30 5313 H 489.267 -1.51893 -2.56848 0
M  V30 5314 C 488.016 0.00677342 -3.47699 0
M  V30 5315 H 487.339 -0.731692 -3.93047 0
M  V30 5316 H 488.779 0.262492 -4.23187 0
M  V30 5317 C 487.238 1.25572 -3.12623 0
M  V30 5318 O 487.768 2.34691 -3.26011 0
M  V30 5319 N 485.974 1.14755 -2.66982 0
M  V30 5320 H 485.521 0.259601 -2.56289 0
M  V30 5321 H 485.479 1.98412 -2.43885 0
M  V30 5322 N 489.251 1.34841 -0.815825 0
M  V30 5323 C 490.498 1.98499 -0.400535 0
M  V30 5324 C 490.826 1.64699 1.03463 0
M  V30 5325 O 490.081 0.907006 1.73412 0
M  V30 5326 C 490.38 3.53273 -0.541541 0
M  V30 5327 C 490.046 4.06966 -1.94138 0
M  V30 5328 C 488.708 4.21341 -2.32433 0
M  V30 5329 C 491.06 4.35933 -2.85677 0
M  V30 5330 C 488.388 4.62007 -3.61617 0
M  V30 5331 C 490.74 4.78042 -4.14317 0
M  V30 5332 C 489.404 4.90622 -4.52599 0
M  V30 5333 H 488.674 0.72636 -0.146566 0
M  V30 5334 H 491.321 1.60902 -1.0384 0
M  V30 5335 H 489.626 3.91387 0.179741 0
M  V30 5336 H 491.323 4.00497 -0.20085 0
M  V30 5337 H 487.913 3.96235 -1.63388 0
M  V30 5338 H 492.097 4.24372 -2.57337 0
M  V30 5339 H 487.353 4.69937 -3.91113 0
M  V30 5340 H 491.527 4.99415 -4.85342 0
M  V30 5341 H 489.154 5.2189 -5.52752 0
M  V30 5342 N 490.729 0.570148 1.46925 0
M  V30 5343 C 491.659 -0.158274 2.32963 0
M  V30 5344 C 492.64 -0.896093 1.44583 0
M  V30 5345 O 493.825 -0.874022 1.7342 0
M  V30 5346 C 490.955 -1.18055 3.26619 0
M  V30 5347 C 489.909 -0.558379 4.24342 0
M  V30 5348 C 489.235 -1.68623 5.07415 0
M  V30 5349 C 490.535 0.496295 5.19937 0
M  V30 5350 H 492.229 0.560046 2.94115 0
M  V30 5351 H 489.775 0.270775 1.41431 0
M  V30 5352 H 491.728 -1.69841 3.85658 0
M  V30 5353 H 490.452 -1.92899 2.63548 0
M  V30 5354 H 489.111 -0.0617157 3.66548 0
M  V30 5355 H 488.759 -2.42402 4.40738 0
M  V30 5356 H 488.459 -1.27564 5.73586 0
M  V30 5357 H 489.983 -2.20709 5.69315 0
M  V30 5358 H 491.397 0.0640052 5.73264 0
M  V30 5359 H 489.794 0.82649 5.94381 0
M  V30 5360 H 490.864 1.38735 4.6463 0
M  V30 5361 N 492.207 -1.54576 0.307264 0
M  V30 5362 C 493.17 -2.22423 -0.553224 0
M  V30 5363 C 494.17 -1.21231 -1.05639 0
M  V30 5364 O 495.36 -1.45923 -0.951419 0
M  V30 5365 C 492.492 -2.91552 -1.76664 0
M  V30 5366 H 493.685 -2.99874 0.0396484 0
M  V30 5367 H 491.238 -1.56192 0.0581629 0
M  V30 5368 H 491.973 -2.18196 -2.39918 0
M  V30 5369 H 491.758 -3.65738 -1.41343 0
M  V30 5370 H 493.248 -3.43292 -2.37783 0
M  V30 5371 N 493.685 -0.035106 -1.57561 0
M  V30 5372 C 494.648 0.929819 -2.09492 0
M  V30 5373 C 495.648 1.25026 -1.01119 0
M  V30 5374 O 496.838 1.18961 -1.27255 0
M  V30 5375 C 493.97 2.24457 -2.56577 0
M  V30 5376 H 495.163 0.479935 -2.96035 0
M  V30 5377 H 492.716 0.213033 -1.54841 0
M  V30 5378 H 493.451 2.74061 -1.73382 0
M  V30 5379 H 493.236 2.02508 -3.35757 0
M  V30 5380 H 494.726 2.93607 -2.96959 0
M  V30 5381 N 495.163 1.55791 0.238111 0
M  V30 5382 C 496.111 1.91885 1.31464 0
M  V30 5383 C 497.105 0.798929 1.49377 0
M  V30 5384 O 498.311 0.983626 1.50747 0
M  V30 5385 H 494.686 0.609551 0.440399 0
M  V30 5386 H 496.657 2.81747 0.982925 0
M  V30 5387 C 495.406 2.23763 2.6613 0
M  V30 5388 H 494.729 3.09444 2.53149 0
M  V30 5389 H 496.169 2.52915 3.40309 0
M  V30 5390 C 494.628 1.05699 3.1989 0
M  V30 5391 O 495.158 0.309524 4.00506 0
M  V30 5392 N 493.364 0.845251 2.78036 0
M  V30 5393 H 492.911 1.4548 2.12588 0
M  V30 5394 H 492.869 0.0569973 3.14348 0
M  V30 5395 N 496.642 -0.504142 1.49319 0
M  V30 5396 C 497.919 -1.26548 1.49147 0
M  V30 5397 C 498.299 -2.09977 0.21744 0
M  V30 5398 O 497.647 -2.14028 -0.800269 0
M  V30 5399 C 497.857 -2.12489 2.76857 0
M  V30 5400 C 499.205 -2.7178 3.26222 0
M  V30 5401 O 500.229 -2.22758 2.77952 0
M  V30 5402 O 499.088 -3.61015 4.10281 0
M  V30 5403 H 496.182 -0.572495 0.596806 0
M  V30 5404 H 498.728 -0.51867 1.61579 0
M  V30 5405 H 497.5 -1.50796 3.61077 0
M  V30 5406 H 497.123 -2.94368 2.6727 0
M  V30 5407 N 498.12 -1.38341 -0.754957 0
M  V30 5408 C 499.052 -1.31347 -1.87831 0
M  V30 5409 C 500.065 -0.225955 -1.61224 0
M  V30 5410 O 501.254 -0.48341 -1.7183 0
M  V30 5411 C 498.354 -1.01201 -3.23437 0
M  V30 5412 C 497.527 -2.20834 -3.77559 0
M  V30 5413 C 496.586 -1.87454 -4.91678 0
M  V30 5414 O 495.612 -2.59934 -5.06382 0
M  V30 5415 N 496.814 -0.828682 -5.74555 0
M  V30 5416 H 499.579 -2.28147 -1.94342 0
M  V30 5417 H 497.14 -1.32184 -0.934828 0
M  V30 5418 H 499.132 -0.769249 -3.97322 0
M  V30 5419 H 497.702 -0.132011 -3.12321 0
M  V30 5420 H 496.922 -2.61184 -2.95256 0
M  V30 5421 H 498.21 -3.00678 -4.10451 0
M  V30 5422 H 497.608 -0.227591 -5.65242 0
M  V30 5423 H 496.165 -0.645802 -6.48593 0
M  V30 5424 N 499.598 0.982988 -1.23187 0
M  V30 5425 C 500.508 2.10907 -1.02739 0
M  V30 5426 C 501.524 1.73979 0.0273188 0
M  V30 5427 O 502.7 2.00702 -0.16757 0
M  V30 5428 C 499.765 3.41142 -0.618304 0
M  V30 5429 C 498.826 3.92112 -1.74777 0
M  V30 5430 C 498.059 5.16131 -1.3581 0
M  V30 5431 O 498.282 5.6989 -0.241201 0
M  V30 5432 O 497.216 5.61103 -2.17824 0
M  V30 5433 H 501.042 2.31046 -1.97108 0
M  V30 5434 H 498.627 1.09284 -1.01869 0
M  V30 5435 H 500.509 4.19488 -0.400982 0
M  V30 5436 H 499.184 3.2234 0.296421 0
M  V30 5437 H 498.091 3.14895 -2.0197 0
M  V30 5438 H 499.424 4.15364 -2.64071 0
M  V30 5439 N 501.076 1.04316 1.18135 0
M  V30 5440 C 502.006 0.657299 2.24058 0
M  V30 5441 C 502.987 -0.340678 1.66654 0
M  V30 5442 O 504.172 -0.220223 1.92947 0
M  V30 5443 C 501.302 0.0220715 3.47293 0
M  V30 5444 C 500.256 0.943857 4.17463 0
M  V30 5445 C 499.582 0.172973 5.3442 0
M  V30 5446 C 500.882 2.26409 4.70677 0
M  V30 5447 H 502.576 1.5428 2.56589 0
M  V30 5448 H 500.122 0.743263 1.23335 0
M  V30 5449 H 502.075 -0.259607 4.206 0
M  V30 5450 H 500.799 -0.898323 3.14003 0
M  V30 5451 H 499.458 1.20996 3.46057 0
M  V30 5452 H 499.106 -0.749907 4.97379 0
M  V30 5453 H 498.806 0.787098 5.82304 0
M  V30 5454 H 500.33 -0.101628 6.10515 0
M  V30 5455 H 501.744 2.04294 5.35665 0
M  V30 5456 H 500.141 2.8314 5.29105 0
M  V30 5457 H 501.211 2.90883 3.87962 0
M  V30 5458 N 502.554 -1.34406 0.822964 0
M  V30 5459 C 503.831 -1.92733 0.333641 0
M  V30 5460 C 504.211 -1.75107 -1.17901 0
M  V30 5461 O 503.559 -1.12983 -1.98613 0
M  V30 5462 C 503.769 -3.40557 0.763023 0
M  V30 5463 C 505.117 -4.17709 0.761879 0
M  V30 5464 O 506.141 -3.49141 0.705606 0
M  V30 5465 O 505 -5.40082 0.835109 0
M  V30 5466 H 502.094 -0.821964 0.0911249 0
M  V30 5467 H 504.64 -1.4338 0.907757 0
M  V30 5468 H 503.412 -3.47187 1.8049 0
M  V30 5469 H 503.035 -3.97259 0.164605 0
M  V30 5470 N 504.032 -0.577932 -1.46621 0
M  V30 5471 C 505.272 -0.0643097 -2.04299 0
M  V30 5472 C 505.636 1.26967 -1.44026 0
M  V30 5473 O 506.837 1.87224 -1.92875 0
M  V30 5474 C 505.108 0.00547588 -3.574 0
M  V30 5475 S 506.667 0.462216 -4.36359 0
M  V30 5476 H 503.485 -0.0351573 -0.71013 0
M  V30 5477 H 506.087 -0.76935 -1.79725 0
M  V30 5478 H 504.791 -0.969423 -3.98786 0
M  V30 5479 H 504.322 0.733435 -3.86503 0
M  V30 5480 H 506.337 1.71791 -4.65513 0
M  V30 5481 N 505.51 1.54411 -0.315457 0
M  V30 5482 C 506.787 1.92562 0.343398 0
M  V30 5483 C 507.167 1.24423 1.70535 0
M  V30 5484 O 506.515 0.385051 2.25232 0
M  V30 5485 C 506.725 3.46168 0.443687 0
M  V30 5486 C 508.073 4.18659 0.707783 0
M  V30 5487 O 509.097 3.52281 0.52693 0
M  V30 5488 O 507.956 5.36198 1.05612 0
M  V30 5489 H 505.05 0.80379 0.194552 0
M  V30 5490 H 507.596 1.65738 -0.364577 0
M  V30 5491 H 506.368 3.8792 -0.513172 0
M  V30 5492 H 505.991 3.79073 1.19956 0
M  V30 5493 N 506.988 0.0434614 1.5754 0
M  V30 5494 C 508.237 -0.631454 1.91561 0
M  V30 5495 C 508.55 -1.72457 0.92292 0
M  V30 5496 O 509.756 -2.45712 1.15489 0
M  V30 5497 C 508.212 -1.17447 3.40197 0
M  V30 5498 C 507.82 -0.113867 4.47855 0
M  V30 5499 C 509.564 -1.82507 3.83264 0
M  V30 5500 C 507.471 -0.669326 5.876 0
M  V30 5501 H 506.401 -0.239629 0.714908 0
M  V30 5502 H 509.052 0.111097 1.83163 0
M  V30 5503 H 507.434 -1.96909 3.43574 0
M  V30 5504 H 508.608 0.659348 4.56058 0
M  V30 5505 H 506.923 0.438821 4.14081 0
M  V30 5506 H 509.52 -2.25047 4.85034 0
M  V30 5507 H 509.863 -2.67365 3.19095 0
M  V30 5508 H 510.396 -1.09712 3.82372 0
M  V30 5509 H 507.135 0.141449 6.55347 0
M  V30 5510 H 506.655 -1.4107 5.82974 0
M  V30 5511 H 508.334 -1.15463 6.36614 0
M  V30 5512 N 508.466 -1.55915 -0.229846 0
M  V30 5513 C 509.396 -1.94754 -1.28815 0
M  V30 5514 C 510.377 -0.814657 -1.49323 0
M  V30 5515 O 511.562 -1.07631 -1.61645 0
M  V30 5516 C 508.692 -2.25705 -2.63959 0
M  V30 5517 C 507.646 -3.41406 -2.5812 0
M  V30 5518 C 506.972 -3.57941 -3.97218 0
M  V30 5519 C 508.272 -4.76616 -2.13623 0
M  V30 5520 H 509.966 -2.83404 -0.965547 0
M  V30 5521 H 507.512 -1.36353 -0.463028 0
M  V30 5522 H 509.465 -2.51467 -3.38146 0
M  V30 5523 H 508.189 -1.339 -2.9789 0
M  V30 5524 H 506.848 -3.1568 -1.86391 0
M  V30 5525 H 506.496 -2.63526 -4.28443 0
M  V30 5526 H 506.196 -4.35757 -3.94195 0
M  V30 5527 H 507.72 -3.86042 -4.73079 0
M  V30 5528 H 509.134 -5.01637 -2.77549 0
M  V30 5529 H 507.531 -5.57655 -2.21677 0
M  V30 5530 H 508.601 -4.7253 -1.08829 0
M  V30 5531 N 509.944 0.496216 -1.49584 0
M  V30 5532 C 510.876 1.61404 -1.62731 0
M  V30 5533 C 511.889 1.54613 -0.50978 0
M  V30 5534 O 513.078 1.60458 -0.782017 0
M  V30 5535 C 510.178 3.00212 -1.57245 0
M  V30 5536 C 509.351 3.32138 -2.84611 0
M  V30 5537 C 508.41 4.5038 -2.72112 0
M  V30 5538 O 507.436 4.51926 -3.46051 0
M  V30 5539 N 508.638 5.50575 -1.83977 0
M  V30 5540 H 511.403 1.50552 -2.59141 0
M  V30 5541 H 508.964 0.684182 -1.46733 0
M  V30 5542 H 510.956 3.77241 -1.4653 0
M  V30 5543 H 509.526 3.04964 -0.686729 0
M  V30 5544 H 508.746 2.4396 -3.09641 0
M  V30 5545 H 510.034 3.50268 -3.69039 0
M  V30 5546 H 509.432 5.52128 -1.23171 0
M  V30 5547 H 507.989 6.26687 -1.79182 0
M  V30 5548 N 511.423 1.38739 0.74761 0
M  V30 5549 C 512.353 1.39173 1.87492 0
M  V30 5550 C 513.334 0.256794 1.6815 0
M  V30 5551 O 514.519 0.460762 1.88655 0
M  V30 5552 C 511.649 1.22197 3.25093 0
M  V30 5553 C 510.603 2.32957 3.59047 0
M  V30 5554 C 509.929 2.01082 4.95449 0
M  V30 5555 C 511.229 3.75237 3.6331 0
M  V30 5556 H 512.923 2.3351 1.87386 0
M  V30 5557 H 510.469 1.12399 0.900134 0
M  V30 5558 H 512.422 1.21124 4.03617 0
M  V30 5559 H 511.146 0.243241 3.25693 0
M  V30 5560 H 509.805 2.33226 2.82845 0
M  V30 5561 H 509.453 1.01678 4.92616 0
M  V30 5562 H 509.153 2.75267 5.19136 0
M  V30 5563 H 510.677 2.01638 5.76346 0
M  V30 5564 H 512.091 3.76966 4.31937 0
M  V30 5565 H 510.488 4.48677 3.98509 0
M  V30 5566 H 511.558 4.07122 2.634 0
M  V30 5567 N 512.901 -0.976442 1.23707 0
M  V30 5568 C 513.811 -2.10359 1.03856 0
M  V30 5569 C 514.827 -1.73991 -0.0180919 0
M  V30 5570 O 516.003 -2.0061 0.178211 0
M  V30 5571 C 513.068 -3.40809 0.636387 0
M  V30 5572 C 512.129 -3.91179 1.76854 0
M  V30 5573 C 511.362 -5.15404 1.38546 0
M  V30 5574 O 511.585 -5.69754 0.27142 0
M  V30 5575 O 510.519 -5.5994 2.20797 0
M  V30 5576 H 514.345 -2.29997 1.98331 0
M  V30 5577 H 511.93 -1.08742 1.02448 0
M  V30 5578 H 513.812 -4.19269 0.423223 0
M  V30 5579 H 512.487 -3.22493 -0.279322 0
M  V30 5580 H 511.394 -3.13819 2.03638 0
M  V30 5581 H 512.727 -4.13958 2.6627 0
M  V30 5582 N 514.379 -1.04941 -1.1758 0
M  V30 5583 C 515.609 -0.777166 -1.91425 0
M  V30 5584 C 516.017 0.670647 -1.76915 0
M  V30 5585 O 515.36 1.46965 -1.10213 0
M  V30 5586 C 515.422 -1.07495 -3.43052 0
M  V30 5587 C 515.086 -2.51844 -3.81345 0
M  V30 5588 C 516.083 -3.50047 -3.844 0
M  V30 5589 C 513.768 -2.86787 -4.12382 0
M  V30 5590 C 515.762 -4.81239 -4.17957 0
M  V30 5591 C 513.449 -4.18182 -4.45608 0
M  V30 5592 C 514.447 -5.15219 -4.48373 0
M  V30 5593 O 514.135 -6.44258 -4.80819 0
M  V30 5594 H 513.867 -0.282209 -0.614275 0
M  V30 5595 H 516.421 -1.40258 -1.50056 0
M  V30 5596 H 514.651 -0.392437 -3.84704 0
M  V30 5597 H 516.34 -0.78912 -3.98155 0
M  V30 5598 H 517.106 -3.24391 -3.60548 0
M  V30 5599 H 512.985 -2.11922 -4.09402 0
M  V30 5600 H 516.529 -5.56974 -4.2003 0
M  V30 5601 H 512.426 -4.43602 -4.68922 0
M  V30 5602 H 513.194 -6.49041 -4.98686 0
M  V30 5603 N 515.857 1.33968 -0.830081 0
M  V30 5604 C 517.103 1.98357 -0.422191 0
M  V30 5605 C 517.436 1.65633 1.01387 0
M  V30 5606 O 516.711 0.931648 1.70735 0
M  V30 5607 C 516.994 3.54492 -0.633043 0
M  V30 5608 C 516.847 3.96934 -2.11574 0
M  V30 5609 C 518.166 4.40039 -0.0735584 0
M  V30 5610 H 515.285 0.720544 -0.154871 0
M  V30 5611 H 517.927 1.58749 -1.04397 0
M  V30 5612 H 516.077 3.88361 -0.103775 0
M  V30 5613 H 517.749 3.73363 -2.7092 0
M  V30 5614 H 515.992 3.46984 -2.60354 0
M  V30 5615 H 516.663 5.05651 -2.21406 0
M  V30 5616 H 519.139 4.12764 -0.52585 0
M  V30 5617 H 518.015 5.48327 -0.250841 0
M  V30 5618 H 518.276 4.30124 1.02202 0
M  V30 5619 N 517.335 0.585699 1.46312 0
M  V30 5620 C 518.583 0.072278 2.01971 0
M  V30 5621 C 518.904 -1.29345 1.45928 0
M  V30 5622 O 518.174 -1.84973 0.645109 0
M  V30 5623 H 516.754 0.023729 0.746623 0
M  V30 5624 H 519.416 0.762155 1.7938 0
M  V30 5625 H 518.512 0.00552767 3.121 0
M  V30 5626 N 518.813 -1.54241 0.323641 0
M  V30 5627 C 520.061 -2.00174 -0.278359 0
M  V30 5628 C 520.382 -1.2134 -1.52648 0
M  V30 5629 O 519.652 -0.315244 -1.93347 0
M  V30 5630 H 518.232 -0.739463 -0.105845 0
M  V30 5631 H 520.894 -1.89864 0.440204 0
M  V30 5632 H 519.99 -3.07486 -0.5347 0
M  V30 5633 N 520.291 -0.0518155 -1.57515 0
M  V30 5634 C 521.54 0.621286 -1.91893 0
M  V30 5635 C 521.853 1.71966 -0.932052 0
M  V30 5636 O 523.059 2.45096 -1.16791 0
M  V30 5637 C 521.515 1.15641 -3.40816 0
M  V30 5638 C 521.123 0.0901146 -4.47909 0
M  V30 5639 C 522.867 1.80472 -3.84227 0
M  V30 5640 C 520.774 0.638154 -5.87947 0
M  V30 5641 H 519.704 0.235835 -0.716169 0
M  V30 5642 H 522.355 -0.120809 -1.83102 0
M  V30 5643 H 520.737 1.95084 -3.44613 0
M  V30 5644 H 521.911 -0.683525 -4.55702 0
M  V30 5645 H 520.226 -0.460774 -4.13843 0
M  V30 5646 H 522.823 2.22471 -4.86221 0
M  V30 5647 H 523.166 2.65669 -3.20508 0
M  V30 5648 H 523.699 1.07683 -3.82948 0
M  V30 5649 H 520.438 -0.176202 -6.55263 0
M  V30 5650 H 519.958 1.37976 -5.83714 0
M  V30 5651 H 521.637 1.12085 -6.37217 0
M  V30 5652 N 521.769 1.56035 0.221574 0
M  V30 5653 C 522.994 1.83476 0.967026 0
M  V30 5654 C 523.419 0.632139 1.7716 0
M  V30 5655 O 522.777 -0.419082 1.7639 0
M  V30 5656 C 522.825 3.08907 1.86034 0
M  V30 5657 O 521.929 2.876 2.95567 0
M  V30 5658 H 521.27 0.604913 0.273817 0
M  V30 5659 H 523.8 2.03247 0.234893 0
M  V30 5660 H 523.81 3.3901 2.27016 0
M  V30 5661 H 522.485 3.96068 1.26898 0
M  V30 5662 H 521.062 2.6873 2.58532 0
M  V30 5663 N 523.247 -0.488276 1.49845 0
M  V30 5664 C 524.18 -1.60651 1.62069 0
M  V30 5665 C 525.158 -1.5568 0.469308 0
M  V30 5666 O 526.342 -1.75553 0.686551 0
M  V30 5667 C 523.469 -2.99197 1.58741 0
M  V30 5668 C 522.515 -3.22385 2.79232 0
M  V30 5669 S 523.348 -3.04133 4.40753 0
M  V30 5670 C 524.504 -4.45052 4.4009 0
M  V30 5671 H 524.737 -1.50039 2.56662 0
M  V30 5672 H 522.27 -0.674371 1.38894 0
M  V30 5673 H 524.228 -3.79081 1.57506 0
M  V30 5674 H 522.889 -3.07213 0.654136 0
M  V30 5675 H 522.082 -4.23557 2.73159 0
M  V30 5676 H 521.684 -2.50245 2.77945 0
M  V30 5677 H 523.976 -5.37375 4.12594 0
M  V30 5678 H 524.919 -4.56172 5.41583 0
M  V30 5679 H 525.327 -4.26327 3.70008 0
M  V30 5680 N 524.725 -1.39134 -0.740242 0
M  V30 5681 C 525.655 -1.40165 -1.86751 0
M  V30 5682 C 526.636 -0.265708 -1.68012 0
M  V30 5683 O 527.821 -0.47076 -1.88408 0
M  V30 5684 C 524.951 -1.2392 -3.2444 0
M  V30 5685 C 523.905 -2.34858 -3.57807 0
M  V30 5686 C 523.231 -2.03707 -4.94376 0
M  V30 5687 C 524.531 -3.77159 -3.61315 0
M  V30 5688 H 526.225 -2.345 -1.86145 0
M  V30 5689 H 523.771 -1.12875 -0.89416 0
M  V30 5690 H 525.724 -1.23263 -4.02969 0
M  V30 5691 H 524.448 -0.26051 -3.25559 0
M  V30 5692 H 523.107 -2.34723 -2.81604 0
M  V30 5693 H 522.755 -1.04289 -4.9207 0
M  V30 5694 H 522.455 -2.78016 -5.17669 0
M  V30 5695 H 523.979 -2.04691 -5.75268 0
M  V30 5696 H 525.393 -3.79252 -4.29931 0
M  V30 5697 H 523.79 -4.50784 -3.96124 0
M  V30 5698 H 524.86 -4.08513 -2.61238 0
M  V30 5699 N 526.204 0.969867 -1.24223 0
M  V30 5700 C 527.453 1.70687 -1.07466 0
M  V30 5701 C 527.766 1.91736 0.386861 0
M  V30 5702 O 528.972 2.62986 0.674581 0
M  V30 5703 C 527.428 3.07217 -1.87472 0
M  V30 5704 C 527.036 2.94018 -3.3802 0
M  V30 5705 C 528.78 3.84804 -1.79237 0
M  V30 5706 C 526.687 4.25844 -4.10379 0
M  V30 5707 H 525.617 0.640067 -0.398536 0
M  V30 5708 H 528.268 1.08092 -1.48285 0
M  V30 5709 H 526.65 3.70628 -1.39466 0
M  V30 5710 H 527.824 2.39632 -3.9359 0
M  V30 5711 H 526.139 2.29898 -3.47183 0
M  V30 5712 H 528.736 4.82417 -2.30603 0
M  V30 5713 H 529.079 4.09356 -0.757197 0
M  V30 5714 H 529.612 3.28115 -2.24912 0
M  V30 5715 H 526.351 4.06486 -5.14246 0
M  V30 5716 H 525.871 4.80054 -3.59594 0
M  V30 5717 H 527.55 4.94475 -4.17257 0
M  V30 5718 N 527.682 1.05563 1.17022 0
M  V30 5719 C 528.928 0.769074 1.87652 0
M  V30 5720 C 529.261 -0.702326 1.81055 0
M  V30 5721 O 528.536 -1.5139 1.22112 0
M  V30 5722 C 528.819 1.25492 3.37526 0
M  V30 5723 C 528.672 2.78953 3.52853 0
M  V30 5724 C 529.991 0.856919 4.31677 0
M  V30 5725 H 527.11 0.280854 0.681388 0
M  V30 5726 H 529.752 1.31027 1.37593 0
M  V30 5727 H 527.902 0.794516 3.80289 0
M  V30 5728 H 529.574 3.33146 3.19079 0
M  V30 5729 H 527.817 3.18046 2.95007 0
M  V30 5730 H 528.488 3.08011 4.58076 0
M  V30 5731 H 530.964 1.25334 3.96775 0
M  V30 5732 H 529.84 1.22443 5.35069 0
M  V30 5733 H 530.101 -0.238787 4.41455 0
M  V30 5734 N 529.16 -1.33526 0.837174 0
M  V30 5735 C 530.406 -1.9813 0.432704 0
M  V30 5736 C 530.739 -1.66168 -1.00508 0
M  V30 5737 O 530.014 -0.94069 -1.70239 0
M  V30 5738 C 530.297 -3.54151 0.651834 0
M  V30 5739 C 530.15 -3.95806 2.13676 0
M  V30 5740 C 531.469 -4.39993 0.0968937 0
M  V30 5741 H 528.588 -0.719713 0.15869 0
M  V30 5742 H 531.23 -1.58193 1.05237 0
M  V30 5743 H 529.38 -3.88301 0.124369 0
M  V30 5744 H 531.052 -3.71921 2.72896 0
M  V30 5745 H 529.295 -3.45599 2.62191 0
M  V30 5746 H 529.966 -5.0447 2.24084 0
M  V30 5747 H 532.442 -4.12479 0.547733 0
M  V30 5748 H 531.318 -5.48186 0.279917 0
M  V30 5749 H 531.579 -4.3066 -0.9992 0
M  V30 5750 N 530.638 -0.59345 -1.46 0
M  V30 5751 C 532.049 -0.169801 -1.85926 0
M  V30 5752 C 532.4 1.26984 -1.49565 0
M  V30 5753 O 531.525 1.96076 -0.915602 0
M  V30 5754 C 532.12 -0.301385 -3.37457 0
M  V30 5755 C 530.679 0.0674684 -3.7634 0
M  V30 5756 C 529.826 -0.632383 -2.69993 0
M  V30 5757 H 532.777 -0.801014 -1.37002 0
M  V30 5758 H 532.798 0.470331 -3.77582 0
M  V30 5759 H 532.31 -1.34927 -3.63891 0
M  V30 5760 H 530.411 1.11507 -3.55523 0
M  V30 5761 H 530.524 -0.316332 -4.78055 0
M  V30 5762 H 528.888 -0.0714961 -2.546 0
M  V30 5763 H 529.671 -1.68212 -2.99265 0
M  V30 5764 N 532.116 1.54067 -0.331816 0
M  V30 5765 C 533.066 2.21363 0.546101 0
M  V30 5766 C 534.05 1.19698 1.07523 0
M  V30 5767 O 535.242 1.45293 1.01088 0
M  V30 5768 C 532.371 2.98115 1.70242 0
M  V30 5769 C 531.457 4.07127 1.18779 0
M  V30 5770 N 531.848 5.04267 0.393465 0
M  V30 5771 C 530.146 4.21226 1.46576 0
M  V30 5772 C 530.847 5.81585 0.115572 0
M  V30 5773 N 529.823 5.39022 0.703987 0
M  V30 5774 H 533.625 2.93821 -0.0679751 0
M  V30 5775 H 531.139 1.61812 -0.138085 0
M  V30 5776 H 533.136 3.44818 2.34321 0
M  V30 5777 H 531.796 2.27181 2.31989 0
M  V30 5778 H 532.807 5.17888 0.0355757 0
M  V30 5779 H 529.484 3.61509 2.08848 0
M  V30 5780 H 530.874 6.6985 -0.524426 0
M  V30 5781 N 533.594 0.0601682 1.57485 0
M  V30 5782 C 534.541 -0.91112 2.12055 0
M  V30 5783 C 535.511 -1.30298 1.03013 0
M  V30 5784 O 536.696 -1.39087 1.30612 0
M  V30 5785 C 533.836 -2.1775 2.67729 0
M  V30 5786 C 532.949 -1.83933 3.90887 0
M  V30 5787 C 532.084 -3.05096 4.34845 0
M  V30 5788 C 531.123 -2.67241 5.5068 0
M  V30 5789 N 530.26 -3.81127 5.8965 0
M  V30 5790 H 535.1 -0.43888 2.9475 0
M  V30 5791 H 532.637 -0.204995 1.45665 0
M  V30 5792 H 534.595 -2.91866 2.98111 0
M  V30 5793 H 533.225 -2.62535 1.87816 0
M  V30 5794 H 532.277 -0.999287 3.6704 0
M  V30 5795 H 533.589 -1.52074 4.75052 0
M  V30 5796 H 532.743 -3.87502 4.66827 0
M  V30 5797 H 531.482 -3.40139 3.49509 0
M  V30 5798 H 530.487 -1.83254 5.18361 0
M  V30 5799 H 531.712 -2.3338 6.37738 0
M  V30 5800 H 529.658 -4.15954 5.07266 0
M  V30 5801 H 529.575 -3.52997 6.68528 0
M  V30 5802 H 530.843 -4.64145 6.2625 0
M  V30 5803 N 535.072 -1.5615 -0.213296 0
M  V30 5804 C 536.005 -1.88115 -1.29182 0
M  V30 5805 C 536.983 -0.739348 -1.44819 0
M  V30 5806 O 538.167 -0.988541 -1.605 0
M  V30 5807 C 535.294 -2.09541 -2.66102 0
M  V30 5808 C 534.34 -3.32236 -2.67436 0
M  V30 5809 S 535.173 -4.87915 -2.20679 0
M  V30 5810 C 536.329 -5.12387 -3.59458 0
M  V30 5811 H 536.562 -2.793 -1.01876 0
M  V30 5812 H 534.095 -1.48692 -0.415934 0
M  V30 5813 H 536.053 -2.22568 -3.44925 0
M  V30 5814 H 534.714 -1.19138 -2.90628 0
M  V30 5815 H 533.907 -3.44297 -3.6807 0
M  V30 5816 H 533.509 -3.18108 -1.96681 0
M  V30 5817 H 535.801 -5.01791 -4.55205 0
M  V30 5818 H 536.744 -6.14236 -3.52306 0
M  V30 5819 H 537.152 -4.40089 -3.53528 0
M  V30 5820 N 536.55 0.480323 -1.50102 0
M  V30 5821 C 537.775 1.26126 -1.64642 0
M  V30 5822 C 538.2 1.85257 -0.325823 0
M  V30 5823 O 537.558 1.66854 0.709194 0
M  V30 5824 C 537.606 2.35243 -2.73301 0
M  V30 5825 O 536.71 3.39646 -2.33911 0
M  V30 5826 H 536.051 0.371463 -0.550374 0
M  V30 5827 H 538.581 0.572696 -1.96421 0
M  V30 5828 H 538.591 2.80695 -2.96098 0
M  V30 5829 H 537.266 1.91574 -3.6915 0
M  V30 5830 H 535.843 2.99969 -2.21525 0
M  V30 5831 N 538.028 1.39524 0.732853 0
M  V30 5832 C 539.276 1.36594 1.48951 0
M  V30 5833 C 539.597 -0.0367507 1.94965 0
M  V30 5834 O 538.867 -0.988391 1.69138 0
M  V30 5835 H 537.447 0.502673 0.552566 0
M  V30 5836 H 540.109 1.74411 0.869869 0
M  V30 5837 H 539.205 2.03 2.3706 0
M  V30 5838 N 539.506 -0.963266 1.24736 0
M  V30 5839 C 540.439 -2.05758 0.986852 0
M  V30 5840 C 541.417 -1.62398 -0.0809272 0
M  V30 5841 O 542.601 -1.88414 0.0569347 0
M  V30 5842 C 539.728 -3.35135 0.490095 0
M  V30 5843 C 538.774 -3.97451 1.54709 0
M  V30 5844 S 539.607 -4.34519 3.12976 0
M  V30 5845 C 540.763 -5.67026 2.65014 0
M  V30 5846 H 540.996 -2.27539 1.91346 0
M  V30 5847 H 538.529 -1.10176 1.08169 0
M  V30 5848 H 540.487 -4.09962 0.21012 0
M  V30 5849 H 539.148 -3.11335 -0.415873 0
M  V30 5850 H 538.341 -4.90704 1.15003 0
M  V30 5851 H 537.943 -3.29071 1.77731 0
M  V30 5852 H 540.235 -6.44748 2.08102 0
M  V30 5853 H 541.178 -6.11594 3.56873 0
M  V30 5854 H 541.586 -5.25847 2.05294 0
M  V30 5855 N 540.985 -1.06182 -1.16461 0
M  V30 5856 C 541.932 -0.671613 -2.20812 0
M  V30 5857 C 542.902 0.331186 -1.62765 0
M  V30 5858 O 544.087 0.22033 -1.89524 0
M  V30 5859 C 541.227 -0.063029 -3.45042 0
M  V30 5860 C 540.34 -1.11587 -4.1734 0
M  V30 5861 C 539.475 -0.473546 -5.29085 0
M  V30 5862 C 538.514 -1.51 -5.93182 0
M  V30 5863 N 537.651 -0.891118 -6.96422 0
M  V30 5864 H 542.491 -1.56589 -2.53542 0
M  V30 5865 H 540.028 -0.782951 -1.24532 0
M  V30 5866 H 541.986 0.307344 -4.16066 0
M  V30 5867 H 540.616 0.794663 -3.12866 0
M  V30 5868 H 539.668 -1.60396 -3.44931 0
M  V30 5869 H 540.98 -1.90221 -4.61104 0
M  V30 5870 H 540.134 -0.0501432 -6.06679 0
M  V30 5871 H 538.873 0.344687 -4.8648 0
M  V30 5872 H 537.878 -1.94331 -5.14311 0
M  V30 5873 H 539.103 -2.33031 -6.37866 0
M  V30 5874 H 537.049 -0.0935753 -6.55933 0
M  V30 5875 H 536.966 -1.61486 -7.38551 0
M  V30 5876 H 538.234 -0.492822 -7.77941 0
M  V30 5877 N 542.463 1.3308 -0.844243 0
M  V30 5878 C 543.691 2.01808 -0.456203 0
M  V30 5879 C 544.106 1.63498 0.944131 0
M  V30 5880 O 543.463 0.85102 1.61443 0
M  V30 5881 C 543.514 3.56922 -0.573513 0
M  V30 5882 O 543.235 3.93851 -1.91868 0
M  V30 5883 C 544.736 4.42922 -0.183125 0
M  V30 5884 H 541.956 0.646273 -0.180477 0
M  V30 5885 H 544.5 1.69891 -1.1383 0
M  V30 5886 H 542.655 3.87352 0.0607367 0
M  V30 5887 H 543.069 4.88564 -1.90802 0
M  V30 5888 H 544.543 5.51093 -0.316241 0
M  V30 5889 H 545.02 4.30386 0.875477 0
M  V30 5890 H 545.626 4.1786 -0.792027 0
M  V30 5891 N 543.941 0.601185 1.45683 0
M  V30 5892 C 544.871 -0.108824 2.33246 0
M  V30 5893 C 545.852 -0.865223 1.46451 0
M  V30 5894 O 547.037 -0.83704 1.75235 0
M  V30 5895 C 544.167 -1.11101 3.2905 0
M  V30 5896 C 543.121 -0.468244 4.25431 0
M  V30 5897 C 542.447 -1.57822 5.10878 0
M  V30 5898 C 543.747 0.606469 5.18767 0
M  V30 5899 H 545.441 0.622306 2.92861 0
M  V30 5900 H 542.987 0.300714 1.40825 0
M  V30 5901 H 544.94 -1.61622 3.89174 0
M  V30 5902 H 543.664 -1.87265 2.67581 0
M  V30 5903 H 542.323 0.0160484 3.66596 0
M  V30 5904 H 541.971 -2.32998 4.45781 0
M  V30 5905 H 541.671 -1.15369 5.76163 0
M  V30 5906 H 543.195 -2.08583 5.73869 0
M  V30 5907 H 544.609 0.185589 5.73 0
M  V30 5908 H 543.006 0.952381 5.92494 0
M  V30 5909 H 544.076 1.48559 4.61582 0
M  V30 5910 N 545.419 -1.53889 0.339982 0
M  V30 5911 C 546.329 -2.28604 -0.526988 0
M  V30 5912 C 547.345 -1.33578 -1.11503 0
M  V30 5913 O 548.521 -1.66612 -1.13148 0
M  V30 5914 C 545.586 -3.04164 -1.66389 0
M  V30 5915 C 544.647 -4.14809 -1.10599 0
M  V30 5916 C 543.88 -4.86756 -2.18871 0
M  V30 5917 O 544.103 -4.58343 -3.39526 0
M  V30 5918 O 543.037 -5.73289 -1.83366 0
M  V30 5919 H 546.863 -3.03594 0.0802707 0
M  V30 5920 H 544.448 -1.4903 0.105141 0
M  V30 5921 H 546.33 -3.51427 -2.32544 0
M  V30 5922 H 545.005 -2.32035 -2.25703 0
M  V30 5923 H 543.912 -3.71857 -0.409067 0
M  V30 5924 H 545.245 -4.89029 -0.557771 0
M  V30 5925 N 546.897 -0.0685191 -1.57451 0
M  V30 5926 C 547.86 0.885173 -2.11417 0
M  V30 5927 C 548.86 1.22853 -1.03748 0
M  V30 5928 O 550.05 1.16235 -1.2975 0
M  V30 5929 C 547.182 2.18964 -2.61281 0
M  V30 5930 H 548.375 0.417034 -2.96986 0
M  V30 5931 H 545.928 0.18014 -1.55258 0
M  V30 5932 H 546.663 2.70321 -1.79156 0
M  V30 5933 H 546.448 1.9534 -3.39977 0
M  V30 5934 H 547.938 2.87242 -3.0312 0
M  V30 5935 N 548.375 1.56261 0.205012 0
M  V30 5936 C 549.307 1.90266 1.27795 0
M  V30 5937 C 550.32 0.792397 1.42214 0
M  V30 5938 O 551.509 1.07077 1.42817 0
M  V30 5939 C 548.609 2.11074 2.65143 0
M  V30 5940 C 547.782 3.42176 2.7246 0
M  V30 5941 C 546.841 3.52216 3.90936 0
M  V30 5942 O 545.867 4.25119 3.78501 0
M  V30 5943 N 547.069 2.84573 5.05963 0
M  V30 5944 H 549.834 2.82896 0.989434 0
M  V30 5945 H 547.395 1.57008 0.394981 0
M  V30 5946 H 549.387 2.15089 3.4281 0
M  V30 5947 H 547.957 1.2499 2.86524 0
M  V30 5948 H 547.177 3.50116 1.81142 0
M  V30 5949 H 548.465 4.28509 2.74331 0
M  V30 5950 H 547.863 2.25152 5.18963 0
M  V30 5951 H 546.42 2.94228 5.81613 0
M  V30 5952 N 549.853 -0.472356 1.50355 0
M  V30 5953 C 550.783 -1.57859 1.72055 0
M  V30 5954 C 551.764 -1.60283 0.569505 0
M  V30 5955 O 552.949 -1.7657 0.808503 0
M  V30 5956 C 550.079 -2.96191 1.81351 0
M  V30 5957 C 549.033 -3.08633 2.96529 0
M  V30 5958 C 548.359 -4.486 2.90968 0
M  V30 5959 C 549.659 -2.85969 4.37057 0
M  V30 5960 H 551.353 -1.39953 2.64676 0
M  V30 5961 H 548.899 -0.671846 1.27367 0
M  V30 5962 H 550.852 -3.73507 1.95117 0
M  V30 5963 H 549.576 -3.15251 0.853502 0
M  V30 5964 H 548.235 -2.33749 2.82413 0
M  V30 5965 H 547.883 -4.64577 1.92815 0
M  V30 5966 H 547.583 -4.57861 3.68289 0
M  V30 5967 H 549.107 -5.27938 3.0678 0
M  V30 5968 H 550.521 -3.53036 4.51706 0
M  V30 5969 H 548.918 -3.06677 5.15819 0
M  V30 5970 H 549.988 -1.81838 4.49514 0
M  V30 5971 N 551.331 -1.39911 -0.725443 0
M  V30 5972 C 552.559 -1.40949 -1.51463 0
M  V30 5973 C 552.974 -0.0065242 -1.88799 0
M  V30 5974 O 552.331 0.967163 -1.54765 0
M  V30 5975 C 552.382 -2.29119 -2.79619 0
M  V30 5976 O 552.103 -3.63952 -2.43866 0
M  V30 5977 C 553.604 -2.38642 -3.73584 0
M  V30 5978 H 550.824 -0.481091 -0.467752 0
M  V30 5979 H 553.368 -1.83843 -0.895651 0
M  V30 5980 H 551.523 -1.89612 -3.37826 0
M  V30 5981 H 551.937 -4.10677 -3.26258 0
M  V30 5982 H 553.411 -3.04563 -4.60375 0
M  V30 5983 H 553.888 -1.40846 -4.16004 0
M  V30 5984 H 554.494 -2.78659 -3.21293 0
M  V30 5985 N 552.809 0.956637 -1.25245 0
M  V30 5986 C 554.22 1.51569 -1.09012 0
M  V30 5987 C 554.571 1.93322 0.334813 0
M  V30 5988 O 553.696 1.78421 1.22454 0
M  V30 5989 C 554.291 2.75444 -1.97271 0
M  V30 5990 C 552.85 3.27669 -1.8523 0
M  V30 5991 C 551.997 2.00517 -1.91542 0
M  V30 5992 H 554.948 0.773746 -1.3856 0
M  V30 5993 H 554.969 3.4919 -1.51151 0
M  V30 5994 H 554.481 2.45024 -3.00973 0
M  V30 5995 H 552.582 3.62914 -0.844045 0
M  V30 5996 H 552.695 3.9582 -2.69932 0
M  V30 5997 H 551.059 2.15727 -1.35404 0
M  V30 5998 H 551.842 1.72448 -2.96844 0
M  V30 5999 N 554.287 1.06798 1.15896 0
M  V30 6000 C 555.703 0.792423 1.38538 0
M  V30 6001 C 555.903 -0.60592 1.92174 0
M  V30 6002 O 554.959 -1.36561 2.12385 0
M  V30 6003 C 556.272 1.86157 2.36149 0
M  V30 6004 C 557.82 1.88567 2.49823 0
M  V30 6005 C 558.295 2.9455 3.5072 0
M  V30 6006 N 559.786 2.93616 3.58251 0
M  V30 6007 C 560.521 3.72267 4.36125 0
M  V30 6008 N 560.017 4.60751 5.17379 0
M  V30 6009 N 561.81 3.60637 4.31158 0
M  V30 6010 H 553.961 1.96993 0.794198 0
M  V30 6011 H 556.224 0.853942 0.411688 0
M  V30 6012 H 555.93 2.86603 2.03843 0
M  V30 6013 H 555.804 1.71692 3.3586 0
M  V30 6014 H 558.191 0.887765 2.8143 0
M  V30 6015 H 558.272 2.0711 1.5013 0
M  V30 6016 H 557.916 3.94537 3.19849 0
M  V30 6017 H 557.846 2.73255 4.50155 0
M  V30 6018 H 560.337 2.29472 3.00252 0
M  V30 6019 H 560.65 5.17408 5.74028 0
M  V30 6020 H 558.995 4.64803 5.16704 0
M  V30 6021 H 562.186 2.90892 3.66742 0
M  V30 6022 H 562.359 4.22176 4.91601 0
M  V30 6023 N 555.766 -1.3263 0.851289 0
M  V30 6024 C 557.012 -1.9766 0.453694 0
M  V30 6025 C 557.345 -1.67225 -0.987396 0
M  V30 6026 O 556.62 -0.958693 -1.69232 0
M  V30 6027 C 556.903 -3.5344 0.68936 0
M  V30 6028 C 556.756 -3.93517 2.17862 0
M  V30 6029 C 558.075 -4.39866 0.143555 0
M  V30 6030 H 555.194 -0.717989 0.166314 0
M  V30 6031 H 557.836 -1.57068 1.06909 0
M  V30 6032 H 555.986 -3.88147 0.165546 0
M  V30 6033 H 557.658 -3.69006 2.76826 0
M  V30 6034 H 555.901 -3.42798 2.65841 0
M  V30 6035 H 556.572 -5.02065 2.29422 0
M  V30 6036 H 559.048 -4.11875 0.591451 0
M  V30 6037 H 557.924 -5.47858 0.338043 0
M  V30 6038 H 558.185 -4.31696 -0.953466 0
M  V30 6039 N 557.244 -0.608902 -1.45362 0
M  V30 6040 C 558.49 -0.104762 -2.02529 0
M  V30 6041 C 558.823 1.26191 -1.47613 0
M  V30 6042 O 558.098 1.8327 -0.65134 0
M  V30 6043 C 558.381 -0.0672661 -3.60037 0
M  V30 6044 C 558.234 -1.4647 -4.25284 0
M  V30 6045 C 559.553 0.619877 -4.35713 0
M  V30 6046 H 556.672 -0.0395438 -0.735938 0
M  V30 6047 H 559.314 -0.781126 -1.73201 0
M  V30 6048 H 557.464 0.50871 -3.85155 0
M  V30 6049 H 559.136 -2.08785 -4.11347 0
M  V30 6050 H 557.379 -2.02502 -3.83634 0
M  V30 6051 H 558.05 -1.39069 -5.34195 0
M  V30 6052 H 560.526 0.130297 -4.15896 0
M  V30 6053 H 559.402 0.615224 -5.45441 0
M  V30 6054 H 559.663 1.68621 -4.0868 0
M  V30 6055 N 558.722 1.53707 -0.348139 0
M  V30 6056 C 559.632 2.28881 0.514857 0
M  V30 6057 C 560.648 1.34168 1.10793 0
M  V30 6058 O 561.824 1.6721 1.12262 0
M  V30 6059 C 558.889 3.05042 1.64774 0
M  V30 6060 C 557.95 4.15389 1.08398 0
M  V30 6061 C 557.183 4.87909 2.16287 0
M  V30 6062 O 557.406 4.60137 3.3709 0
M  V30 6063 O 556.34 5.74254 1.80323 0
M  V30 6064 H 560.166 3.03547 -0.0963699 0
M  V30 6065 H 557.751 1.48972 -0.113043 0
M  V30 6066 H 559.633 3.52656 2.30677 0
M  V30 6067 H 558.308 2.33228 2.24469 0
M  V30 6068 H 557.215 3.72068 0.389341 0
M  V30 6069 H 558.548 4.89318 0.531829 0
M  V30 6070 N 560.2 0.0768682 1.57412 0
M  V30 6071 C 561.616 -0.279772 1.57129 0
M  V30 6072 C 561.816 -1.69688 1.08666 0
M  V30 6073 O 560.872 -2.40953 0.754843 0
M  V30 6074 C 562.185 -0.0848055 3.0058 0
M  V30 6075 C 563.733 -0.153954 3.12621 0
M  V30 6076 C 564.208 0.0127946 4.57998 0
M  V30 6077 N 565.699 -0.0426435 4.6318 0
M  V30 6078 C 566.434 0.0618892 5.73367 0
M  V30 6079 N 565.93 0.220229 6.9245 0
M  V30 6080 N 567.723 0.00446072 5.621 0
M  V30 6081 H 559.874 1.00297 1.87228 0
M  V30 6082 H 562.137 0.391565 0.863354 0
M  V30 6083 H 561.843 0.89325 3.40168 0
M  V30 6084 H 561.717 -0.834961 3.67843 0
M  V30 6085 H 564.104 -1.1225 2.72917 0
M  V30 6086 H 564.185 0.627389 2.47987 0
M  V30 6087 H 563.829 0.978128 4.98392 0
M  V30 6088 H 563.759 -0.788016 5.20671 0
M  V30 6089 H 566.25 -0.163226 3.77547 0
M  V30 6090 H 566.563 0.291999 7.72248 0
M  V30 6091 H 564.908 0.255658 6.9453 0
M  V30 6092 H 568.099 -0.117979 4.67951 0
M  V30 6093 H 568.272 0.0893796 6.47938 0
M  V30 6094 N 561.678 -1.56367 -0.196722 0
M  V30 6095 C 562.924 -1.81698 -0.914182 0
M  V30 6096 C 563.279 -0.65367 -1.80956 0
M  V30 6097 O 562.572 0.351224 -1.88353 0
M  V30 6098 C 562.766 -3.10663 -1.767 0
M  V30 6099 C 562.595 -4.39428 -0.955689 0
M  V30 6100 C 561.365 -5.01221 -0.64076 0
M  V30 6101 C 563.563 -5.1337 -0.309165 0
M  V30 6102 N 561.545 -6.13608 0.189358 0
M  V30 6103 C 562.916 -6.18815 0.383225 0
M  V30 6104 C 564.971 -4.97393 -0.224726 0
M  V30 6105 C 563.674 -7.10015 1.15201 0
M  V30 6106 C 565.7 -5.89014 0.530658 0
M  V30 6107 C 565.062 -6.93903 1.2115 0
M  V30 6108 H 561.161 -0.716203 -0.31397 0
M  V30 6109 H 563.745 -1.93838 -0.18304 0
M  V30 6110 H 561.916 -2.99762 -2.46976 0
M  V30 6111 H 563.648 -3.24088 -2.42382 0
M  V30 6112 H 560.403 -4.63669 -0.96479 0
M  V30 6113 H 560.827 -6.74389 0.593979 0
M  V30 6114 H 565.469 -4.16331 -0.736754 0
M  V30 6115 H 563.187 -7.9054 1.67547 0
M  V30 6116 H 566.773 -5.78726 0.597326 0
M  V30 6117 H 565.653 -7.63576 1.78665 0
M  V30 6118 N 563.156 0.464375 -1.50603 0
M  V30 6119 C 564.088 1.57916 -1.66118 0
M  V30 6120 C 565.101 1.53497 -0.54246 0
M  V30 6121 O 566.29 1.58763 -0.815877 0
M  V30 6122 C 563.39 2.96809 -1.63577 0
M  V30 6123 C 562.563 3.26026 -2.91592 0
M  V30 6124 C 561.622 4.44506 -2.81604 0
M  V30 6125 O 560.648 4.44484 -3.55559 0
M  V30 6126 N 561.85 5.46549 -1.95614 0
M  V30 6127 H 564.615 1.45022 -2.62276 0
M  V30 6128 H 562.176 0.652903 -1.48151 0
M  V30 6129 H 564.168 3.74048 -1.54499 0
M  V30 6130 H 562.738 3.03438 -0.751262 0
M  V30 6131 H 561.958 2.37337 -3.14746 0
M  V30 6132 H 563.246 3.42361 -3.76386 0
M  V30 6133 H 562.644 5.49391 -1.34854 0
M  V30 6134 H 561.201 6.22746 -1.92435 0
M  V30 6135 N 564.634 1.40294 0.718013 0
M  V30 6136 C 565.581 1.40367 1.8321 0
M  V30 6137 C 566.551 0.260952 1.64037 0
M  V30 6138 O 567.736 0.458648 1.85205 0
M  V30 6139 C 564.876 1.26965 3.20895 0
M  V30 6140 C 563.989 2.50922 3.51656 0
M  V30 6141 C 563.124 2.29981 4.78834 0
M  V30 6142 C 562.163 3.49527 5.02491 0
M  V30 6143 N 561.3 3.27796 6.20882 0
M  V30 6144 H 566.14 2.35593 1.82482 0
M  V30 6145 H 563.677 1.17012 0.891444 0
M  V30 6146 H 565.635 1.17202 4.00399 0
M  V30 6147 H 564.265 0.353591 3.20858 0
M  V30 6148 H 563.317 2.71223 2.66725 0
M  V30 6149 H 564.629 3.39913 3.65048 0
M  V30 6150 H 563.783 2.17558 5.66351 0
M  V30 6151 H 562.522 1.38411 4.67647 0
M  V30 6152 H 561.527 3.6243 4.1343 0
M  V30 6153 H 562.752 4.42021 5.15553 0
M  V30 6154 H 560.698 2.38906 6.1095 0
M  V30 6155 H 560.615 4.10351 6.34939 0
M  V30 6156 H 561.883 3.19101 7.11193 0
M  V30 6157 N 566.112 -0.949982 1.2575 0
M  V30 6158 C 567.337 -1.73503 1.13628 0
M  V30 6159 C 567.762 -1.85601 -0.30559 0
M  V30 6160 O 567.12 -1.33984 -1.22139 0
M  V30 6161 C 567.168 -3.1243 1.80055 0
M  V30 6162 O 566.272 -3.97916 1.08336 0
M  V30 6163 H 565.613 -0.532665 0.396439 0
M  V30 6164 H 568.143 -1.19043 1.66403 0
M  V30 6165 H 568.153 -3.62866 1.86527 0
M  V30 6166 H 566.828 -3.02941 2.84956 0
M  V30 6167 H 565.405 -3.56375 1.09777 0
M  V30 6168 N 567.59 -1.07411 -1.15328 0
M  V30 6169 C 568.523 -0.63913 -2.19067 0
M  V30 6170 C 569.501 0.343929 -1.58921 0
M  V30 6171 O 570.685 0.250207 -1.86832 0
M  V30 6172 C 567.812 0.0613977 -3.38644 0
M  V30 6173 C 566.858 -0.880201 -4.17318 0
M  V30 6174 S 567.691 -2.38152 -4.79629 0
M  V30 6175 C 568.847 -1.69281 -6.02573 0
M  V30 6176 H 569.08 -1.51799 -2.55626 0
M  V30 6177 H 566.613 -0.888138 -1.26299 0
M  V30 6178 H 568.571 0.459323 -4.07922 0
M  V30 6179 H 567.232 0.916605 -3.00428 0
M  V30 6180 H 566.425 -0.336781 -5.02874 0
M  V30 6181 H 566.027 -1.21854 -3.53592 0
M  V30 6182 H 568.319 -1.00488 -6.70006 0
M  V30 6183 H 569.262 -2.52671 -6.61485 0
M  V30 6184 H 569.67 -1.17053 -5.52231 0
M  V30 6185 N 569.068 1.32177 -0.85831 0
M  V30 6186 C 570.296 2.01313 -0.477582 0
M  V30 6187 C 570.711 1.6449 0.926736 0
M  V30 6188 O 570.068 0.868096 1.60531 0
M  V30 6189 C 570.119 3.56293 -0.611337 0
M  V30 6190 O 569.84 3.91794 -1.96034 0
M  V30 6191 C 571.341 4.42702 -0.230093 0
M  V30 6192 H 568.561 0.644323 -0.187322 0
M  V30 6193 H 571.105 1.68674 -1.15626 0
M  V30 6194 H 569.26 3.87395 0.0196494 0
M  V30 6195 H 569.674 4.86513 -1.95973 0
M  V30 6196 H 571.148 5.50727 -0.374674 0
M  V30 6197 H 571.625 4.3129 0.829779 0
M  V30 6198 H 572.231 4.16997 -0.836302 0
M  V30 6199 N 570.547 0.616602 1.45037 0
M  V30 6200 C 571.495 -0.109318 2.32343 0
M  V30 6201 C 572.489 -0.850543 1.465 0
M  V30 6202 O 573.695 -0.765088 1.62931 0
M  V30 6203 H 570.07 -0.0541091 0.750051 0
M  V30 6204 H 572.041 0.645326 2.91338 0
M  V30 6205 C 570.79 -1.0872 3.30266 0
M  V30 6206 H 570.113 -0.526267 3.96321 0
M  V30 6207 H 571.553 -1.56489 3.94065 0
M  V30 6208 C 570.012 -2.16525 2.58105 0
M  V30 6209 O 570.542 -3.244 2.36913 0
M  V30 6210 N 568.748 -1.92057 2.18088 0
M  V30 6211 H 568.295 -1.04337 2.35524 0
M  V30 6212 H 568.253 -2.64391 1.70131 0
M  V30 6213 N 572.025 -1.5352 0.356285 0
M  V30 6214 C 573.441 -1.59599 0.00485267 0
M  V30 6215 C 573.641 -1.37179 -1.47595 0
M  V30 6216 O 572.697 -1.17234 -2.23635 0
M  V30 6217 C 574.01 -2.97277 0.452454 0
M  V30 6218 C 575.558 -3.10357 0.405881 0
M  V30 6219 C 576.033 -4.50432 0.829148 0
M  V30 6220 N 577.524 -4.5652 0.783838 0
M  V30 6221 C 578.259 -5.63077 1.08315 0
M  V30 6222 N 577.755 -6.77429 1.45126 0
M  V30 6223 N 579.548 -5.53014 1.00655 0
M  V30 6224 H 571.699 -1.66346 1.32071 0
M  V30 6225 H 573.962 -0.77971 0.539218 0
M  V30 6226 H 573.668 -3.18792 1.48542 0
M  V30 6227 H 573.542 -3.76836 -0.165762 0
M  V30 6228 H 575.929 -2.88558 -0.617934 0
M  V30 6229 H 576.01 -2.32828 1.05947 0
M  V30 6230 H 575.654 -4.72968 1.85103 0
M  V30 6231 H 575.584 -5.26378 0.152906 0
M  V30 6232 H 578.075 -3.74408 0.512513 0
M  V30 6233 H 578.388 -7.54669 1.66415 0
M  V30 6234 H 576.733 -6.78844 1.48983 0
M  V30 6235 H 579.924 -4.62557 0.718215 0
M  V30 6236 H 580.097 -6.35964 1.24315 0
M  V30 6237 N 573.503 -0.0852151 -1.57369 0
M  V30 6238 C 574.731 0.58946 -1.98325 0
M  V30 6239 C 575.146 1.62333 -0.96403 0
M  V30 6240 O 574.503 1.82438 0.0476395 0
M  V30 6241 C 574.554 1.24604 -3.39347 0
M  V30 6242 O 574.275 0.253532 -4.37366 0
M  V30 6243 C 575.776 2.00726 -3.95252 0
M  V30 6244 H 572.996 0.158783 -0.651942 0
M  V30 6245 H 575.54 -0.161584 -2.03861 0
M  V30 6246 H 573.695 1.94808 -3.34856 0
M  V30 6247 H 574.109 0.726207 -5.19448 0
M  V30 6248 H 575.583 2.42039 -4.96106 0
M  V30 6249 H 576.06 2.86919 -3.32527 0
M  V30 6250 H 576.666 1.3536 -4.03185 0
M  V30 6251 N 574.981 1.5647 0.188427 0
M  V30 6252 C 576.397 1.50204 0.539532 0
M  V30 6253 C 576.597 0.78644 1.85519 0
M  V30 6254 O 575.653 0.339714 2.50204 0
M  V30 6255 C 576.966 2.94893 0.588103 0
M  V30 6256 C 578.514 3.05602 0.67648 0
M  V30 6257 C 578.989 4.51716 0.756101 0
M  V30 6258 N 580.48 4.55894 0.819451 0
M  V30 6259 C 581.215 5.66272 0.90134 0
M  V30 6260 N 580.711 6.86323 0.945118 0
M  V30 6261 N 582.504 5.54201 0.939043 0
M  V30 6262 H 574.655 2.01406 -0.674493 0
M  V30 6263 H 576.918 0.916828 -0.241103 0
M  V30 6264 H 576.624 3.50334 -0.309633 0
M  V30 6265 H 576.498 3.4861 1.44051 0
M  V30 6266 H 578.885 2.50206 1.56465 0
M  V30 6267 H 578.966 2.54999 -0.202262 0
M  V30 6268 H 578.61 5.07739 -0.12774 0
M  V30 6269 H 578.54 5.00058 1.65074 0
M  V30 6270 H 581.031 3.69452 0.794594 0
M  V30 6271 H 581.344 7.66194 1.0083 0
M  V30 6272 H 579.689 6.88968 0.913683 0
M  V30 6273 H 582.88 4.59333 0.901725 0
M  V30 6274 H 583.053 6.40247 0.999402 0
M  V30 6275 N 576.459 -0.456382 1.50847 0
M  V30 6276 C 577.369 -1.57805 1.73594 0
M  V30 6277 C 578.385 -1.62599 0.619476 0
M  V30 6278 O 579.561 -1.80195 0.899532 0
M  V30 6279 C 576.626 -2.93926 1.8387 0
M  V30 6280 C 575.687 -2.99402 3.07663 0
M  V30 6281 C 574.92 -4.29031 3.1744 0
M  V30 6282 O 575.143 -5.20358 2.33631 0
M  V30 6283 O 574.077 -4.40401 4.10281 0
M  V30 6284 H 577.903 -1.41531 2.68705 0
M  V30 6285 H 575.488 -0.637422 1.3512 0
M  V30 6286 H 577.37 -3.74747 1.92725 0
M  V30 6287 H 576.045 -3.10368 0.91944 0
M  V30 6288 H 574.952 -2.17606 3.043 0
M  V30 6289 H 576.285 -2.87901 3.99216 0
M  V30 6290 N 577.937 -1.40673 -0.710563 0
M  V30 6291 C 579.183 -1.39428 -1.47267 0
M  V30 6292 C 579.516 0.00182129 -1.942 0
M  V30 6293 O 578.791 0.971387 -1.68506 0
M  V30 6294 C 579.074 -2.38812 -2.6952 0
M  V30 6295 C 578.927 -3.87467 -2.28449 0
M  V30 6296 C 580.246 -2.3566 -3.71689 0
M  V30 6297 H 577.365 -0.507768 -0.534173 0
M  V30 6298 H 580.007 -1.71843 -0.810547 0
M  V30 6299 H 578.157 -2.113 -3.26013 0
M  V30 6300 H 579.829 -4.25825 -1.77399 0
M  V30 6301 H 578.072 -4.03058 -1.60395 0
M  V30 6302 H 578.743 -4.5253 -3.16103 0
M  V30 6303 H 581.219 -2.6004 -3.24836 0
M  V30 6304 H 580.095 -3.07237 -4.54859 0
M  V30 6305 H 580.356 -1.36996 -4.20339 0
M  V30 6306 N 579.415 0.9433 -1.26252 0
M  V30 6307 C 580.345 2.05902 -1.10122 0
M  V30 6308 C 581.326 1.70099 -0.00700552 0
M  V30 6309 O 582.511 1.93377 -0.178641 0
M  V30 6310 C 579.641 3.39516 -0.731175 0
M  V30 6311 C 578.595 3.89372 -1.77688 0
M  V30 6312 C 577.921 5.19613 -1.26122 0
M  V30 6313 C 579.221 4.14489 -3.17799 0
M  V30 6314 H 580.915 2.19655 -2.03451 0
M  V30 6315 H 578.461 1.05548 -0.979576 0
M  V30 6316 H 580.414 4.17031 -0.605215 0
M  V30 6317 H 579.138 3.25733 0.23782 0
M  V30 6318 H 577.797 3.14036 -1.89148 0
M  V30 6319 H 577.445 5.02208 -0.282128 0
M  V30 6320 H 577.145 5.53939 -1.96023 0
M  V30 6321 H 578.669 5.99713 -1.14789 0
M  V30 6322 H 580.083 4.82625 -3.09428 0
M  V30 6323 H 578.48 4.60094 -3.85271 0
M  V30 6324 H 579.55 3.20347 -3.64014 0
M  V30 6325 N 580.893 1.08022 1.14757 0
M  V30 6326 C 581.823 0.728248 2.21853 0
M  V30 6327 C 582.804 -0.287486 1.67653 0
M  V30 6328 O 583.989 -0.158727 1.9355 0
M  V30 6329 C 581.119 0.132549 3.47047 0
M  V30 6330 C 580.073 1.07619 4.14249 0
M  V30 6331 C 579.399 0.342907 5.33599 0
M  V30 6332 C 580.699 2.41268 4.63235 0
M  V30 6333 H 582.393 1.62365 2.51551 0
M  V30 6334 H 579.939 0.782125 1.20908 0
M  V30 6335 H 581.892 -0.125665 4.21213 0
M  V30 6336 H 580.616 -0.797971 3.16702 0
M  V30 6337 H 579.275 1.31944 3.42033 0
M  V30 6338 H 578.923 -0.59129 4.99513 0
M  V30 6339 H 578.623 0.971955 5.79506 0
M  V30 6340 H 580.147 0.0926538 6.1053 0
M  V30 6341 H 581.561 2.21232 5.28894 0
M  V30 6342 H 579.958 2.9983 5.19829 0
M  V30 6343 H 581.028 3.03079 3.78512 0
M  V30 6344 N 582.371 -1.3172 0.865308 0
M  V30 6345 C 583.782 -1.79104 0.527126 0
M  V30 6346 C 584.133 -1.7135 -0.955695 0
M  V30 6347 O 583.258 -1.27845 -1.74598 0
M  V30 6348 C 583.853 -3.25207 0.950061 0
M  V30 6349 C 582.412 -3.70504 0.663611 0
M  V30 6350 C 581.559 -2.52605 1.14395 0
M  V30 6351 H 584.51 -1.18868 1.05148 0
M  V30 6352 H 584.531 -3.79535 0.270805 0
M  V30 6353 H 584.043 -3.30818 2.02931 0
M  V30 6354 H 582.144 -3.70398 -0.404474 0
M  V30 6355 H 582.257 -4.62845 1.23737 0
M  V30 6356 H 580.621 -2.4838 0.563859 0
M  V30 6357 H 581.404 -2.60964 2.23053 0
M  V30 6358 N 583.85 -0.624285 -1.44708 0
M  V30 6359 C 584.797 0.0847135 -2.30644 0
M  V30 6360 C 585.767 0.843575 -1.43084 0
M  V30 6361 O 586.952 0.825982 -1.71995 0
M  V30 6362 C 584.091 1.06495 -3.28257 0
M  V30 6363 C 583.205 0.305224 -4.3092 0
M  V30 6364 C 582.34 1.27667 -5.1563 0
M  V30 6365 C 581.379 0.505706 -6.10007 0
M  V30 6366 N 580.516 1.42727 -6.8744 0
M  V30 6367 H 585.356 -0.654068 -2.90733 0
M  V30 6368 H 582.893 -0.334334 -1.4325 0
M  V30 6369 H 584.851 1.64658 -3.83332 0
M  V30 6370 H 583.481 1.77094 -2.69884 0
M  V30 6371 H 582.533 -0.392207 -3.78373 0
M  V30 6372 H 583.845 -0.295553 -4.97924 0
M  V30 6373 H 582.999 1.92984 -5.75189 0
M  V30 6374 H 581.738 1.91137 -4.48685 0
M  V30 6375 H 580.743 -0.160999 -5.49564 0
M  V30 6376 H 581.968 -0.124183 -6.78986 0
M  V30 6377 H 579.913 2.04931 -6.23169 0
M  V30 6378 H 579.831 0.880345 -7.50857 0
M  V30 6379 H 581.099 2.0695 -7.51526 0
M  V30 6380 N 585.328 1.53329 -0.364422 0
M  V30 6381 C 586.575 2.01239 0.225634 0
M  V30 6382 C 586.903 1.25172 1.48869 0
M  V30 6383 O 586.158 0.333289 1.92841 0
M  V30 6384 C 586.457 3.52911 0.564661 0
M  V30 6385 C 586.123 4.46837 -0.603936 0
M  V30 6386 C 584.785 4.72234 -0.924585 0
M  V30 6387 C 587.137 5.02409 -1.38691 0
M  V30 6388 C 584.465 5.50454 -2.0302 0
M  V30 6389 C 586.817 5.81836 -2.48293 0
M  V30 6390 C 585.481 6.0552 -2.80894 0
M  V30 6391 H 584.751 0.736386 0.0825654 0
M  V30 6392 H 587.398 1.84948 -0.496645 0
M  V30 6393 H 585.703 3.67144 1.36794 0
M  V30 6394 H 587.4 3.87455 1.03344 0
M  V30 6395 H 583.99 4.27217 -0.343983 0
M  V30 6396 H 588.174 4.82735 -1.15243 0
M  V30 6397 H 583.43 5.67024 -2.28678 0
M  V30 6398 H 587.604 6.23905 -3.0938 0
M  V30 6399 H 585.231 6.65916 -3.66688 0
M  V30 6400 N 586.806 0.0935595 1.57322 0
M  V30 6401 C 587.753 -0.865935 2.1394 0
M  V30 6402 C 588.723 -1.28083 1.05754 0
M  V30 6403 O 589.908 -1.36285 1.33533 0
M  V30 6404 C 587.048 -2.12023 2.72287 0
M  V30 6405 C 586.161 -1.756 3.94701 0
M  V30 6406 C 585.296 -2.95804 4.41218 0
M  V30 6407 C 584.335 -2.555 5.56225 0
M  V30 6408 N 583.472 -3.68534 5.97601 0
M  V30 6409 H 588.312 -0.376261 2.95615 0
M  V30 6410 H 585.849 -0.174052 1.46067 0
M  V30 6411 H 587.807 -2.85477 3.04235 0
M  V30 6412 H 586.437 -2.58492 1.93343 0
M  V30 6413 H 585.489 -0.921208 3.69077 0
M  V30 6414 H 586.801 -1.41964 4.78171 0
M  V30 6415 H 585.955 -3.77513 4.74941 0
M  V30 6416 H 584.694 -3.32649 3.56645 0
M  V30 6417 H 583.699 -1.72218 5.22131 0
M  V30 6418 H 584.924 -2.19801 6.42545 0
M  V30 6419 H 582.87 -4.051 5.15974 0
M  V30 6420 H 582.787 -3.38737 6.75865 0
M  V30 6421 H 584.055 -4.50757 6.35955 0
M  V30 6422 N 588.284 -1.56567 -0.180126 0
M  V30 6423 C 589.214 -1.98753 -1.22553 0
M  V30 6424 C 590.195 -0.86175 -1.46656 0
M  V30 6425 O 591.38 -1.12719 -1.58139 0
M  V30 6426 C 588.51 -2.33988 -2.56645 0
M  V30 6427 C 587.464 -3.49445 -2.47128 0
M  V30 6428 C 586.79 -3.70397 -3.8563 0
M  V30 6429 C 588.09 -4.83171 -1.98352 0
M  V30 6430 H 589.784 -2.86332 -0.874896 0
M  V30 6431 H 587.33 -1.37757 -0.419414 0
M  V30 6432 H 589.283 -2.62097 -3.29974 0
M  V30 6433 H 588.007 -1.43309 -2.93479 0
M  V30 6434 H 586.666 -3.2145 -1.76254 0
M  V30 6435 H 586.314 -2.77023 -4.19842 0
M  V30 6436 H 586.014 -4.48077 -3.80132 0
M  V30 6437 H 587.538 -4.00897 -4.60558 0
M  V30 6438 H 588.952 -5.10213 -2.61449 0
M  V30 6439 H 587.349 -5.64425 -2.03823 0
M  V30 6440 H 588.419 -4.75753 -0.937402 0
M  V30 6441 N 589.762 0.448376 -1.51087 0
M  V30 6442 C 590.672 1.56882 -1.74428 0
M  V30 6443 C 591.688 1.62268 -0.62809 0
M  V30 6444 O 592.864 1.79716 -0.909075 0
M  V30 6445 C 589.929 2.92947 -1.85426 0
M  V30 6446 C 588.99 2.97766 -3.09247 0
M  V30 6447 C 588.223 4.27341 -3.19711 0
M  V30 6448 O 588.446 5.19112 -2.36387 0
M  V30 6449 O 587.38 4.38219 -4.12611 0
M  V30 6450 H 591.206 1.40104 -2.69452 0
M  V30 6451 H 588.791 0.630247 -1.35456 0
M  V30 6452 H 590.673 3.73719 -1.94709 0
M  V30 6453 H 589.348 3.09876 -0.935887 0
M  V30 6454 H 588.255 2.15989 -3.0545 0
M  V30 6455 H 589.588 2.8578 -4.00738 0
M  V30 6456 N 591.24 1.41047 0.703093 0
M  V30 6457 C 592.187 1.42302 1.81711 0
M  V30 6458 C 593.157 0.278336 1.63751 0
M  V30 6459 O 594.342 0.478266 1.84709 0
M  V30 6460 C 591.482 1.30362 3.19531 0
M  V30 6461 C 590.595 2.54638 3.48975 0
M  V30 6462 C 589.73 2.35047 4.76368 0
M  V30 6463 C 588.769 3.54837 4.98756 0
M  V30 6464 N 587.906 3.34363 6.1737 0
M  V30 6465 H 592.746 2.37516 1.79973 0
M  V30 6466 H 590.283 1.1795 0.878983 0
M  V30 6467 H 592.241 1.21443 3.99134 0
M  V30 6468 H 590.871 0.387602 3.20464 0
M  V30 6469 H 589.923 2.74037 2.63833 0
M  V30 6470 H 591.235 3.43766 3.61423 0
M  V30 6471 H 590.389 2.23552 5.64012 0
M  V30 6472 H 589.128 1.43363 4.66153 0
M  V30 6473 H 588.133 3.66795 4.09563 0
M  V30 6474 H 589.358 4.47464 5.10835 0
M  V30 6475 H 587.304 2.45373 6.08382 0
M  V30 6476 H 587.221 4.17063 6.30551 0
M  V30 6477 H 588.489 3.26626 7.07768 0
M  V30 6478 N 592.718 -0.936591 1.26751 0
M  V30 6479 C 593.666 -2.0573 1.08527 0
M  V30 6480 C 594.66 -1.69397 0.0108784 0
M  V30 6481 O 595.866 -1.79215 0.167915 0
M  V30 6482 H 592.241 -0.673691 0.334133 0
M  V30 6483 H 594.212 -2.1825 2.03493 0
M  V30 6484 C 592.961 -3.39738 0.739845 0
M  V30 6485 H 592.284 -3.68174 1.55845 0
M  V30 6486 H 593.724 -4.18955 0.652149 0
M  V30 6487 C 592.183 -3.32292 -0.555288 0
M  V30 6488 O 592.713 -3.68794 -1.59229 0
M  V30 6489 N 590.919 -2.85394 -0.54762 0
M  V30 6490 H 590.466 -2.55886 0.296667 0
M  V30 6491 H 590.424 -2.80795 -1.41427 0
M  V30 6492 N 594.196 -1.08629 -1.14182 0
M  V30 6493 C 595.426 -0.837673 -1.88856 0
M  V30 6494 C 595.834 0.614024 -1.78959 0
M  V30 6495 O 595.177 1.43384 -1.14833 0
M  V30 6496 C 595.239 -1.18355 -3.39459 0
M  V30 6497 C 594.903 -2.63848 -3.73139 0
M  V30 6498 C 595.9 -3.62099 -3.73069 0
M  V30 6499 C 593.585 -2.99761 -4.03049 0
M  V30 6500 C 595.579 -4.94292 -4.02435 0
M  V30 6501 C 593.266 -4.32147 -4.32078 0
M  V30 6502 C 594.264 -5.29223 -4.31755 0
M  V30 6503 O 593.952 -6.59229 -4.60079 0
M  V30 6504 H 593.684 -0.301609 -0.604986 0
M  V30 6505 H 596.238 -1.44961 -1.45518 0
M  V30 6506 H 594.468 -0.514628 -3.8326 0
M  V30 6507 H 596.157 -0.915391 -3.95443 0
M  V30 6508 H 596.923 -3.35698 -3.50046 0
M  V30 6509 H 592.802 -2.2484 -4.02453 0
M  V30 6510 H 596.346 -5.70055 -4.02098 0
M  V30 6511 H 592.243 -4.58296 -4.54571 0
M  V30 6512 H 593.011 -6.64578 -4.77785 0
M  V30 6513 N 595.674 1.31259 -0.872281 0
M  V30 6514 C 596.622 2.30404 -0.318897 0
M  V30 6515 C 597.616 1.5962 0.567267 0
M  V30 6516 O 598.822 1.74204 0.453111 0
M  V30 6517 H 595.197 0.747243 -0.0844474 0
M  V30 6518 H 597.168 2.74549 -1.16899 0
M  V30 6519 C 595.917 3.44608 0.462683 0
M  V30 6520 H 595.24 3.99248 -0.209936 0
M  V30 6521 H 596.68 4.1609 0.815187 0
M  V30 6522 C 595.139 2.93456 1.65485 0
M  V30 6523 O 595.669 2.92418 2.75417 0
M  V30 6524 N 593.875 2.49628 1.48776 0
M  V30 6525 H 593.422 2.50671 0.593452 0
M  V30 6526 H 593.38 2.15759 2.28682 0
M  V30 6527 N 597.152 0.631951 1.44375 0
M  V30 6528 C 598.082 -0.0593243 2.33425 0
M  V30 6529 C 599.063 -0.833964 1.48253 0
M  V30 6530 O 600.248 -0.799682 1.76971 0
M  V30 6531 C 597.378 -1.04096 3.31333 0
M  V30 6532 C 596.332 -0.377899 4.26328 0
M  V30 6533 C 595.658 -1.4695 5.14111 0
M  V30 6534 C 596.958 0.716371 5.17364 0
M  V30 6535 H 598.652 0.684287 2.91475 0
M  V30 6536 H 596.198 0.330518 1.40156 0
M  V30 6537 H 598.151 -1.53331 3.92514 0
M  V30 6538 H 596.875 -1.81547 2.71493 0
M  V30 6539 H 595.534 0.0938054 3.6648 0
M  V30 6540 H 595.182 -2.2349 4.50623 0
M  V30 6541 H 594.882 -1.03121 5.78481 0
M  V30 6542 H 596.406 -1.96363 5.78164 0
M  V30 6543 H 597.82 0.307089 5.72477 0
M  V30 6544 H 596.217 1.07784 5.90341 0
M  V30 6545 H 597.287 1.58316 4.58327 0
M  V30 6546 N 598.631 -1.53133 0.372548 0
M  V30 6547 C 599.877 -2.01654 -0.215277 0
M  V30 6548 C 600.21 -1.25914 -1.47849 0
M  V30 6549 O 599.485 -0.3548 -1.91237 0
M  V30 6550 C 599.768 -3.56609 -0.500187 0
M  V30 6551 C 599.621 -4.43036 0.777145 0
M  V30 6552 C 600.94 -4.20528 -1.29786 0
M  V30 6553 H 598.059 -0.732991 -0.0767686 0
M  V30 6554 H 600.701 -1.83335 0.498814 0
M  V30 6555 H 598.851 -3.7235 -1.10852 0
M  V30 6556 H 600.523 -4.39079 1.41447 0
M  V30 6557 H 598.766 -4.10723 1.39604 0
M  V30 6558 H 599.437 -5.49424 0.532662 0
M  V30 6559 H 601.913 -4.08663 -0.783198 0
M  V30 6560 H 600.789 -5.28962 -1.46596 0
M  V30 6561 H 601.05 -3.77051 -2.30836 0
M  V30 6562 N 600.109 -0.101901 -1.5727 0
M  V30 6563 C 601.019 0.868647 -2.17926 0
M  V30 6564 C 602.035 1.30527 -1.1506 0
M  V30 6565 O 603.211 1.37178 -1.47459 0
M  V30 6566 C 600.276 2.10727 -2.75309 0
M  V30 6567 C 599.337 1.7242 -3.93154 0
M  V30 6568 C 598.57 2.90377 -4.47791 0
M  V30 6569 O 598.793 4.05305 -4.01353 0
M  V30 6570 O 597.727 2.6845 -5.38719 0
M  V30 6571 H 601.553 0.382544 -3.01281 0
M  V30 6572 H 599.138 0.122812 -1.48894 0
M  V30 6573 H 601.02 2.83303 -3.11958 0
M  V30 6574 H 599.695 2.58376 -1.94996 0
M  V30 6575 H 598.602 0.970039 -3.61305 0
M  V30 6576 H 599.935 1.29528 -4.74851 0
M  V30 6577 N 601.587 1.56661 0.17182 0
M  V30 6578 C 602.812 1.86459 0.908165 0
M  V30 6579 C 603.237 0.688181 1.75059 0
M  V30 6580 O 602.595 -0.362753 1.77634 0
M  V30 6581 C 602.643 3.14669 1.76112 0
M  V30 6582 O 601.747 2.96858 2.86268 0
M  V30 6583 H 601.088 0.613318 0.254434 0
M  V30 6584 H 603.618 2.03892 0.170113 0
M  V30 6585 H 603.628 3.46061 2.16115 0
M  V30 6586 H 602.303 3.99905 1.14233 0
M  V30 6587 H 600.88 2.76819 2.49852 0
M  V30 6588 N 603.065 -0.440357 1.51323 0
M  V30 6589 C 603.995 -1.54174 1.75364 0
M  V30 6590 C 604.976 -1.59039 0.603375 0
M  V30 6591 O 606.161 -1.74815 0.845774 0
M  V30 6592 C 603.291 -2.92277 1.87593 0
M  V30 6593 C 602.245 -3.02274 3.03009 0
M  V30 6594 C 601.571 -4.42327 3.00418 0
M  V30 6595 C 602.871 -2.76634 4.43024 0
M  V30 6596 H 604.565 -1.34307 2.67585 0
M  V30 6597 H 602.111 -0.644678 1.28763 0
M  V30 6598 H 604.064 -3.69284 2.02995 0
M  V30 6599 H 602.788 -3.13369 0.920179 0
M  V30 6600 H 601.447 -2.27706 2.87307 0
M  V30 6601 H 601.095 -4.60382 2.02626 0
M  V30 6602 H 600.795 -4.49946 3.77918 0
M  V30 6603 H 602.319 -5.21312 3.17909 0
M  V30 6604 H 603.733 -3.43376 4.59093 0
M  V30 6605 H 602.13 -2.95666 5.22208 0
M  V30 6606 H 603.2 -1.72262 4.5327 0
M  V30 6607 N 604.543 -1.41418 -0.695603 0
M  V30 6608 C 605.49 -1.43264 -1.80954 0
M  V30 6609 C 606.46 -0.287016 -1.63601 0
M  V30 6610 O 607.645 -0.488054 -1.84452 0
M  V30 6611 C 604.785 -1.32054 -3.18835 0
M  V30 6612 C 603.898 -2.56485 -3.4762 0
M  V30 6613 C 603.033 -2.3757 -4.75115 0
M  V30 6614 C 602.072 -3.57477 -4.96867 0
M  V30 6615 N 601.209 -3.37632 -6.15588 0
M  V30 6616 H 606.049 -2.38467 -1.78711 0
M  V30 6617 H 603.586 -1.18415 -0.872715 0
M  V30 6618 H 605.544 -1.23558 -3.98484 0
M  V30 6619 H 604.174 -0.404592 -3.20254 0
M  V30 6620 H 603.226 -2.75432 -2.62376 0
M  V30 6621 H 604.538 -3.45678 -3.59594 0
M  V30 6622 H 603.692 -2.2654 -5.62818 0
M  V30 6623 H 602.431 -1.45834 -4.65386 0
M  V30 6624 H 601.436 -3.68961 -4.07612 0
M  V30 6625 H 602.661 -4.50167 -5.08455 0
M  V30 6626 H 600.607 -2.48596 -6.07072 0
M  V30 6627 H 600.524 -4.20401 -6.2833 0
M  V30 6628 H 601.792 -3.30375 -7.06026 0
M  V30 6629 N 606.021 0.929856 -1.27246 0
M  V30 6630 C 606.951 2.04722 -1.12299 0
M  V30 6631 C 607.932 1.70082 -0.0250464 0
M  V30 6632 O 609.117 1.93176 -0.199141 0
M  V30 6633 C 606.247 3.38721 -0.767145 0
M  V30 6634 C 605.201 3.87466 -1.81808 0
M  V30 6635 C 604.527 5.18246 -1.31626 0
M  V30 6636 C 605.827 4.11095 -3.22177 0
M  V30 6637 H 607.521 2.17485 -2.05769 0
M  V30 6638 H 605.067 1.04503 -0.990715 0
M  V30 6639 H 607.02 4.16366 -0.649413 0
M  V30 6640 H 605.744 3.25967 0.203259 0
M  V30 6641 H 604.403 3.12012 -1.92468 0
M  V30 6642 H 604.051 5.01881 -0.335378 0
M  V30 6643 H 603.751 5.51829 -2.01887 0
M  V30 6644 H 605.275 5.98462 -1.21143 0
M  V30 6645 H 606.689 4.79316 -3.1453 0
M  V30 6646 H 605.086 4.55982 -3.90129 0
M  V30 6647 H 606.156 3.16468 -3.67391 0
M  V30 6648 N 607.499 1.09233 1.13605 0
M  V30 6649 C 608.432 0.6739 2.18023 0
M  V30 6650 C 609.41 -0.318603 1.59448 0
M  V30 6651 O 610.594 -0.220452 1.87206 0
M  V30 6652 C 607.721 -0.00751458 3.38699 0
M  V30 6653 C 606.767 0.946481 4.15865 0
M  V30 6654 S 607.6 2.45753 4.75779 0
M  V30 6655 C 608.756 1.78846 5.99804 0
M  V30 6656 H 608.989 1.55846 2.53178 0
M  V30 6657 H 606.522 0.908118 1.2487 0
M  V30 6658 H 608.48 -0.394368 4.08601 0
M  V30 6659 H 607.141 -0.868693 3.01849 0
M  V30 6660 H 606.334 0.416742 5.02274 0
M  V30 6661 H 605.936 1.27464 3.51609 0
M  V30 6662 H 608.228 1.11135 6.68323 0
M  V30 6663 H 609.171 2.63163 6.57382 0
M  V30 6664 H 609.579 1.25823 5.50299 0
M  V30 6665 N 608.977 -1.30795 0.87923 0
M  V30 6666 C 610.225 -1.95974 0.493809 0
M  V30 6667 C 610.546 -1.69787 -0.959021 0
M  V30 6668 O 609.816 -1.01832 -1.67353 0
M  V30 6669 H 608.396 -0.725083 0.179622 0
M  V30 6670 H 611.058 -1.59432 1.12105 0
M  V30 6671 H 610.154 -3.05058 0.659263 0
M  V30 6672 N 610.455 -0.639598 -1.44038 0
M  V30 6673 C 611.704 -0.144885 -2.01179 0
M  V30 6674 C 612.017 1.24372 -1.50967 0
M  V30 6675 O 613.223 1.83291 -2.00292 0
M  V30 6676 C 611.679 -0.208244 -3.59297 0
M  V30 6677 C 611.287 -1.59869 -4.18504 0
M  V30 6678 C 613.031 0.229568 -4.23879 0
M  V30 6679 C 610.938 -1.61671 -5.68873 0
M  V30 6680 H 609.868 -0.0504005 -0.752314 0
M  V30 6681 H 612.519 -0.799639 -1.65161 0
M  V30 6682 H 610.901 0.513767 -3.92653 0
M  V30 6683 H 612.075 -2.34496 -3.96671 0
M  V30 6684 H 610.39 -1.98131 -3.66242 0
M  V30 6685 H 612.987 0.235758 -5.3418 0
M  V30 6686 H 613.33 1.25848 -3.96822 0
M  V30 6687 H 613.863 -0.440233 -3.95357 0
M  V30 6688 H 610.602 -2.62427 -6.00677 0
M  V30 6689 H 610.122 -0.913489 -5.92803 0
M  V30 6690 H 611.801 -1.35439 -6.32665 0
M  V30 6691 N 611.933 1.52934 -0.380664 0
M  V30 6692 C 613.349 1.59571 -0.0302429 0
M  V30 6693 C 613.549 1.39509 1.45394 0
M  V30 6694 O 612.605 1.20777 2.21741 0
M  V30 6695 C 613.918 2.96519 -0.499691 0
M  V30 6696 C 615.466 3.09672 -0.455204 0
M  V30 6697 C 615.941 4.49056 -0.900703 0
M  V30 6698 N 617.432 4.55215 -0.856367 0
M  V30 6699 C 618.167 5.61282 -1.17259 0
M  V30 6700 N 617.663 6.75035 -1.55885 0
M  V30 6701 N 619.456 5.51343 -1.0944 0
M  V30 6702 H 611.607 1.64224 -1.347 0
M  V30 6703 H 613.87 0.771033 -0.551554 0
M  V30 6704 H 613.576 3.16388 -1.53595 0
M  V30 6705 H 613.45 3.77052 0.105789 0
M  V30 6706 H 615.837 2.89504 0.571949 0
M  V30 6707 H 615.918 2.31113 -1.09638 0
M  V30 6708 H 615.562 4.69964 -1.92604 0
M  V30 6709 H 615.492 5.26068 -0.236629 0
M  V30 6710 H 617.983 3.73546 -0.572013 0
M  V30 6711 H 618.296 7.51926 -1.784 0
M  V30 6712 H 616.641 6.76388 -1.59764 0
M  V30 6713 H 619.832 4.61356 -0.791713 0
M  V30 6714 H 620.005 6.33905 -1.34417 0
M  V30 6715 N 613.412 0.11024 1.57214 0
M  V30 6716 C 614.345 -0.880224 2.1054 0
M  V30 6717 C 615.323 -1.26658 1.01964 0
M  V30 6718 O 616.507 -1.36917 1.29561 0
M  V30 6719 C 613.634 -2.17676 2.59489 0
M  V30 6720 C 612.68 -1.93914 3.79868 0
M  V30 6721 S 613.513 -1.16336 5.2271 0
M  V30 6722 C 614.669 -2.47188 5.75021 0
M  V30 6723 H 614.902 -0.426614 2.94223 0
M  V30 6724 H 612.435 -0.10336 1.54054 0
M  V30 6725 H 614.393 -2.92175 2.88347 0
M  V30 6726 H 613.054 -2.60156 1.76005 0
M  V30 6727 H 612.247 -2.8996 4.12236 0
M  V30 6728 H 611.849 -1.27539 3.51582 0
M  V30 6729 H 614.141 -3.43079 5.84211 0
M  V30 6730 H 615.084 -2.19377 6.7326 0
M  V30 6731 H 615.492 -2.56154 5.03036 0
M  V30 6732 N 614.89 -1.56749 -0.16351 0
M  V30 6733 C 615.82 -2.00042 -1.20438 0
M  V30 6734 C 616.801 -0.877256 -1.45733 0
M  V30 6735 O 617.986 -1.1439 -1.56935 0
M  V30 6736 C 615.116 -2.36697 -2.54149 0
M  V30 6737 C 614.07 -3.52046 -2.43408 0
M  V30 6738 C 613.396 -3.74466 -3.81679 0
M  V30 6739 C 614.696 -4.85247 -1.93216 0
M  V30 6740 H 616.39 -2.87244 -0.844477 0
M  V30 6741 H 613.936 -1.38194 -0.40478 0
M  V30 6742 H 615.889 -2.65582 -3.27176 0
M  V30 6743 H 614.613 -1.46414 -2.91943 0
M  V30 6744 H 613.272 -3.23301 -1.72834 0
M  V30 6745 H 612.92 -2.81461 -4.1688 0
M  V30 6746 H 612.62 -4.52084 -3.75359 0
M  V30 6747 H 614.144 -4.0576 -4.5628 0
M  V30 6748 H 615.558 -5.12957 -2.56023 0
M  V30 6749 H 613.955 -5.66556 -1.97825 0
M  V30 6750 H 615.025 -4.7672 -0.88689 0
M  V30 6751 N 616.368 0.432326 -1.51554 0
M  V30 6752 C 617.615 1.18134 -1.64471 0
M  V30 6753 C 617.943 1.91076 -0.363349 0
M  V30 6754 O 617.198 1.84492 0.65279 0
M  V30 6755 C 617.497 2.21907 -2.80164 0
M  V30 6756 C 617.163 1.65941 -4.19255 0
M  V30 6757 C 615.825 1.50401 -4.57092 0
M  V30 6758 C 618.177 1.24843 -5.06027 0
M  V30 6759 C 615.505 0.922443 -5.79403 0
M  V30 6760 C 617.857 0.68113 -6.28922 0
M  V30 6761 C 616.521 0.512673 -6.65528 0
M  V30 6762 H 615.791 0.432283 -0.601841 0
M  V30 6763 H 618.438 0.471701 -1.856 0
M  V30 6764 H 616.743 2.98928 -2.53277 0
M  V30 6765 H 618.44 2.79691 -2.87357 0
M  V30 6766 H 615.03 1.79014 -3.89425 0
M  V30 6767 H 619.214 1.35667 -4.77397 0
M  V30 6768 H 614.47 0.779733 -6.06408 0
M  V30 6769 H 618.644 0.35418 -6.95499 0
M  V30 6770 H 616.271 0.0599084 -7.60176 0
M  V30 6771 N 617.846 1.41785 0.688094 0
M  V30 6772 C 619.123 1.32031 1.44316 0
M  V30 6773 C 619.503 -0.0486079 2.11044 0
M  V30 6774 O 618.851 -1.06332 2.02252 0
M  V30 6775 C 619.061 2.47906 2.45649 0
M  V30 6776 C 620.409 2.89415 3.10683 0
M  V30 6777 O 621.433 2.477 2.55975 0
M  V30 6778 O 620.292 3.61573 4.09789 0
M  V30 6779 H 617.386 0.519994 0.643067 0
M  V30 6780 H 619.932 1.53765 0.71794 0
M  V30 6781 H 618.704 3.39222 1.95048 0
M  V30 6782 H 618.327 2.28089 3.25671 0
M  V30 6783 N 619.324 -0.923095 1.27737 0
M  V30 6784 C 620.271 -2.02432 1.1086 0
M  V30 6785 C 621.241 -1.66098 0.00835195 0
M  V30 6786 O 622.426 -1.90027 0.171542 0
M  V30 6787 C 619.566 -3.36476 0.766671 0
M  V30 6788 C 618.679 -3.85737 1.94501 0
M  V30 6789 C 617.814 -5.08249 1.54455 0
M  V30 6790 C 616.853 -5.49818 2.6901 0
M  V30 6791 N 615.99 -6.63524 2.29521 0
M  V30 6792 H 620.83 -2.16201 2.05089 0
M  V30 6793 H 618.367 -1.05909 1.02087 0
M  V30 6794 H 620.325 -4.13569 0.549223 0
M  V30 6795 H 618.955 -3.22502 -0.13867 0
M  V30 6796 H 618.007 -3.04883 2.27487 0
M  V30 6797 H 619.319 -4.12513 2.80419 0
M  V30 6798 H 618.473 -5.92857 1.28862 0
M  V30 6799 H 617.212 -4.83261 0.656534 0
M  V30 6800 H 616.217 -4.63757 2.95313 0
M  V30 6801 H 617.442 -5.76799 3.5844 0
M  V30 6802 H 615.388 -6.40185 1.43177 0
M  V30 6803 H 615.305 -6.89978 3.08977 0
M  V30 6804 H 616.573 -7.51461 2.07187 0
M  V30 6805 N 620.802 -1.09834 -1.13024 0
M  V30 6806 C 621.75 -0.736283 -2.20639 0
M  V30 6807 C 622.744 0.264725 -1.67319 0
M  V30 6808 O 623.95 0.125745 -1.7956 0
M  V30 6809 H 620.325 -0.220136 -0.719058 0
M  V30 6810 H 622.296 -1.65295 -2.48436 0
M  V30 6811 C 621.045 -0.177544 -3.47246 0
M  V30 6812 H 620.368 -0.939009 -3.88616 0
M  V30 6813 H 621.808 0.0378007 -4.23983 0
M  V30 6814 C 620.267 1.08824 -3.1884 0
M  V30 6815 O 620.797 2.1708 -3.37993 0
M  V30 6816 N 619.003 1.00442 -2.7269 0
M  V30 6817 H 618.55 0.123383 -2.57304 0
M  V30 6818 H 618.508 1.85206 -2.5406 0
M  V30 6819 N 622.28 1.30327 -0.886154 0
M  V30 6820 C 623.528 1.9571 -0.504195 0
M  V30 6821 C 623.849 1.70294 0.950003 0
M  V30 6822 O 623.119 1.02718 1.66811 0
M  V30 6823 H 621.699 0.72412 -0.183465 0
M  V30 6824 H 624.361 1.58835 -1.12949 0
M  V30 6825 H 623.457 3.04704 -0.675431 0
M  V30 6826 N 623.758 0.647228 1.43697 0
M  V30 6827 C 624.706 -0.0600105 2.32523 0
M  V30 6828 C 625.7 -0.819277 1.48271 0
M  V30 6829 O 626.906 -0.730356 1.64517 0
M  V30 6830 H 623.281 -0.0381872 0.75103 0
M  V30 6831 H 625.252 0.706978 2.89904 0
M  V30 6832 C 624.001 -1.0169 3.32497 0
M  V30 6833 H 623.324 -0.442083 3.97348 0
M  V30 6834 H 624.764 -1.48095 3.97296 0
M  V30 6835 C 623.223 -2.11002 2.6264 0
M  V30 6836 O 623.753 -3.19302 2.4374 0
M  V30 6837 N 621.959 -1.87388 2.22113 0
M  V30 6838 H 621.506 -0.993174 2.37684 0
M  V30 6839 H 621.464 -2.60723 1.75701 0
M  V30 6840 N 625.236 -1.5273 0.388769 0
M  V30 6841 C 626.169 -2.22861 -0.490752 0
M  V30 6842 C 627.147 -1.22912 -1.06449 0
M  V30 6843 O 628.331 -1.51896 -1.11624 0
M  V30 6844 C 625.458 -2.94141 -1.67925 0
M  V30 6845 C 624.504 -4.08355 -1.23081 0
M  V30 6846 S 625.337 -5.35077 -0.212786 0
M  V30 6847 C 626.493 -6.09879 -1.40708 0
M  V30 6848 H 626.726 -2.97115 0.104787 0
M  V30 6849 H 624.259 -1.53428 0.172956 0
M  V30 6850 H 626.217 -3.35818 -2.36085 0
M  V30 6851 H 624.878 -2.19568 -2.24608 0
M  V30 6852 H 624.071 -4.57328 -2.11818 0
M  V30 6853 H 623.673 -3.68688 -0.628121 0
M  V30 6854 H 625.965 -6.36018 -2.33424 0
M  V30 6855 H 626.908 -7.01586 -0.958271 0
M  V30 6856 H 627.316 -5.40646 -1.62364 0
M  V30 6857 N 626.714 -0.118576 -1.57153 0
M  V30 6858 C 627.677 0.817464 -2.14127 0
M  V30 6859 C 628.677 1.1949 -1.07604 0
M  V30 6860 O 629.867 1.12048 -1.33382 0
M  V30 6861 C 626.999 2.10541 -2.68115 0
M  V30 6862 H 628.192 0.322339 -2.98163 0
M  V30 6863 H 625.745 0.130655 -1.55753 0
M  V30 6864 H 626.48 2.64485 -1.87665 0
M  V30 6865 H 626.265 1.84425 -3.4602 0
M  V30 6866 H 627.755 2.77453 -3.12105 0
M  V30 6867 N 628.193 1.56834 0.155195 0
M  V30 6868 C 629.441 1.82536 0.867462 0
M  V30 6869 C 629.762 0.698168 1.82073 0
M  V30 6870 O 629.032 -0.280807 1.93877 0
M  V30 6871 H 627.612 0.673401 0.323327 0
M  V30 6872 H 630.274 1.94313 0.151156 0
M  V30 6873 H 629.37 2.77171 1.43466 0
M  V30 6874 N 629.671 -0.424282 1.51781 0
M  V30 6875 C 630.92 -1.16961 1.64326 0
M  V30 6876 C 631.233 -1.92035 0.371749 0
M  V30 6877 O 632.439 -2.68873 0.37676 0
M  V30 6878 C 630.895 -2.12782 2.90262 0
M  V30 6879 C 630.503 -1.43295 4.24465 0
M  V30 6880 C 632.247 -2.87667 3.12166 0
M  V30 6881 C 630.154 -2.37676 5.41538 0
M  V30 6882 H 629.084 -0.440293 0.612093 0
M  V30 6883 H 631.735 -0.435431 1.78259 0
M  V30 6884 H 630.117 -2.8969 2.69992 0
M  V30 6885 H 631.291 -0.718564 4.55163 0
M  V30 6886 H 629.606 -0.805118 4.08542 0
M  V30 6887 H 632.203 -3.58395 3.96808 0
M  V30 6888 H 632.546 -3.49758 2.25776 0
M  V30 6889 H 633.079 -2.17863 3.32837 0
M  V30 6890 H 629.818 -1.80255 6.30229 0
M  V30 6891 H 629.338 -3.07132 5.15199 0
M  V30 6892 H 631.017 -2.98529 5.74012 0
M  V30 6893 N 631.149 -1.42148 -0.680565 0
M  V30 6894 C 632.374 -1.45901 -1.47403 0
M  V30 6895 C 632.799 -0.0700985 -1.87969 0
M  V30 6896 O 632.157 0.930145 -1.55621 0
M  V30 6897 C 632.205 -2.38661 -2.70321 0
M  V30 6898 O 631.309 -1.85399 -3.68376 0
M  V30 6899 H 630.65 -0.494565 -0.443059 0
M  V30 6900 H 633.18 -1.86774 -0.835251 0
M  V30 6901 H 633.19 -2.55046 -3.18458 0
M  V30 6902 H 631.865 -3.39571 -2.40134 0
M  V30 6903 H 630.442 -1.78541 -3.2738 0
M  V30 6904 N 632.627 0.916307 -1.28225 0
M  V30 6905 C 633.904 1.64429 -1.05936 0
M  V30 6906 C 634.284 2.07234 0.402139 0
M  V30 6907 O 633.632 1.81535 1.3877 0
M  V30 6908 C 633.842 2.83773 -2.03159 0
M  V30 6909 C 635.19 3.54852 -2.33164 0
M  V30 6910 O 636.214 2.93918 -2.01223 0
M  V30 6911 O 635.073 4.64663 -2.87664 0
M  V30 6912 H 632.167 0.721221 -0.404683 0
M  V30 6913 H 634.713 0.965838 -1.39534 0
M  V30 6914 H 633.485 2.49217 -3.01673 0
M  V30 6915 H 633.108 3.59333 -1.70192 0
M  V30 6916 N 634.105 1.10431 1.1244 0
M  V30 6917 C 635.037 0.710945 2.17895 0
M  V30 6918 C 636.05 -0.252315 1.60833 0
M  V30 6919 O 637.239 -0.03679 1.78462 0
M  V30 6920 C 634.339 0.0284262 3.38888 0
M  V30 6921 C 633.512 1.01585 4.2544 0
M  V30 6922 C 632.571 0.364826 5.24934 0
M  V30 6923 O 631.597 1.01561 5.60066 0
M  V30 6924 N 632.799 -0.87674 5.73841 0
M  V30 6925 H 635.564 1.61826 2.52255 0
M  V30 6926 H 633.125 0.993132 1.27861 0
M  V30 6927 H 635.117 -0.418568 4.0253 0
M  V30 6928 H 633.687 -0.781294 3.02679 0
M  V30 6929 H 632.907 1.64111 3.58415 0
M  V30 6930 H 634.195 1.68425 4.80115 0
M  V30 6931 H 633.593 -1.42483 5.47462 0
M  V30 6932 H 632.15 -1.26688 6.39369 0
M  V30 6933 N 635.583 -1.29855 0.893053 0
M  V30 6934 C 636.999 -1.48366 0.588199 0
M  V30 6935 C 637.199 -1.81654 -0.872018 0
M  V30 6936 O 636.255 -1.909 -1.65268 0
M  V30 6937 C 637.568 -2.60136 1.5083 0
M  V30 6938 C 639.116 -2.74014 1.51279 0
M  V30 6939 C 639.591 -3.88905 2.41902 0
M  V30 6940 N 641.082 -3.96228 2.39911 0
M  V30 6941 C 641.817 -4.84458 3.06738 0
M  V30 6942 N 641.313 -5.77426 3.8282 0
M  V30 6943 N 643.106 -4.77894 2.95929 0
M  V30 6944 H 635.257 -1.06522 1.83757 0
M  V30 6945 H 637.52 -0.528495 0.787018 0
M  V30 6946 H 637.226 -2.42383 2.54839 0
M  V30 6947 H 637.1 -3.56793 1.22388 0
M  V30 6948 H 639.487 -2.91167 0.480179 0
M  V30 6949 H 639.568 -1.77952 1.83757 0
M  V30 6950 H 639.212 -3.72508 3.45253 0
M  V30 6951 H 639.142 -4.84322 2.06737 0
M  V30 6952 H 641.633 -3.29728 1.84629 0
M  V30 6953 H 641.946 -6.41529 4.30883 0
M  V30 6954 H 640.291 -5.77332 3.86927 0
M  V30 6955 H 643.482 -4.04248 2.36012 0
M  V30 6956 H 643.655 -5.46444 3.48286 0
M  V30 6957 N 637.061 -0.65484 -1.43351 0
M  V30 6958 C 638.31 -0.166215 -2.01014 0
M  V30 6959 C 638.623 1.22764 -1.52278 0
M  V30 6960 O 639.829 1.81156 -2.02224 0
M  V30 6961 C 638.285 -0.246341 -3.59056 0
M  V30 6962 C 637.893 -1.64299 -4.16785 0
M  V30 6963 C 639.637 0.184597 -4.24098 0
M  V30 6964 C 637.544 -1.67695 -5.67126 0
M  V30 6965 H 636.474 -0.0583769 -0.751737 0
M  V30 6966 H 639.125 -0.817111 -1.64303 0
M  V30 6967 H 637.507 0.472092 -3.93176 0
M  V30 6968 H 638.681 -2.3869 -3.94162 0
M  V30 6969 H 636.996 -2.02004 -3.6412 0
M  V30 6970 H 639.593 0.179088 -5.344 0
M  V30 6971 H 639.936 1.21632 -3.98135 0
M  V30 6972 H 640.469 -0.482141 -3.94867 0
M  V30 6973 H 637.208 -2.68783 -5.9786 0
M  V30 6974 H 636.728 -0.976313 -5.91801 0
M  V30 6975 H 638.407 -1.42142 -6.31193 0
M  V30 6976 N 638.539 1.52521 -0.396863 0
M  V30 6977 C 639.502 2.2527 0.422604 0
M  V30 6978 C 640.502 1.27184 0.983913 0
M  V30 6979 O 641.692 1.51222 0.864723 0
M  V30 6980 C 638.824 3.01356 1.59365 0
M  V30 6981 H 640.017 2.99133 -0.214416 0
M  V30 6982 H 637.57 1.55587 -0.149128 0
M  V30 6983 H 638.305 2.31813 2.26789 0
M  V30 6984 H 638.09 3.73357 1.19779 0
M  V30 6985 H 639.58 3.56571 2.17363 0
M  V30 6986 N 640.017 0.126909 1.57088 0
M  V30 6987 C 641.266 -0.529024 1.94639 0
M  V30 6988 C 641.579 -1.67323 1.01304 0
M  V30 6989 O 642.785 -2.39245 1.28352 0
M  V30 6990 C 641.241 -0.992483 3.45945 0
M  V30 6991 C 640.849 0.123691 4.47829 0
M  V30 6992 C 642.593 -1.61934 3.924 0
M  V30 6993 C 640.5 -0.356911 5.90322 0
M  V30 6994 H 639.43 -0.201397 0.726605 0
M  V30 6995 H 642.081 0.208032 1.82317 0
M  V30 6996 H 640.463 -1.7842 3.53528 0
M  V30 6997 H 641.637 0.900168 4.51922 0
M  V30 6998 H 639.952 0.657699 4.11173 0
M  V30 6999 H 642.549 -1.9902 4.96281 0
M  V30 7000 H 642.892 -2.50075 3.32819 0
M  V30 7001 H 643.425 -0.892894 3.8765 0
M  V30 7002 H 640.164 0.488636 6.53676 0
M  V30 7003 H 639.684 -1.0997 5.89633 0
M  V30 7004 H 641.363 -0.815547 6.41839 0
M  V30 7005 N 641.495 -1.56914 -0.146875 0
M  V30 7006 C 642.772 -1.74273 -0.888165 0
M  V30 7007 C 643.152 -0.69496 -1.99333 0
M  V30 7008 O 642.5 0.286093 -2.26702 0
M  V30 7009 C 642.71 -3.18336 -1.43051 0
M  V30 7010 C 644.058 -3.80024 -1.89387 0
M  V30 7011 O 645.082 -3.21765 -1.52792 0
M  V30 7012 O 643.941 -4.82367 -2.56874 0
M  V30 7013 H 641.035 -0.712565 -0.419738 0
M  V30 7014 H 643.581 -1.6918 -0.132791 0
M  V30 7015 H 642.353 -3.86092 -0.636274 0
M  V30 7016 H 641.976 -3.27854 -2.24938 0
M  V30 7017 N 642.974 0.416227 -1.52004 0
M  V30 7018 C 643.904 1.51365 -1.77795 0
M  V30 7019 C 644.885 1.58059 -0.628601 0
M  V30 7020 O 646.07 1.73447 -0.873478 0
M  V30 7021 C 643.2 2.89256 -1.92219 0
M  V30 7022 C 642.154 2.97415 -3.0778 0
M  V30 7023 C 641.48 4.37492 -3.07417 0
M  V30 7024 C 642.78 2.69551 -4.47369 0
M  V30 7025 H 644.474 1.30033 -2.69688 0
M  V30 7026 H 642.02 0.624112 -1.29772 0
M  V30 7027 H 643.973 3.66008 -2.08845 0
M  V30 7028 H 642.697 3.11866 -0.969917 0
M  V30 7029 H 641.356 2.23107 -2.90893 0
M  V30 7030 H 641.004 4.571 -2.09925 0
M  V30 7031 H 640.704 4.43877 -3.85029 0
M  V30 7032 H 642.228 5.16188 -3.26162 0
M  V30 7033 H 643.642 3.36028 -4.64497 0
M  V30 7034 H 642.039 2.87321 -5.26846 0
M  V30 7035 H 643.109 1.65029 -4.55953 0
M  V30 7036 N 644.452 1.42507 0.673017 0
M  V30 7037 C 645.699 1.43072 1.43306 0
M  V30 7038 C 646.027 0.0478004 1.94441 0
M  V30 7039 O 645.282 -0.944106 1.71421 0
M  V30 7040 C 645.581 2.40351 2.64511 0
M  V30 7041 C 645.247 3.8669 2.31908 0
M  V30 7042 C 643.909 4.26551 2.22728 0
M  V30 7043 C 646.261 4.78991 2.05467 0
M  V30 7044 C 643.589 5.56691 1.85234 0
M  V30 7045 C 645.941 6.09476 1.69477 0
M  V30 7046 C 644.605 6.48334 1.58808 0
M  V30 7047 H 643.875 0.523536 0.524395 0
M  V30 7048 H 646.522 1.75459 0.76723 0
M  V30 7049 H 644.827 2.01297 3.36135 0
M  V30 7050 H 646.524 2.38051 3.22696 0
M  V30 7051 H 643.114 3.55132 2.39956 0
M  V30 7052 H 647.298 4.48982 2.11492 0
M  V30 7053 H 642.554 5.85657 1.75545 0
M  V30 7054 H 646.728 6.80482 1.48043 0
M  V30 7055 H 644.355 7.49084 1.29525 0
M  V30 7056 N 645.93 -0.909495 1.28709 0
M  V30 7057 C 646.877 -2.01245 1.13 0
M  V30 7058 C 647.847 -1.6608 0.0259684 0
M  V30 7059 O 649.032 -1.89835 0.191687 0
M  V30 7060 C 646.172 -3.35644 0.802315 0
M  V30 7061 C 645.285 -3.83653 1.98582 0
M  V30 7062 C 644.42 -5.06582 1.59837 0
M  V30 7063 C 643.459 -5.46934 2.74827 0
M  V30 7064 N 642.596 -6.61053 2.36546 0
M  V30 7065 H 647.436 -2.14013 2.0737 0
M  V30 7066 H 644.973 -1.0482 1.03205 0
M  V30 7067 H 646.931 -4.12963 0.593057 0
M  V30 7068 H 645.561 -3.22631 -0.104457 0
M  V30 7069 H 644.613 -3.02454 2.30708 0
M  V30 7070 H 645.925 -4.09515 2.84779 0
M  V30 7071 H 645.079 -5.91457 1.35143 0
M  V30 7072 H 643.818 -4.82537 0.707753 0
M  V30 7073 H 642.823 -4.60599 3.00215 0
M  V30 7074 H 644.048 -5.72965 3.64538 0
M  V30 7075 H 641.994 -6.3863 1.49959 0
M  V30 7076 H 641.911 -6.86662 3.16277 0
M  V30 7077 H 643.179 -7.49221 2.15146 0
M  V30 7078 N 647.408 -1.11026 -1.11852 0
M  V30 7079 C 648.358 -0.733836 -2.15868 0
M  V30 7080 C 649.342 0.26001 -1.58785 0
M  V30 7081 O 650.534 0.0677901 -1.7687 0
M  V30 7082 C 647.663 -0.173948 -3.42859 0
M  V30 7083 C 646.749 -1.1952 -4.0691 0
M  V30 7084 N 647.14 -2.38797 -4.45881 0
M  V30 7085 C 645.438 -1.03714 -4.33773 0
M  V30 7086 C 646.139 -3.03894 -4.96007 0
M  V30 7087 N 645.115 -2.31389 -4.91894 0
M  V30 7088 H 648.917 -1.64171 -2.43773 0
M  V30 7089 H 646.431 -0.988877 -1.28822 0
M  V30 7090 H 648.428 0.113836 -4.16745 0
M  V30 7091 H 647.088 0.728568 -3.16421 0
M  V30 7092 H 648.099 -2.76281 -4.38051 0
M  V30 7093 H 644.776 -0.190694 -4.17064 0
M  V30 7094 H 646.166 -4.05389 -5.35826 0
M  V30 7095 N 648.886 1.2938 -0.899927 0
M  V30 7096 C 649.818 2.26737 -0.335139 0
M  V30 7097 C 650.831 1.54316 0.518681 0
M  V30 7098 O 652.02 1.75313 0.335803 0
M  V30 7099 C 649.12 3.34558 0.540774 0
M  V30 7100 C 648.293 4.36455 -0.287372 0
M  V30 7101 C 647.352 5.2361 0.52141 0
M  V30 7102 O 646.378 5.69167 -0.0611735 0
M  V30 7103 N 647.58 5.50985 1.82745 0
M  V30 7104 H 650.345 2.75838 -1.17191 0
M  V30 7105 H 647.906 1.42716 -0.764438 0
M  V30 7106 H 649.898 3.89794 1.08825 0
M  V30 7107 H 648.468 2.85272 1.27823 0
M  V30 7108 H 647.688 3.80875 -1.01626 0
M  V30 7109 H 648.976 5.01573 -0.854518 0
M  V30 7110 H 648.374 5.15781 2.32349 0
M  V30 7111 H 646.931 6.09036 2.32204 0
M  V30 7112 N 650.364 0.662433 1.43002 0
M  V30 7113 C 651.612 0.179237 2.01304 0
M  V30 7114 C 651.933 -1.21428 1.52579 0
M  V30 7115 O 651.203 -1.81294 0.742252 0
M  V30 7116 H 649.783 0.0632725 0.744316 0
M  V30 7117 H 652.445 0.856169 1.75088 0
M  V30 7118 H 651.541 0.170957 3.11631 0
M  V30 7119 N 651.842 -1.52309 0.404946 0
M  V30 7120 C 653.07 -2.06185 -0.171818 0
M  V30 7121 C 653.485 -1.27536 -1.39212 0
M  V30 7122 O 652.842 -0.326112 -1.79563 0
M  V30 7123 C 652.893 -3.57647 -0.526417 0
M  V30 7124 O 652.614 -4.3332 0.645417 0
M  V30 7125 C 654.115 -4.27925 -1.15736 0
M  V30 7126 H 651.335 -0.670632 -0.0222328 0
M  V30 7127 H 653.879 -1.96259 0.574692 0
M  V30 7128 H 652.034 -3.67595 -1.22282 0
M  V30 7129 H 652.448 -5.23328 0.35042 0
M  V30 7130 H 653.922 -5.35093 -1.35572 0
M  V30 7131 H 654.399 -3.84134 -2.12926 0
M  V30 7132 H 655.005 -4.22335 -0.501281 0
M  V30 7133 N 653.32 -0.135238 -1.57019 0
M  V30 7134 C 654.569 0.518694 -1.94917 0
M  V30 7135 C 654.882 1.66783 -1.0219 0
M  V30 7136 O 656.088 2.38561 -1.29619 0
M  V30 7137 C 654.544 0.974123 -3.46466 0
M  V30 7138 C 654.152 -0.147439 -4.47757 0
M  V30 7139 C 655.896 1.59851 -3.93253 0
M  V30 7140 C 653.803 0.325599 -5.90503 0
M  V30 7141 H 652.733 0.19754 -0.727663 0
M  V30 7142 H 655.384 -0.217698 -1.82204 0
M  V30 7143 H 653.766 1.76542 -3.5447 0
M  V30 7144 H 654.94 -0.924122 -4.51438 0
M  V30 7145 H 653.255 -0.679496 -4.10818 0
M  V30 7146 H 655.852 1.96385 -4.9733 0
M  V30 7147 H 656.195 2.48306 -3.3414 0
M  V30 7148 H 656.728 0.872323 -3.88118 0
M  V30 7149 H 653.467 -0.523295 -6.53408 0
M  V30 7150 H 652.987 1.06841 -5.90208 0
M  V30 7151 H 654.666 0.781498 -6.42263 0
M  V30 7152 N 654.798 1.5699 0.138552 0
M  V30 7153 C 656.026 1.87976 0.864437 0
M  V30 7154 C 656.441 0.724372 1.74351 0
M  V30 7155 O 655.798 -0.305575 1.79924 0
M  V30 7156 C 655.849 3.18276 1.71414 0
M  V30 7157 O 655.57 4.29365 0.870487 0
M  V30 7158 C 657.071 3.62834 2.54688 0
M  V30 7159 H 654.291 0.622878 0.249528 0
M  V30 7160 H 656.835 2.04094 0.128805 0
M  V30 7161 H 654.99 3.03886 2.40274 0
M  V30 7162 H 655.404 5.03924 1.45466 0
M  V30 7163 H 656.878 4.5682 3.0987 0
M  V30 7164 H 657.355 2.88533 3.31127 0
M  V30 7165 H 657.961 3.79946 1.91105 0
M  V30 7166 N 656.276 -0.40816 1.52223 0
M  V30 7167 C 657.522 -1.15673 1.66576 0
M  V30 7168 C 657.855 -1.90141 0.394996 0
M  V30 7169 O 657.13 -1.84798 -0.606613 0
M  V30 7170 C 657.413 -2.15042 2.88841 0
M  V30 7171 C 657.266 -1.44465 4.25969 0
M  V30 7172 C 658.585 -3.15699 3.0663 0
M  V30 7173 H 655.704 -0.41916 0.606196 0
M  V30 7174 H 658.346 -0.442348 1.84779 0
M  V30 7175 H 656.496 -2.75964 2.73452 0
M  V30 7176 H 658.168 -0.866544 4.53088 0
M  V30 7177 H 656.411 -0.746612 4.27327 0
M  V30 7178 H 657.082 -2.16976 5.07568 0
M  V30 7179 H 659.558 -2.64854 3.20923 0
M  V30 7180 H 658.434 -3.82491 3.9369 0
M  V30 7181 H 658.695 -3.83481 2.19987 0
M  V30 7182 N 657.755 -1.42862 -0.66545 0
M  V30 7183 C 658.703 -1.47319 -1.8 0
M  V30 7184 C 659.697 -0.347963 -1.65788 0
M  V30 7185 O 660.903 -0.521406 -1.72283 0
M  V30 7186 H 657.278 -0.461588 -0.593667 0
M  V30 7187 H 659.249 -2.42876 -1.7336 0
M  V30 7188 C 657.998 -1.40152 -3.18203 0
M  V30 7189 H 657.321 -2.26035 -3.2977 0
M  V30 7190 H 658.761 -1.47331 -3.9758 0
M  V30 7191 C 657.22 -0.117493 -3.36695 0
M  V30 7192 O 657.75 0.826058 -3.93115 0
M  V30 7193 N 655.956 -0.0316218 -2.90583 0
M  V30 7194 H 655.503 -0.800247 -2.44855 0
M  V30 7195 H 655.461 0.826835 -3.03333 0
M  V30 7196 N 659.233 0.902656 -1.29189 0
M  V30 7197 C 660.143 2.03946 -1.15944 0
M  V30 7198 C 661.159 1.738 -0.0833803 0
M  V30 7199 O 662.335 1.9923 -0.29487 0
M  V30 7200 C 659.4 3.36519 -0.834006 0
M  V30 7201 C 658.461 3.80203 -1.9936 0
M  V30 7202 C 657.694 5.06449 -1.68359 0
M  V30 7203 O 657.917 5.67202 -0.603141 0
M  V30 7204 O 656.851 5.46114 -2.53067 0
M  V30 7205 H 660.677 2.18043 -2.11403 0
M  V30 7206 H 658.262 1.02584 -1.08613 0
M  V30 7207 H 660.144 4.16089 -0.666949 0
M  V30 7208 H 658.819 3.23573 0.0908245 0
M  V30 7209 H 657.726 3.01413 -2.21588 0
M  V30 7210 H 659.059 3.97729 -2.89952 0
M  V30 7211 N 660.711 1.11618 1.11262 0
M  V30 7212 C 661.621 0.78898 2.20935 0
M  V30 7213 C 662.637 -0.21867 1.7262 0
M  V30 7214 O 663.813 -0.0543826 2.01327 0
M  V30 7215 C 660.878 0.239014 3.45875 0
M  V30 7216 C 659.939 1.3055 4.08968 0
M  V30 7217 C 659.172 0.781687 5.27944 0
M  V30 7218 O 659.395 -0.387605 5.69082 0
M  V30 7219 O 658.329 1.54734 5.81671 0
M  V30 7220 H 662.155 1.70477 2.51339 0
M  V30 7221 H 659.74 0.892203 1.19834 0
M  V30 7222 H 661.622 -0.0632312 4.21353 0
M  V30 7223 H 660.297 -0.649454 3.17118 0
M  V30 7224 H 659.204 1.66079 3.35214 0
M  V30 7225 H 660.537 2.16743 4.41909 0
M  V30 7226 N 662.189 -1.289 0.906776 0
M  V30 7227 C 663.437 -1.94883 0.535266 0
M  V30 7228 C 663.758 -1.71784 -0.922791 0
M  V30 7229 O 663.028 -1.05359 -1.65156 0
M  V30 7230 H 661.608 -0.721109 0.194962 0
M  V30 7231 H 664.27 -1.57018 1.15461 0
M  V30 7232 H 663.366 -3.03591 0.723821 0
M  V30 7233 N 663.667 -0.670007 -1.42649 0
M  V30 7234 C 664.895 -0.19854 -2.05945 0
M  V30 7235 C 665.31 1.14243 -1.50313 0
M  V30 7236 O 664.667 1.70872 -0.641027 0
M  V30 7237 C 664.718 -0.11966 -3.61302 0
M  V30 7238 O 664.439 -1.40764 -4.1487 0
M  V30 7239 C 665.94 0.375878 -4.41704 0
M  V30 7240 H 663.16 -0.0976894 -0.663851 0
M  V30 7241 H 665.704 -0.915392 -1.82868 0
M  V30 7242 H 663.859 0.547851 -3.83507 0
M  V30 7243 H 664.273 -1.27784 -5.08696 0
M  V30 7244 H 665.747 0.379988 -5.50691 0
M  V30 7245 H 666.224 1.41028 -4.15942 0
M  V30 7246 H 666.83 -0.259727 -4.24506 0
M  V30 7247 N 665.145 1.52092 -0.413018 0
M  V30 7248 C 666.077 2.24819 0.445994 0
M  V30 7249 C 667.09 1.27925 1.00692 0
M  V30 7250 O 668.279 1.53845 0.905204 0
M  V30 7251 C 665.379 2.96951 1.6332 0
M  V30 7252 C 664.552 4.20746 1.19548 0
M  V30 7253 C 663.611 4.75668 2.25003 0
M  V30 7254 O 662.637 5.38148 1.85434 0
M  V30 7255 N 663.839 4.57579 3.57214 0
M  V30 7256 H 666.604 2.99176 -0.177209 0
M  V30 7257 H 664.165 1.60102 -0.240601 0
M  V30 7258 H 666.157 3.30586 2.33441 0
M  V30 7259 H 664.727 2.25756 2.16225 0
M  V30 7260 H 663.947 3.92881 0.32224 0
M  V30 7261 H 665.235 5.01132 0.880033 0
M  V30 7262 H 664.633 4.07758 3.92109 0
M  V30 7263 H 663.19 4.95642 4.23299 0
M  V30 7264 N 666.623 0.143563 1.56945 0
M  V30 7265 C 667.586 -0.783295 2.154 0
M  V30 7266 C 668.586 -1.17763 1.09492 0
M  V30 7267 O 669.776 -1.09912 1.35148 0
M  V30 7268 C 666.908 -2.06248 2.7143 0
M  V30 7269 H 668.101 -0.274863 2.98638 0
M  V30 7270 H 665.654 -0.105859 1.55941 0
M  V30 7271 H 666.389 -2.61466 1.91849 0
M  V30 7272 H 666.174 -1.78897 3.4891 0
M  V30 7273 H 667.664 -2.72453 3.16479 0
M  V30 7274 N 668.101 -1.57061 -0.130224 0
M  V30 7275 C 669.329 -1.88432 -0.854456 0
M  V30 7276 C 669.744 -0.733608 -1.73964 0
M  V30 7277 O 669.101 0.296029 -1.80083 0
M  V30 7278 C 669.152 -3.1918 -1.69724 0
M  V30 7279 O 668.873 -4.2982 -0.847705 0
M  V30 7280 C 670.374 -3.6418 -2.5276 0
M  V30 7281 H 667.594 -0.624193 -0.246221 0
M  V30 7282 H 670.138 -2.04159 -0.11798 0
M  V30 7283 H 668.293 -3.05156 -2.3866 0
M  V30 7284 H 668.707 -5.04689 -1.42792 0
M  V30 7285 H 670.181 -4.58457 -3.07443 0
M  V30 7286 H 670.658 -2.90285 -3.29592 0
M  V30 7287 H 671.264 -3.80954 -1.89087 0
M  V30 7288 N 669.579 0.400081 -1.52437 0
M  V30 7289 C 670.807 1.16768 -1.70801 0
M  V30 7290 C 671.222 1.84036 -0.421462 0
M  V30 7291 O 670.579 1.72242 0.603228 0
M  V30 7292 C 670.63 2.22403 -2.8499 0
M  V30 7293 O 670.351 1.57879 -4.08663 0
M  V30 7294 C 671.852 3.11974 -3.1494 0
M  V30 7295 H 669.072 0.350533 -0.57216 0
M  V30 7296 H 671.616 0.469534 -1.99037 0
M  V30 7297 H 669.771 2.87871 -2.59247 0
M  V30 7298 H 670.185 2.27982 -4.7236 0
M  V30 7299 H 671.659 3.82148 -3.9833 0
M  V30 7300 H 672.136 3.74858 -2.28863 0
M  V30 7301 H 672.742 2.52165 -3.42481 0
M  V30 7302 N 671.057 1.43213 0.657864 0
M  V30 7303 C 672.303 1.44798 1.41991 0
M  V30 7304 C 672.636 0.070256 1.94073 0
M  V30 7305 O 671.911 -0.908177 1.71995 0
M  V30 7306 C 672.194 2.4865 2.60471 0
M  V30 7307 C 672.047 3.95679 2.13911 0
M  V30 7308 C 673.366 2.49292 3.62686 0
M  V30 7309 H 670.485 0.527244 0.514959 0
M  V30 7310 H 673.127 1.74733 0.74621 0
M  V30 7311 H 671.277 2.23254 3.17946 0
M  V30 7312 H 672.949 4.32116 1.61472 0
M  V30 7313 H 671.192 4.08733 1.45325 0
M  V30 7314 H 671.863 4.6395 2.99089 0
M  V30 7315 H 674.339 2.71917 3.14961 0
M  V30 7316 H 673.215 3.23907 4.43143 0
M  V30 7317 H 673.476 1.52502 4.14964 0
M  V30 7318 N 672.536 -0.895792 1.29666 0
M  V30 7319 C 673.764 -1.68001 1.20761 0
M  V30 7320 C 674.179 -1.87379 -0.231187 0
M  V30 7321 O 673.536 -1.41359 -1.15429 0
M  V30 7322 C 673.587 -3.06236 1.92098 0
M  V30 7323 O 673.308 -2.8774 3.30359 0
M  V30 7324 C 674.809 -4.00652 1.89717 0
M  V30 7325 H 672.029 -0.524591 0.418384 0
M  V30 7326 H 674.573 -1.11995 1.71106 0
M  V30 7327 H 672.728 -3.59007 1.45578 0
M  V30 7328 H 673.142 -3.75359 3.66342 0
M  V30 7329 H 674.616 -4.95051 2.44189 0
M  V30 7330 H 675.093 -4.30424 0.873595 0
M  V30 7331 H 675.699 -3.53815 2.35998 0
M  V30 7332 N 674.014 -1.12206 -1.10668 0
M  V30 7333 C 675.242 -0.898635 -1.86366 0
M  V30 7334 C 675.657 0.551991 -1.80551 0
M  V30 7335 O 675.014 1.38152 -1.19249 0
M  V30 7336 C 675.065 -1.36199 -3.34861 0
M  V30 7337 O 674.786 -2.75576 -3.40573 0
M  V30 7338 C 676.287 -1.17515 -4.2744 0
M  V30 7339 H 673.507 -0.321281 -0.589084 0
M  V30 7340 H 676.051 -1.49142 -1.39918 0
M  V30 7341 H 674.206 -0.81249 -3.78784 0
M  V30 7342 H 674.62 -2.95851 -4.33096 0
M  V30 7343 H 676.094 -1.54827 -5.29842 0
M  V30 7344 H 676.571 -0.115486 -4.39048 0
M  V30 7345 H 677.177 -1.71203 -3.89319 0
M  V30 7346 N 675.492 1.28418 -0.913599 0
M  V30 7347 C 676.738 1.9527 -0.547484 0
M  V30 7348 C 677.071 1.71745 0.906486 0
M  V30 7349 O 676.346 1.03834 1.64465 0
M  V30 7350 C 676.629 3.49748 -0.857205 0
M  V30 7351 C 676.482 3.82675 -2.3639 0
M  V30 7352 C 677.801 4.3868 -0.353258 0
M  V30 7353 H 674.92 0.709236 -0.200381 0
M  V30 7354 H 677.562 1.51789 -1.14281 0
M  V30 7355 H 675.712 3.86915 -0.350548 0
M  V30 7356 H 677.384 3.55378 -2.94116 0
M  V30 7357 H 675.627 3.29724 -2.81894 0
M  V30 7358 H 676.298 4.90547 -2.53115 0
M  V30 7359 H 678.774 4.08584 -0.787288 0
M  V30 7360 H 677.65 5.45621 -0.599049 0
M  V30 7361 H 677.911 4.35753 0.746413 0
M  V30 7362 N 676.97 0.677563 1.42291 0
M  V30 7363 C 678.218 0.200578 2.01102 0
M  V30 7364 C 678.539 -1.19803 1.53858 0
M  V30 7365 O 677.809 -1.80496 0.761439 0
M  V30 7366 H 676.389 0.0711634 0.743603 0
M  V30 7367 H 679.051 0.874691 1.7417 0
M  V30 7368 H 678.147 0.204 3.11433 0
M  V30 7369 N 678.448 -1.51871 0.421078 0
M  V30 7370 C 679.695 -2.01938 -0.15079 0
M  V30 7371 C 680.023 -1.30611 -1.44121 0
M  V30 7372 O 679.278 -0.404631 -1.91471 0
M  V30 7373 C 679.577 -3.54764 -0.433292 0
M  V30 7374 C 679.243 -4.44288 0.76936 0
M  V30 7375 C 677.905 -4.68477 1.09921 0
M  V30 7376 C 680.257 -4.96915 1.57242 0
M  V30 7377 C 677.585 -5.4254 2.2331 0
M  V30 7378 C 679.937 -5.7222 2.69716 0
M  V30 7379 C 678.601 -5.94678 3.03174 0
M  V30 7380 H 677.871 -0.738943 -0.0551781 0
M  V30 7381 H 680.518 -1.82977 0.564945 0
M  V30 7382 H 678.823 -3.71968 -1.23074 0
M  V30 7383 H 680.52 -3.91023 -0.888922 0
M  V30 7384 H 677.11 -4.25646 0.502305 0
M  V30 7385 H 681.294 -4.78125 1.3308 0
M  V30 7386 H 676.55 -5.58146 2.49565 0
M  V30 7387 H 680.724 -6.11992 3.32323 0
M  V30 7388 H 678.351 -6.51848 3.9115 0
M  V30 7389 N 679.926 -0.151884 -1.56866 0
M  V30 7390 C 680.859 0.824094 -2.128 0
M  V30 7391 C 681.837 1.2391 -1.05286 0
M  V30 7392 O 683.021 1.33433 -1.33146 0
M  V30 7393 C 680.148 2.1072 -2.65169 0
M  V30 7394 C 679.194 1.83774 -3.84876 0
M  V30 7395 S 680.027 1.02436 -5.25611 0
M  V30 7396 C 681.183 2.31855 -5.81373 0
M  V30 7397 H 681.416 0.348456 -2.95251 0
M  V30 7398 H 678.949 0.0624794 -1.54274 0
M  V30 7399 H 680.907 2.84428 -2.95992 0
M  V30 7400 H 679.568 2.55398 -1.8284 0
M  V30 7401 H 678.761 2.78929 -4.19779 0
M  V30 7402 H 678.363 1.18172 -3.5484 0
M  V30 7403 H 680.655 3.27469 -5.93102 0
M  V30 7404 H 681.598 2.01449 -6.7884 0
M  V30 7405 H 682.006 2.42727 -5.09651 0
M  V30 7406 N 681.404 1.57128 0.121893 0
M  V30 7407 C 682.815 1.73902 0.679348 0
M  V30 7408 C 683.166 0.770135 1.80453 0
M  V30 7409 O 682.291 -0.0576083 2.16323 0
M  V30 7410 C 682.886 3.15328 1.2391 0
M  V30 7411 C 681.445 3.33618 1.74288 0
M  V30 7412 C 680.592 2.6978 0.641414 0
M  V30 7413 H 683.543 1.58359 -0.104 0
M  V30 7414 H 683.564 3.16718 2.10879 0
M  V30 7415 H 683.076 3.85821 0.419957 0
M  V30 7416 H 681.177 2.68162 2.58689 0
M  V30 7417 H 681.29 4.4176 1.85432 0
M  V30 7418 H 679.654 2.30935 1.0743 0
M  V30 7419 H 680.437 3.42895 -0.166707 0
M  V30 7420 N 682.882 -0.391992 1.52647 0
M  V30 7421 C 683.812 -1.48517 1.8018 0
M  V30 7422 C 684.793 -1.57039 0.653667 0
M  V30 7423 O 685.978 -1.72036 0.900962 0
M  V30 7424 C 683.108 -2.86161 1.96797 0
M  V30 7425 C 682.062 -2.92481 3.12472 0
M  V30 7426 C 681.388 -4.32546 3.14338 0
M  V30 7427 C 682.688 -2.624 4.51601 0
M  V30 7428 H 684.382 -1.25726 2.71723 0
M  V30 7429 H 681.928 -0.603387 1.30749 0
M  V30 7430 H 683.881 -3.62639 2.14641 0
M  V30 7431 H 682.605 -3.10283 1.01941 0
M  V30 7432 H 681.264 -2.18451 2.94406 0
M  V30 7433 H 680.912 -4.53703 2.1717 0
M  V30 7434 H 680.612 -4.37695 3.92042 0
M  V30 7435 H 682.136 -5.10934 3.34333 0
M  V30 7436 H 683.55 -3.28596 4.69785 0
M  V30 7437 H 681.947 -2.78903 5.3135 0
M  V30 7438 H 683.017 -1.57754 4.58521 0
M  V30 7439 N 684.36 -1.4356 -0.65026 0
M  V30 7440 C 685.585 -1.48995 -1.44275 0
M  V30 7441 C 686.01 -0.109954 -1.87778 0
M  V30 7442 O 685.368 0.896926 -1.57559 0
M  V30 7443 C 685.416 -2.44341 -2.65198 0
M  V30 7444 O 684.52 -1.93172 -3.6436 0
M  V30 7445 H 683.861 -0.503852 -0.432469 0
M  V30 7446 H 686.391 -1.88504 -0.795446 0
M  V30 7447 H 686.401 -2.61743 -3.12977 0
M  V30 7448 H 685.076 -3.44588 -2.32877 0
M  V30 7449 H 683.653 -1.85445 -3.23519 0
M  V30 7450 N 685.838 0.888903 -1.30139 0
M  V30 7451 C 687.066 1.67358 -1.21651 0
M  V30 7452 C 687.481 1.87499 0.221246 0
M  V30 7453 O 686.838 1.41969 1.14677 0
M  V30 7454 C 686.889 3.05213 -1.93719 0
M  V30 7455 O 686.61 2.85984 -3.31881 0
M  V30 7456 C 688.111 3.9964 -1.9184 0
M  V30 7457 H 685.331 0.522365 -0.42116 0
M  V30 7458 H 687.875 1.11086 -1.71698 0
M  V30 7459 H 686.03 3.5823 -1.4748 0
M  V30 7460 H 686.444 3.73411 -3.68327 0
M  V30 7461 H 687.918 4.93749 -2.46811 0
M  V30 7462 H 688.395 4.29955 -0.896409 0
M  V30 7463 H 689.001 3.52558 -2.37872 0
M  V30 7464 N 687.317 1.12792 1.10072 0
M  V30 7465 C 688.249 0.757003 2.16338 0
M  V30 7466 C 689.262 -0.218144 1.61332 0
M  V30 7467 O 690.451 0.0010727 1.785 0
M  V30 7468 C 687.551 0.100303 3.38752 0
M  V30 7469 C 686.724 1.10586 4.2319 0
M  V30 7470 C 685.783 0.47609 5.24042 0
M  V30 7471 O 684.809 1.13418 5.57786 0
M  V30 7472 N 686.011 -0.754823 5.75572 0
M  V30 7473 H 688.776 1.6714 2.48766 0
M  V30 7474 H 686.337 1.02003 1.25726 0
M  V30 7475 H 688.329 -0.333092 4.03327 0
M  V30 7476 H 686.899 -0.716915 3.04268 0
M  V30 7477 H 686.119 1.71677 3.54853 0
M  V30 7478 H 687.407 1.78571 4.76435 0
M  V30 7479 H 686.805 -1.30838 5.50362 0
M  V30 7480 H 685.362 -1.13098 6.41913 0
M  V30 7481 N 688.795 -1.27931 0.920396 0
M  V30 7482 C 690.041 -1.94977 0.557832 0
M  V30 7483 C 690.374 -1.72224 -0.897365 0
M  V30 7484 O 689.649 -1.04705 -1.63912 0
M  V30 7485 C 689.932 -3.49289 0.875741 0
M  V30 7486 C 689.785 -3.81416 2.38416 0
M  V30 7487 C 691.104 -4.38486 0.376517 0
M  V30 7488 H 688.223 -0.708164 0.20414 0
M  V30 7489 H 690.865 -1.5118 1.15085 0
M  V30 7490 H 689.015 -3.86724 0.371062 0
M  V30 7491 H 690.687 -3.53813 2.95997 0
M  V30 7492 H 688.93 -3.28225 2.83639 0
M  V30 7493 H 689.601 -4.89198 2.55713 0
M  V30 7494 H 692.077 -4.08161 0.808945 0
M  V30 7495 H 690.953 -5.45296 0.627976 0
M  V30 7496 H 691.214 -4.36143 -0.723293 0
M  V30 7497 N 690.273 -0.685099 -1.4193 0
M  V30 7498 C 691.689 -0.355632 -1.55587 0
M  V30 7499 C 691.889 1.13823 -1.66273 0
M  V30 7500 O 690.945 1.92387 -1.63534 0
M  V30 7501 C 692.258 -1.09498 -2.80055 0
M  V30 7502 C 693.806 -1.07831 -2.93839 0
M  V30 7503 C 694.281 -1.79919 -4.21181 0
M  V30 7504 N 695.772 -1.76837 -4.28115 0
M  V30 7505 C 696.507 -2.29463 -5.25485 0
M  V30 7506 N 696.003 -2.90516 -6.28945 0
M  V30 7507 N 697.796 -2.19779 -5.17353 0
M  V30 7508 H 689.947 -1.65412 -1.33239 0
M  V30 7509 H 692.21 -0.697453 -0.642078 0
M  V30 7510 H 691.916 -2.14997 -2.78333 0
M  V30 7511 H 691.79 -0.666813 -3.71259 0
M  V30 7512 H 694.177 -0.0316152 -2.95083 0
M  V30 7513 H 694.258 -1.54545 -2.03837 0
M  V30 7514 H 693.902 -2.84562 -4.20698 0
M  V30 7515 H 693.832 -1.30647 -5.10136 0
M  V30 7516 H 696.323 -1.32315 -3.53979 0
M  V30 7517 H 696.636 -3.28266 -6.99615 0
M  V30 7518 H 694.981 -2.94589 -6.29478 0
M  V30 7519 H 698.172 -1.71763 -4.35448 0
M  V30 7520 H 698.345 -2.61097 -5.9307 0
M  V30 7521 N 691.751 1.51645 -0.429126 0
M  V30 7522 C 692.998 2.02015 0.140079 0
M  V30 7523 C 693.326 1.31374 1.43427 0
M  V30 7524 O 692.581 0.414779 1.91254 0
M  V30 7525 C 692.88 3.54989 0.414472 0
M  V30 7526 C 692.546 4.43874 -0.792911 0
M  V30 7527 C 691.208 4.67887 -1.12404 0
M  V30 7528 C 693.56 4.96074 -1.59875 0
M  V30 7529 C 690.888 5.41348 -2.26184 0
M  V30 7530 C 693.24 5.70782 -2.72747 0
M  V30 7531 C 691.904 5.93062 -3.06324 0
M  V30 7532 H 691.174 0.739225 0.0512585 0
M  V30 7533 H 693.821 1.82675 -0.574641 0
M  V30 7534 H 692.126 3.72615 1.21099 0
M  V30 7535 H 693.823 3.91489 0.868173 0
M  V30 7536 H 690.413 4.25374 -0.524871 0
M  V30 7537 H 694.597 4.77412 -1.35614 0
M  V30 7538 H 689.853 5.56815 -2.52522 0
M  V30 7539 H 694.027 6.10221 -3.35564 0
M  V30 7540 H 691.654 6.49764 -3.94602 0
M  V30 7541 N 693.229 0.160201 1.56784 0
M  V30 7542 C 694.457 -0.494165 2.00912 0
M  V30 7543 C 694.872 -1.57548 1.04038 0
M  V30 7544 O 694.229 -1.82457 0.0394581 0
M  V30 7545 C 694.28 -1.08271 3.44905 0
M  V30 7546 O 694.001 -0.0445704 4.38077 0
M  V30 7547 C 695.502 -1.8164 4.04378 0
M  V30 7548 H 692.722 -0.127498 0.658776 0
M  V30 7549 H 695.266 0.258665 2.02858 0
M  V30 7550 H 693.421 -1.78609 3.4377 0
M  V30 7551 H 693.835 -0.477544 5.22322 0
M  V30 7552 H 695.309 -2.18094 5.07089 0
M  V30 7553 H 695.786 -2.70727 3.45838 0
M  V30 7554 H 696.392 -1.15969 4.09184 0
M  V30 7555 N 694.707 -1.5719 -0.113559 0
M  V30 7556 C 695.953 -1.85412 -0.821597 0
M  V30 7557 C 696.286 -0.746722 -1.7927 0
M  V30 7558 O 695.561 0.246971 -1.92926 0
M  V30 7559 C 695.844 -3.24233 -1.56669 0
M  V30 7560 C 695.697 -4.45578 -0.614823 0
M  V30 7561 C 697.016 -3.60697 -2.52161 0
M  V30 7562 H 694.135 -0.674406 -0.29723 0
M  V30 7563 H 696.777 -1.89807 -0.085694 0
M  V30 7564 H 694.927 -3.20617 -2.19401 0
M  V30 7565 H 696.599 -4.613 0.00407137 0
M  V30 7566 H 694.842 -4.33738 0.0732332 0
M  V30 7567 H 695.513 -5.39395 -1.17292 0
M  V30 7568 H 697.989 -3.65139 -1.99532 0
M  V30 7569 H 696.865 -4.58798 -3.01323 0
M  V30 7570 H 697.126 -2.88403 -3.35076 0
M  V30 7571 N 696.185 0.383891 -1.52853 0
M  V30 7572 C 697.462 1.14296 -1.58732 0
M  V30 7573 C 697.842 2.07585 -0.383611 0
M  V30 7574 O 697.19 2.1971 0.627661 0
M  V30 7575 C 697.4 1.89816 -2.92867 0
M  V30 7576 C 698.748 2.44998 -3.46787 0
M  V30 7577 O 699.772 1.99966 -2.94774 0
M  V30 7578 O 698.631 3.2727 -4.37672 0
M  V30 7579 H 695.725 0.52326 -0.640413 0
M  V30 7580 H 698.271 0.388631 -1.6519 0
M  V30 7581 H 697.043 1.21626 -3.71918 0
M  V30 7582 H 696.666 2.72199 -2.89816 0
M  V30 7583 N 697.663 1.43903 0.642637 0
M  V30 7584 C 699.079 1.27536 0.959519 0
M  V30 7585 C 699.279 0.202751 2.00477 0
M  V30 7586 O 698.335 -0.415256 2.49062 0
M  V30 7587 C 699.648 2.6432 1.43372 0
M  V30 7588 C 701.196 2.71937 1.54981 0
M  V30 7589 C 701.671 4.09164 2.05789 0
M  V30 7590 N 703.162 4.11282 2.13076 0
M  V30 7591 C 703.897 5.14303 2.53534 0
M  V30 7592 N 703.393 6.27693 2.93212 0
M  V30 7593 N 705.186 5.01657 2.53567 0
M  V30 7594 H 697.337 2.12344 -0.0488376 0
M  V30 7595 H 699.6 0.947124 0.0407559 0
M  V30 7596 H 699.306 3.43826 0.740048 0
M  V30 7597 H 699.18 2.90432 2.40685 0
M  V30 7598 H 701.567 1.92757 2.23448 0
M  V30 7599 H 701.648 2.49578 0.560739 0
M  V30 7600 H 701.292 4.88815 1.37921 0
M  V30 7601 H 701.222 4.28893 3.05546 0
M  V30 7602 H 703.713 3.2944 1.85143 0
M  V30 7603 H 704.026 7.02125 3.22863 0
M  V30 7604 H 702.371 6.31149 2.90991 0
M  V30 7605 H 705.562 4.12134 2.21952 0
M  V30 7606 H 705.735 5.82072 2.84774 0
M  V30 7607 N 699.141 -0.881989 1.30609 0
M  V30 7608 C 700.552 -1.44956 1.17664 0
M  V30 7609 C 700.903 -1.94945 -0.221531 0
M  V30 7610 O 700.028 -1.85257 -1.11844 0
M  V30 7611 C 700.623 -2.63474 2.12995 0
M  V30 7612 C 699.182 -3.16312 2.04019 0
M  V30 7613 C 698.329 -1.89008 2.02907 0
M  V30 7614 H 701.28 -0.691645 1.42835 0
M  V30 7615 H 701.301 -3.39783 1.71253 0
M  V30 7616 H 700.813 -2.2706 3.14746 0
M  V30 7617 H 698.914 -3.57376 1.0542 0
M  V30 7618 H 699.027 -3.79409 2.9255 0
M  V30 7619 H 697.391 -2.07465 1.47751 0
M  V30 7620 H 698.174 -1.54848 3.06394 0
M  V30 7621 N 700.619 -1.13374 -1.09472 0
M  V30 7622 C 701.866 -0.89519 -1.81639 0
M  V30 7623 C 702.194 0.57868 -1.85692 0
M  V30 7624 O 701.449 1.44426 -1.32059 0
M  V30 7625 C 701.748 -1.42759 -3.2765 0
M  V30 7626 C 701.414 -2.91822 -3.43731 0
M  V30 7627 C 700.076 -3.32521 -3.47827 0
M  V30 7628 C 702.428 -3.87727 -3.48307 0
M  V30 7629 C 699.756 -4.6781 -3.54078 0
M  V30 7630 C 702.108 -5.22859 -3.56091 0
M  V30 7631 C 700.772 -5.63086 -3.58456 0
M  V30 7632 H 700.042 -0.327573 -0.664663 0
M  V30 7633 H 702.689 -1.4156 -1.28969 0
M  V30 7634 H 700.994 -0.827871 -3.82954 0
M  V30 7635 H 702.691 -1.2191 -3.8202 0
M  V30 7636 H 699.281 -2.5935 -3.41226 0
M  V30 7637 H 703.465 -3.57371 -3.44383 0
M  V30 7638 H 698.721 -4.98353 -3.54195 0
M  V30 7639 H 702.895 -5.96989 -3.58577 0
M  V30 7640 H 700.522 -6.67905 -3.63052 0
M  V30 7641 N 702.098 1.27442 -0.927168 0
M  V30 7642 C 703.028 2.29256 -0.443188 0
M  V30 7643 C 704.009 1.62701 0.49624 0
M  V30 7644 O 705.194 1.90013 0.401105 0
M  V30 7645 C 702.324 3.45955 0.305366 0
M  V30 7646 C 701.278 4.24501 -0.546178 0
M  V30 7647 C 700.604 5.33671 0.331512 0
M  V30 7648 C 701.904 4.89921 -1.81037 0
M  V30 7649 H 703.598 2.69988 -1.29409 0
M  V30 7650 H 701.144 1.29792 -0.623705 0
M  V30 7651 H 703.097 4.1628 0.654885 0
M  V30 7652 H 701.821 3.04138 1.19029 0
M  V30 7653 H 700.48 3.55921 -0.878398 0
M  V30 7654 H 700.128 4.88096 1.21537 0
M  V30 7655 H 699.828 5.87131 -0.234746 0
M  V30 7656 H 701.352 6.0684 0.676614 0
M  V30 7657 H 702.766 5.52536 -1.52895 0
M  V30 7658 H 701.163 5.53436 -2.32009 0
M  V30 7659 H 702.233 4.13652 -2.53021 0
M  V30 7660 N 703.576 0.692616 1.41565 0
M  V30 7661 C 704.823 0.222335 2.01276 0
M  V30 7662 C 705.151 -1.17706 1.5484 0
M  V30 7663 O 704.406 -1.80795 0.749118 0
M  V30 7664 C 704.705 0.225073 3.56691 0
M  V30 7665 C 704.371 1.57158 4.22625 0
M  V30 7666 C 703.033 1.94022 4.40351 0
M  V30 7667 C 705.385 2.45758 4.59622 0
M  V30 7668 C 702.713 3.19076 4.92349 0
M  V30 7669 C 705.065 3.70141 5.13009 0
M  V30 7670 C 703.729 4.07152 5.28946 0
M  V30 7671 H 702.999 0.0813581 0.73652 0
M  V30 7672 H 705.646 0.891123 1.69503 0
M  V30 7673 H 703.951 -0.527259 3.88236 0
M  V30 7674 H 705.648 -0.156283 4.00695 0
M  V30 7675 H 702.238 1.27486 4.09201 0
M  V30 7676 H 706.422 2.18558 4.45585 0
M  V30 7677 H 701.678 3.4775 5.02872 0
M  V30 7678 H 705.852 4.38983 5.40617 0
M  V30 7679 H 703.479 5.04125 5.69001 0
M  V30 7680 N 705.054 -1.51416 0.437162 0
M  V30 7681 C 705.984 -2.30631 -0.364922 0
M  V30 7682 C 706.965 -1.36037 -1.02118 0
M  V30 7683 O 708.15 -1.64956 -1.02485 0
M  V30 7684 C 705.28 -3.1482 -1.46648 0
M  V30 7685 C 704.234 -4.17691 -0.933717 0
M  V30 7686 C 703.56 -4.904 -2.13101 0
M  V30 7687 C 704.86 -5.2229 0.0317201 0
M  V30 7688 H 706.554 -2.97932 0.29614 0
M  V30 7689 H 704.1 -1.4328 0.143865 0
M  V30 7690 H 706.053 -3.69017 -2.03481 0
M  V30 7691 H 704.777 -2.4534 -2.15583 0
M  V30 7692 H 703.436 -3.64545 -0.387602 0
M  V30 7693 H 703.084 -4.17423 -2.80654 0
M  V30 7694 H 702.784 -5.59962 -1.78092 0
M  V30 7695 H 704.308 -5.4742 -2.70487 0
M  V30 7696 H 705.722 -5.7156 -0.446302 0
M  V30 7697 H 704.119 -5.99378 0.29437 0
M  V30 7698 H 705.189 -4.75131 0.968447 0
M  V30 7699 N 706.532 -0.168513 -1.56696 0
M  V30 7700 C 707.781 0.477233 -1.95973 0
M  V30 7701 C 708.094 1.64578 -1.05704 0
M  V30 7702 O 709.3 2.35758 -1.3465 0
M  V30 7703 C 707.756 0.900413 -3.48455 0
M  V30 7704 C 707.364 -0.242382 -4.47344 0
M  V30 7705 C 709.108 1.51474 -3.96555 0
M  V30 7706 C 707.015 0.200272 -5.91061 0
M  V30 7707 H 705.945 0.182061 -0.73169 0
M  V30 7708 H 708.596 -0.256297 -1.81701 0
M  V30 7709 H 706.978 1.68984 -3.58135 0
M  V30 7710 H 708.152 -1.01967 -4.49377 0
M  V30 7711 H 706.467 -0.766484 -4.09285 0
M  V30 7712 H 709.064 1.85792 -5.01384 0
M  V30 7713 H 709.407 2.41163 -3.39332 0
M  V30 7714 H 709.94 0.789802 -3.89881 0
M  V30 7715 H 706.679 -0.661775 -6.52151 0
M  V30 7716 H 706.199 0.942979 -5.92341 0
M  V30 7717 H 707.878 0.645088 -6.43776 0
M  V30 7718 N 708.01 1.57248 0.105221 0
M  V30 7719 C 709.24 1.89492 0.823175 0
M  V30 7720 C 709.648 0.75934 1.73294 0
M  V30 7721 O 708.991 -0.278182 1.81581 0
M  V30 7722 C 709.053 3.16891 1.69765 0
M  V30 7723 C 708.717 4.46787 0.960769 0
M  V30 7724 C 709.714 5.19061 0.295218 0
M  V30 7725 C 707.399 4.93467 0.937854 0
M  V30 7726 C 709.393 6.36246 -0.383393 0
M  V30 7727 C 707.08 6.10566 0.255452 0
M  V30 7728 C 708.078 6.81804 -0.404003 0
M  V30 7729 O 707.766 7.96673 -1.07549 0
M  V30 7730 H 707.498 0.631512 0.24118 0
M  V30 7731 H 710.052 2.05203 0.0899655 0
M  V30 7732 H 708.282 2.973 2.47285 0
M  V30 7733 H 709.971 3.35046 2.29126 0
M  V30 7734 H 710.737 4.84044 0.304448 0
M  V30 7735 H 706.616 4.37913 1.44058 0
M  V30 7736 H 710.16 6.91787 -0.898696 0
M  V30 7737 H 706.057 6.45039 0.244032 0
M  V30 7738 H 706.825 8.12596 -0.981355 0
M  V30 7739 N 709.488 -0.375779 1.53054 0
M  V30 7740 C 710.398 -1.48381 1.81715 0
M  V30 7741 C 711.414 -1.59087 0.704795 0
M  V30 7742 O 712.59 -1.75174 0.993785 0
M  V30 7743 C 709.655 -2.83767 1.99192 0
M  V30 7744 C 708.716 -2.82673 3.23102 0
M  V30 7745 C 707.949 -4.11601 3.39736 0
M  V30 7746 O 708.172 -5.07243 2.60885 0
M  V30 7747 O 707.106 -4.18034 4.33049 0
M  V30 7748 H 710.932 -1.27089 2.7583 0
M  V30 7749 H 708.517 -0.564902 1.38308 0
M  V30 7750 H 710.399 -3.64004 2.12318 0
M  V30 7751 H 709.074 -3.05057 1.08267 0
M  V30 7752 H 707.981 -2.0117 3.15407 0
M  V30 7753 H 709.314 -2.66335 4.13916 0
M  V30 7754 N 710.966 -1.44241 -0.634997 0
M  V30 7755 C 711.916 -1.47247 -1.74076 0
M  V30 7756 C 712.9 -0.338708 -1.57295 0
M  V30 7757 O 714.092 -0.583751 -1.67097 0
M  V30 7758 C 711.221 -1.41579 -3.12746 0
M  V30 7759 C 710.307 -2.60055 -3.35011 0
M  V30 7760 N 710.698 -3.85321 -3.27661 0
M  V30 7761 C 708.996 -2.55168 -3.65794 0
M  V30 7762 C 709.697 -4.64241 -3.50508 0
M  V30 7763 N 708.673 -3.95254 -3.73196 0
M  V30 7764 H 712.475 -2.4195 -1.66845 0
M  V30 7765 H 709.989 -1.3915 -0.837326 0
M  V30 7766 H 711.986 -1.41816 -3.92038 0
M  V30 7767 H 710.646 -0.479108 -3.21146 0
M  V30 7768 H 711.657 -4.17345 -3.06665 0
M  V30 7769 H 708.334 -1.70276 -3.81198 0
M  V30 7770 H 709.724 -5.73267 -3.50449 0
M  V30 7771 N 712.444 0.87505 -1.31075 0
M  V30 7772 C 713.86 1.15997 -1.09622 0
M  V30 7773 C 714.06 2.01036 0.136611 0
M  V30 7774 O 713.116 2.38559 0.827397 0
M  V30 7775 C 714.429 1.85702 -2.36506 0
M  V30 7776 C 715.977 1.98425 -2.42067 0
M  V30 7777 C 716.452 2.71544 -3.68819 0
M  V30 7778 N 717.943 2.79084 -3.69684 0
M  V30 7779 C 718.678 3.36259 -4.64454 0
M  V30 7780 N 718.174 3.94406 -5.69575 0
M  V30 7781 N 719.967 3.34169 -4.51982 0
M  V30 7782 H 712.118 0.308258 -2.10151 0
M  V30 7783 H 714.381 0.199145 -0.926847 0
M  V30 7784 H 714.087 1.30663 -3.26527 0
M  V30 7785 H 713.961 2.86017 -2.45915 0
M  V30 7786 H 716.348 2.5263 -1.52518 0
M  V30 7787 H 716.429 0.971682 -2.36626 0
M  V30 7788 H 716.073 2.18008 -4.58732 0
M  V30 7789 H 716.003 3.73198 -3.71525 0
M  V30 7790 H 718.494 2.3781 -2.93691 0
M  V30 7791 H 718.807 4.36129 -6.37974 0
M  V30 7792 H 717.152 3.92797 -5.73355 0
M  V30 7793 H 720.343 2.87977 -3.69035 0
M  V30 7794 H 720.516 3.78431 -5.26017 0
M  V30 7795 N 713.922 1.13953 1.08869 0
M  V30 7796 C 715.15 0.92817 1.84912 0
M  V30 7797 C 715.565 -0.523197 1.81406 0
M  V30 7798 O 714.922 -1.36237 1.21432 0
M  V30 7799 C 714.973 1.41509 3.32652 0
M  V30 7800 O 714.694 2.80959 3.36145 0
M  V30 7801 C 716.195 1.243 4.25517 0
M  V30 7802 H 713.415 0.330612 0.583898 0
M  V30 7803 H 715.959 1.51349 1.37527 0
M  V30 7804 H 714.114 0.872648 3.77444 0
M  V30 7805 H 714.528 3.02704 4.28335 0
M  V30 7806 H 716.002 1.63237 5.27312 0
M  V30 7807 H 716.479 0.18532 4.38809 0
M  V30 7808 H 717.085 1.77375 3.86546 0
M  V30 7809 N 715.4 -1.26948 0.933913 0
M  V30 7810 C 716.625 -1.98724 0.593589 0
M  V30 7811 C 717.05 -1.6915 -0.822801 0
M  V30 7812 O 716.408 -0.93533 -1.5531 0
M  V30 7813 C 716.456 -3.50834 0.833542 0
M  V30 7814 O 715.56 -4.12284 -0.0978788 0
M  V30 7815 H 714.901 -0.623683 0.227849 0
M  V30 7816 H 717.431 -1.61599 1.25486 0
M  V30 7817 H 717.441 -4.01018 0.75156 0
M  V30 7818 H 716.116 -3.71691 1.86597 0
M  V30 7819 H 714.693 -3.72884 0.0345443 0
M  V30 7820 N 716.879 -0.700114 -1.41195 0
M  V30 7821 C 718.119 -0.237223 -2.03019 0
M  V30 7822 C 718.483 1.14304 -1.54268 0
M  V30 7823 O 719.684 1.70204 -2.08048 0
M  V30 7824 C 717.955 -0.297442 -3.5616 0
M  V30 7825 S 719.514 0.0907367 -4.38706 0
M  V30 7826 H 716.332 -0.0952147 -0.704596 0
M  V30 7827 H 718.934 -0.918901 -1.72559 0
M  V30 7828 H 717.638 -1.30391 -3.89135 0
M  V30 7829 H 717.169 0.403233 -3.91328 0
M  V30 7830 H 719.184 1.31721 -4.78397 0
M  V30 7831 N 718.357 1.51182 -0.445186 0
M  V30 7832 C 719.287 2.30821 0.352686 0
M  V30 7833 C 720.268 1.36576 1.01395 0
M  V30 7834 O 721.453 1.65497 1.01609 0
M  V30 7835 C 718.583 3.15593 1.44976 0
M  V30 7836 C 717.537 4.1818 0.911553 0
M  V30 7837 C 716.863 4.91523 2.10497 0
M  V30 7838 C 718.163 5.22266 -0.059418 0
M  V30 7839 H 719.857 2.97771 -0.311936 0
M  V30 7840 H 717.403 1.43201 -0.151461 0
M  V30 7841 H 719.356 3.70091 2.01521 0
M  V30 7842 H 718.08 2.4648 2.14278 0
M  V30 7843 H 716.739 3.64746 0.368264 0
M  V30 7844 H 716.387 4.18906 2.78437 0
M  V30 7845 H 716.087 5.60898 1.7512 0
M  V30 7846 H 717.611 5.48847 2.6758 0
M  V30 7847 H 719.025 5.71789 0.415985 0
M  V30 7848 H 717.422 5.99213 -0.326152 0
M  V30 7849 H 718.492 4.7461 -0.993631 0
M  V30 7850 N 719.835 0.176821 1.56605 0
M  V30 7851 C 720.765 -0.746841 2.21234 0
M  V30 7852 C 721.746 -1.23502 1.16967 0
M  V30 7853 O 722.931 -1.28718 1.45414 0
M  V30 7854 C 720.061 -1.97407 2.8574 0
M  V30 7855 C 719.015 -1.62153 3.96094 0
M  V30 7856 C 718.341 -2.92387 4.47676 0
M  V30 7857 C 719.641 -0.845353 5.15413 0
M  V30 7858 H 721.335 -0.208116 2.98676 0
M  V30 7859 H 718.881 -0.0986594 1.43662 0
M  V30 7860 H 720.834 -2.62531 3.2963 0
M  V30 7861 H 719.558 -2.53703 2.05676 0
M  V30 7862 H 718.217 -0.993964 3.52868 0
M  V30 7863 H 717.865 -3.46734 3.64396 0
M  V30 7864 H 717.565 -2.69551 5.22127 0
M  V30 7865 H 719.089 -3.5853 4.94255 0
M  V30 7866 H 720.503 -1.39929 5.55961 0
M  V30 7867 H 718.9 -0.715814 5.95815 0
M  V30 7868 H 719.97 0.157239 4.84645 0
M  V30 7869 N 721.313 -1.57302 -0.09688 0
M  V30 7870 C 722.56 -1.85997 -0.800699 0
M  V30 7871 C 722.888 -0.765089 -1.7882 0
M  V30 7872 O 722.143 0.241492 -1.94204 0
M  V30 7873 C 722.442 -3.21272 -1.56586 0
M  V30 7874 C 722.108 -4.45104 -0.72064 0
M  V30 7875 C 720.77 -4.78723 -0.487632 0
M  V30 7876 C 723.122 -5.2103 -0.132948 0
M  V30 7877 C 720.45 -5.85697 0.34296 0
M  V30 7878 C 722.802 -6.28881 0.684957 0
M  V30 7879 C 721.466 -6.61017 0.928073 0
M  V30 7880 H 720.736 -0.680613 -0.292997 0
M  V30 7881 H 723.383 -1.91399 -0.0622474 0
M  V30 7882 H 721.688 -3.11547 -2.37583 0
M  V30 7883 H 723.385 -3.40702 -2.11478 0
M  V30 7884 H 719.975 -4.18777 -0.912359 0
M  V30 7885 H 724.159 -4.95392 -0.300132 0
M  V30 7886 H 719.415 -6.09008 0.540317 0
M  V30 7887 H 723.589 -6.86886 1.14721 0
M  V30 7888 H 721.216 -7.43738 1.57348 0
M  V30 7889 N 722.791 0.367657 -1.53252 0
M  V30 7890 C 723.724 1.47264 -1.74323 0
M  V30 7891 C 724.702 1.51458 -0.591535 0
M  V30 7892 O 725.886 1.69542 -0.823883 0
M  V30 7893 C 723.013 2.85637 -1.82015 0
M  V30 7894 C 722.059 2.99176 -3.03967 0
M  V30 7895 S 722.892 2.68147 -4.63527 0
M  V30 7896 C 724.048 4.08673 -4.74065 0
M  V30 7897 H 724.281 1.29169 -2.67773 0
M  V30 7898 H 721.814 0.561866 -1.43814 0
M  V30 7899 H 723.772 3.65365 -1.87132 0
M  V30 7900 H 722.433 3.01043 -0.896195 0
M  V30 7901 H 721.626 4.00511 -3.05953 0
M  V30 7902 H 721.228 2.27367 -2.96952 0
M  V30 7903 H 723.52 5.02889 -4.53992 0
M  V30 7904 H 724.463 4.11693 -5.7612 0
M  V30 7905 H 724.871 3.95576 -4.02716 0
M  V30 7906 N 724.269 1.44576 0.627338 0
M  V30 7907 C 725.517 1.47267 1.38408 0
M  V30 7908 C 725.838 0.107971 1.94701 0
M  V30 7909 O 725.108 -0.860206 1.76004 0
M  V30 7910 H 723.688 0.542276 0.513756 0
M  V30 7911 H 726.35 1.80383 0.738099 0
M  V30 7912 H 725.446 2.20025 2.21349 0
M  V30 7913 N 725.747 -0.868086 1.31537 0
M  V30 7914 C 727.163 -1.15414 1.10235 0
M  V30 7915 C 727.363 -2.01106 -0.125947 0
M  V30 7916 O 726.419 -2.38994 -0.814734 0
M  V30 7917 C 727.732 -1.84445 2.37488 0
M  V30 7918 C 729.28 -1.97139 2.43116 0
M  V30 7919 C 729.755 -2.69585 3.70254 0
M  V30 7920 N 731.246 -2.77119 3.71159 0
M  V30 7921 C 731.981 -3.33791 4.6623 0
M  V30 7922 N 731.477 -3.9138 5.71659 0
M  V30 7923 N 733.27 -3.31767 4.53747 0
M  V30 7924 H 725.421 -0.297109 2.10312 0
M  V30 7925 H 727.684 -0.194227 0.92789 0
M  V30 7926 H 727.39 -1.2893 3.27215 0
M  V30 7927 H 727.264 -2.84709 2.47428 0
M  V30 7928 H 729.651 -2.51818 1.53856 0
M  V30 7929 H 729.732 -0.95912 2.37138 0
M  V30 7930 H 729.376 -2.15572 4.59881 0
M  V30 7931 H 729.306 -3.71223 3.73499 0
M  V30 7932 H 731.797 -2.3625 2.94948 0
M  V30 7933 H 732.11 -4.3274 6.40278 0
M  V30 7934 H 730.455 -3.8975 5.7543 0
M  V30 7935 H 733.646 -2.86016 3.70557 0
M  V30 7936 H 733.819 -3.75636 5.28017 0
M  V30 7937 N 727.225 -1.14528 -1.08264 0
M  V30 7938 C 728.471 -0.91576 -1.80947 0
M  V30 7939 C 728.804 0.55623 -1.86064 0
M  V30 7940 O 728.079 1.41207 -1.33756 0
M  V30 7941 C 728.362 -1.51917 -3.26486 0
M  V30 7942 C 728.215 -3.06111 -3.2957 0
M  V30 7943 C 729.534 -1.19724 -4.23502 0
M  V30 7944 H 726.653 -0.334113 -0.656915 0
M  V30 7945 H 729.295 -1.41547 -1.26746 0
M  V30 7946 H 727.445 -1.0942 -3.72773 0
M  V30 7947 H 729.117 -3.57448 -2.91597 0
M  V30 7948 H 727.36 -3.40483 -2.688 0
M  V30 7949 H 728.031 -3.43438 -4.32151 0
M  V30 7950 H 730.507 -1.56467 -3.85561 0
M  V30 7951 H 729.383 -1.64575 -5.23647 0
M  V30 7952 H 729.644 -0.112771 -4.41956 0
M  V30 7953 N 728.703 1.26451 -0.940633 0
M  V30 7954 C 729.666 2.24651 -0.454378 0
M  V30 7955 C 730.666 1.54826 0.434222 0
M  V30 7956 O 731.856 1.72628 0.233477 0
M  V30 7957 C 728.988 3.39148 0.345192 0
M  V30 7958 H 730.181 2.69182 -1.32217 0
M  V30 7959 H 727.734 1.38596 -0.722547 0
M  V30 7960 H 728.469 3.00018 1.23125 0
M  V30 7961 H 728.254 3.9101 -0.292107 0
M  V30 7962 H 729.744 4.12103 0.675341 0
M  V30 7963 N 730.181 0.707592 1.40822 0
M  V30 7964 C 731.129 0.0386643 2.32568 0
M  V30 7965 C 732.123 -0.755653 1.51612 0
M  V30 7966 O 733.329 -0.659921 1.67467 0
M  V30 7967 H 729.704 -0.00629912 0.751974 0
M  V30 7968 H 731.675 0.8293 2.86645 0
M  V30 7969 C 730.424 -0.87496 3.36511 0
M  V30 7970 H 729.747 -0.273157 3.98866 0
M  V30 7971 H 731.187 -1.31111 4.03219 0
M  V30 7972 C 729.646 -1.99672 2.71353 0
M  V30 7973 O 730.176 -3.08676 2.57064 0
M  V30 7974 N 728.382 -1.77799 2.29861 0
M  V30 7975 H 727.929 -0.89147 2.41683 0
M  V30 7976 H 727.887 -2.53036 1.86601 0
M  V30 7977 N 731.66 -1.50943 0.453197 0
M  V30 7978 C 733.071 -1.86699 -0.00619892 0
M  V30 7979 C 733.422 -1.3693 -1.40515 0
M  V30 7980 O 732.547 -0.726715 -2.03833 0
M  V30 7981 C 733.142 -3.38795 -0.018025 0
M  V30 7982 C 731.701 -3.74028 -0.421885 0
M  V30 7983 C 730.848 -2.74752 0.375087 0
M  V30 7984 H 733.799 -1.43942 0.668317 0
M  V30 7985 H 733.82 -3.71468 -0.824125 0
M  V30 7986 H 733.332 -3.74988 1.00028 0
M  V30 7987 H 731.433 -3.43431 -1.44521 0
M  V30 7988 H 731.546 -4.78908 -0.135664 0
M  V30 7989 H 729.91 -2.5414 -0.168794 0
M  V30 7990 H 730.693 -3.13787 1.39256 0
M  V30 7991 N 733.138 -0.185124 -1.56509 0
M  V30 7992 C 734.363 0.465278 -2.02114 0
M  V30 7993 C 734.788 1.55083 -1.06447 0
M  V30 7994 O 734.146 1.81241 -0.0462852 0
M  V30 7995 C 734.194 1.00784 -3.46229 0
M  V30 7996 O 733.298 2.12123 -3.53663 0
M  V30 7997 H 732.639 0.109891 -0.654843 0
M  V30 7998 H 735.169 -0.293072 -2.0249 0
M  V30 7999 H 735.179 1.32697 -3.85818 0
M  V30 8000 H 733.854 0.213113 -4.15354 0
M  V30 8001 H 732.431 1.8115 -3.25943 0
M  V30 8002 N 734.616 1.57351 0.0885366 0
M  V30 8003 C 736.032 1.53331 0.442916 0
M  V30 8004 C 736.232 0.902831 1.80142 0
M  V30 8005 O 735.288 0.498147 2.47537 0
M  V30 8006 C 736.601 2.98036 0.399372 0
M  V30 8007 C 738.149 3.09286 0.480759 0
M  V30 8008 C 738.624 4.5561 0.467296 0
M  V30 8009 N 740.115 4.60182 0.52786 0
M  V30 8010 C 740.85 5.70857 0.539388 0
M  V30 8011 N 740.346 6.90944 0.506729 0
M  V30 8012 N 742.139 5.59051 0.584691 0
M  V30 8013 H 734.29 1.96709 -0.801215 0
M  V30 8014 H 736.553 0.899639 -0.298922 0
M  V30 8015 H 736.259 3.47656 -0.531806 0
M  V30 8016 H 736.133 3.57066 1.21589 0
M  V30 8017 H 738.52 2.5965 1.40236 0
M  V30 8018 H 738.601 2.53197 -0.364023 0
M  V30 8019 H 738.245 5.05899 -0.450384 0
M  V30 8020 H 738.175 5.09544 1.32938 0
M  V30 8021 H 740.666 3.73757 0.558028 0
M  V30 8022 H 740.979 7.71055 0.518989 0
M  V30 8023 H 739.324 6.93384 0.473675 0
M  V30 8024 H 742.515 4.64138 0.607781 0
M  V30 8025 H 742.688 6.45307 0.590206 0
M  V30 8026 N 736.094 -0.359525 1.53444 0
M  V30 8027 C 737.319 -1.12644 1.74144 0
M  V30 8028 C 737.744 -1.82082 0.472007 0
M  V30 8029 O 737.102 -1.71962 -0.57436 0
M  V30 8030 C 737.15 -2.12781 2.9113 0
M  V30 8031 O 736.254 -3.19984 2.60162 0
M  V30 8032 H 735.595 -0.326553 0.578152 0
M  V30 8033 H 738.125 -0.414798 2.00351 0
M  V30 8034 H 738.135 -2.56278 3.17467 0
M  V30 8035 H 736.81 -1.61634 3.83207 0
M  V30 8036 H 735.387 -2.81417 2.44661 0
M  V30 8037 O 737.611 -1.53385 -0.505502 0
M  V30 8038 H 738.302 -1.55093 -1.16042 0
M  V30 END ATOM
M  V30 BEGIN BOND
M  V30 END BOND
M  V30 END CTAB
M  END
$$$$
