drugbank_target|P05695 Porin P (DB04233)
 OpenBabel12092120443D

  0  0  0     0  0            999 V3000
M  V30 BEGIN CTAB
M  V30 COUNTS 6663 6733 0 0 0
M  V30 BEGIN ATOM
M  V30 1 H -0.908 1.98254 -0.117106 0
M  V30 2 N 0 1.576 0 0
M  V30 3 C 0.933 2.03868 1.02534 0
M  V30 4 C 1.911 0.928543 1.3348 0
M  V30 5 O 3.095 1.19667 1.45644 0
M  V30 6 C 0.222 2.43627 2.35294 0
M  V30 7 C -0.732 3.65373 2.2001 0
M  V30 8 S 0.101 5.13292 1.52614 0
M  V30 9 C 1.257 5.56322 2.86805 0
M  V30 10 H 1.49 2.90518 0.631377 0
M  V30 11 H -0.977 1.52953 0.210867 0
M  V30 12 H 0.981 2.67203 3.11629 0
M  V30 13 H -0.358 1.57376 2.7183 0
M  V30 14 H -1.165 3.90944 3.18086 0
M  V30 15 H -1.563 3.418 1.51819 0
M  V30 16 H 0.729 5.58782 3.83104 0
M  V30 17 H 1.672 6.56266 2.65933 0
M  V30 18 H 2.08 4.83886 2.90714 0
M  V30 19 N 1.4781 -0.272755 1.55222 0
M  V30 20 C 2.7271 -1.00211 1.75045 0
M  V30 21 C 3.0401 -1.87441 0.559046 0
M  V30 22 O 4.2461 -2.63856 0.639698 0
M  V30 23 C 2.7021 -1.83165 3.09804 0
M  V30 24 C 2.3101 -1.008 4.36513 0
M  V30 25 C 4.0541 -2.55529 3.38977 0
M  V30 26 C 1.9611 -1.83194 5.62311 0
M  V30 27 H 0.8911 -0.377878 0.652476 0
M  V30 28 H 3.5421 -0.257776 1.8168 0
M  V30 29 H 1.9241 -2.61694 2.97207 0
M  V30 30 H 3.0981 -0.266855 4.60027 0
M  V30 31 H 1.4131 -0.398897 4.14485 0
M  V30 32 H 4.0101 -3.17578 4.30172 0
M  V30 33 H 4.3531 -3.25825 2.59121 0
M  V30 34 H 4.8861 -1.84029 3.52673 0
M  V30 35 H 1.6251 -1.17318 6.44916 0
M  V30 36 H 1.1451 -2.54905 5.4294 0
M  V30 37 H 2.8241 -2.40552 6.00619 0
M  V30 38 N 2.9562 -1.48159 -0.537278 0
M  V30 39 C 4.3722 -1.34118 -0.865129 0
M  V30 40 C 4.5722 -0.346678 -1.98495 0
M  V30 41 O 3.6282 0.234715 -2.51407 0
M  V30 42 C 4.9412 -2.73963 -1.23954 0
M  V30 43 C 6.4892 -2.82397 -1.34984 0
M  V30 44 C 6.9642 -4.22928 -1.75772 0
M  V30 45 N 8.4552 -4.25566 -1.82887 0
M  V30 46 C 9.1902 -5.31235 -2.15817 0
M  V30 47 N 8.6862 -6.47189 -2.47222 0
M  V30 48 N 10.4792 -5.18624 -2.16761 0
M  V30 49 H 2.6302 -2.1144 0.201715 0
M  V30 50 H 4.8932 -0.947598 0.0275949 0
M  V30 51 H 4.5992 -3.48264 -0.490381 0
M  V30 52 H 4.4732 -3.0702 -2.19132 0
M  V30 53 H 6.8602 -2.08356 -2.08978 0
M  V30 54 H 6.9412 -2.5297 -0.379448 0
M  V30 55 H 6.5852 -4.97482 -1.02341 0
M  V30 56 H 6.5152 -4.49794 -2.73848 0
M  V30 57 H 9.0062 -3.41924 -1.60924 0
M  V30 58 H 9.3192 -7.23564 -2.71433 0
M  V30 59 H 7.6642 -6.50476 -2.44757 0
M  V30 60 H 10.8552 -4.27056 -1.91679 0
M  V30 61 H 11.0282 -6.01078 -2.42093 0
M  V30 62 N 4.4343 0.785586 -1.36625 0
M  V30 63 C 5.8503 1.08419 -1.17122 0
M  V30 64 C 6.0503 2.015 0.00208491 0
M  V30 65 O 5.1063 2.43551 0.666278 0
M  V30 66 C 6.4193 1.69498 -2.48377 0
M  V30 67 C 7.9673 1.81821 -2.54775 0
M  V30 68 C 8.4423 2.46315 -3.86126 0
M  V30 69 N 9.9333 2.53779 -3.87492 0
M  V30 70 C 10.6683 3.045 -4.85868 0
M  V30 71 N 10.1643 3.55499 -5.94637 0
M  V30 72 N 11.9573 3.03247 -4.73284 0
M  V30 73 H 4.1083 0.167264 -2.1174 0
M  V30 74 H 6.3713 0.13682 -0.938075 0
M  V30 75 H 6.0773 1.08571 -3.34522 0
M  V30 76 H 5.9513 2.6896 -2.64462 0
M  V30 77 H 8.3383 2.41884 -1.69045 0
M  V30 78 H 8.4193 0.811532 -2.42586 0
M  V30 79 H 8.0633 1.86895 -4.72263 0
M  V30 80 H 7.9933 3.47561 -3.95612 0
M  V30 81 H 10.4843 2.17672 -3.08913 0
M  V30 82 H 10.7973 3.92562 -6.65669 0
M  V30 83 H 9.1423 3.5364 -5.98301 0
M  V30 84 H 12.3333 2.62696 -3.87438 0
M  V30 85 H 12.5063 3.42467 -5.50109 0
M  V30 86 N 5.9124 1.20967 1.01018 0
M  V30 87 C 6.8624 0.93182 2.08089 0
M  V30 88 C 7.8464 -0.110898 1.60517 0
M  V30 89 O 9.0384 0.0973392 1.76732 0
M  V30 90 C 6.1674 0.492719 3.39746 0
M  V30 91 C 5.2534 1.56922 3.94 0
M  V30 92 N 5.6444 2.79312 4.21686 0
M  V30 93 C 3.9424 1.43688 4.2222 0
M  V30 94 C 4.6434 3.48797 4.65527 0
M  V30 95 N 3.6194 2.76224 4.68189 0
M  V30 96 H 7.4214 1.86175 2.27412 0
M  V30 97 H 4.9354 1.10463 1.19045 0
M  V30 98 H 6.9324 0.275044 4.15992 0
M  V30 99 H 5.5924 -0.430509 3.21833 0
M  V30 100 H 6.6034 3.15903 4.10397 0
M  V30 101 H 3.2804 0.578548 4.13472 0
M  V30 102 H 4.6704 4.53561 4.95714 0
M  V30 103 N 7.3905 -1.2043 1.01659 0
M  V30 104 C 8.6155 -1.94318 0.724942 0
M  V30 105 C 9.0405 -1.74266 -0.708034 0
M  V30 106 O 8.3985 -1.03694 -1.48719 0
M  V30 107 C 8.4465 -3.44486 1.06591 0
M  V30 108 O 7.5505 -4.12017 0.177599 0
M  V30 109 H 6.8915 -0.60708 0.26898 0
M  V30 110 H 9.4215 -1.52861 1.35995 0
M  V30 111 H 9.4315 -3.95106 1.01762 0
M  V30 112 H 8.1065 -3.58404 2.10997 0
M  V30 113 H 6.6835 -3.71821 0.283421 0
M  V30 114 N 8.8686 -0.792821 -1.36206 0
M  V30 115 C 10.1086 -0.372238 -2.00982 0
M  V30 116 C 10.4726 1.03749 -1.61555 0
M  V30 117 O 11.6736 1.55934 -2.18948 0
M  V30 118 C 9.9446 -0.534566 -3.5338 0
M  V30 119 S 11.5036 -0.202365 -4.38333 0
M  V30 120 H 8.3216 -0.142044 -0.696667 0
M  V30 121 H 10.9236 -1.03206 -1.66039 0
M  V30 122 H 9.6276 -1.5608 -3.79562 0
M  V30 123 H 9.1586 0.141065 -3.93147 0
M  V30 124 H 11.1736 0.994869 -4.86124 0
M  V30 125 N 10.3467 1.47872 -0.545128 0
M  V30 126 C 11.2937 2.29849 0.2093 0
M  V30 127 C 12.2637 1.38313 0.919707 0
M  V30 128 O 13.4487 1.67277 0.917772 0
M  V30 129 C 10.5887 3.22019 1.24088 0
M  V30 130 C 9.7017 4.2864 0.537778 0
M  V30 131 C 8.8367 5.07973 1.5536 0
M  V30 132 C 7.8757 6.06381 0.8348 0
M  V30 133 N 7.0127 6.78717 1.79688 0
M  V30 134 H 11.8527 2.93845 -0.49591 0
M  V30 135 H 9.3897 1.44848 -0.256389 0
M  V30 136 H 11.3477 3.73868 1.85144 0
M  V30 137 H 9.9777 2.59914 1.91428 0
M  V30 138 H 9.0297 3.7994 -0.187046 0
M  V30 139 H 10.3417 4.98793 -0.0258907 0
M  V30 140 H 9.4957 5.63912 2.23803 0
M  V30 141 H 8.2347 4.37693 2.15118 0
M  V30 142 H 7.2397 5.49631 0.136388 0
M  V30 143 H 8.4647 6.78665 0.24313 0
M  V30 144 H 6.4107 6.11177 2.38326 0
M  V30 145 H 6.3277 7.44998 1.28505 0
M  V30 146 H 7.5957 7.39237 2.47282 0
M  V30 147 N 11.8248 0.280983 1.55075 0
M  V30 148 C 13.0728 -0.333455 1.9933 0
M  V30 149 C 13.3938 -1.55937 1.17085 0
M  V30 150 O 12.6638 -1.94143 0.261805 0
M  V30 151 H 11.2438 -0.126197 0.736263 0
M  V30 152 H 13.9058 0.387678 1.91005 0
M  V30 153 H 13.0018 -0.619292 3.05894 0
M  V30 154 N 13.3029 -1.57598 0.00835791 0
M  V30 155 C 14.5489 -1.91211 -0.675732 0
M  V30 156 C 14.8819 -0.883139 -1.72958 0
M  V30 157 O 14.1569 0.097016 -1.94258 0
M  V30 158 C 14.4399 -3.35379 -1.31123 0
M  V30 159 C 14.2929 -4.48999 -0.268356 0
M  V30 160 C 15.6119 -3.7912 -2.23508 0
M  V30 161 H 12.7309 -0.695374 -0.244179 0
M  V30 162 H 15.3729 -1.89901 0.0613655 0
M  V30 163 H 13.5229 -3.36626 -1.93946 0
M  V30 164 H 15.1949 -4.59887 0.360844 0
M  V30 165 H 13.4379 -4.31873 0.408482 0
M  V30 166 H 14.1089 -5.46851 -0.752218 0
M  V30 167 H 16.5849 -3.79477 -1.70693 0
M  V30 168 H 15.4609 -4.80729 -2.64936 0
M  V30 169 H 15.7219 -3.13455 -3.11766 0
M  V30 170 N 14.781 0.264519 -1.55364 0
M  V30 171 C 16.029 0.993021 -1.76021 0
M  V30 172 C 16.35 1.86511 -0.569099 0
M  V30 173 O 15.62 1.91438 0.415735 0
M  V30 174 H 14.2 0.369639 -0.649135 0
M  V30 175 H 16.862 0.286707 -1.9278 0
M  V30 176 H 15.958 1.62502 -2.66457 0
M  V30 177 N 16.2591 1.48442 0.529413 0
M  V30 178 C 17.4841 1.60406 1.31471 0
M  V30 179 C 17.9091 0.264738 1.86228 0
M  V30 180 O 17.2671 -0.763668 1.64432 0
M  V30 181 C 17.3151 2.65419 2.44101 0
M  V30 182 O 16.4191 2.22618 3.47153 0
M  V30 183 H 15.7601 0.537863 0.389357 0
M  V30 184 H 18.2901 1.94432 0.636965 0
M  V30 185 H 18.3001 2.86709 2.90279 0
M  V30 186 H 16.9751 3.62652 2.03608 0
M  V30 187 H 15.5521 2.11543 3.0709 0
M  V30 188 N 17.7372 -0.778329 1.37039 0
M  V30 189 C 18.9622 -1.57248 1.35233 0
M  V30 190 C 19.3872 -1.87999 -0.0615568 0
M  V30 191 O 18.7452 -1.48734 -1.03672 0
M  V30 192 C 18.7932 -2.86353 2.19167 0
M  V30 193 O 17.8972 -3.80442 1.59178 0
M  V30 194 H 17.2382 -0.476569 0.462362 0
M  V30 195 H 19.7682 -0.963853 1.80474 0
M  V30 196 H 19.7782 -3.35519 2.32145 0
M  V30 197 H 18.4532 -2.63299 3.21942 0
M  V30 198 H 17.0302 -3.39067 1.55203 0
M  V30 199 N 19.2153 -1.21501 -1.00376 0
M  V30 200 C 20.4613 -1.03452 -1.74429 0
M  V30 201 C 20.7943 0.430764 -1.89362 0
M  V30 202 O 20.0693 1.31962 -1.42886 0
M  V30 203 C 20.3523 -1.73375 -3.15615 0
M  V30 204 C 20.2053 -3.27431 -3.08397 0
M  V30 205 C 21.5243 -1.47732 -4.14564 0
M  V30 206 H 18.6433 -0.377226 -0.633143 0
M  V30 207 H 21.2853 -1.49693 -1.17013 0
M  V30 208 H 19.4353 -1.34064 -3.64636 0
M  V30 209 H 21.1073 -3.76119 -2.67081 0
M  V30 210 H 19.3503 -3.5767 -2.45468 0
M  V30 211 H 20.0213 -3.71524 -4.08258 0
M  V30 212 H 22.4973 -1.8186 -3.74254 0
M  V30 213 H 21.3733 -1.99169 -5.11491 0
M  V30 214 H 21.6343 -0.407589 -4.40217 0
M  V30 215 N 20.6934 1.19889 -1.02296 0
M  V30 216 C 21.6564 2.21116 -0.603351 0
M  V30 217 C 22.6564 1.5738 0.329884 0
M  V30 218 O 23.8464 1.73802 0.117702 0
M  V30 219 C 20.9784 3.40696 0.117992 0
M  V30 220 H 22.1714 2.59754 -1.49893 0
M  V30 221 H 19.7244 1.33463 -0.813468 0
M  V30 222 H 20.4594 3.07569 1.0282 0
M  V30 223 H 20.2444 3.88188 -0.552511 0
M  V30 224 H 21.7344 4.15692 0.398696 0
M  V30 225 N 22.1715 0.800033 1.35784 0
M  V30 226 C 23.4175 0.38701 1.99684 0
M  V30 227 C 23.7725 -1.03268 1.62338 0
M  V30 228 O 23.0655 -1.70543 0.87325 0
M  V30 229 C 23.2595 0.500276 3.53881 0
M  V30 230 C 23.0885 1.92942 4.06206 0
M  V30 231 C 21.8585 2.55637 4.35865 0
M  V30 232 C 24.0565 2.89307 4.25213 0
M  V30 233 N 22.0385 3.9003 4.74078 0
M  V30 234 C 23.4095 4.08556 4.66349 0
M  V30 235 C 25.4645 2.86225 4.07406 0
M  V30 236 C 24.1675 5.25146 4.91543 0
M  V30 237 C 26.1935 4.02011 4.33752 0
M  V30 238 C 25.5555 5.20007 4.75155 0
M  V30 239 H 21.6545 0.189252 0.758754 0
M  V30 240 H 24.2385 1.03988 1.64604 0
M  V30 241 H 22.4095 -0.122568 3.88207 0
M  V30 242 H 24.1415 0.0624733 4.04652 0
M  V30 243 H 20.8965 2.07039 4.25948 0
M  V30 244 H 21.3205 4.59205 4.97454 0
M  V30 245 H 25.9625 1.96154 3.74544 0
M  V30 246 H 23.6805 6.15794 5.23281 0
M  V30 247 H 27.2665 4.00999 4.21534 0
M  V30 248 H 26.1465 6.08113 4.95145 0
M  V30 249 N 23.6496 -1.47581 0.552962 0
M  V30 250 C 24.8746 -2.07378 0.0300593 0
M  V30 251 C 25.2996 -1.40355 -1.25229 0
M  V30 252 O 24.6576 -0.477099 -1.7491 0
M  V30 253 C 24.7056 -3.60274 -0.153231 0
M  V30 254 O 23.8096 -3.94041 -1.21678 0
M  V30 255 H 23.1506 -0.662158 0.0494182 0
M  V30 256 H 25.6806 -1.89662 0.767434 0
M  V30 257 H 25.6906 -4.0633 -0.368761 0
M  V30 258 H 24.3656 -4.08455 0.783397 0
M  V30 259 H 22.9426 -3.59735 -0.982079 0
M  V30 260 N 25.1277 -0.289203 -1.54924 0
M  V30 261 C 26.0577 0.58549 -2.2604 0
M  V30 262 C 27.0387 1.14753 -1.25562 0
M  V30 263 O 28.2237 1.17906 -1.54311 0
M  V30 264 C 25.3537 1.76305 -2.99222 0
M  V30 265 C 24.3077 1.33191 -4.06748 0
M  V30 266 C 23.6337 2.5937 -4.6758 0
M  V30 267 C 24.9337 0.471775 -5.20165 0
M  V30 268 H 26.6277 -0.00763532 -2.99399 0
M  V30 269 H 24.1737 -0.00511229 -1.43999 0
M  V30 270 H 26.1267 2.38097 -3.47689 0
M  V30 271 H 24.8507 2.38223 -2.23422 0
M  V30 272 H 23.5097 0.737121 -3.59113 0
M  V30 273 H 23.1577 3.19576 -3.88433 0
M  V30 274 H 22.8577 2.31228 -5.40192 0
M  V30 275 H 24.3817 3.21985 -5.18804 0
M  V30 276 H 25.7957 0.995056 -5.64599 0
M  V30 277 H 24.1927 0.284639 -5.99425 0
M  V30 278 H 25.2627 -0.506041 -4.82252 0
M  V30 279 N 26.6058 1.57591 -0.0167156 0
M  V30 280 C 27.5358 2.12496 0.967858 0
M  V30 281 C 28.5168 1.03807 1.34752 0
M  V30 282 O 29.7018 1.31577 1.42833 0
M  V30 283 C 26.8318 2.64194 2.25431 0
M  V30 284 C 25.7858 3.77559 2.01576 0
M  V30 285 C 25.1118 4.15636 3.36379 0
M  V30 286 C 26.4118 5.04151 1.36489 0
M  V30 287 H 28.1058 2.95013 0.510643 0
M  V30 288 H 25.6518 1.41915 0.244181 0
M  V30 289 H 27.6048 3.01236 2.94678 0
M  V30 290 H 26.3288 1.78821 2.73296 0
M  V30 291 H 24.9878 3.40937 1.34751 0
M  V30 292 H 24.6358 3.27263 3.81979 0
M  V30 293 H 24.3358 4.92022 3.21229 0
M  V30 294 H 25.8598 4.5525 4.06915 0
M  V30 295 H 27.2738 5.38857 1.95718 0
M  V30 296 H 25.6708 5.85453 1.31776 0
M  V30 297 H 26.7408 4.83733 0.336219 0
M  V30 298 N 28.0839 -0.256276 1.55502 0
M  V30 299 C 29.3319 -0.983672 1.76545 0
M  V30 300 C 29.6529 -1.86206 0.578982 0
M  V30 301 O 28.9229 -1.91656 -0.405577 0
M  V30 302 H 27.5029 -0.366191 0.651086 0
M  V30 303 H 30.1649 -0.276479 1.92929 0
M  V30 304 H 29.2609 -1.61087 2.67315 0
M  V30 305 N 29.562 -1.4872 -0.521534 0
M  V30 306 C 30.492 -1.66771 -1.63431 0
M  V30 307 C 31.473 -0.516499 -1.62069 0
M  V30 308 O 32.658 -0.750013 -1.79132 0
M  V30 309 C 29.788 -1.71515 -3.01993 0
M  V30 310 C 28.742 -2.86222 -3.18216 0
M  V30 311 C 28.068 -2.76061 -4.57924 0
M  V30 312 C 29.368 -4.27419 -3.00184 0
M  V30 313 H 31.062 -2.59932 -1.48579 0
M  V30 314 H 28.608 -1.25089 -0.713358 0
M  V30 315 H 30.561 -1.82731 -3.7972 0
M  V30 316 H 29.285 -0.749393 -3.17886 0
M  V30 317 H 27.944 -2.74575 -2.42908 0
M  V30 318 H 27.592 -1.77437 -4.70665 0
M  V30 319 H 27.292 -3.53037 -4.69722 0
M  V30 320 H 28.816 -2.89256 -5.37739 0
M  V30 321 H 30.23 -4.39855 -3.67697 0
M  V30 322 H 28.627 -5.05458 -3.2347 0
M  V30 323 H 29.697 -4.43293 -1.96518 0
M  V30 324 N 31.0401 0.771051 -1.3745 0
M  V30 325 C 32.0031 1.86598 -1.33093 0
M  V30 326 C 33.0031 1.59076 -0.234845 0
M  V30 327 O 34.1931 1.67145 -0.490732 0
M  V30 328 C 31.3251 3.23747 -1.06773 0
M  V30 329 H 32.5181 1.91873 -2.30488 0
M  V30 330 H 30.0711 0.970876 -1.2249 0
M  V30 331 H 30.8061 3.24148 -0.099129 0
M  V30 332 H 30.5911 3.45115 -1.86112 0
M  V30 333 H 32.0811 4.03824 -1.06377 0
M  V30 334 N 32.5182 1.22032 0.997298 0
M  V30 335 C 33.7672 1.03637 1.73038 0
M  V30 336 C 34.0802 -0.429475 1.90827 0
M  V30 337 O 35.2862 -0.732995 2.61418 0
M  V30 338 C 33.7422 1.80582 3.11317 0
M  V30 339 C 33.3502 3.31387 3.01474 0
M  V30 340 C 35.0942 1.70621 3.88701 0
M  V30 341 C 33.0012 4.00791 4.3488 0
M  V30 342 H 31.9312 0.384179 0.648785 0
M  V30 343 H 34.5822 1.4584 1.11368 0
M  V30 344 H 32.9642 1.31175 3.73643 0
M  V30 345 H 34.1382 3.88155 2.4834 0
M  V30 346 H 32.4532 3.41976 2.37575 0
M  V30 347 H 35.0502 2.19799 4.87434 0
M  V30 348 H 35.3932 0.665823 4.10941 0
M  V30 349 H 35.9262 2.17547 3.33044 0
M  V30 350 H 32.6652 5.05064 4.1784 0
M  V30 351 H 32.1852 3.48811 4.87945 0
M  V30 352 H 33.8642 4.06139 5.03647 0
M  V30 353 N 33.9963 -1.19345 1.0293 0
M  V30 354 C 35.2213 -1.93538 0.745511 0
M  V30 355 C 35.6463 -1.75007 -0.689511 0
M  V30 356 O 35.0043 -1.05265 -1.47611 0
M  V30 357 C 35.0523 -3.43336 1.10239 0
M  V30 358 O 34.1563 -4.11806 0.221289 0
M  V30 359 H 33.4973 -0.604193 0.275404 0
M  V30 360 H 36.0273 -1.5141 1.37609 0
M  V30 361 H 36.0373 -3.94004 1.05947 0
M  V30 362 H 34.7123 -3.56146 2.14786 0
M  V30 363 H 33.2893 -3.715 0.322842 0
M  V30 364 N 35.4744 -0.807222 -1.35358 0
M  V30 365 C 36.4374 -0.223665 -2.28106 0
M  V30 366 C 37.4374 0.589354 -1.4961 0
M  V30 367 O 38.6274 0.407745 -1.69361 0
M  V30 368 C 35.7594 0.688149 -3.33882 0
M  V30 369 H 36.9524 -1.04169 -2.81227 0
M  V30 370 H 34.5054 -0.577921 -1.45223 0
M  V30 371 H 35.2404 1.52984 -2.85948 0
M  V30 372 H 35.0254 0.10687 -3.91954 0
M  V30 373 H 36.5154 1.09075 -4.03104 0
M  V30 374 N 36.9525 1.47285 -0.560781 0
M  V30 375 C 37.8845 2.28118 0.222438 0
M  V30 376 C 38.8975 1.37219 0.876056 0
M  V30 377 O 40.0865 1.62011 0.749307 0
M  V30 378 C 37.1865 3.1159 1.33285 0
M  V30 379 C 36.3595 4.30473 0.77534 0
M  V30 380 C 35.4185 4.95513 1.77069 0
M  V30 381 O 34.4445 5.53792 1.31539 0
M  V30 382 N 35.6465 4.90531 3.10418 0
M  V30 383 H 38.4115 2.95976 -0.470958 0
M  V30 384 H 35.9725 1.56955 -0.39709 0
M  V30 385 H 37.9645 3.51967 1.99752 0
M  V30 386 H 36.5345 2.45951 1.92943 0
M  V30 387 H 35.7545 3.94144 -0.0662113 0
M  V30 388 H 37.0425 5.07362 0.382272 0
M  V30 389 H 36.4405 4.44389 3.5005 0
M  V30 390 H 34.9975 5.34917 3.72434 0
M  V30 391 N 38.4306 0.297415 1.54768 0
M  V30 392 C 39.6556 -0.318435 2.04941 0
M  V30 393 C 40.0806 -1.4701 1.17345 0
M  V30 394 O 39.4386 -1.80436 0.176758 0
M  V30 395 C 39.4866 -0.755749 3.52592 0
M  V30 396 O 38.5906 -1.86088 3.68028 0
M  V30 397 H 37.9316 -0.062421 0.661059 0
M  V30 398 H 40.4616 0.438215 1.99852 0
M  V30 399 H 40.4716 -1.04552 3.94376 0
M  V30 400 H 39.1466 0.0867233 4.1581 0
M  V30 401 H 37.7236 -1.57193 3.38149 0
M  V30 402 N 39.9087 -1.5758 0.0250728 0
M  V30 403 C 40.8387 -2.13007 -0.956575 0
M  V30 404 C 41.8197 -1.0452 -1.342 0
M  V30 405 O 43.0047 -1.32332 -1.42133 0
M  V30 406 C 40.1347 -2.65386 -2.24026 0
M  V30 407 C 39.0887 -3.78623 -1.99571 0
M  V30 408 C 38.4147 -4.17414 -3.3417 0
M  V30 409 C 39.7147 -5.04867 -1.33814 0
M  V30 410 H 41.4087 -2.9528 -0.494991 0
M  V30 411 H 38.9547 -1.42042 -0.236651 0
M  V30 412 H 40.9077 -3.02794 -2.93076 0
M  V30 413 H 39.6317 -1.80268 -2.72343 0
M  V30 414 H 38.2907 -3.41646 -1.32941 0
M  V30 415 H 37.9387 -3.29284 -3.80238 0
M  V30 416 H 37.6387 -4.93719 -3.18615 0
M  V30 417 H 39.1627 -4.57402 -4.04495 0
M  V30 418 H 40.5767 -5.39888 -1.92857 0
M  V30 419 H 38.9737 -5.86144 -1.28669 0
M  V30 420 H 40.0437 -4.83904 -0.310561 0
M  V30 421 N 41.3868 0.248026 -1.55636 0
M  V30 422 C 42.3498 1.29044 -1.89421 0
M  V30 423 C 43.3498 1.41134 -0.770581 0
M  V30 424 O 44.5398 1.39854 -1.03858 0
M  V30 425 C 41.6718 2.66831 -2.12165 0
M  V30 426 H 42.8648 1.00305 -2.82629 0
M  V30 427 H 40.4178 0.487265 -1.48511 0
M  V30 428 H 41.1528 3.00711 -1.21422 0
M  V30 429 H 40.9378 2.59438 -2.93997 0
M  V30 430 H 42.4278 3.42103 -2.3949 0
M  V30 431 N 42.8649 1.48995 0.513639 0
M  V30 432 C 44.1129 1.57531 1.26604 0
M  V30 433 C 44.4339 0.258236 1.93283 0
M  V30 434 O 43.7039 -0.721502 1.8213 0
M  V30 435 H 42.2839 0.580387 0.470276 0
M  V30 436 H 44.9459 1.85552 0.596373 0
M  V30 437 H 44.0419 2.36486 2.03669 0
M  V30 438 N 44.343 -0.763751 1.37857 0
M  V30 439 C 45.571 -1.55293 1.36718 0
M  V30 440 C 45.986 -1.88745 -0.0455434 0
M  V30 441 O 45.343 -1.52039 -1.00947 0
M  V30 442 C 45.394 -2.85831 2.2132 0
M  V30 443 O 45.115 -2.5381 3.57089 0
M  V30 444 C 46.616 -3.80023 2.28249 0
M  V30 445 H 43.836 -0.480841 0.468009 0
M  V30 446 H 46.38 -0.946009 1.81303 0
M  V30 447 H 44.535 -3.42926 1.80223 0
M  V30 448 H 44.949 -3.37459 4.01524 0
M  V30 449 H 46.423 -4.68599 2.91752 0
M  V30 450 H 46.9 -4.1973 1.2932 0
M  V30 451 H 47.506 -3.28855 2.69693 0
M  V30 452 N 45.8211 -1.22559 -0.990812 0
M  V30 453 C 47.0671 -1.05297 -1.73322 0
M  V30 454 C 47.4001 0.410655 -1.89808 0
M  V30 455 O 46.6751 1.30439 -1.44277 0
M  V30 456 C 46.9581 -1.76713 -3.13759 0
M  V30 457 C 46.8111 -3.30684 -3.04907 0
M  V30 458 C 48.1301 -1.52121 -4.12974 0
M  V30 459 H 45.2491 -0.38392 -0.629106 0
M  V30 460 H 47.8911 -1.50926 -1.15418 0
M  V30 461 H 46.0411 -1.37924 -3.63193 0
M  V30 462 H 47.7131 -3.7893 -2.63077 0
M  V30 463 H 45.9561 -3.60253 -2.41661 0
M  V30 464 H 46.6271 -3.75833 -4.04294 0
M  V30 465 H 49.1031 -1.85819 -3.72304 0
M  V30 466 H 47.9791 -2.04582 -5.0935 0
M  V30 467 H 48.2401 -0.454257 -4.3976 0
M  V30 468 N 47.2992 1.18797 -1.03562 0
M  V30 469 C 48.5272 1.92599 -0.755869 0
M  V30 470 C 48.9422 1.75886 0.686271 0
M  V30 471 O 48.2992 1.08517 1.46732 0
M  V30 472 C 48.3502 3.44159 -1.10619 0
M  V30 473 O 48.0712 3.60341 -2.4917 0
M  V30 474 C 49.5722 4.3507 -0.850214 0
M  V30 475 H 46.7922 0.611587 -0.276048 0
M  V30 476 H 49.3362 1.50742 -1.38192 0
M  V30 477 H 47.4912 3.83823 -0.525194 0
M  V30 478 H 47.9052 4.54128 -2.62427 0
M  V30 479 H 49.3792 5.39989 -1.14523 0
M  V30 480 H 49.8562 4.38673 0.215176 0
M  V30 481 H 50.4622 4.01097 -1.41426 0
M  V30 482 N 48.7773 0.814389 1.34928 0
M  V30 483 C 50.0053 0.411136 2.02774 0
M  V30 484 C 50.4203 -0.980316 1.61354 0
M  V30 485 O 49.7773 -1.63299 0.814847 0
M  V30 486 C 49.8283 0.493865 3.58111 0
M  V30 487 O 49.5493 1.83047 3.98027 0
M  V30 488 C 51.0503 0.0844174 4.4322 0
M  V30 489 H 48.2703 0.166037 0.650133 0
M  V30 490 H 50.8143 1.10018 1.72384 0
M  V30 491 H 48.9693 -0.147006 3.87121 0
M  V30 492 H 49.3833 1.79872 4.92693 0
M  V30 493 H 50.8573 0.193404 5.51661 0
M  V30 494 H 51.3343 -0.97113 4.28329 0
M  V30 495 H 51.9403 0.69875 4.19521 0
M  V30 496 N 50.2554 -1.46986 0.568584 0
M  V30 497 C 51.5324 -1.95592 -0.0174074 0
M  V30 498 C 51.9124 -1.51124 -1.47393 0
M  V30 499 O 51.2604 -0.755329 -2.15655 0
M  V30 500 C 51.4704 -3.48719 0.139913 0
M  V30 501 C 52.8184 -4.246 0.000426376 0
M  V30 502 O 53.8424 -3.56135 0.0680316 0
M  V30 503 O 52.7014 -5.46302 -0.146988 0
M  V30 504 H 49.7954 -0.82498 -0.0577599 0
M  V30 505 H 52.3414 -1.57335 0.635909 0
M  V30 506 H 51.1134 -3.73927 1.15301 0
M  V30 507 H 50.7364 -3.93771 -0.550491 0
M  V30 508 N 51.7335 -0.305618 -1.54608 0
M  V30 509 C 52.9815 0.301701 -1.99835 0
M  V30 510 C 53.3025 1.54054 -1.19551 0
M  V30 511 O 52.5725 1.93702 -0.292658 0
M  V30 512 H 51.1525 0.114468 -0.738178 0
M  V30 513 H 53.8145 -0.418016 -1.90364 0
M  V30 514 H 52.9105 0.570548 -3.06841 0
M  V30 515 N 53.2116 1.57565 -0.0334293 0
M  V30 516 C 54.1746 2.09393 0.932048 0
M  V30 517 C 55.1746 1.00986 1.25134 0
M  V30 518 O 56.3646 1.27129 1.19096 0
M  V30 519 C 53.4966 2.56338 2.2473 0
M  V30 520 H 54.6896 2.95984 0.483085 0
M  V30 521 H 52.2426 1.54819 0.21468 0
M  V30 522 H 52.9776 1.7309 2.74245 0
M  V30 523 H 52.7626 3.35542 2.02865 0
M  V30 524 H 54.2526 2.96646 2.93923 0
M  V30 525 N 54.6897 -0.239769 1.55765 0
M  V30 526 C 55.9667 -0.990056 1.68693 0
M  V30 527 C 56.3467 -2.03107 0.5754 0
M  V30 528 O 55.6947 -2.24604 -0.42017 0
M  V30 529 C 55.9047 -1.61696 3.09282 0
M  V30 530 C 57.2527 -2.11613 3.6811 0
M  V30 531 O 58.2767 -1.71624 3.12127 0
M  V30 532 O 57.1357 -2.85057 4.66267 0
M  V30 533 H 54.2297 -0.461299 0.686391 0
M  V30 534 H 56.7757 -0.232991 1.68093 0
M  V30 535 H 55.5477 -0.864357 3.81634 0
M  V30 536 H 55.1707 -2.44005 3.13923 0
M  V30 537 N 56.1678 -1.49265 -0.50573 0
M  V30 538 C 57.4168 -1.57761 -1.25675 0
M  V30 539 C 57.7298 -0.267371 -1.93764 0
M  V30 540 O 58.9358 -0.230827 -2.70517 0
M  V30 541 C 57.3918 -2.78332 -2.28165 0
M  V30 542 C 56.9998 -4.16096 -1.66037 0
M  V30 543 C 58.7438 -2.96155 -3.04125 0
M  V30 544 C 56.6508 -5.27895 -2.6661 0
M  V30 545 H 55.5808 -0.587391 -0.472745 0
M  V30 546 H 58.2318 -1.75644 -0.53118 0
M  V30 547 H 56.6138 -2.53934 -3.03865 0
M  V30 548 H 57.7878 -4.50612 -0.963622 0
M  V30 549 H 56.1028 -4.03591 -1.02484 0
M  V30 550 H 58.6998 -3.76849 -3.79327 0
M  V30 551 H 59.0428 -2.06534 -3.61455 0
M  V30 552 H 59.5758 -3.2057 -2.35541 0
M  V30 553 H 56.3148 -6.1956 -2.14068 0
M  V30 554 H 55.8348 -4.97839 -3.34539 0
M  V30 555 H 57.5138 -5.57031 -3.29129 0
M  V30 556 N 57.6459 0.756429 -1.3826 0
M  V30 557 C 58.8919 1.51772 -1.34511 0
M  V30 558 C 59.2249 1.94089 0.0656691 0
M  V30 559 O 58.4999 1.65221 1.02626 0
M  V30 560 C 58.7829 2.77226 -2.29821 0
M  V30 561 C 58.6359 2.41065 -3.79747 0
M  V30 562 C 59.9549 3.79236 -2.23312 0
M  V30 563 H 57.0739 0.550578 -0.489931 0
M  V30 564 H 59.7159 0.866607 -1.69086 0
M  V30 565 H 57.8659 3.32784 -2.00467 0
M  V30 566 H 59.5379 1.91303 -4.19763 0
M  V30 567 H 57.7809 1.7356 -3.97567 0
M  V30 568 H 58.4519 3.3081 -4.41892 0
M  V30 569 H 60.9279 3.3321 -2.49219 0
M  V30 570 H 59.8039 4.64714 -2.92116 0
M  V30 571 H 60.0649 4.24615 -1.23102 0
M  V30 572 N 59.124 1.23083 0.984299 0
M  V30 573 C 60.373 1.05466 1.71929 0
M  V30 574 C 60.686 -0.409211 1.91272 0
M  V30 575 O 61.892 -0.705226 2.62181 0
M  V30 576 C 60.348 1.83874 3.09384 0
M  V30 577 C 59.956 3.34566 2.97943 0
M  V30 578 C 61.7 1.74734 3.8687 0
M  V30 579 C 59.607 4.05381 4.30605 0
M  V30 580 H 58.537 0.391039 0.644674 0
M  V30 581 H 61.188 1.47013 1.09815 0
M  V30 582 H 59.57 1.35131 3.72231 0
M  V30 583 H 60.744 3.90767 2.44209 0
M  V30 584 H 59.059 3.44476 2.33934 0
M  V30 585 H 61.656 2.24957 4.85076 0
M  V30 586 H 61.999 0.709372 4.10212 0
M  V30 587 H 62.532 2.21067 3.30717 0
M  V30 588 H 59.271 5.09467 4.1246 0
M  V30 589 H 58.791 3.53967 4.84218 0
M  V30 590 H 60.47 4.11458 4.99311 0
M  V30 591 N 60.6021 -1.18246 1.0419 0
M  V30 592 C 61.5491 -2.2192 0.634037 0
M  V30 593 C 62.5191 -1.62179 -0.358765 0
M  V30 594 O 63.7041 -1.89122 -0.252466 0
M  V30 595 C 60.8441 -3.451 0.00445535 0
M  V30 596 C 59.9571 -4.19174 1.04487 0
M  V30 597 C 59.0921 -5.29813 0.383676 0
M  V30 598 C 58.1311 -5.9566 1.4091 0
M  V30 599 N 57.2681 -6.97834 0.772784 0
M  V30 600 H 62.1081 -2.56164 1.52263 0
M  V30 601 H 59.6451 -1.25843 0.761701 0
M  V30 602 H 61.6031 -4.15485 -0.377919 0
M  V30 603 H 60.2331 -3.11472 -0.847652 0
M  V30 604 H 59.2851 -3.47604 1.54518 0
M  V30 605 H 60.5971 -4.64267 1.82368 0
M  V30 606 H 59.7511 -6.06677 -0.0528366 0
M  V30 607 H 58.4901 -4.85825 -0.427208 0
M  V30 608 H 57.4951 -5.17535 1.85574 0
M  V30 609 H 58.7201 -6.4173 2.22171 0
M  V30 610 H 56.6661 -6.55998 -0.0177708 0
M  V30 611 H 56.5831 -7.41186 1.48928 0
M  V30 612 H 57.8511 -7.78665 0.36071 0
M  V30 613 N 62.0802 -0.821533 -1.34494 0
M  V30 614 C 63.3082 -0.421884 -2.02553 0
M  V30 615 C 63.7232 0.971745 -1.61872 0
M  V30 616 O 63.0802 1.62864 -0.823496 0
M  V30 617 C 63.1312 -0.51285 -3.57844 0
M  V30 618 O 62.8522 -1.85155 -3.97051 0
M  V30 619 C 64.3532 -0.107921 -4.43169 0
M  V30 620 H 61.5732 -0.169482 -0.649243 0
M  V30 621 H 64.1172 -1.1093 -1.71798 0
M  V30 622 H 62.2722 0.126474 -3.87193 0
M  V30 623 H 62.6862 -1.82482 -4.91732 0
M  V30 624 H 64.1602 -0.222657 -5.51551 0
M  V30 625 H 64.6372 0.948401 -4.28838 0
M  V30 626 H 65.2432 -0.720989 -4.19144 0
M  V30 627 N 63.5583 1.46682 -0.576371 0
M  V30 628 C 64.5053 2.30241 0.160499 0
M  V30 629 C 65.4753 1.40233 0.890162 0
M  V30 630 O 66.6603 1.69186 0.882084 0
M  V30 631 C 63.8003 3.24578 1.1723 0
M  V30 632 C 62.9133 4.29684 0.446736 0
M  V30 633 C 62.0483 5.11154 1.44551 0
M  V30 634 C 61.0873 6.08015 0.70599 0
M  V30 635 N 60.2243 6.82376 1.65251 0
M  V30 636 H 65.0643 2.92727 -0.558127 0
M  V30 637 H 62.6013 1.44272 -0.287056 0
M  V30 638 H 64.5593 3.77711 1.77172 0
M  V30 639 H 63.1893 2.63916 1.85872 0
M  V30 640 H 62.2413 3.79458 -0.267594 0
M  V30 641 H 63.5533 4.98626 -0.131686 0
M  V30 642 H 62.7073 5.68533 2.11791 0
M  V30 643 H 61.4463 4.42158 2.05786 0
M  V30 644 H 60.4513 5.49796 0.0197725 0
M  V30 645 H 61.6763 6.79028 0.09912 0
M  V30 646 H 59.6223 6.16094 2.25308 0
M  V30 647 H 59.5393 7.47556 1.12673 0
M  V30 648 H 60.8073 7.44316 2.31546 0
M  V30 649 N 65.0364 0.313813 1.54444 0
M  V30 650 C 66.2844 -0.291099 1.99993 0
M  V30 651 C 66.6054 -1.53418 1.20366 0
M  V30 652 O 65.8754 -1.93544 0.302927 0
M  V30 653 H 64.4554 -0.110552 0.738774 0
M  V30 654 H 67.1174 0.428106 1.9014 0
M  V30 655 H 66.2134 -0.554268 3.07139 0
M  V30 656 N 66.5145 -1.57545 0.0417849 0
M  V30 657 C 67.7625 -1.91937 -0.632829 0
M  V30 658 C 68.0835 -0.919978 -1.71934 0
M  V30 659 O 67.3535 0.0366064 -1.95866 0
M  V30 660 H 65.9335 -0.708493 -0.236742 0
M  V30 661 H 68.5955 -1.9468 0.0925745 0
M  V30 662 H 67.6915 -2.92912 -1.07746 0
M  V30 663 N 67.9926 0.231505 -1.5589 0
M  V30 664 C 68.9226 1.29022 -1.94617 0
M  V30 665 C 69.9036 1.4941 -0.813067 0
M  V30 666 O 71.0886 1.6176 -1.07459 0
M  V30 667 C 68.2186 2.64199 -2.25424 0
M  V30 668 C 67.1726 2.58484 -3.41131 0
M  V30 669 C 66.4986 3.97599 -3.57518 0
M  V30 670 C 67.7986 2.1413 -4.76388 0
M  V30 671 H 69.4926 0.968563 -2.83301 0
M  V30 672 H 67.0386 0.464479 -1.36303 0
M  V30 673 H 68.9916 3.38413 -2.51107 0
M  V30 674 H 67.7156 2.98032 -1.33583 0
M  V30 675 H 66.3746 1.86727 -3.15481 0
M  V30 676 H 66.0226 4.28723 -2.6307 0
M  V30 677 H 65.7226 3.94659 -4.35337 0
M  V30 678 H 67.2466 4.7349 -3.85538 0
M  V30 679 H 68.6606 2.78083 -5.01341 0
M  V30 680 H 67.0576 2.2227 -5.57419 0
M  V30 681 H 68.1276 1.09331 -4.72414 0
M  V30 682 N 69.4707 1.49531 0.497807 0
M  V30 683 C 70.3807 1.69176 1.62532 0
M  V30 684 C 71.3967 0.5744 1.64246 0
M  V30 685 O 72.5727 0.849497 1.82608 0
M  V30 686 C 69.6377 1.75695 2.98885 0
M  V30 687 C 68.6987 2.9929 3.07773 0
M  V30 688 C 67.9317 3.05488 4.37622 0
M  V30 689 O 68.1547 2.19192 5.26603 0
M  V30 690 O 67.0887 3.9798 4.51548 0
M  V30 691 H 70.9147 2.647 1.48887 0
M  V30 692 H 68.4997 1.3331 0.674441 0
M  V30 693 H 70.3817 1.82317 3.79919 0
M  V30 694 H 69.0567 0.8335 3.12785 0
M  V30 695 H 67.9637 2.98183 2.25915 0
M  V30 696 H 69.2967 3.91125 2.98801 0
M  V30 697 N 70.9488 -0.749086 1.3866 0
M  V30 698 C 72.1948 -1.51056 1.35314 0
M  V30 699 C 72.5278 -1.94121 -0.0553751 0
M  V30 700 O 71.8028 -1.65763 -1.01749 0
M  V30 701 C 72.0858 -2.76003 2.31288 0
M  V30 702 C 71.9388 -2.39047 3.8102 0
M  V30 703 C 73.2578 -3.78046 2.2532 0
M  V30 704 H 70.3768 -0.547972 0.492844 0
M  V30 705 H 73.0188 -0.857628 1.69543 0
M  V30 706 H 71.1688 -3.31716 2.02229 0
M  V30 707 H 72.8408 -1.89074 4.20771 0
M  V30 708 H 71.0838 -1.71449 3.98482 0
M  V30 709 H 71.7548 -3.28462 4.4364 0
M  V30 710 H 74.2308 -3.31884 2.50983 0
M  V30 711 H 73.1068 -4.63159 2.94576 0
M  V30 712 H 73.3678 -4.23957 1.25352 0
M  V30 713 N 72.4269 -1.23603 -0.977757 0
M  V30 714 C 73.3899 -1.02069 -2.05218 0
M  V30 715 C 74.3899 0.0184305 -1.60789 0
M  V30 716 O 75.5799 -0.221569 -1.72785 0
M  V30 717 C 72.7119 -0.544926 -3.36517 0
M  V30 718 H 73.9049 -1.9742 -2.25755 0
M  V30 719 H 71.4579 -1.05684 -1.15155 0
M  V30 720 H 72.1929 0.412241 -3.21669 0
M  V30 721 H 71.9779 -1.2948 -3.70105 0
M  V30 722 H 73.4679 -0.414985 -4.15533 0
M  V30 723 N 73.905 1.17692 -1.04816 0
M  V30 724 C 75.133 1.91786 -0.776254 0
M  V30 725 C 75.548 1.76604 0.667577 0
M  V30 726 O 74.905 1.10067 1.45573 0
M  V30 727 C 74.956 3.42967 -1.14263 0
M  V30 728 O 74.677 3.57678 -2.52978 0
M  V30 729 C 76.178 4.34144 -0.896311 0
M  V30 730 H 73.398 0.608624 -0.282519 0
M  V30 731 H 75.942 1.49268 -1.39783 0
M  V30 732 H 74.097 3.83245 -0.565874 0
M  V30 733 H 74.511 4.51319 -2.67229 0
M  V30 734 H 75.985 5.38744 -1.20244 0
M  V30 735 H 76.462 4.38876 0.168636 0
M  V30 736 H 77.068 3.99574 -1.45672 0
M  V30 737 N 75.3831 0.828654 1.34056 0
M  V30 738 C 76.6111 0.43262 2.02326 0
M  V30 739 C 77.0261 -0.963147 1.62385 0
M  V30 740 O 76.3831 -1.62425 0.832121 0
M  V30 741 C 76.4341 0.53182 3.57567 0
M  V30 742 O 76.1551 1.87258 3.96063 0
M  V30 743 C 77.6561 0.131422 4.43105 0
M  V30 744 H 74.8761 0.172923 0.648335 0
M  V30 745 H 77.4201 1.1184 1.71208 0
M  V30 746 H 75.5751 -0.105938 3.87255 0
M  V30 747 H 75.9891 1.85087 4.90758 0
M  V30 748 H 77.4631 0.251904 5.51425 0
M  V30 749 H 77.9401 -0.925645 4.29335 0
M  V30 750 H 78.5461 0.743207 4.18756 0
M  V30 751 N 76.8612 -1.46375 0.584142 0
M  V30 752 C 78.1382 -1.956 0.0033388 0
M  V30 753 C 78.5182 -1.52679 -1.45782 0
M  V30 754 O 77.8662 -0.77816 -2.14842 0
M  V30 755 C 78.0762 -3.48551 0.176891 0
M  V30 756 C 79.4242 -4.24576 0.0454609 0
M  V30 757 O 80.4482 -3.56043 0.105801 0
M  V30 758 O 79.3072 -5.46427 -0.0890376 0
M  V30 759 H 76.4012 -0.825547 -0.0490066 0
M  V30 760 H 78.9472 -1.56652 0.65256 0
M  V30 761 H 77.7192 -3.72683 1.1926 0
M  V30 762 H 77.3422 -3.94332 -0.508695 0
M  V30 763 N 78.3393 -0.321999 -1.54275 0
M  V30 764 C 79.2863 0.544664 -2.24281 0
M  V30 765 C 80.2563 1.1129 -1.23303 0
M  V30 766 O 81.4413 1.15354 -1.51981 0
M  V30 767 C 78.5813 1.70045 -3.00298 0
M  V30 768 C 77.6943 1.16159 -4.1609 0
M  V30 769 C 76.8293 2.28293 -4.79641 0
M  V30 770 C 75.8683 1.71648 -5.8754 0
M  V30 771 N 75.0053 2.77438 -6.44959 0
M  V30 772 H 79.8453 -0.0588907 -2.97942 0
M  V30 773 H 77.3823 -0.0408345 -1.47043 0
M  V30 774 H 79.3403 2.38054 -3.42616 0
M  V30 775 H 77.9703 2.27531 -2.28975 0
M  V30 776 H 77.0223 0.373092 -3.78566 0
M  V30 777 H 78.3343 0.707087 -4.93763 0
M  V30 778 H 77.4883 3.0421 -5.2492 0
M  V30 779 H 76.2273 2.77079 -4.01346 0
M  V30 780 H 75.2323 0.942282 -5.41665 0
M  V30 781 H 76.4573 1.23741 -6.67731 0
M  V30 782 H 74.4033 3.25519 -5.69538 0
M  V30 783 H 74.3203 2.36547 -7.1804 0
M  V30 784 H 75.5883 3.53189 -6.94894 0
M  V30 785 N 79.8174 1.5752 -0.0501392 0
M  V30 786 C 80.7274 2.14952 0.939827 0
M  V30 787 C 81.7434 1.10706 1.34239 0
M  V30 788 O 82.9194 1.42869 1.41952 0
M  V30 789 C 79.9844 2.68232 2.19665 0
M  V30 790 C 79.0454 3.87272 1.85253 0
M  V30 791 C 78.2784 4.38002 3.04943 0
M  V30 792 O 78.5014 3.87811 4.18281 0
M  V30 793 O 77.4354 5.29602 2.86017 0
M  V30 794 H 81.2614 2.9986 0.481392 0
M  V30 795 H 78.8464 1.4841 0.171699 0
M  V30 796 H 80.7284 3.02475 2.93406 0
M  V30 797 H 79.4034 1.86395 2.64648 0
M  V30 798 H 78.3104 3.5792 1.0883 0
M  V30 799 H 79.6434 4.70336 1.4507 0
M  V30 800 N 81.2955 -0.223234 1.56011 0
M  V30 801 C 82.5425 -0.947875 1.78946 0
M  V30 802 C 82.8705 -1.844 0.618608 0
M  V30 803 O 82.1255 -1.91629 -0.397093 0
M  V30 804 C 82.4245 -1.81948 3.0762 0
M  V30 805 C 82.0905 -1.07672 4.37856 0
M  V30 806 C 80.7525 -0.871544 4.73242 0
M  V30 807 C 83.1045 -0.552081 5.18268 0
M  V30 808 C 80.4325 -0.129791 5.86556 0
M  V30 809 C 82.7845 0.17632 6.32354 0
M  V30 810 C 81.4485 0.39277 6.66343 0
M  V30 811 H 80.7185 -0.346852 0.654809 0
M  V30 812 H 83.3655 -0.216171 1.90276 0
M  V30 813 H 81.6705 -2.61899 2.91404 0
M  V30 814 H 83.3675 -2.38227 3.22566 0
M  V30 815 H 79.9575 -1.24662 4.1007 0
M  V30 816 H 84.1415 -0.698076 4.91366 0
M  V30 817 H 79.3975 0.048153 6.11381 0
M  V30 818 H 83.5715 0.590367 6.93893 0
M  V30 819 H 81.1985 0.969466 7.53993 0
M  V30 820 N 82.7736 -1.49793 -0.48987 0
M  V30 821 C 83.9986 -1.63836 -1.27172 0
M  V30 822 C 84.4236 -0.31402 -1.8546 0
M  V30 823 O 83.7816 0.719803 -1.66399 0
M  V30 824 C 83.8296 -2.71797 -2.36978 0
M  V30 825 O 82.9336 -2.31744 -3.41128 0
M  V30 826 H 82.2746 -0.547997 -0.37496 0
M  V30 827 H 84.8046 -1.96053 -0.585191 0
M  V30 828 H 84.8146 -2.94305 -2.82575 0
M  V30 829 H 83.4896 -3.67923 -1.93921 0
M  V30 830 H 82.0666 -2.1961 -3.01373 0
M  V30 831 N 84.2517 0.741722 -1.39055 0
M  V30 832 C 85.4987 1.50114 -1.35912 0
M  V30 833 C 85.8267 1.94443 0.0470937 0
M  V30 834 O 85.0817 1.66612 1.02659 0
M  V30 835 C 85.3807 2.7592 -2.27163 0
M  V30 836 C 85.0467 2.50493 -3.74919 0
M  V30 837 C 83.7087 2.43267 -4.1518 0
M  V30 838 C 86.0607 2.28585 -4.684 0
M  V30 839 C 83.3887 2.12166 -5.46994 0
M  V30 840 C 85.7407 1.99002 -6.00484 0
M  V30 841 C 84.4047 1.90241 -6.39816 0
M  V30 842 H 83.6747 0.549306 -0.497336 0
M  V30 843 H 86.3217 0.851896 -1.71508 0
M  V30 844 H 84.6267 3.45553 -1.84663 0
M  V30 845 H 86.3237 3.33923 -2.22028 0
M  V30 846 H 82.9137 2.56992 -3.43006 0
M  V30 847 H 87.0977 2.33139 -4.38132 0
M  V30 848 H 82.3537 2.03901 -5.76398 0
M  V30 849 H 86.5277 1.81057 -6.72452 0
M  V30 850 H 84.1547 1.65907 -7.41875 0
M  V30 851 N 85.7298 1.2412 0.971189 0
M  V30 852 C 86.6768 1.0305 2.06517 0
M  V30 853 C 87.6468 -0.0550666 1.66009 0
M  V30 854 O 88.8318 0.0988688 1.90544 0
M  V30 855 C 85.9718 0.637653 3.39158 0
M  V30 856 C 85.0848 1.79633 3.92882 0
M  V30 857 C 84.2198 1.34939 5.13775 0
M  V30 858 C 83.2588 2.47823 5.59687 0
M  V30 859 N 82.3958 2.04022 6.71803 0
M  V30 860 H 87.2358 1.96685 2.23873 0
M  V30 861 H 84.7728 0.979694 1.09729 0
M  V30 862 H 86.7308 0.390931 4.15364 0
M  V30 863 H 85.3608 -0.261693 3.21737 0
M  V30 864 H 84.4128 2.15681 3.13346 0
M  V30 865 H 85.7248 2.64466 4.22918 0
M  V30 866 H 84.8788 1.06134 5.97345 0
M  V30 867 H 83.6178 0.471557 4.85415 0
M  V30 868 H 82.6228 2.77392 4.74693 0
M  V30 869 H 83.8478 3.36158 5.90063 0
M  V30 870 H 81.7938 1.18632 6.45184 0
M  V30 871 H 81.7108 2.82409 7.01271 0
M  V30 872 H 82.9788 1.78347 7.58823 0
M  V30 873 N 87.2079 -1.17134 1.05439 0
M  V30 874 C 88.1379 -2.2342 0.678649 0
M  V30 875 C 89.1189 -1.66971 -0.32476 0
M  V30 876 O 90.3039 -1.93149 -0.201802 0
M  V30 877 C 87.4339 -3.47256 0.0552099 0
M  V30 878 C 86.3879 -4.16543 0.98365 0
M  V30 879 C 85.7139 -5.34231 0.223961 0
M  V30 880 C 87.0139 -4.68495 2.3089 0
M  V30 881 H 88.7079 -2.55105 1.56722 0
M  V30 882 H 86.2539 -1.2262 0.754998 0
M  V30 883 H 88.2069 -4.20828 -0.21946 0
M  V30 884 H 86.9309 -3.14846 -0.868319 0
M  V30 885 H 85.5899 -3.44887 1.24293 0
M  V30 886 H 85.2379 -4.98071 -0.702412 0
M  V30 887 H 84.9379 -5.81527 0.842627 0
M  V30 888 H 86.4619 -6.10585 -0.0433671 0
M  V30 889 H 87.8759 -5.33691 2.09396 0
M  V30 890 H 86.2729 -5.26379 2.88176 0
M  V30 891 H 87.3429 -3.85169 2.94572 0
M  V30 892 N 88.686 -0.835752 -1.33615 0
M  V30 893 C 89.934 -0.429109 -1.97492 0
M  V30 894 C 90.255 1.01433 -1.66543 0
M  V30 895 O 89.525 1.70611 -0.962744 0
M  V30 896 H 88.105 -0.155686 -0.730596 0
M  V30 897 H 90.767 -1.06802 -1.63031 0
M  V30 898 H 89.863 -0.55861 -3.0706 0
M  V30 899 N 90.1641 1.46063 -0.591896 0
M  V30 900 C 91.4121 2.01938 -0.0808391 0
M  V30 901 C 91.7331 1.46475 1.28725 0
M  V30 902 O 91.0031 0.652944 1.84698 0
M  V30 903 H 89.5831 0.746516 -0.0268938 0
M  V30 904 H 92.2451 1.79055 -0.769752 0
M  V30 905 H 91.3411 3.12094 -0.0187578 0
M  V30 906 N 91.6422 0.330177 1.54103 0
M  V30 907 C 93.0582 -0.0222371 1.59585 0
M  V30 908 C 93.2582 -1.49902 1.34654 0
M  V30 909 O 92.3142 -2.25592 1.13421 0
M  V30 910 C 93.6272 0.401932 2.98002 0
M  V30 911 C 95.1752 0.353145 3.11001 0
M  V30 912 C 95.6502 0.752576 4.51775 0
M  V30 913 N 97.1412 0.706239 4.57784 0
M  V30 914 C 97.8762 0.987417 5.64834 0
M  V30 915 N 97.3722 1.33607 6.79795 0
M  V30 916 N 99.1652 0.91254 5.54643 0
M  V30 917 H 91.3162 1.29228 1.68564 0
M  V30 918 H 93.5792 0.525906 0.78875 0
M  V30 919 H 93.2852 1.4311 3.21267 0
M  V30 920 H 93.1592 -0.229699 3.765 0
M  V30 921 H 95.5462 -0.666822 2.87467 0
M  V30 922 H 95.6272 1.0198 2.34593 0
M  V30 923 H 95.2712 1.77049 4.76042 0
M  V30 924 H 95.2012 0.0635409 5.26562 0
M  V30 925 H 97.6922 0.44889 3.75224 0
M  V30 926 H 98.0052 1.53582 7.57385 0
M  V30 927 H 96.3502 1.37439 6.81275 0
M  V30 928 H 99.5412 0.639601 4.6371 0
M  V30 929 H 99.7142 1.13503 6.37982 0
M  V30 930 N 93.1203 -1.57491 0.0584922 0
M  V30 931 C 94.0503 -2.14988 -0.911178 0
M  V30 932 C 95.0313 -1.07343 -1.31952 0
M  V30 933 O 96.2163 -1.35318 -1.39294 0
M  V30 934 C 93.3463 -2.70078 -2.18347 0
M  V30 935 C 92.3003 -3.82771 -1.91495 0
M  V30 936 C 91.6263 -4.24408 -3.25241 0
M  V30 937 C 92.9263 -5.07592 -1.23075 0
M  V30 938 H 94.6203 -2.96263 -0.432246 0
M  V30 939 H 92.1663 -1.42512 -0.206469 0
M  V30 940 H 94.1193 -3.08943 -2.86587 0
M  V30 941 H 92.8433 -1.86005 -2.68458 0
M  V30 942 H 91.5023 -3.44389 -1.25664 0
M  V30 943 H 91.1503 -3.37275 -3.73168 0
M  V30 944 H 90.8503 -5.00366 -3.08071 0
M  V30 945 H 92.3743 -4.65879 -3.94701 0
M  V30 946 H 93.7883 -5.43857 -1.81362 0
M  V30 947 H 92.1853 -5.88741 -1.16207 0
M  V30 948 H 93.2553 -4.84454 -0.207847 0
M  V30 949 N 94.5984 0.214957 -1.56127 0
M  V30 950 C 95.5304 1.29004 -1.89448 0
M  V30 951 C 96.5434 1.42716 -0.783326 0
M  V30 952 O 97.7324 1.43496 -1.06166 0
M  V30 953 C 94.8324 2.66482 -2.09381 0
M  V30 954 C 94.0054 2.74633 -3.40434 0
M  V30 955 C 93.0644 3.9317 -3.49719 0
M  V30 956 O 92.0904 3.812 -4.227 0
M  V30 957 N 93.2924 5.07765 -2.81346 0
M  V30 958 H 96.0574 1.00743 -2.82261 0
M  V30 959 H 93.6184 0.40497 -1.56753 0
M  V30 960 H 95.6104 3.44173 -2.12901 0
M  V30 961 H 94.1804 2.87314 -1.23163 0
M  V30 962 H 93.4004 1.83368 -3.48955 0
M  V30 963 H 94.6884 2.77054 -4.26754 0
M  V30 964 H 94.0864 5.20386 -2.21843 0
M  V30 965 H 92.6434 5.83474 -2.90519 0
M  V30 966 N 96.0765 1.50051 0.48192 0
M  V30 967 C 97.0395 1.67584 1.5636 0
M  V30 968 C 98.0395 0.546894 1.51214 0
M  V30 969 O 99.2295 0.813725 1.54026 0
M  V30 970 C 96.3615 1.691 2.96003 0
M  V30 971 H 97.5545 2.64078 1.42136 0
M  V30 972 H 95.1075 1.39369 0.707533 0
M  V30 973 H 95.8425 0.742589 3.15684 0
M  V30 974 H 95.6275 2.51105 3.01146 0
M  V30 975 H 97.1175 1.84656 3.74556 0
M  V30 976 N 97.5546 -0.734337 1.39446 0
M  V30 977 C 98.8316 -1.48579 1.27215 0
M  V30 978 C 99.2116 -2.1077 -0.117968 0
M  V30 979 O 98.5596 -1.98646 -1.12924 0
M  V30 980 C 98.7696 -2.53667 2.39696 0
M  V30 981 C 100.118 -3.20031 2.79044 0
M  V30 982 O 101.142 -2.6398 2.39151 0
M  V30 983 O 100.001 -4.21455 3.47905 0
M  V30 984 H 97.0946 -0.659816 0.49857 0
M  V30 985 H 99.6406 -0.768106 1.51322 0
M  V30 986 H 98.4126 -2.06096 3.32626 0
M  V30 987 H 98.0356 -3.32994 2.17258 0
M  V30 988 N 99.0327 -1.24633 -0.964593 0
M  V30 989 C 100.263 -1.11339 -1.74032 0
M  V30 990 C 100.671 0.336593 -1.86182 0
M  V30 991 O 100.014 1.24389 -1.35178 0
M  V30 992 C 100.076 -1.68284 -3.1768 0
M  V30 993 C 99.7397 -3.17196 -3.28992 0
M  V30 994 C 100.737 -4.14308 -3.14078 0
M  V30 995 C 98.4217 -3.57215 -3.53133 0
M  V30 996 C 100.416 -5.4942 -3.23135 0
M  V30 997 C 98.1027 -4.92468 -3.61827 0
M  V30 998 C 99.1007 -5.8838 -3.46841 0
M  V30 999 O 98.7887 -7.21173 -3.55197 0
M  V30 1000 H 98.5207 -0.389551 -0.552472 0
M  V30 1001 H 101.075 -1.65282 -1.21946 0
M  V30 1002 H 99.3047 -1.08777 -3.71085 0
M  V30 1003 H 100.994 -1.50234 -3.77074 0
M  V30 1004 H 101.76 -3.84731 -2.95308 0
M  V30 1005 H 97.6387 -2.83063 -3.63863 0
M  V30 1006 H 101.183 -6.24263 -3.11355 0
M  V30 1007 H 97.0797 -5.21714 -3.80111 0
M  V30 1008 H 97.8477 -7.29135 -3.71892 0
M  V30 1009 N 100.511 1.16574 -1.06058 0
M  V30 1010 C 101.759 1.86677 -0.77434 0
M  V30 1011 C 102.08 1.81959 0.701147 0
M  V30 1012 O 101.35 1.2515 1.50713 0
M  V30 1013 H 99.9298 0.691134 -0.283449 0
M  V30 1014 H 102.592 1.41378 -1.34158 0
M  V30 1015 H 101.688 2.92181 -1.09711 0
M  V30 1016 N 101.989 0.842826 1.3317 0
M  V30 1017 C 103.405 0.531128 1.50503 0
M  V30 1018 C 103.605 -0.940734 1.78192 0
M  V30 1019 O 102.661 -1.72436 1.84451 0
M  V30 1020 C 103.974 1.40789 2.65705 0
M  V30 1021 C 105.522 1.40708 2.79589 0
M  V30 1022 C 105.997 2.26878 3.97857 0
M  V30 1023 N 107.488 2.24609 4.05099 0
M  V30 1024 C 108.223 2.88019 4.95815 0
M  V30 1025 N 107.719 3.60496 5.9162 0
M  V30 1026 N 109.512 2.77469 4.88843 0
M  V30 1027 H 101.663 1.79557 1.1346 0
M  V30 1028 H 103.926 0.766267 0.558156 0
M  V30 1029 H 103.632 2.454 2.51936 0
M  V30 1030 H 103.506 1.08677 3.61205 0
M  V30 1031 H 105.893 0.368668 2.92788 0
M  V30 1032 H 105.974 1.76829 1.84838 0
M  V30 1033 H 105.618 3.3078 3.85418 0
M  V30 1034 H 105.548 1.88096 4.91861 0
M  V30 1035 H 108.039 1.71906 3.36536 0
M  V30 1036 H 108.352 4.06076 6.57512 0
M  V30 1037 H 106.697 3.64604 5.91683 0
M  V30 1038 H 109.888 2.20406 4.12963 0
M  V30 1039 H 110.061 3.2717 5.59342 0
M  V30 1040 N 103.467 -1.45747 0.599634 0
M  V30 1041 C 104.714 -2.02292 0.0917284 0
M  V30 1042 C 105.042 -1.46906 -1.27472 0
M  V30 1043 O 104.297 -0.630652 -1.8526 0
M  V30 1044 C 104.596 -3.57399 -0.00602758 0
M  V30 1045 C 104.262 -4.31902 1.29503 0
M  V30 1046 C 102.924 -4.51974 1.65144 0
M  V30 1047 C 105.276 -4.74551 2.15525 0
M  V30 1048 C 102.604 -5.11949 2.86574 0
M  V30 1049 C 104.956 -5.35868 3.36196 0
M  V30 1050 C 103.62 -5.54165 3.72099 0
M  V30 1051 H 102.89 -0.740239 0.0335658 0
M  V30 1052 H 105.537 -1.7491 0.779661 0
M  V30 1053 H 103.842 -3.84014 -0.777183 0
M  V30 1054 H 105.539 -3.98846 -0.415038 0
M  V30 1055 H 102.129 -4.16588 1.00761 0
M  V30 1056 H 106.313 -4.58784 1.8929 0
M  V30 1057 H 101.569 -5.24305 3.14507 0
M  V30 1058 H 105.743 -5.6787 4.03109 0
M  V30 1059 H 103.37 -6.00406 4.6628 0
M  V30 1060 N 104.945 -0.338344 -1.53925 0
M  V30 1061 C 106.222 0.314774 -1.93051 0
M  V30 1062 C 106.602 1.68669 -1.26941 0
M  V30 1063 O 105.95 2.24636 -0.418445 0
M  V30 1064 C 106.16 0.392249 -3.46789 0
M  V30 1065 C 107.508 0.645554 -4.19664 0
M  V30 1066 O 108.532 0.474575 -3.53024 0
M  V30 1067 O 107.391 0.976408 -5.37707 0
M  V30 1068 H 104.485 0.182598 -0.80659 0
M  V30 1069 H 107.031 -0.389141 -1.65178 0
M  V30 1070 H 105.803 -0.570702 -3.87116 0
M  V30 1071 H 105.426 1.14316 -3.80812 0
M  V30 1072 N 106.423 1.57458 -0.0668435 0
M  V30 1073 C 107.671 1.92919 0.602214 0
M  V30 1074 C 107.992 0.947215 1.70449 0
M  V30 1075 O 107.262 -0.00544117 1.95899 0
M  V30 1076 H 105.842 0.71217 0.22544 0
M  V30 1077 H 108.504 1.94508 -0.123535 0
M  V30 1078 H 107.6 2.94589 1.03073 0
M  V30 1079 N 107.901 -0.206675 1.56239 0
M  V30 1080 C 109.131 -0.943975 1.83773 0
M  V30 1081 C 109.539 -1.77841 0.645703 0
M  V30 1082 O 108.882 -1.79403 -0.395008 0
M  V30 1083 C 108.944 -1.899 3.05251 0
M  V30 1084 C 108.608 -1.24764 4.39639 0
M  V30 1085 C 109.605 -0.630216 5.16066 0
M  V30 1086 C 107.29 -1.25496 4.8637 0
M  V30 1087 C 109.284 -0.0287946 6.37393 0
M  V30 1088 C 106.971 -0.649698 6.07637 0
M  V30 1089 C 107.969 -0.0376845 6.8299 0
M  V30 1090 O 107.657 0.55812 8.0196 0
M  V30 1091 H 107.389 -0.281508 0.614597 0
M  V30 1092 H 109.943 -0.222458 2.04192 0
M  V30 1093 H 108.173 -2.6599 2.80689 0
M  V30 1094 H 109.862 -2.5031 3.1953 0
M  V30 1095 H 110.628 -0.616785 4.81062 0
M  V30 1096 H 106.507 -1.72072 4.27683 0
M  V30 1097 H 110.051 0.449518 6.9615 0
M  V30 1098 H 105.948 -0.660592 6.42111 0
M  V30 1099 H 106.716 0.453891 8.17241 0
M  V30 1100 N 109.379 -1.50304 -0.473955 0
M  V30 1101 C 110.609 -1.64663 -1.24778 0
M  V30 1102 C 111.017 -0.328174 -1.86332 0
M  V30 1103 O 110.36 0.699536 -1.69859 0
M  V30 1104 C 110.422 -2.6778 -2.39863 0
M  V30 1105 C 110.086 -4.11413 -1.98969 0
M  V30 1106 C 111.083 -4.97372 -1.51385 0
M  V30 1107 C 108.768 -4.57312 -2.07777 0
M  V30 1108 C 110.762 -6.27277 -1.13148 0
M  V30 1109 C 108.449 -5.87223 -1.69152 0
M  V30 1110 C 109.447 -6.72031 -1.21915 0
M  V30 1111 O 109.135 -7.99518 -0.838237 0
M  V30 1112 H 108.867 -0.556602 -0.383627 0
M  V30 1113 H 111.421 -1.9726 -0.572491 0
M  V30 1114 H 109.651 -2.30419 -3.10554 0
M  V30 1115 H 111.34 -2.71388 -3.01833 0
M  V30 1116 H 112.106 -4.63128 -1.44004 0
M  V30 1117 H 107.985 -3.91449 -2.43493 0
M  V30 1118 H 111.529 -6.93425 -0.762077 0
M  V30 1119 H 107.426 -6.20989 -1.76191 0
M  V30 1120 H 108.194 -8.12764 -0.967339 0
M  V30 1121 N 110.857 0.726932 -1.39834 0
M  V30 1122 C 112.085 1.51613 -1.40787 0
M  V30 1123 C 112.5 1.88799 -0.00451505 0
M  V30 1124 O 111.857 1.54662 0.968809 0
M  V30 1125 C 111.908 2.79863 -2.28821 0
M  V30 1126 O 111.629 2.44253 -3.63692 0
M  V30 1127 C 113.13 3.73837 -2.38245 0
M  V30 1128 H 110.35 0.468264 -0.480593 0
M  V30 1129 H 112.894 0.897607 -1.83748 0
M  V30 1130 H 111.049 3.38027 -1.89252 0
M  V30 1131 H 111.463 3.26695 -4.1033 0
M  V30 1132 H 112.937 4.60699 -3.04073 0
M  V30 1133 H 113.414 4.16153 -1.40403 0
M  V30 1134 H 114.02 3.21589 -2.78317 0
M  V30 1135 N 112.336 1.25143 0.95797 0
M  V30 1136 C 113.284 1.05019 2.07542 0
M  V30 1137 C 114.278 -0.0178751 1.69391 0
M  V30 1138 O 115.484 0.137472 1.79474 0
M  V30 1139 H 111.859 0.32265 0.679265 0
M  V30 1140 H 113.83 1.99759 2.21673 0
M  V30 1141 C 112.579 0.682074 3.40944 0
M  V30 1142 H 111.902 1.49573 3.70767 0
M  V30 1143 H 113.342 0.580945 4.20001 0
M  V30 1144 C 111.801 -0.611608 3.31302 0
M  V30 1145 O 112.331 -1.65465 3.66038 0
M  V30 1146 N 110.537 -0.595982 2.84423 0
M  V30 1147 H 110.084 0.253192 2.56353 0
M  V30 1148 H 110.042 -1.46173 2.78354 0
M  V30 1149 N 113.814 -1.1601 1.06675 0
M  V30 1150 C 114.762 -2.22586 0.675157 0
M  V30 1151 C 115.756 -1.66525 -0.310766 0
M  V30 1152 O 116.962 -1.79145 -0.175215 0
M  V30 1153 H 113.337 -0.724855 0.200223 0
M  V30 1154 H 115.308 -2.52899 1.58381 0
M  V30 1155 C 114.057 -3.47604 0.0817162 0
M  V30 1156 H 113.38 -3.91058 0.831484 0
M  V30 1157 H 114.82 -4.23718 -0.154708 0
M  V30 1158 C 113.279 -3.15718 -1.17576 0
M  V30 1159 O 113.809 -3.31878 -2.26318 0
M  V30 1160 N 112.015 -2.69816 -1.07923 0
M  V30 1161 H 111.562 -2.56866 -0.194293 0
M  V30 1162 H 111.52 -2.48855 -1.92141 0
M  V30 1163 N 115.292 -0.849877 -1.32721 0
M  V30 1164 C 116.54 -0.450032 -1.97026 0
M  V30 1165 C 116.861 0.996604 -1.67609 0
M  V30 1166 O 116.131 1.6958 -0.980786 0
M  V30 1167 H 114.711 -0.163426 -0.728904 0
M  V30 1168 H 117.373 -1.08526 -1.6189 0
M  V30 1169 H 116.469 -0.591146 -3.0645 0
M  V30 1170 N 116.77 1.45427 -0.607355 0
M  V30 1171 C 117.718 2.32269 0.12411 0
M  V30 1172 C 118.712 1.45955 0.859854 0
M  V30 1173 O 119.918 1.6244 0.775447 0
M  V30 1174 H 116.293 0.749691 0.0588839 0
M  V30 1175 H 118.264 2.91743 -0.626762 0
M  V30 1176 C 117.013 3.29567 1.1082 0
M  V30 1177 H 116.336 3.95978 0.551492 0
M  V30 1178 H 117.776 3.93061 1.58995 0
M  V30 1179 C 116.235 2.56722 2.18164 0
M  V30 1180 O 116.765 2.34842 3.25902 0
M  V30 1181 N 114.971 2.16861 1.93442 0
M  V30 1182 H 114.518 2.34855 1.05834 0
M  V30 1183 H 114.476 1.68444 2.65469 0
M  V30 1184 N 118.248 0.346503 1.53744 0
M  V30 1185 C 119.476 -0.25041 2.05379 0
M  V30 1186 C 119.891 -1.43979 1.22129 0
M  V30 1187 O 119.248 -1.80677 0.257321 0
M  V30 1188 C 119.299 -0.662575 3.55376 0
M  V30 1189 O 119.02 0.479515 4.35468 0
M  V30 1190 C 120.521 -1.31989 4.23195 0
M  V30 1191 H 117.741 -0.0478198 0.669294 0
M  V30 1192 H 120.285 0.499346 1.9831 0
M  V30 1193 H 118.44 -1.36227 3.62658 0
M  V30 1194 H 118.854 0.15037 5.24284 0
M  V30 1195 H 120.328 -1.55902 5.29527 0
M  V30 1196 H 120.805 -2.27436 3.75725 0
M  V30 1197 H 121.411 -0.662154 4.20114 0
M  V30 1198 N 119.726 -1.57421 0.075193 0
M  V30 1199 C 120.689 -2.11791 -0.876203 0
M  V30 1200 C 121.689 -1.04268 -1.22412 0
M  V30 1201 O 122.879 -1.30242 -1.15684 0
M  V30 1202 C 120.011 -2.62207 -2.17854 0
M  V30 1203 H 121.204 -2.9716 -0.40444 0
M  V30 1204 H 118.757 -1.55333 -0.173557 0
M  V30 1205 H 119.492 -1.803 -2.6956 0
M  V30 1206 H 119.277 -3.40802 -1.93897 0
M  V30 1207 H 120.767 -3.04335 -2.85955 0
M  V30 1208 N 121.204 0.198386 -1.56346 0
M  V30 1209 C 122.481 0.944982 -1.71258 0
M  V30 1210 C 122.861 2.0151 -0.629048 0
M  V30 1211 O 122.209 2.25639 0.360473 0
M  V30 1212 C 122.419 1.5344 -3.1346 0
M  V30 1213 C 123.767 2.01778 -3.73591 0
M  V30 1214 O 124.791 1.63288 -3.16568 0
M  V30 1215 O 123.65 2.72594 -4.73661 0
M  V30 1216 H 120.744 0.442939 -0.69838 0
M  V30 1217 H 123.29 0.188342 -1.68652 0
M  V30 1218 H 122.062 0.762869 -3.83792 0
M  V30 1219 H 121.685 2.35596 -3.20282 0
M  V30 1220 N 122.682 1.50554 0.465978 0
M  V30 1221 C 123.645 1.69233 1.54574 0
M  V30 1222 C 124.645 0.562901 1.50626 0
M  V30 1223 O 125.835 0.830016 1.53155 0
M  V30 1224 C 122.967 1.7223 2.94193 0
M  V30 1225 H 124.16 2.65571 1.39327 0
M  V30 1226 H 121.713 1.40111 0.692711 0
M  V30 1227 H 122.448 0.77603 3.14878 0
M  V30 1228 H 122.233 2.54285 2.98466 0
M  V30 1229 H 123.723 1.88618 3.72576 0
M  V30 1230 N 124.16 -0.719506 1.40217 0
M  V30 1231 C 125.123 -1.8153 1.39927 0
M  V30 1232 C 126.123 -1.58095 0.293723 0
M  V30 1233 O 127.313 -1.65209 0.552429 0
M  V30 1234 C 124.445 -3.19561 1.18716 0
M  V30 1235 H 125.638 -1.83186 2.37451 0
M  V30 1236 H 123.191 -0.924746 1.26008 0
M  V30 1237 H 123.926 -3.23557 0.219366 0
M  V30 1238 H 123.711 -3.3797 1.98793 0
M  V30 1239 H 125.201 -3.99598 1.21291 0
M  V30 1240 N 125.638 -1.25649 -0.95132 0
M  V30 1241 C 126.868 -1.13179 -1.72841 0
M  V30 1242 C 127.276 0.316827 -1.86528 0
M  V30 1243 O 126.619 1.22948 -1.3649 0
M  V30 1244 C 126.681 -1.71644 -3.15878 0
M  V30 1245 C 126.345 -3.20667 -3.25609 0
M  V30 1246 C 127.342 -4.17616 -3.09666 0
M  V30 1247 C 125.027 -3.6094 -3.49324 0
M  V30 1248 C 127.021 -5.52817 -3.17289 0
M  V30 1249 C 124.708 -4.96278 -3.56584 0
M  V30 1250 C 125.706 -5.92025 -3.40581 0
M  V30 1251 O 125.394 -7.24899 -3.47528 0
M  V30 1252 H 125.126 -0.395389 -0.54831 0
M  V30 1253 H 127.68 -1.66566 -1.20187 0
M  V30 1254 H 125.91 -1.12707 -3.69911 0
M  V30 1255 H 127.599 -1.54225 -3.75459 0
M  V30 1256 H 128.365 -3.87842 -2.91211 0
M  V30 1257 H 124.244 -2.86907 -3.6084 0
M  V30 1258 H 127.788 -6.2753 -3.04716 0
M  V30 1259 H 123.685 -5.25716 -3.74556 0
M  V30 1260 H 124.453 -7.33039 -3.64138 0
M  V30 1261 N 127.117 1.15442 -1.07289 0
M  V30 1262 C 128.364 1.86213 -0.795668 0
M  V30 1263 C 128.692 1.82291 0.678238 0
M  V30 1264 O 127.947 1.24057 1.51355 0
M  V30 1265 C 128.246 3.3489 -1.24834 0
M  V30 1266 C 127.912 3.59007 -2.72809 0
M  V30 1267 C 126.574 3.65298 -3.13227 0
M  V30 1268 C 128.926 3.68762 -3.68326 0
M  V30 1269 C 126.254 3.78854 -4.4798 0
M  V30 1270 C 128.606 3.83842 -5.0284 0
M  V30 1271 C 127.27 3.88378 -5.4288 0
M  V30 1272 H 126.54 0.681403 -0.291155 0
M  V30 1273 H 129.187 1.36435 -1.34379 0
M  V30 1274 H 127.492 3.8687 -0.619595 0
M  V30 1275 H 129.189 3.88052 -1.01076 0
M  V30 1276 H 125.779 3.5475 -2.40521 0
M  V30 1277 H 129.963 3.63202 -3.38227 0
M  V30 1278 H 125.219 3.80623 -4.78472 0
M  V30 1279 H 129.393 3.90332 -5.76727 0
M  V30 1280 H 127.02 3.98635 -6.47298 0
M  V30 1281 N 128.595 0.856903 1.32268 0
M  V30 1282 C 130.011 0.547061 1.49931 0
M  V30 1283 C 130.211 -0.921781 1.7918 0
M  V30 1284 O 129.267 -1.70469 1.8627 0
M  V30 1285 C 130.58 1.43599 2.64196 0
M  V30 1286 C 132.128 1.43665 2.78081 0
M  V30 1287 C 132.603 2.31085 3.95428 0
M  V30 1288 N 134.094 2.28893 4.02694 0
M  V30 1289 C 134.829 2.93262 4.92732 0
M  V30 1290 N 134.325 3.66751 5.87763 0
M  V30 1291 N 136.118 2.82638 4.85873 0
M  V30 1292 H 128.269 1.8075 1.11549 0
M  V30 1293 H 130.532 0.772144 0.549997 0
M  V30 1294 H 130.238 2.48058 2.49319 0
M  V30 1295 H 130.112 1.12502 3.60032 0
M  V30 1296 H 132.499 0.399701 2.92381 0
M  V30 1297 H 132.58 1.7878 1.82952 0
M  V30 1298 H 132.224 3.34849 3.81888 0
M  V30 1299 H 132.154 1.93302 4.89839 0
M  V30 1300 H 134.645 1.75466 3.34694 0
M  V30 1301 H 134.958 4.13027 6.53168 0
M  V30 1302 H 133.303 3.70859 5.87783 0
M  V30 1303 H 136.494 2.24774 4.10602 0
M  V30 1304 H 136.667 3.33084 5.55841 0
M  V30 1305 N 130.073 -1.45103 0.615059 0
M  V30 1306 C 131.489 -1.57137 0.279322 0
M  V30 1307 C 131.689 -1.60523 -1.21797 0
M  V30 1308 O 130.745 -1.53956 -2.00134 0
M  V30 1309 C 132.058 -2.85062 0.957083 0
M  V30 1310 C 133.606 -2.98749 0.933706 0
M  V30 1311 C 134.081 -4.29455 1.59162 0
M  V30 1312 N 135.572 -4.36231 1.55746 0
M  V30 1313 C 136.307 -5.36051 2.0356 0
M  V30 1314 N 135.803 -6.42367 2.59494 0
M  V30 1315 N 137.596 -5.27456 1.94284 0
M  V30 1316 H 129.747 -1.41148 1.58717 0
M  V30 1317 H 132.01 -0.675331 0.665306 0
M  V30 1318 H 131.716 -2.88488 2.01166 0
M  V30 1319 H 131.59 -3.7407 0.48494 0
M  V30 1320 H 133.977 -2.94886 -0.112347 0
M  V30 1321 H 134.058 -2.11132 1.44419 0
M  V30 1322 H 133.702 -4.34077 2.63704 0
M  V30 1323 H 133.632 -5.15901 1.0561 0
M  V30 1324 H 136.123 -3.60011 1.14893 0
M  V30 1325 H 136.436 -7.14793 2.93752 0
M  V30 1326 H 134.781 -6.43097 2.63537 0
M  V30 1327 H 137.972 -4.43308 1.5032 0
M  V30 1328 H 138.145 -6.05099 2.3186 0
M  V30 1329 N 131.551 -0.354651 -1.53558 0
M  V30 1330 C 132.514 0.484566 -2.24019 0
M  V30 1331 C 133.514 1.01861 -1.24422 0
M  V30 1332 O 134.704 0.906097 -1.4878 0
M  V30 1333 C 131.836 1.67615 -2.96847 0
M  V30 1334 H 133.029 -0.131843 -2.9961 0
M  V30 1335 H 130.582 -0.106165 -1.55939 0
M  V30 1336 H 131.317 2.33095 -2.25471 0
M  V30 1337 H 131.102 1.30029 -3.69912 0
M  V30 1338 H 132.592 2.27114 -3.50441 0
M  V30 1339 N 133.029 1.57378 -0.0835403 0
M  V30 1340 C 134.259 1.97975 0.590713 0
M  V30 1341 C 134.667 0.961083 1.62972 0
M  V30 1342 O 134.01 -0.0590879 1.83605 0
M  V30 1343 C 134.072 3.34915 1.3066 0
M  V30 1344 C 133.736 4.55069 0.419698 0
M  V30 1345 C 134.733 5.18868 -0.32749 0
M  V30 1346 C 132.418 5.0114 0.341137 0
M  V30 1347 C 134.412 6.27098 -1.14134 0
M  V30 1348 C 132.099 6.0924 -0.476374 0
M  V30 1349 C 133.097 6.72083 -1.21627 0
M  V30 1350 O 132.785 7.781 -2.02028 0
M  V30 1351 H 132.517 0.655818 0.163947 0
M  V30 1352 H 135.071 2.04807 -0.156021 0
M  V30 1353 H 133.301 3.24733 2.09966 0
M  V30 1354 H 134.99 3.60037 1.87424 0
M  V30 1355 H 135.756 4.84211 -0.276459 0
M  V30 1356 H 131.635 4.51996 0.90668 0
M  V30 1357 H 135.179 6.7608 -1.71935 0
M  V30 1358 H 131.076 6.43329 -0.528927 0
M  V30 1359 H 131.844 7.95034 -1.94586 0
M  V30 1360 N 134.507 -0.190092 1.56449 0
M  V30 1361 C 135.437 -1.23816 1.97969 0
M  V30 1362 C 136.418 -1.47201 0.852395 0
M  V30 1363 O 137.603 -1.58854 1.1171 0
M  V30 1364 C 134.733 -2.5813 2.3235 0
M  V30 1365 C 133.687 -2.49348 3.47864 0
M  V30 1366 C 133.013 -3.8798 3.67934 0
M  V30 1367 C 134.313 -2.01424 4.81898 0
M  V30 1368 H 136.007 -0.89311 2.85769 0
M  V30 1369 H 133.553 -0.428177 1.37487 0
M  V30 1370 H 135.506 -3.31637 2.59991 0
M  V30 1371 H 134.23 -2.94386 1.41438 0
M  V30 1372 H 132.889 -1.78297 3.20321 0
M  V30 1373 H 132.537 -4.21597 2.74344 0
M  V30 1374 H 132.237 -3.82978 4.45648 0
M  V30 1375 H 133.761 -4.63101 3.97957 0
M  V30 1376 H 135.175 -2.64693 5.08538 0
M  V30 1377 H 133.572 -2.07413 5.63116 0
M  V30 1378 H 134.642 -0.967677 4.75146 0
M  V30 1379 N 135.985 -1.50799 -0.457987 0
M  V30 1380 C 136.895 -1.73426 -1.57989 0
M  V30 1381 C 137.911 -0.617745 -1.62665 0
M  V30 1382 O 139.087 -0.897614 -1.80291 0
M  V30 1383 C 136.152 -1.83557 -2.94122 0
M  V30 1384 C 135.213 -3.07345 -2.99729 0
M  V30 1385 C 134.446 -3.16983 -4.29368 0
M  V30 1386 O 134.669 -2.33077 -5.20607 0
M  V30 1387 O 133.603 -4.09812 -4.40837 0
M  V30 1388 H 137.429 -2.68555 -1.41817 0
M  V30 1389 H 135.014 -1.35052 -0.638859 0
M  V30 1390 H 136.896 -1.92326 -3.74952 0
M  V30 1391 H 135.571 -0.916137 -3.10465 0
M  V30 1392 H 134.478 -3.04068 -2.1793 0
M  V30 1393 H 135.811 -3.9891 -2.88326 0
M  V30 1394 N 137.463 0.71206 -1.40597 0
M  V30 1395 C 138.71 1.47197 -1.39065 0
M  V30 1396 C 139.038 1.94499 0.00583891 0
M  V30 1397 O 138.293 1.68752 0.99102 0
M  V30 1398 C 138.592 2.71039 -2.32965 0
M  V30 1399 C 138.258 2.42484 -3.80148 0
M  V30 1400 C 136.92 2.34406 -4.20247 0
M  V30 1401 C 139.272 2.18598 -4.73143 0
M  V30 1402 C 136.6 2.00516 -5.51371 0
M  V30 1403 C 138.952 1.8622 -6.0457 0
M  V30 1404 C 137.616 1.76626 -6.43708 0
M  V30 1405 H 136.886 0.538634 -0.508876 0
M  V30 1406 H 139.533 0.815325 -1.73276 0
M  V30 1407 H 137.838 3.41558 -1.91951 0
M  V30 1408 H 139.535 3.29138 -2.29061 0
M  V30 1409 H 136.125 2.49659 -3.4838 0
M  V30 1410 H 140.309 2.23793 -4.42979 0
M  V30 1411 H 135.565 1.91628 -5.80593 0
M  V30 1412 H 139.739 1.66752 -6.76141 0
M  V30 1413 H 137.366 1.50133 -7.45228 0
M  V30 1414 N 138.941 1.26152 0.944643 0
M  V30 1415 C 140.189 1.11271 1.6871 0
M  V30 1416 C 140.51 -0.345166 1.91921 0
M  V30 1417 O 139.78 -1.24387 1.51343 0
M  V30 1418 H 138.36 0.408783 0.625224 0
M  V30 1419 H 141.022 1.58427 1.1352 0
M  V30 1420 H 140.118 1.62879 2.66227 0
M  V30 1421 N 140.419 -1.14872 1.07899 0
M  V30 1422 C 141.667 -1.85422 0.803941 0
M  V30 1423 C 141.988 -1.83051 -0.67211 0
M  V30 1424 O 141.258 -1.27532 -1.48703 0
M  V30 1425 H 139.838 -0.686537 0.294408 0
M  V30 1426 H 142.5 -1.39226 1.3639 0
M  V30 1427 H 141.596 -2.90399 1.14346 0
M  V30 1428 N 141.898 -0.863906 -1.31812 0
M  V30 1429 C 143.126 -0.486111 -2.01108 0
M  V30 1430 C 143.541 0.919755 -1.64882 0
M  V30 1431 O 142.898 1.60162 -0.874893 0
M  V30 1432 C 142.949 -0.626435 -3.56031 0
M  V30 1433 O 142.67 -1.97693 -3.90959 0
M  V30 1434 C 144.171 -0.248857 -4.42601 0
M  V30 1435 H 141.391 -0.190052 -0.643523 0
M  V30 1436 H 143.935 -1.1634 -1.68182 0
M  V30 1437 H 142.09 0.00322717 -3.874 0
M  V30 1438 H 142.504 -1.98034 -4.85678 0
M  V30 1439 H 143.978 -0.398016 -5.50563 0
M  V30 1440 H 144.455 0.811489 -4.31638 0
M  V30 1441 H 145.061 -0.853971 -4.16638 0
M  V30 1442 N 143.376 1.44774 -0.622745 0
M  V30 1443 C 144.339 2.29069 0.0774015 0
M  V30 1444 C 145.339 1.4059 0.780461 0
M  V30 1445 O 146.529 1.62551 0.626322 0
M  V30 1446 C 143.661 3.21974 1.12006 0
M  V30 1447 H 144.854 2.92459 -0.663901 0
M  V30 1448 H 142.407 1.51548 -0.382486 0
M  V30 1449 H 143.142 2.63417 1.89162 0
M  V30 1450 H 142.927 3.87168 0.619951 0
M  V30 1451 H 144.417 3.85318 1.60995 0
M  V30 1452 N 144.854 0.36279 1.53368 0
M  V30 1453 C 146.084 -0.228281 2.05335 0
M  V30 1454 C 146.492 -1.43226 1.23625 0
M  V30 1455 O 145.835 -1.81717 0.269206 0
M  V30 1456 C 145.897 -0.688549 3.52845 0
M  V30 1457 C 145.561 0.398362 4.5526 0
M  V30 1458 C 146.558 1.24732 5.04716 0
M  V30 1459 C 144.243 0.557805 4.99193 0
M  V30 1460 C 146.237 2.2411 5.96702 0
M  V30 1461 C 143.924 1.55495 5.90986 0
M  V30 1462 C 144.922 2.39503 6.39631 0
M  V30 1463 O 144.61 3.37517 7.29615 0
M  V30 1464 H 144.342 -0.044395 0.674541 0
M  V30 1465 H 146.896 0.518668 1.98744 0
M  V30 1466 H 145.126 -1.48706 3.56964 0
M  V30 1467 H 146.815 -1.20231 3.87685 0
M  V30 1468 H 147.581 1.13532 4.71525 0
M  V30 1469 H 143.46 -0.0862959 4.60919 0
M  V30 1470 H 147.004 2.89718 6.34594 0
M  V30 1471 H 142.901 1.66744 6.23592 0
M  V30 1472 H 143.669 3.33213 7.47604 0
M  V30 1473 N 146.332 -1.57332 0.0918853 0
M  V30 1474 C 147.748 -1.57389 -0.264766 0
M  V30 1475 C 147.948 -1.10281 -1.68643 0
M  V30 1476 O 147.004 -0.777801 -2.40222 0
M  V30 1477 C 148.317 -3.00648 -0.0561195 0
M  V30 1478 C 149.865 -3.12754 -0.124116 0
M  V30 1479 C 150.34 -4.57965 0.0564972 0
M  V30 1480 N 151.831 -4.632 0.00155611 0
M  V30 1481 C 152.566 -5.73281 0.116598 0
M  V30 1482 N 152.062 -6.92208 0.286294 0
M  V30 1483 N 153.855 -5.6207 0.0580973 0
M  V30 1484 H 146.006 -1.86262 1.02079 0
M  V30 1485 H 148.269 -0.859579 0.399786 0
M  V30 1486 H 147.975 -3.393 0.925669 0
M  V30 1487 H 147.849 -3.68623 -0.799823 0
M  V30 1488 H 150.236 -2.73976 -1.09641 0
M  V30 1489 H 150.317 -2.47377 0.651024 0
M  V30 1490 H 149.961 -4.97436 1.02564 0
M  V30 1491 H 149.891 -5.21399 -0.738297 0
M  V30 1492 H 152.382 -3.77686 -0.127192 0
M  V30 1493 H 152.695 -7.71934 0.365676 0
M  V30 1494 H 151.04 -6.94254 0.32192 0
M  V30 1495 H 154.231 -4.68043 -0.0733204 0
M  V30 1496 H 154.404 -6.47824 0.151203 0
M  V30 1497 N 147.81 0.181792 -1.56548 0
M  V30 1498 C 149.087 0.926765 -1.72251 0
M  V30 1499 C 149.467 2.00831 -0.650386 0
M  V30 1500 O 148.815 2.26008 0.336521 0
M  V30 1501 C 149.025 1.50106 -3.1507 0
M  V30 1502 C 150.373 1.97805 -3.75711 0
M  V30 1503 O 151.397 1.59922 -3.18282 0
M  V30 1504 O 150.256 2.67555 -4.76525 0
M  V30 1505 H 147.35 0.435506 -0.703039 0
M  V30 1506 H 149.896 0.170443 -1.68842 0
M  V30 1507 H 148.668 0.72212 -3.84579 0
M  V30 1508 H 148.291 2.32186 -3.22763 0
M  V30 1509 N 149.288 1.51039 0.449983 0
M  V30 1510 C 150.534 1.64287 1.19923 0
M  V30 1511 C 150.889 0.348701 1.89214 0
M  V30 1512 O 150.182 -0.654751 1.80065 0
M  V30 1513 C 150.376 2.77556 2.25161 0
M  V30 1514 C 150.205 4.17862 1.66198 0
M  V30 1515 C 148.975 4.83976 1.45243 0
M  V30 1516 C 151.173 5.01388 1.14519 0
M  V30 1517 N 149.155 6.08433 0.817437 0
M  V30 1518 C 150.526 6.16743 0.634705 0
M  V30 1519 C 152.581 4.87008 1.03574 0
M  V30 1520 C 151.284 7.19295 0.0255452 0
M  V30 1521 C 153.31 5.89757 0.440489 0
M  V30 1522 C 152.672 7.04375 -0.0595112 0
M  V30 1523 H 148.771 0.655161 0.426952 0
M  V30 1524 H 151.355 1.88228 0.49781 0
M  V30 1525 H 149.526 2.553 2.92706 0
M  V30 1526 H 151.258 2.80049 2.92155 0
M  V30 1527 H 148.013 4.41627 1.71063 0
M  V30 1528 H 148.437 6.75017 0.517747 0
M  V30 1529 H 153.079 3.9866 1.4082 0
M  V30 1530 H 150.797 8.07302 -0.359071 0
M  V30 1531 H 154.383 5.80698 0.35788 0
M  V30 1532 H 153.263 7.82521 -0.512882 0
M  V30 1533 N 150.766 -0.704594 1.40972 0
M  V30 1534 C 151.713 -1.81862 1.42109 0
M  V30 1535 C 152.683 -1.63781 0.276593 0
M  V30 1536 O 153.868 -1.84759 0.4763 0
M  V30 1537 C 151.008 -3.19669 1.30022 0
M  V30 1538 C 150.121 -3.49246 2.54267 0
M  V30 1539 C 149.256 -4.76618 2.3454 0
M  V30 1540 C 148.295 -4.99133 3.54306 0
M  V30 1541 N 147.432 -6.17726 3.33706 0
M  V30 1542 H 152.272 -1.80226 2.37324 0
M  V30 1543 H 149.809 -0.880238 1.17857 0
M  V30 1544 H 151.767 -3.99263 1.21018 0
M  V30 1545 H 150.397 -3.20506 0.384192 0
M  V30 1546 H 149.449 -2.64125 2.73756 0
M  V30 1547 H 150.761 -3.61788 3.43381 0
M  V30 1548 H 149.915 -5.64249 2.22952 0
M  V30 1549 H 148.654 -4.66305 1.42867 0
M  V30 1550 H 147.659 -4.09953 3.66359 0
M  V30 1551 H 148.884 -5.11311 4.4692 0
M  V30 1552 H 146.83 -6.08642 2.44725 0
M  V30 1553 H 146.747 -6.30995 4.16391 0
M  V30 1554 H 148.015 -7.08115 3.25873 0
M  V30 1555 N 152.244 -1.26651 -0.937939 0
M  V30 1556 C 153.474 -1.15006 -1.71631 0
M  V30 1557 C 153.882 0.297026 -1.86854 0
M  V30 1558 O 153.225 1.21493 -1.37786 0
M  V30 1559 C 153.287 -1.74984 -3.14039 0
M  V30 1560 C 152.951 -3.24103 -3.2219 0
M  V30 1561 C 153.948 -4.20877 -3.05219 0
M  V30 1562 C 151.633 -3.64625 -3.45476 0
M  V30 1563 C 153.627 -5.56151 -3.11408 0
M  V30 1564 C 151.314 -5.00032 -3.513 0
M  V30 1565 C 152.312 -5.95604 -3.34282 0
M  V30 1566 O 152 -7.28545 -3.3982 0
M  V30 1567 H 151.732 -0.401183 -0.544085 0
M  V30 1568 H 154.286 -1.67832 -1.18413 0
M  V30 1569 H 152.516 -1.16624 -3.68695 0
M  V30 1570 H 154.205 -1.58199 -3.73802 0
M  V30 1571 H 154.971 -3.90908 -2.87081 0
M  V30 1572 H 150.85 -2.90718 -3.57777 0
M  V30 1573 H 154.394 -6.30727 -2.98043 0
M  V30 1574 H 150.291 -5.29659 -3.68959 0
M  V30 1575 H 151.059 -7.3686 -3.56343 0
M  V30 1576 N 153.722 1.14298 -1.08507 0
M  V30 1577 C 154.654 2.1907 -0.673859 0
M  V30 1578 C 155.667 1.60381 0.279577 0
M  V30 1579 O 156.856 1.78374 0.0670754 0
M  V30 1580 C 153.956 3.38888 0.0290979 0
M  V30 1581 C 153.129 4.27103 -0.943494 0
M  V30 1582 C 152.188 5.25477 -0.275676 0
M  V30 1583 O 151.214 5.61709 -0.920401 0
M  V30 1584 N 152.416 5.7227 0.974013 0
M  V30 1585 H 155.181 2.54965 -1.57521 0
M  V30 1586 H 152.742 1.29528 -0.971287 0
M  V30 1587 H 154.734 4.01761 0.48683 0
M  V30 1588 H 153.304 3.01309 0.832555 0
M  V30 1589 H 152.524 3.61149 -1.58004 0
M  V30 1590 H 153.812 4.82905 -1.60251 0
M  V30 1591 H 153.21 5.44965 1.51755 0
M  V30 1592 H 151.767 6.37127 1.37522 0
M  V30 1593 N 155.201 0.870884 1.31352 0
M  V30 1594 C 156.45 0.478408 1.95944 0
M  V30 1595 C 156.763 -0.974493 1.69597 0
M  V30 1596 O 157.969 -1.47316 2.28058 0
M  V30 1597 C 156.425 0.804609 3.50791 0
M  V30 1598 C 156.033 2.27433 3.85977 0
M  V30 1599 C 157.777 0.480648 4.2177 0
M  V30 1600 C 155.684 2.5429 5.33939 0
M  V30 1601 H 154.614 0.175175 0.733369 0
M  V30 1602 H 157.265 1.06391 1.4951 0
M  V30 1603 H 155.647 0.148347 3.95722 0
M  V30 1604 H 156.821 2.97373 3.52002 0
M  V30 1605 H 155.136 2.56442 3.28065 0
M  V30 1606 H 157.733 0.658519 5.30629 0
M  V30 1607 H 158.076 -0.578979 4.12254 0
M  V30 1608 H 158.609 1.09349 3.82476 0
M  V30 1609 H 155.348 3.58939 5.48491 0
M  V30 1610 H 154.868 1.88945 5.69263 0
M  V30 1611 H 156.547 2.39066 6.01212 0
M  V30 1612 N 156.679 -1.44442 0.630414 0
M  V30 1613 C 157.627 -2.32437 -0.0871428 0
M  V30 1614 C 158.621 -1.47304 -0.836525 0
M  V30 1615 O 159.827 -1.63653 -0.749506 0
M  V30 1616 H 156.202 -0.750533 -0.0469495 0
M  V30 1617 H 158.173 -2.90709 0.673096 0
M  V30 1618 C 156.922 -3.31288 -1.05563 0
M  V30 1619 H 156.245 -3.96805 -0.488426 0
M  V30 1620 H 157.685 -3.9554 -1.52721 0
M  V30 1621 C 156.144 -2.6016 -2.14052 0
M  V30 1622 O 156.674 -2.39997 -3.22124 0
M  V30 1623 N 154.88 -2.19911 -1.89967 0
M  V30 1624 H 154.427 -2.36509 -1.02085 0
M  V30 1625 H 154.385 -1.72646 -2.62756 0
M  V30 1626 N 158.157 -0.370918 -1.53173 0
M  V30 1627 C 159.387 0.217389 -2.05453 0
M  V30 1628 C 159.795 1.42568 -1.24382 0
M  V30 1629 O 159.138 1.81571 -0.278839 0
M  V30 1630 C 159.2 0.669827 -3.53205 0
M  V30 1631 C 158.864 -0.4225 -4.55043 0
M  V30 1632 C 159.861 -1.27407 -5.04047 0
M  V30 1633 C 157.546 -0.58427 -4.9889 0
M  V30 1634 C 159.54 -2.27271 -5.95505 0
M  V30 1635 C 157.227 -1.58627 -5.90153 0
M  V30 1636 C 158.225 -2.42892 -6.38351 0
M  V30 1637 O 157.913 -3.41382 -7.27814 0
M  V30 1638 H 157.645 0.0408171 -0.674767 0
M  V30 1639 H 160.199 -0.5292 -1.98466 0
M  V30 1640 H 158.429 1.4681 -3.57748 0
M  V30 1641 H 160.118 1.18173 -3.88317 0
M  V30 1642 H 160.884 -1.16031 -4.70916 0
M  V30 1643 H 156.763 0.061851 -4.60959 0
M  V30 1644 H 160.307 -2.93079 -6.33049 0
M  V30 1645 H 156.204 -1.70048 -6.22699 0
M  V30 1646 H 156.972 -3.37173 -7.45826 0
M  V30 1647 N 159.635 1.57281 -0.100228 0
M  V30 1648 C 160.912 1.86014 0.604812 0
M  V30 1649 C 161.292 0.998025 1.86018 0
M  V30 1650 O 160.64 0.0718184 2.28387 0
M  V30 1651 C 160.85 3.36784 0.915278 0
M  V30 1652 C 162.198 4.04957 1.27651 0
M  V30 1653 O 163.222 3.41695 1.00613 0
M  V30 1654 O 162.081 5.16593 1.7831 0
M  V30 1655 H 159.175 0.76942 0.303185 0
M  V30 1656 H 161.721 1.69176 -0.133313 0
M  V30 1657 H 160.493 3.91292 0.0248896 0
M  V30 1658 H 160.116 3.58987 1.70921 0
M  V30 1659 N 161.113 -0.173488 1.56642 0
M  V30 1660 C 162.043 -1.2171 1.99271 0
M  V30 1661 C 163.024 -1.46289 0.867959 0
M  V30 1662 O 164.209 -1.5766 1.13388 0
M  V30 1663 C 161.339 -2.55651 2.35074 0
M  V30 1664 C 160.293 -2.45645 3.50489 0
M  V30 1665 C 159.619 -3.84056 3.72028 0
M  V30 1666 C 160.919 -1.96302 4.84007 0
M  V30 1667 H 162.613 -0.86275 2.867 0
M  V30 1668 H 160.159 -0.413571 1.37933 0
M  V30 1669 H 162.112 -3.2886 2.63494 0
M  V30 1670 H 160.836 -2.92869 1.44552 0
M  V30 1671 H 159.495 -1.7489 3.22194 0
M  V30 1672 H 159.143 -4.18664 2.788 0
M  V30 1673 H 158.843 -3.7823 4.49684 0
M  V30 1674 H 160.367 -4.58854 4.02846 0
M  V30 1675 H 161.781 -2.59284 5.11317 0
M  V30 1676 H 160.178 -2.01429 5.65284 0
M  V30 1677 H 161.248 -0.917226 4.76146 0
M  V30 1678 N 162.591 -1.51276 -0.441967 0
M  V30 1679 C 163.816 -1.67799 -1.21895 0
M  V30 1680 C 164.241 -0.372864 -1.84367 0
M  V30 1681 O 163.599 0.666501 -1.68604 0
M  V30 1682 C 163.647 -2.79199 -2.28211 0
M  V30 1683 O 162.751 -2.42479 -3.33583 0
M  V30 1684 H 162.092 -0.559649 -0.357336 0
M  V30 1685 H 164.622 -1.97815 -0.522522 0
M  V30 1686 H 164.632 -3.03146 -2.73069 0
M  V30 1687 H 163.307 -3.73906 -1.82118 0
M  V30 1688 H 161.884 -2.29087 -2.94234 0
M  V30 1689 N 164.069 0.697108 -1.41344 0
M  V30 1690 C 165.485 1.00751 -1.2378 0
M  V30 1691 C 165.685 2.01105 -0.126066 0
M  V30 1692 O 164.741 2.47295 0.51004 0
M  V30 1693 C 166.054 1.53359 -2.58653 0
M  V30 1694 C 167.602 1.6525 -2.65822 0
M  V30 1695 C 168.077 2.2126 -4.01009 0
M  V30 1696 N 169.568 2.28622 -4.02847 0
M  V30 1697 C 170.303 2.72984 -5.04249 0
M  V30 1698 N 169.799 3.16962 -6.16041 0
M  V30 1699 N 171.592 2.72534 -4.91611 0
M  V30 1700 H 163.743 0.0322662 -2.12375 0
M  V30 1701 H 166.006 0.0768853 -0.944877 0
M  V30 1702 H 165.712 0.870773 -3.4075 0
M  V30 1703 H 165.586 2.51597 -2.81032 0
M  V30 1704 H 167.973 2.30644 -1.84086 0
M  V30 1705 H 168.054 0.655614 -2.47256 0
M  V30 1706 H 167.698 1.56482 -4.83193 0
M  V30 1707 H 167.628 3.21698 -4.16915 0
M  V30 1708 H 170.119 1.97585 -3.22131 0
M  V30 1709 H 170.432 3.49434 -6.89287 0
M  V30 1710 H 168.777 3.14875 -6.1958 0
M  V30 1711 H 171.968 2.37525 -4.0336 0
M  V30 1712 H 172.141 3.06789 -5.70775 0
M  V30 1713 N 165.547 1.27147 0.931209 0
M  V30 1714 C 166.495 1.09398 2.05268 0
M  V30 1715 C 167.489 0.0180591 1.6939 0
M  V30 1716 O 168.695 0.17551 1.79142 0
M  V30 1717 H 165.07 0.336986 0.672268 0
M  V30 1718 H 167.041 2.04416 2.17386 0
M  V30 1719 C 165.79 0.75424 3.39421 0
M  V30 1720 H 165.113 1.57404 3.67511 0
M  V30 1721 H 166.553 0.669903 4.18674 0
M  V30 1722 C 165.012 -0.541197 3.32525 0
M  V30 1723 O 165.542 -1.57664 3.69466 0
M  V30 1724 N 163.748 -0.535517 2.85623 0
M  V30 1725 H 163.295 0.307511 2.55758 0
M  V30 1726 H 163.253 -1.40236 2.81392 0
M  V30 1727 N 167.025 -1.13721 1.09112 0
M  V30 1728 C 168.271 -1.85198 0.826414 0
M  V30 1729 C 168.604 -1.83129 -0.646319 0
M  V30 1730 O 167.879 -1.2671 -1.47563 0
M  V30 1731 C 168.162 -3.33507 1.35812 0
M  V30 1732 C 168.015 -3.44108 2.89672 0
M  V30 1733 C 169.334 -4.28838 0.989256 0
M  V30 1734 H 166.453 -0.67243 0.301675 0
M  V30 1735 H 169.095 -1.33499 1.35197 0
M  V30 1736 H 167.245 -3.77666 0.911082 0
M  V30 1737 H 168.917 -3.08684 3.428 0
M  V30 1738 H 167.16 -2.85087 3.26967 0
M  V30 1739 H 167.831 -4.48388 3.21951 0
M  V30 1740 H 170.307 -3.92734 1.37475 0
M  V30 1741 H 169.183 -5.31051 1.38838 0
M  V30 1742 H 169.444 -4.4198 -0.102924 0
M  V30 1743 N 168.503 -0.877838 -1.30888 0
M  V30 1744 C 169.751 -0.491723 -1.96027 0
M  V30 1745 C 170.072 0.960827 -1.69685 0
M  V30 1746 O 169.342 1.67462 -1.01654 0
M  V30 1747 H 167.922 -0.17885 -0.725273 0
M  V30 1748 H 170.584 -1.11935 -1.59551 0
M  V30 1749 H 169.68 -0.656016 -3.05128 0
M  V30 1750 N 169.982 1.44106 -0.638065 0
M  V30 1751 C 170.93 2.3248 0.0748149 0
M  V30 1752 C 171.924 1.47746 0.828702 0
M  V30 1753 O 173.13 1.64049 0.740816 0
M  V30 1754 H 169.505 0.750771 0.0429686 0
M  V30 1755 H 171.476 2.90348 -0.688504 0
M  V30 1756 C 170.225 3.31843 1.03805 0
M  V30 1757 H 169.548 3.97059 0.467375 0
M  V30 1758 H 170.988 3.96345 1.50622 0
M  V30 1759 C 169.447 2.61291 2.1267 0
M  V30 1760 O 169.977 2.41702 3.20847 0
M  V30 1761 N 168.183 2.20915 1.88798 0
M  V30 1762 H 167.73 2.37047 1.00829 0
M  V30 1763 H 167.688 1.74038 2.61836 0
M  V30 1764 N 171.46 0.379036 1.52974 0
M  V30 1765 C 172.737 -0.263479 1.93817 0
M  V30 1766 C 173.117 -1.65244 1.31368 0
M  V30 1767 O 172.465 -2.23448 0.477856 0
M  V30 1768 C 172.675 -0.300166 3.47707 0
M  V30 1769 C 174.023 -0.534061 4.21228 0
M  V30 1770 O 175.047 -0.38081 3.54159 0
M  V30 1771 O 173.906 -0.833501 5.40106 0
M  V30 1772 H 171 -0.161149 0.811147 0
M  V30 1773 H 173.546 0.432798 1.64088 0
M  V30 1774 H 172.318 0.673138 3.85467 0
M  V30 1775 H 171.941 -1.04179 3.83709 0
M  V30 1776 N 172.938 -1.57226 0.108567 0
M  V30 1777 C 174.163 -1.99604 -0.563303 0
M  V30 1778 C 174.588 -0.987563 -1.6009 0
M  V30 1779 O 173.946 0.0421687 -1.81251 0
M  V30 1780 C 173.994 -3.40902 -1.17552 0
M  V30 1781 O 173.098 -3.42896 -2.2912 0
M  V30 1782 H 172.439 -0.648704 -0.1417 0
M  V30 1783 H 174.969 -2.03679 0.193961 0
M  V30 1784 H 174.979 -3.78886 -1.51357 0
M  V30 1785 H 173.654 -4.1382 -0.415445 0
M  V30 1786 H 172.231 -3.1672 -1.96832 0
M  V30 1787 N 174.416 0.165178 -1.56732 0
M  V30 1788 C 175.379 1.18822 -1.95995 0
M  V30 1789 C 176.379 1.3685 -0.84431 0
M  V30 1790 O 177.569 1.34152 -1.11126 0
M  V30 1791 C 174.701 2.5521 -2.26011 0
M  V30 1792 H 175.894 0.851825 -2.87548 0
M  V30 1793 H 173.447 0.407857 -1.50885 0
M  V30 1794 H 174.182 2.93852 -1.37191 0
M  V30 1795 H 173.967 2.43489 -3.07336 0
M  V30 1796 H 175.457 3.28927 -2.57288 0
M  V30 1797 N 175.894 1.51508 0.433938 0
M  V30 1798 C 177.142 1.6402 1.18075 0
M  V30 1799 C 177.463 0.360328 1.91642 0
M  V30 1800 O 176.733 -0.623945 1.85698 0
M  V30 1801 H 175.313 0.6045 0.43885 0
M  V30 1802 H 177.975 1.88452 0.497178 0
M  V30 1803 H 177.071 2.46949 1.90847 0
M  V30 1804 N 177.372 -0.689602 1.41712 0
M  V30 1805 C 178.602 -1.47613 1.44548 0
M  V30 1806 C 179.01 -1.89132 0.0509034 0
M  V30 1807 O 178.353 -1.57741 -0.94146 0
M  V30 1808 C 178.415 -2.76596 2.2964 0
M  V30 1809 C 178.079 -2.57245 3.77722 0
M  V30 1810 C 179.076 -2.22804 4.69739 0
M  V30 1811 C 176.761 -2.727 4.2183 0
M  V30 1812 C 178.755 -2.04064 6.03851 0
M  V30 1813 C 176.442 -2.53576 5.56006 0
M  V30 1814 C 177.44 -2.1931 6.46832 0
M  V30 1815 O 177.128 -2.00359 7.78532 0
M  V30 1816 H 176.86 -0.461227 0.494212 0
M  V30 1817 H 179.414 -0.856045 1.86711 0
M  V30 1818 H 177.644 -3.41033 1.82301 0
M  V30 1819 H 179.333 -3.38424 2.24107 0
M  V30 1820 H 180.099 -2.10473 4.36951 0
M  V30 1821 H 175.978 -2.98353 3.51435 0
M  V30 1822 H 179.522 -1.77241 6.74708 0
M  V30 1823 H 175.419 -2.65499 5.88371 0
M  V30 1824 H 176.187 -2.15075 7.89737 0
M  V30 1825 N 178.85 -1.27639 -0.924453 0
M  V30 1826 C 180.097 -1.14167 -1.67249 0
M  V30 1827 C 180.425 0.311863 -1.91984 0
M  V30 1828 O 179.68 1.24425 -1.51053 0
M  V30 1829 C 179.979 -1.87407 -3.04325 0
M  V30 1830 C 179.645 -3.37249 -2.99289 0
M  V30 1831 C 178.307 -3.7812 -2.97622 0
M  V30 1832 C 180.659 -4.32845 -2.90336 0
M  V30 1833 C 177.987 -5.12944 -2.8479 0
M  V30 1834 C 180.339 -5.6773 -2.79045 0
M  V30 1835 C 179.003 -6.07889 -2.7573 0
M  V30 1836 H 178.273 -0.417766 -0.612007 0
M  V30 1837 H 180.92 -1.58286 -1.07786 0
M  V30 1838 H 179.225 -1.35805 -3.67511 0
M  V30 1839 H 180.922 -1.74408 -3.61086 0
M  V30 1840 H 177.512 -3.04748 -3.01374 0
M  V30 1841 H 181.696 -4.02239 -2.90719 0
M  V30 1842 H 176.952 -5.432 -2.80612 0
M  V30 1843 H 181.126 -6.41472 -2.71083 0
M  V30 1844 H 178.753 -7.12314 -2.65544 0
M  V30 1845 N 180.328 1.1314 -1.09713 0
M  V30 1846 C 181.605 1.80762 -0.747302 0
M  V30 1847 C 181.985 1.96663 0.767265 0
M  V30 1848 O 181.333 1.53706 1.69076 0
M  V30 1849 C 181.543 3.15606 -1.48975 0
M  V30 1850 C 182.891 3.90914 -1.65746 0
M  V30 1851 O 183.915 3.25239 -1.45251 0
M  V30 1852 O 182.774 5.08718 -1.9967 0
M  V30 1853 H 179.868 0.782103 -0.268782 0
M  V30 1854 H 182.414 1.20041 -1.19951 0
M  V30 1855 H 181.186 2.99278 -2.52088 0
M  V30 1856 H 180.809 3.84029 -1.02991 0
M  V30 1857 N 181.806 0.884767 1.30421 0
M  V30 1858 C 182.716 0.355398 2.31892 0
M  V30 1859 C 183.732 -0.542261 1.65335 0
M  V30 1860 O 184.908 -0.435432 1.96637 0
M  V30 1861 C 181.973 -0.421661 3.44126 0
M  V30 1862 C 181.034 0.505727 4.26311 0
M  V30 1863 C 180.267 -0.234343 5.33185 0
M  V30 1864 O 180.49 -1.46045 5.51386 0
M  V30 1865 O 179.424 0.415443 6.00465 0
M  V30 1866 H 183.25 1.19685 2.79122 0
M  V30 1867 H 180.835 0.648596 1.34587 0
M  V30 1868 H 182.717 -0.861641 4.12497 0
M  V30 1869 H 181.392 -1.23942 2.99032 0
M  V30 1870 H 180.299 0.994513 3.60639 0
M  V30 1871 H 181.632 1.28948 4.75009 0
M  V30 1872 N 183.284 -1.43765 0.645699 0
M  V30 1873 C 184.247 -2.29163 -0.0409488 0
M  V30 1874 C 185.247 -1.41813 -0.757996 0
M  V30 1875 O 186.437 -1.63527 -0.600382 0
M  V30 1876 C 183.569 -3.23716 -1.06869 0
M  V30 1877 H 184.762 -2.91366 0.710345 0
M  V30 1878 H 182.315 -1.5092 0.406547 0
M  V30 1879 H 183.05 -2.66393 -1.84947 0
M  V30 1880 H 182.835 -3.88105 -0.558277 0
M  V30 1881 H 184.325 -3.87831 -1.54845 0
M  V30 1882 N 184.763 -0.387143 -1.52771 0
M  V30 1883 C 185.988 0.198407 -2.06449 0
M  V30 1884 C 186.413 1.39918 -1.25716 0
M  V30 1885 O 185.771 1.79099 -0.281657 0
M  V30 1886 C 185.819 0.548893 -3.56398 0
M  V30 1887 O 184.923 1.64315 -3.78252 0
M  V30 1888 H 184.264 0.0237731 -0.663574 0
M  V30 1889 H 186.794 -0.553989 -1.96957 0
M  V30 1890 H 186.804 0.813812 -3.99801 0
M  V30 1891 H 185.479 -0.329005 -4.14597 0
M  V30 1892 H 184.056 1.37211 -3.46738 0
M  V30 1893 N 186.241 1.57166 -0.116904 0
M  V30 1894 C 187.487 1.95412 0.542405 0
M  V30 1895 C 187.82 1.00019 1.66463 0
M  V30 1896 O 187.095 0.0370346 1.94465 0
M  V30 1897 C 187.378 3.43615 1.07708 0
M  V30 1898 C 187.231 4.49781 -0.0415868 0
M  V30 1899 C 188.55 3.93616 1.96861 0
M  V30 1900 H 185.669 0.710543 0.195696 0
M  V30 1901 H 188.311 1.89027 -0.192038 0
M  V30 1902 H 186.461 3.49187 1.70296 0
M  V30 1903 H 188.133 4.56308 -0.676793 0
M  V30 1904 H 186.376 4.28033 -0.705019 0
M  V30 1905 H 187.047 5.50733 0.373717 0
M  V30 1906 H 189.523 3.90335 1.44146 0
M  V30 1907 H 188.399 4.97838 2.3119 0
M  V30 1908 H 188.66 3.34188 2.89432 0
M  V30 1909 N 187.719 -0.156864 1.56817 0
M  V30 1910 C 188.947 -0.886316 1.86955 0
M  V30 1911 C 189.362 -1.75185 0.703975 0
M  V30 1912 O 188.719 -1.79555 -0.326552 0
M  V30 1913 C 188.77 -1.75117 3.16253 0
M  V30 1914 O 188.491 -0.920537 4.2832 0
M  V30 1915 C 189.992 -2.58905 3.59837 0
M  V30 1916 H 187.212 -0.25678 0.619923 0
M  V30 1917 H 189.756 -0.152615 2.0393 0
M  V30 1918 H 187.911 -2.43805 3.01062 0
M  V30 1919 H 188.325 -1.51337 5.02192 0
M  V30 1920 H 189.799 -3.1518 4.53172 0
M  V30 1921 H 190.276 -3.34472 2.84649 0
M  V30 1922 H 190.882 -1.95526 3.7769 0
M  V30 1923 N 189.197 -1.51736 -0.425897 0
M  V30 1924 C 190.427 -1.68549 -1.19476 0
M  V30 1925 C 190.835 -0.387288 -1.85194 0
M  V30 1926 O 190.178 0.645142 -1.71999 0
M  V30 1927 C 190.24 -2.75275 -2.31223 0
M  V30 1928 C 189.904 -4.17534 -1.8578 0
M  V30 1929 C 190.901 -5.01936 -1.35485 0
M  V30 1930 C 188.586 -4.6369 -1.93123 0
M  V30 1931 C 190.58 -6.30559 -0.931347 0
M  V30 1932 C 188.267 -5.92307 -1.50384 0
M  V30 1933 C 189.265 -6.75569 -1.00473 0
M  V30 1934 O 188.953 -8.0178 -0.583452 0
M  V30 1935 H 188.685 -0.568525 -0.365725 0
M  V30 1936 H 191.239 -1.98982 -0.509444 0
M  V30 1937 H 189.469 -2.40182 -3.03067 0
M  V30 1938 H 191.158 -2.80853 -2.93047 0
M  V30 1939 H 191.924 -4.67475 -1.29197 0
M  V30 1940 H 187.803 -3.98997 -2.30916 0
M  V30 1941 H 191.347 -6.95498 -0.541084 0
M  V30 1942 H 187.244 -6.2628 -1.56346 0
M  V30 1943 H 188.012 -8.1543 -0.708275 0
M  V30 1944 N 190.675 0.682077 -1.42076 0
M  V30 1945 C 191.903 1.47057 -1.4554 0
M  V30 1946 C 192.318 1.8869 -0.0645779 0
M  V30 1947 O 191.675 1.57666 0.919115 0
M  V30 1948 C 191.726 2.72442 -2.37609 0
M  V30 1949 O 191.447 2.32559 -3.71279 0
M  V30 1950 C 192.948 3.66069 -2.50017 0
M  V30 1951 H 190.168 0.452737 -0.495248 0
M  V30 1952 H 192.712 0.838695 -1.8651 0
M  V30 1953 H 190.867 3.31835 -1.9991 0
M  V30 1954 H 191.281 3.13475 -4.20516 0
M  V30 1955 H 192.755 4.50792 -3.18576 0
M  V30 1956 H 193.232 4.11476 -1.53572 0
M  V30 1957 H 193.838 3.12572 -2.88407 0
M  V30 1958 N 192.153 1.28127 0.917671 0
M  V30 1959 C 193.401 1.14825 1.66312 0
M  V30 1960 C 193.722 -0.304379 1.9261 0
M  V30 1961 O 192.992 -1.21149 1.53947 0
M  V30 1962 H 191.572 0.421953 0.616413 0
M  V30 1963 H 194.234 1.608 1.10134 0
M  V30 1964 H 193.33 1.68489 2.62712 0
M  V30 1965 N 193.631 -1.12557 1.10312 0
M  V30 1966 C 194.878 -1.84038 0.844759 0
M  V30 1967 C 195.206 -1.84026 -0.629668 0
M  V30 1968 O 194.461 -1.28026 -1.48013 0
M  V30 1969 C 194.76 -3.31462 1.33669 0
M  V30 1970 C 194.426 -3.51647 2.82232 0
M  V30 1971 C 193.088 -3.56864 3.22802 0
M  V30 1972 C 195.44 -3.58867 3.77974 0
M  V30 1973 C 192.768 -3.66844 4.57867 0
M  V30 1974 C 195.12 -3.70375 5.1284 0
M  V30 1975 C 193.784 -3.73848 5.52986 0
M  V30 1976 H 193.054 -0.673444 0.309119 0
M  V30 1977 H 195.701 -1.32824 1.37949 0
M  V30 1978 H 194.006 -3.85091 0.721949 0
M  V30 1979 H 195.703 -3.85236 1.11329 0
M  V30 1980 H 192.293 -3.48249 2.49842 0
M  V30 1981 H 196.477 -3.54107 3.47738 0
M  V30 1982 H 191.733 -3.67804 4.88396 0
M  V30 1983 H 195.907 -3.74904 5.86873 0
M  V30 1984 H 193.534 -3.81333 6.57639 0
M  V30 1985 N 195.109 -0.891671 -1.2995 0
M  V30 1986 C 196.057 -0.353066 -2.29905 0
M  V30 1987 C 197.051 0.543509 -1.60444 0
M  V30 1988 O 198.257 0.4272 -1.74857 0
M  V30 1989 H 194.632 -0.095531 -0.745907 0
M  V30 1990 H 196.603 -1.20961 -2.72784 0
M  V30 1991 C 195.352 0.411475 -3.45257 0
M  V30 1992 H 194.675 -0.269182 -3.98893 0
M  V30 1993 H 196.115 0.753328 -4.17254 0
M  V30 1994 C 194.574 1.6111 -2.9588 0
M  V30 1995 O 195.104 2.71045 -2.96475 0
M  V30 1996 N 193.31 1.45054 -2.51809 0
M  V30 1997 H 192.857 0.556175 -2.51524 0
M  V30 1998 H 192.815 2.25453 -2.1913 0
M  V30 1999 N 196.587 1.43421 -0.653314 0
M  V30 2000 C 197.998 1.85065 -0.246537 0
M  V30 2001 C 198.349 1.54688 1.2069 0
M  V30 2002 O 197.474 0.995896 1.92122 0
M  V30 2003 C 198.069 3.35922 -0.440666 0
M  V30 2004 C 196.628 3.76297 -0.0882064 0
M  V30 2005 C 195.775 2.67147 -0.743484 0
M  V30 2006 H 198.726 1.33572 -0.856979 0
M  V30 2007 H 198.747 3.79204 0.313798 0
M  V30 2008 H 198.259 3.58 -1.49858 0
M  V30 2009 H 196.36 3.5983 0.96711 0
M  V30 2010 H 196.473 4.76338 -0.513738 0
M  V30 2011 H 194.837 2.54086 -0.176712 0
M  V30 2012 H 195.62 2.92053 -1.80443 0
M  V30 2013 N 198.065 0.39524 1.52563 0
M  V30 2014 C 199.311 -0.185318 2.01952 0
M  V30 2015 C 199.644 -1.45964 1.28095 0
M  V30 2016 O 198.919 -1.90689 0.38315 0
M  V30 2017 C 199.202 -0.447193 3.57312 0
M  V30 2018 C 199.055 0.842828 4.41833 0
M  V30 2019 C 200.374 -1.23529 4.22408 0
M  V30 2020 H 197.493 -0.0658788 0.73405 0
M  V30 2021 H 200.135 0.525975 1.82575 0
M  V30 2022 H 198.285 -1.05312 3.73954 0
M  V30 2023 H 199.957 1.4795 4.36931 0
M  V30 2024 H 198.2 1.45686 4.08605 0
M  V30 2025 H 198.871 0.614165 5.48573 0
M  V30 2026 H 201.347 -0.722445 4.0978 0
M  V30 2027 H 200.223 -1.38727 5.3108 0
M  V30 2028 H 200.484 -2.25213 3.80436 0
M  V30 2029 N 199.544 -1.57102 0.125237 0
M  V30 2030 C 200.492 -2.16905 -0.839927 0
M  V30 2031 C 201.486 -1.11998 -1.27094 0
M  V30 2032 O 202.692 -1.3029 -1.24195 0
M  V30 2033 H 199.067 -0.694252 -0.288995 0
M  V30 2034 H 201.038 -2.96774 -0.311115 0
M  V30 2035 C 199.787 -2.78795 -2.07771 0
M  V30 2036 H 199.11 -3.59221 -1.755 0
M  V30 2037 H 200.55 -3.2417 -2.73295 0
M  V30 2038 C 199.009 -1.76193 -2.87155 0
M  V30 2039 O 199.539 -1.21909 -3.82755 0
M  V30 2040 N 197.745 -1.45991 -2.51267 0
M  V30 2041 H 197.292 -1.90325 -1.73592 0
M  V30 2042 H 197.25 -0.775844 -3.04677 0
M  V30 2043 N 201.022 0.148545 -1.56898 0
M  V30 2044 C 201.952 1.18524 -2.01182 0
M  V30 2045 C 202.933 1.4489 -0.891123 0
M  V30 2046 O 204.118 1.55836 -1.15882 0
M  V30 2047 C 201.248 2.51879 -2.39112 0
M  V30 2048 C 200.202 2.40038 -3.54353 0
M  V30 2049 C 199.528 3.78089 -3.78091 0
M  V30 2050 C 200.828 1.88577 -4.87069 0
M  V30 2051 H 202.522 0.817029 -2.88036 0
M  V30 2052 H 200.068 0.391575 -1.38574 0
M  V30 2053 H 202.021 3.24627 -2.68692 0
M  V30 2054 H 200.745 2.90532 -1.49193 0
M  V30 2055 H 199.404 1.69742 -3.24936 0
M  V30 2056 H 199.052 4.14175 -2.85426 0
M  V30 2057 H 198.752 3.71028 -4.55645 0
M  V30 2058 H 200.276 4.52387 -4.10095 0
M  V30 2059 H 201.69 2.51117 -5.15377 0
M  V30 2060 H 200.087 1.9241 -5.68417 0
M  V30 2061 H 201.157 0.84136 -4.77545 0
M  V30 2062 N 202.5 1.5196 0.417844 0
M  V30 2063 C 203.447 1.74678 1.50852 0
M  V30 2064 C 204.417 0.588947 1.55308 0
M  V30 2065 O 205.602 0.825544 1.72016 0
M  V30 2066 C 202.742 1.89544 2.88387 0
M  V30 2067 C 201.855 3.17166 2.93309 0
M  V30 2068 C 200.99 3.22513 4.22088 0
M  V30 2069 C 200.029 4.44372 4.20951 0
M  V30 2070 N 199.166 4.47161 5.41287 0
M  V30 2071 H 204.006 2.67768 1.30783 0
M  V30 2072 H 201.543 1.32689 0.63498 0
M  V30 2073 H 203.501 1.96146 3.68216 0
M  V30 2074 H 202.131 0.998424 3.06971 0
M  V30 2075 H 201.183 3.19778 2.06024 0
M  V30 2076 H 202.495 4.07021 2.88332 0
M  V30 2077 H 201.649 3.28139 5.10303 0
M  V30 2078 H 200.388 2.30581 4.29748 0
M  V30 2079 H 199.393 4.38902 3.31127 0
M  V30 2080 H 200.618 5.3759 4.14938 0
M  V30 2081 H 198.564 3.58108 5.49632 0
M  V30 2082 H 198.481 5.3085 5.3827 0
M  V30 2083 H 199.749 4.57005 6.3148 0
M  V30 2084 N 203.978 -0.674533 1.42435 0
M  V30 2085 C 205.225 -1.43459 1.42919 0
M  V30 2086 C 205.553 -1.94446 0.0457312 0
M  V30 2087 O 204.808 -1.7132 -0.94593 0
M  V30 2088 C 205.107 -2.64767 2.40069 0
M  V30 2089 C 204.773 -2.3232 3.86443 0
M  V30 2090 C 203.435 -2.23182 4.26314 0
M  V30 2091 C 205.787 -2.05977 4.78773 0
M  V30 2092 C 203.115 -1.85827 5.56494 0
M  V30 2093 C 205.467 -1.70125 6.09295 0
M  V30 2094 C 204.131 -1.59498 6.48164 0
M  V30 2095 H 203.401 -0.524952 0.522978 0
M  V30 2096 H 206.048 -0.769097 1.75377 0
M  V30 2097 H 204.353 -3.36349 2.00939 0
M  V30 2098 H 206.05 -3.22949 2.37707 0
M  V30 2099 H 202.64 -2.40334 3.54877 0
M  V30 2100 H 206.824 -2.11969 4.48757 0
M  V30 2101 H 202.08 -1.76168 5.8547 0
M  V30 2102 H 206.254 -1.48767 6.80324 0
M  V30 2103 H 203.881 -1.30322 7.48946 0
M  V30 2104 N 205.456 -1.28612 -0.910864 0
M  V30 2105 C 206.704 -1.15705 -1.65701 0
M  V30 2106 C 207.025 0.29416 -1.92769 0
M  V30 2107 O 206.295 1.20331 -1.54588 0
M  V30 2108 H 204.875 -0.425216 -0.614167 0
M  V30 2109 H 207.537 -1.61381 -1.0928 0
M  V30 2110 H 206.633 -1.6988 -2.61815 0
M  V30 2111 N 206.934 1.1197 -1.10907 0
M  V30 2112 C 208.35 1.35591 -0.841852 0
M  V30 2113 C 208.55 1.94233 0.536246 0
M  V30 2114 O 207.606 2.1717 1.28816 0
M  V30 2115 C 208.919 2.29284 -1.94549 0
M  V30 2116 C 210.467 2.42862 -1.97451 0
M  V30 2117 C 210.942 3.39873 -3.07002 0
M  V30 2118 N 212.433 3.47433 -3.06341 0
M  V30 2119 C 213.168 4.22421 -3.87748 0
M  V30 2120 N 212.664 5.00432 -4.79103 0
M  V30 2121 N 214.457 4.17876 -3.75946 0
M  V30 2122 H 206.608 0.722664 -1.99728 0
M  V30 2123 H 208.871 0.380635 -0.868229 0
M  V30 2124 H 208.577 1.93378 -2.93765 0
M  V30 2125 H 208.451 3.29452 -1.83688 0
M  V30 2126 H 210.838 2.78046 -0.988645 0
M  V30 2127 H 210.919 1.42566 -2.12388 0
M  V30 2128 H 210.563 3.05417 -4.05811 0
M  V30 2129 H 210.493 4.40011 -2.89306 0
M  V30 2130 H 212.984 2.91784 -2.40147 0
M  V30 2131 H 213.297 5.55002 -5.37766 0
M  V30 2132 H 211.642 4.99612 -4.83128 0
M  V30 2133 H 214.833 3.56016 -3.03924 0
M  V30 2134 H 215.006 4.76061 -4.39624 0
M  V30 2135 N 208.412 0.89855 1.29475 0
M  V30 2136 C 209.659 0.523882 1.95606 0
M  V30 2137 C 209.987 -0.929608 1.70847 0
M  V30 2138 O 209.242 -1.67401 1.01367 0
M  V30 2139 C 209.541 0.761398 3.49195 0
M  V30 2140 C 209.207 2.19207 3.94029 0
M  V30 2141 C 207.869 2.58326 4.05982 0
M  V30 2142 C 210.221 3.12379 4.17216 0
M  V30 2143 C 207.549 3.898 4.38489 0
M  V30 2144 C 209.901 4.43401 4.51197 0
M  V30 2145 C 208.565 4.82394 4.61359 0
M  V30 2146 H 207.835 0.191702 0.715773 0
M  V30 2147 H 210.482 1.13699 1.54094 0
M  V30 2148 H 208.787 0.0653622 3.91745 0
M  V30 2149 H 210.484 0.450904 3.98457 0
M  V30 2150 H 207.074 1.87846 3.85242 0
M  V30 2151 H 211.258 2.83371 4.07449 0
M  V30 2152 H 206.514 4.19734 4.44559 0
M  V30 2153 H 210.688 5.15623 4.68087 0
M  V30 2154 H 208.315 5.84306 4.86303 0
M  V30 2155 N 209.89 -1.43072 0.660911 0
M  V30 2156 C 211.12 -2.05769 0.185153 0
M  V30 2157 C 211.528 -1.49668 -1.15742 0
M  V30 2158 O 210.871 -0.625649 -1.72717 0
M  V30 2159 C 210.933 -3.59489 0.0278237 0
M  V30 2160 C 210.597 -4.38212 1.2969 0
M  V30 2161 C 211.594 -4.69772 2.22734 0
M  V30 2162 C 209.279 -4.7809 1.54063 0
M  V30 2163 C 211.273 -5.40129 3.38437 0
M  V30 2164 C 208.96 -5.4819 2.70058 0
M  V30 2165 C 209.958 -5.79132 3.62071 0
M  V30 2166 O 209.646 -6.47798 4.76039 0
M  V30 2167 H 209.378 -0.669873 0.0908086 0
M  V30 2168 H 211.932 -1.84436 0.90402 0
M  V30 2169 H 210.162 -3.79426 -0.746489 0
M  V30 2170 H 211.851 -4.03862 -0.406275 0
M  V30 2171 H 212.617 -4.39476 2.05149 0
M  V30 2172 H 208.496 -4.53408 0.833215 0
M  V30 2173 H 212.04 -5.64198 4.10277 0
M  V30 2174 H 207.937 -5.77902 2.87574 0
M  V30 2175 H 208.705 -6.66283 4.75404 0
M  V30 2176 N 211.368 -0.403325 -1.52352 0
M  V30 2177 C 212.596 0.174012 -2.06167 0
M  V30 2178 C 213.011 1.39347 -1.27388 0
M  V30 2179 O 212.368 1.79597 -0.324201 0
M  V30 2180 C 212.419 0.530223 -3.5759 0
M  V30 2181 O 212.14 -0.640806 -4.33388 0
M  V30 2182 C 213.641 1.16192 -4.27802 0
M  V30 2183 H 210.861 0.0229464 -0.670608 0
M  V30 2184 H 213.405 -0.572604 -1.9632 0
M  V30 2185 H 211.56 1.22673 -3.67464 0
M  V30 2186 H 211.974 -0.344851 -5.23365 0
M  V30 2187 H 213.448 1.36141 -5.34948 0
M  V30 2188 H 213.925 2.13335 -3.83907 0
M  V30 2189 H 214.531 0.505775 -4.22282 0
M  V30 2190 N 212.846 1.57033 -0.133567 0
M  V30 2191 C 214.123 1.87256 0.56522 0
M  V30 2192 C 214.503 1.03726 1.83859 0
M  V30 2193 O 213.851 0.120247 2.28183 0
M  V30 2194 C 214.061 3.3865 0.843636 0
M  V30 2195 C 215.409 4.07574 1.19032 0
M  V30 2196 O 216.433 3.43752 0.933429 0
M  V30 2197 O 215.292 5.20259 1.67312 0
M  V30 2198 H 212.386 0.775678 0.286796 0
M  V30 2199 H 214.932 1.68855 -0.169168 0
M  V30 2200 H 213.704 3.91257 -0.0581149 0
M  V30 2201 H 213.327 3.62532 1.63268 0
M  V30 2202 N 214.325 -0.140222 1.56975 0
M  V30 2203 C 215.572 -0.851687 1.83719 0
M  V30 2204 C 215.9 -1.80862 0.715485 0
M  V30 2205 O 215.155 -1.93464 -0.294956 0
M  V30 2206 C 215.454 -1.65386 3.16832 0
M  V30 2207 C 215.12 -0.843112 4.42947 0
M  V30 2208 C 213.782 -0.619464 4.77196 0
M  V30 2209 C 216.134 -0.276582 5.20466 0
M  V30 2210 C 213.462 0.181312 5.8642 0
M  V30 2211 C 215.814 0.51127 6.30531 0
M  V30 2212 C 214.478 0.745432 6.63325 0
M  V30 2213 H 213.748 -0.311654 0.672274 0
M  V30 2214 H 216.395 -0.115006 1.91154 0
M  V30 2215 H 214.7 -2.46084 3.04877 0
M  V30 2216 H 216.397 -2.20793 3.34741 0
M  V30 2217 H 212.987 -1.0275 4.16101 0
M  V30 2218 H 217.171 -0.436632 4.94376 0
M  V30 2219 H 212.427 0.372165 6.10266 0
M  V30 2220 H 216.601 0.957354 6.89788 0
M  V30 2221 H 214.228 1.36778 7.47794 0
M  V30 2222 N 215.803 -1.52179 -0.40978 0
M  V30 2223 C 217.051 -1.65878 -1.15451 0
M  V30 2224 C 217.372 -0.390771 -1.91044 0
M  V30 2225 O 216.642 0.594323 -1.86667 0
M  V30 2226 H 215.222 -0.611405 -0.429177 0
M  V30 2227 H 217.884 -1.89219 -0.467134 0
M  V30 2228 H 216.98 -2.49954 -1.86894 0
M  V30 2229 N 217.281 0.66697 -1.42791 0
M  V30 2230 C 218.211 1.79218 -1.49677 0
M  V30 2231 C 219.192 1.66405 -0.352623 0
M  V30 2232 O 220.377 1.85708 -0.567993 0
M  V30 2233 C 217.507 3.17565 -1.40605 0
M  V30 2234 C 216.461 3.45124 -2.53127 0
M  V30 2235 C 215.787 4.83127 -2.29112 0
M  V30 2236 C 217.087 3.41236 -3.95418 0
M  V30 2237 H 218.781 1.73713 -2.43853 0
M  V30 2238 H 216.327 0.83432 -1.17367 0
M  V30 2239 H 218.28 3.96022 -1.44029 0
M  V30 2240 H 217.004 3.23767 -0.429271 0
M  V30 2241 H 215.663 2.69031 -2.49034 0
M  V30 2242 H 215.311 4.85988 -1.29709 0
M  V30 2243 H 215.011 5.02528 -3.04531 0
M  V30 2244 H 216.535 5.63859 -2.34297 0
M  V30 2245 H 217.949 4.09651 -4.01073 0
M  V30 2246 H 216.346 3.72173 -4.70752 0
M  V30 2247 H 217.416 2.39665 -4.21532 0
M  V30 2248 N 218.759 1.29093 0.90403 0
M  V30 2249 C 219.669 1.15727 2.0407 0
M  V30 2250 C 220.685 0.0815308 1.73809 0
M  V30 2251 O 221.861 0.292749 1.99261 0
M  V30 2252 C 218.926 0.830424 3.36608 0
M  V30 2253 C 217.987 1.98955 3.80415 0
M  V30 2254 C 217.22 1.6782 5.06628 0
M  V30 2255 O 217.443 0.597105 5.67266 0
M  V30 2256 O 216.377 2.52486 5.46383 0
M  V30 2257 H 220.203 2.11171 2.18267 0
M  V30 2258 H 217.788 1.08504 1.027 0
M  V30 2259 H 219.67 0.662521 4.16159 0
M  V30 2260 H 218.345 -0.0942678 3.23563 0
M  V30 2261 H 217.252 2.21267 3.01648 0
M  V30 2262 H 218.585 2.89529 3.98037 0
M  V30 2263 N 220.237 -1.11381 1.11499 0
M  V30 2264 C 221.184 -2.17439 0.773887 0
M  V30 2265 C 222.154 -1.64132 -0.254899 0
M  V30 2266 O 223.339 -1.90345 -0.13168 0
M  V30 2267 C 220.479 -3.44373 0.223917 0
M  V30 2268 C 219.592 -4.1168 1.30934 0
M  V30 2269 C 218.727 -5.263 0.71984 0
M  V30 2270 C 217.766 -5.85493 1.78507 0
M  V30 2271 N 216.903 -6.91507 1.21502 0
M  V30 2272 H 221.743 -2.45962 1.68246 0
M  V30 2273 H 219.28 -1.20744 0.840191 0
M  V30 2274 H 221.238 -4.17047 -0.112921 0
M  V30 2275 H 219.868 -3.16232 -0.647851 0
M  V30 2276 H 218.92 -3.37073 1.76312 0
M  V30 2277 H 220.232 -4.51729 2.11524 0
M  V30 2278 H 219.386 -6.05785 0.333094 0
M  V30 2279 H 218.125 -4.87559 -0.117377 0
M  V30 2280 H 217.13 -5.04686 2.18111 0
M  V30 2281 H 218.355 -6.26301 2.62533 0
M  V30 2282 H 216.301 -6.54783 0.399455 0
M  V30 2283 H 216.218 -7.30214 1.95763 0
M  V30 2284 H 217.486 -7.74795 0.855181 0
M  V30 2285 N 221.715 -0.905404 -1.28997 0
M  V30 2286 C 222.678 -0.392253 -2.25819 0
M  V30 2287 C 223.678 0.476753 -1.5357 0
M  V30 2288 O 224.868 0.280994 -1.71919 0
M  V30 2289 C 222 0.438588 -3.38067 0
M  V30 2290 H 223.193 -1.24743 -2.72725 0
M  V30 2291 H 220.746 -0.684051 -1.40536 0
M  V30 2292 H 221.481 1.31352 -2.96508 0
M  V30 2293 H 221.266 -0.184167 -3.91667 0
M  V30 2294 H 222.756 0.78873 -4.10084 0
M  V30 2295 N 223.193 1.4272 -0.668489 0
M  V30 2296 C 224.421 2.05966 -0.196348 0
M  V30 2297 C 224.836 1.50191 1.14403 0
M  V30 2298 O 224.193 0.639208 1.7094 0
M  V30 2299 C 224.244 3.61314 -0.115815 0
M  V30 2300 O 223.965 4.1502 -1.40322 0
M  V30 2301 C 225.466 4.41663 0.380579 0
M  V30 2302 H 222.686 0.663954 -0.0969829 0
M  V30 2303 H 225.23 1.82966 -0.913446 0
M  V30 2304 H 223.385 3.83448 0.551931 0
M  V30 2305 H 223.799 5.08832 -1.27243 0
M  V30 2306 H 225.273 5.5065 0.385848 0
M  V30 2307 H 225.75 4.15792 1.41471 0
M  V30 2308 H 226.356 4.24534 -0.255209 0
M  V30 2309 N 224.671 0.411399 1.52136 0
M  V30 2310 C 225.896 -0.165538 2.06738 0
M  V30 2311 C 226.321 -1.379 1.27926 0
M  V30 2312 O 225.679 -1.78628 0.310114 0
M  V30 2313 C 225.727 -0.492124 3.57226 0
M  V30 2314 O 224.831 -1.58276 3.80818 0
M  V30 2315 H 224.172 -0.0132132 0.663869 0
M  V30 2316 H 226.702 0.585253 1.96051 0
M  V30 2317 H 226.712 -0.750104 4.01045 0
M  V30 2318 H 225.387 0.394922 4.14021 0
M  V30 2319 H 223.964 -1.31677 3.48877 0
M  V30 2320 N 226.149 -1.5696 0.141893 0
M  V30 2321 C 227.374 -2.00754 -0.520838 0
M  V30 2322 C 227.799 -1.0213 -1.57959 0
M  V30 2323 O 227.157 0.00371324 -1.813 0
M  V30 2324 C 227.205 -3.43318 -1.10294 0
M  V30 2325 O 226.309 -3.47679 -2.21795 0
M  V30 2326 H 225.65 -0.651564 -0.127908 0
M  V30 2327 H 228.18 -2.03221 0.23712 0
M  V30 2328 H 228.19 -3.82012 -1.43287 0
M  V30 2329 H 226.865 -4.14608 -0.327574 0
M  V30 2330 H 225.442 -3.20824 -1.9007 0
M  V30 2331 N 227.627 0.131896 -1.57047 0
M  V30 2332 C 228.574 1.16236 -1.99393 0
M  V30 2333 C 229.544 1.41863 -0.863943 0
M  V30 2334 O 230.729 1.53946 -1.12718 0
M  V30 2335 C 227.869 2.48708 -2.39245 0
M  V30 2336 C 226.982 2.30127 -3.65603 0
M  V30 2337 C 226.117 3.55738 -3.94492 0
M  V30 2338 C 225.156 3.32259 -5.14073 0
M  V30 2339 N 224.293 4.50039 -5.38896 0
M  V30 2340 H 229.133 0.794251 -2.87221 0
M  V30 2341 H 226.67 0.380707 -1.42088 0
M  V30 2342 H 228.628 3.25969 -2.60384 0
M  V30 2343 H 227.258 2.83437 -1.54478 0
M  V30 2344 H 226.31 1.43845 -3.52154 0
M  V30 2345 H 227.622 2.08746 -4.5302 0
M  V30 2346 H 226.776 4.41423 -4.1621 0
M  V30 2347 H 225.515 3.80138 -3.05526 0
M  V30 2348 H 224.52 2.44963 -4.92212 0
M  V30 2349 H 225.745 3.09242 -6.04604 0
M  V30 2350 H 223.691 4.74584 -4.52886 0
M  V30 2351 H 223.608 4.31716 -6.2061 0
M  V30 2352 H 224.876 5.36895 -5.65123 0
M  V30 2353 N 229.106 1.52395 0.401703 0
M  V30 2354 C 230.352 1.68019 1.14635 0
M  V30 2355 C 230.707 0.408722 1.88009 0
M  V30 2356 O 230 -0.597133 1.82057 0
M  V30 2357 C 230.194 2.84578 2.16217 0
M  V30 2358 C 230.023 4.22938 1.5282 0
M  V30 2359 C 228.793 4.88352 1.29772 0
M  V30 2360 C 230.991 5.04778 0.985094 0
M  V30 2361 N 228.973 6.10726 0.623455 0
M  V30 2362 C 230.344 6.1845 0.438172 0
M  V30 2363 C 232.399 4.90057 0.880275 0
M  V30 2364 C 231.102 7.19013 -0.203306 0
M  V30 2365 C 233.128 5.9086 0.252639 0
M  V30 2366 C 232.49 7.03829 -0.283573 0
M  V30 2367 H 228.589 0.668413 0.405892 0
M  V30 2368 H 231.173 1.89717 0.437674 0
M  V30 2369 H 229.344 2.64483 2.84435 0
M  V30 2370 H 231.076 2.89202 2.83098 0
M  V30 2371 H 227.831 4.46846 1.56926 0
M  V30 2372 H 228.255 6.76323 0.302733 0
M  V30 2373 H 232.897 4.02938 1.28065 0
M  V30 2374 H 230.615 8.05751 -0.615726 0
M  V30 2375 H 234.201 5.81543 0.172954 0
M  V30 2376 H 233.081 7.80493 -0.761575 0
M  V30 2377 N 230.584 -0.659388 1.43143 0
M  V30 2378 C 231.83 -1.42145 1.44647 0
M  V30 2379 C 232.163 -1.9408 0.0681907 0
M  V30 2380 O 231.438 -1.71899 -0.910007 0
M  V30 2381 C 231.721 -2.60735 2.48373 0
M  V30 2382 C 231.574 -2.14332 3.95451 0
M  V30 2383 C 232.893 -3.62951 2.48906 0
M  V30 2384 H 230.012 -0.51552 0.526696 0
M  V30 2385 H 232.654 -0.748069 1.74654 0
M  V30 2386 H 230.804 -3.18184 2.22916 0
M  V30 2387 H 232.476 -1.61932 4.31944 0
M  V30 2388 H 230.719 -1.4576 4.08578 0
M  V30 2389 H 231.39 -2.99583 4.63631 0
M  V30 2390 H 233.866 -3.1525 2.71582 0
M  V30 2391 H 232.742 -4.43487 3.23435 0
M  V30 2392 H 233.003 -4.15126 1.52061 0
M  V30 2393 N 232.062 -1.29571 -0.897171 0
M  V30 2394 C 233.29 -1.20583 -1.68129 0
M  V30 2395 C 233.705 0.233181 -1.87354 0
M  V30 2396 O 233.062 1.15579 -1.41236 0
M  V30 2397 C 233.113 -1.91772 -3.06441 0
M  V30 2398 O 232.834 -3.30053 -2.88091 0
M  V30 2399 C 234.335 -1.89291 -4.00854 0
M  V30 2400 H 231.555 -0.417826 -0.525036 0
M  V30 2401 H 234.099 -1.70987 -1.12177 0
M  V30 2402 H 232.254 -1.45196 -3.59161 0
M  V30 2403 H 232.668 -3.65942 -3.75748 0
M  V30 2404 H 234.142 -2.43662 -4.95311 0
M  V30 2405 H 234.619 -0.869014 -4.30517 0
M  V30 2406 H 235.225 -2.35622 -3.54066 0
M  V30 2407 N 233.54 1.10788 -1.12088 0
M  V30 2408 C 234.503 2.15207 -0.788577 0
M  V30 2409 C 235.503 1.59609 0.195317 0
M  V30 2410 O 236.693 1.74174 -0.0300193 0
M  V30 2411 C 233.825 3.4047 -0.171174 0
M  V30 2412 H 235.018 2.46116 -1.71368 0
M  V30 2413 H 232.571 1.26089 -0.923652 0
M  V30 2414 H 233.306 3.15176 0.763832 0
M  V30 2415 H 233.091 3.82109 -0.879514 0
M  V30 2416 H 234.581 4.17576 0.04496 0
M  V30 2417 N 235.018 0.912232 1.28515 0
M  V30 2418 C 235.948 0.416403 2.29757 0
M  V30 2419 C 236.929 -0.515194 1.6211 0
M  V30 2420 O 238.114 -0.423253 1.89532 0
M  V30 2421 C 235.244 -0.34572 3.45575 0
M  V30 2422 C 234.198 0.496599 4.25109 0
M  V30 2423 C 233.524 -0.393771 5.33248 0
M  V30 2424 C 234.824 1.75307 4.92001 0
M  V30 2425 H 236.518 1.26249 2.7148 0
M  V30 2426 H 234.064 0.608515 1.30511 0
M  V30 2427 H 236.017 -0.703422 4.15488 0
M  V30 2428 H 234.741 -1.2257 3.02728 0
M  V30 2429 H 233.4 0.8368 3.56922 0
M  V30 2430 H 233.048 -1.27225 4.86644 0
M  V30 2431 H 232.748 0.166209 5.87365 0
M  V30 2432 H 234.272 -0.747389 6.06009 0
M  V30 2433 H 235.686 1.46437 5.54283 0
M  V30 2434 H 234.083 2.25534 5.56106 0
M  V30 2435 H 235.153 2.48176 4.16577 0
M  V30 2436 N 236.496 -1.42363 0.676048 0
M  V30 2437 C 237.406 -2.346 -0.00153389 0
M  V30 2438 C 238.422 -1.5516 -0.787485 0
M  V30 2439 O 239.598 -1.87723 -0.729521 0
M  V30 2440 C 236.663 -3.33705 -0.940298 0
M  V30 2441 C 235.724 -4.29042 -0.148739 0
M  V30 2442 C 234.957 -5.23413 -1.04279 0
M  V30 2443 O 235.18 -5.22749 -2.28232 0
M  V30 2444 O 234.114 -5.99795 -0.502925 0
M  V30 2445 H 237.94 -2.94082 0.758268 0
M  V30 2446 H 235.525 -1.42888 0.436289 0
M  V30 2447 H 237.407 -3.94586 -1.47917 0
M  V30 2448 H 236.082 -2.76695 -1.67993 0
M  V30 2449 H 234.989 -3.71571 0.43427 0
M  V30 2450 H 236.322 -4.89097 0.551805 0
M  V30 2451 N 237.974 -0.419461 -1.51915 0
M  V30 2452 C 239.39 -0.0708431 -1.59443 0
M  V30 2453 C 239.59 1.41796 -1.43164 0
M  V30 2454 O 238.646 2.18596 -1.26381 0
M  V30 2455 C 239.959 -0.574991 -2.95151 0
M  V30 2456 C 241.507 -0.533867 -3.08413 0
M  V30 2457 C 241.982 -1.01469 -4.46618 0
M  V30 2458 N 243.473 -0.971939 -4.52888 0
M  V30 2459 C 244.208 -1.31505 -5.58116 0
M  V30 2460 N 243.704 -1.73014 -6.70849 0
M  V30 2461 N 245.497 -1.23436 -5.48379 0
M  V30 2462 H 237.648 -1.38836 -1.60743 0
M  V30 2463 H 239.911 -0.570998 -0.756747 0
M  V30 2464 H 239.617 -1.61597 -3.12377 0
M  V30 2465 H 239.491 0.00979777 -3.77199 0
M  V30 2466 H 241.878 0.498086 -2.90866 0
M  V30 2467 H 241.959 -1.15484 -2.28248 0
M  V30 2468 H 241.603 -2.04502 -4.6491 0
M  V30 2469 H 241.533 -0.370433 -5.25295 0
M  V30 2470 H 244.024 -0.666893 -3.71969 0
M  V30 2471 H 244.337 -1.97479 -7.47143 0
M  V30 2472 H 242.682 -1.76926 -6.72103 0
M  V30 2473 H 245.873 -0.908869 -4.59192 0
M  V30 2474 H 246.046 -1.50506 -6.30279 0
M  V30 2475 N 239.452 1.56882 -0.150215 0
M  V30 2476 C 240.4 2.18214 0.805313 0
M  V30 2477 C 241.394 1.14006 1.25296 0
M  V30 2478 O 242.6 1.3225 1.22107 0
M  V30 2479 H 238.975 0.698762 0.277913 0
M  V30 2480 H 240.946 2.97231 0.263862 0
M  V30 2481 C 239.695 2.82065 2.03309 0
M  V30 2482 H 239.018 3.61968 1.69763 0
M  V30 2483 H 240.458 3.28477 2.68103 0
M  V30 2484 C 238.917 1.80739 2.84315 0
M  V30 2485 O 239.447 1.27983 3.80767 0
M  V30 2486 N 237.653 1.4997 2.48913 0
M  V30 2487 H 237.2 1.93062 1.70542 0
M  V30 2488 H 237.158 0.824217 3.03404 0
M  V30 2489 N 240.93 -0.123565 1.57115 0
M  V30 2490 C 241.86 -1.15309 2.03042 0
M  V30 2491 C 242.841 -1.43454 0.914061 0
M  V30 2492 O 244.026 -1.53973 1.18347 0
M  V30 2493 C 241.156 -2.48043 2.43089 0
M  V30 2494 C 240.11 -2.3437 3.58127 0
M  V30 2495 C 239.436 -3.72026 3.84059 0
M  V30 2496 C 240.736 -1.80804 4.90007 0
M  V30 2497 H 242.43 -0.771102 2.893 0
M  V30 2498 H 239.976 -0.369479 1.39179 0
M  V30 2499 H 241.929 -3.20311 2.73823 0
M  V30 2500 H 240.653 -2.88122 1.53796 0
M  V30 2501 H 239.312 -1.64551 3.27595 0
M  V30 2502 H 238.96 -4.09582 2.91979 0
M  V30 2503 H 238.66 -3.63732 4.6149 0
M  V30 2504 H 240.184 -4.45806 4.1724 0
M  V30 2505 H 241.598 -2.42886 5.19307 0
M  V30 2506 H 239.995 -1.83343 5.71407 0
M  V30 2507 H 241.065 -0.76528 4.78823 0
M  V30 2508 N 242.408 -1.52605 -0.393616 0
M  V30 2509 C 243.636 -1.71294 -1.16043 0
M  V30 2510 C 244.051 -0.429259 -1.83855 0
M  V30 2511 O 243.408 0.595921 -1.72496 0
M  V30 2512 C 243.459 -2.8593 -2.21193 0
M  V30 2513 O 243.18 -4.09329 -1.56146 0
M  V30 2514 C 244.681 -3.16259 -3.10636 0
M  V30 2515 H 241.901 -0.573641 -0.348104 0
M  V30 2516 H 244.445 -1.99234 -0.461092 0
M  V30 2517 H 242.6 -2.60465 -2.86769 0
M  V30 2518 H 243.014 -4.73323 -2.25978 0
M  V30 2519 H 244.488 -3.99946 -3.80456 0
M  V30 2520 H 244.965 -2.3045 -3.73884 0
M  V30 2521 H 245.571 -3.43547 -2.50711 0
M  V30 2522 N 243.887 0.651787 -1.4349 0
M  V30 2523 C 245.117 1.43728 -1.48411 0
M  V30 2524 C 245.525 1.8893 -0.10103 0
M  V30 2525 O 244.868 1.60182 0.899307 0
M  V30 2526 C 244.93 2.70411 -2.36893 0
M  V30 2527 C 244.594 2.4714 -3.8441 0
M  V30 2528 C 245.591 2.10271 -4.75481 0
M  V30 2529 C 243.276 2.6142 -4.28912 0
M  V30 2530 C 245.27 1.87982 -6.0905 0
M  V30 2531 C 242.957 2.38746 -5.62533 0
M  V30 2532 C 243.955 2.02083 -6.5242 0
M  V30 2533 O 243.643 1.79647 -7.8357 0
M  V30 2534 H 243.375 0.447962 -0.506267 0
M  V30 2535 H 245.929 0.80624 -1.88915 0
M  V30 2536 H 244.159 3.36079 -1.91278 0
M  V30 2537 H 245.848 3.32364 -2.33 0
M  V30 2538 H 246.614 1.98814 -4.42378 0
M  V30 2539 H 242.493 2.88931 -3.59222 0
M  V30 2540 H 246.037 1.5929 -6.7917 0
M  V30 2541 H 241.934 2.49806 -5.95203 0
M  V30 2542 H 242.702 1.9406 -7.95162 0
M  V30 2543 N 245.365 1.30045 0.890287 0
M  V30 2544 C 246.642 1.09227 1.62262 0
M  V30 2545 C 247.022 -0.360305 2.08002 0
M  V30 2546 O 246.37 -1.35084 1.84295 0
M  V30 2547 C 246.58 2.08835 2.79623 0
M  V30 2548 C 247.928 2.40266 3.50082 0
M  V30 2549 O 248.952 2.07104 2.89804 0
M  V30 2550 O 247.811 2.96967 4.58773 0
M  V30 2551 H 244.905 0.419132 0.712922 0
M  V30 2552 H 247.451 1.41451 0.937529 0
M  V30 2553 H 246.223 3.06633 2.43089 0
M  V30 2554 H 245.846 1.77397 3.55832 0
M  V30 2555 N 246.843 -1.10192 1.12674 0
M  V30 2556 C 248.092 -1.81573 0.8783 0
M  V30 2557 C 248.405 -1.86249 -0.597557 0
M  V30 2558 O 249.611 -2.5386 -0.962681 0
M  V30 2559 C 248.067 -3.26149 1.52167 0
M  V30 2560 C 247.675 -3.29763 3.03249 0
M  V30 2561 C 249.419 -4.0234 1.3536 0
M  V30 2562 C 247.326 -4.68815 3.60508 0
M  V30 2563 H 246.256 -0.680394 0.324931 0
M  V30 2564 H 248.907 -1.23902 1.35353 0
M  V30 2565 H 247.289 -3.83832 0.974104 0
M  V30 2566 H 248.463 -2.8189 3.6452 0
M  V30 2567 H 246.778 -2.67059 3.19481 0
M  V30 2568 H 249.375 -5.05058 1.75559 0
M  V30 2569 H 249.718 -4.15235 0.297554 0
M  V30 2570 H 250.251 -3.51079 1.87052 0
M  V30 2571 H 246.99 -4.61121 4.65884 0
M  V30 2572 H 246.51 -5.17045 3.04014 0
M  V30 2573 H 248.189 -5.37785 3.59717 0
M  V30 2574 N 248.321 -0.919034 -1.28029 0
M  V30 2575 C 249.284 -0.416182 -2.2539 0
M  V30 2576 C 250.284 0.460438 -1.54067 0
M  V30 2577 O 251.474 0.262744 -1.72207 0
M  V30 2578 C 248.606 0.402707 -3.38513 0
M  V30 2579 H 249.799 -1.27629 -2.71387 0
M  V30 2580 H 247.352 -0.698919 -1.39803 0
M  V30 2581 H 248.087 1.282 -2.97885 0
M  V30 2582 H 247.872 -0.225698 -3.9145 0
M  V30 2583 H 249.362 0.745191 -4.10897 0
M  V30 2584 N 249.799 1.42003 -0.683588 0
M  V30 2585 C 251.076 1.95112 -0.138075 0
M  V30 2586 C 251.456 1.62359 1.34918 0
M  V30 2587 O 250.804 0.924311 2.08971 0
M  V30 2588 C 251.014 3.46505 -0.416581 0
M  V30 2589 C 252.362 4.23254 -0.337834 0
M  V30 2590 O 253.386 3.54468 -0.35082 0
M  V30 2591 O 252.245 5.45743 -0.287596 0
M  V30 2592 H 249.339 0.826961 -0.00797996 0
M  V30 2593 H 251.885 1.51784 -0.758924 0
M  V30 2594 H 250.657 3.63582 -1.4465 0
M  V30 2595 H 250.28 3.969 0.235839 0
M  V30 2596 N 251.277 0.427512 1.51691 0
M  V30 2597 C 252.523 -0.134744 2.02953 0
M  V30 2598 C 252.878 -1.41235 1.30654 0
M  V30 2599 O 252.171 -1.87168 0.409713 0
M  V30 2600 C 252.365 -0.418249 3.54944 0
M  V30 2601 C 252.194 0.830327 4.41968 0
M  V30 2602 C 250.964 1.36097 4.86627 0
M  V30 2603 C 253.162 1.7137 4.84909 0
M  V30 2604 N 251.144 2.56311 5.57833 0
M  V30 2605 C 252.515 2.76195 5.55082 0
M  V30 2606 C 254.57 1.72928 4.66905 0
M  V30 2607 C 253.273 3.82512 6.09161 0
M  V30 2608 C 255.299 2.78175 5.21894 0
M  V30 2609 C 254.661 3.8172 5.92004 0
M  V30 2610 H 250.76 -0.0103958 0.781931 0
M  V30 2611 H 253.344 0.585981 1.85673 0
M  V30 2612 H 251.515 -1.10801 3.7226 0
M  V30 2613 H 253.247 -0.970999 3.92879 0
M  V30 2614 H 250.002 0.916311 4.64651 0
M  V30 2615 H 250.426 3.17242 5.98069 0
M  V30 2616 H 255.068 0.942081 4.12171 0
M  V30 2617 H 252.786 4.62077 6.62956 0
M  V30 2618 H 256.372 2.8031 5.09821 0
M  V30 2619 H 255.252 4.61821 6.33791 0
M  V30 2620 N 252.755 -1.56801 0.158532 0
M  V30 2621 C 254.001 -1.96781 -0.490405 0
M  V30 2622 C 254.334 -1.04397 -1.63753 0
M  V30 2623 O 253.609 -0.0885805 -1.94298 0
M  V30 2624 C 253.892 -3.4635 -0.985594 0
M  V30 2625 C 253.745 -4.49512 0.160824 0
M  V30 2626 C 255.064 -3.98697 -1.86355 0
M  V30 2627 H 252.183 -0.715482 -0.176788 0
M  V30 2628 H 254.825 -1.88451 0.242088 0
M  V30 2629 H 252.975 -3.53579 -1.60978 0
M  V30 2630 H 254.647 -4.54353 0.797537 0
M  V30 2631 H 252.89 -4.26013 0.818256 0
M  V30 2632 H 253.561 -5.51531 -0.227569 0
M  V30 2633 H 256.037 -3.94019 -1.33746 0
M  V30 2634 H 254.913 -5.03792 -2.17909 0
M  V30 2635 H 255.174 -3.41744 -2.8047 0
M  V30 2636 N 254.233 0.115231 -1.57178 0
M  V30 2637 C 255.181 1.16014 -2.01602 0
M  V30 2638 C 256.175 1.42653 -0.913587 0
M  V30 2639 O 257.381 1.42571 -1.09879 0
M  V30 2640 H 253.756 0.391252 -0.642204 0
M  V30 2641 H 255.727 0.758998 -2.88586 0
M  V30 2642 C 254.476 2.47767 -2.4394 0
M  V30 2643 H 253.799 2.28108 -3.28339 0
M  V30 2644 H 255.239 3.19432 -2.78818 0
M  V30 2645 C 253.698 3.10617 -1.30455 0
M  V30 2646 O 254.228 3.96846 -0.622585 0
M  V30 2647 N 252.434 2.70553 -1.06064 0
M  V30 2648 H 251.981 2.00527 -1.61699 0
M  V30 2649 H 251.939 3.12934 -0.303284 0
M  V30 2650 N 255.711 1.52812 0.385517 0
M  V30 2651 C 256.988 1.5861 1.14465 0
M  V30 2652 C 257.368 0.381402 2.07626 0
M  V30 2653 O 256.716 -0.629999 2.19643 0
M  V30 2654 C 256.926 2.92664 1.90128 0
M  V30 2655 C 258.274 3.46526 2.45367 0
M  V30 2656 O 259.298 2.94562 2.0028 0
M  V30 2657 O 258.157 4.37323 3.27736 0
M  V30 2658 H 255.251 0.639855 0.523941 0
M  V30 2659 H 257.797 1.65149 0.390389 0
M  V30 2660 H 256.569 3.71788 1.22022 0
M  V30 2661 H 256.192 2.89527 2.72507 0
M  V30 2662 N 257.189 -0.644168 1.43834 0
M  V30 2663 C 258.137 -1.77793 1.49974 0
M  V30 2664 C 259.131 -1.65253 0.372536 0
M  V30 2665 O 260.337 -1.7149 0.546924 0
M  V30 2666 H 256.712 -0.58675 0.47035 0
M  V30 2667 H 258.683 -1.69736 2.45423 0
M  V30 2668 C 257.432 -3.16087 1.4486 0
M  V30 2669 H 256.755 -3.26378 2.30905 0
M  V30 2670 H 258.195 -3.95349 1.53217 0
M  V30 2671 C 256.654 -3.36484 0.167463 0
M  V30 2672 O 257.184 -3.94298 -0.767609 0
M  V30 2673 N 255.39 -2.90504 0.0747556 0
M  V30 2674 H 254.937 -2.4364 0.836507 0
M  V30 2675 H 254.895 -3.04527 -0.781714 0
M  V30 2676 N 258.668 -1.30515 -0.883378 0
M  V30 2677 C 259.914 -1.19607 -1.63774 0
M  V30 2678 C 260.247 0.248314 -1.92606 0
M  V30 2679 O 259.522 1.17742 -1.54813 0
M  V30 2680 C 259.805 -2.02669 -2.97653 0
M  V30 2681 C 259.658 -3.55335 -2.75784 0
M  V30 2682 C 260.977 -1.86573 -3.98596 0
M  V30 2683 H 258.096 -0.435856 -0.594305 0
M  V30 2684 H 260.738 -1.60165 -1.02212 0
M  V30 2685 H 258.888 -1.68208 -3.50197 0
M  V30 2686 H 260.56 -3.99863 -2.30016 0
M  V30 2687 H 258.803 -3.79438 -2.1026 0
M  V30 2688 H 259.474 -4.08745 -3.70988 0
M  V30 2689 H 261.95 -2.16703 -3.55217 0
M  V30 2690 H 260.826 -2.47014 -4.90179 0
M  V30 2691 H 261.087 -0.825321 -4.34328 0
M  V30 2692 N 260.146 1.09593 -1.13257 0
M  V30 2693 C 261.394 1.81375 -0.891492 0
M  V30 2694 C 261.715 1.86049 0.584009 0
M  V30 2695 O 260.985 1.34481 1.42449 0
M  V30 2696 H 259.565 0.671708 -0.326828 0
M  V30 2697 H 262.227 1.3256 -1.42877 0
M  V30 2698 H 261.323 2.84612 -1.28071 0
M  V30 2699 N 261.624 0.925811 1.2754 0
M  V30 2700 C 262.852 0.581509 1.9856 0
M  V30 2701 C 263.267 -0.840041 1.69082 0
M  V30 2702 O 262.624 -1.55805 0.950312 0
M  V30 2703 C 262.675 0.795589 3.52637 0
M  V30 2704 O 262.396 2.16121 3.81082 0
M  V30 2705 C 263.897 0.459744 4.4091 0
M  V30 2706 H 261.117 0.220538 0.633722 0
M  V30 2707 H 263.661 1.24232 1.6244 0
M  V30 2708 H 261.816 0.18161 3.86974 0
M  V30 2709 H 262.23 2.2098 4.75676 0
M  V30 2710 H 263.704 0.660244 5.48037 0
M  V30 2711 H 264.181 -0.604625 4.35018 0
M  V30 2712 H 264.787 1.05178 4.12089 0
M  V30 2713 N 263.102 -1.41638 0.69111 0
M  V30 2714 C 264.35 -2.00902 0.219758 0
M  V30 2715 C 264.671 -1.54994 -1.18329 0
M  V30 2716 O 263.941 -0.778628 -1.79762 0
M  V30 2717 H 262.521 -0.74289 0.0782558 0
M  V30 2718 H 265.183 -1.73327 0.891271 0
M  V30 2719 H 264.279 -3.11224 0.233708 0
M  V30 2720 N 264.58 -0.43555 -1.51462 0
M  V30 2721 C 265.829 0.133007 -2.01261 0
M  V30 2722 C 266.142 1.43942 -1.32439 0
M  V30 2723 O 267.348 2.09081 -1.73198 0
M  V30 2724 C 265.804 0.287581 -3.58749 0
M  V30 2725 C 265.412 -1.00829 -4.36506 0
M  V30 2726 C 267.156 0.810004 -4.167 0
M  V30 2727 C 265.063 -0.819454 -5.85695 0
M  V30 2728 H 263.993 0.0534822 -0.752101 0
M  V30 2729 H 266.644 -0.565038 -1.74584 0
M  V30 2730 H 265.026 1.04859 -3.81865 0
M  V30 2731 H 266.2 -1.77749 -4.25138 0
M  V30 2732 H 264.515 -1.45911 -3.89999 0
M  V30 2733 H 267.112 0.967743 -5.2587 0
M  V30 2734 H 267.455 1.79196 -3.75758 0
M  V30 2735 H 267.988 0.107357 -3.97655 0
M  V30 2736 H 264.727 -1.77374 -6.31046 0
M  V30 2737 H 264.247 -0.0900208 -5.99732 0
M  V30 2738 H 265.926 -0.471949 -6.45276 0
M  V30 2739 N 266.058 1.56714 -0.166846 0
M  V30 2740 C 266.99 2.14914 0.796537 0
M  V30 2741 C 268.003 1.10357 1.19688 0
M  V30 2742 O 269.192 1.37561 1.13751 0
M  V30 2743 C 266.292 2.67326 2.08303 0
M  V30 2744 C 265.465 3.96493 1.84696 0
M  V30 2745 C 264.524 4.34014 2.97521 0
M  V30 2746 O 263.55 5.01973 2.6835 0
M  V30 2747 N 264.752 3.95208 4.25196 0
M  V30 2748 H 267.517 2.98205 0.299006 0
M  V30 2749 H 265.078 1.61892 0.0160839 0
M  V30 2750 H 267.07 2.89428 2.82867 0
M  V30 2751 H 265.64 1.88649 2.4926 0
M  V30 2752 H 264.86 3.82814 0.940602 0
M  V30 2753 H 266.148 4.8086 1.66285 0
M  V30 2754 H 265.546 3.40487 4.51758 0
M  V30 2755 H 264.103 4.2232 4.96477 0
M  V30 2756 N 267.536 -0.106894 1.57237 0
M  V30 2757 C 268.499 -1.11466 2.0027 0
M  V30 2758 C 269.499 -1.33623 0.894519 0
M  V30 2759 O 270.689 -1.29935 1.16028 0
M  V30 2760 C 267.821 -2.46646 2.35327 0
M  V30 2761 H 269.014 -0.744516 2.90512 0
M  V30 2762 H 266.567 -0.351576 1.52295 0
M  V30 2763 H 267.302 -2.88558 1.48003 0
M  V30 2764 H 267.087 -2.31915 3.16161 0
M  V30 2765 H 268.577 -3.19151 2.69318 0
M  V30 2766 N 269.014 -1.53014 -0.377408 0
M  V30 2767 C 270.239 -1.72818 -1.14668 0
M  V30 2768 C 270.664 -0.450725 -1.8262 0
M  V30 2769 O 270.022 0.59439 -1.7128 0
M  V30 2770 C 270.07 -2.88627 -2.16164 0
M  V30 2771 O 269.174 -2.56409 -3.22998 0
M  V30 2772 H 268.515 -0.574301 -0.333278 0
M  V30 2773 H 271.045 -1.99853 -0.438152 0
M  V30 2774 H 271.055 -3.14455 -2.59966 0
M  V30 2775 H 269.73 -3.81294 -1.66095 0
M  V30 2776 H 268.307 -2.4136 -2.84253 0
M  V30 2777 N 270.492 0.636531 -1.44174 0
M  V30 2778 C 271.717 1.42847 -1.50364 0
M  V30 2779 C 272.142 1.87665 -0.127867 0
M  V30 2780 O 271.5 1.58408 0.88185 0
M  V30 2781 C 271.548 2.62854 -2.4686 0
M  V30 2782 O 270.652 3.62501 -1.9664 0
M  V30 2783 H 269.993 0.427642 -0.507955 0
M  V30 2784 H 272.523 0.777422 -1.89255 0
M  V30 2785 H 272.533 3.10465 -2.64718 0
M  V30 2786 H 271.208 2.29578 -3.46795 0
M  V30 2787 H 269.785 3.21735 -1.88523 0
M  V30 2788 N 271.97 1.30982 0.876444 0
M  V30 2789 C 273.216 1.20474 1.63138 0
M  V30 2790 C 273.549 -0.238096 1.92735 0
M  V30 2791 O 272.824 -1.1692 1.55435 0
M  V30 2792 C 273.107 2.04244 2.96574 0
M  V30 2793 C 272.96 3.56793 2.73896 0
M  V30 2794 C 274.279 1.88684 3.97601 0
M  V30 2795 H 271.398 0.439001 0.591985 0
M  V30 2796 H 274.04 1.60704 1.01361 0
M  V30 2797 H 272.19 1.70063 3.493 0
M  V30 2798 H 273.862 4.01077 2.27892 0
M  V30 2799 H 272.105 3.80548 2.08245 0
M  V30 2800 H 272.776 4.10706 3.68815 0
M  V30 2801 H 275.252 2.18584 3.54062 0
M  V30 2802 H 274.128 2.4961 4.88862 0
M  V30 2803 H 274.389 0.848343 4.33884 0
M  V30 2804 N 273.449 -1.08991 1.13837 0
M  V30 2805 C 274.695 -1.81526 0.90422 0
M  V30 2806 C 275.028 -1.85706 -0.568066 0
M  V30 2807 O 274.303 -1.32855 -1.42056 0
M  V30 2808 C 274.586 -3.27447 1.49835 0
M  V30 2809 C 274.439 -3.31512 3.04006 0
M  V30 2810 C 275.758 -4.24256 1.17025 0
M  V30 2811 H 272.877 -0.659029 0.329923 0
M  V30 2812 H 275.519 -1.27644 1.40737 0
M  V30 2813 H 273.669 -3.73462 1.07044 0
M  V30 2814 H 275.341 -2.93867 3.55584 0
M  V30 2815 H 273.584 -2.70963 3.38765 0
M  V30 2816 H 274.255 -4.34329 3.40679 0
M  V30 2817 H 276.731 -3.86549 1.54009 0
M  V30 2818 H 275.607 -5.24684 1.61237 0
M  V30 2819 H 275.868 -4.42019 0.0846274 0
M  V30 2820 N 274.927 -0.932562 -1.27047 0
M  V30 2821 C 276.175 -0.574422 -1.93765 0
M  V30 2822 C 276.496 0.887993 -1.73608 0
M  V30 2823 O 275.766 1.62999 -1.08665 0
M  V30 2824 H 274.346 -0.209451 -0.717035 0
M  V30 2825 H 277.008 -1.18601 -1.5466 0
M  V30 2826 H 276.104 -0.784841 -3.02071 0
M  V30 2827 N 276.405 1.4127 -0.698611 0
M  V30 2828 C 277.653 2.00782 -0.230409 0
M  V30 2829 C 277.974 1.5562 1.17505 0
M  V30 2830 O 277.244 0.78815 1.79346 0
M  V30 2831 H 275.824 0.742464 -0.0821944 0
M  V30 2832 H 278.486 1.72852 -0.90045 0
M  V30 2833 H 277.582 3.11095 -0.25021 0
M  V30 2834 N 277.883 0.443576 1.51229 0
M  V30 2835 C 278.816 -0.410089 2.24485 0
M  V30 2836 C 279.794 -1.01949 1.26669 0
M  V30 2837 O 280.978 -1.06075 1.55821 0
M  V30 2838 C 278.105 -1.57211 3.00004 0
M  V30 2839 C 277.151 -1.08279 4.12526 0
M  V30 2840 S 277.984 -0.0197476 5.35496 0
M  V30 2841 C 279.14 -1.18629 6.14555 0
M  V30 2842 H 279.373 0.211832 2.96544 0
M  V30 2843 H 276.906 0.228156 1.52705 0
M  V30 2844 H 278.864 -2.23825 3.44111 0
M  V30 2845 H 277.525 -2.16547 2.27522 0
M  V30 2846 H 276.718 -1.95193 4.64667 0
M  V30 2847 H 276.32 -0.494797 3.70713 0
M  V30 2848 H 278.612 -2.10344 6.4402 0
M  V30 2849 H 279.555 -0.70472 7.04584 0
M  V30 2850 H 279.963 -1.42768 5.46148 0
M  V30 2851 N 279.361 -1.56624 0.175154 0
M  V30 2852 C 280.324 -2.16934 -0.739738 0
M  V30 2853 C 281.324 -1.11842 -1.15533 0
M  V30 2854 O 282.514 -1.37335 -1.07167 0
M  V30 2855 C 279.646 -2.75531 -2.00738 0
M  V30 2856 H 280.839 -2.99131 -0.214639 0
M  V30 2857 H 278.392 -1.56123 -0.0744197 0
M  V30 2858 H 279.127 -1.97078 -2.57548 0
M  V30 2859 H 278.912 -3.52444 -1.71831 0
M  V30 2860 H 280.402 -3.21904 -2.66021 0
M  V30 2861 N 280.839 0.0985539 -1.57292 0
M  V30 2862 C 282.086 0.802678 -1.85912 0
M  V30 2863 C 282.414 1.78901 -0.763186 0
M  V30 2864 O 281.669 1.94178 0.243559 0
M  V30 2865 C 281.968 1.56927 -3.21105 0
M  V30 2866 C 281.634 0.725376 -4.45027 0
M  V30 2867 C 280.296 0.492726 -4.78671 0
M  V30 2868 C 282.648 0.138493 -5.21016 0
M  V30 2869 C 279.976 -0.336727 -5.85733 0
M  V30 2870 C 282.328 -0.678264 -6.28953 0
M  V30 2871 C 280.992 -0.921039 -6.61115 0
M  V30 2872 H 280.262 0.293721 -0.680301 0
M  V30 2873 H 282.909 0.0642841 -1.91392 0
M  V30 2874 H 281.214 2.37914 -3.11294 0
M  V30 2875 H 282.911 2.11841 -3.40477 0
M  V30 2876 H 279.501 0.916815 -4.18679 0
M  V30 2877 H 283.685 0.305404 -4.95359 0
M  V30 2878 H 278.941 -0.533836 -6.09065 0
M  V30 2879 H 283.115 -1.1399 -6.87007 0
M  V30 2880 H 280.742 -1.56556 -7.43905 0
M  V30 2881 N 282.317 1.53212 0.369288 0
M  V30 2882 C 283.247 1.82365 1.45826 0
M  V30 2883 C 284.228 0.676907 1.56051 0
M  V30 2884 O 285.413 0.926401 1.70679 0
M  V30 2885 C 282.543 2.01023 2.83208 0
M  V30 2886 C 281.497 3.1678 2.8781 0
M  V30 2887 C 280.823 3.20724 4.27832 0
M  V30 2888 C 282.123 4.55447 2.55667 0
M  V30 2889 H 283.817 2.73559 1.21678 0
M  V30 2890 H 281.363 1.3163 0.583911 0
M  V30 2891 H 283.316 2.20001 3.59413 0
M  V30 2892 H 282.04 1.06536 3.08736 0
M  V30 2893 H 280.699 2.97616 2.14056 0
M  V30 2894 H 280.347 2.23882 4.50429 0
M  V30 2895 H 280.047 3.98496 4.31827 0
M  V30 2896 H 281.571 3.41881 5.05915 0
M  V30 2897 H 282.985 4.74611 3.21586 0
M  V30 2898 H 281.382 5.35432 2.70984 0
M  V30 2899 H 282.452 4.60812 1.5093 0
M  V30 2900 N 283.795 -0.628877 1.44509 0
M  V30 2901 C 285.02 -1.42048 1.5112 0
M  V30 2902 C 285.445 -1.87594 0.137818 0
M  V30 2903 O 284.803 -1.58873 -0.873437 0
M  V30 2904 C 284.851 -2.61541 2.48251 0
M  V30 2905 O 283.955 -3.61453 1.98559 0
M  V30 2906 H 283.296 -0.424942 0.510216 0
M  V30 2907 H 285.826 -0.767374 1.89664 0
M  V30 2908 H 285.836 -3.09057 2.66361 0
M  V30 2909 H 284.511 -2.27736 3.48007 0
M  V30 2910 H 283.088 -3.20731 1.90227 0
M  V30 2911 N 285.273 -1.31445 -0.869486 0
M  V30 2912 C 286.521 -1.20918 -1.61936 0
M  V30 2913 C 286.842 0.232683 -1.93607 0
M  V30 2914 O 286.112 1.15352 -1.58338 0
M  V30 2915 H 284.692 -0.44454 -0.600328 0
M  V30 2916 H 287.354 -1.64776 -1.0409 0
M  V30 2917 H 286.45 -1.78124 -2.56278 0
M  V30 2918 N 286.751 1.08385 -1.14413 0
M  V30 2919 C 287.976 1.85057 -0.936413 0
M  V30 2920 C 288.401 1.81055 0.509971 0
M  V30 2921 O 287.759 1.1958 1.36273 0
M  V30 2922 C 287.807 3.30505 -1.44217 0
M  V30 2923 O 286.911 4.07491 -0.634409 0
M  V30 2924 H 286.252 0.573425 -0.334784 0
M  V30 2925 H 288.782 1.36799 -1.52142 0
M  V30 2926 H 288.792 3.81348 -1.45043 0
M  V30 2927 H 287.467 3.32734 -2.49522 0
M  V30 2928 H 286.044 3.66368 -0.694902 0
M  V30 2929 N 288.23 0.939286 1.26551 0
M  V30 2930 C 289.476 0.586715 1.94128 0
M  V30 2931 C 289.809 -0.8717 1.73537 0
M  V30 2932 O 289.084 -1.62339 1.07127 0
M  V30 2933 C 289.367 0.927497 3.4795 0
M  V30 2934 C 289.22 2.44052 3.77834 0
M  V30 2935 C 290.539 0.441569 4.37879 0
M  V30 2936 H 287.658 0.21463 0.705055 0
M  V30 2937 H 290.3 1.17316 1.49455 0
M  V30 2938 H 288.45 0.428431 3.8613 0
M  V30 2939 H 290.122 3.01216 3.4938 0
M  V30 2940 H 288.365 2.8848 3.23978 0
M  V30 2941 H 289.036 2.62947 4.85348 0
M  V30 2942 H 291.512 0.869448 4.06915 0
M  V30 2943 H 290.388 0.708856 5.44304 0
M  V30 2944 H 290.649 -0.658467 4.37169 0
M  V30 2945 N 289.708 -1.40897 0.706093 0
M  V30 2946 C 290.955 -2.01054 0.241531 0
M  V30 2947 C 291.283 -1.55956 -1.16223 0
M  V30 2948 O 290.538 -0.766336 -1.80072 0
M  V30 2949 C 290.837 -3.5646 0.259099 0
M  V30 2950 C 290.503 -4.21106 1.61184 0
M  V30 2951 C 289.165 -4.38479 1.98216 0
M  V30 2952 C 291.517 -4.57256 2.50132 0
M  V30 2953 C 288.845 -4.89282 3.2376 0
M  V30 2954 C 291.197 -5.09454 3.7502 0
M  V30 2955 C 289.861 -5.25037 4.12181 0
M  V30 2956 H 289.131 -0.73571 0.0883825 0
M  V30 2957 H 291.778 -1.68645 0.907257 0
M  V30 2958 H 290.083 -3.88721 -0.490189 0
M  V30 2959 H 291.78 -4.00826 -0.11804 0
M  V30 2960 H 288.37 -4.07966 1.31384 0
M  V30 2961 H 292.554 -4.43479 2.228 0
M  V30 2962 H 287.81 -4.99531 3.52532 0
M  V30 2963 H 291.984 -5.36404 4.44121 0
M  V30 2964 H 289.611 -5.64164 5.09532 0
M  V30 2965 N 291.186 -0.45159 -1.50991 0
M  V30 2966 C 292.411 0.110667 -2.07105 0
M  V30 2967 C 292.836 1.3446 -1.31538 0
M  V30 2968 O 292.194 1.77743 -0.357365 0
M  V30 2969 C 292.242 0.397238 -3.58405 0
M  V30 2970 O 291.346 1.48124 -3.84881 0
M  V30 2971 H 290.687 -0.00439271 -0.663985 0
M  V30 2972 H 293.217 -0.637026 -1.9443 0
M  V30 2973 H 293.227 0.64351 -4.02893 0
M  V30 2974 H 291.902 -0.504553 -4.12828 0
M  V30 2975 H 290.479 1.22381 -3.52246 0
M  V30 2976 N 292.664 1.56529 -0.183458 0
M  V30 2977 C 293.574 2.22144 0.754272 0
M  V30 2978 C 294.59 1.21684 1.24374 0
M  V30 2979 O 295.766 1.54385 1.29333 0
M  V30 2980 C 292.831 2.85884 1.96141 0
M  V30 2981 C 291.892 4.01579 1.51765 0
M  V30 2982 C 291.125 4.6227 2.66725 0
M  V30 2983 O 291.348 4.21865 3.83909 0
M  V30 2984 O 290.282 5.51936 2.40104 0
M  V30 2985 H 294.108 3.02861 0.225527 0
M  V30 2986 H 291.693 1.49331 0.0453032 0
M  V30 2987 H 293.575 3.26253 2.66715 0
M  V30 2988 H 292.25 2.08154 2.47899 0
M  V30 2989 H 291.157 3.65856 0.781049 0
M  V30 2990 H 292.49 4.80938 1.04686 0
M  V30 2991 N 294.142 -0.090211 1.57342 0
M  V30 2992 C 295.09 -1.12792 2.03422 0
M  V30 2993 C 296.084 -1.41182 0.936166 0
M  V30 2994 O 297.29 -1.40805 1.12133 0
M  V30 2995 H 293.665 -0.380986 0.648347 0
M  V30 2996 H 295.636 -0.71299 2.89757 0
M  V30 2997 C 294.385 -2.43855 2.47851 0
M  V30 2998 H 293.708 -2.22855 3.31927 0
M  V30 2999 H 295.148 -3.14955 2.83865 0
M  V30 3000 C 293.607 -3.08503 1.3538 0
M  V30 3001 O 294.137 -3.95805 0.685641 0
M  V30 3002 N 292.343 -2.68831 1.10355 0
M  V30 3003 H 291.89 -1.97929 1.64869 0
M  V30 3004 H 291.848 -3.12412 0.353031 0
M  V30 3005 N 295.62 -1.53406 -0.361157 0
M  V30 3006 C 296.568 -1.80832 -1.46296 0
M  V30 3007 C 297.562 -0.677699 -1.55253 0
M  V30 3008 O 298.768 -0.860723 -1.58087 0
M  V30 3009 H 295.143 -0.572627 -0.487445 0
M  V30 3010 H 297.114 -2.73045 -1.20371 0
M  V30 3011 C 295.863 -2.01907 -2.8307 0
M  V30 3012 H 295.186 -2.88349 -2.76938 0
M  V30 3013 H 296.626 -2.25072 -3.59331 0
M  V30 3014 C 295.085 -0.799449 -3.27277 0
M  V30 3015 O 295.615 0.00971761 -4.01699 0
M  V30 3016 N 293.821 -0.621637 -2.83873 0
M  V30 3017 H 293.368 -1.28126 -2.23476 0
M  V30 3018 H 293.326 0.19298 -3.13807 0
M  V30 3019 N 297.098 0.621204 -1.44841 0
M  V30 3020 C 298.046 1.75385 -1.52784 0
M  V30 3021 C 299.04 1.64639 -0.398779 0
M  V30 3022 O 300.246 1.70598 -0.574137 0
M  V30 3023 H 296.621 0.579193 -0.479625 0
M  V30 3024 H 298.592 1.6581 -2.48092 0
M  V30 3025 C 297.341 3.13742 -1.4987 0
M  V30 3026 H 296.664 3.22663 -2.36069 0
M  V30 3027 H 298.104 3.92861 -1.59487 0
M  V30 3028 C 296.563 3.36175 -0.220973 0
M  V30 3029 O 297.093 3.95469 0.704782 0
M  V30 3030 N 295.299 2.90348 -0.120963 0
M  V30 3031 H 294.846 2.42278 -0.875162 0
M  V30 3032 H 294.804 3.05732 0.733168 0
M  V30 3033 N 298.576 1.31904 0.862503 0
M  V30 3034 C 299.853 1.12644 1.59908 0
M  V30 3035 C 300.233 -0.316104 2.0872 0
M  V30 3036 O 299.581 -1.31145 1.87118 0
M  V30 3037 C 299.791 2.1472 2.7513 0
M  V30 3038 C 301.139 2.47637 3.44907 0
M  V30 3039 O 302.163 2.13205 2.85346 0
M  V30 3040 O 301.022 3.06632 4.52371 0
M  V30 3041 H 298.116 0.43416 0.703871 0
M  V30 3042 H 300.662 1.43408 0.907314 0
M  V30 3043 H 299.434 3.1172 2.3653 0
M  V30 3044 H 299.057 1.84905 3.51989 0
M  V30 3045 N 300.054 -1.07777 1.14986 0
M  V30 3046 C 301.282 -1.84018 0.945773 0
M  V30 3047 C 301.697 -1.81897 -0.505863 0
M  V30 3048 O 301.054 -1.22726 -1.35072 0
M  V30 3049 C 301.105 -3.31287 1.44677 0
M  V30 3050 O 300.826 -3.33449 2.84154 0
M  V30 3051 C 302.327 -4.24311 1.28355 0
M  V30 3052 H 299.547 -0.580716 0.336169 0
M  V30 3053 H 302.091 -1.36077 1.52654 0
M  V30 3054 H 300.246 -3.76594 0.908625 0
M  V30 3055 H 300.66 -4.25427 3.06777 0
M  V30 3056 H 302.134 -5.2573 1.68261 0
M  V30 3057 H 302.611 -4.38612 0.227184 0
M  V30 3058 H 303.217 -3.84836 1.81056 0
M  V30 3059 N 301.532 -0.945985 -1.26051 0
M  V30 3060 C 302.809 -0.513816 -1.88731 0
M  V30 3061 C 303.189 1.00872 -1.8544 0
M  V30 3062 O 302.537 1.8708 -1.312 0
M  V30 3063 C 302.747 -1.08062 -3.31849 0
M  V30 3064 C 304.095 -1.1522 -4.08668 0
M  V30 3065 O 305.119 -1.03155 -3.40936 0
M  V30 3066 O 303.978 -1.34044 -5.29806 0
M  V30 3067 H 301.072 -0.168193 -0.809716 0
M  V30 3068 H 303.618 -1.03886 -1.34186 0
M  V30 3069 H 302.39 -2.1241 -3.2863 0
M  V30 3070 H 302.013 -0.538307 -3.93939 0
M  V30 3071 N 303.011 1.40521 -0.713556 0
M  V30 3072 C 304.259 2.00527 -0.251692 0
M  V30 3073 C 304.58 1.56857 1.15848 0
M  V30 3074 O 303.85 0.807127 1.785 0
M  V30 3075 H 302.43 0.741551 -0.0900646 0
M  V30 3076 H 305.092 1.71887 -0.918733 0
M  V30 3077 H 304.188 3.10813 -0.283192 0
M  V30 3078 N 304.489 0.459591 1.5075 0
M  V30 3079 C 305.766 -0.160371 1.94941 0
M  V30 3080 C 306.146 -1.58048 1.39943 0
M  V30 3081 O 305.494 -2.206 0.595629 0
M  V30 3082 C 305.704 -0.115432 3.48809 0
M  V30 3083 C 307.052 -0.310026 4.23467 0
M  V30 3084 O 308.076 -0.192543 3.55679 0
M  V30 3085 O 306.935 -0.546031 5.43765 0
M  V30 3086 H 304.029 -0.117925 0.818549 0
M  V30 3087 H 306.575 0.519169 1.61563 0
M  V30 3088 H 305.347 0.87652 3.81357 0
M  V30 3089 H 304.97 -0.836928 3.88692 0
M  V30 3090 N 305.967 -1.56429 0.191757 0
M  V30 3091 C 307.192 -2.02309 -0.456706 0
M  V30 3092 C 307.617 -1.07103 -1.5463 0
M  V30 3093 O 306.975 -0.0539677 -1.8122 0
M  V30 3094 C 307.023 -3.46654 -0.993159 0
M  V30 3095 O 306.127 -3.54559 -2.10622 0
M  V30 3096 H 305.468 -0.655303 -0.107114 0
M  V30 3097 H 307.998 -2.02364 0.301653 0
M  V30 3098 H 308.008 -3.86377 -1.31061 0
M  V30 3099 H 306.683 -4.1544 -0.195504 0
M  V30 3100 H 305.26 -3.26708 -1.79767 0
M  V30 3101 N 307.445 0.0818655 -1.57387 0
M  V30 3102 C 308.691 0.784074 -1.8703 0
M  V30 3103 C 309.024 1.77729 -0.782689 0
M  V30 3104 O 308.299 1.93384 0.208051 0
M  V30 3105 C 308.582 1.50105 -3.27323 0
M  V30 3106 C 308.435 0.524925 -4.46727 0
M  V30 3107 C 309.754 2.44843 -3.65705 0
M  V30 3108 H 306.873 0.283582 -0.680257 0
M  V30 3109 H 309.515 0.0474352 -1.89941 0
M  V30 3110 H 307.665 2.12897 -3.24972 0
M  V30 3111 H 309.337 -0.0970111 -4.61198 0
M  V30 3112 H 307.58 -0.160606 -4.33503 0
M  V30 3113 H 308.251 1.064 -5.41648 0
M  V30 3114 H 310.727 1.92135 -3.69085 0
M  V30 3115 H 309.603 2.92018 -4.64776 0
M  V30 3116 H 309.864 3.29197 -2.95096 0
M  V30 3117 N 308.923 1.53595 0.353017 0
M  V30 3118 C 309.87 1.80919 1.43308 0
M  V30 3119 C 310.84 0.654288 1.5267 0
M  V30 3120 O 312.025 0.897759 1.6836 0
M  V30 3121 C 309.165 2.01605 2.80089 0
M  V30 3122 C 308.278 3.29321 2.79593 0
M  V30 3123 C 307.413 3.40125 4.0803 0
M  V30 3124 C 306.452 4.61826 4.01725 0
M  V30 3125 N 305.589 4.69716 5.21834 0
M  V30 3126 H 310.429 2.73074 1.19308 0
M  V30 3127 H 307.966 1.35263 0.578131 0
M  V30 3128 H 309.924 2.11586 3.59565 0
M  V30 3129 H 308.554 1.12772 3.0246 0
M  V30 3130 H 307.606 3.28229 1.92276 0
M  V30 3131 H 308.918 4.18884 2.70809 0
M  V30 3132 H 308.072 3.49488 4.95927 0
M  V30 3133 H 306.811 2.48601 4.19582 0
M  V30 3134 H 305.816 4.52552 3.12213 0
M  V30 3135 H 307.041 5.54705 3.91764 0
M  V30 3136 H 304.987 3.81097 5.33948 0
M  V30 3137 H 304.904 5.53202 5.1527 0
M  V30 3138 H 306.172 4.83376 6.11529 0
M  V30 3139 N 310.401 -0.613514 1.45168 0
M  V30 3140 C 311.817 -0.933629 1.29443 0
M  V30 3141 C 312.017 -2.00028 0.243101 0
M  V30 3142 O 311.073 -2.49848 -0.364992 0
M  V30 3143 C 312.386 -1.38018 2.67155 0
M  V30 3144 C 313.934 -1.49471 2.75004 0
M  V30 3145 C 314.409 -1.97503 4.13227 0
M  V30 3146 N 315.9 -2.04746 4.15491 0
M  V30 3147 C 316.635 -2.43121 5.19307 0
M  V30 3148 N 316.131 -2.80506 6.33473 0
M  V30 3149 N 317.924 -2.43408 5.06664 0
M  V30 3150 H 310.075 0.0916097 2.12202 0
M  V30 3151 H 312.338 -0.0216655 0.947752 0
M  V30 3152 H 312.044 -0.670625 3.45247 0
M  V30 3153 H 311.918 -2.34784 2.95222 0
M  V30 3154 H 314.305 -2.19519 1.9722 0
M  V30 3155 H 314.386 -0.510342 2.50657 0
M  V30 3156 H 314.03 -1.28045 4.91495 0
M  V30 3157 H 313.96 -2.96843 4.34962 0
M  V30 3158 H 316.451 -1.78468 3.33103 0
M  V30 3159 H 316.764 -3.08652 7.08487 0
M  V30 3160 H 315.109 -2.78216 6.36884 0
M  V30 3161 H 318.3 -2.13604 4.16523 0
M  V30 3162 H 318.473 -2.72989 5.87691 0
M  V30 3163 N 311.879 -1.3236 -0.855495 0
M  V30 3164 C 313.109 -1.25688 -1.6397 0
M  V30 3165 C 313.517 0.177592 -1.88365 0
M  V30 3166 O 312.86 1.12485 -1.45234 0
M  V30 3167 C 312.922 -1.94602 -3.02275 0
M  V30 3168 C 312.586 -3.43937 -3.00926 0
M  V30 3169 C 313.583 -4.39435 -2.77835 0
M  V30 3170 C 311.268 -3.85858 -3.21588 0
M  V30 3171 C 313.262 -5.74829 -2.75409 0
M  V30 3172 C 310.949 -5.21361 -3.18789 0
M  V30 3173 C 311.947 -6.15658 -2.95727 0
M  V30 3174 O 311.635 -7.48681 -2.928 0
M  V30 3175 H 311.367 -0.434972 -0.51747 0
M  V30 3176 H 313.921 -1.75023 -1.075 0
M  V30 3177 H 312.151 -1.39836 -3.60531 0
M  V30 3178 H 313.84 -1.81651 -3.62985 0
M  V30 3179 H 314.606 -4.08374 -2.6164 0
M  V30 3180 H 310.485 -3.12883 -3.38564 0
M  V30 3181 H 314.029 -6.48404 -2.57328 0
M  V30 3182 H 309.926 -5.52052 -3.34528 0
M  V30 3183 H 310.694 -7.5803 -3.0876 0
M  V30 3184 N 313.357 1.07166 -1.15556 0
M  V30 3185 C 314.305 2.16517 -0.8499 0
M  V30 3186 C 315.299 1.68468 0.177454 0
M  V30 3187 O 316.505 1.79971 0.0323026 0
M  V30 3188 H 312.88 0.706652 -0.25719 0
M  V30 3189 H 314.851 2.39514 -1.77976 0
M  V30 3190 C 313.6 3.45855 -0.357682 0
M  V30 3191 H 312.923 3.83214 -1.13961 0
M  V30 3192 H 314.363 4.23607 -0.182489 0
M  V30 3193 C 312.822 3.24062 0.921152 0
M  V30 3194 O 313.352 3.48813 1.9923 0
M  V30 3195 N 311.558 2.77539 0.86141 0
M  V30 3196 H 311.105 2.57598 -0.0104408 0
M  V30 3197 H 311.063 2.63337 1.71758 0
M  V30 3198 N 314.835 0.952656 1.25548 0
M  V30 3199 C 315.765 0.489287 2.28316 0
M  V30 3200 C 316.746 -0.463359 1.63667 0
M  V30 3201 O 317.931 -0.36274 1.90782 0
M  V30 3202 C 315.061 -0.235603 3.465 0
M  V30 3203 C 314.015 0.631593 4.23314 0
M  V30 3204 C 313.341 -0.223923 5.34231 0
M  V30 3205 C 314.641 1.90871 4.86174 0
M  V30 3206 H 316.335 1.34822 2.67326 0
M  V30 3207 H 313.881 0.649728 1.28509 0
M  V30 3208 H 315.834 -0.570882 4.17515 0
M  V30 3209 H 314.558 -1.12877 3.06474 0
M  V30 3210 H 313.217 0.949929 3.54079 0
M  V30 3211 H 312.865 -1.11678 4.90446 0
M  V30 3212 H 312.565 0.35299 5.86539 0
M  V30 3213 H 314.089 -0.554214 6.0808 0
M  V30 3214 H 315.503 1.63997 5.49343 0
M  V30 3215 H 313.9 2.43112 5.4865 0
M  V30 3216 H 314.97 2.61304 4.08471 0
M  V30 3217 N 316.313 -1.40141 0.720998 0
M  V30 3218 C 317.729 -1.54632 0.395113 0
M  V30 3219 C 317.929 -1.69115 -1.09555 0
M  V30 3220 O 316.985 -1.68377 -1.88163 0
M  V30 3221 C 318.298 -2.77177 1.1659 0
M  V30 3222 C 319.846 -2.91 1.15274 0
M  V30 3223 C 320.321 -4.16465 1.90579 0
M  V30 3224 N 321.812 -4.23476 1.87675 0
M  V30 3225 C 322.547 -5.19475 2.42762 0
M  V30 3226 N 322.043 -6.21348 3.06428 0
M  V30 3227 N 323.836 -5.11592 2.32874 0
M  V30 3228 H 315.987 -1.28986 1.68749 0
M  V30 3229 H 318.25 -0.62412 0.713567 0
M  V30 3230 H 317.956 -2.72771 2.22011 0
M  V30 3231 H 317.83 -3.69442 0.76108 0
M  V30 3232 H 320.217 -2.94907 0.106702 0
M  V30 3233 H 320.298 -1.99838 1.59682 0
M  V30 3234 H 319.942 -4.1332 2.95176 0
M  V30 3235 H 319.872 -5.06646 1.43587 0
M  V30 3236 H 322.363 -3.50497 1.41281 0
M  V30 3237 H 322.676 -6.91034 3.45965 0
M  V30 3238 H 321.021 -6.21777 3.10514 0
M  V30 3239 H 324.212 -4.30936 1.82789 0
M  V30 3240 H 324.385 -5.86233 2.76106 0
M  V30 3241 N 317.792 -0.46758 -1.50504 0
M  V30 3242 C 319.04 0.0884469 -2.01906 0
M  V30 3243 C 319.361 1.40532 -1.35188 0
M  V30 3244 O 318.631 1.89515 -0.496079 0
M  V30 3245 H 317.211 0.0356765 -0.746148 0
M  V30 3246 H 319.873 -0.6172 -1.84869 0
M  V30 3247 H 318.969 0.2425 -3.11156 0
M  V30 3248 N 319.27 1.56325 -0.20005 0
M  V30 3249 C 320.516 1.98012 0.438059 0
M  V30 3250 C 320.849 1.08702 1.60927 0
M  V30 3251 O 320.124 0.140064 1.93995 0
M  V30 3252 C 320.407 3.48841 0.893419 0
M  V30 3253 C 320.26 4.48928 -0.279947 0
M  V30 3254 C 321.579 4.03498 1.75719 0
M  V30 3255 H 318.698 0.719918 0.157757 0
M  V30 3256 H 321.34 1.87743 -0.291968 0
M  V30 3257 H 319.49 3.57723 1.51547 0
M  V30 3258 H 321.162 4.52079 -0.91772 0
M  V30 3259 H 319.405 4.23694 -0.930919 0
M  V30 3260 H 320.076 5.5194 0.0812601 0
M  V30 3261 H 322.552 3.97427 1.23253 0
M  V30 3262 H 321.428 5.09393 2.04476 0
M  V30 3263 H 321.689 3.4906 2.71311 0
M  V30 3264 N 320.748 -0.0735177 1.57428 0
M  V30 3265 C 321.995 -0.772999 1.87166 0
M  V30 3266 C 322.323 -1.77665 0.791551 0
M  V30 3267 O 321.578 -1.94541 -0.212636 0
M  V30 3268 C 321.877 -1.51799 3.23561 0
M  V30 3269 C 321.543 -0.654484 4.46125 0
M  V30 3270 C 320.205 -0.416511 4.79394 0
M  V30 3271 C 322.557 -0.0555862 5.2117 0
M  V30 3272 C 319.885 0.429869 5.85123 0
M  V30 3273 C 322.237 0.778239 6.27795 0
M  V30 3274 C 320.901 1.0261 6.59566 0
M  V30 3275 H 320.171 -0.282861 0.684888 0
M  V30 3276 H 322.818 -0.0338272 1.9147 0
M  V30 3277 H 321.123 -2.32932 3.1504 0
M  V30 3278 H 322.82 -2.06397 3.43804 0
M  V30 3279 H 319.41 -0.850091 4.20085 0
M  V30 3280 H 323.594 -0.226558 4.95783 0
M  V30 3281 H 318.85 0.630665 6.08139 0
M  V30 3282 H 323.024 1.24906 6.85107 0
M  V30 3283 H 320.651 1.68371 7.4132 0
M  V30 3284 N 322.226 -1.5378 -0.344866 0
M  V30 3285 C 323.189 -1.80981 -1.40637 0
M  V30 3286 C 324.189 -0.680816 -1.45676 0
M  V30 3287 O 325.379 -0.949095 -1.46075 0
M  V30 3288 C 322.511 -1.95063 -2.79577 0
M  V30 3289 H 323.704 -2.75803 -1.17783 0
M  V30 3290 H 321.257 -1.45173 -0.579181 0
M  V30 3291 H 321.992 -1.02379 -3.07716 0
M  V30 3292 H 321.777 -2.77198 -2.77315 0
M  V30 3293 H 323.267 -2.17629 -3.56409 0
M  V30 3294 N 323.704 0.605807 -1.45491 0
M  V30 3295 C 325.115 1.18777 -1.44045 0
M  V30 3296 C 325.466 1.95471 -0.169001 0
M  V30 3297 O 324.591 2.0374 0.729324 0
M  V30 3298 C 325.186 2.16064 -2.60963 0
M  V30 3299 C 323.745 2.69633 -2.62631 0
M  V30 3300 C 322.892 1.45072 -2.36325 0
M  V30 3301 H 325.843 0.395017 -1.53705 0
M  V30 3302 H 325.864 2.9913 -2.35163 0
M  V30 3303 H 325.376 1.60217 -3.53486 0
M  V30 3304 H 323.477 3.29414 -1.74119 0
M  V30 3305 H 323.59 3.13944 -3.61906 0
M  V30 3306 H 321.954 1.74089 -1.85917 0
M  V30 3307 H 322.737 0.910899 -3.30995 0
M  V30 3308 N 325.182 1.32811 0.848464 0
M  V30 3309 C 326.112 1.24882 1.97299 0
M  V30 3310 C 327.093 0.131357 1.69592 0
M  V30 3311 O 328.278 0.319553 1.91553 0
M  V30 3312 C 325.408 0.97746 3.33261 0
M  V30 3313 C 324.362 2.05682 3.75338 0
M  V30 3314 C 323.688 1.63777 5.09 0
M  V30 3315 C 324.988 3.47254 3.90144 0
M  V30 3316 H 326.682 2.18966 2.04191 0
M  V30 3317 H 324.228 1.05413 0.981029 0
M  V30 3318 H 326.181 0.908513 4.1149 0
M  V30 3319 H 324.905 0.000980011 3.266 0
M  V30 3320 H 323.564 2.11603 2.99366 0
M  V30 3321 H 323.212 0.648569 4.98801 0
M  V30 3322 H 322.912 2.36 5.38124 0
M  V30 3323 H 324.436 1.5833 5.89715 0
M  V30 3324 H 325.85 3.43888 4.58709 0
M  V30 3325 H 324.247 4.1788 4.30693 0
M  V30 3326 H 325.317 3.86462 2.92874 0
M  V30 3327 N 326.66 -1.06551 1.16123 0
M  V30 3328 C 327.61 -2.12209 0.833736 0
M  V30 3329 C 328.594 -1.59825 -0.185656 0
M  V30 3330 O 329.786 -1.76994 0.0147906 0
M  V30 3331 C 326.915 -3.41674 0.333697 0
M  V30 3332 C 326.001 -4.00892 1.38372 0
M  V30 3333 N 326.392 -4.34256 2.59337 0
M  V30 3334 C 324.69 -4.28463 1.23836 0
M  V30 3335 C 325.391 -4.81291 3.26701 0
M  V30 3336 N 324.367 -4.80565 2.54083 0
M  V30 3337 H 328.169 -2.35849 1.75364 0
M  V30 3338 H 325.683 -1.24068 1.04789 0
M  V30 3339 H 327.68 -4.16822 0.0806918 0
M  V30 3340 H 326.34 -3.19475 -0.58017 0
M  V30 3341 H 327.351 -4.24687 2.96415 0
M  V30 3342 H 324.028 -4.15721 0.38504 0
M  V30 3343 H 325.418 -5.16332 4.29943 0
M  V30 3344 N 328.138 -0.959301 -1.25041 0
M  V30 3345 C 329.048 -0.489994 -2.29426 0
M  V30 3346 C 330.064 0.444944 -1.68215 0
M  V30 3347 O 331.24 0.320046 -1.98841 0
M  V30 3348 C 328.305 0.220309 -3.45999 0
M  V30 3349 C 327.366 -0.753418 -4.22637 0
M  V30 3350 C 326.599 -0.076918 -5.33645 0
M  V30 3351 O 326.822 1.13649 -5.58963 0
M  V30 3352 O 325.756 -0.764824 -5.97021 0
M  V30 3353 H 329.582 -1.35755 -2.71669 0
M  V30 3354 H 327.167 -0.725961 -1.30576 0
M  V30 3355 H 329.049 0.619677 -4.16819 0
M  V30 3356 H 327.724 1.06296 -3.0575 0
M  V30 3357 H 326.631 -1.20308 -3.54227 0
M  V30 3358 H 327.964 -1.56423 -4.66683 0
M  V30 3359 N 329.616 1.39756 -0.72842 0
M  V30 3360 C 331.027 1.83498 -0.344289 0
M  V30 3361 C 331.378 1.60868 1.12321 0
M  V30 3362 O 330.503 1.09634 1.86573 0
M  V30 3363 C 331.098 3.33114 -0.618112 0
M  V30 3364 C 329.657 3.753 -0.287549 0
M  V30 3365 C 328.804 2.62831 -0.884048 0
M  V30 3366 H 331.755 1.28842 -0.926578 0
M  V30 3367 H 331.776 3.80334 0.112349 0
M  V30 3368 H 331.288 3.49553 -1.68625 0
M  V30 3369 H 329.389 3.64451 0.775012 0
M  V30 3370 H 329.502 4.72945 -0.765512 0
M  V30 3371 H 327.866 2.52792 -0.311149 0
M  V30 3372 H 328.649 2.82078 -1.95671 0
M  V30 3373 N 331.094 0.475555 1.50254 0
M  V30 3374 C 332.342 -0.077738 2.0195 0
M  V30 3375 C 332.663 -1.39813 1.35931 0
M  V30 3376 O 331.933 -1.89249 0.506123 0
M  V30 3377 H 330.513 -0.031719 0.746326 0
M  V30 3378 H 333.175 0.626995 1.84539 0
M  V30 3379 H 332.271 -0.225995 3.11281 0
M  V30 3380 N 332.573 -1.56217 0.208337 0
M  V30 3381 C 333.521 -2.21053 -0.723769 0
M  V30 3382 C 334.515 -1.18578 -1.20978 0
M  V30 3383 O 335.721 -1.36691 -1.17114 0
M  V30 3384 H 332.096 -0.708595 -0.251788 0
M  V30 3385 H 334.067 -2.98006 -0.153365 0
M  V30 3386 C 332.816 -2.89417 -1.927 0
M  V30 3387 H 332.139 -3.68019 -1.56212 0
M  V30 3388 H 333.579 -3.38201 -2.55727 0
M  V30 3389 C 332.038 -1.91166 -2.77411 0
M  V30 3390 O 332.568 -1.42026 -3.75754 0
M  V30 3391 N 330.774 -1.59105 -2.43175 0
M  V30 3392 H 330.321 -1.99259 -1.63259 0
M  V30 3393 H 330.279 -0.936255 -3.00136 0
M  V30 3394 N 334.051 0.0651679 -1.57465 0
M  V30 3395 C 335.297 0.764193 -1.87851 0
M  V30 3396 C 335.63 1.76889 -0.801495 0
M  V30 3397 O 334.905 1.93594 0.187528 0
M  V30 3398 C 335.188 1.46625 -3.28897 0
M  V30 3399 C 335.041 0.477515 -4.47258 0
M  V30 3400 C 336.36 2.4095 -3.68281 0
M  V30 3401 H 333.479 0.276351 -0.683227 0
M  V30 3402 H 336.121 0.0272868 -1.8998 0
M  V30 3403 H 334.271 2.09438 -3.27212 0
M  V30 3404 H 335.943 -0.145922 -4.61069 0
M  V30 3405 H 334.186 -0.206576 -4.33308 0
M  V30 3406 H 334.857 1.0065 -5.42746 0
M  V30 3407 H 337.333 1.88209 -3.71102 0
M  V30 3408 H 336.209 2.87072 -4.67847 0
M  V30 3409 H 336.47 3.26049 -2.98571 0
M  V30 3410 N 335.529 1.53961 0.336706 0
M  V30 3411 C 336.775 1.7179 1.07777 0
M  V30 3412 C 337.108 0.483263 1.88091 0
M  V30 3413 O 336.383 -0.519747 1.87427 0
M  V30 3414 C 336.666 2.98558 2.01334 0
M  V30 3415 C 336.519 4.32245 1.24437 0
M  V30 3416 C 337.838 3.21023 3.01052 0
M  V30 3417 H 334.957 0.625089 0.390426 0
M  V30 3418 H 337.599 1.86641 0.35567 0
M  V30 3419 H 335.749 2.86028 2.62908 0
M  V30 3420 H 337.421 4.56637 0.654243 0
M  V30 3421 H 335.664 4.30344 0.546458 0
M  V30 3422 H 336.335 5.17137 1.93063 0
M  V30 3423 H 338.811 3.32929 2.49595 0
M  V30 3424 H 337.687 4.11104 3.6371 0
M  V30 3425 H 337.948 2.37637 3.72802 0
M  V30 3426 N 337.007 -0.598083 1.45811 0
M  V30 3427 C 337.957 -1.70272 1.51629 0
M  V30 3428 C 338.941 -1.56382 0.378629 0
M  V30 3429 O 340.133 -1.65557 0.626087 0
M  V30 3430 C 337.262 -3.09042 1.49493 0
M  V30 3431 C 336.348 -3.28284 2.68496 0
M  V30 3432 N 336.739 -3.17748 3.93535 0
M  V30 3433 C 335.037 -3.59182 2.64394 0
M  V30 3434 C 335.738 -3.38579 4.7301 0
M  V30 3435 N 334.714 -3.63016 4.04624 0
M  V30 3436 H 338.516 -1.60634 2.46118 0
M  V30 3437 H 336.03 -0.801642 1.41235 0
M  V30 3438 H 338.027 -3.88302 1.51747 0
M  V30 3439 H 336.687 -3.19823 0.560683 0
M  V30 3440 H 337.698 -2.95944 4.25014 0
M  V30 3441 H 334.375 -3.76742 1.79922 0
M  V30 3442 H 335.765 -3.35747 5.82 0
M  V30 3443 N 338.485 -1.33259 -0.841409 0
M  V30 3444 C 339.415 -1.25926 -1.96634 0
M  V30 3445 C 340.396 -0.140349 -1.6952 0
M  V30 3446 O 341.581 -0.329707 -1.91381 0
M  V30 3447 C 338.711 -0.99512 -3.32738 0
M  V30 3448 C 337.665 -2.0767 -3.74242 0
M  V30 3449 C 336.991 -1.66474 -5.08125 0
M  V30 3450 C 338.291 -3.49318 -3.88297 0
M  V30 3451 H 339.985 -2.20046 -2.03027 0
M  V30 3452 H 337.531 -1.05931 -0.975425 0
M  V30 3453 H 339.484 -0.930323 -4.11002 0
M  V30 3454 H 338.208 -0.0183004 -3.26595 0
M  V30 3455 H 336.867 -2.13187 -2.98239 0
M  V30 3456 H 336.515 -0.675012 -4.9845 0
M  V30 3457 H 336.215 -2.3885 -5.36865 0
M  V30 3458 H 337.739 -1.61455 -5.88867 0
M  V30 3459 H 339.153 -3.46316 -4.56879 0
M  V30 3460 H 337.55 -4.20158 -4.28471 0
M  V30 3461 H 338.62 -3.8801 -2.9082 0
M  V30 3462 N 339.963 1.05934 -1.16686 0
M  V30 3463 C 341.211 1.78447 -0.948744 0
M  V30 3464 C 341.532 1.87813 0.524523 0
M  V30 3465 O 340.802 1.38945 1.38098 0
M  V30 3466 H 339.382 0.660971 -0.348033 0
M  V30 3467 H 342.044 1.27947 -1.47022 0
M  V30 3468 H 341.14 2.80394 -1.37061 0
M  V30 3469 N 341.441 0.965919 1.2453 0
M  V30 3470 C 342.371 0.513476 2.27784 0
M  V30 3471 C 343.352 -0.445974 1.6415 0
M  V30 3472 O 344.537 -0.342485 1.91156 0
M  V30 3473 C 341.667 -0.198839 3.4673 0
M  V30 3474 C 340.621 0.676456 4.2262 0
M  V30 3475 C 339.947 -0.167248 5.34438 0
M  V30 3476 C 341.247 1.96017 4.84123 0
M  V30 3477 H 342.941 1.3765 2.65881 0
M  V30 3478 H 340.487 0.663321 1.27813 0
M  V30 3479 H 342.44 -0.526567 4.18097 0
M  V30 3480 H 341.164 -1.0962 3.07654 0
M  V30 3481 H 339.823 0.98743 3.53052 0
M  V30 3482 H 339.471 -1.0647 4.91603 0
M  V30 3483 H 339.171 0.415181 5.86131 0
M  V30 3484 H 340.695 -0.489688 6.08633 0
M  V30 3485 H 342.109 1.69814 5.47573 0
M  V30 3486 H 340.506 2.48918 5.4604 0
M  V30 3487 H 341.576 2.65622 4.05676 0
M  V30 3488 N 342.919 -1.39368 0.735821 0
M  V30 3489 C 343.851 -2.2913 0.0567723 0
M  V30 3490 C 344.864 -1.46859 -0.702589 0
M  V30 3491 O 346.053 -1.69925 -0.546616 0
M  V30 3492 C 343.153 -3.25492 -0.943823 0
M  V30 3493 C 342.326 -4.36709 -0.24581 0
M  V30 3494 C 341.385 -5.13376 -1.15463 0
M  V30 3495 O 340.411 -5.65683 -0.631803 0
M  V30 3496 N 341.613 -5.24656 -2.48427 0
M  V30 3497 H 344.378 -2.88047 0.827582 0
M  V30 3498 H 341.939 -1.50957 0.585112 0
M  V30 3499 H 343.931 -3.73657 -1.55443 0
M  V30 3500 H 342.501 -2.676 -1.61583 0
M  V30 3501 H 341.721 -3.9041 0.545286 0
M  V30 3502 H 343.009 -5.08244 0.237891 0
M  V30 3503 H 342.407 -4.83679 -2.93379 0
M  V30 3504 H 340.964 -5.76258 -3.04582 0
M  V30 3505 N 344.397 -0.483516 -1.5 0
M  V30 3506 C 345.627 0.0643896 -2.065 0
M  V30 3507 C 346.035 1.32949 -1.34615 0
M  V30 3508 O 345.378 1.79003 -0.412756 0
M  V30 3509 C 345.44 0.405983 -3.572 0
M  V30 3510 C 345.104 -0.758875 -4.50655 0
M  V30 3511 C 346.101 -1.64445 -4.93208 0
M  V30 3512 C 343.786 -0.952725 -4.93182 0
M  V30 3513 C 345.78 -2.70818 -5.77006 0
M  V30 3514 C 343.467 -2.01966 -5.76761 0
M  V30 3515 C 344.465 -2.89574 -6.18576 0
M  V30 3516 O 344.153 -3.94429 -7.00486 0
M  V30 3517 H 343.885 -0.00934786 -0.675935 0
M  V30 3518 H 346.439 -0.674959 -1.93993 0
M  V30 3519 H 344.669 1.19869 -3.67652 0
M  V30 3520 H 346.358 0.890433 -3.96013 0
M  V30 3521 H 347.124 -1.50643 -4.61012 0
M  V30 3522 H 343.003 -0.280247 -4.60147 0
M  V30 3523 H 346.547 -3.3923 -6.09565 0
M  V30 3524 H 342.444 -2.1577 -6.0837 0
M  V30 3525 H 343.212 -3.91568 -7.1876 0
M  V30 3526 N 345.875 1.56104 -0.216619 0
M  V30 3527 C 346.838 2.18819 0.681962 0
M  V30 3528 C 347.838 1.14866 1.12528 0
M  V30 3529 O 349.028 1.40128 1.03488 0
M  V30 3530 C 346.16 2.80756 1.93362 0
M  V30 3531 H 347.353 2.99595 0.135254 0
M  V30 3532 H 344.906 1.56265 0.0330003 0
M  V30 3533 H 345.641 2.03837 2.52232 0
M  V30 3534 H 345.426 3.56876 1.62426 0
M  V30 3535 H 346.916 3.28844 2.57393 0
M  V30 3536 N 347.353 -0.0568162 1.57498 0
M  V30 3537 C 348.583 -0.764515 1.91934 0
M  V30 3538 C 348.991 -1.70877 0.81227 0
M  V30 3539 O 348.334 -1.82351 -0.222213 0
M  V30 3540 C 348.396 -1.5994 3.21962 0
M  V30 3541 C 348.06 -0.822925 4.4953 0
M  V30 3542 C 349.057 -0.135464 5.19723 0
M  V30 3543 C 346.742 -0.785666 4.96117 0
M  V30 3544 C 348.736 0.578861 6.34766 0
M  V30 3545 C 346.423 -0.0675784 6.11063 0
M  V30 3546 C 347.421 0.613471 6.80239 0
M  V30 3547 O 347.109 1.31996 7.92989 0
M  V30 3548 H 346.841 -0.221647 0.63863 0
M  V30 3549 H 349.395 -0.0268218 2.05382 0
M  V30 3550 H 347.625 -2.38026 3.04763 0
M  V30 3551 H 349.314 -2.18715 3.41934 0
M  V30 3552 H 350.08 -0.155458 4.84751 0
M  V30 3553 H 345.959 -1.30524 4.42136 0
M  V30 3554 H 349.503 1.111 6.88696 0
M  V30 3555 H 345.4 -0.0455636 6.45484 0
M  V30 3556 H 346.168 1.23077 8.09194 0
M  V30 3557 N 348.832 -1.54138 -0.328536 0
M  V30 3558 C 350.248 -1.44736 -0.672574 0
M  V30 3559 C 350.448 -0.616217 -1.91846 0
M  V30 3560 O 349.504 -0.113067 -2.52247 0
M  V30 3561 C 350.817 -2.884 -0.851217 0
M  V30 3562 C 352.365 -2.98271 -0.948877 0
M  V30 3563 C 352.84 -4.43074 -1.15973 0
M  V30 3564 N 354.331 -4.46665 -1.22658 0
M  V30 3565 C 355.066 -5.55857 -1.40751 0
M  V30 3566 N 354.562 -6.75026 -1.5592 0
M  V30 3567 N 356.355 -5.43495 -1.4342 0
M  V30 3568 H 348.506 -2.06661 0.490421 0
M  V30 3569 H 350.769 -0.934812 0.157579 0
M  V30 3570 H 350.475 -3.51699 -0.00704236 0
M  V30 3571 H 350.349 -3.34225 -1.74853 0
M  V30 3572 H 352.736 -2.35102 -1.78356 0
M  V30 3573 H 352.817 -2.55785 -0.0281435 0
M  V30 3574 H 352.461 -5.06827 -0.329915 0
M  V30 3575 H 352.391 -4.83165 -2.09426 0
M  V30 3576 H 354.882 -3.60797 -1.124 0
M  V30 3577 H 355.195 -7.54004 -1.69404 0
M  V30 3578 H 353.54 -6.77944 -1.53027 0
M  V30 3579 H 356.731 -4.49349 -1.31162 0
M  V30 3580 H 356.904 -6.28649 -1.57178 0
M  V30 3581 N 350.31 0.590341 -1.46126 0
M  V30 3582 C 351.587 1.35029 -1.41515 0
M  V30 3583 C 351.967 2.10888 -0.0946472 0
M  V30 3584 O 351.315 2.08998 0.923693 0
M  V30 3585 C 351.525 2.28269 -2.63997 0
M  V30 3586 C 352.873 2.90338 -3.09821 0
M  V30 3587 O 353.897 2.38585 -2.64492 0
M  V30 3588 O 352.756 3.84321 -3.88535 0
M  V30 3589 H 349.85 0.606317 -0.562413 0
M  V30 3590 H 352.396 0.611994 -1.58281 0
M  V30 3591 H 351.168 1.71591 -3.51671 0
M  V30 3592 H 350.791 3.0945 -2.49652 0
M  V30 3593 N 351.788 1.33704 0.83433 0
M  V30 3594 C 352.718 1.26967 1.95963 0
M  V30 3595 C 353.699 0.149337 1.69443 0
M  V30 3596 O 354.884 0.339852 1.91203 0
M  V30 3597 C 352.014 1.01275 3.32206 0
M  V30 3598 C 350.968 2.09652 3.73136 0
M  V30 3599 C 350.294 1.69166 5.07235 0
M  V30 3600 C 351.594 3.51372 3.86439 0
M  V30 3601 H 353.288 2.2112 2.01857 0
M  V30 3602 H 350.834 1.06447 0.969793 0
M  V30 3603 H 352.787 0.952106 4.10503 0
M  V30 3604 H 351.511 0.0356203 3.26581 0
M  V30 3605 H 350.17 2.14766 2.97104 0
M  V30 3606 H 349.818 0.701437 4.98085 0
M  V30 3607 H 349.518 2.41694 5.35591 0
M  V30 3608 H 351.042 1.64576 5.88003 0
M  V30 3609 H 352.456 3.48734 4.55036 0
M  V30 3610 H 350.853 4.22425 4.26236 0
M  V30 3611 H 351.923 3.89546 2.88759 0
M  V30 3612 N 353.266 -1.05314 1.17247 0
M  V30 3613 C 354.176 -2.16538 0.90268 0
M  V30 3614 C 355.192 -1.73523 -0.128707 0
M  V30 3615 O 356.368 -2.01337 0.0502701 0
M  V30 3616 C 353.433 -3.44167 0.418356 0
M  V30 3617 C 352.494 -4.01635 1.51618 0
M  V30 3618 C 351.727 -5.23171 1.05487 0
M  V30 3619 O 351.95 -5.70327 -0.0914715 0
M  V30 3620 O 350.884 -5.72848 1.8474 0
M  V30 3621 H 354.71 -2.42145 1.83302 0
M  V30 3622 H 352.295 -1.15037 0.953246 0
M  V30 3623 H 354.177 -4.21112 0.155726 0
M  V30 3624 H 352.852 -3.20063 -0.48385 0
M  V30 3625 H 351.759 -3.26135 1.83268 0
M  V30 3626 H 353.092 -4.30053 2.39405 0
M  V30 3627 N 354.744 -0.972509 -1.24016 0
M  V30 3628 C 356.021 -0.553733 -1.87598 0
M  V30 3629 C 356.401 0.969158 -1.87538 0
M  V30 3630 O 355.749 1.84255 -1.35139 0
M  V30 3631 C 355.959 -1.15076 -3.29482 0
M  V30 3632 C 357.307 -1.23862 -4.06132 0
M  V30 3633 O 358.331 -1.10363 -3.38672 0
M  V30 3634 O 357.19 -1.45252 -5.26844 0
M  V30 3635 H 354.284 -0.185331 -0.805966 0
M  V30 3636 H 356.83 -1.06709 -1.31952 0
M  V30 3637 H 355.602 -2.19333 -3.2405 0
M  V30 3638 H 355.225 -0.621746 -3.92709 0
M  V30 3639 N 356.222 1.38976 -0.743202 0
M  V30 3640 C 357.447 2.05161 -0.303936 0
M  V30 3641 C 357.872 1.55677 1.05576 0
M  V30 3642 O 357.23 0.704131 1.67068 0
M  V30 3643 C 357.278 3.59138 -0.324373 0
M  V30 3644 O 356.382 4.06668 0.685204 0
M  V30 3645 H 355.723 0.649815 -0.136518 0
M  V30 3646 H 358.253 1.77852 -1.01142 0
M  V30 3647 H 358.263 4.07639 -0.171618 0
M  V30 3648 H 356.938 3.94515 -1.31647 0
M  V30 3649 H 355.515 3.69561 0.497913 0
M  V30 3650 N 357.7 0.491464 1.49741 0
M  V30 3651 C 358.663 -0.280906 2.27472 0
M  V30 3652 C 359.663 -0.902454 1.33088 0
M  V30 3653 O 360.853 -0.768465 1.56334 0
M  V30 3654 C 357.985 -1.40209 3.10732 0
M  V30 3655 H 359.178 0.401056 2.97206 0
M  V30 3656 H 356.731 0.246131 1.5435 0
M  V30 3657 H 357.466 -2.11849 2.45541 0
M  V30 3658 H 357.251 -0.961969 3.80117 0
M  V30 3659 H 358.741 -1.9464 3.69466 0
M  V30 3660 N 359.178 -1.55987 0.224894 0
M  V30 3661 C 360.424 -1.98684 -0.406502 0
M  V30 3662 C 360.757 -1.11248 -1.59177 0
M  V30 3663 O 360.032 -0.170909 -1.93748 0
M  V30 3664 C 360.315 -3.50218 -0.837808 0
M  V30 3665 C 360.168 -4.48426 0.351332 0
M  V30 3666 C 361.487 -4.06243 -1.69278 0
M  V30 3667 H 358.606 -0.722337 -0.146283 0
M  V30 3668 H 361.248 -1.87255 0.321799 0
M  V30 3669 H 359.398 -3.60089 -1.45837 0
M  V30 3670 H 361.07 -4.50562 0.989526 0
M  V30 3671 H 359.313 -4.22159 0.998207 0
M  V30 3672 H 359.984 -5.52 0.00655905 0
M  V30 3673 H 362.46 -3.99337 -1.16914 0
M  V30 3674 H 361.336 -5.12581 -1.96346 0
M  V30 3675 H 361.597 -3.53332 -2.65723 0
M  V30 3676 N 360.656 0.0484629 -1.57525 0
M  V30 3677 C 361.933 0.777447 -1.79486 0
M  V30 3678 C 362.313 1.94597 -0.818251 0
M  V30 3679 O 361.661 2.28047 0.143767 0
M  V30 3680 C 361.871 1.22864 -3.26658 0
M  V30 3681 C 363.219 1.65251 -3.91123 0
M  V30 3682 O 364.243 1.32372 -3.3069 0
M  V30 3683 O 363.102 2.26207 -4.97486 0
M  V30 3684 H 360.196 0.374357 -0.737419 0
M  V30 3685 H 362.742 0.0267359 -1.69679 0
M  V30 3686 H 361.514 0.393589 -3.89316 0
M  V30 3687 H 361.137 2.03996 -3.41279 0
M  V30 3688 N 362.134 1.5431 0.320358 0
M  V30 3689 C 363.362 1.76636 1.07738 0
M  V30 3690 C 363.777 0.51649 1.81598 0
M  V30 3691 O 363.134 -0.512942 1.75143 0
M  V30 3692 C 363.185 2.96158 2.07299 0
M  V30 3693 O 362.906 4.16313 1.36438 0
M  V30 3694 C 364.407 3.3072 2.95193 0
M  V30 3695 H 361.627 0.589597 0.320339 0
M  V30 3696 H 364.171 2.01207 0.36551 0
M  V30 3697 H 362.326 2.73851 2.74016 0
M  V30 3698 H 362.74 4.83565 2.03138 0
M  V30 3699 H 364.214 4.17643 3.60941 0
M  V30 3700 H 364.691 2.48026 3.62463 0
M  V30 3701 H 365.297 3.55117 2.34034 0
M  V30 3702 N 363.613 -0.582584 1.46437 0
M  V30 3703 C 365.029 -0.905962 1.31394 0
M  V30 3704 C 365.229 -1.99468 0.285476 0
M  V30 3705 O 364.285 -2.50566 -0.311914 0
M  V30 3706 C 365.598 -1.3232 2.70022 0
M  V30 3707 C 367.146 -1.43604 2.78113 0
M  V30 3708 C 367.621 -1.88694 4.17323 0
M  V30 3709 N 369.112 -1.95887 4.19741 0
M  V30 3710 C 369.847 -2.32051 5.24347 0
M  V30 3711 N 369.343 -2.67006 6.39281 0
M  V30 3712 N 371.136 -2.32606 5.11713 0
M  V30 3713 H 363.287 0.1366 2.1196 0
M  V30 3714 H 365.55 -0.00155736 0.947999 0
M  V30 3715 H 365.256 -0.597242 3.46592 0
M  V30 3716 H 365.13 -2.28469 3.00136 0
M  V30 3717 H 367.517 -2.15286 2.01832 0
M  V30 3718 H 367.598 -0.457059 2.51684 0
M  V30 3719 H 367.242 -1.1759 4.941 0
M  V30 3720 H 367.172 -2.8755 4.4116 0
M  V30 3721 H 369.663 -1.71362 3.36814 0
M  V30 3722 H 369.976 -2.93554 7.14875 0
M  V30 3723 H 368.321 -2.64644 6.42642 0
M  V30 3724 H 371.512 -2.04721 4.2096 0
M  V30 3725 H 371.685 -2.60462 5.93349 0
M  V30 3726 N 365.091 -1.34144 -0.827227 0
M  V30 3727 C 366.34 -1.25602 -1.5782 0
M  V30 3728 C 366.653 0.173445 -1.94829 0
M  V30 3729 O 367.859 0.380984 -2.68814 0
M  V30 3730 C 366.315 -2.20151 -2.84713 0
M  V30 3731 C 365.923 -3.68331 -2.55021 0
M  V30 3732 C 367.667 -2.20508 -3.62735 0
M  V30 3733 C 365.574 -4.54762 -3.78082 0
M  V30 3734 H 364.504 -0.466573 -0.592306 0
M  V30 3735 H 367.155 -1.59283 -0.911116 0
M  V30 3736 H 365.537 -1.79417 -3.53023 0
M  V30 3737 H 366.711 -4.17577 -1.94849 0
M  V30 3738 H 365.026 -3.7038 -1.90283 0
M  V30 3739 H 367.623 -2.82306 -4.54101 0
M  V30 3740 H 367.966 -1.20322 -3.98533 0
M  V30 3741 H 368.499 -2.59664 -3.01362 0
M  V30 3742 H 365.238 -5.55867 -3.47407 0
M  V30 3743 H 364.758 -4.10254 -4.37552 0
M  V30 3744 H 366.437 -4.69153 -4.45538 0
M  V30 3745 N 366.569 1.04691 -1.17803 0
M  V30 3746 C 367.985 1.29963 -0.926379 0
M  V30 3747 C 368.185 1.97251 0.411635 0
M  V30 3748 O 367.241 2.24922 1.14744 0
M  V30 3749 C 368.554 2.16447 -2.08737 0
M  V30 3750 C 370.102 2.29814 -2.12496 0
M  V30 3751 C 370.577 3.19661 -3.27995 0
M  V30 3752 N 372.068 3.27247 -3.27816 0
M  V30 3753 C 372.803 3.96906 -4.13827 0
M  V30 3754 N 372.299 4.6895 -5.09959 0
M  V30 3755 N 374.092 3.93122 -4.01761 0
M  V30 3756 H 366.243 0.594182 -2.0392 0
M  V30 3757 H 368.506 0.324649 -0.890678 0
M  V30 3758 H 368.212 1.74304 -3.05469 0
M  V30 3759 H 368.086 3.17103 -2.04268 0
M  V30 3760 H 370.473 2.71196 -1.16347 0
M  V30 3761 H 370.554 1.2877 -2.21025 0
M  V30 3762 H 370.198 2.78991 -4.24413 0
M  V30 3763 H 370.128 4.20722 -3.16703 0
M  V30 3764 H 372.619 2.75921 -2.58217 0
M  V30 3765 H 372.932 5.19679 -5.71974 0
M  V30 3766 H 371.277 4.67875 -5.13924 0
M  V30 3767 H 374.468 3.35967 -3.2595 0
M  V30 3768 H 374.641 4.47139 -4.6901 0
M  V30 3769 N 368.047 0.979072 1.23499 0
M  V30 3770 C 369.458 0.684391 1.73704 0
M  V30 3771 C 369.809 -0.799448 1.79174 0
M  V30 3772 O 368.934 -1.62531 1.42873 0
M  V30 3773 C 369.529 1.23564 3.15464 0
M  V30 3774 C 368.088 0.99063 3.6313 0
M  V30 3775 C 367.235 1.36416 2.41425 0
M  V30 3776 H 370.186 1.15307 1.09041 0
M  V30 3777 H 370.207 0.607417 3.7562 0
M  V30 3778 H 369.719 2.31561 3.1145 0
M  V30 3779 H 367.82 -0.0733136 3.72528 0
M  V30 3780 H 367.933 1.64427 4.5 0
M  V30 3781 H 366.297 0.782616 2.42378 0
M  V30 3782 H 367.08 2.45387 2.40083 0
M  V30 3783 N 369.525 -1.3858 0.750561 0
M  V30 3784 C 370.941 -1.53759 0.427824 0
M  V30 3785 C 371.141 -1.71401 -1.05943 0
M  V30 3786 O 370.197 -1.72331 -1.84549 0
M  V30 3787 C 371.51 -2.74642 1.22443 0
M  V30 3788 C 373.058 -2.88489 1.2142 0
M  V30 3789 C 373.533 -4.12329 1.9937 0
M  V30 3790 N 375.024 -4.194 1.96616 0
M  V30 3791 C 375.759 -5.14209 2.53727 0
M  V30 3792 N 375.255 -6.14709 3.19539 0
M  V30 3793 N 377.048 -5.06537 2.43673 0
M  V30 3794 H 369.199 -1.25377 1.71447 0
M  V30 3795 H 371.462 -0.608844 0.726645 0
M  V30 3796 H 371.168 -2.68 2.27747 0
M  V30 3797 H 371.042 -3.67745 0.839273 0
M  V30 3798 H 373.429 -2.94614 0.169232 0
M  V30 3799 H 373.51 -1.96406 1.63885 0
M  V30 3800 H 373.154 -4.06966 3.03877 0
M  V30 3801 H 373.084 -5.03486 1.54302 0
M  V30 3802 H 375.575 -3.47421 1.48684 0
M  V30 3803 H 375.888 -6.8354 3.60545 0
M  V30 3804 H 374.233 -6.1505 3.23633 0
M  V30 3805 H 377.424 -4.26962 1.91889 0
M  V30 3806 H 377.597 -5.80245 2.88479 0
M  V30 3807 N 371.003 -0.499398 -1.49478 0
M  V30 3808 C 371.936 0.326491 -2.25852 0
M  V30 3809 C 372.914 0.971776 -1.30366 0
M  V30 3810 O 374.098 1.00219 -1.59651 0
M  V30 3811 C 371.225 1.45969 -3.05632 0
M  V30 3812 C 370.271 0.928938 -4.16261 0
M  V30 3813 S 371.104 -0.179012 -5.35201 0
M  V30 3814 C 372.26 0.957389 -6.18534 0
M  V30 3815 H 372.493 -0.321746 -2.95554 0
M  V30 3816 H 370.026 -0.284674 -1.51753 0
M  V30 3817 H 371.984 2.109 -3.52181 0
M  V30 3818 H 370.645 2.07953 -2.35402 0
M  V30 3819 H 369.838 1.77813 -4.71592 0
M  V30 3820 H 369.44 0.356869 -3.72293 0
M  V30 3821 H 371.732 1.86296 -6.51383 0
M  V30 3822 H 372.675 0.442733 -7.06715 0
M  V30 3823 H 373.083 1.224 -5.5107 0
M  V30 3824 N 372.481 1.55866 -0.233164 0
M  V30 3825 C 373.729 1.9821 0.394593 0
M  V30 3826 C 374.05 1.12234 1.59463 0
M  V30 3827 O 373.32 0.201981 1.94856 0
M  V30 3828 H 371.9 0.732034 0.148778 0
M  V30 3829 H 374.562 1.92107 -0.32876 0
M  V30 3830 H 373.658 3.03845 0.713063 0
M  V30 3831 N 373.959 -0.0401083 1.57549 0
M  V30 3832 C 374.892 -1.07689 2.01192 0
M  V30 3833 C 375.87 -1.358 0.894273 0
M  V30 3834 O 377.054 -1.48642 1.15921 0
M  V30 3835 C 374.181 -2.41418 2.3756 0
M  V30 3836 C 373.227 -2.29237 3.59656 0
M  V30 3837 S 374.06 -1.65628 5.09242 0
M  V30 3838 C 375.216 -3.0087 5.48843 0
M  V30 3839 H 375.449 -0.705108 2.88817 0
M  V30 3840 H 372.982 -0.249724 1.52367 0
M  V30 3841 H 374.94 -3.18329 2.59186 0
M  V30 3842 H 373.601 -2.75747 1.50407 0
M  V30 3843 H 372.794 -3.27932 3.82722 0
M  V30 3844 H 372.396 -1.60469 3.37825 0
M  V30 3845 H 374.688 -3.97201 5.48851 0
M  V30 3846 H 375.631 -2.82549 6.49286 0
M  V30 3847 H 376.039 -3.02934 4.76331 0
M  V30 3848 N 375.437 -1.54477 -0.31217 0
M  V30 3849 C 376.853 -1.45442 -0.657185 0
M  V30 3850 C 377.053 -0.63653 -1.91182 0
M  V30 3851 O 376.109 -0.139815 -2.52113 0
M  V30 3852 C 377.422 -2.89287 -0.82058 0
M  V30 3853 C 378.97 -2.9926 -0.917188 0
M  V30 3854 C 379.445 -4.44279 -1.11267 0
M  V30 3855 N 380.936 -4.4794 -1.17914 0
M  V30 3856 C 381.671 -5.57318 -1.34848 0
M  V30 3857 N 381.167 -6.76642 -1.48752 0
M  V30 3858 N 382.96 -5.44986 -1.37647 0
M  V30 3859 H 375.111 -2.06129 0.512313 0
M  V30 3860 H 377.374 -0.933088 0.167485 0
M  V30 3861 H 377.08 -3.51687 0.0302604 0
M  V30 3862 H 376.954 -3.36061 -1.71298 0
M  V30 3863 H 379.341 -2.36981 -1.75852 0
M  V30 3864 H 379.422 -2.558 -0.00101257 0
M  V30 3865 H 379.066 -5.07149 -0.27614 0
M  V30 3866 H 378.996 -4.85359 -2.04289 0
M  V30 3867 H 381.487 -3.61969 -1.08567 0
M  V30 3868 H 381.8 -7.55758 -1.61397 0
M  V30 3869 H 380.145 -6.79529 -1.45828 0
M  V30 3870 H 383.336 -4.50715 -1.26388 0
M  V30 3871 H 383.509 -6.3028 -1.50501 0
M  V30 3872 N 376.915 0.57481 -1.46744 0
M  V30 3873 C 378.163 1.33009 -1.52161 0
M  V30 3874 C 378.484 1.94185 -0.178092 0
M  V30 3875 O 377.754 1.7899 0.796196 0
M  V30 3876 H 376.334 0.493873 -0.560445 0
M  V30 3877 H 378.996 0.672589 -1.82927 0
M  V30 3878 H 378.092 2.13273 -2.27862 0
M  V30 3879 N 378.394 1.34581 0.820102 0
M  V30 3880 C 379.64 1.27285 1.57881 0
M  V30 3881 C 379.973 -0.156137 1.93571 0
M  V30 3882 O 379.248 -1.10222 1.60254 0
M  V30 3883 C 379.531 2.16639 2.87645 0
M  V30 3884 C 379.384 3.68088 2.58517 0
M  V30 3885 C 380.703 2.05378 3.8924 0
M  V30 3886 H 377.822 0.463714 0.572833 0
M  V30 3887 H 380.464 1.64859 0.944539 0
M  V30 3888 H 378.614 1.84725 3.41773 0
M  V30 3889 H 380.286 4.10382 2.10676 0
M  V30 3890 H 378.529 3.89038 1.91917 0
M  V30 3891 H 379.2 4.2598 3.51063 0
M  V30 3892 H 381.676 2.33404 3.44473 0
M  V30 3893 H 380.552 2.7012 4.77835 0
M  V30 3894 H 380.813 1.0316 4.29896 0
M  V30 3895 N 379.872 -1.04064 1.18357 0
M  V30 3896 C 381.097 -1.81454 1.00445 0
M  V30 3897 C 381.522 -1.82823 -0.442423 0
M  V30 3898 O 380.88 -1.24555 -1.31741 0
M  V30 3899 C 380.928 -3.24925 1.56384 0
M  V30 3900 O 380.032 -4.04856 0.785209 0
M  V30 3901 H 379.373 -0.560604 0.355835 0
M  V30 3902 H 381.903 -1.31059 1.57114 0
M  V30 3903 H 381.913 -3.75702 1.59097 0
M  V30 3904 H 380.588 -3.23244 2.61699 0
M  V30 3905 H 379.165 -3.63537 0.830399 0
M  V30 3906 N 381.35 -0.985608 -1.22978 0
M  V30 3907 C 382.578 -0.675582 -1.95559 0
M  V30 3908 C 382.993 0.758413 -1.72897 0
M  V30 3909 O 382.35 1.51094 -1.02357 0
M  V30 3910 C 382.401 -0.96293 -3.48439 0
M  V30 3911 O 382.122 -2.34057 -3.70336 0
M  V30 3912 C 383.623 -0.669585 -4.38214 0
M  V30 3913 H 380.843 -0.250523 -0.622478 0
M  V30 3914 H 383.387 -1.3184 -1.56328 0
M  V30 3915 H 381.542 -0.366033 -3.85667 0
M  V30 3916 H 381.956 -2.43424 -4.64591 0
M  V30 3917 H 383.43 -0.920967 -5.44263 0
M  V30 3918 H 383.907 0.396383 -4.37408 0
M  V30 3919 H 384.513 -1.2472 -4.06602 0
M  V30 3920 N 382.828 1.3818 -0.7579 0
M  V30 3921 C 383.776 2.32277 -0.122482 0
M  V30 3922 C 384.77 1.54238 0.700505 0
M  V30 3923 O 385.976 1.69737 0.599119 0
M  V30 3924 H 382.351 0.751712 -0.0208143 0
M  V30 3925 H 384.322 2.83469 -0.932099 0
M  V30 3926 C 383.071 3.39447 0.753076 0
M  V30 3927 H 382.394 3.99591 0.129184 0
M  V30 3928 H 383.834 4.07684 1.16489 0
M  V30 3929 C 382.293 2.78375 1.8976 0
M  V30 3930 O 382.823 2.68025 2.99208 0
M  V30 3931 N 381.029 2.36121 1.69397 0
M  V30 3932 H 380.576 2.4474 0.803762 0
M  V30 3933 H 380.534 1.95602 2.46145 0
M  V30 3934 N 384.306 0.507319 1.49211 0
M  V30 3935 C 385.554 -0.0348839 2.0207 0
M  V30 3936 C 385.875 -1.36898 1.38866 0
M  V30 3937 O 385.145 -1.88133 0.546151 0
M  V30 3938 H 383.725 -0.0158812 0.746831 0
M  V30 3939 H 386.387 0.665998 1.83168 0
M  V30 3940 H 385.483 -0.159917 3.1169 0
M  V30 3941 N 385.784 -1.5574 0.241426 0
M  V30 3942 C 387.032 -1.98417 -0.384075 0
M  V30 3943 C 387.353 -1.13078 -1.58866 0
M  V30 3944 O 386.623 -0.212312 -1.94746 0
M  V30 3945 H 385.203 -0.732813 -0.144894 0
M  V30 3946 H 387.865 -1.9193 0.338943 0
M  V30 3947 H 386.961 -3.04219 -0.696939 0
M  V30 3948 N 387.262 0.0317525 -1.57568 0
M  V30 3949 C 388.21 1.05165 -2.07468 0
M  V30 3950 C 389.204 1.3761 -0.98792 0
M  V30 3951 O 390.41 1.36546 -1.17282 0
M  V30 3952 H 386.785 0.35666 -0.66204 0
M  V30 3953 H 388.756 0.604958 -2.92203 0
M  V30 3954 C 387.505 2.34488 -2.56731 0
M  V30 3955 H 386.828 2.10383 -3.39969 0
M  V30 3956 H 388.268 3.04203 -2.95358 0
M  V30 3957 C 386.727 3.03266 -1.46736 0
M  V30 3958 O 387.257 3.92988 -0.832069 0
M  V30 3959 N 385.463 2.6455 -1.20256 0
M  V30 3960 H 385.01 1.91674 -1.72102 0
M  V30 3961 H 384.968 3.10886 -0.468737 0
M  V30 3962 N 388.74 1.54641 0.303973 0
M  V30 3963 C 390.017 1.64455 1.05896 0
M  V30 3964 C 390.397 0.490923 2.05312 0
M  V30 3965 O 389.745 -0.512685 2.22674 0
M  V30 3966 C 389.955 3.02331 1.74347 0
M  V30 3967 C 391.303 3.59045 2.26653 0
M  V30 3968 O 392.327 3.04764 1.84384 0
M  V30 3969 O 391.186 4.54081 3.04093 0
M  V30 3970 H 388.28 0.666729 0.489287 0
M  V30 3971 H 390.826 1.66986 0.302298 0
M  V30 3972 H 389.598 3.77734 1.02142 0
M  V30 3973 H 389.221 3.03565 2.56777 0
M  V30 3974 N 390.218 -0.567019 1.47046 0
M  V30 3975 C 391.181 -1.65696 1.58359 0
M  V30 3976 C 392.181 -1.54097 0.459441 0
M  V30 3977 O 393.371 -1.58432 0.724225 0
M  V30 3978 C 390.503 -3.05197 1.51879 0
M  V30 3979 H 391.696 -1.57019 2.5551 0
M  V30 3980 H 389.249 -0.786148 1.3509 0
M  V30 3981 H 389.984 -3.19417 0.560673 0
M  V30 3982 H 389.769 -3.15025 2.33455 0
M  V30 3983 H 391.259 -3.84511 1.62913 0
M  V30 3984 N 391.696 -1.35014 -0.812953 0
M  V30 3985 C 392.944 -1.27678 -1.56661 0
M  V30 3986 C 393.265 0.150359 -1.94419 0
M  V30 3987 O 392.535 1.08532 -1.63088 0
M  V30 3988 H 391.115 -0.469602 -0.580933 0
M  V30 3989 H 393.777 -1.69043 -0.970076 0
M  V30 3990 H 392.873 -1.88833 -2.48492 0
M  V30 3991 N 393.175 1.03435 -1.18907 0
M  V30 3992 C 394.4 1.80919 -1.01406 0
M  V30 3993 C 394.825 1.83055 0.432721 0
M  V30 3994 O 394.183 1.25252 1.31079 0
M  V30 3995 C 394.231 3.24091 -1.58105 0
M  V30 3996 O 393.335 4.04434 -0.806669 0
M  V30 3997 H 392.676 0.558709 -0.358803 0
M  V30 3998 H 395.206 1.30223 -1.57807 0
M  V30 3999 H 395.216 3.74853 -1.61087 0
M  V30 4000 H 393.891 3.21851 -2.6341 0
M  V30 4001 H 392.468 3.63091 -0.849666 0
M  V30 4002 N 394.653 0.992116 1.22453 0
M  V30 4003 C 395.601 0.534644 2.26372 0
M  V30 4004 C 396.595 -0.414293 1.64256 0
M  V30 4005 O 397.801 -0.286899 1.77699 0
M  V30 4006 H 394.176 0.154502 0.735957 0
M  V30 4007 H 396.147 1.42256 2.62309 0
M  V30 4008 C 394.896 -0.135815 3.47435 0
M  V30 4009 H 394.219 0.585311 3.95492 0
M  V30 4010 H 395.659 -0.419374 4.21921 0
M  V30 4011 C 394.118 -1.37089 3.07747 0
M  V30 4012 O 394.648 -2.46629 3.17076 0
M  V30 4013 N 392.854 -1.24585 2.62539 0
M  V30 4014 H 392.401 -0.354542 2.55149 0
M  V30 4015 H 392.359 -2.07327 2.36353 0
M  V30 4016 N 396.131 -1.37776 0.765217 0
M  V30 4017 C 397.379 -1.99454 0.325943 0
M  V30 4018 C 397.7 -1.61049 -1.09947 0
M  V30 4019 O 396.97 -0.872821 -1.75381 0
M  V30 4020 H 395.55 -0.737697 0.117525 0
M  V30 4021 H 398.212 -1.68359 0.981895 0
M  V30 4022 H 397.308 -3.09547 0.398353 0
M  V30 4023 N 397.609 -0.515225 -1.4894 0
M  V30 4024 C 398.557 0.269115 -2.31038 0
M  V30 4025 C 399.551 0.949443 -1.40292 0
M  V30 4026 O 400.757 0.87551 -1.57273 0
M  V30 4027 H 397.132 0.10565 -0.744542 0
M  V30 4028 H 399.103 -0.443096 -2.95092 0
M  V30 4029 C 397.852 1.31213 -3.21991 0
M  V30 4030 H 397.175 0.798034 -3.91754 0
M  V30 4031 H 398.615 1.83263 -3.82349 0
M  V30 4032 C 397.074 2.33791 -2.42576 0
M  V30 4033 O 397.604 3.3995 -2.14003 0
M  V30 4034 N 395.81 2.06625 -2.0434 0
M  V30 4035 H 395.357 1.20314 -2.27777 0
M  V30 4036 H 395.315 2.75483 -1.51514 0
M  V30 4037 N 399.087 1.5561 -0.249682 0
M  V30 4038 C 400.503 1.59254 0.105103 0
M  V30 4039 C 400.703 1.26685 1.56694 0
M  V30 4040 O 399.759 1.0155 2.31179 0
M  V30 4041 C 401.072 2.99687 -0.246592 0
M  V30 4042 C 402.62 3.12416 -0.191118 0
M  V30 4043 C 403.095 4.55074 -0.516885 0
M  V30 4044 N 404.586 4.60835 -0.467489 0
M  V30 4045 C 405.321 5.69201 -0.69268 0
M  V30 4046 N 404.817 6.85817 -0.981146 0
M  V30 4047 N 406.61 5.58635 -0.623198 0
M  V30 4048 H 398.761 1.75049 -1.20298 0
M  V30 4049 H 401.024 0.815003 -0.484225 0
M  V30 4050 H 400.73 3.28267 -1.26228 0
M  V30 4051 H 400.604 3.74798 0.424962 0
M  V30 4052 H 402.991 2.83615 0.815247 0
M  V30 4053 H 403.072 2.39573 -0.896563 0
M  V30 4054 H 402.716 4.84596 -1.52082 0
M  V30 4055 H 402.646 5.26181 0.210068 0
M  V30 4056 H 405.137 3.7705 -0.253373 0
M  V30 4057 H 405.45 7.64341 -1.14032 0
M  V30 4058 H 403.795 6.87494 -1.01865 0
M  V30 4059 H 406.986 4.66406 -0.397863 0
M  V30 4060 H 407.159 6.43017 -0.802093 0
M  V30 4061 N 400.565 -0.0233959 1.57583 0
M  V30 4062 C 401.813 -0.711654 1.89156 0
M  V30 4063 C 402.134 -1.75591 0.848096 0
M  V30 4064 O 401.404 -1.95547 -0.117566 0
M  V30 4065 H 399.984 -0.265835 0.698098 0
M  V30 4066 H 402.646 0.0119948 1.94896 0
M  V30 4067 H 401.742 -1.19766 2.88206 0
M  V30 4068 N 402.043 -1.548 -0.295768 0
M  V30 4069 C 402.973 -1.89115 -1.36959 0
M  V30 4070 C 403.954 -0.75059 -1.52644 0
M  V30 4071 O 405.139 -1.00678 -1.66065 0
M  V30 4072 C 402.269 -2.14307 -2.73295 0
M  V30 4073 C 401.223 -3.30151 -2.72368 0
M  V30 4074 C 400.549 -3.40772 -4.12042 0
M  V30 4075 C 401.849 -4.67126 -2.33646 0
M  V30 4076 H 403.543 -2.79053 -1.08488 0
M  V30 4077 H 401.089 -1.34266 -0.520443 0
M  V30 4078 H 403.042 -2.36898 -3.48507 0
M  V30 4079 H 401.766 -1.21145 -3.03301 0
M  V30 4080 H 400.425 -3.0749 -1.99613 0
M  V30 4081 H 400.073 -2.45117 -4.39234 0
M  V30 4082 H 399.773 -4.18645 -4.12322 0
M  V30 4083 H 401.297 -3.6563 -4.89027 0
M  V30 4084 H 402.711 -4.89414 -2.98575 0
M  V30 4085 H 401.108 -5.47751 -2.45129 0
M  V30 4086 H 402.178 -4.67489 -1.28772 0
M  V30 4087 N 403.521 0.559213 -1.47345 0
M  V30 4088 C 404.768 1.31648 -1.53867 0
M  V30 4089 C 405.096 1.93468 -0.200104 0
M  V30 4090 O 404.351 1.78295 0.806799 0
M  V30 4091 C 404.65 2.44853 -2.6035 0
M  V30 4092 C 404.316 2.00876 -4.03683 0
M  V30 4093 C 402.978 1.88599 -4.42701 0
M  V30 4094 C 405.33 1.67279 -4.93626 0
M  V30 4095 C 402.658 1.41017 -5.69501 0
M  V30 4096 C 405.01 1.21169 -6.20887 0
M  V30 4097 C 403.674 1.07487 -6.58789 0
M  V30 4098 H 402.944 0.481734 -0.56304 0
M  V30 4099 H 405.591 0.627301 -1.80934 0
M  V30 4100 H 403.896 3.19318 -2.27032 0
M  V30 4101 H 405.593 3.03039 -2.62619 0
M  V30 4102 H 402.183 2.11374 -3.72853 0
M  V30 4103 H 406.367 1.75638 -4.64182 0
M  V30 4104 H 401.623 1.29086 -5.97618 0
M  V30 4105 H 405.797 0.942345 -6.89995 0
M  V30 4106 H 403.424 0.703946 -7.56934 0
M  V30 4107 N 404.999 1.35443 0.805782 0
M  V30 4108 C 406.247 1.28507 1.55982 0
M  V30 4109 C 406.568 -0.140046 1.94496 0
M  V30 4110 O 405.838 -1.07666 1.63661 0
M  V30 4111 H 404.418 0.472676 0.578434 0
M  V30 4112 H 407.08 1.69555 0.961098 0
M  V30 4113 H 406.176 1.90148 2.47488 0
M  V30 4114 N 406.477 -1.02803 1.19454 0
M  V30 4115 C 407.725 -1.75869 0.995722 0
M  V30 4116 C 408.046 -1.89138 -0.474543 0
M  V30 4117 O 407.316 -1.42558 -1.34366 0
M  V30 4118 H 405.896 -0.651511 0.365435 0
M  V30 4119 H 408.558 -1.24004 1.50363 0
M  V30 4120 H 407.654 -2.76661 1.44447 0
M  V30 4121 N 407.956 -0.998596 -1.21925 0
M  V30 4122 C 409.181 -0.696015 -1.95372 0
M  V30 4123 C 409.606 0.733826 -1.73195 0
M  V30 4124 O 408.964 1.50242 -1.01474 0
M  V30 4125 C 409.012 -1.01466 -3.4603 0
M  V30 4126 O 408.116 -0.116415 -4.12236 0
M  V30 4127 H 407.457 -0.259938 -0.611006 0
M  V30 4128 H 409.987 -1.33711 -1.54863 0
M  V30 4129 H 409.997 -0.958855 -3.96573 0
M  V30 4130 H 408.672 -2.05653 -3.61497 0
M  V30 4131 H 407.249 -0.228193 -3.72201 0
M  V30 4132 N 409.434 1.37368 -0.772513 0
M  V30 4133 C 410.659 2.0447 -0.347386 0
M  V30 4134 C 411.084 1.57882 1.0225 0
M  V30 4135 O 410.442 0.73941 1.65537 0
M  V30 4136 C 410.49 3.58369 -0.400479 0
M  V30 4137 O 409.594 4.0803 0.598789 0
M  V30 4138 H 408.935 0.646773 -0.15027 0
M  V30 4139 H 411.465 1.75667 -1.04892 0
M  V30 4140 H 411.475 4.07183 -0.258045 0
M  V30 4141 H 410.15 3.91633 -1.39986 0
M  V30 4142 H 408.727 3.70534 0.419411 0
M  V30 4143 N 410.912 0.523116 1.48665 0
M  V30 4144 C 411.875 -0.232592 2.28017 0
M  V30 4145 C 412.875 -0.874021 1.34972 0
M  V30 4146 O 414.065 -0.735132 1.57929 0
M  V30 4147 C 411.197 -1.33586 3.13636 0
M  V30 4148 H 412.39 0.464008 2.96289 0
M  V30 4149 H 409.943 0.278816 1.53793 0
M  V30 4150 H 410.678 -2.06593 2.4998 0
M  V30 4151 H 410.463 -0.881125 3.82071 0
M  V30 4152 H 411.953 -1.86759 3.73511 0
M  V30 4153 N 412.39 -1.55475 0.257931 0
M  V30 4154 C 413.636 -1.99502 -0.364266 0
M  V30 4155 C 413.969 -1.146 -1.56782 0
M  V30 4156 O 413.244 -0.211968 -1.93342 0
M  V30 4157 C 413.527 -3.51917 -0.763333 0
M  V30 4158 C 413.38 -4.4758 0.446371 0
M  V30 4159 C 414.699 -4.09742 -1.60623 0
M  V30 4160 H 411.818 -0.725277 -0.130929 0
M  V30 4161 H 414.46 -1.8653 0.361446 0
M  V30 4162 H 412.61 -3.63101 -1.38166 0
M  V30 4163 H 414.282 -4.48362 1.08487 0
M  V30 4164 H 412.525 -4.19947 1.08753 0
M  V30 4165 H 413.196 -5.51862 0.123645 0
M  V30 4166 H 415.672 -4.01727 -1.08418 0
M  V30 4167 H 414.548 -5.16631 -1.85429 0
M  V30 4168 H 414.809 -3.58889 -2.58169 0
M  V30 4169 N 413.868 0.0150385 -1.57593 0
M  V30 4170 C 414.778 1.02791 -2.10882 0
M  V30 4171 C 415.794 1.38702 -1.0506 0
M  V30 4172 O 416.97 1.47739 -1.36877 0
M  V30 4173 C 414.035 2.30568 -2.58919 0
M  V30 4174 C 413.096 2.01108 -3.79281 0
M  V30 4175 C 412.329 3.22794 -4.25018 0
M  V30 4176 O 412.552 4.33959 -3.70183 0
M  V30 4177 O 411.486 3.07672 -5.17322 0
M  V30 4178 H 415.312 0.604973 -2.97613 0
M  V30 4179 H 412.897 0.23292 -1.47573 0
M  V30 4180 H 414.779 3.05662 -2.90084 0
M  V30 4181 H 413.454 2.72129 -1.75293 0
M  V30 4182 H 412.361 1.23537 -3.53114 0
M  V30 4183 H 413.694 1.64394 -4.63935 0
M  V30 4184 N 415.346 1.54954 0.287554 0
M  V30 4185 C 416.594 1.74528 1.01904 0
M  V30 4186 C 416.915 0.541349 1.87335 0
M  V30 4187 O 416.185 -0.444108 1.908 0
M  V30 4188 H 414.765 0.643576 0.379235 0
M  V30 4189 H 417.427 1.92333 0.315294 0
M  V30 4190 H 416.523 2.64015 1.6644 0
M  V30 4191 N 416.824 -0.551391 1.4764 0
M  V30 4192 C 417.754 -1.66757 1.63445 0
M  V30 4193 C 418.735 -1.63077 0.483742 0
M  V30 4194 O 419.92 -1.80607 0.71377 0
M  V30 4195 C 417.05 -3.05387 1.65396 0
M  V30 4196 C 416.004 -3.23918 2.79752 0
M  V30 4197 C 415.33 -4.63393 2.66779 0
M  V30 4198 C 416.63 -3.08735 4.21284 0
M  V30 4199 H 418.324 -1.53786 2.56886 0
M  V30 4200 H 415.87 -0.738415 1.23626 0
M  V30 4201 H 417.823 -3.83325 1.75043 0
M  V30 4202 H 416.547 -3.19332 0.685195 0
M  V30 4203 H 415.206 -2.48391 2.69625 0
M  V30 4204 H 414.854 -4.74144 1.67918 0
M  V30 4205 H 414.554 -4.7674 3.43501 0
M  V30 4206 H 416.078 -5.43458 2.78364 0
M  V30 4207 H 417.492 -3.76484 4.32357 0
M  V30 4208 H 415.889 -3.33588 4.98838 0
M  V30 4209 H 416.959 -2.0541 4.39243 0
M  V30 4210 N 418.302 -1.35869 -0.798587 0
M  V30 4211 C 419.548 -1.30788 -1.55775 0
M  V30 4212 C 419.903 0.114558 -1.92059 0
M  V30 4213 O 419.196 1.06691 -1.59147 0
M  V30 4214 C 419.39 -2.1556 -2.85077 0
M  V30 4215 C 419.219 -3.65904 -2.61428 0
M  V30 4216 C 417.989 -4.35112 -2.56915 0
M  V30 4217 C 420.187 -4.59375 -2.31255 0
M  V30 4218 N 418.169 -5.71155 -2.25068 0
M  V30 4219 C 419.54 -5.83598 -2.09316 0
M  V30 4220 C 421.595 -4.48035 -2.17185 0
M  V30 4221 C 420.298 -6.97755 -1.74731 0
M  V30 4222 C 422.324 -5.62049 -1.83998 0
M  V30 4223 C 421.686 -6.85305 -1.629 0
M  V30 4224 H 417.785 -0.533855 -0.571422 0
M  V30 4225 H 420.369 -1.7083 -0.934079 0
M  V30 4226 H 418.54 -1.77776 -3.45326 0
M  V30 4227 H 420.272 -2.01938 -3.50718 0
M  V30 4228 H 417.027 -3.87812 -2.71843 0
M  V30 4229 H 417.451 -6.42978 -2.11916 0
M  V30 4230 H 422.093 -3.53338 -2.3219 0
M  V30 4231 H 419.811 -7.92411 -1.58464 0
M  V30 4232 H 423.397 -5.55232 -1.73808 0
M  V30 4233 H 422.277 -7.72034 -1.37596 0
M  V30 4234 N 419.78 1.02168 -1.19998 0
M  V30 4235 C 420.727 2.10601 -0.944228 0
M  V30 4236 C 421.697 1.65639 0.123664 0
M  V30 4237 O 422.882 1.9079 -0.0199941 0
M  V30 4238 C 420.022 3.41504 -0.496865 0
M  V30 4239 C 419.135 3.99973 -1.63234 0
M  V30 4240 C 418.27 5.18915 -1.13579 0
M  V30 4241 C 417.309 5.69456 -2.24468 0
M  V30 4242 N 416.446 6.79665 -1.76068 0
M  V30 4243 H 421.286 2.31814 -1.8726 0
M  V30 4244 H 418.823 1.13686 -0.933483 0
M  V30 4245 H 420.781 4.16626 -0.218843 0
M  V30 4246 H 419.411 3.2038 0.394508 0
M  V30 4247 H 418.463 3.21997 -2.0254 0
M  V30 4248 H 419.775 4.33492 -2.46752 0
M  V30 4249 H 418.929 6.01222 -0.813429 0
M  V30 4250 H 417.668 4.8695 -0.270434 0
M  V30 4251 H 416.673 4.85757 -2.57526 0
M  V30 4252 H 417.898 6.03459 -3.11472 0
M  V30 4253 H 415.844 6.49538 -0.918516 0
M  V30 4254 H 415.761 7.12349 -2.5317 0
M  V30 4255 H 417.029 7.65549 -1.46817 0
M  V30 4256 N 421.258 1.00505 1.21394 0
M  V30 4257 C 422.535 0.603277 1.86064 0
M  V30 4258 C 422.915 -0.919095 1.90042 0
M  V30 4259 O 422.263 -1.80607 1.39977 0
M  V30 4260 C 422.473 1.23772 3.26315 0
M  V30 4261 C 423.821 1.34586 4.02705 0
M  V30 4262 O 424.845 1.19304 3.35626 0
M  V30 4263 O 423.704 1.59169 5.22807 0
M  V30 4264 H 420.798 0.206634 0.800769 0
M  V30 4265 H 423.344 1.1017 1.29076 0
M  V30 4266 H 422.116 2.27848 3.18121 0
M  V30 4267 H 421.739 0.725648 3.90922 0
M  V30 4268 N 422.737 -1.36956 0.779787 0
M  V30 4269 C 424.014 -1.93697 0.272156 0
M  V30 4270 C 424.394 -1.71267 -1.23413 0
M  V30 4271 O 423.742 -1.06607 -2.02107 0
M  V30 4272 C 423.952 -3.42812 0.654291 0
M  V30 4273 C 425.3 -4.19921 0.628602 0
M  V30 4274 O 426.324 -3.51209 0.594172 0
M  V30 4275 O 425.183 -5.42465 0.662864 0
M  V30 4276 H 422.277 -0.824447 0.0649286 0
M  V30 4277 H 424.823 -1.46196 0.861682 0
M  V30 4278 H 423.595 -3.52754 1.69353 0
M  V30 4279 H 423.218 -3.97582 0.0381369 0
M  V30 4280 N 424.215 -0.530993 -1.48385 0
M  V30 4281 C 425.44 0.000729535 -2.074 0
M  V30 4282 C 425.865 1.27298 -1.3848 0
M  V30 4283 O 425.223 1.75599 -0.451081 0
M  V30 4284 C 425.271 0.206697 -3.60007 0
M  V30 4285 O 424.375 1.27514 -3.92191 0
M  V30 4286 H 423.716 -0.039583 -0.662819 0
M  V30 4287 H 426.246 -0.739194 -1.9078 0
M  V30 4288 H 426.256 0.42904 -4.05738 0
M  V30 4289 H 424.931 -0.722675 -4.09573 0
M  V30 4290 H 423.508 1.03537 -3.58238 0
M  V30 4291 N 425.693 1.55336 -0.266172 0
M  V30 4292 C 426.939 1.99692 0.353681 0
M  V30 4293 C 427.272 1.1543 1.56172 0
M  V30 4294 O 426.547 0.222218 1.93226 0
M  V30 4295 C 426.83 3.52316 0.74466 0
M  V30 4296 C 426.683 4.47337 -0.470101 0
M  V30 4297 C 428.002 4.10588 1.58447 0
M  V30 4298 H 425.121 0.725961 0.12708 0
M  V30 4299 H 427.763 1.86336 -0.371333 0
M  V30 4300 H 425.913 3.63829 1.36239 0
M  V30 4301 H 427.585 4.4778 -1.10864 0
M  V30 4302 H 425.828 4.19364 -1.10978 0
M  V30 4303 H 426.499 5.51788 -0.15291 0
M  V30 4304 H 428.975 4.02297 1.06286 0
M  V30 4305 H 427.851 5.17607 1.82686 0
M  V30 4306 H 428.112 3.60253 2.56262 0
M  V30 4307 N 427.171 -0.0066808 1.57599 0
M  V30 4308 C 428.417 -0.68835 1.91398 0
M  V30 4309 C 428.772 -1.7175 0.86716 0
M  V30 4310 O 428.065 -1.91215 -0.121475 0
M  V30 4311 C 428.259 -1.37939 3.29708 0
M  V30 4312 C 428.088 -0.418689 4.47747 0
M  V30 4313 C 426.858 -0.031526 5.0529 0
M  V30 4314 C 429.056 0.312301 5.13351 0
M  V30 4315 N 427.038 0.928088 6.06844 0
M  V30 4316 C 428.409 1.12682 6.09674 0
M  V30 4317 C 430.464 0.376853 4.96472 0
M  V30 4318 C 429.167 2 6.90936 0
M  V30 4319 C 431.193 1.23723 5.78314 0
M  V30 4320 C 430.555 2.03962 6.74225 0
M  V30 4321 H 426.654 -0.225292 0.748844 0
M  V30 4322 H 429.238 0.0520973 1.9463 0
M  V30 4323 H 427.409 -2.09017 3.27363 0
M  V30 4324 H 429.141 -2.01522 3.50957 0
M  V30 4325 H 425.896 -0.398485 4.71921 0
M  V30 4326 H 426.32 1.40307 6.62301 0
M  V30 4327 H 430.962 -0.22921 4.22178 0
M  V30 4328 H 428.68 2.61676 7.64559 0
M  V30 4329 H 432.266 1.291 5.67296 0
M  V30 4330 H 431.146 2.69461 7.36451 0
M  V30 4331 N 428.649 -1.55105 -0.279332 0
M  V30 4332 C 429.897 -1.75066 -1.00977 0
M  V30 4333 C 430.218 -0.551276 -1.87045 0
M  V30 4334 O 429.488 0.433984 -1.91032 0
M  V30 4335 H 428.068 -0.645578 -0.375816 0
M  V30 4336 H 430.73 -1.92497 -0.305089 0
M  V30 4337 H 429.826 -2.64894 -1.65038 0
M  V30 4338 N 430.127 0.543554 -1.4793 0
M  V30 4339 C 431.057 1.65888 -1.64327 0
M  V30 4340 C 432.038 1.62818 -0.492383 0
M  V30 4341 O 433.223 1.80226 -0.723338 0
M  V30 4342 C 430.353 3.04506 -1.67013 0
M  V30 4343 C 429.307 3.2243 -2.81466 0
M  V30 4344 C 428.633 4.61972 -2.69233 0
M  V30 4345 C 429.933 3.06496 -4.22915 0
M  V30 4346 H 431.627 1.52421 -2.57698 0
M  V30 4347 H 429.173 0.731849 -1.24016 0
M  V30 4348 H 431.126 3.82391 -1.77074 0
M  V30 4349 H 429.85 3.18964 -0.70212 0
M  V30 4350 H 428.509 2.46957 -2.70938 0
M  V30 4351 H 428.157 4.73247 -1.7043 0
M  V30 4352 H 427.857 4.74911 -3.46025 0
M  V30 4353 H 429.381 5.41974 -2.81242 0
M  V30 4354 H 430.795 3.74186 -4.34348 0
M  V30 4355 H 429.192 3.30938 -5.006 0
M  V30 4356 H 430.262 2.03077 -4.40327 0
M  V30 4357 N 431.605 1.3629 0.791371 0
M  V30 4358 C 432.515 1.32606 1.93527 0
M  V30 4359 C 433.531 0.228541 1.72493 0
M  V30 4360 O 434.707 0.460571 1.96063 0
M  V30 4361 C 431.772 1.11271 3.28359 0
M  V30 4362 C 430.833 2.3048 3.62185 0
M  V30 4363 C 430.066 2.10154 4.90583 0
M  V30 4364 O 430.289 1.07572 5.60165 0
M  V30 4365 O 429.223 2.97884 5.23019 0
M  V30 4366 H 433.049 2.28909 1.99585 0
M  V30 4367 H 430.634 1.16818 0.931344 0
M  V30 4368 H 432.516 1.01283 4.09047 0
M  V30 4369 H 431.191 0.180292 3.23198 0
M  V30 4370 H 430.098 2.46036 2.81811 0
M  V30 4371 H 431.431 3.22221 3.72068 0
M  V30 4372 N 433.083 -1.0153 1.20538 0
M  V30 4373 C 434.331 -1.74803 1.01432 0
M  V30 4374 C 434.652 -1.8963 -0.454456 0
M  V30 4375 O 433.922 -1.43975 -1.32846 0
M  V30 4376 H 432.502 -0.647598 0.372324 0
M  V30 4377 H 435.164 -1.22402 1.5167 0
M  V30 4378 H 434.26 -2.75114 1.47373 0
M  V30 4379 N 434.561 -1.01147 -1.20859 0
M  V30 4380 C 435.524 -0.582224 -2.21682 0
M  V30 4381 C 436.524 0.344887 -1.57058 0
M  V30 4382 O 437.714 0.134281 -1.73682 0
M  V30 4383 C 434.846 0.150496 -3.40568 0
M  V30 4384 H 436.039 -1.47408 -2.61172 0
M  V30 4385 H 433.592 -0.800695 -1.34233 0
M  V30 4386 H 434.327 1.0575 -3.06574 0
M  V30 4387 H 434.112 -0.515444 -3.88697 0
M  V30 4388 H 435.602 0.438344 -4.15293 0
M  V30 4389 N 436.039 1.36541 -0.78704 0
M  V30 4390 C 437.285 2.00044 -0.367938 0
M  V30 4391 C 437.64 1.61345 1.04812 0
M  V30 4392 O 436.933 0.856936 1.71368 0
M  V30 4393 C 437.127 3.54343 -0.466485 0
M  V30 4394 C 436.956 4.08029 -1.89058 0
M  V30 4395 C 435.726 4.38284 -2.51466 0
M  V30 4396 C 437.924 4.27954 -2.85236 0
M  V30 4397 N 435.906 4.77778 -3.85488 0
M  V30 4398 C 437.277 4.70227 -4.04088 0
M  V30 4399 C 439.332 4.10119 -2.82324 0
M  V30 4400 C 438.035 4.96532 -5.20432 0
M  V30 4401 C 440.061 4.37569 -3.97854 0
M  V30 4402 C 439.423 4.80095 -5.15449 0
M  V30 4403 H 435.522 0.760525 -0.182004 0
M  V30 4404 H 438.106 1.65589 -1.02413 0
M  V30 4405 H 436.277 3.88072 0.159606 0
M  V30 4406 H 438.009 4.04693 -0.0238577 0
M  V30 4407 H 434.764 4.27905 -2.02965 0
M  V30 4408 H 435.188 5.01813 -4.54437 0
M  V30 4409 H 439.83 3.76399 -1.92571 0
M  V30 4410 H 437.548 5.29134 -6.10773 0
M  V30 4411 H 441.134 4.25341 -3.96958 0
M  V30 4412 H 440.014 5.00925 -6.0336 0
M  V30 4413 N 437.518 0.538854 1.48102 0
M  V30 4414 C 438.481 -0.208395 2.28251 0
M  V30 4415 C 439.481 -0.859656 1.35892 0
M  V30 4416 O 440.671 -0.71834 1.58699 0
M  V30 4417 C 437.803 -1.30252 3.15035 0
M  V30 4418 H 438.996 0.495407 2.9578 0
M  V30 4419 H 436.549 0.295112 1.53489 0
M  V30 4420 H 437.284 -2.0393 2.52157 0
M  V30 4421 H 437.069 -0.840551 3.82985 0
M  V30 4422 H 438.559 -1.82787 3.75471 0
M  V30 4423 N 438.996 -1.55193 0.274407 0
M  V30 4424 C 439.926 -2.25471 -0.607032 0
M  V30 4425 C 440.907 -1.24461 -1.15946 0
M  V30 4426 O 442.092 -1.53179 -1.19373 0
M  V30 4427 C 439.222 -2.97526 -1.79153 0
M  V30 4428 C 438.176 -4.05459 -1.37067 0
M  V30 4429 C 437.502 -4.65084 -2.6382 0
M  V30 4430 C 438.802 -5.19691 -0.521389 0
M  V30 4431 H 440.496 -2.99393 -0.0209343 0
M  V30 4432 H 438.042 -1.43997 -0.00862866 0
M  V30 4433 H 439.995 -3.45402 -2.41404 0
M  V30 4434 H 438.719 -2.21138 -2.40344 0
M  V30 4435 H 437.378 -3.58393 -0.771355 0
M  V30 4436 H 437.026 -3.85365 -3.23268 0
M  V30 4437 H 436.726 -5.37961 -2.36372 0
M  V30 4438 H 438.25 -5.15708 -3.26921 0
M  V30 4439 H 439.664 -5.63623 -1.04889 0
M  V30 4440 H 438.061 -5.99126 -0.341825 0
M  V30 4441 H 439.131 -4.82713 0.46 0
M  V30 4442 N 440.474 -0.00167713 -1.576 0
M  V30 4443 C 441.722 0.681471 -1.90264 0
M  V30 4444 C 442.043 1.7422 -0.875924 0
M  V30 4445 O 441.313 1.95709 0.0864412 0
M  V30 4446 H 439.893 0.254696 -0.702239 0
M  V30 4447 H 442.555 -0.0429996 -1.94853 0
M  V30 4448 H 441.651 1.15166 -2.90075 0
M  V30 4449 N 441.952 1.55251 0.271103 0
M  V30 4450 C 442.915 1.87484 1.31842 0
M  V30 4451 C 443.915 0.749545 1.42262 0
M  V30 4452 O 445.105 1.01771 1.4138 0
M  V30 4453 C 442.237 2.0818 2.69951 0
M  V30 4454 H 443.43 2.81108 1.0449 0
M  V30 4455 H 440.983 1.47771 0.509258 0
M  V30 4456 H 441.718 1.16944 3.02481 0
M  V30 4457 H 441.503 2.90114 2.63774 0
M  V30 4458 H 442.993 2.34385 3.4562 0
M  V30 4459 N 443.43 -0.535701 1.48216 0
M  V30 4460 C 444.677 -1.29183 1.55942 0
M  V30 4461 C 445.005 -1.93125 0.230857 0
M  V30 4462 O 444.26 -1.79556 -0.778331 0
M  V30 4463 C 444.559 -2.4068 2.64212 0
M  V30 4464 C 444.225 -1.94428 4.06827 0
M  V30 4465 C 442.887 -1.81532 4.45645 0
M  V30 4466 C 445.239 -1.59405 4.96225 0
M  V30 4467 C 442.567 -1.31939 5.71672 0
M  V30 4468 C 444.919 -1.11276 6.22736 0
M  V30 4469 C 443.583 -0.969924 6.60416 0
M  V30 4470 H 442.853 -0.472715 0.570632 0
M  V30 4471 H 445.5 -0.598437 1.81909 0
M  V30 4472 H 443.805 -3.15666 2.32083 0
M  V30 4473 H 445.502 -2.98822 2.67407 0
M  V30 4474 H 442.092 -2.05415 3.76168 0
M  V30 4475 H 446.276 -1.68231 4.66917 0
M  V30 4476 H 441.532 -1.19562 5.99596 0
M  V30 4477 H 445.706 -0.832453 6.91407 0
M  V30 4478 H 443.333 -0.583436 7.57958 0
M  V30 4479 N 444.908 -1.36708 -0.784132 0
M  V30 4480 C 446.133 -1.34565 -1.5782 0
M  V30 4481 C 446.558 0.0695257 -1.87971 0
M  V30 4482 O 445.916 1.04302 -1.48293 0
M  V30 4483 C 445.964 -2.17952 -2.87279 0
M  V30 4484 O 445.068 -1.57563 -3.81114 0
M  V30 4485 H 444.409 -0.460337 -0.478524 0
M  V30 4486 H 446.939 -1.80064 -0.971495 0
M  V30 4487 H 446.949 -2.30721 -3.365 0
M  V30 4488 H 445.624 -3.20823 -2.64661 0
M  V30 4489 H 444.201 -1.53764 -3.39722 0
M  V30 4490 N 446.386 1.0089 -1.21074 0
M  V30 4491 C 447.349 2.0775 -0.968129 0
M  V30 4492 C 448.349 1.6069 0.0593445 0
M  V30 4493 O 449.539 1.73293 -0.177525 0
M  V30 4494 C 446.671 3.37794 -0.459108 0
M  V30 4495 H 447.864 2.30707 -1.9161 0
M  V30 4496 H 445.417 1.17807 -1.02719 0
M  V30 4497 H 446.152 3.20516 0.49397 0
M  V30 4498 H 445.937 3.7328 -1.20019 0
M  V30 4499 H 447.427 4.16454 -0.309099 0
M  V30 4500 N 447.864 1.01787 1.20321 0
M  V30 4501 C 448.796 0.547357 2.22568 0
M  V30 4502 C 449.809 -0.370922 1.58518 0
M  V30 4503 O 450.998 -0.169067 1.77698 0
M  V30 4504 C 448.098 -0.223031 3.38165 0
M  V30 4505 C 447.271 0.697472 4.31803 0
M  V30 4506 C 446.33 -0.025562 5.26194 0
M  V30 4507 O 445.356 0.597367 5.66057 0
M  V30 4508 N 446.558 -1.29999 5.65757 0
M  V30 4509 H 449.323 1.42668 2.63564 0
M  V30 4510 H 446.884 0.895552 1.34876 0
M  V30 4511 H 448.876 -0.716002 3.98316 0
M  V30 4512 H 447.446 -1.00366 2.9605 0
M  V30 4513 H 446.666 1.37073 3.69601 0
M  V30 4514 H 447.954 1.32347 4.91286 0
M  V30 4515 H 447.352 -1.827 5.35385 0
M  V30 4516 H 445.909 -1.73766 6.28211 0
M  V30 4517 N 449.342 -1.36122 0.79427 0
M  V30 4518 C 450.305 -2.28309 0.201889 0
M  V30 4519 C 451.305 -1.49041 -0.603603 0
M  V30 4520 O 452.495 -1.68964 -0.423888 0
M  V30 4521 C 449.627 -3.3321 -0.719978 0
M  V30 4522 H 450.82 -2.82208 1.01481 0
M  V30 4523 H 448.373 -1.45768 0.564037 0
M  V30 4524 H 449.108 -2.84475 -1.55706 0
M  V30 4525 H 448.893 -3.91835 -0.144266 0
M  V30 4526 H 450.383 -4.02044 -1.12916 0
M  V30 4527 N 450.82 -0.546701 -1.47814 0
M  V30 4528 C 451.73 0.21026 -2.33656 0
M  V30 4529 C 452.746 0.922413 -1.47538 0
M  V30 4530 O 453.922 0.893652 -1.80488 0
M  V30 4531 C 450.987 1.23348 -3.24016 0
M  V30 4532 C 450.048 0.529883 -4.26017 0
M  V30 4533 C 449.281 1.50435 -5.12059 0
M  V30 4534 O 449.504 2.73837 -5.00369 0
M  V30 4535 O 448.438 1.03459 -5.92942 0
M  V30 4536 H 452.264 -0.493605 -2.99662 0
M  V30 4537 H 449.849 -0.307427 -1.46203 0
M  V30 4538 H 451.731 1.82438 -3.79861 0
M  V30 4539 H 450.406 1.91945 -2.60651 0
M  V30 4540 H 449.313 -0.101948 -3.73961 0
M  V30 4541 H 450.646 -0.11445 -4.92067 0
M  V30 4542 N 452.299 1.55045 -0.282633 0
M  V30 4543 C 453.529 2.03872 0.334635 0
M  V30 4544 C 453.937 1.16018 1.49454 0
M  V30 4545 O 453.28 0.174449 1.8287 0
M  V30 4546 C 453.342 3.48791 0.870905 0
M  V30 4547 C 453.006 4.56715 -0.161338 0
M  V30 4548 C 454.003 5.10513 -0.983466 0
M  V30 4549 C 451.688 5.01417 -0.297745 0
M  V30 4550 C 453.682 6.07538 -1.92811 0
M  V30 4551 C 451.369 5.98265 -1.24586 0
M  V30 4552 C 452.367 6.51208 -2.05954 0
M  V30 4553 O 452.055 7.46162 -2.99162 0
M  V30 4554 H 451.787 0.671324 0.0793742 0
M  V30 4555 H 454.341 2.01169 -0.41473 0
M  V30 4556 H 452.571 3.48758 1.67047 0
M  V30 4557 H 454.26 3.80916 1.40207 0
M  V30 4558 H 455.026 4.76785 -0.888856 0
M  V30 4559 H 450.905 4.59849 0.325604 0
M  V30 4560 H 454.449 6.48787 -2.56363 0
M  V30 4561 H 450.346 6.31412 -1.34126 0
M  V30 4562 H 451.114 7.63903 -2.93929 0
M  V30 4563 N 453.777 0.010035 1.57597 0
M  V30 4564 C 454.707 -0.976857 2.12084 0
M  V30 4565 C 455.688 -1.35191 1.03235 0
M  V30 4566 O 456.873 -1.43389 1.3097 0
M  V30 4567 C 454.003 -2.26548 2.63236 0
M  V30 4568 C 452.957 -2.03175 3.76701 0
M  V30 4569 C 452.283 -3.38138 4.14206 0
M  V30 4570 C 453.583 -1.38625 5.03568 0
M  V30 4571 H 455.277 -0.523145 2.94794 0
M  V30 4572 H 452.823 -0.250195 1.4181 0
M  V30 4573 H 454.776 -2.95952 2.99984 0
M  V30 4574 H 453.5 -2.74051 1.77661 0
M  V30 4575 H 452.159 -1.36195 3.40362 0
M  V30 4576 H 451.807 -3.83363 3.25641 0
M  V30 4577 H 451.507 -3.23312 4.90656 0
M  V30 4578 H 453.031 -4.08841 4.53521 0
M  V30 4579 H 454.445 -1.98 5.38023 0
M  V30 4580 H 452.842 -1.34256 5.84889 0
M  V30 4581 H 453.912 -0.356722 4.83586 0
M  V30 4582 N 455.255 -1.55392 -0.262866 0
M  V30 4583 C 456.671 -1.47459 -0.610582 0
M  V30 4584 C 456.871 -0.697031 -1.8906 0
M  V30 4585 O 455.927 -0.219952 -2.5154 0
M  V30 4586 C 457.24 -2.91751 -0.728131 0
M  V30 4587 C 458.788 -3.02027 -0.821517 0
M  V30 4588 C 459.263 -4.47594 -0.97076 0
M  V30 4589 N 460.754 -4.51465 -1.03603 0
M  V30 4590 C 461.489 -5.61326 -1.17049 0
M  V30 4591 N 460.985 -6.81032 -1.2715 0
M  V30 4592 N 462.778 -5.49089 -1.20239 0
M  V30 4593 H 454.929 -2.04395 0.577632 0
M  V30 4594 H 457.192 -0.927287 0.197086 0
M  V30 4595 H 456.898 -3.51413 0.142132 0
M  V30 4596 H 456.772 -3.4134 -1.6052 0
M  V30 4597 H 459.159 -2.42456 -1.68224 0
M  V30 4598 H 459.24 -2.55674 0.0803688 0
M  V30 4599 H 458.884 -5.07771 -0.114655 0
M  V30 4600 H 458.814 -4.91613 -1.88745 0
M  V30 4601 H 461.305 -3.6524 -0.96996 0
M  V30 4602 H 461.618 -7.60511 -1.37271 0
M  V30 4603 H 459.963 -6.83824 -1.24136 0
M  V30 4604 H 463.154 -4.54507 -1.11985 0
M  V30 4605 H 463.327 -6.34749 -1.30373 0
M  V30 4606 N 456.733 0.527833 -1.48498 0
M  V30 4607 C 458.149 0.856571 -1.34666 0
M  V30 4608 C 458.349 1.98271 -0.35931 0
M  V30 4609 O 457.405 2.51551 0.218703 0
M  V30 4610 C 458.718 1.22207 -2.74747 0
M  V30 4611 C 460.266 1.33183 -2.83251 0
M  V30 4612 C 460.741 1.73075 -4.24039 0
M  V30 4613 N 462.232 1.80174 -4.26722 0
M  V30 4614 C 462.967 2.1243 -5.32598 0
M  V30 4615 N 462.463 2.43096 -6.4875 0
M  V30 4616 N 464.256 2.13454 -5.19994 0
M  V30 4617 H 456.407 -0.215174 -2.11307 0
M  V30 4618 H 458.67 -0.0336281 -0.947403 0
M  V30 4619 H 458.376 0.468195 -3.4857 0
M  V30 4620 H 458.25 2.17173 -3.08409 0
M  V30 4621 H 460.637 2.07647 -2.09683 0
M  V30 4622 H 460.718 0.363333 -2.53206 0
M  V30 4623 H 460.362 0.991712 -4.98124 0
M  V30 4624 H 460.292 2.70979 -4.51529 0
M  V30 4625 H 462.783 1.58744 -3.42942 0
M  V30 4626 H 463.096 2.6682 -7.25277 0
M  V30 4627 H 461.441 2.40611 -6.52021 0
M  V30 4628 H 464.632 1.88956 -4.28268 0
M  V30 4629 H 464.805 2.38261 -6.02608 0
M  V30 4630 N 458.211 1.37122 0.776871 0
M  V30 4631 C 459.439 1.3523 1.5659 0
M  V30 4632 C 459.854 -0.0635518 1.88693 0
M  V30 4633 O 459.211 -1.02394 1.51069 0
M  V30 4634 C 459.262 2.18583 2.8793 0
M  V30 4635 O 458.983 3.5465 2.57206 0
M  V30 4636 C 460.484 2.24612 3.82183 0
M  V30 4637 H 457.704 0.4634 0.485285 0
M  V30 4638 H 460.248 1.80392 0.963266 0
M  V30 4639 H 458.403 1.76943 3.4463 0
M  V30 4640 H 458.817 3.98286 3.41275 0
M  V30 4641 H 460.291 2.87267 4.71361 0
M  V30 4642 H 460.768 1.25309 4.20944 0
M  V30 4643 H 461.374 2.66543 3.31414 0
M  V30 4644 N 459.689 -1.00246 1.21608 0
M  V30 4645 C 460.935 -1.74319 1.03638 0
M  V30 4646 C 461.268 -1.89408 -0.428749 0
M  V30 4647 O 460.543 -1.43026 -1.3181 0
M  V30 4648 C 460.826 -3.15431 1.73711 0
M  V30 4649 C 460.679 -3.08049 3.27759 0
M  V30 4650 C 461.998 -4.14407 1.48173 0
M  V30 4651 H 459.117 -0.632741 0.377899 0
M  V30 4652 H 461.759 -1.16853 1.49818 0
M  V30 4653 H 459.909 -3.64493 1.34452 0
M  V30 4654 H 461.581 -2.66681 3.76403 0
M  V30 4655 H 459.824 -2.45088 3.57931 0
M  V30 4656 H 460.495 -4.07862 3.71958 0
M  V30 4657 H 462.971 -3.74061 1.82258 0
M  V30 4658 H 461.847 -5.11279 1.99713 0
M  V30 4659 H 462.108 -4.40174 0.412273 0
M  V30 4660 N 461.167 -1.02423 -1.1978 0
M  V30 4661 C 462.114 -0.601023 -2.22837 0
M  V30 4662 C 463.084 0.382801 -1.61629 0
M  V30 4663 O 464.269 0.280514 -1.88727 0
M  V30 4664 C 461.409 0.0467755 -3.45068 0
M  V30 4665 C 460.522 -0.98253 -4.20678 0
M  V30 4666 C 459.657 -0.304982 -5.30324 0
M  V30 4667 C 458.696 -1.32052 -5.97686 0
M  V30 4668 N 457.833 -0.669105 -6.98904 0
M  V30 4669 H 462.673 -1.48444 -2.58396 0
M  V30 4670 H 460.21 -0.742936 -1.2696 0
M  V30 4671 H 462.168 0.439556 -4.14878 0
M  V30 4672 H 460.798 0.893796 -3.10179 0
M  V30 4673 H 459.85 -1.49341 -3.49859 0
M  V30 4674 H 461.162 -1.75455 -4.66923 0
M  V30 4675 H 460.316 0.142893 -6.06532 0
M  V30 4676 H 459.055 0.499283 -4.85138 0
M  V30 4677 H 458.06 -1.7787 -5.20233 0
M  V30 4678 H 459.285 -2.1262 -6.44957 0
M  V30 4679 H 457.231 0.115152 -6.55899 0
M  V30 4680 H 457.148 -1.37908 -7.43315 0
M  V30 4681 H 458.416 -0.245076 -7.79115 0
M  V30 4682 N 462.645 1.35699 -0.801477 0
M  V30 4683 C 463.608 2.28199 -0.213994 0
M  V30 4684 C 464.608 1.49359 0.595691 0
M  V30 4685 O 465.798 1.69186 0.414921 0
M  V30 4686 C 462.93 3.33587 0.702297 0
M  V30 4687 H 464.123 2.81666 -1.02976 0
M  V30 4688 H 461.676 1.45467 -0.571759 0
M  V30 4689 H 462.411 2.85297 1.54195 0
M  V30 4690 H 462.196 3.91906 0.123484 0
M  V30 4691 H 463.686 4.02638 1.10783 0
M  V30 4692 N 464.123 0.554532 1.47522 0
M  V30 4693 C 465.033 -0.197865 2.33764 0
M  V30 4694 C 466.049 -0.914576 1.48025 0
M  V30 4695 O 467.225 -0.884067 1.80959 0
M  V30 4696 C 464.29 -1.21628 3.24665 0
M  V30 4697 C 463.351 -0.507283 4.26292 0
M  V30 4698 C 462.584 -1.47718 5.1285 0
M  V30 4699 O 462.807 -2.7118 5.01814 0
M  V30 4700 O 461.741 -1.00313 5.93482 0
M  V30 4701 H 465.567 0.50949 2.99396 0
M  V30 4702 H 463.152 0.315176 1.46038 0
M  V30 4703 H 465.034 -1.80421 3.80823 0
M  V30 4704 H 463.709 -1.9056 2.61665 0
M  V30 4705 H 462.616 0.121778 3.73902 0
M  V30 4706 H 463.949 0.140544 4.91999 0
M  V30 4707 N 465.601 -1.54893 0.290851 0
M  V30 4708 C 467.017 -1.59476 -0.0628432 0
M  V30 4709 C 467.217 -1.30795 -1.5328 0
M  V30 4710 O 466.273 -1.07644 -2.28406 0
M  V30 4711 C 467.586 -2.98928 0.325962 0
M  V30 4712 C 469.134 -3.11799 0.273882 0
M  V30 4713 C 469.609 -4.53544 0.637359 0
M  V30 4714 N 471.1 -4.59433 0.589507 0
M  V30 4715 C 471.835 -5.67164 0.84335 0
M  V30 4716 N 471.331 -6.82975 1.16263 0
M  V30 4717 N 473.124 -5.56786 0.771091 0
M  V30 4718 H 465.275 -1.71798 1.24896 0
M  V30 4719 H 467.538 -0.801879 0.505663 0
M  V30 4720 H 467.244 -3.24805 1.34887 0
M  V30 4721 H 467.118 -3.75793 -0.325441 0
M  V30 4722 H 469.505 -2.85677 -0.739765 0
M  V30 4723 H 469.586 -2.37112 0.959766 0
M  V30 4724 H 469.23 -4.80394 1.64877 0
M  V30 4725 H 469.16 -5.26553 -0.0704866 0
M  V30 4726 H 471.651 -3.76245 0.353252 0
M  V30 4727 H 471.964 -7.61048 1.34257 0
M  V30 4728 H 470.309 -6.84552 1.20057 0
M  V30 4729 H 473.5 -4.65187 0.521383 0
M  V30 4730 H 473.673 -6.40664 0.972295 0
M  V30 4731 N 467.08 -0.0183926 -1.57589 0
M  V30 4732 C 468.357 0.700621 -1.82622 0
M  V30 4733 C 468.737 1.90951 -0.90005 0
M  V30 4734 O 468.085 2.28452 0.0469145 0
M  V30 4735 C 468.295 1.08899 -3.31575 0
M  V30 4736 C 469.643 1.48514 -3.9778 0
M  V30 4737 O 470.667 1.18227 -3.36007 0
M  V30 4738 O 469.526 2.04903 -5.06633 0
M  V30 4739 H 466.62 0.342743 -0.752633 0
M  V30 4740 H 469.166 -0.0452548 -1.6964 0
M  V30 4741 H 467.938 0.228113 -3.90635 0
M  V30 4742 H 467.561 1.89338 -3.49624 0
M  V30 4743 N 468.558 1.5553 0.254621 0
M  V30 4744 C 469.974 1.4778 0.602753 0
M  V30 4745 C 470.174 0.707047 1.88688 0
M  V30 4746 O 469.23 0.233288 2.5142 0
M  V30 4747 C 470.543 2.92133 0.712648 0
M  V30 4748 C 472.091 3.02458 0.805488 0
M  V30 4749 C 472.566 4.48102 0.947009 0
M  V30 4750 N 474.057 4.52008 1.01207 0
M  V30 4751 C 474.792 5.61939 1.1407 0
M  V30 4752 N 474.288 6.81697 1.23536 0
M  V30 4753 N 476.081 5.49719 1.17325 0
M  V30 4754 H 468.232 2.04085 -0.588463 0
M  V30 4755 H 470.495 0.926229 -0.202001 0
M  V30 4756 H 470.201 3.51332 -0.160766 0
M  V30 4757 H 470.075 3.42187 1.58707 0
M  V30 4758 H 472.462 2.43344 1.66936 0
M  V30 4759 H 472.543 2.55627 -0.0939266 0
M  V30 4760 H 472.187 5.07824 0.087725 0
M  V30 4761 H 472.117 4.92607 1.86135 0
M  V30 4762 H 474.608 3.65749 0.950577 0
M  V30 4763 H 474.921 7.61228 1.33236 0
M  V30 4764 H 473.266 6.84473 1.20508 0
M  V30 4765 H 476.457 4.55095 1.09573 0
M  V30 4766 H 476.63 6.35432 1.27005 0
M  V30 4767 N 470.036 -0.519951 1.48776 0
M  V30 4768 C 470.946 -1.65025 1.66745 0
M  V30 4769 C 471.962 -1.6508 0.549954 0
M  V30 4770 O 473.138 -1.83848 0.822295 0
M  V30 4771 C 470.203 -3.0146 1.71238 0
M  V30 4772 C 469.264 -3.12182 2.94688 0
M  V30 4773 C 468.497 -4.42109 2.98958 0
M  V30 4774 O 468.72 -5.29799 2.1135 0
M  V30 4775 O 467.654 -4.57406 3.91233 0
M  V30 4776 H 471.48 -1.52801 2.62461 0
M  V30 4777 H 469.065 -0.694157 1.32294 0
M  V30 4778 H 470.947 -3.82584 1.76657 0
M  V30 4779 H 469.622 -3.13988 0.786975 0
M  V30 4780 H 468.529 -2.30316 2.94797 0
M  V30 4781 H 469.862 -3.04574 3.86646 0
M  V30 4782 N 471.514 -1.37532 -0.769588 0
M  V30 4783 C 472.791 -1.23392 -1.51768 0
M  V30 4784 C 473.171 0.17157 -2.10402 0
M  V30 4785 O 472.519 1.17943 -1.95708 0
M  V30 4786 C 472.729 -2.33163 -2.59685 0
M  V30 4787 C 474.077 -2.70809 -3.27028 0
M  V30 4788 O 475.101 -2.32355 -2.69981 0
M  V30 4789 O 473.96 -3.37066 -4.30173 0
M  V30 4790 H 471.054 -0.481617 -0.67229 0
M  V30 4791 H 473.6 -1.49318 -0.806368 0
M  V30 4792 H 472.372 -3.27273 -2.14494 0
M  V30 4793 H 471.995 -2.08713 -3.38415 0
M  V30 4794 N 472.992 0.995999 -1.22138 0
M  V30 4795 C 473.922 2.10387 -1.01289 0
M  V30 4796 C 474.903 1.69975 0.0651454 0
M  V30 4797 O 476.088 1.9396 -0.0964628 0
M  V30 4798 C 473.218 3.42312 -0.586517 0
M  V30 4799 C 472.172 3.96558 -1.61014 0
M  V30 4800 C 471.498 5.24494 -1.0397 0
M  V30 4801 C 472.798 4.27595 -2.99933 0
M  V30 4802 H 474.492 2.28086 -1.93951 0
M  V30 4803 H 472.038 1.09607 -0.933928 0
M  V30 4804 H 473.991 4.19223 -0.427793 0
M  V30 4805 H 472.715 3.24431 0.375761 0
M  V30 4806 H 471.374 3.21776 -1.75658 0
M  V30 4807 H 471.022 5.02953 -0.0688703 0
M  V30 4808 H 470.722 5.61755 -1.72352 0
M  V30 4809 H 472.246 6.04042 -0.892494 0
M  V30 4810 H 473.66 4.95315 -2.8868 0
M  V30 4811 H 472.057 4.76021 -3.6541 0
M  V30 4812 H 473.127 3.35498 -3.50099 0
M  V30 4813 N 474.47 1.03057 1.19235 0
M  V30 4814 C 475.417 0.612832 2.22515 0
M  V30 4815 C 476.387 -0.374224 1.61829 0
M  V30 4816 O 477.572 -0.270501 1.88873 0
M  V30 4817 C 474.712 -0.028475 3.45088 0
M  V30 4818 C 473.825 1.00483 4.20151 0
M  V30 4819 C 472.96 0.333102 5.30155 0
M  V30 4820 C 471.999 1.3522 5.96977 0
M  V30 4821 N 471.136 0.70616 6.9854 0
M  V30 4822 H 475.976 1.49812 2.57605 0
M  V30 4823 H 473.513 0.749658 1.26564 0
M  V30 4824 H 475.471 -0.417548 4.15105 0
M  V30 4825 H 474.101 -0.877334 3.10649 0
M  V30 4826 H 473.153 1.51194 3.49062 0
M  V30 4827 H 474.465 1.77929 4.65986 0
M  V30 4828 H 473.619 -0.110725 6.06599 0
M  V30 4829 H 472.358 -0.473547 4.85396 0
M  V30 4830 H 471.363 1.80627 5.19282 0
M  V30 4831 H 472.588 2.16037 6.4382 0
M  V30 4832 H 470.534 -0.0803667 6.55951 0
M  V30 4833 H 470.451 1.41848 7.42573 0
M  V30 4834 H 471.719 0.286391 7.78974 0
M  V30 4835 N 475.948 -1.35272 0.808662 0
M  V30 4836 C 476.911 -2.28082 0.226093 0
M  V30 4837 C 477.911 -1.49673 -0.587762 0
M  V30 4838 O 479.101 -1.69404 -0.405943 0
M  V30 4839 C 476.233 -3.33955 -0.684596 0
M  V30 4840 H 477.426 -2.81116 1.04469 0
M  V30 4841 H 474.979 -1.45162 0.579466 0
M  V30 4842 H 475.714 -2.86111 -1.5268 0
M  V30 4843 H 475.499 -3.91965 -0.102699 0
M  V30 4844 H 476.989 -4.03219 -1.08646 0
M  V30 4845 N 477.426 -0.562348 -1.47226 0
M  V30 4846 C 478.651 -0.0432632 -2.07355 0
M  V30 4847 C 479.076 1.24332 -1.41149 0
M  V30 4848 O 478.434 1.74603 -0.488226 0
M  V30 4849 C 478.482 0.130288 -3.60365 0
M  V30 4850 O 477.586 1.19166 -3.94808 0
M  V30 4851 H 476.927 -0.0536334 -0.66183 0
M  V30 4852 H 479.457 -0.779495 -1.89169 0
M  V30 4853 H 479.467 0.342881 -4.06557 0
M  V30 4854 H 478.142 -0.809389 -4.07948 0
M  V30 4855 H 476.719 0.959153 -3.60354 0
M  V30 4856 N 478.904 1.54736 -0.299062 0
M  V30 4857 C 480.152 1.99706 0.31017 0
M  V30 4858 C 480.473 1.18896 1.54559 0
M  V30 4859 O 479.743 0.284445 1.93824 0
M  V30 4860 H 478.323 0.737686 0.117596 0
M  V30 4861 H 480.985 1.9054 -0.409943 0
M  V30 4862 H 480.081 3.06596 0.58355 0
M  V30 4863 N 480.382 0.0267497 1.57577 0
M  V30 4864 C 481.612 -0.6617 1.95717 0
M  V30 4865 C 482.02 -1.66331 0.901706 0
M  V30 4866 O 481.363 -1.83273 -0.125241 0
M  V30 4867 C 481.425 -1.42649 3.29987 0
M  V30 4868 C 481.089 -0.583482 4.5326 0
M  V30 4869 C 482.086 0.140221 5.19711 0
M  V30 4870 C 479.771 -0.521581 4.99585 0
M  V30 4871 C 481.765 0.914523 6.30805 0
M  V30 4872 C 479.452 0.256428 6.10562 0
M  V30 4873 C 480.45 0.973189 6.76031 0
M  V30 4874 O 480.138 1.73845 7.84878 0
M  V30 4875 H 479.87 -0.187483 0.649481 0
M  V30 4876 H 482.424 0.0820847 2.05236 0
M  V30 4877 H 480.654 -2.21536 3.16952 0
M  V30 4878 H 482.343 -2.00282 3.53047 0
M  V30 4879 H 483.109 0.101716 4.84893 0
M  V30 4880 H 478.988 -1.06904 4.48433 0
M  V30 4881 H 482.532 1.4745 6.81839 0
M  V30 4882 H 478.429 0.296657 6.44818 0
M  V30 4883 H 479.197 1.65797 8.01532 0
M  V30 4884 N 481.861 -1.55662 -0.24637 0
M  V30 4885 C 483.091 -1.81312 -0.990438 0
M  V30 4886 C 483.499 -0.600234 -1.79426 0
M  V30 4887 O 482.842 0.440537 -1.78339 0
M  V30 4888 C 482.904 -3.0032 -1.97607 0
M  V30 4889 C 482.568 -4.36322 -1.35912 0
M  V30 4890 C 483.565 -5.14295 -0.761348 0
M  V30 4891 C 481.25 -4.83019 -1.37833 0
M  V30 4892 C 483.244 -6.37114 -0.190998 0
M  V30 4893 C 480.931 -6.05786 -0.804128 0
M  V30 4894 C 481.929 -6.82672 -0.211489 0
M  V30 4895 O 481.617 -8.03121 0.353845 0
M  V30 4896 H 481.349 -0.607233 -0.297058 0
M  V30 4897 H 483.903 -2.0356 -0.274351 0
M  V30 4898 H 482.133 -2.73829 -2.73047 0
M  V30 4899 H 483.822 -3.13057 -2.58361 0
M  V30 4900 H 484.588 -4.79337 -0.739013 0
M  V30 4901 H 480.467 -4.23165 -1.829 0
M  V30 4902 H 484.011 -6.97069 0.272206 0
M  V30 4903 H 479.908 -6.40222 -0.823792 0
M  V30 4904 H 480.676 -8.18131 0.245761 0
M  V30 4905 N 483.339 0.512053 -1.4905 0
M  V30 4906 C 484.302 1.59704 -1.64399 0
M  V30 4907 C 485.302 1.52285 -0.516317 0
M  V30 4908 O 486.492 1.55635 -0.782527 0
M  V30 4909 C 483.624 2.9935 -1.63102 0
M  V30 4910 H 484.817 1.47428 -2.61161 0
M  V30 4911 H 482.37 0.735469 -1.37915 0
M  V30 4912 H 483.105 3.17116 -0.678836 0
M  V30 4913 H 482.89 3.06144 -2.44986 0
M  V30 4914 H 484.38 3.782 -1.77072 0
M  V30 4915 N 484.817 1.37938 0.762283 0
M  V30 4916 C 485.749 1.30349 1.88525 0
M  V30 4917 C 486.762 0.217402 1.61342 0
M  V30 4918 O 487.951 0.474291 1.72084 0
M  V30 4919 C 485.051 0.994844 3.23969 0
M  V30 4920 C 484.224 2.18829 3.78725 0
M  V30 4921 C 483.283 1.84844 4.92665 0
M  V30 4922 O 482.309 2.57244 5.07754 0
M  V30 4923 N 483.511 0.798201 5.74986 0
M  V30 4924 H 486.276 2.27114 1.95549 0
M  V30 4925 H 483.837 1.31686 0.941825 0
M  V30 4926 H 485.829 0.748168 3.97724 0
M  V30 4927 H 484.399 0.115446 3.12387 0
M  V30 4928 H 483.619 2.59615 2.96637 0
M  V30 4929 H 484.907 2.98497 4.1204 0
M  V30 4930 H 484.305 0.197611 5.65355 0
M  V30 4931 H 482.862 0.611396 6.48926 0
M  V30 4932 N 486.295 -0.989507 1.22664 0
M  V30 4933 C 487.225 -2.09847 1.02404 0
M  V30 4934 C 488.206 -1.70007 -0.0561303 0
M  V30 4935 O 489.391 -1.93906 0.106748 0
M  V30 4936 C 486.521 -3.41996 0.604663 0
M  V30 4937 C 485.475 -3.95699 1.63115 0
M  V30 4938 C 484.801 -5.23936 1.0675 0
M  V30 4939 C 486.101 -4.25999 3.02196 0
M  V30 4940 H 487.795 -2.27054 1.95158 0
M  V30 4941 H 485.341 -1.09111 0.939727 0
M  V30 4942 H 487.294 -4.1899 0.45002 0
M  V30 4943 H 486.018 -3.24626 -0.35855 0
M  V30 4944 H 484.677 -3.2084 1.77362 0
M  V30 4945 H 484.325 -5.02909 0.0955422 0
M  V30 4946 H 484.025 -5.60833 1.75328 0
M  V30 4947 H 485.549 -6.0356 0.924516 0
M  V30 4948 H 486.963 -4.93777 2.91303 0
M  V30 4949 H 485.36 -4.74076 3.67929 0
M  V30 4950 H 486.43 -3.33636 3.51873 0
M  V30 4951 N 487.773 -1.03688 -1.18687 0
M  V30 4952 C 488.736 -0.629115 -2.20397 0
M  V30 4953 C 489.736 0.311495 -1.57754 0
M  V30 4954 O 490.926 0.0974107 -1.73927 0
M  V30 4955 C 488.058 0.0782231 -3.4081 0
M  V30 4956 H 489.251 -1.52915 -2.57987 0
M  V30 4957 H 486.804 -0.828988 -1.32505 0
M  V30 4958 H 487.539 0.992233 -3.08748 0
M  V30 4959 H 487.324 -0.597776 -3.87517 0
M  V30 4960 H 488.814 0.350156 -4.16129 0
M  V30 4961 N 489.251 1.34841 -0.815825 0
M  V30 4962 C 490.481 2.02436 -0.412695 0
M  V30 4963 C 490.889 1.61604 0.983906 0
M  V30 4964 O 490.232 0.813729 1.64694 0
M  V30 4965 C 490.294 3.56953 -0.427182 0
M  V30 4966 C 489.958 4.21083 -1.77589 0
M  V30 4967 C 490.955 4.42107 -2.73564 0
M  V30 4968 C 488.64 4.58006 -2.06243 0
M  V30 4969 C 490.634 4.99169 -3.9637 0
M  V30 4970 C 488.321 5.1478 -3.2931 0
M  V30 4971 C 489.319 5.35304 -4.24191 0
M  V30 4972 O 489.007 5.90878 -5.45086 0
M  V30 4973 H 488.739 0.655631 -0.164695 0
M  V30 4974 H 491.293 1.73246 -1.1034 0
M  V30 4975 H 489.523 3.85372 0.320175 0
M  V30 4976 H 491.212 4.05875 -0.0450875 0
M  V30 4977 H 491.978 4.13953 -2.52721 0
M  V30 4978 H 487.857 4.41339 -1.33196 0
M  V30 4979 H 491.401 5.15105 -4.70439 0
M  V30 4980 H 487.298 5.42362 -3.5002 0
M  V30 4981 H 488.066 6.0932 -5.46508 0
M  V30 4982 N 490.729 0.570148 1.46925 0
M  V30 4983 C 491.957 0.0561966 2.06824 0
M  V30 4984 C 492.372 -1.24326 1.42086 0
M  V30 4985 O 491.729 -1.74882 0.521794 0
M  V30 4986 C 491.78 -0.129517 3.61268 0
M  V30 4987 O 491.501 1.1185 4.23581 0
M  V30 4988 C 493.002 -0.679266 4.38065 0
M  V30 4989 H 490.222 0.0517261 0.669003 0
M  V30 4990 H 492.766 0.787243 1.8874 0
M  V30 4991 H 490.921 -0.810739 3.78822 0
M  V30 4992 H 491.335 0.924375 5.1629 0
M  V30 4993 H 492.809 -0.758445 5.46765 0
M  V30 4994 H 493.286 -1.69346 4.05239 0
M  V30 4995 H 493.892 -0.0333237 4.25287 0
M  V30 4996 N 492.207 -1.54576 0.307264 0
M  V30 4997 C 493.137 -2.26708 -0.55907 0
M  V30 4998 C 494.118 -1.26893 -1.1328 0
M  V30 4999 O 495.303 -1.55677 -1.16097 0
M  V30 5000 C 492.433 -3.01259 -1.72801 0
M  V30 5001 C 491.387 -4.08275 -1.28435 0
M  V30 5002 C 490.713 -4.70575 -2.53895 0
M  V30 5003 C 492.013 -5.2068 -0.411038 0
M  V30 5004 H 493.707 -2.9937 0.042576 0
M  V30 5005 H 491.253 -1.43983 0.0219173 0
M  V30 5006 H 493.206 -3.50444 -2.34023 0
M  V30 5007 H 491.93 -2.26187 -2.356 0
M  V30 5008 H 490.589 -3.59949 -0.695161 0
M  V30 5009 H 490.237 -3.92136 -3.15021 0
M  V30 5010 H 489.937 -5.42854 -2.24908 0
M  V30 5011 H 491.461 -5.22527 -3.15908 0
M  V30 5012 H 492.875 -5.65721 -0.929097 0
M  V30 5013 H 491.272 -5.99716 -0.214664 0
M  V30 5014 H 492.342 -4.81629 0.562287 0
M  V30 5015 N 493.685 -0.035106 -1.57561 0
M  V30 5016 C 494.913 0.652258 -1.9635 0
M  V30 5017 C 495.328 1.65317 -0.911897 0
M  V30 5018 O 494.685 1.82194 0.105657 0
M  V30 5019 C 494.736 1.35337 -3.35211 0
M  V30 5020 O 494.457 0.392548 -4.36338 0
M  V30 5021 C 495.958 2.13199 -3.88666 0
M  V30 5022 H 493.178 0.179444 -0.646561 0
M  V30 5023 H 495.722 -0.0966459 -2.04271 0
M  V30 5024 H 493.877 2.05362 -3.28489 0
M  V30 5025 H 494.291 0.891097 -5.16875 0
M  V30 5026 H 495.765 2.577 -4.88154 0
M  V30 5027 H 496.242 2.97353 -3.23231 0
M  V30 5028 H 496.848 1.48118 -3.98674 0
M  V30 5029 N 495.163 1.55791 0.238111 0
M  V30 5030 C 496.411 1.77681 0.963001 0
M  V30 5031 C 496.732 0.600674 1.85518 0
M  V30 5032 O 496.002 -0.383182 1.92116 0
M  V30 5033 H 494.582 0.655315 0.358568 0
M  V30 5034 H 497.244 1.93239 0.253945 0
M  V30 5035 H 496.34 2.69177 1.57956 0
M  V30 5036 N 496.642 -0.504142 1.49319 0
M  V30 5037 C 497.552 -1.63248 1.68486 0
M  V30 5038 C 498.568 -1.64488 0.567432 0
M  V30 5039 O 499.744 -1.82966 0.841749 0
M  V30 5040 C 496.809 -2.99627 1.74426 0
M  V30 5041 C 495.87 -3.09039 2.97982 0
M  V30 5042 C 495.103 -4.38913 3.0363 0
M  V30 5043 O 495.326 -5.27528 2.16958 0
M  V30 5044 O 494.26 -4.53231 3.96062 0
M  V30 5045 H 498.086 -1.50008 2.64067 0
M  V30 5046 H 495.671 -0.680086 1.33023 0
M  V30 5047 H 497.553 -3.80689 1.80705 0
M  V30 5048 H 496.228 -3.13136 0.820233 0
M  V30 5049 H 495.135 -2.27177 2.97223 0
M  V30 5050 H 496.468 -3.00456 3.89855 0
M  V30 5051 N 498.12 -1.38341 -0.754957 0
M  V30 5052 C 499.531 -1.30803 -1.3322 0
M  V30 5053 C 499.882 0.0368 -1.96165 0
M  V30 5054 O 499.007 0.938844 -1.94974 0
M  V30 5055 C 499.602 -2.3688 -2.42225 0
M  V30 5056 C 498.161 -2.32925 -2.95674 0
M  V30 5057 C 497.308 -2.19819 -1.69042 0
M  V30 5058 H 500.259 -1.48719 -0.553937 0
M  V30 5059 H 500.28 -2.02517 -3.22129 0
M  V30 5060 H 499.792 -3.34747 -1.96383 0
M  V30 5061 H 497.893 -1.38635 -3.45848 0
M  V30 5062 H 498.006 -3.27008 -3.50146 0
M  V30 5063 H 496.37 -1.66648 -1.92615 0
M  V30 5064 H 497.153 -3.19625 -1.25279 0
M  V30 5065 N 499.598 0.982988 -1.23187 0
M  V30 5066 C 501.014 1.2487 -0.993967 0
M  V30 5067 C 501.214 1.99155 0.306498 0
M  V30 5068 O 500.27 2.30688 1.0266 0
M  V30 5069 C 501.583 2.05078 -2.19917 0
M  V30 5070 C 503.131 2.18227 -2.2438 0
M  V30 5071 C 503.606 3.01825 -3.44479 0
M  V30 5072 N 505.097 3.09411 -3.44702 0
M  V30 5073 C 505.832 3.74412 -4.34285 0
M  V30 5074 N 505.328 4.41259 -5.341 0
M  V30 5075 N 507.121 3.71273 -4.22035 0
M  V30 5076 H 499.272 0.485253 -2.06783 0
M  V30 5077 H 501.535 0.276979 -0.906635 0
M  V30 5078 H 501.241 1.57867 -3.14279 0
M  V30 5079 H 501.115 3.05829 -2.2079 0
M  V30 5080 H 503.502 2.64648 -1.30559 0
M  V30 5081 H 503.583 1.16873 -2.2754 0
M  V30 5082 H 503.227 2.56102 -4.38605 0
M  V30 5083 H 503.157 4.03342 -3.38559 0
M  V30 5084 H 505.648 2.61845 -2.7248 0
M  V30 5085 H 505.961 4.88629 -5.98717 0
M  V30 5086 H 504.306 4.39975 -5.38002 0
M  V30 5087 H 507.497 3.18217 -3.43301 0
M  V30 5088 H 507.67 4.21649 -4.92053 0
M  V30 5089 N 501.076 1.04316 1.18135 0
M  V30 5090 C 502.006 0.657299 2.24058 0
M  V30 5091 C 502.987 -0.340678 1.66654 0
M  V30 5092 O 504.172 -0.220223 1.92947 0
M  V30 5093 C 501.302 0.0220715 3.47293 0
M  V30 5094 C 500.256 0.943857 4.17463 0
M  V30 5095 C 499.582 0.172973 5.3442 0
M  V30 5096 C 500.882 2.26409 4.70677 0
M  V30 5097 H 502.576 1.5428 2.56589 0
M  V30 5098 H 500.122 0.743263 1.23335 0
M  V30 5099 H 502.075 -0.259607 4.206 0
M  V30 5100 H 500.799 -0.898323 3.14003 0
M  V30 5101 H 499.458 1.20996 3.46057 0
M  V30 5102 H 499.106 -0.749907 4.97379 0
M  V30 5103 H 498.806 0.787098 5.82304 0
M  V30 5104 H 500.33 -0.101628 6.10515 0
M  V30 5105 H 501.744 2.04294 5.35665 0
M  V30 5106 H 500.141 2.8314 5.29105 0
M  V30 5107 H 501.211 2.90883 3.87962 0
M  V30 5108 N 502.554 -1.34406 0.822964 0
M  V30 5109 C 503.784 -2.02214 0.423424 0
M  V30 5110 C 504.192 -1.62124 -0.975322 0
M  V30 5111 O 503.535 -0.822452 -1.6426 0
M  V30 5112 C 503.597 -3.56721 0.446107 0
M  V30 5113 C 503.261 -4.20136 1.79819 0
M  V30 5114 C 504.258 -4.4065 2.75904 0
M  V30 5115 C 501.943 -4.56906 2.08669 0
M  V30 5116 C 503.937 -4.9706 3.99012 0
M  V30 5117 C 501.624 -5.13026 3.32036 0
M  V30 5118 C 502.622 -5.33047 4.27024 0
M  V30 5119 O 502.31 -5.87979 5.48211 0
M  V30 5120 H 502.042 -0.654748 0.168169 0
M  V30 5121 H 504.596 -1.72659 1.11257 0
M  V30 5122 H 502.826 -3.85537 -0.299734 0
M  V30 5123 H 504.515 -4.05845 0.0666114 0
M  V30 5124 H 505.281 -4.12607 2.54912 0
M  V30 5125 H 501.16 -4.40626 1.35535 0
M  V30 5126 H 504.704 -5.12603 4.73164 0
M  V30 5127 H 500.601 -5.40498 3.52891 0
M  V30 5128 H 501.369 -6.06413 5.49732 0
M  V30 5129 N 504.032 -0.577932 -1.46621 0
M  V30 5130 C 504.979 0.158048 -2.30258 0
M  V30 5131 C 505.949 0.888669 -1.40328 0
M  V30 5132 O 507.134 0.880283 -1.6928 0
M  V30 5133 C 504.274 1.16884 -3.24703 0
M  V30 5134 C 503.387 0.442163 -4.29731 0
M  V30 5135 C 502.522 1.44007 -5.11308 0
M  V30 5136 C 501.561 0.69952 -6.0809 0
M  V30 5137 N 500.698 1.64525 -6.82551 0
M  V30 5138 H 505.538 -0.561242 -2.92667 0
M  V30 5139 H 503.075 -0.288591 -1.44241 0
M  V30 5140 H 505.033 1.7677 -3.779 0
M  V30 5141 H 503.663 1.85591 -2.64113 0
M  V30 5142 H 502.715 -0.271632 -3.79429 0
M  V30 5143 H 504.027 -0.136992 -4.98612 0
M  V30 5144 H 503.181 2.11186 -5.68758 0
M  V30 5145 H 501.92 2.05315 -4.42377 0
M  V30 5146 H 500.925 0.0139217 -5.49798 0
M  V30 5147 H 502.15 0.091894 -6.79038 0
M  V30 5148 H 500.096 2.24653 -6.16334 0
M  V30 5149 H 500.013 1.11878 -7.47676 0
M  V30 5150 H 501.281 2.30754 -7.44562 0
M  V30 5151 N 505.51 1.54411 -0.315457 0
M  V30 5152 C 506.44 2.27002 0.547039 0
M  V30 5153 C 507.421 1.27492 1.12605 0
M  V30 5154 O 508.606 1.5629 1.15269 0
M  V30 5155 C 505.736 3.02171 1.71201 0
M  V30 5156 C 504.69 4.0895 1.26268 0
M  V30 5157 C 504.016 4.71915 2.51396 0
M  V30 5158 C 505.316 5.20891 0.383419 0
M  V30 5159 H 507.01 2.99343 -0.0584517 0
M  V30 5160 H 504.556 1.4397 -0.0295527 0
M  V30 5161 H 506.509 3.51681 2.32161 0
M  V30 5162 H 505.233 2.27433 2.34397 0
M  V30 5163 H 503.892 3.60312 0.676062 0
M  V30 5164 H 503.54 3.93801 3.12937 0
M  V30 5165 H 503.24 5.44039 2.22026 0
M  V30 5166 H 504.764 5.24195 3.13133 0
M  V30 5167 H 506.178 5.66206 0.899082 0
M  V30 5168 H 504.575 5.99821 0.182857 0
M  V30 5169 H 505.645 4.81324 -0.587821 0
M  V30 5170 N 506.988 0.0434614 1.5754 0
M  V30 5171 C 508.265 -0.671479 1.83713 0
M  V30 5172 C 508.645 -1.89495 0.930315 0
M  V30 5173 O 507.993 -2.28498 -0.0105639 0
M  V30 5174 C 508.203 -1.0361 3.33266 0
M  V30 5175 C 509.551 -1.42167 4.00092 0
M  V30 5176 O 510.575 -1.12866 3.37846 0
M  V30 5177 O 509.434 -1.96817 5.09829 0
M  V30 5178 H 506.528 -0.330726 0.75799 0
M  V30 5179 H 509.074 0.0722373 1.69546 0
M  V30 5180 H 507.846 -0.165938 3.90948 0
M  V30 5181 H 507.469 -1.83751 3.52592 0
M  V30 5182 N 508.466 -1.55915 -0.229846 0
M  V30 5183 C 509.714 -1.7819 -0.953565 0
M  V30 5184 C 510.035 -0.610504 -1.85197 0
M  V30 5185 O 509.305 0.372988 -1.92316 0
M  V30 5186 H 507.885 -0.657208 -0.355087 0
M  V30 5187 H 510.547 -1.9337 -0.243693 0
M  V30 5188 H 509.643 -2.70011 -1.56527 0
M  V30 5189 N 509.944 0.496216 -1.49584 0
M  V30 5190 C 510.907 1.57952 -1.66084 0
M  V30 5191 C 511.907 1.51729 -0.53244 0
M  V30 5192 O 513.097 1.54796 -0.79899 0
M  V30 5193 C 510.229 2.97604 -1.66268 0
M  V30 5194 H 511.422 1.44649 -2.6271 0
M  V30 5195 H 508.975 0.7208 -1.38687 0
M  V30 5196 H 509.71 3.16378 -0.712432 0
M  V30 5197 H 509.495 3.03528 -2.4822 0
M  V30 5198 H 510.985 3.76301 -1.81073 0
M  V30 5199 N 511.423 1.38739 0.74761 0
M  V30 5200 C 512.37 1.36449 1.86146 0
M  V30 5201 C 513.34 0.226098 1.64554 0
M  V30 5202 O 514.525 0.41926 1.86137 0
M  V30 5203 C 511.665 1.2013 3.23516 0
M  V30 5204 C 510.778 2.43407 3.56899 0
M  V30 5205 C 509.913 2.19773 4.83605 0
M  V30 5206 C 508.952 3.3879 5.09792 0
M  V30 5207 N 508.089 3.14553 6.27695 0
M  V30 5208 H 512.929 2.3167 1.87438 0
M  V30 5209 H 510.466 1.15094 0.916063 0
M  V30 5210 H 512.424 1.08683 4.02795 0
M  V30 5211 H 511.054 0.285453 3.21535 0
M  V30 5212 H 510.106 2.65504 2.72418 0
M  V30 5213 H 511.418 3.32094 3.72176 0
M  V30 5214 H 510.572 2.05496 5.70838 0
M  V30 5215 H 509.311 1.28461 4.70478 0
M  V30 5216 H 508.316 3.53579 4.21025 0
M  V30 5217 H 509.541 4.30986 5.24812 0
M  V30 5218 H 507.487 2.25893 6.1588 0
M  V30 5219 H 507.404 3.96791 6.435 0
M  V30 5220 H 508.672 3.03943 7.17801 0
M  V30 5221 N 512.901 -0.976442 1.23707 0
M  V30 5222 C 514.148 -1.71827 1.07153 0
M  V30 5223 C 514.476 -1.9053 -0.390982 0
M  V30 5224 O 513.731 -1.45779 -1.30564 0
M  V30 5225 C 514.03 -3.11814 1.74662 0
M  V30 5226 C 513.696 -3.12978 3.24585 0
M  V30 5227 C 512.358 -3.13003 3.6549 0
M  V30 5228 C 514.71 -3.07986 4.20469 0
M  V30 5229 C 512.038 -3.05757 5.00729 0
M  V30 5230 C 514.39 -3.02282 5.55705 0
M  V30 5231 C 513.054 -3.00631 5.95968 0
M  V30 5232 H 512.324 -0.628758 0.392102 0
M  V30 5233 H 514.971 -1.14239 1.53693 0
M  V30 5234 H 513.276 -3.72812 1.20492 0
M  V30 5235 H 514.973 -3.67989 1.59328 0
M  V30 5236 H 511.563 -3.13718 2.92026 0
M  V30 5237 H 515.747 -3.07103 3.89874 0
M  V30 5238 H 511.003 -3.02834 5.31132 0
M  V30 5239 H 515.177 -2.97376 6.29714 0
M  V30 5240 H 512.804 -2.94771 7.00724 0
M  V30 5241 N 514.379 -1.04941 -1.1758 0
M  V30 5242 C 515.656 -0.671918 -1.83697 0
M  V30 5243 C 516.036 0.847929 -1.93322 0
M  V30 5244 O 515.384 1.75287 -1.46583 0
M  V30 5245 C 515.594 -1.35797 -3.21497 0
M  V30 5246 C 516.942 -1.4944 -3.97433 0
M  V30 5247 O 517.966 -1.31678 -3.30967 0
M  V30 5248 O 516.825 -1.78463 -5.1654 0
M  V30 5249 H 513.919 -0.236212 -0.792548 0
M  V30 5250 H 516.465 -1.14884 -1.24899 0
M  V30 5251 H 515.237 -2.39498 -3.09446 0
M  V30 5252 H 514.86 -0.870236 -3.8796 0
M  V30 5253 N 515.857 1.33968 -0.830081 0
M  V30 5254 C 517.085 2.0228 -0.434773 0
M  V30 5255 C 517.5 1.62487 0.961419 0
M  V30 5256 O 516.857 0.833849 1.62337 0
M  V30 5257 C 516.908 3.5751 -0.535625 0
M  V30 5258 O 516.629 3.95864 -1.87679 0
M  V30 5259 C 518.13 4.43091 -0.136137 0
M  V30 5260 H 515.35 0.648151 -0.173613 0
M  V30 5261 H 517.894 1.71089 -1.12022 0
M  V30 5262 H 516.049 3.87266 0.101817 0
M  V30 5263 H 516.463 4.9056 -1.85609 0
M  V30 5264 H 517.937 5.51398 -0.257772 0
M  V30 5265 H 518.414 4.29433 0.921076 0
M  V30 5266 H 519.02 4.18677 -0.747662 0
M  V30 5267 N 517.335 0.585699 1.46312 0
M  V30 5268 C 518.584 0.0701192 2.01578 0
M  V30 5269 C 518.897 -1.29889 1.46247 0
M  V30 5270 O 520.103 -1.90598 1.93351 0
M  V30 5271 C 518.559 0.0747499 3.59822 0
M  V30 5272 C 518.167 1.44226 4.24149 0
M  V30 5273 C 519.911 -0.38673 4.22735 0
M  V30 5274 C 517.818 1.40446 5.74481 0
M  V30 5275 H 516.748 0.0224441 0.753666 0
M  V30 5276 H 519.399 0.737789 1.68015 0
M  V30 5277 H 517.781 -0.659144 3.90476 0
M  V30 5278 H 518.955 2.19612 4.05101 0
M  V30 5279 H 517.27 1.84401 3.73343 0
M  V30 5280 H 519.867 -0.433853 5.32937 0
M  V30 5281 H 520.21 -1.40489 3.91878 0
M  V30 5282 H 520.743 0.293195 3.96718 0
M  V30 5283 H 517.482 2.39952 6.10003 0
M  V30 5284 H 517.002 0.692845 5.95785 0
M  V30 5285 H 518.681 1.11865 6.37256 0
M  V30 5286 N 518.813 -1.54241 0.323641 0
M  V30 5287 C 519.76 -2.24339 -0.542277 0
M  V30 5288 C 520.73 -1.23421 -1.11159 0
M  V30 5289 O 521.915 -1.52104 -1.15192 0
M  V30 5290 C 519.055 -3.00479 -1.69725 0
M  V30 5291 C 518.168 -4.16214 -1.15716 0
M  V30 5292 C 517.303 -4.79884 -2.27783 0
M  V30 5293 C 516.342 -5.87722 -1.71023 0
M  V30 5294 N 515.479 -6.45254 -2.76752 0
M  V30 5295 H 520.319 -2.97935 0.0620613 0
M  V30 5296 H 517.856 -1.47039 0.0423993 0
M  V30 5297 H 519.814 -3.42869 -2.3769 0
M  V30 5298 H 518.444 -2.29217 -2.27288 0
M  V30 5299 H 517.496 -3.78605 -0.369063 0
M  V30 5300 H 518.808 -4.93838 -0.701832 0
M  V30 5301 H 517.962 -5.25243 -3.03651 0
M  V30 5302 H 516.701 -4.01641 -2.76652 0
M  V30 5303 H 515.706 -5.41765 -0.936518 0
M  V30 5304 H 516.931 -6.67863 -1.2303 0
M  V30 5305 H 514.877 -5.69884 -3.24912 0
M  V30 5306 H 514.794 -7.18292 -2.35782 0
M  V30 5307 H 516.062 -6.95269 -3.5245 0
M  V30 5308 N 520.291 -0.0518155 -1.57515 0
M  V30 5309 C 521.702 0.483787 -1.80323 0
M  V30 5310 C 522.053 1.70879 -0.964099 0
M  V30 5311 O 521.178 2.15643 -0.180872 0
M  V30 5312 C 521.773 0.884459 -3.27052 0
M  V30 5313 C 520.332 1.36504 -3.50776 0
M  V30 5314 C 519.479 0.340539 -2.75201 0
M  V30 5315 H 522.43 -0.277691 -1.56252 0
M  V30 5316 H 522.451 1.74733 -3.38007 0
M  V30 5317 H 521.963 -0.00731093 -3.88099 0
M  V30 5318 H 520.064 2.27598 -2.95009 0
M  V30 5319 H 520.177 1.35675 -4.59488 0
M  V30 5320 H 518.541 0.81356 -2.41357 0
M  V30 5321 H 519.324 -0.543156 -3.38976 0
M  V30 5322 N 521.769 1.56035 0.221574 0
M  V30 5323 C 522.679 1.95581 1.29558 0
M  V30 5324 C 523.695 0.859639 1.51282 0
M  V30 5325 O 524.871 1.16321 1.64413 0
M  V30 5326 C 521.936 2.26447 2.62531 0
M  V30 5327 C 520.997 3.49632 2.4911 0
M  V30 5328 C 520.23 3.79017 3.75742 0
M  V30 5329 O 520.453 3.10077 4.78757 0
M  V30 5330 O 519.387 4.72507 3.72855 0
M  V30 5331 H 523.213 2.8711 0.990035 0
M  V30 5332 H 520.798 1.43244 0.424434 0
M  V30 5333 H 522.68 2.47494 3.41064 0
M  V30 5334 H 521.355 1.38092 2.92766 0
M  V30 5335 H 520.262 3.33864 1.68777 0
M  V30 5336 H 521.595 4.3837 2.23814 0
M  V30 5337 N 523.247 -0.488276 1.49845 0
M  V30 5338 C 524.195 -1.60917 1.67954 0
M  V30 5339 C 525.189 -1.6038 0.54539 0
M  V30 5340 O 526.395 -1.64736 0.7254 0
M  V30 5341 H 522.77 -0.533658 0.529824 0
M  V30 5342 H 524.741 -1.428 2.62013 0
M  V30 5343 C 523.49 -2.98975 1.77509 0
M  V30 5344 H 522.813 -3.00099 2.6416 0
M  V30 5345 H 524.253 -3.76906 1.9421 0
M  V30 5346 C 522.712 -3.3282 0.522745 0
M  V30 5347 O 523.242 -4.00208 -0.345866 0
M  V30 5348 N 521.448 -2.8808 0.381882 0
M  V30 5349 H 520.995 -2.33415 1.08974 0
M  V30 5350 H 520.953 -3.11091 -0.454929 0
M  V30 5351 N 524.725 -1.39134 -0.740242 0
M  V30 5352 C 525.672 -1.37434 -1.8542 0
M  V30 5353 C 526.642 -0.234822 -1.64432 0
M  V30 5354 O 527.827 -0.429125 -1.85912 0
M  V30 5355 C 524.967 -1.21844 -3.22875 0
M  V30 5356 C 524.08 -2.45296 -3.55603 0
M  V30 5357 C 523.215 -2.22334 -4.82432 0
M  V30 5358 C 522.254 -3.41488 -5.07988 0
M  V30 5359 N 521.391 -3.17877 -6.26018 0
M  V30 5360 H 526.231 -2.3266 -1.86207 0
M  V30 5361 H 523.768 -1.15578 -0.909946 0
M  V30 5362 H 525.726 -1.10818 -4.02213 0
M  V30 5363 H 524.356 -0.3025 -3.21379 0
M  V30 5364 H 523.408 -2.66945 -2.71006 0
M  V30 5365 H 524.72 -3.34063 -3.7041 0
M  V30 5366 H 523.874 -2.0852 -5.69741 0
M  V30 5367 H 522.613 -1.30954 -4.6979 0
M  V30 5368 H 521.618 -3.55807 -4.19144 0
M  V30 5369 H 522.843 -4.33763 -5.22519 0
M  V30 5370 H 520.789 -2.29156 -6.14673 0
M  V30 5371 H 520.706 -4.00198 -6.41387 0
M  V30 5372 H 521.974 -3.07746 -7.16179 0
M  V30 5373 N 526.204 0.969867 -1.24223 0
M  V30 5374 C 527.114 2.09806 -1.0497 0
M  V30 5375 C 528.13 1.73998 0.00886455 0
M  V30 5376 O 529.306 2.00513 -0.188848 0
M  V30 5377 C 526.371 3.40467 -0.654452 0
M  V30 5378 C 525.432 3.90236 -1.78926 0
M  V30 5379 C 524.665 5.14662 -1.41277 0
M  V30 5380 O 524.888 5.69602 -0.301632 0
M  V30 5381 O 523.822 5.58761 -2.23763 0
M  V30 5382 H 527.648 2.28942 -1.99548 0
M  V30 5383 H 525.233 1.08197 -1.03023 0
M  V30 5384 H 527.115 4.19039 -0.445452 0
M  V30 5385 H 525.79 3.22636 0.262216 0
M  V30 5386 H 524.697 3.12735 -2.05299 0
M  V30 5387 H 526.03 4.1254 -2.68462 0
M  V30 5388 N 527.682 1.05563 1.17022 0
M  V30 5389 C 528.931 0.763036 1.8671 0
M  V30 5390 C 529.244 -0.712857 1.82147 0
M  V30 5391 O 530.45 -1.11955 2.47343 0
M  V30 5392 C 528.906 1.31474 3.35026 0
M  V30 5393 C 528.514 2.82034 3.48081 0
M  V30 5394 C 530.258 1.09935 4.10018 0
M  V30 5395 C 528.165 3.30486 4.90442 0
M  V30 5396 H 527.095 0.281747 0.699382 0
M  V30 5397 H 529.746 1.2734 1.32124 0
M  V30 5398 H 528.128 0.732171 3.89173 0
M  V30 5399 H 529.302 3.46178 3.04133 0
M  V30 5400 H 527.617 3.02156 2.86515 0
M  V30 5401 H 530.214 1.43632 5.15048 0
M  V30 5402 H 530.557 0.0373072 4.16283 0
M  V30 5403 H 531.09 1.64732 3.62089 0
M  V30 5404 H 527.829 4.36137 4.89352 0
M  V30 5405 H 527.349 2.71086 5.35044 0
M  V30 5406 H 529.028 3.25382 5.59227 0
M  V30 5407 N 529.16 -1.33526 0.837174 0
M  V30 5408 C 530.408 -1.97446 0.431211 0
M  V30 5409 C 530.729 -1.6665 -1.01255 0
M  V30 5410 O 529.999 -0.964559 -1.70508 0
M  V30 5411 H 528.579 -0.73043 0.156463 0
M  V30 5412 H 531.241 -1.62918 1.06976 0
M  V30 5413 H 530.337 -3.07001 0.561877 0
M  V30 5414 N 530.638 -0.59345 -1.46 0
M  V30 5415 C 531.601 0.123538 -2.28867 0
M  V30 5416 C 532.601 0.808628 -1.38989 0
M  V30 5417 O 533.791 0.658945 -1.61256 0
M  V30 5418 C 530.923 1.1847 -3.19653 0
M  V30 5419 H 532.116 -0.604843 -2.93737 0
M  V30 5420 H 529.669 -0.351875 -1.52288 0
M  V30 5421 H 530.404 1.94431 -2.59552 0
M  V30 5422 H 530.189 0.69783 -3.8584 0
M  V30 5423 H 531.679 1.68726 -3.81997 0
M  V30 5424 N 532.116 1.54067 -0.331816 0
M  V30 5425 C 533.362 2.01713 0.261395 0
M  V30 5426 C 533.717 1.21566 1.49129 0
M  V30 5427 O 533.01 0.291867 1.89364 0
M  V30 5428 C 533.204 3.51634 0.639392 0
M  V30 5429 C 533.033 4.46295 -0.552321 0
M  V30 5430 C 531.803 4.94185 -1.05399 0
M  V30 5431 C 534.001 4.94677 -1.40711 0
M  V30 5432 N 531.983 5.7277 -2.20925 0
M  V30 5433 C 533.354 5.71267 -2.40943 0
M  V30 5434 C 535.409 4.76805 -1.43392 0
M  V30 5435 C 534.112 6.31889 -3.4367 0
M  V30 5436 C 536.138 5.38268 -2.44994 0
M  V30 5437 C 535.5 6.14716 -3.43952 0
M  V30 5438 H 531.599 0.77975 0.0592729 0
M  V30 5439 H 534.183 1.88974 -0.468726 0
M  V30 5440 H 532.354 3.64603 1.33863 0
M  V30 5441 H 534.086 3.86038 1.21478 0
M  V30 5442 H 530.841 4.69472 -0.623952 0
M  V30 5443 H 531.265 6.16737 -2.79222 0
M  V30 5444 H 535.907 4.17255 -0.682489 0
M  V30 5445 H 533.625 6.90554 -4.19715 0
M  V30 5446 H 537.211 5.26352 -2.4788 0
M  V30 5447 H 536.091 6.6143 -4.21283 0
M  V30 5448 N 533.594 0.0601682 1.57485 0
M  V30 5449 C 534.504 -0.926121 2.15546 0
M  V30 5450 C 535.52 -1.33532 1.11558 0
M  V30 5451 O 536.696 -1.4104 1.4377 0
M  V30 5452 C 533.761 -2.17952 2.69625 0
M  V30 5453 C 532.822 -1.82783 3.88444 0
M  V30 5454 C 532.055 -3.02148 4.39935 0
M  V30 5455 O 532.278 -4.15803 3.90466 0
M  V30 5456 O 531.212 -2.82639 5.31412 0
M  V30 5457 H 535.038 -0.462289 3.00161 0
M  V30 5458 H 532.623 -0.162246 1.48516 0
M  V30 5459 H 534.505 -2.91474 3.04337 0
M  V30 5460 H 533.18 -2.63456 1.88077 0
M  V30 5461 H 532.087 -1.06549 3.58606 0
M  V30 5462 H 533.42 -1.42072 4.7125 0
M  V30 5463 N 535.072 -1.5615 -0.213296 0
M  V30 5464 C 536.002 -1.96109 -1.26742 0
M  V30 5465 C 536.983 -0.830448 -1.48451 0
M  V30 5466 O 538.168 -1.09339 -1.60495 0
M  V30 5467 C 535.298 -2.28492 -2.61551 0
M  V30 5468 C 534.252 -3.44124 -2.54485 0
M  V30 5469 C 533.578 -3.62134 -3.93399 0
M  V30 5470 C 534.878 -4.78855 -2.08556 0
M  V30 5471 H 536.572 -2.84412 -0.935434 0
M  V30 5472 H 534.118 -1.36836 -0.44854 0
M  V30 5473 H 536.071 -2.55039 -3.3546 0
M  V30 5474 H 534.795 -1.37052 -2.96453 0
M  V30 5475 H 533.454 -3.17639 -1.83033 0
M  V30 5476 H 533.102 -2.68055 -4.25623 0
M  V30 5477 H 532.802 -4.39913 -3.89551 0
M  V30 5478 H 534.326 -3.91038 -4.68958 0
M  V30 5479 H 535.74 -5.04552 -2.72213 0
M  V30 5480 H 534.137 -5.59975 -2.1575 0
M  V30 5481 H 535.207 -4.73657 -1.03811 0
M  V30 5482 N 536.55 0.480323 -1.50102 0
M  V30 5483 C 537.797 1.23307 -1.60629 0
M  V30 5484 C 538.125 1.92135 -0.302375 0
M  V30 5485 O 537.38 1.82321 0.711154 0
M  V30 5486 C 537.679 2.30708 -2.72963 0
M  V30 5487 C 537.345 1.79195 -4.13763 0
M  V30 5488 C 536.007 1.64867 -4.52076 0
M  V30 5489 C 538.359 1.40878 -5.018 0
M  V30 5490 C 535.687 1.10631 -5.76175 0
M  V30 5491 C 538.039 0.880872 -6.26437 0
M  V30 5492 C 536.703 0.724146 -6.6356 0
M  V30 5493 H 535.973 0.451211 -0.587784 0
M  V30 5494 H 538.62 0.53051 -1.84005 0
M  V30 5495 H 536.925 3.06834 -2.43639 0
M  V30 5496 H 538.622 2.88692 -2.78313 0
M  V30 5497 H 535.212 1.91313 -3.83533 0
M  V30 5498 H 539.396 1.50786 -4.7284 0
M  V30 5499 H 534.652 0.972263 -6.0362 0
M  V30 5500 H 538.826 0.575269 -6.9402 0
M  V30 5501 H 536.453 0.301722 -7.59601 0
M  V30 5502 N 538.028 1.39524 0.732853 0
M  V30 5503 C 539.258 1.3994 1.51988 0
M  V30 5504 C 539.666 -0.00727973 1.89199 0
M  V30 5505 O 539.009 -0.989521 1.54771 0
M  V30 5506 C 539.071 2.21026 2.83527 0
M  V30 5507 C 538.735 3.69633 2.68738 0
M  V30 5508 C 539.732 4.62665 2.37143 0
M  V30 5509 C 537.417 4.13244 2.85542 0
M  V30 5510 C 539.411 5.97291 2.22536 0
M  V30 5511 C 537.098 5.47945 2.70554 0
M  V30 5512 C 538.096 6.39783 2.39097 0
M  V30 5513 O 537.784 7.72002 2.24204 0
M  V30 5514 H 537.516 0.479795 0.476206 0
M  V30 5515 H 540.07 1.8399 0.913054 0
M  V30 5516 H 538.3 1.71728 3.46477 0
M  V30 5517 H 539.989 2.13594 3.45156 0
M  V30 5518 H 540.755 4.30272 2.2381 0
M  V30 5519 H 536.634 3.42094 3.09019 0
M  V30 5520 H 540.178 6.68939 1.97905 0
M  V30 5521 H 536.075 5.79928 2.83466 0
M  V30 5522 H 536.843 7.8275 2.39258 0
M  V30 5523 N 539.506 -0.963266 1.24736 0
M  V30 5524 C 540.922 -1.23273 1.01371 0
M  V30 5525 C 541.122 -1.99618 -0.274776 0
M  V30 5526 O 540.178 -2.32293 -0.989769 0
M  V30 5527 C 541.491 -2.01554 2.23152 0
M  V30 5528 C 543.039 -2.14629 2.27823 0
M  V30 5529 C 543.514 -2.96307 3.49237 0
M  V30 5530 N 545.005 -3.03887 3.49581 0
M  V30 5531 C 545.74 -3.67456 4.40186 0
M  V30 5532 N 545.236 -4.32706 5.41052 0
M  V30 5533 N 547.029 -3.64511 4.27888 0
M  V30 5534 H 539.18 -0.452294 2.07528 0
M  V30 5535 H 541.443 -0.262521 0.910926 0
M  V30 5536 H 541.149 -1.52847 3.1675 0
M  V30 5537 H 541.023 -3.02278 2.25628 0
M  V30 5538 H 543.41 -2.62537 1.34753 0
M  V30 5539 H 543.491 -1.13238 2.2937 0
M  V30 5540 H 543.135 -2.49091 4.42624 0
M  V30 5541 H 543.065 -3.97905 3.44933 0
M  V30 5542 H 545.556 -2.57477 2.76611 0
M  V30 5543 H 545.869 -4.79042 6.06415 0
M  V30 5544 H 544.214 -4.31361 5.44934 0
M  V30 5545 H 547.405 -3.12715 3.4832 0
M  V30 5546 H 547.578 -4.13768 4.98698 0
M  V30 5547 N 540.985 -1.06182 -1.16461 0
M  V30 5548 C 542.215 -0.797425 -1.9059 0
M  V30 5549 C 542.623 0.651845 -1.77616 0
M  V30 5550 O 541.966 1.45788 -1.11766 0
M  V30 5551 C 542.028 -1.11128 -3.41893 0
M  V30 5552 C 541.692 -2.55874 -3.78652 0
M  V30 5553 C 542.689 -3.54104 -3.80665 0
M  V30 5554 C 540.374 -2.91144 -4.09317 0
M  V30 5555 C 542.368 -4.85645 -4.12829 0
M  V30 5556 C 540.055 -4.22885 -4.41148 0
M  V30 5557 C 541.053 -5.19945 -4.42883 0
M  V30 5558 O 540.741 -6.49322 -4.73959 0
M  V30 5559 H 540.473 -0.288709 -0.611247 0
M  V30 5560 H 543.027 -1.41841 -1.4856 0
M  V30 5561 H 541.257 -0.433217 -3.84266 0
M  V30 5562 H 542.946 -0.831306 -3.97296 0
M  V30 5563 H 543.712 -3.28197 -3.57088 0
M  V30 5564 H 539.591 -2.16252 -4.07131 0
M  V30 5565 H 543.135 -5.61398 -4.14099 0
M  V30 5566 H 539.032 -4.48551 -4.6419 0
M  V30 5567 H 539.8 -6.54294 -4.91774 0
M  V30 5568 N 542.463 1.3308 -0.844243 0
M  V30 5569 C 543.74 1.92178 -0.364261 0
M  V30 5570 C 544.12 1.76961 1.15101 0
M  V30 5571 O 543.468 1.16128 1.9679 0
M  V30 5572 C 543.678 3.393 -0.817106 0
M  V30 5573 C 545.026 4.16444 -0.828236 0
M  V30 5574 O 546.05 3.47975 -0.761062 0
M  V30 5575 O 544.909 5.38685 -0.920926 0
M  V30 5576 H 542.003 0.820411 -0.10419 0
M  V30 5577 H 544.549 1.41918 -0.930453 0
M  V30 5578 H 543.321 3.44272 -1.85991 0
M  V30 5579 H 542.944 3.96947 -0.227785 0
M  V30 5580 N 543.941 0.601185 1.45683 0
M  V30 5581 C 545.166 0.0982245 2.07167 0
M  V30 5582 C 545.591 -1.20546 1.44396 0
M  V30 5583 O 544.949 -1.73247 0.534347 0
M  V30 5584 C 544.997 -0.0346976 3.60583 0
M  V30 5585 O 544.101 -1.08657 3.97828 0
M  V30 5586 H 543.442 0.0711618 0.660176 0
M  V30 5587 H 545.972 0.829376 1.87036 0
M  V30 5588 H 545.982 -0.234969 4.07323 0
M  V30 5589 H 544.657 0.917265 4.05659 0
M  V30 5590 H 543.234 -0.863275 3.6277 0
M  V30 5591 N 545.419 -1.53889 0.339982 0
M  V30 5592 C 546.668 -2.00035 -0.258604 0
M  V30 5593 C 546.981 -1.23179 -1.51942 0
M  V30 5594 O 548.187 -1.59784 -2.19503 0
M  V30 5595 C 546.643 -3.56249 -0.511359 0
M  V30 5596 C 546.251 -4.41957 0.733349 0
M  V30 5597 C 547.995 -4.1082 -1.069 0
M  V30 5598 C 545.902 -5.89673 0.451591 0
M  V30 5599 H 544.832 -0.747284 -0.10041 0
M  V30 5600 H 547.483 -1.77776 0.454758 0
M  V30 5601 H 545.865 -3.7456 -1.28533 0
M  V30 5602 H 547.039 -4.35421 1.50815 0
M  V30 5603 H 545.354 -3.9836 1.21237 0
M  V30 5604 H 547.951 -5.18789 -1.2947 0
M  V30 5605 H 548.294 -3.63817 -2.02343 0
M  V30 5606 H 548.827 -3.96205 -0.355817 0
M  V30 5607 H 545.566 -6.40903 1.37565 0
M  V30 5608 H 545.086 -5.99122 -0.285193 0
M  V30 5609 H 546.765 -6.46965 0.0675067 0
M  V30 5610 N 546.897 -0.0685191 -1.57451 0
M  V30 5611 C 547.844 0.899861 -2.12535 0
M  V30 5612 C 548.814 1.29749 -1.03703 0
M  V30 5613 O 549.999 1.38392 -1.31348 0
M  V30 5614 C 547.139 2.16328 -2.6888 0
M  V30 5615 C 546.252 1.81857 -3.91857 0
M  V30 5616 C 545.387 3.02786 -4.36457 0
M  V30 5617 C 544.426 2.64317 -5.5209 0
M  V30 5618 N 543.563 3.77994 -5.91663 0
M  V30 5619 H 548.403 0.423243 -2.94979 0
M  V30 5620 H 545.94 0.197268 -1.45771 0
M  V30 5621 H 547.898 2.90281 -2.99655 0
M  V30 5622 H 546.528 2.61536 -1.89206 0
M  V30 5623 H 545.58 0.979808 -3.67565 0
M  V30 5624 H 546.892 1.49553 -4.75852 0
M  V30 5625 H 546.046 3.85021 -4.68875 0
M  V30 5626 H 544.785 3.38281 -3.51308 0
M  V30 5627 H 543.79 1.80503 -5.19325 0
M  V30 5628 H 545.015 2.29995 -6.38967 0
M  V30 5629 H 542.961 4.13258 -5.09464 0
M  V30 5630 H 542.878 3.49447 -6.7039 0
M  V30 5631 H 544.146 4.60818 -6.28703 0
M  V30 5632 N 548.375 1.56261 0.205012 0
M  V30 5633 C 549.621 1.80306 0.9283 0
M  V30 5634 C 549.954 0.640932 1.83319 0
M  V30 5635 O 549.229 -0.359032 1.91158 0
M  V30 5636 C 549.512 3.14547 1.75306 0
M  V30 5637 C 549.365 4.41236 0.873562 0
M  V30 5638 C 550.684 3.45382 2.72762 0
M  V30 5639 H 547.803 0.655929 0.336044 0
M  V30 5640 H 550.445 1.88984 0.196211 0
M  V30 5641 H 548.595 3.0728 2.37721 0
M  V30 5642 H 550.267 4.60539 0.264887 0
M  V30 5643 H 548.51 4.33427 0.179773 0
M  V30 5644 H 549.181 5.31639 1.48541 0
M  V30 5645 H 551.657 3.52884 2.20481 0
M  V30 5646 H 550.533 4.40449 3.2756 0
M  V30 5647 H 550.794 2.68377 3.51321 0
M  V30 5648 N 549.853 -0.472356 1.50355 0
M  V30 5649 C 550.763 -1.59637 1.7191 0
M  V30 5650 C 551.779 -1.63247 0.602195 0
M  V30 5651 O 552.955 -1.81139 0.880369 0
M  V30 5652 C 550.02 -2.9586 1.80742 0
M  V30 5653 C 549.081 -3.02649 3.04471 0
M  V30 5654 C 548.314 -4.32374 3.12872 0
M  V30 5655 O 548.537 -5.22807 2.28099 0
M  V30 5656 O 547.471 -4.44728 4.05587 0
M  V30 5657 H 551.297 -1.44373 2.67189 0
M  V30 5658 H 548.882 -0.651717 1.34436 0
M  V30 5659 H 550.764 -3.7677 1.88739 0
M  V30 5660 H 549.439 -3.11325 0.88647 0
M  V30 5661 H 548.346 -2.20821 3.01975 0
M  V30 5662 H 549.679 -2.92119 3.9614 0
M  V30 5663 N 551.331 -1.39911 -0.725443 0
M  V30 5664 C 552.608 -1.28158 -1.47766 0
M  V30 5665 C 552.988 0.104545 -2.10841 0
M  V30 5666 O 552.336 1.11657 -1.99361 0
M  V30 5667 C 552.546 -2.41306 -2.52135 0
M  V30 5668 C 553.894 -2.81076 -3.18247 0
M  V30 5669 O 554.918 -2.40827 -2.62452 0
M  V30 5670 O 553.777 -3.50581 -4.19231 0
M  V30 5671 H 550.871 -0.502761 -0.656628 0
M  V30 5672 H 553.417 -1.51808 -0.758456 0
M  V30 5673 H 552.189 -3.33932 -2.03974 0
M  V30 5674 H 551.812 -2.19374 -3.31603 0
M  V30 5675 N 552.809 0.956637 -1.25245 0
M  V30 5676 C 554.086 1.67716 -1.00651 0
M  V30 5677 C 554.466 2.0585 0.467866 0
M  V30 5678 O 553.814 1.77029 1.44475 0
M  V30 5679 C 554.024 2.90093 -1.94028 0
M  V30 5680 C 555.372 3.6209 -2.21756 0
M  V30 5681 O 556.396 3.00171 -1.9177 0
M  V30 5682 O 555.255 4.7358 -2.72735 0
M  V30 5683 H 552.349 0.733731 -0.381533 0
M  V30 5684 H 554.895 1.00974 -1.3639 0
M  V30 5685 H 553.667 2.58689 -2.93591 0
M  V30 5686 H 553.29 3.64566 -1.58674 0
M  V30 5687 N 554.287 1.06798 1.15896 0
M  V30 5688 C 555.235 0.677525 2.22514 0
M  V30 5689 C 556.229 -0.308994 1.66558 0
M  V30 5690 O 557.435 -0.173308 1.79164 0
M  V30 5691 H 553.81 0.200994 0.724642 0
M  V30 5692 H 555.781 1.5865 2.52731 0
M  V30 5693 C 554.53 0.0854153 3.47595 0
M  V30 5694 H 553.853 0.835645 3.90969 0
M  V30 5695 H 555.293 -0.150199 4.23734 0
M  V30 5696 C 553.752 -1.1724 3.15843 0
M  V30 5697 O 554.282 -2.25965 3.32119 0
M  V30 5698 N 552.488 -1.07636 2.69931 0
M  V30 5699 H 552.035 -0.191559 2.56887 0
M  V30 5700 H 551.993 -1.91876 2.4906 0
M  V30 5701 N 555.766 -1.3263 0.851289 0
M  V30 5702 C 557.015 -1.96633 0.449267 0
M  V30 5703 C 557.328 -1.68131 -0.999562 0
M  V30 5704 O 558.534 -2.25845 -1.50685 0
M  V30 5705 C 556.99 -3.51946 0.752446 0
M  V30 5706 C 556.598 -3.89311 2.21678 0
M  V30 5707 C 558.342 -4.22437 0.417983 0
M  V30 5708 C 556.249 -5.37655 2.46336 0
M  V30 5709 H 555.179 -0.735888 0.164269 0
M  V30 5710 H 557.83 -1.51073 1.0416 0
M  V30 5711 H 556.212 -3.95899 0.0895858 0
M  V30 5712 H 557.386 -3.56378 2.92115 0
M  V30 5713 H 555.701 -3.31836 2.51543 0
M  V30 5714 H 558.298 -5.31549 0.579674 0
M  V30 5715 H 558.641 -4.11349 -0.640115 0
M  V30 5716 H 559.174 -3.84057 1.03659 0
M  V30 5717 H 555.913 -5.5376 3.50757 0
M  V30 5718 H 555.433 -5.72005 1.80473 0
M  V30 5719 H 557.112 -6.04695 2.30115 0
M  V30 5720 N 557.244 -0.608902 -1.45362 0
M  V30 5721 C 558.49 -0.104762 -2.02529 0
M  V30 5722 C 558.823 1.26191 -1.47613 0
M  V30 5723 O 558.098 1.8327 -0.65134 0
M  V30 5724 C 558.381 -0.0672661 -3.60037 0
M  V30 5725 C 558.234 -1.4647 -4.25284 0
M  V30 5726 C 559.553 0.619877 -4.35713 0
M  V30 5727 H 556.672 -0.0395438 -0.735938 0
M  V30 5728 H 559.314 -0.781126 -1.73201 0
M  V30 5729 H 557.464 0.50871 -3.85155 0
M  V30 5730 H 559.136 -2.08785 -4.11347 0
M  V30 5731 H 557.379 -2.02502 -3.83634 0
M  V30 5732 H 558.05 -1.39069 -5.34195 0
M  V30 5733 H 560.526 0.130297 -4.15896 0
M  V30 5734 H 559.402 0.615224 -5.45441 0
M  V30 5735 H 559.663 1.68621 -4.0868 0
M  V30 5736 N 558.722 1.53707 -0.348139 0
M  V30 5737 C 559.968 2.01286 0.247332 0
M  V30 5738 C 560.301 1.23546 1.49834 0
M  V30 5739 O 559.576 0.324331 1.91777 0
M  V30 5740 C 559.859 3.55768 0.556858 0
M  V30 5741 C 559.712 4.44216 -0.706564 0
M  V30 5742 C 561.031 4.1841 1.3646 0
M  V30 5743 H 558.15 0.731677 0.0884201 0
M  V30 5744 H 560.792 1.84106 -0.469584 0
M  V30 5745 H 558.942 3.70539 1.16761 0
M  V30 5746 H 560.614 4.41274 -1.34444 0
M  V30 5747 H 558.857 4.12892 -1.33052 0
M  V30 5748 H 559.528 5.50202 -0.445186 0
M  V30 5749 H 562.004 4.07365 0.848113 0
M  V30 5750 H 560.88 5.26563 1.54992 0
M  V30 5751 H 561.141 3.7333 2.36805 0
M  V30 5752 N 560.2 0.0768682 1.57412 0
M  V30 5753 C 561.477 -0.632359 1.85096 0
M  V30 5754 C 561.857 -1.87479 0.9703 0
M  V30 5755 O 561.205 -2.28469 0.0379062 0
M  V30 5756 C 561.415 -0.965174 3.35388 0
M  V30 5757 C 562.763 -1.33648 4.03018 0
M  V30 5758 O 563.787 -1.05675 3.40164 0
M  V30 5759 O 562.646 -1.85959 5.13889 0
M  V30 5760 H 559.74 -0.314574 0.764835 0
M  V30 5761 H 562.286 0.108184 1.69355 0
M  V30 5762 H 561.058 -0.0829745 3.91212 0
M  V30 5763 H 560.681 -1.76231 3.5641 0
M  V30 5764 N 561.678 -1.56367 -0.196722 0
M  V30 5765 C 562.903 -1.84991 -0.937714 0
M  V30 5766 C 563.328 -0.660244 -1.76132 0
M  V30 5767 O 562.686 0.390967 -1.77034 0
M  V30 5768 C 562.734 -3.11828 -1.81096 0
M  V30 5769 O 561.838 -2.92266 -2.90955 0
M  V30 5770 H 561.179 -0.609193 -0.264159 0
M  V30 5771 H 563.709 -2.03595 -0.202529 0
M  V30 5772 H 563.719 -3.42579 -2.21594 0
M  V30 5773 H 562.394 -3.98037 -1.2058 0
M  V30 5774 H 560.971 -2.72809 -2.54224 0
M  V30 5775 N 563.156 0.464375 -1.50603 0
M  V30 5776 C 564.119 1.54393 -1.69397 0
M  V30 5777 C 565.119 1.50566 -0.564504 0
M  V30 5778 O 566.309 1.53066 -0.831645 0
M  V30 5779 C 563.441 2.9401 -1.72543 0
M  V30 5780 H 564.634 1.39044 -2.65719 0
M  V30 5781 H 562.187 0.69122 -1.40185 0
M  V30 5782 H 562.922 3.14795 -0.77938 0
M  V30 5783 H 562.707 2.98195 -2.54602 0
M  V30 5784 H 564.197 3.72375 -1.89015 0
M  V30 5785 N 564.634 1.40294 0.718013 0
M  V30 5786 C 565.862 1.4175 1.50714 0
M  V30 5787 C 566.277 0.0165366 1.88793 0
M  V30 5788 O 565.634 -0.958942 1.55276 0
M  V30 5789 C 565.685 2.30598 2.784 0
M  V30 5790 O 565.406 3.6524 2.41932 0
M  V30 5791 C 566.907 2.4062 3.72313 0
M  V30 5792 H 564.127 0.483565 0.465194 0
M  V30 5793 H 566.671 1.84316 0.885889 0
M  V30 5794 H 564.826 1.91401 3.36815 0
M  V30 5795 H 565.24 4.12402 3.24076 0
M  V30 5796 H 566.714 3.07001 4.58753 0
M  V30 5797 H 567.191 1.4305 4.15251 0
M  V30 5798 H 567.797 2.80359 3.19811 0
M  V30 5799 N 566.112 -0.949982 1.2575 0
M  V30 5800 C 567.528 -1.22191 1.02672 0
M  V30 5801 C 567.728 -1.99898 -0.253588 0
M  V30 5802 O 566.784 -2.33329 -0.965076 0
M  V30 5803 C 568.097 -1.99175 2.25277 0
M  V30 5804 C 569.645 -2.12201 2.30087 0
M  V30 5805 C 570.12 -2.92586 3.5236 0
M  V30 5806 N 571.611 -3.00163 3.52784 0
M  V30 5807 C 572.346 -3.62766 4.44059 0
M  V30 5808 N 571.842 -4.26943 5.45611 0
M  V30 5809 N 573.635 -3.59953 4.3173 0
M  V30 5810 H 565.786 -0.430258 2.07996 0
M  V30 5811 H 568.049 -0.252844 0.91366 0
M  V30 5812 H 567.755 -1.49479 3.18354 0
M  V30 5813 H 567.629 -2.99868 2.28821 0
M  V30 5814 H 570.016 -2.61093 1.3753 0
M  V30 5815 H 570.097 -1.10799 2.30559 0
M  V30 5816 H 569.741 -2.44383 4.45241 0
M  V30 5817 H 569.671 -3.94224 3.49134 0
M  V30 5818 H 572.162 -2.54529 2.79327 0
M  V30 5819 H 572.475 -4.72583 6.11461 0
M  V30 5820 H 570.82 -4.25557 5.49478 0
M  V30 5821 H 574.011 -3.09003 3.51617 0
M  V30 5822 H 574.184 -4.08455 5.03059 0
M  V30 5823 N 567.59 -1.07411 -1.15328 0
M  V30 5824 C 568.5 -0.706438 -2.23711 0
M  V30 5825 C 569.516 0.282586 -1.7169 0
M  V30 5826 O 570.692 0.129066 -2.00986 0
M  V30 5827 C 567.757 -0.11048 -3.46524 0
M  V30 5828 C 566.818 -1.15282 -4.13532 0
M  V30 5829 C 566.051 -0.585205 -5.30482 0
M  V30 5830 O 566.274 0.598549 -5.67251 0
M  V30 5831 O 565.208 -1.33039 -5.87013 0
M  V30 5832 H 569.034 -1.61031 -2.57493 0
M  V30 5833 H 566.619 -0.847113 -1.23062 0
M  V30 5834 H 568.501 0.21957 -4.20828 0
M  V30 5835 H 567.176 0.766703 -3.14489 0
M  V30 5836 H 566.083 -1.53523 -3.41147 0
M  V30 5837 H 567.416 -2.00192 -4.49649 0
M  V30 5838 N 569.068 1.32177 -0.85831 0
M  V30 5839 C 570.314 1.97417 -0.46417 0
M  V30 5840 C 570.647 1.67746 0.978514 0
M  V30 5841 O 569.922 0.967654 1.68721 0
M  V30 5842 C 570.205 3.53069 -0.708094 0
M  V30 5843 C 570.058 3.92357 -2.19946 0
M  V30 5844 C 571.377 4.39783 -0.166881 0
M  V30 5845 H 568.496 0.717097 -0.17012 0
M  V30 5846 H 571.138 1.56499 -1.07741 0
M  V30 5847 H 569.288 3.88054 -0.186128 0
M  V30 5848 H 570.96 3.67533 -2.78779 0
M  V30 5849 H 569.203 3.41384 -2.67656 0
M  V30 5850 H 569.874 5.00841 -2.32082 0
M  V30 5851 H 572.35 4.11556 -0.613285 0
M  V30 5852 H 571.226 5.47671 -0.367093 0
M  V30 5853 H 571.487 4.32196 0.930559 0
M  V30 5854 N 570.547 0.616602 1.45037 0
M  V30 5855 C 571.795 0.115103 2.01772 0
M  V30 5856 C 572.116 -1.2622 1.48639 0
M  V30 5857 O 571.386 -1.83563 0.684199 0
M  V30 5858 H 569.966 0.0395607 0.745952 0
M  V30 5859 H 572.628 0.800032 1.77723 0
M  V30 5860 H 571.724 0.0717274 3.12018 0
M  V30 5861 N 572.025 -1.5352 0.356285 0
M  V30 5862 C 573.302 -1.93405 -0.292223 0
M  V30 5863 C 573.682 -1.28901 -1.67176 0
M  V30 5864 O 573.03 -0.444632 -2.24132 0
M  V30 5865 C 573.24 -3.47223 -0.35175 0
M  V30 5866 C 574.588 -4.20389 -0.596534 0
M  V30 5867 O 575.612 -3.53554 -0.433344 0
M  V30 5868 O 574.471 -5.3881 -0.913589 0
M  V30 5869 H 571.565 -0.808666 -0.173172 0
M  V30 5870 H 574.111 -1.64713 0.408391 0
M  V30 5871 H 572.883 -3.86423 0.615841 0
M  V30 5872 H 572.506 -3.8212 -1.09864 0
M  V30 5873 N 573.503 -0.0852151 -1.57369 0
M  V30 5874 C 574.466 0.8627 -2.12344 0
M  V30 5875 C 575.466 1.21746 -1.05046 0
M  V30 5876 O 576.656 1.14852 -1.30976 0
M  V30 5877 C 573.788 2.1618 -2.63589 0
M  V30 5878 H 574.981 0.385511 -2.97412 0
M  V30 5879 H 572.534 0.163663 -1.55441 0
M  V30 5880 H 573.269 2.68406 -1.82013 0
M  V30 5881 H 573.054 1.91723 -3.4203 0
M  V30 5882 H 574.544 2.84011 -3.06149 0
M  V30 5883 N 574.981 1.5647 0.188427 0
M  V30 5884 C 575.928 1.95073 1.23349 0
M  V30 5885 C 576.898 0.812238 1.44886 0
M  V30 5886 O 578.083 1.07095 1.57909 0
M  V30 5887 C 575.223 2.30124 2.57171 0
M  V30 5888 C 574.336 3.57069 2.43157 0
M  V30 5889 C 573.471 3.81411 3.69729 0
M  V30 5890 C 572.51 5.0176 3.50575 0
M  V30 5891 N 571.647 5.22321 4.69175 0
M  V30 5892 H 576.487 2.84171 0.89728 0
M  V30 5893 H 574.024 1.40623 0.431683 0
M  V30 5894 H 575.982 2.48463 3.35145 0
M  V30 5895 H 574.612 1.44159 2.88822 0
M  V30 5896 H 573.664 3.4674 1.56447 0
M  V30 5897 H 574.976 4.452 2.24942 0
M  V30 5898 H 574.13 4.00026 4.56141 0
M  V30 5899 H 572.869 2.91624 3.90905 0
M  V30 5900 H 571.874 4.83061 2.62549 0
M  V30 5901 H 573.099 5.93063 3.30837 0
M  V30 5902 H 571.045 4.35483 4.90602 0
M  V30 5903 H 570.962 6.04643 4.53809 0
M  V30 5904 H 572.23 5.45401 5.56919 0
M  V30 5905 N 576.459 -0.456382 1.50847 0
M  V30 5906 C 577.707 -1.20497 1.62249 0
M  V30 5907 C 578.028 -1.92156 0.331839 0
M  V30 5908 O 577.298 -1.84751 -0.651443 0
M  V30 5909 H 575.878 -0.447775 0.597918 0
M  V30 5910 H 578.54 -0.525099 1.87693 0
M  V30 5911 H 577.636 -1.94492 2.44089 0
M  V30 5912 N 577.937 -1.40673 -0.710563 0
M  V30 5913 C 578.884 -1.41336 -1.82463 0
M  V30 5914 C 579.854 -0.269648 -1.63897 0
M  V30 5915 O 581.039 -0.468463 -1.8496 0
M  V30 5916 C 578.179 -1.28665 -3.20218 0
M  V30 5917 C 577.292 -2.52784 -3.5032 0
M  V30 5918 C 576.427 -2.32517 -4.77608 0
M  V30 5919 C 575.466 -3.52187 -5.0063 0
M  V30 5920 N 574.603 -3.31084 -6.19135 0
M  V30 5921 H 579.443 -2.36558 -1.8123 0
M  V30 5922 H 576.98 -1.17483 -0.885226 0
M  V30 5923 H 578.938 -1.19324 -3.99772 0
M  V30 5924 H 577.568 -0.370602 -3.20666 0
M  V30 5925 H 576.62 -2.72634 -2.65283 0
M  V30 5926 H 577.932 -3.41845 -3.63241 0
M  V30 5927 H 577.086 -2.20558 -5.65189 0
M  V30 5928 H 575.825 -1.40889 -4.66906 0
M  V30 5929 H 574.83 -3.64617 -4.11502 0
M  V30 5930 H 576.055 -4.44749 -5.13201 0
M  V30 5931 H 574.001 -2.42143 -6.09674 0
M  V30 5932 H 573.918 -4.13713 -6.32754 0
M  V30 5933 H 575.186 -3.22868 -7.0949 0
M  V30 5934 N 579.415 0.9433 -1.26252 0
M  V30 5935 C 580.643 1.72367 -1.14443 0
M  V30 5936 C 581.058 1.86392 0.300572 0
M  V30 5937 O 580.415 1.36978 1.20596 0
M  V30 5938 C 580.466 3.13155 -1.806 0
M  V30 5939 O 580.187 2.99803 -3.19452 0
M  V30 5940 C 581.688 4.07417 -1.74717 0
M  V30 5941 H 578.908 0.539758 -0.398626 0
M  V30 5942 H 581.452 1.18268 -1.66832 0
M  V30 5943 H 579.607 3.64162 -1.32154 0
M  V30 5944 H 580.021 3.88697 -3.52158 0
M  V30 5945 H 581.495 5.03773 -2.25647 0
M  V30 5946 H 581.972 4.3337 -0.713244 0
M  V30 5947 H 582.578 3.6233 -2.22704 0
M  V30 5948 N 580.893 1.08022 1.14757 0
M  V30 5949 C 581.843 0.676345 2.17737 0
M  V30 5950 C 582.827 -0.302018 1.5804 0
M  V30 5951 O 584.019 -0.11466 1.76628 0
M  V30 5952 C 581.148 0.082984 3.432 0
M  V30 5953 C 580.234 1.0869 4.09936 0
M  V30 5954 N 580.625 2.26891 4.52055 0
M  V30 5955 C 578.923 0.921768 4.36371 0
M  V30 5956 C 579.624 2.90636 5.0389 0
M  V30 5957 N 578.6 2.18266 4.97856 0
M  V30 5958 H 582.402 1.5765 2.4804 0
M  V30 5959 H 579.916 0.954374 1.31398 0
M  V30 5960 H 581.913 -0.224289 4.16296 0
M  V30 5961 H 580.573 -0.812206 3.14378 0
M  V30 5962 H 581.584 2.6457 4.45223 0
M  V30 5963 H 578.261 0.0800499 4.17423 0
M  V30 5964 H 579.651 3.9104 5.46386 0
M  V30 5965 N 582.371 -1.3172 0.865308 0
M  V30 5966 C 583.599 -2.01057 0.488251 0
M  V30 5967 C 584.014 -1.64979 -0.918 0
M  V30 5968 O 583.371 -0.876597 -1.60069 0
M  V30 5969 C 583.422 -3.55964 0.630224 0
M  V30 5970 O 583.143 -3.90749 1.98109 0
M  V30 5971 C 584.644 -4.42574 0.253567 0
M  V30 5972 H 581.864 -0.64332 0.190736 0
M  V30 5973 H 584.408 -1.68058 1.16519 0
M  V30 5974 H 582.563 -3.874 0.000895422 0
M  V30 5975 H 582.977 -4.85467 1.9855 0
M  V30 5976 H 584.451 -5.50521 0.403875 0
M  V30 5977 H 584.928 -4.31724 -0.806895 0
M  V30 5978 H 585.534 -4.16547 0.858404 0
M  V30 5979 N 583.85 -0.624285 -1.44708 0
M  V30 5980 C 584.779 0.0717025 -2.3339 0
M  V30 5981 C 585.76 0.841814 -1.47809 0
M  V30 5982 O 586.946 0.809056 -1.76544 0
M  V30 5983 C 584.076 1.05852 -3.30776 0
M  V30 5984 C 583.029 0.400503 -4.26122 0
M  V30 5985 C 582.356 1.49674 -5.13324 0
M  V30 5986 C 583.656 -0.688924 -5.17737 0
M  V30 5987 H 585.35 -0.668819 -2.91834 0
M  V30 5988 H 582.896 -0.32308 -1.40329 0
M  V30 5989 H 584.849 1.5541 -3.91696 0
M  V30 5990 H 583.572 1.82984 -2.70526 0
M  V30 5991 H 582.231 -0.0743687 -3.66525 0
M  V30 5992 H 581.88 2.25877 -4.49431 0
M  V30 5993 H 581.58 1.06188 -5.77926 0
M  V30 5994 H 583.104 1.99427 -5.77115 0
M  V30 5995 H 584.518 -0.276724 -5.72632 0
M  V30 5996 H 582.915 -1.04652 -5.90904 0
M  V30 5997 H 583.985 -1.55884 -4.5916 0
M  V30 5998 N 585.328 1.53329 -0.364422 0
M  V30 5999 C 586.576 2.00842 0.225189 0
M  V30 6000 C 586.897 1.25345 1.49378 0
M  V30 6001 O 586.167 0.366396 1.92443 0
M  V30 6002 H 584.747 0.742009 0.0862027 0
M  V30 6003 H 587.409 1.8863 -0.490389 0
M  V30 6004 H 586.505 3.08795 0.452987 0
M  V30 6005 N 586.806 0.0935595 1.57322 0
M  V30 6006 C 588.052 -0.571355 1.94585 0
M  V30 6007 C 588.385 -1.67929 0.975366 0
M  V30 6008 O 587.66 -1.94498 0.00816206 0
M  V30 6009 C 587.943 -1.12797 3.41978 0
M  V30 6010 C 587.796 -0.0251881 4.49793 0
M  V30 6011 C 589.115 -2.02682 3.90651 0
M  V30 6012 H 586.234 -0.206223 0.70756 0
M  V30 6013 H 588.876 0.163956 1.89291 0
M  V30 6014 H 587.026 -1.75461 3.4662 0
M  V30 6015 H 588.698 0.608979 4.57263 0
M  V30 6016 H 586.941 0.641399 4.29032 0
M  V30 6017 H 587.612 -0.455433 5.50118 0
M  V30 6018 H 590.088 -1.49925 3.88152 0
M  V30 6019 H 588.964 -2.38555 4.94351 0
M  V30 6020 H 589.225 -2.94362 3.29854 0
M  V30 6021 N 588.284 -1.56567 -0.180126 0
M  V30 6022 C 589.232 -1.96632 -1.24251 0
M  V30 6023 C 590.226 -0.853818 -1.46309 0
M  V30 6024 O 591.432 -1.0389 -1.46993 0
M  V30 6025 H 587.807 -0.625476 -0.417473 0
M  V30 6026 H 589.778 -2.85201 -0.877679 0
M  V30 6027 C 588.527 -2.33486 -2.57642 0
M  V30 6028 H 587.85 -3.18626 -2.4149 0
M  V30 6029 H 589.29 -2.65371 -3.30688 0
M  V30 6030 C 587.749 -1.17499 -3.15746 0
M  V30 6031 O 588.279 -0.457956 -3.99081 0
M  V30 6032 N 586.485 -0.94786 -2.74707 0
M  V30 6033 H 586.032 -1.53269 -2.07042 0
M  V30 6034 H 585.99 -0.173626 -3.1392 0
M  V30 6035 N 589.762 0.448376 -1.51087 0
M  V30 6036 C 591.008 1.19748 -1.64414 0
M  V30 6037 C 591.363 1.89177 -0.350715 0
M  V30 6038 O 590.656 1.80135 0.652834 0
M  V30 6039 C 590.85 2.24866 -2.77795 0
M  V30 6040 C 590.679 1.65753 -4.18038 0
M  V30 6041 C 589.449 1.44728 -4.8413 0
M  V30 6042 C 591.647 1.13985 -5.0151 0
M  V30 6043 N 589.629 0.810962 -6.0852 0
M  V30 6044 C 591 0.628141 -6.1681 0
M  V30 6045 C 593.055 1.03055 -4.87118 0
M  V30 6046 C 591.758 0.0178906 -7.19298 0
M  V30 6047 C 593.784 0.434212 -5.89804 0
M  V30 6048 C 593.146 -0.0670069 -7.04368 0
M  V30 6049 H 589.245 0.426254 -0.655615 0
M  V30 6050 H 591.829 0.495806 -1.88281 0
M  V30 6051 H 590 2.92434 -2.55611 0
M  V30 6052 H 591.732 2.91857 -2.8036 0
M  V30 6053 H 588.487 1.70593 -4.41809 0
M  V30 6054 H 588.911 0.510563 -6.75072 0
M  V30 6055 H 593.553 1.40395 -3.9881 0
M  V30 6056 H 591.271 -0.367662 -8.07263 0
M  V30 6057 H 594.857 0.3517 -5.80736 0
M  V30 6058 H 593.737 -0.521209 -7.82466 0
M  V30 6059 N 591.24 1.41047 0.703093 0
M  V30 6060 C 592.47 1.43133 1.48985 0
M  V30 6061 C 592.878 0.0328537 1.89171 0
M  V30 6062 O 592.221 -0.956469 1.56835 0
M  V30 6063 C 592.283 2.26991 2.78775 0
M  V30 6064 C 591.947 3.7525 2.60837 0
M  V30 6065 C 592.944 4.67591 2.27276 0
M  V30 6066 C 590.629 4.19208 2.76712 0
M  V30 6067 C 592.623 6.01877 2.09817 0
M  V30 6068 C 590.31 5.53561 2.5887 0
M  V30 6069 C 591.308 6.4471 2.25472 0
M  V30 6070 O 590.996 7.76584 2.07778 0
M  V30 6071 H 590.728 0.489788 0.465922 0
M  V30 6072 H 593.282 1.85886 0.873822 0
M  V30 6073 H 591.512 1.79038 3.42757 0
M  V30 6074 H 593.201 2.20867 3.40547 0
M  V30 6075 H 593.967 4.34923 2.14633 0
M  V30 6076 H 589.846 3.48572 3.01693 0
M  V30 6077 H 593.39 6.72986 1.83671 0
M  V30 6078 H 589.287 5.85811 2.71102 0
M  V30 6079 H 590.055 7.87649 2.22601 0
M  V30 6080 N 592.718 -0.936591 1.26751 0
M  V30 6081 C 593.681 -2.01752 1.08761 0
M  V30 6082 C 594.681 -1.60763 0.0344435 0
M  V30 6083 O 595.871 -1.71963 0.278258 0
M  V30 6084 C 593.003 -3.34543 0.655271 0
M  V30 6085 H 594.196 -2.19143 2.04735 0
M  V30 6086 H 591.749 -1.11618 1.09413 0
M  V30 6087 H 592.484 -3.22851 -0.30626 0
M  V30 6088 H 592.269 -3.65647 1.41578 0
M  V30 6089 H 593.759 -4.13944 0.551378 0
M  V30 6090 N 594.196 -1.08629 -1.14182 0
M  V30 6091 C 595.144 -0.71284 -2.21408 0
M  V30 6092 C 596.138 0.282457 -1.67029 0
M  V30 6093 O 597.344 0.144783 -1.79417 0
M  V30 6094 H 593.719 -0.212497 -0.721352 0
M  V30 6095 H 595.69 -1.6265 -2.50175 0
M  V30 6096 C 594.439 -0.140704 -3.47415 0
M  V30 6097 H 593.762 -0.897739 -3.8959 0
M  V30 6098 H 595.202 0.0827677 -4.23919 0
M  V30 6099 C 593.661 1.122 -3.17668 0
M  V30 6100 O 594.191 2.20652 -3.35672 0
M  V30 6101 N 592.397 1.03328 -2.71609 0
M  V30 6102 H 591.944 0.150666 -2.57159 0
M  V30 6103 H 591.902 1.8789 -2.52081 0
M  V30 6104 N 595.674 1.31259 -0.872281 0
M  V30 6105 C 596.584 2.32221 -0.333255 0
M  V30 6106 C 597.6 1.6481 0.558013 0
M  V30 6107 O 598.776 1.96212 0.454175 0
M  V30 6108 C 595.841 3.43708 0.454479 0
M  V30 6109 C 594.902 4.26774 -0.465024 0
M  V30 6110 C 594.135 5.32937 0.28521 0
M  V30 6111 O 594.358 5.49968 1.513 0
M  V30 6112 O 593.292 6.00834 -0.358126 0
M  V30 6113 H 597.118 2.80252 -1.17016 0
M  V30 6114 H 594.703 1.352 -0.635724 0
M  V30 6115 H 596.585 4.11656 0.900963 0
M  V30 6116 H 595.26 2.97836 1.26789 0
M  V30 6117 H 594.167 3.61571 -0.960055 0
M  V30 6118 H 595.5 4.76217 -1.2441 0
M  V30 6119 N 597.152 0.631951 1.44375 0
M  V30 6120 C 598.115 -0.0628142 2.29114 0
M  V30 6121 C 599.115 -0.771494 1.41084 0
M  V30 6122 O 600.305 -0.615959 1.62947 0
M  V30 6123 C 597.437 -1.09953 3.22681 0
M  V30 6124 H 598.63 0.682509 2.92031 0
M  V30 6125 H 596.183 0.392128 1.51301 0
M  V30 6126 H 596.918 -1.87481 2.64616 0
M  V30 6127 H 596.703 -0.595286 3.87555 0
M  V30 6128 H 598.193 -1.58538 3.86336 0
M  V30 6129 N 598.631 -1.53133 0.372548 0
M  V30 6130 C 599.877 -2.01654 -0.215277 0
M  V30 6131 C 600.21 -1.25914 -1.47849 0
M  V30 6132 O 599.485 -0.3548 -1.91237 0
M  V30 6133 C 599.768 -3.56609 -0.500187 0
M  V30 6134 C 599.621 -4.43036 0.777145 0
M  V30 6135 C 600.94 -4.20528 -1.29786 0
M  V30 6136 H 598.059 -0.732991 -0.0767686 0
M  V30 6137 H 600.701 -1.83335 0.498814 0
M  V30 6138 H 598.851 -3.7235 -1.10852 0
M  V30 6139 H 600.523 -4.39079 1.41447 0
M  V30 6140 H 598.766 -4.10723 1.39604 0
M  V30 6141 H 599.437 -5.49424 0.532662 0
M  V30 6142 H 601.913 -4.08663 -0.783198 0
M  V30 6143 H 600.789 -5.28962 -1.46596 0
M  V30 6144 H 601.05 -3.77051 -2.30836 0
M  V30 6145 N 600.109 -0.101901 -1.5727 0
M  V30 6146 C 601.056 0.854577 -2.14396 0
M  V30 6147 C 602.026 1.27521 -1.06432 0
M  V30 6148 O 603.211 1.35575 -1.34253 0
M  V30 6149 C 600.351 2.10576 -2.73408 0
M  V30 6150 C 599.464 1.73504 -3.95626 0
M  V30 6151 C 598.599 2.9346 -4.42781 0
M  V30 6152 C 597.638 2.52547 -5.57572 0
M  V30 6153 N 596.775 3.65359 -5.99547 0
M  V30 6154 H 601.615 0.360578 -2.9581 0
M  V30 6155 H 599.152 0.166303 -1.46157 0
M  V30 6156 H 601.11 2.83859 -3.05745 0
M  V30 6157 H 599.74 2.57463 -1.94711 0
M  V30 6158 H 598.792 0.901622 -3.6956 0
M  V30 6159 H 600.104 1.39426 -4.78917 0
M  V30 6160 H 599.258 3.74988 -4.76937 0
M  V30 6161 H 597.997 3.30753 -3.58404 0
M  V30 6162 H 597.002 1.69446 -5.23037 0
M  V30 6163 H 598.227 2.1639 -6.43702 0
M  V30 6164 H 596.173 4.02358 -5.18116 0
M  V30 6165 H 596.09 3.35148 -6.77652 0
M  V30 6166 H 597.358 4.47378 -6.38336 0
M  V30 6167 N 601.587 1.56661 0.17182 0
M  V30 6168 C 602.833 1.82235 0.889845 0
M  V30 6169 C 603.166 0.679673 1.81918 0
M  V30 6170 O 602.441 -0.318404 1.91876 0
M  V30 6171 C 602.724 3.18195 1.68595 0
M  V30 6172 C 602.577 4.42989 0.779773 0
M  V30 6173 C 603.896 3.5109 2.65375 0
M  V30 6174 H 601.015 0.66291 0.322056 0
M  V30 6175 H 603.657 1.89358 0.15608 0
M  V30 6176 H 601.807 3.12253 2.3115 0
M  V30 6177 H 603.479 4.60997 0.16714 0
M  V30 6178 H 601.722 4.33711 0.0877964 0
M  V30 6179 H 602.393 5.3467 1.3723 0
M  V30 6180 H 604.869 3.57482 2.12946 0
M  V30 6181 H 603.745 4.47298 3.18144 0
M  V30 6182 H 604.006 2.75768 3.45549 0
M  V30 6183 N 603.065 -0.440357 1.51323 0
M  V30 6184 C 604.29 -1.21716 1.67928 0
M  V30 6185 C 604.715 -1.84328 0.374826 0
M  V30 6186 O 604.073 -1.68675 -0.664706 0
M  V30 6187 C 604.121 -2.27914 2.79442 0
M  V30 6188 O 603.225 -3.33325 2.42834 0
M  V30 6189 H 602.566 -0.35674 0.560029 0
M  V30 6190 H 605.096 -0.520417 1.97871 0
M  V30 6191 H 605.106 -2.72746 3.03436 0
M  V30 6192 H 603.781 -1.8172 3.741 0
M  V30 6193 H 602.358 -2.9399 2.294 0
M  V30 6194 N 604.543 -1.41418 -0.695603 0
M  V30 6195 C 605.506 -1.42988 -1.79129 0
M  V30 6196 C 606.506 -0.320514 -1.57573 0
M  V30 6197 O 607.696 -0.58039 -1.64247 0
M  V30 6198 C 604.828 -1.24122 -3.175 0
M  V30 6199 H 606.021 -2.40526 -1.7913 0
M  V30 6200 H 603.574 -1.2756 -0.903225 0
M  V30 6201 H 604.309 -0.274253 -3.23138 0
M  V30 6202 H 604.094 -2.045 -3.34547 0
M  V30 6203 H 605.584 -1.28056 -3.97481 0
M  V30 6204 N 606.021 0.929856 -1.27246 0
M  V30 6205 C 606.969 2.05151 -1.09616 0
M  V30 6206 C 607.963 1.69388 -0.0198617 0
M  V30 6207 O 609.169 1.79124 -0.177417 0
M  V30 6208 H 605.544 0.671909 -0.337701 0
M  V30 6209 H 607.515 2.17168 -2.04648 0
M  V30 6210 C 606.264 3.3934 -0.757851 0
M  V30 6211 H 605.587 3.67343 -1.57795 0
M  V30 6212 H 607.027 4.18603 -0.674358 0
M  V30 6213 C 605.486 3.32582 0.537658 0
M  V30 6214 O 606.016 3.69633 1.57271 0
M  V30 6215 N 604.222 2.8568 0.532478 0
M  V30 6216 H 603.769 2.55725 -0.310233 0
M  V30 6217 H 603.727 2.81541 1.39936 0
M  V30 6218 N 607.499 1.09233 1.13605 0
M  V30 6219 C 608.729 0.847677 1.88409 0
M  V30 6220 C 609.137 -0.604524 1.79282 0
M  V30 6221 O 608.48 -1.42773 1.15592 0
M  V30 6222 C 608.542 1.20153 3.38827 0
M  V30 6223 C 608.206 2.65824 3.71735 0
M  V30 6224 C 609.203 3.64072 3.71143 0
M  V30 6225 C 606.888 3.01894 4.01454 0
M  V30 6226 C 608.882 4.96419 3.99808 0
M  V30 6227 C 606.569 4.34433 4.29781 0
M  V30 6228 C 607.567 5.31505 4.28942 0
M  V30 6229 O 607.255 6.61659 4.56576 0
M  V30 6230 H 606.987 0.304813 0.603378 0
M  V30 6231 H 609.541 1.4573 1.44748 0
M  V30 6232 H 607.771 0.534946 3.82982 0
M  V30 6233 H 609.46 0.936349 3.94952 0
M  V30 6234 H 610.226 3.37549 3.4826 0
M  V30 6235 H 606.105 2.26971 4.01255 0
M  V30 6236 H 609.649 5.7218 3.99069 0
M  V30 6237 H 605.546 4.607 4.52135 0
M  V30 6238 H 606.314 6.67102 4.74254 0
M  V30 6239 N 608.977 -1.30795 0.87923 0
M  V30 6240 C 610.223 -1.96653 0.495519 0
M  V30 6241 C 610.556 -1.69282 -0.951703 0
M  V30 6242 O 609.831 -0.994374 -1.6716 0
M  V30 6243 C 610.114 -3.51898 0.764174 0
M  V30 6244 C 609.967 -3.88808 2.2616 0
M  V30 6245 C 611.286 -4.39462 0.236825 0
M  V30 6246 H 608.405 -0.7143 0.181507 0
M  V30 6247 H 611.047 -1.54765 1.10217 0
M  V30 6248 H 609.197 -3.87709 0.247841 0
M  V30 6249 H 610.869 -3.63051 2.8459 0
M  V30 6250 H 609.112 -3.37082 2.73053 0
M  V30 6251 H 609.783 -4.97086 2.4002 0
M  V30 6252 H 612.259 -4.10528 0.678683 0
M  V30 6253 H 611.135 -5.47018 0.454176 0
M  V30 6254 H 611.396 -4.33621 -0.861683 0
M  V30 6255 N 610.455 -0.639598 -1.44038 0
M  V30 6256 C 611.402 0.0602458 -2.30721 0
M  V30 6257 C 612.372 0.828352 -1.43971 0
M  V30 6258 O 613.557 0.807693 -1.72861 0
M  V30 6259 C 610.697 1.03008 -3.29368 0
M  V30 6260 C 609.81 0.259502 -4.3122 0
M  V30 6261 C 608.945 1.22191 -5.16955 0
M  V30 6262 C 607.984 0.440978 -6.10509 0
M  V30 6263 N 607.121 1.35428 -6.88915 0
M  V30 6264 H 611.961 -0.684867 -2.90023 0
M  V30 6265 H 609.498 -0.349509 -1.42888 0
M  V30 6266 H 611.456 1.60583 -3.85057 0
M  V30 6267 H 610.086 1.74222 -2.71747 0
M  V30 6268 H 609.138 -0.432317 -3.77935 0
M  V30 6269 H 610.45 -0.348347 -4.97582 0
M  V30 6270 H 609.604 1.86873 -5.77203 0
M  V30 6271 H 608.343 1.86367 -4.50687 0
M  V30 6272 H 607.348 -0.219279 -5.49363 0
M  V30 6273 H 608.573 -0.196192 -6.78817 0
M  V30 6274 H 606.519 1.9831 -6.25307 0
M  V30 6275 H 606.436 0.800657 -7.51748 0
M  V30 6276 H 607.704 1.98967 -7.53679 0
M  V30 6277 N 611.933 1.52934 -0.380664 0
M  V30 6278 C 612.896 2.24809 0.446473 0
M  V30 6279 C 613.896 1.26133 0.997347 0
M  V30 6280 O 615.086 1.50297 0.880714 0
M  V30 6281 C 612.218 2.99649 1.62553 0
M  V30 6282 H 613.411 2.99343 -0.182677 0
M  V30 6283 H 610.964 1.55736 -0.132618 0
M  V30 6284 H 611.699 2.29395 2.29235 0
M  V30 6285 H 611.484 3.72066 1.23732 0
M  V30 6286 H 612.974 3.54246 2.21133 0
M  V30 6287 N 613.412 0.11024 1.57214 0
M  V30 6288 C 614.359 -0.843195 2.14846 0
M  V30 6289 C 615.329 -1.26954 1.07107 0
M  V30 6290 O 616.514 -1.34861 1.34971 0
M  V30 6291 C 613.654 -2.09123 2.74521 0
M  V30 6292 C 612.767 -1.71404 3.96541 0
M  V30 6293 C 611.902 -2.91107 4.44331 0
M  V30 6294 C 610.941 -2.49586 5.58903 0
M  V30 6295 N 610.078 -3.62175 6.01477 0
M  V30 6296 H 614.918 -0.344886 2.95998 0
M  V30 6297 H 612.455 -0.15855 1.46243 0
M  V30 6298 H 614.413 -2.82234 3.07246 0
M  V30 6299 H 613.043 -2.56427 1.96074 0
M  V30 6300 H 612.095 -0.88201 3.70033 0
M  V30 6301 H 613.407 -1.36884 4.7965 0
M  V30 6302 H 612.561 -3.72454 4.78919 0
M  V30 6303 H 611.3 -3.28848 3.60153 0
M  V30 6304 H 610.305 -1.6667 5.23929 0
M  V30 6305 H 611.53 -2.12973 6.4484 0
M  V30 6306 H 609.476 -3.99605 5.20242 0
M  V30 6307 H 609.393 -3.3155 6.79419 0
M  V30 6308 H 610.661 -4.43987 6.407 0
M  V30 6309 N 614.89 -1.56749 -0.16351 0
M  V30 6310 C 616.118 -1.86577 -0.894233 0
M  V30 6311 C 616.533 -0.696543 -1.75481 0
M  V30 6312 O 615.89 0.334161 -1.79415 0
M  V30 6313 C 615.941 -3.15508 -1.76456 0
M  V30 6314 O 615.662 -4.27926 -0.938685 0
M  V30 6315 C 617.163 -3.58737 -2.60428 0
M  V30 6316 H 614.383 -0.618829 -0.259405 0
M  V30 6317 H 616.927 -2.03863 -0.161259 0
M  V30 6318 H 615.082 -3.00025 -2.45079 0
M  V30 6319 H 615.496 -5.01546 -1.53465 0
M  V30 6320 H 616.97 -4.51832 -3.17099 0
M  V30 6321 H 617.447 -2.83229 -3.35675 0
M  V30 6322 H 618.053 -3.76858 -1.97125 0
M  V30 6323 N 616.368 0.432326 -1.51554 0
M  V30 6324 C 617.645 1.19288 -1.55015 0
M  V30 6325 C 618.025 2.08701 -0.317375 0
M  V30 6326 O 617.373 2.17602 0.697243 0
M  V30 6327 C 617.583 1.99037 -2.86679 0
M  V30 6328 C 618.931 2.55907 -3.38817 0
M  V30 6329 O 619.955 2.09243 -2.88263 0
M  V30 6330 O 618.814 3.41029 -4.27038 0
M  V30 6331 H 615.908 0.543369 -0.623441 0
M  V30 6332 H 618.454 0.440988 -1.6387 0
M  V30 6333 H 617.226 1.33397 -3.6786 0
M  V30 6334 H 616.849 2.81281 -2.8101 0
M  V30 6335 N 617.846 1.41785 0.688094 0
M  V30 6336 C 618.793 1.44221 1.80191 0
M  V30 6337 C 619.763 0.295688 1.63447 0
M  V30 6338 O 620.948 0.49783 1.84191 0
M  V30 6339 C 618.088 1.33743 3.1813 0
M  V30 6340 C 617.201 2.58325 3.46254 0
M  V30 6341 C 616.336 2.40086 4.73848 0
M  V30 6342 C 615.375 3.60107 4.94964 0
M  V30 6343 N 614.512 3.40892 6.13789 0
M  V30 6344 H 619.352 2.39411 1.77444 0
M  V30 6345 H 616.889 1.18876 0.866423 0
M  V30 6346 H 618.847 1.25669 3.97823 0
M  V30 6347 H 617.477 0.42157 3.20035 0
M  V30 6348 H 616.529 2.7682 2.60912 0
M  V30 6349 H 617.841 3.4758 3.57756 0
M  V30 6350 H 616.995 2.29522 5.61609 0
M  V30 6351 H 615.734 1.483 4.64606 0
M  V30 6352 H 614.739 3.71118 4.05649 0
M  V30 6353 H 615.964 4.52857 5.06061 0
M  V30 6354 H 613.91 2.51812 6.05745 0
M  V30 6355 H 613.827 4.23727 6.26092 0
M  V30 6356 H 615.095 3.34114 7.04264 0
M  V30 6357 N 619.324 -0.923095 1.27737 0
M  V30 6358 C 620.573 -1.66581 1.13727 0
M  V30 6359 C 620.886 -1.9304 -0.315433 0
M  V30 6360 O 622.092 -2.65309 -0.57651 0
M  V30 6361 C 620.548 -3.00047 1.98745 0
M  V30 6362 C 620.156 -2.8127 3.48699 0
M  V30 6363 C 621.9 -3.77887 1.93395 0
M  V30 6364 C 619.807 -4.1032 4.25901 0
M  V30 6365 H 618.737 -0.624834 0.422017 0
M  V30 6366 H 621.388 -1.02514 1.52194 0
M  V30 6367 H 619.77 -3.65197 1.53125 0
M  V30 6368 H 620.944 -2.24859 4.02213 0
M  V30 6369 H 619.259 -2.16854 3.55476 0
M  V30 6370 H 621.856 -4.73526 2.48348 0
M  V30 6371 H 622.199 -4.06264 0.908605 0
M  V30 6372 H 622.732 -3.19541 2.36935 0
M  V30 6373 H 619.471 -3.8712 5.28978 0
M  V30 6374 H 618.991 -4.66377 3.77163 0
M  V30 6375 H 620.67 -4.78648 4.35321 0
M  V30 6376 N 620.802 -1.09834 -1.13024 0
M  V30 6377 C 622.027 -0.85909 -1.88771 0
M  V30 6378 C 622.452 0.584402 -1.78791 0
M  V30 6379 O 621.81 1.41101 -1.13842 0
M  V30 6380 C 621.858 -1.30427 -3.36186 0
M  V30 6381 O 620.962 -0.465368 -4.09766 0
M  V30 6382 H 620.303 -0.310786 -0.586778 0
M  V30 6383 H 622.833 -1.46355 -1.42973 0
M  V30 6384 H 622.843 -1.2915 -3.8702 0
M  V30 6385 H 621.518 -2.3555 -3.42767 0
M  V30 6386 H 620.095 -0.542814 -3.68928 0
M  V30 6387 N 622.28 1.30327 -0.886154 0
M  V30 6388 C 623.228 2.30052 -0.343317 0
M  V30 6389 C 624.222 1.60212 0.550305 0
M  V30 6390 O 625.428 1.74674 0.434609 0
M  V30 6391 H 621.803 0.746306 -0.0923681 0
M  V30 6392 H 623.774 2.73294 -1.19804 0
M  V30 6393 C 622.523 3.45079 0.426107 0
M  V30 6394 H 621.846 3.99003 -0.25227 0
M  V30 6395 H 623.286 4.16931 0.771009 0
M  V30 6396 C 621.745 2.95195 1.62363 0
M  V30 6397 O 622.275 2.95323 2.723 0
M  V30 6398 N 620.481 2.51192 1.4612 0
M  V30 6399 H 620.028 2.51286 0.566832 0
M  V30 6400 H 619.986 2.18173 2.2638 0
M  V30 6401 N 623.758 0.647228 1.43697 0
M  V30 6402 C 624.721 -0.0385101 2.29168 0
M  V30 6403 C 625.721 -0.756487 1.41894 0
M  V30 6404 O 626.911 -0.598641 1.63591 0
M  V30 6405 C 624.043 -1.06524 3.23829 0
M  V30 6406 H 625.236 0.713445 2.9129 0
M  V30 6407 H 622.789 0.408153 1.50877 0
M  V30 6408 H 623.524 -1.84664 2.66589 0
M  V30 6409 H 623.309 -0.554147 3.88164 0
M  V30 6410 H 624.799 -1.54432 3.87996 0
M  V30 6411 N 625.236 -1.5273 0.388769 0
M  V30 6412 C 626.184 -2.27975 -0.461527 0
M  V30 6413 C 627.178 -1.31854 -1.06352 0
M  V30 6414 O 628.384 -1.49394 -1.00406 0
M  V30 6415 H 624.759 -0.733088 -0.16759 0
M  V30 6416 H 626.73 -2.97765 0.194579 0
M  V30 6417 C 625.479 -3.09881 -1.577 0
M  V30 6418 H 624.802 -3.83701 -1.12309 0
M  V30 6419 H 626.242 -3.6567 -2.14619 0
M  V30 6420 C 624.701 -2.22159 -2.53272 0
M  V30 6421 O 625.231 -1.84802 -3.56667 0
M  V30 6422 N 623.437 -1.8633 -2.23001 0
M  V30 6423 H 622.984 -2.16909 -1.38954 0
M  V30 6424 H 622.942 -1.27927 -2.87197 0
M  V30 6425 N 626.714 -0.118576 -1.57153 0
M  V30 6426 C 627.962 0.538461 -1.94795 0
M  V30 6427 C 628.283 1.67243 -1.00274 0
M  V30 6428 O 627.553 1.95811 -0.0589692 0
M  V30 6429 H 626.133 0.201904 -0.719197 0
M  V30 6430 H 628.795 -0.187418 -1.93997 0
M  V30 6431 H 627.891 0.933315 -2.97818 0
M  V30 6432 N 628.193 1.56834 0.155195 0
M  V30 6433 C 629.47 1.73799 0.897395 0
M  V30 6434 C 629.85 0.684379 1.99698 0
M  V30 6435 O 629.198 -0.298111 2.26547 0
M  V30 6436 C 629.408 3.17572 1.44737 0
M  V30 6437 C 630.756 3.79014 1.91399 0
M  V30 6438 O 631.78 3.20951 1.54496 0
M  V30 6439 O 630.639 4.80998 2.59429 0
M  V30 6440 H 627.733 0.710329 0.423511 0
M  V30 6441 H 630.279 1.69107 0.141761 0
M  V30 6442 H 629.051 3.85749 0.656741 0
M  V30 6443 H 628.674 3.26657 2.26674 0
M  V30 6444 N 629.671 -0.424282 1.51781 0
M  V30 6445 C 630.948 -1.18464 1.55646 0
M  V30 6446 C 631.328 -2.08529 0.328438 0
M  V30 6447 O 630.676 -2.17969 -0.685693 0
M  V30 6448 C 630.886 -1.97514 2.87731 0
M  V30 6449 C 632.234 -2.54106 3.40169 0
M  V30 6450 O 633.258 -2.07711 2.89369 0
M  V30 6451 O 632.117 -3.38759 4.28841 0
M  V30 6452 H 629.211 -0.540055 0.626314 0
M  V30 6453 H 631.757 -0.432291 1.64102 0
M  V30 6454 H 630.529 -1.31444 3.68562 0
M  V30 6455 H 630.152 -2.79787 2.82498 0
M  V30 6456 N 631.149 -1.42148 -0.680565 0
M  V30 6457 C 632.374 -1.45901 -1.47403 0
M  V30 6458 C 632.799 -0.0700985 -1.87969 0
M  V30 6459 O 632.157 0.930145 -1.55621 0
M  V30 6460 C 632.205 -2.38661 -2.70321 0
M  V30 6461 O 631.309 -1.85399 -3.68376 0
M  V30 6462 H 630.65 -0.494565 -0.443059 0
M  V30 6463 H 633.18 -1.86774 -0.835251 0
M  V30 6464 H 633.19 -2.55046 -3.18458 0
M  V30 6465 H 631.865 -3.39571 -2.40134 0
M  V30 6466 H 630.442 -1.78541 -3.2738 0
M  V30 6467 N 632.627 0.916307 -1.28225 0
M  V30 6468 C 633.875 1.6619 -1.15002 0
M  V30 6469 C 634.196 1.92642 0.302329 0
M  V30 6470 O 633.466 1.54076 1.20985 0
M  V30 6471 H 632.046 0.615964 -0.422608 0
M  V30 6472 H 634.708 1.09963 -1.60917 0
M  V30 6473 H 633.804 2.62533 -1.68769 0
M  V30 6474 N 634.105 1.10431 1.1244 0
M  V30 6475 C 635.382 0.758797 1.80282 0
M  V30 6476 C 635.762 -0.754727 1.97147 0
M  V30 6477 O 635.11 -1.68094 1.54779 0
M  V30 6478 C 635.32 1.50982 3.14651 0
M  V30 6479 C 636.668 1.68232 3.8985 0
M  V30 6480 O 637.692 1.47319 3.24308 0
M  V30 6481 O 636.551 2.02905 5.07437 0
M  V30 6482 H 633.645 0.273756 0.780376 0
M  V30 6483 H 636.191 1.20713 1.19275 0
M  V30 6484 H 634.963 2.53989 2.97666 0
M  V30 6485 H 634.586 1.05435 3.83366 0
M  V30 6486 N 635.583 -1.29855 0.893053 0
M  V30 6487 C 636.831 -1.9544 0.514566 0
M  V30 6488 C 637.152 -1.70795 -0.940959 0
M  V30 6489 O 636.422 -1.03601 -1.66264 0
M  V30 6490 H 635.002 -0.723137 0.187302 0
M  V30 6491 H 637.664 -1.58234 1.13789 0
M  V30 6492 H 636.76 -3.04341 0.691581 0
M  V30 6493 N 637.061 -0.65484 -1.43351 0
M  V30 6494 C 637.991 0.0221809 -2.33489 0
M  V30 6495 C 638.972 0.810272 -1.49561 0
M  V30 6496 O 640.157 0.771426 -1.78221 0
M  V30 6497 C 637.287 0.988117 -3.32947 0
M  V30 6498 C 636.241 0.310026 -4.26876 0
M  V30 6499 C 635.567 1.38752 -5.16384 0
M  V30 6500 C 636.867 -0.798589 -5.16159 0
M  V30 6501 H 638.561 -0.730571 -2.9035 0
M  V30 6502 H 636.107 -0.352773 -1.39612 0
M  V30 6503 H 638.06 1.47067 -3.94904 0
M  V30 6504 H 636.784 1.77205 -2.74346 0
M  V30 6505 H 635.443 -0.152097 -3.66284 0
M  V30 6506 H 635.091 2.16293 -4.54121 0
M  V30 6507 H 634.791 0.939051 -5.80048 0
M  V30 6508 H 636.315 1.87141 -5.81215 0
M  V30 6509 H 637.729 -0.398126 -5.71916 0
M  V30 6510 H 636.126 -1.17163 -5.88552 0
M  V30 6511 H 637.196 -1.65588 -4.55751 0
M  V30 6512 N 638.539 1.52521 -0.396863 0
M  V30 6513 C 639.785 2.01971 0.183169 0
M  V30 6514 C 640.118 1.2825 1.45827 0
M  V30 6515 O 639.393 0.385179 1.90648 0
M  V30 6516 C 639.676 3.5736 0.443391 0
M  V30 6517 C 639.529 4.41743 -0.84753 0
M  V30 6518 C 640.848 4.22539 1.2308 0
M  V30 6519 H 637.967 0.734119 0.0650976 0
M  V30 6520 H 640.609 1.82519 -0.527918 0
M  V30 6521 H 638.759 3.74066 1.04914 0
M  V30 6522 H 640.431 4.36773 -1.48414 0
M  V30 6523 H 638.674 4.0845 -1.4612 0
M  V30 6524 H 639.345 5.48507 -0.620003 0
M  V30 6525 H 641.821 4.09857 0.718084 0
M  V30 6526 H 640.697 5.31227 1.38162 0
M  V30 6527 H 640.958 3.80675 2.24808 0
M  V30 6528 N 640.017 0.126909 1.57088 0
M  V30 6529 C 640.95 -0.857844 2.11462 0
M  V30 6530 C 641.928 -1.25569 1.03301 0
M  V30 6531 O 643.112 -1.35535 1.31006 0
M  V30 6532 C 640.239 -2.14912 2.61784 0
M  V30 6533 C 639.285 -1.89874 3.81903 0
M  V30 6534 S 640.118 -1.10785 5.23915 0
M  V30 6535 C 641.274 -2.41075 5.7761 0
M  V30 6536 H 641.507 -0.395384 2.94659 0
M  V30 6537 H 639.04 -0.0870151 1.54155 0
M  V30 6538 H 640.998 -2.89101 2.91429 0
M  V30 6539 H 639.659 -2.58275 1.78754 0
M  V30 6540 H 638.852 -2.85572 4.15289 0
M  V30 6541 H 638.454 -1.23802 3.52915 0
M  V30 6542 H 640.746 -3.36864 5.87817 0
M  V30 6543 H 641.689 -2.12223 6.75549 0
M  V30 6544 H 642.097 -2.50804 5.05725 0
M  V30 6545 N 641.495 -1.56914 -0.146875 0
M  V30 6546 C 642.911 -1.51582 -0.499518 0
M  V30 6547 C 643.111 -0.83535 -1.83369 0
M  V30 6548 O 642.167 -0.405932 -2.49216 0
M  V30 6549 C 643.48 -2.96349 -0.509711 0
M  V30 6550 C 645.028 -3.07288 -0.595217 0
M  V30 6551 C 645.503 -4.53562 -0.636071 0
M  V30 6552 N 646.994 -4.57906 -0.69829 0
M  V30 6553 C 647.729 -5.68462 -0.750886 0
M  V30 6554 N 647.225 -6.88588 -0.76282 0
M  V30 6555 N 649.018 -5.56496 -0.791777 0
M  V30 6556 H 641.169 -1.99547 0.727656 0
M  V30 6557 H 643.432 -0.910113 0.265327 0
M  V30 6558 H 643.138 -3.4939 0.402409 0
M  V30 6559 H 643.012 -3.52307 -1.34758 0
M  V30 6560 H 645.399 -2.54266 -1.49776 0
M  V30 6561 H 645.48 -2.54373 0.2698 0
M  V30 6562 H 645.124 -5.07222 0.262313 0
M  V30 6563 H 645.054 -5.04259 -1.51758 0
M  V30 6564 H 647.545 -3.71429 -0.696362 0
M  V30 6565 H 647.858 -7.68598 -0.804804 0
M  V30 6566 H 646.203 -6.91148 -0.730694 0
M  V30 6567 H 649.394 -4.61562 -0.779624 0
M  V30 6568 H 649.567 -6.42671 -0.829301 0
M  V30 6569 N 642.974 0.416227 -1.52004 0
M  V30 6570 C 643.904 1.51365 -1.77795 0
M  V30 6571 C 644.885 1.58059 -0.628601 0
M  V30 6572 O 646.07 1.73447 -0.873478 0
M  V30 6573 C 643.2 2.89256 -1.92219 0
M  V30 6574 C 642.154 2.97415 -3.0778 0
M  V30 6575 C 641.48 4.37492 -3.07417 0
M  V30 6576 C 642.78 2.69551 -4.47369 0
M  V30 6577 H 644.474 1.30033 -2.69688 0
M  V30 6578 H 642.02 0.624112 -1.29772 0
M  V30 6579 H 643.973 3.66008 -2.08845 0
M  V30 6580 H 642.697 3.11866 -0.969917 0
M  V30 6581 H 641.356 2.23107 -2.90893 0
M  V30 6582 H 641.004 4.571 -2.09925 0
M  V30 6583 H 640.704 4.43877 -3.85029 0
M  V30 6584 H 642.228 5.16188 -3.26162 0
M  V30 6585 H 643.642 3.36028 -4.64497 0
M  V30 6586 H 642.039 2.87321 -5.26846 0
M  V30 6587 H 643.109 1.65029 -4.55953 0
M  V30 6588 N 644.452 1.42507 0.673017 0
M  V30 6589 C 645.384 1.42074 1.79854 0
M  V30 6590 C 646.397 0.319569 1.59633 0
M  V30 6591 O 647.586 0.582769 1.68719 0
M  V30 6592 C 644.686 1.19886 3.16987 0
M  V30 6593 C 643.859 2.42471 3.64042 0
M  V30 6594 C 642.918 2.15802 4.79913 0
M  V30 6595 O 641.944 2.89015 4.90366 0
M  V30 6596 N 643.146 1.16225 5.68746 0
M  V30 6597 H 645.911 2.3909 1.8071 0
M  V30 6598 H 643.472 1.37409 0.856171 0
M  V30 6599 H 645.464 0.999591 3.92161 0
M  V30 6600 H 644.034 0.313879 3.1102 0
M  V30 6601 H 643.254 2.77954 2.79526 0
M  V30 6602 H 644.542 3.24097 3.92223 0
M  V30 6603 H 643.94 0.556756 5.62954 0
M  V30 6604 H 642.497 1.02285 6.43724 0
M  V30 6605 N 645.93 -0.909495 1.28709 0
M  V30 6606 C 647.16 -1.69027 1.188 0
M  V30 6607 C 647.568 -1.87469 -0.255329 0
M  V30 6608 O 646.911 -1.40458 -1.18394 0
M  V30 6609 C 646.973 -3.10064 1.81936 0
M  V30 6610 C 646.637 -3.14891 3.31199 0
M  V30 6611 C 647.634 -2.95768 4.27571 0
M  V30 6612 C 645.319 -3.37269 3.7223 0
M  V30 6613 C 647.313 -2.98942 5.6295 0
M  V30 6614 C 645 -3.40074 5.07733 0
M  V30 6615 C 645.998 -3.20932 6.02903 0
M  V30 6616 O 645.686 -3.23507 7.35934 0
M  V30 6617 H 645.418 -0.535014 0.413203 0
M  V30 6618 H 647.972 -1.14645 1.70428 0
M  V30 6619 H 646.202 -3.66005 1.24808 0
M  V30 6620 H 647.891 -3.70185 1.66486 0
M  V30 6621 H 648.657 -2.78302 3.97206 0
M  V30 6622 H 644.536 -3.51212 2.98615 0
M  V30 6623 H 648.08 -2.83919 6.37209 0
M  V30 6624 H 643.977 -3.5707 5.37747 0
M  V30 6625 H 644.745 -3.3984 7.44615 0
M  V30 6626 N 647.408 -1.11026 -1.11852 0
M  V30 6627 C 648.654 -0.857729 -1.83768 0
M  V30 6628 C 648.987 0.615143 -1.842 0
M  V30 6629 O 648.262 1.45391 -1.29196 0
M  V30 6630 C 648.545 -1.41453 -3.31154 0
M  V30 6631 C 648.398 -2.95471 -3.39142 0
M  V30 6632 C 649.717 -1.0619 -4.27097 0
M  V30 6633 H 646.836 -0.313044 -0.667212 0
M  V30 6634 H 649.478 -1.37443 -1.31185 0
M  V30 6635 H 647.628 -0.975052 -3.76065 0
M  V30 6636 H 649.3 -3.4799 -3.02821 0
M  V30 6637 H 647.543 -3.31759 -2.79497 0
M  V30 6638 H 648.214 -3.29515 -4.42859 0
M  V30 6639 H 650.69 -1.44122 -3.90344 0
M  V30 6640 H 649.566 -1.47832 -5.28618 0
M  V30 6641 H 649.827 0.0278912 -4.42091 0
M  V30 6642 N 648.886 1.2938 -0.899927 0
M  V30 6643 C 650.133 1.9555 -0.525963 0
M  V30 6644 C 650.461 1.70945 0.927789 0
M  V30 6645 O 649.716 1.01545 1.67293 0
M  V30 6646 C 650.015 3.49114 -0.765113 0
M  V30 6647 C 649.681 3.93796 -2.19626 0
M  V30 6648 C 648.343 4.05707 -2.58758 0
M  V30 6649 C 650.695 4.16883 -3.12823 0
M  V30 6650 C 648.023 4.38074 -3.90267 0
M  V30 6651 C 650.375 4.50725 -4.4388 0
M  V30 6652 C 649.039 4.60845 -4.82885 0
M  V30 6653 H 648.309 0.715569 -0.192463 0
M  V30 6654 H 650.956 1.53972 -1.13863 0
M  V30 6655 H 649.261 3.91738 -0.069531 0
M  V30 6656 H 650.958 3.98409 -0.455144 0
M  V30 6657 H 647.548 3.85042 -1.88256 0
M  V30 6658 H 651.732 4.07147 -2.83804 0
M  V30 6659 H 646.988 4.44112 -4.20207 0
M  V30 6660 H 651.162 4.67538 -5.16121 0
M  V30 6661 H 648.789 4.85681 -5.84823 0
M  V30 6662 O 650.403 0.801822 1.40189 0
M  V30 6663 H 651.094 0.376359 1.90008 0
M  V30 END ATOM
M  V30 BEGIN BOND
M  V30 END BOND
M  V30 END CTAB
M  END
$$$$
