drugbank_target|P05798 Guanyl-specific ribonuclease Sa (DB01937; DB03178)
 OpenBabel12092119533D

  0  0  0     0  0            999 V3000
M  V30 BEGIN CTAB
M  V30 COUNTS 1443 1461 0 0 0
M  V30 BEGIN ATOM
M  V30 1 H -0.908 1.98254 -0.117106 0
M  V30 2 N 0 1.576 0 0
M  V30 3 C 1.277 1.81792 0.721886 0
M  V30 4 C 1.657 0.877704 1.91988 0
M  V30 5 O 1.005 -0.0735727 2.28382 0
M  V30 6 C 1.215 3.30282 1.12761 0
M  V30 7 C 2.563 3.9602 1.53146 0
M  V30 8 O 3.587 3.34605 1.2214 0
M  V30 9 O 2.446 5.04207 2.10802 0
M  V30 10 H -0.46 0.748582 0.351504 0
M  V30 11 H 2.086 1.69681 -0.025454 0
M  V30 12 H 0.858 3.90342 0.273686 0
M  V30 13 H 0.481 3.47391 1.93405 0
M  V30 14 N 1.4781 -0.272755 1.55222 0
M  V30 15 C 2.7241 -1.00581 1.761 0
M  V30 16 C 3.0571 -1.85932 0.560625 0
M  V30 17 O 2.3321 -1.89416 -0.441801 0
M  V30 18 C 2.6151 -1.88816 3.06628 0
M  V30 19 C 2.4681 -1.06457 4.37021 0
M  V30 20 C 3.7871 -2.8752 3.33197 0
M  V30 21 H 0.9061 -0.364244 0.640699 0
M  V30 22 H 3.5481 -0.278189 1.87952 0
M  V30 23 H 1.6981 -2.50856 2.96654 0
M  V30 24 H 3.3701 -0.464863 4.58952 0
M  V30 25 H 1.6131 -0.368043 4.32236 0
M  V30 26 H 2.2841 -1.71514 5.24678 0
M  V30 27 H 4.7601 -2.35615 3.42965 0
M  V30 28 H 3.6361 -3.46399 4.25792 0
M  V30 29 H 3.8971 -3.62657 2.52849 0
M  V30 30 N 2.9562 -1.48159 -0.537278 0
M  V30 31 C 4.1812 -1.59707 -1.32319 0
M  V30 32 C 4.6062 -0.254859 -1.86365 0
M  V30 33 O 3.9642 0.772378 -1.64024 0
M  V30 34 C 4.0122 -2.6412 -2.45505 0
M  V30 35 O 3.1162 -2.20774 -3.48328 0
M  V30 36 H 2.4572 -0.535791 -0.392204 0
M  V30 37 H 4.9872 -1.94092 -0.647268 0
M  V30 38 H 4.9972 -2.85166 -2.91795 0
M  V30 39 H 3.6722 -3.61567 -2.05528 0
M  V30 40 H 2.2492 -2.09911 -3.08207 0
M  V30 41 N 4.4343 0.785586 -1.36625 0
M  V30 42 C 5.6823 1.54057 -1.30808 0
M  V30 43 C 6.0033 1.94683 0.111157 0
M  V30 44 O 5.2733 1.65241 1.05224 0
M  V30 45 H 3.8533 0.571354 -0.481211 0
M  V30 46 H 6.5153 0.935821 -1.70963 0
M  V30 47 H 5.6113 2.44637 -1.93801 0
M  V30 48 N 5.9124 1.20967 1.01018 0
M  V30 49 C 7.1404 1.04956 1.78303 0
M  V30 50 C 7.5554 -0.400915 1.84494 0
M  V30 51 O 6.9124 -1.27826 1.30257 0
M  V30 52 C 6.9634 1.63403 3.22462 0
M  V30 53 O 6.6844 3.02775 3.16637 0
M  V30 54 C 8.1854 1.52432 4.16268 0
M  V30 55 H 5.4054 0.368858 0.560522 0
M  V30 56 H 7.9494 1.60193 1.27116 0
M  V30 57 H 6.1044 1.1227 3.70775 0
M  V30 58 H 6.5184 3.30626 4.07169 0
M  V30 59 H 7.9924 1.98078 5.15237 0
M  V30 60 H 8.4694 0.477875 4.36592 0
M  V30 61 H 9.0754 2.02787 3.73841 0
M  V30 62 N 7.3905 -1.2043 1.01659 0
M  V30 63 C 8.6365 -1.90079 0.706963 0
M  V30 64 C 8.9695 -1.78648 -0.761474 0
M  V30 65 O 8.2445 -1.17069 -1.55323 0
M  V30 66 C 8.5275 -3.41469 1.14327 0
M  V30 67 C 8.3805 -3.61833 2.67201 0
M  V30 68 C 9.6995 -4.34261 0.714529 0
M  V30 69 H 6.8185 -0.690254 0.2583 0
M  V30 70 H 9.4605 -1.41826 1.26433 0
M  V30 71 H 7.6105 -3.82696 0.669056 0
M  V30 72 H 9.2825 -3.2986 3.22475 0
M  V30 73 H 7.5255 -3.05304 3.08175 0
M  V30 74 H 8.1965 -4.67955 2.92783 0
M  V30 75 H 10.6725 -4.00682 1.12221 0
M  V30 76 H 9.5485 -5.38806 1.04784 0
M  V30 77 H 9.8095 -4.40431 -0.383799 0
M  V30 78 N 8.8686 -0.792821 -1.36206 0
M  V30 79 C 10.1086 -0.372238 -2.00982 0
M  V30 80 C 10.4726 1.03749 -1.61555 0
M  V30 81 O 11.6736 1.55934 -2.18948 0
M  V30 82 C 9.9446 -0.534566 -3.5338 0
M  V30 83 S 11.5036 -0.202365 -4.38333 0
M  V30 84 H 8.3216 -0.142044 -0.696667 0
M  V30 85 H 10.9236 -1.03206 -1.66039 0
M  V30 86 H 9.6276 -1.5608 -3.79562 0
M  V30 87 H 9.1586 0.141065 -3.93147 0
M  V30 88 H 11.1736 0.994869 -4.86124 0
M  V30 89 N 10.3467 1.47872 -0.545128 0
M  V30 90 C 11.2767 2.32661 0.197793 0
M  V30 91 C 12.2577 1.43041 0.920504 0
M  V30 92 O 13.4427 1.71912 0.90333 0
M  V30 93 C 10.5727 3.24569 1.23582 0
M  V30 94 C 9.5267 4.23333 0.630323 0
M  V30 95 C 8.8527 5.0448 1.77211 0
M  V30 96 C 10.1527 5.20704 -0.407974 0
M  V30 97 H 11.8467 2.95024 -0.510045 0
M  V30 98 H 9.3927 1.4187 -0.246731 0
M  V30 99 H 11.3457 3.8272 1.76362 0
M  V30 100 H 10.0697 2.60236 1.97344 0
M  V30 101 H 8.7287 3.6639 0.123922 0
M  V30 102 H 8.3767 4.36561 2.49847 0
M  V30 103 H 8.0767 5.71339 1.37281 0
M  V30 104 H 9.6007 5.65487 2.3034 0
M  V30 105 H 11.0147 5.7329 0.033305 0
M  V30 106 H 9.4117 5.95699 -0.725486 0
M  V30 107 H 10.4817 4.66917 -1.30828 0
M  V30 108 N 11.8248 0.280983 1.55075 0
M  V30 109 C 13.0498 -0.340154 2.04592 0
M  V30 110 C 13.4748 -1.48246 1.15779 0
M  V30 111 O 12.8328 -1.80614 0.15761 0
M  V30 112 C 12.8808 -0.793104 3.5177 0
M  V30 113 O 11.9848 -1.89981 3.66034 0
M  V30 114 H 11.3258 -0.0694289 0.66036 0
M  V30 115 H 13.8558 0.416993 2.00306 0
M  V30 116 H 13.8658 -1.08729 3.93245 0
M  V30 117 H 12.5408 0.0426163 4.15878 0
M  V30 118 H 11.1178 -1.60771 3.36463 0
M  V30 119 N 13.3029 -1.57598 0.00835791 0
M  V30 120 C 14.2659 -2.07884 -0.965242 0
M  V30 121 C 15.2659 -0.989825 -1.26725 0
M  V30 122 O 16.4559 -1.25218 -1.21104 0
M  V30 123 C 13.5879 -2.52731 -2.28779 0
M  V30 124 H 14.7809 -2.95178 -0.530112 0
M  V30 125 H 12.3339 -1.54458 -0.239283 0
M  V30 126 H 13.0689 -1.68705 -2.76964 0
M  V30 127 H 12.8539 -3.32272 -2.08177 0
M  V30 128 H 14.3439 -2.91933 -2.98605 0
M  V30 129 N 14.781 0.264519 -1.55364 0
M  V30 130 C 15.711 1.33121 -1.91836 0
M  V30 131 C 16.692 1.51101 -0.781192 0
M  V30 132 O 17.877 1.64003 -1.04003 0
M  V30 133 C 15.007 2.68921 -2.19769 0
M  V30 134 C 13.961 2.65661 -3.35571 0
M  V30 135 C 13.287 4.05093 -3.49004 0
M  V30 136 C 14.587 2.24187 -4.71739 0
M  V30 137 H 16.281 1.02844 -2.81182 0
M  V30 138 H 13.827 0.493286 -1.35287 0
M  V30 139 H 15.78 3.43663 -2.43872 0
M  V30 140 H 14.504 3.00799 -1.27231 0
M  V30 141 H 13.163 1.93377 -3.1145 0
M  V30 142 H 12.811 4.34206 -2.53917 0
M  V30 143 H 12.511 4.03804 -4.26868 0
M  V30 144 H 14.035 4.81561 -3.75408 0
M  V30 145 H 15.449 2.88654 -4.9533 0
M  V30 146 H 13.846 2.34044 -5.52579 0
M  V30 147 H 14.916 1.19327 -4.69988 0
M  V30 148 N 16.2591 1.48442 0.529413 0
M  V30 149 C 17.6701 1.5002 1.11134 0
M  V30 150 C 18.0211 0.27031 1.94329 0
M  V30 151 O 17.1461 -0.622507 2.07253 0
M  V30 152 C 17.7411 2.71834 2.02217 0
M  V30 153 C 16.3001 2.76283 2.55627 0
M  V30 154 C 15.4471 2.43542 1.326 0
M  V30 155 H 18.3981 1.5555 0.314641 0
M  V30 156 H 18.4191 2.50384 2.8651 0
M  V30 157 H 17.9311 3.61331 1.41639 0
M  V30 158 H 16.0321 1.90995 3.19924 0
M  V30 159 H 16.1451 3.77725 2.94721 0
M  V30 160 H 14.5091 1.94709 1.64196 0
M  V30 161 H 15.2921 3.3528 0.737734 0
M  V30 162 N 17.7372 -0.778329 1.37039 0
M  V30 163 C 19.1482 -1.35421 1.28523 0
M  V30 164 C 19.4992 -1.96075 -0.0700901 0
M  V30 165 O 18.6242 -1.93352 -0.971801 0
M  V30 166 C 19.2192 -2.46211 2.32735 0
M  V30 167 C 17.7782 -2.99585 2.27873 0
M  V30 168 C 16.9252 -1.72748 2.16918 0
M  V30 169 H 19.8762 -0.5791 1.47757 0
M  V30 170 H 19.8972 -3.2552 1.9702 0
M  V30 171 H 19.4092 -2.02036 3.31365 0
M  V30 172 H 17.5102 -3.48152 1.32745 0
M  V30 173 H 17.6232 -3.55646 3.21018 0
M  V30 174 H 15.9872 -1.95416 1.63354 0
M  V30 175 H 16.7702 -1.30686 3.17452 0
M  V30 176 N 19.2153 -1.21501 -1.00376 0
M  V30 177 C 20.1253 -0.991447 -2.12621 0
M  V30 178 C 21.1413 0.0568446 -1.73907 0
M  V30 179 O 22.3173 -0.13348 -2.00957 0
M  V30 180 C 19.3823 -0.560312 -3.42142 0
M  V30 181 C 18.4433 -1.68096 -3.95022 0
M  V30 182 C 17.6763 -1.2703 -5.18362 0
M  V30 183 O 17.8993 -0.144438 -5.70217 0
M  V30 184 O 16.8333 -2.08269 -5.64719 0
M  V30 185 H 20.6593 -1.93158 -2.34358 0
M  V30 186 H 18.2443 -0.999999 -1.10997 0
M  V30 187 H 20.1263 -0.329724 -4.20108 0
M  V30 188 H 18.8013 0.351089 -3.2179 0
M  V30 189 H 17.7083 -1.96597 -3.18278 0
M  V30 190 H 19.0413 -2.56983 -4.19786 0
M  V30 191 N 20.6934 1.19889 -1.02296 0
M  V30 192 C 21.6564 2.21116 -0.603351 0
M  V30 193 C 22.6564 1.5738 0.329884 0
M  V30 194 O 23.8464 1.73802 0.117702 0
M  V30 195 C 20.9784 3.40696 0.117992 0
M  V30 196 H 22.1714 2.59754 -1.49893 0
M  V30 197 H 19.7244 1.33463 -0.813468 0
M  V30 198 H 20.4594 3.07569 1.0282 0
M  V30 199 H 20.2444 3.88188 -0.552511 0
M  V30 200 H 21.7344 4.15692 0.398696 0
M  V30 201 N 22.1715 0.800033 1.35784 0
M  V30 202 C 23.3995 0.389606 2.03199 0
M  V30 203 C 23.8145 -0.997375 1.60306 0
M  V30 204 O 23.1715 -1.64154 0.797481 0
M  V30 205 C 23.2225 0.455855 3.58614 0
M  V30 206 O 22.9435 1.78815 3.99946 0
M  V30 207 C 24.4445 0.0374032 4.43284 0
M  V30 208 H 21.6645 0.159132 0.651857 0
M  V30 209 H 24.2085 1.08183 1.73541 0
M  V30 210 H 22.3635 -0.188057 3.86943 0
M  V30 211 H 22.7775 1.74636 4.94573 0
M  V30 212 H 24.2515 0.134882 5.51835 0
M  V30 213 H 24.7285 -1.01651 4.27275 0
M  V30 214 H 25.3345 0.654215 4.20238 0
M  V30 215 N 23.6496 -1.47581 0.552962 0
M  V30 216 C 24.9266 -1.95563 -0.0381515 0
M  V30 217 C 25.3066 -1.49552 -1.48988 0
M  V30 218 O 24.6546 -0.732414 -2.16444 0
M  V30 219 C 24.8646 -3.48848 0.102919 0
M  V30 220 C 26.2126 -4.24577 -0.0446082 0
M  V30 221 O 27.2366 -3.56187 0.0302548 0
M  V30 222 O 26.0956 -5.46116 -0.204923 0
M  V30 223 H 23.1896 -0.824321 -0.0665067 0
M  V30 224 H 25.7356 -1.58001 0.619186 0
M  V30 225 H 24.5076 -3.75129 1.11328 0
M  V30 226 H 24.1306 -3.93165 -0.592224 0
M  V30 227 N 25.1277 -0.289203 -1.54924 0
M  V30 228 C 26.3557 0.326463 -2.04308 0
M  V30 229 C 26.7707 1.48413 -1.16701 0
M  V30 230 O 26.1277 1.81507 -0.190087 0
M  V30 231 C 26.1787 0.794014 -3.52672 0
M  V30 232 O 25.8997 -0.317564 -4.36948 0
M  V30 233 C 27.4007 1.47605 -4.18004 0
M  V30 234 H 24.6207 0.0726272 -0.667058 0
M  V30 235 H 27.1647 -0.425401 -2.00026 0
M  V30 236 H 25.3197 1.49593 -3.57352 0
M  V30 237 H 25.7337 0.0443186 -5.24481 0
M  V30 238 H 27.2077 1.75447 -5.23376 0
M  V30 239 H 27.6847 2.41224 -3.67025 0
M  V30 240 H 28.2907 0.81762 -4.17367 0
M  V30 241 N 26.6058 1.57591 -0.0167156 0
M  V30 242 C 27.5358 2.12496 0.967858 0
M  V30 243 C 28.5168 1.03807 1.34752 0
M  V30 244 O 29.7018 1.31577 1.42833 0
M  V30 245 C 26.8318 2.64194 2.25431 0
M  V30 246 C 25.7858 3.77559 2.01576 0
M  V30 247 C 25.1118 4.15636 3.36379 0
M  V30 248 C 26.4118 5.04151 1.36489 0
M  V30 249 H 28.1058 2.95013 0.510643 0
M  V30 250 H 25.6518 1.41915 0.244181 0
M  V30 251 H 27.6048 3.01236 2.94678 0
M  V30 252 H 26.3288 1.78821 2.73296 0
M  V30 253 H 24.9878 3.40937 1.34751 0
M  V30 254 H 24.6358 3.27263 3.81979 0
M  V30 255 H 24.3358 4.92022 3.21229 0
M  V30 256 H 25.8598 4.5525 4.06915 0
M  V30 257 H 27.2738 5.38857 1.95718 0
M  V30 258 H 25.6708 5.85453 1.31776 0
M  V30 259 H 26.7408 4.83733 0.336219 0
M  V30 260 N 28.0839 -0.256276 1.55502 0
M  V30 261 C 29.0319 -1.33694 1.90338 0
M  V30 262 C 30.0259 -1.50299 0.781441 0
M  V30 263 O 31.2319 -1.51885 0.965966 0
M  V30 264 H 27.6069 -0.447483 0.60437 0
M  V30 265 H 29.5779 -1.01574 2.8058 0
M  V30 266 C 28.3269 -2.68724 2.20642 0
M  V30 267 H 27.6499 -2.56743 3.06469 0
M  V30 268 H 29.0899 -3.43237 2.48926 0
M  V30 269 C 27.5489 -3.21101 1.01959 0
M  V30 270 O 28.0789 -4.0084 0.262762 0
M  V30 271 N 26.2849 -2.79003 0.812746 0
M  V30 272 H 25.8319 -2.14271 1.42989 0
M  V30 273 H 25.7899 -3.14393 0.0203076 0
M  V30 274 N 29.562 -1.4872 -0.521534 0
M  V30 275 C 30.492 -1.66771 -1.63431 0
M  V30 276 C 31.473 -0.516499 -1.62069 0
M  V30 277 O 32.658 -0.750013 -1.79132 0
M  V30 278 C 29.788 -1.71515 -3.01993 0
M  V30 279 C 28.742 -2.86222 -3.18216 0
M  V30 280 C 28.068 -2.76061 -4.57924 0
M  V30 281 C 29.368 -4.27419 -3.00184 0
M  V30 282 H 31.062 -2.59932 -1.48579 0
M  V30 283 H 28.608 -1.25089 -0.713358 0
M  V30 284 H 30.561 -1.82731 -3.7972 0
M  V30 285 H 29.285 -0.749393 -3.17886 0
M  V30 286 H 27.944 -2.74575 -2.42908 0
M  V30 287 H 27.592 -1.77437 -4.70665 0
M  V30 288 H 27.292 -3.53037 -4.69722 0
M  V30 289 H 28.816 -2.89256 -5.37739 0
M  V30 290 H 30.23 -4.39855 -3.67697 0
M  V30 291 H 28.627 -5.05458 -3.2347 0
M  V30 292 H 29.697 -4.43293 -1.96518 0
M  V30 293 N 31.0401 0.771051 -1.3745 0
M  V30 294 C 32.2891 1.52491 -1.3202 0
M  V30 295 C 32.6021 1.9538 0.0927347 0
M  V30 296 O 33.8081 2.70159 0.269503 0
M  V30 297 C 32.2641 2.75366 -2.31736 0
M  V30 298 C 31.8721 2.39573 -3.78562 0
M  V30 299 C 33.6161 3.53307 -2.35318 0
M  V30 300 C 31.5231 3.58954 -4.70007 0
M  V30 301 H 30.4531 0.572506 -0.490666 0
M  V30 302 H 33.1041 0.844474 -1.62914 0
M  V30 303 H 31.4861 3.45303 -1.93861 0
M  V30 304 H 32.6601 1.77415 -4.25277 0
M  V30 305 H 30.9751 1.74805 -3.77932 0
M  V30 306 H 33.5721 4.42039 -3.00842 0
M  V30 307 H 33.9151 3.93217 -1.36698 0
M  V30 308 H 34.4481 2.90367 -2.71904 0
M  V30 309 H 31.1871 3.24125 -5.69757 0
M  V30 310 H 30.7071 4.20214 -4.27996 0
M  V30 311 H 32.3861 4.25758 -4.87175 0
M  V30 312 N 32.5182 1.22032 0.997298 0
M  V30 313 C 33.4812 0.987909 2.06816 0
M  V30 314 C 34.4812 -0.0440084 1.6074 0
M  V30 315 O 35.6712 0.194053 1.73116 0
M  V30 316 C 32.8032 0.49132 3.37341 0
M  V30 317 H 33.9962 1.93803 2.28868 0
M  V30 318 H 31.5492 1.03838 1.16822 0
M  V30 319 H 32.2842 -0.463364 3.20973 0
M  V30 320 H 32.0692 1.23575 3.72118 0
M  V30 321 H 33.5592 0.348824 4.16141 0
M  V30 322 N 33.9963 -1.19345 1.0293 0
M  V30 323 C 35.2213 -1.93538 0.745511 0
M  V30 324 C 35.6463 -1.75007 -0.689511 0
M  V30 325 O 35.0043 -1.05265 -1.47611 0
M  V30 326 C 35.0523 -3.43336 1.10239 0
M  V30 327 O 34.1563 -4.11806 0.221289 0
M  V30 328 H 33.4973 -0.604193 0.275404 0
M  V30 329 H 36.0273 -1.5141 1.37609 0
M  V30 330 H 36.0373 -3.94004 1.05947 0
M  V30 331 H 34.7123 -3.56146 2.14786 0
M  V30 332 H 33.2893 -3.715 0.322842 0
M  V30 333 N 35.4744 -0.807222 -1.35358 0
M  V30 334 C 36.7514 -0.311126 -1.9311 0
M  V30 335 C 37.1314 1.19937 -1.73719 0
M  V30 336 O 36.4794 1.99918 -1.10657 0
M  V30 337 C 36.6894 -0.723226 -3.41424 0
M  V30 338 C 38.0374 -0.713078 -4.18569 0
M  V30 339 O 39.0614 -0.664811 -3.49941 0
M  V30 340 O 37.9204 -0.772022 -5.41019 0
M  V30 341 H 35.0144 -0.081526 -0.822972 0
M  V30 342 H 37.5604 -0.890962 -1.4443 0
M  V30 343 H 36.3324 -1.76426 -3.4927 0
M  V30 344 H 35.9554 -0.118232 -3.97424 0
M  V30 345 N 36.9525 1.47285 -0.560781 0
M  V30 346 C 38.2005 2.02064 -0.0379868 0
M  V30 347 C 38.5215 1.43711 1.31803 0
M  V30 348 O 37.7915 0.61362 1.86042 0
M  V30 349 H 36.3715 0.746918 -0.0110531 0
M  V30 350 H 39.0335 1.80648 -0.731598 0
M  V30 351 H 38.1295 3.12064 0.0474463 0
M  V30 352 N 38.4306 0.297415 1.54768 0
M  V30 353 C 39.8416 -0.195947 1.85669 0
M  V30 354 C 40.1926 -1.53707 1.21937 0
M  V30 355 O 39.3176 -2.10164 0.515754 0
M  V30 356 C 39.9126 -0.362318 3.36857 0
M  V30 357 C 38.4716 -0.799901 3.67802 0
M  V30 358 C 37.6186 0.0938578 2.77141 0
M  V30 359 H 40.5696 0.518538 1.4999 0
M  V30 360 H 40.5906 -1.19745 3.61167 0
M  V30 361 H 40.1026 0.613921 3.83214 0
M  V30 362 H 38.2036 -1.78682 3.26961 0
M  V30 363 H 38.3166 -0.621773 4.75048 0
M  V30 364 H 36.6806 -0.426254 2.51108 0
M  V30 365 H 37.4636 1.06639 3.26318 0
M  V30 366 N 39.9087 -1.5758 0.0250728 0
M  V30 367 C 41.1557 -1.91633 -0.654444 0
M  V30 368 C 41.4837 -0.901103 -1.72367 0
M  V30 369 O 40.7387 0.0905647 -1.9549 0
M  V30 370 C 41.0377 -3.32421 -1.31268 0
M  V30 371 C 40.7037 -4.49344 -0.374223 0
M  V30 372 C 39.3657 -4.8106 -0.115911 0
M  V30 373 C 41.7177 -5.20498 0.270432 0
M  V30 374 C 39.0457 -5.8129 0.79493 0
M  V30 375 C 41.3977 -6.21699 1.1693 0
M  V30 376 C 40.0617 -6.51859 1.43655 0
M  V30 377 H 39.3317 -0.701236 -0.239478 0
M  V30 378 H 41.9787 -1.91307 0.0859734 0
M  V30 379 H 40.2837 -3.28989 -2.12775 0
M  V30 380 H 41.9807 -3.56038 -1.84494 0
M  V30 381 H 38.5707 -4.24579 -0.58573 0
M  V30 382 H 42.7547 -4.96229 0.0839194 0
M  V30 383 H 38.0107 -6.03005 1.00973 0
M  V30 384 H 42.1847 -6.75955 1.67504 0
M  V30 385 H 39.8117 -7.2934 2.144 0
M  V30 386 N 41.3868 0.248026 -1.55636 0
M  V30 387 C 42.7978 0.817177 -1.67866 0
M  V30 388 C 43.1488 1.86069 -0.622322 0
M  V30 389 O 42.2738 2.15157 0.231618 0
M  V30 390 C 42.8688 1.489 -3.04326 0
M  V30 391 C 41.4278 2.00587 -3.185 0
M  V30 392 C 40.5748 0.856573 -2.63739 0
M  V30 393 H 43.5258 0.0238579 -1.58682 0
M  V30 394 H 43.5468 2.35698 -2.98708 0
M  V30 395 H 43.0588 0.729279 -3.81186 0
M  V30 396 H 41.1598 2.79443 -2.4646 0
M  V30 397 H 41.2728 2.20402 -4.25393 0
M  V30 398 H 39.6368 1.25678 -2.21534 0
M  V30 399 H 40.4198 0.109953 -3.43124 0
M  V30 400 N 42.8649 1.48995 0.513639 0
M  V30 401 C 44.0949 1.61297 1.291 0
M  V30 402 C 44.5029 0.278656 1.87137 0
M  V30 403 O 43.8459 -0.744325 1.67945 0
M  V30 404 C 43.9079 2.61326 2.46879 0
M  V30 405 C 43.5719 4.05993 2.09807 0
M  V30 406 C 44.5689 4.93183 1.64519 0
M  V30 407 C 42.2539 4.51642 2.19829 0
M  V30 408 C 44.2479 6.24056 1.2974 0
M  V30 409 C 41.9349 5.82532 1.84662 0
M  V30 410 C 42.9329 6.68562 1.3969 0
M  V30 411 O 42.6209 7.97014 1.04992 0
M  V30 412 H 42.3529 0.546236 0.39825 0
M  V30 413 H 44.9069 1.95673 0.62459 0
M  V30 414 H 43.1369 2.22104 3.16554 0
M  V30 415 H 44.8259 2.6329 3.08923 0
M  V30 416 H 45.5919 4.59147 1.56233 0
M  V30 417 H 41.4709 3.84855 2.53786 0
M  V30 418 H 45.0149 6.91161 0.945659 0
M  V30 419 H 40.9119 6.16099 1.92594 0
M  V30 420 H 41.6799 8.09913 1.18249 0
M  V30 421 N 44.343 -0.763751 1.37857 0
M  V30 422 C 45.568 -1.55805 1.36893 0
M  V30 423 C 45.993 -1.88054 -0.0416135 0
M  V30 424 O 45.351 -1.49825 -1.02089 0
M  V30 425 C 45.399 -2.84012 2.22192 0
M  V30 426 O 44.503 -3.78732 1.63204 0
M  V30 427 H 43.844 -0.471638 0.46739 0
M  V30 428 H 46.374 -0.944657 1.81487 0
M  V30 429 H 46.384 -3.33037 2.35691 0
M  V30 430 H 45.059 -2.59869 3.24716 0
M  V30 431 H 43.636 -3.37402 1.58791 0
M  V30 432 N 45.8211 -1.22559 -0.990812 0
M  V30 433 C 46.7531 -0.955325 -2.08342 0
M  V30 434 C 47.7661 0.0668408 -1.62663 0
M  V30 435 O 48.9551 -0.167421 -1.77713 0
M  V30 436 C 46.0551 -0.415566 -3.36342 0
M  V30 437 C 45.2281 -1.49544 -4.11042 0
M  V30 438 C 44.2871 -0.962399 -5.17324 0
M  V30 439 O 43.3131 -1.64907 -5.44788 0
M  V30 440 N 44.5151 0.215134 -5.80101 0
M  V30 441 H 47.2801 -1.89596 -2.32106 0
M  V30 442 H 44.8411 -1.13276 -1.15673 0
M  V30 443 H 46.8331 -0.0442386 -4.04676 0
M  V30 444 H 45.4031 0.430232 -3.09625 0
M  V30 445 H 44.6231 -2.04 -3.37309 0
M  V30 446 H 45.9111 -2.22195 -4.57719 0
M  V30 447 H 45.3091 0.789779 -5.6016 0
M  V30 448 H 43.8661 0.527826 -6.49659 0
M  V30 449 N 47.2992 1.18797 -1.03562 0
M  V30 450 C 48.5762 1.84469 -0.650434 0
M  V30 451 C 48.9562 1.92319 0.870433 0
M  V30 452 O 48.3042 1.44528 1.76986 0
M  V30 453 C 48.5142 3.2306 -1.32036 0
M  V30 454 C 49.8622 3.9915 -1.44792 0
M  V30 455 O 50.8862 3.32481 -1.27806 0
M  V30 456 O 49.7452 5.18587 -1.72423 0
M  V30 457 H 46.8392 0.795251 -0.226946 0
M  V30 458 H 49.3852 1.26231 -1.13419 0
M  V30 459 H 48.1572 3.1222 -2.3587 0
M  V30 460 H 47.7802 3.88949 -0.8249 0
M  V30 461 N 48.7773 0.814389 1.34928 0
M  V30 462 C 50.0253 0.397636 1.9815 0
M  V30 463 C 50.3463 -1.04069 1.64908 0
M  V30 464 O 49.6163 -1.72121 0.93548 0
M  V30 465 H 48.1963 0.144043 0.732981 0
M  V30 466 H 50.8583 1.04195 1.6471 0
M  V30 467 H 49.9543 0.509688 3.0791 0
M  V30 468 N 50.2554 -1.46986 0.568584 0
M  V30 469 C 51.5014 -2.02741 0.0488709 0
M  V30 470 C 51.8344 -1.44077 -1.30214 0
M  V30 471 O 51.1094 -0.600552 -1.84996 0
M  V30 472 C 51.3924 -3.60086 -0.032047 0
M  V30 473 C 51.2454 -4.29162 1.34686 0
M  V30 474 C 52.5644 -4.33838 -0.739798 0
M  V30 475 H 49.6834 -0.736749 0.0192338 0
M  V30 476 H 52.3254 -1.75289 0.733065 0
M  V30 477 H 50.4754 -3.83606 -0.61473 0
M  V30 478 H 52.1474 -4.16948 1.97362 0
M  V30 479 H 50.3904 -3.89073 1.91846 0
M  V30 480 H 51.0614 -5.37826 1.24285 0
M  V30 481 H 53.5374 -4.15378 -0.244939 0
M  V30 482 H 52.4134 -5.43537 -0.765406 0
M  V30 483 H 52.6744 -4.03875 -1.79827 0
M  V30 484 N 51.7335 -0.305618 -1.54608 0
M  V30 485 C 52.9795 0.302746 -2.00528 0
M  V30 486 C 53.3125 1.53184 -1.19367 0
M  V30 487 O 52.5875 1.92598 -0.271321 0
M  V30 488 C 52.8705 0.654756 -3.54097 0
M  V30 489 C 52.7235 -0.583793 -4.45995 0
M  V30 490 C 54.0425 1.47947 -4.14487 0
M  V30 491 H 51.1615 0.108564 -0.72896 0
M  V30 492 H 53.8035 -0.418634 -1.85331 0
M  V30 493 H 51.9535 1.26935 -3.67178 0
M  V30 494 H 53.6255 -1.22224 -4.44814 0
M  V30 495 H 51.8685 -1.21615 -4.16404 0
M  V30 496 H 52.5395 -0.293287 -5.5122 0
M  V30 497 H 55.0155 0.96013 -4.04871 0
M  V30 498 H 53.8915 1.69454 -5.22088 0
M  V30 499 H 54.1525 2.47011 -3.66658 0
M  V30 500 N 53.2116 1.57565 -0.0334293 0
M  V30 501 C 54.4586 1.91978 0.644272 0
M  V30 502 C 54.7866 0.910231 1.71887 0
M  V30 503 O 54.0416 -0.0801961 1.95536 0
M  V30 504 C 54.3406 3.33112 1.29504 0
M  V30 505 C 54.0066 4.49537 0.350388 0
M  V30 506 C 52.6686 4.81115 0.0903974 0
M  V30 507 C 55.0206 5.20347 -0.298032 0
M  V30 508 C 52.3486 5.8086 -0.825746 0
M  V30 509 C 54.7006 6.2107 -1.20226 0
M  V30 510 C 53.3646 6.51088 -1.4711 0
M  V30 511 H 52.6346 0.702496 0.235756 0
M  V30 512 H 55.2816 1.91259 -0.0961176 0
M  V30 513 H 53.5866 3.30113 2.11028 0
M  V30 514 H 55.2836 3.57011 1.82603 0
M  V30 515 H 51.8736 4.24883 0.563205 0
M  V30 516 H 56.0576 4.96178 -0.110234 0
M  V30 517 H 51.3136 6.02461 -1.04169 0
M  V30 518 H 55.4876 6.75057 -1.71086 0
M  V30 519 H 53.1146 7.28193 -2.18264 0
M  V30 520 N 54.6897 -0.239769 1.55765 0
M  V30 521 C 55.6217 -1.32001 1.87372 0
M  V30 522 C 56.6347 -1.43944 0.760522 0
M  V30 523 O 57.8237 -1.45167 1.0387 0
M  V30 524 C 54.9237 -2.69779 2.05115 0
M  V30 525 C 54.0967 -2.80014 3.36022 0
M  V30 526 C 53.1557 -3.98684 3.4342 0
M  V30 527 O 52.1817 -3.87877 4.16582 0
M  V30 528 N 53.3837 -5.12176 2.73232 0
M  V30 529 H 56.1487 -1.0522 2.80622 0
M  V30 530 H 53.7097 -0.429857 1.56089 0
M  V30 531 H 55.7017 -3.47517 2.07399 0
M  V30 532 H 54.2717 -2.89237 1.18577 0
M  V30 533 H 53.4917 -1.88896 3.45994 0
M  V30 534 H 54.7797 -2.83808 4.22292 0
M  V30 535 H 54.1777 -5.2385 2.13536 0
M  V30 536 H 52.7347 -5.88022 2.81199 0
M  V30 537 N 56.1678 -1.49265 -0.50573 0
M  V30 538 C 57.1158 -1.66065 -1.62866 0
M  V30 539 C 58.1098 -0.526636 -1.61006 0
M  V30 540 O 59.3158 -0.706126 -1.65571 0
M  V30 541 H 55.6908 -0.52356 -0.539805 0
M  V30 542 H 57.6618 -2.60329 -1.45848 0
M  V30 543 C 56.4108 -1.74008 -3.01026 0
M  V30 544 H 55.7338 -2.6064 -3.03161 0
M  V30 545 H 57.1738 -1.89798 -3.79147 0
M  V30 546 C 55.6328 -0.483868 -3.33407 0
M  V30 547 O 56.1628 0.392548 -3.99777 0
M  V30 548 N 54.3688 -0.348236 -2.88506 0
M  V30 549 H 53.9158 -1.06242 -2.34671 0
M  V30 550 H 53.8738 0.491204 -3.10539 0
M  V30 551 N 57.6459 0.756429 -1.3826 0
M  V30 552 C 59.0619 1.0591 -1.19395 0
M  V30 553 C 59.2619 2.01459 -0.0406567 0
M  V30 554 O 58.3179 2.44909 0.614467 0
M  V30 555 C 59.6309 1.64191 -2.51916 0
M  V30 556 C 61.1789 1.76376 -2.58574 0
M  V30 557 C 61.6539 2.38069 -3.91264 0
M  V30 558 N 63.1449 2.45503 -3.92788 0
M  V30 559 C 63.8799 2.94126 -4.92217 0
M  V30 560 N 63.3759 3.42805 -6.02043 0
M  V30 561 N 65.1689 2.9314 -4.7961 0
M  V30 562 H 57.3199 0.122313 -2.12048 0
M  V30 563 H 59.5829 0.116892 -0.940766 0
M  V30 564 H 59.2889 1.01451 -3.3675 0
M  V30 565 H 59.1629 2.6329 -2.70108 0
M  V30 566 H 61.5499 2.38244 -1.74137 0
M  V30 567 H 61.6309 0.759894 -2.44252 0
M  V30 568 H 61.2749 1.76835 -4.76121 0
M  V30 569 H 61.2049 3.39091 -4.02895 0
M  V30 570 H 63.6959 2.1107 -3.13461 0
M  V30 571 H 64.0089 3.78354 -6.73846 0
M  V30 572 H 62.3539 3.4087 -6.05667 0
M  V30 573 H 65.5449 2.54419 -3.92923 0
M  V30 574 H 65.7179 3.30721 -5.5725 0
M  V30 575 N 59.124 1.23083 0.984299 0
M  V30 576 C 60.034 1.02515 2.11016 0
M  V30 577 C 61.05 -0.0291702 1.73976 0
M  V30 578 O 62.226 0.165434 2.00719 0
M  V30 579 C 59.291 0.614673 3.41208 0
M  V30 580 C 58.352 1.74359 3.92297 0
M  V30 581 C 57.585 1.35261 5.16275 0
M  V30 582 O 57.808 0.235136 5.69915 0
M  V30 583 O 56.742 2.17227 5.61334 0
M  V30 584 H 60.568 1.96862 2.31255 0
M  V30 585 H 58.153 1.01753 1.09392 0
M  V30 586 H 60.035 0.396518 4.1953 0
M  V30 587 H 58.71 -0.299851 3.22308 0
M  V30 588 H 57.617 2.01635 3.1511 0
M  V30 589 H 58.95 2.63629 4.15645 0
M  V30 590 N 60.6021 -1.18246 1.0419 0
M  V30 591 C 61.8271 -1.92736 0.765996 0
M  V30 592 C 62.2521 -1.75728 -0.67091 0
M  V30 593 O 61.6101 -1.06825 -1.46486 0
M  V30 594 C 61.6581 -3.42148 1.13875 0
M  V30 595 O 60.7621 -4.11548 0.264954 0
M  V30 596 H 60.1031 -0.601238 0.281797 0
M  V30 597 H 62.6331 -1.49942 1.39207 0
M  V30 598 H 62.6431 -3.92858 1.1012 0
M  V30 599 H 61.3181 -3.53848 2.18551 0
M  V30 600 H 59.8951 -3.71137 0.362226 0
M  V30 601 N 62.0802 -0.821533 -1.34494 0
M  V30 602 C 63.3262 -0.409552 -1.98622 0
M  V30 603 C 63.6592 1.0244 -1.64984 0
M  V30 604 O 62.9342 1.71325 -0.920758 0
M  V30 605 C 63.2172 -0.610458 -3.54888 0
M  V30 606 C 63.0702 -2.09043 -3.98273 0
M  V30 607 C 64.3892 -0.0455379 -4.40076 0
M  V30 608 H 61.5082 -0.15028 -0.721516 0
M  V30 609 H 64.1502 -1.03384 -1.59411 0
M  V30 610 H 62.3002 -0.079044 -3.8842 0
M  V30 611 H 63.9722 -2.68537 -3.75081 0
M  V30 612 H 62.2152 -2.58139 -3.48635 0
M  V30 613 H 62.8862 -2.18182 -5.07051 0
M  V30 614 H 65.3622 -0.499557 -4.1309 0
M  V30 615 H 64.2382 -0.215922 -5.48475 0
M  V30 616 H 64.4992 1.04939 -4.29465 0
M  V30 617 N 63.5583 1.46682 -0.576371 0
M  V30 618 C 64.4883 2.33028 0.148397 0
M  V30 619 C 65.4693 1.44961 0.889956 0
M  V30 620 O 66.6543 1.73789 0.866662 0
M  V30 621 C 63.7843 3.27117 1.1667 0
M  V30 622 C 62.7383 4.24575 0.540386 0
M  V30 623 C 62.0643 5.08126 1.6647 0
M  V30 624 C 63.3643 5.19722 -0.518331 0
M  V30 625 H 65.0583 2.93875 -0.572509 0
M  V30 626 H 62.6043 1.41315 -0.276768 0
M  V30 627 H 64.5573 3.86374 1.68204 0
M  V30 628 H 63.2813 2.64364 1.9178 0
M  V30 629 H 61.9403 3.66571 0.0461769 0
M  V30 630 H 61.5883 4.41762 2.40531 0
M  V30 631 H 61.2883 5.74122 1.25131 0
M  V30 632 H 62.8123 5.70246 2.18293 0
M  V30 633 H 64.2263 5.73232 -0.0883058 0
M  V30 634 H 62.6233 5.94026 -0.851679 0
M  V30 635 H 63.6933 4.64037 -1.40703 0
M  V30 636 N 65.0364 0.313813 1.54444 0
M  V30 637 C 66.4474 -0.176243 1.85866 0
M  V30 638 C 66.7984 -1.52405 1.23561 0
M  V30 639 O 65.9234 -2.09605 0.538016 0
M  V30 640 C 66.5184 -0.32657 3.37222 0
M  V30 641 C 65.0774 -0.760846 3.6863 0
M  V30 642 C 64.2244 0.123247 2.77026 0
M  V30 643 H 67.1754 0.534418 1.49431 0
M  V30 644 H 67.1964 -1.15908 3.62416 0
M  V30 645 H 66.7084 0.654531 3.82541 0
M  V30 646 H 64.8094 -1.75204 3.28838 0
M  V30 647 H 64.9224 -0.571353 4.75681 0
M  V30 648 H 63.2864 -0.399597 2.51546 0
M  V30 649 H 64.0694 1.10094 3.25168 0
M  V30 650 N 66.5145 -1.57545 0.0417849 0
M  V30 651 C 67.7425 -1.96624 -0.643928 0
M  V30 652 C 68.1575 -0.918897 -1.64929 0
M  V30 653 O 67.5145 0.0979323 -1.82237 0
M  V30 654 C 67.5655 -3.35781 -1.33914 0
M  V30 655 O 67.2865 -4.365 -0.374048 0
M  V30 656 C 68.7875 -3.89566 -2.1155 0
M  V30 657 H 66.0075 -0.647316 -0.176702 0
M  V30 658 H 68.5515 -2.04229 0.105304 0
M  V30 659 H 66.7065 -3.29357 -2.03968 0
M  V30 660 H 67.1205 -5.17248 -0.869179 0
M  V30 661 H 68.5945 -4.89242 -2.55628 0
M  V30 662 H 69.0715 -3.24488 -2.9598 0
M  V30 663 H 69.6775 -3.99298 -1.46427 0
M  V30 664 N 67.9926 0.231505 -1.5589 0
M  V30 665 C 68.9246 1.31006 -1.8807 0
M  V30 666 C 69.9376 1.43539 -0.768145 0
M  V30 667 O 71.1266 1.44614 -1.04638 0
M  V30 668 C 68.2266 2.68688 -2.06543 0
M  V30 669 C 67.3996 2.78228 -3.37502 0
M  V30 670 C 66.4586 3.96857 -3.4553 0
M  V30 671 O 65.4846 3.85662 -4.18633 0
M  V30 672 N 66.6866 5.1072 -2.75944 0
M  V30 673 H 69.4516 1.03731 -2.81176 0
M  V30 674 H 67.0126 0.421573 -1.56315 0
M  V30 675 H 69.0046 3.46412 -2.09239 0
M  V30 676 H 67.5746 2.88605 -1.20109 0
M  V30 677 H 66.7946 1.87059 -3.46991 0
M  V30 678 H 68.0826 2.81564 -4.23791 0
M  V30 679 H 67.4806 5.2271 -2.16311 0
M  V30 680 H 66.0376 5.86523 -2.84314 0
M  V30 681 N 69.4707 1.49531 0.497807 0
M  V30 682 C 70.6957 1.63159 1.28039 0
M  V30 683 C 71.1207 0.30418 1.85624 0
M  V30 684 O 70.4787 -0.728618 1.66015 0
M  V30 685 C 70.5267 2.70537 2.38416 0
M  V30 686 O 69.6307 2.29931 3.42353 0
M  V30 687 H 68.9717 0.546001 0.377861 0
M  V30 688 H 71.5017 1.9574 0.59558 0
M  V30 689 H 71.5117 2.92802 2.84132 0
M  V30 690 H 70.1867 3.6689 1.95869 0
M  V30 691 H 68.7637 2.18009 3.02533 0
M  V30 692 N 70.9488 -0.749086 1.3866 0
M  V30 693 C 72.1788 -1.53611 1.38157 0
M  V30 694 C 72.5868 -1.89177 -0.0293595 0
M  V30 695 O 71.9298 -1.53606 -1.00752 0
M  V30 696 C 71.9918 -2.86087 2.17702 0
M  V30 697 C 71.6558 -2.73034 3.66472 0
M  V30 698 C 72.6528 -2.42526 4.59866 0
M  V30 699 C 70.3378 -2.90345 4.09884 0
M  V30 700 C 72.3318 -2.29492 5.94653 0
M  V30 701 C 70.0188 -2.7693 5.4475 0
M  V30 702 C 71.0168 -2.46547 6.36949 0
M  V30 703 O 70.7048 -2.33199 7.69333 0
M  V30 704 H 70.4368 -0.481773 0.474205 0
M  V30 705 H 72.9908 -0.934465 1.82912 0
M  V30 706 H 71.2208 -3.48458 1.67672 0
M  V30 707 H 72.9098 -3.47625 2.09551 0
M  V30 708 H 73.6758 -2.28816 4.27631 0
M  V30 709 H 69.5548 -3.1299 3.38464 0
M  V30 710 H 73.0988 -2.05698 6.66584 0
M  V30 711 H 68.9958 -2.90215 5.76581 0
M  V30 712 H 69.7638 -2.48376 7.79905 0
M  V30 713 N 72.4269 -1.23603 -0.977757 0
M  V30 714 C 73.6749 -1.06759 -1.71601 0
M  V30 715 C 73.9959 0.395929 -1.90938 0
M  V30 716 O 73.2659 1.28356 -1.47992 0
M  V30 717 H 71.8459 -0.392062 -0.635843 0
M  V30 718 H 74.5079 -1.55362 -1.1768 0
M  V30 719 H 73.6039 -1.55763 -2.70452 0
M  V30 720 N 73.905 1.17692 -1.04816 0
M  V30 721 C 75.135 1.91508 -0.775128 0
M  V30 722 C 75.543 1.76844 0.67253 0
M  V30 723 O 74.886 1.10057 1.47082 0
M  V30 724 C 74.948 3.43167 -1.0713 0
M  V30 725 C 74.612 3.81612 -2.51438 0
M  V30 726 C 75.609 3.84772 -3.49638 0
M  V30 727 C 73.294 4.12687 -2.86348 0
M  V30 728 C 75.288 4.18469 -4.80794 0
M  V30 729 C 72.975 4.46053 -4.17708 0
M  V30 730 C 73.973 4.48921 -5.14741 0
M  V30 731 O 73.661 4.81504 -6.43746 0
M  V30 732 H 73.393 0.614575 -0.281555 0
M  V30 733 H 75.947 1.50206 -1.40098 0
M  V30 734 H 74.177 3.84745 -0.388342 0
M  V30 735 H 75.866 3.98239 -0.784883 0
M  V30 736 H 76.632 3.60893 -3.24008 0
M  V30 737 H 72.511 4.09627 -2.11486 0
M  V30 738 H 76.055 4.20623 -5.56527 0
M  V30 739 H 71.952 4.69393 -4.43103 0
M  V30 740 H 72.72 4.99377 -6.4851 0
M  V30 741 N 75.3831 0.828654 1.34056 0
M  V30 742 C 76.6131 0.431993 2.02033 0
M  V30 743 C 77.0211 -0.96844 1.62536 0
M  V30 744 O 76.3641 -1.6391 0.829408 0
M  V30 745 C 76.4261 0.461224 3.56529 0
M  V30 746 C 76.0901 1.81599 4.1937 0
M  V30 747 C 77.0871 2.7777 4.39477 0
M  V30 748 C 74.7721 2.10604 4.56017 0
M  V30 749 C 76.7661 4.01115 4.95364 0
M  V30 750 C 74.4531 3.34207 5.11614 0
M  V30 751 C 75.4511 4.2928 5.31232 0
M  V30 752 O 75.1391 5.50699 5.8565 0
M  V30 753 H 74.8711 0.170943 0.654029 0
M  V30 754 H 77.4251 1.11988 1.72185 0
M  V30 755 H 75.6551 -0.283388 3.8566 0
M  V30 756 H 77.3441 0.0838149 4.05813 0
M  V30 757 H 78.1101 2.56659 4.11523 0
M  V30 758 H 73.9891 1.37402 4.40047 0
M  V30 759 H 77.5331 4.75333 5.10592 0
M  V30 760 H 73.4301 3.55179 5.38997 0
M  V30 761 H 74.1981 5.52298 6.04077 0
M  V30 762 N 76.8612 -1.46375 0.584142 0
M  V30 763 C 77.8112 -2.27371 -0.169232 0
M  V30 764 C 78.7952 -1.35955 -0.860523 0
M  V30 765 O 79.9872 -1.60119 -0.754382 0
M  V30 766 C 77.1162 -3.22334 -1.18134 0
M  V30 767 C 76.2022 -4.21235 -0.492088 0
M  V30 768 N 76.5932 -5.03766 0.453129 0
M  V30 769 C 74.8912 -4.39773 -0.742652 0
M  V30 770 C 75.5922 -5.75366 0.85609 0
M  V30 771 N 74.5682 -5.43214 0.204926 0
M  V30 772 H 78.3702 -2.88572 0.557097 0
M  V30 773 H 75.8842 -1.57242 0.406042 0
M  V30 774 H 77.8812 -3.79071 -1.73525 0
M  V30 775 H 76.5412 -2.62693 -1.90847 0
M  V30 776 H 77.5522 -5.11227 0.828723 0
M  V30 777 H 74.2292 -3.91279 -1.45625 0
M  V30 778 H 75.6192 -6.5172 1.63434 0
M  V30 779 N 78.3393 -0.321999 -1.54275 0
M  V30 780 C 79.2493 0.553631 -2.27974 0
M  V30 781 C 80.2653 1.13054 -1.32268 0
M  V30 782 O 81.4413 1.15084 -1.6528 0
M  V30 783 C 78.5063 1.69927 -3.02201 0
M  V30 784 C 77.5673 1.15433 -4.1349 0
M  V30 785 C 76.8003 2.24537 -4.84168 0
M  V30 786 O 77.0233 3.44852 -4.5435 0
M  V30 787 O 75.9573 1.90044 -5.7111 0
M  V30 788 H 79.7833 -0.0448345 -3.03667 0
M  V30 789 H 77.3683 -0.0877418 -1.49142 0
M  V30 790 H 79.2503 2.3663 -3.48689 0
M  V30 791 H 77.9253 2.28395 -2.29385 0
M  V30 792 H 76.8323 0.452436 -3.71354 0
M  V30 793 H 78.1653 0.614805 -4.88345 0
M  V30 794 N 79.8174 1.5752 -0.0501392 0
M  V30 795 C 81.0474 1.96678 0.632573 0
M  V30 796 C 81.4554 0.926298 1.64974 0
M  V30 797 O 80.7984 -0.09802 1.83438 0
M  V30 798 C 80.8604 3.32068 1.37735 0
M  V30 799 C 80.5244 4.54076 0.516131 0
M  V30 800 C 81.5214 5.19445 -0.217357 0
M  V30 801 C 79.2064 5.00304 0.44736 0
M  V30 802 C 81.2004 6.29378 -1.00807 0
M  V30 803 C 78.8874 6.10114 -0.347038 0
M  V30 804 C 79.8854 6.74512 -1.07344 0
M  V30 805 O 79.5734 7.82211 -1.85477 0
M  V30 806 H 79.3054 0.652193 0.177821 0
M  V30 807 H 81.8594 2.05091 -0.112543 0
M  V30 808 H 80.0894 3.20206 2.16807 0
M  V30 809 H 81.7784 3.55981 1.95019 0
M  V30 810 H 82.5444 4.84689 -0.173688 0
M  V30 811 H 78.4234 4.49971 1.00235 0
M  V30 812 H 81.9674 6.79575 -1.57556 0
M  V30 813 H 77.8644 6.44307 -0.392349 0
M  V30 814 H 78.6324 7.98982 -1.77678 0
M  V30 815 N 81.2955 -0.223234 1.56011 0
M  V30 816 C 82.5235 -0.964812 1.83027 0
M  V30 817 C 82.9385 -1.78013 0.62904 0
M  V30 818 O 82.2955 -1.78008 -0.402414 0
M  V30 819 C 82.3465 -1.88373 3.08542 0
M  V30 820 O 82.0675 -1.10137 4.2403 0
M  V30 821 C 83.5685 -2.73934 3.48533 0
M  V30 822 H 80.7885 -0.282842 0.608475 0
M  V30 823 H 83.3325 -0.238971 2.03099 0
M  V30 824 H 81.4875 -2.56354 2.9045 0
M  V30 825 H 81.9015 -1.72501 4.95322 0
M  V30 826 H 83.3755 -3.34117 4.39397 0
M  V30 827 H 83.8525 -3.46244 2.70207 0
M  V30 828 H 84.4585 -2.11369 3.69057 0
M  V30 829 N 82.7736 -1.49793 -0.48987 0
M  V30 830 C 84.0196 -1.60078 -1.24511 0
M  V30 831 C 84.3526 -0.291608 -1.91998 0
M  V30 832 O 83.6276 0.705647 -1.81248 0
M  V30 833 C 83.9106 -2.76791 -2.30345 0
M  V30 834 C 83.7636 -4.17535 -1.67286 0
M  V30 835 C 85.0826 -2.89111 -3.31817 0
M  V30 836 H 82.2016 -0.582645 -0.451324 0
M  V30 837 H 84.8436 -1.82117 -0.541612 0
M  V30 838 H 82.9936 -2.5813 -2.90346 0
M  V30 839 H 84.6656 -4.4774 -1.11026 0
M  V30 840 H 82.9086 -4.22665 -0.976577 0
M  V30 841 H 83.5796 -4.95094 -2.44103 0
M  V30 842 H 86.0556 -3.06133 -2.81819 0
M  V30 843 H 84.9316 -3.72433 -4.03219 0
M  V30 844 H 85.1926 -1.9893 -3.94815 0
M  V30 845 N 84.2517 0.741722 -1.39055 0
M  V30 846 C 85.5007 1.49656 -1.35225 0
M  V30 847 C 85.8137 1.95533 0.0512708 0
M  V30 848 O 87.0197 2.7067 0.212138 0
M  V30 849 C 85.4757 2.70389 -2.37525 0
M  V30 850 C 85.0837 2.31489 -3.83558 0
M  V30 851 C 86.8277 3.48236 -2.42759 0
M  V30 852 C 84.7347 3.48903 -4.77515 0
M  V30 853 H 83.6647 0.56197 -0.502699 0
M  V30 854 H 86.3157 0.809727 -1.64668 0
M  V30 855 H 84.6977 3.41113 -2.01142 0
M  V30 856 H 85.8717 1.68354 -4.28945 0
M  V30 857 H 84.1867 1.66749 -3.81554 0
M  V30 858 H 86.7837 4.35558 -3.1015 0
M  V30 859 H 87.1267 3.90229 -1.45008 0
M  V30 860 H 87.6597 2.84535 -2.78002 0
M  V30 861 H 84.3987 3.11966 -5.76504 0
M  V30 862 H 83.9187 4.11041 -4.36813 0
M  V30 863 H 85.5977 4.15328 -4.96096 0
M  V30 864 N 85.7298 1.2412 0.971189 0
M  V30 865 C 86.9578 1.10575 1.74874 0
M  V30 866 C 87.3728 -0.342017 1.85676 0
M  V30 867 O 86.7298 -1.23617 1.34258 0
M  V30 868 C 86.7808 1.73579 3.171 0
M  V30 869 O 86.5018 3.12695 3.06844 0
M  V30 870 C 88.0028 1.65598 4.11208 0
M  V30 871 H 85.2228 0.386504 0.548503 0
M  V30 872 H 87.7668 1.64156 1.21955 0
M  V30 873 H 85.9218 1.24009 3.67016 0
M  V30 874 H 86.3358 3.43412 3.96445 0
M  V30 875 H 87.8098 2.1437 5.08674 0
M  V30 876 H 88.2868 0.616532 4.34851 0
M  V30 877 H 88.8928 2.14578 3.67201 0
M  V30 878 N 87.2079 -1.17134 1.05439 0
M  V30 879 C 88.6189 -1.69084 0.791676 0
M  V30 880 C 88.9699 -1.83822 -0.685839 0
M  V30 881 O 88.0949 -1.52757 -1.53278 0
M  V30 882 C 88.6899 -3.07119 1.4305 0
M  V30 883 C 87.2489 -3.56225 1.21577 0
M  V30 884 C 86.3959 -2.32421 1.51247 0
M  V30 885 H 89.3469 -1.01617 1.219 0
M  V30 886 H 89.3679 -3.71087 0.84112 0
M  V30 887 H 88.8799 -2.9636 2.50584 0
M  V30 888 H 86.9809 -3.72257 0.159787 0
M  V30 889 H 87.0939 -4.38837 1.92246 0
M  V30 890 H 85.4579 -2.3701 0.932653 0
M  V30 891 H 86.2409 -2.24268 2.5992 0
M  V30 892 N 88.686 -0.835752 -1.33615 0
M  V30 893 C 89.934 -0.429109 -1.97492 0
M  V30 894 C 90.255 1.01433 -1.66543 0
M  V30 895 O 89.525 1.70611 -0.962744 0
M  V30 896 H 88.105 -0.155686 -0.730596 0
M  V30 897 H 90.767 -1.06802 -1.63031 0
M  V30 898 H 89.863 -0.55861 -3.0706 0
M  V30 899 N 90.1641 1.46063 -0.591896 0
M  V30 900 C 91.1271 2.28854 0.125973 0
M  V30 901 C 92.1271 1.38903 0.810107 0
M  V30 902 O 93.3171 1.61186 0.66066 0
M  V30 903 C 90.4491 3.19526 1.1881 0
M  V30 904 H 91.6421 2.93802 -0.601717 0
M  V30 905 H 89.1951 1.52325 -0.350254 0
M  V30 906 H 89.9301 2.59345 1.94707 0
M  V30 907 H 89.7151 3.85766 0.701936 0
M  V30 908 H 91.2051 3.81817 1.69132 0
M  V30 909 N 91.6422 0.330177 1.54103 0
M  V30 910 C 93.0582 -0.0222371 1.59585 0
M  V30 911 C 93.2582 -1.49902 1.34654 0
M  V30 912 O 92.3142 -2.25592 1.13421 0
M  V30 913 C 93.6272 0.401932 2.98002 0
M  V30 914 C 95.1752 0.353145 3.11001 0
M  V30 915 C 95.6502 0.752576 4.51775 0
M  V30 916 N 97.1412 0.706239 4.57784 0
M  V30 917 C 97.8762 0.987417 5.64834 0
M  V30 918 N 97.3722 1.33607 6.79795 0
M  V30 919 N 99.1652 0.91254 5.54643 0
M  V30 920 H 91.3162 1.29228 1.68564 0
M  V30 921 H 93.5792 0.525906 0.78875 0
M  V30 922 H 93.2852 1.4311 3.21267 0
M  V30 923 H 93.1592 -0.229699 3.765 0
M  V30 924 H 95.5462 -0.666822 2.87467 0
M  V30 925 H 95.6272 1.0198 2.34593 0
M  V30 926 H 95.2712 1.77049 4.76042 0
M  V30 927 H 95.2012 0.0635409 5.26562 0
M  V30 928 H 97.6922 0.44889 3.75224 0
M  V30 929 H 98.0052 1.53582 7.57385 0
M  V30 930 H 96.3502 1.37439 6.81275 0
M  V30 931 H 99.5412 0.639601 4.6371 0
M  V30 932 H 99.7142 1.13503 6.37982 0
M  V30 933 N 93.1203 -1.57491 0.0584922 0
M  V30 934 C 94.3483 -1.97296 -0.623037 0
M  V30 935 C 94.7633 -0.936338 -1.63946 0
M  V30 936 O 94.1203 0.0785981 -1.82331 0
M  V30 937 C 94.1713 -3.37183 -1.30345 0
M  V30 938 O 93.8923 -4.36872 -0.32773 0
M  V30 939 C 95.3933 -3.91788 -2.07406 0
M  V30 940 H 92.6133 -0.649153 -0.169826 0
M  V30 941 H 95.1573 -2.04106 0.12696 0
M  V30 942 H 93.3123 -3.31502 -2.00463 0
M  V30 943 H 93.7263 -5.18141 -0.814269 0
M  V30 944 H 95.2003 -4.91926 -2.50425 0
M  V30 945 H 95.6773 -3.27609 -2.92521 0
M  V30 946 H 96.2833 -4.00829 -1.42184 0
M  V30 947 N 94.5984 0.214957 -1.56127 0
M  V30 948 C 96.0144 0.564948 -1.49267 0
M  V30 949 C 96.2144 1.86827 -0.754838 0
M  V30 950 O 95.2704 2.50745 -0.297198 0
M  V30 951 C 96.5834 0.638071 -2.93852 0
M  V30 952 C 98.1314 0.728253 -3.0441 0
M  V30 953 C 98.6064 0.832663 -4.50367 0
M  V30 954 N 100.097 0.896712 -4.54437 0
M  V30 955 C 100.832 0.997324 -5.6466 0
M  V30 956 N 100.328 1.06147 -6.8462 0
M  V30 957 N 102.121 1.03297 -5.52527 0
M  V30 958 H 94.2724 -0.640211 -2.02522 0
M  V30 959 H 96.5354 -0.225507 -0.920788 0
M  V30 960 H 96.2414 -0.250126 -3.50809 0
M  V30 961 H 96.1154 1.49947 -3.46115 0
M  V30 962 H 98.5024 1.60689 -2.47514 0
M  V30 963 H 98.5834 -0.158952 -2.55306 0
M  V30 964 H 98.2274 -0.0415417 -5.07883 0
M  V30 965 H 98.1574 1.73538 -4.97184 0
M  V30 966 H 100.648 0.857188 -3.6805 0
M  V30 967 H 100.961 1.1382 -7.64372 0
M  V30 968 H 99.3064 1.03049 -6.87318 0
M  V30 969 H 102.497 0.979558 -4.57736 0
M  V30 970 H 102.67 1.10793 -6.38458 0
M  V30 971 N 96.0765 1.50051 0.48192 0
M  V30 972 C 97.3245 1.60181 1.23234 0
M  V30 973 C 97.6455 0.299176 1.92691 0
M  V30 974 O 96.9155 -0.682708 1.83619 0
M  V30 975 H 95.4955 0.590232 0.457859 0
M  V30 976 H 98.1575 1.86775 0.556881 0
M  V30 977 H 97.2535 2.40753 1.98607 0
M  V30 978 N 97.5546 -0.734337 1.39446 0
M  V30 979 C 98.7826 -1.52358 1.39981 0
M  V30 980 C 99.1976 -1.88799 -0.0054975 0
M  V30 981 O 98.5546 -1.54146 -0.976998 0
M  V30 982 C 98.6056 -2.81072 2.27333 0
M  V30 983 O 98.3266 -2.46178 3.62392 0
M  V30 984 C 99.8276 -3.75096 2.36259 0
M  V30 985 H 97.0476 -0.470806 0.478103 0
M  V30 986 H 99.5916 -0.907339 1.83269 0
M  V30 987 H 97.7466 -3.39026 1.87457 0
M  V30 988 H 98.1606 -3.28866 4.08592 0
M  V30 989 H 99.6346 -4.62305 3.01626 0
M  V30 990 H 100.112 -4.16892 1.38194 0
M  V30 991 H 100.718 -3.23061 2.76608 0
M  V30 992 N 99.0327 -1.24633 -0.964593 0
M  V30 993 C 100.449 -1.01239 -1.2338 0
M  V30 994 C 100.649 0.2769 -1.99588 0
M  V30 995 O 99.7047 0.992241 -2.32187 0
M  V30 996 C 101.018 -2.22937 -2.01791 0
M  V30 997 C 102.566 -2.27594 -2.14872 0
M  V30 998 C 103.041 -3.48921 -2.96678 0
M  V30 999 N 104.532 -3.49257 -3.04259 0
M  V30 1000 C 105.267 -4.39795 -3.67924 0
M  V30 1001 N 104.763 -5.40591 -4.33281 0
M  V30 1002 N 106.556 -4.275 -3.64966 0
M  V30 1003 H 98.7067 -2.0748 -0.454502 0
M  V30 1004 H 100.97 -0.910647 -0.26349 0
M  V30 1005 H 100.676 -3.16587 -1.53184 0
M  V30 1006 H 100.55 -2.25306 -3.02518 0
M  V30 1007 H 102.937 -1.34473 -2.6268 0
M  V30 1008 H 103.018 -2.2925 -1.13482 0
M  V30 1009 H 102.662 -4.42359 -2.49562 0
M  V30 1010 H 102.592 -3.4451 -3.98272 0
M  V30 1011 H 105.083 -2.76337 -2.57771 0
M  V30 1012 H 105.396 -6.05904 -4.79687 0
M  V30 1013 H 103.741 -5.44475 -4.3194 0
M  V30 1014 H 106.932 -3.47987 -3.13086 0
M  V30 1015 H 107.105 -4.98258 -4.14298 0
M  V30 1016 N 100.511 1.16574 -1.06058 0
M  V30 1017 C 101.927 1.3904 -0.783585 0
M  V30 1018 C 102.127 1.91784 0.618145 0
M  V30 1019 O 101.183 2.11511 1.37911 0
M  V30 1020 C 102.496 2.37329 -1.84649 0
M  V30 1021 C 104.044 2.51018 -1.86973 0
M  V30 1022 C 104.519 3.52588 -2.92311 0
M  V30 1023 N 106.01 3.60113 -2.91329 0
M  V30 1024 C 106.745 4.38486 -3.69482 0
M  V30 1025 N 106.241 5.20302 -4.57447 0
M  V30 1026 N 108.034 4.33446 -3.57885 0
M  V30 1027 H 100.185 0.806725 -1.96483 0
M  V30 1028 H 102.448 0.417117 -0.851303 0
M  V30 1029 H 102.154 2.05663 -2.85299 0
M  V30 1030 H 102.028 3.36946 -1.6955 0
M  V30 1031 H 104.415 2.81989 -0.869827 0
M  V30 1032 H 104.496 1.51445 -2.0615 0
M  V30 1033 H 104.14 3.22354 -3.92492 0
M  V30 1034 H 104.07 4.51886 -2.70383 0
M  V30 1035 H 106.561 3.01707 -2.27555 0
M  V30 1036 H 106.874 5.77311 -5.13743 0
M  V30 1037 H 105.219 5.19653 -4.61503 0
M  V30 1038 H 108.41 3.68586 -2.88551 0
M  V30 1039 H 108.583 4.94279 -4.19037 0
M  V30 1040 N 101.989 0.842826 1.3317 0
M  V30 1041 C 103.238 0.436738 1.96915 0
M  V30 1042 C 103.551 -1.01025 1.67491 0
M  V30 1043 O 104.757 -1.5212 2.24881 0
M  V30 1044 C 103.213 0.730021 3.52418 0
M  V30 1045 C 102.821 2.19195 3.90714 0
M  V30 1046 C 104.565 0.391076 4.22695 0
M  V30 1047 C 102.472 2.42907 5.39212 0
M  V30 1048 H 101.402 0.15958 0.736919 0
M  V30 1049 H 104.053 1.03196 1.51733 0
M  V30 1050 H 102.435 0.0643755 3.95948 0
M  V30 1051 H 103.609 2.8984 3.58231 0
M  V30 1052 H 101.924 2.49425 3.33431 0
M  V30 1053 H 104.521 0.545817 5.31907 0
M  V30 1054 H 104.864 -0.666294 4.10933 0
M  V30 1055 H 105.397 1.01212 3.84709 0
M  V30 1056 H 102.136 3.47224 5.55982 0
M  V30 1057 H 101.656 1.76827 5.73142 0
M  V30 1058 H 103.335 2.2626 6.06148 0
M  V30 1059 N 103.467 -1.45747 0.599634 0
M  V30 1060 C 104.716 -2.01502 0.0893511 0
M  V30 1061 C 105.029 -1.4748 -1.28488 0
M  V30 1062 O 106.235 -1.95161 -1.88745 0
M  V30 1063 C 104.691 -3.59735 0.109082 0
M  V30 1064 C 104.299 -4.22754 1.48267 0
M  V30 1065 C 106.043 -4.23085 -0.346374 0
M  V30 1066 C 103.95 -5.73115 1.45921 0
M  V30 1067 H 102.88 -0.753417 0.0296347 0
M  V30 1068 H 105.531 -1.67303 0.753788 0
M  V30 1069 H 103.913 -3.91087 -0.621854 0
M  V30 1070 H 105.087 -4.02987 2.23468 0
M  V30 1071 H 103.402 -3.71567 1.87955 0
M  V30 1072 H 105.999 -5.33327 -0.38298 0
M  V30 1073 H 106.342 -3.93201 -1.36743 0
M  V30 1074 H 106.875 -3.9642 0.331038 0
M  V30 1075 H 103.614 -6.07685 2.45762 0
M  V30 1076 H 103.134 -5.95097 0.749665 0
M  V30 1077 H 104.813 -6.3616 1.17941 0
M  V30 1078 N 104.945 -0.338344 -1.53925 0
M  V30 1079 C 106.173 0.261298 -2.05243 0
M  V30 1080 C 106.588 1.44625 -1.21363 0
M  V30 1081 O 105.945 1.80811 -0.247736 0
M  V30 1082 C 105.996 0.681412 -3.5502 0
M  V30 1083 O 105.717 -0.456414 -4.35716 0
M  V30 1084 C 107.218 1.34232 -4.22489 0
M  V30 1085 H 104.438 0.0513685 -0.669031 0
M  V30 1086 H 106.982 -0.488822 -1.98572 0
M  V30 1087 H 105.137 1.38148 -3.61931 0
M  V30 1088 H 105.551 -0.122564 -5.24357 0
M  V30 1089 H 107.025 1.58708 -5.28693 0
M  V30 1090 H 107.502 2.29426 -3.74514 0
M  V30 1091 H 108.108 0.684424 -4.19757 0
M  V30 1092 N 106.423 1.57458 -0.0668435 0
M  V30 1093 C 107.671 1.92919 0.602214 0
M  V30 1094 C 107.992 0.947215 1.70449 0
M  V30 1095 O 107.262 -0.00544117 1.95899 0
M  V30 1096 H 105.842 0.71217 0.22544 0
M  V30 1097 H 108.504 1.94508 -0.123535 0
M  V30 1098 H 107.6 2.94589 1.03073 0
M  V30 1099 N 107.901 -0.206675 1.56239 0
M  V30 1100 C 108.811 -1.27686 1.96808 0
M  V30 1101 C 109.827 -1.50455 0.874035 0
M  V30 1102 O 111.003 -1.63295 1.17884 0
M  V30 1103 C 108.068 -2.60358 2.28942 0
M  V30 1104 C 107.129 -2.45762 3.51994 0
M  V30 1105 C 106.362 -3.72108 3.82585 0
M  V30 1106 O 106.585 -4.75776 3.14631 0
M  V30 1107 O 105.519 -3.6833 4.76043 0
M  V30 1108 H 109.345 -0.962593 2.88041 0
M  V30 1109 H 106.93 -0.410746 1.43643 0
M  V30 1110 H 108.812 -3.38687 2.50737 0
M  V30 1111 H 107.487 -2.91435 1.4088 0
M  V30 1112 H 106.394 -1.65584 3.35459 0
M  V30 1113 H 107.727 -2.19621 4.40486 0
M  V30 1114 N 109.379 -1.50304 -0.473955 0
M  V30 1115 C 110.342 -1.6841 -1.55469 0
M  V30 1116 C 111.342 -0.554905 -1.50922 0
M  V30 1117 O 112.532 -0.821882 -1.53593 0
M  V30 1118 C 109.664 -1.70667 -2.95102 0
M  V30 1119 H 110.857 -2.64828 -1.40733 0
M  V30 1120 H 108.41 -1.39742 -0.700132 0
M  V30 1121 H 109.145 -0.75932 -3.15285 0
M  V30 1122 H 108.93 -2.52698 -2.9981 0
M  V30 1123 H 110.42 -1.8664 -3.73571 0
M  V30 1124 N 110.857 0.726932 -1.39834 0
M  V30 1125 C 112.085 1.51613 -1.40787 0
M  V30 1126 C 112.5 1.88799 -0.00451505 0
M  V30 1127 O 111.857 1.54662 0.968809 0
M  V30 1128 C 111.908 2.79863 -2.28821 0
M  V30 1129 O 111.629 2.44253 -3.63692 0
M  V30 1130 C 113.13 3.73837 -2.38245 0
M  V30 1131 H 110.35 0.468264 -0.480593 0
M  V30 1132 H 112.894 0.897607 -1.83748 0
M  V30 1133 H 111.049 3.38027 -1.89252 0
M  V30 1134 H 111.463 3.26695 -4.1033 0
M  V30 1135 H 112.937 4.60699 -3.04073 0
M  V30 1136 H 113.414 4.16153 -1.40403 0
M  V30 1137 H 114.02 3.21589 -2.78317 0
M  V30 1138 N 112.336 1.25143 0.95797 0
M  V30 1139 C 113.268 1.01023 2.05735 0
M  V30 1140 C 114.281 -0.0236902 1.62783 0
M  V30 1141 O 115.47 0.21448 1.77207 0
M  V30 1142 C 112.57 0.504595 3.35122 0
M  V30 1143 C 111.743 1.6039 4.06932 0
M  V30 1144 C 110.802 1.09922 5.14591 0
M  V30 1145 O 109.828 1.79293 5.40225 0
M  V30 1146 N 111.03 -0.0612545 5.80468 0
M  V30 1147 H 113.795 1.95683 2.26998 0
M  V30 1148 H 111.356 1.16303 1.12629 0
M  V30 1149 H 113.348 0.151516 4.04416 0
M  V30 1150 H 111.918 -0.347989 3.10657 0
M  V30 1151 H 111.138 2.12872 3.31782 0
M  V30 1152 H 112.426 2.34252 4.51667 0
M  V30 1153 H 111.824 -0.640985 5.62057 0
M  V30 1154 H 110.381 -0.355395 6.5083 0
M  V30 1155 N 113.814 -1.1601 1.06675 0
M  V30 1156 C 114.724 -2.24156 0.692179 0
M  V30 1157 C 115.74 -1.71507 -0.293513 0
M  V30 1158 O 116.916 -2.009 -0.141861 0
M  V30 1159 C 113.981 -3.46587 0.0884131 0
M  V30 1160 C 113.042 -4.14257 1.12646 0
M  V30 1161 C 112.275 -5.30844 0.551416 0
M  V30 1162 O 112.498 -5.66858 -0.634656 0
M  V30 1163 O 111.432 -5.87848 1.29298 0
M  V30 1164 H 115.258 -2.58513 1.59388 0
M  V30 1165 H 112.843 -1.23599 0.83926 0
M  V30 1166 H 114.725 -4.20679 -0.246361 0
M  V30 1167 H 113.4 -3.13994 -0.786712 0
M  V30 1168 H 112.307 -3.42118 1.51348 0
M  V30 1169 H 113.64 -4.50914 1.97325 0
M  V30 1170 N 115.292 -0.849877 -1.32721 0
M  V30 1171 C 116.569 -0.372405 -1.92022 0
M  V30 1172 C 116.949 1.1435 -1.77447 0
M  V30 1173 O 116.297 1.96296 -1.16962 0
M  V30 1174 C 116.507 -0.831482 -3.3895 0
M  V30 1175 C 117.855 -0.845882 -4.16089 0
M  V30 1176 O 118.879 -0.775806 -3.47649 0
M  V30 1177 O 117.738 -0.943753 -5.38289 0
M  V30 1178 H 114.832 -0.107667 -0.819961 0
M  V30 1179 H 117.378 -0.93646 -1.41522 0
M  V30 1180 H 116.15 -1.87448 -3.4348 0
M  V30 1181 H 115.773 -0.24461 -3.96847 0
M  V30 1182 N 116.77 1.45427 -0.607355 0
M  V30 1183 C 118 2.06314 -0.108656 0
M  V30 1184 C 118.408 1.45269 1.21217 0
M  V30 1185 O 117.751 0.561115 1.74921 0
M  V30 1186 C 117.813 3.59345 0.105618 0
M  V30 1187 C 117.477 4.42723 -1.13337 0
M  V30 1188 C 118.474 4.77715 -2.05145 0
M  V30 1189 C 116.159 4.83478 -1.36213 0
M  V30 1190 C 118.153 5.52317 -3.18158 0
M  V30 1191 C 115.84 5.57835 -2.49527 0
M  V30 1192 C 116.838 5.92171 -3.40327 0
M  V30 1193 O 116.526 6.65019 -4.51669 0
M  V30 1194 H 116.258 0.672782 -0.0658842 0
M  V30 1195 H 118.812 1.87664 -0.834945 0
M  V30 1196 H 117.042 3.76394 0.886796 0
M  V30 1197 H 118.731 4.02076 0.555886 0
M  V30 1198 H 119.497 4.46787 -1.88697 0
M  V30 1199 H 115.376 4.56188 -0.664362 0
M  V30 1200 H 118.92 5.79036 -3.89054 0
M  V30 1201 H 114.817 5.88177 -2.65928 0
M  V30 1202 H 115.585 6.83469 -4.50348 0
M  V30 1203 N 118.248 0.346503 1.53744 0
M  V30 1204 C 119.478 -0.250047 2.05081 0
M  V30 1205 C 119.886 -1.44529 1.22098 0
M  V30 1206 O 119.229 -1.81992 0.249917 0
M  V30 1207 C 119.291 -0.725934 3.52094 0
M  V30 1208 C 118.955 0.350053 4.55657 0
M  V30 1209 C 119.952 1.19372 5.0601 0
M  V30 1210 C 117.637 0.504827 4.99757 0
M  V30 1211 C 119.631 2.17768 5.99046 0
M  V30 1212 C 117.318 1.49218 5.92602 0
M  V30 1213 C 118.316 2.32706 6.42135 0
M  V30 1214 O 118.004 3.2976 7.33153 0
M  V30 1215 H 117.736 -0.0515469 0.674032 0
M  V30 1216 H 120.29 0.497559 1.99282 0
M  V30 1217 H 118.52 -1.52483 3.55367 0
M  V30 1218 H 120.209 -1.24336 3.86388 0
M  V30 1219 H 120.975 1.08525 4.72702 0
M  V30 1220 H 116.854 -0.135178 4.60802 0
M  V30 1221 H 120.398 2.82971 6.37631 0
M  V30 1222 H 116.295 1.6012 6.25325 0
M  V30 1223 H 117.063 3.25265 7.51096 0
M  V30 1224 N 119.726 -1.57421 0.075193 0
M  V30 1225 C 120.954 -1.97946 -0.602076 0
M  V30 1226 C 121.369 -0.953674 -1.62943 0
M  V30 1227 O 120.726 0.0592551 -1.82404 0
M  V30 1228 C 120.777 -3.38546 -1.26762 0
M  V30 1229 O 120.498 -4.37195 -0.281376 0
M  V30 1230 C 121.999 -3.93966 -2.03239 0
M  V30 1231 H 119.219 -0.650918 -0.162931 0
M  V30 1232 H 121.763 -2.03959 0.148601 0
M  V30 1233 H 119.918 -3.33609 -1.96936 0
M  V30 1234 H 120.332 -5.18975 -0.759267 0
M  V30 1235 H 121.806 -4.94555 -2.45193 0
M  V30 1236 H 122.283 -3.30693 -2.8903 0
M  V30 1237 H 122.889 -4.02315 -1.37924 0
M  V30 1238 N 121.204 0.198386 -1.56346 0
M  V30 1239 C 122.452 0.91747 -1.80075 0
M  V30 1240 C 122.773 1.83929 -0.647692 0
M  V30 1241 O 122.043 1.93029 0.334166 0
M  V30 1242 H 120.623 0.341774 -0.664228 0
M  V30 1243 H 123.285 0.204684 -1.93822 0
M  V30 1244 H 122.381 1.51055 -2.7311 0
M  V30 1245 N 122.682 1.50554 0.465978 0
M  V30 1246 C 123.959 1.5232 1.22712 0
M  V30 1247 C 124.339 0.270807 2.09356 0
M  V30 1248 O 123.687 -0.745541 2.15995 0
M  V30 1249 C 123.897 2.82175 2.05374 0
M  V30 1250 C 125.245 3.33033 2.6339 0
M  V30 1251 O 126.269 2.83531 2.15612 0
M  V30 1252 O 125.128 4.19336 3.50456 0
M  V30 1253 H 122.222 0.611183 0.557122 0
M  V30 1254 H 124.768 1.62847 0.477381 0
M  V30 1255 H 123.54 3.64797 1.41558 0
M  V30 1256 H 123.163 2.74675 2.87471 0
M  V30 1257 N 124.16 -0.719506 1.40217 0
M  V30 1258 C 125.11 -1.8251 1.36653 0
M  V30 1259 C 126.094 -1.59028 0.244732 0
M  V30 1260 O 127.286 -1.70268 0.483524 0
M  V30 1261 C 124.415 -3.20599 1.22763 0
M  V30 1262 C 123.501 -3.49858 2.39708 0
M  V30 1263 N 123.892 -3.49957 3.6519 0
M  V30 1264 C 122.19 -3.80297 2.33002 0
M  V30 1265 C 122.891 -3.77449 4.42614 0
M  V30 1266 N 121.867 -3.96002 3.72402 0
M  V30 1267 H 125.669 -1.80914 2.31619 0
M  V30 1268 H 123.183 -0.918455 1.33933 0
M  V30 1269 H 125.18 -3.99766 1.18292 0
M  V30 1270 H 123.84 -3.23424 0.287614 0
M  V30 1271 H 124.851 -3.309 3.98404 0
M  V30 1272 H 121.528 -3.90635 1.47346 0
M  V30 1273 H 122.918 -3.83863 5.51451 0
M  V30 1274 N 125.638 -1.25649 -0.95132 0
M  V30 1275 C 126.868 -1.13179 -1.72841 0
M  V30 1276 C 127.276 0.316827 -1.86528 0
M  V30 1277 O 126.619 1.22948 -1.3649 0
M  V30 1278 C 126.681 -1.71644 -3.15878 0
M  V30 1279 C 126.345 -3.20667 -3.25609 0
M  V30 1280 C 127.342 -4.17616 -3.09666 0
M  V30 1281 C 125.027 -3.6094 -3.49324 0
M  V30 1282 C 127.021 -5.52817 -3.17289 0
M  V30 1283 C 124.708 -4.96278 -3.56584 0
M  V30 1284 C 125.706 -5.92025 -3.40581 0
M  V30 1285 O 125.394 -7.24899 -3.47528 0
M  V30 1286 H 125.126 -0.395389 -0.54831 0
M  V30 1287 H 127.68 -1.66566 -1.20187 0
M  V30 1288 H 125.91 -1.12707 -3.69911 0
M  V30 1289 H 127.599 -1.54225 -3.75459 0
M  V30 1290 H 128.365 -3.87842 -2.91211 0
M  V30 1291 H 124.244 -2.86907 -3.6084 0
M  V30 1292 H 127.788 -6.2753 -3.04716 0
M  V30 1293 H 123.685 -5.25716 -3.74556 0
M  V30 1294 H 124.453 -7.33039 -3.64138 0
M  V30 1295 N 127.117 1.15442 -1.07289 0
M  V30 1296 C 128.08 2.18358 -0.696591 0
M  V30 1297 C 129.08 1.58637 0.262837 0
M  V30 1298 O 130.27 1.74145 0.0438809 0
M  V30 1299 C 127.402 3.4089 -0.0266151 0
M  V30 1300 H 128.595 2.53162 -1.60776 0
M  V30 1301 H 126.148 1.29893 -0.869342 0
M  V30 1302 H 126.883 3.11653 0.896822 0
M  V30 1303 H 126.668 3.85495 -0.716657 0
M  V30 1304 H 128.158 4.17009 0.222028 0
M  V30 1305 N 128.595 0.856903 1.32268 0
M  V30 1306 C 129.823 0.475439 2.01363 0
M  V30 1307 C 130.238 -0.928486 1.64392 0
M  V30 1308 O 129.595 -1.60624 0.866387 0
M  V30 1309 C 129.646 0.607545 3.56358 0
M  V30 1310 O 129.367 1.95617 3.92002 0
M  V30 1311 C 130.868 0.225382 4.42727 0
M  V30 1312 H 128.088 0.186636 0.644521 0
M  V30 1313 H 130.632 1.15446 1.68797 0
M  V30 1314 H 128.787 -0.0237719 3.87393 0
M  V30 1315 H 129.201 1.95455 4.86721 0
M  V30 1316 H 130.675 0.368813 5.50767 0
M  V30 1317 H 131.152 -0.834369 4.31202 0
M  V30 1318 H 131.758 0.831864 4.17085 0
M  V30 1319 N 130.073 -1.45103 0.615059 0
M  V30 1320 C 131.32 -2.02183 0.113179 0
M  V30 1321 C 131.648 -1.48249 -1.25906 0
M  V30 1322 O 130.903 -0.650265 -1.84581 0
M  V30 1323 C 131.202 -3.57386 0.0318797 0
M  V30 1324 C 130.868 -4.30505 1.34077 0
M  V30 1325 C 129.53 -4.50197 1.69929 0
M  V30 1326 C 131.882 -4.72238 2.20546 0
M  V30 1327 C 129.21 -5.08881 2.91988 0
M  V30 1328 C 131.562 -5.32272 3.41861 0
M  V30 1329 C 130.226 -5.50187 3.77956 0
M  V30 1330 H 129.496 -0.739842 0.0414151 0
M  V30 1331 H 132.143 -1.74073 0.798168 0
M  V30 1332 H 130.448 -3.84817 -0.736409 0
M  V30 1333 H 132.145 -3.99264 -0.372712 0
M  V30 1334 H 128.735 -4.15496 1.05173 0
M  V30 1335 H 132.919 -4.56751 1.94146 0
M  V30 1336 H 128.175 -5.20939 3.2005 0
M  V30 1337 H 132.349 -5.63563 4.09109 0
M  V30 1338 H 129.976 -5.95427 4.72622 0
M  V30 1339 N 131.551 -0.354651 -1.53558 0
M  V30 1340 C 132.776 0.242153 -2.05981 0
M  V30 1341 C 133.201 1.42553 -1.2272 0
M  V30 1342 O 132.559 1.79656 -0.243604 0
M  V30 1343 C 132.607 0.624367 -3.55154 0
M  V30 1344 O 131.711 1.72301 -3.74681 0
M  V30 1345 H 131.052 0.0378432 -0.662921 0
M  V30 1346 H 133.582 -0.512087 -1.98088 0
M  V30 1347 H 133.592 0.898433 -3.97985 0
M  V30 1348 H 132.267 -0.240989 -4.15201 0
M  V30 1349 H 130.844 1.44535 -3.4375 0
M  V30 1350 N 133.029 1.57378 -0.0835403 0
M  V30 1351 C 133.959 2.1641 0.87686 0
M  V30 1352 C 134.94 1.09429 1.30228 0
M  V30 1353 O 136.125 1.37516 1.37124 0
M  V30 1354 C 133.255 2.73517 2.14022 0
M  V30 1355 C 132.209 3.85769 1.85381 0
M  V30 1356 C 131.535 4.29529 3.18448 0
M  V30 1357 C 132.835 5.09486 1.14984 0
M  V30 1358 H 134.529 2.96914 0.385059 0
M  V30 1359 H 132.075 1.42823 0.18377 0
M  V30 1360 H 134.028 3.13463 2.81636 0
M  V30 1361 H 132.752 1.90252 2.65465 0
M  V30 1362 H 131.411 3.46345 1.20169 0
M  V30 1363 H 131.059 3.43169 3.67755 0
M  V30 1364 H 130.759 5.05204 3.00071 0
M  V30 1365 H 132.283 4.72099 3.8724 0
M  V30 1366 H 133.697 5.46674 1.72687 0
M  V30 1367 H 132.094 5.90515 1.06826 0
M  V30 1368 H 133.164 4.84724 0.130749 0
M  V30 1369 N 134.507 -0.190092 1.56449 0
M  V30 1370 C 135.756 -0.907912 1.80111 0
M  V30 1371 C 136.069 -1.84214 0.657619 0
M  V30 1372 O 137.275 -2.60094 0.778663 0
M  V30 1373 C 135.731 -1.66485 3.19078 0
M  V30 1374 C 135.339 -0.7752 4.41242 0
M  V30 1375 C 137.083 -2.37201 3.52045 0
M  V30 1376 C 134.99 -1.53129 5.71231 0
M  V30 1377 H 133.92 -0.34276 0.671589 0
M  V30 1378 H 136.571 -0.161109 1.82791 0
M  V30 1379 H 134.953 -2.45572 3.10661 0
M  V30 1380 H 136.127 -0.0226298 4.60794 0
M  V30 1381 H 134.442 -0.178627 4.16017 0
M  V30 1382 H 137.039 -2.94329 4.46402 0
M  V30 1383 H 137.382 -3.11632 2.76028 0
M  V30 1384 H 137.915 -1.65075 3.61932 0
M  V30 1385 H 134.654 -0.82967 6.50228 0
M  V30 1386 H 134.174 -2.25767 5.55688 0
M  V30 1387 H 135.853 -2.08377 6.12526 0
M  V30 1388 N 135.985 -1.50799 -0.457987 0
M  V30 1389 C 137.262 -1.52968 -1.21902 0
M  V30 1390 C 137.642 -0.281906 -2.09209 0
M  V30 1391 O 136.99 0.734076 -2.16388 0
M  V30 1392 C 137.2 -2.8326 -2.03875 0
M  V30 1393 C 138.548 -3.34425 -2.6162 0
M  V30 1394 O 139.572 -2.8467 -2.14106 0
M  V30 1395 O 138.431 -4.21188 -3.48228 0
M  V30 1396 H 135.525 -0.614129 -0.553873 0
M  V30 1397 H 138.071 -1.63098 -0.468739 0
M  V30 1398 H 136.843 -3.65543 -1.39621 0
M  V30 1399 H 136.466 -2.76195 -2.8601 0
M  V30 1400 N 137.463 0.71206 -1.40597 0
M  V30 1401 C 138.395 1.83704 -1.37061 0
M  V30 1402 C 139.408 1.60453 -0.275426 0
M  V30 1403 O 140.597 1.70262 -0.53602 0
M  V30 1404 C 137.697 3.20172 -1.11099 0
M  V30 1405 C 136.87 3.7059 -2.3234 0
M  V30 1406 C 135.929 4.85681 -2.02485 0
M  V30 1407 O 134.955 4.9815 -2.75382 0
M  V30 1408 N 136.157 5.71735 -1.00497 0
M  V30 1409 H 138.922 1.87235 -2.34016 0
M  V30 1410 H 136.483 0.893739 -1.34996 0
M  V30 1411 H 138.475 3.94768 -0.891064 0
M  V30 1412 H 137.045 3.11767 -0.227989 0
M  V30 1413 H 136.265 2.87085 -2.7014 0
M  V30 1414 H 137.553 4.01011 -3.13157 0
M  V30 1415 H 136.951 5.64275 -0.401298 0
M  V30 1416 H 135.508 6.463 -0.844942 0
M  V30 1417 N 138.941 1.26152 0.944643 0
M  V30 1418 C 140.169 1.14259 1.72489 0
M  V30 1419 C 140.584 -0.302555 1.8636 0
M  V30 1420 O 139.941 -1.20741 1.36849 0
M  V30 1421 C 139.992 1.80266 3.13347 0
M  V30 1422 O 139.713 3.19133 3.00143 0
M  V30 1423 C 141.214 1.74283 4.07603 0
M  V30 1424 H 138.434 0.398051 0.540181 0
M  V30 1425 H 140.978 1.66706 1.18446 0
M  V30 1426 H 139.133 1.31766 3.64303 0
M  V30 1427 H 139.547 3.51744 3.89071 0
M  V30 1428 H 141.021 2.25111 5.04013 0
M  V30 1429 H 141.498 0.708631 4.33446 0
M  V30 1430 H 142.104 2.22319 3.62567 0
M  V30 1431 N 140.419 -1.14872 1.07899 0
M  V30 1432 C 141.659 -1.8745 0.814965 0
M  V30 1433 C 142.023 -1.80758 -0.64733 0
M  V30 1434 O 143.224 -2.48422 -1.02664 0
M  V30 1435 C 141.495 -3.32286 1.31607 0
M  V30 1436 S 143.054 -4.22537 1.18357 0
M  V30 1437 H 139.872 -0.646833 0.295174 0
M  V30 1438 H 142.474 -1.38555 1.37923 0
M  V30 1439 H 141.178 -3.34703 2.37491 0
M  V30 1440 H 140.709 -3.86238 0.747261 0
M  V30 1441 H 142.724 -4.96044 0.124586 0
M  V30 1442 O 141.936 -0.997703 -1.26997 0
M  V30 1443 H 142.627 -0.649446 -1.82488 0
M  V30 END ATOM
M  V30 BEGIN BOND
M  V30 END BOND
M  V30 END CTAB
M  END
$$$$
