drugbank_target|P05787 Keratin, type II cytoskeletal 8 (DB00031; DB06245; DB09130)
 OpenBabel12092120053D

  0  0  0     0  0            999 V3000
M  V30 BEGIN CTAB
M  V30 COUNTS 7520 7556 0 0 0
M  V30 BEGIN ATOM
M  V30 1 H -0.908 1.98254 -0.117106 0
M  V30 2 N 0 1.576 0 0
M  V30 3 C 0.933 2.03868 1.02534 0
M  V30 4 C 1.911 0.928543 1.3348 0
M  V30 5 O 3.095 1.19667 1.45644 0
M  V30 6 C 0.222 2.43627 2.35294 0
M  V30 7 C -0.732 3.65373 2.2001 0
M  V30 8 S 0.101 5.13292 1.52614 0
M  V30 9 C 1.257 5.56322 2.86805 0
M  V30 10 H 1.49 2.90518 0.631377 0
M  V30 11 H -0.977 1.52953 0.210867 0
M  V30 12 H 0.981 2.67203 3.11629 0
M  V30 13 H -0.358 1.57376 2.7183 0
M  V30 14 H -1.165 3.90944 3.18086 0
M  V30 15 H -1.563 3.418 1.51819 0
M  V30 16 H 0.729 5.58782 3.83104 0
M  V30 17 H 1.672 6.56266 2.65933 0
M  V30 18 H 2.08 4.83886 2.90714 0
M  V30 19 N 1.4781 -0.272755 1.55222 0
M  V30 20 C 2.7031 -1.02683 1.80197 0
M  V30 21 C 3.1281 -1.79142 0.573551 0
M  V30 22 O 2.4861 -1.74917 -0.476849 0
M  V30 23 C 2.5341 -1.9609 3.02624 0
M  V30 24 O 1.6381 -3.04863 2.77727 0
M  V30 25 H 0.9791 -0.293557 0.595584 0
M  V30 26 H 3.5091 -0.30159 2.02365 0
M  V30 27 H 3.5191 -2.38039 3.31363 0
M  V30 28 H 2.1941 -1.39851 3.91682 0
M  V30 29 H 0.7711 -2.67228 2.60084 0
M  V30 30 N 2.9562 -1.48159 -0.537278 0
M  V30 31 C 4.2052 -1.5506 -1.28993 0
M  V30 32 C 4.5182 -0.226211 -1.94288 0
M  V30 33 O 5.7242 -0.173395 -2.70946 0
M  V30 34 C 4.1802 -2.73429 -2.34018 0
M  V30 35 C 3.7882 -4.1248 -1.74825 0
M  V30 36 C 5.5322 -2.89638 -3.10339 0
M  V30 37 C 3.4392 -5.22121 -2.77747 0
M  V30 38 H 2.3692 -0.577231 -0.485098 0
M  V30 39 H 5.0202 -1.74478 -0.568317 0
M  V30 40 H 3.4022 -2.47431 -3.09182 0
M  V30 41 H 4.5762 -4.48466 -1.05899 0
M  V30 42 H 2.8912 -4.01327 -1.11022 0
M  V30 43 H 5.4882 -3.68718 -3.87235 0
M  V30 44 H 5.8312 -1.9882 -3.65754 0
M  V30 45 H 6.3642 -3.15502 -2.42288 0
M  V30 46 H 3.1032 -6.1488 -2.27161 0
M  V30 47 H 2.6232 -4.90631 -3.45024 0
M  V30 48 H 4.3022 -5.49924 -3.4087 0
M  V30 49 N 4.4343 0.785586 -1.36625 0
M  V30 50 C 5.8503 1.08419 -1.17122 0
M  V30 51 C 6.0503 2.015 0.00208491 0
M  V30 52 O 5.1063 2.43551 0.666278 0
M  V30 53 C 6.4193 1.69498 -2.48377 0
M  V30 54 C 7.9673 1.81821 -2.54775 0
M  V30 55 C 8.4423 2.46315 -3.86126 0
M  V30 56 N 9.9333 2.53779 -3.87492 0
M  V30 57 C 10.6683 3.045 -4.85868 0
M  V30 58 N 10.1643 3.55499 -5.94637 0
M  V30 59 N 11.9573 3.03247 -4.73284 0
M  V30 60 H 4.1083 0.167264 -2.1174 0
M  V30 61 H 6.3713 0.13682 -0.938075 0
M  V30 62 H 6.0773 1.08571 -3.34522 0
M  V30 63 H 5.9513 2.6896 -2.64462 0
M  V30 64 H 8.3383 2.41884 -1.69045 0
M  V30 65 H 8.4193 0.811532 -2.42586 0
M  V30 66 H 8.0633 1.86895 -4.72263 0
M  V30 67 H 7.9933 3.47561 -3.95612 0
M  V30 68 H 10.4843 2.17672 -3.08913 0
M  V30 69 H 10.7973 3.92562 -6.65669 0
M  V30 70 H 9.1423 3.5364 -5.98301 0
M  V30 71 H 12.3333 2.62696 -3.87438 0
M  V30 72 H 12.5063 3.42467 -5.50109 0
M  V30 73 N 5.9124 1.20967 1.01018 0
M  V30 74 C 7.1584 1.02526 1.74975 0
M  V30 75 C 7.4914 -0.4408 1.89131 0
M  V30 76 O 6.7664 -1.32718 1.42184 0
M  V30 77 C 7.0494 1.71699 3.1653 0
M  V30 78 C 6.9024 3.25791 3.10129 0
M  V30 79 C 8.2214 1.45531 4.15342 0
M  V30 80 H 5.3404 0.373863 0.635134 0
M  V30 81 H 7.9824 1.49071 1.17805 0
M  V30 82 H 6.1324 1.32128 3.65341 0
M  V30 83 H 7.8044 3.74697 2.69072 0
M  V30 84 H 6.0474 3.56363 2.47362 0
M  V30 85 H 6.7184 3.69353 4.10222 0
M  V30 86 H 9.1944 1.79872 3.75213 0
M  V30 87 H 8.0704 1.96453 5.1254 0
M  V30 88 H 8.3314 0.384237 4.40427 0
M  V30 89 N 7.3905 -1.2043 1.01659 0
M  V30 90 C 8.6185 -1.93777 0.725132 0
M  V30 91 C 9.0335 -1.74772 -0.714166 0
M  V30 92 O 8.3905 -1.06169 -1.4844 0
M  V30 93 C 8.4415 -3.45876 1.05129 0
M  V30 94 O 8.1625 -3.6426 2.43406 0
M  V30 95 C 9.6635 -4.36368 0.780891 0
M  V30 96 H 6.8835 -0.615901 0.266284 0
M  V30 97 H 9.4275 -1.52922 1.35776 0
M  V30 98 H 7.5825 -3.8461 0.464065 0
M  V30 99 H 7.9965 -4.58246 2.55169 0
M  V30 100 H 9.4705 -5.41743 1.05918 0
M  V30 101 H 9.9475 -4.38275 -0.284937 0
M  V30 102 H 10.5535 -4.03296 1.35027 0
M  V30 103 N 8.8686 -0.792821 -1.36206 0
M  V30 104 C 9.8006 -0.151469 -2.28699 0
M  V30 105 C 10.8136 0.641262 -1.49638 0
M  V30 106 O 12.0026 0.475885 -1.72039 0
M  V30 107 C 9.1026 0.808424 -3.29117 0
M  V30 108 C 8.2756 0.0650202 -4.37352 0
M  V30 109 C 7.3346 0.941358 -5.17711 0
M  V30 110 O 6.3606 0.397352 -5.67811 0
M  V30 111 N 7.5626 2.2652 -5.3448 0
M  V30 112 H 10.3276 -0.945982 -2.84379 0
M  V30 113 H 7.8886 -0.647032 -1.48409 0
M  V30 114 H 9.8806 1.3986 -3.79765 0
M  V30 115 H 8.4506 1.5038 -2.74052 0
M  V30 116 H 7.6706 -0.706255 -3.87822 0
M  V30 117 H 8.9586 -0.447847 -5.06825 0
M  V30 118 H 8.3566 2.73128 -4.95396 0
M  V30 119 H 6.9136 2.80493 -5.88359 0
M  V30 120 N 10.3467 1.47872 -0.545128 0
M  V30 121 C 11.2937 2.29849 0.2093 0
M  V30 122 C 12.2637 1.38313 0.919707 0
M  V30 123 O 13.4487 1.67277 0.917772 0
M  V30 124 C 10.5887 3.22019 1.24088 0
M  V30 125 C 9.7017 4.2864 0.537778 0
M  V30 126 C 8.8367 5.07973 1.5536 0
M  V30 127 C 7.8757 6.06381 0.8348 0
M  V30 128 N 7.0127 6.78717 1.79688 0
M  V30 129 H 11.8527 2.93845 -0.49591 0
M  V30 130 H 9.3897 1.44848 -0.256389 0
M  V30 131 H 11.3477 3.73868 1.85144 0
M  V30 132 H 9.9777 2.59914 1.91428 0
M  V30 133 H 9.0297 3.7994 -0.187046 0
M  V30 134 H 10.3417 4.98793 -0.0258907 0
M  V30 135 H 9.4957 5.63912 2.23803 0
M  V30 136 H 8.2347 4.37693 2.15118 0
M  V30 137 H 7.2397 5.49631 0.136388 0
M  V30 138 H 8.4647 6.78665 0.24313 0
M  V30 139 H 6.4107 6.11177 2.38326 0
M  V30 140 H 6.3277 7.44998 1.28505 0
M  V30 141 H 7.5957 7.39237 2.47282 0
M  V30 142 N 11.8248 0.280983 1.55075 0
M  V30 143 C 13.0498 -0.340154 2.04592 0
M  V30 144 C 13.4748 -1.48246 1.15779 0
M  V30 145 O 12.8328 -1.80614 0.15761 0
M  V30 146 C 12.8808 -0.793104 3.5177 0
M  V30 147 O 11.9848 -1.89981 3.66034 0
M  V30 148 H 11.3258 -0.0694289 0.66036 0
M  V30 149 H 13.8558 0.416993 2.00306 0
M  V30 150 H 13.8658 -1.08729 3.93245 0
M  V30 151 H 12.5408 0.0426163 4.15878 0
M  V30 152 H 11.1178 -1.60771 3.36463 0
M  V30 153 N 13.3029 -1.57598 0.00835791 0
M  V30 154 C 14.5329 -1.94931 -0.684496 0
M  V30 155 C 14.9409 -0.882233 -1.67372 0
M  V30 156 O 14.2839 0.146621 -1.83114 0
M  V30 157 C 14.3459 -3.283 -1.4649 0
M  V30 158 C 14.0099 -4.52548 -0.63634 0
M  V30 159 C 15.0069 -5.19839 0.0795586 0
M  V30 160 C 12.6919 -4.98942 -0.579849 0
M  V30 161 C 14.6859 -6.3183 0.840843 0
M  V30 162 C 12.3729 -6.10819 0.185155 0
M  V30 163 C 13.3709 -6.77121 0.894227 0
M  V30 164 O 13.0589 -7.86853 1.64673 0
M  V30 165 H 12.7909 -0.647249 -0.19505 0
M  V30 166 H 15.3449 -2.05318 0.0581272 0
M  V30 167 H 13.5749 -3.14345 -2.2522 0
M  V30 168 H 15.2639 -3.50685 -2.04389 0
M  V30 169 H 16.0299 -4.84979 0.0451202 0
M  V30 170 H 11.9089 -4.47155 -1.1213 0
M  V30 171 H 15.4529 -6.83513 1.39483 0
M  V30 172 H 11.3499 -6.4512 0.221384 0
M  V30 173 H 12.1179 -8.03412 1.56432 0
M  V30 174 N 14.781 0.264519 -1.55364 0
M  V30 175 C 15.728 1.32717 -1.88825 0
M  V30 176 C 16.698 1.48675 -0.740605 0
M  V30 177 O 17.883 1.62945 -0.992657 0
M  V30 178 C 15.023 2.68089 -2.17307 0
M  V30 179 C 14.136 2.60284 -3.44785 0
M  V30 180 C 13.271 3.87892 -3.62924 0
M  V30 181 C 12.31 3.74631 -4.84064 0
M  V30 182 N 11.447 4.94092 -4.98816 0
M  V30 183 H 16.287 1.03481 -2.79456 0
M  V30 184 H 13.824 0.499757 -1.3835 0
M  V30 185 H 15.782 3.46864 -2.31821 0
M  V30 186 H 14.412 2.95509 -1.299 0
M  V30 187 H 13.464 1.73173 -3.38697 0
M  V30 188 H 14.776 2.46388 -4.33698 0
M  V30 189 H 13.93 4.75109 -3.77302 0
M  V30 190 H 12.669 4.04664 -2.7221 0
M  V30 191 H 11.674 2.85797 -4.69681 0
M  V30 192 H 12.899 3.5937 -5.76221 0
M  V30 193 H 10.845 5.11259 -4.11036 0
M  V30 194 H 10.762 4.8276 -5.81789 0
M  V30 195 H 12.03 5.82857 -5.17588 0
M  V30 196 N 16.2591 1.48442 0.529413 0
M  V30 197 C 17.5051 1.5672 1.28711 0
M  V30 198 C 17.8381 0.2406 1.92704 0
M  V30 199 O 17.1131 -0.753454 1.79313 0
M  V30 200 C 17.3961 2.70587 2.37603 0
M  V30 201 C 17.2491 4.12953 1.78297 0
M  V30 202 C 18.5681 2.80212 3.39366 0
M  V30 203 H 15.6871 0.570474 0.466613 0
M  V30 204 H 18.3291 1.80617 0.589706 0
M  V30 205 H 16.4791 2.50342 2.97088 0
M  V30 206 H 18.1511 4.44639 1.22858 0
M  V30 207 H 16.3941 4.19927 1.0883 0
M  V30 208 H 17.0651 4.88448 2.57144 0
M  V30 209 H 19.5411 2.98553 2.89836 0
M  V30 210 H 18.4171 3.61611 4.12951 0
M  V30 211 H 18.6781 1.88393 3.99951 0
M  V30 212 N 17.7372 -0.778329 1.37039 0
M  V30 213 C 18.9622 -1.57248 1.35233 0
M  V30 214 C 19.3872 -1.87999 -0.0615568 0
M  V30 215 O 18.7452 -1.48734 -1.03672 0
M  V30 216 C 18.7932 -2.86353 2.19167 0
M  V30 217 O 17.8972 -3.80442 1.59178 0
M  V30 218 H 17.2382 -0.476569 0.462362 0
M  V30 219 H 19.7682 -0.963853 1.80474 0
M  V30 220 H 19.7782 -3.35519 2.32145 0
M  V30 221 H 18.4532 -2.63299 3.21942 0
M  V30 222 H 17.0302 -3.39067 1.55203 0
M  V30 223 N 19.2153 -1.21501 -1.00376 0
M  V30 224 C 20.4433 -1.059 -1.77744 0
M  V30 225 C 20.8583 0.391125 -1.84704 0
M  V30 226 O 20.2153 1.27133 -1.30933 0
M  V30 227 C 20.2663 -1.65111 -3.21591 0
M  V30 228 O 19.9873 -3.0445 -3.15027 0
M  V30 229 C 21.4883 -1.54637 -4.15454 0
M  V30 230 H 18.7083 -0.371825 -0.558558 0
M  V30 231 H 21.2523 -1.60865 -1.26264 0
M  V30 232 H 19.4073 -1.14235 -3.70175 0
M  V30 233 H 19.8213 -3.3278 -4.0541 0
M  V30 234 H 21.2953 -2.00808 -5.14179 0
M  V30 235 H 21.7723 -0.501022 -4.36333 0
M  V30 236 H 22.3783 -2.04767 -3.72761 0
M  V30 237 N 20.6934 1.19889 -1.02296 0
M  V30 238 C 21.9184 1.9393 -0.735237 0
M  V30 239 C 22.3434 1.74639 0.698782 0
M  V30 240 O 21.7014 1.04481 1.48167 0
M  V30 241 C 21.7494 3.43916 -1.08417 0
M  V30 242 O 20.8534 4.11917 -0.199446 0
M  V30 243 H 20.1944 0.605645 -0.272196 0
M  V30 244 H 22.7244 1.52137 -1.36804 0
M  V30 245 H 22.7344 3.9456 -1.03856 0
M  V30 246 H 21.4094 3.5728 -2.12894 0
M  V30 247 H 19.9864 3.71666 -0.303136 0
M  V30 248 N 22.1715 0.800033 1.35784 0
M  V30 249 C 23.4195 0.376597 1.9856 0
M  V30 250 C 23.7405 -1.05812 1.63795 0
M  V30 251 O 23.0105 -1.73103 0.917171 0
M  V30 252 H 21.5905 0.136261 0.734467 0
M  V30 253 H 24.2525 1.02442 1.65806 0
M  V30 254 H 23.3485 0.477002 3.08433 0
M  V30 255 N 23.6496 -1.47581 0.552962 0
M  V30 256 C 25.0606 -1.86324 0.118463 0
M  V30 257 C 25.4116 -1.46006 -1.3106 0
M  V30 258 O 24.5366 -0.861182 -1.98526 0
M  V30 259 C 25.1316 -3.3816 0.20821 0
M  V30 260 C 23.6906 -3.7601 -0.171226 0
M  V30 261 C 22.8376 -2.71634 0.557686 0
M  V30 262 H 25.7886 -1.39159 0.762928 0
M  V30 263 H 25.8096 -3.76141 -0.574278 0
M  V30 264 H 25.3216 -3.67473 1.24841 0
M  V30 265 H 23.4226 -3.52313 -1.21269 0
M  V30 266 H 23.5356 -4.78745 0.184379 0
M  V30 267 H 21.8996 -2.547 0.00125792 0
M  V30 268 H 22.6826 -3.0379 1.59896 0
M  V30 269 N 25.1277 -0.289203 -1.54924 0
M  V30 270 C 26.5437 0.0645403 -1.59469 0
M  V30 271 C 26.7437 1.53419 -1.30632 0
M  V30 272 O 25.7997 2.2852 -1.074 0
M  V30 273 C 27.1127 -0.32278 -2.98963 0
M  V30 274 C 28.6607 -0.270564 -3.11828 0
M  V30 275 C 29.1357 -0.632532 -4.53611 0
M  V30 276 N 30.6267 -0.584617 -4.59496 0
M  V30 277 C 31.3617 -0.837314 -5.67254 0
M  V30 278 N 30.8577 -1.15536 -6.83098 0
M  V30 279 N 32.6507 -0.765166 -5.56868 0
M  V30 280 H 24.8017 -1.24714 -1.71931 0
M  V30 281 H 27.0647 -0.504809 -0.802416 0
M  V30 282 H 26.7707 -1.34541 -3.24948 0
M  V30 283 H 26.6447 0.32944 -3.75759 0
M  V30 284 H 29.0317 0.742805 -2.85598 0
M  V30 285 H 29.1127 -0.957242 -2.37214 0
M  V30 286 H 28.7567 -1.64365 -4.80569 0
M  V30 287 H 28.6867 0.07609 -5.26545 0
M  V30 288 H 31.1777 -0.349248 -3.76283 0
M  V30 289 H 31.4907 -1.33447 -7.61191 0
M  V30 290 H 29.8357 -1.19328 -6.84679 0
M  V30 291 H 33.0267 -0.516432 -4.65243 0
M  V30 292 H 33.1997 -0.965477 -6.40767 0
M  V30 293 N 26.6058 1.57591 -0.0167156 0
M  V30 294 C 27.5688 2.08393 0.954204 0
M  V30 295 C 28.5688 0.996531 1.26198 0
M  V30 296 O 29.7588 1.25858 1.20438 0
M  V30 297 C 26.8908 2.5394 2.27436 0
M  V30 298 H 28.0838 2.95455 0.514451 0
M  V30 299 H 25.6368 1.54582 0.231089 0
M  V30 300 H 26.3718 1.70171 2.76066 0
M  V30 301 H 26.1568 3.33371 2.06412 0
M  V30 302 H 27.6468 2.93512 2.97053 0
M  V30 303 N 28.0839 -0.256276 1.55502 0
M  V30 304 C 29.3309 -0.985619 1.76895 0
M  V30 305 C 29.6589 -1.85671 0.579355 0
M  V30 306 O 28.9139 -1.90744 -0.437651 0
M  V30 307 C 29.2129 -1.88432 3.03691 0
M  V30 308 C 28.8789 -1.16936 4.35473 0
M  V30 309 C 27.5409 -0.97173 4.71286 0
M  V30 310 C 29.8929 -0.661889 5.1698 0
M  V30 311 C 27.2209 -0.254179 5.86149 0
M  V30 312 C 29.5729 0.042149 6.32586 0
M  V30 313 C 28.2369 0.25134 6.67027 0
M  V30 314 H 27.5069 -0.360663 0.647304 0
M  V30 315 H 30.1539 -0.256483 1.89775 0
M  V30 316 H 28.4589 -2.68021 2.85783 0
M  V30 317 H 30.1559 -2.45015 3.1744 0
M  V30 318 H 26.7459 -1.33332 4.07333 0
M  V30 319 H 30.9299 -0.802145 4.89775 0
M  V30 320 H 26.1859 -0.0815408 6.11346 0
M  V30 321 H 30.3599 0.443049 6.94989 0
M  V30 322 H 27.9869 0.809314 7.5588 0
M  V30 323 N 29.562 -1.4872 -0.521534 0
M  V30 324 C 30.787 -1.61101 -1.30618 0
M  V30 325 C 31.212 -0.274611 -1.86085 0
M  V30 326 O 30.57 0.754937 -1.64834 0
M  V30 327 C 30.618 -2.66709 -2.4269 0
M  V30 328 O 29.722 -2.24456 -3.45967 0
M  V30 329 H 29.063 -0.539921 -0.386499 0
M  V30 330 H 31.593 -1.94767 -0.626645 0
M  V30 331 H 31.603 -2.88245 -2.88754 0
M  V30 332 H 30.278 -3.63727 -2.01682 0
M  V30 333 H 28.855 -2.13168 -3.05964 0
M  V30 334 N 31.0401 0.771051 -1.3745 0
M  V30 335 C 32.2651 1.56529 -1.36065 0
M  V30 336 C 32.6901 1.88029 0.0515859 0
M  V30 337 O 32.0481 1.49282 1.02882 0
M  V30 338 C 32.0961 2.85187 -2.20683 0
M  V30 339 O 31.2001 3.79593 -1.61193 0
M  V30 340 H 30.5411 0.47411 -0.464883 0
M  V30 341 H 33.0711 0.954269 -1.80983 0
M  V30 342 H 33.0811 3.34283 -2.33921 0
M  V30 343 H 31.7561 2.61588 -3.23334 0
M  V30 344 H 30.3331 3.38239 -1.56999 0
M  V30 345 N 32.5182 1.22032 0.997298 0
M  V30 346 C 33.9342 0.979326 1.26021 0
M  V30 347 C 34.1342 -0.32972 1.98784 0
M  V30 348 O 33.1902 -1.05345 2.29475 0
M  V30 349 C 34.5032 2.17509 2.07631 0
M  V30 350 C 36.0512 2.21817 2.2083 0
M  V30 351 C 36.5262 3.40933 3.05825 0
M  V30 352 N 38.0172 3.41067 3.13412 0
M  V30 353 C 38.7522 4.29885 3.79455 0
M  V30 354 N 38.2482 5.28914 4.47462 0
M  V30 355 N 40.0412 4.17673 3.76173 0
M  V30 356 H 32.1922 2.06202 0.509352 0
M  V30 357 H 34.4552 0.90334 0.287541 0
M  V30 358 H 34.1612 3.12415 1.61524 0
M  V30 359 H 34.0352 2.17206 3.08385 0
M  V30 360 H 36.4222 1.27462 2.66153 0
M  V30 361 H 36.5032 2.2616 1.1952 0
M  V30 362 H 36.1472 4.35586 2.61203 0
M  V30 363 H 36.0772 3.33829 4.07266 0
M  V30 364 H 38.5682 2.69406 2.65007 0
M  V30 365 H 38.8812 5.92973 4.95583 0
M  V30 366 H 37.2262 5.32831 4.46224 0
M  V30 367 H 40.4172 3.39564 3.22202 0
M  V30 368 H 40.5902 4.87098 4.27363 0
M  V30 369 N 33.9963 -1.19345 1.0293 0
M  V30 370 C 35.2213 -1.93538 0.745511 0
M  V30 371 C 35.6463 -1.75007 -0.689511 0
M  V30 372 O 35.0043 -1.05265 -1.47611 0
M  V30 373 C 35.0523 -3.43336 1.10239 0
M  V30 374 O 34.1563 -4.11806 0.221289 0
M  V30 375 H 33.4973 -0.604193 0.275404 0
M  V30 376 H 36.0273 -1.5141 1.37609 0
M  V30 377 H 36.0373 -3.94004 1.05947 0
M  V30 378 H 34.7123 -3.56146 2.14786 0
M  V30 379 H 33.2893 -3.715 0.322842 0
M  V30 380 N 35.4744 -0.807222 -1.35358 0
M  V30 381 C 36.7044 -0.399796 -2.02695 0
M  V30 382 C 37.1124 0.994176 -1.60974 0
M  V30 383 O 36.4554 1.65209 -0.803226 0
M  V30 384 C 36.5174 -0.404445 -3.57218 0
M  V30 385 C 36.1814 -1.74904 -4.22206 0
M  V30 386 C 37.1784 -2.70743 -4.4384 0
M  V30 387 C 34.8634 -2.03322 -4.5931 0
M  V30 388 C 36.8574 -3.93183 -5.01683 0
M  V30 389 C 34.5444 -3.26026 -5.16866 0
M  V30 390 C 35.5424 -4.20774 -5.37994 0
M  V30 391 O 35.2304 -5.41312 -5.94337 0
M  V30 392 H 34.9624 -0.160517 -0.656666 0
M  V30 393 H 37.5164 -1.09235 -1.73945 0
M  V30 394 H 35.7464 0.344707 -3.85161 0
M  V30 395 H 37.4354 -0.0192429 -4.05895 0
M  V30 396 H 38.2014 -2.5008 -4.15554 0
M  V30 397 H 34.0804 -1.30384 -4.42178 0
M  V30 398 H 37.6244 -4.6715 -5.1809 0
M  V30 399 H 33.5214 -3.46559 -5.44579 0
M  V30 400 H 34.2894 -5.42618 -6.12787 0
M  V30 401 N 36.9525 1.47285 -0.560781 0
M  V30 402 C 38.1805 2.06855 -0.0430262 0
M  V30 403 C 38.5955 1.41291 1.25229 0
M  V30 404 O 37.9525 0.510648 1.7521 0
M  V30 405 C 38.0035 3.61178 0.152518 0
M  V30 406 O 37.7245 4.24285 -1.0915 0
M  V30 407 C 39.2255 4.37624 0.707145 0
M  V30 408 H 36.4455 0.669319 -0.0474652 0
M  V30 409 H 38.9895 1.89237 -0.77521 0
M  V30 410 H 37.1445 3.78298 0.834843 0
M  V30 411 H 37.5585 5.16868 -0.891482 0
M  V30 412 H 39.0325 5.46271 0.793244 0
M  V30 413 H 39.5095 4.04152 1.71923 0
M  V30 414 H 40.1155 4.25257 0.0604027 0
M  V30 415 N 38.4306 0.297415 1.54768 0
M  V30 416 C 39.6556 -0.318435 2.04941 0
M  V30 417 C 40.0806 -1.4701 1.17345 0
M  V30 418 O 39.4386 -1.80436 0.176758 0
M  V30 419 C 39.4866 -0.755749 3.52592 0
M  V30 420 O 38.5906 -1.86088 3.68028 0
M  V30 421 H 37.9316 -0.062421 0.661059 0
M  V30 422 H 40.4616 0.438215 1.99852 0
M  V30 423 H 40.4716 -1.04552 3.94376 0
M  V30 424 H 39.1466 0.0867233 4.1581 0
M  V30 425 H 37.7236 -1.57193 3.38149 0
M  V30 426 N 39.9087 -1.5758 0.0250728 0
M  V30 427 C 41.1567 -1.91255 -0.653151 0
M  V30 428 C 41.4777 -0.901691 -1.729 0
M  V30 429 O 40.7477 0.0573785 -1.95816 0
M  V30 430 H 39.3277 -0.705942 -0.244243 0
M  V30 431 H 41.9897 -1.94767 0.0719209 0
M  V30 432 H 41.0857 -2.91752 -1.10847 0
M  V30 433 N 41.3868 0.248026 -1.55636 0
M  V30 434 C 42.7978 0.817177 -1.67866 0
M  V30 435 C 43.1488 1.86069 -0.622322 0
M  V30 436 O 42.2738 2.15157 0.231618 0
M  V30 437 C 42.8688 1.489 -3.04326 0
M  V30 438 C 41.4278 2.00587 -3.185 0
M  V30 439 C 40.5748 0.856573 -2.63739 0
M  V30 440 H 43.5258 0.0238579 -1.58682 0
M  V30 441 H 43.5468 2.35698 -2.98708 0
M  V30 442 H 43.0588 0.729279 -3.81186 0
M  V30 443 H 41.1598 2.79443 -2.4646 0
M  V30 444 H 41.2728 2.20402 -4.25393 0
M  V30 445 H 39.6368 1.25678 -2.21534 0
M  V30 446 H 40.4198 0.109953 -3.43124 0
M  V30 447 N 42.8649 1.48995 0.513639 0
M  V30 448 C 44.1129 1.57531 1.26604 0
M  V30 449 C 44.4339 0.258236 1.93283 0
M  V30 450 O 43.7039 -0.721502 1.8213 0
M  V30 451 H 42.2839 0.580387 0.470276 0
M  V30 452 H 44.9459 1.85552 0.596373 0
M  V30 453 H 44.0419 2.36486 2.03669 0
M  V30 454 N 44.343 -0.763751 1.37857 0
M  V30 455 C 45.568 -1.55805 1.36893 0
M  V30 456 C 45.993 -1.88054 -0.0416135 0
M  V30 457 O 45.351 -1.49825 -1.02089 0
M  V30 458 C 45.399 -2.84012 2.22192 0
M  V30 459 O 44.503 -3.78732 1.63204 0
M  V30 460 H 43.844 -0.471638 0.46739 0
M  V30 461 H 46.374 -0.944657 1.81487 0
M  V30 462 H 46.384 -3.33037 2.35691 0
M  V30 463 H 45.059 -2.59869 3.24716 0
M  V30 464 H 43.636 -3.37402 1.58791 0
M  V30 465 N 45.8211 -1.22559 -0.990812 0
M  V30 466 C 47.2371 -0.985996 -1.255 0
M  V30 467 C 47.4371 0.319173 -1.98956 0
M  V30 468 O 46.4931 1.04127 -2.3003 0
M  V30 469 C 47.8061 -2.18607 -2.06474 0
M  V30 470 C 49.3541 -2.22985 -2.19651 0
M  V30 471 C 49.8291 -3.4255 -3.04012 0
M  V30 472 N 51.3201 -3.42725 -3.11599 0
M  V30 473 C 52.0551 -4.31892 -3.7717 0
M  V30 474 N 51.5511 -5.31279 -4.44651 0
M  V30 475 N 53.3441 -4.19662 -3.73952 0
M  V30 476 H 45.4951 -2.06469 -0.49841 0
M  V30 477 H 47.7581 -0.904853 -0.282747 0
M  V30 478 H 47.4641 -3.13267 -1.59865 0
M  V30 479 H 47.3381 -2.18838 -3.07229 0
M  V30 480 H 49.7251 -1.28871 -2.65474 0
M  V30 481 H 49.8061 -2.26791 -1.18319 0
M  V30 482 H 49.4501 -4.36965 -2.58889 0
M  V30 483 H 49.3801 -3.35984 -4.0549 0
M  V30 484 H 51.8711 -2.70807 -2.63575 0
M  V30 485 H 52.1841 -5.95593 -4.92431 0
M  V30 486 H 50.5291 -5.3519 -4.43392 0
M  V30 487 H 53.7201 -3.41268 -3.20396 0
M  V30 488 H 53.8931 -4.89358 -4.24774 0
M  V30 489 N 47.2992 1.18797 -1.03562 0
M  V30 490 C 48.5482 1.87978 -0.731235 0
M  V30 491 C 48.8612 1.80911 0.743671 0
M  V30 492 O 50.0672 2.45407 1.16137 0
M  V30 493 C 48.5232 3.3721 -1.25768 0
M  V30 494 C 48.1312 3.52818 -2.76085 0
M  V30 495 C 49.8752 4.11825 -1.0296 0
M  V30 496 C 47.7822 4.9598 -3.22114 0
M  V30 497 H 46.7122 0.704063 -0.269835 0
M  V30 498 H 49.3632 1.34266 -1.25079 0
M  V30 499 H 47.7452 3.90359 -0.666011 0
M  V30 500 H 48.9192 3.09965 -3.40966 0
M  V30 501 H 47.2342 2.91602 -2.97249 0
M  V30 502 H 49.8312 5.17411 -1.34869 0
M  V30 503 H 50.1742 4.16287 0.0333546 0
M  V30 504 H 50.7072 3.64833 -1.58562 0
M  V30 505 H 47.4462 4.96684 -4.27768 0
M  V30 506 H 46.9662 5.39569 -2.61965 0
M  V30 507 H 48.6452 5.6467 -3.15844 0
M  V30 508 N 48.7773 0.814389 1.34928 0
M  V30 509 C 50.0023 0.410097 2.03305 0
M  V30 510 C 50.4273 -0.973464 1.60951 0
M  V30 511 O 49.7853 -1.63185 0.789964 0
M  V30 512 C 49.8333 0.51049 3.56968 0
M  V30 513 O 48.9373 -0.473035 4.09678 0
M  V30 514 H 48.2783 0.170088 0.641846 0
M  V30 515 H 50.8083 1.10244 1.72358 0
M  V30 516 H 50.8183 0.383135 4.06197 0
M  V30 517 H 49.4933 1.51963 3.87144 0
M  V30 518 H 48.0703 -0.305272 3.71648 0
M  V30 519 N 50.2554 -1.46986 0.568584 0
M  V30 520 C 51.4804 -2.07335 0.0520528 0
M  V30 521 C 51.9054 -1.41675 -1.23733 0
M  V30 522 O 51.2634 -0.495623 -1.74394 0
M  V30 523 C 51.3114 -3.60417 -0.11501 0
M  V30 524 O 50.4154 -3.95309 -1.17492 0
M  V30 525 H 49.7564 -0.661597 0.0564385 0
M  V30 526 H 52.2864 -1.88837 0.787507 0
M  V30 527 H 52.2964 -4.06698 -0.325644 0
M  V30 528 H 50.9714 -4.07601 0.826675 0
M  V30 529 H 49.5484 -3.60757 -0.943869 0
M  V30 530 N 51.7335 -0.305618 -1.54608 0
M  V30 531 C 52.9585 0.307562 -2.05107 0
M  V30 532 C 53.3835 1.46385 -1.18123 0
M  V30 533 O 52.7415 1.8034 -0.186324 0
M  V30 534 C 52.7895 0.73704 -3.52987 0
M  V30 535 O 51.8935 1.84134 -3.6901 0
M  V30 536 H 51.2345 0.0589143 -0.661381 0
M  V30 537 H 53.7645 -0.448807 -1.99617 0
M  V30 538 H 53.7745 1.02459 -3.94925 0
M  V30 539 H 52.4495 -0.108773 -4.15758 0
M  V30 540 H 51.0265 1.55398 -3.38978 0
M  V30 541 N 53.2116 1.57565 -0.0334293 0
M  V30 542 C 54.4366 1.96689 0.657895 0
M  V30 543 C 54.8616 0.910057 1.64619 0
M  V30 544 O 54.2196 -0.128598 1.80843 0
M  V30 545 C 54.2676 3.34905 1.33683 0
M  V30 546 O 53.3716 3.31574 2.45219 0
M  V30 547 H 52.7126 0.641205 0.172489 0
M  V30 548 H 55.2426 2.04372 -0.0965621 0
M  V30 549 H 55.2526 3.71234 1.69262 0
M  V30 550 H 53.9276 4.11366 0.612411 0
M  V30 551 H 52.5046 3.06968 2.11719 0
M  V30 552 N 54.6897 -0.239769 1.55765 0
M  V30 553 C 55.9367 -0.966801 1.7793 0
M  V30 554 C 56.2647 -1.85046 0.599015 0
M  V30 555 O 55.5197 -1.91197 -0.417395 0
M  V30 556 C 55.8187 -1.852 3.05672 0
M  V30 557 C 55.4847 -1.1231 4.36689 0
M  V30 558 C 54.1467 -0.921689 4.72291 0
M  V30 559 C 56.4987 -0.607019 5.17653 0
M  V30 560 C 53.8267 -0.191996 5.86386 0
M  V30 561 C 56.1787 0.109241 6.32506 0
M  V30 562 C 54.8427 0.322073 6.66723 0
M  V30 563 H 54.1127 -0.353778 0.651093 0
M  V30 564 H 56.7597 -0.23634 1.90036 0
M  V30 565 H 55.0647 -2.64975 2.8861 0
M  V30 566 H 56.7617 -2.41635 3.20021 0
M  V30 567 H 53.3517 -1.29004 4.08725 0
M  V30 568 H 57.5357 -0.750153 4.90598 0
M  V30 569 H 52.7917 -0.0166949 6.11398 0
M  V30 570 H 56.9657 0.516737 6.9448 0
M  V30 571 H 54.5927 0.88944 7.54979 0
M  V30 572 N 56.1678 -1.49265 -0.50573 0
M  V30 573 C 57.3928 -1.62478 -1.28902 0
M  V30 574 C 57.8178 -0.294332 -1.85783 0
M  V30 575 O 57.1758 0.737412 -1.65626 0
M  V30 576 C 57.2238 -2.69268 -2.39848 0
M  V30 577 O 56.3278 -2.28113 -3.43567 0
M  V30 578 H 55.6688 -0.54399 -0.380751 0
M  V30 579 H 58.1988 -1.95421 -0.605952 0
M  V30 580 H 58.2088 -2.91291 -2.85681 0
M  V30 581 H 56.8838 -3.65846 -1.97812 0
M  V30 582 H 55.4608 -2.16401 -3.03685 0
M  V30 583 N 57.6459 0.756429 -1.3826 0
M  V30 584 C 59.0619 1.0591 -1.19395 0
M  V30 585 C 59.2619 2.01459 -0.0406567 0
M  V30 586 O 58.3179 2.44909 0.614467 0
M  V30 587 C 59.6309 1.64191 -2.51916 0
M  V30 588 C 61.1789 1.76376 -2.58574 0
M  V30 589 C 61.6539 2.38069 -3.91264 0
M  V30 590 N 63.1449 2.45503 -3.92788 0
M  V30 591 C 63.8799 2.94126 -4.92217 0
M  V30 592 N 63.3759 3.42805 -6.02043 0
M  V30 593 N 65.1689 2.9314 -4.7961 0
M  V30 594 H 57.3199 0.122313 -2.12048 0
M  V30 595 H 59.5829 0.116892 -0.940766 0
M  V30 596 H 59.2889 1.01451 -3.3675 0
M  V30 597 H 59.1629 2.6329 -2.70108 0
M  V30 598 H 61.5499 2.38244 -1.74137 0
M  V30 599 H 61.6309 0.759894 -2.44252 0
M  V30 600 H 61.2749 1.76835 -4.76121 0
M  V30 601 H 61.2049 3.39091 -4.02895 0
M  V30 602 H 63.6959 2.1107 -3.13461 0
M  V30 603 H 64.0089 3.78354 -6.73846 0
M  V30 604 H 62.3539 3.4087 -6.05667 0
M  V30 605 H 65.5449 2.54419 -3.92923 0
M  V30 606 H 65.7179 3.30721 -5.5725 0
M  V30 607 N 59.124 1.23083 0.984299 0
M  V30 608 C 60.37 1.06214 1.72761 0
M  V30 609 C 60.703 -0.400584 1.90024 0
M  V30 610 O 59.978 -1.29672 1.44967 0
M  V30 611 C 60.261 1.78375 3.12817 0
M  V30 612 C 60.114 3.32296 3.03149 0
M  V30 613 C 61.433 1.54309 4.12161 0
M  V30 614 H 58.552 0.387251 0.627061 0
M  V30 615 H 61.194 1.51536 1.14616 0
M  V30 616 H 59.344 1.39848 3.62457 0
M  V30 617 H 61.016 3.8032 2.61064 0
M  V30 618 H 59.259 3.6153 2.39747 0
M  V30 619 H 59.93 3.77972 4.02295 0
M  V30 620 H 62.406 1.87791 3.71314 0
M  V30 621 H 61.282 2.07281 5.08258 0
M  V30 622 H 61.543 0.477572 4.39513 0
M  V30 623 N 60.6021 -1.18246 1.0419 0
M  V30 624 C 61.8501 -1.87886 0.744543 0
M  V30 625 C 62.1711 -1.8082 -0.730006 0
M  V30 626 O 61.4411 -1.22736 -1.52685 0
M  V30 627 H 60.0211 -0.695556 0.272417 0
M  V30 628 H 62.6831 -1.43494 1.31892 0
M  V30 629 H 61.7791 -2.9389 1.05049 0
M  V30 630 N 62.0802 -0.821533 -1.34494 0
M  V30 631 C 63.3052 -0.420873 -2.03085 0
M  V30 632 C 63.7302 0.964915 -1.61465 0
M  V30 633 O 63.0882 1.62763 -0.798607 0
M  V30 634 C 63.1362 -0.529414 -3.56693 0
M  V30 635 O 62.2402 0.451302 -4.09923 0
M  V30 636 H 61.5812 -0.173489 -0.640935 0
M  V30 637 H 64.1112 -1.11157 -1.71771 0
M  V30 638 H 64.1212 -0.404671 -4.05988 0
M  V30 639 H 62.7962 -1.54014 -3.86332 0
M  V30 640 H 61.3732 0.285558 -3.71805 0
M  V30 641 N 63.5583 1.46682 -0.576371 0
M  V30 642 C 64.7833 2.07304 -0.0630475 0
M  V30 643 C 65.2083 1.42329 1.2298 0
M  V30 644 O 64.5663 0.504865 1.74129 0
M  V30 645 C 64.6143 3.60472 0.095895 0
M  V30 646 O 63.7183 3.95927 1.15394 0
M  V30 647 H 63.0593 0.661288 -0.0599463 0
M  V30 648 H 65.5893 1.88417 -0.797511 0
M  V30 649 H 65.5993 4.06865 0.304071 0
M  V30 650 H 64.2743 4.07157 -0.84828 0
M  V30 651 H 62.8513 3.61252 0.924724 0
M  V30 652 N 65.0364 0.313813 1.54444 0
M  V30 653 C 65.9844 -0.572171 2.25453 0
M  V30 654 C 66.9784 -1.12657 1.2651 0
M  V30 655 O 68.1844 -1.07573 1.44319 0
M  V30 656 H 64.5594 -0.203146 0.724041 0
M  V30 657 H 66.5304 0.0491145 2.9836 0
M  V30 658 C 65.2794 -1.72626 3.0182 0
M  V30 659 H 64.6024 -1.30891 3.77767 0
M  V30 660 H 66.0424 -2.32199 3.54767 0
M  V30 661 C 64.5014 -2.63806 2.09542 0
M  V30 662 O 65.0314 -3.65256 1.67185 0
M  V30 663 N 63.2374 -2.31824 1.75232 0
M  V30 664 H 62.7844 -1.49368 2.09873 0
M  V30 665 H 62.7424 -2.93095 1.13767 0
M  V30 666 N 66.5145 -1.57545 0.0417849 0
M  V30 667 C 67.7615 -1.92317 -0.634082 0
M  V30 668 C 68.0895 -0.919334 -1.71402 0
M  V30 669 O 67.3445 0.0698253 -1.95575 0
M  V30 670 C 67.6435 -3.33794 -1.27735 0
M  V30 671 C 67.3095 -4.49716 -0.326543 0
M  V30 672 C 65.9715 -4.81156 -0.0648814 0
M  V30 673 C 68.3235 -5.20182 0.325623 0
M  V30 674 C 65.6515 -5.80414 0.856539 0
M  V30 675 C 68.0035 -6.20424 1.23518 0
M  V30 676 C 66.6675 -6.50298 1.5056 0
M  V30 677 H 65.9375 -0.703736 -0.232027 0
M  V30 678 H 68.5845 -1.91205 0.106259 0
M  V30 679 H 66.8895 -3.31228 -2.09274 0
M  V30 680 H 68.5865 -3.57975 -1.80707 0
M  V30 681 H 65.1765 -4.25176 -0.540665 0
M  V30 682 H 69.3605 -4.96112 0.136546 0
M  V30 683 H 64.6165 -6.019 1.07363 0
M  V30 684 H 68.7905 -6.74141 1.74664 0
M  V30 685 H 66.4175 -7.27025 2.22123 0
M  V30 686 N 67.9926 0.231505 -1.5589 0
M  V30 687 C 69.4086 0.580748 -1.48659 0
M  V30 688 C 69.6086 1.87617 -0.73498 0
M  V30 689 O 68.6646 2.51046 -0.270586 0
M  V30 690 C 69.9776 0.669202 -2.93159 0
M  V30 691 C 71.5256 0.760499 -3.03621 0
M  V30 692 C 72.0006 0.880383 -4.49459 0
M  V30 693 N 73.4916 0.944861 -4.53461 0
M  V30 694 C 74.2266 1.05716 -5.63571 0
M  V30 695 N 73.7226 1.13403 -6.83456 0
M  V30 696 N 75.5156 1.09152 -5.514 0
M  V30 697 H 67.6666 -0.618695 -2.03189 0
M  V30 698 H 69.9296 -0.215728 -0.923128 0
M  V30 699 H 69.6356 -0.212904 -3.51055 0
M  V30 700 H 69.5096 1.5361 -3.44505 0
M  V30 701 H 71.8966 1.63305 -2.45796 0
M  V30 702 H 71.9776 -0.131864 -2.5546 0
M  V30 703 H 71.6216 0.0123284 -5.07899 0
M  V30 704 H 71.5516 1.78802 -4.95316 0
M  V30 705 H 74.0426 0.896176 -3.6712 0
M  V30 706 H 74.3556 1.21921 -7.63122 0
M  V30 707 H 72.7006 1.10333 -6.86186 0
M  V30 708 H 75.8916 1.02805 -4.56671 0
M  V30 709 H 76.0646 1.17558 -6.37247 0
M  V30 710 N 69.4707 1.49531 0.497807 0
M  V30 711 C 70.7187 1.58865 1.24926 0
M  V30 712 C 71.0397 0.278721 1.92998 0
M  V30 713 O 70.3097 -0.702144 1.82885 0
M  V30 714 H 68.8897 0.585343 0.464094 0
M  V30 715 H 71.5517 1.86174 0.57666 0
M  V30 716 H 70.6477 2.38633 2.01149 0
M  V30 717 N 70.9488 -0.749086 1.3866 0
M  V30 718 C 72.1968 -1.50535 1.34847 0
M  V30 719 C 72.5178 -1.94909 -0.0595016 0
M  V30 720 O 71.7878 -1.67973 -1.00806 0
M  V30 721 H 70.3678 -0.558395 0.49619 0
M  V30 722 H 73.0298 -0.890165 1.73384 0
M  V30 723 H 72.1258 -2.39413 2.00219 0
M  V30 724 N 72.4269 -1.23603 -0.977757 0
M  V30 725 C 73.3569 -1.04401 -2.0886 0
M  V30 726 C 74.3379 0.0399052 -1.70053 0
M  V30 727 O 75.5229 -0.125246 -1.93796 0
M  V30 728 C 72.6529 -0.637269 -3.41403 0
M  V30 729 C 71.6069 -1.66883 -3.94124 0
M  V30 730 C 70.9329 -1.11745 -5.22893 0
M  V30 731 C 72.2329 -3.06247 -4.23096 0
M  V30 732 H 73.9269 -1.97316 -2.25182 0
M  V30 733 H 71.4729 -0.950096 -1.08209 0
M  V30 734 H 73.4259 -0.48998 -4.18542 0
M  V30 735 H 72.1499 0.327557 -3.24953 0
M  V30 736 H 70.8089 -1.80416 -3.19133 0
M  V30 737 H 70.4569 -0.143527 -5.02795 0
M  V30 738 H 70.1569 -1.80672 -5.59134 0
M  V30 739 H 71.6809 -0.982067 -6.02651 0
M  V30 740 H 73.0949 -2.96001 -4.90975 0
M  V30 741 H 71.4919 -3.72436 -4.70544 0
M  V30 742 H 72.5619 -3.55041 -3.30263 0
M  V30 743 N 73.905 1.17692 -1.04816 0
M  V30 744 C 75.153 1.87488 -0.754497 0
M  V30 745 C 75.474 1.81205 0.720407 0
M  V30 746 O 74.744 1.23544 1.52032 0
M  V30 747 H 73.324 0.694101 -0.276102 0
M  V30 748 H 75.986 1.42793 -1.32651 0
M  V30 749 H 75.082 2.93328 -1.06606 0
M  V30 750 N 75.3831 0.828654 1.34056 0
M  V30 751 C 76.6311 0.41863 1.97717 0
M  V30 752 C 76.9521 -1.02314 1.66002 0
M  V30 753 O 76.2221 -1.71119 0.953683 0
M  V30 754 H 74.8021 0.151809 0.731412 0
M  V30 755 H 77.4641 1.05936 1.63596 0
M  V30 756 H 76.5601 0.542318 3.07352 0
M  V30 757 N 76.8612 -1.46375 0.584142 0
M  V30 758 C 78.1092 -2.01978 0.0701287 0
M  V30 759 C 78.4302 -1.4579 -1.295 0
M  V30 760 O 77.7002 -0.64314 -1.85042 0
M  V30 761 H 76.2802 -0.746648 0.0229345 0
M  V30 762 H 78.9422 -1.79461 0.760245 0
M  V30 763 H 78.0382 -3.121 0.0022064 0
M  V30 764 N 78.3393 -0.321999 -1.54275 0
M  V30 765 C 79.5693 0.282642 -2.04658 0
M  V30 766 C 79.9773 1.46453 -1.19784 0
M  V30 767 O 79.3203 1.82367 -0.220932 0
M  V30 768 C 79.3823 0.781857 -3.50895 0
M  V30 769 C 79.0463 -0.277517 -4.56157 0
M  V30 770 C 80.0433 -1.11307 -5.07845 0
M  V30 771 C 77.7283 -0.425256 -5.00497 0
M  V30 772 C 79.7223 -2.08211 -6.02434 0
M  V30 773 C 77.4093 -1.39771 -5.94901 0
M  V30 774 C 78.4073 -2.2246 -6.45756 0
M  V30 775 O 78.0953 -3.18054 -7.38307 0
M  V30 776 H 77.8273 0.0622636 -0.673126 0
M  V30 777 H 80.3813 -0.465792 -2.00049 0
M  V30 778 H 78.6113 1.58118 -3.52896 0
M  V30 779 H 80.3003 1.30467 -3.84361 0
M  V30 780 H 81.0663 -1.00991 -4.74369 0
M  V30 781 H 76.9453 0.20847 -4.60528 0
M  V30 782 H 80.4893 -2.72791 -6.42052 0
M  V30 783 H 76.3863 -1.50152 -6.27794 0
M  V30 784 H 77.1543 -3.13275 -7.56175 0
M  V30 785 N 79.8174 1.5752 -0.0501392 0
M  V30 786 C 81.0654 1.9227 0.622642 0
M  V30 787 C 81.3864 0.929083 1.71444 0
M  V30 788 O 80.6564 -0.0262186 1.95882 0
M  V30 789 H 79.2364 0.709739 0.232981 0
M  V30 790 H 81.8984 1.94628 -0.102898 0
M  V30 791 H 80.9944 2.93479 1.06191 0
M  V30 792 N 81.2955 -0.223234 1.56011 0
M  V30 793 C 82.5435 -0.946003 1.78592 0
M  V30 794 C 82.8645 -1.84936 0.618349 0
M  V30 795 O 82.1345 -1.92473 -0.364833 0
M  V30 796 H 80.7145 -0.352298 0.658707 0
M  V30 797 H 83.3765 -0.235494 1.93472 0
M  V30 798 H 82.4725 -1.55381 2.70672 0
M  V30 799 N 82.7736 -1.49793 -0.48987 0
M  V30 800 C 83.7366 -1.66752 -1.57246 0
M  V30 801 C 84.7366 -0.538867 -1.51502 0
M  V30 802 O 85.9266 -0.805545 -1.54456 0
M  V30 803 C 83.0586 -1.67528 -2.96896 0
M  V30 804 H 84.2516 -2.63321 -1.43534 0
M  V30 805 H 81.8046 -1.38992 -0.714914 0
M  V30 806 H 82.5396 -0.725837 -3.16073 0
M  V30 807 H 82.3246 -2.49504 -3.02473 0
M  V30 808 H 83.8146 -1.82667 -3.7553 0
M  V30 809 N 84.2517 0.741722 -1.39055 0
M  V30 810 C 85.4767 1.53607 -1.39354 0
M  V30 811 C 85.9017 1.88096 0.0116905 0
M  V30 812 O 85.2597 1.5143 0.996924 0
M  V30 813 C 85.3077 2.80441 -2.26682 0
M  V30 814 O 84.4117 3.76088 -1.69208 0
M  V30 815 H 83.7527 0.464142 -0.474835 0
M  V30 816 H 86.2827 0.915665 -1.82967 0
M  V30 817 H 86.2927 3.29246 -2.40959 0
M  V30 818 H 84.9677 2.5467 -3.2881 0
M  V30 819 H 83.5447 3.34833 -1.64138 0
M  V30 820 N 85.7298 1.2412 0.971189 0
M  V30 821 C 86.9778 1.07668 1.71032 0
M  V30 822 C 87.2988 -0.385797 1.91146 0
M  V30 823 O 86.5688 -1.27569 1.4867 0
M  V30 824 H 85.1488 0.395429 0.633755 0
M  V30 825 H 87.8108 1.55984 1.16855 0
M  V30 826 H 86.9068 1.57195 2.69622 0
M  V30 827 N 87.2079 -1.17134 1.05439 0
M  V30 828 C 88.1409 -2.2012 0.601855 0
M  V30 829 C 89.1189 -1.58314 -0.370854 0
M  V30 830 O 90.3029 -1.8638 -0.281882 0
M  V30 831 C 87.4299 -3.38491 -0.118868 0
M  V30 832 C 86.4759 -4.18752 0.809242 0
M  V30 833 S 87.3089 -4.83602 2.29977 0
M  V30 834 C 88.4649 -6.0536 1.59029 0
M  V30 835 H 88.6979 -2.58165 1.47438 0
M  V30 836 H 86.2309 -1.27788 0.866573 0
M  V30 837 H 88.1889 -4.07084 -0.528495 0
M  V30 838 H 86.8499 -2.98829 -0.967465 0
M  V30 839 H 86.0429 -5.03373 0.251379 0
M  V30 840 H 85.6449 -3.5561 1.15835 0
M  V30 841 H 87.9369 -6.71615 0.891017 0
M  V30 842 H 88.8799 -6.65679 2.41407 0
M  V30 843 H 89.2879 -5.54138 1.07663 0
M  V30 844 N 88.686 -0.835752 -1.33615 0
M  V30 845 C 89.934 -0.429109 -1.97492 0
M  V30 846 C 90.255 1.01433 -1.66543 0
M  V30 847 O 89.525 1.70611 -0.962744 0
M  V30 848 H 88.105 -0.155686 -0.730596 0
M  V30 849 H 90.767 -1.06802 -1.63031 0
M  V30 850 H 89.863 -0.55861 -3.0706 0
M  V30 851 N 90.1641 1.46063 -0.591896 0
M  V30 852 C 91.4121 2.01938 -0.0808391 0
M  V30 853 C 91.7331 1.46475 1.28725 0
M  V30 854 O 91.0031 0.652944 1.84698 0
M  V30 855 H 89.5831 0.746516 -0.0268938 0
M  V30 856 H 92.2451 1.79055 -0.769752 0
M  V30 857 H 91.3411 3.12094 -0.0187578 0
M  V30 858 N 91.6422 0.330177 1.54103 0
M  V30 859 C 92.8912 -0.271336 1.99867 0
M  V30 860 C 93.2042 -1.52723 1.22209 0
M  V30 861 O 94.4102 -2.20515 1.58383 0
M  V30 862 C 92.8662 -0.534032 3.55916 0
M  V30 863 C 92.4742 0.705193 4.42415 0
M  V30 864 C 94.2182 -1.09514 4.1013 0
M  V30 865 C 92.1252 0.414035 5.89949 0
M  V30 866 H 91.0552 -0.105166 0.74663 0
M  V30 867 H 93.7062 0.443429 1.78062 0
M  V30 868 H 92.0882 -1.30915 3.73734 0
M  V30 869 H 93.2622 1.4804 4.36372 0
M  V30 870 H 91.5772 1.18698 3.99124 0
M  V30 871 H 94.1742 -1.3277 5.17954 0
M  V30 872 H 94.5172 -2.04656 3.62521 0
M  V30 873 H 95.0502 -0.381038 3.95971 0
M  V30 874 H 91.7892 1.33481 6.41766 0
M  V30 875 H 91.3092 -0.323336 5.98928 0
M  V30 876 H 92.9882 0.0263105 6.46995 0
M  V30 877 N 93.1203 -1.57491 0.0584922 0
M  V30 878 C 94.3483 -1.97296 -0.623037 0
M  V30 879 C 94.7633 -0.936338 -1.63946 0
M  V30 880 O 94.1203 0.0785981 -1.82331 0
M  V30 881 C 94.1713 -3.37183 -1.30345 0
M  V30 882 O 93.8923 -4.36872 -0.32773 0
M  V30 883 C 95.3933 -3.91788 -2.07406 0
M  V30 884 H 92.6133 -0.649153 -0.169826 0
M  V30 885 H 95.1573 -2.04106 0.12696 0
M  V30 886 H 93.3123 -3.31502 -2.00463 0
M  V30 887 H 93.7263 -5.18141 -0.814269 0
M  V30 888 H 95.2003 -4.91926 -2.50425 0
M  V30 889 H 95.6773 -3.27609 -2.92521 0
M  V30 890 H 96.2833 -4.00829 -1.42184 0
M  V30 891 N 94.5984 0.214957 -1.56127 0
M  V30 892 C 95.5614 1.24997 -1.92116 0
M  V30 893 C 96.5614 1.39467 -0.800344 0
M  V30 894 O 97.7514 1.37619 -1.06802 0
M  V30 895 C 94.8834 2.62271 -2.17777 0
M  V30 896 H 96.0764 0.942875 -2.84693 0
M  V30 897 H 93.6294 0.455654 -1.49511 0
M  V30 898 H 94.3644 2.98068 -1.27773 0
M  V30 899 H 94.1494 2.53143 -2.99434 0
M  V30 900 H 95.6394 3.36946 -2.46693 0
M  V30 901 N 96.0765 1.50051 0.48192 0
M  V30 902 C 97.3225 1.60736 1.2366 0
M  V30 903 C 97.6555 0.301786 1.91841 0
M  V30 904 O 96.9305 -0.696025 1.8162 0
M  V30 905 C 97.2135 2.78009 2.28874 0
M  V30 906 C 97.0665 4.18416 1.65069 0
M  V30 907 C 98.3855 2.90867 3.30279 0
M  V30 908 H 95.5045 0.585031 0.448228 0
M  V30 909 H 98.1465 1.82402 0.531946 0
M  V30 910 H 96.2965 2.59667 2.88973 0
M  V30 911 H 97.9685 4.48322 1.0865 0
M  V30 912 H 96.2115 4.23177 0.954148 0
M  V30 913 H 96.8825 4.96381 2.41474 0
M  V30 914 H 99.3585 3.07623 2.80191 0
M  V30 915 H 98.2345 3.74566 4.01238 0
M  V30 916 H 98.4955 2.01021 3.93755 0
M  V30 917 N 97.5546 -0.734337 1.39446 0
M  V30 918 C 98.7826 -1.52358 1.39981 0
M  V30 919 C 99.1976 -1.88799 -0.0054975 0
M  V30 920 O 98.5546 -1.54146 -0.976998 0
M  V30 921 C 98.6056 -2.81072 2.27333 0
M  V30 922 O 98.3266 -2.46178 3.62392 0
M  V30 923 C 99.8276 -3.75096 2.36259 0
M  V30 924 H 97.0476 -0.470806 0.478103 0
M  V30 925 H 99.5916 -0.907339 1.83269 0
M  V30 926 H 97.7466 -3.39026 1.87457 0
M  V30 927 H 98.1606 -3.28866 4.08592 0
M  V30 928 H 99.6346 -4.62305 3.01626 0
M  V30 929 H 100.112 -4.16892 1.38194 0
M  V30 930 H 100.718 -3.23061 2.76608 0
M  V30 931 N 99.0327 -1.24633 -0.964593 0
M  V30 932 C 100.279 -1.08949 -1.71049 0
M  V30 933 C 100.612 0.370302 -1.90637 0
M  V30 934 O 99.8867 1.27349 -1.47011 0
M  V30 935 C 100.17 -1.83329 -3.0994 0
M  V30 936 C 100.023 -3.37077 -2.97824 0
M  V30 937 C 101.342 -1.60846 -4.09654 0
M  V30 938 H 98.4607 -0.397178 -0.620821 0
M  V30 939 H 101.103 -1.5334 -1.12191 0
M  V30 940 H 99.2527 -1.45597 -3.60186 0
M  V30 941 H 100.925 -3.84425 -2.5498 0
M  V30 942 H 99.1677 -3.65298 -2.33965 0
M  V30 943 H 99.8387 -3.84324 -3.96231 0
M  V30 944 H 102.315 -1.93674 -3.68279 0
M  V30 945 H 101.191 -2.1534 -5.04896 0
M  V30 946 H 101.452 -0.547434 -4.38698 0
M  V30 947 N 100.511 1.16574 -1.06058 0
M  V30 948 C 101.459 2.22941 -0.663343 0
M  V30 949 C 102.453 1.66358 0.319593 0
M  V30 950 O 103.659 1.7905 0.184713 0
M  V30 951 H 100.034 0.725907 -0.196376 0
M  V30 952 H 102.005 2.53736 -1.57037 0
M  V30 953 C 100.754 3.47642 -0.0632808 0
M  V30 954 H 100.077 3.91493 -0.810733 0
M  V30 955 H 101.517 4.2363 0.177177 0
M  V30 956 C 99.9758 3.1509 1.19248 0
M  V30 957 O 100.506 3.30673 2.28075 0
M  V30 958 N 98.7118 2.6924 1.09353 0
M  V30 959 H 98.2588 2.5676 0.207912 0
M  V30 960 H 98.2168 2.47833 1.93458 0
M  V30 961 N 101.989 0.842826 1.3317 0
M  V30 962 C 102.921 0.236245 2.27979 0
M  V30 963 C 103.934 -0.585282 1.51915 0
M  V30 964 O 105.123 -0.411705 1.73687 0
M  V30 965 C 102.223 -0.685717 3.3189 0
M  V30 966 C 101.396 0.0973448 4.37292 0
M  V30 967 C 100.455 -0.748565 5.20848 0
M  V30 968 O 99.4809 -0.186339 5.68895 0
M  V30 969 N 100.683 -2.06527 5.42519 0
M  V30 970 H 103.448 1.05088 2.80672 0
M  V30 971 H 101.009 0.701667 1.45905 0
M  V30 972 H 103.001 -1.25669 3.84694 0
M  V30 973 H 101.571 -1.40105 2.79445 0
M  V30 974 H 100.791 0.849706 3.84933 0
M  V30 975 H 102.079 0.635643 5.04814 0
M  V30 976 H 101.477 -2.54554 5.05192 0
M  V30 977 H 100.034 -2.58464 5.98364 0
M  V30 978 N 103.467 -1.45747 0.599634 0
M  V30 979 C 104.692 -2.07178 0.0960198 0
M  V30 980 C 105.117 -1.44268 -1.207 0
M  V30 981 O 104.475 -0.532503 -1.73303 0
M  V30 982 C 104.523 -3.60579 -0.0385348 0
M  V30 983 O 103.627 -3.97713 -1.0908 0
M  V30 984 H 102.968 -0.660251 0.0704593 0
M  V30 985 H 105.498 -1.87124 0.827385 0
M  V30 986 H 105.508 -4.07298 -0.239304 0
M  V30 987 H 104.183 -4.05756 0.912947 0
M  V30 988 H 102.76 -3.62678 -0.867135 0
M  V30 989 N 104.945 -0.338344 -1.53925 0
M  V30 990 C 105.875 0.51328 -2.27789 0
M  V30 991 C 106.856 1.107 -1.29149 0
M  V30 992 O 108.041 1.12937 -1.57984 0
M  V30 993 C 105.171 1.66697 -3.04679 0
M  V30 994 C 104.125 1.20183 -4.1078 0
M  V30 995 C 103.451 2.44363 -4.75595 0
M  V30 996 C 104.751 0.30605 -5.21403 0
M  V30 997 H 106.445 -0.102883 -2.99223 0
M  V30 998 H 103.991 -0.0509219 -1.4391 0
M  V30 999 H 105.944 2.26915 -3.55088 0
M  V30 1000 H 104.668 2.30995 -2.30887 0
M  V30 1001 H 103.327 0.622499 -3.61276 0
M  V30 1002 H 102.975 3.07057 -3.98403 0
M  V30 1003 H 102.675 2.13925 -5.47275 0
M  V30 1004 H 104.199 3.05317 -5.28786 0
M  V30 1005 H 105.613 0.814929 -5.67478 0
M  V30 1006 H 104.01 0.0937929 -6.00027 0
M  V30 1007 H 105.08 -0.65921 -4.80398 0
M  V30 1008 N 106.423 1.57458 -0.0668435 0
M  V30 1009 C 107.353 2.15468 0.899764 0
M  V30 1010 C 108.334 1.08042 1.31381 0
M  V30 1011 O 109.519 1.36054 1.38574 0
M  V30 1012 C 106.649 2.71232 2.16911 0
M  V30 1013 C 105.603 3.83781 1.89463 0
M  V30 1014 C 104.929 4.26127 3.22986 0
M  V30 1015 C 106.229 5.08238 1.20381 0
M  V30 1016 H 107.923 2.96488 0.416529 0
M  V30 1017 H 105.469 1.4262 0.198908 0
M  V30 1018 H 107.422 3.10458 2.84945 0
M  V30 1019 H 106.146 1.87426 2.67468 0
M  V30 1020 H 104.805 3.45051 1.23836 0
M  V30 1021 H 104.453 3.39249 3.71374 0
M  V30 1022 H 104.153 5.01993 3.05413 0
M  V30 1023 H 105.677 4.67966 3.92225 0
M  V30 1024 H 107.091 5.44811 1.78475 0
M  V30 1025 H 105.488 5.89349 1.13083 0
M  V30 1026 H 106.558 4.84558 0.182153 0
M  V30 1027 N 107.901 -0.206675 1.56239 0
M  V30 1028 C 109.126 -0.949474 1.8439 0
M  V30 1029 C 109.551 -1.76549 0.649016 0
M  V30 1030 O 108.909 -1.76782 -0.402231 0
M  V30 1031 C 108.957 -1.83078 3.10668 0
M  V30 1032 O 108.061 -2.9281 2.90407 0
M  V30 1033 H 107.402 -0.268033 0.607499 0
M  V30 1034 H 109.932 -0.215488 2.03462 0
M  V30 1035 H 109.942 -2.2377 3.41161 0
M  V30 1036 H 108.617 -1.23112 3.97261 0
M  V30 1037 H 107.194 -2.55956 2.71184 0
M  V30 1038 N 109.379 -1.50304 -0.473955 0
M  V30 1039 C 110.79 -1.54042 -1.0549 0
M  V30 1040 C 111.141 -0.342248 -1.93192 0
M  V30 1041 O 110.266 0.545157 -2.09421 0
M  V30 1042 C 110.861 -2.79152 -1.91989 0
M  V30 1043 C 109.42 -2.8558 -2.45196 0
M  V30 1044 C 108.567 -2.48295 -1.2347 0
M  V30 1045 H 111.518 -1.5661 -0.256693 0
M  V30 1046 H 111.539 -2.60845 -2.7702 0
M  V30 1047 H 111.051 -3.66339 -1.28131 0
M  V30 1048 H 109.152 -2.02738 -3.12615 0
M  V30 1049 H 109.265 -3.88403 -2.80499 0
M  V30 1050 H 107.629 -2.00669 -1.56856 0
M  V30 1051 H 108.412 -3.37787 -0.612789 0
M  V30 1052 N 110.857 0.726932 -1.39834 0
M  V30 1053 C 111.787 1.85405 -1.41941 0
M  V30 1054 C 112.768 1.67751 -0.281728 0
M  V30 1055 O 113.953 1.8795 -0.488717 0
M  V30 1056 C 111.083 3.23243 -1.2701 0
M  V30 1057 C 110.037 3.55549 -2.38262 0
M  V30 1058 C 109.363 4.9241 -2.08415 0
M  V30 1059 C 110.663 3.577 -3.80589 0
M  V30 1060 H 112.357 1.83899 -2.36266 0
M  V30 1061 H 109.903 0.883349 -1.13723 0
M  V30 1062 H 111.856 4.01775 -1.27103 0
M  V30 1063 H 110.58 3.25296 -0.291564 0
M  V30 1064 H 109.239 2.79351 -2.37399 0
M  V30 1065 H 108.887 4.91052 -1.0898 0
M  V30 1066 H 108.587 5.14992 -2.82943 0
M  V30 1067 H 110.111 5.73289 -2.10171 0
M  V30 1068 H 111.525 4.26293 -3.83337 0
M  V30 1069 H 109.922 3.91804 -4.54543 0
M  V30 1070 H 110.992 2.57328 -4.10987 0
M  V30 1071 N 112.336 1.25143 0.95797 0
M  V30 1072 C 113.582 1.09855 1.70469 0
M  V30 1073 C 113.915 -0.360187 1.90831 0
M  V30 1074 O 113.19 -1.26568 1.47685 0
M  V30 1075 C 113.473 1.8497 3.08963 0
M  V30 1076 C 113.326 3.38652 2.96032 0
M  V30 1077 C 114.645 1.63016 4.08795 0
M  V30 1078 H 111.764 0.400465 0.618706 0
M  V30 1079 H 114.406 1.53933 1.11376 0
M  V30 1080 H 112.556 1.47505 3.59409 0
M  V30 1081 H 114.228 3.85772 2.52938 0
M  V30 1082 H 112.471 3.66534 2.32025 0
M  V30 1083 H 113.142 3.8642 3.94187 0
M  V30 1084 H 115.618 1.95625 3.67247 0
M  V30 1085 H 114.494 2.18015 5.03747 0
M  V30 1086 H 114.755 0.570692 4.38401 0
M  V30 1087 N 113.814 -1.1601 1.06675 0
M  V30 1088 C 114.744 -2.22688 0.702307 0
M  V30 1089 C 115.725 -1.67306 -0.307032 0
M  V30 1090 O 116.91 -1.93352 -0.181305 0
M  V30 1091 C 114.04 -3.47178 0.092038 0
M  V30 1092 C 112.994 -4.15477 1.02777 0
M  V30 1093 C 112.32 -5.33963 0.28061 0
M  V30 1094 C 113.62 -4.66019 2.35846 0
M  V30 1095 H 115.314 -2.53429 1.59419 0
M  V30 1096 H 112.86 -1.21813 0.767961 0
M  V30 1097 H 114.813 -4.21037 -0.174814 0
M  V30 1098 H 113.537 -3.15749 -0.834877 0
M  V30 1099 H 112.196 -3.43549 1.27944 0
M  V30 1100 H 111.844 -4.98788 -0.649545 0
M  V30 1101 H 111.544 -5.806 0.904258 0
M  V30 1102 H 113.068 -6.10596 0.021396 0
M  V30 1103 H 114.482 -5.3144 2.15045 0
M  V30 1104 H 112.879 -5.23293 2.93743 0
M  V30 1105 H 113.949 -3.82023 2.98641 0
M  V30 1106 N 115.292 -0.849877 -1.32721 0
M  V30 1107 C 116.202 -0.293791 -2.32753 0
M  V30 1108 C 117.218 0.585906 -1.63839 0
M  V30 1109 O 118.394 0.487413 -1.95413 0
M  V30 1110 C 115.459 0.512752 -3.42887 0
M  V30 1111 C 114.52 -0.39252 -4.27502 0
M  V30 1112 C 113.753 0.375625 -5.32377 0
M  V30 1113 O 113.976 1.60613 -5.4732 0
M  V30 1114 O 112.91 -0.256094 -6.01355 0
M  V30 1115 H 116.736 -1.12242 -2.82197 0
M  V30 1116 H 114.321 -0.612685 -1.36259 0
M  V30 1117 H 116.203 0.970704 -4.10067 0
M  V30 1118 H 114.878 1.31826 -2.95641 0
M  V30 1119 H 113.785 -0.898547 -3.63149 0
M  V30 1120 H 115.118 -1.16309 -4.7826 0
M  V30 1121 N 116.77 1.45427 -0.607355 0
M  V30 1122 C 118.016 2.0254 -0.102607 0
M  V30 1123 C 118.349 1.47478 1.26348 0
M  V30 1124 O 117.624 0.64939 1.83339 0
M  V30 1125 C 117.907 3.60044 -0.0634347 0
M  V30 1126 C 117.76 4.2544 -1.46017 0
M  V30 1127 C 119.079 4.35646 0.624514 0
M  V30 1128 H 116.198 0.73598 -0.0387607 0
M  V30 1129 H 118.84 1.73284 -0.779282 0
M  V30 1130 H 116.99 3.85101 0.512808 0
M  V30 1131 H 118.662 4.11569 -2.08347 0
M  V30 1132 H 116.905 3.83849 -2.02094 0
M  V30 1133 H 117.576 5.34342 -1.385 0
M  V30 1134 H 120.052 4.15882 0.134723 0
M  V30 1135 H 118.928 5.45376 0.621028 0
M  V30 1136 H 119.189 4.08501 1.69055 0
M  V30 1137 N 118.248 0.346503 1.53744 0
M  V30 1138 C 119.525 -0.304532 1.93215 0
M  V30 1139 C 119.905 -1.67993 1.27834 0
M  V30 1140 O 119.253 -2.24411 0.430352 0
M  V30 1141 C 119.463 -0.373852 3.46992 0
M  V30 1142 C 120.811 -0.62329 4.2 0
M  V30 1143 O 121.835 -0.455847 3.53271 0
M  V30 1144 O 120.694 -0.947879 5.38217 0
M  V30 1145 H 117.788 -0.178318 0.807547 0
M  V30 1146 H 120.334 0.397895 1.64969 0
M  V30 1147 H 119.106 0.591224 3.86808 0
M  V30 1148 H 118.729 -1.12294 3.81413 0
M  V30 1149 N 119.726 -1.57421 0.075193 0
M  V30 1150 C 121.137 -1.81021 -0.456964 0
M  V30 1151 C 121.488 -0.98936 -1.69429 0
M  V30 1152 O 120.613 -0.212865 -2.15351 0
M  V30 1153 C 121.208 -3.28329 -0.83581 0
M  V30 1154 C 119.767 -3.52764 -1.31281 0
M  V30 1155 C 118.914 -2.75676 -0.299648 0
M  V30 1156 H 121.865 -1.55822 0.300856 0
M  V30 1157 H 121.886 -3.40564 -1.69696 0
M  V30 1158 H 121.398 -3.88046 0.0649238 0
M  V30 1159 H 119.499 -2.98355 -2.23193 0
M  V30 1160 H 119.612 -4.61451 -1.28839 0
M  V30 1161 H 117.976 -2.42538 -0.777641 0
M  V30 1162 H 118.759 -3.38132 0.593417 0
M  V30 1163 N 121.204 0.198386 -1.56346 0
M  V30 1164 C 122.152 1.26538 -1.95169 0
M  V30 1165 C 123.146 1.47295 -0.836685 0
M  V30 1166 O 124.352 1.48195 -1.02167 0
M  V30 1167 H 120.727 0.424744 -0.620561 0
M  V30 1168 H 122.698 0.910904 -2.84157 0
M  V30 1169 C 121.447 2.6035 -2.30463 0
M  V30 1170 H 120.77 2.45192 -3.15786 0
M  V30 1171 H 122.21 3.33762 -2.61494 0
M  V30 1172 C 120.669 3.17096 -1.13806 0
M  V30 1173 O 121.199 3.99588 -0.41135 0
M  V30 1174 N 119.405 2.75795 -0.915736 0
M  V30 1175 H 118.952 2.08816 -1.50843 0
M  V30 1176 H 118.91 3.14101 -0.136979 0
M  V30 1177 N 122.682 1.50554 0.465978 0
M  V30 1178 C 123.931 1.61038 1.21448 0
M  V30 1179 C 124.244 0.31865 1.92987 0
M  V30 1180 O 125.45 0.302469 2.6981 0
M  V30 1181 C 123.906 2.84283 2.20706 0
M  V30 1182 C 123.514 4.20352 1.54946 0
M  V30 1183 C 125.258 3.04115 2.96166 0
M  V30 1184 C 123.165 5.34778 2.5252 0
M  V30 1185 H 122.095 0.599718 0.457005 0
M  V30 1186 H 124.746 1.7699 0.484424 0
M  V30 1187 H 123.128 2.61901 2.97025 0
M  V30 1188 H 124.302 4.53008 0.843811 0
M  V30 1189 H 122.617 4.06167 0.917475 0
M  V30 1190 H 125.214 3.86774 3.69202 0
M  V30 1191 H 125.557 2.16045 3.55852 0
M  V30 1192 H 126.09 3.26702 2.26959 0
M  V30 1193 H 122.829 6.25018 1.97566 0
M  V30 1194 H 122.349 5.06534 3.21222 0
M  V30 1195 H 124.028 5.65561 3.14245 0
M  V30 1196 N 124.16 -0.719506 1.40217 0
M  V30 1197 C 125.092 -1.84428 1.36084 0
M  V30 1198 C 126.105 -1.60597 0.266913 0
M  V30 1199 O 127.294 -1.70544 0.526983 0
M  V30 1200 C 124.394 -3.20757 1.094 0
M  V30 1201 C 123.567 -3.71817 2.30372 0
M  V30 1202 C 122.626 -4.86748 1.99907 0
M  V30 1203 O 121.652 -4.99603 2.72737 0
M  V30 1204 N 122.854 -5.7226 0.974635 0
M  V30 1205 H 125.619 -1.88473 2.33019 0
M  V30 1206 H 123.18 -0.900885 1.3452 0
M  V30 1207 H 125.172 -3.95235 0.870116 0
M  V30 1208 H 123.742 -3.11884 0.211452 0
M  V30 1209 H 122.962 -2.88514 2.68614 0
M  V30 1210 H 124.25 -4.02666 3.11026 0
M  V30 1211 H 123.648 -5.6448 0.371368 0
M  V30 1212 H 122.205 -6.46739 0.810656 0
M  V30 1213 N 125.638 -1.25649 -0.95132 0
M  V30 1214 C 126.601 -1.06399 -2.03007 0
M  V30 1215 C 127.601 -0.0156794 -1.60792 0
M  V30 1216 O 128.791 -0.25817 -1.72276 0
M  V30 1217 C 125.923 -0.616184 -3.35285 0
M  V30 1218 H 127.116 -2.02164 -2.21517 0
M  V30 1219 H 124.669 -1.08103 -1.12887 0
M  V30 1220 H 125.404 0.343917 -3.22471 0
M  V30 1221 H 125.189 -1.37301 -3.67275 0
M  V30 1222 H 126.679 -0.503032 -4.14559 0
M  V30 1223 N 127.117 1.15442 -1.07289 0
M  V30 1224 C 128.363 1.86489 -0.796846 0
M  V30 1225 C 128.696 1.82078 0.675371 0
M  V30 1226 O 127.971 1.24346 1.4956 0
M  V30 1227 C 128.254 3.35626 -1.30489 0
M  V30 1228 C 128.107 3.48673 -2.84161 0
M  V30 1229 C 129.426 4.30357 -0.920907 0
M  V30 1230 H 126.545 0.677144 -0.290939 0
M  V30 1231 H 129.187 1.35633 -1.33056 0
M  V30 1232 H 127.337 3.79068 -0.850883 0
M  V30 1233 H 129.009 3.14099 -3.37846 0
M  V30 1234 H 127.252 2.90253 -3.22391 0
M  V30 1235 H 127.923 4.53453 -3.14777 0
M  V30 1236 H 130.399 3.94871 -1.3121 0
M  V30 1237 H 129.275 5.33193 -1.30372 0
M  V30 1238 H 129.536 4.4176 0.173226 0
M  V30 1239 N 128.595 0.856903 1.32268 0
M  V30 1240 C 130.011 0.547061 1.49931 0
M  V30 1241 C 130.211 -0.921781 1.7918 0
M  V30 1242 O 129.267 -1.70469 1.8627 0
M  V30 1243 C 130.58 1.43599 2.64196 0
M  V30 1244 C 132.128 1.43665 2.78081 0
M  V30 1245 C 132.603 2.31085 3.95428 0
M  V30 1246 N 134.094 2.28893 4.02694 0
M  V30 1247 C 134.829 2.93262 4.92732 0
M  V30 1248 N 134.325 3.66751 5.87763 0
M  V30 1249 N 136.118 2.82638 4.85873 0
M  V30 1250 H 128.269 1.8075 1.11549 0
M  V30 1251 H 130.532 0.772144 0.549997 0
M  V30 1252 H 130.238 2.48058 2.49319 0
M  V30 1253 H 130.112 1.12502 3.60032 0
M  V30 1254 H 132.499 0.399701 2.92381 0
M  V30 1255 H 132.58 1.7878 1.82952 0
M  V30 1256 H 132.224 3.34849 3.81888 0
M  V30 1257 H 132.154 1.93302 4.89839 0
M  V30 1258 H 134.645 1.75466 3.34694 0
M  V30 1259 H 134.958 4.13027 6.53168 0
M  V30 1260 H 133.303 3.70859 5.87783 0
M  V30 1261 H 136.494 2.24774 4.10602 0
M  V30 1262 H 136.667 3.33084 5.55841 0
M  V30 1263 N 130.073 -1.45103 0.615059 0
M  V30 1264 C 131.301 -2.06553 0.11977 0
M  V30 1265 C 131.716 -1.45842 -1.19898 0
M  V30 1266 O 131.073 -0.575325 -1.73194 0
M  V30 1267 C 131.124 -3.61495 -0.018364 0
M  V30 1268 O 130.845 -4.19942 1.24822 0
M  V30 1269 C 132.346 -4.39947 -0.544237 0
M  V30 1270 H 129.566 -0.667096 0.0722739 0
M  V30 1271 H 132.11 -1.8623 0.84491 0
M  V30 1272 H 130.265 -3.81135 -0.693865 0
M  V30 1273 H 130.679 -5.13204 1.0827 0
M  V30 1274 H 132.153 -5.48838 -0.589953 0
M  V30 1275 H 132.63 -4.10255 -1.56805 0
M  V30 1276 H 133.236 -4.25188 0.0974703 0
M  V30 1277 N 131.551 -0.354651 -1.53558 0
M  V30 1278 C 132.483 0.5315 -2.22952 0
M  V30 1279 C 133.496 1.05503 -1.23988 0
M  V30 1280 O 134.685 0.963279 -1.50277 0
M  V30 1281 C 131.785 1.74538 -2.90499 0
M  V30 1282 C 130.958 1.35524 -4.15875 0
M  V30 1283 C 130.017 2.42999 -4.66731 0
M  V30 1284 O 129.043 2.05844 -5.30676 0
M  V30 1285 N 130.245 3.74423 -4.43608 0
M  V30 1286 H 133.01 -0.0628615 -2.99634 0
M  V30 1287 H 130.571 -0.179302 -1.60904 0
M  V30 1288 H 132.563 2.45892 -3.21433 0
M  V30 1289 H 131.133 2.24686 -2.17336 0
M  V30 1290 H 130.353 0.471998 -3.91364 0
M  V30 1291 H 131.641 1.07071 -4.97406 0
M  V30 1292 H 131.039 4.07391 -3.92491 0
M  V30 1293 H 129.596 4.41913 -4.7912 0
M  V30 1294 N 133.029 1.57378 -0.0835403 0
M  V30 1295 C 133.939 2.16897 0.894021 0
M  V30 1296 C 134.955 1.13528 1.31861 0
M  V30 1297 O 136.131 1.45848 1.3889 0
M  V30 1298 C 133.196 2.72831 2.13925 0
M  V30 1299 C 132.257 3.91115 1.76997 0
M  V30 1300 C 131.49 4.44371 2.95584 0
M  V30 1301 O 131.713 3.96596 4.09961 0
M  V30 1302 O 130.647 5.35549 2.74719 0
M  V30 1303 H 134.473 3.00814 0.417679 0
M  V30 1304 H 132.058 1.48741 0.140181 0
M  V30 1305 H 133.94 3.0863 2.86924 0
M  V30 1306 H 132.615 1.91967 2.60635 0
M  V30 1307 H 131.522 3.60148 1.01214 0
M  V30 1308 H 132.855 4.73307 1.3506 0
M  V30 1309 N 134.507 -0.190092 1.56449 0
M  V30 1310 C 135.454 -1.23557 1.94942 0
M  V30 1311 C 136.424 -1.44972 0.810696 0
M  V30 1312 O 137.609 -1.58023 1.06927 0
M  V30 1313 C 134.749 -2.57416 2.2985 0
M  V30 1314 C 133.862 -2.43537 3.5681 0
M  V30 1315 C 132.997 -3.70134 3.81017 0
M  V30 1316 C 132.036 -3.51109 5.01387 0
M  V30 1317 N 131.173 -4.6973 5.21822 0
M  V30 1318 H 136.013 -0.900304 2.84075 0
M  V30 1319 H 133.55 -0.43318 1.40577 0
M  V30 1320 H 135.508 -3.35409 2.48106 0
M  V30 1321 H 134.138 -2.88975 1.43852 0
M  V30 1322 H 133.19 -1.56816 3.46573 0
M  V30 1323 H 134.502 -2.25415 4.4496 0
M  V30 1324 H 133.656 -4.56566 3.9954 0
M  V30 1325 H 132.395 -3.91215 2.91207 0
M  V30 1326 H 131.4 -2.63063 4.82782 0
M  V30 1327 H 132.625 -3.31468 5.9271 0
M  V30 1328 H 130.571 -4.91065 4.34961 0
M  V30 1329 H 130.488 -4.54452 6.0416 0
M  V30 1330 H 131.756 -5.57499 5.44808 0
M  V30 1331 N 135.985 -1.50799 -0.457987 0
M  V30 1332 C 136.895 -1.73426 -1.57989 0
M  V30 1333 C 137.911 -0.617745 -1.62665 0
M  V30 1334 O 139.087 -0.897614 -1.80291 0
M  V30 1335 C 136.152 -1.83557 -2.94122 0
M  V30 1336 C 135.213 -3.07345 -2.99729 0
M  V30 1337 C 134.446 -3.16983 -4.29368 0
M  V30 1338 O 134.669 -2.33077 -5.20607 0
M  V30 1339 O 133.603 -4.09812 -4.40837 0
M  V30 1340 H 137.429 -2.68555 -1.41817 0
M  V30 1341 H 135.014 -1.35052 -0.638859 0
M  V30 1342 H 136.896 -1.92326 -3.74952 0
M  V30 1343 H 135.571 -0.916137 -3.10465 0
M  V30 1344 H 134.478 -3.04068 -2.1793 0
M  V30 1345 H 135.811 -3.9891 -2.88326 0
M  V30 1346 N 137.463 0.71206 -1.40597 0
M  V30 1347 C 138.395 1.83704 -1.37061 0
M  V30 1348 C 139.408 1.60453 -0.275426 0
M  V30 1349 O 140.597 1.70262 -0.53602 0
M  V30 1350 C 137.697 3.20172 -1.11099 0
M  V30 1351 C 136.87 3.7059 -2.3234 0
M  V30 1352 C 135.929 4.85681 -2.02485 0
M  V30 1353 O 134.955 4.9815 -2.75382 0
M  V30 1354 N 136.157 5.71735 -1.00497 0
M  V30 1355 H 138.922 1.87235 -2.34016 0
M  V30 1356 H 136.483 0.893739 -1.34996 0
M  V30 1357 H 138.475 3.94768 -0.891064 0
M  V30 1358 H 137.045 3.11767 -0.227989 0
M  V30 1359 H 136.265 2.87085 -2.7014 0
M  V30 1360 H 137.553 4.01011 -3.13157 0
M  V30 1361 H 136.951 5.64275 -0.401298 0
M  V30 1362 H 135.508 6.463 -0.844942 0
M  V30 1363 N 138.941 1.26152 0.944643 0
M  V30 1364 C 140.19 1.10883 1.68487 0
M  V30 1365 C 140.503 -0.348153 1.92477 0
M  V30 1366 O 141.709 -0.621459 2.64292 0
M  V30 1367 C 140.165 1.93624 3.03377 0
M  V30 1368 C 139.773 3.43875 2.87148 0
M  V30 1369 C 141.517 1.86954 3.81115 0
M  V30 1370 C 139.424 4.18875 4.1749 0
M  V30 1371 H 138.354 0.41135 0.631907 0
M  V30 1372 H 141.005 1.50433 1.05082 0
M  V30 1373 H 139.387 1.46904 3.67743 0
M  V30 1374 H 140.561 3.98338 2.31653 0
M  V30 1375 H 138.876 3.51744 2.22856 0
M  V30 1376 H 141.473 2.40275 4.77673 0
M  V30 1377 H 141.816 0.839518 4.07747 0
M  V30 1378 H 142.349 2.31477 3.23517 0
M  V30 1379 H 139.088 5.22332 3.96043 0
M  V30 1380 H 138.608 3.69193 4.72712 0
M  V30 1381 H 140.287 4.27134 4.85968 0
M  V30 1382 N 140.419 -1.14872 1.07899 0
M  V30 1383 C 141.366 -2.19791 0.704319 0
M  V30 1384 C 142.336 -1.63238 -0.306987 0
M  V30 1385 O 143.521 -1.8983 -0.192171 0
M  V30 1386 C 140.661 -3.44911 0.114244 0
M  V30 1387 C 139.774 -4.15637 1.1777 0
M  V30 1388 C 138.909 -5.28324 0.552037 0
M  V30 1389 C 137.948 -5.90875 1.59789 0
M  V30 1390 N 137.085 -6.95022 0.994404 0
M  V30 1391 H 141.925 -2.5119 1.60336 0
M  V30 1392 H 139.462 -1.23356 0.801352 0
M  V30 1393 H 141.42 -4.16477 -0.245544 0
M  V30 1394 H 140.05 -3.14011 -0.74813 0
M  V30 1395 H 139.102 -3.42512 1.65499 0
M  V30 1396 H 140.414 -4.5823 1.97046 0
M  V30 1397 H 139.568 -6.06538 0.1402 0
M  V30 1398 H 138.307 -4.86939 -0.272431 0
M  V30 1399 H 137.312 -5.11369 2.01945 0
M  V30 1400 H 138.537 -6.34337 2.42474 0
M  V30 1401 H 136.483 -6.55722 0.190939 0
M  V30 1402 H 136.4 -7.36073 1.72432 0
M  V30 1403 H 137.668 -7.77123 0.608253 0
M  V30 1404 N 141.898 -0.863906 -1.31812 0
M  V30 1405 C 143.126 -0.486111 -2.01108 0
M  V30 1406 C 143.541 0.919755 -1.64882 0
M  V30 1407 O 142.898 1.60162 -0.874893 0
M  V30 1408 C 142.949 -0.626435 -3.56031 0
M  V30 1409 O 142.67 -1.97693 -3.90959 0
M  V30 1410 C 144.171 -0.248857 -4.42601 0
M  V30 1411 H 141.391 -0.190052 -0.643523 0
M  V30 1412 H 143.935 -1.1634 -1.68182 0
M  V30 1413 H 142.09 0.00322717 -3.874 0
M  V30 1414 H 142.504 -1.98034 -4.85678 0
M  V30 1415 H 143.978 -0.398016 -5.50563 0
M  V30 1416 H 144.455 0.811489 -4.31638 0
M  V30 1417 H 145.061 -0.853971 -4.16638 0
M  V30 1418 N 143.376 1.44774 -0.622745 0
M  V30 1419 C 144.306 2.33382 0.0741861 0
M  V30 1420 C 145.287 1.47719 0.843387 0
M  V30 1421 O 146.472 1.76458 0.810934 0
M  V30 1422 C 143.602 3.30663 1.06204 0
M  V30 1423 C 142.556 4.26079 0.405037 0
M  V30 1424 C 141.882 5.13165 1.5022 0
M  V30 1425 C 143.182 5.1781 -0.683414 0
M  V30 1426 H 144.876 2.91905 -0.665713 0
M  V30 1427 H 142.422 1.40363 -0.321587 0
M  V30 1428 H 144.375 3.9153 1.55827 0
M  V30 1429 H 143.099 2.70331 1.83272 0
M  V30 1430 H 141.758 3.66532 -0.0704683 0
M  V30 1431 H 141.406 4.49191 2.26355 0
M  V30 1432 H 141.106 5.77812 1.06803 0
M  V30 1433 H 142.63 5.76902 2.00041 0
M  V30 1434 H 144.044 5.72661 -0.270631 0
M  V30 1435 H 142.441 5.91015 -1.04023 0
M  V30 1436 H 143.511 4.59326 -1.55395 0
M  V30 1437 N 144.854 0.36279 1.53368 0
M  V30 1438 C 145.802 -0.500155 2.27159 0
M  V30 1439 C 146.796 -1.08575 1.3003 0
M  V30 1440 O 148.002 -1.02927 1.47668 0
M  V30 1441 H 144.377 -0.180009 0.730138 0
M  V30 1442 H 146.348 0.14401 2.98052 0
M  V30 1443 C 145.097 -1.62937 3.07159 0
M  V30 1444 H 144.42 -1.18806 3.8174 0
M  V30 1445 H 145.86 -2.20795 3.61975 0
M  V30 1446 C 144.319 -2.57007 2.17829 0
M  V30 1447 O 144.849 -3.59752 1.78721 0
M  V30 1448 N 143.055 -2.26131 1.82518 0
M  V30 1449 H 142.602 -1.42616 2.14519 0
M  V30 1450 H 142.56 -2.89327 1.23034 0
M  V30 1451 N 146.332 -1.57332 0.0918853 0
M  V30 1452 C 147.28 -2.15075 -0.885747 0
M  V30 1453 C 148.274 -1.09277 -1.29441 0
M  V30 1454 O 149.48 -1.27627 -1.26931 0
M  V30 1455 H 145.855 -0.687966 -0.303656 0
M  V30 1456 H 147.826 -2.96047 -0.373995 0
M  V30 1457 C 146.575 -2.74325 -2.13638 0
M  V30 1458 H 145.898 -3.55418 -1.8308 0
M  V30 1459 H 147.338 -3.183 -2.80109 0
M  V30 1460 C 145.797 -1.70062 -2.90827 0
M  V30 1461 O 146.327 -1.13763 -3.85254 0
M  V30 1462 N 144.533 -1.40628 -2.54307 0
M  V30 1463 H 144.08 -1.866 -1.7759 0
M  V30 1464 H 144.038 -0.711043 -3.06254 0
M  V30 1465 N 147.81 0.181792 -1.56548 0
M  V30 1466 C 148.757 1.22521 -1.95595 0
M  V30 1467 C 149.727 1.4454 -0.818373 0
M  V30 1468 O 150.912 1.57454 -1.07763 0
M  V30 1469 C 148.052 2.56193 -2.31212 0
M  V30 1470 C 147.165 2.41641 -3.58097 0
M  V30 1471 C 146.3 3.68108 -3.82975 0
M  V30 1472 C 145.339 3.48445 -5.03242 0
M  V30 1473 N 144.476 4.66956 -5.24306 0
M  V30 1474 H 149.316 0.885226 -2.84548 0
M  V30 1475 H 146.853 0.425718 -1.40805 0
M  V30 1476 H 148.811 3.34088 -2.49882 0
M  V30 1477 H 147.441 2.88208 -1.45382 0
M  V30 1478 H 146.493 1.54976 -3.474 0
M  V30 1479 H 147.805 2.23052 -4.46149 0
M  V30 1480 H 146.959 4.54441 -4.01956 0
M  V30 1481 H 145.698 3.89666 -2.93278 0
M  V30 1482 H 144.703 2.60499 -4.8417 0
M  V30 1483 H 145.928 3.2832 -5.9446 0
M  V30 1484 H 143.874 4.88752 -4.37559 0
M  V30 1485 H 143.791 4.51242 -6.06561 0
M  V30 1486 H 145.059 5.54602 -5.47756 0
M  V30 1487 N 149.288 1.51039 0.449983 0
M  V30 1488 C 150.535 1.63081 1.20045 0
M  V30 1489 C 150.863 0.341024 1.91487 0
M  V30 1490 O 150.118 -0.674276 1.83717 0
M  V30 1491 C 150.417 2.77556 2.25161 0
M  V30 1492 C 150.083 4.17289 1.70823 0
M  V30 1493 C 148.745 4.55305 1.55725 0
M  V30 1494 C 151.097 5.04536 1.3074 0
M  V30 1495 C 148.425 5.78287 0.989999 0
M  V30 1496 C 150.777 6.28085 0.754482 0
M  V30 1497 C 149.441 6.64885 0.590308 0
M  V30 1498 H 148.711 0.596755 0.439277 0
M  V30 1499 H 151.358 1.85037 0.49333 0
M  V30 1500 H 149.663 2.49771 3.01863 0
M  V30 1501 H 151.36 2.84073 2.83026 0
M  V30 1502 H 147.95 3.8731 1.83546 0
M  V30 1503 H 152.134 4.75782 1.41229 0
M  V30 1504 H 147.39 6.05456 0.850451 0
M  V30 1505 H 151.564 6.95038 0.435324 0
M  V30 1506 H 149.191 7.60055 0.14862 0
M  V30 1507 N 150.766 -0.704594 1.40972 0
M  V30 1508 C 151.729 -1.80035 1.41845 0
M  V30 1509 C 152.729 -1.57774 0.310474 0
M  V30 1510 O 153.919 -1.64613 0.56992 0
M  V30 1511 C 151.051 -3.18284 1.22098 0
M  V30 1512 H 152.244 -1.80658 2.3938 0
M  V30 1513 H 149.797 -0.911329 1.26982 0
M  V30 1514 H 150.532 -3.23306 0.253672 0
M  V30 1515 H 150.317 -3.35843 2.02366 0
M  V30 1516 H 151.807 -3.98289 1.25522 0
M  V30 1517 N 152.244 -1.26651 -0.937939 0
M  V30 1518 C 153.469 -1.15279 -1.72411 0
M  V30 1519 C 153.894 0.287866 -1.85884 0
M  V30 1520 O 153.252 1.20855 -1.35143 0
M  V30 1521 C 153.3 -1.83028 -3.10698 0
M  V30 1522 O 152.404 -1.12128 -3.96864 0
M  V30 1523 H 151.745 -0.401504 -0.528858 0
M  V30 1524 H 154.275 -1.67531 -1.1745 0
M  V30 1525 H 154.285 -1.89981 -3.6107 0
M  V30 1526 H 152.96 -2.87833 -3.00208 0
M  V30 1527 H 151.537 -1.13173 -3.55312 0
M  V30 1528 N 153.722 1.14298 -1.08507 0
M  V30 1529 C 154.969 1.85359 -0.815373 0
M  V30 1530 C 155.297 1.83001 0.658865 0
M  V30 1531 O 154.552 1.25655 1.50031 0
M  V30 1532 C 154.851 3.33547 -1.28379 0
M  V30 1533 C 154.517 3.56093 -2.76602 0
M  V30 1534 C 153.179 3.61955 -3.17084 0
M  V30 1535 C 155.531 3.64834 -3.72217 0
M  V30 1536 C 152.859 3.74082 -4.51973 0
M  V30 1537 C 155.211 3.78487 -5.06883 0
M  V30 1538 C 153.875 3.82598 -5.46969 0
M  V30 1539 H 153.145 0.678276 -0.298366 0
M  V30 1540 H 155.792 1.35002 -1.35819 0
M  V30 1541 H 154.097 3.86191 -0.660593 0
M  V30 1542 H 155.794 3.86959 -1.05186 0
M  V30 1543 H 152.384 3.52179 -2.4427 0
M  V30 1544 H 156.568 3.59595 -3.42061 0
M  V30 1545 H 151.824 3.75527 -4.82483 0
M  V30 1546 H 155.998 3.84193 -5.80834 0
M  V30 1547 H 153.625 3.91747 -6.51489 0
M  V30 1548 N 155.201 0.870884 1.31352 0
M  V30 1549 C 156.45 0.478408 1.95944 0
M  V30 1550 C 156.763 -0.974493 1.69597 0
M  V30 1551 O 157.969 -1.47316 2.28058 0
M  V30 1552 C 156.425 0.804609 3.50791 0
M  V30 1553 C 156.033 2.27433 3.85977 0
M  V30 1554 C 157.777 0.480648 4.2177 0
M  V30 1555 C 155.684 2.5429 5.33939 0
M  V30 1556 H 154.614 0.175175 0.733369 0
M  V30 1557 H 157.265 1.06391 1.4951 0
M  V30 1558 H 155.647 0.148347 3.95722 0
M  V30 1559 H 156.821 2.97373 3.52002 0
M  V30 1560 H 155.136 2.56442 3.28065 0
M  V30 1561 H 157.733 0.658519 5.30629 0
M  V30 1562 H 158.076 -0.578979 4.12254 0
M  V30 1563 H 158.609 1.09349 3.82476 0
M  V30 1564 H 155.348 3.58939 5.48491 0
M  V30 1565 H 154.868 1.88945 5.69263 0
M  V30 1566 H 156.547 2.39066 6.01212 0
M  V30 1567 N 156.679 -1.44442 0.630414 0
M  V30 1568 C 157.956 -1.9549 0.0655657 0
M  V30 1569 C 158.336 -1.5724 -1.40851 0
M  V30 1570 O 157.684 -0.846116 -2.12257 0
M  V30 1571 C 157.894 -3.47812 0.287691 0
M  V30 1572 C 159.242 -4.24216 0.180513 0
M  V30 1573 O 160.266 -3.55526 0.219019 0
M  V30 1574 O 159.125 -5.46434 0.0848493 0
M  V30 1575 H 156.219 -0.826688 -0.0227177 0
M  V30 1576 H 158.765 -1.54496 0.702068 0
M  V30 1577 H 157.537 -3.687 1.31056 0
M  V30 1578 H 157.16 -3.95751 -0.382984 0
M  V30 1579 N 158.157 -0.370918 -1.53173 0
M  V30 1580 C 159.104 0.473035 -2.259 0
M  V30 1581 C 160.074 1.07311 -1.26781 0
M  V30 1582 O 161.259 1.1046 -1.55574 0
M  V30 1583 C 158.399 1.60405 -3.05556 0
M  V30 1584 C 157.512 1.02863 -4.19575 0
M  V30 1585 C 156.647 2.12918 -4.86661 0
M  V30 1586 C 155.686 1.52869 -5.92704 0
M  V30 1587 N 154.823 2.56779 -6.53459 0
M  V30 1588 H 159.663 -0.153649 -2.97604 0
M  V30 1589 H 157.2 -0.0875946 -1.46839 0
M  V30 1590 H 159.158 2.27034 -3.50016 0
M  V30 1591 H 157.788 2.20131 -2.36097 0
M  V30 1592 H 156.84 0.252465 -3.79561 0
M  V30 1593 H 158.152 0.549642 -4.95762 0
M  V30 1594 H 157.306 2.87356 -5.34333 0
M  V30 1595 H 156.045 2.6417 -4.09958 0
M  V30 1596 H 155.05 0.769479 -5.44389 0
M  V30 1597 H 156.275 1.02435 -6.7133 0
M  V30 1598 H 154.221 3.07235 -5.79606 0
M  V30 1599 H 154.138 2.13583 -7.25202 0
M  V30 1600 H 155.406 3.30903 -7.05779 0
M  V30 1601 N 159.635 1.57281 -0.100228 0
M  V30 1602 C 160.881 1.94826 0.563101 0
M  V30 1603 C 161.214 0.982475 1.67514 0
M  V30 1604 O 160.489 0.0164069 1.94493 0
M  V30 1605 C 160.772 3.42453 1.11346 0
M  V30 1606 C 160.625 4.498 0.00612081 0
M  V30 1607 C 161.944 3.91506 2.01024 0
M  V30 1608 H 159.063 0.708428 0.203221 0
M  V30 1609 H 161.705 1.8922 -0.171979 0
M  V30 1610 H 159.855 3.47361 1.7399 0
M  V30 1611 H 161.527 4.57 -0.628357 0
M  V30 1612 H 159.77 4.28756 -0.659581 0
M  V30 1613 H 160.441 5.50306 0.432109 0
M  V30 1614 H 162.917 3.88784 1.48278 0
M  V30 1615 H 161.793 4.95358 2.36457 0
M  V30 1616 H 162.054 3.31099 2.92961 0
M  V30 1617 N 161.113 -0.173488 1.56642 0
M  V30 1618 C 162.529 -0.525174 1.50712 0
M  V30 1619 C 162.729 -1.8476 0.804107 0
M  V30 1620 O 161.785 -2.49869 0.363574 0
M  V30 1621 C 163.098 -0.559937 2.95441 0
M  V30 1622 C 164.646 -0.647288 3.06234 0
M  V30 1623 C 165.121 -0.712963 4.52417 0
M  V30 1624 N 166.612 -0.775911 4.56655 0
M  V30 1625 C 167.347 -0.847264 5.67106 0
M  V30 1626 N 166.843 -0.879585 6.87194 0
M  V30 1627 N 168.636 -0.886117 5.55071 0
M  V30 1628 H 160.787 0.693681 2.00753 0
M  V30 1629 H 163.05 0.249841 0.914485 0
M  V30 1630 H 162.756 0.343049 3.50023 0
M  V30 1631 H 162.63 -1.40718 3.49969 0
M  V30 1632 H 165.017 -1.5407 2.51687 0
M  V30 1633 H 165.098 0.226586 2.54794 0
M  V30 1634 H 164.742 0.176183 5.07594 0
M  V30 1635 H 164.672 -1.60295 5.0161 0
M  V30 1636 H 167.163 -0.759304 3.70193 0
M  V30 1637 H 167.476 -0.935144 7.67121 0
M  V30 1638 H 165.821 -0.847898 6.89808 0
M  V30 1639 H 169.012 -0.857853 4.60172 0
M  V30 1640 H 169.185 -0.938263 6.41171 0
M  V30 1641 N 162.591 -1.51276 -0.441967 0
M  V30 1642 C 163.838 -1.63715 -1.19179 0
M  V30 1643 C 164.166 -0.351175 -1.91303 0
M  V30 1644 O 163.421 0.664524 -1.84072 0
M  V30 1645 C 163.72 -2.78746 -2.23686 0
M  V30 1646 C 163.386 -4.18189 -1.68607 0
M  V30 1647 C 162.048 -4.56125 -1.53308 0
M  V30 1648 C 164.4 -5.05222 -1.28062 0
M  V30 1649 C 161.728 -5.78804 -0.959317 0
M  V30 1650 C 164.08 -6.28476 -0.721162 0
M  V30 1651 C 162.744 -6.65188 -0.55504 0
M  V30 1652 H 162.014 -0.599076 -0.436106 0
M  V30 1653 H 164.661 -1.85296 -0.48351 0
M  V30 1654 H 162.966 -2.51369 -3.00535 0
M  V30 1655 H 164.663 -2.8557 -2.81515 0
M  V30 1656 H 161.253 -3.88277 -1.8149 0
M  V30 1657 H 165.437 -4.76524 -1.38704 0
M  V30 1658 H 160.693 -6.05899 -0.81833 0
M  V30 1659 H 164.867 -6.95259 -0.398458 0
M  V30 1660 H 162.494 -7.60123 -0.108311 0
M  V30 1661 N 164.069 0.697108 -1.41344 0
M  V30 1662 C 164.999 1.82353 -1.45841 0
M  V30 1663 C 165.98 1.67115 -0.317247 0
M  V30 1664 O 167.165 1.86871 -0.528474 0
M  V30 1665 C 164.295 3.20476 -1.33838 0
M  V30 1666 C 163.249 3.50415 -2.4575 0
M  V30 1667 C 162.575 4.87878 -2.18813 0
M  V30 1668 C 163.875 3.49546 -3.88091 0
M  V30 1669 H 165.569 1.78846 -2.40113 0
M  V30 1670 H 163.115 0.859028 -1.15571 0
M  V30 1671 H 165.068 3.98988 -1.35596 0
M  V30 1672 H 163.792 3.24604 -0.360498 0
M  V30 1673 H 162.451 2.74253 -2.43271 0
M  V30 1674 H 162.099 4.8863 -1.19371 0
M  V30 1675 H 161.799 5.08875 -2.93803 0
M  V30 1676 H 163.323 5.68702 -2.22284 0
M  V30 1677 H 164.737 4.18066 -3.92293 0
M  V30 1678 H 163.134 3.82075 -4.62751 0
M  V30 1679 H 164.204 2.48552 -4.16353 0
M  V30 1680 N 165.547 1.27147 0.931209 0
M  V30 1681 C 166.457 1.11372 2.06478 0
M  V30 1682 C 167.473 0.044645 1.73943 0
M  V30 1683 O 168.649 0.250417 1.99837 0
M  V30 1684 C 165.714 0.758838 3.38294 0
M  V30 1685 C 164.775 1.90841 3.84549 0
M  V30 1686 C 164.008 1.57036 5.10074 0
M  V30 1687 O 164.231 0.476645 5.68405 0
M  V30 1688 O 163.165 2.40839 5.51616 0
M  V30 1689 H 166.991 2.06493 2.22698 0
M  V30 1690 H 164.576 1.06301 1.04978 0
M  V30 1691 H 166.458 0.574098 4.17471 0
M  V30 1692 H 165.133 -0.162879 3.2329 0
M  V30 1693 H 164.04 2.14819 3.06274 0
M  V30 1694 H 165.373 2.81021 4.04089 0
M  V30 1695 N 167.025 -1.13721 1.09112 0
M  V30 1696 C 167.957 -2.1871 0.685467 0
M  V30 1697 C 168.97 -1.60527 -0.271068 0
M  V30 1698 O 170.159 -1.78407 -0.0576148 0
M  V30 1699 C 167.259 -3.38898 -0.0111255 0
M  V30 1700 C 166.432 -4.26597 0.966131 0
M  V30 1701 C 165.491 -5.25324 0.303539 0
M  V30 1702 O 164.517 -5.61213 0.950177 0
M  V30 1703 N 165.719 -5.72779 -0.943651 0
M  V30 1704 H 168.484 -2.54126 1.58871 0
M  V30 1705 H 166.045 -1.29012 0.978143 0
M  V30 1706 H 168.037 -4.02014 -0.465517 0
M  V30 1707 H 166.607 -3.01747 -0.816565 0
M  V30 1708 H 165.827 -3.60306 1.59917 0
M  V30 1709 H 167.115 -4.82048 1.6281 0
M  V30 1710 H 166.513 -5.45762 -1.48862 0
M  V30 1711 H 165.07 -6.37847 -1.34142 0
M  V30 1712 N 168.503 -0.877838 -1.30888 0
M  V30 1713 C 169.435 -0.296607 -2.27273 0
M  V30 1714 C 170.448 0.544799 -1.53414 0
M  V30 1715 O 171.637 0.365511 -1.74718 0
M  V30 1716 C 168.737 0.597481 -3.33592 0
M  V30 1717 C 167.91 -0.213251 -4.3688 0
M  V30 1718 C 166.969 0.610208 -5.2265 0
M  V30 1719 O 165.995 0.035441 -5.69189 0
M  V30 1720 N 167.197 1.92071 -5.47804 0
M  V30 1721 H 169.962 -1.12492 -2.77787 0
M  V30 1722 H 167.523 -0.740105 -1.43993 0
M  V30 1723 H 169.515 1.15425 -3.87891 0
M  V30 1724 H 168.085 1.32647 -2.83061 0
M  V30 1725 H 167.305 -0.951466 -3.82545 0
M  V30 1726 H 168.593 -0.769262 -5.02951 0
M  V30 1727 H 167.991 2.4107 -5.11763 0
M  V30 1728 H 166.548 2.42508 -6.05007 0
M  V30 1729 N 169.982 1.44106 -0.638065 0
M  V30 1730 C 170.93 2.3248 0.0748149 0
M  V30 1731 C 171.924 1.47746 0.828702 0
M  V30 1732 O 173.13 1.64049 0.740816 0
M  V30 1733 H 169.505 0.750771 0.0429686 0
M  V30 1734 H 171.476 2.90348 -0.688504 0
M  V30 1735 C 170.225 3.31843 1.03805 0
M  V30 1736 H 169.548 3.97059 0.467375 0
M  V30 1737 H 170.988 3.96345 1.50622 0
M  V30 1738 C 169.447 2.61291 2.1267 0
M  V30 1739 O 169.977 2.41702 3.20847 0
M  V30 1740 N 168.183 2.20915 1.88798 0
M  V30 1741 H 167.73 2.37047 1.00829 0
M  V30 1742 H 167.688 1.74038 2.61836 0
M  V30 1743 N 171.46 0.379036 1.52974 0
M  V30 1744 C 172.407 -0.461048 2.26148 0
M  V30 1745 C 173.377 -1.06637 1.27349 0
M  V30 1746 O 174.562 -1.09633 1.56157 0
M  V30 1747 C 171.702 -1.58782 3.06402 0
M  V30 1748 C 170.815 -1.00636 4.20115 0
M  V30 1749 C 169.95 -2.10334 4.87784 0
M  V30 1750 C 168.989 -1.49724 5.93506 0
M  V30 1751 N 168.126 -2.5331 6.54812 0
M  V30 1752 H 172.966 0.169429 2.97518 0
M  V30 1753 H 170.503 0.0953806 1.4679 0
M  V30 1754 H 172.461 -2.25174 3.51215 0
M  V30 1755 H 171.091 -2.18876 2.37261 0
M  V30 1756 H 170.143 -0.232332 3.7969 0
M  V30 1757 H 171.455 -0.523343 4.96047 0
M  V30 1758 H 170.609 -2.84519 5.35849 0
M  V30 1759 H 169.348 -2.61992 4.11353 0
M  V30 1760 H 168.353 -0.740598 5.44789 0
M  V30 1761 H 169.578 -0.988732 6.71864 0
M  V30 1762 H 167.524 -3.04156 5.81227 0
M  V30 1763 H 167.441 -2.09734 7.26325 0
M  V30 1764 H 168.709 -3.27155 7.07524 0
M  V30 1765 N 172.938 -1.57226 0.108567 0
M  V30 1766 C 173.871 -2.10447 -0.882464 0
M  V30 1767 C 174.849 -1.01829 -1.26766 0
M  V30 1768 O 176.033 -1.29415 -1.37054 0
M  V30 1769 C 173.16 -2.59258 -2.17952 0
M  V30 1770 C 172.206 -3.79662 -1.94318 0
M  V30 1771 S 173.039 -5.22586 -1.16892 0
M  V30 1772 C 174.195 -5.74758 -2.47799 0
M  V30 1773 H 174.428 -2.94178 -0.429745 0
M  V30 1774 H 171.961 -1.54043 -0.105 0
M  V30 1775 H 173.919 -2.88036 -2.92482 0
M  V30 1776 H 172.58 -1.75728 -2.60343 0
M  V30 1777 H 171.773 -4.11928 -2.90399 0
M  V30 1778 H 171.375 -3.51446 -1.27913 0
M  V30 1779 H 173.667 -5.83846 -3.43701 0
M  V30 1780 H 174.61 -6.73027 -2.20093 0
M  V30 1781 H 175.018 -5.02763 -2.56689 0
M  V30 1782 N 174.416 0.165178 -1.56732 0
M  V30 1783 C 175.346 1.20651 -1.99914 0
M  V30 1784 C 176.327 1.45827 -0.875705 0
M  V30 1785 O 177.512 1.57057 -1.14223 0
M  V30 1786 C 174.642 2.54401 -2.36427 0
M  V30 1787 C 173.596 2.43782 -3.51787 0
M  V30 1788 C 172.922 3.82078 -3.7406 0
M  V30 1789 C 174.222 1.93732 -4.85041 0
M  V30 1790 H 175.916 0.847534 -2.87154 0
M  V30 1791 H 173.462 0.40625 -1.38151 0
M  V30 1792 H 175.415 3.27458 -2.65234 0
M  V30 1793 H 174.139 2.92098 -1.46103 0
M  V30 1794 H 172.798 1.73178 -3.23117 0
M  V30 1795 H 172.446 4.17179 -2.81017 0
M  V30 1796 H 172.146 3.7584 -4.51684 0
M  V30 1797 H 173.67 4.56712 -4.05274 0
M  V30 1798 H 175.084 2.56569 -5.12684 0
M  V30 1799 H 173.481 1.98428 -5.66345 0
M  V30 1800 H 174.551 0.891962 -4.76626 0
M  V30 1801 N 175.894 1.51508 0.433938 0
M  V30 1802 C 176.804 1.75917 1.5521 0
M  V30 1803 C 177.82 0.643545 1.61662 0
M  V30 1804 O 178.996 0.926183 1.7884 0
M  V30 1805 C 176.061 1.88213 2.91164 0
M  V30 1806 C 175.122 3.12074 2.94802 0
M  V30 1807 C 174.355 3.23774 4.24271 0
M  V30 1808 O 174.578 2.4133 5.16833 0
M  V30 1809 O 173.512 4.16774 4.34262 0
M  V30 1810 H 177.338 2.70777 1.37527 0
M  V30 1811 H 174.923 1.36051 0.617293 0
M  V30 1812 H 176.805 1.98267 3.71845 0
M  V30 1813 H 175.48 0.965413 3.08968 0
M  V30 1814 H 174.387 3.07497 2.13065 0
M  V30 1815 H 175.72 4.03446 2.81943 0
M  V30 1816 N 177.372 -0.689602 1.41712 0
M  V30 1817 C 178.6 -1.47827 1.44758 0
M  V30 1818 C 179.015 -1.88721 0.0545703 0
M  V30 1819 O 178.372 -1.57176 -0.927463 0
M  V30 1820 C 178.423 -2.73698 2.3616 0
M  V30 1821 O 178.144 -2.34524 3.7004 0
M  V30 1822 C 179.645 -3.67389 2.48072 0
M  V30 1823 H 176.865 -0.455357 0.49284 0
M  V30 1824 H 179.409 -0.848574 1.86063 0
M  V30 1825 H 177.564 -3.32891 1.98148 0
M  V30 1826 H 177.978 -3.15701 4.18847 0
M  V30 1827 H 179.452 -4.52475 3.16181 0
M  V30 1828 H 179.929 -4.12284 1.51388 0
M  V30 1829 H 180.535 -3.14097 2.86746 0
M  V30 1830 N 178.85 -1.27639 -0.924453 0
M  V30 1831 C 179.797 -1.10644 -2.0255 0
M  V30 1832 C 180.767 -0.00658438 -1.66099 0
M  V30 1833 O 181.952 -0.16952 -1.90045 0
M  V30 1834 C 179.092 -0.76309 -3.36557 0
M  V30 1835 C 178.205 -1.94091 -3.85944 0
M  V30 1836 C 177.34 -1.53914 -5.08413 0
M  V30 1837 C 176.379 -2.68425 -5.50104 0
M  V30 1838 N 175.516 -2.28815 -6.63768 0
M  V30 1839 H 180.356 -2.04858 -2.16419 0
M  V30 1840 H 177.893 -1.01974 -1.06017 0
M  V30 1841 H 179.851 -0.544822 -4.13627 0
M  V30 1842 H 178.481 0.142102 -3.22487 0
M  V30 1843 H 177.533 -2.27162 -3.05125 0
M  V30 1844 H 178.845 -2.7998 -4.12811 0
M  V30 1845 H 177.999 -1.28231 -5.92994 0
M  V30 1846 H 176.738 -0.651391 -4.8333 0
M  V30 1847 H 175.743 -2.94819 -4.64071 0
M  V30 1848 H 176.968 -3.57826 -5.7718 0
M  V30 1849 H 174.914 -1.42495 -6.40337 0
M  V30 1850 H 174.831 -3.08242 -6.90306 0
M  V30 1851 H 176.099 -2.06387 -7.51681 0
M  V30 1852 N 180.328 1.1314 -1.09713 0
M  V30 1853 C 181.574 1.84967 -0.846104 0
M  V30 1854 C 181.929 1.82082 0.621601 0
M  V30 1855 O 181.222 1.2501 1.452 0
M  V30 1856 C 181.416 3.32167 -1.3191 0
M  V30 1857 C 181.245 3.49386 -2.83125 0
M  V30 1858 C 180.015 3.63456 -3.51038 0
M  V30 1859 C 182.213 3.45179 -3.81256 0
M  V30 1860 N 180.195 3.68966 -4.9065 0
M  V30 1861 C 181.566 3.57094 -5.06837 0
M  V30 1862 C 183.621 3.28598 -3.74069 0
M  V30 1863 C 182.324 3.5414 -6.26081 0
M  V30 1864 C 184.35 3.26953 -4.92804 0
M  V30 1865 C 183.712 3.39422 -6.17229 0
M  V30 1866 H 179.811 0.692899 -0.362512 0
M  V30 1867 H 182.395 1.35506 -1.39808 0
M  V30 1868 H 180.566 3.80186 -0.794535 0
M  V30 1869 H 182.298 3.91815 -1.01308 0
M  V30 1870 H 179.053 3.65256 -3.01471 0
M  V30 1871 H 179.477 3.75404 -5.63383 0
M  V30 1872 H 184.119 3.17858 -2.78794 0
M  V30 1873 H 181.837 3.63653 -7.21653 0
M  V30 1874 H 185.423 3.15316 -4.88945 0
M  V30 1875 H 184.303 3.38114 -7.07565 0
M  V30 1876 N 181.806 0.884767 1.30421 0
M  V30 1877 C 183.031 0.517288 2.00845 0
M  V30 1878 C 183.456 -0.886779 1.65885 0
M  V30 1879 O 182.814 -1.58768 0.875354 0
M  V30 1880 C 182.862 0.698994 3.5376 0
M  V30 1881 O 181.966 -0.255208 4.1161 0
M  V30 1882 H 181.307 0.203872 0.631927 0
M  V30 1883 H 183.837 1.19225 1.66272 0
M  V30 1884 H 183.847 0.597912 4.03595 0
M  V30 1885 H 182.522 1.72271 3.78544 0
M  V30 1886 H 181.099 -0.10784 3.72744 0
M  V30 1887 N 183.284 -1.43765 0.645699 0
M  V30 1888 C 184.214 -2.33471 -0.0370477 0
M  V30 1889 C 185.195 -1.49042 -0.819779 0
M  V30 1890 O 186.38 -1.77726 -0.782758 0
M  V30 1891 C 183.51 -3.32311 -1.0093 0
M  V30 1892 C 182.464 -4.2667 -0.337201 0
M  V30 1893 C 181.79 -5.1549 -1.42037 0
M  V30 1894 C 183.09 -5.16657 0.765706 0
M  V30 1895 H 184.784 -2.90809 0.712069 0
M  V30 1896 H 182.33 -1.39834 0.343876 0
M  V30 1897 H 184.283 -3.9396 -1.49578 0
M  V30 1898 H 183.007 -2.73213 -1.78948 0
M  V30 1899 H 181.666 -3.66374 0.128771 0
M  V30 1900 H 181.314 -4.52735 -2.1918 0
M  V30 1901 H 181.014 -5.79438 -0.975966 0
M  V30 1902 H 182.538 -5.80012 -1.90838 0
M  V30 1903 H 183.952 -5.72158 0.361702 0
M  V30 1904 H 182.349 -5.89286 1.13413 0
M  V30 1905 H 183.419 -4.56796 1.62683 0
M  V30 1906 N 184.763 -0.387143 -1.52771 0
M  V30 1907 C 185.693 0.440551 -2.29306 0
M  V30 1908 C 186.674 1.06535 -1.32606 0
M  V30 1909 O 187.859 1.07853 -1.61497 0
M  V30 1910 C 184.989 1.56919 -3.09829 0
M  V30 1911 C 183.943 1.07054 -4.14395 0
M  V30 1912 C 183.269 2.29109 -4.83129 0
M  V30 1913 C 184.569 0.140015 -5.22112 0
M  V30 1914 H 186.263 -0.198026 -2.98744 0
M  V30 1915 H 183.809 -0.09668 -1.43675 0
M  V30 1916 H 185.762 2.15503 -3.62128 0
M  V30 1917 H 184.486 2.23532 -2.3812 0
M  V30 1918 H 183.145 0.507247 -3.63074 0
M  V30 1919 H 182.793 2.94227 -4.0797 0
M  V30 1920 H 182.493 1.96406 -5.53804 0
M  V30 1921 H 184.017 2.88339 -5.38231 0
M  V30 1922 H 185.431 0.633978 -5.69784 0
M  V30 1923 H 183.828 -0.0971485 -6.00021 0
M  V30 1924 H 184.898 -0.811711 -4.78058 0
M  V30 1925 N 186.241 1.57166 -0.116904 0
M  V30 1926 C 187.173 2.12271 0.864507 0
M  V30 1927 C 188.186 1.06494 1.23138 0
M  V30 1928 O 189.375 1.33873 1.18069 0
M  V30 1929 C 186.475 2.60564 2.16702 0
M  V30 1930 C 185.648 3.90416 1.97216 0
M  V30 1931 C 184.707 4.24329 3.11178 0
M  V30 1932 O 183.733 4.93182 2.84184 0
M  V30 1933 N 184.935 3.8148 4.37554 0
M  V30 1934 H 187.7 2.97102 0.393726 0
M  V30 1935 H 185.261 1.61759 0.0675805 0
M  V30 1936 H 187.253 2.80282 2.91932 0
M  V30 1937 H 185.823 1.80623 2.55135 0
M  V30 1938 H 185.043 3.79627 1.06192 0
M  V30 1939 H 186.331 4.75327 1.81499 0
M  V30 1940 H 185.729 3.25943 4.62361 0
M  V30 1941 H 184.286 4.06311 5.09661 0
M  V30 1942 N 187.719 -0.156864 1.56817 0
M  V30 1943 C 188.651 -1.21883 1.94106 0
M  V30 1944 C 189.664 -1.3971 0.835754 0
M  V30 1945 O 190.853 -1.39457 1.11418 0
M  V30 1946 C 187.953 -2.58527 2.19127 0
M  V30 1947 C 187.126 -2.61809 3.50393 0
M  V30 1948 C 186.185 -3.7992 3.64071 0
M  V30 1949 O 185.211 -3.65249 4.36557 0
M  V30 1950 N 186.413 -4.96973 2.99997 0
M  V30 1951 H 189.178 -0.901974 2.85805 0
M  V30 1952 H 186.739 -0.346513 1.58148 0
M  V30 1953 H 188.731 -3.36034 2.25529 0
M  V30 1954 H 187.301 -2.82545 1.33742 0
M  V30 1955 H 186.521 -1.7029 3.5552 0
M  V30 1956 H 187.809 -2.61024 4.36742 0
M  V30 1957 H 187.207 -5.11794 2.41004 0
M  V30 1958 H 185.764 -5.7229 3.11974 0
M  V30 1959 N 189.197 -1.51736 -0.425897 0
M  V30 1960 C 190.129 -1.70083 -1.53638 0
M  V30 1961 C 191.142 -0.581349 -1.52066 0
M  V30 1962 O 192.331 -0.856017 -1.56635 0
M  V30 1963 C 189.431 -1.71078 -2.9255 0
M  V30 1964 C 188.604 -2.99795 -3.185 0
M  V30 1965 C 187.663 -2.92825 -4.37196 0
M  V30 1966 O 186.689 -3.66756 -4.35291 0
M  V30 1967 N 187.891 -2.0946 -5.41393 0
M  V30 1968 H 190.656 -2.65882 -1.383 0
M  V30 1969 H 188.217 -1.49765 -0.614988 0
M  V30 1970 H 190.209 -1.63969 -3.69995 0
M  V30 1971 H 188.779 -0.828242 -3.01428 0
M  V30 1972 H 187.999 -3.20684 -2.2925 0
M  V30 1973 H 189.287 -3.84977 -3.32671 0
M  V30 1974 H 188.685 -1.48792 -5.45781 0
M  V30 1975 H 187.242 -2.08221 -6.17647 0
M  V30 1976 N 190.675 0.682077 -1.42076 0
M  V30 1977 C 191.622 1.79578 -1.44984 0
M  V30 1978 C 192.592 1.6332 -0.302614 0
M  V30 1979 O 193.777 1.83978 -0.505633 0
M  V30 1980 C 190.917 3.1756 -1.35091 0
M  V30 1981 C 190.03 3.45156 -2.59791 0
M  V30 1982 C 189.165 4.72826 -2.42093 0
M  V30 1983 C 188.204 4.93433 -3.62202 0
M  V30 1984 N 187.341 6.12338 -3.43491 0
M  V30 1985 H 192.181 1.76427 -2.40161 0
M  V30 1986 H 189.718 0.861376 -1.19242 0
M  V30 1987 H 191.676 3.97287 -1.27354 0
M  V30 1988 H 190.306 3.19854 -0.435133 0
M  V30 1989 H 189.358 2.59736 -2.77923 0
M  V30 1990 H 190.67 3.5628 -3.49094 0
M  V30 1991 H 189.824 5.60631 -2.319 0
M  V30 1992 H 188.563 4.63973 -1.50268 0
M  V30 1993 H 187.568 4.04073 -3.72834 0
M  V30 1994 H 188.793 5.04136 -4.54998 0
M  V30 1995 H 186.739 6.04672 -2.54377 0
M  V30 1996 H 186.656 6.2429 -4.26377 0
M  V30 1997 H 187.924 7.02841 -3.37097 0
M  V30 1998 N 192.153 1.28127 0.917671 0
M  V30 1999 C 193.381 1.17892 1.70026 0
M  V30 2000 C 193.796 -0.262958 1.8696 0
M  V30 2001 O 193.153 -1.17811 1.3938 0
M  V30 2002 C 193.204 1.86872 3.09453 0
M  V30 2003 O 192.925 3.25428 2.93306 0
M  V30 2004 C 194.426 1.8289 4.03815 0
M  V30 2005 H 191.646 0.40942 0.531617 0
M  V30 2006 H 194.19 1.69181 1.14883 0
M  V30 2007 H 192.345 1.39464 3.61426 0
M  V30 2008 H 192.759 3.59918 3.81523 0
M  V30 2009 H 194.233 2.35751 4.99125 0
M  V30 2010 H 194.71 0.800412 4.31845 0
M  V30 2011 H 195.316 2.29959 3.57769 0
M  V30 2012 N 193.631 -1.12557 1.10312 0
M  V30 2013 C 194.594 -2.16434 0.75424 0
M  V30 2014 C 195.594 -1.59278 -0.220685 0
M  V30 2015 O 196.784 -1.742 0.00230591 0
M  V30 2016 C 193.916 -3.40699 0.116987 0
M  V30 2017 H 195.109 -2.48811 1.67431 0
M  V30 2018 H 192.662 -1.27542 0.903475 0
M  V30 2019 H 193.397 -3.13921 -0.813877 0
M  V30 2020 H 193.182 -3.83459 0.818613 0
M  V30 2021 H 194.672 -4.17451 -0.111387 0
M  V30 2022 N 195.109 -0.891671 -1.2995 0
M  V30 2023 C 196.525 -0.58662 -1.48428 0
M  V30 2024 C 196.725 0.873951 -1.81561 0
M  V30 2025 O 195.781 1.65471 -1.90724 0
M  V30 2026 C 197.094 -1.50553 -2.60296 0
M  V30 2027 C 198.642 -1.50988 -2.74175 0
M  V30 2028 C 199.117 -2.41488 -3.89163 0
M  V30 2029 N 200.608 -2.39489 -3.96483 0
M  V30 2030 C 201.343 -3.06223 -4.84784 0
M  V30 2031 N 200.839 -3.82206 -5.77833 0
M  V30 2032 N 202.632 -2.95421 -4.78208 0
M  V30 2033 H 194.783 -1.83644 -1.06718 0
M  V30 2034 H 197.046 -0.786455 -0.529332 0
M  V30 2035 H 196.752 -2.54581 -2.42654 0
M  V30 2036 H 196.626 -1.22008 -3.56923 0
M  V30 2037 H 199.013 -0.47708 -2.91218 0
M  V30 2038 H 199.094 -1.83567 -1.78148 0
M  V30 2039 H 198.738 -3.44857 -3.72876 0
M  V30 2040 H 198.668 -2.06222 -4.84541 0
M  V30 2041 H 201.159 -1.84278 -3.29924 0
M  V30 2042 H 201.472 -4.302 -6.41988 0
M  V30 2043 H 199.817 -3.86313 -5.77743 0
M  V30 2044 H 203.008 -2.35581 -4.04499 0
M  V30 2045 H 203.181 -3.47704 -5.46814 0
M  V30 2046 N 196.587 1.43421 -0.653314 0
M  V30 2047 C 197.812 2.06678 -0.172846 0
M  V30 2048 C 198.237 1.48648 1.15262 0
M  V30 2049 O 197.595 0.596457 1.71208 0
M  V30 2050 C 197.643 3.60474 -0.0953184 0
M  V30 2051 O 196.747 4.01487 0.942442 0
M  V30 2052 H 196.088 0.657181 -0.0949155 0
M  V30 2053 H 198.618 1.83925 -0.896265 0
M  V30 2054 H 198.628 4.07905 0.0879728 0
M  V30 2055 H 197.303 4.02088 -1.06291 0
M  V30 2056 H 195.88 3.65646 0.731932 0
M  V30 2057 N 198.065 0.39524 1.52563 0
M  V30 2058 C 199.013 -0.451859 2.28169 0
M  V30 2059 C 200.007 -1.05792 1.32304 0
M  V30 2060 O 201.213 -0.997718 1.49818 0
M  V30 2061 H 197.588 -0.164481 0.733792 0
M  V30 2062 H 199.559 0.207199 2.9768 0
M  V30 2063 C 198.308 -1.56385 3.10546 0
M  V30 2064 H 197.631 -1.10682 3.84174 0
M  V30 2065 H 199.071 -2.13067 3.66577 0
M  V30 2066 C 197.53 -2.52328 2.23231 0
M  V30 2067 O 198.06 -3.5588 1.86312 0
M  V30 2068 N 196.266 -2.22209 1.87274 0
M  V30 2069 H 195.813 -1.38033 2.17496 0
M  V30 2070 H 195.771 -2.86652 1.29143 0
M  V30 2071 N 199.544 -1.57102 0.125237 0
M  V30 2072 C 200.477 -2.11371 -0.860094 0
M  V30 2073 C 201.455 -1.03168 -1.25679 0
M  V30 2074 O 202.639 -1.30862 -1.35674 0
M  V30 2075 C 199.766 -2.61555 -2.1519 0
M  V30 2076 C 198.812 -3.81701 -1.9028 0
M  V30 2077 S 199.645 -5.23797 -1.11343 0
M  V30 2078 C 200.801 -5.77353 -2.41689 0
M  V30 2079 H 201.034 -2.94617 -0.39852 0
M  V30 2080 H 198.567 -1.54145 -0.0886555 0
M  V30 2081 H 200.525 -2.91122 -2.89411 0
M  V30 2082 H 199.186 -1.78479 -2.58465 0
M  V30 2083 H 198.379 -4.14985 -2.86014 0
M  V30 2084 H 197.981 -3.52783 -1.24178 0
M  V30 2085 H 200.273 -5.87458 -3.37489 0
M  V30 2086 H 201.216 -6.75323 -2.12942 0
M  V30 2087 H 201.624 -5.05457 -2.51342 0
M  V30 2088 N 201.022 0.148545 -1.56898 0
M  V30 2089 C 202.299 0.890019 -1.74178 0
M  V30 2090 C 202.679 1.99407 -0.692839 0
M  V30 2091 O 202.027 2.26671 0.288505 0
M  V30 2092 C 202.237 1.43389 -3.18183 0
M  V30 2093 C 203.585 1.89791 -3.79822 0
M  V30 2094 O 204.609 1.53134 -3.21603 0
M  V30 2095 O 203.468 2.57387 -4.82093 0
M  V30 2096 H 200.562 0.420496 -0.712118 0
M  V30 2097 H 203.108 0.134591 -1.69165 0
M  V30 2098 H 201.88 0.640383 -3.86024 0
M  V30 2099 H 201.503 2.25287 -3.27615 0
M  V30 2100 N 202.5 1.5196 0.417844 0
M  V30 2101 C 203.448 1.75278 1.52907 0
M  V30 2102 C 204.442 0.619611 1.57662 0
M  V30 2103 O 205.648 0.801457 1.61173 0
M  V30 2104 H 202.023 0.554141 0.508362 0
M  V30 2105 H 203.994 2.68389 1.30422 0
M  V30 2106 C 202.743 1.91262 2.90369 0
M  V30 2107 H 202.066 2.77872 2.8745 0
M  V30 2108 H 203.506 2.11581 3.67436 0
M  V30 2109 C 201.965 0.677431 3.30019 0
M  V30 2110 O 202.495 -0.158799 4.01386 0
M  V30 2111 N 200.701 0.515851 2.85985 0
M  V30 2112 H 200.248 1.19744 2.28077 0
M  V30 2113 H 200.206 -0.309315 3.12875 0
M  V30 2114 N 203.978 -0.674533 1.42435 0
M  V30 2115 C 204.911 -1.79924 1.40366 0
M  V30 2116 C 205.889 -1.60378 0.267899 0
M  V30 2117 O 207.073 -1.82847 0.458159 0
M  V30 2118 C 204.2 -3.16927 1.19478 0
M  V30 2119 C 203.246 -3.55221 2.36051 0
M  V30 2120 S 204.079 -3.5762 3.98583 0
M  V30 2121 C 205.235 -4.97315 3.80038 0
M  V30 2122 H 205.468 -1.81405 2.35541 0
M  V30 2123 H 203.001 -0.845221 1.29211 0
M  V30 2124 H 204.959 -3.96007 1.08114 0
M  V30 2125 H 203.62 -3.13031 0.258883 0
M  V30 2126 H 202.813 -4.54804 2.17185 0
M  V30 2127 H 202.415 -2.83502 2.43932 0
M  V30 2128 H 204.707 -5.85401 3.41045 0
M  V30 2129 H 205.65 -5.21228 4.79298 0
M  V30 2130 H 206.058 -4.69845 3.12899 0
M  V30 2131 N 205.456 -1.28612 -0.910864 0
M  V30 2132 C 206.703 -1.15934 -1.66029 0
M  V30 2133 C 207.031 0.291483 -1.92303 0
M  V30 2134 O 206.286 1.22816 -1.52364 0
M  V30 2135 C 206.585 -1.90624 -3.0232 0
M  V30 2136 C 206.251 -3.40405 -2.95695 0
M  V30 2137 C 204.913 -3.81255 -2.93595 0
M  V30 2138 C 207.265 -4.359 -2.85728 0
M  V30 2139 C 204.593 -5.15936 -2.79334 0
M  V30 2140 C 206.945 -5.70657 -2.73007 0
M  V30 2141 C 205.609 -6.10779 -2.69267 0
M  V30 2142 H 204.879 -0.424234 -0.607541 0
M  V30 2143 H 207.526 -1.5942 -1.06101 0
M  V30 2144 H 205.831 -1.39696 -3.6605 0
M  V30 2145 H 207.528 -1.78228 -3.59215 0
M  V30 2146 H 204.118 -3.07927 -2.98125 0
M  V30 2147 H 208.302 -4.053 -2.86436 0
M  V30 2148 H 203.558 -5.46146 -2.74835 0
M  V30 2149 H 207.732 -6.44311 -2.64264 0
M  V30 2150 H 205.359 -7.1509 -2.57974 0
M  V30 2151 N 206.934 1.1197 -1.10907 0
M  V30 2152 C 207.844 2.21433 -0.774896 0
M  V30 2153 C 208.86 1.72478 0.229657 0
M  V30 2154 O 210.036 2.01288 0.0672008 0
M  V30 2155 C 207.101 3.4602 -0.216986 0
M  V30 2156 C 206.162 4.09791 -1.27944 0
M  V30 2157 C 205.395 5.28431 -0.748055 0
M  V30 2158 O 205.618 5.68823 0.423833 0
M  V30 2159 O 204.552 5.82644 -1.51027 0
M  V30 2160 H 208.378 2.5242 -1.68873 0
M  V30 2161 H 205.963 1.20399 -0.884555 0
M  V30 2162 H 207.845 4.21304 0.090059 0
M  V30 2163 H 206.52 3.16698 0.669633 0
M  V30 2164 H 205.427 3.36265 -1.63941 0
M  V30 2165 H 206.76 4.4328 -2.13925 0
M  V30 2166 N 208.412 0.89855 1.29475 0
M  V30 2167 C 209.637 0.538561 2.00285 0
M  V30 2168 C 210.062 -0.869135 1.66816 0
M  V30 2169 O 209.42 -1.57831 0.892145 0
M  V30 2170 C 209.468 0.736475 3.52999 0
M  V30 2171 O 208.572 -0.211537 4.11857 0
M  V30 2172 H 207.913 0.210563 0.62973 0
M  V30 2173 H 210.443 1.20982 1.64998 0
M  V30 2174 H 210.453 0.640685 4.02938 0
M  V30 2175 H 209.128 1.76276 3.76696 0
M  V30 2176 H 207.705 -0.0682991 3.72837 0
M  V30 2177 N 209.89 -1.43072 0.660911 0
M  V30 2178 C 211.12 -2.05769 0.185153 0
M  V30 2179 C 211.528 -1.49668 -1.15742 0
M  V30 2180 O 210.871 -0.625649 -1.72717 0
M  V30 2181 C 210.933 -3.59489 0.0278237 0
M  V30 2182 C 210.597 -4.38212 1.2969 0
M  V30 2183 C 211.594 -4.69772 2.22734 0
M  V30 2184 C 209.279 -4.7809 1.54063 0
M  V30 2185 C 211.273 -5.40129 3.38437 0
M  V30 2186 C 208.96 -5.4819 2.70058 0
M  V30 2187 C 209.958 -5.79132 3.62071 0
M  V30 2188 O 209.646 -6.47798 4.76039 0
M  V30 2189 H 209.378 -0.669873 0.0908086 0
M  V30 2190 H 211.932 -1.84436 0.90402 0
M  V30 2191 H 210.162 -3.79426 -0.746489 0
M  V30 2192 H 211.851 -4.03862 -0.406275 0
M  V30 2193 H 212.617 -4.39476 2.05149 0
M  V30 2194 H 208.496 -4.53408 0.833215 0
M  V30 2195 H 212.04 -5.64198 4.10277 0
M  V30 2196 H 207.937 -5.77902 2.87574 0
M  V30 2197 H 208.705 -6.66283 4.75404 0
M  V30 2198 N 211.368 -0.403325 -1.52352 0
M  V30 2199 C 212.617 0.175668 -2.00934 0
M  V30 2200 C 212.93 1.46718 -1.29356 0
M  V30 2201 O 214.136 2.12708 -1.68724 0
M  V30 2202 C 212.592 0.363612 -3.58058 0
M  V30 2203 C 212.2 -0.915472 -4.38547 0
M  V30 2204 C 213.944 0.89821 -4.14888 0
M  V30 2205 C 211.851 -0.695035 -5.87302 0
M  V30 2206 H 210.781 0.0694234 -0.750797 0
M  V30 2207 H 213.432 -0.527879 -1.75743 0
M  V30 2208 H 211.814 1.12935 -3.79555 0
M  V30 2209 H 212.988 -1.68691 -4.28812 0
M  V30 2210 H 211.303 -1.37606 -3.93006 0
M  V30 2211 H 213.9 1.07907 -5.23699 0
M  V30 2212 H 214.243 1.87126 -3.71873 0
M  V30 2213 H 214.776 0.191681 -3.97338 0
M  V30 2214 H 211.515 -1.63948 -6.34666 0
M  V30 2215 H 211.035 0.0372116 -5.99788 0
M  V30 2216 H 212.714 -0.33497 -6.46132 0
M  V30 2217 N 212.846 1.57033 -0.133567 0
M  V30 2218 C 213.794 2.17348 0.828412 0
M  V30 2219 C 214.788 1.12671 1.26498 0
M  V30 2220 O 215.994 1.30947 1.23502 0
M  V30 2221 H 212.369 0.695775 0.285309 0
M  V30 2222 H 214.34 2.96935 0.295372 0
M  V30 2223 C 213.089 2.79893 2.06289 0
M  V30 2224 H 212.412 3.60147 1.73592 0
M  V30 2225 H 213.852 3.25615 2.71572 0
M  V30 2226 C 212.311 1.77713 2.86216 0
M  V30 2227 O 212.841 1.23937 3.82103 0
M  V30 2228 N 211.047 1.47321 2.50489 0
M  V30 2229 H 210.594 1.91243 1.7258 0
M  V30 2230 H 210.552 0.79199 3.04261 0
M  V30 2231 N 214.325 -0.140222 1.56975 0
M  V30 2232 C 215.273 -1.19207 1.99731 0
M  V30 2233 C 216.267 -1.44089 0.890777 0
M  V30 2234 O 217.473 -1.44301 1.07597 0
M  V30 2235 H 213.848 -0.40142 0.635898 0
M  V30 2236 H 215.819 -0.804813 2.87342 0
M  V30 2237 C 214.568 -2.51617 2.39967 0
M  V30 2238 H 213.891 -2.33303 3.24669 0
M  V30 2239 H 215.331 -3.23827 2.73701 0
M  V30 2240 C 213.79 -3.12654 1.25496 0
M  V30 2241 O 214.32 -3.97786 0.559371 0
M  V30 2242 N 212.526 -2.72206 1.01746 0
M  V30 2243 H 212.073 -2.03074 1.58489 0
M  V30 2244 H 212.031 -3.13377 0.253461 0
M  V30 2245 N 215.803 -1.52179 -0.40978 0
M  V30 2246 C 216.733 -1.78435 -1.5061 0
M  V30 2247 C 217.714 -0.635295 -1.57791 0
M  V30 2248 O 218.899 -0.880823 -1.73076 0
M  V30 2249 C 216.029 -1.93444 -2.88439 0
M  V30 2250 C 214.983 -3.09038 -2.96108 0
M  V30 2251 C 214.309 -3.09268 -4.36185 0
M  V30 2252 C 215.609 -4.48508 -2.67652 0
M  V30 2253 H 217.303 -2.70237 -1.28889 0
M  V30 2254 H 214.849 -1.30036 -0.618605 0
M  V30 2255 H 216.802 -2.10394 -3.65119 0
M  V30 2256 H 215.526 -0.983129 -3.11452 0
M  V30 2257 H 214.185 -2.91837 -2.21872 0
M  V30 2258 H 213.833 -2.11861 -4.56206 0
M  V30 2259 H 213.533 -3.86907 -4.42241 0
M  V30 2260 H 215.057 -3.28348 -5.14801 0
M  V30 2261 H 216.471 -4.65918 -3.34056 0
M  V30 2262 H 214.868 -5.28059 -2.85085 0
M  V30 2263 H 215.938 -4.56649 -1.63095 0
M  V30 2264 N 217.281 0.66697 -1.42791 0
M  V30 2265 C 218.697 0.981027 -1.25889 0
M  V30 2266 C 218.897 2.00793 -0.168695 0
M  V30 2267 O 217.953 2.48321 0.45747 0
M  V30 2268 C 219.266 1.47838 -2.61848 0
M  V30 2269 C 220.814 1.59575 -2.69267 0
M  V30 2270 C 221.289 2.12704 -4.05612 0
M  V30 2271 N 222.78 2.20026 -4.07606 0
M  V30 2272 C 223.515 2.62227 -5.09926 0
M  V30 2273 N 223.011 3.03824 -6.22626 0
M  V30 2274 N 224.804 2.62045 -4.97281 0
M  V30 2275 H 216.955 -0.0127891 -2.12396 0
M  V30 2276 H 219.218 0.0568258 -0.946295 0
M  V30 2277 H 218.924 0.798299 -3.4252 0
M  V30 2278 H 218.798 2.45579 -2.86305 0
M  V30 2279 H 221.185 2.26687 -1.88936 0
M  V30 2280 H 221.266 0.60302 -2.48591 0
M  V30 2281 H 220.91 1.46198 -4.86404 0
M  V30 2282 H 220.84 3.12782 -4.23645 0
M  V30 2283 H 223.331 1.90708 -3.2625 0
M  V30 2284 H 223.644 3.34734 -6.96544 0
M  V30 2285 H 221.989 3.01662 -6.26119 0
M  V30 2286 H 225.18 2.28916 -4.08308 0
M  V30 2287 H 225.353 2.94613 -5.77154 0
M  V30 2288 N 218.759 1.29093 0.90403 0
M  V30 2289 C 220.175 1.07011 1.1841 0
M  V30 2290 C 220.375 -0.181358 2.00682 0
M  V30 2291 O 219.431 -0.880331 2.36657 0
M  V30 2292 C 220.744 2.32311 1.90924 0
M  V30 2293 C 222.292 2.37587 2.03768 0
M  V30 2294 C 222.767 3.62679 2.79693 0
M  V30 2295 N 224.258 3.63376 2.87249 0
M  V30 2296 C 224.993 4.56848 3.46522 0
M  V30 2297 N 224.489 5.60648 4.06996 0
M  V30 2298 N 226.282 4.44426 3.44154 0
M  V30 2299 H 218.433 2.09412 0.354993 0
M  V30 2300 H 220.696 0.922181 0.219742 0
M  V30 2301 H 220.402 3.23536 1.37905 0
M  V30 2302 H 220.276 2.39483 2.91424 0
M  V30 2303 H 222.663 1.46853 2.55965 0
M  V30 2304 H 222.744 2.34403 1.02415 0
M  V30 2305 H 222.388 4.53762 2.28173 0
M  V30 2306 H 222.318 3.63119 3.81381 0
M  V30 2307 H 224.809 2.88321 2.44293 0
M  V30 2308 H 225.122 6.28101 4.50232 0
M  V30 2309 H 223.467 5.64463 4.05471 0
M  V30 2310 H 226.658 3.62529 2.96126 0
M  V30 2311 H 226.831 5.17457 3.90054 0
M  V30 2312 N 220.237 -1.11381 1.11499 0
M  V30 2313 C 221.169 -2.17207 0.731704 0
M  V30 2314 C 222.182 -1.61066 -0.236957 0
M  V30 2315 O 223.371 -1.78489 -0.0197591 0
M  V30 2316 C 220.471 -3.38846 0.0607624 0
M  V30 2317 C 219.644 -4.24451 1.0564 0
M  V30 2318 C 218.703 -5.24562 0.4149 0
M  V30 2319 O 217.729 -5.59071 1.069 0
M  V30 2320 N 218.931 -5.74651 -0.821943 0
M  V30 2321 H 221.696 -2.50699 1.64225 0
M  V30 2322 H 219.257 -1.26908 1.00529 0
M  V30 2323 H 221.249 -4.02911 -0.380139 0
M  V30 2324 H 219.819 -3.03411 -0.752376 0
M  V30 2325 H 219.039 -3.56833 1.67524 0
M  V30 2326 H 220.327 -4.78486 1.72998 0
M  V30 2327 H 219.725 -5.48797 -1.37252 0
M  V30 2328 H 218.282 -6.40549 -1.20582 0
M  V30 2329 N 221.715 -0.905404 -1.28997 0
M  V30 2330 C 222.645 -0.404212 -2.29975 0
M  V30 2331 C 223.626 0.523784 -1.61835 0
M  V30 2332 O 224.811 0.433298 -1.89304 0
M  V30 2333 C 221.941 0.364042 -3.45387 0
M  V30 2334 C 220.895 -0.474048 -4.25367 0
M  V30 2335 C 220.221 0.422045 -5.33032 0
M  V30 2336 C 221.521 -1.72696 -4.92923 0
M  V30 2337 H 223.215 -1.24807 -2.72146 0
M  V30 2338 H 220.761 -0.601585 -1.30832 0
M  V30 2339 H 222.714 0.725447 -4.15109 0
M  V30 2340 H 221.438 1.24174 -3.02074 0
M  V30 2341 H 220.097 -0.81786 -3.57361 0
M  V30 2342 H 219.745 1.29804 -4.85963 0
M  V30 2343 H 219.445 -0.135057 -5.87445 0
M  V30 2344 H 220.969 0.779517 -6.05604 0
M  V30 2345 H 222.383 -1.43495 -5.55051 0
M  V30 2346 H 220.78 -2.22582 -5.57295 0
M  V30 2347 H 221.85 -2.45964 -4.17887 0
M  V30 2348 N 223.193 1.4272 -0.668489 0
M  V30 2349 C 224.103 2.34596 0.0139753 0
M  V30 2350 C 225.119 1.5474 0.795703 0
M  V30 2351 O 226.295 1.87334 0.739466 0
M  V30 2352 C 223.36 3.33202 0.957982 0
M  V30 2353 C 222.421 4.28957 0.17149 0
M  V30 2354 C 221.654 5.22853 1.07053 0
M  V30 2355 O 221.877 5.21531 2.31001 0
M  V30 2356 O 220.811 5.9952 0.534727 0
M  V30 2357 H 224.637 2.9448 -0.742661 0
M  V30 2358 H 222.222 1.43117 -0.428705 0
M  V30 2359 H 224.104 3.93796 1.50008 0
M  V30 2360 H 222.779 2.758 1.69458 0
M  V30 2361 H 221.686 3.71796 -0.414558 0
M  V30 2362 H 223.019 4.89383 -0.52586 0
M  V30 2363 N 224.671 0.411399 1.52136 0
M  V30 2364 C 225.899 -0.163076 2.06256 0
M  V30 2365 C 226.314 -1.3867 1.28125 0
M  V30 2366 O 225.671 -1.79423 0.333721 0
M  V30 2367 C 225.722 -0.511252 3.57867 0
M  V30 2368 O 225.443 0.66378 4.33042 0
M  V30 2369 C 226.944 -1.13921 4.28412 0
M  V30 2370 H 224.164 -0.0193897 0.67072 0
M  V30 2371 H 226.708 0.583007 1.96013 0
M  V30 2372 H 224.863 -1.20723 3.6811 0
M  V30 2373 H 225.277 0.372601 5.23175 0
M  V30 2374 H 226.751 -1.33302 5.35663 0
M  V30 2375 H 227.228 -2.11296 3.85033 0
M  V30 2376 H 227.834 -0.483373 4.22544 0
M  V30 2377 N 226.149 -1.5696 0.141893 0
M  V30 2378 C 227.079 -2.19516 -0.795936 0
M  V30 2379 C 228.06 -1.14187 -1.26077 0
M  V30 2380 O 229.245 -1.42511 -1.31925 0
M  V30 2381 C 226.375 -2.81272 -2.03723 0
M  V30 2382 C 225.329 -3.92384 -1.70936 0
M  V30 2383 C 224.655 -4.41052 -3.02287 0
M  V30 2384 C 225.955 -5.13403 -0.959954 0
M  V30 2385 H 227.649 -2.98138 -0.274596 0
M  V30 2386 H 225.195 -1.43406 -0.130636 0
M  V30 2387 H 227.148 -3.237 -2.69808 0
M  V30 2388 H 225.872 -1.99973 -2.58221 0
M  V30 2389 H 224.531 -3.50566 -1.07232 0
M  V30 2390 H 224.179 -3.56582 -3.54765 0
M  V30 2391 H 223.879 -5.15993 -2.81114 0
M  V30 2392 H 225.403 -4.86146 -3.69451 0
M  V30 2393 H 226.817 -5.52706 -1.52279 0
M  V30 2394 H 225.214 -5.94073 -0.848357 0
M  V30 2395 H 226.284 -4.84875 0.0492434 0
M  V30 2396 N 227.627 0.131896 -1.57047 0
M  V30 2397 C 228.875 0.840269 -1.83804 0
M  V30 2398 C 229.196 1.81017 -0.72512 0
M  V30 2399 O 228.466 1.94272 0.251995 0
M  V30 2400 H 227.046 0.313294 -0.678127 0
M  V30 2401 H 229.708 0.122294 -1.94516 0
M  V30 2402 H 228.804 1.39335 -2.79271 0
M  V30 2403 N 229.106 1.52395 0.401703 0
M  V30 2404 C 230.038 1.72505 1.50912 0
M  V30 2405 C 231.051 0.605468 1.51122 0
M  V30 2406 O 232.24 0.880828 1.55254 0
M  V30 2407 C 229.34 1.75711 2.89791 0
M  V30 2408 C 228.513 3.04824 3.1369 0
M  V30 2409 C 227.572 2.99743 4.32482 0
M  V30 2410 O 226.598 3.73635 4.29402 0
M  V30 2411 N 227.8 2.18047 5.37992 0
M  V30 2412 H 230.565 2.68049 1.34052 0
M  V30 2413 H 228.126 1.50724 0.591084 0
M  V30 2414 H 230.118 1.69834 3.6734 0
M  V30 2415 H 228.688 0.876092 3.00072 0
M  V30 2416 H 227.908 3.2429 2.24119 0
M  V30 2417 H 229.196 3.90221 3.26504 0
M  V30 2418 H 228.594 1.57456 5.43345 0
M  V30 2419 H 227.151 2.18021 6.14256 0
M  V30 2420 N 230.584 -0.659388 1.43143 0
M  V30 2421 C 231.494 -1.80167 1.50256 0
M  V30 2422 C 232.51 -1.69571 0.390106 0
M  V30 2423 O 233.686 -1.90849 0.643319 0
M  V30 2424 C 230.751 -3.16409 1.41725 0
M  V30 2425 C 229.812 -3.38848 2.63591 0
M  V30 2426 C 229.045 -4.68591 2.55458 0
M  V30 2427 O 229.268 -5.47532 1.59891 0
M  V30 2428 O 228.202 -4.92614 3.45854 0
M  V30 2429 H 232.028 -1.77121 2.46702 0
M  V30 2430 H 229.613 -0.817092 1.25076 0
M  V30 2431 H 231.495 -3.9768 1.39387 0
M  V30 2432 H 230.17 -3.20059 0.484118 0
M  V30 2433 H 229.077 -2.57366 2.71502 0
M  V30 2434 H 230.41 -3.4004 3.55856 0
M  V30 2435 N 232.062 -1.29571 -0.897171 0
M  V30 2436 C 233.009 -1.14916 -2.00158 0
M  V30 2437 C 233.979 -0.0418149 -1.66047 0
M  V30 2438 O 235.164 -0.209793 -1.89643 0
M  V30 2439 C 232.304 -0.834307 -3.34863 0
M  V30 2440 C 231.417 -2.02234 -3.8174 0
M  V30 2441 C 230.552 -1.64664 -5.05034 0
M  V30 2442 C 229.591 -2.80033 -5.44286 0
M  V30 2443 N 228.728 -2.42843 -6.58765 0
M  V30 2444 H 233.568 -2.09403 -2.12025 0
M  V30 2445 H 231.105 -1.042 -1.0383 0
M  V30 2446 H 233.063 -0.632436 -4.12379 0
M  V30 2447 H 231.693 0.0736656 -3.22716 0
M  V30 2448 H 230.745 -2.33583 -3.00238 0
M  V30 2449 H 232.057 -2.88673 -4.06779 0
M  V30 2450 H 231.211 -1.4078 -5.9014 0
M  V30 2451 H 229.95 -0.753766 -4.8184 0
M  V30 2452 H 228.955 -3.04596 -4.57713 0
M  V30 2453 H 230.18 -3.69989 -5.6946 0
M  V30 2454 H 228.126 -1.56046 -6.3717 0
M  V30 2455 H 228.043 -3.22815 -6.83613 0
M  V30 2456 H 229.311 -2.22285 -7.47134 0
M  V30 2457 N 233.54 1.10788 -1.12088 0
M  V30 2458 C 234.47 2.19083 -0.807755 0
M  V30 2459 C 235.451 1.6858 0.226859 0
M  V30 2460 O 236.636 1.93997 0.0888475 0
M  V30 2461 C 233.766 3.46344 -0.257576 0
M  V30 2462 C 232.72 4.101 -1.22483 0
M  V30 2463 C 232.046 5.32016 -0.535052 0
M  V30 2464 C 233.346 4.54236 -2.57811 0
M  V30 2465 H 235.04 2.45534 -1.71328 0
M  V30 2466 H 232.586 1.1801 -0.825205 0
M  V30 2467 H 234.539 4.21392 -0.0262679 0
M  V30 2468 H 233.263 3.19373 0.683278 0
M  V30 2469 H 231.922 3.37054 -1.44189 0
M  V30 2470 H 231.57 5.01319 0.410827 0
M  V30 2471 H 231.27 5.75625 -1.18024 0
M  V30 2472 H 232.794 6.09799 -0.312695 0
M  V30 2473 H 234.208 5.20575 -2.40155 0
M  V30 2474 H 232.605 5.08682 -3.18375 0
M  V30 2475 H 233.675 3.6734 -3.16528 0
M  V30 2476 N 235.018 0.912232 1.28515 0
M  V30 2477 C 235.965 0.397954 2.27343 0
M  V30 2478 C 236.935 -0.526766 1.57526 0
M  V30 2479 O 238.12 -0.449292 1.85435 0
M  V30 2480 C 235.26 -0.357263 3.43246 0
M  V30 2481 C 234.373 0.599788 4.27816 0
M  V30 2482 C 233.508 -0.173725 5.30916 0
M  V30 2483 C 232.547 0.777039 6.07148 0
M  V30 2484 N 231.684 0.0371398 7.0209 0
M  V30 2485 H 236.524 1.24577 2.70711 0
M  V30 2486 H 234.061 0.625612 1.33133 0
M  V30 2487 H 236.019 -0.8113 4.09236 0
M  V30 2488 H 234.649 -1.16943 3.00872 0
M  V30 2489 H 233.701 1.17235 3.61884 0
M  V30 2490 H 235.013 1.32704 4.80823 0
M  V30 2491 H 234.167 -0.688394 6.02782 0
M  V30 2492 H 232.906 -0.934041 4.78672 0
M  V30 2493 H 231.911 1.3031 5.34134 0
M  V30 2494 H 233.136 1.53689 6.61481 0
M  V30 2495 H 231.082 -0.705213 6.52198 0
M  V30 2496 H 230.999 0.704249 7.52713 0
M  V30 2497 H 232.267 -0.457383 7.78157 0
M  V30 2498 N 236.496 -1.42363 0.676048 0
M  V30 2499 C 237.426 -2.33497 0.0124832 0
M  V30 2500 C 238.407 -1.50748 -0.787981 0
M  V30 2501 O 239.592 -1.79346 -0.744884 0
M  V30 2502 C 236.722 -3.34377 -0.938582 0
M  V30 2503 C 235.676 -4.27289 -0.246622 0
M  V30 2504 C 235.002 -5.18386 -1.31071 0
M  V30 2505 C 236.302 -5.14916 0.875125 0
M  V30 2506 H 237.996 -2.89233 0.773593 0
M  V30 2507 H 235.542 -1.39073 0.37346 0
M  V30 2508 H 237.495 -3.97044 -1.41188 0
M  V30 2509 H 236.219 -2.76947 -1.73113 0
M  V30 2510 H 234.878 -3.66018 0.206456 0
M  V30 2511 H 234.526 -4.57282 -2.09528 0
M  V30 2512 H 234.226 -5.81378 -0.852839 0
M  V30 2513 H 235.75 -5.83929 -1.78492 0
M  V30 2514 H 237.164 -5.71262 0.482983 0
M  V30 2515 H 235.561 -5.86747 1.25887 0
M  V30 2516 H 236.631 -4.53242 1.72335 0
M  V30 2517 N 237.974 -0.419461 -1.51915 0
M  V30 2518 C 238.884 0.407528 -2.31033 0
M  V30 2519 C 239.9 1.04413 -1.3919 0
M  V30 2520 O 241.076 1.0434 -1.72265 0
M  V30 2521 C 238.141 1.50365 -3.12396 0
M  V30 2522 C 237.202 0.889029 -4.19994 0
M  V30 2523 C 236.435 1.93291 -4.97468 0
M  V30 2524 O 236.658 3.15259 -4.75361 0
M  V30 2525 O 235.592 1.53339 -5.8204 0
M  V30 2526 H 239.418 -0.237865 -3.02767 0
M  V30 2527 H 237.003 -0.182413 -1.48282 0
M  V30 2528 H 238.885 2.13975 -3.63032 0
M  V30 2529 H 237.56 2.13345 -2.43445 0
M  V30 2530 H 236.467 0.215353 -3.7348 0
M  V30 2531 H 237.8 0.302991 -4.91267 0
M  V30 2532 N 239.452 1.56882 -0.150215 0
M  V30 2533 C 240.415 2.1573 0.774157 0
M  V30 2534 C 241.415 1.0999 1.17298 0
M  V30 2535 O 242.605 1.35613 1.09338 0
M  V30 2536 C 239.737 2.72302 2.05096 0
M  V30 2537 H 240.93 2.98752 0.262201 0
M  V30 2538 H 238.483 1.55985 0.099248 0
M  V30 2539 H 239.218 1.92956 2.6065 0
M  V30 2540 H 239.003 3.49665 1.77416 0
M  V30 2541 H 240.493 3.17632 2.71109 0
M  V30 2542 N 240.93 -0.123565 1.57115 0
M  V30 2543 C 241.84 -1.17074 2.033 0
M  V30 2544 C 242.856 -1.4561 0.952559 0
M  V30 2545 O 244.032 -1.56817 1.26374 0
M  V30 2546 C 241.097 -2.47857 2.42421 0
M  V30 2547 C 240.158 -2.26758 3.64526 0
M  V30 2548 C 239.391 -3.51305 4.01771 0
M  V30 2549 O 239.614 -4.5843 3.39409 0
M  V30 2550 O 238.548 -3.42578 4.94898 0
M  V30 2551 H 242.374 -0.808555 2.92739 0
M  V30 2552 H 239.959 -0.334027 1.45618 0
M  V30 2553 H 241.841 -3.2492 2.68338 0
M  V30 2554 H 240.516 -2.83558 1.5613 0
M  V30 2555 H 239.423 -1.47569 3.43765 0
M  V30 2556 H 240.756 -1.95963 4.51508 0
M  V30 2557 N 242.408 -1.52605 -0.393616 0
M  V30 2558 C 243.338 -1.80022 -1.48709 0
M  V30 2559 C 244.319 -0.651995 -1.57108 0
M  V30 2560 O 245.504 -0.89913 -1.72132 0
M  V30 2561 C 242.634 -1.96492 -2.86371 0
M  V30 2562 C 241.588 -3.12161 -2.92813 0
M  V30 2563 C 240.914 -3.13877 -4.3288 0
M  V30 2564 C 242.214 -4.51322 -2.6288 0
M  V30 2565 H 243.908 -2.71589 -1.26015 0
M  V30 2566 H 241.454 -1.30684 -0.604778 0
M  V30 2567 H 243.407 -2.14255 -3.62867 0
M  V30 2568 H 242.131 -1.01611 -3.10391 0
M  V30 2569 H 240.79 -2.94173 -2.18764 0
M  V30 2570 H 240.438 -2.16687 -4.53933 0
M  V30 2571 H 240.138 -3.91576 -4.38112 0
M  V30 2572 H 241.662 -3.33789 -5.1129 0
M  V30 2573 H 243.076 -4.69435 -3.29096 0
M  V30 2574 H 241.473 -5.31053 -2.79468 0
M  V30 2575 H 242.543 -4.58353 -1.58242 0
M  V30 2576 N 243.887 0.651787 -1.4349 0
M  V30 2577 C 245.135 1.40888 -1.44897 0
M  V30 2578 C 245.456 1.94856 -0.0749086 0
M  V30 2579 O 244.726 1.74518 0.889956 0
M  V30 2580 H 243.306 0.522887 -0.533478 0
M  V30 2581 H 245.968 0.768609 -1.79104 0
M  V30 2582 H 245.064 2.25052 -2.16236 0
M  V30 2583 N 245.365 1.30045 0.890287 0
M  V30 2584 C 246.313 1.15873 2.01683 0
M  V30 2585 C 247.307 0.0719403 1.69247 0
M  V30 2586 O 248.513 0.232414 1.78493 0
M  V30 2587 H 244.888 0.358203 0.661207 0
M  V30 2588 H 246.859 2.11229 2.10772 0
M  V30 2589 C 245.608 0.861842 3.36849 0
M  V30 2590 H 244.931 1.69016 3.62317 0
M  V30 2591 H 246.371 0.802762 4.16331 0
M  V30 2592 C 244.83 -0.435132 3.34078 0
M  V30 2593 O 245.36 -1.4583 3.74295 0
M  V30 2594 N 243.566 -0.444377 2.87182 0
M  V30 2595 H 243.113 0.388723 2.5465 0
M  V30 2596 H 243.071 -1.31213 2.85711 0
M  V30 2597 N 246.843 -1.10192 1.12674 0
M  V30 2598 C 247.776 -2.15847 0.740625 0
M  V30 2599 C 248.754 -1.60352 -0.269421 0
M  V30 2600 O 249.938 -1.87796 -0.16278 0
M  V30 2601 C 247.065 -3.38562 0.096641 0
M  V30 2602 C 246.111 -4.12758 1.07391 0
M  V30 2603 S 246.944 -4.67997 2.60267 0
M  V30 2604 C 248.1 -5.94021 1.97206 0
M  V30 2605 H 248.333 -2.48266 1.63558 0
M  V30 2606 H 245.866 -1.22019 0.946087 0
M  V30 2607 H 247.824 -4.09621 -0.268535 0
M  V30 2608 H 246.485 -3.04377 -0.775462 0
M  V30 2609 H 245.678 -5.00755 0.570997 0
M  V30 2610 H 245.28 -3.47523 1.38216 0
M  V30 2611 H 247.572 -6.64589 1.31634 0
M  V30 2612 H 248.515 -6.48979 2.83253 0
M  V30 2613 H 248.923 -5.46169 1.42686 0
M  V30 2614 N 248.321 -0.919034 -1.28029 0
M  V30 2615 C 249.253 -0.368762 -2.26214 0
M  V30 2616 C 250.266 0.495716 -1.55069 0
M  V30 2617 O 251.455 0.30974 -1.75792 0
M  V30 2618 C 248.555 0.491049 -3.35324 0
M  V30 2619 C 247.728 -0.352133 -4.3598 0
M  V30 2620 C 246.787 0.443622 -5.24327 0
M  V30 2621 O 245.813 -0.14566 -5.69014 0
M  V30 2622 N 247.015 1.74545 -5.53637 0
M  V30 2623 H 249.78 -1.21273 -2.74068 0
M  V30 2624 H 247.341 -0.785541 -1.41566 0
M  V30 2625 H 249.333 1.03026 -3.91366 0
M  V30 2626 H 247.903 1.23574 -2.87138 0
M  V30 2627 H 247.123 -1.07269 -3.79324 0
M  V30 2628 H 248.411 -0.928883 -5.00249 0
M  V30 2629 H 247.809 2.24666 -5.19174 0
M  V30 2630 H 246.366 2.23138 -6.12416 0
M  V30 2631 N 249.799 1.42003 -0.683588 0
M  V30 2632 C 251.047 2.01015 -0.209101 0
M  V30 2633 C 251.368 1.54365 1.19149 0
M  V30 2634 O 250.638 0.769083 1.80172 0
M  V30 2635 H 249.218 0.743294 -0.074315 0
M  V30 2636 H 251.88 1.73798 -0.882066 0
M  V30 2637 H 250.976 3.11343 -0.2172 0
M  V30 2638 N 251.277 0.427512 1.51691 0
M  V30 2639 C 252.207 -0.3796 2.30394 0
M  V30 2640 C 253.188 -1.02982 1.35384 0
M  V30 2641 O 254.373 -1.03534 1.643 0
M  V30 2642 C 251.503 -1.48649 3.1388 0
M  V30 2643 C 250.457 -0.960294 4.17088 0
M  V30 2644 C 249.783 -2.16219 4.89033 0
M  V30 2645 C 251.083 -0.00153679 5.223 0
M  V30 2646 H 252.777 0.277164 2.98114 0
M  V30 2647 H 250.323 0.134739 1.43368 0
M  V30 2648 H 252.276 -2.05826 3.67714 0
M  V30 2649 H 251 -2.1714 2.43962 0
M  V30 2650 H 249.659 -0.410806 3.64291 0
M  V30 2651 H 249.307 -2.83307 4.15628 0
M  V30 2652 H 249.007 -1.81654 5.58816 0
M  V30 2653 H 250.531 -2.73968 5.45687 0
M  V30 2654 H 251.945 -0.482687 5.71264 0
M  V30 2655 H 250.342 0.256199 5.99553 0
M  V30 2656 H 251.412 0.938174 4.75738 0
M  V30 2657 N 252.755 -1.56801 0.158532 0
M  V30 2658 C 254.001 -1.96781 -0.490405 0
M  V30 2659 C 254.334 -1.04397 -1.63753 0
M  V30 2660 O 253.609 -0.0885805 -1.94298 0
M  V30 2661 C 253.892 -3.4635 -0.985594 0
M  V30 2662 C 253.745 -4.49512 0.160824 0
M  V30 2663 C 255.064 -3.98697 -1.86355 0
M  V30 2664 H 252.183 -0.715482 -0.176788 0
M  V30 2665 H 254.825 -1.88451 0.242088 0
M  V30 2666 H 252.975 -3.53579 -1.60978 0
M  V30 2667 H 254.647 -4.54353 0.797537 0
M  V30 2668 H 252.89 -4.26013 0.818256 0
M  V30 2669 H 253.561 -5.51531 -0.227569 0
M  V30 2670 H 256.037 -3.94019 -1.33746 0
M  V30 2671 H 254.913 -5.03792 -2.17909 0
M  V30 2672 H 255.174 -3.41744 -2.8047 0
M  V30 2673 N 254.233 0.115231 -1.57178 0
M  V30 2674 C 255.143 1.15994 -2.03918 0
M  V30 2675 C 256.159 1.45103 -0.960268 0
M  V30 2676 O 257.335 1.56144 -1.27204 0
M  V30 2677 C 254.4 2.46568 -2.43732 0
M  V30 2678 C 253.461 2.24822 -3.65723 0
M  V30 2679 C 252.694 3.4917 -4.03629 0
M  V30 2680 O 252.917 4.56623 -3.41835 0
M  V30 2681 O 251.851 3.39949 -4.96708 0
M  V30 2682 H 255.677 0.793019 -2.93164 0
M  V30 2683 H 253.262 0.3263 -1.45793 0
M  V30 2684 H 255.144 3.23492 -2.70057 0
M  V30 2685 H 253.819 2.82726 -1.57631 0
M  V30 2686 H 252.726 1.45744 -3.44542 0
M  V30 2687 H 254.059 1.93566 -4.52541 0
M  V30 2688 N 255.711 1.52812 0.385517 0
M  V30 2689 C 256.988 1.5861 1.14465 0
M  V30 2690 C 257.368 0.381402 2.07626 0
M  V30 2691 O 256.716 -0.629999 2.19643 0
M  V30 2692 C 256.926 2.92664 1.90128 0
M  V30 2693 C 258.274 3.46526 2.45367 0
M  V30 2694 O 259.298 2.94562 2.0028 0
M  V30 2695 O 258.157 4.37323 3.27736 0
M  V30 2696 H 255.251 0.639855 0.523941 0
M  V30 2697 H 257.797 1.65149 0.390389 0
M  V30 2698 H 256.569 3.71788 1.22022 0
M  V30 2699 H 256.192 2.89527 2.72507 0
M  V30 2700 N 257.189 -0.644168 1.43834 0
M  V30 2701 C 258.436 -1.40395 1.4593 0
M  V30 2702 C 258.764 -1.94305 0.0869658 0
M  V30 2703 O 258.019 -1.73288 -0.909378 0
M  V30 2704 C 258.318 -2.59615 2.45631 0
M  V30 2705 C 257.984 -2.2407 3.91284 0
M  V30 2706 C 256.646 -2.14089 4.30952 0
M  V30 2707 C 258.998 -1.95775 4.83034 0
M  V30 2708 C 256.326 -1.73981 5.6031 0
M  V30 2709 C 258.678 -1.57163 6.12766 0
M  V30 2710 C 257.342 -1.45713 6.51402 0
M  V30 2711 H 256.612 -0.513741 0.533995 0
M  V30 2712 H 259.259 -0.731724 1.76969 0
M  V30 2713 H 257.564 -3.32011 2.08028 0
M  V30 2714 H 259.261 -3.17834 2.44504 0
M  V30 2715 H 255.851 -2.32753 3.59895 0
M  V30 2716 H 260.035 -2.02403 4.53152 0
M  V30 2717 H 255.291 -1.63709 5.89075 0
M  V30 2718 H 259.465 -1.34303 6.83327 0
M  V30 2719 H 257.092 -1.14406 7.51542 0
M  V30 2720 N 258.668 -1.30515 -0.883378 0
M  V30 2721 C 259.615 -1.17032 -1.98927 0
M  V30 2722 C 260.585 -0.0594241 -1.65994 0
M  V30 2723 O 261.77 -0.229895 -1.8941 0
M  V30 2724 C 258.91 -0.869777 -3.33959 0
M  V30 2725 C 258.023 -2.06271 -3.79574 0
M  V30 2726 C 257.158 -1.70011 -5.03259 0
M  V30 2727 C 256.197 -2.8579 -5.41286 0
M  V30 2728 N 255.334 -2.49816 -6.56153 0
M  V30 2729 H 260.174 -2.1164 -2.09792 0
M  V30 2730 H 257.711 -1.05296 -1.02719 0
M  V30 2731 H 259.669 -0.676138 -4.11685 0
M  V30 2732 H 258.299 0.0394332 -3.22776 0
M  V30 2733 H 257.351 -2.36755 -2.97744 0
M  V30 2734 H 258.663 -2.92971 -4.03694 0
M  V30 2735 H 257.817 -1.47032 -5.88614 0
M  V30 2736 H 256.556 -0.804829 -4.81013 0
M  V30 2737 H 255.561 -3.09434 -4.54456 0
M  V30 2738 H 256.786 -3.76008 -5.65504 0
M  V30 2739 H 254.732 -1.62795 -6.35479 0
M  V30 2740 H 254.649 -3.30048 -6.8015 0
M  V30 2741 H 255.917 -2.30197 -7.44735 0
M  V30 2742 N 260.146 1.09593 -1.13257 0
M  V30 2743 C 261.094 2.18271 -0.803783 0
M  V30 2744 C 262.088 1.68054 0.213148 0
M  V30 2745 O 263.294 1.79862 0.0704699 0
M  V30 2746 H 259.669 0.711949 -0.242143 0
M  V30 2747 H 261.64 2.43235 -1.72856 0
M  V30 2748 C 260.389 3.46536 -0.28424 0
M  V30 2749 H 259.712 3.85545 -1.05807 0
M  V30 2750 H 261.152 4.23899 -0.0925945 0
M  V30 2751 C 259.611 3.22036 0.989684 0
M  V30 2752 O 260.141 3.44509 2.06584 0
M  V30 2753 N 258.347 2.7565 0.920086 0
M  V30 2754 H 257.894 2.57562 0.0442019 0
M  V30 2755 H 257.852 2.59635 1.77306 0
M  V30 2756 N 261.624 0.925811 1.2754 0
M  V30 2757 C 262.571 0.422045 2.26908 0
M  V30 2758 C 263.541 -0.510029 1.58076 0
M  V30 2759 O 264.726 -0.429599 1.85901 0
M  V30 2760 C 261.866 -0.320837 3.43605 0
M  V30 2761 C 260.979 0.64513 4.27156 0
M  V30 2762 C 260.114 -0.117405 5.3107 0
M  V30 2763 C 259.153 0.841391 6.0629 0
M  V30 2764 N 258.29 0.111604 7.02011 0
M  V30 2765 H 263.13 1.27441 2.69375 0
M  V30 2766 H 260.667 0.639697 1.32462 0
M  V30 2767 H 262.625 -0.76785 4.10073 0
M  V30 2768 H 261.255 -1.13745 3.02096 0
M  V30 2769 H 260.307 1.21067 3.6062 0
M  V30 2770 H 261.619 1.37797 4.79389 0
M  V30 2771 H 260.773 -0.624422 6.03478 0
M  V30 2772 H 259.512 -0.883219 4.79636 0
M  V30 2773 H 258.517 1.35967 5.32722 0
M  V30 2774 H 259.742 1.60696 6.59813 0
M  V30 2775 H 257.688 -0.635999 6.5291 0
M  V30 2776 H 257.605 0.784044 7.51923 0
M  V30 2777 H 258.873 -0.374823 7.78598 0
M  V30 2778 N 263.102 -1.41638 0.69111 0
M  V30 2779 C 264.332 -2.0533 0.228758 0
M  V30 2780 C 264.74 -1.52089 -1.12541 0
M  V30 2781 O 264.083 -0.662145 -1.71351 0
M  V30 2782 C 264.145 -3.59349 0.10407 0
M  V30 2783 C 263.809 -4.35362 1.38956 0
M  V30 2784 C 264.806 -4.64942 2.32648 0
M  V30 2785 C 262.491 -4.74714 1.64169 0
M  V30 2786 C 264.485 -5.32828 3.49818 0
M  V30 2787 C 262.172 -5.42338 2.81625 0
M  V30 2788 C 263.17 -5.71322 3.74273 0
M  V30 2789 O 262.858 -6.37554 4.89673 0
M  V30 2790 H 262.59 -0.667796 0.104997 0
M  V30 2791 H 265.144 -1.82477 0.942938 0
M  V30 2792 H 263.374 -3.80924 -0.665839 0
M  V30 2793 H 265.063 -4.04633 -0.320519 0
M  V30 2794 H 265.829 -4.35025 2.14425 0
M  V30 2795 H 261.708 -4.51538 0.929202 0
M  V30 2796 H 265.252 -5.55368 4.22152 0
M  V30 2797 H 261.149 -5.71673 2.99768 0
M  V30 2798 H 261.917 -6.56049 4.8943 0
M  V30 2799 N 264.58 -0.43555 -1.51462 0
M  V30 2800 C 265.49 0.383001 -2.31453 0
M  V30 2801 C 266.506 1.02931 -1.4029 0
M  V30 2802 O 267.682 1.02507 -1.73362 0
M  V30 2803 C 264.747 1.47043 -3.13973 0
M  V30 2804 C 263.808 0.844433 -4.20913 0
M  V30 2805 C 263.041 1.88004 -4.9949 0
M  V30 2806 O 263.264 3.10199 -4.78678 0
M  V30 2807 O 262.198 1.47157 -5.83634 0
M  V30 2808 H 266.024 -0.269964 -3.02498 0
M  V30 2809 H 263.609 -0.19813 -1.4808 0
M  V30 2810 H 265.491 2.10113 -3.65281 0
M  V30 2811 H 264.166 2.10751 -2.45695 0
M  V30 2812 H 263.073 0.175729 -3.73687 0
M  V30 2813 H 264.406 0.250869 -4.9156 0
M  V30 2814 N 266.058 1.56714 -0.166846 0
M  V30 2815 C 267.335 1.88412 0.525373 0
M  V30 2816 C 267.715 1.07602 1.81618 0
M  V30 2817 O 267.063 0.168621 2.27877 0
M  V30 2818 C 267.273 3.40363 0.771613 0
M  V30 2819 C 268.621 4.10007 1.1036 0
M  V30 2820 O 269.645 3.45655 0.860304 0
M  V30 2821 O 268.504 5.2369 1.56239 0
M  V30 2822 H 265.598 0.781587 0.270278 0
M  V30 2823 H 268.144 1.68458 -0.204946 0
M  V30 2824 H 266.916 3.91046 -0.141093 0
M  V30 2825 H 266.539 3.65914 1.55541 0
M  V30 2826 N 267.536 -0.106894 1.57237 0
M  V30 2827 C 268.446 -1.14911 2.0453 0
M  V30 2828 C 269.462 -1.44592 0.96795 0
M  V30 2829 O 270.638 -1.55468 1.2803 0
M  V30 2830 C 267.703 -2.45272 2.45036 0
M  V30 2831 C 266.764 -2.22879 3.66911 0
M  V30 2832 C 265.997 -3.47024 4.05475 0
M  V30 2833 O 266.22 -4.54804 3.44252 0
M  V30 2834 O 265.154 -3.3731 4.98504 0
M  V30 2835 H 268.98 -0.777461 2.9358 0
M  V30 2836 H 266.565 -0.318563 1.45964 0
M  V30 2837 H 268.447 -3.22055 2.71769 0
M  V30 2838 H 267.122 -2.81886 1.59129 0
M  V30 2839 H 266.029 -1.43915 3.45311 0
M  V30 2840 H 267.362 -1.91163 4.53561 0
M  V30 2841 N 269.014 -1.53014 -0.377408 0
M  V30 2842 C 270.263 -1.67845 -1.11853 0
M  V30 2843 C 270.576 -0.430625 -1.90801 0
M  V30 2844 O 271.782 -0.459261 -2.67587 0
M  V30 2845 C 270.238 -2.96668 -2.03756 0
M  V30 2846 C 269.846 -4.28671 -1.30175 0
M  V30 2847 C 271.59 -3.20865 -2.77932 0
M  V30 2848 C 269.497 -5.48591 -2.20911 0
M  V30 2849 H 268.427 -0.625343 -0.421263 0
M  V30 2850 H 271.078 -1.79514 -0.380409 0
M  V30 2851 H 269.46 -2.78773 -2.8125 0
M  V30 2852 H 270.634 -4.57157 -0.578259 0
M  V30 2853 H 268.949 -4.10825 -0.679108 0
M  V30 2854 H 271.546 -4.07642 -3.46024 0
M  V30 2855 H 271.889 -2.36424 -3.4265 0
M  V30 2856 H 272.422 -3.39379 -2.07525 0
M  V30 2857 H 269.161 -6.35474 -1.6079 0
M  V30 2858 H 268.681 -5.244 -2.91144 0
M  V30 2859 H 270.36 -5.8292 -2.80736 0
M  V30 2860 N 270.492 0.636531 -1.44174 0
M  V30 2861 C 271.44 1.76995 -1.50915 0
M  V30 2862 C 272.434 1.65053 -0.381295 0
M  V30 2863 O 273.64 1.71197 -0.55601 0
M  V30 2864 H 270.015 0.584247 -0.473455 0
M  V30 2865 H 271.986 1.68432 -2.4632 0
M  V30 2866 C 270.735 3.15314 -1.46534 0
M  V30 2867 H 270.058 3.25149 -2.32633 0
M  V30 2868 H 271.498 3.9453 -1.55312 0
M  V30 2869 C 269.957 3.3639 -0.185305 0
M  V30 2870 O 270.487 3.94699 0.746688 0
M  V30 2871 N 268.693 2.9046 -0.0901606 0
M  V30 2872 H 268.24 2.43193 -0.849416 0
M  V30 2873 H 268.198 3.04937 0.765553 0
M  V30 2874 N 271.97 1.30982 0.876444 0
M  V30 2875 C 272.917 1.18085 1.98304 0
M  V30 2876 C 273.887 0.0682263 1.6596 0
M  V30 2877 O 275.072 0.239937 1.89285 0
M  V30 2878 C 272.212 0.887475 3.33493 0
M  V30 2879 C 271.325 2.08281 3.78475 0
M  V30 2880 C 270.46 1.72678 5.0235 0
M  V30 2881 C 269.499 2.88657 5.39762 0
M  V30 2882 N 268.636 2.53292 6.54819 0
M  V30 2883 H 273.476 2.1275 2.08666 0
M  V30 2884 H 271.013 1.05839 1.02159 0
M  V30 2885 H 272.971 0.697961 4.1132 0
M  V30 2886 H 271.601 -0.022315 3.22792 0
M  V30 2887 H 270.653 2.3833 2.96484 0
M  V30 2888 H 271.965 2.95108 4.02135 0
M  V30 2889 H 271.119 1.50151 5.87826 0
M  V30 2890 H 269.858 0.830327 4.8058 0
M  V30 2891 H 268.863 3.1184 4.52809 0
M  V30 2892 H 270.088 3.79002 5.63502 0
M  V30 2893 H 268.034 1.66163 6.34607 0
M  V30 2894 H 267.951 3.3365 6.7839 0
M  V30 2895 H 269.219 2.34143 7.43503 0
M  V30 2896 N 273.449 -1.08991 1.13837 0
M  V30 2897 C 274.865 -1.33312 0.877506 0
M  V30 2898 C 275.065 -1.95587 -0.48456 0
M  V30 2899 O 274.121 -2.20509 -1.23013 0
M  V30 2900 C 275.434 -2.24045 2.0056 0
M  V30 2901 C 276.982 -2.37542 2.03821 0
M  V30 2902 C 277.457 -3.31614 3.15905 0
M  V30 2903 N 278.948 -3.39189 3.15445 0
M  V30 2904 C 279.683 -4.11992 3.98811 0
M  V30 2905 N 279.179 -4.87553 4.92203 0
M  V30 2906 N 280.972 -4.07762 3.86894 0
M  V30 2907 H 273.123 -0.669456 2.01574 0
M  V30 2908 H 275.386 -0.357482 0.878015 0
M  V30 2909 H 275.092 -1.85521 2.98789 0
M  V30 2910 H 274.966 -3.24466 1.92359 0
M  V30 2911 H 277.353 -2.75327 1.06202 0
M  V30 2912 H 277.434 -1.36884 2.16093 0
M  V30 2913 H 277.078 -2.94551 4.13766 0
M  V30 2914 H 277.008 -4.32186 3.0087 0
M  V30 2915 H 279.499 -2.85314 2.47799 0
M  V30 2916 H 279.812 -5.40549 5.52292 0
M  V30 2917 H 278.157 -4.86627 4.96205 0
M  V30 2918 H 281.348 -3.47833 3.13257 0
M  V30 2919 H 281.521 -4.64238 4.52092 0
M  V30 2920 N 274.927 -0.932562 -1.27047 0
M  V30 2921 C 276.155 -0.592031 -1.98249 0
M  V30 2922 C 276.57 0.831062 -1.69525 0
M  V30 2923 O 275.927 1.55299 -0.958561 0
M  V30 2924 C 275.978 -0.814279 -3.5221 0
M  V30 2925 O 275.699 -2.18139 -3.7993 0
M  V30 2926 C 277.2 -0.483121 -4.4066 0
M  V30 2927 H 274.42 -0.223896 -0.632544 0
M  V30 2928 H 276.964 -1.25091 -1.61779 0
M  V30 2929 H 275.119 -0.20213 -3.86872 0
M  V30 2930 H 275.533 -2.235 -4.74498 0
M  V30 2931 H 277.007 -0.689298 -5.47679 0
M  V30 2932 H 277.484 0.581546 -4.35333 0
M  V30 2933 H 278.09 -1.07362 -4.11526 0
M  V30 2934 N 276.405 1.4127 -0.698611 0
M  V30 2935 C 277.315 2.34573 -0.0357891 0
M  V30 2936 C 278.331 1.56393 0.762701 0
M  V30 2937 O 279.507 1.8886 0.699564 0
M  V30 2938 C 276.572 3.35159 0.887089 0
M  V30 2939 C 275.633 4.29225 0.0804634 0
M  V30 2940 C 274.866 5.25006 0.959387 0
M  V30 2941 O 275.089 5.26314 2.19886 0
M  V30 2942 O 274.023 6.00519 0.407439 0
M  V30 2943 H 277.849 2.92838 -0.804957 0
M  V30 2944 H 275.434 1.42175 -0.458966 0
M  V30 2945 H 277.316 3.9689 1.41621 0
M  V30 2946 H 275.991 2.79333 1.6357 0
M  V30 2947 H 274.898 3.70833 -0.493328 0
M  V30 2948 H 276.231 4.88157 -0.629547 0
M  V30 2949 N 277.883 0.443576 1.51229 0
M  V30 2950 C 278.816 -0.410089 2.24485 0
M  V30 2951 C 279.794 -1.01949 1.26669 0
M  V30 2952 O 280.978 -1.06075 1.55821 0
M  V30 2953 C 278.105 -1.57211 3.00004 0
M  V30 2954 C 277.151 -1.08279 4.12526 0
M  V30 2955 S 277.984 -0.0197476 5.35496 0
M  V30 2956 C 279.14 -1.18629 6.14555 0
M  V30 2957 H 279.373 0.211832 2.96544 0
M  V30 2958 H 276.906 0.228156 1.52705 0
M  V30 2959 H 278.864 -2.23825 3.44111 0
M  V30 2960 H 277.525 -2.16547 2.27522 0
M  V30 2961 H 276.718 -1.95193 4.64667 0
M  V30 2962 H 276.32 -0.494797 3.70713 0
M  V30 2963 H 278.612 -2.10344 6.4402 0
M  V30 2964 H 279.555 -0.70472 7.04584 0
M  V30 2965 H 279.963 -1.42768 5.46148 0
M  V30 2966 N 279.361 -1.56624 0.175154 0
M  V30 2967 C 280.271 -2.21741 -0.766042 0
M  V30 2968 C 281.287 -1.21023 -1.25018 0
M  V30 2969 O 282.463 -1.53697 -1.3015 0
M  V30 2970 C 279.528 -2.84839 -1.97655 0
M  V30 2971 C 278.589 -4.00769 -1.53892 0
M  V30 2972 C 277.822 -4.60849 -2.69173 0
M  V30 2973 O 278.045 -4.19823 -3.86141 0
M  V30 2974 O 276.979 -5.50655 -2.43028 0
M  V30 2975 H 280.805 -3.02738 -0.241585 0
M  V30 2976 H 278.39 -1.49305 -0.053222 0
M  V30 2977 H 280.272 -3.24834 -2.68442 0
M  V30 2978 H 278.947 -2.06836 -2.48999 0
M  V30 2979 H 277.854 -3.65436 -0.80044 0
M  V30 2980 H 279.187 -4.80376 -1.07236 0
M  V30 2981 N 280.839 0.0985539 -1.57292 0
M  V30 2982 C 281.787 1.1387 -2.02821 0
M  V30 2983 C 282.781 1.41676 -0.928666 0
M  V30 2984 O 283.987 1.41398 -1.11385 0
M  V30 2985 H 280.362 0.384419 -0.646317 0
M  V30 2986 H 282.333 0.728347 -2.89375 0
M  V30 2987 C 281.082 2.45166 -2.46554 0
M  V30 2988 H 280.405 2.24613 -3.3074 0
M  V30 2989 H 281.845 3.16456 -2.8219 0
M  V30 2990 C 280.304 3.09216 -1.33742 0
M  V30 2991 O 280.834 3.96163 -0.66464 0
M  V30 2992 N 279.04 2.69413 -1.08928 0
M  V30 2993 H 278.587 1.98801 -1.63817 0
M  V30 2994 H 278.545 3.12594 -0.336458 0
M  V30 2995 N 282.317 1.53212 0.369288 0
M  V30 2996 C 283.227 1.82342 1.47609 0
M  V30 2997 C 284.243 0.711532 1.58787 0
M  V30 2998 O 285.419 1.0012 1.74751 0
M  V30 2999 C 282.484 2.00393 2.8292 0
M  V30 3000 C 281.545 3.24297 2.81301 0
M  V30 3001 C 280.778 3.41478 4.10157 0
M  V30 3002 O 281.001 2.63033 5.06132 0
M  V30 3003 O 279.935 4.34817 4.16194 0
M  V30 3004 H 283.761 2.76366 1.25918 0
M  V30 3005 H 281.346 1.38547 0.559034 0
M  V30 3006 H 283.228 2.13859 3.63101 0
M  V30 3007 H 281.903 1.09559 3.04596 0
M  V30 3008 H 280.81 3.16257 1.99831 0
M  V30 3009 H 282.143 4.15041 2.64578 0
M  V30 3010 N 283.795 -0.628877 1.44509 0
M  V30 3011 C 285.042 -1.38839 1.47411 0
M  V30 3012 C 285.37 -1.94202 0.10757 0
M  V30 3013 O 284.625 -1.74243 -0.890947 0
M  V30 3014 C 284.924 -2.56995 2.48371 0
M  V30 3015 C 284.59 -2.19908 3.93639 0
M  V30 3016 C 283.252 -2.09506 4.33198 0
M  V30 3017 C 285.604 -1.9064 4.85083 0
M  V30 3018 C 282.932 -1.68028 5.62124 0
M  V30 3019 C 285.284 -1.50655 6.14399 0
M  V30 3020 C 283.948 -1.38796 6.5291 0
M  V30 3021 H 283.218 -0.508048 0.539414 0
M  V30 3022 H 285.865 -0.712913 1.77735 0
M  V30 3023 H 284.17 -3.29786 2.11538 0
M  V30 3024 H 285.867 -3.15223 2.47861 0
M  V30 3025 H 282.457 -2.28922 3.62343 0
M  V30 3026 H 286.641 -1.97585 4.55273 0
M  V30 3027 H 281.897 -1.57452 5.90778 0
M  V30 3028 H 286.071 -1.27048 6.84713 0
M  V30 3029 H 283.698 -1.06429 7.52713 0
M  V30 3030 N 285.273 -1.31445 -0.869486 0
M  V30 3031 C 286.519 -1.21337 -1.62496 0
M  V30 3032 C 286.852 0.227872 -1.92858 0
M  V30 3033 O 286.127 1.16094 -1.56053 0
M  V30 3034 C 286.41 -2.05814 -2.95487 0
M  V30 3035 C 286.263 -3.5824 -2.72 0
M  V30 3036 C 287.582 -1.9079 -3.96594 0
M  V30 3037 H 284.701 -0.442135 -0.589649 0
M  V30 3038 H 287.343 -1.6124 -1.00507 0
M  V30 3039 H 285.493 -1.71913 -3.48394 0
M  V30 3040 H 287.165 -4.0228 -2.25762 0
M  V30 3041 H 285.408 -3.81647 -2.06224 0
M  V30 3042 H 286.079 -4.12657 -3.66631 0
M  V30 3043 H 288.555 -2.20459 -3.52898 0
M  V30 3044 H 287.431 -2.52199 -4.87531 0
M  V30 3045 H 287.692 -0.871341 -4.33428 0
M  V30 3046 N 286.751 1.08385 -1.14413 0
M  V30 3047 C 287.681 2.17321 -0.854044 0
M  V30 3048 C 288.662 1.69024 0.191049 0
M  V30 3049 O 289.847 1.94141 0.0476779 0
M  V30 3050 C 286.977 3.45719 -0.330983 0
M  V30 3051 C 285.931 4.07409 -1.31155 0
M  V30 3052 C 285.257 5.30762 -0.64778 0
M  V30 3053 C 286.557 4.48665 -2.67388 0
M  V30 3054 H 288.251 2.41845 -1.76498 0
M  V30 3055 H 285.797 1.16233 -0.850051 0
M  V30 3056 H 287.75 4.21241 -0.115645 0
M  V30 3057 H 286.474 3.2075 0.615381 0
M  V30 3058 H 285.133 3.33919 -1.51306 0
M  V30 3059 H 284.781 5.02078 0.304398 0
M  V30 3060 H 284.481 5.72992 -1.30207 0
M  V30 3061 H 286.005 6.08998 -0.441972 0
M  V30 3062 H 287.419 5.15364 -2.51143 0
M  V30 3063 H 285.816 5.01814 -3.29093 0
M  V30 3064 H 286.886 3.60543 -3.24248 0
M  V30 3065 N 288.23 0.939286 1.26551 0
M  V30 3066 C 289.479 0.581601 1.93133 0
M  V30 3067 C 289.792 -0.883224 1.74524 0
M  V30 3068 O 290.998 -1.3502 2.35546 0
M  V30 3069 C 289.454 0.989425 3.46032 0
M  V30 3070 C 289.062 2.47573 3.73379 0
M  V30 3071 C 290.806 0.703544 4.18629 0
M  V30 3072 C 288.713 2.82235 5.19709 0
M  V30 3073 H 287.643 0.213803 0.723052 0
M  V30 3074 H 290.294 1.14167 1.4366 0
M  V30 3075 H 288.676 0.357902 3.94379 0
M  V30 3076 H 289.85 3.15614 3.35744 0
M  V30 3077 H 288.165 2.73471 3.1401 0
M  V30 3078 H 290.762 0.938869 5.26393 0
M  V30 3079 H 291.105 -0.359639 4.14744 0
M  V30 3080 H 291.638 1.2947 3.76141 0
M  V30 3081 H 288.377 3.87509 5.28694 0
M  V30 3082 H 287.897 2.18854 5.58447 0
M  V30 3083 H 289.576 2.70599 5.87695 0
M  V30 3084 N 289.708 -1.40897 0.706093 0
M  V30 3085 C 290.655 -2.30751 0.0474474 0
M  V30 3086 C 291.625 -1.47678 -0.76029 0
M  V30 3087 O 292.81 -1.76441 -0.726177 0
M  V30 3088 C 289.95 -3.33815 -0.875309 0
M  V30 3089 C 289.063 -4.31961 -0.0580623 0
M  V30 3090 C 288.198 -5.22093 -0.979425 0
M  V30 3091 C 287.237 -6.11902 -0.155706 0
M  V30 3092 N 286.374 -6.94482 -1.03144 0
M  V30 3093 H 291.214 -2.86513 0.819413 0
M  V30 3094 H 288.751 -1.41102 0.415783 0
M  V30 3095 H 290.709 -3.92129 -1.42446 0
M  V30 3096 H 289.339 -2.79579 -1.61356 0
M  V30 3097 H 288.391 -3.75507 0.608147 0
M  V30 3098 H 289.703 -4.95415 0.580082 0
M  V30 3099 H 288.857 -5.85292 -1.59744 0
M  V30 3100 H 287.596 -4.5889 -1.65141 0
M  V30 3101 H 286.601 -5.47742 0.475309 0
M  V30 3102 H 287.826 -6.77162 0.512635 0
M  V30 3103 H 285.772 -6.33877 -1.68924 0
M  V30 3104 H 285.689 -7.54665 -0.449108 0
M  V30 3105 H 286.957 -7.6214 -1.63593 0
M  V30 3106 N 291.186 -0.45159 -1.50991 0
M  V30 3107 C 292.133 0.352625 -2.2809 0
M  V30 3108 C 293.103 1.0044 -1.32291 0
M  V30 3109 O 294.288 1.02058 -1.6121 0
M  V30 3110 C 291.428 1.43983 -3.13629 0
M  V30 3111 C 290.541 0.804772 -4.24438 0
M  V30 3112 C 289.676 1.86822 -4.97263 0
M  V30 3113 C 288.715 1.21236 -5.99973 0
M  V30 3114 N 287.852 2.2178 -6.66152 0
M  V30 3115 H 292.692 -0.311186 -2.96371 0
M  V30 3116 H 290.229 -0.165308 -1.46168 0
M  V30 3117 H 292.187 2.08161 -3.61559 0
M  V30 3118 H 290.817 2.07307 -2.47434 0
M  V30 3119 H 289.869 0.0509129 -3.80366 0
M  V30 3120 H 291.181 0.286076 -4.97979 0
M  V30 3121 H 290.335 2.58628 -5.48813 0
M  V30 3122 H 289.074 2.42068 -4.23385 0
M  V30 3123 H 288.079 0.479828 -5.47702 0
M  V30 3124 H 289.304 0.667051 -6.75816 0
M  V30 3125 H 287.25 2.76079 -5.95077 0
M  V30 3126 H 287.167 1.74841 -7.35504 0
M  V30 3127 H 288.435 2.93026 -7.22327 0
M  V30 3128 N 292.664 1.56529 -0.183458 0
M  V30 3129 C 293.941 1.88959 0.50536 0
M  V30 3130 C 294.321 1.09523 1.80466 0
M  V30 3131 O 293.669 0.19278 2.27685 0
M  V30 3132 C 293.879 3.41162 0.73547 0
M  V30 3133 C 295.227 4.11155 1.06005 0
M  V30 3134 O 296.251 3.46548 0.823594 0
M  V30 3135 O 295.11 5.25318 1.50675 0
M  V30 3136 H 292.204 0.78441 0.261973 0
M  V30 3137 H 294.75 1.68231 -0.222802 0
M  V30 3138 H 293.522 3.90874 -0.182561 0
M  V30 3139 H 293.145 3.67543 1.51651 0
M  V30 3140 N 294.142 -0.090211 1.57342 0
M  V30 3141 C 295.388 -0.793982 1.86611 0
M  V30 3142 C 295.721 -1.78142 0.773252 0
M  V30 3143 O 294.996 -1.93271 -0.218304 0
M  V30 3144 C 295.279 -1.51839 3.26523 0
M  V30 3145 C 295.132 -0.548609 4.46442 0
M  V30 3146 C 296.451 -2.46779 3.64401 0
M  V30 3147 H 293.57 -0.287186 0.678744 0
M  V30 3148 H 296.212 -0.0575076 1.89913 0
M  V30 3149 H 294.362 -2.14617 3.23839 0
M  V30 3150 H 296.034 0.0725513 4.61243 0
M  V30 3151 H 294.277 0.137614 4.33582 0
M  V30 3152 H 294.948 -1.09271 5.41076 0
M  V30 3153 H 297.424 -1.94089 3.68061 0
M  V30 3154 H 296.3 -2.94479 4.63221 0
M  V30 3155 H 296.561 -3.30758 2.93346 0
M  V30 3156 N 295.62 -1.53406 -0.361157 0
M  V30 3157 C 296.897 -1.60411 -1.11927 0
M  V30 3158 C 297.277 -0.414385 -2.06993 0
M  V30 3159 O 296.625 0.594976 -2.20618 0
M  V30 3160 C 296.835 -2.95652 -1.85448 0
M  V30 3161 C 298.183 -3.50386 -2.39823 0
M  V30 3162 O 299.207 -2.97711 -1.95568 0
M  V30 3163 O 298.066 -4.42482 -3.20737 0
M  V30 3164 H 295.16 -0.64811 -0.513695 0
M  V30 3165 H 297.706 -1.65749 -0.364065 0
M  V30 3166 H 296.478 -3.73682 -1.16091 0
M  V30 3167 H 296.101 -2.93825 -2.67866 0
M  V30 3168 N 297.098 0.621204 -1.44841 0
M  V30 3169 C 298.008 1.7612 -1.5498 0
M  V30 3170 C 299.024 1.68477 -0.434927 0
M  V30 3171 O 300.2 1.89076 -0.693693 0
M  V30 3172 C 297.265 3.1254 -1.50065 0
M  V30 3173 C 296.326 3.31741 -2.72482 0
M  V30 3174 C 295.559 4.61653 -2.67792 0
M  V30 3175 O 295.782 5.431 -1.74352 0
M  V30 3176 O 294.716 4.83271 -3.58794 0
M  V30 3177 H 298.542 1.70518 -2.51311 0
M  V30 3178 H 296.127 0.783643 -1.27198 0
M  V30 3179 H 298.009 3.93844 -1.49882 0
M  V30 3180 H 296.684 3.18663 -0.568806 0
M  V30 3181 H 295.591 2.50077 -2.7823 0
M  V30 3182 H 296.924 3.30486 -3.64746 0
M  V30 3183 N 298.576 1.31904 0.862503 0
M  V30 3184 C 299.539 1.20131 1.95195 0
M  V30 3185 C 300.539 0.126409 1.60302 0
M  V30 3186 O 301.729 0.376234 1.70089 0
M  V30 3187 C 298.861 0.845691 3.30244 0
M  V30 3188 H 300.054 2.16943 2.07064 0
M  V30 3189 H 297.607 1.15622 1.05172 0
M  V30 3190 H 298.342 -0.120957 3.24074 0
M  V30 3191 H 298.127 1.62276 3.56944 0
M  V30 3192 H 299.617 0.787418 4.10109 0
M  V30 3193 N 300.054 -1.07777 1.14986 0
M  V30 3194 C 301.284 -1.83752 0.944402 0
M  V30 3195 C 301.692 -1.8218 -0.51058 0
M  V30 3196 O 301.035 -1.22852 -1.36576 0
M  V30 3197 C 301.097 -3.32128 1.37592 0
M  V30 3198 C 300.761 -3.57425 2.84775 0
M  V30 3199 C 301.758 -3.5173 3.8286 0
M  V30 3200 C 299.443 -3.8523 3.2234 0
M  V30 3201 C 301.437 -3.73482 5.16517 0
M  V30 3202 C 299.124 -4.06634 4.56171 0
M  V30 3203 C 300.122 -4.00754 5.53069 0
M  V30 3204 O 299.81 -4.2159 6.84483 0
M  V30 3205 H 299.542 -0.58673 0.335744 0
M  V30 3206 H 302.096 -1.36982 1.53052 0
M  V30 3207 H 300.326 -3.79686 0.733165 0
M  V30 3208 H 302.015 -3.89555 1.14024 0
M  V30 3209 H 302.781 -3.30256 3.55184 0
M  V30 3210 H 298.66 -3.88923 2.47508 0
M  V30 3211 H 302.204 -3.68808 5.92137 0
M  V30 3212 H 298.101 -4.27593 4.83564 0
M  V30 3213 H 298.869 -4.38961 6.90837 0
M  V30 3214 N 301.532 -0.945985 -1.26051 0
M  V30 3215 C 302.465 -0.403619 -2.24602 0
M  V30 3216 C 303.443 0.510241 -1.54387 0
M  V30 3217 O 304.627 0.446593 -1.83133 0
M  V30 3218 C 301.754 0.419564 -3.36091 0
M  V30 3219 C 300.8 -0.433454 -4.24292 0
M  V30 3220 S 301.633 -1.86037 -5.02146 0
M  V30 3221 C 302.789 -1.04538 -6.17108 0
M  V30 3222 H 303.022 -1.23883 -2.7026 0
M  V30 3223 H 300.555 -0.749438 -1.34992 0
M  V30 3224 H 302.513 0.888595 -4.00767 0
M  V30 3225 H 301.174 1.22951 -2.89036 0
M  V30 3226 H 300.367 0.197486 -5.03613 0
M  V30 3227 H 299.969 -0.837357 -3.64506 0
M  V30 3228 H 302.261 -0.289923 -6.76879 0
M  V30 3229 H 303.204 -1.81222 -6.84518 0
M  V30 3230 H 303.612 -0.579319 -5.61519 0
M  V30 3231 N 303.011 1.40521 -0.713556 0
M  V30 3232 C 303.959 2.32549 -0.0485227 0
M  V30 3233 C 304.953 1.51931 0.74922 0
M  V30 3234 O 306.159 1.67745 0.652816 0
M  V30 3235 H 302.534 0.751994 0.00311138 0
M  V30 3236 H 304.505 2.86291 -0.841443 0
M  V30 3237 C 303.254 3.36879 0.860687 0
M  V30 3238 H 302.577 3.98978 0.256246 0
M  V30 3239 H 304.017 4.03772 1.294 0
M  V30 3240 C 302.476 2.72197 1.9852 0
M  V30 3241 O 303.006 2.5837 3.07584 0
M  V30 3242 N 301.212 2.30612 1.76823 0
M  V30 3243 H 300.759 2.42059 0.881217 0
M  V30 3244 H 300.717 1.87672 2.52243 0
M  V30 3245 N 304.489 0.459591 1.5075 0
M  V30 3246 C 305.436 -0.340524 2.28274 0
M  V30 3247 C 306.406 -0.997371 1.32822 0
M  V30 3248 O 307.591 -1.01202 1.61749 0
M  V30 3249 C 304.731 -1.42317 3.14388 0
M  V30 3250 C 303.844 -0.782251 4.24859 0
M  V30 3251 C 302.979 -1.84182 4.98247 0
M  V30 3252 C 302.018 -1.18053 6.00608 0
M  V30 3253 N 301.155 -2.18244 6.67319 0
M  V30 3254 H 305.995 0.326899 2.96202 0
M  V30 3255 H 303.532 0.173057 1.46078 0
M  V30 3256 H 305.49 -2.06241 3.62658 0
M  V30 3257 H 304.12 -2.05992 2.4853 0
M  V30 3258 H 303.172 -0.0307404 3.80388 0
M  V30 3259 H 304.484 -0.259663 4.98124 0
M  V30 3260 H 303.638 -2.55714 5.50177 0
M  V30 3261 H 302.377 -2.39819 4.24662 0
M  V30 3262 H 301.382 -0.450776 5.47949 0
M  V30 3263 H 302.607 -0.631202 6.7616 0
M  V30 3264 H 300.553 -2.72919 5.96533 0
M  V30 3265 H 300.47 -1.70938 7.36421 0
M  V30 3266 H 301.738 -2.89191 7.23871 0
M  V30 3267 N 305.967 -1.56429 0.191757 0
M  V30 3268 C 307.213 -1.97777 -0.448554 0
M  V30 3269 C 307.546 -1.07847 -1.61501 0
M  V30 3270 O 306.821 -0.129774 -1.94067 0
M  V30 3271 C 307.104 -3.48362 -0.911906 0
M  V30 3272 C 306.957 -4.4907 0.256136 0
M  V30 3273 C 308.276 -4.02561 -1.77857 0
M  V30 3274 H 305.395 -0.719071 -0.161572 0
M  V30 3275 H 308.037 -1.87896 0.282007 0
M  V30 3276 H 306.187 -3.56914 -1.53442 0
M  V30 3277 H 307.859 -4.5256 0.893733 0
M  V30 3278 H 306.102 -4.24181 0.908436 0
M  V30 3279 H 306.773 -5.51889 -0.11053 0
M  V30 3280 H 309.249 -3.96767 -1.25359 0
M  V30 3281 H 308.125 -5.08301 -2.07174 0
M  V30 3282 H 308.386 -3.47616 -2.73158 0
M  V30 3283 N 307.445 0.0818655 -1.57387 0
M  V30 3284 C 308.355 1.11642 -2.06333 0
M  V30 3285 C 309.371 1.43033 -0.99083 0
M  V30 3286 O 310.547 1.53411 -1.30488 0
M  V30 3287 C 307.612 2.41342 -2.48907 0
M  V30 3288 C 306.673 2.17014 -3.7041 0
M  V30 3289 C 305.906 3.4053 -4.10944 0
M  V30 3290 O 306.129 4.4927 -3.51444 0
M  V30 3291 O 305.063 3.29336 -5.03807 0
M  V30 3292 H 308.889 0.730657 -2.9478 0
M  V30 3293 H 306.474 0.295301 -1.46452 0
M  V30 3294 H 308.356 3.17691 -2.76858 0
M  V30 3295 H 307.031 2.79319 -1.63593 0
M  V30 3296 H 305.938 1.38403 -3.47556 0
M  V30 3297 H 307.271 1.83923 -4.56545 0
M  V30 3298 N 308.923 1.53595 0.353017 0
M  V30 3299 C 309.853 1.83902 1.43883 0
M  V30 3300 C 310.834 0.693421 1.55324 0
M  V30 3301 O 312.019 0.944452 1.69687 0
M  V30 3302 C 309.149 2.04016 2.8106 0
M  V30 3303 C 308.103 3.19814 2.84434 0
M  V30 3304 C 307.429 3.25244 4.24406 0
M  V30 3305 C 308.729 4.58133 2.50822 0
M  V30 3306 H 310.423 2.74835 1.1877 0
M  V30 3307 H 307.969 1.32242 0.569917 0
M  V30 3308 H 309.922 2.238 3.57059 0
M  V30 3309 H 308.646 1.09804 3.07588 0
M  V30 3310 H 307.305 2.9987 2.10887 0
M  V30 3311 H 306.953 2.28646 4.48029 0
M  V30 3312 H 306.653 4.03054 4.27576 0
M  V30 3313 H 308.177 3.47228 5.0226 0
M  V30 3314 H 309.591 4.77995 3.16534 0
M  V30 3315 H 307.988 5.38276 2.6529 0
M  V30 3316 H 309.058 4.62387 1.46034 0
M  V30 3317 N 310.401 -0.613514 1.45168 0
M  V30 3318 C 311.311 -1.75296 1.55912 0
M  V30 3319 C 312.327 -1.68244 0.443856 0
M  V30 3320 O 313.503 -1.88706 0.70371 0
M  V30 3321 C 310.568 -3.1174 1.5172 0
M  V30 3322 C 309.629 -3.30291 2.74238 0
M  V30 3323 C 308.862 -4.60226 2.70236 0
M  V30 3324 O 309.085 -5.42168 1.77229 0
M  V30 3325 O 308.019 -4.81361 3.61352 0
M  V30 3326 H 311.845 -1.69183 2.52212 0
M  V30 3327 H 309.43 -0.776886 1.27612 0
M  V30 3328 H 311.312 -3.93044 1.51968 0
M  V30 3329 H 309.987 -3.18357 0.585697 0
M  V30 3330 H 308.894 -2.48598 2.79553 0
M  V30 3331 H 310.227 -3.28547 3.66494 0
M  V30 3332 N 311.879 -1.3236 -0.855495 0
M  V30 3333 C 313.104 -1.2601 -1.64731 0
M  V30 3334 C 313.529 0.169068 -1.87339 0
M  V30 3335 O 312.887 1.12016 -1.42556 0
M  V30 3336 C 312.935 -2.02417 -2.98429 0
M  V30 3337 O 312.039 -1.3714 -3.8893 0
M  V30 3338 H 311.38 -0.434325 -0.502253 0
M  V30 3339 H 313.91 -1.74661 -1.06558 0
M  V30 3340 H 313.92 -2.12559 -3.48257 0
M  V30 3341 H 312.595 -3.06343 -2.81295 0
M  V30 3342 H 311.172 -1.3554 -3.47395 0
M  V30 3343 N 313.357 1.07166 -1.15556 0
M  V30 3344 C 314.773 1.31899 -0.898603 0
M  V30 3345 C 314.973 1.96333 0.453383 0
M  V30 3346 O 314.029 2.22438 1.19489 0
M  V30 3347 C 315.342 2.20826 -2.04099 0
M  V30 3348 C 316.89 2.34269 -2.07574 0
M  V30 3349 C 317.365 3.26546 -3.21141 0
M  V30 3350 N 318.856 3.34127 -3.20801 0
M  V30 3351 C 319.591 4.05595 -4.05315 0
M  V30 3352 N 319.087 4.79661 -4.99897 0
M  V30 3353 N 320.88 4.01555 -3.93332 0
M  V30 3354 H 313.031 0.637302 -2.02613 0
M  V30 3355 H 315.294 0.343468 -0.883591 0
M  V30 3356 H 315 1.80744 -3.01703 0
M  V30 3357 H 314.874 3.21364 -1.97496 0
M  V30 3358 H 317.261 2.73603 -1.10568 0
M  V30 3359 H 317.342 1.33429 -2.18244 0
M  V30 3360 H 316.986 2.87931 -4.184 0
M  V30 3361 H 316.916 4.27345 -3.07708 0
M  V30 3362 H 319.407 2.81336 -2.52306 0
M  V30 3363 H 319.72 5.31694 -5.60822 0
M  V30 3364 H 318.065 4.78671 -5.03884 0
M  V30 3365 H 321.256 3.42806 -3.18751 0
M  V30 3366 H 321.429 4.56987 -4.5942 0
M  V30 3367 N 314.835 0.952656 1.25548 0
M  V30 3368 C 315.765 0.489287 2.28316 0
M  V30 3369 C 316.746 -0.463359 1.63667 0
M  V30 3370 O 317.931 -0.36274 1.90782 0
M  V30 3371 C 315.061 -0.235603 3.465 0
M  V30 3372 C 314.015 0.631593 4.23314 0
M  V30 3373 C 313.341 -0.223923 5.34231 0
M  V30 3374 C 314.641 1.90871 4.86174 0
M  V30 3375 H 316.335 1.34822 2.67326 0
M  V30 3376 H 313.881 0.649728 1.28509 0
M  V30 3377 H 315.834 -0.570882 4.17515 0
M  V30 3378 H 314.558 -1.12877 3.06474 0
M  V30 3379 H 313.217 0.949929 3.54079 0
M  V30 3380 H 312.865 -1.11678 4.90446 0
M  V30 3381 H 312.565 0.35299 5.86539 0
M  V30 3382 H 314.089 -0.554214 6.0808 0
M  V30 3383 H 315.503 1.63997 5.49343 0
M  V30 3384 H 313.9 2.43112 5.4865 0
M  V30 3385 H 314.97 2.61304 4.08471 0
M  V30 3386 N 316.313 -1.40141 0.720998 0
M  V30 3387 C 317.223 -2.34486 0.0731031 0
M  V30 3388 C 318.239 -1.57587 -0.737723 0
M  V30 3389 O 319.415 -1.89949 -0.669429 0
M  V30 3390 C 316.48 -3.36528 -0.833656 0
M  V30 3391 C 315.541 -4.29298 -0.0121673 0
M  V30 3392 C 314.774 -5.26466 -0.875742 0
M  V30 3393 O 314.997 -5.29745 -2.11485 0
M  V30 3394 O 313.931 -6.01092 -0.31185 0
M  V30 3395 H 317.757 -2.9152 0.851444 0
M  V30 3396 H 315.342 -1.41427 0.481527 0
M  V30 3397 H 317.224 -3.99093 -1.35289 0
M  V30 3398 H 315.899 -2.81899 -1.59105 0
M  V30 3399 H 314.806 -3.70001 0.552262 0
M  V30 3400 H 316.139 -4.87094 0.707129 0
M  V30 3401 N 317.792 -0.46758 -1.50504 0
M  V30 3402 C 319.04 0.0884469 -2.01906 0
M  V30 3403 C 319.361 1.40532 -1.35188 0
M  V30 3404 O 318.631 1.89515 -0.496079 0
M  V30 3405 H 317.211 0.0356765 -0.746148 0
M  V30 3406 H 319.873 -0.6172 -1.84869 0
M  V30 3407 H 318.969 0.2425 -3.11156 0
M  V30 3408 N 319.27 1.56325 -0.20005 0
M  V30 3409 C 320.2 2.22318 0.713916 0
M  V30 3410 C 321.181 1.18788 1.21752 0
M  V30 3411 O 322.366 1.47309 1.26545 0
M  V30 3412 C 319.496 2.88639 1.93144 0
M  V30 3413 C 318.45 3.98457 1.56255 0
M  V30 3414 C 317.776 4.51967 2.85709 0
M  V30 3415 C 319.076 5.16612 0.768747 0
M  V30 3416 H 320.77 2.98952 0.163755 0
M  V30 3417 H 318.316 1.43792 0.0773219 0
M  V30 3418 H 320.269 3.33491 2.57608 0
M  V30 3419 H 318.993 2.09419 2.50621 0
M  V30 3420 H 317.652 3.54305 0.941471 0
M  V30 3421 H 317.3 3.69503 3.41287 0
M  V30 3422 H 317 5.26071 2.6177 0
M  V30 3423 H 318.524 4.99523 3.51154 0
M  V30 3424 H 319.938 5.57977 1.3166 0
M  V30 3425 H 318.335 5.96812 0.627286 0
M  V30 3426 H 319.405 4.84358 -0.229168 0
M  V30 3427 N 320.748 -0.0735177 1.57428 0
M  V30 3428 C 321.976 -0.785969 1.9139 0
M  V30 3429 C 322.391 -1.71207 0.795847 0
M  V30 3430 O 321.748 -1.81033 -0.230915 0
M  V30 3431 C 321.799 -1.58107 3.25091 0
M  V30 3432 O 321.52 -0.6922 4.32597 0
M  V30 3433 C 323.021 -2.39467 3.73055 0
M  V30 3434 H 320.241 -0.223558 0.632663 0
M  V30 3435 H 322.785 -0.044302 2.04452 0
M  V30 3436 H 320.94 -2.27503 3.13562 0
M  V30 3437 H 321.354 -1.24504 5.09508 0
M  V30 3438 H 322.828 -2.90716 4.69242 0
M  V30 3439 H 323.305 -3.18913 3.01979 0
M  V30 3440 H 323.911 -1.7523 3.87523 0
M  V30 3441 N 322.226 -1.5378 -0.344866 0
M  V30 3442 C 323.503 -1.61589 -1.10219 0
M  V30 3443 C 323.883 -0.436316 -2.06542 0
M  V30 3444 O 323.231 0.571543 -2.21237 0
M  V30 3445 C 323.441 -2.97602 -1.82301 0
M  V30 3446 C 324.789 -3.5291 -2.36093 0
M  V30 3447 O 325.813 -2.99768 -1.924 0
M  V30 3448 O 324.672 -4.45859 -3.16026 0
M  V30 3449 H 321.766 -0.653522 -0.506792 0
M  V30 3450 H 324.312 -1.66126 -0.346465 0
M  V30 3451 H 323.084 -3.74893 -1.12121 0
M  V30 3452 H 322.707 -2.9665 -2.64735 0
M  V30 3453 N 323.704 0.605807 -1.45491 0
M  V30 3454 C 324.614 1.74466 -1.56839 0
M  V30 3455 C 325.63 1.68006 -0.452772 0
M  V30 3456 O 326.806 1.8833 -0.713708 0
M  V30 3457 C 323.871 3.10931 -1.53371 0
M  V30 3458 C 322.932 3.28832 -2.75986 0
M  V30 3459 C 322.165 4.58787 -2.72673 0
M  V30 3460 O 322.388 5.4122 -1.80102 0
M  V30 3461 O 321.322 4.79438 -3.63899 0
M  V30 3462 H 325.148 1.67843 -2.53106 0
M  V30 3463 H 322.733 0.770108 -1.28022 0
M  V30 3464 H 324.615 3.92233 -1.54051 0
M  V30 3465 H 323.29 3.18042 -0.602572 0
M  V30 3466 H 322.197 2.47112 -2.80867 0
M  V30 3467 H 323.53 3.26599 -3.68231 0
M  V30 3468 N 325.182 1.32811 0.848464 0
M  V30 3469 C 326.431 1.23075 1.59798 0
M  V30 3470 C 326.744 -0.204419 1.94529 0
M  V30 3471 O 327.95 -0.423701 2.68173 0
M  V30 3472 C 326.406 2.15594 2.88179 0
M  V30 3473 C 326.014 3.64228 2.60849 0
M  V30 3474 C 327.758 2.14709 3.66197 0
M  V30 3475 C 325.665 4.48689 3.85269 0
M  V30 3476 H 324.595 0.457091 0.599653 0
M  V30 3477 H 327.246 1.57813 0.936342 0
M  V30 3478 H 325.628 1.73778 3.55833 0
M  V30 3479 H 326.802 4.14424 2.01467 0
M  V30 3480 H 325.117 3.67306 1.96151 0
M  V30 3481 H 327.714 2.75046 4.58534 0
M  V30 3482 H 328.057 1.13966 4.00397 0
M  V30 3483 H 328.59 2.54837 3.05455 0
M  V30 3484 H 325.329 5.5027 3.56207 0
M  V30 3485 H 324.849 4.03241 4.44024 0
M  V30 3486 H 326.528 4.62006 4.52946 0
M  V30 3487 N 326.66 -1.06551 1.16123 0
M  V30 3488 C 327.608 -2.16063 0.861371 0
M  V30 3489 C 328.602 -1.6856 -0.168517 0
M  V30 3490 O 329.808 -1.79986 -0.0227579 0
M  V30 3491 H 326.183 -0.705278 0.260934 0
M  V30 3492 H 328.154 -2.38567 1.79244 0
M  V30 3493 C 326.903 -3.45661 0.376018 0
M  V30 3494 H 326.226 -3.82604 1.15992 0
M  V30 3495 H 327.666 -4.23504 0.204951 0
M  V30 3496 C 326.125 -3.24546 -0.903954 0
M  V30 3497 O 326.655 -3.49865 -1.97377 0
M  V30 3498 N 324.861 -2.77992 -0.846679 0
M  V30 3499 H 324.408 -2.57589 0.0241017 0
M  V30 3500 H 324.366 -2.64244 -1.70359 0
M  V30 3501 N 328.138 -0.959301 -1.25041 0
M  V30 3502 C 329.385 -0.616611 -1.92884 0
M  V30 3503 C 329.713 0.847036 -1.75087 0
M  V30 3504 O 328.968 1.62374 -1.09239 0
M  V30 3505 C 329.267 -0.927136 -3.45165 0
M  V30 3506 C 328.933 -2.37757 -3.83122 0
M  V30 3507 C 327.595 -2.77402 -3.93194 0
M  V30 3508 C 329.947 -3.31929 -4.01836 0
M  V30 3509 C 327.275 -4.10277 -4.19392 0
M  V30 3510 C 329.627 -4.64423 -4.29528 0
M  V30 3511 C 328.291 -5.03857 -4.37818 0
M  V30 3512 H 327.561 -0.225634 -0.705812 0
M  V30 3513 H 330.208 -1.20921 -1.48493 0
M  V30 3514 H 328.513 -0.252195 -3.90987 0
M  V30 3515 H 330.21 -0.6405 -3.95852 0
M  V30 3516 H 326.8 -2.06013 -3.75841 0
M  V30 3517 H 330.984 -3.02488 -3.93465 0
M  V30 3518 H 326.24 -4.40467 -4.24027 0
M  V30 3519 H 330.414 -5.37369 -4.42953 0
M  V30 3520 H 328.041 -6.06843 -4.57871 0
M  V30 3521 N 329.616 1.39756 -0.72842 0
M  V30 3522 C 330.546 2.33289 -0.0991354 0
M  V30 3523 C 331.527 1.53568 0.731489 0
M  V30 3524 O 332.712 1.81987 0.677807 0
M  V30 3525 C 329.842 3.3763 0.813834 0
M  V30 3526 C 328.796 4.2791 0.0878663 0
M  V30 3527 C 328.122 5.22894 1.11741 0
M  V30 3528 C 329.422 5.11314 -1.06563 0
M  V30 3529 H 331.116 2.86163 -0.880408 0
M  V30 3530 H 328.662 1.37591 -0.424819 0
M  V30 3531 H 330.615 4.0201 1.26355 0
M  V30 3532 H 329.339 2.83181 1.62715 0
M  V30 3533 H 327.998 3.65 -0.342159 0
M  V30 3534 H 327.646 4.64744 1.92412 0
M  V30 3535 H 327.346 5.84143 0.636477 0
M  V30 3536 H 328.87 5.90151 1.56697 0
M  V30 3537 H 330.284 5.69076 -0.694671 0
M  V30 3538 H 328.681 5.81671 -1.47577 0
M  V30 3539 H 329.751 4.46534 -1.89038 0
M  V30 3540 N 331.094 0.475555 1.50254 0
M  V30 3541 C 332.51 0.12997 1.5907 0
M  V30 3542 C 332.71 -1.36385 1.48328 0
M  V30 3543 O 331.766 -2.13754 1.34407 0
M  V30 3544 C 333.079 0.684139 2.92814 0
M  V30 3545 C 334.627 0.647965 3.0622 0
M  V30 3546 C 335.102 1.17975 4.42545 0
M  V30 3547 N 336.593 1.13936 4.48969 0
M  V30 3548 C 337.328 1.52129 5.52851 0
M  V30 3549 N 336.824 1.97793 6.63965 0
M  V30 3550 N 338.617 1.43704 5.4342 0
M  V30 3551 H 330.768 1.44706 1.55479 0
M  V30 3552 H 333.031 0.598691 0.735033 0
M  V30 3553 H 332.737 1.73079 3.06164 0
M  V30 3554 H 332.611 0.130204 3.76975 0
M  V30 3555 H 334.998 -0.38979 2.92514 0
M  V30 3556 H 335.079 1.23876 2.23805 0
M  V30 3557 H 334.723 2.21616 4.57 0
M  V30 3558 H 334.653 0.565138 5.23559 0
M  V30 3559 H 337.144 0.804488 3.69238 0
M  V30 3560 H 337.457 2.25072 7.39299 0
M  V30 3561 H 335.802 2.01749 6.65073 0
M  V30 3562 H 338.993 1.07867 4.55502 0
M  V30 3563 H 339.166 1.73794 6.24259 0
M  V30 3564 N 332.573 -1.56217 0.208337 0
M  V30 3565 C 333.505 -2.1695 -0.739276 0
M  V30 3566 C 334.518 -1.13492 -1.1672 0
M  V30 3567 O 335.707 -1.40529 -1.10063 0
M  V30 3568 C 332.807 -2.72755 -2.01142 0
M  V30 3569 C 331.98 -4.0125 -1.74118 0
M  V30 3570 C 331.039 -4.41749 -2.85909 0
M  V30 3571 O 330.065 -5.08912 -2.54946 0
M  V30 3572 N 331.267 -4.06342 -4.14568 0
M  V30 3573 H 334.032 -2.98893 -0.219837 0
M  V30 3574 H 331.593 -1.61878 0.0268445 0
M  V30 3575 H 333.585 -2.96826 -2.75094 0
M  V30 3576 H 332.155 -1.95191 -2.4417 0
M  V30 3577 H 331.375 -3.85173 -0.838775 0
M  V30 3578 H 332.663 -4.851 -1.53477 0
M  V30 3579 H 332.061 -3.52345 -4.42571 0
M  V30 3580 H 330.618 -4.35335 -4.85105 0
M  V30 3581 N 334.051 0.0651679 -1.57465 0
M  V30 3582 C 334.981 1.07693 -2.07182 0
M  V30 3583 C 335.962 1.39962 -0.966673 0
M  V30 3584 O 337.147 1.49475 -1.2398 0
M  V30 3585 C 334.277 2.3885 -2.52127 0
M  V30 3586 C 333.231 2.20917 -3.66579 0
M  V30 3587 C 332.557 3.57515 -3.97601 0
M  V30 3588 C 333.857 1.62493 -4.9638 0
M  V30 3589 H 335.551 0.663199 -2.91962 0
M  V30 3590 H 333.097 0.317569 -1.40455 0
M  V30 3591 H 335.05 3.09928 -2.85522 0
M  V30 3592 H 333.774 2.82215 -1.64384 0
M  V30 3593 H 332.433 1.52279 -3.33477 0
M  V30 3594 H 332.081 3.98463 -3.06979 0
M  V30 3595 H 331.781 3.46353 -4.74672 0
M  V30 3596 H 333.305 4.30013 -4.33499 0
M  V30 3597 H 334.719 2.23445 -5.27963 0
M  V30 3598 H 333.116 1.62009 -5.77818 0
M  V30 3599 H 334.186 0.587041 -4.81333 0
M  V30 3600 N 335.529 1.53961 0.336706 0
M  V30 3601 C 336.759 1.75229 1.09446 0
M  V30 3602 C 337.167 0.494602 1.82621 0
M  V30 3603 O 336.51 -0.543764 1.75468 0
M  V30 3604 C 336.572 2.88288 2.1478 0
M  V30 3605 C 336.236 4.27656 1.6112 0
M  V30 3606 C 337.233 5.08981 1.0599 0
M  V30 3607 C 334.918 4.74161 1.6576 0
M  V30 3608 C 336.912 6.34916 0.562129 0
M  V30 3609 C 334.599 6.00067 1.15595 0
M  V30 3610 C 335.597 6.80278 0.609147 0
M  V30 3611 O 335.285 8.03818 0.114999 0
M  V30 3612 H 335.017 0.588881 0.331956 0
M  V30 3613 H 337.571 2.01614 0.392566 0
M  V30 3614 H 335.801 2.57443 2.88548 0
M  V30 3615 H 337.49 2.97461 2.76174 0
M  V30 3616 H 338.256 4.74213 1.01722 0
M  V30 3617 H 334.135 4.11781 2.07261 0
M  V30 3618 H 337.679 6.9747 0.134668 0
M  V30 3619 H 333.576 6.3433 1.19566 0
M  V30 3620 H 334.344 8.18172 0.231651 0
M  V30 3621 N 337.007 -0.598083 1.45811 0
M  V30 3622 C 337.917 -1.73632 1.57763 0
M  V30 3623 C 338.933 -1.67763 0.461676 0
M  V30 3624 O 340.109 -1.87949 0.723685 0
M  V30 3625 C 337.174 -3.10114 1.55018 0
M  V30 3626 C 336.235 -3.27364 2.77726 0
M  V30 3627 C 335.468 -4.57334 2.75102 0
M  V30 3628 O 335.691 -5.40258 1.8297 0
M  V30 3629 O 334.625 -4.77502 3.66437 0
M  V30 3630 H 338.451 -1.66498 2.53992 0
M  V30 3631 H 336.036 -0.763308 1.28429 0
M  V30 3632 H 337.918 -3.9141 1.56129 0
M  V30 3633 H 336.593 -3.17718 0.619431 0
M  V30 3634 H 335.5 -2.45619 2.82174 0
M  V30 3635 H 336.833 -3.24641 3.69958 0
M  V30 3636 N 338.485 -1.33259 -0.841409 0
M  V30 3637 C 339.395 -1.25332 -1.98316 0
M  V30 3638 C 340.411 -0.164364 -1.73222 0
M  V30 3639 O 341.587 -0.387486 -1.97637 0
M  V30 3640 C 338.652 -0.990078 -3.32262 0
M  V30 3641 C 337.713 -2.16879 -3.70489 0
M  V30 3642 C 336.946 -1.91801 -4.98044 0
M  V30 3643 O 337.169 -0.867075 -5.63771 0
M  V30 3644 O 336.103 -2.78267 -5.33714 0
M  V30 3645 H 339.929 -2.21344 -2.07944 0
M  V30 3646 H 337.514 -1.1328 -0.974058 0
M  V30 3647 H 339.396 -0.860321 -4.12524 0
M  V30 3648 H 338.071 -0.0602155 -3.23644 0
M  V30 3649 H 336.978 -2.35407 -2.90748 0
M  V30 3650 H 338.311 -3.0819 -3.8377 0
M  V30 3651 N 339.963 1.05934 -1.16686 0
M  V30 3652 C 340.873 2.17014 -0.891183 0
M  V30 3653 C 341.889 1.73453 0.137907 0
M  V30 3654 O 343.065 2.01361 -0.039592 0
M  V30 3655 C 340.13 3.44384 -0.400099 0
M  V30 3656 C 339.191 4.02433 -1.49486 0
M  V30 3657 C 338.424 5.23723 -1.02711 0
M  V30 3658 O 338.647 5.7027 0.121716 0
M  V30 3659 O 337.581 5.7382 -1.81699 0
M  V30 3660 H 341.407 2.43113 -1.82015 0
M  V30 3661 H 338.992 1.15541 -0.947132 0
M  V30 3662 H 340.874 4.21189 -0.133392 0
M  V30 3663 H 339.549 3.19802 0.500817 0
M  V30 3664 H 338.456 3.27102 -1.81535 0
M  V30 3665 H 339.789 4.31317 -2.37121 0
M  V30 3666 N 341.441 0.965919 1.2453 0
M  V30 3667 C 342.69 0.622437 1.91856 0
M  V30 3668 C 343.003 -0.846006 1.76358 0
M  V30 3669 O 344.209 -1.29993 2.38357 0
M  V30 3670 C 342.665 1.0626 3.43856 0
M  V30 3671 C 342.273 2.55437 3.68043 0
M  V30 3672 C 344.017 0.792183 4.17043 0
M  V30 3673 C 341.924 2.93196 5.13605 0
M  V30 3674 H 340.854 0.229092 0.718354 0
M  V30 3675 H 343.505 1.17189 1.41206 0
M  V30 3676 H 341.887 0.441476 3.93531 0
M  V30 3677 H 343.061 3.22665 3.28974 0
M  V30 3678 H 341.376 2.8007 3.08139 0
M  V30 3679 H 343.973 1.05031 5.24283 0
M  V30 3680 H 344.316 -0.271584 4.15413 0
M  V30 3681 H 344.849 1.37419 3.73311 0
M  V30 3682 H 341.588 3.98636 5.20355 0
M  V30 3683 H 341.108 2.30651 5.53679 0
M  V30 3684 H 342.787 2.83004 5.81823 0
M  V30 3685 N 342.919 -1.39368 0.735821 0
M  V30 3686 C 344.335 -1.54204 0.411492 0
M  V30 3687 C 344.535 -1.70268 -1.07755 0
M  V30 3688 O 343.591 -1.70364 -1.86366 0
M  V30 3689 C 344.904 -2.75925 1.19523 0
M  V30 3690 C 346.452 -2.89761 1.18354 0
M  V30 3691 C 346.927 -4.14421 1.94986 0
M  V30 3692 N 348.418 -4.21462 1.92156 0
M  V30 3693 C 349.153 -5.16871 2.48258 0
M  V30 3694 N 348.649 -6.18063 3.13001 0
M  V30 3695 N 350.442 -5.09093 2.38287 0
M  V30 3696 H 342.593 -1.27189 1.70108 0
M  V30 3697 H 344.856 -0.616517 0.720147 0
M  V30 3698 H 344.562 -2.70401 2.24892 0
M  V30 3699 H 344.436 -3.68614 0.800222 0
M  V30 3700 H 346.823 -2.94777 0.137975 0
M  V30 3701 H 346.904 -1.98133 1.61793 0
M  V30 3702 H 346.548 -4.10166 2.99543 0
M  V30 3703 H 346.478 -5.05095 1.48953 0
M  V30 3704 H 348.969 -3.48979 1.44991 0
M  V30 3705 H 349.282 -6.87326 3.53275 0
M  V30 3706 H 347.627 -6.18448 3.17091 0
M  V30 3707 H 350.818 -4.28973 1.8735 0
M  V30 3708 H 350.991 -5.83272 2.82308 0
M  V30 3709 N 344.397 -0.483516 -1.5 0
M  V30 3710 C 345.307 0.309172 -2.32554 0
M  V30 3711 C 346.323 0.984159 -1.43493 0
M  V30 3712 O 347.499 0.969399 -1.76535 0
M  V30 3713 C 344.564 1.36979 -3.18493 0
M  V30 3714 C 343.625 0.710095 -4.23387 0
M  V30 3715 C 342.858 1.72018 -5.05218 0
M  V30 3716 O 343.081 2.94813 -4.88305 0
M  V30 3717 O 342.015 1.28515 -5.8802 0
M  V30 3718 H 345.841 -0.366064 -3.01486 0
M  V30 3719 H 343.426 -0.24514 -1.47375 0
M  V30 3720 H 345.308 1.98385 -3.71781 0
M  V30 3721 H 343.983 2.02828 -2.52275 0
M  V30 3722 H 342.89 0.0567539 -3.74057 0
M  V30 3723 H 344.223 0.0943557 -4.9211 0
M  V30 3724 N 345.875 1.56104 -0.216619 0
M  V30 3725 C 346.805 2.23063 0.690296 0
M  V30 3726 C 347.786 1.20072 1.20485 0
M  V30 3727 O 348.971 1.48643 1.24976 0
M  V30 3728 C 346.101 2.90672 1.90072 0
M  V30 3729 C 345.055 4.00092 1.5202 0
M  V30 3730 C 344.381 4.54972 2.80899 0
M  V30 3731 C 345.681 5.17398 0.71391 0
M  V30 3732 H 347.375 2.99109 0.132038 0
M  V30 3733 H 344.921 1.43866 0.0620664 0
M  V30 3734 H 346.874 3.36204 2.54057 0
M  V30 3735 H 345.598 2.12066 2.48386 0
M  V30 3736 H 344.257 3.55283 0.903839 0
M  V30 3737 H 343.905 3.73102 3.37348 0
M  V30 3738 H 343.605 5.28817 2.56176 0
M  V30 3739 H 345.129 5.0322 3.45836 0
M  V30 3740 H 346.543 5.59342 1.25735 0
M  V30 3741 H 344.94 5.97444 0.563951 0
M  V30 3742 H 346.01 4.84088 -0.280527 0
M  V30 3743 N 347.353 -0.0568162 1.57498 0
M  V30 3744 C 348.285 -1.09292 2.01464 0
M  V30 3745 C 349.298 -1.34112 0.922913 0
M  V30 3746 O 350.487 -1.32089 1.20062 0
M  V30 3747 C 347.587 -2.44068 2.35125 0
M  V30 3748 C 346.76 -2.38995 3.66333 0
M  V30 3749 C 345.819 -3.55997 3.87495 0
M  V30 3750 O 344.845 -3.36746 4.58901 0
M  V30 3751 N 346.047 -4.76888 3.30996 0
M  V30 3752 H 348.812 -0.718386 2.90963 0
M  V30 3753 H 346.373 -0.245235 1.60032 0
M  V30 3754 H 348.365 -3.21011 2.46443 0
M  V30 3755 H 346.935 -2.73468 1.5144 0
M  V30 3756 H 346.155 -1.47336 3.65631 0
M  V30 3757 H 347.443 -2.3272 4.52458 0
M  V30 3758 H 346.841 -4.95431 2.73065 0
M  V30 3759 H 345.398 -5.51291 3.47738 0
M  V30 3760 N 348.832 -1.54138 -0.328536 0
M  V30 3761 C 350.057 -1.76378 -1.09112 0
M  V30 3762 C 350.482 -0.508596 -1.81094 0
M  V30 3763 O 349.84 0.539598 -1.73084 0
M  V30 3764 C 349.888 -2.95358 -2.06872 0
M  V30 3765 O 348.992 -2.66556 -3.14677 0
M  V30 3766 H 348.333 -0.584614 -0.314838 0
M  V30 3767 H 350.863 -2.01146 -0.374348 0
M  V30 3768 H 350.873 -3.22566 -2.4983 0
M  V30 3769 H 349.548 -3.86385 -1.5388 0
M  V30 3770 H 348.125 -2.50282 -2.7643 0
M  V30 3771 N 350.31 0.590341 -1.46126 0
M  V30 3772 C 351.242 1.71427 -1.52136 0
M  V30 3773 C 352.255 1.57542 -0.41042 0
M  V30 3774 O 353.444 1.65106 -0.678389 0
M  V30 3775 C 350.544 3.09605 -1.37834 0
M  V30 3776 C 349.717 3.49566 -2.62912 0
M  V30 3777 C 348.776 4.66773 -2.42918 0
M  V30 3778 O 347.802 4.73019 -3.1661 0
M  V30 3779 N 349.004 5.61161 -1.4859 0
M  V30 3780 H 351.769 1.66728 -2.49042 0
M  V30 3781 H 349.33 0.776113 -1.42085 0
M  V30 3782 H 351.322 3.85796 -1.22243 0
M  V30 3783 H 349.892 3.08714 -0.491393 0
M  V30 3784 H 349.112 2.63158 -2.93499 0
M  V30 3785 H 350.4 3.73028 -3.46017 0
M  V30 3786 H 349.798 5.58844 -0.87808 0
M  V30 3787 H 348.355 6.36814 -1.38965 0
M  V30 3788 N 351.788 1.33704 0.83433 0
M  V30 3789 C 353.037 1.24763 1.58484 0
M  V30 3790 C 353.35 -0.183775 1.94735 0
M  V30 3791 O 354.556 -0.395234 2.68608 0
M  V30 3792 C 353.012 2.18638 2.85876 0
M  V30 3793 C 352.62 3.66974 2.56971 0
M  V30 3794 C 354.364 2.18581 3.63899 0
M  V30 3795 C 352.271 4.5275 3.80488 0
M  V30 3796 H 351.201 0.463425 0.594772 0
M  V30 3797 H 353.852 1.58797 0.919551 0
M  V30 3798 H 352.234 1.77542 3.5397 0
M  V30 3799 H 353.408 4.16538 1.9706 0
M  V30 3800 H 351.723 3.69366 1.92244 0
M  V30 3801 H 354.32 2.79894 4.55591 0
M  V30 3802 H 354.663 1.18207 3.99165 0
M  V30 3803 H 355.196 2.58062 3.02735 0
M  V30 3804 H 351.935 5.54017 3.5035 0
M  V30 3805 H 351.455 4.07927 4.39722 0
M  V30 3806 H 353.134 4.66784 4.4802 0
M  V30 3807 N 353.266 -1.05314 1.17247 0
M  V30 3808 C 354.491 -1.82509 0.985148 0
M  V30 3809 C 354.916 -1.82343 -0.461788 0
M  V30 3810 O 354.274 -1.23151 -1.33055 0
M  V30 3811 C 354.322 -3.26566 1.52929 0
M  V30 3812 O 353.426 -4.05666 0.742225 0
M  V30 3813 H 352.767 -0.564347 0.349869 0
M  V30 3814 H 355.297 -1.32718 1.55715 0
M  V30 3815 H 355.307 -3.77369 1.55103 0
M  V30 3816 H 353.982 -3.26001 2.58256 0
M  V30 3817 H 352.559 -3.64397 0.791794 0
M  V30 3818 N 354.744 -0.972509 -1.24016 0
M  V30 3819 C 356.021 -0.553733 -1.87598 0
M  V30 3820 C 356.401 0.969158 -1.87538 0
M  V30 3821 O 355.749 1.84255 -1.35139 0
M  V30 3822 C 355.959 -1.15076 -3.29482 0
M  V30 3823 C 357.307 -1.23862 -4.06132 0
M  V30 3824 O 358.331 -1.10363 -3.38672 0
M  V30 3825 O 357.19 -1.45252 -5.26844 0
M  V30 3826 H 354.284 -0.185331 -0.805966 0
M  V30 3827 H 356.83 -1.06709 -1.31952 0
M  V30 3828 H 355.602 -2.19333 -3.2405 0
M  V30 3829 H 355.225 -0.621746 -3.92709 0
M  V30 3830 N 356.222 1.38976 -0.743202 0
M  V30 3831 C 357.45 2.04636 -0.30525 0
M  V30 3832 C 357.865 1.56044 1.06281 0
M  V30 3833 O 357.222 0.728921 1.67311 0
M  V30 3834 C 357.273 3.60193 -0.307177 0
M  V30 3835 O 356.994 4.06998 -1.62124 0
M  V30 3836 C 358.495 4.4306 0.145928 0
M  V30 3837 H 355.715 0.65788 -0.132041 0
M  V30 3838 H 358.259 1.77866 -1.00915 0
M  V30 3839 H 356.414 3.85835 0.347898 0
M  V30 3840 H 356.828 5.01371 -1.54036 0
M  V30 3841 H 358.302 5.51921 0.0934183 0
M  V30 3842 H 358.779 4.22706 1.19231 0
M  V30 3843 H 359.385 4.22584 -0.479886 0
M  V30 3844 N 357.7 0.491464 1.49741 0
M  V30 3845 C 358.925 -0.0557177 2.07325 0
M  V30 3846 C 359.35 -1.30925 1.35056 0
M  V30 3847 O 358.708 -1.76733 0.404365 0
M  V30 3848 C 358.756 -0.302074 3.59333 0
M  V30 3849 O 357.86 -1.37868 3.88672 0
M  V30 3850 H 357.201 0.0219956 0.663636 0
M  V30 3851 H 359.731 0.688352 1.92673 0
M  V30 3852 H 359.741 -0.536464 4.04458 0
M  V30 3853 H 358.416 0.61383 4.11345 0
M  V30 3854 H 356.993 -1.12999 3.55367 0
M  V30 3855 N 359.178 -1.55987 0.224894 0
M  V30 3856 C 360.424 -1.98684 -0.406502 0
M  V30 3857 C 360.757 -1.11248 -1.59177 0
M  V30 3858 O 360.032 -0.170909 -1.93748 0
M  V30 3859 C 360.315 -3.50218 -0.837808 0
M  V30 3860 C 360.168 -4.48426 0.351332 0
M  V30 3861 C 361.487 -4.06243 -1.69278 0
M  V30 3862 H 358.606 -0.722337 -0.146283 0
M  V30 3863 H 361.248 -1.87255 0.321799 0
M  V30 3864 H 359.398 -3.60089 -1.45837 0
M  V30 3865 H 361.07 -4.50562 0.989526 0
M  V30 3866 H 359.313 -4.22159 0.998207 0
M  V30 3867 H 359.984 -5.52 0.00655905 0
M  V30 3868 H 362.46 -3.99337 -1.16914 0
M  V30 3869 H 361.336 -5.12581 -1.96346 0
M  V30 3870 H 361.597 -3.53332 -2.65723 0
M  V30 3871 N 360.656 0.0484629 -1.57525 0
M  V30 3872 C 361.902 0.744226 -1.88651 0
M  V30 3873 C 362.235 1.76029 -0.820212 0
M  V30 3874 O 361.51 1.93782 0.166985 0
M  V30 3875 C 361.793 1.43128 -3.30434 0
M  V30 3876 C 361.646 0.43005 -4.47739 0
M  V30 3877 C 362.965 2.37031 -3.70816 0
M  V30 3878 H 360.084 0.269089 -0.68612 0
M  V30 3879 H 362.726 0.00713532 -1.89999 0
M  V30 3880 H 360.876 2.05956 -3.29415 0
M  V30 3881 H 362.548 -0.194816 -4.60888 0
M  V30 3882 H 360.791 -0.252522 -4.33064 0
M  V30 3883 H 361.462 0.948874 -5.43783 0
M  V30 3884 H 363.938 1.84263 -3.73077 0
M  V30 3885 H 362.814 2.82094 -4.70865 0
M  V30 3886 H 363.075 3.22864 -3.02012 0
M  V30 3887 N 362.134 1.5431 0.320358 0
M  V30 3888 C 363.064 1.86912 1.3995 0
M  V30 3889 C 364.045 0.726211 1.53819 0
M  V30 3890 O 365.23 0.980233 1.67646 0
M  V30 3891 C 362.36 2.09932 2.7667 0
M  V30 3892 C 361.314 3.25776 2.77586 0
M  V30 3893 C 360.64 3.34173 4.17412 0
M  V30 3894 C 361.94 4.6335 2.41048 0
M  V30 3895 H 363.634 2.77292 1.12914 0
M  V30 3896 H 361.18 1.33421 0.541738 0
M  V30 3897 H 363.133 2.31324 3.52232 0
M  V30 3898 H 361.857 1.16304 3.0519 0
M  V30 3899 H 360.516 3.04276 2.04479 0
M  V30 3900 H 360.164 2.38098 4.43078 0
M  V30 3901 H 359.864 4.12033 4.18931 0
M  V30 3902 H 361.388 3.57803 4.94782 0
M  V30 3903 H 362.802 4.84602 3.06324 0
M  V30 3904 H 361.199 5.43782 2.53813 0
M  V30 3905 H 362.269 4.65381 1.36193 0
M  V30 3906 N 363.613 -0.582584 1.46437 0
M  V30 3907 C 364.838 -1.37168 1.55563 0
M  V30 3908 C 365.263 -1.87061 0.19743 0
M  V30 3909 O 364.621 -1.61572 -0.822451 0
M  V30 3910 C 364.669 -2.53511 2.56446 0
M  V30 3911 O 363.773 -3.54953 2.09958 0
M  V30 3912 H 363.114 -0.408494 0.523477 0
M  V30 3913 H 365.644 -0.706646 1.9201 0
M  V30 3914 H 365.654 -3.00426 2.76058 0
M  V30 3915 H 364.329 -2.16549 3.55076 0
M  V30 3916 H 362.906 -3.14516 2.00334 0
M  V30 3917 N 365.091 -1.34144 -0.827227 0
M  V30 3918 C 366.024 -1.19707 -1.94282 0
M  V30 3919 C 367.002 -0.0897256 -1.62352 0
M  V30 3920 O 368.186 -0.254095 -1.8678 0
M  V30 3921 C 365.313 -0.838646 -3.28153 0
M  V30 3922 C 364.359 -1.95514 -3.79047 0
M  V30 3923 S 365.192 -3.56793 -3.99323 0
M  V30 3924 C 366.348 -3.22983 -5.36127 0
M  V30 3925 H 366.581 -2.1414 -2.06231 0
M  V30 3926 H 364.114 -1.19121 -0.982321 0
M  V30 3927 H 366.072 -0.638637 -4.05502 0
M  V30 3928 H 364.733 0.0872776 -3.13979 0
M  V30 3929 H 363.926 -1.658 -4.75948 0
M  V30 3930 H 363.528 -2.11241 -3.08631 0
M  V30 3931 H 365.82 -2.74531 -6.19386 0
M  V30 3932 H 366.763 -4.19008 -5.70822 0
M  V30 3933 H 367.171 -2.59276 -5.01434 0
M  V30 3934 N 366.569 1.04691 -1.17803 0
M  V30 3935 C 367.846 1.7472 -0.879328 0
M  V30 3936 C 368.226 2.01812 0.619271 0
M  V30 3937 O 367.574 1.65824 1.57209 0
M  V30 3938 C 367.784 3.03686 -1.71976 0
M  V30 3939 C 369.132 3.77542 -1.94286 0
M  V30 3940 O 370.156 3.13569 -1.68976 0
M  V30 3941 O 369.015 4.92506 -2.36855 0
M  V30 3942 H 366.109 0.760011 -0.326056 0
M  V30 3943 H 368.655 1.10813 -1.28525 0
M  V30 3944 H 367.427 2.79754 -2.73594 0
M  V30 3945 H 367.05 3.75332 -1.31194 0
M  V30 3946 N 368.047 0.979072 1.23499 0
M  V30 3947 C 368.995 0.510604 2.26926 0
M  V30 3948 C 369.989 -0.431691 1.63807 0
M  V30 3949 O 371.195 -0.30573 1.77385 0
M  V30 3950 H 367.57 0.146688 0.737554 0
M  V30 3951 H 369.541 1.39466 2.63803 0
M  V30 3952 C 368.29 -0.172658 3.47271 0
M  V30 3953 H 367.613 0.543331 3.96091 0
M  V30 3954 H 369.053 -0.464101 4.21452 0
M  V30 3955 C 367.512 -1.40345 3.06276 0
M  V30 3956 O 368.042 -2.49978 3.14442 0
M  V30 3957 N 366.248 -1.27362 2.61203 0
M  V30 3958 H 365.795 -0.381584 2.54758 0
M  V30 3959 H 365.753 -2.09822 2.34141 0
M  V30 3960 N 369.525 -1.3858 0.750561 0
M  V30 3961 C 370.75 -2.04997 0.314812 0
M  V30 3962 C 371.175 -1.56235 -1.04749 0
M  V30 3963 O 370.533 -0.712981 -1.66692 0
M  V30 3964 C 370.581 -3.58961 0.343415 0
M  V30 3965 O 369.685 -4.07025 -0.663628 0
M  V30 3966 H 369.026 -0.649081 0.139962 0
M  V30 3967 H 371.556 -1.77313 1.02084 0
M  V30 3968 H 371.566 -4.07542 0.193233 0
M  V30 3969 H 370.241 -3.93811 1.33738 0
M  V30 3970 H 368.818 -3.6982 -0.478307 0
M  V30 3971 N 371.003 -0.499398 -1.49478 0
M  V30 3972 C 372.419 -0.155261 -1.58843 0
M  V30 3973 C 372.619 1.34008 -1.50479 0
M  V30 3974 O 371.675 2.11589 -1.37791 0
M  V30 3975 C 372.988 -0.730636 -2.91689 0
M  V30 3976 C 374.536 -0.696599 -3.0515 0
M  V30 3977 C 375.011 -1.25001 -4.40612 0
M  V30 3978 N 376.502 -1.21064 -4.47099 0
M  V30 3979 C 377.237 -1.60905 -5.50361 0
M  V30 3980 N 376.733 -2.08331 -6.60735 0
M  V30 3981 N 378.526 -1.52331 -5.41065 0
M  V30 3982 H 370.677 -1.47162 -1.53158 0
M  V30 3983 H 372.94 -0.610309 -0.725415 0
M  V30 3984 H 372.646 -1.77928 -3.03372 0
M  V30 3985 H 372.52 -0.190161 -3.7672 0
M  V30 3986 H 374.907 0.343204 -2.93097 0
M  V30 3987 H 374.988 -1.2742 -2.21806 0
M  V30 3988 H 374.632 -2.28859 -4.53416 0
M  V30 3989 H 374.562 -0.64836 -5.22593 0
M  V30 3990 H 377.053 -0.863128 -3.67911 0
M  V30 3991 H 377.366 -2.36805 -7.35624 0
M  V30 3992 H 375.711 -2.12304 -6.6178 0
M  V30 3993 H 378.902 -1.151 -4.53729 0
M  V30 3994 H 379.075 -1.83704 -6.21415 0
M  V30 3995 N 372.481 1.55866 -0.233164 0
M  V30 3996 C 373.706 2.03449 0.402906 0
M  V30 3997 C 374.131 1.11166 1.51736 0
M  V30 3998 O 373.489 0.101996 1.81013 0
M  V30 3999 C 373.537 3.49165 0.9009 0
M  V30 4000 O 372.641 3.60019 2.01147 0
M  V30 4001 H 371.982 0.657913 0.0897025 0
M  V30 4002 H 374.512 2.01493 -0.355201 0
M  V30 4003 H 374.522 3.89716 1.2077 0
M  V30 4004 H 373.197 4.15813 0.0852889 0
M  V30 4005 H 371.774 3.3136 1.71042 0
M  V30 4006 N 373.959 -0.0401083 1.57549 0
M  V30 4007 C 374.889 -1.04384 2.08869 0
M  V30 4008 C 375.87 -1.38407 0.988817 0
M  V30 4009 O 377.055 -1.47483 1.26342 0
M  V30 4010 C 374.185 -2.34808 2.55895 0
M  V30 4011 C 373.139 -2.15057 3.70047 0
M  V30 4012 C 372.465 -3.51145 4.03239 0
M  V30 4013 C 373.765 -1.54576 4.98902 0
M  V30 4014 H 375.459 -0.616666 2.92981 0
M  V30 4015 H 373.005 -0.295184 1.40942 0
M  V30 4016 H 374.958 -3.05346 2.90417 0
M  V30 4017 H 373.682 -2.79565 1.68853 0
M  V30 4018 H 372.341 -1.46954 3.35857 0
M  V30 4019 H 371.989 -3.93529 3.13279 0
M  V30 4020 H 371.689 -3.38758 4.80122 0
M  V30 4021 H 373.213 -4.23062 4.40285 0
M  V30 4022 H 374.627 -2.15017 5.31451 0
M  V30 4023 H 373.024 -1.52796 5.80322 0
M  V30 4024 H 374.094 -0.51039 4.82206 0
M  V30 4025 N 375.437 -1.54477 -0.31217 0
M  V30 4026 C 376.714 -1.63891 -1.06767 0
M  V30 4027 C 377.094 -0.480028 -2.0557 0
M  V30 4028 O 376.442 0.524487 -2.22399 0
M  V30 4029 C 376.652 -3.01402 -1.75948 0
M  V30 4030 C 378 -3.57838 -2.28554 0
M  V30 4031 O 379.024 -3.03782 -1.85998 0
M  V30 4032 O 377.883 -4.52462 -3.06497 0
M  V30 4033 H 374.977 -0.664125 -0.492816 0
M  V30 4034 H 377.523 -1.66823 -0.311149 0
M  V30 4035 H 376.295 -3.77187 -1.04144 0
M  V30 4036 H 375.918 -3.02199 -2.58383 0
M  V30 4037 N 376.915 0.57481 -1.46744 0
M  V30 4038 C 377.848 1.69827 -1.52427 0
M  V30 4039 C 378.826 1.58151 -0.377744 0
M  V30 4040 O 380.01 1.79257 -0.58303 0
M  V30 4041 C 377.137 3.07943 -1.41027 0
M  V30 4042 C 376.183 3.38116 -2.59961 0
M  V30 4043 S 377.016 3.29313 -4.22272 0
M  V30 4044 C 378.172 4.69953 -4.13394 0
M  V30 4045 H 378.405 1.64748 -2.47478 0
M  V30 4046 H 375.938 0.754203 -1.34726 0
M  V30 4047 H 377.896 3.87619 -1.35137 0
M  V30 4048 H 376.557 3.10504 -0.473909 0
M  V30 4049 H 375.75 4.38762 -2.47999 0
M  V30 4050 H 375.352 2.66024 -2.62882 0
M  V30 4051 H 377.644 5.60517 -3.80562 0
M  V30 4052 H 378.587 4.86972 -5.14066 0
M  V30 4053 H 378.995 4.47174 -3.44522 0
M  V30 4054 N 378.394 1.34581 0.820102 0
M  V30 4055 C 379.671 1.17675 1.56244 0
M  V30 4056 C 380.051 -0.249541 2.0962 0
M  V30 4057 O 379.399 -1.25125 1.91196 0
M  V30 4058 C 379.609 2.23364 2.6816 0
M  V30 4059 C 380.957 2.58485 3.36854 0
M  V30 4060 O 381.981 2.22175 2.78418 0
M  V30 4061 O 380.84 3.20868 4.42386 0
M  V30 4062 H 377.934 0.456333 0.689702 0
M  V30 4063 H 380.48 1.46222 0.861231 0
M  V30 4064 H 379.252 3.19087 2.26493 0
M  V30 4065 H 378.875 1.96009 3.45928 0
M  V30 4066 N 379.872 -1.04064 1.18357 0
M  V30 4067 C 381.097 -1.81454 1.00445 0
M  V30 4068 C 381.522 -1.82823 -0.442423 0
M  V30 4069 O 380.88 -1.24555 -1.31741 0
M  V30 4070 C 380.928 -3.24925 1.56384 0
M  V30 4071 O 380.032 -4.04856 0.785209 0
M  V30 4072 H 379.373 -0.560604 0.355835 0
M  V30 4073 H 381.903 -1.31059 1.57114 0
M  V30 4074 H 381.913 -3.75702 1.59097 0
M  V30 4075 H 380.588 -3.23244 2.61699 0
M  V30 4076 H 379.165 -3.63537 0.830399 0
M  V30 4077 N 381.35 -0.985608 -1.22978 0
M  V30 4078 C 382.599 -0.652881 -1.90841 0
M  V30 4079 C 382.912 0.817842 -1.77681 0
M  V30 4080 O 384.118 1.26185 -2.40395 0
M  V30 4081 C 382.574 -1.11717 -3.42122 0
M  V30 4082 C 382.182 -2.6126 -3.63933 0
M  V30 4083 C 383.926 -0.85843 -4.1573 0
M  V30 4084 C 381.833 -3.0133 -5.08876 0
M  V30 4085 H 380.763 -0.240491 -0.714619 0
M  V30 4086 H 383.414 -1.1942 -1.39324 0
M  V30 4087 H 381.796 -0.504027 -3.92779 0
M  V30 4088 H 382.97 -3.27858 -3.23799 0
M  V30 4089 H 381.285 -2.84937 -3.03644 0
M  V30 4090 H 383.882 -1.13359 -5.22546 0
M  V30 4091 H 384.225 0.205461 -4.15793 0
M  V30 4092 H 384.758 -1.43341 -3.71077 0
M  V30 4093 H 381.497 -4.06864 -5.13947 0
M  V30 4094 H 381.017 -2.3943 -5.49939 0
M  V30 4095 H 382.696 -2.92224 -5.77247 0
M  V30 4096 N 382.828 1.3818 -0.7579 0
M  V30 4097 C 384.077 1.99261 -0.312744 0
M  V30 4098 C 384.39 1.60846 1.11301 0
M  V30 4099 O 385.596 2.14929 1.65885 0
M  V30 4100 C 384.052 3.56294 -0.50821 0
M  V30 4101 C 383.66 4.03657 -1.94333 0
M  V30 4102 C 385.404 4.24313 -0.125982 0
M  V30 4103 C 383.311 5.53347 -2.08712 0
M  V30 4104 H 382.241 0.745456 -0.113185 0
M  V30 4105 H 384.892 1.57889 -0.935056 0
M  V30 4106 H 383.274 3.95575 0.183353 0
M  V30 4107 H 384.448 3.75655 -2.66871 0
M  V30 4108 H 382.763 3.48376 -2.28086 0
M  V30 4109 H 385.36 5.34279 -0.212125 0
M  V30 4110 H 385.703 4.05962 0.921964 0
M  V30 4111 H 386.236 3.90285 -0.769563 0
M  V30 4112 H 382.975 5.76607 -3.11777 0
M  V30 4113 H 382.495 5.83078 -1.4064 0
M  V30 4114 H 384.174 6.19111 -1.87912 0
M  V30 4115 N 384.306 0.507319 1.49211 0
M  V30 4116 C 385.269 -0.256763 2.27757 0
M  V30 4117 C 386.269 -0.888287 1.34038 0
M  V30 4118 O 387.459 -0.751841 1.5714 0
M  V30 4119 C 384.591 -1.36905 3.12202 0
M  V30 4120 H 385.784 0.432557 2.96764 0
M  V30 4121 H 383.337 0.262488 1.5408 0
M  V30 4122 H 384.072 -2.09233 2.47775 0
M  V30 4123 H 383.857 -0.921599 3.81115 0
M  V30 4124 H 385.347 -1.9071 3.7151 0
M  V30 4125 N 385.784 -1.5574 0.241426 0
M  V30 4126 C 386.694 -2.2479 -0.671305 0
M  V30 4127 C 387.71 -1.26217 -1.19772 0
M  V30 4128 O 388.886 -1.59079 -1.23514 0
M  V30 4129 C 385.951 -2.92966 -1.85396 0
M  V30 4130 C 385.012 -4.06935 -1.36756 0
M  V30 4131 C 384.245 -4.71851 -2.49384 0
M  V30 4132 O 384.468 -4.35823 -3.67987 0
M  V30 4133 O 383.402 -5.60467 -2.19454 0
M  V30 4134 H 387.228 -3.0349 -0.112966 0
M  V30 4135 H 384.813 -1.49397 0.0101513 0
M  V30 4136 H 386.695 -3.35927 -2.54423 0
M  V30 4137 H 385.37 -2.17211 -2.40002 0
M  V30 4138 H 384.277 -3.68503 -0.644726 0
M  V30 4139 H 385.61 -4.84492 -0.867647 0
M  V30 4140 N 387.262 0.0317525 -1.57568 0
M  V30 4141 C 388.508 0.724175 -1.8943 0
M  V30 4142 C 388.841 1.75149 -0.838836 0
M  V30 4143 O 388.116 1.93948 0.146422 0
M  V30 4144 C 388.399 1.39615 -3.31933 0
M  V30 4145 C 388.252 0.382537 -4.4817 0
M  V30 4146 C 389.571 2.33084 -3.73309 0
M  V30 4147 H 386.69 0.261797 -0.688935 0
M  V30 4148 H 389.332 -0.013017 -1.89996 0
M  V30 4149 H 387.482 2.02451 -3.31581 0
M  V30 4150 H 389.154 -0.243689 -4.60656 0
M  V30 4151 H 387.397 -0.29844 -4.32772 0
M  V30 4152 H 388.068 0.891145 -5.44759 0
M  V30 4153 H 390.544 1.80295 -3.7501 0
M  V30 4154 H 389.42 2.77084 -4.73831 0
M  V30 4155 H 389.681 3.19643 -3.05419 0
M  V30 4156 N 388.74 1.54641 0.303973 0
M  V30 4157 C 389.687 1.85386 1.37479 0
M  V30 4158 C 390.657 0.702528 1.50512 0
M  V30 4159 O 391.842 0.950867 1.65418 0
M  V30 4160 C 388.982 2.10413 2.73533 0
M  V30 4161 C 388.095 3.38049 2.68974 0
M  V30 4162 C 387.23 3.52934 3.97002 0
M  V30 4163 C 386.269 4.74373 3.86829 0
M  V30 4164 N 385.406 4.8608 5.06627 0
M  V30 4165 H 390.246 2.76732 1.1056 0
M  V30 4166 H 387.783 1.37034 0.534805 0
M  V30 4167 H 389.741 2.22919 3.52652 0
M  V30 4168 H 388.371 1.22338 2.98719 0
M  V30 4169 H 387.423 3.3418 1.81736 0
M  V30 4170 H 388.735 4.27288 2.57346 0
M  V30 4171 H 387.889 3.65088 4.84557 0
M  V30 4172 H 386.628 2.61824 4.1146 0
M  V30 4173 H 385.633 4.62255 2.97658 0
M  V30 4174 H 386.858 5.66888 3.73918 0
M  V30 4175 H 384.804 3.97891 5.21554 0
M  V30 4176 H 384.721 5.69315 4.9741 0
M  V30 4177 H 385.989 5.02587 5.95841 0
M  V30 4178 N 390.218 -0.567019 1.47046 0
M  V30 4179 C 391.181 -1.65696 1.58359 0
M  V30 4180 C 392.181 -1.54097 0.459441 0
M  V30 4181 O 393.371 -1.58432 0.724225 0
M  V30 4182 C 390.503 -3.05197 1.51879 0
M  V30 4183 H 391.696 -1.57019 2.5551 0
M  V30 4184 H 389.249 -0.786148 1.3509 0
M  V30 4185 H 389.984 -3.19417 0.560673 0
M  V30 4186 H 389.769 -3.15025 2.33455 0
M  V30 4187 H 391.259 -3.84511 1.62913 0
M  V30 4188 N 391.696 -1.35014 -0.812953 0
M  V30 4189 C 392.628 -1.23262 -1.93233 0
M  V30 4190 C 393.641 -0.157371 -1.62038 0
M  V30 4191 O 394.83 -0.410096 -1.73725 0
M  V30 4192 C 391.93 -0.87392 -3.27438 0
M  V30 4193 C 391.103 -2.04622 -3.86586 0
M  V30 4194 C 390.162 -1.66432 -4.99186 0
M  V30 4195 O 389.188 -2.38222 -5.16951 0
M  V30 4196 N 390.39 -0.584248 -5.77552 0
M  V30 4197 H 393.155 -2.19699 -2.03844 0
M  V30 4198 H 390.716 -1.281 -0.99005 0
M  V30 4199 H 392.708 -0.600039 -4.00227 0
M  V30 4200 H 391.278 0.00057392 -3.126 0
M  V30 4201 H 390.498 -2.48427 -3.06068 0
M  V30 4202 H 391.786 -2.82999 -4.22835 0
M  V30 4203 H 391.184 0.0123526 -5.65699 0
M  V30 4204 H 389.741 -0.37013 -6.50748 0
M  V30 4205 N 393.175 1.03435 -1.18907 0
M  V30 4206 C 394.405 1.8012 -1.01195 0
M  V30 4207 C 394.813 1.8395 0.442613 0
M  V30 4208 O 394.156 1.27836 1.31923 0
M  V30 4209 C 394.218 3.26792 -1.49823 0
M  V30 4210 C 393.882 3.46609 -2.97844 0
M  V30 4211 C 394.879 3.37278 -3.95651 0
M  V30 4212 C 392.564 3.73001 -3.36416 0
M  V30 4213 C 394.558 3.54054 -5.30023 0
M  V30 4214 C 392.245 3.89423 -4.70949 0
M  V30 4215 C 393.243 3.79951 -5.67562 0
M  V30 4216 O 392.931 3.95895 -6.99659 0
M  V30 4217 H 392.663 0.573865 -0.357289 0
M  V30 4218 H 395.217 1.31207 -1.58031 0
M  V30 4219 H 393.447 3.76703 -0.873578 0
M  V30 4220 H 395.136 3.85055 -1.28404 0
M  V30 4221 H 395.902 3.16846 -3.67197 0
M  V30 4222 H 391.781 3.79469 -2.61772 0
M  V30 4223 H 395.325 3.46577 -6.05417 0
M  V30 4224 H 391.222 4.09351 -4.99101 0
M  V30 4225 H 391.99 4.13019 -7.06653 0
M  V30 4226 N 394.653 0.992116 1.22453 0
M  V30 4227 C 395.563 0.55065 2.28046 0
M  V30 4228 C 396.579 -0.400189 1.69335 0
M  V30 4229 O 397.755 -0.267215 1.99619 0
M  V30 4230 C 394.82 -0.128496 3.46462 0
M  V30 4231 C 393.881 0.865208 4.20491 0
M  V30 4232 C 393.114 0.218377 5.33253 0
M  V30 4233 O 393.337 -0.987894 5.6178 0
M  V30 4234 O 392.271 0.922845 5.94783 0
M  V30 4235 H 396.097 1.4291 2.67975 0
M  V30 4236 H 393.682 0.760326 1.28606 0
M  V30 4237 H 395.564 -0.508947 4.18315 0
M  V30 4238 H 394.239 -0.981526 3.0846 0
M  V30 4239 H 393.146 1.29658 3.50913 0
M  V30 4240 H 394.479 1.68741 4.62371 0
M  V30 4241 N 396.131 -1.37776 0.765217 0
M  V30 4242 C 397.408 -1.93975 0.251596 0
M  V30 4243 C 397.788 -1.69949 -1.25222 0
M  V30 4244 O 397.136 -1.04457 -2.03226 0
M  V30 4245 C 397.346 -3.43487 0.617895 0
M  V30 4246 C 398.694 -4.20564 0.584029 0
M  V30 4247 O 399.718 -3.5182 0.556888 0
M  V30 4248 O 398.577 -5.43138 0.605291 0
M  V30 4249 H 395.671 -0.82509 0.0561806 0
M  V30 4250 H 398.217 -1.47101 0.846128 0
M  V30 4251 H 396.989 -3.5453 1.65602 0
M  V30 4252 H 396.612 -3.976 -0.00403411 0
M  V30 4253 N 397.609 -0.515225 -1.4894 0
M  V30 4254 C 398.858 0.0261361 -2.01683 0
M  V30 4255 C 399.171 1.36719 -1.39883 0
M  V30 4256 O 400.377 1.99606 -1.84037 0
M  V30 4257 C 398.833 0.0970111 -3.59769 0
M  V30 4258 C 398.441 -1.23825 -4.30548 0
M  V30 4259 C 400.185 0.587981 -4.20408 0
M  V30 4260 C 398.092 -1.12877 -5.80528 0
M  V30 4261 H 397.022 0.0135398 -0.753878 0
M  V30 4262 H 399.673 -0.656787 -1.71343 0
M  V30 4263 H 398.055 0.844694 -3.86886 0
M  V30 4264 H 399.229 -2.00034 -4.15118 0
M  V30 4265 H 397.544 -1.66379 -3.81716 0
M  V30 4266 H 400.141 0.68763 -5.3026 0
M  V30 4267 H 400.484 1.59026 -3.84729 0
M  V30 4268 H 401.017 -0.103582 -3.97665 0
M  V30 4269 H 397.756 -2.10575 -6.20756 0
M  V30 4270 H 397.276 -0.407799 -5.98412 0
M  V30 4271 H 398.955 -0.813332 -6.41868 0
M  V30 4272 N 399.087 1.5561 -0.249682 0
M  V30 4273 C 400.05 2.20217 0.635394 0
M  V30 4274 C 401.05 1.17227 1.10066 0
M  V30 4275 O 402.24 1.42292 1.00492 0
M  V30 4276 C 399.372 2.84794 1.87363 0
M  V30 4277 H 400.565 2.99814 0.0716752 0
M  V30 4278 H 398.118 1.563 -0.000153234 0
M  V30 4279 H 398.853 2.09142 2.47851 0
M  V30 4280 H 398.638 3.60241 1.5482 0
M  V30 4281 H 400.128 3.3423 2.5036 0
M  V30 4282 N 400.565 -0.0233959 1.57583 0
M  V30 4283 C 401.513 -1.04063 2.08023 0
M  V30 4284 C 402.507 -1.37084 0.995204 0
M  V30 4285 O 403.713 -1.35923 1.18004 0
M  V30 4286 H 400.088 -0.353144 0.663922 0
M  V30 4287 H 402.059 -0.589453 2.9252 0
M  V30 4288 C 400.808 -2.33123 2.57971 0
M  V30 4289 H 400.131 -2.08577 3.4108 0
M  V30 4290 H 401.571 -3.02632 2.96967 0
M  V30 4291 C 400.03 -3.02483 1.48342 0
M  V30 4292 O 400.56 -3.92541 0.852898 0
M  V30 4293 N 398.766 -2.63909 1.21658 0
M  V30 4294 H 398.313 -1.90758 1.73116 0
M  V30 4295 H 398.271 -3.10633 0.485218 0
M  V30 4296 N 402.043 -1.548 -0.295768 0
M  V30 4297 C 403.459 -1.4613 -0.641722 0
M  V30 4298 C 403.659 -0.656771 -1.90496 0
M  V30 4299 O 402.715 -0.166547 -2.5195 0
M  V30 4300 C 404.028 -2.90141 -0.789852 0
M  V30 4301 C 405.576 -3.00216 -0.885396 0
M  V30 4302 C 406.051 -4.45434 -1.06548 0
M  V30 4303 N 407.542 -4.49166 -1.13156 0
M  V30 4304 C 408.277 -5.58717 -1.28929 0
M  V30 4305 N 407.773 -6.78182 -1.41567 0
M  V30 4306 N 409.566 -5.46415 -1.31859 0
M  V30 4307 H 401.717 -2.05574 0.534147 0
M  V30 4308 H 403.98 -0.931259 0.177372 0
M  V30 4309 H 403.686 -3.51635 0.0675598 0
M  V30 4310 H 403.56 -3.37859 -1.67724 0
M  V30 4311 H 405.947 -2.38833 -1.73329 0
M  V30 4312 H 406.028 -2.55787 0.0261185 0
M  V30 4313 H 405.672 -5.07413 -0.222335 0
M  V30 4314 H 405.602 -4.87499 -1.9913 0
M  V30 4315 H 408.093 -3.631 -1.04721 0
M  V30 4316 H 408.406 -7.57428 -1.53372 0
M  V30 4317 H 406.751 -6.81037 -1.38613 0
M  V30 4318 H 409.942 -4.5203 -1.21601 0
M  V30 4319 H 410.115 -6.31841 -1.43808 0
M  V30 4320 N 403.521 0.559213 -1.47345 0
M  V30 4321 C 404.746 1.34676 -1.57725 0
M  V30 4322 C 405.171 1.86723 -0.227164 0
M  V30 4323 O 404.529 1.6286 0.796642 0
M  V30 4324 C 404.577 2.49399 -2.60447 0
M  V30 4325 O 403.681 3.51567 -2.15578 0
M  V30 4326 H 403.022 0.400115 -0.52991 0
M  V30 4327 H 405.552 0.676009 -1.93109 0
M  V30 4328 H 405.562 2.95996 -2.80803 0
M  V30 4329 H 404.237 2.10873 -3.58477 0
M  V30 4330 H 402.814 3.11289 -2.05313 0
M  V30 4331 N 404.999 1.35443 0.805782 0
M  V30 4332 C 406.415 1.15499 1.10146 0
M  V30 4333 C 406.615 -0.0319975 2.01475 0
M  V30 4334 O 405.671 -0.70236 2.42535 0
M  V30 4335 C 406.984 2.45833 1.73166 0
M  V30 4336 C 408.532 2.52047 1.85583 0
M  V30 4337 C 409.007 3.82427 2.52019 0
M  V30 4338 N 410.498 3.83682 2.59504 0
M  V30 4339 C 411.233 4.81294 3.11679 0
M  V30 4340 N 410.729 5.89294 3.64287 0
M  V30 4341 N 412.522 4.6873 3.1024 0
M  V30 4342 H 404.673 2.11469 0.198678 0
M  V30 4343 H 406.936 0.93594 0.150731 0
M  V30 4344 H 406.642 3.32874 1.13526 0
M  V30 4345 H 406.516 2.6044 2.72857 0
M  V30 4346 H 408.903 1.65435 2.44367 0
M  V30 4347 H 408.984 2.41354 0.847455 0
M  V30 4348 H 408.628 4.69437 1.93885 0
M  V30 4349 H 408.558 3.90409 3.53395 0
M  V30 4350 H 411.049 3.05648 2.22234 0
M  V30 4351 H 411.362 6.59768 4.02401 0
M  V30 4352 H 409.707 5.92985 3.62483 0
M  V30 4353 H 412.898 3.83496 2.68419 0
M  V30 4354 H 413.071 5.44965 3.50596 0
M  V30 4355 N 406.477 -1.02803 1.19454 0
M  V30 4356 C 407.44 -2.09264 0.934955 0
M  V30 4357 C 408.44 -1.60576 -0.0849015 0
M  V30 4358 O 409.63 -1.73554 0.149933 0
M  V30 4359 C 406.762 -3.38482 0.40531 0
M  V30 4360 H 407.955 -2.33726 1.87916 0
M  V30 4361 H 405.508 -1.19426 1.00832 0
M  V30 4362 H 406.243 -3.19689 -0.544899 0
M  V30 4363 H 406.028 -3.75142 1.14065 0
M  V30 4364 H 407.518 -4.16894 0.242806 0
M  V30 4365 N 407.956 -0.998596 -1.21925 0
M  V30 4366 C 408.866 -0.562736 -2.27751 0
M  V30 4367 C 409.882 0.391203 -1.69545 0
M  V30 4368 O 411.058 0.256625 -1.99758 0
M  V30 4369 C 408.123 0.11012 -3.46525 0
M  V30 4370 C 407.184 -0.887495 -4.20026 0
M  V30 4371 C 406.417 -0.246654 -5.3313 0
M  V30 4372 O 406.64 0.958088 -5.62296 0
M  V30 4373 O 405.574 -0.954374 -5.94286 0
M  V30 4374 H 409.4 -1.44329 -2.67213 0
M  V30 4375 H 406.985 -0.767135 -1.28201 0
M  V30 4376 H 408.867 0.486756 -4.18579 0
M  V30 4377 H 407.542 0.965154 -3.08976 0
M  V30 4378 H 406.449 -1.31517 -3.5022 0
M  V30 4379 H 407.782 -1.71191 -4.6147 0
M  V30 4380 N 409.434 1.37368 -0.772513 0
M  V30 4381 C 410.397 2.28601 -0.165541 0
M  V30 4382 C 411.397 1.48062 0.627238 0
M  V30 4383 O 412.587 1.68268 0.450715 0
M  V30 4384 C 409.719 3.32023 0.772897 0
M  V30 4385 H 410.912 2.83787 -0.969787 0
M  V30 4386 H 408.465 1.46647 -0.540775 0
M  V30 4387 H 409.2 2.81962 1.60212 0
M  V30 4388 H 408.985 3.91555 0.206585 0
M  V30 4389 H 410.475 4.00197 1.19298 0
M  V30 4390 N 410.912 0.523116 1.48665 0
M  V30 4391 C 411.822 -0.247406 2.33292 0
M  V30 4392 C 412.838 -0.945769 1.46052 0
M  V30 4393 O 414.014 -0.922253 1.79043 0
M  V30 4394 C 411.079 -1.28487 3.22012 0
M  V30 4395 C 410.14 -0.597592 4.2512 0
M  V30 4396 C 409.373 -1.58563 5.09601 0
M  V30 4397 O 409.596 -2.81763 4.95949 0
M  V30 4398 O 408.53 -1.12879 5.91221 0
M  V30 4399 H 412.356 0.445869 3.00409 0
M  V30 4400 H 409.941 0.284128 1.46673 0
M  V30 4401 H 411.823 -1.88459 3.7691 0
M  V30 4402 H 410.498 -1.96068 2.57564 0
M  V30 4403 H 409.405 0.0424407 3.74076 0
M  V30 4404 H 410.738 0.0361517 4.92187 0
M  V30 4405 N 412.39 -1.55475 0.257931 0
M  V30 4406 C 413.615 -2.04064 -0.370488 0
M  V30 4407 C 414.04 -1.13565 -1.49948 0
M  V30 4408 O 413.398 -0.130781 -1.80828 0
M  V30 4409 C 413.446 -3.50554 -0.845237 0
M  V30 4410 O 412.55 -3.63173 -1.95394 0
M  V30 4411 H 411.891 -0.659257 -0.0792243 0
M  V30 4412 H 414.421 -2.00903 0.387212 0
M  V30 4413 H 414.431 -3.91588 -1.14555 0
M  V30 4414 H 413.106 -4.15896 -0.0191259 0
M  V30 4415 H 411.683 -3.34039 -1.65748 0
M  V30 4416 N 413.868 0.0150385 -1.57593 0
M  V30 4417 C 414.801 1.04475 -2.0288 0
M  V30 4418 C 415.779 1.3436 -0.915764 0
M  V30 4419 O 416.963 1.46779 -1.18271 0
M  V30 4420 C 414.09 2.37608 -2.41371 0
M  V30 4421 C 413.136 2.23487 -3.63257 0
M  V30 4422 S 413.969 1.57505 -5.11813 0
M  V30 4423 C 415.125 2.921 -5.5356 0
M  V30 4424 H 415.358 0.65907 -2.89903 0
M  V30 4425 H 412.891 0.225452 -1.52745 0
M  V30 4426 H 414.849 3.14165 -2.64217 0
M  V30 4427 H 413.51 2.7332 -1.54775 0
M  V30 4428 H 412.703 3.21802 -3.87891 0
M  V30 4429 H 412.305 1.55074 -3.40335 0
M  V30 4430 H 414.597 3.88419 -5.55101 0
M  V30 4431 H 415.54 2.72184 -6.53698 0
M  V30 4432 H 415.948 2.95318 -4.8109 0
M  V30 4433 N 415.346 1.54954 0.287554 0
M  V30 4434 C 416.576 1.78622 1.03816 0
M  V30 4435 C 416.984 0.552451 1.80955 0
M  V30 4436 O 416.327 -0.487665 1.77109 0
M  V30 4437 C 416.389 2.94975 2.055 0
M  V30 4438 C 416.053 4.32565 1.47433 0
M  V30 4439 C 417.05 5.12096 0.897436 0
M  V30 4440 C 414.735 4.79195 1.50591 0
M  V30 4441 C 416.729 6.36383 0.359851 0
M  V30 4442 C 414.416 6.03441 0.964459 0
M  V30 4443 C 415.414 6.81872 0.392413 0
M  V30 4444 O 415.102 8.03777 -0.140788 0
M  V30 4445 H 414.834 0.599144 0.313053 0
M  V30 4446 H 417.388 2.02761 0.328225 0
M  V30 4447 H 415.618 2.66493 2.80211 0
M  V30 4448 H 417.307 3.06097 2.6657 0
M  V30 4449 H 418.073 4.77209 0.865841 0
M  V30 4450 H 413.952 4.18167 1.94055 0
M  V30 4451 H 417.496 6.97545 -0.0872951 0
M  V30 4452 H 413.393 6.37813 0.993246 0
M  V30 4453 H 414.161 8.18495 -0.0287617 0
M  V30 4454 N 416.824 -0.551391 1.4764 0
M  V30 4455 C 417.756 -1.67333 1.56628 0
M  V30 4456 C 418.769 -1.56398 0.452045 0
M  V30 4457 O 419.958 -1.6325 0.721926 0
M  V30 4458 C 417.058 -3.05841 1.45994 0
M  V30 4459 C 416.231 -3.42472 2.72088 0
M  V30 4460 C 415.29 -4.60168 2.55209 0
M  V30 4461 O 414.316 -4.64458 3.2904 0
M  V30 4462 N 415.518 -5.57024 1.63416 0
M  V30 4463 H 418.283 -1.60066 2.53375 0
M  V30 4464 H 415.844 -0.738169 1.44093 0
M  V30 4465 H 417.836 -3.8242 1.32428 0
M  V30 4466 H 416.406 -3.07302 0.573071 0
M  V30 4467 H 415.626 -2.55284 3.00373 0
M  V30 4468 H 416.914 -3.63723 3.55785 0
M  V30 4469 H 416.312 -5.56319 1.02594 0
M  V30 4470 H 414.869 -6.32906 1.558 0
M  V30 4471 N 418.302 -1.35869 -0.798587 0
M  V30 4472 C 419.551 -1.28921 -1.5512 0
M  V30 4473 C 419.864 0.13208 -1.95154 0
M  V30 4474 O 421.07 0.323879 -2.69561 0
M  V30 4475 C 419.526 -2.26141 -2.79979 0
M  V30 4476 C 419.134 -3.73658 -2.47151 0
M  V30 4477 C 420.878 -2.28152 -3.57976 0
M  V30 4478 C 418.785 -4.62679 -3.6835 0
M  V30 4479 H 417.715 -0.479031 -0.582276 0
M  V30 4480 H 420.366 -1.61179 -0.877125 0
M  V30 4481 H 418.748 -1.86865 -3.49138 0
M  V30 4482 H 419.922 -4.21616 -1.85947 0
M  V30 4483 H 418.237 -3.74333 -1.82383 0
M  V30 4484 H 420.834 -2.91875 -4.4801 0
M  V30 4485 H 421.177 -1.28748 -3.95891 0
M  V30 4486 H 421.71 -2.65998 -2.95787 0
M  V30 4487 H 418.449 -5.63111 -3.35538 0
M  V30 4488 H 417.969 -4.19442 -4.28752 0
M  V30 4489 H 419.648 -4.78498 -4.35487 0
M  V30 4490 N 419.78 1.02168 -1.19998 0
M  V30 4491 C 420.727 2.10601 -0.944228 0
M  V30 4492 C 421.697 1.65639 0.123664 0
M  V30 4493 O 422.882 1.9079 -0.0199941 0
M  V30 4494 C 420.022 3.41504 -0.496865 0
M  V30 4495 C 419.135 3.99973 -1.63234 0
M  V30 4496 C 418.27 5.18915 -1.13579 0
M  V30 4497 C 417.309 5.69456 -2.24468 0
M  V30 4498 N 416.446 6.79665 -1.76068 0
M  V30 4499 H 421.286 2.31814 -1.8726 0
M  V30 4500 H 418.823 1.13686 -0.933483 0
M  V30 4501 H 420.781 4.16626 -0.218843 0
M  V30 4502 H 419.411 3.2038 0.394508 0
M  V30 4503 H 418.463 3.21997 -2.0254 0
M  V30 4504 H 419.775 4.33492 -2.46752 0
M  V30 4505 H 418.929 6.01222 -0.813429 0
M  V30 4506 H 417.668 4.8695 -0.270434 0
M  V30 4507 H 416.673 4.85757 -2.57526 0
M  V30 4508 H 417.898 6.03459 -3.11472 0
M  V30 4509 H 415.844 6.49538 -0.918516 0
M  V30 4510 H 415.761 7.12349 -2.5317 0
M  V30 4511 H 417.029 7.65549 -1.46817 0
M  V30 4512 N 421.258 1.00505 1.21394 0
M  V30 4513 C 422.488 0.705584 1.94178 0
M  V30 4514 C 422.896 -0.735846 1.74304 0
M  V30 4515 O 422.239 -1.50954 1.04683 0
M  V30 4516 C 422.301 0.94689 3.46806 0
M  V30 4517 C 421.965 2.37517 3.90429 0
M  V30 4518 C 422.962 3.35539 3.97127 0
M  V30 4519 C 420.647 2.71284 4.22742 0
M  V30 4520 C 422.641 4.65395 4.3553 0
M  V30 4521 C 420.328 4.01356 4.60822 0
M  V30 4522 C 421.326 4.98223 4.67186 0
M  V30 4523 O 421.014 6.25969 5.04399 0
M  V30 4524 H 420.746 0.259216 0.624326 0
M  V30 4525 H 423.3 1.34592 1.55159 0
M  V30 4526 H 421.53 0.249386 3.85895 0
M  V30 4527 H 423.219 0.640804 4.0081 0
M  V30 4528 H 423.985 3.10786 3.7234 0
M  V30 4529 H 419.864 1.96581 4.16985 0
M  V30 4530 H 423.408 5.41002 4.40412 0
M  V30 4531 H 419.305 4.25893 4.85063 0
M  V30 4532 H 420.073 6.30085 5.22431 0
M  V30 4533 N 422.737 -1.36956 0.779787 0
M  V30 4534 C 423.647 -2.33965 0.172491 0
M  V30 4535 C 424.663 -1.60574 -0.670222 0
M  V30 4536 O 425.839 -1.92617 -0.588263 0
M  V30 4537 C 422.904 -3.39761 -0.690173 0
M  V30 4538 C 421.965 -4.28964 0.169924 0
M  V30 4539 C 421.198 -5.29707 -0.651662 0
M  V30 4540 O 421.421 -5.38238 -1.88827 0
M  V30 4541 O 420.355 -6.01873 -0.0566264 0
M  V30 4542 H 424.181 -2.87647 0.974321 0
M  V30 4543 H 421.766 -1.39258 0.541078 0
M  V30 4544 H 423.648 -4.04471 -1.1824 0
M  V30 4545 H 422.323 -2.88394 -1.47006 0
M  V30 4546 H 421.23 -3.67326 0.708696 0
M  V30 4547 H 422.563 -4.83656 0.913085 0
M  V30 4548 N 424.215 -0.530993 -1.48385 0
M  V30 4549 C 425.125 0.23503 -2.3342 0
M  V30 4550 C 426.141 0.93801 -1.46552 0
M  V30 4551 O 427.317 0.912745 -1.7953 0
M  V30 4552 C 424.382 1.26778 -3.22689 0
M  V30 4553 C 423.443 0.575038 -4.25431 0
M  V30 4554 C 422.676 1.55858 -5.10435 0
M  V30 4555 O 422.899 2.79129 -4.97437 0
M  V30 4556 O 421.833 1.09742 -5.91811 0
M  V30 4557 H 425.659 -0.461794 -3.00169 0
M  V30 4558 H 423.244 -0.291903 -1.46521 0
M  V30 4559 H 425.126 1.86457 -3.77904 0
M  V30 4560 H 423.801 1.94699 -2.586 0
M  V30 4561 H 422.708 -0.0622782 -3.74048 0
M  V30 4562 H 424.041 -0.062253 -4.92161 0
M  V30 4563 N 425.693 1.55336 -0.266172 0
M  V30 4564 C 426.623 2.25146 0.618981 0
M  V30 4565 C 427.604 1.23845 1.16604 0
M  V30 4566 O 428.789 1.52544 1.20183 0
M  V30 4567 C 425.919 2.96572 1.80728 0
M  V30 4568 C 424.873 4.04726 1.39215 0
M  V30 4569 C 424.199 4.63678 2.66283 0
M  V30 4570 C 425.499 5.19407 0.548942 0
M  V30 4571 H 427.193 2.99377 0.0368116 0
M  V30 4572 H 424.739 1.43991 0.0162651 0
M  V30 4573 H 426.692 3.44116 2.43232 0
M  V30 4574 H 425.416 2.19861 2.41514 0
M  V30 4575 H 424.075 3.57979 0.790351 0
M  V30 4576 H 423.723 3.83646 3.25308 0
M  V30 4577 H 423.423 5.367 2.39222 0
M  V30 4578 H 424.947 5.13967 3.29651 0
M  V30 4579 H 426.361 5.63059 1.07876 0
M  V30 4580 H 424.758 5.98936 0.373593 0
M  V30 4581 H 425.828 4.8295 -0.434394 0
M  V30 4582 N 427.171 -0.0066808 1.57599 0
M  V30 4583 C 428.103 -1.02827 2.04839 0
M  V30 4584 C 429.116 -1.31108 0.965113 0
M  V30 4585 O 430.305 -1.28202 1.24203 0
M  V30 4586 C 427.405 -2.36464 2.42771 0
M  V30 4587 C 426.578 -2.27219 3.73751 0
M  V30 4588 C 425.637 -3.43489 3.98625 0
M  V30 4589 O 424.663 -3.21976 4.69382 0
M  V30 4590 N 425.865 -4.66116 3.46 0
M  V30 4591 H 428.63 -0.625455 2.93101 0
M  V30 4592 H 426.191 -0.194198 1.60731 0
M  V30 4593 H 428.183 -3.13008 2.56531 0
M  V30 4594 H 426.753 -2.68512 1.60063 0
M  V30 4595 H 425.973 -1.35629 3.70133 0
M  V30 4596 H 427.261 -2.18208 4.59633 0
M  V30 4597 H 426.659 -4.86493 2.88688 0
M  V30 4598 H 425.216 -5.39949 3.65101 0
M  V30 4599 N 428.649 -1.55105 -0.279332 0
M  V30 4600 C 429.874 -1.7976 -1.03446 0
M  V30 4601 C 430.299 -0.565952 -1.79384 0
M  V30 4602 O 429.657 0.484259 -1.74713 0
M  V30 4603 C 429.705 -3.0179 -1.97371 0
M  V30 4604 O 428.809 -2.76432 -3.06038 0
M  V30 4605 H 428.15 -0.594334 -0.29608 0
M  V30 4606 H 430.68 -2.02235 -0.310165 0
M  V30 4607 H 430.69 -3.30351 -2.39441 0
M  V30 4608 H 429.365 -3.91085 -1.4151 0
M  V30 4609 H 427.942 -2.58949 -2.68328 0
M  V30 4610 N 430.127 0.543554 -1.4793 0
M  V30 4611 C 431.057 1.65888 -1.64327 0
M  V30 4612 C 432.038 1.62818 -0.492383 0
M  V30 4613 O 433.223 1.80226 -0.723338 0
M  V30 4614 C 430.353 3.04506 -1.67013 0
M  V30 4615 C 429.307 3.2243 -2.81466 0
M  V30 4616 C 428.633 4.61972 -2.69233 0
M  V30 4617 C 429.933 3.06496 -4.22915 0
M  V30 4618 H 431.627 1.52421 -2.57698 0
M  V30 4619 H 429.173 0.731849 -1.24016 0
M  V30 4620 H 431.126 3.82391 -1.77074 0
M  V30 4621 H 429.85 3.18964 -0.70212 0
M  V30 4622 H 428.509 2.46957 -2.70938 0
M  V30 4623 H 428.157 4.73247 -1.7043 0
M  V30 4624 H 427.857 4.74911 -3.46025 0
M  V30 4625 H 429.381 5.41974 -2.81242 0
M  V30 4626 H 430.795 3.74186 -4.34348 0
M  V30 4627 H 429.192 3.30938 -5.006 0
M  V30 4628 H 430.262 2.03077 -4.40327 0
M  V30 4629 N 431.605 1.3629 0.791371 0
M  V30 4630 C 432.568 1.30309 1.88553 0
M  V30 4631 C 433.568 0.211204 1.59407 0
M  V30 4632 O 434.758 0.465865 1.67855 0
M  V30 4633 C 431.89 1.01956 3.25297 0
M  V30 4634 H 433.083 2.27614 1.95273 0
M  V30 4635 H 430.636 1.21035 0.988953 0
M  V30 4636 H 431.371 0.050998 3.2426 0
M  V30 4637 H 431.156 1.80968 3.4784 0
M  V30 4638 H 432.646 1.0037 4.05359 0
M  V30 4639 N 433.083 -1.0153 1.20538 0
M  V30 4640 C 434.331 -1.74803 1.01432 0
M  V30 4641 C 434.652 -1.8963 -0.454456 0
M  V30 4642 O 433.922 -1.43975 -1.32846 0
M  V30 4643 H 432.502 -0.647598 0.372324 0
M  V30 4644 H 435.164 -1.22402 1.5167 0
M  V30 4645 H 434.26 -2.75114 1.47373 0
M  V30 4646 N 434.561 -1.01147 -1.20859 0
M  V30 4647 C 435.508 -0.577354 -2.23462 0
M  V30 4648 C 436.478 0.399922 -1.61214 0
M  V30 4649 O 437.663 0.300515 -1.88419 0
M  V30 4650 C 434.803 0.083372 -3.44999 0
M  V30 4651 C 433.916 -0.937856 -4.21697 0
M  V30 4652 C 433.051 -0.248717 -5.30617 0
M  V30 4653 C 432.09 -1.25705 -5.99053 0
M  V30 4654 N 431.227 -0.594939 -6.99575 0
M  V30 4655 H 436.067 -1.45695 -2.59956 0
M  V30 4656 H 433.604 -0.729428 -1.27741 0
M  V30 4657 H 435.562 0.483535 -4.14388 0
M  V30 4658 H 434.192 0.926645 -3.09214 0
M  V30 4659 H 433.244 -1.45622 -3.51423 0
M  V30 4660 H 434.556 -1.70493 -4.68757 0
M  V30 4661 H 433.71 0.207215 -6.06346 0
M  V30 4662 H 432.449 0.55071 -4.84581 0
M  V30 4663 H 431.454 -1.72343 -5.2209 0
M  V30 4664 H 432.679 -2.05767 -6.47176 0
M  V30 4665 H 430.625 0.184713 -6.5574 0
M  V30 4666 H 430.542 -1.30017 -7.44736 0
M  V30 4667 H 431.81 -0.162427 -7.79331 0
M  V30 4668 N 436.039 1.36541 -0.78704 0
M  V30 4669 C 436.989 2.27459 -0.156957 0
M  V30 4670 C 437.973 1.46843 0.657709 0
M  V30 4671 O 439.165 1.69245 0.518173 0
M  V30 4672 C 436.294 3.35893 0.709278 0
M  V30 4673 C 435.38 4.23947 -0.114049 0
M  V30 4674 N 435.771 4.92145 -1.16736 0
M  V30 4675 C 434.069 4.4587 0.107497 0
M  V30 4676 C 434.77 5.57261 -1.66837 0
M  V30 4677 N 433.746 5.3473 -0.977992 0
M  V30 4678 H 437.548 2.77669 -0.963185 0
M  V30 4679 H 435.062 1.49839 -0.62627 0
M  V30 4680 H 437.059 3.99953 1.17656 0
M  V30 4681 H 435.719 2.87238 1.51408 0
M  V30 4682 H 436.73 4.94169 -1.54976 0
M  V30 4683 H 433.407 4.08056 0.882994 0
M  V30 4684 H 434.797 6.21728 -2.54762 0
M  V30 4685 N 437.518 0.538854 1.48102 0
M  V30 4686 C 438.766 0.00798599 2.02098 0
M  V30 4687 C 439.087 -1.33922 1.41739 0
M  V30 4688 O 438.357 -1.86932 0.585934 0
M  V30 4689 H 436.937 -3.62179e-05 0.747 0
M  V30 4690 H 439.599 0.7047 1.81714 0
M  V30 4691 H 438.695 -0.0937672 3.11959 0
M  V30 4692 N 438.996 -1.55193 0.274407 0
M  V30 4693 C 440.273 -1.91584 -0.394331 0
M  V30 4694 C 440.653 -1.19858 -1.73774 0
M  V30 4695 O 440.001 -0.3252 -2.26174 0
M  V30 4696 C 440.211 -3.4487 -0.535311 0
M  V30 4697 C 441.559 -4.16636 -0.818534 0
M  V30 4698 O 442.583 -3.5076 -0.620146 0
M  V30 4699 O 441.442 -5.33209 -1.19792 0
M  V30 4700 H 438.536 -0.798349 -0.215794 0
M  V30 4701 H 441.082 -1.66646 0.320507 0
M  V30 4702 H 439.854 -3.89145 0.410141 0
M  V30 4703 H 439.477 -3.75759 -1.29964 0
M  V30 4704 N 440.474 -0.00167713 -1.576 0
M  V30 4705 C 441.751 0.719951 -1.81868 0
M  V30 4706 C 442.131 1.91895 -0.879747 0
M  V30 4707 O 441.479 2.28389 0.0711423 0
M  V30 4708 C 441.689 1.12409 -3.30402 0
M  V30 4709 C 443.037 1.52724 -3.96182 0
M  V30 4710 O 444.061 1.21784 -3.34734 0
M  V30 4711 O 442.92 2.10265 -5.04431 0
M  V30 4712 H 440.014 0.350707 -0.748955 0
M  V30 4713 H 442.56 -0.0272597 -1.69678 0
M  V30 4714 H 441.332 0.269532 -3.90371 0
M  V30 4715 H 440.955 1.93035 -3.47596 0
M  V30 4716 N 441.952 1.55251 0.271103 0
M  V30 4717 C 442.882 1.9127 1.33933 0
M  V30 4718 C 443.863 0.77478 1.5143 0
M  V30 4719 O 445.048 1.03307 1.64442 0
M  V30 4720 C 442.178 2.18627 2.69851 0
M  V30 4721 C 441.132 3.34442 2.67081 0
M  V30 4722 C 440.458 3.47284 4.06569 0
M  V30 4723 C 441.758 4.70784 2.26185 0
M  V30 4724 H 443.452 2.80744 1.04035 0
M  V30 4725 H 440.998 1.35077 0.499017 0
M  V30 4726 H 442.951 2.42413 3.44694 0
M  V30 4727 H 441.675 1.25955 3.01335 0
M  V30 4728 H 440.334 3.10627 1.94695 0
M  V30 4729 H 439.982 2.52074 4.35279 0
M  V30 4730 H 439.682 4.25152 4.0561 0
M  V30 4731 H 441.206 3.73363 4.83148 0
M  V30 4732 H 442.62 4.94102 2.90751 0
M  V30 4733 H 441.017 5.51582 2.36384 0
M  V30 4734 H 442.087 4.69478 1.21319 0
M  V30 4735 N 443.43 -0.535701 1.48216 0
M  V30 4736 C 444.846 -0.863701 1.3421 0
M  V30 4737 C 445.046 -1.98458 0.34879 0
M  V30 4738 O 444.102 -2.51432 -0.23204 0
M  V30 4739 C 445.415 -1.23662 2.74095 0
M  V30 4740 C 446.963 -1.34683 2.82541 0
M  V30 4741 C 447.438 -1.75322 4.23115 0
M  V30 4742 N 448.929 -1.82434 4.2576 0
M  V30 4743 C 449.664 -2.15252 5.31464 0
M  V30 4744 N 449.16 -2.46533 6.47452 0
M  V30 4745 N 450.953 -2.16209 5.18855 0
M  V30 4746 H 443.104 0.203965 2.11418 0
M  V30 4747 H 445.367 0.0286033 0.947568 0
M  V30 4748 H 445.073 -0.486674 3.48316 0
M  V30 4749 H 444.947 -2.18805 3.07253 0
M  V30 4750 H 447.334 -2.08756 2.08579 0
M  V30 4751 H 447.415 -0.376756 2.5301 0
M  V30 4752 H 447.059 -1.01812 4.97591 0
M  V30 4753 H 446.989 -2.7337 4.50085 0
M  V30 4754 H 449.48 -1.6056 3.42095 0
M  V30 4755 H 449.793 -2.70662 7.23852 0
M  V30 4756 H 448.138 -2.44065 6.50736 0
M  V30 4757 H 451.329 -1.91224 4.2726 0
M  V30 4758 H 451.502 -2.41453 6.01335 0
M  V30 4759 N 444.908 -1.36708 -0.784132 0
M  V30 4760 C 446.324 -1.17237 -1.08294 0
M  V30 4761 C 446.524 -5.93947e-05 -2.015 0
M  V30 4762 O 445.58 0.663686 -2.43622 0
M  V30 4763 C 446.893 -2.48557 -1.69233 0
M  V30 4764 C 448.441 -2.54968 -1.8155 0
M  V30 4765 C 448.916 -3.86388 -2.45904 0
M  V30 4766 N 450.407 -3.87762 -2.53367 0
M  V30 4767 C 451.142 -4.86191 -3.03983 0
M  V30 4768 N 450.638 -5.95015 -3.54866 0
M  V30 4769 N 452.431 -4.73606 -3.02743 0
M  V30 4770 H 444.582 -2.11758 -0.16501 0
M  V30 4771 H 446.845 -0.93822 -0.135822 0
M  V30 4772 H 446.551 -3.34638 -1.08215 0
M  V30 4773 H 446.425 -2.64748 -2.68679 0
M  V30 4774 H 448.812 -1.69302 -2.41704 0
M  V30 4775 H 448.893 -2.42672 -0.80895 0
M  V30 4776 H 448.537 -4.72462 -1.86392 0
M  V30 4777 H 448.467 -3.95982 -3.4714 0
M  V30 4778 H 450.958 -3.09145 -2.17343 0
M  V30 4779 H 451.271 -6.66086 -3.91854 0
M  V30 4780 H 449.616 -5.98676 -3.53003 0
M  V30 4781 H 452.807 -3.87717 -2.62284 0
M  V30 4782 H 452.98 -5.50473 -3.41881 0
M  V30 4783 N 446.386 1.0089 -1.21074 0
M  V30 4784 C 447.614 1.78191 -1.05145 0
M  V30 4785 C 448.029 1.84537 0.398952 0
M  V30 4786 O 447.386 1.30393 1.27687 0
M  V30 4787 C 447.437 3.22288 -1.63746 0
M  V30 4788 O 447.158 3.16315 -3.03111 0
M  V30 4789 C 448.659 4.16106 -1.52875 0
M  V30 4790 H 445.879 0.560129 -0.369454 0
M  V30 4791 H 448.423 1.26945 -1.60328 0
M  V30 4792 H 446.578 3.70655 -1.12664 0
M  V30 4793 H 446.992 4.06817 -3.31059 0
M  V30 4794 H 448.466 5.15026 -1.98626 0
M  V30 4795 H 448.943 4.36541 -0.482521 0
M  V30 4796 H 449.549 3.73625 -2.03185 0
M  V30 4797 N 447.864 1.01787 1.20321 0
M  V30 4798 C 448.811 0.589197 2.23153 0
M  V30 4799 C 449.781 -0.391367 1.61423 0
M  V30 4800 O 450.966 -0.290518 1.88575 0
M  V30 4801 C 448.106 -0.0650747 3.45039 0
M  V30 4802 C 447.219 0.960207 4.21194 0
M  V30 4803 C 446.354 0.276854 5.30478 0
M  V30 4804 C 445.393 1.2888 5.98378 0
M  V30 4805 N 444.53 0.632031 6.99249 0
M  V30 4806 H 449.37 1.47071 2.59179 0
M  V30 4807 H 446.907 0.736192 1.27352 0
M  V30 4808 H 448.865 -0.461552 4.14639 0
M  V30 4809 H 447.495 -0.910233 3.09701 0
M  V30 4810 H 446.547 1.47484 3.50646 0
M  V30 4811 H 447.859 1.72977 4.67847 0
M  V30 4812 H 447.013 -0.175056 6.06447 0
M  V30 4813 H 445.752 -0.525004 4.84866 0
M  V30 4814 H 444.757 1.75109 5.21169 0
M  V30 4815 H 445.982 2.09196 6.46076 0
M  V30 4816 H 443.928 -0.149935 6.55829 0
M  V30 4817 H 443.845 1.33964 7.44036 0
M  V30 4818 H 445.113 0.203755 7.79234 0
M  V30 4819 N 449.342 -1.36122 0.79427 0
M  V30 4820 C 450.57 -2.03362 0.380989 0
M  V30 4821 C 450.985 -1.59881 -1.00416 0
M  V30 4822 O 450.342 -0.790515 -1.6449 0
M  V30 4823 C 450.393 -3.58804 0.440649 0
M  V30 4824 O 450.114 -4.007 1.77118 0
M  V30 4825 C 451.615 -4.43296 0.0186117 0
M  V30 4826 H 448.835 -0.652526 0.156367 0
M  V30 4827 H 451.379 -1.73998 1.07447 0
M  V30 4828 H 449.534 -3.8686 -0.204458 0
M  V30 4829 H 449.948 -4.95309 1.72538 0
M  V30 4830 H 451.422 -5.51887 0.111488 0
M  V30 4831 H 451.899 -4.2684 -1.03461 0
M  V30 4832 H 452.505 -4.20512 0.636395 0
M  V30 4833 N 450.82 -0.546701 -1.47814 0
M  V30 4834 C 451.73 0.21026 -2.33656 0
M  V30 4835 C 452.746 0.922413 -1.47538 0
M  V30 4836 O 453.922 0.893652 -1.80488 0
M  V30 4837 C 450.987 1.23348 -3.24016 0
M  V30 4838 C 450.048 0.529883 -4.26017 0
M  V30 4839 C 449.281 1.50435 -5.12059 0
M  V30 4840 O 449.504 2.73837 -5.00369 0
M  V30 4841 O 448.438 1.03459 -5.92942 0
M  V30 4842 H 452.264 -0.493605 -2.99662 0
M  V30 4843 H 449.849 -0.307427 -1.46203 0
M  V30 4844 H 451.731 1.82438 -3.79861 0
M  V30 4845 H 450.406 1.91945 -2.60651 0
M  V30 4846 H 449.313 -0.101948 -3.73961 0
M  V30 4847 H 450.646 -0.11445 -4.92067 0
M  V30 4848 N 452.299 1.55045 -0.282633 0
M  V30 4849 C 453.548 1.98938 0.332667 0
M  V30 4850 C 453.861 1.17455 1.56409 0
M  V30 4851 O 455.067 1.51527 2.25282 0
M  V30 4852 C 453.523 3.54105 0.643226 0
M  V30 4853 C 453.131 4.44374 -0.568814 0
M  V30 4854 C 454.875 4.06569 1.22074 0
M  V30 4855 C 452.782 5.90943 -0.232426 0
M  V30 4856 H 451.712 0.743043 0.128075 0
M  V30 4857 H 454.363 1.79341 -0.388464 0
M  V30 4858 H 452.745 3.69532 1.42346 0
M  V30 4859 H 453.919 4.40718 -1.34551 0
M  V30 4860 H 452.234 4.02585 -1.06369 0
M  V30 4861 H 454.831 5.13626 1.48635 0
M  V30 4862 H 455.174 3.56057 2.15707 0
M  V30 4863 H 455.707 3.94612 0.502621 0
M  V30 4864 H 452.446 6.45567 -1.13683 0
M  V30 4865 H 451.966 5.9765 0.507357 0
M  V30 4866 H 453.645 6.4677 0.172657 0
M  V30 4867 N 453.777 0.010035 1.57597 0
M  V30 4868 C 455.002 -0.687021 1.95691 0
M  V30 4869 C 455.427 -1.65952 0.885519 0
M  V30 4870 O 454.785 -1.80633 -0.15543 0
M  V30 4871 C 454.833 -1.3864 3.32884 0
M  V30 4872 O 453.937 -2.50115 3.27897 0
M  V30 4873 H 453.278 -0.181989 0.638573 0
M  V30 4874 H 455.808 0.0662122 2.04493 0
M  V30 4875 H 455.818 -1.74754 3.6868 0
M  V30 4876 H 454.493 -0.673411 4.10412 0
M  V30 4877 H 453.07 -2.16253 3.03791 0
M  V30 4878 N 455.255 -1.55392 -0.262866 0
M  V30 4879 C 456.165 -1.92077 -1.34698 0
M  V30 4880 C 457.181 -0.819227 -1.53508 0
M  V30 4881 O 458.357 -1.11921 -1.67439 0
M  V30 4882 C 455.422 -2.19407 -2.68443 0
M  V30 4883 C 454.483 -3.42905 -2.58292 0
M  V30 4884 C 453.716 -3.68921 -3.85659 0
M  V30 4885 O 453.939 -2.97275 -4.8681 0
M  V30 4886 O 452.873 -4.62455 -3.85252 0
M  V30 4887 H 456.699 -2.84384 -1.06581 0
M  V30 4888 H 454.284 -1.42069 -0.462264 0
M  V30 4889 H 456.166 -2.38365 -3.47506 0
M  V30 4890 H 454.841 -1.30282 -2.96325 0
M  V30 4891 H 453.748 -3.29272 -1.7757 0
M  V30 4892 H 455.081 -4.32282 -2.35358 0
M  V30 4893 N 456.733 0.527833 -1.48498 0
M  V30 4894 C 457.666 1.64892 -1.57753 0
M  V30 4895 C 458.644 1.5687 -0.427867 0
M  V30 4896 O 459.828 1.77311 -0.639764 0
M  V30 4897 C 456.955 3.03301 -1.50752 0
M  V30 4898 C 456.001 3.29675 -2.70586 0
M  V30 4899 S 456.834 3.15712 -4.32535 0
M  V30 4900 C 457.99 4.56564 -4.28136 0
M  V30 4901 H 458.223 1.56792 -2.52594 0
M  V30 4902 H 455.756 0.710959 -1.37057 0
M  V30 4903 H 457.714 3.83123 -1.474 0
M  V30 4904 H 456.375 3.08839 -0.572454 0
M  V30 4905 H 455.568 4.3065 -2.61833 0
M  V30 4906 H 455.17 2.57526 -2.71212 0
M  V30 4907 H 457.462 5.48126 -3.98201 0
M  V30 4908 H 458.405 4.70371 -5.29298 0
M  V30 4909 H 458.813 4.35987 -3.58574 0
M  V30 4910 N 458.211 1.37122 0.776871 0
M  V30 4911 C 459.159 1.32549 1.91138 0
M  V30 4912 C 460.153 0.215119 1.68029 0
M  V30 4913 O 461.359 0.382852 1.75881 0
M  V30 4914 H 457.734 0.412952 0.62847 0
M  V30 4915 H 459.705 2.28332 1.92112 0
M  V30 4916 C 458.454 1.14422 3.28333 0
M  V30 4917 H 457.777 1.99115 3.46689 0
M  V30 4918 H 459.217 1.15272 4.0803 0
M  V30 4919 C 457.676 -0.150434 3.36564 0
M  V30 4920 O 458.206 -1.13584 3.85307 0
M  V30 4921 N 456.412 -0.19939 2.89915 0
M  V30 4922 H 455.959 0.603142 2.5044 0
M  V30 4923 H 455.917 -1.06526 2.95803 0
M  V30 4924 N 459.689 -1.00246 1.21608 0
M  V30 4925 C 461.105 -1.26435 0.973975 0
M  V30 4926 C 461.305 -1.98642 -0.338143 0
M  V30 4927 O 460.361 -2.29026 -1.06317 0
M  V30 4928 C 461.674 -2.08551 2.16626 0
M  V30 4929 C 463.222 -2.21769 2.20879 0
M  V30 4930 C 463.697 -3.07267 3.39633 0
M  V30 4931 N 465.188 -3.14855 3.39736 0
M  V30 4932 C 465.923 -3.81274 4.28273 0
M  V30 4933 N 465.419 -4.497 5.27012 0
M  V30 4934 N 467.212 -3.7794 4.16074 0
M  V30 4935 H 459.363 -0.518089 2.05984 0
M  V30 4936 H 461.626 -0.291368 0.902113 0
M  V30 4937 H 461.332 -1.62847 3.11727 0
M  V30 4938 H 461.206 -3.09303 2.15897 0
M  V30 4939 H 463.593 -2.66691 1.26332 0
M  V30 4940 H 463.674 -1.20478 2.25652 0
M  V30 4941 H 463.318 -2.63047 4.34475 0
M  V30 4942 H 463.248 -4.08678 3.321 0
M  V30 4943 H 465.739 -2.66147 2.6828 0
M  V30 4944 H 466.052 -4.98092 5.90867 0
M  V30 4945 H 464.397 -4.48479 5.30935 0
M  V30 4946 H 467.588 -3.23638 3.38195 0
M  V30 4947 H 467.761 -4.29424 4.85282 0
M  V30 4948 N 461.167 -1.02423 -1.1978 0
M  V30 4949 C 462.115 -0.594474 -2.24875 0
M  V30 4950 C 463.109 0.370598 -1.65296 0
M  V30 4951 O 464.315 0.239684 -1.78397 0
M  V30 4952 H 460.69 -0.173961 -0.731602 0
M  V30 4953 H 462.661 -1.4916 -2.58445 0
M  V30 4954 C 461.41 0.0436512 -3.47673 0
M  V30 4955 H 460.733 -0.689963 -3.93801 0
M  V30 4956 H 462.173 0.307362 -4.22884 0
M  V30 4957 C 460.632 1.28881 -3.11274 0
M  V30 4958 O 461.162 2.38135 -3.23503 0
M  V30 4959 N 459.368 1.1758 -2.6575 0
M  V30 4960 H 458.915 0.286769 -2.55999 0
M  V30 4961 H 458.873 2.00988 -2.41767 0
M  V30 4962 N 462.645 1.35699 -0.801477 0
M  V30 4963 C 463.894 1.98165 -0.375979 0
M  V30 4964 C 464.207 1.64306 1.06127 0
M  V30 4965 O 465.413 2.20097 1.58964 0
M  V30 4966 C 463.869 3.54497 -0.621305 0
M  V30 4967 C 463.477 3.9727 -2.07076 0
M  V30 4968 C 465.221 4.23697 -0.26091 0
M  V30 4969 C 463.128 5.46427 -2.26211 0
M  V30 4970 H 462.058 0.741478 -0.136844 0
M  V30 4971 H 464.709 1.54834 -0.984814 0
M  V30 4972 H 463.091 3.95958 0.0574112 0
M  V30 4973 H 464.265 3.66974 -2.78687 0
M  V30 4974 H 462.58 3.40943 -2.39054 0
M  V30 4975 H 465.177 5.33334 -0.381994 0
M  V30 4976 H 465.52 4.0869 0.792344 0
M  V30 4977 H 466.053 3.87639 -0.893339 0
M  V30 4978 H 462.792 5.66396 -3.29963 0
M  V30 4979 H 462.312 5.78309 -1.59119 0
M  V30 4980 H 463.991 6.12819 -2.07513 0
M  V30 4981 N 464.123 0.554532 1.47522 0
M  V30 4982 C 465.348 0.0322661 2.07375 0
M  V30 4983 C 465.773 -1.25079 1.40488 0
M  V30 4984 O 465.131 -1.74859 0.47896 0
M  V30 4985 C 465.179 -0.149397 3.6029 0
M  V30 4986 O 464.283 -1.21259 3.9417 0
M  V30 4987 H 463.624 0.0501228 0.662106 0
M  V30 4988 H 466.154 0.769452 1.8958 0
M  V30 4989 H 466.164 -0.364437 4.06369 0
M  V30 4990 H 464.839 0.787743 4.08372 0
M  V30 4991 H 463.416 -0.97825 3.5984 0
M  V30 4992 N 465.601 -1.54893 0.290851 0
M  V30 4993 C 467.017 -1.59476 -0.0628432 0
M  V30 4994 C 467.217 -1.30795 -1.5328 0
M  V30 4995 O 466.273 -1.07644 -2.28406 0
M  V30 4996 C 467.586 -2.98928 0.325962 0
M  V30 4997 C 469.134 -3.11799 0.273882 0
M  V30 4998 C 469.609 -4.53544 0.637359 0
M  V30 4999 N 471.1 -4.59433 0.589507 0
M  V30 5000 C 471.835 -5.67164 0.84335 0
M  V30 5001 N 471.331 -6.82975 1.16263 0
M  V30 5002 N 473.124 -5.56786 0.771091 0
M  V30 5003 H 465.275 -1.71798 1.24896 0
M  V30 5004 H 467.538 -0.801879 0.505663 0
M  V30 5005 H 467.244 -3.24805 1.34887 0
M  V30 5006 H 467.118 -3.75793 -0.325441 0
M  V30 5007 H 469.505 -2.85677 -0.739765 0
M  V30 5008 H 469.586 -2.37112 0.959766 0
M  V30 5009 H 469.23 -4.80394 1.64877 0
M  V30 5010 H 469.16 -5.26553 -0.0704866 0
M  V30 5011 H 471.651 -3.76245 0.353252 0
M  V30 5012 H 471.964 -7.61048 1.34257 0
M  V30 5013 H 470.309 -6.84552 1.20057 0
M  V30 5014 H 473.5 -4.65187 0.521383 0
M  V30 5015 H 473.673 -6.40664 0.972295 0
M  V30 5016 N 467.08 -0.0183926 -1.57589 0
M  V30 5017 C 468.01 0.965596 -2.12599 0
M  V30 5018 C 468.991 1.34641 -1.0395 0
M  V30 5019 O 470.176 1.42693 -1.31729 0
M  V30 5020 C 467.306 2.25149 -2.64434 0
M  V30 5021 C 466.26 2.01175 -3.77773 0
M  V30 5022 C 465.586 3.35937 -4.15994 0
M  V30 5023 C 466.886 1.35953 -5.04296 0
M  V30 5024 H 468.58 0.507504 -2.95067 0
M  V30 5025 H 466.126 0.242671 -1.41941 0
M  V30 5026 H 468.079 2.94357 -3.01549 0
M  V30 5027 H 466.803 2.73105 -1.79112 0
M  V30 5028 H 465.462 1.34388 -3.4108 0
M  V30 5029 H 465.11 3.81631 -3.27669 0
M  V30 5030 H 464.81 3.20705 -4.92364 0
M  V30 5031 H 466.334 4.0643 -4.55683 0
M  V30 5032 H 467.748 1.95144 -5.39065 0
M  V30 5033 H 466.145 1.31152 -5.85593 0
M  V30 5034 H 467.215 0.331071 -4.83768 0
M  V30 5035 N 468.558 1.5553 0.254621 0
M  V30 5036 C 469.49 1.86104 1.33783 0
M  V30 5037 C 470.503 0.746752 1.44663 0
M  V30 5038 O 471.692 1.0248 1.46151 0
M  V30 5039 C 468.792 2.02532 2.71724 0
M  V30 5040 C 467.965 3.33335 2.83208 0
M  V30 5041 C 467.024 3.396 4.01943 0
M  V30 5042 O 466.05 4.12862 3.91834 0
M  V30 5043 N 467.252 2.68332 5.1476 0
M  V30 5044 H 470.017 2.79605 1.07893 0
M  V30 5045 H 467.578 1.55672 0.444732 0
M  V30 5046 H 469.57 2.04074 3.4948 0
M  V30 5047 H 468.14 1.15811 2.90356 0
M  V30 5048 H 467.36 3.44176 1.92189 0
M  V30 5049 H 468.648 4.19565 2.87824 0
M  V30 5050 H 468.046 2.08528 5.25864 0
M  V30 5051 H 466.603 2.75575 5.90679 0
M  V30 5052 N 470.036 -0.519951 1.48776 0
M  V30 5053 C 470.999 -1.60574 1.6355 0
M  V30 5054 C 471.999 -1.52557 0.508234 0
M  V30 5055 O 473.189 -1.56047 0.774262 0
M  V30 5056 C 470.321 -3.00211 1.61512 0
M  V30 5057 H 471.514 -1.4881 2.60376 0
M  V30 5058 H 469.067 -0.742772 1.37523 0
M  V30 5059 H 469.802 -3.17471 0.662009 0
M  V30 5060 H 469.587 -3.07439 2.43359 0
M  V30 5061 H 471.077 -3.79134 1.75064 0
M  V30 5062 N 471.514 -1.37532 -0.769588 0
M  V30 5063 C 472.424 -1.35668 -1.91393 0
M  V30 5064 C 473.44 -0.255954 -1.72107 0
M  V30 5065 O 474.616 -0.491704 -1.95305 0
M  V30 5066 C 471.681 -1.16481 -3.26547 0
M  V30 5067 C 470.742 -2.36212 -3.58472 0
M  V30 5068 C 469.975 -2.17932 -4.87177 0
M  V30 5069 O 470.198 -1.1647 -5.58382 0
M  V30 5070 O 469.132 -3.06167 -5.18214 0
M  V30 5071 H 472.958 -2.32055 -1.95918 0
M  V30 5072 H 470.543 -1.18284 -0.912641 0
M  V30 5073 H 472.425 -1.07778 -4.07384 0
M  V30 5074 H 471.1 -0.231687 -3.2287 0
M  V30 5075 H 470.007 -2.50488 -2.77861 0
M  V30 5076 H 471.34 -3.281 -3.66894 0
M  V30 5077 N 472.992 0.995999 -1.22138 0
M  V30 5078 C 474.241 1.72928 -1.03821 0
M  V30 5079 C 474.554 1.90872 0.427444 0
M  V30 5080 O 475.76 2.61496 0.730212 0
M  V30 5081 C 474.216 3.11124 -1.80913 0
M  V30 5082 C 473.824 3.01122 -3.31707 0
M  V30 5083 C 475.568 3.8852 -1.71035 0
M  V30 5084 C 473.475 4.34453 -4.01253 0
M  V30 5085 H 472.405 0.648376 -0.384869 0
M  V30 5086 H 475.056 1.11213 -1.45959 0
M  V30 5087 H 473.438 3.73503 -1.31573 0
M  V30 5088 H 474.612 2.47926 -3.88419 0
M  V30 5089 H 472.927 2.3721 -3.42228 0
M  V30 5090 H 475.524 4.872 -2.20318 0
M  V30 5091 H 475.867 4.1087 -0.670196 0
M  V30 5092 H 476.4 3.32812 -2.17902 0
M  V30 5093 H 473.139 4.17303 -5.05508 0
M  V30 5094 H 472.659 4.87574 -3.49331 0
M  V30 5095 H 474.338 5.03215 -4.06674 0
M  V30 5096 N 474.47 1.03057 1.19235 0
M  V30 5097 C 475.38 0.622922 2.26179 0
M  V30 5098 C 476.396 -0.346113 1.70523 0
M  V30 5099 O 477.572 -0.203572 2.00369 0
M  V30 5100 C 474.637 -0.0182063 3.46695 0
M  V30 5101 C 473.698 0.998546 4.17526 0
M  V30 5102 C 472.931 0.387917 5.32288 0
M  V30 5103 O 473.154 -0.808668 5.64639 0
M  V30 5104 O 472.088 1.1116 5.91546 0
M  V30 5105 H 475.914 1.51363 2.63292 0
M  V30 5106 H 473.499 0.800856 1.26122 0
M  V30 5107 H 475.381 -0.375606 4.19723 0
M  V30 5108 H 474.056 -0.882895 3.11427 0
M  V30 5109 H 472.963 1.40756 3.4661 0
M  V30 5110 H 474.296 1.83366 4.56769 0
M  V30 5111 N 475.948 -1.35272 0.808662 0
M  V30 5112 C 477.196 -1.98316 0.389233 0
M  V30 5113 C 477.517 -1.64465 -1.04767 0
M  V30 5114 O 476.787 -0.928175 -1.72516 0
M  V30 5115 H 475.367 -0.733585 0.140935 0
M  V30 5116 H 478.029 -1.6515 1.03496 0
M  V30 5117 H 477.125 -3.08123 0.496631 0
M  V30 5118 N 477.426 -0.562348 -1.47226 0
M  V30 5119 C 478.356 0.170627 -2.32876 0
M  V30 5120 C 479.337 0.903748 -1.44106 0
M  V30 5121 O 480.522 0.883206 -1.72954 0
M  V30 5122 C 477.652 1.19786 -3.25989 0
M  V30 5123 C 476.606 0.580875 -4.2404 0
M  V30 5124 C 475.932 1.71311 -5.06514 0
M  V30 5125 C 477.232 -0.468714 -5.20193 0
M  V30 5126 H 478.926 -0.544441 -2.94408 0
M  V30 5127 H 476.472 -0.263271 -1.41573 0
M  V30 5128 H 478.425 1.71884 -3.84752 0
M  V30 5129 H 477.149 1.94294 -2.62521 0
M  V30 5130 H 475.808 0.0811538 -3.6651 0
M  V30 5131 H 475.456 2.44736 -4.39447 0
M  V30 5132 H 475.156 1.30604 -5.72902 0
M  V30 5133 H 476.68 2.23725 -5.68137 0
M  V30 5134 H 478.094 -0.0336028 -5.7329 0
M  V30 5135 H 476.491 -0.794957 -5.94811 0
M  V30 5136 H 477.561 -1.36269 -4.65359 0
M  V30 5137 N 478.904 1.54736 -0.299062 0
M  V30 5138 C 479.851 2.23448 0.577899 0
M  V30 5139 C 480.821 1.21637 1.13109 0
M  V30 5140 O 482.006 1.50252 1.17597 0
M  V30 5141 C 479.146 2.9774 1.74484 0
M  V30 5142 C 478.259 4.1432 1.22323 0
M  V30 5143 C 477.394 4.76199 2.35388 0
M  V30 5144 C 476.433 5.84927 1.80351 0
M  V30 5145 N 475.57 6.4077 2.86982 0
M  V30 5146 H 480.41 2.97996 -0.0146545 0
M  V30 5147 H 477.947 1.47088 -0.0190013 0
M  V30 5148 H 479.905 3.39045 2.43114 0
M  V30 5149 H 478.535 2.25572 2.30905 0
M  V30 5150 H 477.587 3.7797 0.429249 0
M  V30 5151 H 478.899 4.92659 0.780309 0
M  V30 5152 H 478.053 5.20346 3.11969 0
M  V30 5153 H 476.792 3.97188 2.83006 0
M  V30 5154 H 475.797 5.40207 1.02259 0
M  V30 5155 H 477.022 6.65821 1.3364 0
M  V30 5156 H 474.968 5.64643 3.33938 0
M  V30 5157 H 474.885 7.1445 2.4718 0
M  V30 5158 H 476.153 6.89574 3.63466 0
M  V30 5159 N 480.382 0.0267497 1.57577 0
M  V30 5160 C 481.63 -0.651116 1.91324 0
M  V30 5161 C 481.951 -1.72804 0.90353 0
M  V30 5162 O 481.221 -1.95822 -0.0552946 0
M  V30 5163 H 479.801 -0.243491 0.706202 0
M  V30 5164 H 482.463 0.0739935 1.94759 0
M  V30 5165 H 481.559 -1.10536 2.9187 0
M  V30 5166 N 481.861 -1.55662 -0.24637 0
M  V30 5167 C 482.793 -1.86811 -1.32794 0
M  V30 5168 C 483.806 -0.754413 -1.44265 0
M  V30 5169 O 484.995 -1.03253 -1.45606 0
M  V30 5170 C 482.095 -2.0397 -2.70646 0
M  V30 5171 C 481.268 -3.34832 -2.81436 0
M  V30 5172 C 480.327 -3.41727 -4.00136 0
M  V30 5173 O 479.353 -4.14934 -3.89639 0
M  V30 5174 N 480.555 -2.71058 -5.1333 0
M  V30 5175 H 483.32 -2.80174 -1.06409 0
M  V30 5176 H 480.881 -1.55906 -0.43647 0
M  V30 5177 H 482.873 -2.05924 -3.48393 0
M  V30 5178 H 481.443 -1.1735 -2.89738 0
M  V30 5179 H 480.663 -3.4519 -1.90361 0
M  V30 5180 H 481.951 -4.21085 -2.85595 0
M  V30 5181 H 481.349 -2.11314 -5.2475 0
M  V30 5182 H 479.906 -2.78704 -5.89209 0
M  V30 5183 N 483.339 0.512053 -1.4905 0
M  V30 5184 C 484.755 0.84224 -1.35567 0
M  V30 5185 C 484.955 1.97878 -0.380319 0
M  V30 5186 O 484.011 2.51769 0.19201 0
M  V30 5187 C 485.324 1.19286 -2.76028 0
M  V30 5188 C 486.872 1.30171 -2.84648 0
M  V30 5189 C 487.347 1.68568 -4.25851 0
M  V30 5190 N 488.838 1.75638 -4.28609 0
M  V30 5191 C 489.573 2.06769 -5.34821 0
M  V30 5192 N 489.069 2.36201 -6.51292 0
M  V30 5193 N 490.862 2.07927 -5.22229 0
M  V30 5194 H 483.013 -0.237574 -2.11067 0
M  V30 5195 H 485.276 -0.0436747 -0.946993 0
M  V30 5196 H 484.982 0.431199 -3.49047 0
M  V30 5197 H 484.856 2.13889 -3.10695 0
M  V30 5198 H 487.243 2.05411 -2.11873 0
M  V30 5199 H 487.324 0.336457 -2.53578 0
M  V30 5200 H 486.968 0.938824 -4.99148 0
M  V30 5201 H 486.898 2.66174 -4.54377 0
M  V30 5202 H 489.389 1.55097 -3.44606 0
M  V30 5203 H 489.702 2.59112 -7.28066 0
M  V30 5204 H 488.047 2.33681 -6.54536 0
M  V30 5205 H 491.238 1.84403 -4.30248 0
M  V30 5206 H 491.411 2.31856 -6.05101 0
M  V30 5207 N 484.817 1.37938 0.762283 0
M  V30 5208 C 485.78 1.34279 1.85747 0
M  V30 5209 C 486.78 0.244969 1.58923 0
M  V30 5210 O 487.97 0.501365 1.66829 0
M  V30 5211 C 485.102 1.08833 3.23061 0
M  V30 5212 H 486.295 2.31705 1.90401 0
M  V30 5213 H 483.848 1.23105 0.963057 0
M  V30 5214 H 484.583 0.119767 3.24079 0
M  V30 5215 H 484.368 1.88306 3.43923 0
M  V30 5216 H 485.858 1.08946 4.03138 0
M  V30 5217 N 486.295 -0.989507 1.22664 0
M  V30 5218 C 487.52 -1.77031 1.08051 0
M  V30 5219 C 487.945 -1.84535 -0.364483 0
M  V30 5220 O 487.303 -1.3003 -1.2634 0
M  V30 5221 C 487.351 -3.18 1.70024 0
M  V30 5222 O 486.455 -4.01161 0.956216 0
M  V30 5223 H 485.796 -0.545008 0.379292 0
M  V30 5224 H 488.326 -1.24277 1.62531 0
M  V30 5225 H 488.336 -3.68616 1.74888 0
M  V30 5226 H 487.011 -3.11853 2.75174 0
M  V30 5227 H 485.588 -3.59687 0.98384 0
M  V30 5228 N 487.773 -1.03688 -1.18687 0
M  V30 5229 C 488.703 -0.645407 -2.24403 0
M  V30 5230 C 489.684 0.349511 -1.66471 0
M  V30 5231 O 490.869 0.230453 -1.92828 0
M  V30 5232 C 487.999 -0.00365337 -3.473 0
M  V30 5233 C 486.953 -0.921705 -4.17958 0
M  V30 5234 C 486.279 -0.144629 -5.34504 0
M  V30 5235 C 487.579 -2.23909 -4.71871 0
M  V30 5236 H 489.273 -1.52917 -2.57404 0
M  V30 5237 H 486.819 -0.736711 -1.23728 0
M  V30 5238 H 488.772 0.281908 -4.20456 0
M  V30 5239 H 487.496 0.914963 -3.13522 0
M  V30 5240 H 486.155 -1.19159 -3.46694 0
M  V30 5241 H 485.803 0.776274 -4.96974 0
M  V30 5242 H 485.503 -0.756206 -5.82714 0
M  V30 5243 H 487.027 0.134004 -6.10453 0
M  V30 5244 H 488.441 -2.0145 -5.36741 0
M  V30 5245 H 486.838 -2.8033 -5.30599 0
M  V30 5246 H 487.908 -2.88822 -3.895 0
M  V30 5247 N 489.251 1.34841 -0.815825 0
M  V30 5248 C 490.161 2.33425 -0.234462 0
M  V30 5249 C 491.177 1.62295 0.627413 0
M  V30 5250 O 492.353 1.94109 0.536987 0
M  V30 5251 C 489.418 3.41471 0.599849 0
M  V30 5252 C 488.479 4.28362 -0.283596 0
M  V30 5253 C 487.712 5.31248 0.51099 0
M  V30 5254 O 487.935 5.43056 1.7449 0
M  V30 5255 O 486.869 6.01812 -0.10297 0
M  V30 5256 H 490.695 2.84962 -1.05024 0
M  V30 5257 H 488.28 1.37774 -0.577809 0
M  V30 5258 H 490.162 4.07464 1.07475 0
M  V30 5259 H 488.837 2.9219 1.39308 0
M  V30 5260 H 487.744 3.65318 -0.805836 0
M  V30 5261 H 489.077 4.81066 -1.041 0
M  V30 5262 N 490.729 0.570148 1.46925 0
M  V30 5263 C 491.692 -0.159933 2.28641 0
M  V30 5264 C 492.692 -0.830638 1.37685 0
M  V30 5265 O 493.882 -0.684516 1.60187 0
M  V30 5266 C 491.014 -1.2354 3.17727 0
M  V30 5267 H 492.207 0.558035 2.94662 0
M  V30 5268 H 489.76 0.327603 1.52828 0
M  V30 5269 H 490.495 -1.98535 2.56426 0
M  V30 5270 H 490.28 -0.759125 3.84681 0
M  V30 5271 H 491.77 -1.74782 3.79264 0
M  V30 5272 N 492.207 -1.54576 0.307264 0
M  V30 5273 C 493.17 -2.22423 -0.553224 0
M  V30 5274 C 494.17 -1.21231 -1.05639 0
M  V30 5275 O 495.36 -1.45923 -0.951419 0
M  V30 5276 C 492.492 -2.91552 -1.76664 0
M  V30 5277 H 493.685 -2.99874 0.0396484 0
M  V30 5278 H 491.238 -1.56192 0.0581629 0
M  V30 5279 H 491.973 -2.18196 -2.39918 0
M  V30 5280 H 491.758 -3.65738 -1.41343 0
M  V30 5281 H 493.248 -3.43292 -2.37783 0
M  V30 5282 N 493.685 -0.035106 -1.57561 0
M  V30 5283 C 494.934 0.641604 -1.91223 0
M  V30 5284 C 495.247 1.72944 -0.913761 0
M  V30 5285 O 496.453 2.46321 -1.14185 0
M  V30 5286 C 494.909 1.19249 -3.3957 0
M  V30 5287 C 494.517 0.137616 -4.47789 0
M  V30 5288 C 496.261 1.84537 -3.82291 0
M  V30 5289 C 494.168 0.700478 -5.87237 0
M  V30 5290 H 493.098 0.243417 -0.713627 0
M  V30 5291 H 495.749 -0.101382 -1.8322 0
M  V30 5292 H 494.131 1.98728 -3.42525 0
M  V30 5293 H 495.305 -0.635153 -4.56402 0
M  V30 5294 H 493.62 -0.416855 -4.14308 0
M  V30 5295 H 496.217 2.27616 -4.83834 0
M  V30 5296 H 496.56 2.69054 -3.17672 0
M  V30 5297 H 497.093 1.11739 -3.81784 0
M  V30 5298 H 493.832 -0.106693 -6.55413 0
M  V30 5299 H 493.352 1.4416 -5.82218 0
M  V30 5300 H 495.031 1.18837 -6.35993 0
M  V30 5301 N 495.163 1.55791 0.238111 0
M  V30 5302 C 496.126 1.90239 1.27835 0
M  V30 5303 C 497.126 0.779552 1.4064 0
M  V30 5304 O 498.316 1.04747 1.3919 0
M  V30 5305 C 495.448 2.13859 2.65475 0
M  V30 5306 H 496.641 2.83262 0.985034 0
M  V30 5307 H 494.194 1.48818 0.477799 0
M  V30 5308 H 494.929 1.23334 2.99932 0
M  V30 5309 H 494.714 2.95643 2.57561 0
M  V30 5310 H 496.204 2.41664 3.40571 0
M  V30 5311 N 496.642 -0.504142 1.49319 0
M  V30 5312 C 497.919 -1.26548 1.49147 0
M  V30 5313 C 498.299 -2.09977 0.21744 0
M  V30 5314 O 497.647 -2.14028 -0.800269 0
M  V30 5315 C 497.857 -2.12489 2.76857 0
M  V30 5316 C 499.205 -2.7178 3.26222 0
M  V30 5317 O 500.229 -2.22758 2.77952 0
M  V30 5318 O 499.088 -3.61015 4.10281 0
M  V30 5319 H 496.182 -0.572495 0.596806 0
M  V30 5320 H 498.728 -0.51867 1.61579 0
M  V30 5321 H 497.5 -1.50796 3.61077 0
M  V30 5322 H 497.123 -2.94368 2.6727 0
M  V30 5323 N 498.12 -1.38341 -0.754957 0
M  V30 5324 C 499.083 -1.35262 -1.85032 0
M  V30 5325 C 500.083 -0.253393 -1.58791 0
M  V30 5326 O 501.273 -0.510205 -1.66561 0
M  V30 5327 C 498.405 -1.10544 -3.22479 0
M  V30 5328 H 499.598 -2.32712 -1.8917 0
M  V30 5329 H 497.151 -1.23614 -0.956515 0
M  V30 5330 H 497.886 -0.136952 -3.24011 0
M  V30 5331 H 497.671 -1.90127 -3.4292 0
M  V30 5332 H 499.161 -1.11082 -4.02555 0
M  V30 5333 N 499.598 0.982988 -1.23187 0
M  V30 5334 C 500.508 2.10907 -1.02739 0
M  V30 5335 C 501.524 1.73979 0.0273188 0
M  V30 5336 O 502.7 2.00702 -0.16757 0
M  V30 5337 C 499.765 3.41142 -0.618304 0
M  V30 5338 C 498.826 3.92112 -1.74777 0
M  V30 5339 C 498.059 5.16131 -1.3581 0
M  V30 5340 O 498.282 5.6989 -0.241201 0
M  V30 5341 O 497.216 5.61103 -2.17824 0
M  V30 5342 H 501.042 2.31046 -1.97108 0
M  V30 5343 H 498.627 1.09284 -1.01869 0
M  V30 5344 H 500.509 4.19488 -0.400982 0
M  V30 5345 H 499.184 3.2234 0.296421 0
M  V30 5346 H 498.091 3.14895 -2.0197 0
M  V30 5347 H 499.424 4.15364 -2.64071 0
M  V30 5348 N 501.076 1.04316 1.18135 0
M  V30 5349 C 502.008 0.594444 2.21357 0
M  V30 5350 C 503.021 -0.337215 1.59269 0
M  V30 5351 O 504.21 -0.131337 1.78016 0
M  V30 5352 C 501.31 -0.151251 3.38562 0
M  V30 5353 C 500.483 0.788907 4.30227 0
M  V30 5354 C 499.542 0.0860572 5.2613 0
M  V30 5355 O 498.568 0.717302 5.64662 0
M  V30 5356 N 499.77 -1.17969 5.68387 0
M  V30 5357 H 502.535 1.48227 2.60478 0
M  V30 5358 H 500.096 0.92396 1.32946 0
M  V30 5359 H 502.088 -0.631352 3.99745 0
M  V30 5360 H 500.658 -0.940639 2.98112 0
M  V30 5361 H 499.878 1.44882 3.6661 0
M  V30 5362 H 501.166 1.42738 4.88368 0
M  V30 5363 H 500.564 -1.71302 5.3914 0
M  V30 5364 H 499.121 -1.60402 6.31755 0
M  V30 5365 N 502.554 -1.34406 0.822964 0
M  V30 5366 C 503.97 -1.51275 0.508727 0
M  V30 5367 C 504.17 -1.76776 -0.967083 0
M  V30 5368 O 503.226 -1.81871 -1.75155 0
M  V30 5369 C 504.539 -2.67765 1.36829 0
M  V30 5370 C 506.087 -2.81647 1.36542 0
M  V30 5371 C 506.562 -4.01181 2.20947 0
M  V30 5372 N 508.053 -4.08388 2.18571 0
M  V30 5373 C 508.788 -5.00036 2.80627 0
M  V30 5374 N 508.284 -5.96906 3.51674 0
M  V30 5375 N 510.077 -4.92908 2.70181 0
M  V30 5376 H 502.228 -1.16113 1.77852 0
M  V30 5377 H 504.491 -0.56947 0.757897 0
M  V30 5378 H 504.197 -2.55551 2.41633 0
M  V30 5379 H 504.071 -3.62779 1.03303 0
M  V30 5380 H 506.458 -2.93303 0.325163 0
M  V30 5381 H 506.539 -1.87443 1.74066 0
M  V30 5382 H 506.183 -3.90286 3.25022 0
M  V30 5383 H 506.113 -4.94599 1.80774 0
M  V30 5384 H 508.604 -3.39051 1.66891 0
M  V30 5385 H 508.917 -6.63468 3.96271 0
M  V30 5386 H 507.262 -5.9703 3.5578 0
M  V30 5387 H 510.453 -4.1619 2.14251 0
M  V30 5388 H 510.626 -5.64137 3.18831 0
M  V30 5389 N 504.032 -0.577932 -1.46621 0
M  V30 5390 C 505.28 -0.061566 -2.02006 0
M  V30 5391 C 505.601 1.30117 -1.4524 0
M  V30 5392 O 504.871 1.85313 -0.63529 0
M  V30 5393 H 503.451 -0.0197692 -0.746738 0
M  V30 5394 H 506.113 -0.752631 -1.79782 0
M  V30 5395 H 505.209 0.0110238 -3.12098 0
M  V30 5396 N 505.51 1.54411 -0.315457 0
M  V30 5397 C 506.42 2.27737 0.56329 0
M  V30 5398 C 507.436 1.31787 1.13614 0
M  V30 5399 O 508.612 1.64791 1.15784 0
M  V30 5400 C 505.677 3.01478 1.71207 0
M  V30 5401 C 504.738 4.12997 1.17185 0
M  V30 5402 C 503.971 4.83212 2.26588 0
M  V30 5403 O 504.194 4.52884 3.46775 0
M  V30 5404 O 503.128 5.70299 1.92463 0
M  V30 5405 H 506.954 3.03683 -0.0319614 0
M  V30 5406 H 504.539 1.49178 -0.0814188 0
M  V30 5407 H 506.421 3.47683 2.38106 0
M  V30 5408 H 505.096 2.28414 2.29366 0
M  V30 5409 H 504.003 3.71159 0.468174 0
M  V30 5410 H 505.336 4.8808 0.635501 0
M  V30 5411 N 506.988 0.0434614 1.5754 0
M  V30 5412 C 507.918 -0.931651 2.14109 0
M  V30 5413 C 508.899 -1.32971 1.06079 0
M  V30 5414 O 510.084 -1.40579 1.33982 0
M  V30 5415 C 507.214 -2.20914 2.67982 0
M  V30 5416 C 506.168 -1.95139 3.80926 0
M  V30 5417 C 505.494 -3.29276 4.21285 0
M  V30 5418 C 506.794 -1.27913 5.06395 0
M  V30 5419 H 508.488 -0.460497 2.95837 0
M  V30 5420 H 506.034 -0.220058 1.42309 0
M  V30 5421 H 507.987 -2.89522 3.06194 0
M  V30 5422 H 506.711 -2.70221 1.83434 0
M  V30 5423 H 505.37 -1.28945 3.43175 0
M  V30 5424 H 505.018 -3.76369 3.33699 0
M  V30 5425 H 504.718 -3.12831 4.97404 0
M  V30 5426 H 506.242 -3.99129 4.62091 0
M  V30 5427 H 507.656 -1.86544 5.42102 0
M  V30 5428 H 506.053 -1.2182 5.87605 0
M  V30 5429 H 507.123 -0.254066 4.84234 0
M  V30 5430 N 508.466 -1.55915 -0.229846 0
M  V30 5431 C 509.429 -1.90914 -1.26824 0
M  V30 5432 C 510.429 -0.786999 -1.40225 0
M  V30 5433 O 511.619 -1.05484 -1.38632 0
M  V30 5434 C 508.751 -2.15264 -2.64337 0
M  V30 5435 H 509.944 -2.8378 -0.969998 0
M  V30 5436 H 507.497 -1.49069 -0.4699 0
M  V30 5437 H 508.232 -1.24923 -2.99274 0
M  V30 5438 H 508.017 -2.97005 -2.55989 0
M  V30 5439 H 509.507 -2.43467 -3.39284 0
M  V30 5440 N 509.944 0.496216 -1.49584 0
M  V30 5441 C 511.193 1.24668 -1.58558 0
M  V30 5442 C 511.506 1.9359 -0.279703 0
M  V30 5443 O 512.712 2.70365 -0.248048 0
M  V30 5444 C 511.168 2.26388 -2.79779 0
M  V30 5445 C 510.776 1.63384 -4.17145 0
M  V30 5446 C 512.52 3.02233 -2.98086 0
M  V30 5447 C 510.427 2.63243 -5.29582 0
M  V30 5448 H 509.357 0.468995 -0.590389 0
M  V30 5449 H 512.008 0.519985 -1.75978 0
M  V30 5450 H 510.39 3.02241 -2.55863 0
M  V30 5451 H 511.564 0.93491 -4.51216 0
M  V30 5452 H 509.879 0.999121 -4.04236 0
M  V30 5453 H 512.476 3.76919 -3.79257 0
M  V30 5454 H 512.819 3.60132 -2.08831 0
M  V30 5455 H 513.352 2.33495 -3.22063 0
M  V30 5456 H 510.091 2.10119 -6.20911 0
M  V30 5457 H 509.611 3.31363 -4.99959 0
M  V30 5458 H 511.29 3.25575 -5.59115 0
M  V30 5459 N 511.423 1.38739 0.74761 0
M  V30 5460 C 512.37 1.36449 1.86146 0
M  V30 5461 C 513.34 0.226098 1.64554 0
M  V30 5462 O 514.525 0.41926 1.86137 0
M  V30 5463 C 511.665 1.2013 3.23516 0
M  V30 5464 C 510.778 2.43407 3.56899 0
M  V30 5465 C 509.913 2.19773 4.83605 0
M  V30 5466 C 508.952 3.3879 5.09792 0
M  V30 5467 N 508.089 3.14553 6.27695 0
M  V30 5468 H 512.929 2.3167 1.87438 0
M  V30 5469 H 510.466 1.15094 0.916063 0
M  V30 5470 H 512.424 1.08683 4.02795 0
M  V30 5471 H 511.054 0.285453 3.21535 0
M  V30 5472 H 510.106 2.65504 2.72418 0
M  V30 5473 H 511.418 3.32094 3.72176 0
M  V30 5474 H 510.572 2.05496 5.70838 0
M  V30 5475 H 509.311 1.28461 4.70478 0
M  V30 5476 H 508.316 3.53579 4.21025 0
M  V30 5477 H 509.541 4.30986 5.24812 0
M  V30 5478 H 507.487 2.25893 6.1588 0
M  V30 5479 H 507.404 3.96791 6.435 0
M  V30 5480 H 508.672 3.03943 7.17801 0
M  V30 5481 N 512.901 -0.976442 1.23707 0
M  V30 5482 C 514.178 -1.69296 0.979699 0
M  V30 5483 C 514.558 -2.0508 -0.500555 0
M  V30 5484 O 513.906 -1.74708 -1.47273 0
M  V30 5485 C 514.116 -2.93143 1.89389 0
M  V30 5486 C 515.464 -3.65572 2.15968 0
M  V30 5487 O 516.488 -3.03184 1.86971 0
M  V30 5488 O 515.347 -4.77859 2.65167 0
M  V30 5489 H 512.441 -0.739708 0.369812 0
M  V30 5490 H 514.987 -1.03131 1.34767 0
M  V30 5491 H 513.759 -2.63327 2.89439 0
M  V30 5492 H 513.382 -3.67044 1.52854 0
M  V30 5493 N 514.379 -1.04941 -1.1758 0
M  V30 5494 C 515.342 -0.652456 -2.19717 0
M  V30 5495 C 516.342 0.294745 -1.58076 0
M  V30 5496 O 517.532 0.0789579 -1.74021 0
M  V30 5497 C 514.664 0.0420712 -3.40874 0
M  V30 5498 H 515.857 -1.55642 -2.5635 0
M  V30 5499 H 513.41 -0.842995 -1.31618 0
M  V30 5500 H 514.145 0.95943 -3.09783 0
M  V30 5501 H 513.93 -0.638844 -3.86861 0
M  V30 5502 H 515.42 0.306 -4.16477 0
M  V30 5503 N 515.857 1.33968 -0.830081 0
M  V30 5504 C 516.805 2.31301 -0.245435 0
M  V30 5505 C 517.799 1.57734 0.617762 0
M  V30 5506 O 519.005 1.72674 0.508303 0
M  V30 5507 H 515.38 0.749552 -0.0606316 0
M  V30 5508 H 517.351 2.78129 -1.08105 0
M  V30 5509 C 516.1 3.42961 0.572084 0
M  V30 5510 H 515.423 3.99714 -0.0828118 0
M  V30 5511 H 516.863 4.13286 0.94715 0
M  V30 5512 C 515.322 2.88043 1.74737 0
M  V30 5513 O 515.852 2.83508 2.8458 0
M  V30 5514 N 514.058 2.44768 1.56642 0
M  V30 5515 H 513.605 2.48656 0.672901 0
M  V30 5516 H 513.563 2.08375 2.3543 0
M  V30 5517 N 517.335 0.585699 1.46312 0
M  V30 5518 C 518.298 -0.135673 2.28798 0
M  V30 5519 C 519.298 -0.815988 1.38558 0
M  V30 5520 O 520.488 -0.667487 1.60904 0
M  V30 5521 C 517.62 -1.20163 3.1902 0
M  V30 5522 H 518.813 0.589257 2.94054 0
M  V30 5523 H 516.366 0.343794 1.52472 0
M  V30 5524 H 517.101 -1.95804 2.58517 0
M  V30 5525 H 516.886 -0.718282 3.85465 0
M  V30 5526 H 518.376 -1.70749 3.81096 0
M  V30 5527 N 518.813 -1.54241 0.323641 0
M  V30 5528 C 519.76 -2.24339 -0.542277 0
M  V30 5529 C 520.73 -1.23421 -1.11159 0
M  V30 5530 O 521.915 -1.52104 -1.15192 0
M  V30 5531 C 519.055 -3.00479 -1.69725 0
M  V30 5532 C 518.168 -4.16214 -1.15716 0
M  V30 5533 C 517.303 -4.79884 -2.27783 0
M  V30 5534 C 516.342 -5.87722 -1.71023 0
M  V30 5535 N 515.479 -6.45254 -2.76752 0
M  V30 5536 H 520.319 -2.97935 0.0620613 0
M  V30 5537 H 517.856 -1.47039 0.0423993 0
M  V30 5538 H 519.814 -3.42869 -2.3769 0
M  V30 5539 H 518.444 -2.29217 -2.27288 0
M  V30 5540 H 517.496 -3.78605 -0.369063 0
M  V30 5541 H 518.808 -4.93838 -0.701832 0
M  V30 5542 H 517.962 -5.25243 -3.03651 0
M  V30 5543 H 516.701 -4.01641 -2.76652 0
M  V30 5544 H 515.706 -5.41765 -0.936518 0
M  V30 5545 H 516.931 -6.67863 -1.2303 0
M  V30 5546 H 514.877 -5.69884 -3.24912 0
M  V30 5547 H 514.794 -7.18292 -2.35782 0
M  V30 5548 H 516.062 -6.95269 -3.5245 0
M  V30 5549 N 520.291 -0.0518155 -1.57515 0
M  V30 5550 C 521.221 0.920283 -2.146 0
M  V30 5551 C 522.202 1.32406 -1.06783 0
M  V30 5552 O 523.387 1.39866 -1.34726 0
M  V30 5553 C 520.517 2.1949 -2.6915 0
M  V30 5554 C 519.471 1.93116 -3.81956 0
M  V30 5555 C 518.797 3.27037 -4.23026 0
M  V30 5556 C 520.097 1.25225 -5.07066 0
M  V30 5557 H 521.791 0.444801 -2.96077 0
M  V30 5558 H 519.337 0.212508 -1.42423 0
M  V30 5559 H 521.29 2.87894 -3.07725 0
M  V30 5560 H 520.014 2.69244 -1.84865 0
M  V30 5561 H 518.673 1.27123 -3.43854 0
M  V30 5562 H 518.321 3.74595 -3.3569 0
M  V30 5563 H 518.021 3.10189 -4.99056 0
M  V30 5564 H 519.545 3.96673 -4.64202 0
M  V30 5565 H 520.959 1.83666 -5.43083 0
M  V30 5566 H 519.356 1.18702 -5.88243 0
M  V30 5567 H 520.426 0.228382 -4.84362 0
M  V30 5568 N 521.769 1.56035 0.221574 0
M  V30 5569 C 522.994 1.83476 0.967026 0
M  V30 5570 C 523.419 0.632139 1.7716 0
M  V30 5571 O 522.777 -0.419082 1.7639 0
M  V30 5572 C 522.825 3.08907 1.86034 0
M  V30 5573 O 521.929 2.876 2.95567 0
M  V30 5574 H 521.27 0.604913 0.273817 0
M  V30 5575 H 523.8 2.03247 0.234893 0
M  V30 5576 H 523.81 3.3901 2.27016 0
M  V30 5577 H 522.485 3.96068 1.26898 0
M  V30 5578 H 521.062 2.6873 2.58532 0
M  V30 5579 N 523.247 -0.488276 1.49845 0
M  V30 5580 C 524.157 -1.61451 1.70207 0
M  V30 5581 C 525.173 -1.63877 0.584846 0
M  V30 5582 O 526.349 -1.82063 0.861107 0
M  V30 5583 C 523.414 -2.9776 1.77594 0
M  V30 5584 C 522.475 -3.05861 3.01243 0
M  V30 5585 C 521.708 -4.35668 3.08268 0
M  V30 5586 O 521.931 -5.25197 2.22541 0
M  V30 5587 O 520.865 -4.49005 4.00847 0
M  V30 5588 H 524.691 -1.47199 2.65643 0
M  V30 5589 H 522.276 -0.665939 1.33737 0
M  V30 5590 H 524.158 -3.7875 1.84732 0
M  V30 5591 H 522.833 -3.12248 0.8534 0
M  V30 5592 H 521.74 -2.24012 2.99616 0
M  V30 5593 H 523.073 -2.96304 3.9302 0
M  V30 5594 N 524.725 -1.39134 -0.740242 0
M  V30 5595 C 525.655 -1.40165 -1.86751 0
M  V30 5596 C 526.636 -0.265708 -1.68012 0
M  V30 5597 O 527.821 -0.47076 -1.88408 0
M  V30 5598 C 524.951 -1.2392 -3.2444 0
M  V30 5599 C 523.905 -2.34858 -3.57807 0
M  V30 5600 C 523.231 -2.03707 -4.94376 0
M  V30 5601 C 524.531 -3.77159 -3.61315 0
M  V30 5602 H 526.225 -2.345 -1.86145 0
M  V30 5603 H 523.771 -1.12875 -0.89416 0
M  V30 5604 H 525.724 -1.23263 -4.02969 0
M  V30 5605 H 524.448 -0.26051 -3.25559 0
M  V30 5606 H 523.107 -2.34723 -2.81604 0
M  V30 5607 H 522.755 -1.04289 -4.9207 0
M  V30 5608 H 522.455 -2.78016 -5.17669 0
M  V30 5609 H 523.979 -2.04691 -5.75268 0
M  V30 5610 H 525.393 -3.79252 -4.29931 0
M  V30 5611 H 523.79 -4.50784 -3.96124 0
M  V30 5612 H 524.86 -4.08513 -2.61238 0
M  V30 5613 N 526.204 0.969867 -1.24223 0
M  V30 5614 C 527.114 2.09806 -1.0497 0
M  V30 5615 C 528.13 1.73998 0.00886455 0
M  V30 5616 O 529.306 2.00513 -0.188848 0
M  V30 5617 C 526.371 3.40467 -0.654452 0
M  V30 5618 C 525.432 3.90236 -1.78926 0
M  V30 5619 C 524.665 5.14662 -1.41277 0
M  V30 5620 O 524.888 5.69602 -0.301632 0
M  V30 5621 O 523.822 5.58761 -2.23763 0
M  V30 5622 H 527.648 2.28942 -1.99548 0
M  V30 5623 H 525.233 1.08197 -1.03023 0
M  V30 5624 H 527.115 4.19039 -0.445452 0
M  V30 5625 H 525.79 3.22636 0.262216 0
M  V30 5626 H 524.697 3.12735 -2.05299 0
M  V30 5627 H 526.03 4.1254 -2.68462 0
M  V30 5628 N 527.682 1.05563 1.17022 0
M  V30 5629 C 528.645 0.664098 2.19368 0
M  V30 5630 C 529.645 -0.286358 1.5823 0
M  V30 5631 O 530.835 -0.069728 1.7406 0
M  V30 5632 C 527.967 -0.0239932 3.40892 0
M  V30 5633 H 529.16 1.57 2.55521 0
M  V30 5634 H 526.713 0.849964 1.31169 0
M  V30 5635 H 527.448 -0.942988 3.10287 0
M  V30 5636 H 527.233 0.659351 3.86516 0
M  V30 5637 H 528.723 -0.283909 4.16634 0
M  V30 5638 N 529.16 -1.33526 0.837174 0
M  V30 5639 C 530.123 -2.27551 0.274421 0
M  V30 5640 C 531.123 -1.50886 -0.555881 0
M  V30 5641 O 532.313 -1.70227 -0.369918 0
M  V30 5642 C 529.445 -3.35332 -0.613605 0
M  V30 5643 H 530.638 -2.78837 1.10408 0
M  V30 5644 H 528.191 -1.439 0.610126 0
M  V30 5645 H 528.926 -2.89285 -1.46577 0
M  V30 5646 H 528.711 -3.92095 -0.0195341 0
M  V30 5647 H 530.201 -4.05433 -1.00068 0
M  V30 5648 N 530.638 -0.59345 -1.46 0
M  V30 5649 C 531.568 0.121192 -2.33185 0
M  V30 5650 C 532.549 0.872977 -1.4599 0
M  V30 5651 O 533.734 0.846321 -1.74789 0
M  V30 5652 C 530.864 1.12844 -3.28456 0
M  V30 5653 C 529.818 0.4908 -4.25177 0
M  V30 5654 C 529.144 1.60529 -5.10034 0
M  V30 5655 C 530.444 -0.578949 -5.19081 0
M  V30 5656 H 532.138 -0.606767 -2.93187 0
M  V30 5657 H 529.684 -0.293242 -1.40983 0
M  V30 5658 H 531.637 1.63684 -3.88311 0
M  V30 5659 H 530.361 1.88681 -2.66584 0
M  V30 5660 H 529.02 0.00339328 -3.666 0
M  V30 5661 H 528.668 2.35359 -4.44539 0
M  V30 5662 H 528.368 1.18422 -5.75543 0
M  V30 5663 H 529.892 2.11623 -5.72755 0
M  V30 5664 H 531.306 -0.155199 -5.7309 0
M  V30 5665 H 529.703 -0.920947 -5.92991 0
M  V30 5666 H 530.773 -1.46109 -4.62364 0
M  V30 5667 N 532.116 1.54067 -0.331816 0
M  V30 5668 C 533.048 2.22139 0.564538 0
M  V30 5669 C 534.061 1.22408 1.07332 0
M  V30 5670 O 535.25 1.4883 0.985481 0
M  V30 5671 C 532.35 2.87876 1.78831 0
M  V30 5672 C 531.523 4.13817 1.41682 0
M  V30 5673 C 530.582 4.63072 2.49901 0
M  V30 5674 O 529.608 5.27562 2.13699 0
M  V30 5675 N 530.81 4.38001 3.80967 0
M  V30 5676 H 533.575 2.99694 -0.0183736 0
M  V30 5677 H 531.136 1.61153 -0.155396 0
M  V30 5678 H 533.128 3.17747 2.50637 0
M  V30 5679 H 531.698 2.13977 2.27887 0
M  V30 5680 H 530.918 3.9062 0.530044 0
M  V30 5681 H 532.206 4.95762 1.14443 0
M  V30 5682 H 531.604 3.864 4.13173 0
M  V30 5683 H 530.161 4.72507 4.48977 0
M  V30 5684 N 533.594 0.0601682 1.57485 0
M  V30 5685 C 535.01 -0.296422 1.56823 0
M  V30 5686 C 535.21 -1.70831 1.0686 0
M  V30 5687 O 534.266 -2.4174 0.729245 0
M  V30 5688 C 535.579 -0.116681 3.00474 0
M  V30 5689 C 537.127 -0.187103 3.1244 0
M  V30 5690 C 537.602 -0.035783 4.57986 0
M  V30 5691 N 539.093 -0.0917676 4.63109 0
M  V30 5692 C 539.828 0.00107251 5.734 0
M  V30 5693 N 539.324 0.146773 6.92645 0
M  V30 5694 N 541.117 -0.0551577 5.62073 0
M  V30 5695 H 533.268 0.983055 1.88281 0
M  V30 5696 H 535.531 0.382386 0.867459 0
M  V30 5697 H 535.237 0.85712 3.41096 0
M  V30 5698 H 535.111 -0.873929 3.66936 0
M  V30 5699 H 537.498 -1.15138 2.71712 0
M  V30 5700 H 537.579 0.601052 2.48638 0
M  V30 5701 H 537.223 0.925212 4.99402 0
M  V30 5702 H 537.153 -0.843196 5.19806 0
M  V30 5703 H 539.644 -0.203261 3.77353 0
M  V30 5704 H 539.957 0.210076 7.72514 0
M  V30 5705 H 538.302 0.181979 6.94762 0
M  V30 5706 H 541.493 -0.167605 4.678 0
M  V30 5707 H 541.666 0.020652 6.47997 0
M  V30 5708 N 535.072 -1.5615 -0.213296 0
M  V30 5709 C 536.035 -1.92249 -1.24792 0
M  V30 5710 C 537.035 -0.801828 -1.39382 0
M  V30 5711 O 538.225 -1.06948 -1.37506 0
M  V30 5712 C 535.357 -2.18056 -2.62039 0
M  V30 5713 H 536.55 -2.84793 -0.939845 0
M  V30 5714 H 534.103 -1.49559 -0.454062 0
M  V30 5715 H 534.838 -1.2809 -2.97932 0
M  V30 5716 H 534.623 -2.99703 -2.52825 0
M  V30 5717 H 536.113 -2.47051 -3.36683 0
M  V30 5718 N 536.55 0.480323 -1.50102 0
M  V30 5719 C 537.497 1.57946 -1.6829 0
M  V30 5720 C 538.467 1.57611 -0.524223 0
M  V30 5721 O 539.652 1.75282 -0.753709 0
M  V30 5722 C 536.792 2.95978 -1.77457 0
M  V30 5723 C 535.905 3.06173 -3.04766 0
M  V30 5724 C 535.04 4.35063 -3.04784 0
M  V30 5725 C 534.079 4.38966 -4.26586 0
M  V30 5726 N 533.216 5.59314 -4.24396 0
M  V30 5727 H 538.056 1.41743 -2.62131 0
M  V30 5728 H 535.593 0.689304 -1.2995 0
M  V30 5729 H 537.551 3.76011 -1.80752 0
M  V30 5730 H 536.181 3.10837 -0.870637 0
M  V30 5731 H 535.233 2.19071 -3.10986 0
M  V30 5732 H 536.545 3.04916 -3.9475 0
M  V30 5733 H 535.699 5.23436 -3.06757 0
M  V30 5734 H 534.438 4.38915 -2.12614 0
M  V30 5735 H 533.443 3.48992 -4.24835 0
M  V30 5736 H 534.668 4.36813 -5.19972 0
M  V30 5737 H 532.614 5.63969 -3.35074 0
M  V30 5738 H 532.531 5.5976 -5.08138 0
M  V30 5739 H 533.799 6.49837 -4.30502 0
M  V30 5740 N 538.028 1.39524 0.732853 0
M  V30 5741 C 538.96 1.34318 1.85718 0
M  V30 5742 C 539.973 0.251576 1.60844 0
M  V30 5743 O 541.162 0.510685 1.71039 0
M  V30 5744 C 538.262 1.06334 3.21786 0
M  V30 5745 C 537.435 2.26813 3.73998 0
M  V30 5746 C 536.494 1.95253 4.88634 0
M  V30 5747 O 535.52 2.67957 5.02183 0
M  V30 5748 N 536.722 0.919984 5.73164 0
M  V30 5749 H 539.487 2.3121 1.90688 0
M  V30 5750 H 537.048 1.33654 0.91368 0
M  V30 5751 H 539.04 0.832363 3.96048 0
M  V30 5752 H 537.61 0.181682 3.12072 0
M  V30 5753 H 536.83 2.65849 2.91064 0
M  V30 5754 H 538.118 3.0717 4.05616 0
M  V30 5755 H 537.516 0.317487 5.64808 0
M  V30 5756 H 536.073 0.748905 6.47483 0
M  V30 5757 N 539.506 -0.963266 1.24736 0
M  V30 5758 C 540.783 -1.68248 0.9976 0
M  V30 5759 C 541.163 -2.05599 -0.478776 0
M  V30 5760 O 540.511 -1.7626 -1.45412 0
M  V30 5761 C 540.721 -2.91118 1.92487 0
M  V30 5762 C 542.069 -3.63261 2.19833 0
M  V30 5763 O 543.093 -3.01184 1.90176 0
M  V30 5764 O 541.952 -4.75019 2.7022 0
M  V30 5765 H 539.046 -0.735744 0.377637 0
M  V30 5766 H 541.592 -1.01696 1.35853 0
M  V30 5767 H 540.364 -2.60242 2.92215 0
M  V30 5768 H 539.987 -3.65402 1.56738 0
M  V30 5769 N 540.985 -1.06182 -1.16461 0
M  V30 5770 C 541.918 -0.615859 -2.19733 0
M  V30 5771 C 542.896 0.360766 -1.58547 0
M  V30 5772 O 544.08 0.270009 -1.86556 0
M  V30 5773 C 541.207 0.097312 -3.3856 0
M  V30 5774 C 540.253 -0.835889 -4.18229 0
M  V30 5775 S 541.086 -2.33052 -4.82128 0
M  V30 5776 C 542.242 -1.62881 -6.04335 0
M  V30 5777 H 542.475 -1.49079 -2.57221 0
M  V30 5778 H 540.008 -0.874692 -1.27234 0
M  V30 5779 H 541.966 0.502563 -4.07412 0
M  V30 5780 H 540.627 0.948418 -2.99439 0
M  V30 5781 H 539.82 -0.283426 -5.03202 0
M  V30 5782 H 539.422 -1.18097 -3.54865 0
M  V30 5783 H 541.714 -0.933764 -6.71034 0
M  V30 5784 H 542.657 -2.45641 -6.64128 0
M  V30 5785 H 543.065 -1.11189 -5.53441 0
M  V30 5786 N 542.463 1.3308 -0.844243 0
M  V30 5787 C 543.426 2.27403 -0.286485 0
M  V30 5788 C 544.426 1.51179 0.547872 0
M  V30 5789 O 545.616 1.70421 0.360886 0
M  V30 5790 C 542.748 3.35653 0.595813 0
M  V30 5791 H 543.941 2.78248 -1.11885 0
M  V30 5792 H 541.494 1.43574 -0.617749 0
M  V30 5793 H 542.229 2.90058 1.4504 0
M  V30 5794 H 542.014 3.921 -0.00125994 0
M  V30 5795 H 543.504 4.05958 0.979168 0
M  V30 5796 N 543.941 0.601185 1.45683 0
M  V30 5797 C 545.357 0.264315 1.57396 0
M  V30 5798 C 545.557 -1.23324 1.59353 0
M  V30 5799 O 544.613 -2.01594 1.52039 0
M  V30 5800 C 545.926 0.929839 2.85962 0
M  V30 5801 C 547.474 0.905156 2.99626 0
M  V30 5802 C 547.949 1.55057 4.30954 0
M  V30 5803 N 549.44 1.51576 4.37697 0
M  V30 5804 C 550.175 1.98436 5.37969 0
M  V30 5805 N 549.671 2.53352 6.44813 0
M  V30 5806 N 551.464 1.89242 5.29286 0
M  V30 5807 H 543.615 1.57363 1.42656 0
M  V30 5808 H 545.878 0.658831 0.681649 0
M  V30 5809 H 545.584 1.98404 2.90394 0
M  V30 5810 H 545.458 0.449224 3.74515 0
M  V30 5811 H 547.845 -0.14048 2.94765 0
M  V30 5812 H 547.926 1.42397 2.12501 0
M  V30 5813 H 547.57 2.5955 4.36573 0
M  V30 5814 H 547.5 1.00682 5.16886 0
M  V30 5815 H 549.991 1.11452 3.61091 0
M  V30 5816 H 550.304 2.86918 7.17564 0
M  V30 5817 H 548.649 2.57388 6.45582 0
M  V30 5818 H 551.84 1.46083 4.44722 0
M  V30 5819 H 552.013 2.26075 6.07284 0
M  V30 5820 N 545.419 -1.53889 0.339982 0
M  V30 5821 C 546.351 -2.22435 -0.55275 0
M  V30 5822 C 547.364 -1.22975 -1.06681 0
M  V30 5823 O 548.553 -1.49351 -0.977575 0
M  V30 5824 C 545.653 -2.8882 -1.77302 0
M  V30 5825 C 544.826 -4.14563 -1.39486 0
M  V30 5826 C 543.885 -4.64391 -2.47442 0
M  V30 5827 O 542.911 -5.28687 -2.10899 0
M  V30 5828 N 544.113 -4.40015 -3.78639 0
M  V30 5829 H 546.878 -2.9968 0.0342669 0
M  V30 5830 H 544.439 -1.61068 0.16394 0
M  V30 5831 H 546.431 -3.19072 -2.48948 0
M  V30 5832 H 545.001 -2.15182 -2.26749 0
M  V30 5833 H 544.221 -3.90896 -0.509321 0
M  V30 5834 H 545.509 -4.96362 -1.11813 0
M  V30 5835 H 544.907 -3.88586 -4.11118 0
M  V30 5836 H 543.464 -4.74881 -4.46465 0
M  V30 5837 N 546.897 -0.0685191 -1.57451 0
M  V30 5838 C 547.827 0.89747 -2.15564 0
M  V30 5839 C 548.808 1.31266 -1.08181 0
M  V30 5840 O 549.993 1.38429 -1.36202 0
M  V30 5841 C 547.123 2.16623 -2.71463 0
M  V30 5842 C 546.077 1.89054 -3.83982 0
M  V30 5843 C 545.403 3.22532 -4.26471 0
M  V30 5844 C 546.703 1.1984 -5.08366 0
M  V30 5845 H 548.397 0.413373 -2.96533 0
M  V30 5846 H 545.943 0.197391 -1.42641 0
M  V30 5847 H 547.896 2.84614 -3.10761 0
M  V30 5848 H 546.62 2.67269 -1.8771 0
M  V30 5849 H 545.279 1.23469 -3.45183 0
M  V30 5850 H 544.927 3.71013 -3.39644 0
M  V30 5851 H 544.627 3.04879 -5.02317 0
M  V30 5852 H 546.151 3.91727 -4.68383 0
M  V30 5853 H 547.565 1.77896 -5.45001 0
M  V30 5854 H 545.962 1.12456 -5.89469 0
M  V30 5855 H 547.032 0.176996 -4.84577 0
M  V30 5856 N 548.375 1.56261 0.205012 0
M  V30 5857 C 549.791 1.49623 0.555433 0
M  V30 5858 C 549.991 0.766719 1.86343 0
M  V30 5859 O 549.047 0.313158 2.50551 0
M  V30 5860 C 550.36 2.94253 0.619347 0
M  V30 5861 C 551.908 3.04868 0.708855 0
M  V30 5862 C 552.383 4.50888 0.803969 0
M  V30 5863 N 553.874 4.54999 0.867758 0
M  V30 5864 C 554.609 5.65284 0.96135 0
M  V30 5865 N 554.105 6.85282 1.01786 0
M  V30 5866 N 555.898 5.53174 0.997771 0
M  V30 5867 H 548.049 2.0211 -0.653094 0
M  V30 5868 H 550.312 0.919333 -0.231366 0
M  V30 5869 H 550.018 3.50643 -0.272458 0
M  V30 5870 H 549.892 3.47063 1.47741 0
M  V30 5871 H 552.279 2.48532 1.5911 0
M  V30 5872 H 552.36 2.55199 -0.175205 0
M  V30 5873 H 552.004 5.07846 -0.0738798 0
M  V30 5874 H 551.934 4.98279 1.70369 0
M  V30 5875 H 554.425 3.68588 0.833735 0
M  V30 5876 H 554.738 7.65081 1.08951 0
M  V30 5877 H 553.083 6.8796 0.986706 0
M  V30 5878 H 556.274 4.5835 0.950392 0
M  V30 5879 H 556.447 6.39151 1.06725 0
M  V30 5880 N 549.853 -0.472356 1.50355 0
M  V30 5881 C 550.763 -1.59637 1.7191 0
M  V30 5882 C 551.779 -1.63247 0.602195 0
M  V30 5883 O 552.955 -1.81139 0.880369 0
M  V30 5884 C 550.02 -2.9586 1.80742 0
M  V30 5885 C 549.081 -3.02649 3.04471 0
M  V30 5886 C 548.314 -4.32374 3.12872 0
M  V30 5887 O 548.537 -5.22807 2.28099 0
M  V30 5888 O 547.471 -4.44728 4.05587 0
M  V30 5889 H 551.297 -1.44373 2.67189 0
M  V30 5890 H 548.882 -0.651717 1.34436 0
M  V30 5891 H 550.764 -3.7677 1.88739 0
M  V30 5892 H 549.439 -3.11325 0.88647 0
M  V30 5893 H 548.346 -2.20821 3.01975 0
M  V30 5894 H 549.679 -2.92119 3.9614 0
M  V30 5895 N 551.331 -1.39911 -0.725443 0
M  V30 5896 C 552.561 -1.40744 -1.51244 0
M  V30 5897 C 552.969 -0.00275403 -1.892 0
M  V30 5898 O 552.312 0.981299 -1.55294 0
M  V30 5899 C 552.374 -2.22527 -2.82351 0
M  V30 5900 C 552.038 -3.71053 -2.66774 0
M  V30 5901 C 553.035 -4.63916 -2.34686 0
M  V30 5902 C 550.72 -4.14753 -2.83347 0
M  V30 5903 C 552.714 -5.98463 -2.19366 0
M  V30 5904 C 550.401 -5.49372 -2.67644 0
M  V30 5905 C 551.399 -6.41042 -2.357 0
M  V30 5906 O 551.087 -7.73181 -2.20107 0
M  V30 5907 H 550.819 -0.482314 -0.473655 0
M  V30 5908 H 553.373 -1.84472 -0.903284 0
M  V30 5909 H 551.603 -1.73563 -3.45562 0
M  V30 5910 H 553.292 -2.15421 -3.44018 0
M  V30 5911 H 554.058 -4.31453 -2.21525 0
M  V30 5912 H 549.937 -3.43728 -3.072 0
M  V30 5913 H 553.481 -6.69979 -1.94354 0
M  V30 5914 H 549.378 -5.81424 -2.80387 0
M  V30 5915 H 550.146 -7.84008 -2.35103 0
M  V30 5916 N 552.809 0.956637 -1.25245 0
M  V30 5917 C 553.741 2.05628 -1.01242 0
M  V30 5918 C 554.754 1.62785 0.0219579 0
M  V30 5919 O 555.943 1.77184 -0.216365 0
M  V30 5920 C 553.043 3.35069 -0.508161 0
M  V30 5921 C 552.216 4.06761 -1.60823 0
M  V30 5922 C 551.275 5.14473 -1.1047 0
M  V30 5923 O 550.301 5.40033 -1.79868 0
M  V30 5924 N 551.503 5.80474 0.0550773 0
M  V30 5925 H 554.268 2.2679 -1.95925 0
M  V30 5926 H 551.829 1.12505 -1.16423 0
M  V30 5927 H 553.821 4.044 -0.155819 0
M  V30 5928 H 552.391 3.10694 0.344683 0
M  V30 5929 H 551.611 3.31555 -2.13224 0
M  V30 5930 H 552.899 4.51418 -2.34733 0
M  V30 5931 H 552.297 5.62125 0.635004 0
M  V30 5932 H 550.854 6.50868 0.348469 0
M  V30 5933 N 554.287 1.06798 1.15896 0
M  V30 5934 C 555.197 0.694564 2.24083 0
M  V30 5935 C 556.213 -0.291687 1.71538 0
M  V30 5936 O 557.389 -0.139723 2.00915 0
M  V30 5937 C 554.454 0.0921014 3.46578 0
M  V30 5938 C 553.515 1.13087 4.14137 0
M  V30 5939 C 552.748 0.557064 5.30785 0
M  V30 5940 O 552.971 -0.628623 5.66925 0
M  V30 5941 O 551.905 1.29924 5.8771 0
M  V30 5942 H 555.731 1.59663 2.58344 0
M  V30 5943 H 553.316 0.840575 1.2351 0
M  V30 5944 H 555.198 -0.241884 4.20705 0
M  V30 5945 H 553.873 -0.78337 3.14078 0
M  V30 5946 H 552.78 1.51712 3.41957 0
M  V30 5947 H 554.113 1.97805 4.50704 0
M  V30 5948 N 555.766 -1.3263 0.851289 0
M  V30 5949 C 556.696 -2.31449 0.308771 0
M  V30 5950 C 557.677 -1.59531 -0.590255 0
M  V30 5951 O 558.862 -1.87351 -0.511205 0
M  V30 5952 C 555.992 -3.43586 -0.506548 0
M  V30 5953 C 554.946 -4.26963 0.297753 0
M  V30 5954 C 554.272 -5.30831 -0.642094 0
M  V30 5955 C 555.572 -4.99643 1.52166 0
M  V30 5956 H 557.266 -2.77074 1.13447 0
M  V30 5957 H 554.812 -1.33207 0.546971 0
M  V30 5958 H 556.765 -4.11754 -0.896474 0
M  V30 5959 H 555.489 -2.96681 -1.36558 0
M  V30 5960 H 554.148 -3.60437 0.669391 0
M  V30 5961 H 553.796 -4.8018 -1.49788 0
M  V30 5962 H 553.496 -5.87501 -0.107968 0
M  V30 5963 H 555.02 -6.01862 -1.02927 0
M  V30 5964 H 556.434 -5.6051 1.20421 0
M  V30 5965 H 554.831 -5.66022 1.99347 0
M  V30 5966 H 555.901 -4.27701 2.28474 0
M  V30 5967 N 557.244 -0.608902 -1.45362 0
M  V30 5968 C 558.177 0.158059 -2.27652 0
M  V30 5969 C 559.155 0.872397 -1.37215 0
M  V30 5970 O 560.339 0.881002 -1.66645 0
M  V30 5971 C 557.466 1.22896 -3.15617 0
M  V30 5972 C 556.512 0.617607 -4.22005 0
M  V30 5973 S 557.345 -0.575518 -5.32398 0
M  V30 5974 C 558.501 0.495938 -6.23932 0
M  V30 5975 H 558.734 -0.540095 -2.92353 0
M  V30 5976 H 556.267 -0.396456 -1.49223 0
M  V30 5977 H 558.225 1.84195 -3.66855 0
M  V30 5978 H 556.886 1.89919 -2.50179 0
M  V30 5979 H 556.079 1.42341 -4.83482 0
M  V30 5980 H 555.681 0.0797273 -3.73915 0
M  V30 5981 H 557.973 1.37465 -6.63408 0
M  V30 5982 H 558.916 -0.0827108 -7.08052 0
M  V30 5983 H 559.324 0.811856 -5.58631 0
M  V30 5984 N 558.722 1.53707 -0.348139 0
M  V30 5985 C 559.67 2.26671 0.521808 0
M  V30 5986 C 560.664 1.28988 1.09811 0
M  V30 5987 O 561.87 1.4668 1.04332 0
M  V30 5988 H 558.245 0.728387 0.186968 0
M  V30 5989 H 560.216 2.98176 -0.115563 0
M  V30 5990 C 558.965 3.05591 1.6586 0
M  V30 5991 H 558.288 3.80589 1.22443 0
M  V30 5992 H 559.728 3.59851 2.24239 0
M  V30 5993 C 558.187 2.15366 2.59073 0
M  V30 5994 O 558.717 1.7528 3.61441 0
M  V30 5995 N 556.923 1.80352 2.27863 0
M  V30 5996 H 556.47 2.13149 1.44656 0
M  V30 5997 H 556.428 1.20268 2.90488 0
M  V30 5998 N 560.2 0.0768682 1.57412 0
M  V30 5999 C 561.446 -0.591961 1.93968 0
M  V30 6000 C 561.779 -1.68954 0.9575 0
M  V30 6001 O 561.054 -1.94496 -0.0124675 0
M  V30 6002 C 561.337 -1.16418 3.40762 0
M  V30 6003 C 561.19 -0.0728933 4.49741 0
M  V30 6004 C 562.509 -2.06814 3.88479 0
M  V30 6005 H 559.628 -0.213716 0.705333 0
M  V30 6006 H 562.27 0.14387 1.89455 0
M  V30 6007 H 560.42 -1.79128 3.4474 0
M  V30 6008 H 562.092 0.560446 4.57883 0
M  V30 6009 H 560.335 0.595859 4.29688 0
M  V30 6010 H 561.006 -0.513755 5.49604 0
M  V30 6011 H 563.482 -1.54033 3.8654 0
M  V30 6012 H 562.358 -2.43785 4.91793 0
M  V30 6013 H 562.619 -2.97844 3.26713 0
M  V30 6014 N 561.678 -1.56367 -0.196722 0
M  V30 6015 C 562.625 -1.94417 -1.24382 0
M  V30 6016 C 563.595 -0.804543 -1.45315 0
M  V30 6017 O 564.78 -1.06256 -1.58475 0
M  V30 6018 C 561.92 -2.28757 -2.58388 0
M  V30 6019 C 561.033 -3.55775 -2.45047 0
M  V30 6020 C 560.168 -3.79445 -3.71746 0
M  V30 6021 C 559.207 -4.99894 -3.53231 0
M  V30 6022 N 558.344 -5.19826 -4.71938 0
M  V30 6023 H 563.184 -2.83691 -0.912338 0
M  V30 6024 H 560.721 -1.40392 -0.439135 0
M  V30 6025 H 562.679 -2.46682 -3.36457 0
M  V30 6026 H 561.309 -1.42625 -2.89582 0
M  V30 6027 H 560.361 -3.45905 -1.58284 0
M  V30 6028 H 561.673 -4.44 -2.27299 0
M  V30 6029 H 560.827 -3.97601 -4.58256 0
M  V30 6030 H 559.566 -2.89546 -3.92446 0
M  V30 6031 H 558.571 -4.81662 -2.65107 0
M  V30 6032 H 559.796 -5.913 -3.33978 0
M  V30 6033 H 557.742 -4.32875 -4.92905 0
M  V30 6034 H 557.659 -6.02228 -4.57009 0
M  V30 6035 H 558.927 -5.42439 -5.59803 0
M  V30 6036 N 563.156 0.464375 -1.50603 0
M  V30 6037 C 564.086 1.56944 -1.72889 0
M  V30 6038 C 565.067 1.59979 -0.577997 0
M  V30 6039 O 566.252 1.76138 -0.817855 0
M  V30 6040 C 563.382 2.95225 -1.8292 0
M  V30 6041 C 562.336 3.07056 -2.98162 0
M  V30 6042 C 561.662 4.47051 -2.93343 0
M  V30 6043 C 562.962 2.83648 -4.38567 0
M  V30 6044 H 564.656 1.38547 -2.65415 0
M  V30 6045 H 562.202 0.665082 -1.27721 0
M  V30 6046 H 564.155 3.72467 -1.97095 0
M  V30 6047 H 562.879 3.14793 -0.870209 0
M  V30 6048 H 561.538 2.32248 -2.83648 0
M  V30 6049 H 561.186 4.63547 -1.95276 0
M  V30 6050 H 560.886 4.55902 -3.70712 0
M  V30 6051 H 562.41 5.26304 -3.09575 0
M  V30 6052 H 563.824 3.50636 -4.53572 0
M  V30 6053 H 562.221 3.03937 -5.17438 0
M  V30 6054 H 563.291 1.79451 -4.50472 0
M  V30 6055 N 564.634 1.40294 0.718013 0
M  V30 6056 C 565.597 1.4012 1.81381 0
M  V30 6057 C 566.597 0.295405 1.58063 0
M  V30 6058 O 567.787 0.554187 1.6515 0
M  V30 6059 C 564.919 1.19056 3.19435 0
M  V30 6060 H 566.112 2.37645 1.82933 0
M  V30 6061 H 563.665 1.26107 0.923405 0
M  V30 6062 H 564.4 0.222809 3.23534 0
M  V30 6063 H 564.185 1.99152 3.37758 0
M  V30 6064 H 565.675 1.21716 3.99468 0
M  V30 6065 N 566.112 -0.949982 1.2575 0
M  V30 6066 C 567.042 -2.06483 1.09028 0
M  V30 6067 C 568.023 -1.701 -0.00201532 0
M  V30 6068 O 569.208 -1.93469 0.168383 0
M  V30 6069 C 566.338 -3.39899 0.71316 0
M  V30 6070 C 565.292 -3.90309 1.75621 0
M  V30 6071 C 564.618 -5.20274 1.23365 0
M  V30 6072 C 565.918 -4.16169 3.15596 0
M  V30 6073 H 567.612 -2.20731 2.02283 0
M  V30 6074 H 565.158 -1.06066 0.973964 0
M  V30 6075 H 567.111 -4.17346 0.58309 0
M  V30 6076 H 565.835 -3.25602 -0.255091 0
M  V30 6077 H 564.494 -3.15035 1.8748 0
M  V30 6078 H 564.142 -5.02351 0.255491 0
M  V30 6079 H 563.842 -5.54971 1.93082 0
M  V30 6080 H 565.366 -6.00314 1.11607 0
M  V30 6081 H 566.78 -4.84259 3.06864 0
M  V30 6082 H 565.177 -4.62131 3.82825 0
M  V30 6083 H 566.247 -3.22273 3.6231 0
M  V30 6084 N 567.59 -1.07411 -1.15328 0
M  V30 6085 C 568.867 -0.710732 -1.82231 0
M  V30 6086 C 569.247 0.806732 -1.95077 0
M  V30 6087 O 568.595 1.72139 -1.50268 0
M  V30 6088 C 568.805 -1.42586 -3.18544 0
M  V30 6089 C 570.153 -1.57836 -3.94174 0
M  V30 6090 O 571.177 -1.38669 -3.281 0
M  V30 6091 O 570.036 -1.8938 -5.12638 0
M  V30 6092 H 567.13 -0.25297 -0.78736 0
M  V30 6093 H 569.676 -1.17508 -1.22434 0
M  V30 6094 H 568.448 -2.46008 -3.04296 0
M  V30 6095 H 568.071 -0.952332 -3.86026 0
M  V30 6096 N 569.068 1.32177 -0.85831 0
M  V30 6097 C 570.317 1.96392 -0.459689 0
M  V30 6098 C 570.63 1.68659 0.990632 0
M  V30 6099 O 571.836 2.26641 1.49485 0
M  V30 6100 C 570.292 3.51542 -0.7711 0
M  V30 6101 C 569.9 3.8813 -2.2374 0
M  V30 6102 C 571.644 4.2221 -0.44038 0
M  V30 6103 C 569.551 5.36341 -2.49183 0
M  V30 6104 H 568.481 0.735007 -0.168169 0
M  V30 6105 H 571.132 1.50518 -1.0496 0
M  V30 6106 H 569.514 3.95846 -0.11058 0
M  V30 6107 H 570.688 3.54824 -2.94001 0
M  V30 6108 H 569.003 3.30497 -2.533 0
M  V30 6109 H 571.6 5.31234 -0.607855 0
M  V30 6110 H 571.943 4.11683 0.618291 0
M  V30 6111 H 572.476 3.83502 -1.05695 0
M  V30 6112 H 569.215 5.51892 -3.53689 0
M  V30 6113 H 568.735 5.7104 -1.83504 0
M  V30 6114 H 570.414 6.03466 -2.33318 0
M  V30 6115 N 570.547 0.616602 1.45037 0
M  V30 6116 C 571.457 -0.0985401 2.34393 0
M  V30 6117 C 572.473 -0.850971 1.51771 0
M  V30 6118 O 573.649 -0.806521 1.84546 0
M  V30 6119 C 570.714 -1.07748 3.29532 0
M  V30 6120 C 569.775 -0.326022 4.2806 0
M  V30 6121 C 569.008 -1.25833 5.18654 0
M  V30 6122 O 569.231 -2.49652 5.12864 0
M  V30 6123 O 568.165 -0.750512 5.97203 0
M  V30 6124 H 571.991 0.636016 2.96966 0
M  V30 6125 H 569.576 0.376832 1.44569 0
M  V30 6126 H 571.458 -1.64107 3.88133 0
M  V30 6127 H 570.133 -1.79291 2.69512 0
M  V30 6128 H 569.04 0.280253 3.73049 0
M  V30 6129 H 570.373 0.349091 4.9096 0
M  V30 6130 N 572.025 -1.5352 0.356285 0
M  V30 6131 C 573.274 -2.00298 -0.237373 0
M  V30 6132 C 573.587 -1.24784 -1.50627 0
M  V30 6133 O 574.793 -1.62103 -2.17795 0
M  V30 6134 C 573.249 -3.56771 -0.473545 0
M  V30 6135 C 572.857 -4.41154 0.780183 0
M  V30 6136 C 574.601 -4.1193 -1.02537 0
M  V30 6137 C 572.508 -5.89161 0.514108 0
M  V30 6138 H 571.438 -0.748307 -0.092478 0
M  V30 6139 H 574.089 -1.77283 0.473588 0
M  V30 6140 H 572.471 -3.75902 -1.24553 0
M  V30 6141 H 573.645 -4.33797 1.55425 0
M  V30 6142 H 571.96 -3.97052 1.25455 0
M  V30 6143 H 574.557 -5.20133 -1.2396 0
M  V30 6144 H 574.9 -3.65943 -1.98473 0
M  V30 6145 H 575.433 -3.96561 -0.313775 0
M  V30 6146 H 572.172 -6.39408 1.44355 0
M  V30 6147 H 571.692 -5.9939 -0.221632 0
M  V30 6148 H 573.371 -6.46857 0.136122 0
M  V30 6149 N 573.503 -0.0852151 -1.57369 0
M  V30 6150 C 574.466 0.8627 -2.12344 0
M  V30 6151 C 575.466 1.21746 -1.05046 0
M  V30 6152 O 576.656 1.14852 -1.30976 0
M  V30 6153 C 573.788 2.1618 -2.63589 0
M  V30 6154 H 574.981 0.385511 -2.97412 0
M  V30 6155 H 572.534 0.163663 -1.55441 0
M  V30 6156 H 573.269 2.68406 -1.82013 0
M  V30 6157 H 573.054 1.91723 -3.4203 0
M  V30 6158 H 574.544 2.84011 -3.06149 0
M  V30 6159 N 574.981 1.5647 0.188427 0
M  V30 6160 C 576.209 1.85131 0.923803 0
M  V30 6161 C 576.624 0.668537 1.76567 0
M  V30 6162 O 575.981 -0.362662 1.7886 0
M  V30 6163 C 576.032 3.12661 1.81453 0
M  V30 6164 O 575.753 4.26378 1.00665 0
M  V30 6165 C 577.254 3.54548 2.66103 0
M  V30 6166 H 574.474 0.614624 0.269218 0
M  V30 6167 H 577.018 2.03581 0.193671 0
M  V30 6168 H 575.173 2.96088 2.49821 0
M  V30 6169 H 575.587 4.99041 1.61425 0
M  V30 6170 H 577.061 4.4673 3.24247 0
M  V30 6171 H 577.538 2.77853 3.40139 0
M  V30 6172 H 578.144 3.73674 2.03096 0
M  V30 6173 N 576.459 -0.456382 1.50847 0
M  V30 6174 C 577.689 -1.22848 1.66108 0
M  V30 6175 C 578.097 -1.85936 0.349897 0
M  V30 6176 O 577.44 -1.70664 -0.679665 0
M  V30 6177 C 577.502 -2.36722 2.70561 0
M  V30 6178 C 577.166 -1.94154 4.13707 0
M  V30 6179 C 578.163 -1.4557 4.99105 0
M  V30 6180 C 575.848 -2.02426 4.59705 0
M  V30 6181 C 577.842 -1.0582 6.28555 0
M  V30 6182 C 575.529 -1.62287 5.89157 0
M  V30 6183 C 576.527 -1.14064 6.73408 0
M  V30 6184 O 576.215 -0.744873 8.00442 0
M  V30 6185 H 575.947 -0.377105 0.561042 0
M  V30 6186 H 578.501 -0.549431 1.97915 0
M  V30 6187 H 576.731 -3.07844 2.34027 0
M  V30 6188 H 578.42 -2.98646 2.74892 0
M  V30 6189 H 579.186 -1.38589 4.64777 0
M  V30 6190 H 575.065 -2.38908 3.94264 0
M  V30 6191 H 578.609 -0.6811 6.94267 0
M  V30 6192 H 574.506 -1.68932 6.23003 0
M  V30 6193 H 575.274 -0.87242 8.13837 0
M  V30 6194 N 577.937 -1.40673 -0.710563 0
M  V30 6195 C 579.353 -1.22813 -1.01928 0
M  V30 6196 C 579.553 -0.10687 -2.01216 0
M  V30 6197 O 578.609 0.533614 -2.46797 0
M  V30 6198 C 579.922 -2.57178 -1.5582 0
M  V30 6199 C 581.47 -2.64233 -1.67779 0
M  V30 6200 C 581.945 -3.98879 -2.25076 0
M  V30 6201 N 583.436 -4.00647 -2.32456 0
M  V30 6202 C 584.171 -5.01621 -2.77784 0
M  V30 6203 N 583.667 -6.12989 -3.22826 0
M  V30 6204 N 585.46 -4.88988 -2.77213 0
M  V30 6205 H 577.611 -2.12335 -0.05253 0
M  V30 6206 H 579.874 -0.9441 -0.085898 0
M  V30 6207 H 579.58 -3.39903 -0.903249 0
M  V30 6208 H 579.454 -2.78618 -2.54267 0
M  V30 6209 H 581.841 -1.81876 -2.3239 0
M  V30 6210 H 581.922 -2.46619 -0.679178 0
M  V30 6211 H 581.566 -4.81678 -1.61086 0
M  V30 6212 H 581.496 -4.13826 -3.25661 0
M  V30 6213 H 583.987 -3.20231 -2.0065 0
M  V30 6214 H 584.3 -6.85921 -3.55995 0
M  V30 6215 H 582.645 -6.16547 -3.20773 0
M  V30 6216 H 585.836 -4.01075 -2.41363 0
M  V30 6217 H 586.009 -5.67822 -3.12221 0
M  V30 6218 N 579.415 0.9433 -1.26252 0
M  V30 6219 C 580.362 2.0417 -1.07625 0
M  V30 6220 C 581.332 1.6609 0.0180738 0
M  V30 6221 O 582.517 1.90276 -0.141289 0
M  V30 6222 C 579.657 3.37653 -0.713043 0
M  V30 6223 C 578.77 3.88783 -1.8834 0
M  V30 6224 C 577.905 5.10642 -1.4635 0
M  V30 6225 C 576.944 5.54028 -2.60229 0
M  V30 6226 N 576.081 6.67092 -2.18936 0
M  V30 6227 H 580.921 2.19436 -2.01623 0
M  V30 6228 H 578.458 1.07519 -1.00389 0
M  V30 6229 H 580.416 4.14391 -0.483358 0
M  V30 6230 H 579.046 3.22241 0.18996 0
M  V30 6231 H 578.098 3.08464 -2.22608 0
M  V30 6232 H 579.41 4.16922 -2.73821 0
M  V30 6233 H 578.564 5.94832 -1.19414 0
M  V30 6234 H 577.303 4.84244 -0.579568 0
M  V30 6235 H 576.308 4.68396 -2.87898 0
M  V30 6236 H 577.533 5.82429 -3.49219 0
M  V30 6237 H 575.479 6.42381 -1.32974 0
M  V30 6238 H 575.396 6.94806 -2.97961 0
M  V30 6239 H 576.664 7.54662 -1.95206 0
M  V30 6240 N 580.893 1.08022 1.14757 0
M  V30 6241 C 581.823 0.728248 2.21853 0
M  V30 6242 C 582.804 -0.287486 1.67653 0
M  V30 6243 O 583.989 -0.158727 1.9355 0
M  V30 6244 C 581.119 0.132549 3.47047 0
M  V30 6245 C 580.073 1.07619 4.14249 0
M  V30 6246 C 579.399 0.342907 5.33599 0
M  V30 6247 C 580.699 2.41268 4.63235 0
M  V30 6248 H 582.393 1.62365 2.51551 0
M  V30 6249 H 579.939 0.782125 1.20908 0
M  V30 6250 H 581.892 -0.125665 4.21213 0
M  V30 6251 H 580.616 -0.797971 3.16702 0
M  V30 6252 H 579.275 1.31944 3.42033 0
M  V30 6253 H 578.923 -0.59129 4.99513 0
M  V30 6254 H 578.623 0.971955 5.79506 0
M  V30 6255 H 580.147 0.0926538 6.1053 0
M  V30 6256 H 581.561 2.21232 5.28894 0
M  V30 6257 H 579.958 2.9983 5.19829 0
M  V30 6258 H 581.028 3.03079 3.78512 0
M  V30 6259 N 582.371 -1.3172 0.865308 0
M  V30 6260 C 583.301 -2.31109 0.333302 0
M  V30 6261 C 584.282 -1.60148 -0.573301 0
M  V30 6262 O 585.467 -1.87882 -0.491305 0
M  V30 6263 C 582.597 -3.44104 -0.470078 0
M  V30 6264 C 581.551 -4.26623 0.343021 0
M  V30 6265 C 580.877 -5.31482 -0.585756 0
M  V30 6266 C 582.177 -4.98001 1.57456 0
M  V30 6267 H 583.871 -2.75855 1.1638 0
M  V30 6268 H 581.417 -1.3262 0.561069 0
M  V30 6269 H 583.37 -4.12682 -0.852752 0
M  V30 6270 H 582.094 -2.98112 -1.33404 0
M  V30 6271 H 580.753 -3.59707 0.707583 0
M  V30 6272 H 580.401 -4.81741 -1.44686 0
M  V30 6273 H 580.101 -5.87582 -0.0456494 0
M  V30 6274 H 581.625 -6.0292 -0.965375 0
M  V30 6275 H 583.039 -5.59201 1.26359 0
M  V30 6276 H 581.436 -5.63876 2.05339 0
M  V30 6277 H 582.506 -4.25253 2.32997 0
M  V30 6278 N 583.85 -0.624285 -1.44708 0
M  V30 6279 C 584.76 0.0861083 -2.34442 0
M  V30 6280 C 585.776 0.84291 -1.5222 0
M  V30 6281 O 586.952 0.796723 -1.84971 0
M  V30 6282 C 584.017 1.05999 -3.30099 0
M  V30 6283 C 583.077 0.303316 -4.28227 0
M  V30 6284 C 582.311 1.23081 -5.19314 0
M  V30 6285 O 582.534 2.46929 -5.14181 0
M  V30 6286 O 581.468 0.71883 -5.97592 0
M  V30 6287 H 585.293 -0.651756 -2.96624 0
M  V30 6288 H 582.879 -0.384493 -1.44368 0
M  V30 6289 H 584.76 1.62046 -3.88997 0
M  V30 6290 H 583.436 1.77859 -2.70459 0
M  V30 6291 H 582.343 -0.300033 -3.72895 0
M  V30 6292 H 583.676 -0.375123 -4.90768 0
M  V30 6293 N 585.328 1.53329 -0.364422 0
M  V30 6294 C 586.576 2.00842 0.225189 0
M  V30 6295 C 586.897 1.25345 1.49378 0
M  V30 6296 O 586.167 0.366396 1.92443 0
M  V30 6297 H 584.747 0.742009 0.0862027 0
M  V30 6298 H 587.409 1.8863 -0.490389 0
M  V30 6299 H 586.505 3.08795 0.452987 0
M  V30 6300 N 586.806 0.0935595 1.57322 0
M  V30 6301 C 587.716 -0.880192 2.17462 0
M  V30 6302 C 588.732 -1.31135 1.14366 0
M  V30 6303 O 589.908 -1.37958 1.46729 0
M  V30 6304 C 586.973 -2.12184 2.74188 0
M  V30 6305 C 586.034 -1.74503 3.92234 0
M  V30 6306 C 585.267 -2.92748 4.46245 0
M  V30 6307 O 585.49 -4.07427 3.99198 0
M  V30 6308 O 584.424 -2.71303 5.37288 0
M  V30 6309 H 588.25 -0.398516 3.01074 0
M  V30 6310 H 585.835 -0.130707 1.48827 0
M  V30 6311 H 587.717 -2.84953 3.10451 0
M  V30 6312 H 586.392 -2.59407 1.93623 0
M  V30 6313 H 585.299 -0.989186 3.60785 0
M  V30 6314 H 586.632 -1.32044 4.74157 0
M  V30 6315 N 588.284 -1.56567 -0.180126 0
M  V30 6316 C 589.194 -1.98947 -1.24327 0
M  V30 6317 C 590.21 -0.899446 -1.4895 0
M  V30 6318 O 591.386 -1.20639 -1.61271 0
M  V30 6319 C 588.451 -2.33328 -2.56435 0
M  V30 6320 C 587.512 -3.56114 -2.39752 0
M  V30 6321 C 586.745 -3.88845 -3.65561 0
M  V30 6322 O 586.968 -3.22662 -4.70368 0
M  V30 6323 O 585.902 -4.82226 -3.60197 0
M  V30 6324 H 589.728 -2.89634 -0.913565 0
M  V30 6325 H 587.313 -1.44319 -0.386306 0
M  V30 6326 H 589.195 -2.5645 -3.34382 0
M  V30 6327 H 587.87 -1.45806 -2.89002 0
M  V30 6328 H 586.777 -3.38221 -1.59866 0
M  V30 6329 H 588.11 -4.4415 -2.12113 0
M  V30 6330 N 589.762 0.448376 -1.51087 0
M  V30 6331 C 590.987 1.22605 -1.6728 0
M  V30 6332 C 591.412 1.84524 -0.365045 0
M  V30 6333 O 590.77 1.6832 0.673642 0
M  V30 6334 C 590.818 2.29393 -2.78229 0
M  V30 6335 O 589.922 3.34608 -2.41063 0
M  V30 6336 H 589.263 0.359705 -0.558129 0
M  V30 6337 H 591.793 0.530903 -1.97592 0
M  V30 6338 H 591.803 2.74352 -3.01986 0
M  V30 6339 H 590.478 1.83701 -3.73131 0
M  V30 6340 H 589.055 2.95202 -2.27838 0
M  V30 6341 N 591.24 1.41047 0.703093 0
M  V30 6342 C 592.656 1.23351 1.01275 0
M  V30 6343 C 592.856 0.11754 2.01157 0
M  V30 6344 O 591.912 -0.520518 2.47077 0
M  V30 6345 C 593.225 2.58001 1.54454 0
M  V30 6346 C 594.773 2.65119 1.66376 0
M  V30 6347 C 595.248 4.00067 2.22958 0
M  V30 6348 N 596.739 4.01875 2.30328 0
M  V30 6349 C 597.474 5.03087 2.75119 0
M  V30 6350 N 596.97 6.14692 3.19571 0
M  V30 6351 N 598.763 4.90451 2.74616 0
M  V30 6352 H 590.914 2.1236 0.0412686 0
M  V30 6353 H 593.177 0.944543 0.08089 0
M  V30 6354 H 592.883 3.40378 0.88521 0
M  V30 6355 H 592.757 2.79962 2.52786 0
M  V30 6356 H 595.144 1.83106 2.31422 0
M  V30 6357 H 595.225 2.46975 0.666089 0
M  V30 6358 H 594.869 4.82526 1.58529 0
M  V30 6359 H 594.799 4.15547 3.23462 0
M  V30 6360 H 597.29 3.21291 1.98949 0
M  V30 6361 H 597.603 6.87799 3.52352 0
M  V30 6362 H 595.948 6.18239 3.17498 0
M  V30 6363 H 599.139 4.0235 2.39233 0
M  V30 6364 H 599.312 5.6947 3.09206 0
M  V30 6365 N 592.718 -0.936591 1.26751 0
M  V30 6366 C 593.648 -2.05315 1.11212 0
M  V30 6367 C 594.629 -1.70092 0.0160262 0
M  V30 6368 O 595.814 -1.93279 0.188894 0
M  V30 6369 C 592.944 -3.39123 0.749171 0
M  V30 6370 C 591.898 -3.88425 1.79751 0
M  V30 6371 C 591.224 -5.18936 1.28876 0
M  V30 6372 C 592.524 -4.12798 3.19992 0
M  V30 6373 H 594.218 -2.18573 2.04613 0
M  V30 6374 H 591.764 -1.05027 0.985159 0
M  V30 6375 H 593.717 -4.16704 0.627323 0
M  V30 6376 H 592.441 -3.25855 -0.220543 0
M  V30 6377 H 591.1 -3.13028 1.90811 0
M  V30 6378 H 590.748 -5.02051 0.308757 0
M  V30 6379 H 590.448 -5.52892 1.98958 0
M  V30 6380 H 591.972 -5.99096 1.17967 0
M  V30 6381 H 593.386 -4.80977 3.11983 0
M  V30 6382 H 591.783 -4.58044 3.87705 0
M  V30 6383 H 592.853 -3.18412 3.65707 0
M  V30 6384 N 594.196 -1.08629 -1.14182 0
M  V30 6385 C 595.106 -0.730126 -2.22949 0
M  V30 6386 C 596.122 0.26436 -1.7198 0
M  V30 6387 O 597.298 0.107742 -2.01112 0
M  V30 6388 C 594.363 -0.147227 -3.46387 0
M  V30 6389 C 593.424 -1.19662 -4.12286 0
M  V30 6390 C 592.657 -0.641437 -5.29831 0
M  V30 6391 O 592.88 0.538351 -5.67854 0
M  V30 6392 O 591.814 -1.39257 -5.85569 0
M  V30 6393 H 595.64 -1.63753 -2.55771 0
M  V30 6394 H 593.225 -0.860118 -1.22157 0
M  V30 6395 H 595.107 0.174923 -4.21037 0
M  V30 6396 H 593.782 0.733304 -3.15285 0
M  V30 6397 H 592.689 -1.57133 -3.395 0
M  V30 6398 H 594.022 -2.0495 -4.475 0
M  V30 6399 N 595.674 1.31259 -0.872281 0
M  V30 6400 C 596.899 2.0133 -0.498099 0
M  V30 6401 C 597.324 1.65031 0.902568 0
M  V30 6402 O 596.682 0.860164 1.59596 0
M  V30 6403 C 596.73 3.54411 -0.665205 0
M  V30 6404 O 595.834 4.11347 0.294473 0
M  V30 6405 H 595.175 0.633844 -0.197832 0
M  V30 6406 H 597.705 1.67402 -1.17633 0
M  V30 6407 H 597.715 4.04147 -0.559373 0
M  V30 6408 H 596.39 3.80171 -1.68651 0
M  V30 6409 H 594.967 3.72624 0.143403 0
M  V30 6410 N 597.152 0.631951 1.44375 0
M  V30 6411 C 598.4 0.136497 2.01639 0
M  V30 6412 C 598.721 -1.24637 1.49969 0
M  V30 6413 O 597.991 -1.82827 0.70363 0
M  V30 6414 H 596.571 0.0474703 0.74549 0
M  V30 6415 H 599.233 0.818837 1.76865 0
M  V30 6416 H 598.329 0.104817 3.11924 0
M  V30 6417 N 598.631 -1.53133 0.372548 0
M  V30 6418 C 599.564 -2.22328 -0.514361 0
M  V30 6419 C 600.542 -1.21776 -1.07747 0
M  V30 6420 O 601.726 -1.50704 -1.13228 0
M  V30 6421 C 598.853 -2.92343 -1.71035 0
M  V30 6422 C 597.899 -4.07026 -1.27405 0
M  V30 6423 S 598.732 -5.34821 -0.269526 0
M  V30 6424 C 599.888 -6.08352 -1.47168 0
M  V30 6425 H 600.121 -2.9721 0.0732683 0
M  V30 6426 H 597.654 -1.53603 0.156673 0
M  V30 6427 H 599.612 -3.33296 -2.39634 0
M  V30 6428 H 598.273 -2.17173 -2.26925 0
M  V30 6429 H 597.466 -4.55056 -2.16656 0
M  V30 6430 H 597.068 -3.68001 -0.66719 0
M  V30 6431 H 599.36 -6.33507 -2.40157 0
M  V30 6432 H 600.303 -7.0053 -1.03263 0
M  V30 6433 H 600.711 -5.38893 -1.6809 0
M  V30 6434 N 600.109 -0.101901 -1.5727 0
M  V30 6435 C 601.041 0.884723 -2.11436 0
M  V30 6436 C 602.054 1.24149 -1.05314 0
M  V30 6437 O 603.243 1.19341 -1.3274 0
M  V30 6438 C 600.343 2.19179 -2.58484 0
M  V30 6439 C 599.516 2.00933 -3.88516 0
M  V30 6440 C 598.575 3.15213 -4.2134 0
M  V30 6441 O 597.601 2.88877 -4.90448 0
M  V30 6442 N 598.803 4.41174 -3.77288 0
M  V30 6443 H 601.568 0.422058 -2.96713 0
M  V30 6444 H 599.129 0.0830128 -1.61687 0
M  V30 6445 H 601.121 2.94593 -2.77484 0
M  V30 6446 H 599.691 2.56847 -1.7818 0
M  V30 6447 H 598.911 1.09809 -3.78597 0
M  V30 6448 H 600.199 1.86026 -4.73573 0
M  V30 6449 H 599.597 4.6545 -3.21516 0
M  V30 6450 H 598.154 5.13515 -4.01429 0
M  V30 6451 N 601.587 1.56661 0.17182 0
M  V30 6452 C 602.535 1.97289 1.23207 0
M  V30 6453 C 603.529 0.861566 1.45854 0
M  V30 6454 O 604.735 1.04668 1.4644 0
M  V30 6455 H 601.11 0.627681 0.41415 0
M  V30 6456 H 603.081 2.85662 0.862542 0
M  V30 6457 C 601.83 2.34849 2.564 0
M  V30 6458 H 601.153 3.19903 2.39797 0
M  V30 6459 H 602.593 2.67121 3.29276 0
M  V30 6460 C 601.052 1.19172 3.15119 0
M  V30 6461 O 601.582 0.479113 3.98833 0
M  V30 6462 N 599.788 0.962415 2.74201 0
M  V30 6463 H 599.335 1.54365 2.06226 0
M  V30 6464 H 599.293 0.190272 3.13824 0
M  V30 6465 N 603.065 -0.440357 1.51323 0
M  V30 6466 C 603.998 -1.55414 1.67098 0
M  V30 6467 C 604.976 -1.54108 0.518599 0
M  V30 6468 O 606.16 -1.7328 0.742054 0
M  V30 6469 C 603.287 -2.93996 1.68179 0
M  V30 6470 C 602.333 -3.13338 2.89347 0
M  V30 6471 S 603.166 -2.89957 4.50206 0
M  V30 6472 C 604.322 -4.30826 4.54027 0
M  V30 6473 H 604.555 -1.41798 2.61306 0
M  V30 6474 H 602.088 -0.629841 1.40969 0
M  V30 6475 H 604.046 -3.73878 1.69487 0
M  V30 6476 H 602.707 -3.04976 0.751542 0
M  V30 6477 H 601.9 -4.14652 2.86495 0
M  V30 6478 H 601.502 -2.41276 2.85766 0
M  V30 6479 H 603.794 -5.23977 4.29481 0
M  V30 6480 H 604.737 -4.38712 5.55822 0
M  V30 6481 H 605.145 -4.1434 3.83384 0
M  V30 6482 N 604.543 -1.41418 -0.695603 0
M  V30 6483 C 605.768 -1.44329 -1.48942 0
M  V30 6484 C 606.193 -0.0501579 -1.88033 0
M  V30 6485 O 605.551 0.946598 -1.54626 0
M  V30 6486 C 605.599 -2.3578 -2.72837 0
M  V30 6487 O 604.703 -1.81482 -3.70322 0
M  V30 6488 H 604.044 -0.489838 -0.44828 0
M  V30 6489 H 606.574 -1.85878 -0.855014 0
M  V30 6490 H 606.584 -2.51654 -3.21145 0
M  V30 6491 H 605.259 -3.37005 -2.43722 0
M  V30 6492 H 603.836 -1.75058 -3.29255 0
M  V30 6493 N 606.021 0.929856 -1.27246 0
M  V30 6494 C 607.27 1.67182 -1.12842 0
M  V30 6495 C 607.583 1.9287 0.325666 0
M  V30 6496 O 608.789 2.64999 0.590572 0
M  V30 6497 C 607.245 3.01097 -1.97151 0
M  V30 6498 C 606.853 2.83115 -3.47203 0
M  V30 6499 C 608.597 3.78907 -1.91389 0
M  V30 6500 C 606.504 4.12573 -4.23719 0
M  V30 6501 H 605.434 0.627064 -0.418697 0
M  V30 6502 H 608.085 1.0332 -1.51649 0
M  V30 6503 H 606.467 3.66004 -1.51186 0
M  V30 6504 H 607.641 2.26989 -4.01015 0
M  V30 6505 H 605.956 2.18736 -3.54321 0
M  V30 6506 H 608.553 4.74837 -2.45834 0
M  V30 6507 H 608.896 4.0674 -0.887047 0
M  V30 6508 H 609.429 3.20794 -2.35237 0
M  V30 6509 H 606.168 3.8992 -5.26918 0
M  V30 6510 H 605.688 4.68371 -3.74685 0
M  V30 6511 H 607.367 4.8095 -4.32777 0
M  V30 6512 N 607.499 1.09233 1.13605 0
M  V30 6513 C 608.449 0.6994 2.17008 0
M  V30 6514 C 609.433 -0.285238 1.58352 0
M  V30 6515 O 610.625 -0.09592 1.7674 0
M  V30 6516 C 607.754 0.11938 3.43092 0
M  V30 6517 C 606.84 1.13031 4.0876 0
M  V30 6518 N 607.231 2.31673 4.49623 0
M  V30 6519 C 605.529 0.967999 4.35369 0
M  V30 6520 C 606.23 2.95964 5.00779 0
M  V30 6521 N 605.206 2.23534 4.95513 0
M  V30 6522 H 609.008 1.60272 2.46354 0
M  V30 6523 H 606.522 0.968257 1.30378 0
M  V30 6524 H 608.519 -0.180122 4.16511 0
M  V30 6525 H 607.179 -0.778816 3.15221 0
M  V30 6526 H 608.19 2.69277 4.42391 0
M  V30 6527 H 604.867 0.124319 4.17315 0
M  V30 6528 H 606.257 3.96813 5.42208 0
M  V30 6529 N 608.977 -1.30795 0.87923 0
M  V30 6530 C 610.205 -2.00527 0.509548 0
M  V30 6531 C 610.62 -1.65944 -0.90045 0
M  V30 6532 O 609.977 -0.893525 -1.5913 0
M  V30 6533 C 610.028 -3.55276 0.667943 0
M  V30 6534 O 609.749 -3.88625 2.02242 0
M  V30 6535 C 611.25 -4.4228 0.300494 0
M  V30 6536 H 608.47 -0.641261 0.197549 0
M  V30 6537 H 611.014 -1.66813 1.18295 0
M  V30 6538 H 609.169 -3.87377 0.0419843 0
M  V30 6539 H 609.583 -4.83334 2.03688 0
M  V30 6540 H 611.057 -5.50061 0.462242 0
M  V30 6541 H 611.534 -4.32556 -0.76106 0
M  V30 6542 H 612.14 -4.15613 0.902536 0
M  V30 6543 N 610.455 -0.639598 -1.44038 0
M  V30 6544 C 611.402 0.0602458 -2.30721 0
M  V30 6545 C 612.372 0.828352 -1.43971 0
M  V30 6546 O 613.557 0.807693 -1.72861 0
M  V30 6547 C 610.697 1.03008 -3.29368 0
M  V30 6548 C 609.81 0.259502 -4.3122 0
M  V30 6549 C 608.945 1.22191 -5.16955 0
M  V30 6550 C 607.984 0.440978 -6.10509 0
M  V30 6551 N 607.121 1.35428 -6.88915 0
M  V30 6552 H 611.961 -0.684867 -2.90023 0
M  V30 6553 H 609.498 -0.349509 -1.42888 0
M  V30 6554 H 611.456 1.60583 -3.85057 0
M  V30 6555 H 610.086 1.74222 -2.71747 0
M  V30 6556 H 609.138 -0.432317 -3.77935 0
M  V30 6557 H 610.45 -0.348347 -4.97582 0
M  V30 6558 H 609.604 1.86873 -5.77203 0
M  V30 6559 H 608.343 1.86367 -4.50687 0
M  V30 6560 H 607.348 -0.219279 -5.49363 0
M  V30 6561 H 608.573 -0.196192 -6.78817 0
M  V30 6562 H 606.519 1.9831 -6.25307 0
M  V30 6563 H 606.436 0.800657 -7.51748 0
M  V30 6564 H 607.704 1.98967 -7.53679 0
M  V30 6565 N 611.933 1.52934 -0.380664 0
M  V30 6566 C 613.161 2.05886 0.204599 0
M  V30 6567 C 613.576 1.25305 1.41223 0
M  V30 6568 O 612.933 0.297504 1.80059 0
M  V30 6569 C 612.984 3.56764 0.583249 0
M  V30 6570 O 612.705 4.34292 -0.576398 0
M  V30 6571 C 614.206 4.2603 1.2253 0
M  V30 6572 H 611.426 0.670193 0.0328991 0
M  V30 6573 H 613.97 1.97148 -0.543397 0
M  V30 6574 H 612.125 3.65603 1.28115 0
M  V30 6575 H 612.539 5.23819 -0.267119 0
M  V30 6576 H 614.013 5.32868 1.44068 0
M  V30 6577 H 614.49 3.80698 2.19011 0
M  V30 6578 H 615.096 4.21485 0.568407 0
M  V30 6579 N 613.412 0.11024 1.57214 0
M  V30 6580 C 614.64 -0.557834 1.99238 0
M  V30 6581 C 615.055 -1.60778 0.989734 0
M  V30 6582 O 614.412 -1.82491 -0.0186092 0
M  V30 6583 C 614.463 -1.19189 3.41286 0
M  V30 6584 O 614.184 -0.183919 4.37714 0
M  V30 6585 C 615.685 -1.94413 3.98395 0
M  V30 6586 H 612.905 -0.148392 0.654386 0
M  V30 6587 H 615.449 0.193996 2.03578 0
M  V30 6588 H 613.604 -1.89456 3.37913 0
M  V30 6589 H 614.018 -0.643475 5.20538 0
M  V30 6590 H 615.492 -2.34116 4.99894 0
M  V30 6591 H 615.969 -2.81592 3.3705 0
M  V30 6592 H 616.575 -1.28928 4.05287 0
M  V30 6593 N 614.89 -1.56749 -0.16351 0
M  V30 6594 C 616.115 -1.86938 -0.898264 0
M  V30 6595 C 616.54 -0.697456 -1.74692 0
M  V30 6596 O 615.898 0.353327 -1.77824 0
M  V30 6597 C 615.946 -3.15599 -1.74441 0
M  V30 6598 O 615.05 -2.98371 -2.8469 0
M  V30 6599 H 614.391 -0.614659 -0.251178 0
M  V30 6600 H 616.921 -2.03979 -0.159298 0
M  V30 6601 H 616.931 -3.47202 -2.14277 0
M  V30 6602 H 615.606 -4.00505 -1.1211 0
M  V30 6603 H 614.183 -2.7814 -2.4838 0
M  V30 6604 N 616.368 0.432326 -1.51554 0
M  V30 6605 C 617.616 1.17901 -1.64146 0
M  V30 6606 C 617.937 1.91604 -0.362367 0
M  V30 6607 O 617.207 1.85764 0.621968 0
M  V30 6608 H 615.787 0.438206 -0.604966 0
M  V30 6609 H 618.449 0.495172 -1.88505 0
M  V30 6610 H 617.545 1.90584 -2.47152 0
M  V30 6611 N 617.846 1.41785 0.688094 0
M  V30 6612 C 619.076 1.44705 1.47459 0
M  V30 6613 C 619.484 0.052916 1.89126 0
M  V30 6614 O 618.827 -0.939781 1.57841 0
M  V30 6615 C 618.889 2.29935 2.76352 0
M  V30 6616 C 618.553 3.77996 2.56843 0
M  V30 6617 C 619.55 4.69976 2.22304 0
M  V30 6618 C 617.235 4.2212 2.7225 0
M  V30 6619 C 619.229 6.04068 2.03421 0
M  V30 6620 C 616.916 5.56275 2.52985 0
M  V30 6621 C 617.914 6.47065 2.18621 0
M  V30 6622 O 617.602 7.78744 1.9953 0
M  V30 6623 H 617.334 0.494703 0.460701 0
M  V30 6624 H 619.888 1.86802 0.854057 0
M  V30 6625 H 618.118 1.82664 3.40839 0
M  V30 6626 H 619.807 2.24467 3.38186 0
M  V30 6627 H 620.573 4.37175 2.10008 0
M  V30 6628 H 616.452 3.51752 2.97979 0
M  V30 6629 H 619.996 6.74897 1.76523 0
M  V30 6630 H 615.893 5.88653 2.64873 0
M  V30 6631 H 616.661 7.89966 2.14234 0
M  V30 6632 N 619.324 -0.923095 1.27737 0
M  V30 6633 C 620.287 -2.00587 1.10894 0
M  V30 6634 C 621.287 -1.60718 0.0514927 0
M  V30 6635 O 622.477 -1.71658 0.296481 0
M  V30 6636 C 619.609 -3.33829 0.690717 0
M  V30 6637 H 620.802 -2.16959 2.07048 0
M  V30 6638 H 618.355 -1.10451 1.1059 0
M  V30 6639 H 619.09 -3.23157 -0.272 0
M  V30 6640 H 618.875 -3.64125 1.45448 0
M  V30 6641 H 620.365 -4.13336 0.595252 0
M  V30 6642 N 620.802 -1.09834 -1.13024 0
M  V30 6643 C 622.05 -0.835297 -1.8403 0
M  V30 6644 C 622.371 0.640944 -1.84165 0
M  V30 6645 O 621.641 1.46517 -1.30037 0
M  V30 6646 H 620.221 -0.306018 -0.681441 0
M  V30 6647 H 622.883 -1.38734 -1.36891 0
M  V30 6648 H 621.979 -1.19258 -2.88416 0
M  V30 6649 N 622.28 1.30327 -0.886154 0
M  V30 6650 C 623.528 1.9571 -0.504195 0
M  V30 6651 C 623.849 1.70294 0.950003 0
M  V30 6652 O 623.119 1.02718 1.66811 0
M  V30 6653 H 621.699 0.72412 -0.183465 0
M  V30 6654 H 624.361 1.58835 -1.12949 0
M  V30 6655 H 623.457 3.04704 -0.675431 0
M  V30 6656 N 623.758 0.647228 1.43697 0
M  V30 6657 C 624.688 -0.0345631 2.33474 0
M  V30 6658 C 625.669 -0.818193 1.4913 0
M  V30 6659 O 626.854 -0.780867 1.77809 0
M  V30 6660 C 623.984 -1.00576 3.32418 0
M  V30 6661 C 622.938 -0.33266 4.26705 0
M  V30 6662 C 622.264 -1.41489 5.1564 0
M  V30 6663 C 623.564 0.771204 5.16575 0
M  V30 6664 H 625.258 0.715163 2.90733 0
M  V30 6665 H 622.804 0.345364 1.39797 0
M  V30 6666 H 624.757 -1.49159 3.94119 0
M  V30 6667 H 623.481 -1.78657 2.73403 0
M  V30 6668 H 622.14 0.13267 3.6636 0
M  V30 6669 H 621.788 -2.18698 4.52968 0
M  V30 6670 H 621.488 -0.969799 5.79542 0
M  V30 6671 H 623.012 -1.9022 5.80214 0
M  V30 6672 H 624.426 0.36779 5.72119 0
M  V30 6673 H 622.823 1.1404 5.89165 0
M  V30 6674 H 623.893 1.63169 4.56622 0
M  V30 6675 N 625.236 -1.5273 0.388769 0
M  V30 6676 C 626.461 -2.0647 -0.19621 0
M  V30 6677 C 626.886 -1.25865 -1.39784 0
M  V30 6678 O 626.244 -0.283562 -1.79069 0
M  V30 6679 C 626.292 -3.56456 -0.5451 0
M  V30 6680 O 625.396 -3.78426 -1.63912 0
M  V30 6681 H 624.737 -0.663599 -0.023067 0
M  V30 6682 H 627.267 -1.96898 0.556084 0
M  V30 6683 H 627.277 -3.99888 -0.809557 0
M  V30 6684 H 625.952 -4.14561 0.333417 0
M  V30 6685 H 624.529 -3.46884 -1.36842 0
M  V30 6686 N 626.714 -0.118576 -1.57153 0
M  V30 6687 C 627.939 0.550582 -1.99958 0
M  V30 6688 C 628.364 1.59458 -0.997736 0
M  V30 6689 O 627.722 1.81274 0.0306269 0
M  V30 6690 C 627.77 1.15379 -3.41643 0
M  V30 6691 O 626.874 2.26932 -3.44348 0
M  V30 6692 H 626.215 0.137567 -0.649593 0
M  V30 6693 H 628.745 -0.206926 -2.03551 0
M  V30 6694 H 628.755 1.48942 -3.79843 0
M  V30 6695 H 627.43 0.389087 -4.14076 0
M  V30 6696 H 626.007 1.94812 -3.17967 0
M  V30 6697 N 628.193 1.56834 0.155195 0
M  V30 6698 C 629.156 1.96748 1.17571 0
M  V30 6699 C 630.156 0.853006 1.3631 0
M  V30 6700 O 631.346 1.11978 1.33441 0
M  V30 6701 C 628.478 2.27631 2.53765 0
M  V30 6702 H 629.671 2.88085 0.833498 0
M  V30 6703 H 627.224 1.51141 0.398242 0
M  V30 6704 H 627.959 1.39059 2.92973 0
M  V30 6705 H 627.744 3.0888 2.41527 0
M  V30 6706 H 629.234 2.59377 3.27282 0
M  V30 6707 N 629.671 -0.424282 1.51781 0
M  V30 6708 C 630.901 -1.19297 1.68677 0
M  V30 6709 C 631.309 -1.85152 0.389258 0
M  V30 6710 O 630.652 -1.72067 -0.643311 0
M  V30 6711 C 630.714 -2.30929 2.75521 0
M  V30 6712 C 630.378 -1.85335 4.17732 0
M  V30 6713 C 631.375 -1.34951 5.0208 0
M  V30 6714 C 629.06 -1.92629 4.63896 0
M  V30 6715 C 631.054 -0.924636 6.30658 0
M  V30 6716 C 628.741 -1.49754 5.92467 0
M  V30 6717 C 629.739 -0.997543 6.75676 0
M  V30 6718 O 629.427 -0.57492 8.01842 0
M  V30 6719 H 629.159 -0.36512 0.568914 0
M  V30 6720 H 631.713 -0.507327 1.99036 0
M  V30 6721 H 629.943 -3.02811 2.40505 0
M  V30 6722 H 631.632 -2.92748 2.81165 0
M  V30 6723 H 632.398 -1.287 4.67612 0
M  V30 6724 H 628.277 -2.30491 3.99243 0
M  V30 6725 H 631.821 -0.533682 6.95556 0
M  V30 6726 H 627.718 -1.55679 6.26446 0
M  V30 6727 H 628.486 -0.699597 8.15505 0
M  V30 6728 N 631.149 -1.42148 -0.680565 0
M  V30 6729 C 632.397 -1.42029 -1.43779 0
M  V30 6730 C 632.718 -0.0356347 -1.94967 0
M  V30 6731 O 631.988 0.924936 -1.7269 0
M  V30 6732 H 630.568 -0.522835 -0.533529 0
M  V30 6733 H 633.23 -1.7752 -0.804538 0
M  V30 6734 H 632.326 -2.11658 -2.29363 0
M  V30 6735 N 632.627 0.916307 -1.28225 0
M  V30 6736 C 633.875 1.6619 -1.15002 0
M  V30 6737 C 634.196 1.92642 0.302329 0
M  V30 6738 O 633.466 1.54076 1.20985 0
M  V30 6739 H 632.046 0.615964 -0.422608 0
M  V30 6740 H 634.708 1.09963 -1.60917 0
M  V30 6741 H 633.804 2.62533 -1.68769 0
M  V30 6742 N 634.105 1.10431 1.1244 0
M  V30 6743 C 635.035 0.775143 2.20258 0
M  V30 6744 C 636.016 -0.25186 1.68225 0
M  V30 6745 O 637.201 -0.117637 1.93843 0
M  V30 6746 C 634.331 0.206133 3.46688 0
M  V30 6747 C 633.285 1.16382 4.11873 0
M  V30 6748 C 632.611 0.456014 5.32752 0
M  V30 6749 C 633.911 2.5104 4.58013 0
M  V30 6750 H 635.605 1.67665 2.4805 0
M  V30 6751 H 633.151 0.807595 1.19222 0
M  V30 6752 H 635.104 -0.036291 4.21384 0
M  V30 6753 H 633.828 -0.730614 3.18323 0
M  V30 6754 H 632.487 1.39169 3.39157 0
M  V30 6755 H 632.135 -0.485203 5.00654 0
M  V30 6756 H 631.835 1.09466 5.77314 0
M  V30 6757 H 633.359 0.222135 6.10196 0
M  V30 6758 H 634.773 2.32401 5.24083 0
M  V30 6759 H 633.17 3.10789 5.13352 0
M  V30 6760 H 634.24 3.11039 3.71998 0
M  V30 6761 N 635.583 -1.29855 0.893053 0
M  V30 6762 C 636.811 -1.99976 0.530788 0
M  V30 6763 C 637.226 -1.66889 -0.882799 0
M  V30 6764 O 636.583 -0.910352 -1.58173 0
M  V30 6765 C 636.634 -3.54547 0.705587 0
M  V30 6766 O 636.355 -3.86458 2.06353 0
M  V30 6767 C 637.856 -4.41937 0.347387 0
M  V30 6768 H 635.076 -0.639129 0.204339 0
M  V30 6769 H 637.62 -1.65549 1.20057 0
M  V30 6770 H 635.775 -3.87311 0.0830685 0
M  V30 6771 H 636.189 -4.81146 2.08803 0
M  V30 6772 H 637.663 -5.4954 0.520557 0
M  V30 6773 H 638.14 -4.33339 -0.715139 0
M  V30 6774 H 638.746 -4.14633 0.946567 0
M  V30 6775 N 637.061 -0.65484 -1.43351 0
M  V30 6776 C 638.286 -0.175046 -2.0666 0
M  V30 6777 C 638.711 1.15104 -1.4877 0
M  V30 6778 O 638.069 1.71144 -0.598279 0
M  V30 6779 C 638.117 -0.0991544 -3.60464 0
M  V30 6780 O 637.221 0.938169 -4.01587 0
M  V30 6781 H 636.562 -0.0956148 -0.65708 0
M  V30 6782 H 639.092 -0.898222 -1.83829 0
M  V30 6783 H 639.102 0.083632 -4.07914 0
M  V30 6784 H 637.777 -1.06719 -4.01975 0
M  V30 6785 H 636.354 0.72804 -3.65724 0
M  V30 6786 N 638.539 1.52521 -0.396863 0
M  V30 6787 C 639.95 1.86547 0.0754868 0
M  V30 6788 C 640.301 1.31621 1.45501 0
M  V30 6789 O 639.426 0.650563 2.0639 0
M  V30 6790 C 640.021 3.38495 0.143754 0
M  V30 6791 C 638.58 3.72205 0.560413 0
M  V30 6792 C 637.727 2.75954 -0.272856 0
M  V30 6793 H 640.678 1.46323 -0.614434 0
M  V30 6794 H 640.699 3.68153 0.961425 0
M  V30 6795 H 640.211 3.78442 -0.860415 0
M  V30 6796 H 638.312 3.3783 1.57167 0
M  V30 6797 H 638.425 4.78074 0.313314 0
M  V30 6798 H 636.789 2.53339 0.263 0
M  V30 6799 H 637.572 3.1874 -1.27515 0
M  V30 6800 N 640.017 0.126909 1.57088 0
M  V30 6801 C 641.265 -0.528123 1.95078 0
M  V30 6802 C 641.586 -1.66708 1.0116 0
M  V30 6803 O 640.856 -1.95777 0.0693527 0
M  V30 6804 H 639.436 -0.198087 0.720257 0
M  V30 6805 H 642.098 0.197703 1.93895 0
M  V30 6806 H 641.194 -0.917507 2.98309 0
M  V30 6807 N 641.495 -1.56914 -0.146875 0
M  V30 6808 C 642.425 -2.01308 -1.1831 0
M  V30 6809 C 643.406 -0.892664 -1.44795 0
M  V30 6810 O 644.591 -1.16048 -1.55713 0
M  V30 6811 C 641.721 -2.3938 -2.51624 0
M  V30 6812 C 640.675 -3.54608 -2.3966 0
M  V30 6813 C 640.001 -3.78493 -3.77686 0
M  V30 6814 C 641.301 -4.87269 -1.88058 0
M  V30 6815 H 642.995 -2.88123 -0.813964 0
M  V30 6816 H 640.541 -1.38615 -0.3901 0
M  V30 6817 H 642.494 -2.69037 -3.24341 0
M  V30 6818 H 641.218 -1.49502 -2.90373 0
M  V30 6819 H 639.877 -3.25116 -1.69396 0
M  V30 6820 H 639.525 -2.85866 -4.13871 0
M  V30 6821 H 639.225 -4.56039 -3.70543 0
M  V30 6822 H 640.749 -4.10576 -4.51951 0
M  V30 6823 H 642.163 -5.15644 -2.50568 0
M  V30 6824 H 640.56 -5.68622 -1.91805 0
M  V30 6825 H 641.63 -4.77634 -0.836277 0
M  V30 6826 N 642.974 0.416227 -1.52004 0
M  V30 6827 C 644.199 1.19029 -1.69843 0
M  V30 6828 C 644.624 1.83708 -0.404103 0
M  V30 6829 O 643.982 1.69711 0.637787 0
M  V30 6830 C 644.03 2.23439 -2.83032 0
M  V30 6831 O 643.134 3.29419 -2.48106 0
M  V30 6832 H 642.475 0.347785 -0.565634 0
M  V30 6833 H 645.005 0.488871 -1.98674 0
M  V30 6834 H 645.015 2.67884 -3.07737 0
M  V30 6835 H 643.69 1.75745 -3.76944 0
M  V30 6836 H 642.267 2.90303 -2.34048 0
M  V30 6837 N 644.452 1.42507 0.673017 0
M  V30 6838 C 645.682 1.46261 1.45916 0
M  V30 6839 C 646.09 0.0729724 1.89059 0
M  V30 6840 O 645.433 -0.922987 1.58829 0
M  V30 6841 C 645.495 2.32853 2.73898 0
M  V30 6842 C 645.159 3.80699 2.52819 0
M  V30 6843 C 646.156 4.72307 2.17306 0
M  V30 6844 C 643.841 4.24983 2.67758 0
M  V30 6845 C 645.835 6.06192 1.97003 0
M  V30 6846 C 643.522 5.58927 2.4707 0
M  V30 6847 C 644.52 6.49348 2.11746 0
M  V30 6848 O 644.208 7.80817 1.91259 0
M  V30 6849 H 643.94 0.499561 0.455428 0
M  V30 6850 H 646.494 1.87697 0.834196 0
M  V30 6851 H 644.724 1.86268 3.38882 0
M  V30 6852 H 646.413 2.28041 3.35786 0
M  V30 6853 H 647.179 4.39378 2.05359 0
M  V30 6854 H 643.058 3.54893 2.94231 0
M  V30 6855 H 646.602 6.76731 1.69355 0
M  V30 6856 H 642.499 5.91429 2.58615 0
M  V30 6857 H 643.267 7.92194 2.05843 0
M  V30 6858 N 645.93 -0.909495 1.28709 0
M  V30 6859 C 647.155 -1.69801 1.1909 0
M  V30 6860 C 647.58 -1.86479 -0.246388 0
M  V30 6861 O 646.938 -1.37802 -1.17815 0
M  V30 6862 C 646.986 -3.06543 1.89904 0
M  V30 6863 O 646.09 -3.94268 1.2094 0
M  V30 6864 H 645.431 -0.519783 0.413185 0
M  V30 6865 H 647.961 -1.13689 1.70106 0
M  V30 6866 H 647.971 -3.56748 1.97977 0
M  V30 6867 H 646.646 -2.93722 2.94449 0
M  V30 6868 H 645.223 -3.52702 1.2106 0
M  V30 6869 N 647.408 -1.11026 -1.11852 0
M  V30 6870 C 648.338 -0.786812 -2.19844 0
M  V30 6871 C 649.319 0.242935 -1.68356 0
M  V30 6872 O 650.504 0.107355 -1.93903 0
M  V30 6873 C 647.634 -0.224516 -3.46574 0
M  V30 6874 C 646.588 -1.18564 -4.1125 0
M  V30 6875 C 645.914 -0.484261 -5.32503 0
M  V30 6876 C 647.214 -2.53465 -4.56676 0
M  V30 6877 H 648.908 -1.68978 -2.47158 0
M  V30 6878 H 646.454 -0.813906 -1.18792 0
M  V30 6879 H 648.407 0.0139435 -4.21398 0
M  V30 6880 H 647.131 0.713722 -3.18706 0
M  V30 6881 H 645.79 -1.40966 -3.38414 0
M  V30 6882 H 645.438 0.458646 -5.00905 0
M  V30 6883 H 645.138 -1.12526 -5.76725 0
M  V30 6884 H 646.662 -0.254492 -6.10069 0
M  V30 6885 H 648.076 -2.35177 -5.22843 0
M  V30 6886 H 646.473 -3.13507 -5.11697 0
M  V30 6887 H 647.543 -3.13008 -3.70343 0
M  V30 6888 N 648.886 1.2938 -0.899927 0
M  V30 6889 C 650.134 1.95164 -0.524924 0
M  V30 6890 C 650.455 1.71292 0.931888 0
M  V30 6891 O 649.725 1.04481 1.65712 0
M  V30 6892 H 648.305 0.722133 -0.191135 0
M  V30 6893 H 650.967 1.57628 -1.14627 0
M  V30 6894 H 650.063 3.0397 -0.707711 0
M  V30 6895 N 650.364 0.662433 1.43002 0
M  V30 6896 C 651.589 0.186003 2.06564 0
M  V30 6897 C 652.014 -1.14314 1.49379 0
M  V30 6898 O 651.372 -1.70824 0.607346 0
M  V30 6899 C 651.42 0.118269 3.60406 0
M  V30 6900 O 650.524 -0.916859 4.02079 0
M  V30 6901 H 649.865 0.0990981 0.656563 0
M  V30 6902 H 652.395 0.907958 1.8335 0
M  V30 6903 H 652.405 -0.0619981 4.07953 0
M  V30 6904 H 651.08 1.08849 4.01403 0
M  V30 6905 H 649.657 -0.708635 3.66105 0
M  V30 6906 N 651.842 -1.52309 0.404946 0
M  V30 6907 C 653.067 -2.06666 -0.1743 0
M  V30 6908 C 653.492 -1.27341 -1.38441 0
M  V30 6909 O 652.85 -0.302539 -1.78758 0
M  V30 6910 C 652.898 -3.57014 -0.507262 0
M  V30 6911 O 652.002 -3.80144 -1.59889 0
M  V30 6912 H 651.343 -0.663807 -0.0160273 0
M  V30 6913 H 653.873 -1.96297 0.576937 0
M  V30 6914 H 653.883 -4.00724 -0.767098 0
M  V30 6915 H 652.558 -4.14184 0.377368 0
M  V30 6916 H 651.135 -3.48316 -1.33155 0
M  V30 6917 N 653.32 -0.135238 -1.57019 0
M  V30 6918 C 654.567 0.518794 -1.95742 0
M  V30 6919 C 654.895 1.65642 -1.01947 0
M  V30 6920 O 654.15 1.95645 -0.0464016 0
M  V30 6921 C 654.449 1.07694 -3.40788 0
M  V30 6922 C 654.115 0.058992 -4.50861 0
M  V30 6923 C 652.777 -0.220872 -4.80693 0
M  V30 6924 C 655.129 -0.633856 -5.17331 0
M  V30 6925 C 652.457 -1.19959 -5.74305 0
M  V30 6926 C 654.809 -1.60131 -6.11997 0
M  V30 6927 C 653.473 -1.889 -6.40213 0
M  V30 6928 H 652.743 0.18984 -0.716269 0
M  V30 6929 H 655.39 -0.219581 -1.90237 0
M  V30 6930 H 653.695 1.89241 -3.43067 0
M  V30 6931 H 655.392 1.59137 -3.68071 0
M  V30 6932 H 651.982 0.287304 -4.27636 0
M  V30 6933 H 656.166 -0.430823 -4.94427 0
M  V30 6934 H 651.422 -1.42905 -5.94465 0
M  V30 6935 H 655.596 -2.14376 -6.62583 0
M  V30 6936 H 653.223 -2.64891 -7.12556 0
M  V30 6937 N 654.798 1.5699 0.138552 0
M  V30 6938 C 656.046 1.83446 0.848053 0
M  V30 6939 C 656.367 0.71744 1.81322 0
M  V30 6940 O 655.637 -0.260228 1.94164 0
M  V30 6941 H 654.217 0.676792 0.316166 0
M  V30 6942 H 656.879 1.94462 0.130538 0
M  V30 6943 H 655.975 2.78677 1.40518 0
M  V30 6944 N 656.276 -0.40816 1.52223 0
M  V30 6945 C 657.501 -1.18127 1.70472 0
M  V30 6946 C 657.926 -1.83491 0.41384 0
M  V30 6947 O 657.284 -1.70047 -0.628778 0
M  V30 6948 C 657.332 -2.21935 2.84213 0
M  V30 6949 O 656.436 -3.28099 2.4985 0
M  V30 6950 H 655.777 -0.344781 0.56747 0
M  V30 6951 H 658.307 -0.478328 1.9893 0
M  V30 6952 H 658.317 -2.66248 3.09153 0
M  V30 6953 H 656.992 -1.73744 3.7787 0
M  V30 6954 H 655.569 -2.89058 2.35584 0
M  V30 6955 N 657.755 -1.42862 -0.66545 0
M  V30 6956 C 659.003 -1.43546 -1.42264 0
M  V30 6957 C 659.324 -0.0563116 -1.94919 0
M  V30 6958 O 658.594 0.906568 -1.73661 0
M  V30 6959 H 657.174 -0.528464 -0.527953 0
M  V30 6960 H 659.836 -1.78363 -0.785665 0
M  V30 6961 H 658.932 -2.14079 -2.27105 0
M  V30 6962 N 659.233 0.902656 -1.29189 0
M  V30 6963 C 660.196 1.98797 -1.14071 0
M  V30 6964 C 661.196 1.60615 -0.0770549 0
M  V30 6965 O 662.386 1.71165 -0.323753 0
M  V30 6966 C 659.518 3.32688 -0.743739 0
M  V30 6967 H 660.711 2.13637 -2.10473 0
M  V30 6968 H 658.264 1.08678 -1.12334 0
M  V30 6969 H 658.999 3.23549 0.220554 0
M  V30 6970 H 658.784 3.61765 -1.51223 0
M  V30 6971 H 660.274 4.12337 -0.660935 0
M  V30 6972 N 660.711 1.11618 1.11262 0
M  V30 6973 C 661.959 0.864469 1.82678 0
M  V30 6974 C 662.28 -0.611564 1.85162 0
M  V30 6975 O 661.55 -1.44429 1.32352 0
M  V30 6976 H 660.13 0.316821 0.676486 0
M  V30 6977 H 662.792 1.40894 1.34666 0
M  V30 6978 H 661.888 1.23832 2.86482 0
M  V30 6979 N 662.189 -1.289 0.906776 0
M  V30 6980 C 663.414 -1.99939 0.551303 0
M  V30 6981 C 663.839 -1.67366 -0.858496 0
M  V30 6982 O 663.197 -0.902176 -1.57259 0
M  V30 6983 C 663.245 -3.52523 0.758937 0
M  V30 6984 O 662.349 -4.11983 -0.185308 0
M  V30 6985 H 661.69 -0.628376 0.214568 0
M  V30 6986 H 664.22 -1.64225 1.2203 0
M  V30 6987 H 664.23 -4.02522 0.666329 0
M  V30 6988 H 662.905 -3.75566 1.78671 0
M  V30 6989 H 661.482 -3.72873 -0.0445577 0
M  V30 6990 N 663.667 -0.670007 -1.42649 0
M  V30 6991 C 664.892 -0.196955 -2.06463 0
M  V30 6992 C 665.317 1.1352 -1.49983 0
M  V30 6993 O 664.675 1.705 -0.616397 0
M  V30 6994 C 664.723 -0.137381 -3.60338 0
M  V30 6995 O 663.827 0.895523 -4.02559 0
M  V30 6996 H 663.168 -0.102579 -0.656029 0
M  V30 6997 H 665.698 -0.917669 -1.82866 0
M  V30 6998 H 665.708 0.0403625 -4.0798 0
M  V30 6999 H 664.383 -1.10977 -4.0082 0
M  V30 7000 H 662.96 0.689209 -3.66476 0
M  V30 7001 N 665.145 1.52092 -0.413018 0
M  V30 7002 C 666.37 2.06756 0.163338 0
M  V30 7003 C 666.795 1.28073 1.37764 0
M  V30 7004 O 666.153 0.312015 1.78595 0
M  V30 7005 C 666.201 3.57278 0.488322 0
M  V30 7006 O 665.305 3.80986 1.57871 0
M  V30 7007 H 664.646 0.663882 0.0125068 0
M  V30 7008 H 667.176 1.95988 -0.587339 0
M  V30 7009 H 667.186 4.01125 0.745836 0
M  V30 7010 H 665.861 4.13978 -0.399327 0
M  V30 7011 H 664.438 3.49017 1.31306 0
M  V30 7012 N 666.623 0.143563 1.56945 0
M  V30 7013 C 667.87 -0.508407 1.96014 0
M  V30 7014 C 668.198 -1.65099 1.02824 0
M  V30 7015 O 667.453 -1.95618 0.0567764 0
M  V30 7016 C 667.752 -1.05885 3.41355 0
M  V30 7017 C 667.418 -0.0350809 4.50886 0
M  V30 7018 C 666.08 0.246362 4.80569 0
M  V30 7019 C 668.432 0.661282 5.16988 0
M  V30 7020 C 665.76 1.23003 5.73661 0
M  V30 7021 C 668.112 1.63375 6.11139 0
M  V30 7022 C 666.776 1.92292 6.39203 0
M  V30 7023 H 666.046 -0.186039 0.717266 0
M  V30 7024 H 668.693 0.229667 1.90118 0
M  V30 7025 H 666.998 -1.87419 3.44066 0
M  V30 7026 H 668.695 -1.57183 3.6891 0
M  V30 7027 H 665.285 -0.264622 4.27782 0
M  V30 7028 H 669.469 0.457038 4.94191 0
M  V30 7029 H 664.725 1.46056 5.93698 0
M  V30 7030 H 668.899 2.17887 6.61436 0
M  V30 7031 H 666.526 2.68666 7.11142 0
M  V30 7032 N 668.101 -1.57061 -0.130224 0
M  V30 7033 C 669.326 -1.88802 -0.858409 0
M  V30 7034 C 669.751 -0.734353 -1.73173 0
M  V30 7035 O 669.109 0.315529 -1.78533 0
M  V30 7036 C 669.157 -3.19228 -1.67708 0
M  V30 7037 O 668.261 -3.04343 -2.78297 0
M  V30 7038 H 667.602 -0.619849 -0.238083 0
M  V30 7039 H 670.132 -2.04271 -0.115995 0
M  V30 7040 H 670.142 -3.51669 -2.06864 0
M  V30 7041 H 668.817 -4.02793 -1.0359 0
M  V30 7042 H 667.394 -2.83346 -2.42425 0
M  V30 7043 N 669.579 0.400081 -1.52437 0
M  V30 7044 C 670.995 0.739359 -1.41441 0
M  V30 7045 C 671.195 1.94512 -0.526053 0
M  V30 7046 O 670.251 2.525 0.00472502 0
M  V30 7047 C 671.564 0.984824 -2.84116 0
M  V30 7048 C 673.112 1.08698 -2.93519 0
M  V30 7049 C 673.587 1.36515 -4.37181 0
M  V30 7050 N 675.078 1.43361 -4.40457 0
M  V30 7051 C 675.813 1.66528 -5.48686 0
M  V30 7052 N 675.309 1.87239 -6.67018 0
M  V30 7053 N 677.102 1.68617 -5.36213 0
M  V30 7054 H 669.253 -0.393484 -2.08723 0
M  V30 7055 H 671.516 -0.1138 -0.941145 0
M  V30 7056 H 671.222 0.171096 -3.51284 0
M  V30 7057 H 671.096 1.90253 -3.25705 0
M  V30 7058 H 673.483 1.89129 -2.26526 0
M  V30 7059 H 673.564 0.147432 -2.55375 0
M  V30 7060 H 673.208 0.565982 -5.04737 0
M  V30 7061 H 673.138 2.31737 -4.7287 0
M  V30 7062 H 675.629 1.29108 -3.55161 0
M  V30 7063 H 675.942 2.04392 -7.45281 0
M  V30 7064 H 674.287 1.84486 -6.70067 0
M  V30 7065 H 677.478 1.5198 -4.42741 0
M  V30 7066 H 677.651 1.86332 -6.20632 0
M  V30 7067 N 671.057 1.43213 0.657864 0
M  V30 7068 C 672.285 1.48015 1.44566 0
M  V30 7069 C 672.7 0.0965951 1.88553 0
M  V30 7070 O 672.057 -0.892221 1.59203 0
M  V30 7071 C 672.108 2.42199 2.68369 0
M  V30 7072 O 671.829 3.75173 2.26223 0
M  V30 7073 C 673.33 2.56195 3.61772 0
M  V30 7074 H 670.55 0.502861 0.444266 0
M  V30 7075 H 673.094 1.87907 0.806917 0
M  V30 7076 H 671.249 2.05514 3.28394 0
M  V30 7077 H 671.663 4.25776 3.06293 0
M  V30 7078 H 673.137 3.26182 4.4532 0
M  V30 7079 H 673.614 1.60534 4.0881 0
M  V30 7080 H 674.22 2.93671 3.07632 0
M  V30 7081 N 672.536 -0.895792 1.29666 0
M  V30 7082 C 673.761 -1.68528 1.20885 0
M  V30 7083 C 674.186 -1.8673 -0.226595 0
M  V30 7084 O 673.544 -1.39044 -1.16347 0
M  V30 7085 C 673.592 -3.04512 1.93144 0
M  V30 7086 O 672.696 -3.92963 1.25115 0
M  V30 7087 H 672.037 -0.515371 0.418675 0
M  V30 7088 H 674.567 -1.11878 1.71302 0
M  V30 7089 H 674.577 -3.54628 2.0175 0
M  V30 7090 H 673.252 -2.90582 2.97548 0
M  V30 7091 H 671.829 -3.51399 1.24794 0
M  V30 7092 N 674.014 -1.12206 -1.10668 0
M  V30 7093 C 675.239 -0.898938 -1.86906 0
M  V30 7094 C 675.664 0.546346 -1.79991 0
M  V30 7095 O 675.022 1.38655 -1.1681 0
M  V30 7096 C 675.07 -1.37529 -3.33344 0
M  V30 7097 O 674.174 -0.55218 -4.08687 0
M  V30 7098 H 673.515 -0.323163 -0.580053 0
M  V30 7099 H 676.045 -1.49355 -1.39837 0
M  V30 7100 H 676.055 -1.3733 -3.84193 0
M  V30 7101 H 674.73 -2.42767 -3.37693 0
M  V30 7102 H 673.307 -0.620947 -3.67694 0
M  V30 7103 N 675.492 1.28418 -0.913599 0
M  V30 7104 C 676.717 1.99643 -0.561899 0
M  V30 7105 C 677.142 1.67819 0.849608 0
M  V30 7106 O 676.5 0.910503 1.56779 0
M  V30 7107 C 676.548 3.52116 -0.777622 0
M  V30 7108 O 675.652 4.12076 0.163457 0
M  V30 7109 H 674.993 0.627229 -0.217898 0
M  V30 7110 H 677.523 1.63575 -1.229 0
M  V30 7111 H 677.533 4.02163 -0.687666 0
M  V30 7112 H 676.208 3.74613 -1.8066 0
M  V30 7113 H 674.785 3.72892 0.0247827 0
M  V30 7114 N 676.97 0.677563 1.42291 0
M  V30 7115 C 678.386 0.347376 1.55774 0
M  V30 7116 C 678.586 -1.14703 1.65667 0
M  V30 7117 O 677.642 -1.93252 1.62512 0
M  V30 7118 C 678.955 1.08011 2.80631 0
M  V30 7119 C 680.503 1.06271 2.94407 0
M  V30 7120 C 680.978 1.77683 4.22129 0
M  V30 7121 N 682.469 1.74564 4.29047 0
M  V30 7122 C 683.204 2.26673 5.26694 0
M  V30 7123 N 682.7 2.87176 6.30477 0
M  V30 7124 N 684.493 2.17032 5.18511 0
M  V30 7125 H 676.644 1.64703 1.34114 0
M  V30 7126 H 678.907 0.694038 0.645768 0
M  V30 7127 H 678.613 2.13518 2.79469 0
M  V30 7128 H 678.487 0.647115 3.71608 0
M  V30 7129 H 680.874 0.0159658 2.95096 0
M  V30 7130 H 680.955 1.53461 2.04654 0
M  V30 7131 H 680.599 2.82327 4.22201 0
M  V30 7132 H 680.529 1.2794 5.10822 0
M  V30 7133 H 683.02 1.30436 3.54676 0
M  V30 7134 H 683.333 3.24551 7.01346 0
M  V30 7135 H 681.678 2.91247 6.31031 0
M  V30 7136 H 684.869 1.69451 4.36353 0
M  V30 7137 H 685.042 2.57948 5.94446 0
M  V30 7138 N 678.448 -1.51871 0.421078 0
M  V30 7139 C 679.411 -2.25914 -0.386712 0
M  V30 7140 C 680.411 -1.28733 -0.963555 0
M  V30 7141 O 681.601 -1.52579 -0.840556 0
M  V30 7142 C 678.733 -3.03853 -1.54551 0
M  V30 7143 H 679.926 -2.98754 0.261978 0
M  V30 7144 H 677.479 -1.5533 0.173862 0
M  V30 7145 H 678.214 -2.35392 -2.23072 0
M  V30 7146 H 677.999 -3.75215 -1.13824 0
M  V30 7147 H 679.489 -3.59984 -2.11663 0
M  V30 7148 N 679.926 -0.151884 -1.56866 0
M  V30 7149 C 681.172 0.498742 -1.96572 0
M  V30 7150 C 681.505 1.64194 -1.03702 0
M  V30 7151 O 680.78 1.94334 -0.0803432 0
M  V30 7152 C 681.063 1.00027 -3.45929 0
M  V30 7153 C 680.916 -0.141767 -4.49577 0
M  V30 7154 C 682.235 1.88044 -3.97904 0
M  V30 7155 H 679.354 0.17982 -0.714726 0
M  V30 7156 H 681.996 -0.234097 -1.88552 0
M  V30 7157 H 680.146 1.62476 -3.52894 0
M  V30 7158 H 681.818 -0.778269 -4.54687 0
M  V30 7159 H 680.061 -0.80019 -4.26356 0
M  V30 7160 H 680.732 0.250947 -5.51429 0
M  V30 7161 H 683.208 1.35416 -3.93449 0
M  V30 7162 H 682.084 2.20043 -5.02864 0
M  V30 7163 H 682.345 2.81916 -3.40552 0
M  V30 7164 N 681.404 1.57128 0.121893 0
M  V30 7165 C 682.65 1.84974 0.831418 0
M  V30 7166 C 682.983 0.737204 1.79663 0
M  V30 7167 O 682.258 -0.257199 1.92792 0
M  V30 7168 C 682.541 3.23397 1.58386 0
M  V30 7169 C 682.394 4.45246 0.638445 0
M  V30 7170 C 683.713 3.59355 2.54071 0
M  V30 7171 H 680.832 0.67282 0.300803 0
M  V30 7172 H 683.474 1.89759 0.0957587 0
M  V30 7173 H 681.624 3.19449 2.21098 0
M  V30 7174 H 683.296 4.61295 0.0203925 0
M  V30 7175 H 681.539 4.33771 -0.05023 0
M  V30 7176 H 682.21 5.38765 1.20151 0
M  V30 7177 H 684.686 3.64075 2.01465 0
M  V30 7178 H 683.562 4.57193 3.03752 0
M  V30 7179 H 683.823 2.86622 3.36601 0
M  V30 7180 N 682.882 -0.391992 1.52647 0
M  V30 7181 C 684.128 -1.139 1.67793 0
M  V30 7182 C 684.461 -1.89711 0.41514 0
M  V30 7183 O 683.736 -1.85431 -0.586979 0
M  V30 7184 C 684.019 -2.11966 2.91105 0
M  V30 7185 C 683.872 -1.39939 4.27478 0
M  V30 7186 C 685.191 -3.1243 3.09961 0
M  V30 7187 H 682.31 -0.412707 0.610608 0
M  V30 7188 H 684.952 -0.422725 1.85238 0
M  V30 7189 H 683.102 -2.73048 2.76364 0
M  V30 7190 H 684.774 -0.818439 4.53982 0
M  V30 7191 H 683.017 -0.701246 4.28095 0
M  V30 7192 H 683.688 -2.1158 5.09841 0
M  V30 7193 H 686.164 -2.61435 3.23714 0
M  V30 7194 H 685.04 -3.78294 3.97725 0
M  V30 7195 H 685.301 -3.81127 2.24042 0
M  V30 7196 N 684.36 -1.4356 -0.65026 0
M  V30 7197 C 685.307 -1.48948 -1.76304 0
M  V30 7198 C 686.277 -0.338919 -1.62605 0
M  V30 7199 O 687.462 -0.54649 -1.82806 0
M  V30 7200 C 684.602 -1.42131 -3.14472 0
M  V30 7201 C 683.715 -2.67415 -3.39284 0
M  V30 7202 C 682.85 -2.52565 -4.67316 0
M  V30 7203 C 681.889 -3.73103 -4.85243 0
M  V30 7204 N 681.026 -3.57046 -6.04535 0
M  V30 7205 H 685.866 -2.44032 -1.71034 0
M  V30 7206 H 683.403 -1.21131 -0.834601 0
M  V30 7207 H 685.361 -1.36172 -3.94351 0
M  V30 7208 H 683.991 -0.506273 -3.18805 0
M  V30 7209 H 683.043 -2.8364 -2.53481 0
M  V30 7210 H 684.355 -3.56943 -3.48415 0
M  V30 7211 H 683.509 -2.44331 -5.55326 0
M  V30 7212 H 682.248 -1.60566 -4.60511 0
M  V30 7213 H 681.253 -3.81743 -3.95667 0
M  V30 7214 H 682.478 -4.66115 -4.93876 0
M  V30 7215 H 680.424 -2.67783 -5.98856 0
M  V30 7216 H 680.341 -4.40178 -6.14638 0
M  V30 7217 H 681.609 -3.52669 -6.95158 0
M  V30 7218 N 685.838 0.888903 -1.30139 0
M  V30 7219 C 686.785 1.99422 -1.16188 0
M  V30 7220 C 687.755 1.66017 -0.0523869 0
M  V30 7221 O 688.94 1.89506 -0.221864 0
M  V30 7222 C 686.08 3.34325 -0.855612 0
M  V30 7223 C 685.193 3.80445 -2.0466 0
M  V30 7224 C 684.328 5.03975 -1.67876 0
M  V30 7225 C 683.367 5.42492 -2.83493 0
M  V30 7226 N 682.504 6.57206 -2.47032 0
M  V30 7227 H 687.344 2.10687 -2.10749 0
M  V30 7228 H 684.881 1.03165 -1.04859 0
M  V30 7229 H 686.839 4.11968 -0.658681 0
M  V30 7230 H 685.469 3.22756 0.0531155 0
M  V30 7231 H 684.521 2.98745 -2.3549 0
M  V30 7232 H 685.833 4.04933 -2.91257 0
M  V30 7233 H 684.987 5.89232 -1.44535 0
M  V30 7234 H 683.726 4.8135 -0.784431 0
M  V30 7235 H 682.731 4.55764 -3.07505 0
M  V30 7236 H 683.956 5.67093 -3.73607 0
M  V30 7237 H 681.902 6.36164 -1.601 0
M  V30 7238 H 681.819 6.81543 -3.27161 0
M  V30 7239 H 683.087 7.45704 -2.27038 0
M  V30 7240 N 687.317 1.12792 1.10072 0
M  V30 7241 C 688.566 0.880232 1.81479 0
M  V30 7242 C 688.879 -0.595575 1.86312 0
M  V30 7243 O 690.085 -0.959979 2.53962 0
M  V30 7244 C 688.541 1.52514 3.25987 0
M  V30 7245 C 688.149 3.036 3.29441 0
M  V30 7246 C 689.893 1.35788 4.02196 0
M  V30 7247 C 687.8 3.61007 4.68431 0
M  V30 7248 H 686.73 0.325654 0.680048 0
M  V30 7249 H 689.381 1.35485 1.23758 0
M  V30 7250 H 687.763 0.978188 3.83728 0
M  V30 7251 H 688.937 3.64819 2.81502 0
M  V30 7252 H 687.252 3.19765 2.66719 0
M  V30 7253 H 689.849 1.76096 5.0487 0
M  V30 7254 H 690.192 0.301972 4.15203 0
M  V30 7255 H 690.725 1.87426 3.50879 0
M  V30 7256 H 687.464 4.66375 4.60625 0
M  V30 7257 H 686.984 3.04564 5.16721 0
M  V30 7258 H 688.663 3.60289 5.37402 0
M  V30 7259 N 688.795 -1.27931 0.920396 0
M  V30 7260 C 689.705 -2.30824 0.419212 0
M  V30 7261 C 690.721 -1.66767 -0.496461 0
M  V30 7262 O 691.897 -1.97763 -0.38104 0
M  V30 7263 C 688.962 -3.45158 -0.326601 0
M  V30 7264 C 688.023 -4.24754 0.623098 0
M  V30 7265 C 687.256 -5.33629 -0.0872172 0
M  V30 7266 O 687.479 -5.55204 -1.30784 0
M  V30 7267 O 686.413 -5.99091 0.580875 0
M  V30 7268 H 690.239 -2.75716 1.27337 0
M  V30 7269 H 687.824 -1.32747 0.685465 0
M  V30 7270 H 689.706 -4.14716 -0.747559 0
M  V30 7271 H 688.381 -3.02336 -1.15648 0
M  V30 7272 H 687.288 -3.57759 1.09359 0
M  V30 7273 H 688.621 -4.71272 1.41998 0
M  V30 7274 N 690.273 -0.685099 -1.4193 0
M  V30 7275 C 691.501 -0.220372 -2.05723 0
M  V30 7276 C 691.916 1.12642 -1.51516 0
M  V30 7277 O 691.273 1.70182 -0.659114 0
M  V30 7278 C 691.324 -0.157974 -3.61155 0
M  V30 7279 O 691.045 -1.45156 -4.13354 0
M  V30 7280 C 692.546 0.329009 -4.42077 0
M  V30 7281 H 689.766 -0.104725 -0.662777 0
M  V30 7282 H 692.31 -0.934736 -1.81887 0
M  V30 7283 H 690.465 0.507144 -3.84066 0
M  V30 7284 H 690.879 -1.33172 -5.07312 0
M  V30 7285 H 692.353 0.321559 -5.51063 0
M  V30 7286 H 692.83 1.36608 -4.17414 0
M  V30 7287 H 693.436 -0.304737 -4.24207 0
M  V30 7288 N 691.751 1.51645 -0.429126 0
M  V30 7289 C 693.167 1.59394 -0.080994 0
M  V30 7290 C 693.367 1.44064 1.40882 0
M  V30 7291 O 692.423 1.27771 2.17786 0
M  V30 7292 C 693.736 2.94779 -0.593773 0
M  V30 7293 C 695.284 3.08067 -0.553494 0
M  V30 7294 C 695.759 4.45963 -1.04311 0
M  V30 7295 N 697.25 4.5226 -1.00076 0
M  V30 7296 C 697.985 5.57268 -1.35056 0
M  V30 7297 N 697.481 6.69734 -1.77282 0
M  V30 7298 N 699.274 5.47582 -1.26925 0
M  V30 7299 H 691.425 1.59856 -1.39857 0
M  V30 7300 H 693.688 0.753095 -0.575805 0
M  V30 7301 H 693.394 3.11342 -1.63583 0
M  V30 7302 H 693.268 3.77197 -0.0142202 0
M  V30 7303 H 695.655 2.91177 0.479556 0
M  V30 7304 H 695.736 2.27508 -1.16935 0
M  V30 7305 H 695.38 4.63598 -2.07459 0
M  V30 7306 H 695.31 5.25049 -0.403873 0
M  V30 7307 H 697.801 3.71537 -0.690564 0
M  V30 7308 H 698.114 7.4587 -2.02232 0
M  V30 7309 H 696.459 6.70963 -1.81202 0
M  V30 7310 H 699.65 4.58604 -0.93809 0
M  V30 7311 H 699.823 6.29308 -1.54516 0
M  V30 7312 N 693.229 0.160201 1.56784 0
M  V30 7313 C 694.506 -0.533355 1.88188 0
M  V30 7314 C 694.886 -1.82072 1.06831 0
M  V30 7315 O 694.234 -2.27946 0.158959 0
M  V30 7316 C 694.444 -0.786034 3.40033 0
M  V30 7317 C 695.792 -1.12097 4.09536 0
M  V30 7318 O 696.816 -0.874949 3.45287 0
M  V30 7319 O 695.675 -1.58457 5.23023 0
M  V30 7320 H 692.769 -0.273589 0.780434 0
M  V30 7321 H 695.315 0.197803 1.68543 0
M  V30 7322 H 694.087 0.124515 3.91102 0
M  V30 7323 H 693.71 -1.57091 3.65251 0
M  V30 7324 N 694.707 -1.5719 -0.113559 0
M  V30 7325 C 695.955 -1.84772 -0.818761 0
M  V30 7326 C 696.276 -0.746196 -1.80158 0
M  V30 7327 O 695.546 0.229305 -1.94553 0
M  V30 7328 H 694.126 -0.681737 -0.305359 0
M  V30 7329 H 696.788 -1.94645 -0.0995845 0
M  V30 7330 H 695.884 -2.80878 -1.36067 0
M  V30 7331 N 696.185 0.383891 -1.52853 0
M  V30 7332 C 697.132 1.46924 -1.77995 0
M  V30 7333 C 698.102 1.53958 -0.623396 0
M  V30 7334 O 699.287 1.70134 -0.863657 0
M  V30 7335 C 696.427 2.84093 -1.95921 0
M  V30 7336 C 695.54 2.86171 -3.23621 0
M  V30 7337 C 694.675 4.14799 -3.31836 0
M  V30 7338 C 693.714 4.10948 -4.53639 0
M  V30 7339 N 692.851 5.31192 -4.59107 0
M  V30 7340 H 697.691 1.24786 -2.70615 0
M  V30 7341 H 695.228 0.605265 -1.34071 0
M  V30 7342 H 697.186 3.63755 -2.04299 0
M  V30 7343 H 695.816 3.04671 -1.06656 0
M  V30 7344 H 694.868 1.9885 -3.24288 0
M  V30 7345 H 696.18 2.79194 -4.13343 0
M  V30 7346 H 695.334 5.02867 -3.39425 0
M  V30 7347 H 694.073 4.24505 -2.40097 0
M  V30 7348 H 693.078 3.21268 -4.46169 0
M  V30 7349 H 694.303 4.0286 -5.467 0
M  V30 7350 H 692.249 5.41518 -3.70262 0
M  V30 7351 H 692.166 5.26311 -5.42708 0
M  V30 7352 H 693.434 6.21143 -4.70958 0
M  V30 7353 N 697.663 1.43903 0.642637 0
M  V30 7354 C 698.593 1.52697 1.76652 0
M  V30 7355 C 699.574 0.380816 1.65782 0
M  V30 7356 O 700.759 0.599432 1.84717 0
M  V30 7357 C 697.889 1.45975 3.15133 0
M  V30 7358 C 696.843 2.58949 3.40778 0
M  V30 7359 C 696.169 2.37279 4.79169 0
M  V30 7360 C 697.469 4.01153 3.34475 0
M  V30 7361 H 699.163 2.46766 1.69549 0
M  V30 7362 H 696.709 1.18767 0.814279 0
M  V30 7363 H 698.662 1.5073 3.93521 0
M  V30 7364 H 697.386 0.484162 3.22991 0
M  V30 7365 H 696.045 2.53564 2.64765 0
M  V30 7366 H 695.693 1.37939 4.83717 0
M  V30 7367 H 695.393 3.13016 4.97287 0
M  V30 7368 H 696.917 2.43834 5.59801 0
M  V30 7369 H 698.331 4.07968 4.02784 0
M  V30 7370 H 696.728 4.77001 3.64129 0
M  V30 7371 H 697.798 4.25539 2.32475 0
M  V30 7372 N 699.141 -0.881989 1.30609 0
M  V30 7373 C 700.387 -1.63647 1.19781 0
M  V30 7374 C 700.72 -1.92632 -0.246265 0
M  V30 7375 O 699.995 -1.54938 -1.17577 0
M  V30 7376 C 700.278 -2.97437 2.02985 0
M  V30 7377 C 700.131 -2.75406 3.55628 0
M  V30 7378 C 701.45 -3.98397 1.86997 0
M  V30 7379 H 698.569 -0.593841 0.436488 0
M  V30 7380 H 701.211 -1.02041 1.60273 0
M  V30 7381 H 699.361 -3.50018 1.68581 0
M  V30 7382 H 701.033 -2.2959 4.00107 0
M  V30 7383 H 699.276 -2.09856 3.79662 0
M  V30 7384 H 699.947 -3.70552 4.09139 0
M  V30 7385 H 702.423 -3.54986 2.17081 0
M  V30 7386 H 701.299 -4.89916 2.47536 0
M  V30 7387 H 701.56 -4.3424 0.829943 0
M  V30 7388 N 700.619 -1.13374 -1.09472 0
M  V30 7389 C 701.844 -0.918711 -1.85942 0
M  V30 7390 C 702.269 0.527225 -1.8056 0
M  V30 7391 O 701.627 1.37408 -1.18274 0
M  V30 7392 C 701.675 -1.41056 -3.31867 0
M  V30 7393 O 700.779 -0.595496 -4.08078 0
M  V30 7394 H 700.12 -0.329297 -0.576593 0
M  V30 7395 H 702.65 -1.50829 -1.38245 0
M  V30 7396 H 702.66 -1.41398 -3.82715 0
M  V30 7397 H 701.335 -2.46335 -3.35099 0
M  V30 7398 H 699.912 -0.659911 -3.67014 0
M  V30 7399 N 702.098 1.27442 -0.927168 0
M  V30 7400 C 703.008 2.30599 -0.431448 0
M  V30 7401 C 704.024 1.67028 0.48761 0
M  V30 7402 O 705.2 1.97962 0.370546 0
M  V30 7403 C 702.265 3.45327 0.308292 0
M  V30 7404 C 701.326 4.24418 -0.645615 0
M  V30 7405 C 700.559 5.33667 0.0589164 0
M  V30 7406 O 700.782 5.5589 1.27838 0
M  V30 7407 O 699.716 5.98774 -0.612638 0
M  V30 7408 H 703.542 2.75036 -1.28797 0
M  V30 7409 H 701.127 1.32382 -0.692495 0
M  V30 7410 H 703.009 4.15107 0.725555 0
M  V30 7411 H 701.684 3.02945 1.14043 0
M  V30 7412 H 700.591 3.57174 -1.11255 0
M  V30 7413 H 701.924 4.70512 -1.44496 0
M  V30 7414 N 703.576 0.692616 1.41565 0
M  V30 7415 C 704.801 0.229776 2.06123 0
M  V30 7416 C 705.226 -1.11119 1.5177 0
M  V30 7417 O 704.584 -1.69498 0.643444 0
M  V30 7418 C 704.632 0.19469 3.60074 0
M  V30 7419 O 703.736 -0.831366 4.03933 0
M  V30 7420 H 703.077 0.113002 0.654314 0
M  V30 7421 H 705.607 0.946645 1.81383 0
M  V30 7422 H 705.617 0.0245487 4.07993 0
M  V30 7423 H 704.292 1.17339 3.99004 0
M  V30 7424 H 702.869 -0.630819 3.67526 0
M  V30 7425 N 705.054 -1.51416 0.437162 0
M  V30 7426 C 706.279 -2.0699 -0.130424 0
M  V30 7427 C 706.704 -1.30249 -1.35709 0
M  V30 7428 O 706.062 -0.340388 -1.78076 0
M  V30 7429 C 706.11 -3.5801 -0.43142 0
M  V30 7430 O 705.214 -3.8345 -1.5179 0
M  V30 7431 H 704.555 -0.663997 -0.00194339 0
M  V30 7432 H 707.085 -1.95029 0.618445 0
M  V30 7433 H 707.095 -4.02261 -0.681926 0
M  V30 7434 H 705.77 -4.13291 0.465137 0
M  V30 7435 H 704.347 -3.51062 -1.25737 0
M  V30 7436 N 706.532 -0.168513 -1.56696 0
M  V30 7437 C 707.809 0.523367 -1.88468 0
M  V30 7438 C 708.189 1.81503 -1.07796 0
M  V30 7439 O 707.537 2.27859 -0.171045 0
M  V30 7440 C 707.747 0.767991 -3.40445 0
M  V30 7441 C 709.095 1.09924 -4.10124 0
M  V30 7442 O 710.119 0.856625 -3.45746 0
M  V30 7443 O 708.978 1.55681 -5.23856 0
M  V30 7444 H 706.072 0.269447 -0.781874 0
M  V30 7445 H 708.618 -0.206739 -1.68436 0
M  V30 7446 H 707.39 -0.145254 -3.9103 0
M  V30 7447 H 707.013 1.55151 -3.66079 0
M  V30 7448 N 708.01 1.57248 0.105221 0
M  V30 7449 C 709.256 1.85845 0.811753 0
M  V30 7450 C 709.589 0.756219 1.78871 0
M  V30 7451 O 708.864 -0.236736 1.93054 0
M  V30 7452 C 709.147 3.25059 1.54947 0
M  V30 7453 C 709 4.45898 0.591185 0
M  V30 7454 C 710.319 3.6203 2.50245 0
M  V30 7455 H 707.438 0.675973 0.293649 0
M  V30 7456 H 710.08 1.89849 0.0756269 0
M  V30 7457 H 708.23 3.21776 2.17698 0
M  V30 7458 H 709.902 4.61291 -0.0285352 0
M  V30 7459 H 708.145 4.33693 -0.0962343 0
M  V30 7460 H 708.816 5.40009 1.1443 0
M  V30 7461 H 711.292 3.66192 1.97593 0
M  V30 7462 H 710.168 4.60389 2.98886 0
M  V30 7463 H 710.429 2.90176 3.33542 0
M  V30 7464 N 709.488 -0.375779 1.53054 0
M  V30 7465 C 710.418 -1.46598 1.81745 0
M  V30 7466 C 711.399 -1.56337 0.670286 0
M  V30 7467 O 712.584 -1.71071 0.919158 0
M  V30 7468 C 709.714 -2.84058 1.99821 0
M  V30 7469 C 708.668 -2.8915 3.15557 0
M  V30 7470 C 707.994 -4.29187 3.18908 0
M  V30 7471 C 709.294 -2.57595 4.54359 0
M  V30 7472 H 710.988 -1.22837 2.73041 0
M  V30 7473 H 708.534 -0.589485 1.31381 0
M  V30 7474 H 710.487 -3.60342 2.18475 0
M  V30 7475 H 709.211 -3.09184 1.05226 0
M  V30 7476 H 707.87 -2.15316 2.96706 0
M  V30 7477 H 707.518 -4.51374 2.2197 0
M  V30 7478 H 707.218 -4.33512 3.96662 0
M  V30 7479 H 708.742 -5.07359 3.39734 0
M  V30 7480 H 710.156 -3.23595 4.73243 0
M  V30 7481 H 708.553 -2.73252 5.34279 0
M  V30 7482 H 709.623 -1.52882 4.60169 0
M  V30 7483 N 710.966 -1.44241 -0.634997 0
M  V30 7484 C 712.377 -1.41622 -1.21655 0
M  V30 7485 C 712.728 -0.129584 -1.95772 0
M  V30 7486 O 711.853 0.770225 -2.02229 0
M  V30 7487 C 712.448 -2.56557 -2.21278 0
M  V30 7488 C 711.007 -2.57145 -2.7487 0
M  V30 7489 C 710.154 -2.33354 -1.49804 0
M  V30 7490 H 713.105 -1.52878 -0.425905 0
M  V30 7491 H 713.126 -2.29089 -3.03807 0
M  V30 7492 H 712.638 -3.50186 -1.67306 0
M  V30 7493 H 710.739 -1.67447 -3.32855 0
M  V30 7494 H 710.852 -3.55507 -3.21172 0
M  V30 7495 H 709.216 -1.82372 -1.77799 0
M  V30 7496 H 709.999 -3.29092 -0.977402 0
M  V30 7497 N 712.444 0.87505 -1.31075 0
M  V30 7498 C 713.391 1.98178 -1.18296 0
M  V30 7499 C 714.361 1.65952 -0.0699923 0
M  V30 7500 O 715.546 1.8926 -0.241951 0
M  V30 7501 C 712.686 3.33399 -0.891024 0
M  V30 7502 C 711.799 3.78253 -2.08684 0
M  V30 7503 C 710.934 5.02166 -1.73212 0
M  V30 7504 C 709.973 5.39455 -2.89231 0
M  V30 7505 N 709.11 6.54549 -2.53989 0
M  V30 7506 H 713.95 2.0844 -2.12971 0
M  V30 7507 H 711.487 1.02047 -1.05948 0
M  V30 7508 H 713.445 4.11246 -0.702338 0
M  V30 7509 H 712.075 3.22794 0.0188799 0
M  V30 7510 H 711.127 2.9623 -2.38646 0
M  V30 7511 H 712.439 4.01821 -2.95536 0
M  V30 7512 H 711.593 5.87666 -1.50777 0
M  V30 7513 H 710.332 4.80491 -0.83544 0
M  V30 7514 H 709.337 4.52477 -3.12321 0
M  V30 7515 H 710.562 5.63098 -3.79601 0
M  V30 7516 H 708.508 6.3443 -1.66838 0
M  V30 7517 H 708.425 6.78035 -3.34372 0
M  V30 7518 H 709.693 7.43254 -2.34934 0
M  V30 7519 O 713.961 1.25897 1.01154 0
M  V30 7520 H 714.652 1.04518 1.63082 0
M  V30 END ATOM
M  V30 BEGIN BOND
M  V30 END BOND
M  V30 END CTAB
M  END
$$$$
