drugbank_target|P05896 Gag-Pol polyprotein (DB04191)
 OpenBabel12092119593D

  0  0  0     0  0            999 V3000
M  V30 BEGIN CTAB
M  V30 COUNTS 23043 23309 0 0 0
M  V30 BEGIN ATOM
M  V30 1 H -0.908 1.98254 -0.117106 0
M  V30 2 N 0 1.576 0 0
M  V30 3 C 0.933 2.03868 1.02534 0
M  V30 4 C 1.911 0.928543 1.3348 0
M  V30 5 O 3.095 1.19667 1.45644 0
M  V30 6 C 0.222 2.43627 2.35294 0
M  V30 7 C -0.732 3.65373 2.2001 0
M  V30 8 S 0.101 5.13292 1.52614 0
M  V30 9 C 1.257 5.56322 2.86805 0
M  V30 10 H 1.49 2.90518 0.631377 0
M  V30 11 H -0.977 1.52953 0.210867 0
M  V30 12 H 0.981 2.67203 3.11629 0
M  V30 13 H -0.358 1.57376 2.7183 0
M  V30 14 H -1.165 3.90944 3.18086 0
M  V30 15 H -1.563 3.418 1.51819 0
M  V30 16 H 0.729 5.58782 3.83104 0
M  V30 17 H 1.672 6.56266 2.65933 0
M  V30 18 H 2.08 4.83886 2.90714 0
M  V30 19 N 1.4781 -0.272755 1.55222 0
M  V30 20 C 2.7261 -1.00234 1.75492 0
M  V30 21 C 3.0471 -1.8681 0.5592 0
M  V30 22 O 2.3171 -1.91215 -0.425882 0
M  V30 23 H 0.8971 -0.373076 0.647166 0
M  V30 24 H 3.5591 -0.296926 1.92625 0
M  V30 25 H 2.6551 -1.63913 2.65592 0
M  V30 26 N 2.9562 -1.48159 -0.537278 0
M  V30 27 C 3.9192 -1.61665 -1.62472 0
M  V30 28 C 4.9192 -0.490395 -1.5314 0
M  V30 29 O 6.1092 -0.755998 -1.5694 0
M  V30 30 C 3.2412 -1.57997 -3.02076 0
M  V30 31 H 4.4342 -2.58621 -1.51839 0
M  V30 32 H 1.9872 -1.36647 -0.758771 0
M  V30 33 H 2.7222 -0.624913 -3.18222 0
M  V30 34 H 2.5072 -2.39755 -3.10258 0
M  V30 35 H 3.9972 -1.70627 -3.81151 0
M  V30 36 N 4.4343 0.785586 -1.36625 0
M  V30 37 C 5.8503 1.08419 -1.17122 0
M  V30 38 C 6.0503 2.015 0.00208491 0
M  V30 39 O 5.1063 2.43551 0.666278 0
M  V30 40 C 6.4193 1.69498 -2.48377 0
M  V30 41 C 7.9673 1.81821 -2.54775 0
M  V30 42 C 8.4423 2.46315 -3.86126 0
M  V30 43 N 9.9333 2.53779 -3.87492 0
M  V30 44 C 10.6683 3.045 -4.85868 0
M  V30 45 N 10.1643 3.55499 -5.94637 0
M  V30 46 N 11.9573 3.03247 -4.73284 0
M  V30 47 H 4.1083 0.167264 -2.1174 0
M  V30 48 H 6.3713 0.13682 -0.938075 0
M  V30 49 H 6.0773 1.08571 -3.34522 0
M  V30 50 H 5.9513 2.6896 -2.64462 0
M  V30 51 H 8.3383 2.41884 -1.69045 0
M  V30 52 H 8.4193 0.811532 -2.42586 0
M  V30 53 H 8.0633 1.86895 -4.72263 0
M  V30 54 H 7.9933 3.47561 -3.95612 0
M  V30 55 H 10.4843 2.17672 -3.08913 0
M  V30 56 H 10.7973 3.92562 -6.65669 0
M  V30 57 H 9.1423 3.5364 -5.98301 0
M  V30 58 H 12.3333 2.62696 -3.87438 0
M  V30 59 H 12.5063 3.42467 -5.50109 0
M  V30 60 N 5.9124 1.20967 1.01018 0
M  V30 61 C 6.8604 0.961223 2.1181 0
M  V30 62 C 7.8544 -0.0897034 1.69162 0
M  V30 63 O 9.0604 0.0612271 1.79896 0
M  V30 64 H 5.4354 0.29355 0.692338 0
M  V30 65 H 7.4064 1.90178 2.29946 0
M  V30 66 C 6.1554 0.536854 3.4353 0
M  V30 67 H 5.4784 1.33713 3.76777 0
M  V30 68 H 6.9184 0.402286 4.22087 0
M  V30 69 C 5.3774 -0.751574 3.2841 0
M  V30 70 O 5.9074 -1.80841 3.58691 0
M  V30 71 N 4.1134 -0.716079 2.81639 0
M  V30 72 H 3.6604 0.144236 2.57196 0
M  V30 73 H 3.6184 -1.57847 2.71904 0
M  V30 74 N 7.3905 -1.2043 1.01659 0
M  V30 75 C 8.6155 -1.94318 0.724942 0
M  V30 76 C 9.0405 -1.74266 -0.708034 0
M  V30 77 O 8.3985 -1.03694 -1.48719 0
M  V30 78 C 8.4465 -3.44486 1.06591 0
M  V30 79 O 7.5505 -4.12017 0.177599 0
M  V30 80 H 6.8915 -0.60708 0.26898 0
M  V30 81 H 9.4215 -1.52861 1.35995 0
M  V30 82 H 9.4315 -3.95106 1.01762 0
M  V30 83 H 8.1065 -3.58404 2.10997 0
M  V30 84 H 6.6835 -3.71821 0.283421 0
M  V30 85 N 8.8686 -0.792821 -1.36206 0
M  V30 86 C 10.1146 -0.36733 -1.99446 0
M  V30 87 C 10.4476 1.05917 -1.62774 0
M  V30 88 O 9.7226 1.7324 -0.88421 0
M  V30 89 C 10.0056 -0.535044 -3.56103 0
M  V30 90 C 9.8586 -2.00548 -4.02617 0
M  V30 91 C 11.1776 0.0478191 -4.40074 0
M  V30 92 H 8.2966 -0.134941 -0.724541 0
M  V30 93 H 10.9386 -0.999794 -1.61568 0
M  V30 94 H 9.0886 0.00336329 -3.885 0
M  V30 95 H 10.7606 -2.60521 -3.80692 0
M  V30 96 H 9.0036 -2.50686 -3.54032 0
M  V30 97 H 9.6746 -2.07377 -5.11565 0
M  V30 98 H 12.1506 -0.411822 -4.14057 0
M  V30 99 H 11.0266 -0.0995336 -5.4881 0
M  V30 100 H 11.2876 1.14025 -4.27142 0
M  V30 101 N 10.3467 1.47872 -0.545128 0
M  V30 102 C 11.2767 2.32661 0.197793 0
M  V30 103 C 12.2577 1.43041 0.920504 0
M  V30 104 O 13.4427 1.71912 0.90333 0
M  V30 105 C 10.5727 3.24569 1.23582 0
M  V30 106 C 9.5267 4.23333 0.630323 0
M  V30 107 C 8.8527 5.0448 1.77211 0
M  V30 108 C 10.1527 5.20704 -0.407974 0
M  V30 109 H 11.8467 2.95024 -0.510045 0
M  V30 110 H 9.3927 1.4187 -0.246731 0
M  V30 111 H 11.3457 3.8272 1.76362 0
M  V30 112 H 10.0697 2.60236 1.97344 0
M  V30 113 H 8.7287 3.6639 0.123922 0
M  V30 114 H 8.3767 4.36561 2.49847 0
M  V30 115 H 8.0767 5.71339 1.37281 0
M  V30 116 H 9.6007 5.65487 2.3034 0
M  V30 117 H 11.0147 5.7329 0.033305 0
M  V30 118 H 9.4117 5.95699 -0.725486 0
M  V30 119 H 10.4817 4.66917 -1.30828 0
M  V30 120 N 11.8248 0.280983 1.55075 0
M  V30 121 C 13.0498 -0.340154 2.04592 0
M  V30 122 C 13.4748 -1.48246 1.15779 0
M  V30 123 O 12.8328 -1.80614 0.15761 0
M  V30 124 C 12.8808 -0.793104 3.5177 0
M  V30 125 O 11.9848 -1.89981 3.66034 0
M  V30 126 H 11.3258 -0.0694289 0.66036 0
M  V30 127 H 13.8558 0.416993 2.00306 0
M  V30 128 H 13.8658 -1.08729 3.93245 0
M  V30 129 H 12.5408 0.0426163 4.15878 0
M  V30 130 H 11.1178 -1.60771 3.36463 0
M  V30 131 N 13.3029 -1.57598 0.00835791 0
M  V30 132 C 14.5509 -1.90551 -0.6734 0
M  V30 133 C 14.8719 -0.883301 -1.73847 0
M  V30 134 O 14.1419 0.0781442 -1.95744 0
M  V30 135 H 12.7219 -0.703312 -0.251717 0
M  V30 136 H 15.3839 -1.94833 0.0512592 0
M  V30 137 H 14.4799 -2.9056 -1.13935 0
M  V30 138 N 14.781 0.264519 -1.55364 0
M  V30 139 C 15.728 1.32717 -1.88825 0
M  V30 140 C 16.698 1.48675 -0.740605 0
M  V30 141 O 17.883 1.62945 -0.992657 0
M  V30 142 C 15.023 2.68089 -2.17307 0
M  V30 143 C 14.136 2.60284 -3.44785 0
M  V30 144 C 13.271 3.87892 -3.62924 0
M  V30 145 C 12.31 3.74631 -4.84064 0
M  V30 146 N 11.447 4.94092 -4.98816 0
M  V30 147 H 16.287 1.03481 -2.79456 0
M  V30 148 H 13.824 0.499757 -1.3835 0
M  V30 149 H 15.782 3.46864 -2.31821 0
M  V30 150 H 14.412 2.95509 -1.299 0
M  V30 151 H 13.464 1.73173 -3.38697 0
M  V30 152 H 14.776 2.46388 -4.33698 0
M  V30 153 H 13.93 4.75109 -3.77302 0
M  V30 154 H 12.669 4.04664 -2.7221 0
M  V30 155 H 11.674 2.85797 -4.69681 0
M  V30 156 H 12.899 3.5937 -5.76221 0
M  V30 157 H 10.845 5.11259 -4.11036 0
M  V30 158 H 10.762 4.8276 -5.81789 0
M  V30 159 H 12.03 5.82857 -5.17588 0
M  V30 160 N 16.2591 1.48442 0.529413 0
M  V30 161 C 17.2061 1.63007 1.63394 0
M  V30 162 C 18.1761 0.47212 1.59249 0
M  V30 163 O 19.3611 0.695673 1.77666 0
M  V30 164 C 16.5011 1.6763 3.01653 0
M  V30 165 C 15.6141 2.94535 3.16027 0
M  V30 166 C 14.7491 2.90316 4.44849 0
M  V30 167 C 13.7881 4.11923 4.52754 0
M  V30 168 N 12.9251 4.05777 5.72965 0
M  V30 169 H 17.7651 2.5733 1.50285 0
M  V30 170 H 15.3021 1.27613 0.731656 0
M  V30 171 H 17.2601 1.68292 3.81751 0
M  V30 172 H 15.8901 0.76797 3.13532 0
M  V30 173 H 14.9421 3.03615 2.29177 0
M  V30 174 H 16.2541 3.84512 3.17729 0
M  V30 175 H 15.4081 2.89382 5.33238 0
M  V30 176 H 14.1471 1.98068 4.45668 0
M  V30 177 H 13.1521 4.13131 3.62771 0
M  V30 178 H 14.3771 5.0533 4.53672 0
M  V30 179 H 12.3231 3.16351 5.74681 0
M  V30 180 H 12.2401 4.8946 5.76164 0
M  V30 181 H 13.5081 4.08904 6.6364 0
M  V30 182 N 17.7372 -0.778329 1.37039 0
M  V30 183 C 18.7002 -1.87301 1.32102 0
M  V30 184 C 19.7002 -1.59198 0.226405 0
M  V30 185 O 20.8902 -1.67403 0.481861 0
M  V30 186 C 18.0222 -3.24309 1.05055 0
M  V30 187 H 19.2152 -1.93093 2.29467 0
M  V30 188 H 16.7682 -0.977358 1.21973 0
M  V30 189 H 17.5032 -3.24196 0.0819373 0
M  V30 190 H 17.2882 -3.46098 1.84279 0
M  V30 191 H 18.7782 -4.04382 1.04234 0
M  V30 192 N 19.2153 -1.21501 -1.00376 0
M  V30 193 C 20.4923 -0.941745 -1.71437 0
M  V30 194 C 20.8723 0.546114 -2.03914 0
M  V30 195 O 20.2203 1.51128 -1.71384 0
M  V30 196 C 20.4303 -1.82812 -2.97289 0
M  V30 197 C 21.7783 -2.07771 -3.70292 0
M  V30 198 O 22.8023 -1.80171 -3.07273 0
M  V30 199 O 21.6613 -2.54456 -4.83647 0
M  V30 200 H 18.7553 -0.353243 -0.747762 0
M  V30 201 H 21.3013 -1.32436 -1.06108 0
M  V30 202 H 20.0733 -2.83501 -2.69709 0
M  V30 203 H 19.6963 -1.4464 -3.70358 0
M  V30 204 N 20.6934 1.19889 -1.02296 0
M  V30 205 C 21.6034 2.26571 -0.608508 0
M  V30 206 C 22.6194 1.70299 0.356964 0
M  V30 207 O 23.7954 2.00235 0.216326 0
M  V30 208 C 20.8604 3.46677 0.0402814 0
M  V30 209 C 19.9214 4.18153 -0.97194 0
M  V30 210 C 19.1544 5.32525 -0.354016 0
M  V30 211 O 19.3774 5.64112 0.844604 0
M  V30 212 O 18.3114 5.92242 -1.07391 0
M  V30 213 H 22.1374 2.64251 -1.49684 0
M  V30 214 H 19.7224 1.26629 -0.792809 0
M  V30 215 H 21.6044 4.19475 0.402324 0
M  V30 216 H 20.2794 3.10858 0.902707 0
M  V30 217 H 19.1864 3.47499 -1.38546 0
M  V30 218 H 20.5194 4.57927 -1.80454 0
M  V30 219 N 22.1715 0.800033 1.35784 0
M  V30 220 C 23.1015 0.220184 2.3246 0
M  V30 221 C 24.0825 -0.65073 1.57161 0
M  V30 222 O 25.2675 -0.582359 1.85263 0
M  V30 223 C 22.3975 -0.637353 3.41402 0
M  V30 224 C 21.3515 0.134531 4.27789 0
M  V30 225 C 20.6775 -0.844285 5.27992 0
M  V30 226 C 21.9775 1.32979 5.05088 0
M  V30 227 H 23.6715 1.02787 2.81203 0
M  V30 228 H 21.2175 0.495717 1.35199 0
M  V30 229 H 23.1705 -1.05302 4.08031 0
M  V30 230 H 21.8945 -1.47785 2.91251 0
M  V30 231 H 20.5535 0.531296 3.6273 0
M  V30 232 H 20.2015 -1.68011 4.74111 0
M  V30 233 H 19.9015 -0.332184 5.8666 0
M  V30 234 H 21.4255 -1.2583 5.97494 0
M  V30 235 H 22.8395 0.98934 5.64699 0
M  V30 236 H 21.2365 1.77593 5.7322 0
M  V30 237 H 22.3065 2.11978 4.36111 0
M  V30 238 N 23.6496 -1.47581 0.552962 0
M  V30 239 C 24.5596 -2.33743 -0.200353 0
M  V30 240 C 25.5756 -1.47928 -0.916151 0
M  V30 241 O 26.7516 -1.80865 -0.885993 0
M  V30 242 C 23.8166 -3.24536 -1.21973 0
M  V30 243 C 22.8776 -4.26238 -0.511819 0
M  V30 244 C 22.1106 -5.12693 -1.48263 0
M  V30 245 O 22.3336 -5.01525 -2.71714 0
M  V30 246 O 21.2676 -5.93375 -1.00945 0
M  V30 247 H 25.0936 -2.9945 0.506304 0
M  V30 248 H 22.6786 -1.46071 0.313622 0
M  V30 249 H 24.5606 -3.80631 -1.80827 0
M  V30 250 H 23.2356 -2.61462 -1.90839 0
M  V30 251 H 22.1426 -3.73914 0.117799 0
M  V30 252 H 23.4756 -4.92014 0.135308 0
M  V30 253 N 25.1277 -0.289203 -1.54924 0
M  V30 254 C 26.0747 0.592115 -2.23075 0
M  V30 255 C 27.0447 1.13881 -1.20915 0
M  V30 256 O 28.2297 1.18551 -1.495 0
M  V30 257 C 25.3697 1.76376 -2.96623 0
M  V30 258 C 24.4827 1.24959 -4.13533 0
M  V30 259 C 23.6177 2.38416 -4.74691 0
M  V30 260 C 22.6567 1.84072 -5.83767 0
M  V30 261 N 21.7937 2.91057 -6.38929 0
M  V30 262 H 26.6337 0.00432038 -2.98 0
M  V30 263 H 24.1707 -0.00963529 -1.47097 0
M  V30 264 H 26.1287 2.45268 -3.3749 0
M  V30 265 H 24.7587 2.32337 -2.24097 0
M  V30 266 H 23.8107 0.453307 -3.77689 0
M  V30 267 H 25.1227 0.811662 -4.92152 0
M  V30 268 H 24.2767 3.15276 -5.18349 0
M  V30 269 H 23.0157 2.8553 -3.95378 0
M  V30 270 H 22.0207 1.05697 -5.39545 0
M  V30 271 H 23.2457 1.37877 -6.64956 0
M  V30 272 H 21.1917 3.37526 -5.62505 0
M  V30 273 H 21.1087 2.51724 -7.12861 0
M  V30 274 H 22.3767 3.6785 -6.87246 0
M  V30 275 N 26.6058 1.57591 -0.0167156 0
M  V30 276 C 27.8548 1.90461 0.663877 0
M  V30 277 C 28.1678 0.893515 1.73999 0
M  V30 278 O 29.3738 1.11302 2.47637 0
M  V30 279 C 27.8298 3.38155 1.23204 0
M  V30 280 C 27.4378 4.47597 0.189866 0
M  V30 281 C 29.1818 3.80111 1.88986 0
M  V30 282 C 27.0888 5.86379 0.768964 0
M  V30 283 H 26.0188 0.710738 0.251729 0
M  V30 284 H 28.6698 1.83326 -0.0799926 0
M  V30 285 H 27.0518 3.40182 2.02712 0
M  V30 286 H 28.2258 4.57112 -0.581846 0
M  V30 287 H 26.5408 4.14766 -0.368475 0
M  V30 288 H 29.1378 4.81145 2.33247 0
M  V30 289 H 29.4808 3.14511 2.72743 0
M  V30 290 H 30.0138 3.80454 1.16187 0
M  V30 291 H 26.7528 6.55493 -0.0301957 0
M  V30 292 H 26.2728 5.80496 1.50945 0
M  V30 293 H 27.9518 6.34563 1.26251 0
M  V30 294 N 28.0839 -0.256276 1.55502 0
M  V30 295 C 29.4999 -0.604325 1.47716 0
M  V30 296 C 29.6999 -1.88763 0.705039 0
M  V30 297 O 28.7559 -2.51445 0.230613 0
M  V30 298 C 30.0689 -0.715756 2.92057 0
M  V30 299 C 31.6169 -0.808706 3.02372 0
M  V30 300 C 32.0919 -0.951777 4.48001 0
M  V30 301 N 33.5829 -1.01688 4.519 0
M  V30 302 C 34.3179 -1.14668 5.61817 0
M  V30 303 N 33.8139 -1.24261 6.81565 0
M  V30 304 N 35.6069 -1.1791 5.49594 0
M  V30 305 H 27.7579 0.586291 2.04148 0
M  V30 306 H 30.0209 0.201015 0.926443 0
M  V30 307 H 29.7269 0.157027 3.51349 0
M  V30 308 H 29.6009 -1.59071 3.42018 0
M  V30 309 H 31.9879 -1.67195 2.43166 0
M  V30 310 H 32.0689 0.0912063 2.55637 0
M  V30 311 H 31.7129 -0.0931291 5.07815 0
M  V30 312 H 31.6429 -1.86659 4.92408 0
M  V30 313 H 34.1339 -0.954468 3.65648 0
M  V30 314 H 34.4469 -1.34046 7.61086 0
M  V30 315 H 32.7919 -1.21236 6.84344 0
M  V30 316 H 35.9829 -1.10057 4.54978 0
M  V30 317 H 36.1559 -1.27681 6.35296 0
M  V30 318 N 29.562 -1.4872 -0.521534 0
M  V30 319 C 30.492 -1.66771 -1.63431 0
M  V30 320 C 31.473 -0.516499 -1.62069 0
M  V30 321 O 32.658 -0.750013 -1.79132 0
M  V30 322 C 29.788 -1.71515 -3.01993 0
M  V30 323 C 28.742 -2.86222 -3.18216 0
M  V30 324 C 28.068 -2.76061 -4.57924 0
M  V30 325 C 29.368 -4.27419 -3.00184 0
M  V30 326 H 31.062 -2.59932 -1.48579 0
M  V30 327 H 28.608 -1.25089 -0.713358 0
M  V30 328 H 30.561 -1.82731 -3.7972 0
M  V30 329 H 29.285 -0.749393 -3.17886 0
M  V30 330 H 27.944 -2.74575 -2.42908 0
M  V30 331 H 27.592 -1.77437 -4.70665 0
M  V30 332 H 27.292 -3.53037 -4.69722 0
M  V30 333 H 28.816 -2.89256 -5.37739 0
M  V30 334 H 30.23 -4.39855 -3.67697 0
M  V30 335 H 28.627 -5.05458 -3.2347 0
M  V30 336 H 29.697 -4.43293 -1.96518 0
M  V30 337 N 31.0401 0.771051 -1.3745 0
M  V30 338 C 32.4561 1.07171 -1.18265 0
M  V30 339 C 32.6561 2.01491 -0.019287 0
M  V30 340 O 31.7121 2.44244 0.640408 0
M  V30 341 C 33.0251 1.66854 -2.50161 0
M  V30 342 C 34.5731 1.79109 -2.56689 0
M  V30 343 C 35.0481 2.42205 -3.88717 0
M  V30 344 N 36.5391 2.49655 -3.90162 0
M  V30 345 C 37.2741 2.9933 -4.8907 0
M  V30 346 N 36.7701 3.49172 -5.98374 0
M  V30 347 N 38.5631 2.9821 -4.76474 0
M  V30 348 H 30.7141 0.144796 -2.11906 0
M  V30 349 H 32.9771 0.126863 -0.939473 0
M  V30 350 H 32.6831 1.05017 -3.35655 0
M  V30 351 H 32.5571 2.6614 -2.673 0
M  V30 352 H 34.9441 2.40077 -1.71601 0
M  V30 353 H 35.0251 0.785757 -2.43433 0
M  V30 354 H 34.6691 1.81875 -4.74219 0
M  V30 355 H 34.5991 3.43345 -3.99276 0
M  V30 356 H 37.0901 2.14383 -3.11205 0
M  V30 357 H 37.4031 3.8548 -6.69795 0
M  V30 358 H 35.7481 3.47275 -6.02018 0
M  V30 359 H 38.9391 2.58572 -3.90203 0
M  V30 360 H 39.1121 3.36613 -5.53711 0
M  V30 361 N 32.5182 1.22032 0.997298 0
M  V30 362 C 33.9292 1.0397 1.55071 0
M  V30 363 C 34.2802 -0.398192 1.92117 0
M  V30 364 O 33.4052 -1.28254 1.74298 0
M  V30 365 C 34.0002 1.88109 2.81781 0
M  V30 366 C 32.5592 1.74357 3.33581 0
M  V30 367 C 31.7062 1.84846 2.06706 0
M  V30 368 H 34.6572 1.35941 0.818883 0
M  V30 369 H 34.6782 1.39589 3.53971 0
M  V30 370 H 34.1902 2.92754 2.54787 0
M  V30 371 H 32.2912 0.72427 3.65493 0
M  V30 372 H 32.4042 2.56772 4.04481 0
M  V30 373 H 30.7682 1.28238 2.20062 0
M  V30 374 H 31.5512 2.91014 1.82114 0
M  V30 375 N 33.9963 -1.19345 1.0293 0
M  V30 376 C 35.2443 -1.88665 0.724574 0
M  V30 377 C 35.5653 -1.80036 -0.749144 0
M  V30 378 O 34.8353 -1.2111 -1.53978 0
M  V30 379 H 33.4153 -0.698406 0.265025 0
M  V30 380 H 36.0773 -1.44885 1.30362 0
M  V30 381 H 35.1733 -2.94987 1.01926 0
M  V30 382 N 35.4744 -0.807222 -1.35358 0
M  V30 383 C 36.7224 -0.387122 -1.98358 0
M  V30 384 C 37.0434 1.04942 -1.64354 0
M  V30 385 O 36.3134 1.72615 -0.926339 0
M  V30 386 H 34.8934 -0.140154 -0.733734 0
M  V30 387 H 37.5554 -1.0332 -1.6526 0
M  V30 388 H 36.6514 -0.493352 -3.08176 0
M  V30 389 N 36.9525 1.47285 -0.560781 0
M  V30 390 C 37.8995 2.30058 0.18491 0
M  V30 391 C 38.8695 1.39281 0.904986 0
M  V30 392 O 40.0545 1.68241 0.899979 0
M  V30 393 C 37.1945 3.23317 1.20666 0
M  V30 394 C 36.3075 4.29186 0.492285 0
M  V30 395 C 35.4425 5.09592 1.49964 0
M  V30 396 C 34.4815 6.07232 0.770439 0
M  V30 397 N 33.6185 6.80584 1.72479 0
M  V30 398 H 38.4585 2.93302 -0.527048 0
M  V30 399 H 35.9955 1.44568 -0.271738 0
M  V30 400 H 37.9535 3.75811 1.81168 0
M  V30 401 H 36.5835 2.61929 1.88661 0
M  V30 402 H 35.6355 3.7972 -0.227333 0
M  V30 403 H 36.9475 4.98738 -0.0787929 0
M  V30 404 H 36.1015 5.66254 2.17809 0
M  V30 405 H 34.8405 4.3995 2.10464 0
M  V30 406 H 33.8455 5.49745 0.0780846 0
M  V30 407 H 35.0705 6.78884 0.171134 0
M  V30 408 H 33.0165 6.1367 2.3183 0
M  V30 409 H 32.9335 7.46319 1.20596 0
M  V30 410 H 34.2015 7.41818 2.39428 0
M  V30 411 N 38.4306 0.297415 1.54768 0
M  V30 412 C 39.3776 -0.580276 2.23386 0
M  V30 413 C 40.3476 -1.13238 1.21517 0
M  V30 414 O 41.5326 -1.17757 1.50126 0
M  V30 415 C 38.6726 -1.74801 2.97555 0
M  V30 416 C 37.7856 -1.22764 4.1419 0
M  V30 417 C 36.9206 -2.35895 4.75949 0
M  V30 418 C 35.9596 -1.80974 5.84735 0
M  V30 419 N 35.0966 -2.87664 6.40464 0
M  V30 420 H 39.9366 0.0114833 2.97998 0
M  V30 421 H 37.4736 0.0174361 1.4709 0
M  V30 422 H 39.4316 -2.43475 3.38786 0
M  V30 423 H 38.0616 -2.31145 2.25326 0
M  V30 424 H 37.1136 -0.433271 3.77924 0
M  V30 425 H 38.4256 -0.785551 4.92575 0
M  V30 426 H 37.5796 -3.12523 5.20014 0
M  V30 427 H 36.3186 -2.83429 3.96887 0
M  V30 428 H 35.3236 -1.02834 5.40097 0
M  V30 429 H 36.5486 -1.34348 6.65678 0
M  V30 430 H 34.4946 -3.34538 5.64287 0
M  V30 431 H 34.4116 -2.4794 7.14186 0
M  V30 432 H 35.6796 -3.642 6.89187 0
M  V30 433 N 39.9087 -1.5758 0.0250728 0
M  V30 434 C 40.8557 -2.09973 -0.958129 0
M  V30 435 C 41.8257 -1.00085 -1.3256 0
M  V30 436 O 43.0107 -1.27481 -1.41962 0
M  V30 437 C 40.1507 -2.62812 -2.2366 0
M  V30 438 C 39.2637 -3.86693 -1.92594 0
M  V30 439 C 38.3987 -4.27941 -3.14707 0
M  V30 440 C 37.4377 -5.44591 -2.79442 0
M  V30 441 N 36.5747 -5.81014 -3.94167 0
M  V30 442 H 41.4147 -2.937 -0.504428 0
M  V30 443 H 38.9517 -1.45172 -0.237392 0
M  V30 444 H 40.9097 -2.91536 -2.98434 0
M  V30 445 H 39.5397 -1.81922 -2.66654 0
M  V30 446 H 38.5917 -3.64723 -1.0808 0
M  V30 447 H 39.9037 -4.71547 -1.62619 0
M  V30 448 H 39.0577 -4.58079 -3.97804 0
M  V30 449 H 37.7967 -3.41845 -3.4784 0
M  V30 450 H 36.8017 -5.1415 -1.94755 0
M  V30 451 H 38.0267 -6.32382 -2.47528 0
M  V30 452 H 35.9727 -4.97874 -4.2715 0
M  V30 453 H 35.8897 -6.60498 -3.67801 0
M  V30 454 H 37.1577 -6.15756 -4.7798 0
M  V30 455 N 41.3868 0.248026 -1.55636 0
M  V30 456 C 42.6168 0.992367 -1.81206 0
M  V30 457 C 43.0248 1.7949 -0.598324 0
M  V30 458 O 42.3678 1.78292 0.442434 0
M  V30 459 C 42.4298 1.97926 -3.00109 0
M  V30 460 C 42.0938 1.36377 -4.36177 0
M  V30 461 C 43.0908 0.76682 -5.14214 0
M  V30 462 C 40.7758 1.38347 -4.82872 0
M  V30 463 C 42.7698 0.197778 -6.37093 0
M  V30 464 C 40.4568 0.810574 -6.057 0
M  V30 465 C 41.4548 0.218754 -6.8265 0
M  V30 466 O 41.1428 -0.345298 -8.03158 0
M  V30 467 H 40.8748 0.297704 -0.606917 0
M  V30 468 H 43.4288 0.276517 -2.0353 0
M  V30 469 H 41.6588 2.73339 -2.73538 0
M  V30 470 H 43.3478 2.58694 -3.12781 0
M  V30 471 H 44.1138 0.744114 -4.79258 0
M  V30 472 H 39.9928 1.8335 -4.2297 0
M  V30 473 H 43.5368 -0.264788 -6.97097 0
M  V30 474 H 39.4338 0.830604 -6.40134 0
M  V30 475 H 40.2018 -0.237055 -8.18157 0
M  V30 476 N 42.8649 1.48995 0.513639 0
M  V30 477 C 43.7979 1.59319 1.63379 0
M  V30 478 C 44.7759 0.442816 1.56454 0
M  V30 479 O 45.9599 0.656655 1.76693 0
M  V30 480 C 43.0869 1.5364 3.01848 0
M  V30 481 C 42.1329 2.7372 3.27078 0
M  V30 482 S 42.9659 4.35528 3.1157 0
M  V30 483 C 44.1219 4.32473 4.52458 0
M  V30 484 H 44.3549 2.54079 1.54374 0
M  V30 485 H 41.8879 1.3773 0.697849 0
M  V30 486 H 43.8459 1.51049 3.81699 0
M  V30 487 H 42.5069 0.601898 3.08279 0
M  V30 488 H 41.6999 2.6593 4.28132 0
M  V30 489 H 41.3019 2.73657 2.54927 0
M  V30 490 H 43.5939 4.03414 5.44301 0
M  V30 491 H 44.5369 5.33762 4.65299 0
M  V30 492 H 44.9449 3.62718 4.32546 0
M  V30 493 N 44.343 -0.763751 1.37857 0
M  V30 494 C 45.273 -1.89103 1.36975 0
M  V30 495 C 46.254 -1.68439 0.237152 0
M  V30 496 O 47.439 -1.8918 0.438713 0
M  V30 497 C 44.569 -3.26496 1.18395 0
M  V30 498 C 43.523 -3.61741 2.28751 0
M  V30 499 C 42.849 -4.97762 1.95286 0
M  V30 500 C 44.149 -3.67665 3.70972 0
M  V30 501 H 45.843 -1.90099 2.31307 0
M  V30 502 H 43.389 -0.91319 1.11341 0
M  V30 503 H 45.342 -4.05003 1.16406 0
M  V30 504 H 44.066 -3.25955 0.205215 0
M  V30 505 H 42.725 -2.85547 2.29909 0
M  V30 506 H 42.373 -4.93769 0.959221 0
M  V30 507 H 42.073 -5.22313 2.69189 0
M  V30 508 H 43.597 -5.7866 1.94898 0
M  V30 509 H 45.011 -4.36307 3.719 0
M  V30 510 H 43.408 -4.03718 4.43995 0
M  V30 511 H 44.478 -2.68134 4.0402 0
M  V30 512 N 45.8211 -1.22559 -0.990812 0
M  V30 513 C 46.7681 -0.997519 -2.0813 0
M  V30 514 C 47.7381 0.0814702 -1.659 0
M  V30 515 O 48.9231 -0.0685424 -1.90677 0
M  V30 516 C 46.0631 -0.583615 -3.40129 0
M  V30 517 C 45.1761 -1.7336 -3.9569 0
M  V30 518 C 44.3111 -1.26748 -5.15857 0
M  V30 519 C 43.3501 -2.38888 -5.63559 0
M  V30 520 N 42.4871 -1.93308 -6.74964 0
M  V30 521 H 47.3271 -1.93099 -2.26973 0
M  V30 522 H 44.8641 -0.962114 -1.11273 0
M  V30 523 H 46.8221 -0.324801 -4.15934 0
M  V30 524 H 45.4521 0.312845 -3.2128 0
M  V30 525 H 44.5041 -2.10669 -3.16738 0
M  V30 526 H 45.8161 -2.57704 -4.27071 0
M  V30 527 H 44.9701 -0.966173 -5.98957 0
M  V30 528 H 43.7091 -0.394272 -4.86104 0
M  V30 529 H 42.7141 -2.69805 -4.79046 0
M  V30 530 H 43.9391 -3.26728 -5.95336 0
M  V30 531 H 41.8851 -1.08352 -6.4699 0
M  V30 532 H 41.8021 -2.71217 -7.05675 0
M  V30 533 H 43.0701 -1.66252 -7.61564 0
M  V30 534 N 47.2992 1.18797 -1.03562 0
M  V30 535 C 48.2492 2.20161 -0.592724 0
M  V30 536 C 49.2332 1.56772 0.362133 0
M  V30 537 O 50.4252 1.76062 0.182009 0
M  V30 538 C 47.5542 3.43266 0.0481024 0
M  V30 539 C 46.6402 4.13786 -0.9296 0
M  V30 540 N 47.0312 4.60388 -2.09467 0
M  V30 541 C 45.3292 4.39572 -0.754499 0
M  V30 542 C 46.0302 5.14619 -2.71187 0
M  V30 543 N 45.0062 5.05826 -1.991 0
M  V30 544 H 48.8082 2.53877 -1.48066 0
M  V30 545 H 46.3222 1.34946 -0.903514 0
M  V30 546 H 48.3192 4.15136 0.383058 0
M  V30 547 H 46.9792 3.11048 0.931636 0
M  V30 548 H 47.9902 4.54999 -2.47379 0
M  V30 549 H 44.6672 4.17425 0.0793713 0
M  V30 550 H 46.0572 5.60917 -3.69895 0
M  V30 551 N 48.7773 0.814389 1.34928 0
M  V30 552 C 50.0233 0.399013 1.98836 0
M  V30 553 C 50.3563 -1.03314 1.64438 0
M  V30 554 O 49.6313 -1.71811 0.911659 0
M  V30 555 C 49.9143 0.591629 3.55207 0
M  V30 556 C 49.7673 2.06928 3.99376 0
M  V30 557 C 51.0863 0.022199 4.40094 0
M  V30 558 H 48.2053 0.146451 0.722303 0
M  V30 559 H 50.8473 1.02537 1.59957 0
M  V30 560 H 48.9973 0.0584441 3.88456 0
M  V30 561 H 50.6693 2.66544 3.76499 0
M  V30 562 H 48.9123 2.56287 3.49999 0
M  V30 563 H 49.5833 2.1549 5.08201 0
M  V30 564 H 52.0593 0.477643 4.13349 0
M  V30 565 H 50.9353 0.186832 5.48582 0
M  V30 566 H 51.1963 -1.07215 4.28902 0
M  V30 567 N 50.2554 -1.46986 0.568584 0
M  V30 568 C 51.5014 -2.02741 0.0488709 0
M  V30 569 C 51.8344 -1.44077 -1.30214 0
M  V30 570 O 51.1094 -0.600552 -1.84996 0
M  V30 571 C 51.3924 -3.60086 -0.032047 0
M  V30 572 C 51.2454 -4.29162 1.34686 0
M  V30 573 C 52.5644 -4.33838 -0.739798 0
M  V30 574 H 49.6834 -0.736749 0.0192338 0
M  V30 575 H 52.3254 -1.75289 0.733065 0
M  V30 576 H 50.4754 -3.83606 -0.61473 0
M  V30 577 H 52.1474 -4.16948 1.97362 0
M  V30 578 H 50.3904 -3.89073 1.91846 0
M  V30 579 H 51.0614 -5.37826 1.24285 0
M  V30 580 H 53.5374 -4.15378 -0.244939 0
M  V30 581 H 52.4134 -5.43537 -0.765406 0
M  V30 582 H 52.6744 -4.03875 -1.79827 0
M  V30 583 N 51.7335 -0.305618 -1.54608 0
M  V30 584 C 52.9795 0.295595 -2.01241 0
M  V30 585 C 53.3345 1.51171 -1.19018 0
M  V30 586 O 52.6275 1.89832 -0.259684 0
M  V30 587 C 52.8215 0.698983 -3.50498 0
M  V30 588 C 52.6505 -0.476491 -4.47168 0
M  V30 589 C 51.4205 -0.969963 -4.95903 0
M  V30 590 C 53.6185 -1.32294 -4.96994 0
M  V30 591 N 51.6005 -2.11172 -5.76437 0
M  V30 592 C 52.9715 -2.31212 -5.75275 0
M  V30 593 C 55.0265 -1.35278 -4.7917 0
M  V30 594 C 53.7295 -3.32896 -6.37631 0
M  V30 595 C 55.7555 -2.35823 -5.42348 0
M  V30 596 C 55.1175 -3.33469 -6.20466 0
M  V30 597 H 51.2165 0.0724992 -0.778632 0
M  V30 598 H 53.8005 -0.436583 -1.89742 0
M  V30 599 H 51.9715 1.40032 -3.62278 0
M  V30 600 H 53.7035 1.28013 -3.8392 0
M  V30 601 H 50.4585 -0.544178 -4.70463 0
M  V30 602 H 50.8825 -2.68714 -6.21387 0
M  V30 603 H 55.5245 -0.61157 -4.18354 0
M  V30 604 H 53.2425 -4.07933 -6.97579 0
M  V30 605 H 56.8285 -2.38911 -5.30484 0
M  V30 606 H 55.7085 -4.09996 -6.68485 0
M  V30 607 N 53.2116 1.57565 -0.0334293 0
M  V30 608 C 54.1746 2.09393 0.932048 0
M  V30 609 C 55.1746 1.00986 1.25134 0
M  V30 610 O 56.3646 1.27129 1.19096 0
M  V30 611 C 53.4966 2.56338 2.2473 0
M  V30 612 H 54.6896 2.95984 0.483085 0
M  V30 613 H 52.2426 1.54819 0.21468 0
M  V30 614 H 52.9776 1.7309 2.74245 0
M  V30 615 H 52.7626 3.35542 2.02865 0
M  V30 616 H 54.2526 2.96646 2.93923 0
M  V30 617 N 54.6897 -0.239769 1.55765 0
M  V30 618 C 55.6527 -1.28038 1.90103 0
M  V30 619 C 56.6527 -1.40723 0.778055 0
M  V30 620 O 57.8427 -1.39301 1.04599 0
M  V30 621 C 54.9747 -2.65702 2.13577 0
M  V30 622 H 56.1677 -0.988048 2.83157 0
M  V30 623 H 53.7207 -0.479382 1.48767 0
M  V30 624 H 54.4557 -3.00063 1.23015 0
M  V30 625 H 54.2407 -2.57875 2.95369 0
M  V30 626 H 55.7307 -3.40828 2.41301 0
M  V30 627 N 56.1678 -1.49265 -0.50573 0
M  V30 628 C 57.1158 -1.66065 -1.62866 0
M  V30 629 C 58.1098 -0.526636 -1.61006 0
M  V30 630 O 59.3158 -0.706126 -1.65571 0
M  V30 631 H 55.6908 -0.52356 -0.539805 0
M  V30 632 H 57.6618 -2.60329 -1.45848 0
M  V30 633 C 56.4108 -1.74008 -3.01026 0
M  V30 634 H 55.7338 -2.6064 -3.03161 0
M  V30 635 H 57.1738 -1.89798 -3.79147 0
M  V30 636 C 55.6328 -0.483868 -3.33407 0
M  V30 637 O 56.1628 0.392548 -3.99777 0
M  V30 638 N 54.3688 -0.348236 -2.88506 0
M  V30 639 H 53.9158 -1.06242 -2.34671 0
M  V30 640 H 53.8738 0.491204 -3.10539 0
M  V30 641 N 57.6459 0.756429 -1.3826 0
M  V30 642 C 58.5559 1.9009 -1.37488 0
M  V30 643 C 59.5719 1.71855 -0.272366 0
M  V30 644 O 60.7479 1.94827 -0.510318 0
M  V30 645 C 57.8129 3.25421 -1.19592 0
M  V30 646 C 56.8739 3.56202 -2.39622 0
M  V30 647 C 56.1069 4.85075 -2.2257 0
M  V30 648 O 56.3299 5.57246 -1.21793 0
M  V30 649 O 55.2639 5.15269 -3.11098 0
M  V30 650 H 59.0899 1.93695 -2.33914 0
M  V30 651 H 56.6749 0.901313 -1.1915 0
M  V30 652 H 58.5569 4.06337 -1.11661 0
M  V30 653 H 57.2319 3.22634 -0.262486 0
M  V30 654 H 56.1389 2.75458 -2.53128 0
M  V30 655 H 57.4719 3.63747 -3.31586 0
M  V30 656 N 59.124 1.23083 0.984299 0
M  V30 657 C 60.054 1.03292 2.09411 0
M  V30 658 C 61.035 -0.048923 1.7003 0
M  V30 659 O 62.22 0.114967 1.93859 0
M  V30 660 C 59.35 0.619155 3.41736 0
M  V30 661 C 58.304 1.64791 3.95004 0
M  V30 662 C 57.63 1.0897 5.23478 0
M  V30 663 C 58.93 3.03999 4.24714 0
M  V30 664 H 60.624 1.96119 2.26225 0
M  V30 665 H 58.17 0.944344 1.08711 0
M  V30 666 H 60.123 0.467777 4.18796 0
M  V30 667 H 58.847 -0.344786 3.24775 0
M  V30 668 H 57.506 1.78721 3.20085 0
M  V30 669 H 57.154 0.11686 5.02864 0
M  V30 670 H 56.854 1.77704 5.60085 0
M  V30 671 H 58.378 0.950093 6.03163 0
M  V30 672 H 59.792 2.93393 4.92538 0
M  V30 673 H 58.189 3.69936 4.72512 0
M  V30 674 H 59.259 3.53285 3.32142 0
M  V30 675 N 60.6021 -1.18246 1.0419 0
M  V30 676 C 61.8791 -1.84121 0.660208 0
M  V30 677 C 62.2591 -1.92778 -0.860221 0
M  V30 678 O 61.6071 -1.45464 -1.76217 0
M  V30 679 C 61.8171 -3.22355 1.33747 0
M  V30 680 C 63.1651 -3.98376 1.46906 0
M  V30 681 O 64.1891 -3.31799 1.29568 0
M  V30 682 O 63.0481 -5.17665 1.75171 0
M  V30 683 H 60.1421 -0.794036 0.231161 0
M  V30 684 H 62.6881 -1.25628 1.14087 0
M  V30 685 H 61.4601 -3.10964 2.37522 0
M  V30 686 H 61.0831 -3.88506 0.845515 0
M  V30 687 N 62.0802 -0.821533 -1.34494 0
M  V30 688 C 63.4962 -0.507117 -1.51329 0
M  V30 689 C 63.6962 0.968964 -1.76673 0
M  V30 690 O 62.7522 1.75348 -1.81685 0
M  V30 691 C 64.0652 -1.36544 -2.67911 0
M  V30 692 C 65.6132 -1.36242 -2.81793 0
M  V30 693 C 66.0882 -2.2052 -4.01416 0
M  V30 694 N 67.5792 -2.18136 -4.08621 0
M  V30 695 C 68.3142 -2.80095 -5.00334 0
M  V30 696 N 67.8102 -3.51039 -5.9728 0
M  V30 697 N 69.6032 -2.69656 -4.93196 0
M  V30 698 H 61.7542 -1.77729 -1.16302 0
M  V30 699 H 64.0172 -0.757291 -0.570276 0
M  V30 700 H 63.7232 -2.41361 -2.55808 0
M  V30 701 H 63.5972 -1.02917 -3.62888 0
M  V30 702 H 65.9842 -0.322041 -2.93338 0
M  V30 703 H 66.0652 -1.73866 -1.87628 0
M  V30 704 H 65.7092 -3.24607 -3.90631 0
M  V30 705 H 65.6392 -1.80247 -4.94791 0
M  V30 706 H 68.1302 -1.6653 -3.39229 0
M  V30 707 H 68.4432 -3.95565 -6.63889 0
M  V30 708 H 66.7882 -3.55145 -5.97409 0
M  V30 709 H 69.9792 -2.13808 -4.16418 0
M  V30 710 H 70.1522 -3.1823 -5.64476 0
M  V30 711 N 63.5583 1.46682 -0.576371 0
M  V30 712 C 64.8053 2.02412 -0.0595339 0
M  V30 713 C 65.1333 1.44859 1.29793 0
M  V30 714 O 64.3883 0.601099 1.8624 0
M  V30 715 C 64.6873 3.57345 0.062886 0
M  V30 716 C 64.3533 4.33908 -1.22616 0
M  V30 717 C 63.0153 4.54544 -1.57933 0
M  V30 718 C 65.3673 4.77919 -2.07948 0
M  V30 719 C 62.6953 5.16444 -2.78393 0
M  V30 720 C 65.0473 5.41149 -3.27629 0
M  V30 721 C 63.7113 5.60014 -3.63236 0
M  V30 722 H 62.9813 0.74068 -0.021785 0
M  V30 723 H 65.6283 1.76128 -0.751735 0
M  V30 724 H 63.9333 3.82729 0.838178 0
M  V30 725 H 65.6303 3.98136 0.478439 0
M  V30 726 H 62.2203 4.18138 -0.941202 0
M  V30 727 H 66.4043 4.61738 -1.81967 0
M  V30 728 H 61.6603 5.29242 -3.06126 0
M  V30 729 H 65.8343 5.74211 -3.94023 0
M  V30 730 H 63.4613 6.07748 -4.56669 0
M  V30 731 N 65.0364 0.313813 1.54444 0
M  V30 732 C 66.2844 -0.291099 1.99993 0
M  V30 733 C 66.6054 -1.53418 1.20366 0
M  V30 734 O 65.8754 -1.93544 0.302927 0
M  V30 735 H 64.4554 -0.110552 0.738774 0
M  V30 736 H 67.1174 0.428106 1.9014 0
M  V30 737 H 66.2134 -0.554268 3.07139 0
M  V30 738 N 66.5145 -1.57545 0.0417849 0
M  V30 739 C 67.4445 -2.14009 -0.933929 0
M  V30 740 C 68.4255 -1.05938 -1.33083 0
M  V30 741 O 69.6105 -1.33833 -1.40721 0
M  V30 742 C 66.7405 -2.67747 -2.21199 0
M  V30 743 C 65.6945 -3.80718 -1.95544 0
M  V30 744 C 65.0205 -4.20935 -3.29724 0
M  V30 745 C 66.3205 -5.06258 -1.28452 0
M  V30 746 H 68.0145 -2.95788 -0.463645 0
M  V30 747 H 65.5605 -1.42285 -0.221573 0
M  V30 748 H 67.5135 -3.05886 -2.89848 0
M  V30 749 H 66.2375 -1.83147 -2.70416 0
M  V30 750 H 64.8965 -3.43037 -1.2931 0
M  V30 751 H 64.5445 -3.33298 -3.76724 0
M  V30 752 H 64.2445 -4.9707 -3.13361 0
M  V30 753 H 65.7685 -4.61666 -3.9962 0
M  V30 754 H 67.1825 -5.41903 -1.8712 0
M  V30 755 H 65.5795 -5.87475 -1.22445 0
M  V30 756 H 66.6495 -4.84207 -0.259219 0
M  V30 757 N 67.9926 0.231505 -1.5589 0
M  V30 758 C 68.9556 1.27028 -1.90779 0
M  V30 759 C 69.9556 1.40308 -0.785507 0
M  V30 760 O 71.1456 1.38744 -1.05336 0
M  V30 761 C 68.2776 2.64566 -2.14983 0
M  V30 762 H 69.4706 0.973017 -2.83677 0
M  V30 763 H 67.0236 0.471486 -1.49019 0
M  V30 764 H 67.7586 2.99406 -1.24604 0
M  V30 765 H 67.5436 2.56305 -2.96732 0
M  V30 766 H 69.0336 3.39543 -2.43105 0
M  V30 767 N 69.4707 1.49531 0.497807 0
M  V30 768 C 70.3807 1.69176 1.62532 0
M  V30 769 C 71.3967 0.5744 1.64246 0
M  V30 770 O 72.5727 0.849497 1.82608 0
M  V30 771 C 69.6377 1.75695 2.98885 0
M  V30 772 C 68.6987 2.9929 3.07773 0
M  V30 773 C 67.9317 3.05488 4.37622 0
M  V30 774 O 68.1547 2.19192 5.26603 0
M  V30 775 O 67.0887 3.9798 4.51548 0
M  V30 776 H 70.9147 2.647 1.48887 0
M  V30 777 H 68.4997 1.3331 0.674441 0
M  V30 778 H 70.3817 1.82317 3.79919 0
M  V30 779 H 69.0567 0.8335 3.12785 0
M  V30 780 H 67.9637 2.98183 2.25915 0
M  V30 781 H 69.2967 3.91125 2.98801 0
M  V30 782 N 70.9488 -0.749086 1.3866 0
M  V30 783 C 72.1738 -1.54344 1.38538 0
M  V30 784 C 72.5988 -1.88088 -0.0216655 0
M  V30 785 O 71.9568 -1.50899 -1.00494 0
M  V30 786 C 72.0048 -2.8164 2.25192 0
M  V30 787 O 71.1088 -3.7698 1.67212 0
M  V30 788 H 70.4498 -0.466654 0.472367 0
M  V30 789 H 72.9798 -0.925355 1.82478 0
M  V30 790 H 72.9898 -3.30519 2.3921 0
M  V30 791 H 71.6648 -2.56411 3.27454 0
M  V30 792 H 70.2418 -3.35699 1.6236 0
M  V30 793 N 72.4269 -1.23603 -0.977757 0
M  V30 794 C 73.3569 -1.04401 -2.0886 0
M  V30 795 C 74.3379 0.0399052 -1.70053 0
M  V30 796 O 75.5229 -0.125246 -1.93796 0
M  V30 797 C 72.6529 -0.637269 -3.41403 0
M  V30 798 C 71.6069 -1.66883 -3.94124 0
M  V30 799 C 70.9329 -1.11745 -5.22893 0
M  V30 800 C 72.2329 -3.06247 -4.23096 0
M  V30 801 H 73.9269 -1.97316 -2.25182 0
M  V30 802 H 71.4729 -0.950096 -1.08209 0
M  V30 803 H 73.4259 -0.48998 -4.18542 0
M  V30 804 H 72.1499 0.327557 -3.24953 0
M  V30 805 H 70.8089 -1.80416 -3.19133 0
M  V30 806 H 70.4569 -0.143527 -5.02795 0
M  V30 807 H 70.1569 -1.80672 -5.59134 0
M  V30 808 H 71.6809 -0.982067 -6.02651 0
M  V30 809 H 73.0949 -2.96001 -4.90975 0
M  V30 810 H 71.4919 -3.72436 -4.70544 0
M  V30 811 H 72.5619 -3.55041 -3.30263 0
M  V30 812 N 73.905 1.17692 -1.04816 0
M  V30 813 C 74.835 2.23777 -0.666791 0
M  V30 814 C 75.816 1.66796 0.33361 0
M  V30 815 O 77.001 1.93039 0.212042 0
M  V30 816 C 74.131 3.47281 -0.0367933 0
M  V30 817 C 73.085 4.17059 -0.961546 0
M  V30 818 C 72.411 5.34342 -0.195626 0
M  V30 819 C 73.711 4.69713 -2.28402 0
M  V30 820 H 75.405 2.55933 -1.55367 0
M  V30 821 H 72.951 1.23019 -0.748484 0
M  V30 822 H 74.904 4.20706 0.241775 0
M  V30 823 H 73.628 3.14381 0.885004 0
M  V30 824 H 72.287 3.45541 -1.22462 0
M  V30 825 H 71.935 4.97692 0.728816 0
M  V30 826 H 71.635 5.81966 -0.811775 0
M  V30 827 H 73.159 6.10553 0.0757473 0
M  V30 828 H 74.573 5.34794 -2.06563 0
M  V30 829 H 72.97 5.279 -2.8538 0
M  V30 830 H 74.04 3.86726 -2.92525 0
M  V30 831 N 75.3831 0.828654 1.34056 0
M  V30 832 C 76.2931 0.256725 2.33191 0
M  V30 833 C 77.3091 -0.611898 1.62886 0
M  V30 834 O 78.4851 -0.51844 1.94613 0
M  V30 835 C 75.5501 -0.567238 3.42028 0
M  V30 836 C 74.6111 0.324458 4.28072 0
M  V30 837 C 73.8441 -0.460274 5.31712 0
M  V30 838 O 74.0671 -1.693 5.44696 0
M  V30 839 O 73.0011 0.160391 6.01686 0
M  V30 840 H 76.8271 1.07739 2.83947 0
M  V30 841 H 74.4121 0.59093 1.37217 0
M  V30 842 H 76.2941 -1.03582 4.08471 0
M  V30 843 H 74.9691 -1.36513 2.93506 0
M  V30 844 H 73.8761 0.840659 3.64532 0
M  V30 845 H 75.2091 1.08685 4.8005 0
M  V30 846 N 76.8612 -1.46375 0.584142 0
M  V30 847 C 77.8092 -2.32042 -0.161047 0
M  V30 848 C 78.8032 -1.44569 -0.882966 0
M  V30 849 O 80.0092 -1.61186 -0.801191 0
M  V30 850 H 76.3842 -0.748659 -0.0708033 0
M  V30 851 H 78.3552 -2.92704 0.580269 0
M  V30 852 C 77.1042 -3.27762 -1.1605 0
M  V30 853 H 76.4272 -3.95051 -0.614419 0
M  V30 854 H 77.8672 -3.90481 -1.65228 0
M  V30 855 C 76.3262 -2.53218 -2.22221 0
M  V30 856 O 76.8562 -2.29628 -3.29597 0
M  V30 857 N 75.0622 -2.13756 -1.96868 0
M  V30 858 H 74.6092 -2.33142 -1.09557 0
M  V30 859 H 74.5672 -1.642 -2.68115 0
M  V30 860 N 78.3393 -0.321999 -1.54275 0
M  V30 861 C 79.2863 0.544664 -2.24281 0
M  V30 862 C 80.2563 1.1129 -1.23303 0
M  V30 863 O 81.4413 1.15354 -1.51981 0
M  V30 864 C 78.5813 1.70045 -3.00298 0
M  V30 865 C 77.6943 1.16159 -4.1609 0
M  V30 866 C 76.8293 2.28293 -4.79641 0
M  V30 867 C 75.8683 1.71648 -5.8754 0
M  V30 868 N 75.0053 2.77438 -6.44959 0
M  V30 869 H 79.8453 -0.0588907 -2.97942 0
M  V30 870 H 77.3823 -0.0408345 -1.47043 0
M  V30 871 H 79.3403 2.38054 -3.42616 0
M  V30 872 H 77.9703 2.27531 -2.28975 0
M  V30 873 H 77.0223 0.373092 -3.78566 0
M  V30 874 H 78.3343 0.707087 -4.93763 0
M  V30 875 H 77.4883 3.0421 -5.2492 0
M  V30 876 H 76.2273 2.77079 -4.01346 0
M  V30 877 H 75.2323 0.942282 -5.41665 0
M  V30 878 H 76.4573 1.23741 -6.67731 0
M  V30 879 H 74.4033 3.25519 -5.69538 0
M  V30 880 H 74.3203 2.36547 -7.1804 0
M  V30 881 H 75.5883 3.53189 -6.94894 0
M  V30 882 N 79.8174 1.5752 -0.0501392 0
M  V30 883 C 80.7274 2.14952 0.939827 0
M  V30 884 C 81.7434 1.10706 1.34239 0
M  V30 885 O 82.9194 1.42869 1.41952 0
M  V30 886 C 79.9844 2.68232 2.19665 0
M  V30 887 C 79.0454 3.87272 1.85253 0
M  V30 888 C 78.2784 4.38002 3.04943 0
M  V30 889 O 78.5014 3.87811 4.18281 0
M  V30 890 O 77.4354 5.29602 2.86017 0
M  V30 891 H 81.2614 2.9986 0.481392 0
M  V30 892 H 78.8464 1.4841 0.171699 0
M  V30 893 H 80.7284 3.02475 2.93406 0
M  V30 894 H 79.4034 1.86395 2.64648 0
M  V30 895 H 78.3104 3.5792 1.0883 0
M  V30 896 H 79.6434 4.70336 1.4507 0
M  V30 897 N 81.2955 -0.223234 1.56011 0
M  V30 898 C 82.5435 -0.946003 1.78592 0
M  V30 899 C 82.8645 -1.84936 0.618349 0
M  V30 900 O 82.1345 -1.92473 -0.364833 0
M  V30 901 H 80.7145 -0.352298 0.658707 0
M  V30 902 H 83.3765 -0.235494 1.93472 0
M  V30 903 H 82.4725 -1.55381 2.70672 0
M  V30 904 N 82.7736 -1.49793 -0.48987 0
M  V30 905 C 84.0136 -1.61466 -1.25332 0
M  V30 906 C 84.3776 -0.299688 -1.89647 0
M  V30 907 O 85.5786 -0.291687 -2.67213 0
M  V30 908 C 83.8496 -2.74944 -2.28343 0
M  V30 909 S 85.4086 -3.06637 -3.13878 0
M  V30 910 H 82.2266 -0.569411 -0.425784 0
M  V30 911 H 84.8286 -1.875 -0.553541 0
M  V30 912 H 83.5326 -3.68994 -1.79643 0
M  V30 913 H 83.0636 -2.50938 -3.02975 0
M  V30 914 H 85.0786 -2.49015 -4.29192 0
M  V30 915 N 84.2517 0.741722 -1.39055 0
M  V30 916 C 85.1837 1.8657 -1.33133 0
M  V30 917 C 86.1967 1.61001 -0.241329 0
M  V30 918 O 87.3857 1.7136 -0.499784 0
M  V30 919 C 84.4857 3.22457 -1.04283 0
M  V30 920 C 83.6587 3.75435 -2.24427 0
M  V30 921 C 82.7177 4.89867 -1.92138 0
M  V30 922 O 81.7437 5.03879 -2.64754 0
M  V30 923 N 82.9457 5.73738 -0.88347 0
M  V30 924 H 85.7107 1.92156 -2.29991 0
M  V30 925 H 83.2717 0.922172 -1.3307 0
M  V30 926 H 85.2637 3.9657 -0.807128 0
M  V30 927 H 83.8337 3.12181 -0.161807 0
M  V30 928 H 83.0537 2.92751 -2.6399 0
M  V30 929 H 84.3417 4.07563 -3.04581 0
M  V30 930 H 83.7397 5.64999 -0.281517 0
M  V30 931 H 82.2967 6.47947 -0.707662 0
M  V30 932 N 85.7298 1.2412 0.971189 0
M  V30 933 C 86.6768 1.0305 2.06517 0
M  V30 934 C 87.6468 -0.0550666 1.66009 0
M  V30 935 O 88.8318 0.0988688 1.90544 0
M  V30 936 C 85.9718 0.637653 3.39158 0
M  V30 937 C 85.0848 1.79633 3.92882 0
M  V30 938 C 84.2198 1.34939 5.13775 0
M  V30 939 C 83.2588 2.47823 5.59687 0
M  V30 940 N 82.3958 2.04022 6.71803 0
M  V30 941 H 87.2358 1.96685 2.23873 0
M  V30 942 H 84.7728 0.979694 1.09729 0
M  V30 943 H 86.7308 0.390931 4.15364 0
M  V30 944 H 85.3608 -0.261693 3.21737 0
M  V30 945 H 84.4128 2.15681 3.13346 0
M  V30 946 H 85.7248 2.64466 4.22918 0
M  V30 947 H 84.8788 1.06134 5.97345 0
M  V30 948 H 83.6178 0.471557 4.85415 0
M  V30 949 H 82.6228 2.77392 4.74693 0
M  V30 950 H 83.8478 3.36158 5.90063 0
M  V30 951 H 81.7938 1.18632 6.45184 0
M  V30 952 H 81.7108 2.82409 7.01271 0
M  V30 953 H 82.9788 1.78347 7.58823 0
M  V30 954 N 87.2079 -1.17134 1.05439 0
M  V30 955 C 88.4569 -1.86791 0.761049 0
M  V30 956 C 88.7699 -1.82072 -0.714795 0
M  V30 957 O 89.9759 -2.47223 -1.12218 0
M  V30 958 C 88.4319 -3.35166 1.31117 0
M  V30 959 C 88.0399 -3.48381 2.81664 0
M  V30 960 C 89.7839 -4.10134 1.09499 0
M  V30 961 C 87.6909 -4.90793 3.29964 0
M  V30 962 H 86.6209 -0.699681 0.281002 0
M  V30 963 H 89.2719 -1.3226 1.27199 0
M  V30 964 H 87.6539 -3.8925 0.72803 0
M  V30 965 H 88.8279 -3.04502 3.45855 0
M  V30 966 H 87.1429 -2.86836 3.01851 0
M  V30 967 H 89.7399 -5.152 1.43084 0
M  V30 968 H 90.0829 -4.16287 0.0328772 0
M  V30 969 H 90.6159 -3.62264 1.64346 0
M  V30 970 H 87.3549 -4.89816 4.35616 0
M  V30 971 H 86.8749 -5.35333 2.70516 0
M  V30 972 H 88.5539 -5.59573 3.24787 0
M  V30 973 N 88.686 -0.835752 -1.33615 0
M  V30 974 C 89.616 -0.281739 -2.31794 0
M  V30 975 C 90.597 0.608833 -1.58831 0
M  V30 976 O 91.782 0.533035 -1.86741 0
M  V30 977 C 88.912 0.546612 -3.42971 0
M  V30 978 C 87.866 -0.247904 -4.27281 0
M  V30 979 C 87.192 0.704001 -5.30045 0
M  V30 980 C 88.492 -1.46324 -5.01385 0
M  V30 981 H 90.186 -1.10206 -2.78379 0
M  V30 982 H 87.732 -0.531388 -1.33837 0
M  V30 983 H 89.685 0.944467 -4.1068 0
M  V30 984 H 88.409 1.40011 -2.95067 0
M  V30 985 H 87.068 -0.627281 -3.61194 0
M  V30 986 H 86.716 1.55381 -4.78399 0
M  V30 987 H 86.416 0.176524 -5.87335 0
M  V30 988 H 87.94 1.09944 -6.0062 0
M  V30 989 H 89.354 -1.13871 -5.61877 0
M  V30 990 H 87.751 -1.92728 -5.6831 0
M  V30 991 H 88.821 -2.23467 -4.30338 0
M  V30 992 N 90.1641 1.46063 -0.591896 0
M  V30 993 C 91.3891 2.07226 -0.0850314 0
M  V30 994 C 91.8141 1.43625 1.21463 0
M  V30 995 O 91.1721 0.523305 1.73583 0
M  V30 996 C 91.2201 3.60554 0.0576567 0
M  V30 997 O 90.3241 3.97128 1.11188 0
M  V30 998 H 89.6651 0.660615 -0.0669568 0
M  V30 999 H 92.1951 1.8756 -0.81745 0
M  V30 1000 H 92.2051 4.07165 0.2609 0
M  V30 1001 H 90.8801 4.06235 -0.891416 0
M  V30 1002 H 89.4571 3.62213 0.886356 0
M  V30 1003 N 91.6422 0.330177 1.54103 0
M  V30 1004 C 92.8882 -0.270806 2.00984 0
M  V30 1005 C 93.2212 -1.51265 1.21789 0
M  V30 1006 O 92.4962 -1.92142 0.301927 0
M  V30 1007 C 92.7792 -0.598339 3.55094 0
M  V30 1008 C 92.6322 0.654674 4.4501 0
M  V30 1009 C 93.9512 -1.41334 4.16789 0
M  V30 1010 H 91.0702 -0.0969531 0.730595 0
M  V30 1011 H 93.7122 0.448066 1.84641 0
M  V30 1012 H 91.8622 -1.21078 3.69151 0
M  V30 1013 H 93.5342 1.29285 4.42813 0
M  V30 1014 H 91.7772 1.28224 4.14416 0
M  V30 1015 H 92.4482 0.380944 5.50684 0
M  V30 1016 H 94.9242 -0.895597 4.06347 0
M  V30 1017 H 93.8002 -1.61127 5.24718 0
M  V30 1018 H 94.0612 -2.41146 3.70541 0
M  V30 1019 N 93.1203 -1.57491 0.0584922 0
M  V30 1020 C 94.0503 -2.14988 -0.911178 0
M  V30 1021 C 95.0313 -1.07343 -1.31952 0
M  V30 1022 O 96.2163 -1.35318 -1.39294 0
M  V30 1023 C 93.3463 -2.70078 -2.18347 0
M  V30 1024 C 92.3003 -3.82771 -1.91495 0
M  V30 1025 C 91.6263 -4.24408 -3.25241 0
M  V30 1026 C 92.9263 -5.07592 -1.23075 0
M  V30 1027 H 94.6203 -2.96263 -0.432246 0
M  V30 1028 H 92.1663 -1.42512 -0.206469 0
M  V30 1029 H 94.1193 -3.08943 -2.86587 0
M  V30 1030 H 92.8433 -1.86005 -2.68458 0
M  V30 1031 H 91.5023 -3.44389 -1.25664 0
M  V30 1032 H 91.1503 -3.37275 -3.73168 0
M  V30 1033 H 90.8503 -5.00366 -3.08071 0
M  V30 1034 H 92.3743 -4.65879 -3.94701 0
M  V30 1035 H 93.7883 -5.43857 -1.81362 0
M  V30 1036 H 92.1853 -5.88741 -1.16207 0
M  V30 1037 H 93.2553 -4.84454 -0.207847 0
M  V30 1038 N 94.5984 0.214957 -1.56127 0
M  V30 1039 C 95.5614 1.24997 -1.92116 0
M  V30 1040 C 96.5614 1.39467 -0.800344 0
M  V30 1041 O 97.7514 1.37619 -1.06802 0
M  V30 1042 C 94.8834 2.62271 -2.17777 0
M  V30 1043 H 96.0764 0.942875 -2.84693 0
M  V30 1044 H 93.6294 0.455654 -1.49511 0
M  V30 1045 H 94.3644 2.98068 -1.27773 0
M  V30 1046 H 94.1494 2.53143 -2.99434 0
M  V30 1047 H 95.6394 3.36946 -2.46693 0
M  V30 1048 N 96.0765 1.50051 0.48192 0
M  V30 1049 C 97.4875 1.5348 1.06305 0
M  V30 1050 C 97.8385 0.331997 1.93371 0
M  V30 1051 O 96.9635 -0.556256 2.09129 0
M  V30 1052 C 97.5585 2.7813 1.93466 0
M  V30 1053 C 96.1175 2.84275 2.46707 0
M  V30 1054 C 95.2645 2.47637 1.24785 0
M  V30 1055 H 98.2155 1.56472 0.264995 0
M  V30 1056 H 98.2365 2.59372 2.78399 0
M  V30 1057 H 97.7485 3.65654 1.30072 0
M  V30 1058 H 95.8495 2.01077 3.13686 0
M  V30 1059 H 95.9625 3.8691 2.82555 0
M  V30 1060 H 94.3265 1.99835 1.57918 0
M  V30 1061 H 95.1095 3.37457 0.630694 0
M  V30 1062 N 97.5546 -0.734337 1.39446 0
M  V30 1063 C 98.4846 -1.86155 1.40955 0
M  V30 1064 C 99.4656 -1.67898 0.272827 0
M  V30 1065 O 100.651 -1.88207 0.478743 0
M  V30 1066 C 97.7806 -3.23912 1.25294 0
M  V30 1067 C 96.7346 -3.56808 2.36373 0
M  V30 1068 C 96.0606 -4.93508 2.058 0
M  V30 1069 C 97.3606 -3.59713 3.78687 0
M  V30 1070 H 99.0546 -1.8515 2.35287 0
M  V30 1071 H 96.6006 -0.889367 1.13253 0
M  V30 1072 H 98.5536 -4.02443 1.2497 0
M  V30 1073 H 97.2776 -3.25446 0.274308 0
M  V30 1074 H 95.9366 -2.80606 2.35914 0
M  V30 1075 H 95.5846 -4.91623 1.06374 0
M  V30 1076 H 95.2846 -5.16486 2.80208 0
M  V30 1077 H 96.8086 -5.74396 2.07128 0
M  V30 1078 H 98.2226 -4.2832 3.81071 0
M  V30 1079 H 96.6196 -3.94209 4.52459 0
M  V30 1080 H 97.6896 -2.59504 4.09617 0
M  V30 1081 N 99.0327 -1.24633 -0.964593 0
M  V30 1082 C 100.279 -1.08949 -1.71049 0
M  V30 1083 C 100.612 0.370302 -1.90637 0
M  V30 1084 O 99.8867 1.27349 -1.47011 0
M  V30 1085 C 100.17 -1.83329 -3.0994 0
M  V30 1086 C 100.023 -3.37077 -2.97824 0
M  V30 1087 C 101.342 -1.60846 -4.09654 0
M  V30 1088 H 98.4607 -0.397178 -0.620821 0
M  V30 1089 H 101.103 -1.5334 -1.12191 0
M  V30 1090 H 99.2527 -1.45597 -3.60186 0
M  V30 1091 H 100.925 -3.84425 -2.5498 0
M  V30 1092 H 99.1677 -3.65298 -2.33965 0
M  V30 1093 H 99.8387 -3.84324 -3.96231 0
M  V30 1094 H 102.315 -1.93674 -3.68279 0
M  V30 1095 H 101.191 -2.1534 -5.04896 0
M  V30 1096 H 101.452 -0.547434 -4.38698 0
M  V30 1097 N 100.511 1.16574 -1.06058 0
M  V30 1098 C 101.922 1.68662 -0.800632 0
M  V30 1099 C 102.273 1.84184 0.67608 0
M  V30 1100 O 101.398 1.53568 1.52466 0
M  V30 1101 C 101.993 3.06356 -1.44676 0
M  V30 1102 C 100.552 3.55575 -1.23465 0
M  V30 1103 C 99.6988 2.31616 -1.52477 0
M  V30 1104 H 102.65 1.00969 -1.22438 0
M  V30 1105 H 102.671 3.70636 -0.860788 0
M  V30 1106 H 102.183 2.95027 -2.52152 0
M  V30 1107 H 100.284 3.72167 -0.179527 0
M  V30 1108 H 100.397 4.37812 -1.94571 0
M  V30 1109 H 98.7608 2.36512 -0.945209 0
M  V30 1110 H 99.5438 2.22887 -2.61106 0
M  V30 1111 N 101.989 0.842826 1.3317 0
M  V30 1112 C 103.217 0.454055 2.01856 0
M  V30 1113 C 103.632 -0.94587 1.63397 0
M  V30 1114 O 102.989 -1.61534 0.849302 0
M  V30 1115 C 103.04 0.569715 3.56982 0
M  V30 1116 O 102.761 1.91448 3.94055 0
M  V30 1117 C 104.262 0.178412 4.42941 0
M  V30 1118 H 101.482 0.17979 0.646465 0
M  V30 1119 H 104.026 1.1365 1.70012 0
M  V30 1120 H 102.181 -0.0648587 3.87346 0
M  V30 1121 H 102.595 1.90282 4.88767 0
M  V30 1122 H 104.069 0.310376 5.51127 0
M  V30 1123 H 104.546 -0.880056 4.30293 0
M  V30 1124 H 105.152 0.787579 4.17944 0
M  V30 1125 N 103.467 -1.45747 0.599634 0
M  V30 1126 C 104.715 -2.01893 0.0915472 0
M  V30 1127 C 105.036 -1.47155 -1.27946 0
M  V30 1128 O 104.306 -0.66273 -1.84349 0
M  V30 1129 H 102.886 -0.746363 0.0308524 0
M  V30 1130 H 105.548 -1.78645 0.779237 0
M  V30 1131 H 104.644 -3.1208 0.0353086 0
M  V30 1132 N 104.945 -0.338344 -1.53925 0
M  V30 1133 C 106.17 0.263987 -2.05713 0
M  V30 1134 C 106.595 1.43847 -1.21201 0
M  V30 1135 O 105.953 1.79904 -0.224535 0
M  V30 1136 C 106.001 0.662 -3.54471 0
M  V30 1137 O 105.105 1.76265 -3.72833 0
M  V30 1138 H 104.446 0.0448722 -0.662482 0
M  V30 1139 H 106.976 -0.491048 -1.9862 0
M  V30 1140 H 106.986 0.940594 -3.9701 0
M  V30 1141 H 105.661 -0.196937 -4.15433 0
M  V30 1142 H 104.238 1.48173 -3.42198 0
M  V30 1143 N 106.423 1.57458 -0.0668435 0
M  V30 1144 C 107.333 2.15937 0.916975 0
M  V30 1145 C 108.349 1.12123 1.33058 0
M  V30 1146 O 109.525 1.44366 1.40429 0
M  V30 1147 C 106.59 2.70547 2.16807 0
M  V30 1148 C 105.651 3.89215 1.81135 0
M  V30 1149 C 104.884 4.41211 3.0028 0
M  V30 1150 O 105.107 3.92225 4.14144 0
M  V30 1151 O 104.041 5.32605 2.80384 0
M  V30 1152 H 107.867 3.00354 0.449561 0
M  V30 1153 H 105.452 1.48584 0.155949 0
M  V30 1154 H 107.334 3.0557 2.90181 0
M  V30 1155 H 106.009 1.89192 2.62656 0
M  V30 1156 H 104.916 3.59054 1.05028 0
M  V30 1157 H 106.249 4.71848 1.40073 0
M  V30 1158 N 107.901 -0.206675 1.56239 0
M  V30 1159 C 108.849 -1.27571 1.94495 0
M  V30 1160 C 109.843 -1.47737 0.828862 0
M  V30 1161 O 111.049 -1.48735 1.0138 0
M  V30 1162 H 107.424 -0.428029 0.6183 0
M  V30 1163 H 109.395 -0.925961 2.8367 0
M  V30 1164 C 108.144 -2.61568 2.29079 0
M  V30 1165 H 107.467 -2.46863 3.14482 0
M  V30 1166 H 108.907 -3.35144 2.5972 0
M  V30 1167 C 107.366 -3.17695 1.12123 0
M  V30 1168 O 107.896 -3.99801 0.390153 0
M  V30 1169 N 106.102 -2.76276 0.901097 0
M  V30 1170 H 105.649 -2.09613 1.49733 0
M  V30 1171 H 105.607 -3.1417 0.120319 0
M  V30 1172 N 109.379 -1.50304 -0.473955 0
M  V30 1173 C 110.309 -1.71886 -1.58042 0
M  V30 1174 C 111.29 -0.567799 -1.60344 0
M  V30 1175 O 112.475 -0.806623 -1.76656 0
M  V30 1176 C 109.605 -1.81036 -2.96384 0
M  V30 1177 C 108.559 -2.962 -3.08949 0
M  V30 1178 C 107.885 -2.9049 -4.48909 0
M  V30 1179 C 109.185 -4.36752 -2.86434 0
M  V30 1180 H 110.879 -2.64527 -1.40234 0
M  V30 1181 H 108.425 -1.27295 -0.673201 0
M  V30 1182 H 110.378 -1.94719 -3.73714 0
M  V30 1183 H 109.102 -0.850147 -3.15341 0
M  V30 1184 H 107.761 -2.82164 -2.3405 0
M  V30 1185 H 107.409 -1.92321 -4.64781 0
M  V30 1186 H 107.109 -3.67802 -4.58253 0
M  V30 1187 H 108.633 -3.06218 -5.28264 0
M  V30 1188 H 110.047 -4.5133 -3.53517 0
M  V30 1189 H 108.444 -5.15493 -3.07225 0
M  V30 1190 H 109.514 -4.49321 -1.82316 0
M  V30 1191 N 110.857 0.726932 -1.39834 0
M  V30 1192 C 111.804 1.841 -1.39197 0
M  V30 1193 C 112.774 1.642 -0.250502 0
M  V30 1194 O 113.959 1.85494 -0.446846 0
M  V30 1195 C 111.099 3.21697 -1.24919 0
M  V30 1196 C 110.212 3.53247 -2.48678 0
M  V30 1197 C 109.347 4.80289 -2.26928 0
M  V30 1198 C 108.386 5.04707 -3.4632 0
M  V30 1199 N 107.523 6.22956 -3.23836 0
M  V30 1200 H 112.363 1.83979 -2.34427 0
M  V30 1201 H 109.9 0.898876 -1.16442 0
M  V30 1202 H 111.858 4.01137 -1.1465 0
M  V30 1203 H 110.488 3.21076 -0.333153 0
M  V30 1204 H 109.54 2.68447 -2.69519 0
M  V30 1205 H 110.852 3.67205 -3.37582 0
M  V30 1206 H 110.006 5.67725 -2.13947 0
M  V30 1207 H 108.745 4.68519 -1.35431 0
M  V30 1208 H 107.75 4.1573 -3.5979 0
M  V30 1209 H 108.975 5.18357 -4.38729 0
M  V30 1210 H 106.921 6.12459 -2.35011 0
M  V30 1211 H 106.838 6.37539 -4.063 0
M  V30 1212 H 108.106 7.1321 -3.14566 0
M  V30 1213 N 112.336 1.25143 0.95797 0
M  V30 1214 C 113.561 1.12521 1.74223 0
M  V30 1215 C 113.986 -0.317402 1.85403 0
M  V30 1216 O 113.344 -1.2299 1.33204 0
M  V30 1217 C 113.392 1.78062 3.1357 0
M  V30 1218 O 112.496 1.058 3.98598 0
M  V30 1219 H 111.837 0.39304 0.535178 0
M  V30 1220 H 114.367 1.65641 1.201 0
M  V30 1221 H 114.377 1.84213 3.64046 0
M  V30 1222 H 113.052 2.83021 3.04749 0
M  V30 1223 H 111.629 1.07506 3.57067 0
M  V30 1224 N 113.814 -1.1601 1.06675 0
M  V30 1225 C 114.744 -2.22688 0.702307 0
M  V30 1226 C 115.725 -1.67306 -0.307032 0
M  V30 1227 O 116.91 -1.93352 -0.181305 0
M  V30 1228 C 114.04 -3.47178 0.092038 0
M  V30 1229 C 112.994 -4.15477 1.02777 0
M  V30 1230 C 112.32 -5.33963 0.28061 0
M  V30 1231 C 113.62 -4.66019 2.35846 0
M  V30 1232 H 115.314 -2.53429 1.59419 0
M  V30 1233 H 112.86 -1.21813 0.767961 0
M  V30 1234 H 114.813 -4.21037 -0.174814 0
M  V30 1235 H 113.537 -3.15749 -0.834877 0
M  V30 1236 H 112.196 -3.43549 1.27944 0
M  V30 1237 H 111.844 -4.98788 -0.649545 0
M  V30 1238 H 111.544 -5.806 0.904258 0
M  V30 1239 H 113.068 -6.10596 0.021396 0
M  V30 1240 H 114.482 -5.3144 2.15045 0
M  V30 1241 H 112.879 -5.23293 2.93743 0
M  V30 1242 H 113.949 -3.82023 2.98641 0
M  V30 1243 N 115.292 -0.849877 -1.32721 0
M  V30 1244 C 116.522 -0.46408 -2.0132 0
M  V30 1245 C 116.93 0.94246 -1.64056 0
M  V30 1246 O 116.273 1.6257 -0.855379 0
M  V30 1247 C 116.335 -0.517887 -3.5575 0
M  V30 1248 C 115.999 -1.88248 -4.16427 0
M  V30 1249 C 116.996 -2.84726 -4.35002 0
M  V30 1250 C 114.681 -2.17832 -4.52609 0
M  V30 1251 C 116.675 -4.08945 -4.8892 0
M  V30 1252 C 114.362 -3.42304 -5.06232 0
M  V30 1253 C 115.36 -4.37677 -5.24335 0
M  V30 1254 O 115.048 -5.59946 -5.76815 0
M  V30 1255 H 114.78 -0.181327 -0.651227 0
M  V30 1256 H 117.334 -1.14713 -1.70382 0
M  V30 1257 H 115.564 0.221997 -3.86062 0
M  V30 1258 H 117.253 -0.148366 -4.05629 0
M  V30 1259 H 118.019 -2.63174 -4.07388 0
M  V30 1260 H 113.898 -1.44385 -4.37806 0
M  V30 1261 H 117.442 -4.83396 -5.02966 0
M  V30 1262 H 113.339 -3.63709 -5.33278 0
M  V30 1263 H 114.107 -5.61838 -5.95214 0
M  V30 1264 N 116.77 1.45427 -0.607355 0
M  V30 1265 C 117.718 2.32269 0.12411 0
M  V30 1266 C 118.712 1.45955 0.859854 0
M  V30 1267 O 119.918 1.6244 0.775447 0
M  V30 1268 H 116.293 0.749691 0.0588839 0
M  V30 1269 H 118.264 2.91743 -0.626762 0
M  V30 1270 C 117.013 3.29567 1.1082 0
M  V30 1271 H 116.336 3.95978 0.551492 0
M  V30 1272 H 117.776 3.93061 1.58995 0
M  V30 1273 C 116.235 2.56722 2.18164 0
M  V30 1274 O 116.765 2.34842 3.25902 0
M  V30 1275 N 114.971 2.16861 1.93442 0
M  V30 1276 H 114.518 2.34855 1.05834 0
M  V30 1277 H 114.476 1.68444 2.65469 0
M  V30 1278 N 118.248 0.346503 1.53744 0
M  V30 1279 C 119.476 -0.25041 2.05379 0
M  V30 1280 C 119.891 -1.43979 1.22129 0
M  V30 1281 O 119.248 -1.80677 0.257321 0
M  V30 1282 C 119.299 -0.662575 3.55376 0
M  V30 1283 O 119.02 0.479515 4.35468 0
M  V30 1284 C 120.521 -1.31989 4.23195 0
M  V30 1285 H 117.741 -0.0478198 0.669294 0
M  V30 1286 H 120.285 0.499346 1.9831 0
M  V30 1287 H 118.44 -1.36227 3.62658 0
M  V30 1288 H 118.854 0.15037 5.24284 0
M  V30 1289 H 120.328 -1.55902 5.29527 0
M  V30 1290 H 120.805 -2.27436 3.75725 0
M  V30 1291 H 121.411 -0.662154 4.20114 0
M  V30 1292 N 119.726 -1.57421 0.075193 0
M  V30 1293 C 120.972 -1.93905 -0.594025 0
M  V30 1294 C 121.305 -0.955701 -1.69056 0
M  V30 1295 O 120.58 0.0145373 -1.94495 0
M  V30 1296 C 120.863 -3.40638 -1.1678 0
M  V30 1297 C 120.716 -4.49733 -0.0776792 0
M  V30 1298 C 122.035 -3.88259 -2.07228 0
M  V30 1299 H 119.154 -0.705105 -0.214466 0
M  V30 1300 H 121.796 -1.8947 0.141854 0
M  V30 1301 H 119.946 -3.44549 -1.79494 0
M  V30 1302 H 121.618 -4.57942 0.555573 0
M  V30 1303 H 119.861 -4.29751 0.591286 0
M  V30 1304 H 120.532 -5.49549 -0.519603 0
M  V30 1305 H 123.008 -3.86376 -1.54445 0
M  V30 1306 H 121.884 -4.91533 -2.44308 0
M  V30 1307 H 122.145 -3.26396 -2.98191 0
M  V30 1308 N 121.204 0.198386 -1.56346 0
M  V30 1309 C 122.444 0.92609 -1.82217 0
M  V30 1310 C 122.808 1.80584 -0.652195 0
M  V30 1311 O 124.009 2.56907 -0.790716 0
M  V30 1312 C 122.28 1.72354 -3.13096 0
M  V30 1313 S 123.839 2.50371 -3.6036 0
M  V30 1314 H 120.657 0.310677 -0.639532 0
M  V30 1315 H 123.259 0.189755 -1.94577 0
M  V30 1316 H 121.963 1.0678 -3.96265 0
M  V30 1317 H 121.494 2.50175 -3.03605 0
M  V30 1318 H 123.509 3.74488 -3.25535 0
M  V30 1319 N 122.682 1.50554 0.465978 0
M  V30 1320 C 123.928 1.62038 1.21949 0
M  V30 1321 C 124.261 0.322116 1.9151 0
M  V30 1322 O 123.536 -0.676723 1.82348 0
M  V30 1323 C 123.819 2.80421 2.25912 0
M  V30 1324 C 123.672 4.20144 1.60622 0
M  V30 1325 C 124.991 2.94354 3.27176 0
M  V30 1326 H 122.11 0.589752 0.441998 0
M  V30 1327 H 124.752 1.82956 0.51257 0
M  V30 1328 H 122.902 2.62717 2.86203 0
M  V30 1329 H 124.574 4.49449 1.03889 0
M  V30 1330 H 122.817 4.24165 0.909211 0
M  V30 1331 H 123.488 4.98914 2.36196 0
M  V30 1332 H 125.964 3.10578 2.76913 0
M  V30 1333 H 124.84 3.788 3.97242 0
M  V30 1334 H 125.101 2.05186 3.916 0
M  V30 1335 N 124.16 -0.719506 1.40217 0
M  V30 1336 C 125.409 -1.47486 1.37589 0
M  V30 1337 C 125.722 -1.9559 -0.0201568 0
M  V30 1338 O 126.928 -2.70973 -0.169049 0
M  V30 1339 C 125.384 -2.66575 2.41796 0
M  V30 1340 C 124.992 -2.25358 3.87192 0
M  V30 1341 C 126.736 -3.4433 2.48269 0
M  V30 1342 C 124.643 -3.41262 4.83005 0
M  V30 1343 H 123.573 -0.553901 0.511576 0
M  V30 1344 H 126.224 -0.783427 1.65936 0
M  V30 1345 H 124.606 -3.3787 2.06543 0
M  V30 1346 H 125.78 -1.61509 4.31569 0
M  V30 1347 H 124.095 -1.60657 3.84159 0
M  V30 1348 H 126.692 -4.30569 3.17041 0
M  V30 1349 H 127.035 -3.87872 1.51198 0
M  V30 1350 H 127.568 -2.80076 2.82493 0
M  V30 1351 H 124.307 -3.02755 5.81394 0
M  V30 1352 H 123.827 -4.0404 4.43297 0
M  V30 1353 H 125.506 -4.07383 5.02641 0
M  V30 1354 N 125.638 -1.25649 -0.95132 0
M  V30 1355 C 126.884 -1.11766 -1.69941 0
M  V30 1356 C 127.239 0.33735 -1.89419 0
M  V30 1357 O 126.532 1.24491 -1.45645 0
M  V30 1358 C 126.726 -1.80909 -3.08231 0
M  V30 1359 C 126.555 -3.32984 -3.02245 0
M  V30 1360 C 125.325 -4.02247 -3.05819 0
M  V30 1361 C 127.523 -4.29332 -2.83157 0
M  V30 1362 N 125.505 -5.41072 -2.90024 0
M  V30 1363 C 126.876 -5.55265 -2.75828 0
M  V30 1364 C 128.931 -4.19707 -2.67863 0
M  V30 1365 C 127.634 -6.72671 -2.54767 0
M  V30 1366 C 129.66 -5.36809 -2.48173 0
M  V30 1367 C 129.022 -6.61683 -2.41567 0
M  V30 1368 H 125.121 -0.463708 -0.629682 0
M  V30 1369 H 127.705 -1.58796 -1.12659 0
M  V30 1370 H 125.876 -1.36369 -3.63673 0
M  V30 1371 H 127.608 -1.59739 -3.71841 0
M  V30 1372 H 124.363 -3.53531 -3.15139 0
M  V30 1373 H 124.787 -6.13938 -2.85323 0
M  V30 1374 H 129.429 -3.23907 -2.71743 0
M  V30 1375 H 127.147 -7.68577 -2.49629 0
M  V30 1376 H 130.733 -5.31224 -2.37259 0
M  V30 1377 H 129.613 -7.50768 -2.26531 0
M  V30 1378 N 127.117 1.15442 -1.07289 0
M  V30 1379 C 128.357 1.8788 -0.805012 0
M  V30 1380 C 128.721 1.80413 0.656907 0
M  V30 1381 O 129.922 2.47874 1.0398 0
M  V30 1382 C 128.193 3.3298 -1.29843 0
M  V30 1383 S 129.752 4.23158 -1.16114 0
M  V30 1384 H 126.57 0.64839 -0.291739 0
M  V30 1385 H 129.172 1.39285 -1.37186 0
M  V30 1386 H 127.876 3.35958 -2.35712 0
M  V30 1387 H 127.407 3.86629 -0.726767 0
M  V30 1388 H 129.422 4.96103 -0.0982778 0
M  V30 1389 N 128.595 0.856903 1.32268 0
M  V30 1390 C 129.844 0.457599 1.96441 0
M  V30 1391 C 130.157 -0.992426 1.68553 0
M  V30 1392 O 131.363 -1.49727 2.26482 0
M  V30 1393 C 129.819 0.767358 3.51624 0
M  V30 1394 C 129.427 2.23326 3.88367 0
M  V30 1395 C 131.171 0.435887 4.22256 0
M  V30 1396 C 129.078 2.48613 5.36606 0
M  V30 1397 H 128.008 0.167387 0.735185 0
M  V30 1398 H 130.659 1.048 1.5063 0
M  V30 1399 H 129.041 0.106367 3.95857 0
M  V30 1400 H 130.215 2.93623 3.55137 0
M  V30 1401 H 128.53 2.52948 3.30766 0
M  V30 1402 H 131.127 0.602202 5.31298 0
M  V30 1403 H 131.47 -0.622672 4.11617 0
M  V30 1404 H 132.003 1.05286 3.83614 0
M  V30 1405 H 128.742 3.53101 5.52268 0
M  V30 1406 H 128.262 1.82896 5.71235 0
M  V30 1407 H 129.941 2.32676 6.03714 0
M  V30 1408 N 130.073 -1.45103 0.615059 0
M  V30 1409 C 131.023 -2.27679 -0.120966 0
M  V30 1410 C 132.007 -1.3775 -0.831491 0
M  V30 1411 O 133.199 -1.61683 -0.720249 0
M  V30 1412 C 130.328 -3.24767 -1.1127 0
M  V30 1413 C 129.414 -4.22184 -0.402627 0
M  V30 1414 N 129.805 -5.02692 0.559884 0
M  V30 1415 C 128.103 -4.4125 -0.649202 0
M  V30 1416 C 128.804 -5.73421 0.977942 0
M  V30 1417 N 127.78 -5.42657 0.320104 0
M  V30 1418 H 131.582 -2.87325 0.618181 0
M  V30 1419 H 129.096 -1.56345 0.439304 0
M  V30 1420 H 131.093 -3.82666 -1.65446 0
M  V30 1421 H 129.753 -2.66682 -1.85232 0
M  V30 1422 H 130.764 -5.09354 0.936976 0
M  V30 1423 H 127.441 -3.9428 -1.37293 0
M  V30 1424 H 128.831 -6.48107 1.77222 0
M  V30 1425 N 131.551 -0.354651 -1.53558 0
M  V30 1426 C 132.514 0.484566 -2.24019 0
M  V30 1427 C 133.514 1.01861 -1.24422 0
M  V30 1428 O 134.704 0.906097 -1.4878 0
M  V30 1429 C 131.836 1.67615 -2.96847 0
M  V30 1430 H 133.029 -0.131843 -2.9961 0
M  V30 1431 H 130.582 -0.106165 -1.55939 0
M  V30 1432 H 131.317 2.33095 -2.25471 0
M  V30 1433 H 131.102 1.30029 -3.69912 0
M  V30 1434 H 132.592 2.27114 -3.50441 0
M  V30 1435 N 133.029 1.57378 -0.0835403 0
M  V30 1436 C 133.939 2.16897 0.894021 0
M  V30 1437 C 134.955 1.13528 1.31861 0
M  V30 1438 O 136.131 1.45848 1.3889 0
M  V30 1439 C 133.196 2.72831 2.13925 0
M  V30 1440 C 132.257 3.91115 1.76997 0
M  V30 1441 C 131.49 4.44371 2.95584 0
M  V30 1442 O 131.713 3.96596 4.09961 0
M  V30 1443 O 130.647 5.35549 2.74719 0
M  V30 1444 H 134.473 3.00814 0.417679 0
M  V30 1445 H 132.058 1.48741 0.140181 0
M  V30 1446 H 133.94 3.0863 2.86924 0
M  V30 1447 H 132.615 1.91967 2.60635 0
M  V30 1448 H 131.522 3.60148 1.01214 0
M  V30 1449 H 132.855 4.73307 1.3506 0
M  V30 1450 N 134.507 -0.190092 1.56449 0
M  V30 1451 C 135.417 -1.25591 1.98152 0
M  V30 1452 C 136.433 -1.49519 0.889944 0
M  V30 1453 O 137.609 -1.62036 1.19609 0
M  V30 1454 C 134.674 -2.57916 2.3169 0
M  V30 1455 C 133.735 -2.42015 3.5458 0
M  V30 1456 C 132.968 -3.6803 3.8651 0
M  V30 1457 O 133.191 -4.72413 3.1966 0
M  V30 1458 O 132.125 -3.6326 4.79923 0
M  V30 1459 H 135.951 -0.931988 2.89046 0
M  V30 1460 H 133.536 -0.395488 1.4407 0
M  V30 1461 H 135.418 -3.36008 2.54316 0
M  V30 1462 H 134.093 -2.89925 1.43963 0
M  V30 1463 H 133 -1.62017 3.37196 0
M  V30 1464 H 134.333 -2.14937 4.4279 0
M  V30 1465 N 135.985 -1.50799 -0.457987 0
M  V30 1466 C 136.932 -1.70617 -1.5543 0
M  V30 1467 C 137.902 -0.547562 -1.56815 0
M  V30 1468 O 139.087 -0.779647 -1.74144 0
M  V30 1469 C 136.227 -1.81831 -2.93311 0
M  V30 1470 C 135.34 -3.09278 -3.01615 0
M  V30 1471 C 134.475 -3.11209 -4.30491 0
M  V30 1472 C 133.514 -4.33055 -4.32585 0
M  V30 1473 N 132.651 -4.32652 -5.52952 0
M  V30 1474 H 137.491 -2.64207 -1.37836 0
M  V30 1475 H 135.028 -1.30959 -0.669937 0
M  V30 1476 H 136.986 -1.86314 -3.73287 0
M  V30 1477 H 135.616 -0.916685 -3.0951 0
M  V30 1478 H 134.668 -3.14203 -2.1443 0
M  V30 1479 H 135.98 -3.99233 -2.99022 0
M  V30 1480 H 135.134 -3.14494 -5.18824 0
M  V30 1481 H 133.873 -2.19106 -4.35711 0
M  V30 1482 H 132.878 -4.29969 -3.42647 0
M  V30 1483 H 134.103 -5.264 -4.29046 0
M  V30 1484 H 132.049 -3.43409 -5.58933 0
M  V30 1485 H 131.966 -5.16392 -5.52155 0
M  V30 1486 H 133.234 -4.40101 -6.43375 0
M  V30 1487 N 137.463 0.71206 -1.40597 0
M  V30 1488 C 138.709 1.47416 -1.39271 0
M  V30 1489 C 139.042 1.942 0.00388791 0
M  V30 1490 O 138.317 1.68403 0.973179 0
M  V30 1491 C 138.6 2.69774 -2.38525 0
M  V30 1492 C 138.453 2.28861 -3.87224 0
M  V30 1493 C 139.772 3.71939 -2.35264 0
M  V30 1494 H 136.891 0.534713 -0.5072 0
M  V30 1495 H 139.533 0.812375 -1.71757 0
M  V30 1496 H 137.683 3.26238 -2.10953 0
M  V30 1497 H 139.355 1.77852 -4.25636 0
M  V30 1498 H 137.598 1.60824 -4.02887 0
M  V30 1499 H 138.269 3.16584 -4.52193 0
M  V30 1500 H 140.745 3.25113 -2.59694 0
M  V30 1501 H 139.621 4.55186 -3.06753 0
M  V30 1502 H 139.882 4.20484 -1.36549 0
M  V30 1503 N 138.941 1.26152 0.944643 0
M  V30 1504 C 139.888 1.07408 2.04285 0
M  V30 1505 C 140.858 -0.0198413 1.66088 0
M  V30 1506 O 142.043 0.139264 1.90291 0
M  V30 1507 C 139.183 0.70945 3.37729 0
M  V30 1508 C 138.296 1.87926 3.88983 0
M  V30 1509 C 137.431 1.45807 5.10797 0
M  V30 1510 C 136.47 2.5964 5.54305 0
M  V30 1511 N 135.607 2.18226 6.67324 0
M  V30 1512 H 140.447 2.01389 2.1965 0
M  V30 1513 H 137.984 1.00275 1.07626 0
M  V30 1514 H 139.942 0.478948 4.14442 0
M  V30 1515 H 138.572 -0.193389 3.2222 0
M  V30 1516 H 137.624 2.22279 3.08701 0
M  V30 1517 H 138.936 2.73377 4.17213 0
M  V30 1518 H 138.09 1.18781 5.94959 0
M  V30 1519 H 136.829 0.574414 4.84305 0
M  V30 1520 H 135.834 2.87399 4.68702 0
M  V30 1521 H 137.059 3.48599 5.828 0
M  V30 1522 H 135.005 1.3229 6.42523 0
M  V30 1523 H 134.922 2.97221 6.95123 0
M  V30 1524 H 136.19 1.94403 7.54869 0
M  V30 1525 N 140.419 -1.14872 1.07899 0
M  V30 1526 C 141.369 -2.17809 0.674027 0
M  V30 1527 C 142.353 -1.58008 -0.303699 0
M  V30 1528 O 143.545 -1.76616 -0.11654 0
M  V30 1529 C 140.674 -3.43208 0.0793318 0
M  V30 1530 C 139.76 -4.10051 1.08253 0
M  V30 1531 N 140.151 -4.52296 2.2641 0
M  V30 1532 C 138.449 -4.36469 0.917124 0
M  V30 1533 C 139.15 -5.04199 2.901 0
M  V30 1534 N 138.126 -4.98088 2.17736 0
M  V30 1535 H 141.928 -2.48207 1.57386 0
M  V30 1536 H 139.442 -1.315 0.952976 0
M  V30 1537 H 141.439 -4.16272 -0.228719 0
M  V30 1538 H 140.099 -3.14291 -0.815551 0
M  V30 1539 H 141.11 -4.45504 2.64096 0
M  V30 1540 H 137.787 -4.17432 0.0756078 0
M  V30 1541 H 139.177 -5.46802 3.90458 0
M  V30 1542 N 141.898 -0.863906 -1.31812 0
M  V30 1543 C 143.126 -0.486111 -2.01108 0
M  V30 1544 C 143.541 0.919755 -1.64882 0
M  V30 1545 O 142.898 1.60162 -0.874893 0
M  V30 1546 C 142.949 -0.626435 -3.56031 0
M  V30 1547 O 142.67 -1.97693 -3.90959 0
M  V30 1548 C 144.171 -0.248857 -4.42601 0
M  V30 1549 H 141.391 -0.190052 -0.643523 0
M  V30 1550 H 143.935 -1.1634 -1.68182 0
M  V30 1551 H 142.09 0.00322717 -3.874 0
M  V30 1552 H 142.504 -1.98034 -4.85678 0
M  V30 1553 H 143.978 -0.398016 -5.50563 0
M  V30 1554 H 144.455 0.811489 -4.31638 0
M  V30 1555 H 145.061 -0.853971 -4.16638 0
M  V30 1556 N 143.376 1.44774 -0.622745 0
M  V30 1557 C 144.286 2.34433 0.0886031 0
M  V30 1558 C 145.302 1.52131 0.844529 0
M  V30 1559 O 146.478 1.84886 0.798691 0
M  V30 1560 C 143.543 3.29986 1.0635 0
M  V30 1561 C 142.604 4.28195 0.307873 0
M  V30 1562 C 141.837 5.19183 1.23633 0
M  V30 1563 O 142.06 5.13918 2.47476 0
M  V30 1564 O 140.994 5.97515 0.725189 0
M  V30 1565 H 144.82 2.96693 -0.648599 0
M  V30 1566 H 142.405 1.44408 -0.382957 0
M  V30 1567 H 144.287 3.88825 1.6246 0
M  V30 1568 H 142.962 2.70269 1.78146 0
M  V30 1569 H 141.869 3.72927 -0.296064 0
M  V30 1570 H 143.202 4.90808 -0.3699 0
M  V30 1571 N 144.854 0.36279 1.53368 0
M  V30 1572 C 145.764 -0.492994 2.29362 0
M  V30 1573 C 146.78 -1.09507 1.35219 0
M  V30 1574 O 147.956 -1.10662 1.68273 0
M  V30 1575 C 145.021 -1.61855 3.066 0
M  V30 1576 C 144.082 -1.04429 4.16405 0
M  V30 1577 C 143.315 -2.11621 4.89951 0
M  V30 1578 O 143.538 -3.32684 4.63333 0
M  V30 1579 O 142.472 -1.74835 5.75948 0
M  V30 1580 H 146.298 0.125331 3.03441 0
M  V30 1581 H 143.883 0.127253 1.48857 0
M  V30 1582 H 145.765 -2.27302 3.54841 0
M  V30 1583 H 144.44 -2.22233 2.3536 0
M  V30 1584 H 143.347 -0.353819 3.72423 0
M  V30 1585 H 144.68 -0.485113 4.89804 0
M  V30 1586 N 146.332 -1.57332 0.0918853 0
M  V30 1587 C 147.295 -2.12708 -0.85369 0
M  V30 1588 C 148.295 -1.05561 -1.213 0
M  V30 1589 O 149.485 -1.31461 -1.14296 0
M  V30 1590 C 146.617 -2.64503 -2.15061 0
M  V30 1591 H 147.81 -2.97573 -0.3729 0
M  V30 1592 H 145.363 -1.55509 -0.157072 0
M  V30 1593 H 146.098 -1.83149 -2.67632 0
M  V30 1594 H 145.883 -3.4284 -1.90272 0
M  V30 1595 H 147.373 -3.07351 -2.82711 0
M  V30 1596 N 147.81 0.181792 -1.56548 0
M  V30 1597 C 148.757 1.22521 -1.95595 0
M  V30 1598 C 149.727 1.4454 -0.818373 0
M  V30 1599 O 150.912 1.57454 -1.07763 0
M  V30 1600 C 148.052 2.56193 -2.31212 0
M  V30 1601 C 147.165 2.41641 -3.58097 0
M  V30 1602 C 146.3 3.68108 -3.82975 0
M  V30 1603 C 145.339 3.48445 -5.03242 0
M  V30 1604 N 144.476 4.66956 -5.24306 0
M  V30 1605 H 149.316 0.885226 -2.84548 0
M  V30 1606 H 146.853 0.425718 -1.40805 0
M  V30 1607 H 148.811 3.34088 -2.49882 0
M  V30 1608 H 147.441 2.88208 -1.45382 0
M  V30 1609 H 146.493 1.54976 -3.474 0
M  V30 1610 H 147.805 2.23052 -4.46149 0
M  V30 1611 H 146.959 4.54441 -4.01956 0
M  V30 1612 H 145.698 3.89666 -2.93278 0
M  V30 1613 H 144.703 2.60499 -4.8417 0
M  V30 1614 H 145.928 3.2832 -5.9446 0
M  V30 1615 H 143.874 4.88752 -4.37559 0
M  V30 1616 H 143.791 4.51242 -6.06561 0
M  V30 1617 H 145.059 5.54602 -5.47756 0
M  V30 1618 N 149.288 1.51039 0.449983 0
M  V30 1619 C 150.22 1.67617 1.56324 0
M  V30 1620 C 151.233 0.557083 1.52972 0
M  V30 1621 O 152.422 0.830989 1.57977 0
M  V30 1622 C 149.522 1.66402 2.95235 0
M  V30 1623 C 148.695 2.9469 3.23229 0
M  V30 1624 C 147.754 2.85832 4.41799 0
M  V30 1625 O 146.78 3.59785 4.41071 0
M  V30 1626 N 147.982 2.00821 5.44657 0
M  V30 1627 H 150.747 2.63648 1.42512 0
M  V30 1628 H 148.308 1.48767 0.638737 0
M  V30 1629 H 150.3 1.58062 3.72557 0
M  V30 1630 H 148.87 0.780182 3.02708 0
M  V30 1631 H 148.09 3.16996 2.34323 0
M  V30 1632 H 149.378 3.79636 3.38754 0
M  V30 1633 H 148.776 1.40091 5.48079 0
M  V30 1634 H 147.333 1.98368 6.20881 0
M  V30 1635 N 150.766 -0.704594 1.40972 0
M  V30 1636 C 152.015 -1.46018 1.39146 0
M  V30 1637 C 152.328 -1.956 0.000589254 0
M  V30 1638 O 153.534 -2.71137 -0.1403 0
M  V30 1639 C 151.99 -2.63996 2.4461 0
M  V30 1640 C 151.598 -2.21238 3.89561 0
M  V30 1641 C 153.342 -3.41677 2.51907 0
M  V30 1642 C 151.249 -3.3612 4.86598 0
M  V30 1643 H 150.179 -0.548444 0.517422 0
M  V30 1644 H 152.83 -0.765784 1.66757 0
M  V30 1645 H 151.212 -3.3566 2.10115 0
M  V30 1646 H 152.386 -1.56923 4.33257 0
M  V30 1647 H 150.701 -1.56574 3.85841 0
M  V30 1648 H 153.298 -4.27182 3.2159 0
M  V30 1649 H 153.641 -3.86247 1.55303 0
M  V30 1650 H 154.174 -2.77064 2.85448 0
M  V30 1651 H 150.913 -2.96572 5.84573 0
M  V30 1652 H 150.433 -3.99315 4.47557 0
M  V30 1653 H 152.112 -4.02029 5.06934 0
M  V30 1654 N 152.244 -1.26651 -0.937939 0
M  V30 1655 C 153.49 -1.12553 -1.687 0
M  V30 1656 C 153.823 0.329782 -1.91379 0
M  V30 1657 O 153.098 1.24202 -1.4968 0
M  V30 1658 C 153.381 -1.89862 -3.05981 0
M  V30 1659 C 153.234 -3.43318 -2.90607 0
M  V30 1660 C 154.553 -1.69499 -4.0615 0
M  V30 1661 H 151.672 -0.410257 -0.612257 0
M  V30 1662 H 154.314 -1.55685 -1.08913 0
M  V30 1663 H 152.464 -1.53204 -3.57017 0
M  V30 1664 H 154.136 -3.89747 -2.46769 0
M  V30 1665 H 152.379 -3.70179 -2.26164 0
M  V30 1666 H 153.05 -3.92642 -3.8799 0
M  V30 1667 H 155.526 -2.01442 -3.64088 0
M  V30 1668 H 154.402 -2.26002 -5.00214 0
M  V30 1669 H 154.663 -0.640365 -4.37438 0
M  V30 1670 N 153.722 1.14298 -1.08507 0
M  V30 1671 C 154.654 2.1907 -0.673859 0
M  V30 1672 C 155.667 1.60381 0.279577 0
M  V30 1673 O 156.856 1.78374 0.0670754 0
M  V30 1674 C 153.956 3.38888 0.0290979 0
M  V30 1675 C 153.129 4.27103 -0.943494 0
M  V30 1676 C 152.188 5.25477 -0.275676 0
M  V30 1677 O 151.214 5.61709 -0.920401 0
M  V30 1678 N 152.416 5.7227 0.974013 0
M  V30 1679 H 155.181 2.54965 -1.57521 0
M  V30 1680 H 152.742 1.29528 -0.971287 0
M  V30 1681 H 154.734 4.01761 0.48683 0
M  V30 1682 H 153.304 3.01309 0.832555 0
M  V30 1683 H 152.524 3.61149 -1.58004 0
M  V30 1684 H 153.812 4.82905 -1.60251 0
M  V30 1685 H 153.21 5.44965 1.51755 0
M  V30 1686 H 151.767 6.37127 1.37522 0
M  V30 1687 N 155.201 0.870884 1.31352 0
M  V30 1688 C 156.617 0.562932 1.49343 0
M  V30 1689 C 156.817 -0.902725 1.80148 0
M  V30 1690 O 155.873 -1.68484 1.88067 0
M  V30 1691 C 157.186 1.46393 2.62659 0
M  V30 1692 C 158.734 1.46607 2.76542 0
M  V30 1693 C 159.209 2.35266 3.92955 0
M  V30 1694 N 160.7 2.33151 4.00243 0
M  V30 1695 C 161.435 2.98471 4.89594 0
M  V30 1696 N 160.931 3.72964 5.8384 0
M  V30 1697 N 162.724 2.87775 4.82848 0
M  V30 1698 H 154.875 1.81923 1.09626 0
M  V30 1699 H 157.138 0.777934 0.541777 0
M  V30 1700 H 156.844 2.50689 2.46674 0
M  V30 1701 H 156.718 1.16314 3.58819 0
M  V30 1702 H 159.105 0.43069 2.9194 0
M  V30 1703 H 159.186 1.8071 1.81046 0
M  V30 1704 H 158.83 3.38881 3.78315 0
M  V30 1705 H 158.76 1.98487 4.87761 0
M  V30 1706 H 161.251 1.79006 3.32814 0
M  V30 1707 H 161.564 4.19932 6.4875 0
M  V30 1708 H 159.909 3.77073 5.83816 0
M  V30 1709 H 163.1 2.29116 4.08195 0
M  V30 1710 H 163.273 3.38961 5.52277 0
M  V30 1711 N 156.679 -1.44442 0.630414 0
M  V30 1712 C 157.629 -2.27794 -0.0968103 0
M  V30 1713 C 158.613 -1.38624 -0.816834 0
M  V30 1714 O 159.805 -1.62438 -0.70306 0
M  V30 1715 C 156.934 -3.25929 -1.07819 0
M  V30 1716 C 156.02 -4.22588 -0.357826 0
M  V30 1717 N 156.411 -5.0207 0.613169 0
M  V30 1718 C 154.709 -4.41914 -0.602365 0
M  V30 1719 C 155.41 -5.72351 1.03871 0
M  V30 1720 N 154.386 -5.42287 0.377642 0
M  V30 1721 H 158.188 -2.86653 0.648621 0
M  V30 1722 H 155.702 -1.55871 0.455862 0
M  V30 1723 H 157.699 -3.84399 -1.61378 0
M  V30 1724 H 156.359 -2.68631 -1.82393 0
M  V30 1725 H 157.37 -5.08331 0.990947 0
M  V30 1726 H 154.047 -3.95714 -1.33103 0
M  V30 1727 H 155.437 -6.4619 1.84086 0
M  V30 1728 N 158.157 -0.370918 -1.53173 0
M  V30 1729 C 159.087 0.464847 -2.28826 0
M  V30 1730 C 160.068 1.07936 -1.31468 0
M  V30 1731 O 161.253 1.0956 -1.60344 0
M  V30 1732 C 158.383 1.60196 -3.08147 0
M  V30 1733 C 157.337 1.11443 -4.13237 0
M  V30 1734 C 156.663 2.3422 -4.80672 0
M  V30 1735 C 157.963 0.195384 -5.21934 0
M  V30 1736 H 159.657 -0.166329 -2.98938 0
M  V30 1737 H 157.203 -0.0814359 -1.4377 0
M  V30 1738 H 159.156 2.19332 -3.59822 0
M  V30 1739 H 157.88 2.26045 -2.35735 0
M  V30 1740 H 156.539 0.545727 -3.62515 0
M  V30 1741 H 156.187 2.98537 -4.04827 0
M  V30 1742 H 155.887 2.02269 -5.51689 0
M  V30 1743 H 157.411 2.94032 -5.35143 0
M  V30 1744 H 158.825 0.694375 -5.69079 0
M  V30 1745 H 157.222 -0.0335027 -6.00091 0
M  V30 1746 H 158.292 -0.760961 -4.78892 0
M  V30 1747 N 159.635 1.57281 -0.100228 0
M  V30 1748 C 160.881 1.94826 0.563101 0
M  V30 1749 C 161.214 0.982475 1.67514 0
M  V30 1750 O 160.489 0.0164069 1.94493 0
M  V30 1751 C 160.772 3.42453 1.11346 0
M  V30 1752 C 160.625 4.498 0.00612081 0
M  V30 1753 C 161.944 3.91506 2.01024 0
M  V30 1754 H 159.063 0.708428 0.203221 0
M  V30 1755 H 161.705 1.8922 -0.171979 0
M  V30 1756 H 159.855 3.47361 1.7399 0
M  V30 1757 H 161.527 4.57 -0.628357 0
M  V30 1758 H 159.77 4.28756 -0.659581 0
M  V30 1759 H 160.441 5.50306 0.432109 0
M  V30 1760 H 162.917 3.88784 1.48278 0
M  V30 1761 H 161.793 4.95358 2.36457 0
M  V30 1762 H 162.054 3.31099 2.92961 0
M  V30 1763 N 161.113 -0.173488 1.56642 0
M  V30 1764 C 162.046 -1.24353 1.91342 0
M  V30 1765 C 163.024 -1.4289 0.775965 0
M  V30 1766 O 164.208 -1.57932 1.02907 0
M  V30 1767 C 161.335 -2.60683 2.16245 0
M  V30 1768 C 160.381 -2.58894 3.38934 0
M  V30 1769 S 161.214 -2.0819 4.93373 0
M  V30 1770 C 162.37 -3.46302 5.21369 0
M  V30 1771 H 162.603 -0.947345 2.81803 0
M  V30 1772 H 160.136 -0.377958 1.49703 0
M  V30 1773 H 162.094 -3.39149 2.31275 0
M  V30 1774 H 160.755 -2.87502 1.26496 0
M  V30 1775 H 159.948 -3.59188 3.53553 0
M  V30 1776 H 159.55 -1.88522 3.2301 0
M  V30 1777 H 161.842 -4.42287 5.13214 0
M  V30 1778 H 162.785 -3.3656 6.23003 0
M  V30 1779 H 163.193 -3.42214 4.48943 0
M  V30 1780 N 162.591 -1.51276 -0.441967 0
M  V30 1781 C 163.501 -1.75092 -1.56141 0
M  V30 1782 C 164.517 -0.634963 -1.62001 0
M  V30 1783 O 165.693 -0.916686 -1.79329 0
M  V30 1784 C 162.758 -1.86666 -2.92158 0
M  V30 1785 C 161.819 -3.10506 -2.96453 0
M  V30 1786 C 161.052 -3.21519 -4.25982 0
M  V30 1787 O 161.275 -2.38586 -5.18105 0
M  V30 1788 O 160.209 -4.14465 -4.36466 0
M  V30 1789 H 164.035 -2.70044 -1.38961 0
M  V30 1790 H 161.62 -1.35722 -0.624499 0
M  V30 1791 H 163.502 -1.96292 -3.72891 0
M  V30 1792 H 162.177 -0.949014 -3.09476 0
M  V30 1793 H 161.084 -3.06363 -2.14692 0
M  V30 1794 H 162.417 -4.01945 -2.84079 0
M  V30 1795 N 164.069 0.697108 -1.41344 0
M  V30 1796 C 165.297 1.48593 -1.43972 0
M  V30 1797 C 165.712 1.88747 -0.0445612 0
M  V30 1798 O 165.069 1.56682 0.935785 0
M  V30 1799 C 165.12 2.74946 -2.34706 0
M  V30 1800 O 164.841 2.36484 -3.68791 0
M  V30 1801 C 166.342 3.687 -2.46121 0
M  V30 1802 H 163.562 0.457964 -0.490418 0
M  V30 1803 H 166.106 0.858429 -1.8561 0
M  V30 1804 H 164.261 3.33937 -1.9638 0
M  V30 1805 H 164.675 3.17918 -4.17167 0
M  V30 1806 H 166.149 4.54145 -3.13777 0
M  V30 1807 H 166.626 4.13081 -1.49199 0
M  V30 1808 H 167.232 3.15613 -2.85076 0
M  V30 1809 N 165.547 1.27147 0.931209 0
M  V30 1810 C 166.795 1.13055 1.6752 0
M  V30 1811 C 167.116 -0.324791 1.92276 0
M  V30 1812 O 166.386 -1.22775 1.52654 0
M  V30 1813 H 164.966 0.415391 0.620854 0
M  V30 1814 H 167.628 1.59623 1.11833 0
M  V30 1815 H 166.724 1.65694 2.64485 0
M  V30 1816 N 167.025 -1.13721 1.09112 0
M  V30 1817 C 168.253 -1.88773 0.846899 0
M  V30 1818 C 168.668 -1.7896 -0.601572 0
M  V30 1819 O 168.025 -1.15394 -1.41388 0
M  V30 1820 C 168.076 -3.3849 1.26913 0
M  V30 1821 O 167.797 -3.48043 2.66079 0
M  V30 1822 C 169.298 -4.30518 1.05682 0
M  V30 1823 H 166.518 -0.59772 0.304914 0
M  V30 1824 H 169.062 -1.43977 1.45227 0
M  V30 1825 H 167.217 -3.80881 0.707723 0
M  V30 1826 H 167.631 -4.4109 2.83795 0
M  V30 1827 H 169.105 -5.3391 1.40156 0
M  V30 1828 H 169.582 -4.392 -0.00563416 0
M  V30 1829 H 170.188 -3.93893 1.60402 0
M  V30 1830 N 168.503 -0.877838 -1.30888 0
M  V30 1831 C 169.466 -0.344265 -2.266 0
M  V30 1832 C 170.466 0.50922 -1.52524 0
M  V30 1833 O 171.656 0.317398 -1.71284 0
M  V30 1834 C 168.788 0.510198 -3.37061 0
M  V30 1835 H 169.981 -1.1893 -2.7531 0
M  V30 1836 H 167.534 -0.654088 -1.41956 0
M  V30 1837 H 168.269 1.37612 -2.93655 0
M  V30 1838 H 168.054 -0.101047 -3.9197 0
M  V30 1839 H 169.544 0.875537 -4.08319 0
M  V30 1840 N 169.982 1.44106 -0.638065 0
M  V30 1841 C 170.892 2.34513 0.0637334 0
M  V30 1842 C 171.908 1.53018 0.828346 0
M  V30 1843 O 173.084 1.85723 0.779036 0
M  V30 1844 C 170.149 3.31095 1.02844 0
M  V30 1845 C 169.21 4.28497 0.26244 0
M  V30 1846 C 168.443 5.20465 1.1812 0
M  V30 1847 O 168.666 5.16514 2.42011 0
M  V30 1848 O 167.6 5.98251 0.661774 0
M  V30 1849 H 171.426 2.95989 -0.68003 0
M  V30 1850 H 169.011 1.43994 -0.398252 0
M  V30 1851 H 170.893 3.90526 1.58327 0
M  V30 1852 H 169.568 2.72144 1.7527 0
M  V30 1853 H 168.475 3.72592 -0.335602 0
M  V30 1854 H 169.808 4.90388 -0.421936 0
M  V30 1855 N 171.46 0.379036 1.52974 0
M  V30 1856 C 172.688 -0.20679 2.05864 0
M  V30 1857 C 173.103 -1.41356 1.25155 0
M  V30 1858 O 172.46 -1.8009 0.295588 0
M  V30 1859 C 172.511 -0.587045 3.56702 0
M  V30 1860 O 172.232 0.571776 4.34353 0
M  V30 1861 C 173.733 -1.22983 4.25899 0
M  V30 1862 H 170.953 -0.0336123 0.670158 0
M  V30 1863 H 173.497 0.541298 1.97206 0
M  V30 1864 H 171.652 -1.28504 3.65466 0
M  V30 1865 H 172.066 0.261544 5.23847 0
M  V30 1866 H 173.54 -1.44635 5.32715 0
M  V30 1867 H 174.017 -2.19416 3.80465 0
M  V30 1868 H 174.623 -0.572892 4.21424 0
M  V30 1869 N 172.938 -1.57226 0.108567 0
M  V30 1870 C 173.871 -2.10447 -0.882464 0
M  V30 1871 C 174.849 -1.01829 -1.26766 0
M  V30 1872 O 176.033 -1.29415 -1.37054 0
M  V30 1873 C 173.16 -2.59258 -2.17952 0
M  V30 1874 C 172.206 -3.79662 -1.94318 0
M  V30 1875 S 173.039 -5.22586 -1.16892 0
M  V30 1876 C 174.195 -5.74758 -2.47799 0
M  V30 1877 H 174.428 -2.94178 -0.429745 0
M  V30 1878 H 171.961 -1.54043 -0.105 0
M  V30 1879 H 173.919 -2.88036 -2.92482 0
M  V30 1880 H 172.58 -1.75728 -2.60343 0
M  V30 1881 H 171.773 -4.11928 -2.90399 0
M  V30 1882 H 171.375 -3.51446 -1.27913 0
M  V30 1883 H 173.667 -5.83846 -3.43701 0
M  V30 1884 H 174.61 -6.73027 -2.20093 0
M  V30 1885 H 175.018 -5.02763 -2.56689 0
M  V30 1886 N 174.416 0.165178 -1.56732 0
M  V30 1887 C 175.827 0.727046 -1.71962 0
M  V30 1888 C 176.178 1.82508 -0.720078 0
M  V30 1889 O 175.303 2.16082 0.117242 0
M  V30 1890 C 175.898 1.32559 -3.11791 0
M  V30 1891 C 174.457 1.83422 -3.28684 0
M  V30 1892 C 173.604 0.715567 -2.67908 0
M  V30 1893 H 176.555 -0.0602896 -1.58585 0
M  V30 1894 H 176.576 2.19533 -3.10782 0
M  V30 1895 H 176.088 0.526195 -3.84516 0
M  V30 1896 H 174.189 2.65986 -2.60926 0
M  V30 1897 H 174.302 1.97543 -4.36478 0
M  V30 1898 H 172.666 1.13758 -2.27884 0
M  V30 1899 H 173.449 -0.0720836 -3.43224 0
M  V30 1900 N 175.894 1.51508 0.433938 0
M  V30 1901 C 176.841 1.73068 1.52696 0
M  V30 1902 C 177.811 0.572441 1.55924 0
M  V30 1903 O 178.996 0.807253 1.72882 0
M  V30 1904 C 176.136 1.86474 2.90381 0
M  V30 1905 C 175.249 3.14037 2.96656 0
M  V30 1906 C 174.384 3.18019 4.25485 0
M  V30 1907 C 173.423 4.39882 4.2564 0
M  V30 1908 N 172.56 4.41394 5.45999 0
M  V30 1909 H 177.4 2.66366 1.33615 0
M  V30 1910 H 174.937 1.32008 0.649018 0
M  V30 1911 H 176.895 1.92229 3.70275 0
M  V30 1912 H 175.525 0.965809 3.08013 0
M  V30 1913 H 174.577 3.17575 2.09404 0
M  V30 1914 H 175.889 4.0394 2.92633 0
M  V30 1915 H 175.043 3.22708 5.13755 0
M  V30 1916 H 173.782 2.2601 4.3217 0
M  V30 1917 H 172.787 4.35366 3.35763 0
M  V30 1918 H 174.012 5.33159 4.20617 0
M  V30 1919 H 171.958 3.52258 5.53399 0
M  V30 1920 H 171.875 5.25111 5.4387 0
M  V30 1921 H 173.143 4.50281 6.36292 0
M  V30 1922 N 177.372 -0.689602 1.41712 0
M  V30 1923 C 178.6 -1.47827 1.44758 0
M  V30 1924 C 179.015 -1.88721 0.0545703 0
M  V30 1925 O 178.372 -1.57176 -0.927463 0
M  V30 1926 C 178.423 -2.73698 2.3616 0
M  V30 1927 O 178.144 -2.34524 3.7004 0
M  V30 1928 C 179.645 -3.67389 2.48072 0
M  V30 1929 H 176.865 -0.455357 0.49284 0
M  V30 1930 H 179.409 -0.848574 1.86063 0
M  V30 1931 H 177.564 -3.32891 1.98148 0
M  V30 1932 H 177.978 -3.15701 4.18847 0
M  V30 1933 H 179.452 -4.52475 3.16181 0
M  V30 1934 H 179.929 -4.12284 1.51388 0
M  V30 1935 H 180.535 -3.14097 2.86746 0
M  V30 1936 N 178.85 -1.27639 -0.924453 0
M  V30 1937 C 180.075 -1.17101 -1.71179 0
M  V30 1938 C 180.5 0.268134 -1.86179 0
M  V30 1939 O 179.858 1.19415 -1.36418 0
M  V30 1940 C 179.906 -1.86313 -3.08739 0
M  V30 1941 O 179.01 -1.16331 -3.95652 0
M  V30 1942 H 178.351 -0.407091 -0.524569 0
M  V30 1943 H 180.881 -1.68767 -1.15666 0
M  V30 1944 H 180.891 -1.938 -3.59034 0
M  V30 1945 H 179.566 -2.91001 -2.97138 0
M  V30 1946 H 178.143 -1.16935 -3.54091 0
M  V30 1947 N 180.328 1.1314 -1.09713 0
M  V30 1948 C 181.744 1.36477 -0.827423 0
M  V30 1949 C 181.944 1.93654 0.556817 0
M  V30 1950 O 181 2.15791 1.31112 0
M  V30 1951 C 182.313 2.31334 -1.92106 0
M  V30 1952 C 183.861 2.44943 -1.94864 0
M  V30 1953 C 184.336 3.4311 -3.0338 0
M  V30 1954 N 185.827 3.50662 -3.02639 0
M  V30 1955 C 186.562 4.2651 -3.83246 0
M  V30 1956 N 186.058 5.05485 -4.73768 0
M  V30 1957 N 187.851 4.2184 -3.71493 0
M  V30 1958 H 180.002 0.743807 -1.9895 0
M  V30 1959 H 182.265 0.389823 -0.864143 0
M  V30 1960 H 181.971 1.96483 -2.91698 0
M  V30 1961 H 181.845 3.31381 -1.80184 0
M  V30 1962 H 184.232 2.79079 -0.959099 0
M  V30 1963 H 184.313 1.4481 -2.10864 0
M  V30 1964 H 183.957 3.09704 -4.02549 0
M  V30 1965 H 183.887 4.43055 -2.84622 0
M  V30 1966 H 186.378 2.94315 -2.37039 0
M  V30 1967 H 186.691 5.60675 -5.3185 0
M  V30 1968 H 185.036 5.04708 -4.77802 0
M  V30 1969 H 188.227 3.5922 -3.00131 0
M  V30 1970 H 188.4 4.80697 -4.3455 0
M  V30 1971 N 181.806 0.884767 1.30421 0
M  V30 1972 C 183.217 0.553656 1.78302 0
M  V30 1973 C 183.568 -0.930153 1.7275 0
M  V30 1974 O 182.693 -1.72681 1.30423 0
M  V30 1975 C 183.288 0.998234 3.2376 0
M  V30 1976 C 181.847 0.71854 3.69478 0
M  V30 1977 C 180.994 1.18132 2.50879 0
M  V30 1978 H 183.945 1.06901 1.17294 0
M  V30 1979 H 183.966 0.327118 3.79091 0
M  V30 1980 H 183.478 2.0782 3.27769 0
M  V30 1981 H 181.579 -0.349444 3.70958 0
M  V30 1982 H 181.692 1.30595 4.60958 0
M  V30 1983 H 180.056 0.600669 2.47516 0
M  V30 1984 H 180.839 2.26902 2.57624 0
M  V30 1985 N 183.284 -1.43765 0.645699 0
M  V30 1986 C 184.512 -2.06253 0.163556 0
M  V30 1987 C 184.927 -1.48352 -1.16778 0
M  V30 1988 O 184.284 -0.611932 -1.71935 0
M  V30 1989 C 184.335 -3.61453 0.0583186 0
M  V30 1990 O 184.056 -4.172 1.33702 0
M  V30 1991 C 185.557 -4.41002 -0.450795 0
M  V30 1992 H 182.777 -0.665413 0.0864077 0
M  V30 1993 H 185.321 -1.84396 0.884222 0
M  V30 1994 H 183.476 -3.82522 -0.612865 0
M  V30 1995 H 183.89 -5.10791 1.19131 0
M  V30 1996 H 185.364 -5.49966 -0.473403 0
M  V30 1997 H 185.841 -4.13488 -1.48068 0
M  V30 1998 H 186.447 -4.24886 0.187637 0
M  V30 1999 N 184.763 -0.387143 -1.52771 0
M  V30 2000 C 185.726 0.436939 -2.24997 0
M  V30 2001 C 186.726 0.991991 -1.26555 0
M  V30 2002 O 187.916 0.874335 -1.50669 0
M  V30 2003 C 185.048 1.61281 -3.00335 0
M  V30 2004 H 186.241 -0.195365 -2.99263 0
M  V30 2005 H 183.794 -0.139218 -1.55679 0
M  V30 2006 H 184.529 2.2826 -2.30364 0
M  V30 2007 H 184.314 1.22154 -3.72587 0
M  V30 2008 H 185.804 2.19629 -3.5518 0
M  V30 2009 N 186.241 1.57166 -0.116904 0
M  V30 2010 C 187.652 1.82169 0.408809 0
M  V30 2011 C 188.003 1.03393 1.66746 0
M  V30 2012 O 187.128 0.269886 2.1471 0
M  V30 2013 C 187.723 3.30429 0.748466 0
M  V30 2014 C 186.282 3.5612 1.21882 0
M  V30 2015 C 185.429 2.76374 0.226452 0
M  V30 2016 H 188.38 1.5497 -0.342063 0
M  V30 2017 H 188.401 3.44943 1.60607 0
M  V30 2018 H 187.913 3.87737 -0.167784 0
M  V30 2019 H 186.014 3.04168 2.15204 0
M  V30 2020 H 186.127 4.64705 1.16559 0
M  V30 2021 H 184.491 2.44515 0.713063 0
M  V30 2022 H 185.274 3.3644 -0.682859 0
M  V30 2023 N 187.719 -0.156864 1.56817 0
M  V30 2024 C 188.966 -0.871125 1.82805 0
M  V30 2025 C 189.294 -1.81611 0.696262 0
M  V30 2026 O 188.549 -1.93141 -0.315459 0
M  V30 2027 C 188.848 -1.68737 3.1506 0
M  V30 2028 C 188.514 -0.890045 4.42028 0
M  V30 2029 C 187.176 -0.670042 4.76512 0
M  V30 2030 C 189.528 -0.331769 5.20143 0
M  V30 2031 C 186.856 0.119104 5.86579 0
M  V30 2032 C 189.208 0.444365 6.31037 0
M  V30 2033 C 187.872 0.675035 6.64078 0
M  V30 2034 H 187.142 -0.318767 0.668931 0
M  V30 2035 H 189.789 -0.135274 1.91022 0
M  V30 2036 H 188.094 -2.49304 3.0225 0
M  V30 2037 H 189.791 -2.24331 3.3238 0
M  V30 2038 H 186.381 -1.07157 4.14988 0
M  V30 2039 H 190.565 -0.489043 4.93885 0
M  V30 2040 H 185.821 0.307417 6.10627 0
M  V30 2041 H 189.995 0.884139 6.90765 0
M  V30 2042 H 187.622 1.28839 7.49203 0
M  V30 2043 N 189.197 -1.51736 -0.425897 0
M  V30 2044 C 190.422 -1.69082 -1.20108 0
M  V30 2045 C 190.847 -0.392398 -1.83962 0
M  V30 2046 O 190.205 0.64858 -1.69302 0
M  V30 2047 C 190.253 -2.81604 -2.25237 0
M  V30 2048 O 189.357 -2.46004 -3.30992 0
M  V30 2049 H 188.698 -0.563408 -0.35138 0
M  V30 2050 H 191.228 -1.98358 -0.501512 0
M  V30 2051 H 191.238 -3.06025 -2.69838 0
M  V30 2052 H 189.913 -3.75817 -1.78142 0
M  V30 2053 H 188.49 -2.32195 -2.91787 0
M  V30 2054 N 190.675 0.682077 -1.42076 0
M  V30 2055 C 191.923 1.4393 -1.41876 0
M  V30 2056 C 192.244 1.94971 -0.0335599 0
M  V30 2057 O 191.514 1.72591 0.926773 0
M  V30 2058 H 190.094 0.534085 -0.522267 0
M  V30 2059 H 192.756 0.806427 -1.77434 0
M  V30 2060 H 191.852 2.29588 -2.11414 0
M  V30 2061 N 192.153 1.28127 0.917671 0
M  V30 2062 C 193.569 1.05749 1.19538 0
M  V30 2063 C 193.769 -0.202633 2.00479 0
M  V30 2064 O 192.825 -0.905382 2.3571 0
M  V30 2065 C 194.138 2.30273 1.93378 0
M  V30 2066 C 195.686 2.35412 2.06277 0
M  V30 2067 C 196.161 3.59692 2.83524 0
M  V30 2068 N 197.652 3.60309 2.91087 0
M  V30 2069 C 198.387 4.53147 3.51348 0
M  V30 2070 N 197.883 5.563 4.12919 0
M  V30 2071 N 199.676 4.40751 3.48849 0
M  V30 2072 H 191.827 2.09024 0.377184 0
M  V30 2073 H 194.09 0.919798 0.22951 0
M  V30 2074 H 193.796 3.22055 1.41328 0
M  V30 2075 H 193.67 2.36378 2.93947 0
M  V30 2076 H 196.057 1.4413 2.57508 0
M  V30 2077 H 196.138 2.33304 1.04895 0
M  V30 2078 H 195.782 4.51316 2.32973 0
M  V30 2079 H 195.712 3.59054 3.85211 0
M  V30 2080 H 198.203 2.85714 2.47338 0
M  V30 2081 H 198.516 6.2329 4.56869 0
M  V30 2082 H 196.861 5.60131 4.11435 0
M  V30 2083 H 200.052 3.59367 2.99955 0
M  V30 2084 H 200.225 5.13291 3.9552 0
M  V30 2085 N 193.631 -1.12557 1.10312 0
M  V30 2086 C 194.879 -1.83675 0.843091 0
M  V30 2087 C 195.2 -1.84435 -0.633131 0
M  V30 2088 O 194.47 -1.30657 -1.45964 0
M  V30 2089 H 193.05 -0.680138 0.308904 0
M  V30 2090 H 195.712 -1.36301 1.39313 0
M  V30 2091 H 194.808 -2.87908 1.2048 0
M  V30 2092 N 195.109 -0.891671 -1.2995 0
M  V30 2093 C 196.357 -0.512486 -1.95494 0
M  V30 2094 C 196.678 0.942776 -1.70695 0
M  V30 2095 O 195.948 1.66374 -1.03424 0
M  V30 2096 H 194.528 -0.186533 -0.723336 0
M  V30 2097 H 197.19 -1.13621 -1.58355 0
M  V30 2098 H 196.286 -0.688342 -3.04415 0
M  V30 2099 N 196.587 1.43421 -0.653314 0
M  V30 2100 C 197.535 2.32546 0.0501531 0
M  V30 2101 C 198.529 1.48617 0.812985 0
M  V30 2102 O 199.735 1.64825 0.723375 0
M  V30 2103 H 196.11 0.751185 0.0350032 0
M  V30 2104 H 198.081 2.89602 -0.719261 0
M  V30 2105 C 196.83 3.32925 1.00279 0
M  V30 2106 H 196.153 3.97532 0.425236 0
M  V30 2107 H 197.593 3.9792 1.46409 0
M  V30 2108 C 196.052 2.63532 2.09886 0
M  V30 2109 O 196.582 2.45092 3.18265 0
M  V30 2110 N 194.788 2.22905 1.86445 0
M  V30 2111 H 194.335 2.38103 0.98309 0
M  V30 2112 H 194.293 1.76805 2.59976 0
M  V30 2113 N 198.065 0.39524 1.52563 0
M  V30 2114 C 199.295 -0.184675 2.05773 0
M  V30 2115 C 199.703 -1.40571 1.26635 0
M  V30 2116 O 199.046 -1.81105 0.30769 0
M  V30 2117 C 199.108 -0.613551 3.54226 0
M  V30 2118 C 198.772 0.49484 4.54313 0
M  V30 2119 C 199.769 1.3541 5.01956 0
M  V30 2120 C 197.454 0.663565 4.97898 0
M  V30 2121 C 199.448 2.36716 5.91814 0
M  V30 2122 C 197.135 1.67996 5.87555 0
M  V30 2123 C 198.133 2.53017 6.34406 0
M  V30 2124 O 197.821 3.52917 7.22291 0
M  V30 2125 H 197.553 -0.030077 0.675331 0
M  V30 2126 H 200.107 0.560708 1.97599 0
M  V30 2127 H 198.337 -1.411 3.60038 0
M  V30 2128 H 200.026 -1.11981 3.90148 0
M  V30 2129 H 200.792 1.23509 4.6901 0
M  V30 2130 H 196.671 0.0114913 4.60999 0
M  V30 2131 H 200.215 3.03113 6.28306 0
M  V30 2132 H 196.112 1.79933 6.19915 0
M  V30 2133 H 196.88 3.48996 7.40367 0
M  V30 2134 N 199.544 -1.57102 0.125237 0
M  V30 2135 C 200.955 -1.82384 -0.399142 0
M  V30 2136 C 201.306 -1.04276 -1.66195 0
M  V30 2137 O 200.431 -0.281269 -2.14564 0
M  V30 2138 C 201.026 -3.30821 -0.730932 0
M  V30 2139 C 199.585 -3.56762 -1.19992 0
M  V30 2140 C 198.732 -2.7649 -0.211792 0
M  V30 2141 H 201.683 -1.54786 0.350277 0
M  V30 2142 H 201.704 -3.4579 -1.58775 0
M  V30 2143 H 201.216 -3.87643 0.188345 0
M  V30 2144 H 199.317 -3.05305 -2.13588 0
M  V30 2145 H 199.43 -4.65317 -1.14093 0
M  V30 2146 H 197.794 -2.4489 -0.700085 0
M  V30 2147 H 198.577 -3.36073 0.700691 0
M  V30 2148 N 201.022 0.148545 -1.56898 0
M  V30 2149 C 202.268 0.862694 -1.83536 0
M  V30 2150 C 202.601 1.80889 -0.706604 0
M  V30 2151 O 201.876 1.92328 0.289885 0
M  V30 2152 C 202.159 1.63853 -3.20662 0
M  V30 2153 C 202.012 0.713925 -4.44098 0
M  V30 2154 C 203.331 2.60133 -3.54991 0
M  V30 2155 H 200.45 0.312179 -0.667618 0
M  V30 2156 H 203.092 0.127953 -1.89569 0
M  V30 2157 H 201.242 2.26489 -3.1565 0
M  V30 2158 H 202.914 0.098686 -4.61194 0
M  V30 2159 H 201.157 0.0234019 -4.33794 0
M  V30 2160 H 201.828 1.29278 -5.36648 0
M  V30 2161 H 204.304 2.07616 -3.60603 0
M  V30 2162 H 203.18 3.11468 -4.51972 0
M  V30 2163 H 203.441 3.41417 -2.80868 0
M  V30 2164 N 202.5 1.5196 0.417844 0
M  V30 2165 C 203.432 1.70895 1.52733 0
M  V30 2166 C 204.445 0.589405 1.51756 0
M  V30 2167 O 205.634 0.864312 1.56179 0
M  V30 2168 C 202.734 1.72627 2.91639 0
M  V30 2169 C 201.907 3.01479 3.16905 0
M  V30 2170 C 200.966 2.95139 4.35637 0
M  V30 2171 O 199.992 3.69059 4.3334 0
M  V30 2172 N 201.194 2.12328 5.40275 0
M  V30 2173 H 203.959 2.66612 1.36888 0
M  V30 2174 H 201.52 1.50089 0.607037 0
M  V30 2175 H 203.512 1.65928 3.6912 0
M  V30 2176 H 202.082 0.844216 3.00985 0
M  V30 2177 H 201.302 3.21895 2.27546 0
M  V30 2178 H 202.59 3.86736 3.30625 0
M  V30 2179 H 201.988 1.51685 5.44985 0
M  V30 2180 H 200.545 2.11494 6.16534 0
M  V30 2181 N 203.978 -0.674533 1.42435 0
M  V30 2182 C 204.91 -1.80005 1.41883 0
M  V30 2183 C 205.923 -1.59667 0.31787 0
M  V30 2184 O 207.112 -1.68781 0.580973 0
M  V30 2185 C 204.212 -3.17114 1.19549 0
M  V30 2186 C 203.385 -3.64299 2.42084 0
M  V30 2187 C 202.444 -4.80142 2.15291 0
M  V30 2188 O 201.47 -4.90673 2.88493 0
M  V30 2189 N 202.672 -5.68869 1.1562 0
M  V30 2190 H 205.437 -1.80964 2.38898 0
M  V30 2191 H 202.998 -0.857633 1.37318 0
M  V30 2192 H 204.99 -3.92267 0.995417 0
M  V30 2193 H 203.56 -3.11053 0.310569 0
M  V30 2194 H 202.78 -2.79822 2.77657 0
M  V30 2195 H 204.068 -3.92567 3.23679 0
M  V30 2196 H 203.466 -5.63012 0.550765 0
M  V30 2197 H 202.023 -6.43833 1.016 0
M  V30 2198 N 205.456 -1.28612 -0.910864 0
M  V30 2199 C 206.705 -1.15311 -1.65488 0
M  V30 2200 C 207.018 0.296999 -1.93332 0
M  V30 2201 O 208.224 0.551168 -2.65847 0
M  V30 2202 C 206.68 -2.01599 -2.98137 0
M  V30 2203 C 206.288 -3.51367 -2.7793 0
M  V30 2204 C 208.032 -1.96993 -3.76024 0
M  V30 2205 C 205.939 -4.29797 -4.06237 0
M  V30 2206 H 204.869 -0.42796 -0.620779 0
M  V30 2207 H 207.52 -1.53166 -1.01057 0
M  V30 2208 H 205.902 -1.56603 -3.63719 0
M  V30 2209 H 207.076 -4.0434 -2.21011 0
M  V30 2210 H 205.391 -3.57529 -2.13452 0
M  V30 2211 H 207.988 -2.52856 -4.71135 0
M  V30 2212 H 208.331 -0.94733 -4.05378 0
M  V30 2213 H 208.864 -2.39973 -3.17266 0
M  V30 2214 H 205.603 -5.32648 -3.82055 0
M  V30 2215 H 205.123 -3.81596 -4.62757 0
M  V30 2216 H 206.802 -4.39869 -4.74473 0
M  V30 2217 N 206.934 1.1197 -1.10907 0
M  V30 2218 C 208.182 1.83225 -0.852819 0
M  V30 2219 C 208.503 1.84769 0.623341 0
M  V30 2220 O 207.773 1.3143 1.45269 0
M  V30 2221 H 206.353 0.67849 -0.312507 0
M  V30 2222 H 209.015 1.3556 -1.40033 0
M  V30 2223 H 208.111 2.87265 -1.22005 0
M  V30 2224 N 208.412 0.89855 1.29475 0
M  V30 2225 C 209.66 0.522847 1.9522 0
M  V30 2226 C 209.981 -0.93371 1.71192 0
M  V30 2227 O 209.251 -1.65823 1.04305 0
M  V30 2228 H 207.831 0.190366 0.722336 0
M  V30 2229 H 210.493 1.14459 1.5775 0
M  V30 2230 H 209.589 0.704476 3.04045 0
M  V30 2231 N 209.89 -1.43072 0.660911 0
M  V30 2232 C 210.838 -2.32569 -0.0378199 0
M  V30 2233 C 211.832 -1.49046 -0.805092 0
M  V30 2234 O 213.038 -1.65206 -0.714624 0
M  V30 2235 H 209.413 -0.75136 -0.031019 0
M  V30 2236 H 211.384 -2.89216 0.734609 0
M  V30 2237 C 210.133 -3.33453 -0.985124 0
M  V30 2238 H 209.456 -3.97752 -0.404147 0
M  V30 2239 H 210.896 -3.98691 -1.44297 0
M  V30 2240 C 209.355 -2.64642 -2.08486 0
M  V30 2241 O 209.885 -2.46776 -3.16961 0
M  V30 2242 N 208.091 -2.23891 -1.8526 0
M  V30 2243 H 207.638 -2.38621 -0.970449 0
M  V30 2244 H 207.596 -1.78181 -2.59034 0
M  V30 2245 N 211.368 -0.403325 -1.52352 0
M  V30 2246 C 212.598 0.17376 -2.05868 0
M  V30 2247 C 213.006 1.39898 -1.27378 0
M  V30 2248 O 212.349 1.80939 -0.31729 0
M  V30 2249 C 212.411 0.594756 -3.54546 0
M  V30 2250 C 212.075 -0.518926 -4.54044 0
M  V30 2251 C 213.072 -1.3807 -5.01231 0
M  V30 2252 C 210.757 -0.689961 -4.97539 0
M  V30 2253 C 212.751 -2.39852 -5.90551 0
M  V30 2254 C 210.438 -1.71109 -5.86656 0
M  V30 2255 C 211.436 -2.56378 -6.33056 0
M  V30 2256 O 211.124 -3.56743 -7.20409 0
M  V30 2257 H 210.856 0.0264951 -0.675481 0
M  V30 2258 H 213.41 -0.571179 -1.97299 0
M  V30 2259 H 211.64 1.39189 -3.60782 0
M  V30 2260 H 213.329 1.0991 -3.90736 0
M  V30 2261 H 214.095 -1.25994 -4.68349 0
M  V30 2262 H 209.974 -0.035939 -4.60986 0
M  V30 2263 H 213.518 -3.06441 -6.26689 0
M  V30 2264 H 209.415 -1.83218 -6.18952 0
M  V30 2265 H 210.183 -3.52918 -7.38506 0
M  V30 2266 N 212.846 1.57033 -0.133567 0
M  V30 2267 C 214.074 2.00044 0.528195 0
M  V30 2268 C 214.489 1.01349 1.59291 0
M  V30 2269 O 213.846 0.00848369 1.82498 0
M  V30 2270 C 213.897 3.43018 1.1411 0
M  V30 2271 O 213.618 4.37939 0.11892 0
M  V30 2272 C 215.119 4.01237 1.88477 0
M  V30 2273 H 212.339 0.656517 0.138661 0
M  V30 2274 H 214.883 2.03267 -0.224196 0
M  V30 2275 H 213.038 3.40688 1.84418 0
M  V30 2276 H 213.452 5.21436 0.56613 0
M  V30 2277 H 214.926 5.03314 2.26669 0
M  V30 2278 H 215.403 3.41193 2.76558 0
M  V30 2279 H 216.009 4.07156 1.22898 0
M  V30 2280 N 214.325 -0.140222 1.56975 0
M  V30 2281 C 215.275 -1.17827 1.95194 0
M  V30 2282 C 216.259 -1.38195 0.824075 0
M  V30 2283 O 217.451 -1.39643 1.0876 0
M  V30 2284 C 214.58 -2.51024 2.34184 0
M  V30 2285 C 213.666 -2.3422 3.53556 0
M  V30 2286 N 214.057 -1.87185 4.69889 0
M  V30 2287 C 212.355 -2.64949 3.58773 0
M  V30 2288 C 213.056 -1.83586 5.5197 0
M  V30 2289 N 212.032 -2.2715 4.93866 0
M  V30 2290 H 215.834 -0.806817 2.82609 0
M  V30 2291 H 213.348 -0.348208 1.58623 0
M  V30 2292 H 215.345 -3.26074 2.59772 0
M  V30 2293 H 214.005 -2.88945 1.48124 0
M  V30 2294 H 215.016 -1.57048 4.93514 0
M  V30 2295 H 211.693 -3.067 2.8327 0
M  V30 2296 H 213.083 -1.48655 6.55249 0
M  V30 2297 N 215.803 -1.52179 -0.40978 0
M  V30 2298 C 216.733 -1.78435 -1.5061 0
M  V30 2299 C 217.714 -0.635295 -1.57791 0
M  V30 2300 O 218.899 -0.880823 -1.73076 0
M  V30 2301 C 216.029 -1.93444 -2.88439 0
M  V30 2302 C 214.983 -3.09038 -2.96108 0
M  V30 2303 C 214.309 -3.09268 -4.36185 0
M  V30 2304 C 215.609 -4.48508 -2.67652 0
M  V30 2305 H 217.303 -2.70237 -1.28889 0
M  V30 2306 H 214.849 -1.30036 -0.618605 0
M  V30 2307 H 216.802 -2.10394 -3.65119 0
M  V30 2308 H 215.526 -0.983129 -3.11452 0
M  V30 2309 H 214.185 -2.91837 -2.21872 0
M  V30 2310 H 213.833 -2.11861 -4.56206 0
M  V30 2311 H 213.533 -3.86907 -4.42241 0
M  V30 2312 H 215.057 -3.28348 -5.14801 0
M  V30 2313 H 216.471 -4.65918 -3.34056 0
M  V30 2314 H 214.868 -5.28059 -2.85085 0
M  V30 2315 H 215.938 -4.56649 -1.63095 0
M  V30 2316 N 217.281 0.66697 -1.42791 0
M  V30 2317 C 218.692 1.2478 -1.38877 0
M  V30 2318 C 219.043 1.96012 -0.0859426 0
M  V30 2319 O 218.168 2.00463 0.815081 0
M  V30 2320 C 218.763 2.26938 -2.51564 0
M  V30 2321 C 217.322 2.80529 -2.50959 0
M  V30 2322 C 216.469 1.54965 -2.29959 0
M  V30 2323 H 219.42 0.459853 -1.51892 0
M  V30 2324 H 219.441 3.08834 -2.22265 0
M  V30 2325 H 218.953 1.75065 -3.46372 0
M  V30 2326 H 217.054 3.36502 -1.59991 0
M  V30 2327 H 217.167 3.29012 -3.48265 0
M  V30 2328 H 215.531 1.81817 -1.78366 0
M  V30 2329 H 216.314 1.05047 -3.26833 0
M  V30 2330 N 218.759 1.29093 0.90403 0
M  V30 2331 C 219.689 1.16401 2.02418 0
M  V30 2332 C 220.67 0.0593085 1.69997 0
M  V30 2333 O 221.855 0.238021 1.92736 0
M  V30 2334 C 218.985 0.835233 3.37107 0
M  V30 2335 C 217.939 1.89578 3.83724 0
M  V30 2336 C 217.265 1.42041 5.15489 0
M  V30 2337 C 218.565 3.30394 4.04521 0
M  V30 2338 H 220.259 2.10109 2.13295 0
M  V30 2339 H 217.805 1.01157 1.02486 0
M  V30 2340 H 219.758 0.733169 4.14973 0
M  V30 2341 H 218.482 -0.137543 3.2631 0
M  V30 2342 H 217.141 1.98715 3.08071 0
M  V30 2343 H 216.789 0.436426 5.01103 0
M  V30 2344 H 216.489 2.12964 5.4765 0
M  V30 2345 H 218.013 1.33176 5.959 0
M  V30 2346 H 219.427 3.24123 4.72882 0
M  V30 2347 H 217.824 3.99237 4.48029 0
M  V30 2348 H 218.894 3.73692 3.09002 0
M  V30 2349 N 220.237 -1.11381 1.11499 0
M  V30 2350 C 221.462 -1.87475 0.887019 0
M  V30 2351 C 221.887 -1.79639 -0.557796 0
M  V30 2352 O 221.245 -1.15924 -1.39396 0
M  V30 2353 C 221.293 -3.34213 1.35403 0
M  V30 2354 O 220.397 -4.0903 0.526146 0
M  V30 2355 H 219.738 -0.582099 0.319463 0
M  V30 2356 H 222.268 -1.40785 1.48461 0
M  V30 2357 H 222.278 -3.8506 1.34881 0
M  V30 2358 H 220.953 -3.39232 2.40612 0
M  V30 2359 H 219.53 -3.68082 0.597522 0
M  V30 2360 N 221.715 -0.905404 -1.28997 0
M  V30 2361 C 223.126 -0.581953 -1.77398 0
M  V30 2362 C 223.477 0.902552 -1.74208 0
M  V30 2363 O 222.602 1.70584 -1.33154 0
M  V30 2364 C 223.197 -1.04961 -3.22131 0
M  V30 2365 C 221.756 -0.777229 -3.68288 0
M  V30 2366 C 220.903 -1.22109 -2.48967 0
M  V30 2367 H 223.854 -1.08754 -1.15578 0
M  V30 2368 H 223.875 -0.387387 -3.78523 0
M  V30 2369 H 223.387 -2.13008 -3.24421 0
M  V30 2370 H 221.488 0.290383 -3.71467 0
M  V30 2371 H 221.601 -1.37911 -4.58822 0
M  V30 2372 H 219.965 -0.639971 -2.46529 0
M  V30 2373 H 220.748 -2.30972 -2.53982 0
M  V30 2374 N 223.193 1.4272 -0.668489 0
M  V30 2375 C 224.609 1.55992 -0.33745 0
M  V30 2376 C 224.809 1.64933 1.15756 0
M  V30 2377 O 223.865 1.61278 1.94282 0
M  V30 2378 C 225.178 2.81314 -1.06222 0
M  V30 2379 C 226.726 2.95078 -1.04394 0
M  V30 2380 C 227.201 4.23252 -1.74991 0
M  V30 2381 N 228.692 4.3015 -1.71829 0
M  V30 2382 C 229.427 5.28127 -2.23315 0
M  V30 2383 N 228.923 6.32293 -2.83156 0
M  V30 2384 N 230.716 5.19882 -2.13726 0
M  V30 2385 H 222.867 1.3516 -1.63846 0
M  V30 2386 H 225.13 0.650174 -0.689912 0
M  V30 2387 H 224.836 2.80823 -2.11734 0
M  V30 2388 H 224.71 3.72012 -0.62344 0
M  V30 2389 H 227.097 2.951 0.0028244 0
M  V30 2390 H 227.178 2.05627 -1.52155 0
M  V30 2391 H 226.822 4.2399 -2.79633 0
M  V30 2392 H 226.752 5.11626 -1.24685 0
M  V30 2393 H 229.243 3.55499 -1.28175 0
M  V30 2394 H 229.556 7.03398 -3.20079 0
M  V30 2395 H 227.901 6.32873 -2.87223 0
M  V30 2396 H 231.092 4.37423 -1.66669 0
M  V30 2397 H 231.265 5.96077 -2.54158 0
M  V30 2398 N 224.671 0.411399 1.52136 0
M  V30 2399 C 225.899 -0.163076 2.06256 0
M  V30 2400 C 226.314 -1.3867 1.28125 0
M  V30 2401 O 225.671 -1.79423 0.333721 0
M  V30 2402 C 225.722 -0.511252 3.57867 0
M  V30 2403 O 225.443 0.66378 4.33042 0
M  V30 2404 C 226.944 -1.13921 4.28412 0
M  V30 2405 H 224.164 -0.0193897 0.67072 0
M  V30 2406 H 226.708 0.583007 1.96013 0
M  V30 2407 H 224.863 -1.20723 3.6811 0
M  V30 2408 H 225.277 0.372601 5.23175 0
M  V30 2409 H 226.751 -1.33302 5.35663 0
M  V30 2410 H 227.228 -2.11296 3.85033 0
M  V30 2411 H 227.834 -0.483373 4.22544 0
M  V30 2412 N 226.149 -1.5696 0.141893 0
M  V30 2413 C 227.079 -2.19516 -0.795936 0
M  V30 2414 C 228.06 -1.14187 -1.26077 0
M  V30 2415 O 229.245 -1.42511 -1.31925 0
M  V30 2416 C 226.375 -2.81272 -2.03723 0
M  V30 2417 C 225.329 -3.92384 -1.70936 0
M  V30 2418 C 224.655 -4.41052 -3.02287 0
M  V30 2419 C 225.955 -5.13403 -0.959954 0
M  V30 2420 H 227.649 -2.98138 -0.274596 0
M  V30 2421 H 225.195 -1.43406 -0.130636 0
M  V30 2422 H 227.148 -3.237 -2.69808 0
M  V30 2423 H 225.872 -1.99973 -2.58221 0
M  V30 2424 H 224.531 -3.50566 -1.07232 0
M  V30 2425 H 224.179 -3.56582 -3.54765 0
M  V30 2426 H 223.879 -5.15993 -2.81114 0
M  V30 2427 H 225.403 -4.86146 -3.69451 0
M  V30 2428 H 226.817 -5.52706 -1.52279 0
M  V30 2429 H 225.214 -5.94073 -0.848357 0
M  V30 2430 H 226.284 -4.84875 0.0492434 0
M  V30 2431 N 227.627 0.131896 -1.57047 0
M  V30 2432 C 228.575 1.18146 -2.0036 0
M  V30 2433 C 229.569 1.43614 -0.898406 0
M  V30 2434 O 230.775 1.43729 -1.08361 0
M  V30 2435 H 227.15 0.398042 -0.638018 0
M  V30 2436 H 229.121 0.789564 -2.87765 0
M  V30 2437 C 227.87 2.50341 -2.41298 0
M  V30 2438 H 227.193 2.31578 -3.25902 0
M  V30 2439 H 228.633 3.22371 -2.75414 0
M  V30 2440 C 227.092 3.11984 -1.27153 0
M  V30 2441 O 227.622 3.97484 -0.580459 0
M  V30 2442 N 225.828 2.71662 -1.03189 0
M  V30 2443 H 225.375 2.02231 -1.59564 0
M  V30 2444 H 225.333 3.13238 -0.270077 0
M  V30 2445 N 229.106 1.52395 0.401703 0
M  V30 2446 C 230.069 1.75636 1.47257 0
M  V30 2447 C 231.069 0.62628 1.48103 0
M  V30 2448 O 232.259 0.894227 1.49497 0
M  V30 2449 C 229.391 1.84553 2.86624 0
M  V30 2450 H 230.584 2.71241 1.27938 0
M  V30 2451 H 228.137 1.42923 0.632662 0
M  V30 2452 H 228.872 0.908882 3.11303 0
M  V30 2453 H 228.657 2.66715 2.87412 0
M  V30 2454 H 230.147 2.04251 3.64241 0
M  V30 2455 N 230.584 -0.659388 1.43143 0
M  V30 2456 C 231.83 -1.41984 1.45644 0
M  V30 2457 C 232.185 -1.92245 0.0771718 0
M  V30 2458 O 231.478 -1.68976 -0.903205 0
M  V30 2459 C 231.672 -2.62206 2.42864 0
M  V30 2460 C 231.501 -2.23711 3.90107 0
M  V30 2461 C 230.271 -2.12332 4.58523 0
M  V30 2462 C 232.469 -1.84384 4.80112 0
M  V30 2463 N 230.451 -1.67102 5.9072 0
M  V30 2464 C 231.822 -1.5019 6.01534 0
M  V30 2465 C 233.877 -1.71512 4.67427 0
M  V30 2466 C 232.58 -1.04414 7.11681 0
M  V30 2467 C 234.606 -1.27142 5.77572 0
M  V30 2468 C 233.968 -0.938808 6.98116 0
M  V30 2469 H 230.067 -0.515448 0.588079 0
M  V30 2470 H 232.651 -0.759409 1.79279 0
M  V30 2471 H 230.822 -3.25917 2.11265 0
M  V30 2472 H 232.554 -3.28877 2.35843 0
M  V30 2473 H 229.309 -2.31893 4.12944 0
M  V30 2474 H 229.733 -1.46866 6.60878 0
M  V30 2475 H 234.375 -1.95868 3.74694 0
M  V30 2476 H 232.093 -0.788061 8.04248 0
M  V30 2477 H 235.679 -1.17681 5.69774 0
M  V30 2478 H 234.559 -0.6007 7.81896 0
M  V30 2479 N 232.062 -1.29571 -0.897171 0
M  V30 2480 C 233.308 -1.17863 -1.65034 0
M  V30 2481 C 233.641 0.268729 -1.92332 0
M  V30 2482 O 232.916 1.19378 -1.53555 0
M  V30 2483 C 233.199 -1.995 -2.99786 0
M  V30 2484 C 233.052 -3.5239 -2.79538 0
M  V30 2485 C 234.371 -1.82335 -4.00552 0
M  V30 2486 H 231.49 -0.429528 -0.598895 0
M  V30 2487 H 234.132 -1.59072 -1.03905 0
M  V30 2488 H 232.282 -1.64485 -3.51962 0
M  V30 2489 H 233.954 -3.97401 -2.34244 0
M  V30 2490 H 232.197 -3.77187 -2.14273 0
M  V30 2491 H 232.868 -4.04787 -3.75302 0
M  V30 2492 H 235.344 -2.12924 -3.57495 0
M  V30 2493 H 234.22 -2.41801 -4.92771 0
M  V30 2494 H 234.481 -0.779209 -4.35179 0
M  V30 2495 N 233.54 1.10788 -1.12088 0
M  V30 2496 C 234.487 2.17025 -0.785407 0
M  V30 2497 C 235.457 1.64265 0.246191 0
M  V30 2498 O 236.642 1.90412 0.121584 0
M  V30 2499 C 233.782 3.44249 -0.242177 0
M  V30 2500 C 232.895 4.1098 -1.33115 0
M  V30 2501 C 232.03 5.25911 -0.747741 0
M  V30 2502 C 231.069 5.84538 -1.81609 0
M  V30 2503 N 230.206 6.90853 -1.25167 0
M  V30 2504 H 235.046 2.45066 -1.69548 0
M  V30 2505 H 232.583 1.20297 -0.846582 0
M  V30 2506 H 234.541 4.17101 0.0908026 0
M  V30 2507 H 233.171 3.16571 0.631072 0
M  V30 2508 H 232.223 3.36133 -1.78097 0
M  V30 2509 H 233.535 4.50601 -2.13917 0
M  V30 2510 H 232.689 6.056 -0.365216 0
M  V30 2511 H 231.428 4.87614 0.0915188 0
M  V30 2512 H 230.433 5.03522 -2.20785 0
M  V30 2513 H 231.658 6.249 -2.6585 0
M  V30 2514 H 229.604 6.54562 -0.434174 0
M  V30 2515 H 229.521 7.29166 -1.99633 0
M  V30 2516 H 230.789 7.7433 -0.896259 0
M  V30 2517 N 235.018 0.912232 1.28515 0
M  V30 2518 C 235.948 0.416403 2.29757 0
M  V30 2519 C 236.929 -0.515194 1.6211 0
M  V30 2520 O 238.114 -0.423253 1.89532 0
M  V30 2521 C 235.244 -0.34572 3.45575 0
M  V30 2522 C 234.198 0.496599 4.25109 0
M  V30 2523 C 233.524 -0.393771 5.33248 0
M  V30 2524 C 234.824 1.75307 4.92001 0
M  V30 2525 H 236.518 1.26249 2.7148 0
M  V30 2526 H 234.064 0.608515 1.30511 0
M  V30 2527 H 236.017 -0.703422 4.15488 0
M  V30 2528 H 234.741 -1.2257 3.02728 0
M  V30 2529 H 233.4 0.8368 3.56922 0
M  V30 2530 H 233.048 -1.27225 4.86644 0
M  V30 2531 H 232.748 0.166209 5.87365 0
M  V30 2532 H 234.272 -0.747389 6.06009 0
M  V30 2533 H 235.686 1.46437 5.54283 0
M  V30 2534 H 234.083 2.25534 5.56106 0
M  V30 2535 H 235.153 2.48176 4.16577 0
M  V30 2536 N 236.496 -1.42363 0.676048 0
M  V30 2537 C 237.745 -2.00745 0.196037 0
M  V30 2538 C 238.058 -1.54083 -1.20489 0
M  V30 2539 O 239.264 -2.04891 -1.78134 0
M  V30 2540 C 237.72 -3.58651 0.299616 0
M  V30 2541 C 237.328 -4.143 1.70468 0
M  V30 2542 C 239.072 -4.24326 -0.121619 0
M  V30 2543 C 236.979 -5.64574 1.76096 0
M  V30 2544 H 235.909 -0.750787 0.0695301 0
M  V30 2545 H 238.56 -1.63072 0.841412 0
M  V30 2546 H 236.942 -3.93833 -0.413673 0
M  V30 2547 H 238.116 -3.90575 2.44515 0
M  V30 2548 H 236.431 -3.61081 2.07387 0
M  V30 2549 H 239.028 -5.34607 -0.0997362 0
M  V30 2550 H 239.371 -3.99897 -1.15708 0
M  V30 2551 H 239.904 -3.94108 0.540706 0
M  V30 2552 H 236.643 -5.93804 2.77628 0
M  V30 2553 H 236.163 -5.90286 1.06406 0
M  V30 2554 H 237.842 -6.29013 1.51496 0
M  V30 2555 N 237.974 -0.419461 -1.51915 0
M  V30 2556 C 238.884 0.407528 -2.31033 0
M  V30 2557 C 239.9 1.04413 -1.3919 0
M  V30 2558 O 241.076 1.0434 -1.72265 0
M  V30 2559 C 238.141 1.50365 -3.12396 0
M  V30 2560 C 237.202 0.889029 -4.19994 0
M  V30 2561 C 236.435 1.93291 -4.97468 0
M  V30 2562 O 236.658 3.15259 -4.75361 0
M  V30 2563 O 235.592 1.53339 -5.8204 0
M  V30 2564 H 239.418 -0.237865 -3.02767 0
M  V30 2565 H 237.003 -0.182413 -1.48282 0
M  V30 2566 H 238.885 2.13975 -3.63032 0
M  V30 2567 H 237.56 2.13345 -2.43445 0
M  V30 2568 H 236.467 0.215353 -3.7348 0
M  V30 2569 H 237.8 0.302991 -4.91267 0
M  V30 2570 N 239.452 1.56882 -0.150215 0
M  V30 2571 C 240.362 2.20494 0.801222 0
M  V30 2572 C 241.378 1.19019 1.26927 0
M  V30 2573 O 242.554 1.51607 1.32579 0
M  V30 2574 C 239.619 2.81659 2.02161 0
M  V30 2575 C 238.68 3.9827 1.60249 0
M  V30 2576 C 237.913 4.56508 2.7647 0
M  V30 2577 O 238.136 4.13627 3.92771 0
M  V30 2578 O 237.07 5.46719 2.51757 0
M  V30 2579 H 240.896 3.02315 0.289717 0
M  V30 2580 H 238.481 1.49202 0.0769684 0
M  V30 2581 H 240.363 3.20522 2.73576 0
M  V30 2582 H 239.038 2.02849 2.52258 0
M  V30 2583 H 237.945 3.64117 0.858477 0
M  V30 2584 H 239.278 4.78609 1.14864 0
M  V30 2585 N 240.93 -0.123565 1.57115 0
M  V30 2586 C 241.877 -1.15177 2.00007 0
M  V30 2587 C 242.847 -1.41403 0.871454 0
M  V30 2588 O 244.032 -1.53346 1.13533 0
M  V30 2589 C 241.172 -2.47436 2.40561 0
M  V30 2590 C 240.285 -2.28184 3.66819 0
M  V30 2591 C 239.42 -3.53641 3.96373 0
M  V30 2592 C 238.459 -3.29528 5.15827 0
M  V30 2593 N 237.596 -4.47175 5.41275 0
M  V30 2594 H 242.436 -0.779008 2.87638 0
M  V30 2595 H 239.973 -0.373166 1.42288 0
M  V30 2596 H 241.931 -3.24584 2.62109 0
M  V30 2597 H 240.561 -2.82614 1.55978 0
M  V30 2598 H 239.613 -1.41976 3.52912 0
M  V30 2599 H 240.925 -2.0634 4.5412 0
M  V30 2600 H 240.079 -4.39209 4.18545 0
M  V30 2601 H 238.818 -3.78512 3.07538 0
M  V30 2602 H 237.823 -2.42349 4.93505 0
M  V30 2603 H 239.048 -3.06031 6.06236 0
M  V30 2604 H 236.994 -4.72175 4.55397 0
M  V30 2605 H 236.911 -4.28419 6.22891 0
M  V30 2606 H 238.179 -5.3389 5.67963 0
M  V30 2607 N 242.408 -1.52605 -0.393616 0
M  V30 2608 C 243.355 -1.77055 -1.48054 0
M  V30 2609 C 244.325 -0.61358 -1.54352 0
M  V30 2610 O 245.51 -0.852806 -1.70681 0
M  V30 2611 C 242.65 -1.94108 -2.85335 0
M  V30 2612 C 241.763 -3.21792 -2.88226 0
M  V30 2613 C 240.898 -3.29188 -4.16904 0
M  V30 2614 C 239.937 -4.51013 -4.13828 0
M  V30 2615 N 239.074 -4.55716 -5.34105 0
M  V30 2616 H 243.914 -2.69815 -1.26506 0
M  V30 2617 H 241.451 -1.33683 -0.61379 0
M  V30 2618 H 243.409 -2.01979 -3.65049 0
M  V30 2619 H 242.039 -1.04713 -3.05344 0
M  V30 2620 H 241.091 -3.23015 -2.00911 0
M  V30 2621 H 242.403 -4.11557 -2.8182 0
M  V30 2622 H 241.557 -3.36216 -5.05018 0
M  V30 2623 H 240.296 -2.37389 -4.26026 0
M  V30 2624 H 239.301 -4.44115 -3.24102 0
M  V30 2625 H 240.526 -5.44123 -4.06333 0
M  V30 2626 H 238.472 -3.66807 -5.43865 0
M  V30 2627 H 238.389 -5.39346 -5.29756 0
M  V30 2628 H 239.657 -4.66993 -6.2413 0
M  V30 2629 N 243.887 0.651787 -1.4349 0
M  V30 2630 C 245.134 1.41167 -1.45183 0
M  V30 2631 C 245.462 1.94349 -0.0766601 0
M  V30 2632 O 244.717 1.72804 0.918555 0
M  V30 2633 C 245.016 2.60914 -2.44251 0
M  V30 2634 C 244.682 2.26142 -3.9009 0
M  V30 2635 C 243.344 2.16371 -4.2981 0
M  V30 2636 C 245.696 1.98334 -4.81989 0
M  V30 2637 C 243.024 1.7695 -5.5938 0
M  V30 2638 C 245.376 1.6041 -6.11924 0
M  V30 2639 C 244.04 1.49166 -6.5062 0
M  V30 2640 H 243.31 0.516566 -0.531263 0
M  V30 2641 H 245.957 0.741099 -1.76579 0
M  V30 2642 H 244.262 3.3311 -2.06265 0
M  V30 2643 H 245.959 3.19127 -2.42815 0
M  V30 2644 H 242.549 2.34658 -3.58655 0
M  V30 2645 H 246.733 2.04803 -4.52072 0
M  V30 2646 H 241.989 1.66831 -5.88198 0
M  V30 2647 H 246.163 1.37925 -6.82605 0
M  V30 2648 H 243.79 1.1839 -7.50925 0
M  V30 2649 N 245.365 1.30045 0.890287 0
M  V30 2650 C 246.613 1.18327 1.63839 0
M  V30 2651 C 246.934 -0.263455 1.93212 0
M  V30 2652 O 246.204 -1.17856 1.56482 0
M  V30 2653 H 244.784 0.434933 0.607324 0
M  V30 2654 H 247.446 1.631 1.06698 0
M  V30 2655 H 246.542 1.74024 2.59079 0
M  V30 2656 N 246.843 -1.10192 1.12674 0
M  V30 2657 C 247.806 -2.14786 0.799979 0
M  V30 2658 C 248.806 -1.59711 -0.18685 0
M  V30 2659 O 249.996 -1.74156 0.0392558 0
M  V30 2660 C 247.128 -3.40374 0.189228 0
M  V30 2661 H 248.321 -2.45203 1.72671 0
M  V30 2662 H 245.874 -1.25597 0.930326 0
M  V30 2663 H 246.609 -3.15577 -0.747107 0
M  V30 2664 H 246.394 -3.81637 0.899766 0
M  V30 2665 H 247.884 -4.17594 -0.0228143 0
M  V30 2666 N 248.321 -0.919034 -1.28029 0
M  V30 2667 C 249.231 -0.416756 -2.30869 0
M  V30 2668 C 250.247 0.498235 -1.66714 0
M  V30 2669 O 251.423 0.383144 -1.97722 0
M  V30 2670 C 248.488 0.330274 -3.45123 0
M  V30 2671 C 247.549 -0.618578 -4.2482 0
M  V30 2672 C 246.782 0.0928959 -5.33619 0
M  V30 2673 O 247.005 1.31375 -5.55065 0
M  V30 2674 O 245.939 -0.574499 -5.99152 0
M  V30 2675 H 249.765 -1.27043 -2.75851 0
M  V30 2676 H 247.35 -0.684052 -1.3282 0
M  V30 2677 H 249.232 0.751972 -4.14636 0
M  V30 2678 H 247.907 1.1597 -3.02213 0
M  V30 2679 H 246.814 -1.08978 -3.57875 0
M  V30 2680 H 248.147 -1.41497 -4.71423 0
M  V30 2681 N 249.799 1.42003 -0.683588 0
M  V30 2682 C 251.045 2.01712 -0.209825 0
M  V30 2683 C 251.378 1.53968 1.18353 0
M  V30 2684 O 250.653 0.745661 1.79639 0
M  V30 2685 C 250.936 3.59202 -0.254197 0
M  V30 2686 C 250.789 4.17102 -1.68363 0
M  V30 2687 C 252.108 4.38344 0.392709 0
M  V30 2688 H 249.227 0.732891 -0.0777189 0
M  V30 2689 H 251.869 1.68909 -0.87004 0
M  V30 2690 H 250.019 3.87278 0.307954 0
M  V30 2691 H 251.691 3.99946 -2.29871 0
M  V30 2692 H 249.934 3.72597 -2.22157 0
M  V30 2693 H 250.605 5.26249 -1.6663 0
M  V30 2694 H 253.081 4.16011 -0.0859162 0
M  V30 2695 H 251.957 5.47901 0.331063 0
M  V30 2696 H 252.218 4.16887 1.47164 0
M  V30 2697 N 251.277 0.427512 1.51691 0
M  V30 2698 C 252.523 -0.142439 2.02299 0
M  V30 2699 C 252.856 -1.43214 1.31162 0
M  V30 2700 O 252.131 -1.89833 0.423511 0
M  V30 2701 C 252.414 -0.371301 3.58181 0
M  V30 2702 C 252.267 0.936358 4.39946 0
M  V30 2703 C 253.586 -1.14542 4.24933 0
M  V30 2704 H 250.705 -0.0502937 0.735282 0
M  V30 2705 H 253.347 0.564584 1.81418 0
M  V30 2706 H 251.497 -0.973559 3.76104 0
M  V30 2707 H 253.169 1.57184 4.33694 0
M  V30 2708 H 251.412 1.5432 4.05423 0
M  V30 2709 H 252.083 0.730388 5.47147 0
M  V30 2710 H 254.559 -0.635362 4.11221 0
M  V30 2711 H 253.435 -1.27431 5.33903 0
M  V30 2712 H 253.696 -2.17093 3.85127 0
M  V30 2713 N 252.755 -1.56801 0.158532 0
M  V30 2714 C 253.98 -2.01295 -0.499516 0
M  V30 2715 C 254.405 -1.03799 -1.56867 0
M  V30 2716 O 253.763 -0.0155162 -1.81293 0
M  V30 2717 C 253.811 -3.44469 -1.06647 0
M  V30 2718 O 252.915 -3.50012 -2.18095 0
M  V30 2719 H 252.256 -0.652884 -0.12099 0
M  V30 2720 H 254.786 -2.02958 0.258661 0
M  V30 2721 H 254.796 -3.8351 -1.39227 0
M  V30 2722 H 253.471 -4.14932 -0.283581 0
M  V30 2723 H 252.048 -3.22822 -1.86656 0
M  V30 2724 N 254.233 0.115231 -1.57178 0
M  V30 2725 C 255.481 0.820727 -1.84685 0
M  V30 2726 C 255.802 1.80237 -0.744279 0
M  V30 2727 O 255.072 1.94529 0.231375 0
M  V30 2728 H 253.652 0.306084 -0.681411 0
M  V30 2729 H 256.314 0.101656 -1.94635 0
M  V30 2730 H 255.41 1.36366 -2.80733 0
M  V30 2731 N 255.711 1.52812 0.385517 0
M  V30 2732 C 256.958 1.68026 1.1302 0
M  V30 2733 C 257.286 0.421934 1.89868 0
M  V30 2734 O 256.541 -0.595749 1.86412 0
M  V30 2735 C 256.84 2.86856 2.13187 0
M  V30 2736 C 256.506 4.24159 1.5297 0
M  V30 2737 C 255.168 4.61501 1.36274 0
M  V30 2738 C 257.52 5.09627 1.09223 0
M  V30 2739 C 254.848 5.81966 0.743837 0
M  V30 2740 C 257.2 6.30719 0.487411 0
M  V30 2741 C 255.864 6.6679 0.307777 0
M  V30 2742 H 255.134 0.614849 0.413571 0
M  V30 2743 H 257.781 1.86962 0.414405 0
M  V30 2744 H 256.086 2.6235 2.90998 0
M  V30 2745 H 257.783 2.95821 2.70722 0
M  V30 2746 H 254.373 3.94746 1.66954 0
M  V30 2747 H 258.557 4.81343 1.20922 0
M  V30 2748 H 253.813 6.08519 0.592891 0
M  V30 2749 H 257.987 6.96259 0.140143 0
M  V30 2750 H 255.614 7.60001 -0.173879 0
M  V30 2751 N 257.189 -0.644168 1.43834 0
M  V30 2752 C 258.121 -1.76955 1.45669 0
M  V30 2753 C 259.134 -1.58956 0.351666 0
M  V30 2754 O 260.323 -1.6751 0.616644 0
M  V30 2755 C 257.423 -3.14507 1.26248 0
M  V30 2756 C 256.596 -3.59083 2.49757 0
M  V30 2757 C 255.655 -4.75467 2.25427 0
M  V30 2758 O 254.681 -4.84444 2.98836 0
M  V30 2759 N 255.883 -5.66289 1.27661 0
M  V30 2760 H 258.648 -1.75856 2.42682 0
M  V30 2761 H 256.209 -0.828312 1.39106 0
M  V30 2762 H 258.201 -3.90067 1.0784 0
M  V30 2763 H 256.771 -3.10325 0.376478 0
M  V30 2764 H 255.991 -2.7387 2.8353 0
M  V30 2765 H 257.279 -3.85613 3.31934 0
M  V30 2766 H 256.677 -5.61718 0.670064 0
M  V30 2767 H 255.234 -6.41533 1.15234 0
M  V30 2768 N 258.668 -1.30515 -0.883378 0
M  V30 2769 C 259.631 -1.1701 -1.97082 0
M  V30 2770 C 260.631 -0.10089 -1.60483 0
M  V30 2771 O 261.821 -0.349127 -1.70666 0
M  V30 2772 C 258.953 -0.793045 -3.31547 0
M  V30 2773 H 260.146 -2.13622 -2.10489 0
M  V30 2774 H 257.699 -1.13935 -1.06998 0
M  V30 2775 H 258.434 0.172499 -3.23841 0
M  V30 2776 H 258.219 -1.56576 -3.5948 0
M  V30 2777 H 259.709 -0.722073 -4.1131 0
M  V30 2778 N 260.146 1.09593 -1.13257 0
M  V30 2779 C 261.076 2.18214 -0.830946 0
M  V30 2780 C 262.057 1.68812 0.208966 0
M  V30 2781 O 263.242 1.9408 0.0682666 0
M  V30 2782 C 260.372 3.46051 -0.294296 0
M  V30 2783 C 259.326 4.08778 -1.26826 0
M  V30 2784 C 258.652 5.31419 -0.591449 0
M  V30 2785 C 259.952 4.51476 -2.62615 0
M  V30 2786 H 261.646 2.43703 -1.73923 0
M  V30 2787 H 259.192 1.17128 -0.837675 0
M  V30 2788 H 261.145 4.2134 -0.0709606 0
M  V30 2789 H 259.869 3.20079 0.649366 0
M  V30 2790 H 258.528 3.35505 -1.47756 0
M  V30 2791 H 258.176 5.01727 0.357633 0
M  V30 2792 H 257.876 5.74341 -1.24123 0
M  V30 2793 H 259.4 6.09433 -0.377355 0
M  V30 2794 H 260.814 5.17999 -2.45663 0
M  V30 2795 H 259.211 5.05277 -3.23752 0
M  V30 2796 H 260.281 3.63962 -3.20406 0
M  V30 2797 N 261.624 0.925811 1.2754 0
M  V30 2798 C 262.849 0.580924 1.99098 0
M  V30 2799 C 263.274 -0.833555 1.68622 0
M  V30 2800 O 262.632 -1.55903 0.925422 0
M  V30 2801 C 262.68 0.811186 3.51358 0
M  V30 2802 O 261.784 -0.124129 4.12213 0
M  V30 2803 H 261.125 0.223873 0.625122 0
M  V30 2804 H 263.655 1.24455 1.62395 0
M  V30 2805 H 263.665 0.72601 4.01489 0
M  V30 2806 H 262.34 1.84227 3.72872 0
M  V30 2807 H 260.917 0.0108006 3.72898 0
M  V30 2808 N 263.102 -1.41638 0.69111 0
M  V30 2809 C 264.012 -2.34588 0.0233487 0
M  V30 2810 C 265.028 -1.55987 -0.770984 0
M  V30 2811 O 266.204 -1.88486 -0.709569 0
M  V30 2812 C 263.269 -3.34684 -0.904851 0
M  V30 2813 C 262.33 -4.29176 -0.103225 0
M  V30 2814 C 261.563 -5.2449 -0.987216 0
M  V30 2815 O 261.786 -5.2514 -2.22674 0
M  V30 2816 O 260.72 -6.00295 -0.439281 0
M  V30 2817 H 264.546 -2.93261 0.789416 0
M  V30 2818 H 262.131 -1.42417 0.45142 0
M  V30 2819 H 264.013 -3.96133 -1.43724 0
M  V30 2820 H 262.688 -2.78461 -1.65049 0
M  V30 2821 H 261.595 -3.71089 0.473655 0
M  V30 2822 H 262.928 -4.88484 0.60365 0
M  V30 2823 N 264.58 -0.43555 -1.51462 0
M  V30 2824 C 265.828 0.131254 -2.01673 0
M  V30 2825 C 266.149 1.43368 -1.32177 0
M  V30 2826 O 265.419 1.90524 -0.455769 0
M  V30 2827 H 263.999 0.0514954 -0.745223 0
M  V30 2828 H 266.661 -0.577847 -1.86137 0
M  V30 2829 H 265.757 0.308446 -3.10572 0
M  V30 2830 N 266.058 1.56714 -0.166846 0
M  V30 2831 C 267.298 1.98641 0.481763 0
M  V30 2832 C 267.662 1.05038 1.6072 0
M  V30 2833 O 268.863 1.36087 2.31805 0
M  V30 2834 C 267.134 3.44362 0.956517 0
M  V30 2835 S 268.693 4.08317 1.60694 0
M  V30 2836 H 265.511 0.693873 0.155116 0
M  V30 2837 H 268.113 1.93719 -0.263251 0
M  V30 2838 H 266.817 4.10204 0.126936 0
M  V30 2839 H 266.348 3.53041 1.73568 0
M  V30 2840 H 268.363 4.02999 2.89494 0
M  V30 2841 N 267.536 -0.106894 1.57237 0
M  V30 2842 C 268.466 -1.13148 2.04254 0
M  V30 2843 C 269.447 -1.42476 0.929224 0
M  V30 2844 O 270.632 -1.52709 1.19973 0
M  V30 2845 C 267.762 -2.4545 2.45706 0
M  V30 2846 C 266.716 -2.30558 3.60592 0
M  V30 2847 C 266.042 -3.67931 3.87983 0
M  V30 2848 C 267.342 -1.75597 4.91897 0
M  V30 2849 H 269.036 -0.740374 2.90101 0
M  V30 2850 H 266.582 -0.354696 1.39563 0
M  V30 2851 H 268.535 -3.17389 2.77205 0
M  V30 2852 H 267.259 -2.86475 1.56843 0
M  V30 2853 H 265.918 -1.61067 3.29322 0
M  V30 2854 H 265.566 -4.06462 2.96306 0
M  V30 2855 H 265.266 -3.58817 4.65322 0
M  V30 2856 H 266.79 -4.41356 4.21945 0
M  V30 2857 H 268.204 -2.37364 5.21854 0
M  V30 2858 H 266.601 -1.77272 5.73319 0
M  V30 2859 H 267.671 -0.714451 4.79608 0
M  V30 2860 N 269.014 -1.53014 -0.377408 0
M  V30 2861 C 270.425 -1.60438 -0.954798 0
M  V30 2862 C 270.776 -0.464418 -1.90624 0
M  V30 2863 O 269.901 0.41087 -2.12464 0
M  V30 2864 C 270.496 -2.90797 -1.73847 0
M  V30 2865 C 269.055 -3.00595 -2.26538 0
M  V30 2866 C 268.202 -2.55645 -1.07429 0
M  V30 2867 H 271.153 -1.57926 -0.156575 0
M  V30 2868 H 271.174 -2.77935 -2.5987 0
M  V30 2869 H 270.686 -3.73746 -1.04574 0
M  V30 2870 H 268.787 -2.22208 -2.99089 0
M  V30 2871 H 268.9 -4.05456 -2.5523 0
M  V30 2872 H 267.264 -2.10239 -1.43777 0
M  V30 2873 H 268.047 -3.41 -0.396728 0
M  V30 2874 N 270.492 0.636531 -1.44174 0
M  V30 2875 C 271.722 1.42146 -1.49927 0
M  V30 2876 C 272.13 1.88812 -0.121063 0
M  V30 2877 O 271.473 1.61126 0.882267 0
M  V30 2878 C 271.535 2.67883 -2.39748 0
M  V30 2879 C 271.199 2.43048 -3.8701 0
M  V30 2880 C 272.196 2.05216 -4.77684 0
M  V30 2881 C 269.881 2.56856 -4.3166 0
M  V30 2882 C 271.875 1.81512 -6.11009 0
M  V30 2883 C 269.562 2.32766 -5.65034 0
M  V30 2884 C 270.56 1.95152 -6.54526 0
M  V30 2885 O 270.248 1.71326 -7.85431 0
M  V30 2886 H 269.98 0.442567 -0.51099 0
M  V30 2887 H 272.534 0.786158 -1.8976 0
M  V30 2888 H 270.764 3.34032 -1.94832 0
M  V30 2889 H 272.453 3.29874 -2.36513 0
M  V30 2890 H 273.219 1.94111 -4.44462 0
M  V30 2891 H 269.098 2.85104 -3.62266 0
M  V30 2892 H 272.642 1.52077 -6.80822 0
M  V30 2893 H 268.539 2.43479 -5.97819 0
M  V30 2894 H 269.307 1.85616 -7.97176 0
M  V30 2895 N 271.97 1.30982 0.876444 0
M  V30 2896 C 273.247 1.10942 1.61094 0
M  V30 2897 C 273.627 -0.338223 2.08373 0
M  V30 2898 O 272.975 -1.33122 1.85717 0
M  V30 2899 C 273.185 2.11789 2.77392 0
M  V30 2900 C 274.533 2.43965 3.47514 0
M  V30 2901 O 275.557 2.10166 2.87591 0
M  V30 2902 O 274.416 3.01817 4.55597 0
M  V30 2903 H 271.51 0.42667 0.708436 0
M  V30 2904 H 274.056 1.42438 0.922474 0
M  V30 2905 H 272.828 3.09194 2.39823 0
M  V30 2906 H 272.451 1.81161 3.5393 0
M  V30 2907 N 273.449 -1.08991 1.13837 0
M  V30 2908 C 274.698 -1.80631 0.897509 0
M  V30 2909 C 275.011 -1.86872 -0.57777 0
M  V30 2910 O 276.217 -2.54866 -0.935701 0
M  V30 2911 C 274.673 -3.24517 1.55618 0
M  V30 2912 C 274.281 -3.26529 3.0673 0
M  V30 2913 C 276.025 -4.00882 1.3962 0
M  V30 2914 C 273.932 -4.64965 3.65461 0
M  V30 2915 H 272.862 -0.67691 0.332129 0
M  V30 2916 H 275.513 -1.2246 1.3666 0
M  V30 2917 H 273.895 -3.82778 1.01476 0
M  V30 2918 H 275.069 -2.78008 3.67489 0
M  V30 2919 H 273.384 -2.63656 3.22296 0
M  V30 2920 H 275.981 -5.03167 1.80906 0
M  V30 2921 H 276.324 -4.14896 0.341578 0
M  V30 2922 H 276.857 -3.49075 1.90766 0
M  V30 2923 H 273.596 -4.56153 4.70749 0
M  V30 2924 H 273.116 -5.13792 3.09481 0
M  V30 2925 H 274.795 -5.3394 3.654 0
M  V30 2926 N 274.927 -0.932562 -1.27047 0
M  V30 2927 C 275.875 -0.42603 -2.28665 0
M  V30 2928 C 276.869 0.49219 -1.62092 0
M  V30 2929 O 278.075 0.371355 -1.76128 0
M  V30 2930 H 274.45 -0.119213 -0.742491 0
M  V30 2931 H 276.421 -1.29579 -2.68797 0
M  V30 2932 C 275.17 0.301426 -3.46391 0
M  V30 2933 H 274.493 -0.39595 -3.97834 0
M  V30 2934 H 275.933 0.6202 -4.1944 0
M  V30 2935 C 274.392 1.51616 -3.00856 0
M  V30 2936 O 274.922 2.61476 -3.04948 0
M  V30 2937 N 273.128 1.36969 -2.56296 0
M  V30 2938 H 272.675 0.475873 -2.53166 0
M  V30 2939 H 272.633 2.18368 -2.26192 0
M  V30 2940 N 276.405 1.4127 -0.698611 0
M  V30 2941 C 277.337 2.292 0.00399731 0
M  V30 2942 C 278.35 1.44944 0.741279 0
M  V30 2943 O 279.539 1.68416 0.591477 0
M  V30 2944 C 276.639 3.22875 1.02979 0
M  V30 2945 C 275.812 4.35904 0.36151 0
M  V30 2946 C 274.871 5.10134 1.29033 0
M  V30 2947 O 273.897 5.63809 0.781562 0
M  V30 2948 N 275.099 5.17885 2.6225 0
M  V30 2949 H 277.864 2.9014 -0.750921 0
M  V30 2950 H 275.425 1.52455 -0.544882 0
M  V30 2951 H 277.417 3.69404 1.65296 0
M  V30 2952 H 275.987 2.63221 1.68622 0
M  V30 2953 H 275.207 3.91719 -0.441584 0
M  V30 2954 H 276.495 5.08696 -0.103055 0
M  V30 2955 H 275.893 4.7573 3.061 0
M  V30 2956 H 274.45 5.6798 3.19754 0
M  V30 2957 N 277.883 0.443576 1.51229 0
M  V30 2958 C 278.816 -0.410089 2.24485 0
M  V30 2959 C 279.794 -1.01949 1.26669 0
M  V30 2960 O 280.978 -1.06075 1.55821 0
M  V30 2961 C 278.105 -1.57211 3.00004 0
M  V30 2962 C 277.151 -1.08279 4.12526 0
M  V30 2963 S 277.984 -0.0197476 5.35496 0
M  V30 2964 C 279.14 -1.18629 6.14555 0
M  V30 2965 H 279.373 0.211832 2.96544 0
M  V30 2966 H 276.906 0.228156 1.52705 0
M  V30 2967 H 278.864 -2.23825 3.44111 0
M  V30 2968 H 277.525 -2.16547 2.27522 0
M  V30 2969 H 276.718 -1.95193 4.64667 0
M  V30 2970 H 276.32 -0.494797 3.70713 0
M  V30 2971 H 278.612 -2.10344 6.4402 0
M  V30 2972 H 279.555 -0.70472 7.04584 0
M  V30 2973 H 279.963 -1.42768 5.46148 0
M  V30 2974 N 279.361 -1.56624 0.175154 0
M  V30 2975 C 280.291 -2.21155 -0.749195 0
M  V30 2976 C 281.272 -1.16836 -1.23626 0
M  V30 2977 O 282.457 -1.45277 -1.28873 0
M  V30 2978 C 279.587 -2.8553 -1.97711 0
M  V30 2979 C 278.541 -3.95921 -1.62575 0
M  V30 2980 C 277.867 -4.47365 -2.92864 0
M  V30 2981 C 279.167 -5.15323 -0.850838 0
M  V30 2982 H 280.861 -2.98653 -0.211295 0
M  V30 2983 H 278.407 -1.43651 -0.100188 0
M  V30 2984 H 280.36 -3.2935 -2.62881 0
M  V30 2985 H 279.084 -2.05406 -2.53921 0
M  V30 2986 H 277.743 -3.52762 -0.997719 0
M  V30 2987 H 277.391 -3.64027 -3.47122 0
M  V30 2988 H 277.091 -5.21839 -2.70106 0
M  V30 2989 H 278.615 -4.93873 -3.59056 0
M  V30 2990 H 280.029 -5.55812 -1.40521 0
M  V30 2991 H 278.426 -5.95739 -0.722154 0
M  V30 2992 H 279.496 -4.84661 0.152082 0
M  V30 2993 N 280.839 0.0985539 -1.57292 0
M  V30 2994 C 281.787 1.1387 -2.02821 0
M  V30 2995 C 282.781 1.41676 -0.928666 0
M  V30 2996 O 283.987 1.41398 -1.11385 0
M  V30 2997 H 280.362 0.384419 -0.646317 0
M  V30 2998 H 282.333 0.728347 -2.89375 0
M  V30 2999 C 281.082 2.45166 -2.46554 0
M  V30 3000 H 280.405 2.24613 -3.3074 0
M  V30 3001 H 281.845 3.16456 -2.8219 0
M  V30 3002 C 280.304 3.09216 -1.33742 0
M  V30 3003 O 280.834 3.96163 -0.66464 0
M  V30 3004 N 279.04 2.69413 -1.08928 0
M  V30 3005 H 278.587 1.98801 -1.63817 0
M  V30 3006 H 278.545 3.12594 -0.336458 0
M  V30 3007 N 282.317 1.53212 0.369288 0
M  V30 3008 C 283.557 1.70915 1.12105 0
M  V30 3009 C 283.921 0.449444 1.86665 0
M  V30 3010 O 285.122 0.503105 2.6405 0
M  V30 3011 C 283.393 2.9222 2.05772 0
M  V30 3012 S 284.952 3.30609 2.88519 0
M  V30 3013 H 281.77 0.601445 0.379189 0
M  V30 3014 H 284.372 1.91306 0.402794 0
M  V30 3015 H 283.076 3.82103 1.49752 0
M  V30 3016 H 282.607 2.7422 2.82076 0
M  V30 3017 H 284.622 2.82333 4.08047 0
M  V30 3018 N 283.795 -0.628877 1.44509 0
M  V30 3019 C 285.041 -1.39045 1.47629 0
M  V30 3020 C 285.374 -1.93892 0.109343 0
M  V30 3021 O 284.649 -1.7379 -0.87334 0
M  V30 3022 C 284.932 -2.55408 2.53848 0
M  V30 3023 C 284.785 -2.05896 3.99909 0
M  V30 3024 C 286.104 -3.5759 2.56549 0
M  V30 3025 H 283.223 -0.504232 0.537512 0
M  V30 3026 H 285.865 -0.710854 1.76201 0
M  V30 3027 H 284.015 -3.13384 2.29615 0
M  V30 3028 H 285.687 -1.52734 4.35282 0
M  V30 3029 H 283.93 -1.37061 4.11578 0
M  V30 3030 H 284.601 -2.89681 4.69882 0
M  V30 3031 H 287.077 -3.09419 2.78207 0
M  V30 3032 H 285.953 -4.36527 3.32769 0
M  V30 3033 H 286.214 -4.11808 1.60832 0
M  V30 3034 N 285.273 -1.31445 -0.869486 0
M  V30 3035 C 286.521 -1.20918 -1.61936 0
M  V30 3036 C 286.842 0.232683 -1.93607 0
M  V30 3037 O 286.112 1.15352 -1.58338 0
M  V30 3038 H 284.692 -0.44454 -0.600328 0
M  V30 3039 H 287.354 -1.64776 -1.0409 0
M  V30 3040 H 286.45 -1.78124 -2.56278 0
M  V30 3041 N 286.751 1.08385 -1.14413 0
M  V30 3042 C 288.028 1.77429 -0.823297 0
M  V30 3043 C 288.408 1.9974 0.683163 0
M  V30 3044 O 287.756 1.60739 1.62405 0
M  V30 3045 C 287.966 3.09004 -1.62227 0
M  V30 3046 C 289.314 3.83532 -1.82177 0
M  V30 3047 O 290.338 3.18786 -1.58915 0
M  V30 3048 O 289.197 4.99792 -2.21067 0
M  V30 3049 H 286.291 0.769999 -0.301712 0
M  V30 3050 H 288.837 1.14846 -1.24934 0
M  V30 3051 H 287.609 2.88316 -2.64555 0
M  V30 3052 H 287.232 3.79316 -1.19187 0
M  V30 3053 N 288.23 0.939286 1.26551 0
M  V30 3054 C 289.18 0.418284 2.2413 0
M  V30 3055 C 290.164 -0.483935 1.5345 0
M  V30 3056 O 291.356 -0.319489 1.74093 0
M  V30 3057 C 288.485 -0.31709 3.41832 0
M  V30 3058 C 287.571 0.602311 4.19801 0
M  V30 3059 N 287.962 1.72726 4.75394 0
M  V30 3060 C 286.26 0.407534 4.44134 0
M  V30 3061 C 286.961 2.30004 5.34297 0
M  V30 3062 N 285.937 1.58828 5.1988 0
M  V30 3063 H 289.739 1.27705 2.64705 0
M  V30 3064 H 287.253 0.794929 1.41614 0
M  V30 3065 H 289.25 -0.707364 4.10855 0
M  V30 3066 H 287.91 -1.17264 3.02786 0
M  V30 3067 H 288.921 2.10944 4.72994 0
M  V30 3068 H 285.598 -0.406406 4.15517 0
M  V30 3069 H 286.988 3.24778 5.88191 0
M  V30 3070 N 289.708 -1.40897 0.706093 0
M  V30 3071 C 290.64 -2.29199 0.00815776 0
M  V30 3072 C 291.653 -1.45336 -0.733582 0
M  V30 3073 O 292.842 -1.68727 -0.582537 0
M  V30 3074 C 289.942 -3.23417 -1.01265 0
M  V30 3075 C 289.115 -4.36089 -0.338387 0
M  V30 3076 C 288.174 -5.10811 -1.26326 0
M  V30 3077 O 287.2 -5.64215 -0.751651 0
M  V30 3078 N 288.402 -5.19269 -2.595 0
M  V30 3079 H 291.167 -2.89738 0.766297 0
M  V30 3080 H 288.728 -1.52164 0.55296 0
M  V30 3081 H 290.72 -3.70276 -1.63334 0
M  V30 3082 H 289.29 -2.64112 -1.67223 0
M  V30 3083 H 288.51 -3.91479 0.462352 0
M  V30 3084 H 289.798 -5.08634 0.130031 0
M  V30 3085 H 289.196 -4.77347 -3.03573 0
M  V30 3086 H 287.753 -5.69667 -3.16737 0
M  V30 3087 N 291.186 -0.45159 -1.50991 0
M  V30 3088 C 292.149 0.341117 -2.26647 0
M  V30 3089 C 293.149 0.937422 -1.30649 0
M  V30 3090 O 294.339 0.809644 -1.54241 0
M  V30 3091 C 291.471 1.48398 -3.06905 0
M  V30 3092 H 292.664 -0.322117 -2.98165 0
M  V30 3093 H 290.217 -0.205122 -1.54948 0
M  V30 3094 H 290.952 2.18284 -2.39838 0
M  V30 3095 H 290.737 1.06241 -3.77432 0
M  V30 3096 H 292.227 2.04367 -3.64176 0
M  V30 3097 N 292.664 1.56529 -0.183458 0
M  V30 3098 C 293.627 2.17324 0.728223 0
M  V30 3099 C 294.627 1.12453 1.14939 0
M  V30 3100 O 295.817 1.37902 1.06437 0
M  V30 3101 C 292.949 2.76591 1.99274 0
M  V30 3102 H 294.142 2.99241 0.198772 0
M  V30 3103 H 291.695 1.5616 0.0661391 0
M  V30 3104 H 292.43 1.98441 2.56499 0
M  V30 3105 H 292.215 3.5335 1.69959 0
M  V30 3106 H 293.705 3.23311 2.6431 0
M  V30 3107 N 294.142 -0.090211 1.57342 0
M  V30 3108 C 295.075 -1.14035 1.97664 0
M  V30 3109 C 296.053 -1.38576 0.850616 0
M  V30 3110 O 297.237 -1.52255 1.11134 0
M  V30 3111 C 294.364 -2.48854 2.2976 0
M  V30 3112 C 293.41 -2.40564 3.52181 0
M  V30 3113 S 294.243 -1.81745 5.03715 0
M  V30 3114 C 295.399 -3.18178 5.38993 0
M  V30 3115 H 295.632 -0.796636 2.86428 0
M  V30 3116 H 293.165 -0.298072 1.51496 0
M  V30 3117 H 295.123 -3.26413 2.48927 0
M  V30 3118 H 293.784 -2.80393 1.41558 0
M  V30 3119 H 292.977 -3.39942 3.72096 0
M  V30 3120 H 292.579 -1.71135 3.32549 0
M  V30 3121 H 294.871 -4.14461 5.35937 0
M  V30 3122 H 295.814 -3.03062 6.39968 0
M  V30 3123 H 296.222 -3.17935 4.66452 0
M  V30 3124 N 295.62 -1.53406 -0.361157 0
M  V30 3125 C 296.552 -1.76446 -1.46286 0
M  V30 3126 C 297.565 -0.645322 -1.49464 0
M  V30 3127 O 298.754 -0.921681 -1.52864 0
M  V30 3128 C 295.854 -1.83332 -2.85031 0
M  V30 3129 C 295.027 -3.13033 -3.05498 0
M  V30 3130 C 294.086 -3.11104 -4.24383 0
M  V30 3131 O 293.112 -3.84888 -4.19344 0
M  V30 3132 N 294.314 -2.32234 -5.32022 0
M  V30 3133 H 297.079 -2.71508 -1.26899 0
M  V30 3134 H 294.64 -1.52238 -0.550915 0
M  V30 3135 H 296.632 -1.79514 -3.62708 0
M  V30 3136 H 295.202 -0.955342 -2.97644 0
M  V30 3137 H 294.422 -3.30119 -2.15442 0
M  V30 3138 H 295.71 -3.9874 -3.16044 0
M  V30 3139 H 295.108 -1.71807 -5.38979 0
M  V30 3140 H 293.665 -2.3423 -6.08259 0
M  V30 3141 N 297.098 0.621204 -1.44841 0
M  V30 3142 C 298.347 1.37658 -1.47422 0
M  V30 3143 C 298.66 1.95264 -0.114629 0
M  V30 3144 O 299.866 2.71494 -0.0180199 0
M  V30 3145 C 298.322 2.49285 -2.59586 0
M  V30 3146 C 297.93 1.98149 -4.01797 0
M  V30 3147 C 299.674 3.26409 -2.71399 0
M  V30 3148 C 297.581 3.07178 -5.05367 0
M  V30 3149 H 296.511 0.517344 -0.548517 0
M  V30 3150 H 299.162 0.667257 -1.70938 0
M  V30 3151 H 297.544 3.22839 -2.29328 0
M  V30 3152 H 298.718 1.31395 -4.41669 0
M  V30 3153 H 297.033 1.33812 -3.94314 0
M  V30 3154 H 299.63 4.07706 -3.45948 0
M  V30 3155 H 299.973 3.76535 -1.77559 0
M  V30 3156 H 300.506 2.5995 -3.01116 0
M  V30 3157 H 297.245 2.61985 -6.00869 0
M  V30 3158 H 296.765 3.72542 -4.70077 0
M  V30 3159 H 298.444 3.71789 -5.29511 0
M  V30 3160 N 298.576 1.31904 0.862503 0
M  V30 3161 C 299.825 1.21373 1.61094 0
M  V30 3162 C 300.138 -0.22504 1.94301 0
M  V30 3163 O 301.344 -0.452121 2.67709 0
M  V30 3164 C 299.8 2.12525 2.9045 0
M  V30 3165 C 299.408 3.61441 2.64697 0
M  V30 3166 C 301.152 2.10813 3.68454 0
M  V30 3167 C 299.059 4.44578 3.90006 0
M  V30 3168 H 297.989 0.450705 0.604468 0
M  V30 3169 H 300.64 1.56811 0.953027 0
M  V30 3170 H 299.022 1.69994 3.57656 0
M  V30 3171 H 300.196 4.12264 2.05851 0
M  V30 3172 H 298.511 3.65205 2.00036 0
M  V30 3173 H 301.108 2.70167 4.61426 0
M  V30 3174 H 301.451 1.09713 4.01583 0
M  V30 3175 H 301.984 2.51583 3.08141 0
M  V30 3176 H 298.723 5.46461 3.62023 0
M  V30 3177 H 298.243 3.98508 4.48276 0
M  V30 3178 H 299.922 4.57176 4.5782 0
M  V30 3179 N 300.054 -1.07777 1.14986 0
M  V30 3180 C 301.47 -1.32373 0.891596 0
M  V30 3181 C 301.67 -1.9609 -0.463788 0
M  V30 3182 O 300.726 -2.21801 -1.20667 0
M  V30 3183 C 302.039 -2.21905 2.02925 0
M  V30 3184 C 303.587 -2.35367 2.06329 0
M  V30 3185 C 304.062 -3.28245 3.19405 0
M  V30 3186 N 305.553 -3.35824 3.19024 0
M  V30 3187 C 306.288 -4.07739 4.03158 0
M  V30 3188 N 305.784 -4.82306 4.97346 0
M  V30 3189 N 307.577 -4.03635 3.91197 0
M  V30 3190 H 299.728 -0.648039 2.02273 0
M  V30 3191 H 301.991 -0.348149 0.881757 0
M  V30 3192 H 301.697 -1.82342 3.0074 0
M  V30 3193 H 301.571 -3.22407 1.95789 0
M  V30 3194 H 303.958 -2.74186 1.09116 0
M  V30 3195 H 304.039 -1.34585 2.17533 0
M  V30 3196 H 303.683 -2.90146 4.16867 0
M  V30 3197 H 303.613 -4.28971 3.05437 0
M  V30 3198 H 306.104 -2.8267 2.50811 0
M  V30 3199 H 306.417 -5.34661 5.57994 0
M  V30 3200 H 304.762 -4.81337 5.01338 0
M  V30 3201 H 307.953 -3.44491 3.16928 0
M  V30 3202 H 308.126 -4.59417 4.5699 0
M  V30 3203 N 301.532 -0.945985 -1.26051 0
M  V30 3204 C 302.809 -0.513816 -1.88731 0
M  V30 3205 C 303.189 1.00872 -1.8544 0
M  V30 3206 O 302.537 1.8708 -1.312 0
M  V30 3207 C 302.747 -1.08062 -3.31849 0
M  V30 3208 C 304.095 -1.1522 -4.08668 0
M  V30 3209 O 305.119 -1.03155 -3.40936 0
M  V30 3210 O 303.978 -1.34044 -5.29806 0
M  V30 3211 H 301.072 -0.168193 -0.809716 0
M  V30 3212 H 303.618 -1.03886 -1.34186 0
M  V30 3213 H 302.39 -2.1241 -3.2863 0
M  V30 3214 H 302.013 -0.538307 -3.93939 0
M  V30 3215 N 303.011 1.40521 -0.713556 0
M  V30 3216 C 304.26 2.00155 -0.249192 0
M  V30 3217 C 304.573 1.57224 1.16362 0
M  V30 3218 O 305.779 2.09542 1.72639 0
M  V30 3219 C 304.235 3.5773 -0.3946 0
M  V30 3220 C 303.843 4.09635 -1.81392 0
M  V30 3221 C 305.587 4.24499 0.00907364 0
M  V30 3222 C 303.494 5.59707 -1.91003 0
M  V30 3223 H 302.424 0.74868 -0.0894114 0
M  V30 3224 H 305.075 1.60784 -0.884352 0
M  V30 3225 H 303.457 3.94792 0.30911 0
M  V30 3226 H 304.631 3.83955 -2.54785 0
M  V30 3227 H 302.946 3.55456 -2.16888 0
M  V30 3228 H 305.543 5.34683 -0.0420404 0
M  V30 3229 H 305.886 4.02824 1.05065 0
M  V30 3230 H 306.419 3.92536 -0.645007 0
M  V30 3231 H 303.158 5.86234 -2.93275 0
M  V30 3232 H 302.678 5.87258 -1.22019 0
M  V30 3233 H 304.357 6.24776 -1.6812 0
M  V30 3234 N 304.489 0.459591 1.5075 0
M  V30 3235 C 305.738 -0.100971 2.01447 0
M  V30 3236 C 306.051 -1.41816 1.34713 0
M  V30 3237 O 307.257 -2.06299 1.76502 0
M  V30 3238 C 305.713 -0.23047 3.59161 0
M  V30 3239 C 305.321 1.0776 4.34847 0
M  V30 3240 C 307.065 -0.743608 4.17936 0
M  V30 3241 C 304.972 0.91253 5.84317 0
M  V30 3242 H 303.902 -0.0415102 0.752856 0
M  V30 3243 H 306.553 0.592742 1.73663 0
M  V30 3244 H 304.935 -0.987703 3.83485 0
M  V30 3245 H 306.109 1.8449 4.22256 0
M  V30 3246 H 304.424 1.52097 3.87628 0
M  V30 3247 H 307.021 -0.883959 5.27343 0
M  V30 3248 H 307.364 -1.73196 3.78562 0
M  V30 3249 H 307.897 -0.04408 3.97776 0
M  V30 3250 H 304.636 1.87391 6.28144 0
M  V30 3251 H 304.156 0.185422 5.99513 0
M  V30 3252 H 305.835 0.574547 6.44444 0
M  V30 3253 N 305.967 -1.56429 0.191757 0
M  V30 3254 C 306.915 -2.20273 -0.747174 0
M  V30 3255 C 307.909 -1.17288 -1.22229 0
M  V30 3256 O 309.115 -1.35441 -1.18557 0
M  V30 3257 H 305.49 -0.705885 -0.259289 0
M  V30 3258 H 307.461 -2.97826 -0.184963 0
M  V30 3259 C 306.21 -2.87356 -1.95759 0
M  V30 3260 H 305.533 -3.66341 -1.60106 0
M  V30 3261 H 306.973 -3.3547 -2.59299 0
M  V30 3262 C 305.432 -1.88213 -2.79423 0
M  V30 3263 O 305.962 -1.38033 -3.7724 0
M  V30 3264 N 304.168 -1.56516 -2.44849 0
M  V30 3265 H 303.715 -1.97516 -1.65364 0
M  V30 3266 H 303.673 -0.904369 -3.01112 0
M  V30 3267 N 307.445 0.0818655 -1.57387 0
M  V30 3268 C 308.355 1.11642 -2.06333 0
M  V30 3269 C 309.371 1.43033 -0.99083 0
M  V30 3270 O 310.547 1.53411 -1.30488 0
M  V30 3271 C 307.612 2.41342 -2.48907 0
M  V30 3272 C 306.673 2.17014 -3.7041 0
M  V30 3273 C 305.906 3.4053 -4.10944 0
M  V30 3274 O 306.129 4.4927 -3.51444 0
M  V30 3275 O 305.063 3.29336 -5.03807 0
M  V30 3276 H 308.889 0.730657 -2.9478 0
M  V30 3277 H 306.474 0.295301 -1.46452 0
M  V30 3278 H 308.356 3.17691 -2.76858 0
M  V30 3279 H 307.031 2.79319 -1.63593 0
M  V30 3280 H 305.938 1.38403 -3.47556 0
M  V30 3281 H 307.271 1.83923 -4.56545 0
M  V30 3282 N 308.923 1.53595 0.353017 0
M  V30 3283 C 309.833 1.83897 1.45667 0
M  V30 3284 C 310.849 0.728334 1.58023 0
M  V30 3285 O 312.025 1.01968 1.73679 0
M  V30 3286 C 309.09 2.03383 2.80778 0
M  V30 3287 C 308.151 3.27262 2.77845 0
M  V30 3288 C 307.384 3.45809 4.06512 0
M  V30 3289 O 307.607 2.68387 5.03314 0
M  V30 3290 O 306.541 4.39207 4.11559 0
M  V30 3291 H 310.367 2.77686 1.2298 0
M  V30 3292 H 307.952 1.39132 0.544308 0
M  V30 3293 H 309.834 2.17698 3.60812 0
M  V30 3294 H 308.509 1.12783 3.03417 0
M  V30 3295 H 307.416 3.18359 1.96465 0
M  V30 3296 H 308.749 4.17824 2.60161 0
M  V30 3297 N 310.401 -0.613514 1.45168 0
M  V30 3298 C 311.364 -1.7065 1.53007 0
M  V30 3299 C 312.364 -1.5548 0.410184 0
M  V30 3300 O 313.554 -1.60656 0.673455 0
M  V30 3301 C 310.686 -3.09875 1.42093 0
M  V30 3302 H 311.879 -1.65068 2.50385 0
M  V30 3303 H 309.432 -0.828728 1.32521 0
M  V30 3304 H 310.167 -3.21039 0.458769 0
M  V30 3305 H 309.952 -3.22293 2.23315 0
M  V30 3306 H 311.442 -3.895 1.50598 0
M  V30 3307 N 311.879 -1.3236 -0.855495 0
M  V30 3308 C 312.842 -1.21164 -1.94556 0
M  V30 3309 C 313.842 -0.134908 -1.60233 0
M  V30 3310 O 315.032 -0.385249 -1.69887 0
M  V30 3311 C 312.164 -0.863192 -3.29791 0
M  V30 3312 H 313.357 -2.18038 -2.05911 0
M  V30 3313 H 310.91 -1.16179 -1.04557 0
M  V30 3314 H 311.645 0.103769 -3.24134 0
M  V30 3315 H 311.43 -1.64166 -3.56078 0
M  V30 3316 H 312.92 -0.809156 -4.09686 0
M  V30 3317 N 313.357 1.07166 -1.15556 0
M  V30 3318 C 314.634 1.76546 -0.842069 0
M  V30 3319 C 315.014 2.00453 0.661939 0
M  V30 3320 O 314.362 1.62452 1.60691 0
M  V30 3321 C 314.572 3.07266 -1.65495 0
M  V30 3322 C 315.92 3.81578 -1.86234 0
M  V30 3323 O 316.944 3.17083 -1.62287 0
M  V30 3324 O 315.803 4.97419 -2.26355 0
M  V30 3325 H 312.897 0.766756 -0.309862 0
M  V30 3326 H 315.443 1.13514 -1.26145 0
M  V30 3327 H 314.215 2.85494 -2.67598 0
M  V30 3328 H 313.838 3.7803 -1.23203 0
M  V30 3329 N 314.835 0.952656 1.25548 0
M  V30 3330 C 316.081 0.616826 1.93822 0
M  V30 3331 C 316.436 -0.836684 1.73255 0
M  V30 3332 O 315.729 -1.59218 1.06584 0
M  V30 3333 C 315.923 0.908818 3.45652 0
M  V30 3334 C 315.752 2.38916 3.80984 0
M  V30 3335 C 314.522 3.04637 4.03143 0
M  V30 3336 C 316.72 3.36838 3.88645 0
M  V30 3337 N 314.702 4.42565 4.25453 0
M  V30 3338 C 316.073 4.60065 4.1562 0
M  V30 3339 C 318.128 3.31704 3.71318 0
M  V30 3340 C 316.831 5.78795 4.2707 0
M  V30 3341 C 318.857 4.4977 3.84006 0
M  V30 3342 C 318.219 5.71783 4.11392 0
M  V30 3343 H 314.318 0.27629 0.731565 0
M  V30 3344 H 316.902 1.22443 1.5138 0
M  V30 3345 H 315.073 0.330166 3.86994 0
M  V30 3346 H 316.805 0.533093 4.01174 0
M  V30 3347 H 313.56 2.55215 3.98952 0
M  V30 3348 H 313.984 5.1399 4.40617 0
M  V30 3349 H 318.626 2.3842 3.49164 0
M  V30 3350 H 316.344 6.72521 4.48041 0
M  V30 3351 H 319.93 4.47342 3.71989 0
M  V30 3352 H 318.81 6.61617 4.2099 0
M  V30 3353 N 316.313 -1.40141 0.720998 0
M  V30 3354 C 317.59 -1.94677 0.189757 0
M  V30 3355 C 317.97 -1.65879 -1.30566 0
M  V30 3356 O 317.318 -0.979391 -2.06447 0
M  V30 3357 C 317.528 -3.45279 0.508304 0
M  V30 3358 C 318.876 -4.22209 0.449934 0
M  V30 3359 O 319.9 -3.53413 0.444677 0
M  V30 3360 O 318.759 -5.44788 0.432189 0
M  V30 3361 H 315.853 -0.826459 0.0299026 0
M  V30 3362 H 318.399 -1.49719 0.7989 0
M  V30 3363 H 317.171 -3.59619 1.54239 0
M  V30 3364 H 316.794 -3.97386 -0.130525 0
M  V30 3365 N 317.792 -0.46758 -1.50504 0
M  V30 3366 C 318.722 0.318381 -2.31319 0
M  V30 3367 C 319.703 0.993564 -1.38066 0
M  V30 3368 O 320.888 0.991411 -1.66987 0
M  V30 3369 C 318.018 1.40275 -3.17711 0
M  V30 3370 C 316.972 0.849373 -4.19487 0
M  V30 3371 C 316.298 2.03177 -4.94594 0
M  V30 3372 C 317.598 -0.136942 -5.2212 0
M  V30 3373 H 319.292 -0.356106 -2.97275 0
M  V30 3374 H 316.838 -0.172703 -1.42961 0
M  V30 3375 H 318.791 1.96004 -3.73042 0
M  V30 3376 H 317.515 2.10596 -2.49634 0
M  V30 3377 H 316.174 0.314076 -3.65252 0
M  V30 3378 H 315.822 2.72187 -4.22993 0
M  V30 3379 H 315.522 1.66774 -5.63436 0
M  V30 3380 H 317.046 2.59403 -5.52759 0
M  V30 3381 H 318.46 0.331056 -5.72343 0
M  V30 3382 H 316.857 -0.41507 -5.98663 0
M  V30 3383 H 317.927 -1.06398 -4.73083 0
M  V30 3384 N 319.27 1.56325 -0.20005 0
M  V30 3385 C 320.202 2.16555 0.750771 0
M  V30 3386 C 321.215 1.12871 1.1732 0
M  V30 3387 O 322.404 1.39943 1.10807 0
M  V30 3388 C 319.504 2.71684 2.02586 0
M  V30 3389 C 318.677 4.00321 1.76244 0
M  V30 3390 C 317.736 4.40227 2.88248 0
M  V30 3391 O 316.762 5.07552 2.57642 0
M  V30 3392 N 317.964 4.04138 4.16717 0
M  V30 3393 H 320.729 2.98772 0.235685 0
M  V30 3394 H 318.29 1.6189 -0.0182594 0
M  V30 3395 H 320.282 2.95363 2.76664 0
M  V30 3396 H 318.852 1.93893 2.45202 0
M  V30 3397 H 318.072 3.84723 0.85919 0
M  V30 3398 H 319.36 4.84279 1.56048 0
M  V30 3399 H 318.758 3.49993 4.44434 0
M  V30 3400 H 317.315 4.32756 4.87407 0
M  V30 3401 N 320.748 -0.0735177 1.57428 0
M  V30 3402 C 321.698 -1.09442 2.00016 0
M  V30 3403 C 322.682 -1.34575 0.881947 0
M  V30 3404 O 323.874 -1.34905 1.14585 0
M  V30 3405 C 321.003 -2.40865 2.4462 0
M  V30 3406 C 320.089 -2.19014 3.63172 0
M  V30 3407 N 320.48 -1.67087 4.77405 0
M  V30 3408 C 318.778 -2.49494 3.69688 0
M  V30 3409 C 319.479 -1.6001 5.5926 0
M  V30 3410 N 318.455 -2.05999 5.03056 0
M  V30 3411 H 322.257 -0.686227 2.85776 0
M  V30 3412 H 319.771 -0.280617 1.59957 0
M  V30 3413 H 321.768 -3.14763 2.73368 0
M  V30 3414 H 320.428 -2.82403 1.60246 0
M  V30 3415 H 321.439 -1.35975 4.99731 0
M  V30 3416 H 318.116 -2.94409 2.96023 0
M  V30 3417 H 319.506 -1.2073 6.60964 0
M  V30 3418 N 322.226 -1.5378 -0.344866 0
M  V30 3419 C 323.637 -1.62428 -0.920552 0
M  V30 3420 C 323.988 -0.504747 -1.89596 0
M  V30 3421 O 323.113 0.365711 -2.13287 0
M  V30 3422 C 323.708 -2.94419 -1.67639 0
M  V30 3423 C 322.267 -3.05333 -2.20111 0
M  V30 3424 C 321.414 -2.57866 -1.01982 0
M  V30 3425 H 324.365 -1.58222 -0.123042 0
M  V30 3426 H 324.386 -2.83384 -2.53917 0
M  V30 3427 H 323.898 -3.7588 -0.966224 0
M  V30 3428 H 321.999 -2.28502 -2.94308 0
M  V30 3429 H 322.112 -4.10778 -2.46573 0
M  V30 3430 H 320.476 -2.13241 -1.39285 0
M  V30 3431 H 321.259 -3.41765 -0.324308 0
M  V30 3432 N 323.704 0.605807 -1.45491 0
M  V30 3433 C 324.636 1.73031 -1.5031 0
M  V30 3434 C 325.649 1.57968 -0.393687 0
M  V30 3435 O 326.838 1.65817 -0.660839 0
M  V30 3436 C 323.938 3.11049 -1.34543 0
M  V30 3437 C 323.111 3.52334 -2.59189 0
M  V30 3438 C 322.17 4.69323 -2.37954 0
M  V30 3439 O 321.196 4.7635 -3.11575 0
M  V30 3440 N 322.398 5.62705 -1.4263 0
M  V30 3441 H 325.163 1.6936 -2.4726 0
M  V30 3442 H 322.724 0.79114 -1.41254 0
M  V30 3443 H 324.716 3.87071 -1.18144 0
M  V30 3444 H 323.286 3.09217 -0.458623 0
M  V30 3445 H 322.506 2.66256 -2.90691 0
M  V30 3446 H 323.794 3.76677 -3.42041 0
M  V30 3447 H 323.192 5.59744 -0.818758 0
M  V30 3448 H 321.749 6.38252 -1.32202 0
M  V30 3449 N 325.182 1.32811 0.848464 0
M  V30 3450 C 326.114 1.18095 1.96433 0
M  V30 3451 C 327.127 0.114354 1.62398 0
M  V30 3452 O 328.316 0.363892 1.74751 0
M  V30 3453 C 325.416 0.786798 3.2964 0
M  V30 3454 C 324.589 1.943 3.91875 0
M  V30 3455 C 323.648 1.53138 5.03423 0
M  V30 3456 O 322.674 2.24432 5.23086 0
M  V30 3457 N 323.876 0.430915 5.78898 0
M  V30 3458 H 326.641 2.14218 2.09597 0
M  V30 3459 H 324.202 1.2543 1.02367 0
M  V30 3460 H 326.194 0.493715 4.01677 0
M  V30 3461 H 324.764 -0.0834541 3.12489 0
M  V30 3462 H 323.984 2.40224 3.12547 0
M  V30 3463 H 325.272 2.71689 4.30189 0
M  V30 3464 H 324.67 -0.162333 5.65467 0
M  V30 3465 H 323.227 0.197466 6.51501 0
M  V30 3466 N 326.66 -1.06551 1.16123 0
M  V30 3467 C 327.623 -2.12132 0.867906 0
M  V30 3468 C 328.623 -1.60224 -0.135944 0
M  V30 3469 O 329.813 -1.73943 0.0946422 0
M  V30 3470 C 326.945 -3.396 0.297419 0
M  V30 3471 H 328.138 -2.39586 1.80385 0
M  V30 3472 H 325.691 -1.22574 0.969812 0
M  V30 3473 H 326.426 -3.17794 -0.64633 0
M  V30 3474 H 326.211 -3.78581 1.02073 0
M  V30 3475 H 327.701 -4.17455 0.110052 0
M  V30 3476 N 328.138 -0.959301 -1.25041 0
M  V30 3477 C 329.549 -0.65667 -1.74771 0
M  V30 3478 C 329.9 0.827852 -1.77879 0
M  V30 3479 O 329.025 1.64783 -1.40269 0
M  V30 3480 C 329.62 -1.1853 -3.1739 0
M  V30 3481 C 328.179 -0.932734 -3.6466 0
M  V30 3482 C 327.326 -1.32558 -2.43564 0
M  V30 3483 H 330.277 -1.13558 -1.10862 0
M  V30 3484 H 330.298 -0.547582 -3.76539 0
M  V30 3485 H 329.81 -2.26576 -3.15095 0
M  V30 3486 H 327.911 0.13257 -3.72364 0
M  V30 3487 H 328.024 -1.57248 -4.52559 0
M  V30 3488 H 326.388 -0.743956 -2.43593 0
M  V30 3489 H 327.171 -2.41537 -2.43957 0
M  V30 3490 N 329.616 1.39756 -0.72842 0
M  V30 3491 C 330.548 2.29157 -0.0446202 0
M  V30 3492 C 331.561 1.46484 0.710367 0
M  V30 3493 O 332.75 1.69632 0.55562 0
M  V30 3494 C 329.85 3.24987 0.961071 0
M  V30 3495 C 329.023 4.36572 0.268967 0
M  V30 3496 C 328.082 5.12756 1.18184 0
M  V30 3497 O 327.108 5.6534 0.661794 0
M  V30 3498 N 328.31 5.23331 2.51206 0
M  V30 3499 H 331.075 2.88482 -0.812295 0
M  V30 3500 H 328.636 1.51265 -0.577098 0
M  V30 3501 H 330.628 3.72827 1.57423 0
M  V30 3502 H 329.198 2.66739 1.63 0
M  V30 3503 H 328.418 3.90694 -0.524574 0
M  V30 3504 H 329.706 5.08363 -0.210934 0
M  V30 3505 H 329.104 4.82116 2.9594 0
M  V30 3506 H 327.661 5.74634 3.07634 0
M  V30 3507 N 331.094 0.475555 1.50254 0
M  V30 3508 C 332.026 -0.352649 2.26471 0
M  V30 3509 C 333.039 -0.953165 1.3198 0
M  V30 3510 O 334.228 -0.840815 1.57457 0
M  V30 3511 C 331.328 -1.50902 3.0345 0
M  V30 3512 C 330.501 -1.02047 4.25329 0
M  V30 3513 C 329.56 -2.05142 4.84565 0
M  V30 3514 O 328.586 -1.63023 5.45355 0
M  V30 3515 N 329.788 -3.37987 4.71959 0
M  V30 3516 H 332.553 0.300767 2.98187 0
M  V30 3517 H 330.114 0.306598 1.5897 0
M  V30 3518 H 332.106 -2.19572 3.39956 0
M  V30 3519 H 330.676 -2.06705 2.34504 0
M  V30 3520 H 329.896 -0.159507 3.93877 0
M  V30 3521 H 331.184 -0.672061 5.04342 0
M  V30 3522 H 330.582 -3.74913 4.23623 0
M  V30 3523 H 329.139 -4.02443 5.12721 0
M  V30 3524 N 332.573 -1.56217 0.208337 0
M  V30 3525 C 333.821 -1.97558 -0.426076 0
M  V30 3526 C 334.142 -1.09683 -1.61229 0
M  V30 3527 O 333.412 -0.170956 -1.95153 0
M  V30 3528 H 331.992 -0.729575 -0.160405 0
M  V30 3529 H 334.654 -1.92606 0.298155 0
M  V30 3530 H 333.75 -3.02672 -0.761312 0
M  V30 3531 N 334.051 0.0651679 -1.57465 0
M  V30 3532 C 334.983 1.10359 -2.00882 0
M  V30 3533 C 335.996 1.346 -0.915788 0
M  V30 3534 O 337.185 1.32723 -1.1936 0
M  V30 3535 C 334.285 2.45312 -2.33828 0
M  V30 3536 C 333.458 2.40934 -3.65061 0
M  V30 3537 C 332.517 3.58047 -3.85602 0
M  V30 3538 O 331.543 3.39175 -4.57109 0
M  V30 3539 N 332.745 4.78637 -3.28462 0
M  V30 3540 H 335.51 0.733807 -2.90578 0
M  V30 3541 H 333.071 0.253719 -1.599 0
M  V30 3542 H 335.063 3.22314 -2.44737 0
M  V30 3543 H 333.633 2.74267 -1.49988 0
M  V30 3544 H 332.853 1.49273 -3.64844 0
M  V30 3545 H 334.141 2.35117 -4.51218 0
M  V30 3546 H 333.539 4.96872 -2.70433 0
M  V30 3547 H 332.096 5.53127 -3.44809 0
M  V30 3548 N 335.529 1.53961 0.336706 0
M  V30 3549 C 336.459 1.85417 1.41925 0
M  V30 3550 C 337.44 0.709856 1.5458 0
M  V30 3551 O 338.625 0.962396 1.68676 0
M  V30 3552 C 335.755 2.06985 2.78881 0
M  V30 3553 C 334.709 3.22813 2.81026 0
M  V30 3554 C 334.035 3.29727 4.20932 0
M  V30 3555 C 335.335 4.60767 2.45949 0
M  V30 3556 H 337.029 2.76079 1.15848 0
M  V30 3557 H 334.575 1.32839 0.555859 0
M  V30 3558 H 336.528 2.27575 3.54665 0
M  V30 3559 H 335.252 1.13061 3.06406 0
M  V30 3560 H 333.911 3.0209 2.07695 0
M  V30 3561 H 333.559 2.33385 4.45579 0
M  V30 3562 H 333.259 4.07566 4.23277 0
M  V30 3563 H 334.783 3.52536 4.98549 0
M  V30 3564 H 336.197 4.81325 3.11446 0
M  V30 3565 H 334.594 5.4106 2.59566 0
M  V30 3566 H 335.664 4.6391 1.41122 0
M  V30 3567 N 337.007 -0.598083 1.45811 0
M  V30 3568 C 338.423 -0.919847 1.30426 0
M  V30 3569 C 338.623 -1.99759 0.264303 0
M  V30 3570 O 337.679 -2.50221 -0.338472 0
M  V30 3571 C 338.992 -1.35176 2.68603 0
M  V30 3572 C 340.54 -1.46546 2.76574 0
M  V30 3573 C 341.015 -1.9311 4.15298 0
M  V30 3574 N 342.506 -2.00328 4.1764 0
M  V30 3575 C 343.241 -2.37599 5.21856 0
M  V30 3576 N 342.737 -2.73771 6.36413 0
M  V30 3577 N 344.53 -2.38021 5.09218 0
M  V30 3578 H 336.681 0.114111 2.12093 0
M  V30 3579 H 338.944 -0.0116121 0.947929 0
M  V30 3580 H 338.65 -0.633969 3.45939 0
M  V30 3581 H 338.524 -2.3164 2.97696 0
M  V30 3582 H 340.911 -2.17415 1.99537 0
M  V30 3583 H 340.992 -0.483727 2.51185 0
M  V30 3584 H 340.636 -1.22824 4.92825 0
M  V30 3585 H 340.566 -2.92213 4.38086 0
M  V30 3586 H 343.057 -1.74925 3.34977 0
M  V30 3587 H 343.37 -3.0112 7.11721 0
M  V30 3588 H 341.715 -2.71445 6.39799 0
M  V30 3589 H 344.906 -2.09174 4.18765 0
M  V30 3590 H 345.079 -2.66741 5.90554 0
M  V30 3591 N 338.485 -1.33259 -0.841409 0
M  V30 3592 C 339.395 -1.25332 -1.98316 0
M  V30 3593 C 340.411 -0.164364 -1.73222 0
M  V30 3594 O 341.587 -0.387486 -1.97637 0
M  V30 3595 C 338.652 -0.990078 -3.32262 0
M  V30 3596 C 337.713 -2.16879 -3.70489 0
M  V30 3597 C 336.946 -1.91801 -4.98044 0
M  V30 3598 O 337.169 -0.867075 -5.63771 0
M  V30 3599 O 336.103 -2.78267 -5.33714 0
M  V30 3600 H 339.929 -2.21344 -2.07944 0
M  V30 3601 H 337.514 -1.1328 -0.974058 0
M  V30 3602 H 339.396 -0.860321 -4.12524 0
M  V30 3603 H 338.071 -0.0602155 -3.23644 0
M  V30 3604 H 336.978 -2.35407 -2.90748 0
M  V30 3605 H 338.311 -3.0819 -3.8377 0
M  V30 3606 N 339.963 1.05934 -1.16686 0
M  V30 3607 C 341.374 1.60263 -0.957745 0
M  V30 3608 C 341.725 1.89789 0.49745 0
M  V30 3609 O 340.85 1.67401 1.37135 0
M  V30 3610 C 341.445 2.91172 -1.73218 0
M  V30 3611 C 340.004 3.42188 -1.56794 0
M  V30 3612 C 339.151 2.16028 -1.73859 0
M  V30 3613 H 342.102 0.888392 -1.31504 0
M  V30 3614 H 342.123 3.60744 -1.21014 0
M  V30 3615 H 341.635 2.6965 -2.79124 0
M  V30 3616 H 339.736 3.68762 -0.533437 0
M  V30 3617 H 339.849 4.17273 -2.35414 0
M  V30 3618 H 338.213 2.26426 -1.16633 0
M  V30 3619 H 338.996 1.96985 -2.81161 0
M  V30 3620 N 341.441 0.965919 1.2453 0
M  V30 3621 C 342.666 0.643971 1.97149 0
M  V30 3622 C 343.091 -0.779487 1.71189 0
M  V30 3623 O 342.449 -1.5288 0.974553 0
M  V30 3624 C 342.497 0.922557 3.48599 0
M  V30 3625 O 341.601 0.00707672 4.12399 0
M  V30 3626 H 340.942 0.243647 0.617683 0
M  V30 3627 H 343.472 1.29558 1.58353 0
M  V30 3628 H 343.482 0.853373 3.98976 0
M  V30 3629 H 342.157 1.95996 3.66822 0
M  V30 3630 H 340.734 0.12943 3.72675 0
M  V30 3631 N 342.919 -1.39368 0.735821 0
M  V30 3632 C 344.167 -2.00101 0.283562 0
M  V30 3633 C 344.488 -1.5868 -1.13338 0
M  V30 3634 O 343.758 -0.835423 -1.77193 0
M  V30 3635 H 342.338 -0.740024 0.101851 0
M  V30 3636 H 345 -1.70404 0.945962 0
M  V30 3637 H 344.096 -3.10323 0.332604 0
M  V30 3638 N 344.397 -0.483516 -1.5 0
M  V30 3639 C 345.622 0.0667119 -2.07293 0
M  V30 3640 C 346.047 1.3164 -1.3436 0
M  V30 3641 O 345.405 1.76945 -0.394987 0
M  V30 3642 C 345.453 0.321126 -3.59167 0
M  V30 3643 O 344.557 1.39927 -3.87936 0
M  V30 3644 H 343.898 -0.0184758 -0.663743 0
M  V30 3645 H 346.428 -0.678125 -1.93035 0
M  V30 3646 H 346.438 0.557906 -4.04168 0
M  V30 3647 H 345.113 -0.592007 -4.11665 0
M  V30 3648 H 343.69 1.14882 -3.54763 0
M  V30 3649 N 345.875 1.56104 -0.216619 0
M  V30 3650 C 347.152 1.89988 0.465165 0
M  V30 3651 C 347.532 1.13326 1.78102 0
M  V30 3652 O 346.88 0.241033 2.27225 0
M  V30 3653 C 347.09 3.42646 0.662939 0
M  V30 3654 C 348.438 4.13311 0.972602 0
M  V30 3655 O 349.462 3.48217 0.749901 0
M  V30 3656 O 348.321 5.28396 1.39499 0
M  V30 3657 H 345.415 0.78979 0.245276 0
M  V30 3658 H 347.961 1.67721 -0.258436 0
M  V30 3659 H 346.733 3.90399 -0.26543 0
M  V30 3660 H 346.356 3.70677 1.43821 0
M  V30 3661 N 347.353 -0.0568162 1.57498 0
M  V30 3662 C 348.602 -0.752001 1.87157 0
M  V30 3663 C 348.915 -1.77978 0.811375 0
M  V30 3664 O 350.121 -2.52559 0.996293 0
M  V30 3665 C 348.577 -1.38844 3.3204 0
M  V30 3666 C 348.185 -0.398456 4.46225 0
M  V30 3667 C 349.929 -2.06512 3.70882 0
M  V30 3668 C 347.836 -1.04166 5.82154 0
M  V30 3669 H 346.766 -0.28461 0.698222 0
M  V30 3670 H 349.417 -0.00561272 1.83499 0
M  V30 3671 H 347.799 -2.1836 3.30356 0
M  V30 3672 H 348.973 0.367977 4.59328 0
M  V30 3673 H 347.288 0.174592 4.16034 0
M  V30 3674 H 349.885 -2.55437 4.6974 0
M  V30 3675 H 350.228 -2.87117 3.01445 0
M  V30 3676 H 350.761 -1.33808 3.7462 0
M  V30 3677 H 347.5 -0.275614 6.5492 0
M  V30 3678 H 347.02 -1.7786 5.72823 0
M  V30 3679 H 348.699 -1.55715 6.27982 0
M  V30 3680 N 348.832 -1.54138 -0.328536 0
M  V30 3681 C 349.795 -1.82462 -1.38709 0
M  V30 3682 C 350.795 -0.696229 -1.44946 0
M  V30 3683 O 351.985 -0.964535 -1.4506 0
M  V30 3684 C 349.117 -1.98018 -2.77492 0
M  V30 3685 H 350.31 -2.77037 -1.14851 0
M  V30 3686 H 347.863 -1.45779 -0.563751 0
M  V30 3687 H 348.598 -1.05637 -3.06613 0
M  V30 3688 H 348.383 -2.80124 -2.74359 0
M  V30 3689 H 349.873 -2.21396 -3.54081 0
M  V30 3690 N 350.31 0.590341 -1.46126 0
M  V30 3691 C 351.558 1.34616 -1.50742 0
M  V30 3692 C 351.879 1.94363 -0.157486 0
M  V30 3693 O 351.149 1.78136 0.815136 0
M  V30 3694 H 349.729 0.499789 -0.555175 0
M  V30 3695 H 352.391 0.691953 -1.82203 0
M  V30 3696 H 351.487 2.15678 -2.25587 0
M  V30 3697 N 351.788 1.33704 0.83433 0
M  V30 3698 C 353.016 1.28467 1.62185 0
M  V30 3699 C 353.431 -0.143526 1.88254 0
M  V30 3700 O 352.788 -1.08709 1.4659 0
M  V30 3701 C 352.839 2.06174 2.96942 0
M  V30 3702 O 352.56 3.43422 2.72016 0
M  V30 3703 C 354.061 2.08201 3.91366 0
M  V30 3704 H 351.281 0.4424 0.504503 0
M  V30 3705 H 353.825 1.76145 1.03891 0
M  V30 3706 H 351.98 1.62167 3.51825 0
M  V30 3707 H 352.394 3.83453 3.57861 0
M  V30 3708 H 353.868 2.67017 4.83121 0
M  V30 3709 H 354.345 1.07343 4.2588 0
M  V30 3710 H 354.951 2.52246 3.42421 0
M  V30 3711 N 353.266 -1.05314 1.17247 0
M  V30 3712 C 354.494 -1.81971 0.984593 0
M  V30 3713 C 354.909 -1.82929 -0.467166 0
M  V30 3714 O 354.266 -1.25564 -1.32438 0
M  V30 3715 C 354.317 -3.28143 1.51672 0
M  V30 3716 O 354.038 -3.27347 2.91163 0
M  V30 3717 C 355.539 -4.21493 1.37326 0
M  V30 3718 H 352.759 -0.573455 0.348411 0
M  V30 3719 H 355.303 -1.32808 1.55506 0
M  V30 3720 H 353.458 -3.74582 0.988302 0
M  V30 3721 H 353.872 -4.18824 3.15732 0
M  V30 3722 H 355.346 -5.22043 1.79375 0
M  V30 3723 H 355.823 -4.38031 0.320169 0
M  V30 3724 H 356.429 -3.80909 1.89178 0
M  V30 3725 N 354.744 -0.972509 -1.24016 0
M  V30 3726 C 355.969 -0.654417 -1.96805 0
M  V30 3727 C 356.394 0.770398 -1.716 0
M  V30 3728 O 355.752 1.52361 -0.982647 0
M  V30 3729 C 355.8 -0.941031 -3.48105 0
M  V30 3730 O 354.904 -0.0289472 -4.1239 0
M  V30 3731 H 354.245 -0.24692 -0.616382 0
M  V30 3732 H 356.775 -1.30396 -1.57664 0
M  V30 3733 H 356.785 -0.87452 -3.98517 0
M  V30 3734 H 355.46 -1.97939 -3.65777 0
M  V30 3735 H 354.037 -0.149192 -3.72601 0
M  V30 3736 N 356.222 1.38976 -0.743202 0
M  V30 3737 C 357.45 2.04636 -0.30525 0
M  V30 3738 C 357.865 1.56044 1.06281 0
M  V30 3739 O 357.222 0.728921 1.67311 0
M  V30 3740 C 357.273 3.60193 -0.307177 0
M  V30 3741 O 356.994 4.06998 -1.62124 0
M  V30 3742 C 358.495 4.4306 0.145928 0
M  V30 3743 H 355.715 0.65788 -0.132041 0
M  V30 3744 H 358.259 1.77866 -1.00915 0
M  V30 3745 H 356.414 3.85835 0.347898 0
M  V30 3746 H 356.828 5.01371 -1.54036 0
M  V30 3747 H 358.302 5.51921 0.0934183 0
M  V30 3748 H 358.779 4.22706 1.19231 0
M  V30 3749 H 359.385 4.22584 -0.479886 0
M  V30 3750 N 357.7 0.491464 1.49741 0
M  V30 3751 C 358.946 -0.0565092 2.02721 0
M  V30 3752 C 359.279 -1.37522 1.37118 0
M  V30 3753 O 358.554 -1.87866 0.503645 0
M  V30 3754 C 358.837 -0.219051 3.59433 0
M  V30 3755 C 358.69 1.12211 4.35579 0
M  V30 3756 C 360.009 -0.964157 4.29409 0
M  V30 3757 H 357.128 -0.0190627 0.736753 0
M  V30 3758 H 359.77 0.641021 1.7886 0
M  V30 3759 H 357.92 -0.813165 3.79895 0
M  V30 3760 H 359.592 1.75437 4.26637 0
M  V30 3761 H 357.835 1.71377 3.98513 0
M  V30 3762 H 358.506 0.961794 5.43556 0
M  V30 3763 H 360.982 -0.460378 4.13545 0
M  V30 3764 H 359.858 -1.04671 5.38828 0
M  V30 3765 H 360.119 -2.00563 3.93988 0
M  V30 3766 N 359.178 -1.55987 0.224894 0
M  V30 3767 C 360.088 -2.24066 -0.69511 0
M  V30 3768 C 361.104 -1.24939 -1.21104 0
M  V30 3769 O 362.28 -1.5776 -1.25195 0
M  V30 3770 C 359.345 -2.90983 -1.88493 0
M  V30 3771 C 358.406 -4.05462 -1.41064 0
M  V30 3772 C 357.639 -4.69179 -2.54375 0
M  V30 3773 O 357.862 -4.31895 -3.72589 0
M  V30 3774 O 356.796 -5.58108 -2.25386 0
M  V30 3775 H 360.622 -3.03353 -0.145149 0
M  V30 3776 H 358.207 -1.49399 -0.00569476 0
M  V30 3777 H 360.089 -3.33209 -2.57972 0
M  V30 3778 H 358.764 -2.14653 -2.42293 0
M  V30 3779 H 357.671 -3.67798 -0.683774 0
M  V30 3780 H 359.004 -4.83545 -0.918985 0
M  V30 3781 N 360.656 0.0484629 -1.57525 0
M  V30 3782 C 361.566 1.07241 -2.08654 0
M  V30 3783 C 362.582 1.409 -1.02095 0
M  V30 3784 O 363.758 1.50609 -1.33712 0
M  V30 3785 C 360.823 2.36008 -2.5397 0
M  V30 3786 C 359.884 2.09108 -3.7493 0
M  V30 3787 C 359.117 3.31736 -4.18075 0
M  V30 3788 O 359.34 4.41714 -3.60895 0
M  V30 3789 O 358.274 3.18576 -5.10679 0
M  V30 3790 H 362.1 0.667965 -2.96263 0
M  V30 3791 H 359.685 0.26417 -1.47046 0
M  V30 3792 H 361.567 3.11747 -2.83535 0
M  V30 3793 H 360.242 2.75786 -1.69481 0
M  V30 3794 H 359.149 1.31 -3.50414 0
M  V30 3795 H 360.482 1.74198 -4.60343 0
M  V30 3796 N 362.134 1.5431 0.320358 0
M  V30 3797 C 363.066 1.80262 1.41556 0
M  V30 3798 C 364.079 0.684723 1.477 0
M  V30 3799 O 365.268 0.961886 1.50366 0
M  V30 3800 C 362.368 1.90825 2.8007 0
M  V30 3801 C 361.541 3.21023 2.97091 0
M  V30 3802 C 360.6 3.22247 4.15985 0
M  V30 3803 O 359.626 3.95871 4.08992 0
M  V30 3804 N 360.828 2.46258 5.25678 0
M  V30 3805 H 363.593 2.74778 1.19655 0
M  V30 3806 H 361.154 1.53646 0.510358 0
M  V30 3807 H 363.146 1.89067 3.57821 0
M  V30 3808 H 361.716 1.03392 2.95006 0
M  V30 3809 H 360.936 3.35715 2.06614 0
M  V30 3810 H 362.224 4.0698 3.05361 0
M  V30 3811 H 361.622 1.86037 5.34235 0
M  V30 3812 H 360.179 2.50275 6.01835 0
M  V30 3813 N 363.613 -0.582584 1.46437 0
M  V30 3814 C 364.862 -1.337 1.5102 0
M  V30 3815 C 365.175 -1.94891 0.166359 0
M  V30 3816 O 366.381 -2.71351 0.0899954 0
M  V30 3817 C 364.837 -2.42315 2.66104 0
M  V30 3818 C 364.445 -1.87427 4.06909 0
M  V30 3819 C 366.189 -3.19099 2.79958 0
M  V30 3820 C 364.096 -2.93672 5.13333 0
M  V30 3821 H 363.026 -0.502619 0.562041 0
M  V30 3822 H 365.677 -0.621701 1.72647 0
M  V30 3823 H 364.059 -3.16645 2.37807 0
M  V30 3824 H 365.233 -1.19639 4.44998 0
M  V30 3825 H 363.548 -1.2331 3.97723 0
M  V30 3826 H 366.145 -3.9839 3.56636 0
M  V30 3827 H 366.488 -3.71695 1.87479 0
M  V30 3828 H 367.021 -2.51875 3.07902 0
M  V30 3829 H 363.76 -2.45962 6.07604 0
M  V30 3830 H 363.28 -3.59948 4.79789 0
M  V30 3831 H 364.959 -3.5762 5.39182 0
M  V30 3832 N 365.091 -1.34144 -0.827227 0
M  V30 3833 C 366.023 -1.21206 -1.9453 0
M  V30 3834 C 367.036 -0.140176 -1.62195 0
M  V30 3835 O 368.225 -0.391647 -1.7415 0
M  V30 3836 C 365.325 -0.839141 -3.28347 0
M  V30 3837 C 364.498 -2.0051 -3.88734 0
M  V30 3838 C 363.557 -1.61128 -5.00923 0
M  V30 3839 O 362.583 -2.32726 -5.19449 0
M  V30 3840 N 363.785 -0.522958 -5.7814 0
M  V30 3841 H 366.55 -2.17525 -2.06162 0
M  V30 3842 H 364.111 -1.27043 -1.00358 0
M  V30 3843 H 366.103 -0.557556 -4.00841 0
M  V30 3844 H 364.673 0.0337293 -3.12582 0
M  V30 3845 H 363.893 -2.45166 -3.08686 0
M  V30 3846 H 365.181 -2.78498 -4.25812 0
M  V30 3847 H 364.579 0.0723518 -5.65654 0
M  V30 3848 H 363.136 -0.301089 -6.51104 0
M  V30 3849 N 366.569 1.04691 -1.17803 0
M  V30 3850 C 367.815 1.78181 -0.980977 0
M  V30 3851 C 368.17 1.86191 0.484825 0
M  V30 3852 O 367.463 1.35436 1.35527 0
M  V30 3853 C 367.657 3.21467 -1.56186 0
M  V30 3854 C 367.486 3.27422 -3.08261 0
M  V30 3855 C 366.256 3.36415 -3.77032 0
M  V30 3856 C 368.454 3.15947 -4.0581 0
M  V30 3857 N 366.436 3.31554 -5.16667 0
M  V30 3858 C 367.807 3.18514 -5.31929 0
M  V30 3859 C 369.862 2.99945 -3.97413 0
M  V30 3860 C 368.565 3.06723 -6.50625 0
M  V30 3861 C 370.591 2.89497 -5.15699 0
M  V30 3862 C 369.953 2.92702 -6.40706 0
M  V30 3863 H 366.052 0.6641 -0.412911 0
M  V30 3864 H 368.636 1.24762 -1.49474 0
M  V30 3865 H 366.807 3.73245 -1.07436 0
M  V30 3866 H 368.539 3.8322 -1.30093 0
M  V30 3867 H 365.294 3.41887 -3.27735 0
M  V30 3868 H 365.718 3.3258 -5.89678 0
M  V30 3869 H 370.36 2.96302 -3.01604 0
M  V30 3870 H 368.078 3.0912 -7.46639 0
M  V30 3871 H 371.664 2.78179 -5.10987 0
M  V30 3872 H 370.544 2.84697 -7.30696 0
M  V30 3873 N 368.047 0.979072 1.23499 0
M  V30 3874 C 368.98 0.463027 2.23453 0
M  V30 3875 C 369.958 -0.469128 1.55685 0
M  V30 3876 O 371.142 -0.397882 1.84253 0
M  V30 3877 C 368.269 -0.330308 3.37086 0
M  V30 3878 C 367.315 0.545795 4.22993 0
M  V30 3879 S 368.148 1.99285 4.97037 0
M  V30 3880 C 369.304 1.20862 6.1412 0
M  V30 3881 H 369.537 1.31005 2.6688 0
M  V30 3882 H 367.07 0.784965 1.32957 0
M  V30 3883 H 369.028 -0.782027 4.02982 0
M  V30 3884 H 367.689 -1.15244 2.92194 0
M  V30 3885 H 366.882 -0.0638928 5.03959 0
M  V30 3886 H 366.484 0.933705 3.62157 0
M  V30 3887 H 368.776 0.469284 6.75873 0
M  V30 3888 H 369.719 1.99307 6.79472 0
M  V30 3889 H 370.127 0.727992 5.59786 0
M  V30 3890 N 369.525 -1.3858 0.750561 0
M  V30 3891 C 370.755 -2.04175 0.31564 0
M  V30 3892 C 371.163 -1.56726 -1.05989 0
M  V30 3893 O 370.506 -0.734225 -1.68389 0
M  V30 3894 C 370.568 -3.58585 0.256389 0
M  V30 3895 C 370.232 -4.29077 1.57296 0
M  V30 3896 C 371.229 -4.54656 2.52159 0
M  V30 3897 C 368.914 -4.67324 1.84156 0
M  V30 3898 C 370.908 -5.17512 3.72103 0
M  V30 3899 C 368.595 -5.29905 3.04374 0
M  V30 3900 C 369.593 -5.54933 3.98168 0
M  V30 3901 O 369.281 -6.16212 5.16273 0
M  V30 3902 H 369.013 -0.662742 0.133226 0
M  V30 3903 H 371.567 -1.78313 1.01948 0
M  V30 3904 H 369.797 -3.83406 -0.503677 0
M  V30 3905 H 371.486 -4.05628 -0.148612 0
M  V30 3906 H 372.252 -4.25539 2.32683 0
M  V30 3907 H 368.131 -4.47191 1.11988 0
M  V30 3908 H 371.675 -5.36963 4.45327 0
M  V30 3909 H 367.572 -5.58444 3.23745 0
M  V30 3910 H 368.34 -6.34701 5.16815 0
M  V30 3911 N 371.003 -0.499398 -1.49478 0
M  V30 3912 C 372.419 -0.155261 -1.58843 0
M  V30 3913 C 372.619 1.34008 -1.50479 0
M  V30 3914 O 371.675 2.11589 -1.37791 0
M  V30 3915 C 372.988 -0.730636 -2.91689 0
M  V30 3916 C 374.536 -0.696599 -3.0515 0
M  V30 3917 C 375.011 -1.25001 -4.40612 0
M  V30 3918 N 376.502 -1.21064 -4.47099 0
M  V30 3919 C 377.237 -1.60905 -5.50361 0
M  V30 3920 N 376.733 -2.08331 -6.60735 0
M  V30 3921 N 378.526 -1.52331 -5.41065 0
M  V30 3922 H 370.677 -1.47162 -1.53158 0
M  V30 3923 H 372.94 -0.610309 -0.725415 0
M  V30 3924 H 372.646 -1.77928 -3.03372 0
M  V30 3925 H 372.52 -0.190161 -3.7672 0
M  V30 3926 H 374.907 0.343204 -2.93097 0
M  V30 3927 H 374.988 -1.2742 -2.21806 0
M  V30 3928 H 374.632 -2.28859 -4.53416 0
M  V30 3929 H 374.562 -0.64836 -5.22593 0
M  V30 3930 H 377.053 -0.863128 -3.67911 0
M  V30 3931 H 377.366 -2.36805 -7.35624 0
M  V30 3932 H 375.711 -2.12304 -6.6178 0
M  V30 3933 H 378.902 -1.151 -4.53729 0
M  V30 3934 H 379.075 -1.83704 -6.21415 0
M  V30 3935 N 372.481 1.55866 -0.233164 0
M  V30 3936 C 373.413 2.18099 0.704668 0
M  V30 3937 C 374.426 1.15334 1.14899 0
M  V30 3938 O 375.615 1.42262 1.07814 0
M  V30 3939 C 372.715 2.7592 1.96777 0
M  V30 3940 C 371.888 4.03969 1.67713 0
M  V30 3941 C 370.947 4.46242 2.78845 0
M  V30 3942 O 369.973 5.12903 2.46818 0
M  V30 3943 N 371.175 4.12886 4.08051 0
M  V30 3944 H 373.94 2.99205 0.172258 0
M  V30 3945 H 371.501 1.61815 -0.0525945 0
M  V30 3946 H 373.493 3.01165 2.70337 0
M  V30 3947 H 372.063 1.99051 2.41034 0
M  V30 3948 H 371.283 3.86459 0.777391 0
M  V30 3949 H 372.571 4.8748 1.4574 0
M  V30 3950 H 371.969 3.59342 4.3691 0
M  V30 3951 H 370.526 4.42997 4.78118 0
M  V30 3952 N 373.959 -0.0401083 1.57549 0
M  V30 3953 C 374.891 -1.07149 2.02612 0
M  V30 3954 C 375.904 -1.33126 0.937085 0
M  V30 3955 O 377.093 -1.30808 1.21456 0
M  V30 3956 C 374.193 -2.41561 2.37701 0
M  V30 3957 C 373.366 -2.35096 3.68848 0
M  V30 3958 C 372.425 -3.51867 3.91249 0
M  V30 3959 O 371.451 -3.3186 4.62447 0
M  V30 3960 N 372.653 -4.73351 3.36035 0
M  V30 3961 H 375.418 -0.687485 2.91708 0
M  V30 3962 H 372.979 -0.228248 1.60283 0
M  V30 3963 H 374.971 -3.18379 2.49833 0
M  V30 3964 H 373.541 -2.71846 1.54332 0
M  V30 3965 H 372.761 -1.4345 3.67173 0
M  V30 3966 H 374.049 -2.27908 4.54901 0
M  V30 3967 H 373.447 -4.92507 2.78304 0
M  V30 3968 H 372.004 -5.47572 3.53565 0
M  V30 3969 N 375.437 -1.54477 -0.31217 0
M  V30 3970 C 376.385 -1.85395 -1.40469 0
M  V30 3971 C 377.379 -0.726749 -1.53019 0
M  V30 3972 O 378.585 -0.910582 -1.55269 0
M  V30 3973 H 374.96 -0.587845 -0.46898 0
M  V30 3974 H 376.931 -2.76736 -1.11623 0
M  V30 3975 C 375.68 -2.10811 -2.76503 0
M  V30 3976 H 375.003 -2.97014 -2.67625 0
M  V30 3977 H 376.443 -2.3639 -3.51988 0
M  V30 3978 C 374.902 -0.903165 -3.24568 0
M  V30 3979 O 375.432 -0.118085 -4.01526 0
M  V30 3980 N 373.638 -0.711634 -2.81752 0
M  V30 3981 H 373.185 -1.35171 -2.19286 0
M  V30 3982 H 373.143 0.0930473 -3.14262 0
M  V30 3983 N 376.915 0.57481 -1.46744 0
M  V30 3984 C 378.326 1.15695 -1.46532 0
M  V30 3985 C 378.677 1.95068 -0.210425 0
M  V30 3986 O 377.802 2.05241 0.685944 0
M  V30 3987 C 378.397 2.1048 -2.65487 0
M  V30 3988 C 376.956 2.64002 -2.68291 0
M  V30 3989 C 376.103 1.40026 -2.39349 0
M  V30 3990 H 379.054 0.362325 -1.54509 0
M  V30 3991 H 379.075 2.94074 -2.41455 0
M  V30 3992 H 378.587 1.52683 -3.56805 0
M  V30 3993 H 376.688 3.25646 -1.81067 0
M  V30 3994 H 376.801 3.06197 -3.68483 0
M  V30 3995 H 375.165 1.70106 -1.89568 0
M  V30 3996 H 375.948 0.840485 -3.32852 0
M  V30 3997 N 378.394 1.34581 0.820102 0
M  V30 3998 C 379.643 1.26437 1.57151 0
M  V30 3999 C 379.956 -0.163111 1.94919 0
M  V30 4000 O 381.162 -0.366722 2.69012 0
M  V30 4001 C 379.618 2.21658 2.83541 0
M  V30 4002 C 379.226 3.69679 2.53065 0
M  V30 4003 C 380.97 2.22428 3.61561 0
M  V30 4004 C 378.877 4.56761 3.75664 0
M  V30 4005 H 377.807 0.469707 0.589823 0
M  V30 4006 H 380.458 1.59763 0.902656 0
M  V30 4007 H 378.84 1.81287 3.52067 0
M  V30 4008 H 380.014 4.18605 1.92631 0
M  V30 4009 H 378.329 3.71384 1.88316 0
M  V30 4010 H 380.926 2.8471 4.52597 0
M  V30 4011 H 381.269 1.22434 3.97889 0
M  V30 4012 H 381.802 2.61259 2.99981 0
M  V30 4013 H 378.541 5.57702 3.44454 0
M  V30 4014 H 378.061 4.12568 4.35371 0
M  V30 4015 H 379.74 4.71509 4.43044 0
M  V30 4016 N 379.872 -1.04064 1.18357 0
M  V30 4017 C 381.283 -1.58719 0.98312 0
M  V30 4018 C 381.634 -1.90556 -0.467193 0
M  V30 4019 O 380.759 -1.69561 -1.34454 0
M  V30 4020 C 381.354 -2.88379 1.77828 0
M  V30 4021 C 379.913 -3.3965 1.62218 0
M  V30 4022 C 379.06 -2.13235 1.77274 0
M  V30 4023 H 382.011 -0.867359 1.32901 0
M  V30 4024 H 382.032 -3.58773 1.26737 0
M  V30 4025 H 381.544 -2.65176 2.83379 0
M  V30 4026 H 379.645 -3.67866 0.592036 0
M  V30 4027 H 379.758 -4.13475 2.42023 0
M  V30 4028 H 378.122 -2.24542 1.20221 0
M  V30 4029 H 378.905 -1.92487 2.8426 0
M  V30 4030 N 381.35 -0.985608 -1.22978 0
M  V30 4031 C 382.596 -0.65836 -1.91816 0
M  V30 4032 C 382.929 0.806692 -1.76653 0
M  V30 4033 O 382.204 1.58252 -1.13078 0
M  V30 4034 C 382.487 -1.056 -3.44268 0
M  V30 4035 C 382.34 -2.57906 -3.68516 0
M  V30 4036 C 383.659 -0.603781 -4.35939 0
M  V30 4037 H 380.778 -0.24065 -0.696604 0
M  V30 4038 H 383.42 -1.22783 -1.44998 0
M  V30 4039 H 381.57 -0.571445 -3.84274 0
M  V30 4040 H 383.242 -3.13976 -3.3796 0
M  V30 4041 H 381.485 -3.00305 -3.13048 0
M  V30 4042 H 382.156 -2.80779 -4.75255 0
M  V30 4043 H 384.632 -1.01987 -4.03408 0
M  V30 4044 H 383.508 -0.910383 -5.41298 0
M  V30 4045 H 383.769 0.495761 -4.39312 0
M  V30 4046 N 382.828 1.3818 -0.7579 0
M  V30 4047 C 384.076 1.99624 -0.315361 0
M  V30 4048 C 384.397 1.60464 1.10799 0
M  V30 4049 O 383.667 0.863507 1.75842 0
M  V30 4050 H 382.247 0.73831 -0.113611 0
M  V30 4051 H 384.909 1.68878 -0.972952 0
M  V30 4052 H 384.005 3.09754 -0.381931 0
M  V30 4053 N 384.306 0.507319 1.49211 0
M  V30 4054 C 385.254 -0.281364 2.30892 0
M  V30 4055 C 386.248 -0.95687 1.39787 0
M  V30 4056 O 387.454 -0.883838 1.56807 0
M  V30 4057 H 383.829 -0.109597 0.743971 0
M  V30 4058 H 385.8 0.42744 2.95323 0
M  V30 4059 C 384.549 -1.32918 3.21291 0
M  V30 4060 H 383.872 -0.818799 3.91326 0
M  V30 4061 H 385.312 -1.85288 3.81372 0
M  V30 4062 C 383.771 -2.35074 2.41333 0
M  V30 4063 O 384.301 -3.4108 2.12197 0
M  V30 4064 N 382.507 -2.07705 2.03241 0
M  V30 4065 H 382.054 -1.2152 2.27136 0
M  V30 4066 H 382.012 -2.76283 1.50051 0
M  V30 4067 N 385.784 -1.5574 0.241426 0
M  V30 4068 C 387.033 -1.97986 -0.385295 0
M  V30 4069 C 387.346 -1.13267 -1.59468 0
M  V30 4070 O 388.552 -1.45501 -2.2922 0
M  V30 4071 C 387.008 -3.52275 -0.736884 0
M  V30 4072 C 386.616 -4.45726 0.450796 0
M  V30 4073 C 388.36 -4.03189 -1.3281 0
M  V30 4074 C 386.267 -5.91352 0.0756662 0
M  V30 4075 H 385.197 -0.739386 -0.147731 0
M  V30 4076 H 387.848 -1.80308 0.340779 0
M  V30 4077 H 386.23 -3.65628 -1.52094 0
M  V30 4078 H 387.404 -4.44131 1.22819 0
M  V30 4079 H 385.719 -4.05264 0.956573 0
M  V30 4080 H 388.316 -5.09505 -1.62201 0
M  V30 4081 H 388.659 -3.50212 -2.25071 0
M  V30 4082 H 389.192 -3.93141 -0.607069 0
M  V30 4083 H 385.931 -6.48354 0.965272 0
M  V30 4084 H 385.451 -5.96095 -0.665635 0
M  V30 4085 H 387.13 -6.46084 -0.344075 0
M  V30 4086 N 387.262 0.0317525 -1.57568 0
M  V30 4087 C 388.492 0.733884 -1.93126 0
M  V30 4088 C 388.9 1.69563 -0.839352 0
M  V30 4089 O 388.243 1.82681 0.193175 0
M  V30 4090 C 388.305 1.54798 -3.24465 0
M  V30 4091 C 387.969 0.751304 -4.50782 0
M  V30 4092 C 388.966 0.0527632 -5.19873 0
M  V30 4093 C 386.651 0.706639 -4.97305 0
M  V30 4094 C 388.645 -0.679774 -6.33765 0
M  V30 4095 C 386.332 -0.0296449 -6.11093 0
M  V30 4096 C 387.33 -0.721614 -6.79177 0
M  V30 4097 O 387.018 -1.44595 -7.90789 0
M  V30 4098 H 386.75 0.211459 -0.642076 0
M  V30 4099 H 389.304 -0.00585615 -2.05399 0
M  V30 4100 H 387.534 2.33147 -3.08512 0
M  V30 4101 H 389.223 2.13247 -3.4537 0
M  V30 4102 H 389.989 0.0783188 -4.84937 0
M  V30 4103 H 385.868 1.23474 -4.44157 0
M  V30 4104 H 389.412 -1.22042 -6.86842 0
M  V30 4105 H 385.309 -0.0571331 -6.45475 0
M  V30 4106 H 386.077 -1.35935 -8.07133 0
M  V30 4107 N 388.74 1.54641 0.303973 0
M  V30 4108 C 390.156 1.45788 0.649463 0
M  V30 4109 C 390.356 0.64666 1.90842 0
M  V30 4110 O 389.412 0.153183 2.52035 0
M  V30 4111 C 390.725 2.89718 0.805227 0
M  V30 4112 C 392.273 2.99742 0.901305 0
M  V30 4113 C 392.748 4.44863 1.08909 0
M  V30 4114 N 394.239 4.48559 1.15536 0
M  V30 4115 C 394.974 5.58026 1.3189 0
M  V30 4116 N 394.47 6.77422 1.45161 0
M  V30 4117 N 396.263 5.45708 1.34755 0
M  V30 4118 H 388.414 2.05854 -0.523237 0
M  V30 4119 H 390.677 0.932186 -0.172431 0
M  V30 4120 H 390.383 3.51666 -0.0489108 0
M  V30 4121 H 390.257 3.36964 1.69513 0
M  V30 4122 H 392.644 2.3791 1.74593 0
M  V30 4123 H 392.725 2.55797 -0.0125531 0
M  V30 4124 H 392.369 5.07288 0.249241 0
M  V30 4125 H 392.299 4.86436 2.01713 0
M  V30 4126 H 394.79 3.6254 1.06646 0
M  V30 4127 H 395.103 7.56604 1.57387 0
M  V30 4128 H 393.448 6.80292 1.42223 0
M  V30 4129 H 396.639 4.51378 1.23996 0
M  V30 4130 H 396.812 6.3107 1.47157 0
M  V30 4131 N 390.218 -0.567019 1.47046 0
M  V30 4132 C 391.634 -0.891975 1.32348 0
M  V30 4133 C 391.834 -1.99154 0.306616 0
M  V30 4134 O 390.89 -2.50883 -0.28532 0
M  V30 4135 C 392.203 -1.29449 2.7141 0
M  V30 4136 C 393.751 -1.40646 2.79621 0
M  V30 4137 C 394.226 -1.84257 4.19301 0
M  V30 4138 N 395.717 -1.91424 4.21795 0
M  V30 4139 C 396.452 -2.26476 5.26779 0
M  V30 4140 N 395.948 -2.60211 6.42077 0
M  V30 4141 N 397.741 -2.27166 5.14152 0
M  V30 4142 H 389.892 0.159074 2.11803 0
M  V30 4143 H 392.155 0.00849752 0.947962 0
M  V30 4144 H 391.861 -0.560448 3.47206 0
M  V30 4145 H 391.735 -2.25273 3.02542 0
M  V30 4146 H 394.122 -2.13133 2.04104 0
M  V30 4147 H 394.203 -0.430339 2.52154 0
M  V30 4148 H 393.847 -1.12343 4.95319 0
M  V30 4149 H 393.777 -2.82855 4.44185 0
M  V30 4150 H 396.268 -1.6778 3.38612 0
M  V30 4151 H 396.581 -2.85956 7.17948 0
M  V30 4152 H 394.926 -2.57813 6.45413 0
M  V30 4153 H 398.117 -2.00244 4.23107 0
M  V30 4154 H 398.29 -2.54154 5.96079 0
M  V30 4155 N 391.696 -1.35014 -0.812953 0
M  V30 4156 C 392.942 -1.29129 -1.57154 0
M  V30 4157 C 393.297 0.134922 -1.91926 0
M  V30 4158 O 392.59 1.08373 -1.58006 0
M  V30 4159 C 392.784 -2.12524 -2.87347 0
M  V30 4160 C 392.613 -3.6311 -2.65294 0
M  V30 4161 C 391.383 -4.32363 -2.61516 0
M  V30 4162 C 393.581 -4.56897 -2.36114 0
M  V30 4163 N 391.563 -5.68735 -2.31113 0
M  V30 4164 C 392.934 -5.81345 -2.15494 0
M  V30 4165 C 394.989 -4.45706 -2.21925 0
M  V30 4166 C 393.692 -6.95862 -1.82122 0
M  V30 4167 C 395.718 -5.60066 -1.89948 0
M  V30 4168 C 395.08 -6.83539 -1.7016 0
M  V30 4169 H 391.179 -0.527764 -0.577052 0
M  V30 4170 H 393.763 -1.6983 -0.952146 0
M  V30 4171 H 391.934 -1.74104 -3.47192 0
M  V30 4172 H 393.666 -1.98207 -3.5284 0
M  V30 4173 H 390.421 -3.84907 -2.75941 0
M  V30 4174 H 390.845 -6.40694 -2.18724 0
M  V30 4175 H 395.487 -3.50855 -2.35925 0
M  V30 4176 H 393.205 -7.90685 -1.6686 0
M  V30 4177 H 396.791 -5.53357 -1.79687 0
M  V30 4178 H 395.671 -7.70531 -1.45777 0
M  V30 4179 N 393.175 1.03435 -1.18907 0
M  V30 4180 C 394.424 1.76143 -0.982669 0
M  V30 4181 C 394.737 1.89416 0.487953 0
M  V30 4182 O 395.943 2.59041 0.813036 0
M  V30 4183 C 394.399 3.16722 -1.70924 0
M  V30 4184 C 394.007 3.11522 -3.21959 0
M  V30 4185 C 395.751 3.93764 -1.58588 0
M  V30 4186 C 393.658 4.46999 -3.87228 0
M  V30 4187 H 392.588 0.660292 -0.364047 0
M  V30 4188 H 395.239 1.158 -1.42347 0
M  V30 4189 H 393.621 3.775 -1.19623 0
M  V30 4190 H 394.795 2.60158 -3.80335 0
M  V30 4191 H 393.11 2.47978 -3.34508 0
M  V30 4192 H 395.707 4.93963 -2.04707 0
M  V30 4193 H 396.05 4.12794 -0.539142 0
M  V30 4194 H 396.583 3.39576 -2.07203 0
M  V30 4195 H 393.322 4.33174 -4.91976 0
M  V30 4196 H 392.842 4.98441 -3.33642 0
M  V30 4197 H 394.521 5.15898 -3.90459 0
M  V30 4198 N 394.653 0.992116 1.22453 0
M  V30 4199 C 395.585 0.500024 2.23679 0
M  V30 4200 C 396.598 -0.404463 1.57696 0
M  V30 4201 O 397.787 -0.206722 1.77299 0
M  V30 4202 C 394.887 -0.294711 3.37616 0
M  V30 4203 C 394.06 0.605723 4.33186 0
M  V30 4204 C 393.119 -0.13717 5.26021 0
M  V30 4205 O 392.145 0.477164 5.67196 0
M  V30 4206 N 393.347 -1.4197 5.62872 0
M  V30 4207 H 396.112 1.37045 2.66531 0
M  V30 4208 H 393.673 0.866741 1.36745 0
M  V30 4209 H 395.665 -0.800329 3.96707 0
M  V30 4210 H 394.235 -1.06623 2.93854 0
M  V30 4211 H 393.455 1.29202 3.72425 0
M  V30 4212 H 394.743 1.21896 4.93983 0
M  V30 4213 H 394.141 -1.94015 5.31389 0
M  V30 4214 H 392.698 -1.87052 6.24383 0
M  V30 4215 N 396.131 -1.37776 0.765217 0
M  V30 4216 C 397.061 -2.32945 0.160953 0
M  V30 4217 C 398.042 -1.55454 -0.690516 0
M  V30 4218 O 399.227 -1.83721 -0.629318 0
M  V30 4219 C 396.357 -3.39669 -0.724031 0
M  V30 4220 C 395.311 -4.27992 0.0256173 0
M  V30 4221 C 394.637 -5.25673 -0.978383 0
M  V30 4222 C 395.937 -5.08309 1.20082 0
M  V30 4223 H 397.631 -2.83728 0.955969 0
M  V30 4224 H 395.177 -1.36416 0.461149 0
M  V30 4225 H 397.13 -4.05219 -1.15652 0
M  V30 4226 H 395.854 -2.87396 -1.5515 0
M  V30 4227 H 394.513 -3.63964 0.438812 0
M  V30 4228 H 394.161 -4.69682 -1.80022 0
M  V30 4229 H 393.861 -5.85625 -0.481378 0
M  V30 4230 H 395.385 -5.94098 -1.40995 0
M  V30 4231 H 396.799 -5.67034 0.845307 0
M  V30 4232 H 395.196 -5.77554 1.62947 0
M  V30 4233 H 396.266 -4.41365 2.00811 0
M  V30 4234 N 397.609 -0.515225 -1.4894 0
M  V30 4235 C 398.857 0.0241671 -2.02086 0
M  V30 4236 C 399.178 1.3616 -1.3959 0
M  V30 4237 O 398.448 1.87841 -0.556121 0
M  V30 4238 H 397.028 0.0119203 -0.746905 0
M  V30 4239 H 399.69 -0.675702 -1.82812 0
M  V30 4240 H 398.786 0.143385 -3.1177 0
M  V30 4241 N 399.087 1.5561 -0.249682 0
M  V30 4242 C 400.017 2.24477 0.642826 0
M  V30 4243 C 400.998 1.22601 1.17911 0
M  V30 4244 O 402.183 1.5126 1.21795 0
M  V30 4245 C 399.313 2.94638 1.83863 0
M  V30 4246 C 398.267 4.03227 1.435 0
M  V30 4247 C 397.593 4.60828 2.71186 0
M  V30 4248 C 398.893 5.18796 0.604002 0
M  V30 4249 H 400.587 2.99321 0.0685625 0
M  V30 4250 H 398.133 1.43965 0.0315363 0
M  V30 4251 H 400.086 3.41517 2.46868 0
M  V30 4252 H 398.81 2.17287 2.43832 0
M  V30 4253 H 397.469 3.57121 0.828275 0
M  V30 4254 H 397.117 3.80174 3.29358 0
M  V30 4255 H 396.817 5.34132 2.44901 0
M  V30 4256 H 398.341 5.10442 3.35084 0
M  V30 4257 H 399.755 5.61883 1.13842 0
M  V30 4258 H 398.152 5.98506 0.437097 0
M  V30 4259 H 399.222 4.83384 -0.383147 0
M  V30 4260 N 400.565 -0.0233959 1.57583 0
M  V30 4261 C 401.497 -1.04994 2.03737 0
M  V30 4262 C 402.51 -1.32125 0.951152 0
M  V30 4263 O 403.699 -1.29512 1.22837 0
M  V30 4264 C 400.799 -2.39026 2.40249 0
M  V30 4265 C 399.972 -2.31171 3.7132 0
M  V30 4266 C 399.031 -3.47698 3.94959 0
M  V30 4267 O 398.057 -3.26937 4.65941 0
M  V30 4268 N 399.259 -4.6976 3.41037 0
M  V30 4269 H 402.024 -0.656507 2.92421 0
M  V30 4270 H 399.585 -0.211235 1.60516 0
M  V30 4271 H 401.577 -3.15712 2.53196 0
M  V30 4272 H 400.147 -2.70194 1.57207 0
M  V30 4273 H 399.367 -1.39547 3.68674 0
M  V30 4274 H 400.655 -2.23071 4.57293 0
M  V30 4275 H 400.053 -4.89528 2.83512 0
M  V30 4276 H 398.61 -5.43791 3.59353 0
M  V30 4277 N 402.043 -1.548 -0.295768 0
M  V30 4278 C 402.99 -1.86113 -1.36494 0
M  V30 4279 C 403.96 -0.7105 -1.50137 0
M  V30 4280 O 405.145 -0.959626 -1.64912 0
M  V30 4281 C 402.285 -2.11861 -2.72413 0
M  V30 4282 C 401.398 -3.39471 -2.67177 0
M  V30 4283 C 400.533 -3.55035 -3.95125 0
M  V30 4284 C 399.572 -4.76418 -3.84308 0
M  V30 4285 N 398.709 -4.8876 -5.04042 0
M  V30 4286 H 403.549 -2.77314 -1.09091 0
M  V30 4287 H 401.086 -1.37315 -0.52753 0
M  V30 4288 H 403.044 -2.24786 -3.51464 0
M  V30 4289 H 401.674 -1.2392 -2.98066 0
M  V30 4290 H 400.726 -3.35139 -1.79962 0
M  V30 4291 H 402.038 -4.28646 -2.55076 0
M  V30 4292 H 401.192 -3.67653 -4.82614 0
M  V30 4293 H 399.931 -2.64002 -4.10066 0
M  V30 4294 H 398.936 -4.63827 -2.95202 0
M  V30 4295 H 400.161 -5.68863 -3.70906 0
M  V30 4296 H 398.107 -4.00652 -5.19436 0
M  V30 4297 H 398.024 -5.71945 -4.94384 0
M  V30 4298 H 399.292 -5.0574 -5.93167 0
M  V30 4299 N 403.521 0.559213 -1.47345 0
M  V30 4300 C 404.761 1.32728 -1.55444 0
M  V30 4301 C 405.125 1.90838 -0.210895 0
M  V30 4302 O 406.326 2.68282 -0.166719 0
M  V30 4303 C 404.597 2.4092 -2.63993 0
M  V30 4304 S 406.156 3.2784 -2.91661 0
M  V30 4305 H 402.974 0.451883 -0.548929 0
M  V30 4306 H 405.576 0.640404 -1.84714 0
M  V30 4307 H 404.28 1.9666 -3.60212 0
M  V30 4308 H 403.811 3.14351 -2.36531 0
M  V30 4309 H 405.826 4.40341 -2.28722 0
M  V30 4310 N 404.999 1.35443 0.805782 0
M  V30 4311 C 406.245 1.28952 1.56522 0
M  V30 4312 C 406.578 -0.135597 1.93726 0
M  V30 4313 O 405.853 -1.08516 1.61414 0
M  V30 4314 C 406.136 2.19678 2.85331 0
M  V30 4315 C 405.989 3.7081 2.54598 0
M  V30 4316 C 407.308 2.09495 3.8704 0
M  V30 4317 H 404.427 0.469764 0.567883 0
M  V30 4318 H 407.069 1.65851 0.927001 0
M  V30 4319 H 405.219 1.8834 3.39795 0
M  V30 4320 H 406.891 4.12593 2.06312 0
M  V30 4321 H 405.134 3.91051 1.8778 0
M  V30 4322 H 405.805 4.29679 3.46525 0
M  V30 4323 H 408.281 2.37045 3.41978 0
M  V30 4324 H 407.157 2.75173 4.74943 0
M  V30 4325 H 407.418 1.07714 4.28777 0
M  V30 4326 N 406.477 -1.02803 1.19454 0
M  V30 4327 C 407.893 -1.28473 0.946937 0
M  V30 4328 C 408.093 -1.97881 -0.380202 0
M  V30 4329 O 407.149 -2.26719 -1.11151 0
M  V30 4330 C 408.462 -2.13099 2.12154 0
M  V30 4331 C 410.01 -2.26404 2.16126 0
M  V30 4332 C 410.485 -3.14402 3.33039 0
M  V30 4333 N 411.976 -3.21991 3.32981 0
M  V30 4334 C 412.711 -3.90272 4.20089 0
M  V30 4335 N 412.207 -4.60777 5.17355 0
M  V30 4336 N 414 -3.8668 4.07964 0
M  V30 4337 H 406.151 -0.561665 2.04839 0
M  V30 4338 H 408.414 -0.310438 0.89573 0
M  V30 4339 H 408.12 -1.69422 3.08203 0
M  V30 4340 H 407.994 -3.13813 2.09287 0
M  V30 4341 H 410.381 -2.69311 1.20647 0
M  V30 4342 H 410.462 -1.25237 2.23045 0
M  V30 4343 H 410.106 -2.72204 4.28798 0
M  V30 4344 H 410.036 -4.1563 3.23356 0
M  V30 4345 H 412.527 -2.71778 2.62574 0
M  V30 4346 H 412.84 -5.10513 5.80169 0
M  V30 4347 H 411.185 -4.5964 5.21302 0
M  V30 4348 H 414.376 -3.30739 3.31254 0
M  V30 4349 H 414.549 -4.39621 4.76064 0
M  V30 4350 N 407.956 -0.998596 -1.21925 0
M  V30 4351 C 408.889 -0.498517 -2.22688 0
M  V30 4352 C 409.867 0.444301 -1.56412 0
M  V30 4353 O 411.051 0.368518 -1.84863 0
M  V30 4354 C 408.178 0.276639 -3.37568 0
M  V30 4355 C 407.224 -0.61302 -4.22071 0
M  V30 4356 S 408.057 -2.07168 -4.93803 0
M  V30 4357 C 409.213 -1.30617 -6.12119 0
M  V30 4358 H 409.446 -1.35234 -2.64762 0
M  V30 4359 H 406.979 -0.806018 -1.31692 0
M  V30 4360 H 408.937 0.717817 -4.04175 0
M  V30 4361 H 407.598 1.10581 -2.93991 0
M  V30 4362 H 406.791 -0.0162909 -5.03997 0
M  V30 4363 H 406.393 -0.991202 -3.60626 0
M  V30 4364 H 408.685 -0.57675 -6.75041 0
M  V30 4365 H 409.628 -2.10091 -6.76215 0
M  V30 4366 H 410.036 -0.816957 -5.58557 0
M  V30 4367 N 409.434 1.37368 -0.772513 0
M  V30 4368 C 410.664 2.03647 -0.348082 0
M  V30 4369 C 411.072 1.58392 1.03482 0
M  V30 4370 O 410.415 0.760921 1.672 0
M  V30 4371 C 410.477 3.58131 -0.313404 0
M  V30 4372 C 410.141 4.2652 -1.64102 0
M  V30 4373 C 411.138 4.50587 -2.5936 0
M  V30 4374 C 408.823 4.64335 -1.91567 0
M  V30 4375 C 410.817 5.11526 -3.80289 0
M  V30 4376 C 408.504 5.24996 -3.12766 0
M  V30 4377 C 409.502 5.48529 -4.06946 0
M  V30 4378 O 409.19 6.07921 -5.26011 0
M  V30 4379 H 408.922 0.660538 -0.143753 0
M  V30 4380 H 411.476 1.76669 -1.04772 0
M  V30 4381 H 409.706 3.84159 0.442617 0
M  V30 4382 H 411.395 4.05813 0.0840613 0
M  V30 4383 H 412.161 4.21784 -2.39423 0
M  V30 4384 H 408.04 4.45353 -1.19088 0
M  V30 4385 H 411.584 5.29811 -4.53813 0
M  V30 4386 H 407.481 5.53223 -3.32588 0
M  V30 4387 H 408.249 6.26398 -5.26847 0
M  V30 4388 N 410.912 0.523116 1.48665 0
M  V30 4389 C 411.86 -0.256859 2.31177 0
M  V30 4390 C 412.854 -0.94199 1.40794 0
M  V30 4391 O 414.06 -0.867157 1.57735 0
M  V30 4392 H 410.435 -0.1017 0.745091 0
M  V30 4393 H 412.406 0.458739 2.94853 0
M  V30 4394 C 411.155 -1.29503 3.22683 0
M  V30 4395 H 410.478 -0.777248 3.92172 0
M  V30 4396 H 411.918 -1.81233 3.83315 0
M  V30 4397 C 410.377 -2.32501 2.43813 0
M  V30 4398 O 410.907 -3.3881 2.15803 0
M  V30 4399 N 409.113 -2.05538 2.05432 0
M  V30 4400 H 408.66 -1.19104 2.28412 0
M  V30 4401 H 408.618 -2.74676 1.52973 0
M  V30 4402 N 412.39 -1.55475 0.257931 0
M  V30 4403 C 413.801 -1.8511 -0.243135 0
M  V30 4404 C 414.152 -1.17986 -1.5676 0
M  V30 4405 O 413.277 -0.462102 -2.11409 0
M  V30 4406 C 413.872 -3.35826 -0.447929 0
M  V30 4407 C 412.431 -3.65647 -0.893245 0
M  V30 4408 C 411.578 -2.7729 0.0232965 0
M  V30 4409 H 414.529 -1.51261 0.480199 0
M  V30 4410 H 414.55 -3.58002 -1.28898 0
M  V30 4411 H 414.062 -3.84652 0.516196 0
M  V30 4412 H 412.163 -3.22308 -1.86945 0
M  V30 4413 H 412.276 -4.73312 -0.742469 0
M  V30 4414 H 410.64 -2.49942 -0.490021 0
M  V30 4415 H 411.423 -3.28926 0.982994 0
M  V30 4416 N 413.868 0.0150385 -1.57593 0
M  V30 4417 C 415.096 0.714395 -1.94175 0
M  V30 4418 C 415.511 1.68135 -0.858841 0
M  V30 4419 O 414.868 1.81766 0.163567 0
M  V30 4420 C 414.919 1.45933 -3.30735 0
M  V30 4421 O 414.64 0.531167 -4.34868 0
M  V30 4422 C 416.141 2.25456 -3.81686 0
M  V30 4423 H 413.361 0.199923 -0.640525 0
M  V30 4424 H 415.905 -0.0316096 -2.04476 0
M  V30 4425 H 414.06 2.15709 -3.21789 0
M  V30 4426 H 414.474 1.05509 -5.13778 0
M  V30 4427 H 415.948 2.731 -4.79709 0
M  V30 4428 H 416.425 3.07485 -3.13607 0
M  V30 4429 H 417.031 1.60727 -3.9376 0
M  V30 4430 N 415.346 1.54954 0.287554 0
M  V30 4431 C 416.294 1.87606 1.37502 0
M  V30 4432 C 417.288 0.751001 1.51843 0
M  V30 4433 O 418.494 0.935169 1.53801 0
M  V30 4434 H 414.869 0.595231 0.459569 0
M  V30 4435 H 416.84 2.78477 1.07206 0
M  V30 4436 C 415.589 2.15183 2.73115 0
M  V30 4437 H 414.912 3.01234 2.62866 0
M  V30 4438 H 416.352 2.4196 3.48183 0
M  V30 4439 C 414.811 0.954686 3.2309 0
M  V30 4440 O 415.341 0.181949 4.01288 0
M  V30 4441 N 413.547 0.756368 2.80584 0
M  V30 4442 H 413.094 1.38643 2.17108 0
M  V30 4443 H 413.052 -0.0430391 3.14371 0
M  V30 4444 N 416.824 -0.551391 1.4764 0
M  V30 4445 C 418.073 -1.30467 1.53822 0
M  V30 4446 C 418.386 -1.94495 0.207661 0
M  V30 4447 O 419.592 -2.71099 0.147533 0
M  V30 4448 C 418.048 -2.36616 2.71184 0
M  V30 4449 C 417.656 -1.78754 4.10793 0
M  V30 4450 C 419.4 -3.13088 2.86663 0
M  V30 4451 C 417.307 -2.82717 5.19447 0
M  V30 4452 H 416.237 -0.490584 0.572576 0
M  V30 4453 H 418.888 -0.58494 1.73927 0
M  V30 4454 H 417.27 -3.11529 2.4447 0
M  V30 4455 H 418.444 -1.10173 4.47435 0
M  V30 4456 H 416.759 -1.14846 4.00249 0
M  V30 4457 H 419.356 -3.90736 3.65007 0
M  V30 4458 H 419.699 -3.67635 1.95321 0
M  V30 4459 H 420.232 -2.45288 3.13175 0
M  V30 4460 H 416.971 -2.33018 6.12685 0
M  V30 4461 H 416.491 -3.4969 4.87316 0
M  V30 4462 H 418.17 -3.46102 5.46646 0
M  V30 4463 N 418.302 -1.35869 -0.798587 0
M  V30 4464 C 419.232 -1.32118 -1.92528 0
M  V30 4465 C 420.213 -0.194209 -1.68988 0
M  V30 4466 O 421.398 -0.390426 -1.90235 0
M  V30 4467 C 418.528 -1.10047 -3.29404 0
M  V30 4468 C 417.482 -2.19471 -3.67446 0
M  V30 4469 C 416.808 -1.82555 -5.02571 0
M  V30 4470 C 418.108 -3.61495 -3.76987 0
M  V30 4471 H 419.802 -2.26394 -1.95924 0
M  V30 4472 H 417.348 -1.08981 -0.94123 0
M  V30 4473 H 419.301 -1.06061 -4.07835 0
M  V30 4474 H 418.025 -0.122195 -3.26371 0
M  V30 4475 H 416.684 -2.22568 -2.91306 0
M  V30 4476 H 416.332 -0.833249 -4.9605 0
M  V30 4477 H 416.032 -2.5581 -5.28995 0
M  V30 4478 H 417.556 -1.80108 -5.83432 0
M  V30 4479 H 418.97 -3.60676 -4.4563 0
M  V30 4480 H 417.367 -4.33577 -4.14887 0
M  V30 4481 H 418.437 -3.97065 -2.78329 0
M  V30 4482 N 419.78 1.02168 -1.19998 0
M  V30 4483 C 421.057 1.72816 -0.916191 0
M  V30 4484 C 421.437 2.03081 0.576325 0
M  V30 4485 O 420.785 1.69122 1.53656 0
M  V30 4486 C 420.995 2.9997 -1.78378 0
M  V30 4487 C 422.343 3.73336 -2.02251 0
M  V30 4488 O 423.367 3.09914 -1.75589 0
M  V30 4489 O 422.226 4.87371 -2.47249 0
M  V30 4490 H 419.32 0.752924 -0.342103 0
M  V30 4491 H 421.866 1.08062 -1.30846 0
M  V30 4492 H 420.638 2.73888 -2.79466 0
M  V30 4493 H 420.261 3.72464 -1.39126 0
M  V30 4494 N 421.258 1.00505 1.21394 0
M  V30 4495 C 422.504 0.688793 1.90745 0
M  V30 4496 C 422.837 -0.778486 1.77914 0
M  V30 4497 O 422.112 -1.56433 1.15581 0
M  V30 4498 C 422.395 1.11063 3.42545 0
M  V30 4499 C 422.248 2.63737 3.64367 0
M  V30 4500 C 423.567 0.673059 4.34923 0
M  V30 4501 H 420.686 0.251702 0.692687 0
M  V30 4502 H 423.328 1.25074 1.43026 0
M  V30 4503 H 421.478 0.632508 3.83317 0
M  V30 4504 H 423.15 3.19313 3.32922 0
M  V30 4505 H 421.393 3.05248 3.08231 0
M  V30 4506 H 422.064 2.88305 4.70727 0
M  V30 4507 H 424.54 1.08392 4.01734 0
M  V30 4508 H 423.416 0.996383 5.39781 0
M  V30 4509 H 423.677 -0.425808 4.40045 0
M  V30 4510 N 422.737 -1.36956 0.779787 0
M  V30 4511 C 423.684 -2.30175 0.169697 0
M  V30 4512 C 424.654 -1.51501 -0.68094 0
M  V30 4513 O 425.839 -1.80042 -0.631629 0
M  V30 4514 C 422.979 -3.37985 -0.697131 0
M  V30 4515 C 422.092 -4.31661 0.170992 0
M  V30 4516 C 421.227 -5.2655 -0.701298 0
M  V30 4517 C 420.266 -6.11867 0.168869 0
M  V30 4518 N 419.403 -6.98973 -0.661855 0
M  V30 4519 H 424.243 -2.81767 0.970135 0
M  V30 4520 H 421.78 -1.38699 0.489994 0
M  V30 4521 H 423.738 -3.99128 -1.2146 0
M  V30 4522 H 422.368 -2.87739 -1.46309 0
M  V30 4523 H 421.42 -3.71756 0.80634 0
M  V30 4524 H 422.732 -4.91644 0.841875 0
M  V30 4525 H 421.886 -5.92937 -1.28494 0
M  V30 4526 H 420.625 -4.66998 -1.40584 0
M  V30 4527 H 419.63 -5.44452 0.764986 0
M  V30 4528 H 420.855 -6.73493 0.870863 0
M  V30 4529 H 418.801 -6.41941 -1.35086 0
M  V30 4530 H 418.718 -7.55984 -0.0484447 0
M  V30 4531 H 419.986 -7.6974 -1.22963 0
M  V30 4532 N 424.215 -0.530993 -1.48385 0
M  V30 4533 C 425.147 0.268353 -2.27624 0
M  V30 4534 C 426.16 0.903525 -1.35426 0
M  V30 4535 O 427.349 0.781796 -1.60469 0
M  V30 4536 C 424.449 1.39535 -3.08842 0
M  V30 4537 C 423.622 0.861913 -4.28824 0
M  V30 4538 C 422.681 1.87016 -4.91845 0
M  V30 4539 O 421.707 1.4267 -5.5103 0
M  V30 4540 N 422.909 3.20238 -4.84178 0
M  V30 4541 H 425.674 -0.41123 -2.96865 0
M  V30 4542 H 423.235 -0.365387 -1.57723 0
M  V30 4543 H 425.227 2.06803 -3.47871 0
M  V30 4544 H 423.797 1.97859 -2.42014 0
M  V30 4545 H 423.017 0.0132126 -3.94198 0
M  V30 4546 H 424.305 0.484415 -5.06489 0
M  V30 4547 H 423.703 3.58932 -4.37246 0
M  V30 4548 H 422.26 3.83136 -5.27305 0
M  V30 4549 N 425.693 1.55336 -0.266172 0
M  V30 4550 C 426.941 1.99003 0.35246 0
M  V30 4551 C 427.262 1.15591 1.57047 0
M  V30 4552 O 426.532 0.243268 1.94384 0
M  V30 4553 H 425.112 0.735025 0.133217 0
M  V30 4554 H 427.774 1.91367 -0.369434 0
M  V30 4555 H 426.87 3.05289 0.648453 0
M  V30 4556 N 427.171 -0.0066808 1.57599 0
M  V30 4557 C 428.582 -0.550379 1.78403 0
M  V30 4558 C 428.933 -1.74339 0.900014 0
M  V30 4559 O 428.058 -2.16166 0.100713 0
M  V30 4560 C 428.653 -1.00523 3.23544 0
M  V30 4561 C 427.212 -1.49428 3.45468 0
M  V30 4562 C 426.359 -0.442444 2.73748 0
M  V30 4563 H 429.31 0.219508 1.57175 0
M  V30 4564 H 429.331 -1.87157 3.31289 0
M  V30 4565 H 428.843 -0.136735 3.87859 0
M  V30 4566 H 426.944 -2.3839 2.86358 0
M  V30 4567 H 427.057 -1.52635 4.54136 0
M  V30 4568 H 425.421 -0.902578 2.38171 0
M  V30 4569 H 426.204 0.416973 3.40758 0
M  V30 4570 N 428.649 -1.55105 -0.279332 0
M  V30 4571 C 429.596 -1.8755 -1.34513 0
M  V30 4572 C 430.566 -0.726384 -1.49375 0
M  V30 4573 O 431.751 -0.977063 -1.63884 0
M  V30 4574 C 428.891 -2.14738 -2.70151 0
M  V30 4575 C 428.004 -3.42285 -2.63562 0
M  V30 4576 C 427.139 -3.59206 -3.91337 0
M  V30 4577 C 426.178 -4.80467 -3.79233 0
M  V30 4578 N 425.315 -4.94079 -4.98829 0
M  V30 4579 H 430.155 -2.78456 -1.06143 0
M  V30 4580 H 427.692 -1.37867 -0.512936 0
M  V30 4581 H 429.65 -2.28501 -3.49061 0
M  V30 4582 H 428.28 -1.27075 -2.96735 0
M  V30 4583 H 427.332 -3.37029 -1.76397 0
M  V30 4584 H 428.644 -4.31328 -2.50515 0
M  V30 4585 H 427.798 -3.72751 -4.78687 0
M  V30 4586 H 426.537 -2.68337 -4.07243 0
M  V30 4587 H 425.542 -4.66932 -2.90266 0
M  V30 4588 H 426.767 -5.72765 -3.64852 0
M  V30 4589 H 424.713 -4.06139 -5.15158 0
M  V30 4590 H 424.63 -5.77156 -4.8829 0
M  V30 4591 H 425.898 -5.12003 -5.8777 0
M  V30 4592 N 430.127 0.543554 -1.4793 0
M  V30 4593 C 431.037 1.67657 -1.64098 0
M  V30 4594 C 432.053 1.65934 -0.523622 0
M  V30 4595 O 433.229 1.85133 -0.792943 0
M  V30 4596 C 430.294 3.04146 -1.66421 0
M  V30 4597 C 429.355 3.16831 -2.89684 0
M  V30 4598 C 428.588 4.46809 -2.91886 0
M  V30 4599 O 428.811 5.33095 -2.02895 0
M  V30 4600 O 427.745 4.63573 -3.83906 0
M  V30 4601 H 431.571 1.56957 -2.59997 0
M  V30 4602 H 429.156 0.715116 -1.31173 0
M  V30 4603 H 431.038 3.85346 -1.70548 0
M  V30 4604 H 429.713 3.152 -0.736923 0
M  V30 4605 H 428.62 2.34977 -2.91095 0
M  V30 4606 H 429.953 3.10687 -3.81752 0
M  V30 4607 N 431.605 1.3629 0.791371 0
M  V30 4608 C 433.016 1.27225 1.36641 0
M  V30 4609 C 433.367 -0.0887968 1.95999 0
M  V30 4610 O 432.492 -0.990207 1.92416 0
M  V30 4611 C 433.087 2.30375 2.48421 0
M  V30 4612 C 431.646 2.25004 3.01746 0
M  V30 4613 C 430.793 2.15259 1.7481 0
M  V30 4614 H 433.744 1.47198 0.593173 0
M  V30 4615 H 433.765 1.93905 3.27385 0
M  V30 4616 H 433.277 3.29422 2.05189 0
M  V30 4617 H 431.378 1.29417 3.49403 0
M  V30 4618 H 431.491 3.1761 3.58693 0
M  V30 4619 H 429.855 1.61482 1.96966 0
M  V30 4620 H 430.638 3.16191 1.33709 0
M  V30 4621 N 433.083 -1.0153 1.20538 0
M  V30 4622 C 434.33 -1.75149 1.01633 0
M  V30 4623 C 434.658 -1.89189 -0.451399 0
M  V30 4624 O 433.913 -1.41551 -1.35136 0
M  V30 4625 C 434.212 -3.17213 1.64654 0
M  V30 4626 C 433.878 -3.23146 3.14464 0
M  V30 4627 C 432.54 -3.24472 3.55347 0
M  V30 4628 C 434.892 -3.21207 4.10458 0
M  V30 4629 C 432.22 -3.21532 4.90748 0
M  V30 4630 C 434.572 -3.19808 5.45807 0
M  V30 4631 C 433.236 -3.19439 5.86102 0
M  V30 4632 H 432.506 -0.640914 0.3719 0
M  V30 4633 H 435.153 -1.19071 1.49981 0
M  V30 4634 H 433.458 -3.76457 1.08571 0
M  V30 4635 H 435.155 -3.72871 1.4754 0
M  V30 4636 H 431.745 -3.2285 2.81897 0
M  V30 4637 H 435.929 -3.19351 3.79906 0
M  V30 4638 H 431.185 -3.19578 5.21229 0
M  V30 4639 H 435.359 -3.1726 6.19935 0
M  V30 4640 H 432.986 -3.16915 6.90991 0
M  V30 4641 N 434.561 -1.01147 -1.20859 0
M  V30 4642 C 435.493 -0.535546 -2.22855 0
M  V30 4643 C 436.506 0.379323 -1.58319 0
M  V30 4644 O 437.695 0.178489 -1.77605 0
M  V30 4645 C 434.795 0.240962 -3.38042 0
M  V30 4646 C 433.968 -0.674562 -4.32167 0
M  V30 4647 C 433.027 0.053467 -5.26173 0
M  V30 4648 O 432.053 -0.567339 -5.66366 0
M  V30 4649 N 433.255 1.32997 -5.65059 0
M  V30 4650 H 436.02 -1.41268 -2.64317 0
M  V30 4651 H 433.581 -0.888386 -1.35349 0
M  V30 4652 H 435.573 0.737115 -3.97931 0
M  V30 4653 H 434.143 1.01935 -2.95513 0
M  V30 4654 H 433.363 -1.35111 -3.70322 0
M  V30 4655 H 434.651 -1.2974 -4.91981 0
M  V30 4656 H 434.049 1.85536 -5.34409 0
M  V30 4657 H 432.606 1.77095 -6.2728 0
M  V30 4658 N 436.039 1.36541 -0.78704 0
M  V30 4659 C 437.264 2.0409 -0.369053 0
M  V30 4660 C 437.689 1.58957 1.00569 0
M  V30 4661 O 437.047 0.756926 1.64743 0
M  V30 4662 C 437.095 3.57924 -0.438466 0
M  V30 4663 O 436.199 4.08642 0.555479 0
M  V30 4664 H 435.54 0.645142 -0.157122 0
M  V30 4665 H 438.07 1.74545 -1.06749 0
M  V30 4666 H 438.08 4.06887 -0.301218 0
M  V30 4667 H 436.755 3.90127 -1.44132 0
M  V30 4668 H 435.332 3.70958 0.380088 0
M  V30 4669 N 437.518 0.538854 1.48102 0
M  V30 4670 C 438.748 0.0122958 2.06596 0
M  V30 4671 C 439.156 -1.27861 1.39457 0
M  V30 4672 O 438.499 -1.77348 0.478907 0
M  V30 4673 C 438.561 -0.273131 3.58461 0
M  V30 4674 C 438.225 0.92561 4.47528 0
M  V30 4675 C 439.222 1.82637 4.86765 0
M  V30 4676 C 436.907 1.13511 4.89306 0
M  V30 4677 C 438.901 2.92047 5.66558 0
M  V30 4678 C 436.588 2.23233 5.68868 0
M  V30 4679 C 437.586 3.12333 6.07402 0
M  V30 4680 O 437.274 4.20155 6.85365 0
M  V30 4681 H 437.006 0.0344283 0.675123 0
M  V30 4682 H 439.56 0.746494 1.91355 0
M  V30 4683 H 437.79 -1.06141 3.71848 0
M  V30 4684 H 439.479 -0.742842 3.99045 0
M  V30 4685 H 440.245 1.67649 4.55103 0
M  V30 4686 H 436.124 0.450835 4.5879 0
M  V30 4687 H 439.668 3.6162 5.96554 0
M  V30 4688 H 435.565 2.38201 5.99942 0
M  V30 4689 H 436.333 4.17975 7.03732 0
M  V30 4690 N 438.996 -1.55193 0.274407 0
M  V30 4691 C 440.242 -1.99877 -0.343086 0
M  V30 4692 C 440.575 -1.16256 -1.55558 0
M  V30 4693 O 439.85 -0.232462 -1.93106 0
M  V30 4694 C 440.133 -3.52706 -0.725965 0
M  V30 4695 C 439.986 -4.47081 0.493818 0
M  V30 4696 C 441.305 -4.11422 -1.56268 0
M  V30 4697 H 438.424 -0.726625 -0.123229 0
M  V30 4698 H 441.066 -1.86136 0.38121 0
M  V30 4699 H 439.216 -3.64546 -1.34307 0
M  V30 4700 H 440.888 -4.47186 1.13237 0
M  V30 4701 H 439.131 -4.1877 1.13201 0
M  V30 4702 H 439.802 -5.51699 0.18217 0
M  V30 4703 H 442.278 -4.02855 -1.04151 0
M  V30 4704 H 441.154 -5.18568 -1.79939 0
M  V30 4705 H 441.415 -3.61607 -2.54348 0
M  V30 4706 N 440.474 -0.00167713 -1.576 0
M  V30 4707 C 441.751 0.719951 -1.81868 0
M  V30 4708 C 442.131 1.91895 -0.879747 0
M  V30 4709 O 441.479 2.28389 0.0711423 0
M  V30 4710 C 441.689 1.12409 -3.30402 0
M  V30 4711 C 443.037 1.52724 -3.96182 0
M  V30 4712 O 444.061 1.21784 -3.34734 0
M  V30 4713 O 442.92 2.10265 -5.04431 0
M  V30 4714 H 440.014 0.350707 -0.748955 0
M  V30 4715 H 442.56 -0.0272597 -1.69678 0
M  V30 4716 H 441.332 0.269532 -3.90371 0
M  V30 4717 H 440.955 1.93035 -3.47596 0
M  V30 4718 N 441.952 1.55251 0.271103 0
M  V30 4719 C 443.368 1.47133 0.618393 0
M  V30 4720 C 443.568 0.686994 1.89427 0
M  V30 4721 O 442.624 0.206609 2.51653 0
M  V30 4722 C 443.937 2.91361 0.743593 0
M  V30 4723 C 445.485 3.01587 0.837522 0
M  V30 4724 C 445.96 4.47073 0.994483 0
M  V30 4725 N 447.451 4.50909 1.05996 0
M  V30 4726 C 448.186 5.60698 1.20024 0
M  V30 4727 N 447.682 6.80348 1.30759 0
M  V30 4728 N 449.475 5.48444 1.23149 0
M  V30 4729 H 441.626 2.04698 -0.566784 0
M  V30 4730 H 443.889 0.928319 -0.192165 0
M  V30 4731 H 443.595 3.51483 -0.123493 0
M  V30 4732 H 443.469 3.40484 1.62328 0
M  V30 4733 H 445.856 2.4156 1.69507 0
M  V30 4734 H 445.937 2.55713 -0.0668086 0
M  V30 4735 H 445.581 5.07703 0.141582 0
M  V30 4736 H 445.511 4.90605 1.91349 0
M  V30 4737 H 448.002 3.6472 0.989316 0
M  V30 4738 H 448.315 7.59772 1.41303 0
M  V30 4739 H 446.66 6.83156 1.27761 0
M  V30 4740 H 449.851 4.53907 1.14394 0
M  V30 4741 H 450.024 6.34049 1.33738 0
M  V30 4742 N 443.43 -0.535701 1.48216 0
M  V30 4743 C 444.677 -1.29183 1.55942 0
M  V30 4744 C 445.005 -1.93125 0.230857 0
M  V30 4745 O 444.26 -1.79556 -0.778331 0
M  V30 4746 C 444.559 -2.4068 2.64212 0
M  V30 4747 C 444.225 -1.94428 4.06827 0
M  V30 4748 C 442.887 -1.81532 4.45645 0
M  V30 4749 C 445.239 -1.59405 4.96225 0
M  V30 4750 C 442.567 -1.31939 5.71672 0
M  V30 4751 C 444.919 -1.11276 6.22736 0
M  V30 4752 C 443.583 -0.969924 6.60416 0
M  V30 4753 H 442.853 -0.472715 0.570632 0
M  V30 4754 H 445.5 -0.598437 1.81909 0
M  V30 4755 H 443.805 -3.15666 2.32083 0
M  V30 4756 H 445.502 -2.98822 2.67407 0
M  V30 4757 H 442.092 -2.05415 3.76168 0
M  V30 4758 H 446.276 -1.68231 4.66917 0
M  V30 4759 H 441.532 -1.19562 5.99596 0
M  V30 4760 H 445.706 -0.832453 6.91407 0
M  V30 4761 H 443.333 -0.583436 7.57958 0
M  V30 4762 N 444.908 -1.36708 -0.784132 0
M  V30 4763 C 446.138 -1.34203 -1.57077 0
M  V30 4764 C 446.546 0.0774945 -1.89041 0
M  V30 4765 O 445.889 1.04628 -1.50992 0
M  V30 4766 C 445.951 -2.10351 -2.91535 0
M  V30 4767 C 445.615 -3.59405 -2.82272 0
M  V30 4768 C 446.612 -4.53545 -2.54151 0
M  V30 4769 C 444.297 -4.02362 -3.00683 0
M  V30 4770 C 446.291 -5.8862 -2.44551 0
M  V30 4771 C 443.978 -5.37526 -2.90704 0
M  V30 4772 C 444.976 -6.30468 -2.62677 0
M  V30 4773 O 444.664 -7.63149 -2.52702 0
M  V30 4774 H 444.396 -0.461791 -0.493685 0
M  V30 4775 H 446.95 -1.80475 -0.980712 0
M  V30 4776 H 445.18 -1.5875 -3.52612 0
M  V30 4777 H 446.869 -2.00636 -3.52845 0
M  V30 4778 H 447.635 -4.21669 -2.39625 0
M  V30 4779 H 443.514 -3.30389 -3.21503 0
M  V30 4780 H 447.058 -6.61133 -2.22596 0
M  V30 4781 H 442.955 -5.69008 -3.04795 0
M  V30 4782 H 443.723 -7.73331 -2.68144 0
M  V30 4783 N 446.386 1.0089 -1.21074 0
M  V30 4784 C 447.333 2.09588 -0.966512 0
M  V30 4785 C 448.303 1.65761 0.106089 0
M  V30 4786 O 449.488 1.90758 -0.0402287 0
M  V30 4787 C 446.628 3.40958 -0.533058 0
M  V30 4788 C 445.741 3.9822 -1.67467 0
M  V30 4789 C 444.876 5.17682 -1.19076 0
M  V30 4790 C 443.915 5.67043 -2.30496 0
M  V30 4791 N 443.052 6.77759 -1.83267 0
M  V30 4792 H 447.892 2.29815 -1.89708 0
M  V30 4793 H 445.429 1.12689 -0.945489 0
M  V30 4794 H 447.387 4.1637 -0.263019 0
M  V30 4795 H 446.017 3.20781 0.360505 0
M  V30 4796 H 445.069 3.1983 -2.05944 0
M  V30 4797 H 446.381 4.3085 -2.51336 0
M  V30 4798 H 445.535 6.00326 -0.877151 0
M  V30 4799 H 444.274 4.86635 -0.322066 0
M  V30 4800 H 443.279 4.82999 -2.62664 0
M  V30 4801 H 444.504 6.00121 -3.17855 0
M  V30 4802 H 442.45 6.48527 -0.987356 0
M  V30 4803 H 442.367 7.09624 -2.60711 0
M  V30 4804 H 443.635 7.63949 -1.54928 0
M  V30 4805 N 447.864 1.01787 1.20321 0
M  V30 4806 C 449.089 0.727009 1.9424 0
M  V30 4807 C 449.514 -0.706179 1.74341 0
M  V30 4808 O 448.872 -1.48609 1.03852 0
M  V30 4809 C 448.92 1.06958 3.44372 0
M  V30 4810 O 448.024 0.181983 4.11998 0
M  V30 4811 H 447.365 0.269626 0.606793 0
M  V30 4812 H 449.895 1.36158 1.52716 0
M  V30 4813 H 449.905 1.02182 3.94997 0
M  V30 4814 H 448.58 2.11378 3.58179 0
M  V30 4815 H 447.157 0.287378 3.71791 0
M  V30 4816 N 449.342 -1.36122 0.79427 0
M  V30 4817 C 450.272 -2.32551 0.210328 0
M  V30 4818 C 451.253 -1.56884 -0.657386 0
M  V30 4819 O 452.438 -1.85014 -0.590207 0
M  V30 4820 C 449.568 -3.41128 -0.651819 0
M  V30 4821 C 448.522 -4.27842 0.116395 0
M  V30 4822 C 447.848 -5.2763 -0.86666 0
M  V30 4823 C 449.148 -5.05647 1.30837 0
M  V30 4824 H 450.842 -2.81636 1.01594 0
M  V30 4825 H 448.388 -1.35407 0.489981 0
M  V30 4826 H 450.341 -4.07581 -1.07031 0
M  V30 4827 H 449.065 -2.90622 -1.49019 0
M  V30 4828 H 447.724 -3.62952 0.515915 0
M  V30 4829 H 447.372 -4.73395 -1.70019 0
M  V30 4830 H 447.072 -5.86514 -0.35705 0
M  V30 4831 H 448.596 -5.96955 -1.28361 0
M  V30 4832 H 450.01 -5.65113 0.965393 0
M  V30 4833 H 448.407 -5.73967 1.75161 0
M  V30 4834 H 449.477 -4.37006 2.10128 0
M  V30 4835 N 450.82 -0.546701 -1.47814 0
M  V30 4836 C 452.236 -0.205717 -1.58269 0
M  V30 4837 C 452.436 1.29153 -1.54667 0
M  V30 4838 O 451.492 2.07098 -1.44453 0
M  V30 4839 C 452.805 -0.823065 -2.89216 0
M  V30 4840 C 454.353 -0.793328 -3.02779 0
M  V30 4841 C 454.828 -1.38955 -4.36412 0
M  V30 4842 N 456.319 -1.35227 -4.43021 0
M  V30 4843 C 457.054 -1.78333 -5.44963 0
M  V30 4844 N 456.55 -2.29246 -6.53772 0
M  V30 4845 N 458.343 -1.69467 -5.35945 0
M  V30 4846 H 450.494 -1.5196 -1.48398 0
M  V30 4847 H 452.757 -0.633078 -0.705632 0
M  V30 4848 H 452.463 -1.8749 -2.97558 0
M  V30 4849 H 452.337 -0.309915 -3.75925 0
M  V30 4850 H 454.724 0.249784 -2.94041 0
M  V30 4851 H 454.805 -1.34412 -2.17639 0
M  V30 4852 H 454.449 -2.43168 -4.45906 0
M  V30 4853 H 454.379 -0.814291 -5.20266 0
M  V30 4854 H 456.87 -0.979739 -3.64979 0
M  V30 4855 H 457.183 -2.60089 -7.27718 0
M  V30 4856 H 455.528 -2.3325 -6.5469 0
M  V30 4857 H 458.719 -1.29477 -4.49837 0
M  V30 4858 H 458.892 -2.03381 -6.15256 0
M  V30 4859 N 452.299 1.55045 -0.282633 0
M  V30 4860 C 453.262 2.21515 0.588539 0
M  V30 4861 C 454.262 1.19535 1.07554 0
M  V30 4862 O 455.452 1.44391 0.974514 0
M  V30 4863 C 452.584 2.88704 1.8128 0
M  V30 4864 H 453.777 2.99899 0.00806397 0
M  V30 4865 H 451.33 1.56265 -0.0333067 0
M  V30 4866 H 452.065 2.14352 2.43359 0
M  V30 4867 H 451.85 3.63443 1.47144 0
M  V30 4868 H 453.34 3.39465 2.43214 0
M  V30 4869 N 453.777 0.010035 1.57597 0
M  V30 4870 C 454.687 -0.994226 2.12491 0
M  V30 4871 C 455.703 -1.37013 1.07254 0
M  V30 4872 O 456.879 -1.45542 1.3921 0
M  V30 4873 C 453.944 -2.2642 2.62555 0
M  V30 4874 C 453.005 -1.95049 3.82432 0
M  V30 4875 C 452.238 -3.15991 4.30099 0
M  V30 4876 O 452.461 -4.28015 3.7704 0
M  V30 4877 O 451.395 -2.99403 5.22151 0
M  V30 4878 H 455.221 -0.557549 2.98538 0
M  V30 4879 H 452.806 -0.209413 1.47925 0
M  V30 4880 H 454.688 -3.01009 2.9491 0
M  V30 4881 H 453.363 -2.69306 1.796 0
M  V30 4882 H 452.27 -1.17904 3.55034 0
M  V30 4883 H 453.603 -1.56992 4.66491 0
M  V30 4884 N 455.255 -1.55392 -0.262866 0
M  V30 4885 C 456.187 -1.85392 -1.34768 0
M  V30 4886 C 457.2 -0.739069 -1.45057 0
M  V30 4887 O 458.389 -1.01703 -1.46693 0
M  V30 4888 C 455.489 -2.01088 -2.72795 0
M  V30 4889 C 454.662 -3.31828 -2.84972 0
M  V30 4890 C 453.721 -3.37464 -4.03738 0
M  V30 4891 O 452.747 -4.10778 -3.94018 0
M  V30 4892 N 453.949 -2.65599 -5.16176 0
M  V30 4893 H 456.714 -2.79029 -1.09375 0
M  V30 4894 H 454.275 -1.55434 -0.452981 0
M  V30 4895 H 456.267 -2.02217 -3.50557 0
M  V30 4896 H 454.837 -1.1427 -2.90966 0
M  V30 4897 H 454.057 -3.43152 -1.94012 0
M  V30 4898 H 455.345 -4.18032 -2.90045 0
M  V30 4899 H 454.743 -2.05736 -5.26962 0
M  V30 4900 H 453.3 -2.72439 -5.92132 0
M  V30 4901 N 456.733 0.527833 -1.48498 0
M  V30 4902 C 457.961 1.30823 -1.6029 0
M  V30 4903 C 458.376 1.86945 -0.263974 0
M  V30 4904 O 457.733 1.6651 0.747034 0
M  V30 4905 C 457.784 2.45756 -2.65116 0
M  V30 4906 O 457.505 1.91946 -3.93813 0
M  V30 4907 C 459.006 3.37543 -2.87367 0
M  V30 4908 H 456.226 0.397763 -0.540394 0
M  V30 4909 H 458.77 0.636529 -1.94341 0
M  V30 4910 H 456.925 3.08806 -2.33917 0
M  V30 4911 H 457.339 2.67195 -4.51339 0
M  V30 4912 H 458.813 4.14532 -3.6451 0
M  V30 4913 H 459.29 3.92905 -1.9627 0
M  V30 4914 H 459.896 2.80283 -3.19878 0
M  V30 4915 N 458.211 1.37122 0.776871 0
M  V30 4916 C 459.488 1.22586 1.52421 0
M  V30 4917 C 459.868 -0.182726 2.10308 0
M  V30 4918 O 459.216 -1.18979 1.9508 0
M  V30 4919 C 459.426 2.31782 2.60918 0
M  V30 4920 C 460.774 2.69071 3.2846 0
M  V30 4921 O 461.798 2.3092 2.71209 0
M  V30 4922 O 460.657 3.3478 4.31954 0
M  V30 4923 H 457.751 0.478045 0.674835 0
M  V30 4924 H 460.297 1.48888 0.814275 0
M  V30 4925 H 459.069 3.26131 2.16227 0
M  V30 4926 H 458.692 2.06916 3.39517 0
M  V30 4927 N 459.689 -1.00246 1.21608 0
M  V30 4928 C 461.1 -1.55511 1.03312 0
M  V30 4929 C 461.451 -1.91946 -0.406332 0
M  V30 4930 O 460.576 -1.73753 -1.28992 0
M  V30 4931 C 461.171 -2.82576 1.86913 0
M  V30 4932 C 459.73 -3.34318 1.72941 0
M  V30 4933 C 458.877 -2.07487 1.83968 0
M  V30 4934 H 461.828 -0.824638 1.35593 0
M  V30 4935 H 461.849 -3.54559 1.38087 0
M  V30 4936 H 461.361 -2.56026 2.91672 0
M  V30 4937 H 459.462 -3.65797 0.70877 0
M  V30 4938 H 459.575 -4.05566 2.55055 0
M  V30 4939 H 457.939 -2.20603 1.27304 0
M  V30 4940 H 458.722 -1.83346 2.9024 0
M  V30 4941 N 461.167 -1.02423 -1.1978 0
M  V30 4942 C 462.13 -0.605703 -2.21052 0
M  V30 4943 C 463.13 0.328209 -1.57415 0
M  V30 4944 O 464.32 0.115853 -1.73814 0
M  V30 4945 C 461.452 0.114366 -3.40708 0
M  V30 4946 H 462.645 -1.5017 -2.59594 0
M  V30 4947 H 460.198 -0.814888 -1.33376 0
M  V30 4948 H 460.933 1.02492 -3.07678 0
M  V30 4949 H 460.718 -0.556641 -3.88129 0
M  V30 4950 H 462.208 0.394272 -4.15735 0
M  V30 4951 N 462.645 1.35699 -0.801477 0
M  V30 4952 C 463.891 1.99208 -0.380022 0
M  V30 4953 C 464.224 1.63445 1.04878 0
M  V30 4954 O 463.499 0.895223 1.72673 0
M  V30 4955 C 463.782 3.55755 -0.557708 0
M  V30 4956 C 463.635 4.01332 -2.03107 0
M  V30 4957 C 464.954 4.40096 0.0197968 0
M  V30 4958 H 462.073 0.723667 -0.139552 0
M  V30 4959 H 464.715 1.60928 -1.01006 0
M  V30 4960 H 462.865 3.88494 -0.0213741 0
M  V30 4961 H 464.537 3.79026 -2.62939 0
M  V30 4962 H 462.78 3.52429 -2.52936 0
M  V30 4963 H 463.451 5.10234 -2.1063 0
M  V30 4964 H 465.927 4.13786 -0.438179 0
M  V30 4965 H 464.803 5.48735 -0.134477 0
M  V30 4966 H 465.064 4.2786 1.11303 0
M  V30 4967 N 464.123 0.554532 1.47522 0
M  V30 4968 C 465.07 -0.19466 2.29978 0
M  V30 4969 C 466.04 -0.910882 1.38896 0
M  V30 4970 O 467.225 -0.907102 1.67858 0
M  V30 4971 C 464.365 -1.22035 3.22802 0
M  V30 4972 C 463.478 -0.510474 4.28973 0
M  V30 4973 C 462.613 -1.52123 5.08952 0
M  V30 4974 C 461.652 -0.796173 6.069 0
M  V30 4975 N 460.789 -1.75363 6.79847 0
M  V30 4976 H 465.629 0.51461 2.93523 0
M  V30 4977 H 463.166 0.265607 1.44682 0
M  V30 4978 H 465.124 -1.8276 3.7504 0
M  V30 4979 H 463.754 -1.89769 2.61127 0
M  V30 4980 H 462.806 0.211234 3.79813 0
M  V30 4981 H 464.118 0.0576503 4.98767 0
M  V30 4982 H 463.272 -2.20207 5.65326 0
M  V30 4983 H 462.011 -2.12327 4.39054 0
M  V30 4984 H 461.016 -0.101388 5.49707 0
M  V30 4985 H 462.241 -0.199911 6.78806 0
M  V30 4986 H 460.187 -2.3443 6.12682 0
M  V30 4987 H 460.104 -1.23759 7.45801 0
M  V30 4988 H 461.372 -2.4257 7.40797 0
M  V30 4989 N 465.601 -1.54893 0.290851 0
M  V30 4990 C 466.549 -2.24579 -0.605576 0
M  V30 4991 C 467.543 -1.24824 -1.14522 0
M  V30 4992 O 468.749 -1.42706 -1.09704 0
M  V30 4993 H 465.124 -0.720946 -0.213872 0
M  V30 4994 H 467.095 -2.984 0.0048173 0
M  V30 4995 C 465.844 -2.99224 -1.77088 0
M  V30 4996 H 465.167 -3.75782 -1.36484 0
M  V30 4997 H 466.607 -3.51281 -2.3744 0
M  V30 4998 C 465.066 -2.05602 -2.66888 0
M  V30 4999 O 465.596 -1.61745 -3.67698 0
M  V30 5000 N 463.802 -1.71771 -2.34399 0
M  V30 5001 H 463.349 -2.07633 -1.52468 0
M  V30 5002 H 463.307 -1.09403 -2.94751 0
M  V30 5003 N 467.08 -0.0183926 -1.57589 0
M  V30 5004 C 468.326 0.657813 -1.92469 0
M  V30 5005 C 468.681 1.70349 -0.894375 0
M  V30 5006 O 467.974 1.91384 0.0910389 0
M  V30 5007 C 468.168 1.32676 -3.31861 0
M  V30 5008 C 467.997 0.347403 -4.48356 0
M  V30 5009 C 466.767 -0.0488653 -5.05276 0
M  V30 5010 C 468.965 -0.393931 -5.12789 0
M  V30 5011 N 466.947 -1.02451 -6.05291 0
M  V30 5012 C 468.318 -1.22367 -6.07804 0
M  V30 5013 C 470.373 -0.455789 -4.95809 0
M  V30 5014 C 469.076 -2.10966 -6.87667 0
M  V30 5015 C 471.102 -1.32908 -5.76272 0
M  V30 5016 C 470.464 -2.14662 -6.70894 0
M  V30 5017 H 466.563 0.21335 -0.752334 0
M  V30 5018 H 469.147 -0.0830547 -1.94523 0
M  V30 5019 H 467.318 2.03782 -3.30647 0
M  V30 5020 H 469.05 1.95913 -3.54119 0
M  V30 5021 H 465.805 0.323356 -4.72495 0
M  V30 5022 H 466.229 -1.50826 -6.59985 0
M  V30 5023 H 470.871 0.162017 -4.22489 0
M  V30 5024 H 468.589 -2.73807 -7.603 0
M  V30 5025 H 472.175 -1.38109 -5.6517 0
M  V30 5026 H 471.055 -2.81143 -7.32071 0
M  V30 5027 N 468.558 1.5553 0.254621 0
M  V30 5028 C 469.491 1.84624 1.34124 0
M  V30 5029 C 470.469 0.700693 1.46728 0
M  V30 5030 O 471.653 0.94564 1.63064 0
M  V30 5031 C 468.78 2.02412 2.71564 0
M  V30 5032 C 467.826 3.25028 2.7615 0
M  V30 5033 S 468.659 4.81893 2.33538 0
M  V30 5034 C 469.815 5.02677 3.72917 0
M  V30 5035 H 470.048 2.76501 1.09245 0
M  V30 5036 H 467.581 1.47537 0.455211 0
M  V30 5037 H 469.539 2.13345 3.50705 0
M  V30 5038 H 468.2 1.11391 2.93685 0
M  V30 5039 H 467.393 3.34418 3.77069 0
M  V30 5040 H 466.995 3.12781 2.05046 0
M  V30 5041 H 469.287 4.89546 4.68349 0
M  V30 5042 H 470.23 6.0468 3.68467 0
M  V30 5043 H 470.638 4.30561 3.65072 0
M  V30 5044 N 470.036 -0.519951 1.48776 0
M  V30 5045 C 471.264 -1.29971 1.60982 0
M  V30 5046 C 471.679 -1.86803 0.273885 0
M  V30 5047 O 471.036 -1.66904 -0.738193 0
M  V30 5048 C 471.087 -2.44346 2.66415 0
M  V30 5049 O 470.808 -1.89855 3.94825 0
M  V30 5050 C 472.309 -3.36014 2.89153 0
M  V30 5051 H 469.529 -0.394891 0.542496 0
M  V30 5052 H 472.073 -0.626214 1.94676 0
M  V30 5053 H 470.228 -3.07562 2.35552 0
M  V30 5054 H 470.642 -2.64798 4.5275 0
M  V30 5055 H 472.116 -4.12593 3.66703 0
M  V30 5056 H 472.593 -3.91859 1.98351 0
M  V30 5057 H 473.199 -2.78582 3.21359 0
M  V30 5058 N 471.514 -1.37532 -0.769588 0
M  V30 5059 C 472.446 -1.29347 -1.89214 0
M  V30 5060 C 473.459 -0.208842 -1.61455 0
M  V30 5061 O 474.648 -0.465158 -1.72333 0
M  V30 5062 C 471.748 -0.977649 -3.24492 0
M  V30 5063 C 470.921 -2.16817 -3.7988 0
M  V30 5064 C 469.98 -1.82229 -4.93639 0
M  V30 5065 O 469.006 -2.54548 -5.09111 0
M  V30 5066 N 470.208 -0.767696 -5.75401 0
M  V30 5067 H 472.973 -2.26073 -1.96751 0
M  V30 5068 H 470.534 -1.31185 -0.948795 0
M  V30 5069 H 472.526 -0.727065 -3.98115 0
M  V30 5070 H 471.096 -0.0988777 -3.12444 0
M  V30 5071 H 470.316 -2.58038 -2.9801 0
M  V30 5072 H 471.604 -2.96308 -4.13617 0
M  V30 5073 H 471.002 -0.167626 -5.65452 0
M  V30 5074 H 469.559 -0.576973 -6.49241 0
M  V30 5075 N 472.992 0.995999 -1.22138 0
M  V30 5076 C 474.22 1.77066 -1.07029 0
M  V30 5077 C 474.635 1.8495 0.379357 0
M  V30 5078 O 473.992 1.3174 1.26297 0
M  V30 5079 C 474.043 3.20533 -1.67155 0
M  V30 5080 O 473.764 3.13082 -3.06449 0
M  V30 5081 C 475.265 4.14461 -1.5728 0
M  V30 5082 H 472.485 0.556179 -0.375374 0
M  V30 5083 H 475.029 1.25238 -1.61666 0
M  V30 5084 H 473.184 3.6944 -1.16589 0
M  V30 5085 H 473.598 4.03283 -3.35355 0
M  V30 5086 H 475.072 5.1289 -2.04078 0
M  V30 5087 H 475.549 4.36005 -0.528795 0
M  V30 5088 H 476.155 3.71449 -2.07136 0
M  V30 5089 N 474.47 1.03057 1.19235 0
M  V30 5090 C 475.4 0.633497 2.24742 0
M  V30 5091 C 476.381 -0.358335 1.66283 0
M  V30 5092 O 477.566 -0.240676 1.92703 0
M  V30 5093 C 474.696 -0.0147648 3.47297 0
M  V30 5094 C 473.65 0.899527 4.18441 0
M  V30 5095 C 472.976 0.116281 5.34574 0
M  V30 5096 C 474.276 2.21404 4.73051 0
M  V30 5097 H 475.97 1.5155 2.58211 0
M  V30 5098 H 473.516 0.73014 1.24117 0
M  V30 5099 H 475.469 -0.304202 4.20301 0
M  V30 5100 H 474.193 -0.931577 3.13032 0
M  V30 5101 H 472.852 1.17319 3.47321 0
M  V30 5102 H 472.5 -0.802619 4.96555 0
M  V30 5103 H 472.2 0.725293 5.83107 0
M  V30 5104 H 473.724 -0.166376 6.10373 0
M  V30 5105 H 475.138 1.98601 5.37802 0
M  V30 5106 H 473.535 2.77512 5.32078 0
M  V30 5107 H 474.605 2.86752 3.91026 0
M  V30 5108 N 475.948 -1.35272 0.808662 0
M  V30 5109 C 476.878 -2.32315 0.234981 0
M  V30 5110 C 477.859 -1.57572 -0.64071 0
M  V30 5111 O 479.044 -1.8563 -0.570551 0
M  V30 5112 C 476.174 -3.41801 -0.615601 0
M  V30 5113 C 475.128 -4.27694 0.161767 0
M  V30 5114 C 474.454 -5.28519 -0.810649 0
M  V30 5115 C 475.754 -5.04231 1.36193 0
M  V30 5116 H 477.448 -2.80543 1.04575 0
M  V30 5117 H 474.994 -1.3488 0.504315 0
M  V30 5118 H 476.947 -4.08693 -1.02702 0
M  V30 5119 H 475.671 -2.92186 -1.45928 0
M  V30 5120 H 474.33 -3.62384 0.554382 0
M  V30 5121 H 473.978 -4.75171 -1.64988 0
M  V30 5122 H 473.678 -5.8686 -0.294822 0
M  V30 5123 H 475.202 -5.98283 -1.22023 0
M  V30 5124 H 476.616 -5.64058 1.02528 0
M  V30 5125 H 475.013 -5.72077 1.81239 0
M  V30 5126 H 476.083 -4.34753 2.14751 0
M  V30 5127 N 477.426 -0.562348 -1.47226 0
M  V30 5128 C 478.675 -0.038041 -2.01664 0
M  V30 5129 C 478.988 1.32199 -1.44162 0
M  V30 5130 O 480.194 1.9365 -1.90294 0
M  V30 5131 C 478.65 -0.0174958 -3.59896 0
M  V30 5132 C 478.258 -1.3746 -4.2639 0
M  V30 5133 C 480.002 0.453934 -4.22066 0
M  V30 5134 C 477.909 -1.31289 -5.76643 0
M  V30 5135 H 476.839 -0.0104511 -0.753928 0
M  V30 5136 H 479.49 -0.710966 -1.69167 0
M  V30 5137 H 477.872 0.721182 -3.89378 0
M  V30 5138 H 479.046 -2.1314 -4.08544 0
M  V30 5139 H 477.361 -1.78438 -3.7623 0
M  V30 5140 H 479.958 0.518584 -5.32179 0
M  V30 5141 H 480.301 1.46706 -3.89594 0
M  V30 5142 H 480.834 -0.230044 -3.97134 0
M  V30 5143 H 477.573 -2.30217 -6.13743 0
M  V30 5144 H 477.093 -0.597973 -5.96812 0
M  V30 5145 H 478.772 -1.01713 -6.38955 0
M  V30 5146 N 478.904 1.54736 -0.299062 0
M  V30 5147 C 479.836 2.20891 0.61153 0
M  V30 5148 C 480.849 1.20104 1.09904 0
M  V30 5149 O 482.038 1.46707 1.01683 0
M  V30 5150 C 479.138 2.84018 1.84897 0
M  V30 5151 C 478.311 4.10719 1.50428 0
M  V30 5152 C 477.37 4.57667 2.59667 0
M  V30 5153 O 476.396 5.2291 2.24842 0
M  V30 5154 N 477.598 4.29821 3.90172 0
M  V30 5155 H 480.363 2.99666 0.0452001 0
M  V30 5156 H 477.924 1.61446 -0.121178 0
M  V30 5157 H 479.916 3.1236 2.5732 0
M  V30 5158 H 478.486 2.09095 2.32375 0
M  V30 5159 H 477.706 3.89408 0.612781 0
M  V30 5160 H 478.994 4.93223 1.24934 0
M  V30 5161 H 478.392 3.77549 4.21276 0
M  V30 5162 H 476.949 4.62877 4.58899 0
M  V30 5163 N 480.382 0.0267497 1.57577 0
M  V30 5164 C 481.33 -0.973923 2.11229 0
M  V30 5165 C 482.324 -1.33849 1.03831 0
M  V30 5166 O 483.53 -1.321 1.22269 0
M  V30 5167 H 479.905 -0.331844 0.674821 0
M  V30 5168 H 481.876 -0.496092 2.94247 0
M  V30 5169 C 480.625 -2.24798 2.65257 0
M  V30 5170 H 479.948 -1.9762 3.47543 0
M  V30 5171 H 481.388 -2.93031 3.06445 0
M  V30 5172 C 479.847 -2.97611 1.57891 0
M  V30 5173 O 480.377 -3.89629 0.97735 0
M  V30 5174 N 478.583 -2.59905 1.29992 0
M  V30 5175 H 478.13 -1.85154 1.79097 0
M  V30 5176 H 478.088 -3.08932 0.583798 0
M  V30 5177 N 481.861 -1.55662 -0.24637 0
M  V30 5178 C 482.824 -1.89558 -1.28842 0
M  V30 5179 C 483.824 -0.772082 -1.41052 0
M  V30 5180 O 485.014 -1.04007 -1.39743 0
M  V30 5181 C 482.146 -2.12449 -2.66605 0
M  V30 5182 H 483.339 -2.82735 -1.00004 0
M  V30 5183 H 480.892 -1.48562 -0.485684 0
M  V30 5184 H 481.627 -1.21742 -3.00582 0
M  V30 5185 H 481.412 -2.94273 -2.59125 0
M  V30 5186 H 482.902 -2.39854 -3.41847 0
M  V30 5187 N 483.339 0.512053 -1.4905 0
M  V30 5188 C 484.287 1.63568 -1.65373 0
M  V30 5189 C 485.281 1.61228 -0.519806 0
M  V30 5190 O 486.487 1.65869 -0.699101 0
M  V30 5191 H 482.862 0.542019 -0.521267 0
M  V30 5192 H 484.833 1.4695 -2.59708 0
M  V30 5193 C 483.582 3.01761 -1.7273 0
M  V30 5194 H 482.905 3.04263 -2.59353 0
M  V30 5195 H 484.345 3.79948 -1.8819 0
M  V30 5196 C 482.804 3.33609 -0.46973 0
M  V30 5197 O 483.334 3.99607 0.409492 0
M  V30 5198 N 481.54 2.88651 -0.336003 0
M  V30 5199 H 481.087 2.35119 -1.05247 0
M  V30 5200 H 481.045 3.10328 0.504363 0
M  V30 5201 N 484.817 1.37938 0.762283 0
M  V30 5202 C 486.228 1.30094 1.33912 0
M  V30 5203 C 486.579 -0.0472026 1.96143 0
M  V30 5204 O 485.704 -0.94917 1.94473 0
M  V30 5205 C 486.299 2.35592 2.43478 0
M  V30 5206 C 484.858 2.31353 2.96905 0
M  V30 5207 C 484.005 2.18919 1.70205 0
M  V30 5208 H 486.956 1.48423 0.561816 0
M  V30 5209 H 486.977 2.00806 3.23199 0
M  V30 5210 H 486.489 3.33701 1.98155 0
M  V30 5211 H 484.59 1.36799 3.46579 0
M  V30 5212 H 484.703 3.25147 3.51875 0
M  V30 5213 H 483.067 1.65624 1.93496 0
M  V30 5214 H 483.85 3.18956 1.26973 0
M  V30 5215 N 486.295 -0.989507 1.22664 0
M  V30 5216 C 487.572 -1.70326 0.961688 0
M  V30 5217 C 487.952 -2.04537 -0.522279 0
M  V30 5218 O 487.3 -1.73136 -1.49118 0
M  V30 5219 C 487.51 -2.95135 1.86269 0
M  V30 5220 C 488.858 -3.67842 2.12078 0
M  V30 5221 O 489.882 -3.0515 1.83745 0
M  V30 5222 O 488.741 -4.80644 2.60083 0
M  V30 5223 H 485.835 -0.743589 0.361946 0
M  V30 5224 H 488.381 -1.04555 1.33665 0
M  V30 5225 H 487.153 -2.66382 2.8663 0
M  V30 5226 H 486.776 -3.68645 1.48952 0
M  V30 5227 N 487.773 -1.03688 -1.18687 0
M  V30 5228 C 489.013 -0.746858 -1.90267 0
M  V30 5229 C 489.377 0.712075 -1.78307 0
M  V30 5230 O 490.578 1.11553 -2.44559 0
M  V30 5231 C 488.849 -1.19543 -3.36815 0
M  V30 5232 S 490.408 -1.03047 -4.26529 0
M  V30 5233 H 487.226 -0.271663 -0.657054 0
M  V30 5234 H 489.828 -1.32838 -1.43437 0
M  V30 5235 H 488.532 -2.2527 -3.43047 0
M  V30 5236 H 488.063 -0.607533 -3.88681 0
M  V30 5237 H 490.078 0.0543232 -4.9617 0
M  V30 5238 N 489.251 1.34841 -0.815825 0
M  V30 5239 C 490.198 2.29644 -0.230664 0
M  V30 5240 C 491.168 1.53253 0.640533 0
M  V30 5241 O 492.353 1.81653 0.583672 0
M  V30 5242 C 489.493 3.39715 0.607275 0
M  V30 5243 C 488.606 4.31056 -0.28538 0
M  V30 5244 C 487.741 5.28225 0.561446 0
M  V30 5245 C 486.78 6.11204 -0.331035 0
M  V30 5246 N 485.917 7.00483 0.476302 0
M  V30 5247 H 490.757 2.79095 -1.0445 0
M  V30 5248 H 488.294 1.37351 -0.526595 0
M  V30 5249 H 490.252 4.02208 1.10835 0
M  V30 5250 H 488.882 2.91517 1.38629 0
M  V30 5251 H 487.934 3.69487 -0.904621 0
M  V30 5252 H 489.246 4.89239 -0.97193 0
M  V30 5253 H 488.4 5.96135 1.12728 0
M  V30 5254 H 487.139 4.70562 1.28153 0
M  V30 5255 H 486.144 5.42232 -0.909069 0
M  V30 5256 H 487.369 6.70947 -1.04912 0
M  V30 5257 H 485.315 6.45296 1.18019 0
M  V30 5258 H 485.232 7.55847 -0.152008 0
M  V30 5259 H 486.5 7.7273 1.02512 0
M  V30 5260 N 490.729 0.570148 1.46925 0
M  V30 5261 C 491.659 -0.158274 2.32963 0
M  V30 5262 C 492.64 -0.896093 1.44583 0
M  V30 5263 O 493.825 -0.874022 1.7342 0
M  V30 5264 C 490.955 -1.18055 3.26619 0
M  V30 5265 C 489.909 -0.558379 4.24342 0
M  V30 5266 C 489.235 -1.68623 5.07415 0
M  V30 5267 C 490.535 0.496295 5.19937 0
M  V30 5268 H 492.229 0.560046 2.94115 0
M  V30 5269 H 489.775 0.270775 1.41431 0
M  V30 5270 H 491.728 -1.69841 3.85658 0
M  V30 5271 H 490.452 -1.92899 2.63548 0
M  V30 5272 H 489.111 -0.0617157 3.66548 0
M  V30 5273 H 488.759 -2.42402 4.40738 0
M  V30 5274 H 488.459 -1.27564 5.73586 0
M  V30 5275 H 489.983 -2.20709 5.69315 0
M  V30 5276 H 491.397 0.0640052 5.73264 0
M  V30 5277 H 489.794 0.82649 5.94381 0
M  V30 5278 H 490.864 1.38735 4.6463 0
M  V30 5279 N 492.207 -1.54576 0.307264 0
M  V30 5280 C 493.453 -2.0056 -0.300612 0
M  V30 5281 C 493.786 -1.1953 -1.53057 0
M  V30 5282 O 493.061 -0.27337 -1.92569 0
M  V30 5283 C 493.344 -3.54167 -0.650987 0
M  V30 5284 C 493.197 -4.45933 0.588539 0
M  V30 5285 C 494.516 -4.14645 -1.47506 0
M  V30 5286 H 491.635 -0.729075 -0.107788 0
M  V30 5287 H 494.277 -1.85286 0.420606 0
M  V30 5288 H 492.427 -3.67313 -1.26544 0
M  V30 5289 H 494.099 -4.44683 1.22697 0
M  V30 5290 H 492.342 -4.16274 1.22058 0
M  V30 5291 H 493.013 -5.51189 0.299153 0
M  V30 5292 H 495.489 -4.04973 -0.955821 0
M  V30 5293 H 494.365 -5.22269 -1.68899 0
M  V30 5294 H 494.626 -3.66921 -2.4662 0
M  V30 5295 N 493.685 -0.035106 -1.57561 0
M  V30 5296 C 494.615 0.942993 -2.13612 0
M  V30 5297 C 495.596 1.33531 -1.05373 0
M  V30 5298 O 496.781 1.41287 -1.33235 0
M  V30 5299 C 493.911 2.22332 -2.66807 0
M  V30 5300 C 492.865 1.97156 -3.79886 0
M  V30 5301 C 492.191 3.31506 -4.19533 0
M  V30 5302 C 493.491 1.30596 -5.05709 0
M  V30 5303 H 495.185 0.476179 -2.95589 0
M  V30 5304 H 492.731 0.227602 -1.4219 0
M  V30 5305 H 494.684 2.91142 -3.04654 0
M  V30 5306 H 493.408 2.7119 -1.81999 0
M  V30 5307 H 492.067 1.30763 -3.42486 0
M  V30 5308 H 491.715 3.78134 -3.31698 0
M  V30 5309 H 491.415 3.15465 -4.95738 0
M  V30 5310 H 492.939 4.01574 -4.59968 0
M  V30 5311 H 494.353 1.89416 -5.41105 0
M  V30 5312 H 492.75 1.24934 -5.86951 0
M  V30 5313 H 493.82 0.279742 -4.84092 0
M  V30 5314 N 495.163 1.55791 0.238111 0
M  V30 5315 C 496.11 1.9105 1.29493 0
M  V30 5316 C 497.08 0.765733 1.47397 0
M  V30 5317 O 498.265 1.02017 1.61236 0
M  V30 5318 C 495.405 2.21826 2.64362 0
M  V30 5319 C 494.518 3.49153 2.54394 0
M  V30 5320 C 493.653 3.69455 3.81676 0
M  V30 5321 C 492.692 4.90353 3.66361 0
M  V30 5322 N 491.829 5.07131 4.85554 0
M  V30 5323 H 496.669 2.81172 0.987233 0
M  V30 5324 H 494.206 1.39179 0.476203 0
M  V30 5325 H 496.164 2.37675 3.4288 0
M  V30 5326 H 494.794 1.34897 2.93262 0
M  V30 5327 H 493.846 3.41587 1.67399 0
M  V30 5328 H 495.158 4.37818 2.38991 0
M  V30 5329 H 494.312 3.85311 4.68636 0
M  V30 5330 H 493.051 2.7904 3.99985 0
M  V30 5331 H 492.056 4.74464 2.77784 0
M  V30 5332 H 493.281 5.82237 3.49538 0
M  V30 5333 H 491.227 4.19654 5.04209 0
M  V30 5334 H 491.144 5.89899 4.72816 0
M  V30 5335 H 492.412 5.27407 5.73988 0
M  V30 5336 N 496.642 -0.504142 1.49319 0
M  V30 5337 C 497.89 -1.25598 1.58334 0
M  V30 5338 C 498.211 -1.93114 0.270538 0
M  V30 5339 O 497.481 -1.82585 -0.709891 0
M  V30 5340 H 496.061 -0.466571 0.58337 0
M  V30 5341 H 498.723 -0.584547 1.85928 0
M  V30 5342 H 497.819 -2.02159 2.37778 0
M  V30 5343 N 498.12 -1.38341 -0.754957 0
M  V30 5344 C 499.05 -1.38176 -1.88227 0
M  V30 5345 C 500.031 -0.247873 -1.68284 0
M  V30 5346 O 501.216 -0.45075 -1.88896 0
M  V30 5347 C 498.346 -1.20471 -3.25736 0
M  V30 5348 C 497.3 -2.3105 -3.60278 0
M  V30 5349 C 496.626 -1.98452 -4.96509 0
M  V30 5350 C 497.926 -3.73305 -3.65295 0
M  V30 5351 H 499.62 -2.32512 -1.88622 0
M  V30 5352 H 497.166 -1.1192 -0.906082 0
M  V30 5353 H 499.119 -1.18982 -4.04254 0
M  V30 5354 H 497.843 -0.225965 -3.25817 0
M  V30 5355 H 496.502 -2.31723 -2.84078 0
M  V30 5356 H 496.15 -0.990641 -4.93148 0
M  V30 5357 H 495.85 -2.7251 -5.20588 0
M  V30 5358 H 497.374 -1.98578 -5.77407 0
M  V30 5359 H 498.788 -3.7467 -4.3393 0
M  V30 5360 H 497.185 -4.46557 -4.00883 0
M  V30 5361 H 498.255 -4.05719 -2.65556 0
M  V30 5362 N 499.598 0.982988 -1.23187 0
M  V30 5363 C 500.846 1.72052 -1.06031 0
M  V30 5364 C 501.167 1.90769 0.404019 0
M  V30 5365 O 500.437 1.47446 1.28982 0
M  V30 5366 H 499.017 0.637499 -0.389363 0
M  V30 5367 H 501.679 1.18338 -1.54862 0
M  V30 5368 H 500.775 2.7111 -1.54615 0
M  V30 5369 N 501.076 1.04316 1.18135 0
M  V30 5370 C 502.304 0.768117 1.92113 0
M  V30 5371 C 502.719 -0.675057 1.76319 0
M  V30 5372 O 502.076 -1.46038 1.09449 0
M  V30 5373 C 502.127 1.12808 3.43448 0
M  V30 5374 O 501.848 2.5146 3.58747 0
M  V30 5375 C 503.349 0.8779 4.3452 0
M  V30 5376 H 500.569 0.279937 0.609817 0
M  V30 5377 H 503.113 1.39149 1.49859 0
M  V30 5378 H 501.268 0.549623 3.83481 0
M  V30 5379 H 501.682 2.65313 4.52448 0
M  V30 5380 H 503.156 1.17959 5.39249 0
M  V30 5381 H 503.633 -0.187239 4.38801 0
M  V30 5382 H 504.239 1.43977 4.00188 0
M  V30 5383 N 502.554 -1.34406 0.822964 0
M  V30 5384 C 503.502 -2.31428 0.233165 0
M  V30 5385 C 504.496 -1.57404 -0.626118 0
M  V30 5386 O 505.702 -1.72402 -0.517453 0
M  V30 5387 H 502.077 -0.749863 0.0566557 0
M  V30 5388 H 504.048 -2.78699 1.06628 0
M  V30 5389 C 502.797 -3.42653 -0.590264 0
M  V30 5390 H 502.12 -3.99753 0.0616129 0
M  V30 5391 H 503.56 -4.12778 -0.969054 0
M  V30 5392 C 502.019 -2.87112 -1.76262 0
M  V30 5393 O 502.549 -2.81995 -2.8608 0
M  V30 5394 N 500.755 -2.43934 -1.57938 0
M  V30 5395 H 500.302 -2.48296 -0.686078 0
M  V30 5396 H 500.26 -2.07123 -2.36532 0
M  V30 5397 N 504.032 -0.577932 -1.46621 0
M  V30 5398 C 505.443 -0.150071 -1.86096 0
M  V30 5399 C 505.794 1.28563 -1.48209 0
M  V30 5400 O 504.919 1.97036 -0.894754 0
M  V30 5401 C 505.514 -0.265576 -3.37758 0
M  V30 5402 C 504.073 0.10738 -3.76247 0
M  V30 5403 C 503.22 -0.603711 -2.70649 0
M  V30 5404 H 506.171 -0.786438 -1.37844 0
M  V30 5405 H 506.192 0.510352 -3.77062 0
M  V30 5406 H 505.704 -1.3106 -3.65301 0
M  V30 5407 H 503.805 1.15272 -3.54321 0
M  V30 5408 H 503.918 -0.26561 -4.78363 0
M  V30 5409 H 502.282 -0.0444884 -2.54661 0
M  V30 5410 H 503.065 -1.65029 -3.01032 0
M  V30 5411 N 505.51 1.54411 -0.315457 0
M  V30 5412 C 506.738 2.04833 0.291738 0
M  V30 5413 C 507.153 1.19203 1.46411 0
M  V30 5414 O 506.51 0.220867 1.81159 0
M  V30 5415 C 506.561 3.53969 0.73404 0
M  V30 5416 O 506.282 4.36346 -0.391682 0
M  V30 5417 C 507.783 4.2045 1.40489 0
M  V30 5418 H 505.003 0.668195 0.0612947 0
M  V30 5419 H 507.547 1.99276 -0.45929 0
M  V30 5420 H 505.702 3.5984 1.43506 0
M  V30 5421 H 506.116 5.24481 -0.0447088 0
M  V30 5422 H 507.59 5.26278 1.66539 0
M  V30 5423 H 508.067 3.71067 2.3496 0
M  V30 5424 H 508.673 4.18694 0.746662 0
M  V30 5425 N 506.988 0.0434614 1.5754 0
M  V30 5426 C 507.918 -0.931651 2.14109 0
M  V30 5427 C 508.899 -1.32971 1.06079 0
M  V30 5428 O 510.084 -1.40579 1.33982 0
M  V30 5429 C 507.214 -2.20914 2.67982 0
M  V30 5430 C 506.168 -1.95139 3.80926 0
M  V30 5431 C 505.494 -3.29276 4.21285 0
M  V30 5432 C 506.794 -1.27913 5.06395 0
M  V30 5433 H 508.488 -0.460497 2.95837 0
M  V30 5434 H 506.034 -0.220058 1.42309 0
M  V30 5435 H 507.987 -2.89522 3.06194 0
M  V30 5436 H 506.711 -2.70221 1.83434 0
M  V30 5437 H 505.37 -1.28945 3.43175 0
M  V30 5438 H 505.018 -3.76369 3.33699 0
M  V30 5439 H 504.718 -3.12831 4.97404 0
M  V30 5440 H 506.242 -3.99129 4.62091 0
M  V30 5441 H 507.656 -1.86544 5.42102 0
M  V30 5442 H 506.053 -1.2182 5.87605 0
M  V30 5443 H 507.123 -0.254066 4.84234 0
M  V30 5444 N 508.466 -1.55915 -0.229846 0
M  V30 5445 C 509.376 -1.94891 -1.30593 0
M  V30 5446 C 510.392 -0.851604 -1.51736 0
M  V30 5447 O 511.568 -1.15447 -1.65027 0
M  V30 5448 C 508.633 -2.25052 -2.63728 0
M  V30 5449 C 507.694 -3.48306 -2.5096 0
M  V30 5450 C 506.927 -3.77019 -3.77747 0
M  V30 5451 O 507.15 -3.07534 -4.80395 0
M  V30 5452 O 506.084 -4.70523 -3.75356 0
M  V30 5453 H 509.91 -2.86581 -1.00525 0
M  V30 5454 H 507.495 -1.43017 -0.432025 0
M  V30 5455 H 509.377 -2.45682 -3.42372 0
M  V30 5456 H 508.052 -1.36538 -2.93495 0
M  V30 5457 H 506.959 -3.32964 -1.70546 0
M  V30 5458 H 508.292 -4.37177 -2.26136 0
M  V30 5459 N 509.944 0.496216 -1.49584 0
M  V30 5460 C 510.854 1.62352 -1.69349 0
M  V30 5461 C 511.87 1.64184 -0.576147 0
M  V30 5462 O 513.046 1.82517 -0.85144 0
M  V30 5463 C 510.111 2.98698 -1.76013 0
M  V30 5464 C 509.172 3.07454 -2.99617 0
M  V30 5465 C 508.405 4.37296 -3.05953 0
M  V30 5466 O 508.628 5.2637 -2.19752 0
M  V30 5467 O 507.562 4.51124 -3.9846 0
M  V30 5468 H 511.388 1.48606 -2.64859 0
M  V30 5469 H 508.973 0.673022 -1.33382 0
M  V30 5470 H 510.855 3.79725 -1.82721 0
M  V30 5471 H 509.53 3.12696 -0.836828 0
M  V30 5472 H 508.437 2.25597 -2.98424 0
M  V30 5473 H 509.77 2.98385 -3.91443 0
M  V30 5474 N 511.423 1.38739 0.74761 0
M  V30 5475 C 512.356 1.3083 1.86972 0
M  V30 5476 C 513.334 0.184229 1.61553 0
M  V30 5477 O 514.518 0.36256 1.8498 0
M  V30 5478 C 511.645 1.02854 3.22705 0
M  V30 5479 C 510.691 2.17281 3.67003 0
M  V30 5480 S 511.524 3.79468 3.77842 0
M  V30 5481 C 512.68 3.53692 5.16385 0
M  V30 5482 H 512.913 2.258 1.93395 0
M  V30 5483 H 510.446 1.24646 0.911199 0
M  V30 5484 H 512.404 0.87397 4.01089 0
M  V30 5485 H 511.065 0.0959295 3.13953 0
M  V30 5486 H 510.258 1.93267 4.65472 0
M  V30 5487 H 509.86 2.28876 2.9579 0
M  V30 5488 H 512.152 3.10176 6.02327 0
M  V30 5489 H 513.095 4.51576 5.45422 0
M  V30 5490 H 513.503 2.8807 4.85464 0
M  V30 5491 N 512.901 -0.976442 1.23707 0
M  V30 5492 C 513.831 -2.08749 1.04624 0
M  V30 5493 C 514.812 -1.70057 -0.0380956 0
M  V30 5494 O 515.997 -1.93782 0.127308 0
M  V30 5495 C 513.127 -3.41335 0.640902 0
M  V30 5496 C 512.081 -3.93947 1.67302 0
M  V30 5497 C 511.407 -5.22774 1.12301 0
M  V30 5498 C 512.707 -4.22769 3.06697 0
M  V30 5499 H 514.401 -2.24972 1.97555 0
M  V30 5500 H 511.947 -1.08108 0.951247 0
M  V30 5501 H 513.9 -4.18489 0.494434 0
M  V30 5502 H 512.624 -3.24988 -0.324099 0
M  V30 5503 H 511.283 -3.18941 1.80755 0
M  V30 5504 H 510.931 -5.0278 0.148877 0
M  V30 5505 H 510.631 -5.58942 1.81267 0
M  V30 5506 H 512.155 -6.02546 0.988479 0
M  V30 5507 H 513.569 -4.90659 2.96524 0
M  V30 5508 H 511.966 -4.70147 3.72937 0
M  V30 5509 H 513.036 -3.29885 3.55392 0
M  V30 5510 N 514.379 -1.04941 -1.1758 0
M  V30 5511 C 515.607 -0.778294 -1.91703 0
M  V30 5512 C 516.022 0.665697 -1.76675 0
M  V30 5513 O 515.379 1.45456 -1.10222 0
M  V30 5514 C 515.43 -1.14628 -3.42845 0
M  V30 5515 O 515.151 -2.53359 -3.57409 0
M  V30 5516 C 516.652 -0.900931 -4.34049 0
M  V30 5517 H 513.872 -0.283167 -0.608323 0
M  V30 5518 H 516.416 -1.39942 -1.49119 0
M  V30 5519 H 514.571 -0.569953 -3.83184 0
M  V30 5520 H 514.985 -2.67709 -4.51035 0
M  V30 5521 H 516.459 -1.20817 -5.38616 0
M  V30 5522 H 516.936 0.163966 -4.38894 0
M  V30 5523 H 517.542 -1.46097 -3.99419 0
M  V30 5524 N 515.857 1.33968 -0.830081 0
M  V30 5525 C 516.82 2.27694 -0.26235 0
M  V30 5526 C 517.82 1.50589 0.563876 0
M  V30 5527 O 519.01 1.70028 0.378941 0
M  V30 5528 C 516.142 3.35002 0.63138 0
M  V30 5529 H 517.335 2.79419 -1.08928 0
M  V30 5530 H 514.888 1.44221 -0.602486 0
M  V30 5531 H 515.623 2.88504 1.48109 0
M  V30 5532 H 515.408 3.92079 0.0403276 0
M  V30 5533 H 516.898 4.04897 1.02217 0
M  V30 5534 N 517.335 0.585699 1.46312 0
M  V30 5535 C 518.575 0.0751432 2.04262 0
M  V30 5536 C 518.939 -1.26201 1.44697 0
M  V30 5537 O 520.14 -1.86198 1.93865 0
M  V30 5538 C 518.411 0.013478 3.57397 0
M  V30 5539 S 519.97 -0.439068 4.36598 0
M  V30 5540 H 516.788 0.0389228 0.709934 0
M  V30 5541 H 519.39 0.778871 1.79315 0
M  V30 5542 H 518.094 0.990558 3.98266 0
M  V30 5543 H 517.625 -0.712927 3.86886 0
M  V30 5544 H 519.64 -1.6932 4.66417 0
M  V30 5545 N 518.813 -1.54241 0.323641 0
M  V30 5546 C 519.745 -2.21836 -0.576311 0
M  V30 5547 C 520.758 -1.21837 -1.07979 0
M  V30 5548 O 521.947 -1.48306 -0.99336 0
M  V30 5549 C 519.047 -2.86923 -1.80356 0
M  V30 5550 C 518.22 -4.1306 -1.43875 0
M  V30 5551 C 517.279 -4.6174 -2.52353 0
M  V30 5552 O 516.305 -5.26421 -2.16494 0
M  V30 5553 N 517.507 -4.35974 -3.83284 0
M  V30 5554 H 520.272 -2.997 0.00247987 0
M  V30 5555 H 517.833 -1.61233 0.146848 0
M  V30 5556 H 519.825 -3.16414 -2.52318 0
M  V30 5557 H 518.395 -2.12765 -2.29019 0
M  V30 5558 H 517.615 -3.90334 -0.550752 0
M  V30 5559 H 518.903 -4.95148 -1.17071 0
M  V30 5560 H 518.301 -3.84203 -4.15216 0
M  V30 5561 H 516.858 -4.70119 -4.51477 0
M  V30 5562 N 520.291 -0.0518155 -1.57515 0
M  V30 5563 C 521.539 0.620595 -1.92336 0
M  V30 5564 C 521.86 1.71345 -0.930907 0
M  V30 5565 O 521.13 1.95885 0.0241341 0
M  V30 5566 H 519.71 0.232226 -0.709986 0
M  V30 5567 H 522.372 -0.104969 -1.94617 0
M  V30 5568 H 521.468 1.05879 -2.93592 0
M  V30 5569 N 521.769 1.56035 0.221574 0
M  V30 5570 C 523.015 1.79312 0.947372 0
M  V30 5571 C 523.348 0.621453 1.83988 0
M  V30 5572 O 522.623 -0.379287 1.90766 0
M  V30 5573 C 522.906 3.1267 1.78633 0
M  V30 5574 C 522.759 4.40284 0.920312 0
M  V30 5575 C 524.078 3.4247 2.7641 0
M  V30 5576 H 521.197 0.652328 0.342982 0
M  V30 5577 H 523.839 1.88765 0.216244 0
M  V30 5578 H 521.989 3.04741 2.40967 0
M  V30 5579 H 523.661 4.60232 0.313718 0
M  V30 5580 H 521.904 4.33212 0.225734 0
M  V30 5581 H 522.575 5.30033 1.54171 0
M  V30 5582 H 525.051 3.50526 2.24211 0
M  V30 5583 H 523.927 4.3695 3.32213 0
M  V30 5584 H 524.188 2.64635 3.54148 0
M  V30 5585 N 523.247 -0.488276 1.49845 0
M  V30 5586 C 524.495 -1.23911 1.59657 0
M  V30 5587 C 524.816 -1.92816 0.291005 0
M  V30 5588 O 524.086 -1.83328 -0.690485 0
M  V30 5589 H 522.666 -0.460357 0.588286 0
M  V30 5590 H 525.328 -0.564794 1.86537 0
M  V30 5591 H 524.424 -1.99625 2.39909 0
M  V30 5592 N 524.725 -1.39134 -0.740242 0
M  V30 5593 C 525.973 -1.35803 -1.49673 0
M  V30 5594 C 526.294 0.0470897 -1.94943 0
M  V30 5595 O 525.564 0.997347 -1.68611 0
M  V30 5596 H 524.144 -0.499736 -0.555224 0
M  V30 5597 H 526.806 -1.73947 -0.879107 0
M  V30 5598 H 525.902 -2.0174 -2.38133 0
M  V30 5599 N 526.204 0.969867 -1.24223 0
M  V30 5600 C 527.615 1.52717 -1.07399 0
M  V30 5601 C 527.966 1.92956 0.355298 0
M  V30 5602 O 527.091 1.77112 1.2434 0
M  V30 5603 C 527.686 2.77521 -1.94339 0
M  V30 5604 C 526.245 3.29615 -1.81744 0
M  V30 5605 C 525.392 2.02537 -1.89405 0
M  V30 5606 H 528.343 0.788399 -1.37732 0
M  V30 5607 H 528.364 3.50773 -1.47439 0
M  V30 5608 H 527.876 2.48203 -2.98357 0
M  V30 5609 H 525.977 3.63789 -0.805505 0
M  V30 5610 H 526.09 3.98661 -2.65718 0
M  V30 5611 H 524.454 2.17151 -1.33108 0
M  V30 5612 H 525.237 1.75587 -2.94999 0
M  V30 5613 N 527.682 1.05563 1.17022 0
M  V30 5614 C 528.93 0.76642 1.87004 0
M  V30 5615 C 529.251 -0.708854 1.8166 0
M  V30 5616 O 528.521 -1.51242 1.2451 0
M  V30 5617 H 527.101 0.280516 0.692329 0
M  V30 5618 H 529.763 1.33557 1.41945 0
M  V30 5619 H 528.859 1.08472 2.92644 0
M  V30 5620 N 529.16 -1.33526 0.837174 0
M  V30 5621 C 530.092 -2.28077 0.226579 0
M  V30 5622 C 531.105 -1.51666 -0.591717 0
M  V30 5623 O 532.294 -1.73511 -0.419064 0
M  V30 5624 C 529.394 -3.31597 -0.69978 0
M  V30 5625 C 528.567 -4.37329 0.0788067 0
M  V30 5626 C 527.626 -5.20526 -0.770637 0
M  V30 5627 O 526.652 -5.68811 -0.210453 0
M  V30 5628 N 527.854 -5.41639 -2.08825 0
M  V30 5629 H 530.619 -2.81115 1.03897 0
M  V30 5630 H 528.18 -1.46201 0.695476 0
M  V30 5631 H 530.172 -3.84158 -1.27298 0
M  V30 5632 H 528.742 -2.78848 -1.41288 0
M  V30 5633 H 527.962 -3.8529 0.833381 0
M  V30 5634 H 529.25 -5.05079 0.614238 0
M  V30 5635 H 528.648 -5.04108 -2.56693 0
M  V30 5636 H 527.205 -5.97263 -2.60998 0
M  V30 5637 N 530.638 -0.59345 -1.46 0
M  V30 5638 C 531.585 0.133618 -2.30413 0
M  V30 5639 C 532.555 0.873736 -1.41262 0
M  V30 5640 O 533.74 0.862279 -1.70204 0
M  V30 5641 C 530.88 1.13434 -3.25924 0
M  V30 5642 C 529.993 0.39656 -4.30176 0
M  V30 5643 C 529.128 1.38575 -5.12806 0
M  V30 5644 C 528.167 0.634984 -6.08797 0
M  V30 5645 N 527.304 1.57276 -6.84258 0
M  V30 5646 H 532.144 -0.592252 -2.92055 0
M  V30 5647 H 529.681 -0.303874 -1.43927 0
M  V30 5648 H 531.639 1.72752 -3.79753 0
M  V30 5649 H 530.269 1.82779 -2.66067 0
M  V30 5650 H 529.321 -0.311861 -3.79119 0
M  V30 5651 H 530.633 -0.189869 -4.98438 0
M  V30 5652 H 529.787 2.05141 -5.70966 0
M  V30 5653 H 528.526 2.00611 -4.44529 0
M  V30 5654 H 527.531 -0.0443925 -5.49782 0
M  V30 5655 H 528.756 0.0198678 -6.79097 0
M  V30 5656 H 526.702 2.18103 -6.18682 0
M  V30 5657 H 526.619 1.03941 -7.48821 0
M  V30 5658 H 527.887 2.22844 -7.46968 0
M  V30 5659 N 532.116 1.54067 -0.331816 0
M  V30 5660 C 533.079 2.23275 0.517768 0
M  V30 5661 C 534.079 1.22897 1.03697 0
M  V30 5662 O 535.269 1.47419 0.928084 0
M  V30 5663 C 532.401 2.94326 1.72004 0
M  V30 5664 H 533.594 2.99773 -0.0873507 0
M  V30 5665 H 531.147 1.56079 -0.0830042 0
M  V30 5666 H 531.882 2.21986 2.36417 0
M  V30 5667 H 531.667 3.67941 1.35507 0
M  V30 5668 H 533.157 3.47031 2.32291 0
M  V30 5669 N 533.594 0.0601682 1.57485 0
M  V30 5670 C 535.01 -0.296422 1.56823 0
M  V30 5671 C 535.21 -1.70831 1.0686 0
M  V30 5672 O 534.266 -2.4174 0.729245 0
M  V30 5673 C 535.579 -0.116681 3.00474 0
M  V30 5674 C 537.127 -0.187103 3.1244 0
M  V30 5675 C 537.602 -0.035783 4.57986 0
M  V30 5676 N 539.093 -0.0917676 4.63109 0
M  V30 5677 C 539.828 0.00107251 5.734 0
M  V30 5678 N 539.324 0.146773 6.92645 0
M  V30 5679 N 541.117 -0.0551577 5.62073 0
M  V30 5680 H 533.268 0.983055 1.88281 0
M  V30 5681 H 535.531 0.382386 0.867459 0
M  V30 5682 H 535.237 0.85712 3.41096 0
M  V30 5683 H 535.111 -0.873929 3.66936 0
M  V30 5684 H 537.498 -1.15138 2.71712 0
M  V30 5685 H 537.579 0.601052 2.48638 0
M  V30 5686 H 537.223 0.925212 4.99402 0
M  V30 5687 H 537.153 -0.843196 5.19806 0
M  V30 5688 H 539.644 -0.203261 3.77353 0
M  V30 5689 H 539.957 0.210076 7.72514 0
M  V30 5690 H 538.302 0.181979 6.94762 0
M  V30 5691 H 541.493 -0.167605 4.678 0
M  V30 5692 H 541.666 0.020652 6.47997 0
M  V30 5693 N 535.072 -1.5615 -0.213296 0
M  V30 5694 C 536.002 -1.96109 -1.26742 0
M  V30 5695 C 536.983 -0.830448 -1.48451 0
M  V30 5696 O 538.168 -1.09339 -1.60495 0
M  V30 5697 C 535.298 -2.28492 -2.61551 0
M  V30 5698 C 534.252 -3.44124 -2.54485 0
M  V30 5699 C 533.578 -3.62134 -3.93399 0
M  V30 5700 C 534.878 -4.78855 -2.08556 0
M  V30 5701 H 536.572 -2.84412 -0.935434 0
M  V30 5702 H 534.118 -1.36836 -0.44854 0
M  V30 5703 H 536.071 -2.55039 -3.3546 0
M  V30 5704 H 534.795 -1.37052 -2.96453 0
M  V30 5705 H 533.454 -3.17639 -1.83033 0
M  V30 5706 H 533.102 -2.68055 -4.25623 0
M  V30 5707 H 532.802 -4.39913 -3.89551 0
M  V30 5708 H 534.326 -3.91038 -4.68958 0
M  V30 5709 H 535.74 -5.04552 -2.72213 0
M  V30 5710 H 534.137 -5.59975 -2.1575 0
M  V30 5711 H 535.207 -4.73657 -1.03811 0
M  V30 5712 N 536.55 0.480323 -1.50102 0
M  V30 5713 C 537.483 1.59789 -1.62919 0
M  V30 5714 C 538.461 1.55429 -0.477557 0
M  V30 5715 O 539.645 1.75186 -0.695851 0
M  V30 5716 C 536.772 2.98351 -1.60325 0
M  V30 5717 C 535.818 3.20899 -2.80938 0
M  V30 5718 S 536.651 3.01791 -4.4236 0
M  V30 5719 C 537.807 4.42712 -4.42444 0
M  V30 5720 H 538.04 1.48676 -2.57454 0
M  V30 5721 H 535.573 0.666996 -1.3925 0
M  V30 5722 H 537.531 3.7824 -1.59514 0
M  V30 5723 H 536.192 3.06862 -0.670419 0
M  V30 5724 H 535.385 4.22102 -2.75401 0
M  V30 5725 H 534.987 2.48768 -2.79268 0
M  V30 5726 H 537.279 5.3518 -4.15438 0
M  V30 5727 H 538.222 4.53294 -5.43995 0
M  V30 5728 H 538.63 4.24359 -3.72263 0
M  V30 5729 N 538.028 1.39524 0.732853 0
M  V30 5730 C 538.991 1.38189 1.82857 0
M  V30 5731 C 539.991 0.278624 1.58368 0
M  V30 5732 O 541.181 0.536639 1.65728 0
M  V30 5733 C 538.313 1.15661 3.2068 0
M  V30 5734 H 539.506 2.35692 1.85444 0
M  V30 5735 H 537.059 1.2512 0.936728 0
M  V30 5736 H 537.794 0.188482 3.23752 0
M  V30 5737 H 537.579 1.95559 3.39852 0
M  V30 5738 H 539.069 1.17472 4.00737 0
M  V30 5739 N 539.506 -0.963266 1.24736 0
M  V30 5740 C 540.416 -2.09246 1.06082 0
M  V30 5741 C 541.432 -1.74 0.000363101 0
M  V30 5742 O 542.608 -2.0041 0.199479 0
M  V30 5743 C 539.673 -3.40115 0.672498 0
M  V30 5744 C 538.734 -3.89282 1.80993 0
M  V30 5745 C 537.967 -5.13905 1.44004 0
M  V30 5746 O 538.19 -5.69434 0.331835 0
M  V30 5747 O 537.124 -5.57566 2.26723 0
M  V30 5748 H 540.95 -2.27881 2.00759 0
M  V30 5749 H 538.535 -1.07649 1.03595 0
M  V30 5750 H 540.417 -4.18797 0.467668 0
M  V30 5751 H 539.092 -3.22771 -0.245102 0
M  V30 5752 H 537.999 -3.11642 2.06955 0
M  V30 5753 H 539.332 -4.1111 2.70646 0
M  V30 5754 N 540.985 -1.06182 -1.16461 0
M  V30 5755 C 541.948 -0.675723 -2.19013 0
M  V30 5756 C 542.948 0.277963 -1.58379 0
M  V30 5757 O 544.138 0.0604962 -1.74095 0
M  V30 5758 C 541.27 0.00591459 -3.40899 0
M  V30 5759 H 542.463 -1.58353 -2.54685 0
M  V30 5760 H 540.016 -0.856908 -1.30716 0
M  V30 5761 H 540.751 0.92652 -3.10783 0
M  V30 5762 H 540.536 -0.67984 -3.86161 0
M  V30 5763 H 542.026 0.26181 -4.16778 0
M  V30 5764 N 542.463 1.3308 -0.844243 0
M  V30 5765 C 543.393 2.3161 -0.296493 0
M  V30 5766 C 544.374 1.59215 0.598707 0
M  V30 5767 O 545.559 1.87077 0.521134 0
M  V30 5768 C 542.689 3.43313 0.524762 0
M  V30 5769 C 541.643 4.27115 -0.275106 0
M  V30 5770 C 540.969 5.30483 0.670236 0
M  V30 5771 C 542.269 5.00443 -1.49514 0
M  V30 5772 H 543.963 2.77672 -1.11976 0
M  V30 5773 H 541.509 1.33496 -0.539899 0
M  V30 5774 H 543.462 4.11273 0.918298 0
M  V30 5775 H 542.186 2.95952 1.3813 0
M  V30 5776 H 540.845 3.60787 -0.650267 0
M  V30 5777 H 540.493 4.79379 1.52332 0
M  V30 5778 H 540.193 5.87435 0.139123 0
M  V30 5779 H 541.717 6.01308 1.06117 0
M  V30 5780 H 543.131 5.61141 -1.17447 0
M  V30 5781 H 541.528 5.67071 -1.96343 0
M  V30 5782 H 542.598 4.28906 -2.26202 0
M  V30 5783 N 543.941 0.601185 1.45683 0
M  V30 5784 C 544.888 -0.121396 2.30481 0
M  V30 5785 C 545.858 -0.866232 1.41724 0
M  V30 5786 O 547.043 -0.85324 1.70659 0
M  V30 5787 C 544.183 -1.11704 3.26521 0
M  V30 5788 C 543.296 -0.373741 4.3038 0
M  V30 5789 C 542.431 -1.35854 5.13534 0
M  V30 5790 C 541.47 -0.602689 6.09126 0
M  V30 5791 N 540.607 -1.53645 6.85082 0
M  V30 5792 H 545.447 0.607732 2.91737 0
M  V30 5793 H 542.984 0.311502 1.43764 0
M  V30 5794 H 544.942 -1.70735 3.80664 0
M  V30 5795 H 543.572 -1.81366 2.67032 0
M  V30 5796 H 542.624 0.331962 3.78949 0
M  V30 5797 H 543.936 0.2163 4.98331 0
M  V30 5798 H 543.09 -2.02111 5.72046 0
M  V30 5799 H 541.829 -1.98251 4.45587 0
M  V30 5800 H 540.834 0.0735482 5.49751 0
M  V30 5801 H 542.059 0.0161467 6.79098 0
M  V30 5802 H 540.005 -2.14819 6.1983 0
M  V30 5803 H 539.922 -0.999688 7.49361 0
M  V30 5804 H 541.19 -2.1888 7.48139 0
M  V30 5805 N 545.419 -1.53889 0.339982 0
M  V30 5806 C 546.329 -2.28604 -0.526988 0
M  V30 5807 C 547.345 -1.33578 -1.11503 0
M  V30 5808 O 548.521 -1.66612 -1.13148 0
M  V30 5809 C 545.586 -3.04164 -1.66389 0
M  V30 5810 C 544.647 -4.14809 -1.10599 0
M  V30 5811 C 543.88 -4.86756 -2.18871 0
M  V30 5812 O 544.103 -4.58343 -3.39526 0
M  V30 5813 O 543.037 -5.73289 -1.83366 0
M  V30 5814 H 546.863 -3.03594 0.0802707 0
M  V30 5815 H 544.448 -1.4903 0.105141 0
M  V30 5816 H 546.33 -3.51427 -2.32544 0
M  V30 5817 H 545.005 -2.32035 -2.25703 0
M  V30 5818 H 543.912 -3.71857 -0.409067 0
M  V30 5819 H 545.245 -4.89029 -0.557771 0
M  V30 5820 N 546.897 -0.0685191 -1.57451 0
M  V30 5821 C 547.86 0.885173 -2.11417 0
M  V30 5822 C 548.86 1.22853 -1.03748 0
M  V30 5823 O 550.05 1.16235 -1.2975 0
M  V30 5824 C 547.182 2.18964 -2.61281 0
M  V30 5825 H 548.375 0.417034 -2.96986 0
M  V30 5826 H 545.928 0.18014 -1.55258 0
M  V30 5827 H 546.663 2.70321 -1.79156 0
M  V30 5828 H 546.448 1.9534 -3.39977 0
M  V30 5829 H 547.938 2.87242 -3.0312 0
M  V30 5830 N 548.375 1.56261 0.205012 0
M  V30 5831 C 549.305 1.96779 1.257 0
M  V30 5832 C 550.286 0.838309 1.48008 0
M  V30 5833 O 551.471 1.10189 1.59913 0
M  V30 5834 C 548.601 2.29876 2.60335 0
M  V30 5835 C 547.555 3.45469 2.52656 0
M  V30 5836 C 546.881 3.64215 3.91473 0
M  V30 5837 C 548.181 4.79954 2.06014 0
M  V30 5838 H 549.875 2.84904 0.920338 0
M  V30 5839 H 547.421 1.37072 0.441277 0
M  V30 5840 H 549.374 2.56814 3.34102 0
M  V30 5841 H 548.098 1.38622 2.95722 0
M  V30 5842 H 546.757 3.18605 1.81345 0
M  V30 5843 H 546.405 2.70309 4.24196 0
M  V30 5844 H 546.105 4.41973 3.87213 0
M  V30 5845 H 547.629 3.93519 4.66878 0
M  V30 5846 H 549.043 5.05989 2.69533 0
M  V30 5847 H 547.44 5.61111 2.12777 0
M  V30 5848 H 548.51 4.74201 1.01297 0
M  V30 5849 N 549.853 -0.472356 1.50355 0
M  V30 5850 C 550.816 -1.5529 1.68576 0
M  V30 5851 C 551.816 -1.50863 0.556511 0
M  V30 5852 O 553.006 -1.53505 0.823516 0
M  V30 5853 C 550.138 -2.94921 1.70981 0
M  V30 5854 H 551.331 -1.40451 2.64978 0
M  V30 5855 H 548.884 -0.698645 1.39816 0
M  V30 5856 H 549.619 -3.15204 0.762675 0
M  V30 5857 H 549.404 -2.99541 2.53017 0
M  V30 5858 H 550.894 -3.73372 1.87037 0
M  V30 5859 N 551.331 -1.39911 -0.725443 0
M  V30 5860 C 552.742 -1.33599 -1.30415 0
M  V30 5861 C 553.093 -0.00481792 -1.96199 0
M  V30 5862 O 552.218 0.897275 -1.96921 0
M  V30 5863 C 552.813 -2.41965 -2.37146 0
M  V30 5864 C 551.372 -2.39144 -2.90667 0
M  V30 5865 C 550.519 -2.23355 -1.64341 0
M  V30 5866 H 553.47 -1.4986 -0.522267 0
M  V30 5867 H 553.491 -2.09304 -3.17761 0
M  V30 5868 H 553.003 -3.38837 -1.89238 0
M  V30 5869 H 551.104 -1.4594 -3.4283 0
M  V30 5870 H 551.217 -3.34362 -3.43131 0
M  V30 5871 H 549.581 -1.70696 -1.89037 0
M  V30 5872 H 550.364 -3.2221 -1.18471 0
M  V30 5873 N 552.809 0.956637 -1.25245 0
M  V30 5874 C 553.772 2.03457 -1.05537 0
M  V30 5875 C 554.772 1.60798 -0.00886317 0
M  V30 5876 O 555.962 1.72384 -0.250865 0
M  V30 5877 C 553.094 3.35543 -0.601965 0
M  V30 5878 H 554.287 2.22372 -2.01223 0
M  V30 5879 H 551.84 1.13344 -1.07623 0
M  V30 5880 H 552.575 3.22323 0.357584 0
M  V30 5881 H 552.36 3.67854 -1.35743 0
M  V30 5882 H 553.85 4.14769 -0.485454 0
M  V30 5883 N 554.287 1.06798 1.15896 0
M  V30 5884 C 555.698 0.811355 1.68149 0
M  V30 5885 C 556.049 -0.664339 1.8461 0
M  V30 5886 O 555.174 -1.51485 1.54535 0
M  V30 5887 C 555.769 1.46624 3.05429 0
M  V30 5888 C 554.328 1.25726 3.54781 0
M  V30 5889 C 553.475 1.53949 2.3064 0
M  V30 5890 H 556.426 1.23078 1.00187 0
M  V30 5891 H 556.447 0.88437 3.7008 0
M  V30 5892 H 555.959 2.54025 2.93416 0
M  V30 5893 H 554.06 0.20322 3.72045 0
M  V30 5894 H 554.173 1.97354 4.36564 0
M  V30 5895 H 552.537 0.96025 2.35905 0
M  V30 5896 H 553.32 2.6252 2.2122 0
M  V30 5897 N 555.766 -1.3263 0.851289 0
M  V30 5898 C 557.015 -1.96633 0.449267 0
M  V30 5899 C 557.328 -1.68131 -0.999562 0
M  V30 5900 O 558.534 -2.25845 -1.50685 0
M  V30 5901 C 556.99 -3.51946 0.752446 0
M  V30 5902 C 556.598 -3.89311 2.21678 0
M  V30 5903 C 558.342 -4.22437 0.417983 0
M  V30 5904 C 556.249 -5.37655 2.46336 0
M  V30 5905 H 555.179 -0.735888 0.164269 0
M  V30 5906 H 557.83 -1.51073 1.0416 0
M  V30 5907 H 556.212 -3.95899 0.0895858 0
M  V30 5908 H 557.386 -3.56378 2.92115 0
M  V30 5909 H 555.701 -3.31836 2.51543 0
M  V30 5910 H 558.298 -5.31549 0.579674 0
M  V30 5911 H 558.641 -4.11349 -0.640115 0
M  V30 5912 H 559.174 -3.84057 1.03659 0
M  V30 5913 H 555.913 -5.5376 3.50757 0
M  V30 5914 H 555.433 -5.72005 1.80473 0
M  V30 5915 H 557.112 -6.04695 2.30115 0
M  V30 5916 N 557.244 -0.608902 -1.45362 0
M  V30 5917 C 558.655 -0.189511 -1.85736 0
M  V30 5918 C 559.006 1.2539 -1.50903 0
M  V30 5919 O 558.131 1.95094 -0.936347 0
M  V30 5920 C 558.726 -0.33716 -3.37118 0
M  V30 5921 C 557.285 0.0275487 -3.7639 0
M  V30 5922 C 556.432 -0.660983 -2.69307 0
M  V30 5923 H 559.383 -0.815499 -1.36144 0
M  V30 5924 H 559.404 0.430257 -3.7806 0
M  V30 5925 H 558.916 -1.38779 -3.62439 0
M  V30 5926 H 557.017 1.0773 -3.56686 0
M  V30 5927 H 557.13 -0.367018 -4.77692 0
M  V30 5928 H 555.494 -0.0984958 -2.54509 0
M  V30 5929 H 556.277 -1.71377 -2.97464 0
M  V30 5930 N 558.722 1.53707 -0.348139 0
M  V30 5931 C 559.969 2.00988 0.246966 0
M  V30 5932 C 560.297 1.23586 1.50189 0
M  V30 5933 O 559.552 0.312817 1.93184 0
M  V30 5934 C 559.851 3.52292 0.602061 0
M  V30 5935 C 559.517 4.47453 -0.556509 0
M  V30 5936 C 558.179 4.73188 -0.874446 0
M  V30 5937 C 560.531 5.03851 -1.33354 0
M  V30 5938 C 557.859 5.52577 -1.9717 0
M  V30 5939 C 560.211 5.84437 -2.42108 0
M  V30 5940 C 558.875 6.08465 -2.74456 0
M  V30 5941 H 558.145 0.735469 0.0903712 0
M  V30 5942 H 560.792 1.85464 -0.477001 0
M  V30 5943 H 559.097 3.65672 1.40681 0
M  V30 5944 H 560.794 3.86337 1.07447 0
M  V30 5945 H 557.384 4.27558 -0.298652 0
M  V30 5946 H 561.568 4.8393 -1.10117 0
M  V30 5947 H 556.824 5.69418 -2.22651 0
M  V30 5948 H 560.998 6.27151 -3.02745 0
M  V30 5949 H 558.625 6.69768 -3.59604 0
M  V30 5950 N 560.2 0.0768682 1.57412 0
M  V30 5951 C 561.163 -0.873949 2.11884 0
M  V30 5952 C 562.163 -1.22301 1.04398 0
M  V30 5953 O 563.353 -1.15545 1.30365 0
M  V30 5954 C 560.485 -2.17575 2.62438 0
M  V30 5955 H 561.678 -0.401278 2.97203 0
M  V30 5956 H 559.231 -0.171904 1.55352 0
M  V30 5957 H 559.966 -2.69368 1.80587 0
M  V30 5958 H 559.751 -1.93534 3.41009 0
M  V30 5959 H 561.241 -2.85631 3.04639 0
M  V30 5960 N 561.678 -1.56367 -0.196722 0
M  V30 5961 C 562.641 -1.93561 -1.22746 0
M  V30 5962 C 563.641 -0.816566 -1.38524 0
M  V30 5963 O 564.831 -1.084 -1.36363 0
M  V30 5964 C 561.963 -2.20823 -2.59712 0
M  V30 5965 H 563.156 -2.85774 -0.909586 0
M  V30 5966 H 560.709 -1.50032 -0.438174 0
M  V30 5967 H 561.444 -1.31243 -2.96557 0
M  V30 5968 H 561.229 -3.02368 -2.49632 0
M  V30 5969 H 562.719 -2.50608 -3.34044 0
M  V30 5970 N 563.156 0.464375 -1.50603 0
M  V30 5971 C 564.119 1.54393 -1.69397 0
M  V30 5972 C 565.119 1.50566 -0.564504 0
M  V30 5973 O 566.309 1.53066 -0.831645 0
M  V30 5974 C 563.441 2.9401 -1.72543 0
M  V30 5975 H 564.634 1.39044 -2.65719 0
M  V30 5976 H 562.187 0.69122 -1.40185 0
M  V30 5977 H 562.922 3.14795 -0.77938 0
M  V30 5978 H 562.707 2.98195 -2.54602 0
M  V30 5979 H 564.197 3.72375 -1.89015 0
M  V30 5980 N 564.634 1.40294 0.718013 0
M  V30 5981 C 565.566 1.36281 1.84283 0
M  V30 5982 C 566.579 0.268621 1.60569 0
M  V30 5983 O 567.768 0.528798 1.70487 0
M  V30 5984 C 564.868 1.09741 3.2064 0
M  V30 5985 C 564.041 2.30767 3.71571 0
M  V30 5986 C 563.1 2.00424 4.86535 0
M  V30 5987 O 562.126 2.73268 4.99313 0
M  V30 5988 N 563.328 0.980724 5.72156 0
M  V30 5989 H 566.093 2.3322 1.88225 0
M  V30 5990 H 563.654 1.34616 0.899453 0
M  V30 5991 H 565.646 0.874322 3.95143 0
M  V30 5992 H 564.216 0.214771 3.11861 0
M  V30 5993 H 563.436 2.68921 2.88228 0
M  V30 5994 H 564.724 3.11455 4.02335 0
M  V30 5995 H 564.122 0.377375 5.6444 0
M  V30 5996 H 562.679 0.817538 6.46653 0
M  V30 5997 N 566.112 -0.949982 1.2575 0
M  V30 5998 C 567.044 -2.05088 1.02331 0
M  V30 5999 C 568.057 -1.62795 -0.0133247 0
M  V30 6000 O 569.246 -1.77067 0.225759 0
M  V30 6001 C 566.346 -3.34794 0.525924 0
M  V30 6002 C 565.519 -4.05903 1.62978 0
M  V30 6003 C 564.578 -5.1388 1.13196 0
M  V30 6004 O 563.604 -5.39072 1.82729 0
M  V30 6005 N 564.806 -5.80495 -0.0242926 0
M  V30 6006 H 567.571 -2.25747 1.97125 0
M  V30 6007 H 565.132 -1.11886 1.17018 0
M  V30 6008 H 567.124 -4.04312 0.177263 0
M  V30 6009 H 565.694 -3.10872 -0.328202 0
M  V30 6010 H 564.914 -3.3042 2.1498 0
M  V30 6011 H 566.202 -4.50166 2.37124 0
M  V30 6012 H 565.6 -5.62454 -0.605184 0
M  V30 6013 H 564.157 -6.51043 -0.313947 0
M  V30 6014 N 567.59 -1.07411 -1.15328 0
M  V30 6015 C 568.537 -0.694995 -2.20087 0
M  V30 6016 C 569.507 0.313904 -1.63107 0
M  V30 6017 O 570.692 0.200216 -1.89747 0
M  V30 6018 C 567.832 -0.0996218 -3.44956 0
M  V30 6019 C 566.945 -1.16007 -4.16133 0
M  V30 6020 C 566.08 -0.529636 -5.28553 0
M  V30 6021 C 565.119 -1.57283 -5.91548 0
M  V30 6022 N 564.256 -0.964932 -6.95438 0
M  V30 6023 H 569.096 -1.5927 -2.51867 0
M  V30 6024 H 566.633 -0.796115 -1.23695 0
M  V30 6025 H 568.591 0.263197 -4.16369 0
M  V30 6026 H 567.221 0.761435 -3.13691 0
M  V30 6027 H 566.273 -1.64045 -3.4321 0
M  V30 6028 H 567.585 -1.95101 -4.59061 0
M  V30 6029 H 566.739 -0.114487 -6.06592 0
M  V30 6030 H 565.478 0.29307 -4.86819 0
M  V30 6031 H 564.483 -1.99775 -5.12221 0
M  V30 6032 H 565.708 -2.39783 -6.35359 0
M  V30 6033 H 563.654 -0.16314 -6.55797 0
M  V30 6034 H 563.571 -1.69311 -7.36797 0
M  V30 6035 H 564.839 -0.575305 -7.77374 0
M  V30 6036 N 569.068 1.32177 -0.85831 0
M  V30 6037 C 570.316 1.96735 -0.462568 0
M  V30 6038 C 570.637 1.6824 0.985911 0
M  V30 6039 O 569.907 0.991564 1.68952 0
M  V30 6040 H 568.487 0.727849 -0.168064 0
M  V30 6041 H 571.149 1.61195 -1.09554 0
M  V30 6042 H 570.245 3.06068 -0.610647 0
M  V30 6043 N 570.547 0.616602 1.45037 0
M  V30 6044 C 571.958 0.199359 1.85633 0
M  V30 6045 C 572.309 -1.24588 1.51566 0
M  V30 6046 O 571.434 -1.94594 0.94668 0
M  V30 6047 C 572.029 0.355033 3.36935 0
M  V30 6048 C 570.588 -0.00758748 3.76399 0
M  V30 6049 C 569.735 0.675256 2.68953 0
M  V30 6050 H 572.686 0.822708 1.3571 0
M  V30 6051 H 572.707 -0.410201 3.78282 0
M  V30 6052 H 572.219 1.40699 3.61698 0
M  V30 6053 H 570.32 -1.05837 3.57252 0
M  V30 6054 H 570.433 0.392346 4.77491 0
M  V30 6055 H 568.797 0.111992 2.54454 0
M  V30 6056 H 569.58 1.72952 2.96551 0
M  V30 6057 N 572.025 -1.5352 0.356285 0
M  V30 6058 C 573.441 -1.59599 0.00485267 0
M  V30 6059 C 573.641 -1.37179 -1.47595 0
M  V30 6060 O 572.697 -1.17234 -2.23635 0
M  V30 6061 C 574.01 -2.97277 0.452454 0
M  V30 6062 C 575.558 -3.10357 0.405881 0
M  V30 6063 C 576.033 -4.50432 0.829148 0
M  V30 6064 N 577.524 -4.5652 0.783838 0
M  V30 6065 C 578.259 -5.63077 1.08315 0
M  V30 6066 N 577.755 -6.77429 1.45126 0
M  V30 6067 N 579.548 -5.53014 1.00655 0
M  V30 6068 H 571.699 -1.66346 1.32071 0
M  V30 6069 H 573.962 -0.77971 0.539218 0
M  V30 6070 H 573.668 -3.18792 1.48542 0
M  V30 6071 H 573.542 -3.76836 -0.165762 0
M  V30 6072 H 575.929 -2.88558 -0.617934 0
M  V30 6073 H 576.01 -2.32828 1.05947 0
M  V30 6074 H 575.654 -4.72968 1.85103 0
M  V30 6075 H 575.584 -5.26378 0.152906 0
M  V30 6076 H 578.075 -3.74408 0.512513 0
M  V30 6077 H 578.388 -7.54669 1.66415 0
M  V30 6078 H 576.733 -6.78844 1.48983 0
M  V30 6079 H 579.924 -4.62557 0.718215 0
M  V30 6080 H 580.097 -6.35964 1.24315 0
M  V30 6081 N 573.503 -0.0852151 -1.57369 0
M  V30 6082 C 574.45 0.877268 -2.13478 0
M  V30 6083 C 575.42 1.28642 -1.05073 0
M  V30 6084 O 576.605 1.36992 -1.32808 0
M  V30 6085 C 573.745 2.13464 -2.71159 0
M  V30 6086 C 572.858 1.77691 -3.93764 0
M  V30 6087 C 571.993 2.98139 -4.39643 0
M  V30 6088 C 571.032 2.58447 -5.54862 0
M  V30 6089 N 570.169 3.71698 -5.95639 0
M  V30 6090 H 575.009 0.391933 -2.95411 0
M  V30 6091 H 572.546 0.181796 -1.45972 0
M  V30 6092 H 574.504 2.87086 -3.02717 0
M  V30 6093 H 573.134 2.59514 -1.91969 0
M  V30 6094 H 572.186 0.940768 -3.68583 0
M  V30 6095 H 573.498 1.44497 -4.77412 0
M  V30 6096 H 572.652 3.80026 -4.72933 0
M  V30 6097 H 571.391 3.34536 -3.54876 0
M  V30 6098 H 570.396 1.74984 -5.21211 0
M  V30 6099 H 571.621 2.23205 -6.41371 0
M  V30 6100 H 569.567 4.07831 -5.13819 0
M  V30 6101 H 569.484 3.42317 -6.74059 0
M  V30 6102 H 570.752 4.54123 -6.33555 0
M  V30 6103 N 574.981 1.5647 0.188427 0
M  V30 6104 C 576.392 1.70864 0.752494 0
M  V30 6105 C 576.743 0.692905 1.83557 0
M  V30 6106 O 575.868 -0.149307 2.15884 0
M  V30 6107 C 576.463 3.09789 1.37173 0
M  V30 6108 C 575.022 3.25925 1.88281 0
M  V30 6109 C 574.169 2.66817 0.755259 0
M  V30 6110 H 577.12 1.58657 -0.0367408 0
M  V30 6111 H 577.141 3.07489 2.24122 0
M  V30 6112 H 576.653 3.83693 0.583219 0
M  V30 6113 H 574.754 2.56948 2.6983 0
M  V30 6114 H 574.867 4.33498 2.04001 0
M  V30 6115 H 573.231 2.2617 1.17128 0
M  V30 6116 H 574.014 3.43294 -0.0211237 0
M  V30 6117 N 576.459 -0.456382 1.50847 0
M  V30 6118 C 577.708 -1.2042 1.61808 0
M  V30 6119 C 578.021 -1.9278 0.330932 0
M  V30 6120 O 579.227 -2.69612 0.319643 0
M  V30 6121 C 577.683 -2.18891 2.85683 0
M  V30 6122 C 577.291 -1.52267 4.2133 0
M  V30 6123 C 579.035 -2.94224 3.05994 0
M  V30 6124 C 576.942 -2.4911 5.36375 0
M  V30 6125 H 575.872 -0.453177 0.602616 0
M  V30 6126 H 578.523 -0.473144 1.77295 0
M  V30 6127 H 576.905 -2.95351 2.63787 0
M  V30 6128 H 578.079 -0.814949 4.53536 0
M  V30 6129 H 576.394 -0.891594 4.06743 0
M  V30 6130 H 578.991 -3.66732 3.89117 0
M  V30 6131 H 579.334 -3.54469 2.18306 0
M  V30 6132 H 579.867 -2.24874 3.28141 0
M  V30 6133 H 576.606 -1.93582 6.26264 0
M  V30 6134 H 576.126 -3.17991 5.08569 0
M  V30 6135 H 577.805 -3.10637 5.67551 0
M  V30 6136 N 577.937 -1.40673 -0.710563 0
M  V30 6137 C 578.884 -1.41336 -1.82463 0
M  V30 6138 C 579.854 -0.269648 -1.63897 0
M  V30 6139 O 581.039 -0.468463 -1.8496 0
M  V30 6140 C 578.179 -1.28665 -3.20218 0
M  V30 6141 C 577.292 -2.52784 -3.5032 0
M  V30 6142 C 576.427 -2.32517 -4.77608 0
M  V30 6143 C 575.466 -3.52187 -5.0063 0
M  V30 6144 N 574.603 -3.31084 -6.19135 0
M  V30 6145 H 579.443 -2.36558 -1.8123 0
M  V30 6146 H 576.98 -1.17483 -0.885226 0
M  V30 6147 H 578.938 -1.19324 -3.99772 0
M  V30 6148 H 577.568 -0.370602 -3.20666 0
M  V30 6149 H 576.62 -2.72634 -2.65283 0
M  V30 6150 H 577.932 -3.41845 -3.63241 0
M  V30 6151 H 577.086 -2.20558 -5.65189 0
M  V30 6152 H 575.825 -1.40889 -4.66906 0
M  V30 6153 H 574.83 -3.64617 -4.11502 0
M  V30 6154 H 576.055 -4.44749 -5.13201 0
M  V30 6155 H 574.001 -2.42143 -6.09674 0
M  V30 6156 H 573.918 -4.13713 -6.32754 0
M  V30 6157 H 575.186 -3.22868 -7.0949 0
M  V30 6158 N 579.415 0.9433 -1.26252 0
M  V30 6159 C 580.655 1.70397 -1.1289 0
M  V30 6160 C 581.019 1.89268 0.322713 0
M  V30 6161 O 582.22 2.62503 0.578418 0
M  V30 6162 C 580.491 3.04296 -1.87453 0
M  V30 6163 S 582.05 3.95475 -1.90119 0
M  V30 6164 H 578.868 0.585559 -0.403289 0
M  V30 6165 H 581.47 1.12424 -1.59941 0
M  V30 6166 H 580.174 2.8824 -2.9214 0
M  V30 6167 H 579.705 3.67327 -1.40835 0
M  V30 6168 H 581.72 4.86297 -0.986373 0
M  V30 6169 N 580.893 1.08022 1.14757 0
M  V30 6170 C 582.139 0.818552 1.86202 0
M  V30 6171 C 582.494 -0.648563 1.81139 0
M  V30 6172 O 581.787 -1.4704 1.22841 0
M  V30 6173 C 581.981 1.26964 3.34088 0
M  V30 6174 C 581.81 2.77907 3.5355 0
M  V30 6175 C 580.58 3.45604 3.68627 0
M  V30 6176 C 582.778 3.7609 3.50801 0
M  V30 6177 N 580.76 4.85119 3.76209 0
M  V30 6178 C 582.131 5.0148 3.64579 0
M  V30 6179 C 584.186 3.6915 3.34115 0
M  V30 6180 C 582.889 6.20755 3.63395 0
M  V30 6181 C 584.915 4.87896 3.34233 0
M  V30 6182 C 584.277 6.12123 3.48547 0
M  V30 6183 H 580.376 0.352186 0.698204 0
M  V30 6184 H 582.96 1.37781 1.37567 0
M  V30 6185 H 581.131 0.738008 3.81324 0
M  V30 6186 H 582.863 0.954806 3.93275 0
M  V30 6187 H 579.618 2.96016 3.69691 0
M  V30 6188 H 580.042 5.57748 3.83726 0
M  V30 6189 H 584.684 2.74045 3.21961 0
M  V30 6190 H 582.402 7.16175 3.74326 0
M  V30 6191 H 585.988 4.8421 3.2254 0
M  V30 6192 H 584.868 7.02468 3.48581 0
M  V30 6193 N 582.371 -1.3172 0.865308 0
M  V30 6194 C 583.319 -2.30569 0.306674 0
M  V30 6195 C 584.313 -1.59317 -0.575724 0
M  V30 6196 O 585.519 -1.73961 -0.462343 0
M  V30 6197 H 581.894 -0.747681 0.0804834 0
M  V30 6198 H 583.865 -2.75165 1.15441 0
M  V30 6199 C 582.614 -3.44358 -0.480952 0
M  V30 6200 H 581.937 -3.99354 0.18876 0
M  V30 6201 H 583.377 -4.15652 -0.837241 0
M  V30 6202 C 581.836 -2.92574 -1.67039 0
M  V30 6203 O 582.366 -2.90954 -2.76964 0
M  V30 6204 N 580.572 -2.48835 -1.50097 0
M  V30 6205 H 580.119 -2.50353 -0.606738 0
M  V30 6206 H 580.077 -2.14543 -2.29823 0
M  V30 6207 N 583.85 -0.624285 -1.44708 0
M  V30 6208 C 585.09 -0.129273 -2.03991 0
M  V30 6209 C 585.454 1.22321 -1.47992 0
M  V30 6210 O 586.654 1.80993 -1.98734 0
M  V30 6211 C 584.926 -0.108231 -3.57236 0
M  V30 6212 S 586.485 0.323158 -4.37608 0
M  V30 6213 H 583.303 -0.0577318 -0.708652 0
M  V30 6214 H 585.904 -0.826139 -1.77187 0
M  V30 6215 H 584.609 -1.0958 -3.955 0
M  V30 6216 H 584.139 0.610101 -3.8864 0
M  V30 6217 H 586.154 1.56894 -4.70743 0
M  V30 6218 N 585.328 1.53329 -0.364422 0
M  V30 6219 C 586.576 2.00842 0.225189 0
M  V30 6220 C 586.897 1.25345 1.49378 0
M  V30 6221 O 586.167 0.366396 1.92443 0
M  V30 6222 H 584.747 0.742009 0.0862027 0
M  V30 6223 H 587.409 1.8863 -0.490389 0
M  V30 6224 H 586.505 3.08795 0.452987 0
M  V30 6225 N 586.806 0.0935595 1.57322 0
M  V30 6226 C 587.753 -0.865935 2.1394 0
M  V30 6227 C 588.723 -1.28083 1.05754 0
M  V30 6228 O 589.908 -1.36285 1.33533 0
M  V30 6229 C 587.048 -2.12023 2.72287 0
M  V30 6230 C 586.161 -1.756 3.94701 0
M  V30 6231 C 585.296 -2.95804 4.41218 0
M  V30 6232 C 584.335 -2.555 5.56225 0
M  V30 6233 N 583.472 -3.68534 5.97601 0
M  V30 6234 H 588.312 -0.376261 2.95615 0
M  V30 6235 H 585.849 -0.174052 1.46067 0
M  V30 6236 H 587.807 -2.85477 3.04235 0
M  V30 6237 H 586.437 -2.58492 1.93343 0
M  V30 6238 H 585.489 -0.921208 3.69077 0
M  V30 6239 H 586.801 -1.41964 4.78171 0
M  V30 6240 H 585.955 -3.77513 4.74941 0
M  V30 6241 H 584.694 -3.32649 3.56645 0
M  V30 6242 H 583.699 -1.72218 5.22131 0
M  V30 6243 H 584.924 -2.19801 6.42545 0
M  V30 6244 H 582.87 -4.051 5.15974 0
M  V30 6245 H 582.787 -3.38737 6.75865 0
M  V30 6246 H 584.055 -4.50757 6.35955 0
M  V30 6247 N 588.284 -1.56567 -0.180126 0
M  V30 6248 C 589.194 -1.98947 -1.24327 0
M  V30 6249 C 590.21 -0.899446 -1.4895 0
M  V30 6250 O 591.386 -1.20639 -1.61271 0
M  V30 6251 C 588.451 -2.33328 -2.56435 0
M  V30 6252 C 587.512 -3.56114 -2.39752 0
M  V30 6253 C 586.745 -3.88845 -3.65561 0
M  V30 6254 O 586.968 -3.22662 -4.70368 0
M  V30 6255 O 585.902 -4.82226 -3.60197 0
M  V30 6256 H 589.728 -2.89634 -0.913565 0
M  V30 6257 H 587.313 -1.44319 -0.386306 0
M  V30 6258 H 589.195 -2.5645 -3.34382 0
M  V30 6259 H 587.87 -1.45806 -2.89002 0
M  V30 6260 H 586.777 -3.38221 -1.59866 0
M  V30 6261 H 588.11 -4.4415 -2.12113 0
M  V30 6262 N 589.762 0.448376 -1.51087 0
M  V30 6263 C 591.01 1.19635 -1.62886 0
M  V30 6264 C 591.331 1.91977 -0.342024 0
M  V30 6265 O 590.601 1.85094 0.641636 0
M  V30 6266 H 589.181 0.444598 -0.600285 0
M  V30 6267 H 591.843 0.515138 -1.87969 0
M  V30 6268 H 590.939 1.93194 -2.45117 0
M  V30 6269 N 591.24 1.41047 0.703093 0
M  V30 6270 C 592.19 1.38774 1.80903 0
M  V30 6271 C 593.174 0.263275 1.58731 0
M  V30 6272 O 594.366 0.503362 1.69692 0
M  V30 6273 C 591.495 1.26497 3.19145 0
M  V30 6274 C 590.581 2.43775 3.47037 0
M  V30 6275 N 590.972 3.69249 3.45672 0
M  V30 6276 C 589.27 2.37425 3.77552 0
M  V30 6277 C 589.971 4.46989 3.72258 0
M  V30 6278 N 588.947 3.76998 3.91629 0
M  V30 6279 H 592.749 2.33714 1.78199 0
M  V30 6280 H 590.263 1.34996 0.902762 0
M  V30 6281 H 592.26 1.2295 3.98358 0
M  V30 6282 H 590.92 0.32534 3.23066 0
M  V30 6283 H 591.931 4.02239 3.26228 0
M  V30 6284 H 588.608 1.51895 3.88888 0
M  V30 6285 H 589.998 5.55894 3.77402 0
M  V30 6286 N 592.718 -0.936591 1.26751 0
M  V30 6287 C 593.943 -1.72288 1.15462 0
M  V30 6288 C 594.368 -1.85915 -0.285887 0
M  V30 6289 O 593.726 -1.35272 -1.20711 0
M  V30 6290 C 593.774 -3.10503 1.83359 0
M  V30 6291 O 592.878 -3.96745 1.1255 0
M  V30 6292 H 592.219 -0.52843 0.402067 0
M  V30 6293 H 594.749 -1.17271 1.67656 0
M  V30 6294 H 594.759 -3.60867 1.90365 0
M  V30 6295 H 593.434 -2.99901 2.88153 0
M  V30 6296 H 592.011 -3.55191 1.13551 0
M  V30 6297 N 594.196 -1.08629 -1.14182 0
M  V30 6298 C 595.159 -0.722027 -2.1753 0
M  V30 6299 C 596.159 0.244305 -1.58933 0
M  V30 6300 O 597.349 0.0235545 -1.74184 0
M  V30 6301 C 594.481 -0.0663966 -3.40835 0
M  V30 6302 H 595.674 -1.63719 -2.51269 0
M  V30 6303 H 593.227 -0.884442 -1.28869 0
M  V30 6304 H 593.962 0.860389 -3.12678 0
M  V30 6305 H 593.747 -0.761598 -3.84632 0
M  V30 6306 H 595.237 0.173346 -4.1724 0
M  V30 6307 N 595.674 1.31259 -0.872281 0
M  V30 6308 C 597.09 1.49283 -0.564521 0
M  V30 6309 C 597.29 1.80243 0.900807 0
M  V30 6310 O 596.346 1.88246 1.68284 0
M  V30 6311 C 597.659 2.62503 -1.46673 0
M  V30 6312 C 599.207 2.76386 -1.46901 0
M  V30 6313 C 599.682 3.92705 -2.35684 0
M  V30 6314 N 601.173 3.99995 -2.33577 0
M  V30 6315 C 601.908 4.89276 -2.98992 0
M  V30 6316 N 601.404 5.83443 -3.73585 0
M  V30 6317 N 603.197 4.82541 -2.88289 0
M  V30 6318 H 595.348 1.09432 -1.82039 0
M  V30 6319 H 597.611 0.540949 -0.77851 0
M  V30 6320 H 597.317 2.46407 -2.50951 0
M  V30 6321 H 597.191 3.58695 -1.16696 0
M  V30 6322 H 599.578 2.91894 -0.433796 0
M  V30 6323 H 599.659 1.80853 -1.80903 0
M  V30 6324 H 599.303 3.77954 -3.39283 0
M  V30 6325 H 599.233 4.87549 -1.99006 0
M  V30 6326 H 601.724 3.32624 -1.7936 0
M  V30 6327 H 602.037 6.48303 -4.20622 0
M  V30 6328 H 600.382 5.83415 -3.77694 0
M  V30 6329 H 603.573 4.07951 -2.2955 0
M  V30 6330 H 603.746 5.51916 -3.39549 0
M  V30 6331 N 597.152 0.631951 1.44375 0
M  V30 6332 C 598.084 -0.110911 2.28931 0
M  V30 6333 C 599.097 -0.808086 1.41329 0
M  V30 6334 O 600.286 -0.669396 1.65473 0
M  V30 6335 C 597.386 -1.17928 3.1772 0
M  V30 6336 C 596.559 -0.564458 4.33743 0
M  V30 6337 C 595.618 -1.5269 5.0356 0
M  V30 6338 O 594.644 -1.04372 5.59549 0
M  V30 6339 N 595.846 -2.86123 5.05088 0
M  V30 6340 H 598.611 0.614758 2.93327 0
M  V30 6341 H 596.172 0.473171 1.54831 0
M  V30 6342 H 598.164 -1.82348 3.61291 0
M  V30 6343 H 596.734 -1.80717 2.55069 0
M  V30 6344 H 595.954 0.258373 3.93352 0
M  V30 6345 H 597.242 -0.134355 5.08623 0
M  V30 6346 H 596.64 -3.27959 4.60933 0
M  V30 6347 H 595.197 -3.45901 5.52445 0
M  V30 6348 N 598.631 -1.53133 0.372548 0
M  V30 6349 C 599.871 -2.03267 -0.214943 0
M  V30 6350 C 600.235 -1.25362 -1.45425 0
M  V30 6351 O 601.436 -1.65536 -2.11781 0
M  V30 6352 C 599.707 -3.53985 -0.492897 0
M  V30 6353 S 601.266 -4.25977 -1.05307 0
M  V30 6354 H 598.084 -0.708289 -0.062029 0
M  V30 6355 H 600.686 -1.88539 0.517025 0
M  V30 6356 H 599.39 -4.08282 0.416442 0
M  V30 6357 H 598.921 -3.72887 -1.25375 0
M  V30 6358 H 600.936 -4.37731 -2.33679 0
M  V30 6359 N 600.109 -0.101901 -1.5727 0
M  V30 6360 C 601.525 0.254739 -1.57554 0
M  V30 6361 C 601.725 1.67937 -1.11352 0
M  V30 6362 O 600.781 2.39722 -0.793081 0
M  V30 6363 C 602.094 0.036975 -3.00677 0
M  V30 6364 C 603.642 0.104199 -3.12827 0
M  V30 6365 C 604.117 -0.0856565 -4.5792 0
M  V30 6366 N 605.608 -0.0310498 -4.6319 0
M  V30 6367 C 606.343 -0.153099 -5.73196 0
M  V30 6368 N 605.839 -0.330364 -6.92012 0
M  V30 6369 N 607.632 -0.0938854 -5.62022 0
M  V30 6370 H 599.783 -1.03263 -1.85609 0
M  V30 6371 H 602.046 -0.405251 -0.857016 0
M  V30 6372 H 601.752 -0.947254 -3.38703 0
M  V30 6373 H 601.626 0.776335 -3.69124 0
M  V30 6374 H 604.013 1.07894 -2.74669 0
M  V30 6375 H 604.094 -0.666762 -2.46957 0
M  V30 6376 H 603.738 -1.05729 -4.96773 0
M  V30 6377 H 603.668 0.705082 -5.21858 0
M  V30 6378 H 606.159 0.103141 -3.77759 0
M  V30 6379 H 606.472 -0.41482 -7.71686 0
M  V30 6380 H 604.817 -0.366119 -6.94035 0
M  V30 6381 H 608.008 0.0435168 -4.6808 0
M  V30 6382 H 608.181 -0.19245 -6.47714 0
M  V30 6383 N 601.587 1.56661 0.17182 0
M  V30 6384 C 602.55 1.9549 1.19651 0
M  V30 6385 C 603.55 0.838501 1.37207 0
M  V30 6386 O 604.74 1.10556 1.34622 0
M  V30 6387 C 601.872 2.24927 2.56166 0
M  V30 6388 H 603.065 2.87184 0.864007 0
M  V30 6389 H 600.618 1.50711 0.41425 0
M  V30 6390 H 601.353 1.35944 2.94431 0
M  V30 6391 H 601.138 3.06301 2.4479 0
M  V30 6392 H 602.628 2.55891 3.30014 0
M  V30 6393 N 603.065 -0.440357 1.51323 0
M  V30 6394 C 604.476 -1.02032 1.56353 0
M  V30 6395 C 604.827 -1.92382 0.385197 0
M  V30 6396 O 603.952 -2.10583 -0.498373 0
M  V30 6397 C 604.547 -1.85723 2.83359 0
M  V30 6398 C 603.106 -2.38774 2.90971 0
M  V30 6399 C 602.253 -1.17908 2.50984 0
M  V30 6400 H 605.204 -0.221744 1.57143 0
M  V30 6401 H 605.225 -2.71141 2.66951 0
M  V30 6402 H 604.737 -1.19939 3.69102 0
M  V30 6403 H 602.838 -3.08021 2.09651 0
M  V30 6404 H 602.951 -2.71778 3.94555 0
M  V30 6405 H 601.315 -1.52347 2.04114 0
M  V30 6406 H 602.098 -0.537393 3.39068 0
M  V30 6407 N 604.543 -1.41418 -0.695603 0
M  V30 6408 C 605.959 -1.23887 -1.00619 0
M  V30 6409 C 606.159 -0.128206 -2.01092 0
M  V30 6410 O 605.215 0.507408 -2.47349 0
M  V30 6411 C 606.528 -2.58816 -1.53083 0
M  V30 6412 C 608.076 -2.65998 -1.64967 0
M  V30 6413 C 608.551 -4.01244 -2.20833 0
M  V30 6414 N 610.042 -4.0309 -2.28194 0
M  V30 6415 C 610.777 -5.04539 -2.72448 0
M  V30 6416 N 610.273 -6.16378 -3.16306 0
M  V30 6417 N 612.066 -4.91901 -2.72011 0
M  V30 6418 H 604.217 -2.12379 -0.0300061 0
M  V30 6419 H 606.48 -0.944958 -0.0758797 0
M  V30 6420 H 606.186 -3.40842 -0.867147 0
M  V30 6421 H 606.06 -2.81299 -2.51298 0
M  V30 6422 H 608.447 -1.84331 -2.30448 0
M  V30 6423 H 608.528 -2.47325 -0.652982 0
M  V30 6424 H 608.172 -4.83359 -1.55968 0
M  V30 6425 H 608.102 -4.17257 -3.21254 0
M  V30 6426 H 610.593 -3.22341 -1.97242 0
M  V30 6427 H 610.906 -6.89658 -3.487 0
M  V30 6428 H 609.251 -6.19914 -3.14215 0
M  V30 6429 H 612.442 -4.03613 -2.37095 0
M  V30 6430 H 612.615 -5.71102 -3.06181 0
M  V30 6431 N 606.021 0.929856 -1.27246 0
M  V30 6432 C 607.437 1.20542 -1.04603 0
M  V30 6433 C 607.637 2.00276 0.221754 0
M  V30 6434 O 606.693 2.34835 0.927833 0
M  V30 6435 C 608.006 1.95566 -2.28417 0
M  V30 6436 C 609.554 2.08513 -2.33433 0
M  V30 6437 C 610.029 2.86943 -3.5697 0
M  V30 6438 N 611.52 2.94512 -3.57515 0
M  V30 6439 C 612.255 3.55656 -4.49774 0
M  V30 6440 N 611.751 4.18209 -5.52334 0
M  V30 6441 N 613.544 3.53038 -4.37402 0
M  V30 6442 H 605.695 0.397113 -2.08655 0
M  V30 6443 H 607.958 0.238277 -0.917566 0
M  V30 6444 H 607.664 1.44395 -3.20691 0
M  V30 6445 H 607.538 2.9619 -2.33563 0
M  V30 6446 H 609.925 2.58872 -1.41666 0
M  V30 6447 H 610.006 1.07117 -2.32292 0
M  V30 6448 H 609.65 2.37268 -4.49072 0
M  V30 6449 H 609.58 3.8862 -3.55362 0
M  V30 6450 H 612.071 2.50053 -2.83341 0
M  V30 6451 H 612.384 4.62796 -6.18902 0
M  V30 6452 H 610.729 4.16761 -5.56179 0
M  V30 6453 H 613.92 3.0337 -3.56489 0
M  V30 6454 H 614.093 4.004 -5.09493 0
M  V30 6455 N 607.499 1.09233 1.13605 0
M  V30 6456 C 608.431 0.687794 2.18637 0
M  V30 6457 C 609.444 -0.26936 1.60556 0
M  V30 6458 O 610.633 -0.0557162 1.78413 0
M  V30 6459 C 607.733 -0.00751901 3.38899 0
M  V30 6460 C 606.906 0.97067 4.26494 0
M  V30 6461 C 605.965 0.309129 5.25291 0
M  V30 6462 O 604.991 0.956149 5.61112 0
M  V30 6463 N 606.193 -0.937555 5.72879 0
M  V30 6464 H 608.958 1.59141 2.53957 0
M  V30 6465 H 606.519 0.979515 1.28907 0
M  V30 6466 H 608.511 -0.461238 4.02063 0
M  V30 6467 H 607.081 -0.813353 3.01833 0
M  V30 6468 H 606.301 1.603 3.60135 0
M  V30 6469 H 607.589 1.63323 4.81875 0
M  V30 6470 H 606.987 -1.48281 5.4592 0
M  V30 6471 H 605.544 -1.33463 6.3799 0
M  V30 6472 N 608.977 -1.30795 0.87923 0
M  V30 6473 C 610.225 -1.95974 0.493809 0
M  V30 6474 C 610.546 -1.69787 -0.959021 0
M  V30 6475 O 609.816 -1.01832 -1.67353 0
M  V30 6476 H 608.396 -0.725083 0.179622 0
M  V30 6477 H 611.058 -1.59432 1.12105 0
M  V30 6478 H 610.154 -3.05058 0.659263 0
M  V30 6479 N 610.455 -0.639598 -1.44038 0
M  V30 6480 C 611.695 -0.150902 -2.03842 0
M  V30 6481 C 612.059 1.20744 -1.49281 0
M  V30 6482 O 613.26 1.78875 -2.00642 0
M  V30 6483 C 611.531 -0.146114 -3.57101 0
M  V30 6484 S 613.09 0.276725 -4.37927 0
M  V30 6485 H 609.908 -0.0652447 -0.708 0
M  V30 6486 H 612.51 -0.844886 -1.76301 0
M  V30 6487 H 611.214 -1.13769 -3.94316 0
M  V30 6488 H 610.745 0.568846 -3.89266 0
M  V30 6489 H 612.76 1.51893 -4.7238 0
M  V30 6490 N 611.933 1.52934 -0.380664 0
M  V30 6491 C 613.179 2.02443 0.197089 0
M  V30 6492 C 613.534 1.26249 1.45186 0
M  V30 6493 O 612.827 0.351964 1.8834 0
M  V30 6494 C 613.021 3.5349 0.527199 0
M  V30 6495 C 612.85 4.44312 -0.694027 0
M  V30 6496 C 611.62 4.90582 -1.21068 0
M  V30 6497 C 613.818 4.8995 -1.56377 0
M  V30 6498 N 611.8 5.65451 -2.39036 0
M  V30 6499 C 613.171 5.63313 -2.58995 0
M  V30 6500 C 615.226 4.72002 -1.58488 0
M  V30 6501 C 613.929 6.20635 -3.63599 0
M  V30 6502 C 615.955 5.30201 -2.61995 0
M  V30 6503 C 615.317 6.03463 -3.63335 0
M  V30 6504 H 611.416 0.781241 0.0344357 0
M  V30 6505 H 614 1.87387 -0.528609 0
M  V30 6506 H 612.171 3.68677 1.22196 0
M  V30 6507 H 613.903 3.89707 1.09135 0
M  V30 6508 H 610.658 4.67249 -0.772995 0
M  V30 6509 H 611.082 6.07541 -2.98701 0
M  V30 6510 H 615.724 4.14873 -0.814891 0
M  V30 6511 H 613.442 6.76852 -4.41472 0
M  V30 6512 H 617.028 5.182 -2.645 0
M  V30 6513 H 615.908 6.47693 -4.42113 0
M  V30 6514 N 613.412 0.11024 1.57214 0
M  V30 6515 C 614.359 -0.843195 2.14846 0
M  V30 6516 C 615.329 -1.26954 1.07107 0
M  V30 6517 O 616.514 -1.34861 1.34971 0
M  V30 6518 C 613.654 -2.09123 2.74521 0
M  V30 6519 C 612.767 -1.71404 3.96541 0
M  V30 6520 C 611.902 -2.91107 4.44331 0
M  V30 6521 C 610.941 -2.49586 5.58903 0
M  V30 6522 N 610.078 -3.62175 6.01477 0
M  V30 6523 H 614.918 -0.344886 2.95998 0
M  V30 6524 H 612.455 -0.15855 1.46243 0
M  V30 6525 H 614.413 -2.82234 3.07246 0
M  V30 6526 H 613.043 -2.56427 1.96074 0
M  V30 6527 H 612.095 -0.88201 3.70033 0
M  V30 6528 H 613.407 -1.36884 4.7965 0
M  V30 6529 H 612.561 -3.72454 4.78919 0
M  V30 6530 H 611.3 -3.28848 3.60153 0
M  V30 6531 H 610.305 -1.6667 5.23929 0
M  V30 6532 H 611.53 -2.12973 6.4484 0
M  V30 6533 H 609.476 -3.99605 5.20242 0
M  V30 6534 H 609.393 -3.3155 6.79419 0
M  V30 6535 H 610.661 -4.43987 6.407 0
M  V30 6536 N 614.89 -1.56749 -0.16351 0
M  V30 6537 C 616.13 -1.84234 -0.885271 0
M  V30 6538 C 616.494 -0.692259 -1.79086 0
M  V30 6539 O 617.695 -0.847747 -2.55082 0
M  V30 6540 C 615.966 -3.16857 -1.65337 0
M  V30 6541 S 617.525 -3.65848 -2.42282 0
M  V30 6542 H 614.343 -0.646293 -0.296354 0
M  V30 6543 H 616.945 -1.94951 -0.146365 0
M  V30 6544 H 615.649 -3.98546 -0.979266 0
M  V30 6545 H 615.18 -3.09102 -2.4335 0
M  V30 6546 H 617.195 -3.33796 -3.67143 0
M  V30 6547 N 616.368 0.432326 -1.51554 0
M  V30 6548 C 617.616 1.17901 -1.64146 0
M  V30 6549 C 617.937 1.91604 -0.362367 0
M  V30 6550 O 617.207 1.85764 0.621968 0
M  V30 6551 H 615.787 0.438206 -0.604966 0
M  V30 6552 H 618.449 0.495172 -1.88505 0
M  V30 6553 H 617.545 1.90584 -2.47152 0
M  V30 6554 N 617.846 1.41785 0.688094 0
M  V30 6555 C 618.793 1.44221 1.80191 0
M  V30 6556 C 619.763 0.295688 1.63447 0
M  V30 6557 O 620.948 0.49783 1.84191 0
M  V30 6558 C 618.088 1.33743 3.1813 0
M  V30 6559 C 617.201 2.58325 3.46254 0
M  V30 6560 C 616.336 2.40086 4.73848 0
M  V30 6561 C 615.375 3.60107 4.94964 0
M  V30 6562 N 614.512 3.40892 6.13789 0
M  V30 6563 H 619.352 2.39411 1.77444 0
M  V30 6564 H 616.889 1.18876 0.866423 0
M  V30 6565 H 618.847 1.25669 3.97823 0
M  V30 6566 H 617.477 0.42157 3.20035 0
M  V30 6567 H 616.529 2.7682 2.60912 0
M  V30 6568 H 617.841 3.4758 3.57756 0
M  V30 6569 H 616.995 2.29522 5.61609 0
M  V30 6570 H 615.734 1.483 4.64606 0
M  V30 6571 H 614.739 3.71118 4.05649 0
M  V30 6572 H 615.964 4.52857 5.06061 0
M  V30 6573 H 613.91 2.51812 6.05745 0
M  V30 6574 H 613.827 4.23727 6.26092 0
M  V30 6575 H 615.095 3.34114 7.04264 0
M  V30 6576 N 619.324 -0.923095 1.27737 0
M  V30 6577 C 620.257 -2.02515 1.05181 0
M  V30 6578 C 621.235 -1.62574 -0.0292204 0
M  V30 6579 O 622.419 -1.88137 0.116848 0
M  V30 6580 C 619.546 -3.33407 0.596468 0
M  V30 6581 C 618.592 -3.92328 1.67276 0
M  V30 6582 S 619.425 -4.24342 3.26641 0
M  V30 6583 C 620.581 -5.58308 2.82919 0
M  V30 6584 H 620.814 -2.21336 1.98488 0
M  V30 6585 H 618.347 -1.06679 1.1162 0
M  V30 6586 H 620.305 -4.09086 0.34044 0
M  V30 6587 H 618.966 -3.125 -0.316614 0
M  V30 6588 H 618.159 -4.86797 1.30556 0
M  V30 6589 H 617.761 -3.2325 1.8811 0
M  V30 6590 H 620.053 -6.37801 2.28509 0
M  V30 6591 H 620.996 -5.99931 3.7615 0
M  V30 6592 H 621.404 -5.19049 2.21919 0
M  V30 6593 N 620.802 -1.09834 -1.13024 0
M  V30 6594 C 622.079 -0.749225 -1.80682 0
M  V30 6595 C 622.459 0.765171 -1.96744 0
M  V30 6596 O 621.807 1.68912 -1.53886 0
M  V30 6597 C 622.017 -1.49311 -3.15448 0
M  V30 6598 C 623.365 -1.66162 -3.90737 0
M  V30 6599 O 624.389 -1.45597 -3.25085 0
M  V30 6600 O 623.248 -2.00211 -5.08505 0
M  V30 6601 H 620.342 -0.269614 -0.781817 0
M  V30 6602 H 622.888 -1.20078 -1.19914 0
M  V30 6603 H 621.66 -2.52407 -2.99009 0
M  V30 6604 H 621.283 -1.034 -3.8392 0
M  V30 6605 N 622.28 1.30327 -0.886154 0
M  V30 6606 C 623.23 2.25668 -0.325248 0
M  V30 6607 C 624.214 1.51318 0.546972 0
M  V30 6608 O 625.406 1.72623 0.391203 0
M  V30 6609 C 622.535 3.40229 0.458167 0
M  V30 6610 C 621.621 4.21933 -0.428208 0
M  V30 6611 N 622.012 4.82129 -1.52921 0
M  V30 6612 C 620.31 4.45439 -0.223535 0
M  V30 6613 C 621.011 5.43351 -2.07714 0
M  V30 6614 N 619.987 5.26002 -1.37195 0
M  V30 6615 H 623.789 2.69759 -1.1665 0
M  V30 6616 H 621.303 1.4478 -0.735691 0
M  V30 6617 H 623.3 4.07579 0.876648 0
M  V30 6618 H 621.96 2.97678 1.29684 0
M  V30 6619 H 622.971 4.81312 -1.91205 0
M  V30 6620 H 619.648 4.13481 0.577875 0
M  V30 6621 H 621.038 6.01118 -3.00178 0
M  V30 6622 N 623.758 0.647228 1.43697 0
M  V30 6623 C 625.004 0.158422 2.0218 0
M  V30 6624 C 625.337 -1.22233 1.50907 0
M  V30 6625 O 624.612 -1.81478 0.699702 0
M  V30 6626 C 624.895 0.1627 3.59732 0
M  V30 6627 C 624.748 1.57694 4.21251 0
M  V30 6628 C 626.067 -0.504138 4.37203 0
M  V30 6629 H 623.186 0.059042 0.734631 0
M  V30 6630 H 625.828 0.826772 1.71069 0
M  V30 6631 H 623.978 -0.406414 3.86368 0
M  V30 6632 H 625.65 2.19618 4.05667 0
M  V30 6633 H 623.893 2.12603 3.7813 0
M  V30 6634 H 624.564 1.53183 5.3032 0
M  V30 6635 H 627.04 -0.0199841 4.16095 0
M  V30 6636 H 625.916 -0.470394 5.46881 0
M  V30 6637 H 626.177 -1.57726 4.13007 0
M  V30 6638 N 625.236 -1.5273 0.388769 0
M  V30 6639 C 626.169 -2.22861 -0.490752 0
M  V30 6640 C 627.147 -1.22912 -1.06449 0
M  V30 6641 O 628.331 -1.51896 -1.11624 0
M  V30 6642 C 625.458 -2.94141 -1.67925 0
M  V30 6643 C 624.504 -4.08355 -1.23081 0
M  V30 6644 S 625.337 -5.35077 -0.212786 0
M  V30 6645 C 626.493 -6.09879 -1.40708 0
M  V30 6646 H 626.726 -2.97115 0.104787 0
M  V30 6647 H 624.259 -1.53428 0.172956 0
M  V30 6648 H 626.217 -3.35818 -2.36085 0
M  V30 6649 H 624.878 -2.19568 -2.24608 0
M  V30 6650 H 624.071 -4.57328 -2.11818 0
M  V30 6651 H 623.673 -3.68688 -0.628121 0
M  V30 6652 H 625.965 -6.36018 -2.33424 0
M  V30 6653 H 626.908 -7.01586 -0.958271 0
M  V30 6654 H 627.316 -5.40646 -1.62364 0
M  V30 6655 N 626.714 -0.118576 -1.57153 0
M  V30 6656 C 627.677 0.817464 -2.14127 0
M  V30 6657 C 628.677 1.1949 -1.07604 0
M  V30 6658 O 629.867 1.12048 -1.33382 0
M  V30 6659 C 626.999 2.10541 -2.68115 0
M  V30 6660 H 628.192 0.322339 -2.98163 0
M  V30 6661 H 625.745 0.130655 -1.55753 0
M  V30 6662 H 626.48 2.64485 -1.87665 0
M  V30 6663 H 626.265 1.84425 -3.4602 0
M  V30 6664 H 627.755 2.77453 -3.12105 0
M  V30 6665 N 628.193 1.56834 0.155195 0
M  V30 6666 C 629.14 1.97646 1.19184 0
M  V30 6667 C 630.11 0.842788 1.4313 0
M  V30 6668 O 631.295 1.1042 1.55602 0
M  V30 6669 C 628.435 2.35527 2.52232 0
M  V30 6670 C 627.548 3.62147 2.35529 0
M  V30 6671 C 626.683 3.89167 3.61555 0
M  V30 6672 C 625.722 5.09084 3.39853 0
M  V30 6673 N 624.859 5.32156 4.5799 0
M  V30 6674 H 629.699 2.8601 0.836802 0
M  V30 6675 H 627.236 1.41507 0.401758 0
M  V30 6676 H 629.194 2.55516 3.29799 0
M  V30 6677 H 627.824 1.50253 2.85699 0
M  V30 6678 H 626.876 3.4998 1.49057 0
M  V30 6679 H 628.188 4.49871 2.15448 0
M  V30 6680 H 627.342 4.09611 4.47553 0
M  V30 6681 H 626.081 2.9985 3.84632 0
M  V30 6682 H 625.086 4.88522 2.52243 0
M  V30 6683 H 626.311 5.99947 3.18183 0
M  V30 6684 H 624.257 4.45791 4.81255 0
M  V30 6685 H 624.174 6.14133 4.40882 0
M  V30 6686 H 625.442 5.57091 5.45225 0
M  V30 6687 N 629.671 -0.424282 1.51781 0
M  V30 6688 C 630.911 -1.18194 1.66762 0
M  V30 6689 C 631.275 -1.88164 0.381857 0
M  V30 6690 O 632.476 -2.65692 0.407586 0
M  V30 6691 C 630.747 -2.16173 2.84612 0
M  V30 6692 S 632.306 -3.0025 3.19993 0
M  V30 6693 H 629.124 -0.400626 0.587384 0
M  V30 6694 H 631.726 -0.471499 1.89729 0
M  V30 6695 H 630.43 -1.6343 3.76455 0
M  V30 6696 H 629.961 -2.91778 2.63873 0
M  V30 6697 H 631.976 -4.1796 2.67439 0
M  V30 6698 N 631.149 -1.42148 -0.680565 0
M  V30 6699 C 632.56 -1.3768 -1.26099 0
M  V30 6700 C 632.911 -0.0672348 -1.96085 0
M  V30 6701 O 632.036 0.834172 -1.99676 0
M  V30 6702 C 632.631 -2.49387 -2.29328 0
M  V30 6703 C 631.19 -2.4827 -2.82911 0
M  V30 6704 C 630.337 -2.2847 -1.57152 0
M  V30 6705 H 633.288 -1.51446 -0.474326 0
M  V30 6706 H 633.309 -2.19307 -3.10941 0
M  V30 6707 H 632.821 -3.44686 -1.78363 0
M  V30 6708 H 630.922 -1.56773 -3.38013 0
M  V30 6709 H 631.035 -3.45109 -3.3232 0
M  V30 6710 H 629.399 -1.76623 -1.83511 0
M  V30 6711 H 630.182 -3.25816 -1.0816 0
M  V30 6712 N 632.627 0.916307 -1.28225 0
M  V30 6713 C 633.575 2.03977 -1.11786 0
M  V30 6714 C 634.569 1.69358 -0.0378265 0
M  V30 6715 O 635.775 1.78925 -0.196405 0
M  V30 6716 H 632.15 0.66829 -0.344809 0
M  V30 6717 H 634.121 2.14985 -2.06939 0
M  V30 6718 C 632.87 3.38518 -0.7938 0
M  V30 6719 H 632.193 3.65649 -1.61682 0
M  V30 6720 H 633.633 4.17864 -0.718719 0
M  V30 6721 C 632.092 3.33134 0.502353 0
M  V30 6722 O 632.622 3.71281 1.53341 0
M  V30 6723 N 630.828 2.86229 0.502147 0
M  V30 6724 H 630.375 2.55382 -0.337338 0
M  V30 6725 H 630.333 2.83009 1.36942 0
M  V30 6726 N 634.105 1.10431 1.1244 0
M  V30 6727 C 635.521 0.836096 1.35947 0
M  V30 6728 C 635.721 -0.544475 1.94004 0
M  V30 6729 O 634.777 -1.29735 2.16622 0
M  V30 6730 C 636.09 1.93575 2.30107 0
M  V30 6731 C 637.638 1.9642 2.43697 0
M  V30 6732 C 638.113 3.05559 3.41171 0
M  V30 6733 N 639.604 3.04865 3.48728 0
M  V30 6734 C 640.339 3.85954 4.24061 0
M  V30 6735 N 639.835 4.76977 5.02458 0
M  V30 6736 N 641.628 3.74172 4.19466 0
M  V30 6737 H 633.779 1.9942 0.731124 0
M  V30 6738 H 636.042 0.866607 0.384312 0
M  V30 6739 H 635.748 2.92943 1.94621 0
M  V30 6740 H 635.622 1.8229 3.30227 0
M  V30 6741 H 638.009 0.97685 2.78463 0
M  V30 6742 H 638.09 2.11782 1.43465 0
M  V30 6743 H 637.734 4.04513 3.07135 0
M  V30 6744 H 637.664 2.87438 4.41234 0
M  V30 6745 H 640.155 2.38908 2.92799 0
M  V30 6746 H 640.468 5.35409 5.57277 0
M  V30 6747 H 638.813 4.81006 5.01655 0
M  V30 6748 H 642.004 3.02412 3.57302 0
M  V30 6749 H 642.177 4.37602 4.77921 0
M  V30 6750 N 635.583 -1.29855 0.893053 0
M  V30 6751 C 636.515 -2.26911 0.32311 0
M  V30 6752 C 637.528 -1.54039 -0.526858 0
M  V30 6753 O 638.717 -1.75132 -0.345095 0
M  V30 6754 C 635.817 -3.34266 -0.558509 0
M  V30 6755 C 634.99 -4.36601 0.264222 0
M  V30 6756 C 634.049 -5.23326 -0.549171 0
M  V30 6757 O 633.075 -5.69192 0.0309883 0
M  V30 6758 N 634.277 -5.50008 -1.85664 0
M  V30 6759 H 637.042 -2.76455 1.15726 0
M  V30 6760 H 634.603 -1.4312 0.756859 0
M  V30 6761 H 636.595 -3.89211 -1.1089 0
M  V30 6762 H 635.165 -2.8459 -1.29334 0
M  V30 6763 H 634.385 -3.81409 0.996046 0
M  V30 6764 H 635.673 -5.02019 0.827906 0
M  V30 6765 H 635.071 -5.14542 -2.35081 0
M  V30 6766 H 633.628 -6.07796 -2.35431 0
M  V30 6767 N 637.061 -0.65484 -1.43351 0
M  V30 6768 C 638.024 0.0263562 -2.29185 0
M  V30 6769 C 639.024 0.748951 -1.42293 0
M  V30 6770 O 640.214 0.589957 -1.63906 0
M  V30 6771 C 637.346 1.04806 -3.2439 0
M  V30 6772 H 638.539 -0.728883 -2.90908 0
M  V30 6773 H 636.092 -0.416149 -1.50658 0
M  V30 6774 H 636.827 1.83247 -2.67565 0
M  V30 6775 H 636.612 0.533554 -3.88453 0
M  V30 6776 H 638.102 1.52372 -3.88809 0
M  V30 6777 N 638.539 1.52521 -0.396863 0
M  V30 6778 C 639.787 2.01274 0.182536 0
M  V30 6779 C 640.108 1.28485 1.46685 0
M  V30 6780 O 639.378 0.407134 1.91623 0
M  V30 6781 H 637.958 0.743671 0.0704442 0
M  V30 6782 H 640.62 1.87547 -0.530289 0
M  V30 6783 H 639.716 3.09687 0.387385 0
M  V30 6784 N 640.017 0.126909 1.57088 0
M  V30 6785 C 641.264 -0.529168 1.95464 0
M  V30 6786 C 641.592 -1.6618 1.01067 0
M  V30 6787 O 640.847 -1.95667 0.0360254 0
M  V30 6788 C 641.146 -1.095 3.40212 0
M  V30 6789 C 640.812 -0.0829015 4.50824 0
M  V30 6790 C 639.474 0.195377 4.80803 0
M  V30 6791 C 641.826 0.606411 5.1766 0
M  V30 6792 C 639.154 1.16912 5.74933 0
M  V30 6793 C 641.506 1.56884 6.12838 0
M  V30 6794 C 640.17 1.85502 6.41206 0
M  V30 6795 H 639.44 -0.193636 0.715252 0
M  V30 6796 H 642.087 0.209489 1.90351 0
M  V30 6797 H 640.392 -1.91058 3.42059 0
M  V30 6798 H 642.089 -1.61087 3.67222 0
M  V30 6799 H 638.679 -0.309979 4.27478 0
M  V30 6800 H 642.863 0.404597 4.94648 0
M  V30 6801 H 638.119 1.3975 5.95214 0
M  V30 6802 H 642.293 2.10859 6.6371 0
M  V30 6803 H 639.92 2.61109 7.13951 0
M  V30 6804 N 641.495 -1.56914 -0.146875 0
M  V30 6805 C 642.742 -1.83356 -0.859467 0
M  V30 6806 C 643.07 -0.707811 -1.81164 0
M  V30 6807 O 642.325 0.303155 -1.93338 0
M  V30 6808 C 642.624 -3.16128 -1.66727 0
M  V30 6809 C 642.29 -4.42586 -0.861881 0
M  V30 6810 C 640.952 -4.76929 -0.639687 0
M  V30 6811 C 643.304 -5.20344 -0.298643 0
M  V30 6812 C 640.632 -5.86491 0.156451 0
M  V30 6813 C 642.984 -6.30742 0.484536 0
M  V30 6814 C 641.648 -6.63635 0.717306 0
M  V30 6815 H 640.918 -0.670947 -0.314501 0
M  V30 6816 H 643.565 -1.91104 -0.123108 0
M  V30 6817 H 641.87 -3.03831 -2.47374 0
M  V30 6818 H 643.567 -3.33802 -2.2221 0
M  V30 6819 H 640.157 -4.15662 -1.04513 0
M  V30 6820 H 644.341 -4.94186 -0.457585 0
M  V30 6821 H 639.597 -6.10419 0.346292 0
M  V30 6822 H 643.771 -6.90188 0.928105 0
M  V30 6823 H 641.398 -7.48367 1.33607 0
M  V30 6824 N 642.974 0.416227 -1.52004 0
M  V30 6825 C 644.39 0.754319 -1.40649 0
M  V30 6826 C 644.59 1.95059 -0.505392 0
M  V30 6827 O 643.646 2.5248 0.0315057 0
M  V30 6828 C 644.959 1.0149 -2.83055 0
M  V30 6829 C 646.507 1.11805 -2.9235 0
M  V30 6830 C 646.982 1.41144 -4.35709 0
M  V30 6831 N 648.473 1.48024 -4.38911 0
M  V30 6832 C 649.208 1.72338 -5.46889 0
M  V30 6833 N 648.704 1.94303 -6.64995 0
M  V30 6834 N 650.497 1.74294 -5.34395 0
M  V30 6835 H 642.648 -0.371324 -2.09129 0
M  V30 6836 H 644.911 -0.103811 -0.942299 0
M  V30 6837 H 644.617 0.208345 -3.51082 0
M  V30 6838 H 644.491 1.93697 -3.23668 0
M  V30 6839 H 646.878 1.91521 -2.24508 0
M  V30 6840 H 646.959 0.17451 -2.55204 0
M  V30 6841 H 646.603 0.619484 -5.04108 0
M  V30 6842 H 646.533 2.36739 -4.70385 0
M  V30 6843 H 649.024 1.32868 -3.53772 0
M  V30 6844 H 649.337 2.12286 -7.43071 0
M  V30 6845 H 647.682 1.91582 -6.68073 0
M  V30 6846 H 650.873 1.56667 -4.41104 0
M  V30 6847 H 651.046 1.92904 -6.18621 0
M  V30 6848 N 644.452 1.42507 0.673017 0
M  V30 6849 C 645.863 1.38347 1.25367 0
M  V30 6850 C 646.214 0.0776327 1.96046 0
M  V30 6851 O 645.339 -0.823571 2.00116 0
M  V30 6852 C 645.934 2.506 2.28002 0
M  V30 6853 C 644.493 2.49767 2.81591 0
M  V30 6854 C 643.64 2.293 1.55938 0
M  V30 6855 H 646.591 1.51695 0.466288 0
M  V30 6856 H 646.612 2.20953 3.09774 0
M  V30 6857 H 646.124 3.45627 1.76532 0
M  V30 6858 H 644.225 1.58563 3.37177 0
M  V30 6859 H 644.338 3.46867 3.30485 0
M  V30 6860 H 642.702 1.77594 1.82572 0
M  V30 6861 H 643.485 3.26385 1.06431 0
M  V30 6862 N 645.93 -0.909495 1.28709 0
M  V30 6863 C 647.176 -1.66175 1.17293 0
M  V30 6864 C 647.531 -1.90426 -0.274891 0
M  V30 6865 O 646.824 -1.49659 -1.19635 0
M  V30 6866 C 647.018 -3.02117 1.90945 0
M  V30 6867 C 646.847 -2.91134 3.42741 0
M  V30 6868 C 645.617 -2.92429 4.12085 0
M  V30 6869 C 647.815 -2.68889 4.3841 0
M  V30 6870 N 645.797 -2.72078 5.50315 0
M  V30 6871 C 647.168 -2.57423 5.64033 0
M  V30 6872 C 649.223 -2.53919 4.28287 0
M  V30 6873 C 647.926 -2.32513 6.80683 0
M  V30 6874 C 649.952 -2.3039 5.44678 0
M  V30 6875 C 649.314 -2.19682 6.69268 0
M  V30 6876 H 645.413 -0.614095 0.48416 0
M  V30 6877 H 647.997 -1.07377 1.62414 0
M  V30 6878 H 646.168 -3.58993 1.48252 0
M  V30 6879 H 647.9 -3.66388 1.71878 0
M  V30 6880 H 644.655 -3.03345 3.63701 0
M  V30 6881 H 645.079 -2.64983 6.22987 0
M  V30 6882 H 649.721 -2.60946 3.32666 0
M  V30 6883 H 647.439 -2.24225 7.76369 0
M  V30 6884 H 651.025 -2.19665 5.38738 0
M  V30 6885 H 649.905 -2.01725 7.5781 0
M  V30 6886 N 647.408 -1.11026 -1.11852 0
M  V30 6887 C 648.819 -0.873203 -1.65021 0
M  V30 6888 C 649.17 0.595364 -1.86949 0
M  V30 6889 O 648.295 1.45645 -1.60051 0
M  V30 6890 C 648.89 -1.57859 -2.99777 0
M  V30 6891 C 647.449 -1.38807 -3.49871 0
M  V30 6892 C 646.596 -1.62403 -2.24768 0
M  V30 6893 H 649.547 -1.26712 -0.955503 0
M  V30 6894 H 649.568 -1.02111 -3.66543 0
M  V30 6895 H 649.08 -2.6474 -2.83786 0
M  V30 6896 H 647.181 -0.341163 -3.71035 0
M  V30 6897 H 647.294 -2.13421 -4.28938 0
M  V30 6898 H 645.658 -1.04714 -2.32179 0
M  V30 6899 H 646.441 -2.70549 -2.11324 0
M  V30 6900 N 648.886 1.2938 -0.899927 0
M  V30 6901 C 649.816 2.30144 -0.39446 0
M  V30 6902 C 650.797 1.61611 0.530639 0
M  V30 6903 O 651.982 1.89119 0.441319 0
M  V30 6904 C 649.112 3.45229 0.37868 0
M  V30 6905 C 648.066 4.25564 -0.456012 0
M  V30 6906 C 647.392 5.32848 0.444637 0
M  V30 6907 C 648.692 4.93651 -1.70605 0
M  V30 6908 H 650.386 2.72673 -1.23653 0
M  V30 6909 H 647.932 1.31086 -0.596034 0
M  V30 6910 H 649.885 4.14797 0.743037 0
M  V30 6911 H 648.609 3.01545 1.25453 0
M  V30 6912 H 647.268 3.57704 -0.802704 0
M  V30 6913 H 646.916 4.85408 1.31863 0
M  V30 6914 H 646.616 5.87497 -0.110154 0
M  V30 6915 H 648.14 6.05268 0.805182 0
M  V30 6916 H 649.554 5.55655 -1.41141 0
M  V30 6917 H 647.951 5.58233 -2.20217 0
M  V30 6918 H 649.021 4.18926 -2.4419 0
M  V30 6919 N 650.364 0.662433 1.43002 0
M  V30 6920 C 651.612 0.179237 2.01304 0
M  V30 6921 C 651.933 -1.21428 1.52579 0
M  V30 6922 O 651.203 -1.81294 0.742252 0
M  V30 6923 H 649.783 0.0632725 0.744316 0
M  V30 6924 H 652.445 0.856169 1.75088 0
M  V30 6925 H 651.541 0.170957 3.11631 0
M  V30 6926 N 651.842 -1.52309 0.404946 0
M  V30 6927 C 652.789 -2.26898 -0.422597 0
M  V30 6928 C 653.759 -1.2914 -1.04461 0
M  V30 6929 O 654.944 -1.57996 -1.06967 0
M  V30 6930 C 652.084 -3.09053 -1.53559 0
M  V30 6931 C 651.197 -4.21762 -0.934908 0
M  V30 6932 C 650.332 -4.91283 -2.02025 0
M  V30 6933 C 649.371 -5.95962 -1.39628 0
M  V30 6934 N 648.508 -6.59017 -2.42159 0
M  V30 6935 H 653.348 -2.97188 0.219903 0
M  V30 6936 H 650.885 -1.46607 0.120282 0
M  V30 6937 H 652.843 -3.54987 -2.19181 0
M  V30 6938 H 651.473 -2.40942 -2.14818 0
M  V30 6939 H 650.525 -3.80029 -0.167854 0
M  V30 6940 H 651.837 -4.96864 -0.439073 0
M  V30 6941 H 650.991 -5.40601 -2.75383 0
M  V30 6942 H 649.73 -4.15741 -2.54973 0
M  V30 6943 H 648.735 -5.45968 -0.648023 0
M  V30 6944 H 649.96 -6.73445 -0.874553 0
M  V30 6945 H 647.906 -5.86306 -2.94247 0
M  V30 6946 H 647.823 -7.2978 -1.97376 0
M  V30 6947 H 649.091 -7.12974 -3.15099 0
M  V30 6948 N 653.32 -0.135238 -1.57019 0
M  V30 6949 C 654.23 0.822226 -2.19719 0
M  V30 6950 C 655.246 1.28057 -1.17802 0
M  V30 6951 O 656.422 1.3402 -1.50335 0
M  V30 6952 C 653.487 2.0484 -2.79717 0
M  V30 6953 C 652.548 1.64042 -3.96723 0
M  V30 6954 C 651.781 2.80814 -4.53849 0
M  V30 6955 O 652.004 3.967 -4.0986 0
M  V30 6956 O 650.938 2.56963 -5.44292 0
M  V30 6957 H 654.764 0.318552 -3.02025 0
M  V30 6958 H 652.349 0.0912021 -1.49121 0
M  V30 6959 H 654.231 2.76622 -3.17897 0
M  V30 6960 H 652.906 2.54182 -2.00432 0
M  V30 6961 H 651.813 0.893182 -3.63281 0
M  V30 6962 H 653.146 1.19426 -4.77492 0
M  V30 6963 N 654.798 1.5699 0.138552 0
M  V30 6964 C 655.761 1.97984 1.15478 0
M  V30 6965 C 656.761 0.867416 1.35398 0
M  V30 6966 O 657.951 1.13387 1.32246 0
M  V30 6967 C 655.083 2.3031 2.51337 0
M  V30 6968 H 656.276 2.88953 0.802896 0
M  V30 6969 H 653.829 1.51555 0.382189 0
M  V30 6970 H 654.564 1.42159 2.91481 0
M  V30 6971 H 654.349 3.11425 2.38237 0
M  V30 6972 H 655.839 2.62834 3.24512 0
M  V30 6973 N 656.276 -0.40816 1.52223 0
M  V30 6974 C 657.687 -0.986929 1.58482 0
M  V30 6975 C 658.038 -1.91521 0.425917 0
M  V30 6976 O 657.163 -2.11593 -0.453593 0
M  V30 6977 C 657.758 -1.7967 2.87235 0
M  V30 6978 C 656.317 -2.32549 2.9597 0
M  V30 6979 C 655.464 -1.12558 2.53428 0
M  V30 6980 H 658.415 -0.188362 1.57578 0
M  V30 6981 H 658.436 -2.65417 2.72642 0
M  V30 6982 H 657.948 -1.12082 3.71563 0
M  V30 6983 H 656.049 -3.03505 2.16137 0
M  V30 6984 H 656.162 -2.63348 4.00231 0
M  V30 6985 H 654.526 -1.47984 2.07299 0
M  V30 6986 H 655.309 -0.465351 3.40131 0
M  V30 6987 N 657.755 -1.42862 -0.66545 0
M  V30 6988 C 658.687 -1.43026 -1.79098 0
M  V30 6989 C 659.7 -0.32803 -1.59461 0
M  V30 6990 O 660.889 -0.591709 -1.68407 0
M  V30 6991 C 657.989 -1.21566 -3.16346 0
M  V30 6992 C 657.162 -2.44399 -3.62751 0
M  V30 6993 C 656.221 -2.18344 -4.78761 0
M  V30 6994 O 655.247 -2.91611 -4.88827 0
M  V30 6995 N 656.449 -1.1924 -5.68122 0
M  V30 6996 H 659.214 -2.40045 -1.79439 0
M  V30 6997 H 656.775 -1.37861 -0.848872 0
M  V30 6998 H 658.767 -1.02037 -3.91625 0
M  V30 6999 H 657.337 -0.330368 -3.10849 0
M  V30 7000 H 656.557 -2.79433 -2.78048 0
M  V30 7001 H 657.845 -3.26173 -3.90498 0
M  V30 7002 H 657.243 -0.586603 -5.6265 0
M  V30 7003 H 655.8 -1.05698 -6.43173 0
M  V30 7004 N 659.233 0.902656 -1.29189 0
M  V30 7005 C 660.48 1.65287 -1.16989 0
M  V30 7006 C 660.808 1.92485 0.279232 0
M  V30 7007 O 660.063 1.53143 1.21843 0
M  V30 7008 C 660.362 3.011 -1.92545 0
M  V30 7009 C 660.028 2.93521 -3.42281 0
M  V30 7010 C 658.69 2.91161 -3.83117 0
M  V30 7011 C 661.042 2.82947 -4.3771 0
M  V30 7012 C 658.37 2.76043 -5.17704 0
M  V30 7013 C 660.722 2.69368 -5.72384 0
M  V30 7014 C 659.386 2.65373 -6.12482 0
M  V30 7015 H 658.656 0.604828 -0.428094 0
M  V30 7016 H 661.303 1.05084 -1.60092 0
M  V30 7017 H 659.608 3.65153 -1.42024 0
M  V30 7018 H 661.305 3.58073 -1.80512 0
M  V30 7019 H 657.895 2.96158 -3.09819 0
M  V30 7020 H 662.079 2.83849 -4.07116 0
M  V30 7021 H 657.335 2.71352 -5.47885 0
M  V30 7022 H 661.509 2.60156 -6.45981 0
M  V30 7023 H 659.136 2.53415 -7.16718 0
M  V30 7024 N 660.711 1.11618 1.11262 0
M  V30 7025 C 662.122 0.881942 1.64556 0
M  V30 7026 C 662.473 -0.585442 1.87262 0
M  V30 7027 O 661.598 -1.44795 1.60821 0
M  V30 7028 C 662.193 1.59446 2.98935 0
M  V30 7029 C 660.752 1.40661 3.4913 0
M  V30 7030 C 659.899 1.63593 2.23903 0
M  V30 7031 H 662.85 1.27217 0.94877 0
M  V30 7032 H 662.871 1.04054 3.65996 0
M  V30 7033 H 662.383 2.66241 2.82378 0
M  V30 7034 H 660.484 0.360835 3.70849 0
M  V30 7035 H 660.597 2.15693 4.27801 0
M  V30 7036 H 658.961 1.05944 2.3162 0
M  V30 7037 H 659.744 2.71666 2.09886 0
M  V30 7038 N 662.189 -1.289 0.906776 0
M  V30 7039 C 663.139 -2.25122 0.361109 0
M  V30 7040 C 664.123 -1.52169 -0.52283 0
M  V30 7041 O 665.315 -1.73223 -0.363691 0
M  V30 7042 C 662.444 -3.40915 -0.403982 0
M  V30 7043 C 661.53 -4.21198 0.495279 0
M  V30 7044 N 661.921 -4.79636 1.60572 0
M  V30 7045 C 660.219 -4.45027 0.294372 0
M  V30 7046 C 660.92 -5.39977 2.16332 0
M  V30 7047 N 659.896 -5.23753 1.45546 0
M  V30 7048 H 663.698 -2.67869 1.20927 0
M  V30 7049 H 661.212 -1.43592 0.758632 0
M  V30 7050 H 663.209 -4.08922 -0.811695 0
M  V30 7051 H 661.869 -2.99703 -1.24932 0
M  V30 7052 H 662.88 -4.78209 1.98838 0
M  V30 7053 H 659.557 -4.14348 -0.512021 0
M  V30 7054 H 660.947 -5.96266 3.09704 0
M  V30 7055 N 663.667 -0.670007 -1.42649 0
M  V30 7056 C 664.915 -0.18991 -2.01206 0
M  V30 7057 C 665.236 1.20617 -1.53221 0
M  V30 7058 O 664.506 1.80898 -0.751856 0
M  V30 7059 H 663.086 -0.0672189 -0.743969 0
M  V30 7060 H 665.748 -0.865442 -1.74631 0
M  V30 7061 H 664.844 -0.187481 -3.11536 0
M  V30 7062 N 665.145 1.52092 -0.413018 0
M  V30 7063 C 666.37 2.06756 0.163338 0
M  V30 7064 C 666.795 1.28073 1.37764 0
M  V30 7065 O 666.153 0.312015 1.78595 0
M  V30 7066 C 666.201 3.57278 0.488322 0
M  V30 7067 O 665.305 3.80986 1.57871 0
M  V30 7068 H 664.646 0.663882 0.0125068 0
M  V30 7069 H 667.176 1.95988 -0.587339 0
M  V30 7070 H 667.186 4.01125 0.745836 0
M  V30 7071 H 665.861 4.13978 -0.399327 0
M  V30 7072 H 664.438 3.49017 1.31306 0
M  V30 7073 N 666.623 0.143563 1.56945 0
M  V30 7074 C 667.848 -0.518701 2.00809 0
M  V30 7075 C 668.273 -1.5785 1.02298 0
M  V30 7076 O 667.631 -1.813 -0.0017839 0
M  V30 7077 C 667.679 -1.09929 3.43436 0
M  V30 7078 O 666.783 -2.21425 3.47915 0
M  V30 7079 H 666.124 -0.127215 0.6517 0
M  V30 7080 H 668.654 0.239283 2.03196 0
M  V30 7081 H 668.664 -1.4288 3.82164 0
M  V30 7082 H 667.339 -0.323162 4.14643 0
M  V30 7083 H 665.916 -1.89728 3.21026 0
M  V30 7084 N 668.101 -1.57061 -0.130224 0
M  V30 7085 C 669.064 -1.98593 -1.14426 0
M  V30 7086 C 670.064 -0.874584 -1.34936 0
M  V30 7087 O 671.254 -1.14086 -1.31643 0
M  V30 7088 C 668.386 -2.31639 -2.50112 0
M  V30 7089 H 669.579 -2.89374 -0.787561 0
M  V30 7090 H 667.132 -1.51756 -0.374146 0
M  V30 7091 H 667.867 -1.43703 -2.90723 0
M  V30 7092 H 667.652 -3.12684 -2.36583 0
M  V30 7093 H 669.142 -2.64551 -3.23114 0
M  V30 7094 N 669.579 0.400081 -1.52437 0
M  V30 7095 C 670.804 1.17221 -1.71096 0
M  V30 7096 C 671.229 1.83269 -0.423565 0
M  V30 7097 O 670.587 1.70378 0.619751 0
M  V30 7098 C 670.635 2.20425 -2.85386 0
M  V30 7099 O 669.739 3.26769 -2.51586 0
M  V30 7100 H 669.08 0.341766 -0.569291 0
M  V30 7101 H 671.61 0.467772 -1.99181 0
M  V30 7102 H 671.62 2.64605 -3.10561 0
M  V30 7103 H 670.295 1.71737 -3.78786 0
M  V30 7104 H 668.872 2.87804 -2.37114 0
M  V30 7105 N 671.057 1.43213 0.657864 0
M  V30 7106 C 672.305 1.44298 1.41501 0
M  V30 7107 C 672.626 0.0666478 1.94886 0
M  V30 7108 O 671.896 -0.897345 1.74139 0
M  V30 7109 H 670.476 0.531257 0.525143 0
M  V30 7110 H 673.138 1.78777 0.776195 0
M  V30 7111 H 672.234 2.1528 2.25966 0
M  V30 7112 N 672.536 -0.895792 1.29666 0
M  V30 7113 C 673.499 -1.98189 1.15124 0
M  V30 7114 C 674.499 -1.60572 0.0855717 0
M  V30 7115 O 675.689 -1.70991 0.332826 0
M  V30 7116 C 672.821 -3.32289 0.761372 0
M  V30 7117 H 674.014 -2.12518 2.11603 0
M  V30 7118 H 671.567 -1.0808 1.12908 0
M  V30 7119 H 672.302 -3.23662 -0.203393 0
M  V30 7120 H 672.087 -3.60958 1.53139 0
M  V30 7121 H 673.577 -4.1198 0.682792 0
M  V30 7122 N 674.014 -1.12206 -1.10668 0
M  V30 7123 C 675.291 -0.787382 -1.79052 0
M  V30 7124 C 675.671 0.723267 -1.98323 0
M  V30 7125 O 675.019 1.6561 -1.57434 0
M  V30 7126 C 675.229 -1.55968 -3.1221 0
M  V30 7127 C 676.577 -1.74413 -3.87125 0
M  V30 7128 O 677.601 -1.5246 -3.21923 0
M  V30 7129 O 676.46 -2.10952 -5.04144 0
M  V30 7130 H 673.554 -0.286137 -0.775922 0
M  V30 7131 H 676.1 -1.22595 -1.1734 0
M  V30 7132 H 674.872 -2.58692 -2.93588 0
M  V30 7133 H 674.495 -1.1152 -3.8164 0
M  V30 7134 N 675.492 1.28418 -0.913599 0
M  V30 7135 C 676.455 2.25564 -0.406624 0
M  V30 7136 C 677.455 1.5387 0.466965 0
M  V30 7137 O 678.645 1.72094 0.270042 0
M  V30 7138 C 675.777 3.38339 0.417053 0
M  V30 7139 H 676.97 2.71926 -1.26477 0
M  V30 7140 H 674.523 1.40098 -0.692986 0
M  V30 7141 H 675.258 2.97339 1.29461 0
M  V30 7142 H 675.043 3.91542 -0.209102 0
M  V30 7143 H 676.533 4.10578 0.762602 0
M  V30 7144 N 676.97 0.677563 1.42291 0
M  V30 7145 C 677.918 -0.0106755 2.32598 0
M  V30 7146 C 678.912 -0.787643 1.49975 0
M  V30 7147 O 680.118 -0.695295 1.66029 0
M  V30 7148 H 676.493 -0.0222482 0.751671 0
M  V30 7149 H 678.464 0.768312 2.88339 0
M  V30 7150 C 677.213 -0.946142 3.3458 0
M  V30 7151 H 676.536 -0.357701 3.98197 0
M  V30 7152 H 677.976 -1.39634 4.00348 0
M  V30 7153 C 676.435 -2.05383 2.67057 0
M  V30 7154 O 676.965 -3.1406 2.50458 0
M  V30 7155 N 675.171 -1.82635 2.26038 0
M  V30 7156 H 674.718 -0.942534 2.39737 0
M  V30 7157 H 674.676 -2.56937 1.81192 0
M  V30 7158 N 678.448 -1.51871 0.421078 0
M  V30 7159 C 679.688 -2.03848 -0.150167 0
M  V30 7160 C 680.052 -1.29925 -1.41363 0
M  V30 7161 O 681.253 -1.7219 -2.06408 0
M  V30 7162 C 679.524 -3.55374 -0.38003 0
M  V30 7163 S 681.083 -4.29111 -0.917011 0
M  V30 7164 H 677.901 -0.709904 -0.0394639 0
M  V30 7165 H 680.503 -1.86799 0.576746 0
M  V30 7166 H 679.207 -4.0675 0.546122 0
M  V30 7167 H 678.738 -3.76687 -1.13448 0
M  V30 7168 H 680.753 -4.44944 -2.19635 0
M  V30 7169 N 679.926 -0.151884 -1.56866 0
M  V30 7170 C 681.151 0.508044 -2.01081 0
M  V30 7171 C 681.576 1.57306 -1.03134 0
M  V30 7172 O 680.934 1.81298 -0.0078309 0
M  V30 7173 C 680.982 1.08106 -3.44014 0
M  V30 7174 O 680.086 2.19577 -3.49084 0
M  V30 7175 H 679.427 0.123757 -0.652365 0
M  V30 7176 H 681.957 -0.250055 -2.03066 0
M  V30 7177 H 681.967 1.40851 -3.82916 0
M  V30 7178 H 680.642 0.301168 -4.14808 0
M  V30 7179 H 679.219 1.88023 -3.22027 0
M  V30 7180 N 681.404 1.57128 0.121893 0
M  V30 7181 C 682.815 1.73902 0.679348 0
M  V30 7182 C 683.166 0.770135 1.80453 0
M  V30 7183 O 682.291 -0.0576083 2.16323 0
M  V30 7184 C 682.886 3.15328 1.2391 0
M  V30 7185 C 681.445 3.33618 1.74288 0
M  V30 7186 C 680.592 2.6978 0.641414 0
M  V30 7187 H 683.543 1.58359 -0.104 0
M  V30 7188 H 683.564 3.16718 2.10879 0
M  V30 7189 H 683.076 3.85821 0.419957 0
M  V30 7190 H 681.177 2.68162 2.58689 0
M  V30 7191 H 681.29 4.4176 1.85432 0
M  V30 7192 H 679.654 2.30935 1.0743 0
M  V30 7193 H 680.437 3.42895 -0.166707 0
M  V30 7194 N 682.882 -0.391992 1.52647 0
M  V30 7195 C 684.298 -0.731848 1.41831 0
M  V30 7196 C 684.498 -1.9423 0.536361 0
M  V30 7197 O 683.554 -2.52499 0.00866571 0
M  V30 7198 C 684.867 -0.969743 2.84634 0
M  V30 7199 C 686.415 -1.0714 2.94092 0
M  V30 7200 C 686.89 -1.34195 4.37899 0
M  V30 7201 N 688.381 -1.41023 4.41211 0
M  V30 7202 C 689.116 -1.63616 5.49561 0
M  V30 7203 N 688.612 -1.83699 6.68002 0
M  V30 7204 N 690.405 -1.65771 5.371 0
M  V30 7205 H 682.556 0.404547 2.08512 0
M  V30 7206 H 684.819 0.11879 0.940528 0
M  V30 7207 H 684.525 -0.152465 3.51369 0
M  V30 7208 H 684.399 -1.88523 3.26709 0
M  V30 7209 H 686.786 -1.87925 2.27526 0
M  V30 7210 H 686.867 -0.133887 2.55449 0
M  V30 7211 H 686.511 -0.539207 5.0503 0
M  V30 7212 H 686.441 -2.29226 4.74092 0
M  V30 7213 H 688.932 -1.27223 3.55841 0
M  V30 7214 H 689.245 -2.00437 7.46354 0
M  V30 7215 H 687.59 -1.8093 6.71036 0
M  V30 7216 H 690.781 -1.4963 4.43541 0
M  V30 7217 H 690.954 -1.83038 6.21612 0
M  V30 7218 N 684.36 -1.4356 -0.65026 0
M  V30 7219 C 685.776 -1.27025 -0.966269 0
M  V30 7220 C 685.976 -0.192117 -2.00582 0
M  V30 7221 O 685.032 0.428459 -2.48838 0
M  V30 7222 C 686.345 -2.63556 -1.44772 0
M  V30 7223 C 687.893 -2.71111 -1.56421 0
M  V30 7224 C 688.368 -4.08067 -2.07956 0
M  V30 7225 N 689.859 -4.10146 -2.15254 0
M  V30 7226 C 690.594 -5.12952 -2.56258 0
M  V30 7227 N 690.09 -6.26129 -2.96537 0
M  V30 7228 N 691.883 -5.00306 -2.56224 0
M  V30 7229 H 684.034 -2.12367 0.0375758 0
M  V30 7230 H 686.297 -0.946894 -0.0457782 0
M  V30 7231 H 686.003 -3.43429 -0.758271 0
M  V30 7232 H 685.877 -2.89152 -2.42221 0
M  V30 7233 H 688.264 -1.91569 -2.24467 0
M  V30 7234 H 688.345 -2.49277 -0.573967 0
M  V30 7235 H 687.989 -4.88077 -1.40511 0
M  V30 7236 H 687.919 -4.27266 -3.07817 0
M  V30 7237 H 690.41 -3.28453 -1.86887 0
M  V30 7238 H 690.723 -7.00403 -3.26582 0
M  V30 7239 H 689.068 -6.29597 -2.94334 0
M  V30 7240 H 692.259 -4.10952 -2.24135 0
M  V30 7241 H 692.432 -5.80553 -2.87857 0
M  V30 7242 N 685.838 0.888903 -1.30139 0
M  V30 7243 C 687.066 1.67358 -1.21651 0
M  V30 7244 C 687.481 1.87499 0.221246 0
M  V30 7245 O 686.838 1.41969 1.14677 0
M  V30 7246 C 686.889 3.05213 -1.93719 0
M  V30 7247 O 686.61 2.85984 -3.31881 0
M  V30 7248 C 688.111 3.9964 -1.9184 0
M  V30 7249 H 685.331 0.522365 -0.42116 0
M  V30 7250 H 687.875 1.11086 -1.71698 0
M  V30 7251 H 686.03 3.5823 -1.4748 0
M  V30 7252 H 686.444 3.73411 -3.68327 0
M  V30 7253 H 687.918 4.93749 -2.46811 0
M  V30 7254 H 688.395 4.29955 -0.896409 0
M  V30 7255 H 689.001 3.52558 -2.37872 0
M  V30 7256 N 687.317 1.12792 1.10072 0
M  V30 7257 C 688.542 0.908838 1.86427 0
M  V30 7258 C 688.967 -0.536793 1.80278 0
M  V30 7259 O 688.325 -1.38033 1.17543 0
M  V30 7260 C 688.373 1.39295 3.3261 0
M  V30 7261 O 687.477 0.573846 4.08388 0
M  V30 7262 H 686.818 0.326234 0.578331 0
M  V30 7263 H 689.348 1.50094 1.39043 0
M  V30 7264 H 689.358 1.39366 3.83459 0
M  V30 7265 H 688.033 2.44555 3.36401 0
M  V30 7266 H 686.61 0.640438 3.67359 0
M  V30 7267 N 688.795 -1.27931 0.920396 0
M  V30 7268 C 690.035 -1.96459 0.564198 0
M  V30 7269 C 690.399 -1.70802 -0.876967 0
M  V30 7270 O 691.6 -2.32956 -1.34107 0
M  V30 7271 C 689.871 -3.46583 0.872641 0
M  V30 7272 S 691.43 -4.34343 0.623859 0
M  V30 7273 H 688.248 -0.679735 0.208523 0
M  V30 7274 H 690.85 -1.55319 1.18727 0
M  V30 7275 H 689.554 -3.62753 1.91933 0
M  V30 7276 H 689.085 -3.92677 0.238479 0
M  V30 7277 H 691.1 -4.93449 -0.521744 0
M  V30 7278 N 690.273 -0.685099 -1.4193 0
M  V30 7279 C 691.521 -0.21124 -2.00993 0
M  V30 7280 C 691.842 1.18985 -1.54491 0
M  V30 7281 O 691.112 1.8009 -0.771 0
M  V30 7282 H 689.692 -0.0751059 -0.743215 0
M  V30 7283 H 692.354 -0.883915 -1.73704 0
M  V30 7284 H 691.45 -0.220513 -3.1132 0
M  V30 7285 N 691.751 1.51645 -0.429126 0
M  V30 7286 C 692.976 2.06917 0.141399 0
M  V30 7287 C 693.401 1.29527 1.36398 0
M  V30 7288 O 692.759 0.33094 1.78254 0
M  V30 7289 C 692.807 3.57776 0.4504 0
M  V30 7290 O 691.911 3.82639 1.53821 0
M  V30 7291 H 691.252 0.663978 0.0054647 0
M  V30 7292 H 693.782 1.95355 -0.608093 0
M  V30 7293 H 693.792 4.01894 0.703249 0
M  V30 7294 H 692.467 4.13532 -0.443213 0
M  V30 7295 H 691.044 3.5039 1.27597 0
M  V30 7296 N 693.229 0.160201 1.56784 0
M  V30 7297 C 694.192 -0.760405 2.16219 0
M  V30 7298 C 695.192 -1.16595 1.10735 0
M  V30 7299 O 696.382 -1.08472 1.36306 0
M  V30 7300 C 693.514 -2.03358 2.73603 0
M  V30 7301 H 694.707 -0.243173 2.98912 0
M  V30 7302 H 692.26 -0.0893139 1.56045 0
M  V30 7303 H 692.995 -2.59416 1.94612 0
M  V30 7304 H 692.78 -1.75186 3.50788 0
M  V30 7305 H 694.27 -2.69081 3.19351 0
M  V30 7306 N 694.707 -1.5719 -0.113559 0
M  V30 7307 C 695.654 -2.00736 -1.13901 0
M  V30 7308 C 696.624 -0.88044 -1.40846 0
M  V30 7309 O 697.809 -1.14507 -1.5262 0
M  V30 7310 C 694.949 -2.42132 -2.45899 0
M  V30 7311 C 694.062 -3.68264 -2.25844 0
M  V30 7312 C 693.197 -3.98617 -3.5111 0
M  V30 7313 C 692.236 -5.17915 -3.26236 0
M  V30 7314 N 691.373 -5.44111 -4.4372 0
M  V30 7315 H 696.213 -2.88128 -0.760677 0
M  V30 7316 H 693.75 -1.42523 -0.364099 0
M  V30 7317 H 695.708 -2.6417 -3.22908 0
M  V30 7318 H 694.338 -1.57775 -2.81615 0
M  V30 7319 H 693.39 -3.53809 -1.39726 0
M  V30 7320 H 694.702 -4.55425 -2.03444 0
M  V30 7321 H 693.856 -4.21333 -4.36536 0
M  V30 7322 H 692.595 -3.09942 -3.76546 0
M  V30 7323 H 691.6 -4.95038 -2.39202 0
M  V30 7324 H 692.825 -6.08172 -3.02165 0
M  V30 7325 H 690.771 -4.58394 -4.69266 0
M  V30 7326 H 690.688 -6.25606 -4.24444 0
M  V30 7327 H 691.956 -5.71351 -5.30263 0
M  V30 7328 N 696.185 0.383891 -1.52853 0
M  V30 7329 C 697.095 1.49343 -1.80925 0
M  V30 7330 C 698.111 1.59458 -0.696348 0
M  V30 7331 O 699.287 1.75698 -0.984481 0
M  V30 7332 C 696.352 2.84819 -1.97684 0
M  V30 7333 C 695.413 2.84382 -3.21598 0
M  V30 7334 C 694.646 4.13397 -3.37548 0
M  V30 7335 O 694.869 5.08619 -2.58192 0
M  V30 7336 O 693.803 4.20325 -4.30826 0
M  V30 7337 H 697.629 1.2855 -2.75152 0
M  V30 7338 H 695.214 0.572229 -1.38007 0
M  V30 7339 H 697.096 3.65125 -2.10385 0
M  V30 7340 H 695.771 3.05627 -1.06647 0
M  V30 7341 H 694.678 2.0284 -3.14336 0
M  V30 7342 H 696.011 2.68526 -4.12498 0
M  V30 7343 N 697.663 1.43903 0.642637 0
M  V30 7344 C 698.593 1.52697 1.76652 0
M  V30 7345 C 699.574 0.380816 1.65782 0
M  V30 7346 O 700.759 0.599432 1.84717 0
M  V30 7347 C 697.889 1.45975 3.15133 0
M  V30 7348 C 696.843 2.58949 3.40778 0
M  V30 7349 C 696.169 2.37279 4.79169 0
M  V30 7350 C 697.469 4.01153 3.34475 0
M  V30 7351 H 699.163 2.46766 1.69549 0
M  V30 7352 H 696.709 1.18767 0.814279 0
M  V30 7353 H 698.662 1.5073 3.93521 0
M  V30 7354 H 697.386 0.484162 3.22991 0
M  V30 7355 H 696.045 2.53564 2.64765 0
M  V30 7356 H 695.693 1.37939 4.83717 0
M  V30 7357 H 695.393 3.13016 4.97287 0
M  V30 7358 H 696.917 2.43834 5.59801 0
M  V30 7359 H 698.331 4.07968 4.02784 0
M  V30 7360 H 696.728 4.77001 3.64129 0
M  V30 7361 H 697.798 4.25539 2.32475 0
M  V30 7362 N 699.141 -0.881989 1.30609 0
M  V30 7363 C 700.091 -1.97539 1.13852 0
M  V30 7364 C 701.075 -1.60813 0.0528428 0
M  V30 7365 O 702.267 -1.74827 0.276484 0
M  V30 7366 C 699.396 -3.32977 0.835519 0
M  V30 7367 C 698.482 -3.76008 1.96159 0
M  V30 7368 N 698.873 -3.91109 3.20729 0
M  V30 7369 C 697.171 -4.05427 1.85863 0
M  V30 7370 C 697.872 -4.27661 3.94311 0
M  V30 7371 N 696.848 -4.37686 3.22385 0
M  V30 7372 H 700.65 -2.07309 2.08327 0
M  V30 7373 H 698.164 -1.072 1.21992 0
M  V30 7374 H 700.161 -4.11041 0.696477 0
M  V30 7375 H 698.821 -3.24542 -0.101135 0
M  V30 7376 H 699.832 -3.7616 3.55984 0
M  V30 7377 H 696.509 -4.05449 0.995847 0
M  V30 7378 H 697.899 -4.47042 5.01601 0
M  V30 7379 N 700.619 -1.13374 -1.09472 0
M  V30 7380 C 701.582 -0.813639 -2.14272 0
M  V30 7381 C 702.582 0.176677 -1.59826 0
M  V30 7382 O 703.772 -0.0503441 -1.74127 0
M  V30 7383 C 700.904 -0.210897 -3.40247 0
M  V30 7384 H 702.097 -1.74229 -2.44099 0
M  V30 7385 H 699.65 -0.938304 -1.25002 0
M  V30 7386 H 700.385 0.726998 -3.16046 0
M  V30 7387 H 700.17 -0.924048 -3.81056 0
M  V30 7388 H 701.66 -0.00377603 -4.176 0
M  V30 7389 N 702.098 1.27442 -0.927168 0
M  V30 7390 C 703.028 2.29256 -0.443188 0
M  V30 7391 C 704.009 1.62701 0.49624 0
M  V30 7392 O 705.194 1.90013 0.401105 0
M  V30 7393 C 702.324 3.45955 0.305366 0
M  V30 7394 C 701.278 4.24501 -0.546178 0
M  V30 7395 C 700.604 5.33671 0.331512 0
M  V30 7396 C 701.904 4.89921 -1.81037 0
M  V30 7397 H 703.598 2.69988 -1.29409 0
M  V30 7398 H 701.144 1.29792 -0.623705 0
M  V30 7399 H 703.097 4.1628 0.654885 0
M  V30 7400 H 701.821 3.04138 1.19029 0
M  V30 7401 H 700.48 3.55921 -0.878398 0
M  V30 7402 H 700.128 4.88096 1.21537 0
M  V30 7403 H 699.828 5.87131 -0.234746 0
M  V30 7404 H 701.352 6.0684 0.676614 0
M  V30 7405 H 702.766 5.52536 -1.52895 0
M  V30 7406 H 701.163 5.53436 -2.32009 0
M  V30 7407 H 702.233 4.13652 -2.53021 0
M  V30 7408 N 703.576 0.692616 1.41565 0
M  V30 7409 C 704.824 0.221896 2.00878 0
M  V30 7410 C 705.145 -1.18164 1.5512 0
M  V30 7411 O 704.415 -1.79679 0.78054 0
M  V30 7412 H 702.995 0.0790463 0.742806 0
M  V30 7413 H 705.657 0.893115 1.73232 0
M  V30 7414 H 704.753 0.23702 3.11199 0
M  V30 7415 N 705.054 -1.51416 0.437162 0
M  V30 7416 C 705.986 -2.255 -0.410171 0
M  V30 7417 C 706.999 -1.29511 -0.986444 0
M  V30 7418 O 708.188 -1.55266 -0.880614 0
M  V30 7419 C 705.288 -2.99511 -1.58575 0
M  V30 7420 C 704.461 -4.22595 -1.12839 0
M  V30 7421 C 703.52 -4.79187 -2.17407 0
M  V30 7422 O 702.546 -5.4103 -1.76849 0
M  V30 7423 N 703.748 -4.63204 -3.49889 0
M  V30 7424 H 706.513 -2.98856 0.224783 0
M  V30 7425 H 704.074 -1.59699 0.266041 0
M  V30 7426 H 706.066 -3.34258 -2.28152 0
M  V30 7427 H 704.636 -2.29167 -2.12606 0
M  V30 7428 H 703.856 -3.93344 -0.259695 0
M  V30 7429 H 705.144 -5.02468 -0.800196 0
M  V30 7430 H 704.542 -4.13945 -3.85573 0
M  V30 7431 H 703.099 -5.02313 -4.15361 0
M  V30 7432 N 706.532 -0.168513 -1.56696 0
M  V30 7433 C 707.495 0.748928 -2.16619 0
M  V30 7434 C 708.495 1.16007 -1.11351 0
M  V30 7435 O 709.685 1.07748 -1.3688 0
M  V30 7436 C 706.817 2.01904 -2.74677 0
M  V30 7437 H 708.01 0.227317 -2.99037 0
M  V30 7438 H 705.563 0.0810372 -1.5609 0
M  V30 7439 H 706.298 2.58381 -1.95985 0
M  V30 7440 H 706.083 1.73323 -3.51712 0
M  V30 7441 H 707.573 2.67383 -3.20774 0
M  V30 7442 N 708.01 1.57248 0.105221 0
M  V30 7443 C 708.973 2.00388 1.11252 0
M  V30 7444 C 709.973 0.89594 1.33527 0
M  V30 7445 O 711.163 1.16166 1.29811 0
M  V30 7446 C 708.295 2.35589 2.46395 0
M  V30 7447 H 709.488 2.90591 0.741424 0
M  V30 7448 H 707.041 1.52332 0.349956 0
M  V30 7449 H 707.776 1.4831 2.884 0
M  V30 7450 H 707.561 3.16408 2.31578 0
M  V30 7451 H 709.051 2.69658 3.18864 0
M  V30 7452 N 709.488 -0.375779 1.53054 0
M  V30 7453 C 710.398 -1.48381 1.81715 0
M  V30 7454 C 711.414 -1.59087 0.704795 0
M  V30 7455 O 712.59 -1.75174 0.993785 0
M  V30 7456 C 709.655 -2.83767 1.99192 0
M  V30 7457 C 708.716 -2.82673 3.23102 0
M  V30 7458 C 707.949 -4.11601 3.39736 0
M  V30 7459 O 708.172 -5.07243 2.60885 0
M  V30 7460 O 707.106 -4.18034 4.33049 0
M  V30 7461 H 710.932 -1.27089 2.7583 0
M  V30 7462 H 708.517 -0.564902 1.38308 0
M  V30 7463 H 710.399 -3.64004 2.12318 0
M  V30 7464 H 709.074 -3.05057 1.08267 0
M  V30 7465 H 707.981 -2.0117 3.15407 0
M  V30 7466 H 709.314 -2.66335 4.13916 0
M  V30 7467 N 710.966 -1.44241 -0.634997 0
M  V30 7468 C 712.382 -1.28043 -0.952742 0
M  V30 7469 C 712.582 -0.21338 -2.00367 0
M  V30 7470 O 711.638 0.402042 -2.49279 0
M  V30 7471 C 712.951 -2.65076 -1.41968 0
M  V30 7472 C 714.499 -2.72755 -1.53537 0
M  V30 7473 C 714.974 -4.10249 -2.03616 0
M  V30 7474 N 716.465 -4.12406 -2.10892 0
M  V30 7475 C 717.2 -5.15641 -2.50803 0
M  V30 7476 N 716.696 -6.29239 -2.89879 0
M  V30 7477 N 718.489 -5.02995 -2.50903 0
M  V30 7478 H 710.64 -2.12315 0.060098 0
M  V30 7479 H 712.903 -0.947326 -0.0357325 0
M  V30 7480 H 712.609 -3.44213 -0.721804 0
M  V30 7481 H 712.483 -2.91704 -2.39141 0
M  V30 7482 H 714.87 -1.93939 -2.22422 0
M  V30 7483 H 714.951 -2.49872 -0.547496 0
M  V30 7484 H 714.595 -4.8954 -1.35327 0
M  V30 7485 H 714.525 -4.30507 -3.03268 0
M  V30 7486 H 717.016 -3.30417 -1.83393 0
M  V30 7487 H 717.329 -7.03827 -3.19135 0
M  V30 7488 H 715.674 -6.32683 -2.8764 0
M  V30 7489 H 718.865 -4.13306 -2.19763 0
M  V30 7490 H 719.038 -5.83574 -2.81683 0
M  V30 7491 N 712.444 0.87505 -1.31075 0
M  V30 7492 C 713.391 1.98178 -1.18296 0
M  V30 7493 C 714.361 1.65952 -0.0699923 0
M  V30 7494 O 715.546 1.8926 -0.241951 0
M  V30 7495 C 712.686 3.33399 -0.891024 0
M  V30 7496 C 711.799 3.78253 -2.08684 0
M  V30 7497 C 710.934 5.02166 -1.73212 0
M  V30 7498 C 709.973 5.39455 -2.89231 0
M  V30 7499 N 709.11 6.54549 -2.53989 0
M  V30 7500 H 713.95 2.0844 -2.12971 0
M  V30 7501 H 711.487 1.02047 -1.05948 0
M  V30 7502 H 713.445 4.11246 -0.702338 0
M  V30 7503 H 712.075 3.22794 0.0188799 0
M  V30 7504 H 711.127 2.9623 -2.38646 0
M  V30 7505 H 712.439 4.01821 -2.95536 0
M  V30 7506 H 711.593 5.87666 -1.50777 0
M  V30 7507 H 710.332 4.80491 -0.83544 0
M  V30 7508 H 709.337 4.52477 -3.12321 0
M  V30 7509 H 710.562 5.63098 -3.79601 0
M  V30 7510 H 708.508 6.3443 -1.66838 0
M  V30 7511 H 708.425 6.78035 -3.34372 0
M  V30 7512 H 709.693 7.43254 -2.34934 0
M  V30 7513 N 713.922 1.13953 1.08869 0
M  V30 7514 C 714.854 0.779906 2.15523 0
M  V30 7515 C 715.867 -0.20102 1.61554 0
M  V30 7516 O 717.056 0.0200049 1.78489 0
M  V30 7517 C 714.156 0.136226 3.38626 0
M  V30 7518 C 713.329 1.15069 4.21993 0
M  V30 7519 C 712.388 0.531645 5.23507 0
M  V30 7520 O 711.414 1.19327 5.56552 0
M  V30 7521 N 712.616 -0.693734 5.7634 0
M  V30 7522 H 715.381 1.69769 2.46979 0
M  V30 7523 H 712.942 1.03331 1.24637 0
M  V30 7524 H 714.934 -0.290295 4.03658 0
M  V30 7525 H 713.504 -0.684603 3.05011 0
M  V30 7526 H 712.724 1.75431 3.53012 0
M  V30 7527 H 714.012 1.83614 4.74514 0
M  V30 7528 H 713.41 -1.24994 5.51718 0
M  V30 7529 H 711.967 -1.06283 6.43076 0
M  V30 7530 N 715.4 -1.26948 0.933913 0
M  V30 7531 C 716.816 -1.46419 0.635103 0
M  V30 7532 C 717.016 -1.84336 -0.813785 0
M  V30 7533 O 716.072 -1.96061 -1.59111 0
M  V30 7534 C 717.385 -2.55206 1.5903 0
M  V30 7535 C 718.933 -2.69062 1.5992 0
M  V30 7536 C 719.408 -3.81013 2.54152 0
M  V30 7537 N 720.899 -3.88395 2.52395 0
M  V30 7538 C 721.634 -4.74454 3.21996 0
M  V30 7539 N 721.13 -5.64954 4.00997 0
M  V30 7540 N 722.923 -4.68237 3.10983 0
M  V30 7541 H 715.074 -1.00622 1.87053 0
M  V30 7542 H 717.337 -0.503189 0.803433 0
M  V30 7543 H 717.043 -2.34153 2.62422 0
M  V30 7544 H 716.917 -3.52719 1.33677 0
M  V30 7545 H 719.304 -2.89492 0.572569 0
M  V30 7546 H 719.385 -1.72016 1.89325 0
M  V30 7547 H 719.029 -3.61336 3.5693 0
M  V30 7548 H 718.959 -4.77499 2.22041 0
M  V30 7549 H 721.45 -3.23687 1.95025 0
M  V30 7550 H 721.763 -6.27496 4.51074 0
M  V30 7551 H 720.108 -5.6473 4.05099 0
M  V30 7552 H 723.299 -3.96535 2.48753 0
M  V30 7553 H 723.472 -5.35087 3.65494 0
M  V30 7554 N 716.879 -0.700114 -1.41195 0
M  V30 7555 C 717.789 -0.0382854 -2.34569 0
M  V30 7556 C 718.805 0.761036 -1.56474 0
M  V30 7557 O 719.981 0.697553 -1.88934 0
M  V30 7558 C 717.046 0.883522 -3.35253 0
M  V30 7559 C 716.107 0.0758957 -4.29233 0
M  V30 7560 C 715.34 0.9538 -5.25108 0
M  V30 7561 O 715.563 2.19326 -5.26547 0
M  V30 7562 O 714.497 0.401049 -6.00562 0
M  V30 7563 H 718.323 -0.808073 -2.92752 0
M  V30 7564 H 715.908 -0.460479 -1.42127 0
M  V30 7565 H 717.79 1.41199 -3.9704 0
M  V30 7566 H 716.465 1.63272 -2.79506 0
M  V30 7567 H 715.372 -0.497274 -3.7078 0
M  V30 7568 H 716.705 -0.634741 -4.8809 0
M  V30 7569 N 718.357 1.51182 -0.445186 0
M  V30 7570 C 719.32 2.26501 0.350722 0
M  V30 7571 C 720.32 1.3025 0.942952 0
M  V30 7572 O 721.51 1.53897 0.816175 0
M  V30 7573 C 718.642 3.06274 1.49697 0
M  V30 7574 H 719.835 2.98299 -0.309474 0
M  V30 7575 H 717.388 1.55034 -0.198551 0
M  V30 7576 H 718.123 2.38911 2.19299 0
M  V30 7577 H 717.908 3.76979 1.0784 0
M  V30 7578 H 719.398 3.63306 2.05909 0
M  V30 7579 N 719.835 0.176821 1.56605 0
M  V30 7580 C 720.765 -0.746841 2.21234 0
M  V30 7581 C 721.746 -1.23502 1.16967 0
M  V30 7582 O 722.931 -1.28718 1.45414 0
M  V30 7583 C 720.061 -1.97407 2.8574 0
M  V30 7584 C 719.015 -1.62153 3.96094 0
M  V30 7585 C 718.341 -2.92387 4.47676 0
M  V30 7586 C 719.641 -0.845353 5.15413 0
M  V30 7587 H 721.335 -0.208116 2.98676 0
M  V30 7588 H 718.881 -0.0986594 1.43662 0
M  V30 7589 H 720.834 -2.62531 3.2963 0
M  V30 7590 H 719.558 -2.53703 2.05676 0
M  V30 7591 H 718.217 -0.993964 3.52868 0
M  V30 7592 H 717.865 -3.46734 3.64396 0
M  V30 7593 H 717.565 -2.69551 5.22127 0
M  V30 7594 H 719.089 -3.5853 4.94255 0
M  V30 7595 H 720.503 -1.39929 5.55961 0
M  V30 7596 H 718.9 -0.715814 5.95815 0
M  V30 7597 H 719.97 0.157239 4.84645 0
M  V30 7598 N 721.313 -1.57302 -0.09688 0
M  V30 7599 C 722.245 -1.98618 -1.14384 0
M  V30 7600 C 723.258 -0.888483 -1.36418 0
M  V30 7601 O 724.447 -1.16661 -1.35101 0
M  V30 7602 C 721.547 -2.28838 -2.49973 0
M  V30 7603 C 720.72 -3.60132 -2.48241 0
M  V30 7604 C 719.779 -3.7831 -3.65743 0
M  V30 7605 O 718.805 -4.50183 -3.48316 0
M  V30 7606 N 720.007 -3.18752 -4.85157 0
M  V30 7607 H 722.772 -2.8904 -0.792202 0
M  V30 7608 H 720.333 -1.59356 -0.285883 0
M  V30 7609 H 722.325 -2.38193 -3.27179 0
M  V30 7610 H 720.895 -1.44431 -2.77233 0
M  V30 7611 H 720.115 -3.61763 -1.56593 0
M  V30 7612 H 721.403 -4.46389 -2.4416 0
M  V30 7613 H 720.801 -2.60368 -5.0222 0
M  V30 7614 H 719.358 -3.33595 -5.59962 0
M  V30 7615 N 722.791 0.367657 -1.53252 0
M  V30 7616 C 724.039 1.10832 -1.68999 0
M  V30 7617 C 724.36 1.89894 -0.443306 0
M  V30 7618 O 723.63 1.88235 0.54262 0
M  V30 7619 H 722.21 0.412153 -0.623008 0
M  V30 7620 H 724.872 0.414775 -1.90435 0
M  V30 7621 H 723.968 1.7993 -2.55013 0
M  V30 7622 N 724.269 1.44576 0.627338 0
M  V30 7623 C 725.517 1.47267 1.38408 0
M  V30 7624 C 725.838 0.107971 1.94701 0
M  V30 7625 O 725.108 -0.860206 1.76004 0
M  V30 7626 H 723.688 0.542276 0.513756 0
M  V30 7627 H 726.35 1.80383 0.738099 0
M  V30 7628 H 725.446 2.20025 2.21349 0
M  V30 7629 N 725.747 -0.868086 1.31537 0
M  V30 7630 C 727.024 -1.60384 1.11965 0
M  V30 7631 C 727.404 -2.08584 -0.324949 0
M  V30 7632 O 726.752 -1.86561 -1.31937 0
M  V30 7633 C 726.962 -2.76038 2.13551 0
M  V30 7634 C 728.31 -3.45954 2.46173 0
M  V30 7635 O 729.334 -2.86247 2.11993 0
M  V30 7636 O 728.193 -4.53666 3.04711 0
M  V30 7637 H 725.287 -0.705705 0.431172 0
M  V30 7638 H 727.833 -0.913385 1.43022 0
M  V30 7639 H 726.605 -2.37849 3.10714 0
M  V30 7640 H 726.228 -3.52769 1.83411 0
M  V30 7641 N 727.225 -1.14528 -1.08264 0
M  V30 7642 C 728.641 -0.885976 -1.3275 0
M  V30 7643 C 728.841 0.472096 -1.95892 0
M  V30 7644 O 727.897 1.21606 -2.21288 0
M  V30 7645 C 729.21 -2.01982 -2.22764 0
M  V30 7646 C 730.758 -2.05329 -2.36239 0
M  V30 7647 C 731.233 -3.1801 -3.29596 0
M  V30 7648 N 732.724 -3.17598 -3.37173 0
M  V30 7649 C 733.459 -4.01426 -4.09444 0
M  V30 7650 N 732.955 -4.95297 -4.8441 0
M  V30 7651 N 734.748 -3.89482 -4.0529 0
M  V30 7652 H 726.899 -2.01996 -0.656607 0
M  V30 7653 H 729.162 -0.880274 -0.351884 0
M  V30 7654 H 728.868 -2.99964 -1.83615 0
M  V30 7655 H 728.742 -1.94421 -3.23234 0
M  V30 7656 H 731.129 -1.07953 -2.74646 0
M  V30 7657 H 731.21 -2.1696 -1.35506 0
M  V30 7658 H 730.854 -4.15633 -2.9191 0
M  V30 7659 H 730.784 -3.03616 -4.30261 0
M  V30 7660 H 733.275 -2.4961 -2.83731 0
M  V30 7661 H 733.588 -5.55723 -5.37021 0
M  V30 7662 H 731.933 -4.99293 -4.83457 0
M  V30 7663 H 735.124 -3.15465 -3.45832 0
M  V30 7664 H 735.297 -4.55039 -4.6135 0
M  V30 7665 N 728.703 1.26451 -0.940633 0
M  V30 7666 C 729.951 1.93395 -0.586748 0
M  V30 7667 C 730.272 1.7417 0.876921 0
M  V30 7668 O 729.542 1.097 1.62304 0
M  V30 7669 H 728.122 0.715687 -0.214012 0
M  V30 7670 H 730.784 1.53902 -1.19584 0
M  V30 7671 H 729.88 3.01565 -0.804059 0
M  V30 7672 N 730.181 0.707592 1.40822 0
M  V30 7673 C 731.428 0.243671 2.01029 0
M  V30 7674 C 731.756 -1.16057 1.5608 0
M  V30 7675 O 731.011 -1.7999 0.768251 0
M  V30 7676 C 731.31 0.262892 3.56432 0
M  V30 7677 C 730.976 1.61632 4.20935 0
M  V30 7678 C 729.638 1.98682 4.38268 0
M  V30 7679 C 731.99 2.50619 4.5699 0
M  V30 7680 C 729.318 3.2428 4.88937 0
M  V30 7681 C 731.67 3.75562 5.09054 0
M  V30 7682 C 730.334 4.12739 5.24598 0
M  V30 7683 H 729.604 0.0891654 0.735616 0
M  V30 7684 H 732.251 0.909051 1.68548 0
M  V30 7685 H 730.556 -0.486052 3.88773 0
M  V30 7686 H 732.253 -0.113775 4.00839 0
M  V30 7687 H 728.843 1.31818 4.07826 0
M  V30 7688 H 733.027 2.23272 4.43242 0
M  V30 7689 H 728.283 3.53064 4.99155 0
M  V30 7690 H 732.457 4.44692 5.35931 0
M  V30 7691 H 730.084 5.10132 5.63622 0
M  V30 7692 N 731.66 -1.50943 0.453197 0
M  V30 7693 C 732.623 -2.26684 -0.338705 0
M  V30 7694 C 733.623 -1.30748 -0.936032 0
M  V30 7695 O 734.813 -1.54327 -0.808002 0
M  V30 7696 C 731.945 -3.07063 -1.48071 0
M  V30 7697 H 733.138 -2.98131 0.325289 0
M  V30 7698 H 730.691 -1.54926 0.206771 0
M  V30 7699 H 731.426 -2.4007 -2.18029 0
M  V30 7700 H 731.211 -3.77545 -1.0584 0
M  V30 7701 H 732.701 -3.64393 -2.0398 0
M  V30 7702 N 733.138 -0.185124 -1.56509 0
M  V30 7703 C 734.101 0.72591 -2.17401 0
M  V30 7704 C 735.101 1.14819 -1.12575 0
M  V30 7705 O 736.291 1.0629 -1.38015 0
M  V30 7706 C 733.423 1.98979 -2.76803 0
M  V30 7707 H 734.616 0.195588 -2.99262 0
M  V30 7708 H 732.169 0.0644772 -1.56167 0
M  V30 7709 H 732.904 2.56287 -1.98714 0
M  V30 7710 H 732.689 1.69583 -3.53531 0
M  V30 7711 H 734.179 2.63966 -3.23592 0
M  V30 7712 N 734.616 1.57351 0.0885366 0
M  V30 7713 C 736.027 1.75303 0.642308 0
M  V30 7714 C 736.378 0.808238 1.78779 0
M  V30 7715 O 735.503 -0.01171 2.16397 0
M  V30 7716 C 736.098 3.17885 1.17194 0
M  V30 7717 C 734.657 3.37239 1.67172 0
M  V30 7718 C 733.804 2.7108 0.584045 0
M  V30 7719 H 736.755 1.58103 -0.137567 0
M  V30 7720 H 736.776 3.2112 2.04114 0
M  V30 7721 H 736.288 3.86625 0.338024 0
M  V30 7722 H 734.389 2.73588 2.52943 0
M  V30 7723 H 734.502 4.45594 1.76019 0
M  V30 7724 H 732.866 2.33161 1.02508 0
M  V30 7725 H 733.649 3.42464 -0.239403 0
M  V30 7726 N 736.094 -0.359525 1.53444 0
M  V30 7727 C 737.026 -1.46098 1.76602 0
M  V30 7728 C 738.039 -1.49395 0.646912 0
M  V30 7729 O 739.228 -1.52765 0.923307 0
M  V30 7730 C 736.328 -2.84836 1.83635 0
M  V30 7731 C 735.501 -3.05164 3.13358 0
M  V30 7732 C 734.56 -4.24051 3.11556 0
M  V30 7733 O 733.586 -4.18935 3.85334 0
M  V30 7734 N 734.788 -5.31775 2.328 0
M  V30 7735 H 737.553 -1.2661 2.71643 0
M  V30 7736 H 735.114 -0.549294 1.52297 0
M  V30 7737 H 737.106 -3.62516 1.799 0
M  V30 7738 H 735.676 -2.97542 0.958509 0
M  V30 7739 H 734.896 -2.15091 3.30348 0
M  V30 7740 H 736.184 -3.15619 3.99076 0
M  V30 7741 H 735.582 -5.38796 1.7238 0
M  V30 7742 H 734.139 -6.0801 2.34877 0
M  V30 7743 N 737.572 -1.44907 -0.619662 0
M  V30 7744 C 738.819 -1.48292 -1.37898 0
M  V30 7745 C 739.147 -0.119933 -1.9413 0
M  V30 7746 O 738.402 0.879834 -1.74807 0
M  V30 7747 C 738.701 -2.50002 -2.55409 0
M  V30 7748 C 738.367 -3.95031 -2.17397 0
M  V30 7749 C 737.029 -4.34524 -2.06743 0
M  V30 7750 C 739.381 -4.86287 -1.87548 0
M  V30 7751 C 736.709 -5.63183 -1.64445 0
M  V30 7752 C 739.061 -6.15346 -1.4674 0
M  V30 7753 C 737.725 -6.53781 -1.34636 0
M  V30 7754 H 736.995 -0.542638 -0.504603 0
M  V30 7755 H 739.642 -1.78186 -0.701581 0
M  V30 7756 H 737.947 -2.13634 -3.28433 0
M  V30 7757 H 739.644 -2.49864 -3.13639 0
M  V30 7758 H 736.234 -3.63793 -2.26611 0
M  V30 7759 H 740.418 -4.56522 -1.94682 0
M  V30 7760 H 735.674 -5.91769 -1.53687 0
M  V30 7761 H 739.848 -6.85508 -1.22685 0
M  V30 7762 H 737.475 -7.53375 -1.01634 0
M  V30 7763 N 739.05 0.861098 -1.31996 0
M  V30 7764 C 740.275 1.65264 -1.2531 0
M  V30 7765 C 740.7 1.87265 0.177007 0
M  V30 7766 O 740.058 1.4208 1.12619 0
M  V30 7767 C 740.106 2.99284 -2.0115 0
M  V30 7768 O 739.21 3.89508 -1.3549 0
M  V30 7769 H 738.551 0.50409 -0.432192 0
M  V30 7770 H 741.081 1.07297 -1.74208 0
M  V30 7771 H 741.091 3.49154 -2.11081 0
M  V30 7772 H 739.766 2.82591 -3.05148 0
M  V30 7773 H 738.343 3.47966 -1.34066 0
M  V30 7774 N 740.528 1.15101 1.07655 0
M  V30 7775 C 741.458 0.867864 2.16773 0
M  V30 7776 C 742.439 -0.180283 1.69142 0
M  V30 7777 O 743.624 -0.0353152 1.94168 0
M  V30 7778 C 740.754 0.35299 3.45501 0
M  V30 7779 C 739.708 1.33746 4.06566 0
M  V30 7780 C 739.034 0.681562 5.30338 0
M  V30 7781 C 740.334 2.7024 4.46954 0
M  V30 7782 H 742.028 1.78034 2.40716 0
M  V30 7783 H 739.574 0.857435 1.15689 0
M  V30 7784 H 741.527 0.142465 4.21159 0
M  V30 7785 H 740.251 -0.594945 3.21135 0
M  V30 7786 H 738.91 1.53429 3.32949 0
M  V30 7787 H 738.558 -0.272422 5.02262 0
M  V30 7788 H 738.258 1.33853 5.72151 0
M  V30 7789 H 739.782 0.48074 6.08705 0
M  V30 7790 H 741.196 2.5442 5.13754 0
M  V30 7791 H 739.593 3.32282 4.99709 0
M  V30 7792 H 740.663 3.26537 3.58471 0
M  V30 7793 N 742.006 -1.2595 0.947325 0
M  V30 7794 C 743.252 -1.94081 0.608604 0
M  V30 7795 C 743.607 -1.72899 -0.844021 0
M  V30 7796 O 742.9 -1.05908 -1.59669 0
M  V30 7797 C 743.094 -3.46034 0.894158 0
M  V30 7798 C 742.923 -3.81994 2.37299 0
M  V30 7799 C 741.693 -4.04431 3.02925 0
M  V30 7800 C 743.891 -3.90069 3.35188 0
M  V30 7801 N 741.873 -4.27325 4.40757 0
M  V30 7802 C 743.244 -4.17567 4.58299 0
M  V30 7803 C 745.299 -3.72721 3.30127 0
M  V30 7804 C 744.002 -4.2952 5.76979 0
M  V30 7805 C 746.028 -3.8591 4.48138 0
M  V30 7806 C 745.39 -4.13812 5.70034 0
M  V30 7807 H 741.489 -0.73273 0.273187 0
M  V30 7808 H 744.073 -1.51898 1.218 0
M  V30 7809 H 742.244 -3.87131 0.313758 0
M  V30 7810 H 743.976 -4.01396 0.516082 0
M  V30 7811 H 740.731 -4.0003 2.53521 0
M  V30 7812 H 741.155 -4.42792 5.12118 0
M  V30 7813 H 745.797 -3.50172 2.36938 0
M  V30 7814 H 743.515 -4.50888 6.70616 0
M  V30 7815 H 747.101 -3.73882 4.45762 0
M  V30 7816 H 745.981 -4.23791 6.59827 0
M  V30 7817 N 743.484 -0.715051 -1.40445 0
M  V30 7818 C 744.9 -0.388555 -1.54798 0
M  V30 7819 C 745.1 1.10271 -1.68649 0
M  V30 7820 O 744.156 1.88875 -1.67578 0
M  V30 7821 C 745.469 -1.15414 -2.77669 0
M  V30 7822 C 747.017 -1.14039 -2.91486 0
M  V30 7823 C 747.492 -1.88812 -4.1727 0
M  V30 7824 N 748.983 -1.85878 -4.24268 0
M  V30 7825 C 749.718 -2.40558 -5.20499 0
M  V30 7826 N 749.214 -3.03791 -6.22642 0
M  V30 7827 N 751.007 -2.30703 -5.12574 0
M  V30 7828 H 743.158 -1.68201 -1.297 0
M  V30 7829 H 745.421 -0.710915 -0.627139 0
M  V30 7830 H 745.127 -2.20853 -2.7371 0
M  V30 7831 H 745.001 -0.745412 -3.69761 0
M  V30 7832 H 747.388 -0.0941996 -2.9495 0
M  V30 7833 H 747.469 -1.58834 -2.00513 0
M  V30 7834 H 747.113 -2.93422 -4.14568 0
M  V30 7835 H 747.043 -1.41438 -5.0725 0
M  V30 7836 H 749.534 -1.39794 -3.51093 0
M  V30 7837 H 749.847 -3.43032 -6.92495 0
M  V30 7838 H 748.192 -3.07875 -6.23087 0
M  V30 7839 H 751.383 -1.80961 -4.31707 0
M  V30 7840 H 751.556 -2.73618 -5.87398 0
M  V30 7841 N 744.962 1.50701 -0.461195 0
M  V30 7842 C 746.378 1.59187 -0.114786 0
M  V30 7843 C 746.578 1.4702 1.37794 0
M  V30 7844 O 745.634 1.32361 2.15027 0
M  V30 7845 C 746.947 2.93453 -0.656167 0
M  V30 7846 C 748.495 3.06824 -0.618715 0
M  V30 7847 C 748.97 4.4365 -1.13747 0
M  V30 7848 N 750.461 4.50035 -1.09646 0
M  V30 7849 C 751.196 5.54278 -1.46846 0
M  V30 7850 N 750.692 6.65822 -1.91448 0
M  V30 7851 N 752.485 5.44767 -1.38512 0
M  V30 7852 H 744.636 1.56853 -1.43216 0
M  V30 7853 H 746.899 0.740712 -0.59165 0
M  V30 7854 H 746.605 3.07802 -1.7015 0
M  V30 7855 H 746.479 3.77082 -0.0942261 0
M  V30 7856 H 748.866 2.92129 0.417685 0
M  V30 7857 H 748.947 2.24976 -1.21734 0
M  V30 7858 H 748.591 4.59093 -2.17245 0
M  V30 7859 H 748.521 5.24074 -0.515153 0
M  V30 7860 H 751.012 3.69988 -0.769217 0
M  V30 7861 H 751.325 7.41413 -2.18007 0
M  V30 7862 H 749.67 6.66968 -1.95393 0
M  V30 7863 H 752.861 4.56511 -1.03516 0
M  V30 7864 H 753.034 6.25889 -1.6783 0
M  V30 7865 N 746.441 0.193421 1.56409 0
M  V30 7866 C 747.852 -0.319471 1.83946 0
M  V30 7867 C 748.203 -1.61505 1.11403 0
M  V30 7868 O 747.328 -2.13139 0.374289 0
M  V30 7869 C 747.923 -0.586411 3.33686 0
M  V30 7870 C 746.482 -1.04368 3.61641 0
M  V30 7871 C 745.629 -0.0913834 2.77149 0
M  V30 7872 H 748.58 0.417242 1.53117 0
M  V30 7873 H 748.601 -1.43591 3.52366 0
M  V30 7874 H 748.113 0.356701 3.86457 0
M  V30 7875 H 746.214 -2.00113 3.14302 0
M  V30 7876 H 746.327 -0.937549 4.69837 0
M  V30 7877 H 744.691 -0.592954 2.47702 0
M  V30 7878 H 745.474 0.846142 3.32709 0
M  V30 7879 N 747.919 -1.57396 -0.0801906 0
M  V30 7880 C 749.165 -1.87113 -0.782083 0
M  V30 7881 C 749.498 -0.78458 -1.77646 0
M  V30 7882 O 748.773 0.205993 -1.93406 0
M  V30 7883 C 749.056 -3.27483 -1.49756 0
M  V30 7884 C 748.909 -4.46782 -0.520171 0
M  V30 7885 C 750.228 -3.65965 -2.44454 0
M  V30 7886 H 747.347 -0.680559 -0.282858 0
M  V30 7887 H 749.989 -1.89946 -0.0454139 0
M  V30 7888 H 748.139 -3.25199 -2.12551 0
M  V30 7889 H 749.811 -4.61187 0.101919 0
M  V30 7890 H 748.054 -4.33485 0.165219 0
M  V30 7891 H 748.725 -5.41761 -1.05824 0
M  V30 7892 H 751.201 -3.69289 -1.91742 0
M  V30 7893 H 750.077 -4.65086 -2.91524 0
M  V30 7894 H 750.338 -2.95446 -3.28883 0
M  V30 7895 N 749.397 0.351382 -1.53633 0
M  V30 7896 C 750.643 1.09411 -1.70754 0
M  V30 7897 C 750.976 1.88544 -0.465293 0
M  V30 7898 O 750.251 1.86923 0.537608 0
M  V30 7899 C 750.534 2.04173 -2.96623 0
M  V30 7900 C 750.387 1.28556 -4.31038 0
M  V30 7901 C 751.706 3.04102 -3.18136 0
M  V30 7902 H 748.825 0.396373 -0.621335 0
M  V30 7903 H 751.467 0.373464 -1.86293 0
M  V30 7904 H 749.617 2.65625 -2.83506 0
M  V30 7905 H 751.289 0.697786 -4.55992 0
M  V30 7906 H 749.532 0.587498 -4.29803 0
M  V30 7907 H 750.203 1.97989 -5.15271 0
M  V30 7908 H 752.679 2.5276 -3.30532 0
M  V30 7909 H 751.555 3.67616 -4.07615 0
M  V30 7910 H 751.816 3.75053 -2.34068 0
M  V30 7911 N 750.875 1.45233 0.611969 0
M  V30 7912 C 752.103 1.52539 1.39784 0
M  V30 7913 C 752.518 0.156533 1.8815 0
M  V30 7914 O 751.875 -0.84112 1.61961 0
M  V30 7915 C 751.926 2.50614 2.60528 0
M  V30 7916 O 751.647 3.8218 2.14173 0
M  V30 7917 C 753.148 2.67574 3.53439 0
M  V30 7918 H 750.368 0.51674 0.428043 0
M  V30 7919 H 752.912 1.90379 0.746727 0
M  V30 7920 H 751.067 2.15858 3.2169 0
M  V30 7921 H 751.481 4.35305 2.92592 0
M  V30 7922 H 752.955 3.40184 4.34717 0
M  V30 7923 H 753.432 1.73458 4.03496 0
M  V30 7924 H 754.038 3.0331 2.98133 0
M  V30 7925 N 752.353 -0.854086 1.3245 0
M  V30 7926 C 753.316 -1.94427 1.21371 0
M  V30 7927 C 754.316 -1.60219 0.136613 0
M  V30 7928 O 755.506 -1.69846 0.387057 0
M  V30 7929 C 752.638 -3.29698 0.866701 0
M  V30 7930 H 753.831 -2.05679 2.18257 0
M  V30 7931 H 751.384 -1.04434 1.1629 0
M  V30 7932 H 752.119 -3.24145 -0.100319 0
M  V30 7933 H 751.904 -3.55903 1.64545 0
M  V30 7934 H 753.394 -4.09599 0.813515 0
M  V30 7935 N 753.831 -1.1567 -1.07043 0
M  V30 7936 C 754.781 -0.824733 -2.12561 0
M  V30 7937 C 755.765 0.19243 -1.59745 0
M  V30 7938 O 756.957 -0.00728759 -1.76998 0
M  V30 7939 C 754.086 -0.31921 -3.41813 0
M  V30 7940 C 753.172 -1.36671 -4.01475 0
M  V30 7941 N 753.563 -2.57493 -4.35351 0
M  V30 7942 C 751.861 -1.22018 -4.28984 0
M  V30 7943 C 752.562 -3.24658 -4.82672 0
M  V30 7944 N 751.538 -2.52043 -4.81638 0
M  V30 7945 H 755.34 -1.74363 -2.3659 0
M  V30 7946 H 752.854 -1.04262 -1.24511 0
M  V30 7947 H 754.851 -0.0630216 -4.16852 0
M  V30 7948 H 753.511 0.593708 -3.19226 0
M  V30 7949 H 754.522 -2.94612 -4.25939 0
M  V30 7950 H 751.199 -0.367414 -4.1588 0
M  V30 7951 H 752.589 -4.2775 -5.1815 0
M  V30 7952 N 755.309 1.25446 -0.953992 0
M  V30 7953 C 756.558 1.92441 -0.604101 0
M  V30 7954 C 756.871 1.75543 0.862796 0
M  V30 7955 O 758.077 2.37106 1.32262 0
M  V30 7956 C 756.533 3.44854 -1.02974 0
M  V30 7957 C 756.141 3.70464 -2.51914 0
M  V30 7958 C 757.885 4.1778 -0.752352 0
M  V30 7959 C 755.792 5.1638 -2.88281 0
M  V30 7960 H 754.722 0.720508 -0.222227 0
M  V30 7961 H 757.373 1.42318 -1.15836 0
M  V30 7962 H 755.755 3.93935 -0.403904 0
M  V30 7963 H 756.929 3.32038 -3.19511 0
M  V30 7964 H 755.244 3.10797 -2.77117 0
M  V30 7965 H 757.841 5.25261 -1.00024 0
M  V30 7966 H 758.184 4.15135 0.311212 0
M  V30 7967 H 758.717 3.74605 -1.33851 0
M  V30 7968 H 755.456 5.24135 -3.93653 0
M  V30 7969 H 754.976 5.55855 -2.25357 0
M  V30 7970 H 756.655 5.84497 -2.77439 0
M  V30 7971 N 756.787 0.722489 1.40064 0
M  V30 7972 C 757.697 0.0755984 2.34478 0
M  V30 7973 C 758.713 -0.736046 1.57665 0
M  V30 7974 O 759.889 -0.667407 1.9002 0
M  V30 7975 C 756.954 -0.830075 3.36616 0
M  V30 7976 C 756.015 -0.00759884 4.29299 0
M  V30 7977 C 755.248 -0.870139 5.26559 0
M  V30 7978 O 755.471 -2.10921 5.2997 0
M  V30 7979 O 754.405 -0.305454 6.01124 0
M  V30 7980 H 758.231 0.854545 2.9143 0
M  V30 7981 H 755.816 0.483032 1.41376 0
M  V30 7982 H 757.698 -1.34864 3.99236 0
M  V30 7983 H 756.373 -1.58805 2.82069 0
M  V30 7984 H 755.28 0.556199 3.69942 0
M  V30 7985 H 756.613 0.712312 4.87018 0
M  V30 7986 N 758.265 -1.50454 0.469181 0
M  V30 7987 C 759.513 -2.01916 -0.0862982 0
M  V30 7988 C 759.834 -1.35337 -1.40388 0
M  V30 7989 O 759.104 -0.498096 -1.89462 0
M  V30 7990 H 757.684 -0.746185 -0.0348825 0
M  V30 7991 H 760.346 -1.84804 0.619167 0
M  V30 7992 H 759.442 -3.11182 -0.239189 0
M  V30 7993 N 759.743 -0.201713 -1.56304 0
M  V30 7994 C 760.675 0.748466 -2.16635 0
M  V30 7995 C 761.688 1.172 -1.12996 0
M  V30 7996 O 762.877 1.10658 -1.40061 0
M  V30 7997 C 759.977 2.02296 -2.719 0
M  V30 7998 C 759.15 1.75818 -4.00508 0
M  V30 7999 C 758.209 2.87779 -4.40533 0
M  V30 8000 O 757.235 2.57101 -5.07826 0
M  V30 8001 N 758.437 4.16287 -4.04581 0
M  V30 8002 H 761.202 0.232505 -2.98797 0
M  V30 8003 H 758.763 -0.0199822 -1.61888 0
M  V30 8004 H 760.755 2.7635 -2.95657 0
M  V30 8005 H 759.325 2.44996 -1.94154 0
M  V30 8006 H 758.545 0.855095 -3.84814 0
M  V30 8007 H 759.833 1.55532 -4.84445 0
M  V30 8008 H 759.231 4.44061 -3.50466 0
M  V30 8009 H 757.788 4.86946 -4.33274 0
M  V30 8010 N 761.222 1.57436 0.0718424 0
M  V30 8011 C 762.633 1.75975 0.623678 0
M  V30 8012 C 762.984 0.827155 1.77912 0
M  V30 8013 O 762.109 0.0112425 2.16397 0
M  V30 8014 C 762.704 3.1911 1.13816 0
M  V30 8015 C 761.263 3.38994 1.63586 0
M  V30 8016 C 760.41 2.71684 0.555261 0
M  V30 8017 H 763.361 1.57948 -0.154328 0
M  V30 8018 H 763.382 3.23267 2.00696 0
M  V30 8019 H 762.894 3.86962 0.296998 0
M  V30 8020 H 760.995 2.76256 2.50027 0
M  V30 8021 H 761.108 4.47436 1.71283 0
M  V30 8022 H 759.472 2.34236 1.00029 0
M  V30 8023 H 760.255 3.42191 -0.275712 0
M  V30 8024 N 762.7 -0.34323 1.53817 0
M  V30 8025 C 763.946 -1.08504 1.71332 0
M  V30 8026 C 764.279 -1.88294 0.475285 0
M  V30 8027 O 763.554 -1.87205 -0.527688 0
M  V30 8028 C 763.837 -2.02597 2.97702 0
M  V30 8029 C 763.69 -1.26268 4.31713 0
M  V30 8030 C 765.009 -3.0241 3.19744 0
M  V30 8031 H 762.128 -0.393072 0.623429 0
M  V30 8032 H 764.77 -0.363579 1.86489 0
M  V30 8033 H 762.92 -2.64118 2.8491 0
M  V30 8034 H 764.592 -0.673594 4.56356 0
M  V30 8035 H 762.835 -0.564696 4.30109 0
M  V30 8036 H 763.506 -1.95253 5.16314 0
M  V30 8037 H 765.982 -2.51004 3.31868 0
M  V30 8038 H 764.858 -3.65449 4.09558 0
M  V30 8039 H 765.119 -3.73806 2.36054 0
M  V30 8040 N 764.178 -1.45556 -0.604258 0
M  V30 8041 C 765.088 -1.57025 -1.74299 0
M  V30 8042 C 766.104 -0.45456 -1.67958 0
M  V30 8043 O 767.28 -0.715711 -1.88254 0
M  V30 8044 C 764.345 -1.53702 -3.10768 0
M  V30 8045 C 763.406 -2.76335 -3.28538 0
M  V30 8046 C 762.639 -2.73161 -4.58496 0
M  V30 8047 O 762.862 -1.80678 -5.41028 0
M  V30 8048 O 761.796 -3.64409 -4.79051 0
M  V30 8049 H 765.622 -2.53284 -1.67573 0
M  V30 8050 H 763.207 -1.28104 -0.768745 0
M  V30 8051 H 765.089 -1.54468 -3.92068 0
M  V30 8052 H 763.764 -0.605957 -3.17978 0
M  V30 8053 H 762.671 -2.8113 -2.46813 0
M  V30 8054 H 764.004 -3.68578 -3.26207 0
M  V30 8055 N 765.656 0.84705 -1.32902 0
M  V30 8056 C 766.902 1.60414 -1.24078 0
M  V30 8057 C 767.235 1.93217 0.195105 0
M  V30 8058 O 766.51 1.58001 1.13428 0
M  V30 8059 C 766.793 2.91951 -2.108 0
M  V30 8060 C 766.646 2.6588 -3.62805 0
M  V30 8061 C 767.965 3.93299 -1.97494 0
M  V30 8062 H 765.084 0.58206 -0.452079 0
M  V30 8063 H 767.726 0.977562 -1.62922 0
M  V30 8064 H 765.876 3.45425 -1.77802 0
M  V30 8065 H 767.548 2.18902 -4.06054 0
M  V30 8066 H 765.791 1.99716 -3.85092 0
M  V30 8067 H 766.462 3.59574 -4.1882 0
M  V30 8068 H 768.938 3.49105 -2.26417 0
M  V30 8069 H 767.814 4.8318 -2.60438 0
M  V30 8070 H 768.075 4.31887 -0.944782 0
M  V30 8071 N 767.134 1.16236 1.06428 0
M  V30 8072 C 768.064 0.890807 2.1584 0
M  V30 8073 C 769.045 -0.162333 1.69324 0
M  V30 8074 O 770.23 -0.0147191 1.94194 0
M  V30 8075 C 767.36 0.389615 3.45108 0
M  V30 8076 C 766.314 1.38051 4.05125 0
M  V30 8077 C 765.64 0.737773 5.29586 0
M  V30 8078 C 766.94 2.74965 4.44062 0
M  V30 8079 H 768.634 1.80577 2.38814 0
M  V30 8080 H 766.18 0.869657 1.14774 0
M  V30 8081 H 768.133 0.187127 4.20984 0
M  V30 8082 H 766.857 -0.560851 3.21748 0
M  V30 8083 H 765.516 1.56952 3.31303 0
M  V30 8084 H 765.164 -0.219135 5.02522 0
M  V30 8085 H 764.864 1.39914 5.70699 0
M  V30 8086 H 766.388 0.545275 6.0816 0
M  V30 8087 H 767.802 2.59855 5.11027 0
M  V30 8088 H 766.199 3.37563 4.96156 0
M  V30 8089 H 767.269 3.30321 3.54987 0
M  V30 8090 N 768.612 -1.24939 0.960631 0
M  V30 8091 C 769.542 -2.28 0.503815 0
M  V30 8092 C 770.523 -1.63959 -0.452928 0
M  V30 8093 O 771.708 -1.91009 -0.350585 0
M  V30 8094 C 768.838 -3.46643 -0.213535 0
M  V30 8095 C 767.792 -4.22903 0.658535 0
M  V30 8096 C 767.118 -5.34363 -0.189902 0
M  V30 8097 C 768.418 -4.84949 1.93963 0
M  V30 8098 H 770.112 -2.66462 1.36521 0
M  V30 8099 H 767.658 -1.28093 0.657897 0
M  V30 8100 H 769.611 -4.1787 -0.544286 0
M  V30 8101 H 768.335 -3.07187 -1.10923 0
M  V30 8102 H 766.994 -3.53467 0.972455 0
M  V30 8103 H 766.642 -4.91147 -1.08553 0
M  V30 8104 H 766.342 -5.86302 0.390331 0
M  V30 8105 H 767.866 -6.0842 -0.515484 0
M  V30 8106 H 769.28 -5.48288 1.67491 0
M  V30 8107 H 767.677 -5.47091 2.46601 0
M  V30 8108 H 768.747 -4.06799 2.639 0
M  V30 8109 N 770.09 -0.729906 -1.39679 0
M  V30 8110 C 771.367 -0.202149 -1.94553 0
M  V30 8111 C 771.747 1.29507 -1.66707 0
M  V30 8112 O 771.095 2.05819 -0.992517 0
M  V30 8113 C 771.305 -0.530279 -3.44948 0
M  V30 8114 C 772.653 -0.476808 -4.21914 0
M  V30 8115 O 773.677 -0.467171 -3.53123 0
M  V30 8116 O 772.536 -0.466869 -5.44502 0
M  V30 8117 H 769.63 -0.0351644 -0.826252 0
M  V30 8118 H 772.176 -0.808417 -1.49207 0
M  V30 8119 H 770.948 -1.56526 -3.5863 0
M  V30 8120 H 770.571 0.10522 -3.97461 0
M  V30 8121 N 771.568 1.50203 -0.477153 0
M  V30 8122 C 772.796 2.0677 0.0732489 0
M  V30 8123 C 773.211 1.34033 1.32968 0
M  V30 8124 O 772.568 0.411412 1.77802 0
M  V30 8125 C 772.619 3.59751 0.35518 0
M  V30 8126 O 772.34 4.29747 -0.851425 0
M  V30 8127 C 773.841 4.3296 0.951877 0
M  V30 8128 H 771.061 0.670929 -0.00978923 0
M  V30 8129 H 773.605 1.93293 -0.667676 0
M  V30 8130 H 771.76 3.7301 1.04605 0
M  V30 8131 H 772.174 5.2106 -0.599708 0
M  V30 8132 H 773.648 5.40952 1.09888 0
M  V30 8133 H 774.125 3.93856 1.94356 0
M  V30 8134 H 774.731 4.24246 0.299208 0
M  V30 8135 N 773.046 0.209999 1.56195 0
M  V30 8136 C 774.294 -0.423974 1.97603 0
M  V30 8137 C 774.615 -1.61112 1.09854 0
M  V30 8138 O 773.885 -1.95134 0.173032 0
M  V30 8139 H 772.465 -0.159629 0.729745 0
M  V30 8140 H 775.127 0.300205 1.92574 0
M  V30 8141 H 774.223 -0.75809 3.02753 0
M  V30 8142 N 774.524 -1.57472 -0.0634922 0
M  V30 8143 C 775.487 -2.03268 -1.059 0
M  V30 8144 C 776.487 -0.931028 -1.31105 0
M  V30 8145 O 777.677 -1.19567 -1.26686 0
M  V30 8146 C 774.809 -2.42039 -2.40062 0
M  V30 8147 H 776.002 -2.92454 -0.664119 0
M  V30 8148 H 773.555 -1.53206 -0.309444 0
M  V30 8149 H 774.29 -1.55904 -2.84367 0
M  V30 8150 H 774.075 -3.22437 -2.23108 0
M  V30 8151 H 775.565 -2.78017 -3.11603 0
M  V30 8152 N 776.003 0.335068 -1.53997 0
M  V30 8153 C 777.28 1.09188 -1.62288 0
M  V30 8154 C 777.66 2.0626 -0.449458 0
M  V30 8155 O 777.008 2.21596 0.557444 0
M  V30 8156 C 777.218 1.80403 -2.98757 0
M  V30 8157 C 778.566 2.33841 -3.54406 0
M  V30 8158 O 779.59 1.90487 -3.00987 0
M  V30 8159 O 778.449 3.1318 -4.47862 0
M  V30 8160 H 775.543 0.502621 -0.656736 0
M  V30 8161 H 778.089 0.33588 -1.66343 0
M  V30 8162 H 776.861 1.09732 -3.75599 0
M  V30 8163 H 776.484 2.62841 -2.9833 0
M  V30 8164 N 777.481 1.45874 0.596531 0
M  V30 8165 C 778.758 1.40942 1.35627 0
M  V30 8166 C 779.138 0.0857066 2.10926 0
M  V30 8167 O 778.486 -0.932544 2.08605 0
M  V30 8168 C 778.696 2.63027 2.29386 0
M  V30 8169 C 780.044 3.08588 2.91649 0
M  V30 8170 O 781.068 2.63478 2.39704 0
M  V30 8171 O 779.927 3.86902 3.85965 0
M  V30 8172 H 777.021 0.559838 0.608696 0
M  V30 8173 H 779.567 1.5802 0.618698 0
M  V30 8174 H 778.339 3.5094 1.7308 0
M  V30 8175 H 777.962 2.48338 3.10506 0
M  V30 8176 N 778.959 -0.83999 1.33349 0
M  V30 8177 C 780.184 -1.63249 1.27924 0
M  V30 8178 C 780.609 -1.87523 -0.147193 0
M  V30 8179 O 779.967 -1.43853 -1.10345 0
M  V30 8180 C 780.015 -2.96046 2.05886 0
M  V30 8181 O 779.119 -3.87303 1.4167 0
M  V30 8182 H 778.46 -0.49715 0.440157 0
M  V30 8183 H 780.99 -1.04512 1.75893 0
M  V30 8184 H 781 -3.45752 2.16609 0
M  V30 8185 H 779.675 -2.77701 3.09605 0
M  V30 8186 H 778.252 -3.45789 1.39585 0
M  V30 8187 N 780.437 -1.16799 -1.0581 0
M  V30 8188 C 781.686 -0.94698 -1.78088 0
M  V30 8189 C 781.999 0.526016 -1.88394 0
M  V30 8190 O 783.205 0.865061 -2.5735 0
M  V30 8191 C 781.661 -1.64508 -3.20102 0
M  V30 8192 C 781.269 -3.15618 -3.17946 0
M  V30 8193 C 783.013 -1.50622 -3.96879 0
M  V30 8194 C 780.92 -3.78144 -4.5471 0
M  V30 8195 H 779.85 -0.35067 -0.667493 0
M  V30 8196 H 782.501 -1.39985 -1.18645 0
M  V30 8197 H 780.883 -1.11993 -3.79834 0
M  V30 8198 H 782.057 -3.75016 -2.67768 0
M  V30 8199 H 780.372 -3.29444 -2.54667 0
M  V30 8200 H 782.969 -1.94713 -4.97987 0
M  V30 8201 H 783.312 -0.455864 -4.13797 0
M  V30 8202 H 783.845 -2.00319 -3.43682 0
M  V30 8203 H 780.584 -4.83149 -4.42998 0
M  V30 8204 H 780.104 -3.23532 -5.05062 0
M  V30 8205 H 781.783 -3.79986 -5.2366 0
M  V30 8206 N 781.915 1.24427 -0.967243 0
M  V30 8207 C 783.161 1.92772 -0.629812 0
M  V30 8208 C 783.494 1.75436 0.832827 0
M  V30 8209 O 782.769 1.10716 1.59913 0
M  V30 8210 C 783.052 3.45798 -1.00477 0
M  V30 8211 C 782.905 3.72304 -2.52407 0
M  V30 8212 C 784.224 4.36787 -0.538999 0
M  V30 8213 H 781.343 0.700099 -0.230282 0
M  V30 8214 H 783.985 1.46805 -1.20616 0
M  V30 8215 H 782.135 3.8508 -0.514336 0
M  V30 8216 H 783.807 3.42584 -3.08924 0
M  V30 8217 H 782.05 3.17472 -2.95625 0
M  V30 8218 H 782.721 4.7937 -2.73693 0
M  V30 8219 H 785.197 4.04877 -0.959874 0
M  V30 8220 H 784.073 5.4259 -0.829926 0
M  V30 8221 H 784.334 4.38527 0.560923 0
M  V30 8222 N 783.393 0.737304 1.3929 0
M  V30 8223 C 784.621 0.296573 2.04763 0
M  V30 8224 C 785.036 -1.06941 1.55592 0
M  V30 8225 O 784.393 -1.67619 0.721822 0
M  V30 8226 C 784.444 0.291906 3.6032 0
M  V30 8227 O 784.165 1.60397 4.07682 0
M  V30 8228 C 785.666 -0.164708 4.42994 0
M  V30 8229 H 782.886 0.129251 0.658434 0
M  V30 8230 H 785.43 1.0016 1.78293 0
M  V30 8231 H 783.585 -0.364251 3.85684 0
M  V30 8232 H 783.999 1.51909 5.0202 0
M  V30 8233 H 785.473 -0.116814 5.51876 0
M  V30 8234 H 785.95 -1.21022 4.22197 0
M  V30 8235 H 786.556 0.461968 4.22784 0
M  V30 8236 N 784.871 -1.49948 0.485112 0
M  V30 8237 C 786.119 -2.01996 -0.0648775 0
M  V30 8238 C 786.44 -1.36819 -1.38945 0
M  V30 8239 O 785.71 -0.518163 -1.88923 0
M  V30 8240 H 784.29 -0.746513 -0.0269662 0
M  V30 8241 H 786.952 -1.84136 0.638733 0
M  V30 8242 H 786.048 -3.11418 -0.20617 0
M  V30 8243 N 786.349 -0.21828 -1.56081 0
M  V30 8244 C 787.598 0.414644 -1.97392 0
M  V30 8245 C 787.911 1.61132 -1.10887 0
M  V30 8246 O 789.117 2.31355 -1.42082 0
M  V30 8247 C 787.573 0.789099 -3.51143 0
M  V30 8248 C 787.181 -0.384578 -4.46346 0
M  V30 8249 C 788.925 1.38781 -4.01173 0
M  V30 8250 C 786.832 0.0121288 -5.91399 0
M  V30 8251 H 785.762 0.158691 -0.737111 0
M  V30 8252 H 788.413 -0.313974 -1.80794 0
M  V30 8253 H 786.795 1.57505 -3.6333 0
M  V30 8254 H 787.969 -1.16212 -4.45905 0
M  V30 8255 H 786.284 -0.896306 -4.06639 0
M  V30 8256 H 788.881 1.69746 -5.07041 0
M  V30 8257 H 789.224 2.30245 -3.46833 0
M  V30 8258 H 789.757 0.665364 -3.92196 0
M  V30 8259 H 786.496 -0.868917 -6.49715 0
M  V30 8260 H 786.016 0.754053 -5.95041 0
M  V30 8261 H 787.695 0.439949 -6.45502 0
M  V30 8262 N 787.827 1.57504 0.0551401 0
M  V30 8263 C 788.737 2.08198 1.08124 0
M  V30 8264 C 789.753 1.01496 1.41331 0
M  V30 8265 O 790.929 1.33073 1.51174 0
M  V30 8266 C 787.994 2.52968 2.37083 0
M  V30 8267 C 787.055 3.7404 2.10696 0
M  V30 8268 C 786.288 4.16665 3.33505 0
M  V30 8269 O 786.511 3.59019 4.4324 0
M  V30 8270 O 785.445 5.09324 3.20737 0
M  V30 8271 H 789.271 2.95977 0.680518 0
M  V30 8272 H 786.856 1.46933 0.270401 0
M  V30 8273 H 788.738 2.82211 3.12946 0
M  V30 8274 H 787.413 1.6831 2.76502 0
M  V30 8275 H 786.32 3.49855 1.32484 0
M  V30 8276 H 787.653 4.59601 1.76148 0
M  V30 8277 N 789.305 -0.326896 1.54172 0
M  V30 8278 C 790.235 -1.40741 1.86317 0
M  V30 8279 C 791.216 -1.54125 0.719684 0
M  V30 8280 O 792.401 -1.6806 0.973117 0
M  V30 8281 C 789.531 -2.77557 2.08757 0
M  V30 8282 C 788.485 -2.78965 3.24596 0
M  V30 8283 C 787.811 -4.18824 3.32401 0
M  V30 8284 C 789.111 -2.4301 4.62324 0
M  V30 8285 H 790.805 -1.14088 2.76811 0
M  V30 8286 H 788.351 -0.547389 1.3319 0
M  V30 8287 H 790.304 -3.53209 2.29829 0
M  V30 8288 H 789.028 -3.0568 1.15009 0
M  V30 8289 H 787.687 -2.05767 3.03406 0
M  V30 8290 H 787.335 -4.44083 2.36218 0
M  V30 8291 H 787.035 -4.20673 4.10253 0
M  V30 8292 H 788.559 -4.96294 3.55703 0
M  V30 8293 H 789.973 -3.08375 4.83299 0
M  V30 8294 H 788.37 -2.56116 5.42701 0
M  V30 8295 H 789.44 -1.38165 4.64799 0
M  V30 8296 N 790.784 -1.46188 -0.588786 0
M  V30 8297 C 792.032 -1.50885 -1.34455 0
M  V30 8298 C 792.353 -0.159555 -1.94346 0
M  V30 8299 O 791.623 0.813239 -1.78222 0
M  V30 8300 H 790.203 -0.555707 -0.499198 0
M  V30 8301 H 792.865 -1.82277 -0.690014 0
M  V30 8302 H 791.961 -2.25816 -2.15438 0
M  V30 8303 N 792.262 0.832906 -1.33792 0
M  V30 8304 C 793.673 1.40489 -1.22963 0
M  V30 8305 C 794.024 1.95633 0.149026 0
M  V30 8306 O 793.149 1.8928 1.04891 0
M  V30 8307 C 793.744 2.55387 -2.22627 0
M  V30 8308 C 792.303 3.08522 -2.15618 0
M  V30 8309 C 791.45 1.81347 -2.09782 0
M  V30 8310 H 794.401 0.638156 -1.45304 0
M  V30 8311 H 794.422 3.33193 -1.83746 0
M  V30 8312 H 793.934 2.15222 -3.22957 0
M  V30 8313 H 792.035 3.53217 -1.18611 0
M  V30 8314 H 792.148 3.6829 -3.0643 0
M  V30 8315 H 790.512 2.01839 -1.55349 0
M  V30 8316 H 791.295 1.43369 -3.1193 0
M  V30 8317 N 793.74 1.17359 1.05189 0
M  V30 8318 C 794.69 0.858445 2.11222 0
M  V30 8319 C 795.674 -0.166991 1.60031 0
M  V30 8320 O 796.866 0.0354456 1.76965 0
M  V30 8321 C 793.995 0.373549 3.41262 0
M  V30 8322 C 793.081 1.43041 3.99249 0
M  V30 8323 N 793.472 2.64387 4.312 0
M  V30 8324 C 791.77 1.28828 4.26989 0
M  V30 8325 C 792.471 3.32296 4.77446 0
M  V30 8326 N 791.447 2.59674 4.77567 0
M  V30 8327 H 795.249 1.78104 2.33786 0
M  V30 8328 H 792.763 1.0623 1.22837 0
M  V30 8329 H 794.76 0.129331 4.16699 0
M  V30 8330 H 793.42 -0.542847 3.2013 0
M  V30 8331 H 794.431 3.01351 4.21198 0
M  V30 8332 H 791.108 0.43353 4.15243 0
M  V30 8333 H 792.498 4.35939 5.11279 0
M  V30 8334 N 795.218 -1.23913 0.973828 0
M  V30 8335 C 796.448 -1.95911 0.655938 0
M  V30 8336 C 796.856 -1.72375 -0.779967 0
M  V30 8337 O 796.199 -1.00807 -1.5357 0
M  V30 8338 C 796.261 -3.49103 0.858324 0
M  V30 8339 C 795.925 -3.96347 2.27504 0
M  V30 8340 C 796.922 -4.05537 3.25324 0
M  V30 8341 C 794.607 -4.29509 2.60437 0
M  V30 8342 C 796.601 -4.47233 4.5416 0
M  V30 8343 C 794.288 -4.70887 3.89498 0
M  V30 8344 C 795.286 -4.79714 4.86172 0
M  V30 8345 O 794.974 -5.20166 6.1293 0
M  V30 8346 H 794.706 -0.630721 0.243244 0
M  V30 8347 H 797.26 -1.58534 1.30599 0
M  V30 8348 H 795.49 -3.86405 0.151097 0
M  V30 8349 H 797.179 -4.02311 0.538592 0
M  V30 8350 H 797.945 -3.80128 3.0121 0
M  V30 8351 H 793.824 -4.21853 1.85906 0
M  V30 8352 H 797.368 -4.54038 5.29618 0
M  V30 8353 H 793.265 -4.95744 4.1341 0
M  V30 8354 H 794.033 -5.38298 6.16586 0
M  V30 8355 N 796.696 -0.74468 -1.38897 0
M  V30 8356 C 797.924 -0.307428 -2.04603 0
M  V30 8357 C 798.339 1.06115 -1.56157 0
M  V30 8358 O 797.696 1.67233 -0.730701 0
M  V30 8359 C 797.747 -0.31101 -3.6016 0
M  V30 8360 O 797.468 -1.62557 -4.06825 0
M  V30 8361 C 798.969 0.141213 -4.43075 0
M  V30 8362 H 796.189 -0.132741 -0.657739 0
M  V30 8363 H 798.733 -1.01104 -1.77759 0
M  V30 8364 H 796.888 0.343792 -3.85872 0
M  V30 8365 H 797.302 -1.54569 -5.01207 0
M  V30 8366 H 798.776 0.0875449 -5.51931 0
M  V30 8367 H 799.253 1.18782 -4.22833 0
M  V30 8368 H 799.859 -0.484383 -4.22533 0
M  V30 8369 N 798.174 1.49689 -0.493057 0
M  V30 8370 C 799.585 1.8665 -0.0433032 0
M  V30 8371 C 799.936 1.40607 1.36836 0
M  V30 8372 O 799.061 0.780503 2.01834 0
M  V30 8373 C 799.656 3.38724 -0.0718069 0
M  V30 8374 C 798.215 3.75015 0.32257 0
M  V30 8375 C 797.362 2.7366 -0.4478 0
M  V30 8376 H 800.313 1.42119 -0.706246 0
M  V30 8377 H 800.334 3.73522 0.725347 0
M  V30 8378 H 799.846 3.72204 -1.09935 0
M  V30 8379 H 797.947 3.47142 1.35364 0
M  V30 8380 H 798.06 4.79099 0.00864259 0
M  V30 8381 H 796.424 2.54498 0.101354 0
M  V30 8382 H 797.207 3.09985 -1.47527 0
M  V30 8383 N 799.652 0.226554 1.55963 0
M  V30 8384 C 800.599 -0.681504 2.20509 0
M  V30 8385 C 801.569 -1.1866 1.16229 0
M  V30 8386 O 802.754 -1.24478 1.44602 0
M  V30 8387 C 799.894 -1.88183 2.89277 0
M  V30 8388 C 799.007 -1.41517 4.08163 0
M  V30 8389 C 798.142 -2.57346 4.647 0
M  V30 8390 C 797.181 -2.07441 5.75877 0
M  V30 8391 N 796.318 -3.16561 6.26685 0
M  V30 8392 H 801.158 -0.124372 2.9774 0
M  V30 8393 H 798.695 -0.0496333 1.47016 0
M  V30 8394 H 800.653 -2.58666 3.27335 0
M  V30 8395 H 799.283 -2.41177 2.14555 0
M  V30 8396 H 798.335 -0.605099 3.75557 0
M  V30 8397 H 799.647 -1.00928 4.88482 0
M  V30 8398 H 798.801 -3.35903 5.05227 0
M  V30 8399 H 797.54 -3.01227 3.83554 0
M  V30 8400 H 796.545 -1.27347 5.34848 0
M  V30 8401 H 797.77 -1.64554 6.58862 0
M  V30 8402 H 795.716 -3.59914 5.48451 0
M  V30 8403 H 795.633 -2.80239 7.02141 0
M  V30 8404 H 796.901 -3.95238 6.71868 0
M  V30 8405 N 801.13 -1.57531 -0.0467866 0
M  V30 8406 C 802.379 -1.87632 -0.740069 0
M  V30 8407 C 802.692 -0.822691 -1.77457 0
M  V30 8408 O 803.898 -1.01235 -2.5192 0
M  V30 8409 C 802.354 -3.32917 -1.36727 0
M  V30 8410 C 801.962 -4.46469 -0.370035 0
M  V30 8411 C 803.706 -3.72189 -2.04146 0
M  V30 8412 C 801.613 -5.82806 -1.00457 0
M  V30 8413 H 800.543 -0.70002 -0.280158 0
M  V30 8414 H 803.194 -1.83499 0.00607151 0
M  V30 8415 H 801.576 -3.31739 -2.16252 0
M  V30 8416 H 802.75 -4.59085 0.397217 0
M  V30 8417 H 801.065 -4.15914 0.201079 0
M  V30 8418 H 803.662 -4.71357 -2.52441 0
M  V30 8419 H 804.005 -3.03268 -2.85192 0
M  V30 8420 H 804.538 -3.75465 -1.3142 0
M  V30 8421 H 801.277 -6.55083 -0.233907 0
M  V30 8422 H 800.797 -5.73944 -1.74209 0
M  V30 8423 H 802.476 -6.28961 -1.51713 0
M  V30 8424 N 802.608 0.318715 -1.54344 0
M  V30 8425 C 803.854 1.05765 -1.73037 0
M  V30 8426 C 804.187 1.87514 -0.505181 0
M  V30 8427 O 803.462 1.88021 0.497838 0
M  V30 8428 C 803.745 1.97836 -3.00887 0
M  V30 8429 C 803.598 1.19384 -4.33668 0
M  V30 8430 C 804.917 2.97285 -3.24514 0
M  V30 8431 H 802.036 0.383104 -0.629603 0
M  V30 8432 H 804.678 0.333864 -1.87044 0
M  V30 8433 H 802.828 2.59552 -2.89076 0
M  V30 8434 H 804.5 0.600906 -4.57369 0
M  V30 8435 H 802.743 0.496198 -4.30953 0
M  V30 8436 H 803.414 1.87014 -5.19355 0
M  V30 8437 H 805.89 2.45693 -3.35819 0
M  V30 8438 H 804.766 3.58887 -4.15321 0
M  V30 8439 H 805.027 3.70003 -2.41971 0
M  V30 8440 N 804.086 1.46499 0.581025 0
M  V30 8441 C 805.334 1.51596 1.33653 0
M  V30 8442 C 805.655 0.169859 1.94259 0
M  V30 8443 O 804.925 -0.803776 1.78651 0
M  V30 8444 H 803.505 0.558346 0.496244 0
M  V30 8445 H 806.167 1.8264 0.680338 0
M  V30 8446 H 805.263 2.26956 2.14237 0
M  V30 8447 N 805.565 -0.825799 1.34232 0
M  V30 8448 C 806.813 -1.57873 1.26177 0
M  V30 8449 C 807.134 -1.94267 -0.168904 0
M  V30 8450 O 806.404 -1.62045 -1.10084 0
M  V30 8451 H 804.984 -0.585388 0.464037 0
M  V30 8452 H 807.646 -0.986163 1.6811 0
M  V30 8453 H 806.742 -2.50283 1.86453 0
M  V30 8454 N 807.043 -1.17915 -1.04565 0
M  V30 8455 C 808.292 -0.965816 -1.77073 0
M  V30 8456 C 808.605 0.506005 -1.88942 0
M  V30 8457 O 809.811 0.837717 -2.58253 0
M  V30 8458 C 808.267 -1.67894 -3.18339 0
M  V30 8459 C 807.875 -3.18972 -3.1458 0
M  V30 8460 C 809.619 -1.54823 -3.9526 0
M  V30 8461 C 807.526 -3.82946 -4.50674 0
M  V30 8462 H 806.456 -0.357729 -0.663736 0
M  V30 8463 H 809.107 -1.41235 -1.17153 0
M  V30 8464 H 807.489 -1.16016 -3.78624 0
M  V30 8465 H 808.663 -3.77835 -2.63776 0
M  V30 8466 H 806.978 -3.32127 -2.51159 0
M  V30 8467 H 809.575 -1.99984 -4.95894 0
M  V30 8468 H 809.918 -0.499727 -4.1329 0
M  V30 8469 H 810.451 -2.03953 -3.41538 0
M  V30 8470 H 807.19 -4.8782 -4.37849 0
M  V30 8471 H 806.71 -3.2887 -5.01602 0
M  V30 8472 H 808.389 -3.85518 -5.196 0
M  V30 8473 N 808.521 1.23394 -0.980386 0
M  V30 8474 C 809.769 1.91431 -0.647978 0
M  V30 8475 C 810.09 1.76871 0.821066 0
M  V30 8476 O 809.36 1.14808 1.58732 0
M  V30 8477 H 807.94 0.708516 -0.236673 0
M  V30 8478 H 810.602 1.50019 -1.2442 0
M  V30 8479 H 809.698 2.98854 -0.899592 0
M  V30 8480 N 809.999 0.752036 1.385 0
M  V30 8481 C 811.247 0.306895 1.99756 0
M  V30 8482 C 811.568 -1.11478 1.59992 0
M  V30 8483 O 810.838 -1.76206 0.856045 0
M  V30 8484 H 809.418 0.11048 0.738785 0
M  V30 8485 H 812.08 0.965785 1.69289 0
M  V30 8486 H 811.176 0.368797 3.09913 0
M  V30 8487 N 811.477 -1.49425 0.500989 0
M  V30 8488 C 812.724 -2.02453 -0.0435355 0
M  V30 8489 C 813.052 -1.38067 -1.36995 0
M  V30 8490 O 812.307 -0.505557 -1.89057 0
M  V30 8491 C 812.606 -3.56562 -0.24463 0
M  V30 8492 C 812.272 -4.39585 1.00379 0
M  V30 8493 C 810.934 -4.61992 1.346 0
M  V30 8494 C 813.286 -4.87881 1.83361 0
M  V30 8495 C 810.614 -5.2994 2.51755 0
M  V30 8496 C 812.966 -5.57119 2.99669 0
M  V30 8497 C 811.63 -5.77771 3.3427 0
M  V30 8498 H 810.9 -0.740829 -0.0159308 0
M  V30 8499 H 813.547 -1.79725 0.661143 0
M  V30 8500 H 811.852 -3.77969 -1.03183 0
M  V30 8501 H 813.549 -3.95185 -0.6804 0
M  V30 8502 H 810.139 -4.22385 0.727225 0
M  V30 8503 H 814.323 -4.70398 1.58237 0
M  V30 8504 H 809.579 -5.44133 2.788 0
M  V30 8505 H 813.753 -5.93516 3.64296 0
M  V30 8506 H 811.38 -6.30197 4.25154 0
M  V30 8507 N 812.955 -0.234822 -1.55841 0
M  V30 8508 C 814.204 0.393685 -1.97821 0
M  V30 8509 C 814.517 1.59947 -1.1259 0
M  V30 8510 O 815.723 2.29835 -1.44528 0
M  V30 8511 C 814.179 0.751811 -3.5196 0
M  V30 8512 C 813.787 -0.431898 -4.45913 0
M  V30 8513 C 815.531 1.34518 -4.02623 0
M  V30 8514 C 813.438 -0.0505976 -5.91378 0
M  V30 8515 H 812.368 0.150864 -0.738753 0
M  V30 8516 H 815.019 -0.333132 -1.80451 0
M  V30 8517 H 813.401 1.53642 -3.6498 0
M  V30 8518 H 814.575 -1.20935 -4.44647 0
M  V30 8519 H 812.89 -0.939385 -4.05666 0
M  V30 8520 H 815.487 1.64359 -5.08813 0
M  V30 8521 H 815.83 2.26554 -3.49255 0
M  V30 8522 H 816.363 0.623729 -3.9288 0
M  V30 8523 H 813.102 -0.937779 -6.48757 0
M  V30 8524 H 812.622 0.690898 -5.95808 0
M  V30 8525 H 814.301 0.37146 -6.45933 0
M  V30 8526 N 814.433 1.57553 0.0384317 0
M  V30 8527 C 815.381 2.07021 1.06043 0
M  V30 8528 C 816.375 0.982078 1.38028 0
M  V30 8529 O 817.581 1.16702 1.37042 0
M  V30 8530 H 813.956 0.660522 0.359464 0
M  V30 8531 H 815.927 2.91944 0.617339 0
M  V30 8532 C 814.676 2.55734 2.35574 0
M  V30 8533 H 813.999 3.39074 2.11822 0
M  V30 8534 H 815.439 2.94066 3.05452 0
M  V30 8535 C 813.898 1.45449 3.03885 0
M  V30 8536 O 814.428 0.815402 3.93337 0
M  V30 8537 N 812.634 1.19134 2.65058 0
M  V30 8538 H 812.181 1.71288 1.92401 0
M  V30 8539 H 812.139 0.455554 3.11082 0
M  V30 8540 N 815.911 -0.310526 1.54511 0
M  V30 8541 C 817.139 -1.06611 1.77318 0
M  V30 8542 C 817.554 -1.81265 0.528043 0
M  V30 8543 O 816.911 -1.75466 -0.50178 0
M  V30 8544 C 816.962 -2.05409 2.97472 0
M  V30 8545 O 816.683 -1.33785 4.17173 0
M  V30 8546 C 818.184 -2.93082 3.32593 0
M  V30 8547 H 815.404 -0.316578 0.591624 0
M  V30 8548 H 817.948 -0.352691 2.01436 0
M  V30 8549 H 816.103 -2.72266 2.7559 0
M  V30 8550 H 816.517 -2.00055 4.84849 0
M  V30 8551 H 817.991 -3.58274 4.19933 0
M  V30 8552 H 818.468 -3.60877 2.50329 0
M  V30 8553 H 819.074 -2.31768 3.566 0
M  V30 8554 N 817.389 -1.46805 -0.573248 0
M  V30 8555 C 818.336 -1.58084 -1.68161 0
M  V30 8556 C 819.306 -0.424636 -1.6058 0
M  V30 8557 O 820.491 -0.642623 -1.79652 0
M  V30 8558 C 817.631 -1.58601 -3.06496 0
M  V30 8559 C 816.744 -2.85023 -3.24632 0
M  V30 8560 C 815.879 -2.76981 -4.53271 0
M  V30 8561 C 814.918 -3.983 -4.64783 0
M  V30 8562 N 814.055 -3.88589 -5.84759 0
M  V30 8563 H 818.895 -2.52755 -1.57858 0
M  V30 8564 H 816.432 -1.25385 -0.769218 0
M  V30 8565 H 818.39 -1.56885 -3.86579 0
M  V30 8566 H 817.02 -0.674553 -3.15673 0
M  V30 8567 H 816.072 -2.96678 -2.38089 0
M  V30 8568 H 817.384 -3.7491 -3.29004 0
M  V30 8569 H 816.538 -2.73424 -5.41594 0
M  V30 8570 H 815.277 -1.84751 -4.51352 0
M  V30 8571 H 814.282 -4.02179 -3.74876 0
M  V30 8572 H 815.507 -4.91639 -4.68474 0
M  V30 8573 H 813.453 -2.99151 -5.83819 0
M  V30 8574 H 813.37 -4.7214 -5.90441 0
M  V30 8575 H 814.638 -3.89022 -6.75486 0
M  V30 8576 N 818.867 0.818669 -1.34668 0
M  V30 8577 C 819.777 1.9616 -1.2868 0
M  V30 8578 C 820.793 1.72918 -0.193742 0
M  V30 8579 O 821.969 1.96951 -0.420975 0
M  V30 8580 C 819.034 3.30534 -1.04633 0
M  V30 8581 C 818.095 3.66755 -2.23136 0
M  V30 8582 C 817.328 4.94717 -2.00227 0
M  V30 8583 O 817.551 5.62218 -0.96264 0
M  V30 8584 O 816.485 5.28915 -2.87286 0
M  V30 8585 H 820.311 2.04157 -2.24842 0
M  V30 8586 H 817.896 0.954691 -1.14917 0
M  V30 8587 H 819.778 4.11005 -0.930216 0
M  V30 8588 H 818.453 3.23495 -0.115139 0
M  V30 8589 H 817.36 2.8671 -2.40308 0
M  V30 8590 H 818.693 3.78484 -3.1466 0
M  V30 8591 N 820.346 1.18468 1.03938 0
M  V30 8592 C 821.576 1.0043 1.80547 0
M  V30 8593 C 821.984 -0.450407 1.83761 0
M  V30 8594 O 821.327 -1.32463 1.27276 0
M  V30 8595 C 821.389 1.48437 3.27424 0
M  V30 8596 C 821.053 2.96372 3.47869 0
M  V30 8597 C 822.05 3.94217 3.38953 0
M  V30 8598 C 819.735 3.34831 3.74424 0
M  V30 8599 C 821.729 5.28517 3.56298 0
M  V30 8600 C 819.416 4.69294 3.91416 0
M  V30 8601 C 820.414 5.65946 3.82354 0
M  V30 8602 O 820.102 6.97974 3.98858 0
M  V30 8603 H 819.834 0.354853 0.575374 0
M  V30 8604 H 822.388 1.57473 1.31876 0
M  V30 8605 H 820.618 0.857601 3.7707 0
M  V30 8606 H 822.307 1.2677 3.85596 0
M  V30 8607 H 823.073 3.6585 3.184 0
M  V30 8608 H 818.952 2.60161 3.80575 0
M  V30 8609 H 822.496 6.03943 3.49141 0
M  V30 8610 H 818.393 4.97361 4.11463 0
M  V30 8611 H 819.161 7.04895 4.1601 0
M  V30 8612 N 821.824 -1.22873 0.986916 0
M  V30 8613 C 822.771 -2.2458 0.532215 0
M  V30 8614 C 823.741 -1.60375 -0.432322 0
M  V30 8615 O 824.926 -1.87775 -0.338416 0
M  V30 8616 C 822.066 -3.44761 -0.152864 0
M  V30 8617 C 821.179 -4.23501 0.852704 0
M  V30 8618 C 820.314 -5.31011 0.14176 0
M  V30 8619 C 819.353 -6.01464 1.1361 0
M  V30 8620 N 818.49 -7.00631 0.453871 0
M  V30 8621 H 823.33 -2.62838 1.40428 0
M  V30 8622 H 820.867 -1.29185 0.703543 0
M  V30 8623 H 822.825 -4.1333 -0.566926 0
M  V30 8624 H 821.455 -3.07284 -0.988756 0
M  V30 8625 H 820.507 -3.54286 1.38512 0
M  V30 8626 H 821.819 -4.72097 1.61014 0
M  V30 8627 H 820.973 -6.05805 -0.329337 0
M  V30 8628 H 819.712 -4.83373 -0.648229 0
M  V30 8629 H 818.717 -5.25456 1.61789 0
M  V30 8630 H 819.942 -6.5119 1.92686 0
M  V30 8631 H 817.888 -6.55235 -0.316791 0
M  V30 8632 H 817.805 -7.47204 1.14986 0
M  V30 8633 H 819.073 -7.795 0.00537823 0
M  V30 8634 N 823.302 -0.75937 -1.38099 0
M  V30 8635 C 824.25 -0.124954 -2.32264 0
M  V30 8636 C 825.244 0.698863 -1.54312 0
M  V30 8637 O 826.45 0.597312 -1.698 0
M  V30 8638 H 822.825 -0.0216142 -0.751689 0
M  V30 8639 H 824.796 -0.935115 -2.83369 0
M  V30 8640 C 823.545 0.749463 -3.39527 0
M  V30 8641 H 822.868 0.124932 -3.99605 0
M  V30 8642 H 824.308 1.16055 -4.07808 0
M  V30 8643 C 822.767 1.89464 -2.78577 0
M  V30 8644 O 823.297 2.98923 -2.68343 0
M  V30 8645 N 821.503 1.69145 -2.36301 0
M  V30 8646 H 821.05 0.801157 -2.44825 0
M  V30 8647 H 821.008 2.45936 -1.95864 0
M  V30 8648 N 824.78 1.49157 -0.508906 0
M  V30 8649 C 826.026 2.02773 0.0328469 0
M  V30 8650 C 826.359 1.38714 1.35912 0
M  V30 8651 O 825.634 0.525536 1.87266 0
M  V30 8652 C 825.917 3.59664 0.177088 0
M  V30 8653 C 825.77 4.34239 -1.17287 0
M  V30 8654 C 827.089 4.30505 0.913977 0
M  V30 8655 H 824.208 0.736926 0.0104631 0
M  V30 8656 H 826.85 1.781 -0.661851 0
M  V30 8657 H 825 3.80818 0.768774 0
M  V30 8658 H 826.672 4.24561 -1.80404 0
M  V30 8659 H 824.915 3.96486 -1.76016 0
M  V30 8660 H 825.586 5.42397 -1.02516 0
M  V30 8661 H 828.062 4.14054 0.412084 0
M  V30 8662 H 826.938 5.40012 0.983759 0
M  V30 8663 H 827.199 3.96302 1.95951 0
M  V30 8664 N 826.258 0.243083 1.55714 0
M  V30 8665 C 827.168 -0.668913 2.24862 0
M  V30 8666 C 828.184 -1.19638 1.26344 0
M  V30 8667 O 829.36 -1.23345 1.5921 0
M  V30 8668 C 826.425 -1.85084 2.93163 0
M  V30 8669 C 825.486 -1.36323 4.07081 0
M  V30 8670 C 824.719 -2.48882 4.72116 0
M  V30 8671 O 824.942 -3.67523 4.36214 0
M  V30 8672 O 823.876 -2.18857 5.60701 0
M  V30 8673 H 827.702 -0.109737 3.03502 0
M  V30 8674 H 825.287 0.0117411 1.49395 0
M  V30 8675 H 827.169 -2.54065 3.36197 0
M  V30 8676 H 825.844 -2.39771 2.17466 0
M  V30 8677 H 824.751 -0.640804 3.68571 0
M  V30 8678 H 826.084 -0.86249 4.84584 0
M  V30 8679 N 827.736 -1.57571 -0.0300757 0
M  V30 8680 C 828.985 -1.88407 -0.720126 0
M  V30 8681 C 829.298 -0.841466 -1.76575 0
M  V30 8682 O 830.504 -1.03902 -2.50832 0
M  V30 8683 C 828.96 -3.34348 -1.33188 0
M  V30 8684 C 828.568 -4.46837 -0.32266 0
M  V30 8685 C 830.312 -3.74333 -2.00187 0
M  V30 8686 C 828.219 -5.83838 -0.942703 0
M  V30 8687 H 827.149 -0.702952 -0.272718 0
M  V30 8688 H 829.8 -1.83482 0.0255337 0
M  V30 8689 H 828.182 -3.34014 -2.12721 0
M  V30 8690 H 829.356 -4.58638 0.445887 0
M  V30 8691 H 827.671 -4.15678 0.245181 0
M  V30 8692 H 830.268 -4.74008 -2.47428 0
M  V30 8693 H 830.611 -3.06275 -2.81959 0
M  V30 8694 H 831.144 -3.76837 -1.2743 0
M  V30 8695 H 827.883 -6.55294 -0.164413 0
M  V30 8696 H 827.403 -5.75759 -1.68111 0
M  V30 8697 H 829.082 -6.30535 -1.45034 0
M  V30 8698 N 829.214 0.302327 -1.54673 0
M  V30 8699 C 830.124 1.39542 -1.88587 0
M  V30 8700 C 831.14 1.55543 -0.779895 0
M  V30 8701 O 832.316 1.70233 -1.07623 0
M  V30 8702 C 829.381 2.7394 -2.12504 0
M  V30 8703 C 828.442 2.66935 -3.3622 0
M  V30 8704 C 827.675 3.94923 -3.58987 0
M  V30 8705 O 827.898 4.94218 -2.84789 0
M  V30 8706 O 826.832 3.96896 -4.52501 0
M  V30 8707 H 830.658 1.13784 -2.81579 0
M  V30 8708 H 828.243 0.49827 -1.40846 0
M  V30 8709 H 830.125 3.5346 -2.29443 0
M  V30 8710 H 828.8 2.99544 -1.22698 0
M  V30 8711 H 827.707 1.85892 -3.24646 0
M  V30 8712 H 829.04 2.46283 -4.26152 0
M  V30 8713 N 830.692 1.47107 0.565454 0
M  V30 8714 C 831.938 1.53535 1.32495 0
M  V30 8715 C 832.271 0.193537 1.93233 0
M  V30 8716 O 831.546 -0.796956 1.77423 0
M  V30 8717 C 831.829 2.64712 2.4413 0
M  V30 8718 C 831.682 4.08482 1.88314 0
M  V30 8719 C 833.001 2.71853 3.46098 0
M  V30 8720 H 830.12 0.558926 0.480386 0
M  V30 8721 H 832.762 1.79125 0.633575 0
M  V30 8722 H 830.912 2.43023 3.03104 0
M  V30 8723 H 832.584 4.4151 1.33665 0
M  V30 8724 H 830.827 4.17148 1.19037 0
M  V30 8725 H 831.498 4.82032 2.68978 0
M  V30 8726 H 833.974 2.91397 2.97031 0
M  V30 8727 H 832.85 3.51433 4.21646 0
M  V30 8728 H 833.111 1.78584 4.04426 0
M  V30 8729 N 832.17 -0.811516 1.35101 0
M  V30 8730 C 833.1 -1.9378 1.30275 0
M  V30 8731 C 834.081 -1.69165 0.178075 0
M  V30 8732 O 835.266 -1.90599 0.372256 0
M  V30 8733 C 832.396 -3.30439 1.06899 0
M  V30 8734 C 831.35 -3.69523 2.15955 0
M  V30 8735 C 830.676 -5.0429 1.77751 0
M  V30 8736 C 831.976 -3.80419 3.57881 0
M  V30 8737 H 833.67 -1.98075 2.24514 0
M  V30 8738 H 831.216 -0.951586 1.08078 0
M  V30 8739 H 833.169 -4.08828 1.02164 0
M  V30 8740 H 831.893 -3.26473 0.0910462 0
M  V30 8741 H 830.552 -2.93416 2.19778 0
M  V30 8742 H 830.2 -4.96823 0.785876 0
M  V30 8743 H 829.9 -5.31411 2.5075 0
M  V30 8744 H 831.424 -5.85125 1.74533 0
M  V30 8745 H 832.838 -4.49051 3.56407 0
M  V30 8746 H 831.235 -4.19005 4.29598 0
M  V30 8747 H 832.305 -2.82105 3.94391 0
M  V30 8748 N 833.648 -1.19017 -1.03309 0
M  V30 8749 C 834.896 -0.988258 -1.76289 0
M  V30 8750 C 835.217 0.482557 -1.88935 0
M  V30 8751 O 834.487 1.34969 -1.41987 0
M  V30 8752 H 833.067 -0.36267 -0.653054 0
M  V30 8753 H 835.729 -1.49836 -1.2464 0
M  V30 8754 H 834.825 -1.43273 -2.77271 0
M  V30 8755 N 835.127 1.22348 -0.993418 0
M  V30 8756 C 836.074 2.24294 -0.544118 0
M  V30 8757 C 837.044 1.60602 0.42381 0
M  V30 8758 O 838.229 1.87952 0.328453 0
M  V30 8759 C 835.369 3.44837 0.134578 0
M  V30 8760 C 834.482 4.23043 -0.875151 0
M  V30 8761 C 833.617 5.30928 -0.169919 0
M  V30 8762 C 832.656 6.00853 -1.16798 0
M  V30 8763 N 831.793 7.00381 -0.491021 0
M  V30 8764 H 836.633 2.6209 -1.4182 0
M  V30 8765 H 834.17 1.2881 -0.710384 0
M  V30 8766 H 836.128 4.13625 0.544998 0
M  V30 8767 H 834.758 3.07804 0.972446 0
M  V30 8768 H 833.81 3.53546 -1.40389 0
M  V30 8769 H 835.122 4.71237 -1.63516 0
M  V30 8770 H 834.276 6.05972 0.297205 0
M  V30 8771 H 833.015 4.8371 0.622586 0
M  V30 8772 H 832.02 5.24591 -1.64573 0
M  V30 8773 H 833.245 6.50159 -1.96137 0
M  V30 8774 H 831.191 6.55393 0.282037 0
M  V30 8775 H 831.108 7.46584 -1.18947 0
M  V30 8776 H 832.376 7.79486 -0.0467169 0
M  V30 8777 N 836.605 0.766683 1.37694 0
M  V30 8778 C 838.021 0.445739 1.53249 0
M  V30 8779 C 838.221 -1.03935 1.72626 0
M  V30 8780 O 837.277 -1.82525 1.74473 0
M  V30 8781 C 838.59 1.2564 2.73194 0
M  V30 8782 C 840.138 1.24779 2.87053 0
M  V30 8783 C 840.613 2.04169 4.09974 0
M  V30 8784 N 842.104 2.01497 4.17077 0
M  V30 8785 C 842.839 2.5971 5.11212 0
M  V30 8786 N 842.335 3.26691 6.10938 0
M  V30 8787 N 844.128 2.49568 5.03659 0
M  V30 8788 H 836.279 1.72899 1.23368 0
M  V30 8789 H 838.542 0.733701 0.600322 0
M  V30 8790 H 838.248 2.30859 2.65324 0
M  V30 8791 H 838.122 0.882133 3.6674 0
M  V30 8792 H 840.509 0.203603 2.94397 0
M  V30 8793 H 840.59 1.66166 1.9448 0
M  V30 8794 H 840.234 3.08606 4.03392 0
M  V30 8795 H 840.164 1.60167 5.01651 0
M  V30 8796 H 842.655 1.52728 3.45662 0
M  V30 8797 H 842.968 3.68497 6.79286 0
M  V30 8798 H 841.313 3.30789 6.11231 0
M  V30 8799 H 844.504 1.96859 4.24693 0
M  V30 8800 H 844.677 2.95231 5.76839 0
M  V30 8801 N 838.083 -1.48885 0.516809 0
M  V30 8802 C 839.332 -2.01686 -0.0239899 0
M  V30 8803 C 839.645 -1.40029 -1.3657 0
M  V30 8804 O 840.851 -1.84249 -1.9941 0
M  V30 8805 C 839.307 -3.59779 -0.0931825 0
M  V30 8806 C 838.915 -4.30416 1.24283 0
M  V30 8807 C 840.659 -4.20471 -0.583507 0
M  V30 8808 C 838.566 -5.80408 1.13494 0
M  V30 8809 H 837.496 -0.753892 -0.0127376 0
M  V30 8810 H 840.147 -1.71273 0.65861 0
M  V30 8811 H 838.529 -3.86976 -0.840577 0
M  V30 8812 H 839.703 -4.14905 2.00476 0
M  V30 8813 H 838.018 -3.81539 1.66785 0
M  V30 8814 H 840.615 -5.30333 -0.681987 0
M  V30 8815 H 840.958 -3.84898 -1.58617 0
M  V30 8816 H 841.491 -3.97654 0.107814 0
M  V30 8817 H 838.23 -6.20532 2.11235 0
M  V30 8818 H 837.75 -5.98368 0.414167 0
M  V30 8819 H 839.429 -6.41781 0.820162 0
M  V30 8820 N 839.561 -0.251338 -1.55583 0
M  V30 8821 C 840.508 0.646337 -2.21565 0
M  V30 8822 C 841.478 1.16796 -1.18102 0
M  V30 8823 O 842.663 1.22162 -1.46564 0
M  V30 8824 C 839.803 1.83557 -2.92234 0
M  V30 8825 C 838.916 1.35006 -4.10363 0
M  V30 8826 C 838.051 2.4992 -4.68736 0
M  V30 8827 C 837.09 1.98253 -5.79105 0
M  V30 8828 N 836.227 3.06551 -6.31642 0
M  V30 8829 H 841.067 0.0769881 -2.97901 0
M  V30 8830 H 838.604 0.026238 -1.47077 0
M  V30 8831 H 840.562 2.53425 -3.31408 0
M  V30 8832 H 839.192 2.37733 -2.18364 0
M  V30 8833 H 838.244 0.545274 -3.76472 0
M  V30 8834 H 839.556 0.931435 -4.90026 0
M  V30 8835 H 838.71 3.27823 -5.10507 0
M  V30 8836 H 837.449 2.95086 -3.88298 0
M  V30 8837 H 836.454 1.18822 -5.36807 0
M  V30 8838 H 837.679 1.54051 -6.61396 0
M  V30 8839 H 835.625 3.51143 -5.54107 0
M  V30 8840 H 835.542 2.69033 -7.06511 0
M  V30 8841 H 836.81 3.84499 -6.78071 0
M  V30 8842 N 841.039 1.57585 0.0217189 0
M  V30 8843 C 842.287 1.89231 0.709641 0
M  V30 8844 C 842.608 0.849964 1.75501 0
M  V30 8845 O 841.878 -0.115485 1.95559 0
M  V30 8846 H 840.458 0.69838 0.265092 0
M  V30 8847 H 843.12 1.94895 -0.0140688 0
M  V30 8848 H 842.216 2.88333 1.19459 0
M  V30 8849 N 842.517 -0.29412 1.54831 0
M  V30 8850 C 843.745 -1.04724 1.78439 0
M  V30 8851 C 844.16 -1.80695 0.547239 0
M  V30 8852 O 843.517 -1.75989 -0.483141 0
M  V30 8853 C 843.568 -2.02242 2.99634 0
M  V30 8854 O 843.289 -1.29352 4.18568 0
M  V30 8855 C 844.79 -2.89537 3.35683 0
M  V30 8856 H 842.01 -0.310285 0.594949 0
M  V30 8857 H 844.554 -0.331306 2.01798 0
M  V30 8858 H 842.709 -2.69328 2.78462 0
M  V30 8859 H 843.123 -1.94901 4.86943 0
M  V30 8860 H 844.597 -3.538 4.23709 0
M  V30 8861 H 845.074 -3.58201 2.54143 0
M  V30 8862 H 845.68 -2.27973 3.59038 0
M  V30 8863 N 843.995 -1.47404 -0.557645 0
M  V30 8864 C 845.244 -1.53268 -1.31118 0
M  V30 8865 C 845.557 -0.199414 -1.94581 0
M  V30 8866 O 846.763 -0.136039 -2.71159 0
M  V30 8867 C 845.219 -2.70178 -2.37764 0
M  V30 8868 C 844.827 -4.10032 -1.80493 0
M  V30 8869 C 846.571 -2.85334 -3.14301 0
M  V30 8870 C 844.478 -5.18244 -2.84916 0
M  V30 8871 H 843.408 -0.570491 -0.493007 0
M  V30 8872 H 846.059 -1.73678 -0.592308 0
M  V30 8873 H 844.441 -2.43147 -3.12563 0
M  V30 8874 H 845.615 -4.46964 -1.12069 0
M  V30 8875 H 843.93 -3.99759 -1.16542 0
M  V30 8876 H 846.527 -3.63347 -3.92279 0
M  V30 8877 H 846.87 -1.93761 -3.68459 0
M  V30 8878 H 847.403 -3.12133 -2.46613 0
M  V30 8879 H 844.142 -6.11691 -2.35614 0
M  V30 8880 H 843.662 -4.85829 -3.51753 0
M  V30 8881 H 845.341 -5.45174 -3.48417 0
M  V30 8882 N 845.473 0.80434 -1.35529 0
M  V30 8883 C 846.406 1.92222 -1.22987 0
M  V30 8884 C 847.384 1.62177 -0.117269 0
M  V30 8885 O 848.568 1.86321 -0.285761 0
M  V30 8886 C 845.695 3.26682 -0.894223 0
M  V30 8887 C 844.741 3.75674 -2.01919 0
M  V30 8888 S 845.574 3.93209 -3.6352 0
M  V30 8889 C 846.73 5.30568 -3.32037 0
M  V30 8890 H 846.963 2.02567 -2.1761 0
M  V30 8891 H 844.496 0.961961 -1.20771 0
M  V30 8892 H 846.454 4.04359 -0.707371 0
M  V30 8893 H 845.115 3.14082 0.0339729 0
M  V30 8894 H 844.308 4.73065 -1.73854 0
M  V30 8895 H 843.91 3.05001 -2.16449 0
M  V30 8896 H 846.202 6.14637 -2.85004 0
M  V30 8897 H 847.145 5.63628 -4.28636 0
M  V30 8898 H 847.553 4.96961 -2.6775 0
M  V30 8899 N 846.951 1.19563 1.02676 0
M  V30 8900 C 848.179 1.02488 1.79732 0
M  V30 8901 C 848.594 -0.426302 1.83924 0
M  V30 8902 O 847.951 -1.29609 1.28483 0
M  V30 8903 C 848.002 1.58944 3.24683 0
M  V30 8904 O 847.723 2.98382 3.2078 0
M  V30 8905 C 849.224 1.46681 4.1833 0
M  V30 8906 H 846.444 0.361098 0.565552 0
M  V30 8907 H 848.988 1.58426 1.29311 0
M  V30 8908 H 847.143 1.0715 3.72287 0
M  V30 8909 H 847.557 3.24983 4.11687 0
M  V30 8910 H 849.031 1.90959 5.17918 0
M  V30 8911 H 849.508 0.417663 4.3721 0
M  V30 8912 H 850.114 1.97616 3.76601 0
M  V30 8913 N 848.429 -1.21819 0.999893 0
M  V30 8914 C 849.677 -1.90375 0.678351 0
M  V30 8915 C 849.998 -1.78155 -0.792824 0
M  V30 8916 O 849.268 -1.17319 -1.56885 0
M  V30 8917 H 847.848 -0.704661 0.247915 0
M  V30 8918 H 850.51 -1.48021 1.2679 0
M  V30 8919 H 849.606 -2.97385 0.947023 0
M  V30 8920 N 849.908 -0.773975 -1.37286 0
M  V30 8921 C 851.185 -0.263942 -1.93811 0
M  V30 8922 C 851.565 1.24138 -1.70743 0
M  V30 8923 O 850.913 2.02557 -1.05749 0
M  V30 8924 C 851.123 -0.639753 -3.43086 0
M  V30 8925 C 852.471 -0.610796 -4.20184 0
M  V30 8926 O 853.495 -0.579278 -3.51458 0
M  V30 8927 O 852.354 -0.639862 -5.42741 0
M  V30 8928 H 849.448 -0.0614331 -0.824715 0
M  V30 8929 H 851.994 -0.855477 -1.46559 0
M  V30 8930 H 850.766 -1.67856 -3.53469 0
M  V30 8931 H 850.389 -0.0212827 -3.97594 0
M  V30 8932 N 851.386 1.48609 -0.524698 0
M  V30 8933 C 852.614 2.06899 0.00742946 0
M  V30 8934 C 853.029 1.38196 1.28637 0
M  V30 8935 O 852.386 0.467771 1.76403 0
M  V30 8936 C 852.437 3.60699 0.240548 0
M  V30 8937 O 852.158 4.26821 -0.987715 0
M  V30 8938 C 853.659 4.35769 0.813652 0
M  V30 8939 H 850.879 0.670278 -0.0311294 0
M  V30 8940 H 853.423 1.91071 -0.728832 0
M  V30 8941 H 851.578 3.76149 0.926845 0
M  V30 8942 H 851.992 5.18889 -0.765175 0
M  V30 8943 H 853.466 5.44174 0.926219 0
M  V30 8944 H 853.943 3.9984 1.81728 0
M  V30 8945 H 854.549 4.24983 0.164086 0
M  V30 8946 N 852.864 0.259585 1.55447 0
M  V30 8947 C 854.275 -0.241165 1.85136 0
M  V30 8948 C 854.626 -1.56634 1.18153 0
M  V30 8949 O 853.751 -2.11359 0.464351 0
M  V30 8950 C 854.346 -0.444355 3.35873 0
M  V30 8951 C 852.905 -0.889354 3.65742 0
M  V30 8952 C 852.052 0.0262474 2.77288 0
M  V30 8953 H 855.003 0.481808 1.51209 0
M  V30 8954 H 855.024 -1.28517 3.58139 0
M  V30 8955 H 854.536 0.520289 3.84597 0
M  V30 8956 H 852.637 -1.86602 3.22507 0
M  V30 8957 H 852.75 -0.737432 4.73391 0
M  V30 8958 H 851.114 -0.487361 2.49994 0
M  V30 8959 H 851.897 0.986494 3.28821 0
M  V30 8960 N 854.342 -1.57594 -0.0133615 0
M  V30 8961 C 855.591 -1.8916 -0.700103 0
M  V30 8962 C 855.904 -0.860147 -1.75673 0
M  V30 8963 O 857.11 -1.06556 -2.49716 0
M  V30 8964 C 855.566 -3.35742 -1.29635 0
M  V30 8965 C 855.174 -4.47154 -0.275249 0
M  V30 8966 C 856.918 -3.76436 -1.96205 0
M  V30 8967 C 854.825 -5.84805 -0.880726 0
M  V30 8968 H 853.755 -0.705805 -0.265247 0
M  V30 8969 H 856.406 -1.83445 0.044993 0
M  V30 8970 H 854.788 -3.36252 -2.09167 0
M  V30 8971 H 855.962 -4.58139 0.494506 0
M  V30 8972 H 854.277 -4.15394 0.289256 0
M  V30 8973 H 856.874 -4.76606 -2.42386 0
M  V30 8974 H 857.217 -3.09249 -2.78695 0
M  V30 8975 H 857.75 -3.78168 -1.23426 0
M  V30 8976 H 854.489 -6.55431 -0.0949013 0
M  V30 8977 H 854.009 -5.7751 -1.61995 0
M  V30 8978 H 855.688 -6.32038 -1.38338 0
M  V30 8979 N 855.82 0.285905 -1.54985 0
M  V30 8980 C 856.768 1.37302 -1.87752 0
M  V30 8981 C 857.762 1.51763 -0.752616 0
M  V30 8982 O 858.968 1.53701 -0.936805 0
M  V30 8983 H 855.343 0.458935 -0.59572 0
M  V30 8984 H 857.314 1.0691 -2.78591 0
M  V30 8985 C 856.063 2.72885 -2.15474 0
M  V30 8986 H 855.386 2.62545 -3.01513 0
M  V30 8987 H 856.826 3.47925 -2.42331 0
M  V30 8988 C 855.285 3.22989 -0.958124 0
M  V30 8989 O 855.815 4.01268 -0.186219 0
M  V30 8990 N 854.021 2.80503 -0.759354 0
M  V30 8991 H 853.568 2.16961 -1.38874 0
M  V30 8992 H 853.526 3.14375 0.0396937 0
M  V30 8993 N 857.298 1.47698 0.54982 0
M  V30 8994 C 858.547 1.53961 1.30303 0
M  V30 8995 C 858.86 0.209731 1.94472 0
M  V30 8996 O 860.066 0.150418 2.71083 0
M  V30 8997 C 858.522 2.71436 2.36328 0
M  V30 8998 C 858.13 4.10983 1.78316 0
M  V30 8999 C 859.874 2.86996 3.12783 0
M  V30 9000 C 857.781 5.19747 2.82164 0
M  V30 9001 H 856.711 0.573098 0.489975 0
M  V30 9002 H 859.362 1.73989 0.583089 0
M  V30 9003 H 857.744 2.44801 3.11269 0
M  V30 9004 H 858.918 4.47552 1.09697 0
M  V30 9005 H 857.233 4.00371 1.1442 0
M  V30 9006 H 859.83 3.65422 3.90347 0
M  V30 9007 H 860.173 1.95712 3.67427 0
M  V30 9008 H 860.706 3.13436 2.44954 0
M  V30 9009 H 857.445 6.12932 2.32366 0
M  V30 9010 H 856.965 4.87688 3.49171 0
M  V30 9011 H 858.644 5.47014 3.4552 0
M  V30 9012 N 858.776 -0.797141 1.35954 0
M  V30 9013 C 860.023 -1.55468 1.29754 0
M  V30 9014 C 860.351 -1.94095 -0.125391 0
M  V30 9015 O 859.606 -1.62341 -1.09288 0
M  V30 9016 C 859.905 -2.84847 2.15863 0
M  V30 9017 C 859.571 -2.65394 3.64523 0
M  V30 9018 C 858.233 -2.59796 4.05042 0
M  V30 9019 C 860.585 -2.4727 4.58811 0
M  V30 9020 C 857.913 -2.3403 5.38002 0
M  V30 9021 C 860.265 -2.23032 5.91979 0
M  V30 9022 C 858.929 -2.15862 6.31633 0
M  V30 9023 H 858.199 -0.568897 0.474803 0
M  V30 9024 H 860.846 -0.920299 1.67937 0
M  V30 9025 H 859.151 -3.52712 1.70591 0
M  V30 9026 H 860.848 -3.42597 2.08395 0
M  V30 9027 H 857.438 -2.70602 3.32374 0
M  V30 9028 H 861.622 -2.506 4.28384 0
M  V30 9029 H 856.878 -2.26956 5.67715 0
M  V30 9030 H 861.052 -2.08001 6.64612 0
M  V30 9031 H 858.679 -1.9566 7.34589 0
M  V30 9032 N 860.254 -1.20106 -1.0204 0
M  V30 9033 C 861.502 -1.0069 -1.75231 0
M  V30 9034 C 861.823 0.462491 -1.89436 0
M  V30 9035 O 861.093 1.33455 -1.4341 0
M  V30 9036 H 859.673 -0.369576 -0.649171 0
M  V30 9037 H 862.335 -1.51149 -1.23044 0
M  V30 9038 H 861.431 -1.46205 -2.75736 0
M  V30 9039 N 861.732 1.21287 -1.00634 0
M  V30 9040 C 863.148 1.42467 -0.719389 0
M  V30 9041 C 863.348 1.88767 0.704927 0
M  V30 9042 O 862.404 2.05004 1.47409 0
M  V30 9043 C 863.717 2.455 -1.73639 0
M  V30 9044 C 865.265 2.59281 -1.75335 0
M  V30 9045 C 865.74 3.65547 -2.75934 0
M  V30 9046 N 867.231 3.73019 -2.74611 0
M  V30 9047 C 867.966 4.54873 -3.4911 0
M  V30 9048 N 867.462 5.40614 -4.33253 0
M  V30 9049 N 869.255 4.49309 -3.37754 0
M  V30 9050 H 861.406 0.895454 -1.92602 0
M  V30 9051 H 863.669 0.455491 -0.831404 0
M  V30 9052 H 863.375 2.18455 -2.75627 0
M  V30 9053 H 863.249 3.44325 -1.54014 0
M  V30 9054 H 865.636 2.85661 -0.740377 0
M  V30 9055 H 865.717 1.60685 -1.99032 0
M  V30 9056 H 865.361 3.39911 -3.77389 0
M  V30 9057 H 865.291 4.63741 -2.49503 0
M  V30 9058 H 867.782 3.11766 -2.13565 0
M  V30 9059 H 868.095 6.0013 -4.86892 0
M  V30 9060 H 866.44 5.40151 -4.37335 0
M  V30 9061 H 869.631 3.81357 -2.71449 0
M  V30 9062 H 869.804 5.12867 -3.9607 0
M  V30 9063 N 863.21 0.781244 1.36873 0
M  V30 9064 C 864.158 0.161889 2.32036 0
M  V30 9065 C 865.152 -0.674225 1.55405 0
M  V30 9066 O 866.358 -0.570223 1.70729 0
M  V30 9067 H 862.733 0.0335702 0.75125 0
M  V30 9068 H 864.704 0.980078 2.81846 0
M  V30 9069 C 863.453 -0.695352 3.40676 0
M  V30 9070 H 862.776 -0.0613425 3.99753 0
M  V30 9071 H 864.216 -1.09553 4.09602 0
M  V30 9072 C 862.675 -1.85008 2.81556 0
M  V30 9073 O 863.205 -2.94616 2.73065 0
M  V30 9074 N 861.411 -1.65364 2.38962 0
M  V30 9075 H 860.958 -0.762106 2.46068 0
M  V30 9076 H 860.916 -2.42789 1.99752 0
M  V30 9077 N 864.689 -1.48329 0.532571 0
M  V30 9078 C 865.619 -2.32485 -0.217511 0
M  V30 9079 C 866.6 -1.42255 -0.932598 0
M  V30 9080 O 867.785 -1.7114 -0.917873 0
M  V30 9081 C 864.915 -3.23509 -1.26329 0
M  V30 9082 C 863.869 -4.22784 -0.666191 0
M  V30 9083 C 863.195 -5.0296 -1.81482 0
M  V30 9084 C 864.495 -5.21031 0.363813 0
M  V30 9085 H 866.189 -2.95445 0.485014 0
M  V30 9086 H 863.735 -1.42075 0.234694 0
M  V30 9087 H 865.688 -3.81211 -1.79601 0
M  V30 9088 H 864.412 -2.58554 -1.99543 0
M  V30 9089 H 863.071 -3.66272 -0.15498 0
M  V30 9090 H 862.719 -4.34427 -2.5354 0
M  V30 9091 H 862.419 -5.70154 -1.4212 0
M  V30 9092 H 863.943 -5.63514 -2.35126 0
M  V30 9093 H 865.357 -5.73241 -0.0819079 0
M  V30 9094 H 863.754 -5.96292 0.674956 0
M  V30 9095 H 864.824 -4.6801 1.26865 0
M  V30 9096 N 866.167 -0.267825 -1.55308 0
M  V30 9097 C 867.097 0.616585 -2.25212 0
M  V30 9098 C 868.078 1.16472 -1.23969 0
M  V30 9099 O 869.263 1.20021 -1.52672 0
M  V30 9100 C 866.393 1.80412 -2.96764 0
M  V30 9101 C 865.347 1.38784 -4.04874 0
M  V30 9102 C 864.673 2.65789 -4.63961 0
M  V30 9103 C 865.973 0.543415 -5.19465 0
M  V30 9104 H 867.667 0.0336257 -2.99381 0
M  V30 9105 H 865.213 0.0147328 -1.43992 0
M  V30 9106 H 867.166 2.42866 -3.44375 0
M  V30 9107 H 865.89 2.4128 -2.20118 0
M  V30 9108 H 864.549 0.786541 -3.58063 0
M  V30 9109 H 864.197 3.24899 -3.83992 0
M  V30 9110 H 863.897 2.38651 -5.36954 0
M  V30 9111 H 865.421 3.29104 -5.14318 0
M  V30 9112 H 866.835 1.07277 -5.63174 0
M  V30 9113 H 865.232 0.367219 -5.98975 0
M  V30 9114 H 866.302 -0.439534 -4.82904 0
M  V30 9115 N 867.645 1.57599 0.00500368 0
M  V30 9116 C 868.873 1.94626 0.702016 0
M  V30 9117 C 869.288 0.86953 1.67585 0
M  V30 9118 O 868.645 -0.15199 1.81866 0
M  V30 9119 C 868.696 3.31658 1.43824 0
M  V30 9120 O 868.417 4.35197 0.503467 0
M  V30 9121 C 869.918 3.83114 2.23021 0
M  V30 9122 H 867.138 0.641785 0.195841 0
M  V30 9123 H 869.682 2.04451 -0.0446287 0
M  V30 9124 H 867.837 3.23156 2.13655 0
M  V30 9125 H 868.251 5.1444 1.02235 0
M  V30 9126 H 869.725 4.81438 2.7004 0
M  V30 9127 H 870.202 3.15559 3.05482 0
M  V30 9128 H 870.808 3.94775 1.58216 0
M  V30 9129 N 869.123 -0.277682 1.55134 0
M  V30 9130 C 870.086 -1.32635 1.86924 0
M  V30 9131 C 871.086 -1.42578 0.743507 0
M  V30 9132 O 872.276 -1.4181 1.01171 0
M  V30 9133 C 869.408 -2.70832 2.07034 0
M  V30 9134 H 870.601 -1.0568 2.80663 0
M  V30 9135 H 868.154 -0.515517 1.47554 0
M  V30 9136 H 868.889 -3.02974 1.15661 0
M  V30 9137 H 868.674 -2.65001 2.88993 0
M  V30 9138 H 870.164 -3.46611 2.32918 0
M  V30 9139 N 870.601 -1.47988 -0.541979 0
M  V30 9140 C 871.531 -1.64503 -1.65713 0
M  V30 9141 C 872.512 -0.494116 -1.62765 0
M  V30 9142 O 873.697 -0.725256 -1.80149 0
M  V30 9143 C 870.827 -1.67337 -3.04328 0
M  V30 9144 C 869.781 -2.81809 -3.2213 0
M  V30 9145 C 869.107 -2.69724 -4.61685 0
M  V30 9146 C 870.407 -4.23241 -3.06046 0
M  V30 9147 H 872.101 -2.5786 -1.52147 0
M  V30 9148 H 869.647 -1.24094 -0.730529 0
M  V30 9149 H 871.6 -1.77481 -3.82202 0
M  V30 9150 H 870.324 -0.705514 -3.18889 0
M  V30 9151 H 868.983 -2.71201 -2.46669 0
M  V30 9152 H 868.631 -1.70934 -4.73065 0
M  V30 9153 H 868.331 -3.4653 -4.74543 0
M  V30 9154 H 869.855 -2.81818 -5.41674 0
M  V30 9155 H 871.269 -4.34746 -3.73723 0
M  V30 9156 H 869.666 -5.00952 -3.30405 0
M  V30 9157 H 870.736 -4.40543 -2.02609 0
M  V30 9158 N 872.079 0.78992 -1.36375 0
M  V30 9159 C 873.327 1.54472 -1.30319 0
M  V30 9160 C 873.648 1.94647 0.117338 0
M  V30 9161 O 872.918 1.64906 1.05748 0
M  V30 9162 H 871.498 0.572879 -0.479394 0
M  V30 9163 H 874.16 0.941245 -1.70665 0
M  V30 9164 H 873.256 2.45252 -1.93024 0
M  V30 9165 N 873.557 1.20646 1.01402 0
M  V30 9166 C 874.49 0.900926 2.09663 0
M  V30 9167 C 875.468 -0.14801 1.61925 0
M  V30 9168 O 876.652 -0.0210235 1.88488 0
M  V30 9169 C 873.779 0.351097 3.36875 0
M  V30 9170 C 872.825 1.38142 4.03508 0
M  V30 9171 S 873.658 2.94741 4.47089 0
M  V30 9172 C 874.814 2.41341 5.77499 0
M  V30 9173 H 875.047 1.81773 2.35257 0
M  V30 9174 H 872.58 1.03521 1.14555 0
M  V30 9175 H 874.538 0.0404201 4.1048 0
M  V30 9176 H 873.199 -0.544255 3.09349 0
M  V30 9177 H 872.392 0.94614 4.9504 0
M  V30 9178 H 871.994 1.63971 3.36139 0
M  V30 9179 H 874.286 1.81263 6.52802 0
M  V30 9180 H 875.229 3.31278 6.25828 0
M  V30 9181 H 875.637 1.83374 5.33886 0
M  V30 9182 N 875.035 -1.20752 1.01276 0
M  V30 9183 C 876.26 -1.94547 0.718769 0
M  V30 9184 C 876.685 -1.7404 -0.713563 0
M  V30 9185 O 876.043 -1.03221 -1.49047 0
M  V30 9186 C 876.091 -3.44823 1.05497 0
M  V30 9187 O 875.195 -4.12072 0.164516 0
M  V30 9188 H 874.536 -0.607931 0.267051 0
M  V30 9189 H 877.066 -1.53292 1.35509 0
M  V30 9190 H 877.076 -3.95427 1.00507 0
M  V30 9191 H 875.751 -3.59072 2.09858 0
M  V30 9192 H 874.328 -3.71909 0.271615 0
M  V30 9193 N 876.513 -0.788492 -1.36457 0
M  V30 9194 C 877.443 -0.200468 -2.32638 0
M  V30 9195 C 878.424 0.664031 -1.56603 0
M  V30 9196 O 879.609 0.598045 -1.84762 0
M  V30 9197 C 876.739 0.666274 -3.40849 0
M  V30 9198 C 875.693 -0.0982574 -4.27887 0
M  V30 9199 C 875.019 0.889018 -5.27258 0
M  V30 9200 C 876.319 -1.28692 -5.06197 0
M  V30 9201 H 878.013 -1.00399 -2.82065 0
M  V30 9202 H 875.559 -0.484237 -1.35614 0
M  V30 9203 H 877.512 1.08757 -4.07124 0
M  V30 9204 H 876.236 1.50249 -2.89987 0
M  V30 9205 H 874.895 -0.500525 -3.63167 0
M  V30 9206 H 874.543 1.72024 -4.7267 0
M  V30 9207 H 874.243 0.381909 -5.86358 0
M  V30 9208 H 875.767 1.30891 -5.96406 0
M  V30 9209 H 877.181 -0.941429 -5.65517 0
M  V30 9210 H 875.578 -1.72726 -5.74705 0
M  V30 9211 H 876.648 -2.08273 -4.37893 0
M  V30 9212 N 877.991 1.48044 -0.54043 0
M  V30 9213 C 878.939 2.31461 0.229862 0
M  V30 9214 C 879.933 1.41884 0.925495 0
M  V30 9215 O 881.139 1.58736 0.848689 0
M  V30 9216 H 877.514 0.746227 0.0929975 0
M  V30 9217 H 879.485 2.94297 -0.493118 0
M  V30 9218 C 878.234 3.24172 1.25729 0
M  V30 9219 H 877.557 3.93052 0.731426 0
M  V30 9220 H 878.997 3.85404 1.76747 0
M  V30 9221 C 877.456 2.4651 2.2964 0
M  V30 9222 O 877.986 2.19742 3.36268 0
M  V30 9223 N 876.192 2.07817 2.03127 0
M  V30 9224 H 875.739 2.29786 1.1643 0
M  V30 9225 H 875.697 1.56168 2.72872 0
M  V30 9226 N 879.47 0.276058 1.55163 0
M  V30 9227 C 880.4 -0.604633 2.25536 0
M  V30 9228 C 881.381 -1.15813 1.24585 0
M  V30 9229 O 882.566 -1.1921 1.53306 0
M  V30 9230 C 879.696 -1.78836 2.97716 0
M  V30 9231 C 878.65 -1.36635 4.05604 0
M  V30 9232 C 877.976 -2.63325 4.65364 0
M  V30 9233 C 879.276 -0.515858 5.19746 0
M  V30 9234 H 880.97 -0.0177483 2.99395 0
M  V30 9235 H 878.516 -0.00709627 1.43998 0
M  V30 9236 H 880.469 -2.41036 3.45658 0
M  V30 9237 H 879.193 -2.40109 2.21394 0
M  V30 9238 H 877.852 -0.767541 3.58475 0
M  V30 9239 H 877.5 -3.22858 3.85709 0
M  V30 9240 H 877.2 -2.358 5.38212 0
M  V30 9241 H 878.724 -3.26372 5.16056 0
M  V30 9242 H 880.138 -1.04289 5.63735 0
M  V30 9243 H 878.535 -0.335449 5.99162 0
M  V30 9244 H 879.605 0.465137 4.82664 0
M  V30 9245 N 880.948 -1.576 0.00335426 0
M  V30 9246 C 882.359 -1.7875 -0.539008 0
M  V30 9247 C 882.71 -0.911097 -1.73763 0
M  V30 9248 O 881.835 -0.114476 -2.16097 0
M  V30 9249 C 882.43 -3.24177 -0.984611 0
M  V30 9250 C 880.989 -3.46412 -1.47226 0
M  V30 9251 C 880.136 -2.74024 -0.425004 0
M  V30 9252 H 883.087 -1.57032 0.229511 0
M  V30 9253 H 883.108 -3.32474 -1.85044 0
M  V30 9254 H 882.62 -3.87938 -0.112035 0
M  V30 9255 H 880.721 -2.8787 -2.36562 0
M  V30 9256 H 880.834 -4.55098 -1.49741 0
M  V30 9257 H 879.198 -2.38741 -0.887394 0
M  V30 9258 H 879.981 -3.40486 0.438662 0
M  V30 9259 N 882.426 0.269451 -1.5528 0
M  V30 9260 C 883.675 0.998381 -1.75258 0
M  V30 9261 C 883.988 1.87321 -0.563034 0
M  V30 9262 O 885.194 2.63719 -0.645313 0
M  V30 9263 C 883.65 1.82505 -3.10193 0
M  V30 9264 C 883.258 0.99871 -4.36726 0
M  V30 9265 C 885.002 2.54807 -3.3952 0
M  V30 9266 C 882.909 1.81997 -5.627 0
M  V30 9267 H 881.839 0.376488 -0.653278 0
M  V30 9268 H 884.49 0.253909 -1.81735 0
M  V30 9269 H 882.872 2.61061 -2.97763 0
M  V30 9270 H 884.046 0.257064 -4.60082 0
M  V30 9271 H 882.361 0.390074 -4.14569 0
M  V30 9272 H 884.958 3.16662 -4.30847 0
M  V30 9273 H 885.301 3.25273 -2.59813 0
M  V30 9274 H 885.834 1.83278 -3.53064 0
M  V30 9275 H 882.573 1.15945 -6.45164 0
M  V30 9276 H 882.093 2.53749 -5.43481 0
M  V30 9277 H 883.772 2.39274 -6.0113 0
M  V30 9278 N 883.904 1.48273 0.534124 0
M  V30 9279 C 884.867 1.6201 1.62127 0
M  V30 9280 C 885.867 0.493653 1.53035 0
M  V30 9281 O 887.057 0.759337 1.56779 0
M  V30 9282 C 884.189 1.5864 3.01739 0
M  V30 9283 H 885.382 2.58944 1.51288 0
M  V30 9284 H 882.935 1.36808 0.755861 0
M  V30 9285 H 883.67 0.631685 3.18088 0
M  V30 9286 H 883.455 2.40415 3.09747 0
M  V30 9287 H 884.945 1.71438 3.80787 0
M  V30 9288 N 885.382 -0.782676 1.36792 0
M  V30 9289 C 886.329 -1.89558 1.31667 0
M  V30 9290 C 887.299 -1.65076 0.184147 0
M  V30 9291 O 888.484 -1.87143 0.371753 0
M  V30 9292 C 885.624 -3.26469 1.11858 0
M  V30 9293 C 884.737 -3.62978 2.34245 0
M  V30 9294 C 883.872 -4.89041 2.07394 0
M  V30 9295 C 882.911 -5.18249 3.25706 0
M  V30 9296 N 882.048 -6.35497 2.98476 0
M  V30 9297 H 886.888 -1.93274 2.26824 0
M  V30 9298 H 884.425 -0.945057 1.12726 0
M  V30 9299 H 886.383 -4.05431 0.983968 0
M  V30 9300 H 885.013 -3.22158 0.203531 0
M  V30 9301 H 884.065 -2.79087 2.58485 0
M  V30 9302 H 885.377 -3.80507 3.22514 0
M  V30 9303 H 884.531 -5.75883 1.90901 0
M  V30 9304 H 883.27 -4.73594 1.16446 0
M  V30 9305 H 882.275 -4.29887 3.4275 0
M  V30 9306 H 883.5 -5.35611 4.1749 0
M  V30 9307 H 881.446 -6.21429 2.10146 0
M  V30 9308 H 881.363 -6.5339 3.80286 0
M  V30 9309 H 882.631 -7.25304 2.85577 0
M  V30 9310 N 886.86 -1.21182 -1.00761 0
M  V30 9311 C 888.106 -1.02898 -1.74756 0
M  V30 9312 C 888.439 0.436774 -1.89225 0
M  V30 9313 O 887.714 1.32415 -1.42466 0
M  V30 9314 C 887.997 -1.72372 -3.16164 0
M  V30 9315 C 887.85 -3.2645 -3.09435 0
M  V30 9316 C 889.169 -1.46415 -4.15031 0
M  V30 9317 H 886.288 -0.375214 -0.634337 0
M  V30 9318 H 888.93 -1.49321 -1.17487 0
M  V30 9319 H 887.08 -1.32906 -3.65059 0
M  V30 9320 H 888.752 -3.75269 -2.68274 0
M  V30 9321 H 886.995 -3.56889 -2.46603 0
M  V30 9322 H 887.666 -3.70226 -4.09435 0
M  V30 9323 H 890.142 -1.80671 -3.7483 0
M  V30 9324 H 889.018 -1.97544 -5.12121 0
M  V30 9325 H 889.279 -0.39361 -4.40344 0
M  V30 9326 N 888.338 1.20213 -1.01915 0
M  V30 9327 C 889.248 2.26763 -0.601311 0
M  V30 9328 C 890.264 1.70185 0.362369 0
M  V30 9329 O 891.44 2.00165 0.222682 0
M  V30 9330 C 888.505 3.46662 0.0512879 0
M  V30 9331 C 887.566 4.18459 -0.958659 0
M  V30 9332 C 886.799 5.32634 -0.337107 0
M  V30 9333 O 887.022 5.63841 0.86251 0
M  V30 9334 O 885.956 5.9258 -1.05511 0
M  V30 9335 H 889.782 2.64725 -1.48844 0
M  V30 9336 H 887.367 1.2688 -0.788784 0
M  V30 9337 H 889.249 4.19345 0.41564 0
M  V30 9338 H 887.924 3.1057 0.912572 0
M  V30 9339 H 886.831 3.47937 -1.37442 0
M  V30 9340 H 888.164 4.58498 -1.78999 0
M  V30 9341 N 889.816 0.795718 1.36037 0
M  V30 9342 C 891.227 0.433379 1.816 0
M  V30 9343 C 891.578 -1.04341 1.66155 0
M  V30 9344 O 890.703 -1.81004 1.18603 0
M  V30 9345 C 891.298 0.77985 3.29703 0
M  V30 9346 C 889.857 0.470256 3.73451 0
M  V30 9347 C 889.004 1.01119 2.58206 0
M  V30 9348 H 891.955 0.988317 1.24169 0
M  V30 9349 H 891.976 0.0732898 3.80429 0
M  V30 9350 H 891.488 1.85473 3.40913 0
M  V30 9351 H 889.589 -0.596332 3.67797 0
M  V30 9352 H 889.702 0.995276 4.68648 0
M  V30 9353 H 888.066 0.434077 2.50974 0
M  V30 9354 H 888.849 2.09196 2.72198 0
M  V30 9355 N 891.294 -1.47756 0.548274 0
M  V30 9356 C 892.54 -2.02789 0.0209265 0
M  V30 9357 C 892.873 -1.42268 -1.32187 0
M  V30 9358 O 892.148 -0.575001 -1.85806 0
M  V30 9359 C 892.431 -3.60007 -0.0816674 0
M  V30 9360 C 892.284 -4.30977 1.28759 0
M  V30 9361 C 893.603 -4.32777 -0.799515 0
M  V30 9362 H 890.722 -0.736944 0.00907884 0
M  V30 9363 H 893.364 -1.76282 0.708839 0
M  V30 9364 H 891.514 -3.82722 -0.667537 0
M  V30 9365 H 893.186 -4.19629 1.91597 0
M  V30 9366 H 891.429 -3.9168 1.86466 0
M  V30 9367 H 892.1 -5.39488 1.16861 0
M  V30 9368 H 894.576 -4.15001 -0.30216 0
M  V30 9369 H 893.452 -5.42431 -0.840239 0
M  V30 9370 H 893.713 -4.01358 -1.85375 0
M  V30 9371 N 892.772 -0.284283 -1.55015 0
M  V30 9372 C 893.719 0.599194 -2.22886 0
M  V30 9373 C 894.689 1.14264 -1.20553 0
M  V30 9374 O 895.874 1.19025 -1.49123 0
M  V30 9375 C 893.014 1.77317 -2.96062 0
M  V30 9376 C 892.127 1.26271 -4.13134 0
M  V30 9377 C 891.262 2.39922 -4.73931 0
M  V30 9378 C 890.301 1.85925 -5.8318 0
M  V30 9379 N 889.438 2.93084 -6.38002 0
M  V30 9380 H 894.278 0.0137816 -2.97997 0
M  V30 9381 H 891.815 -0.00496503 -1.47099 0
M  V30 9382 H 893.773 2.46339 -3.36709 0
M  V30 9383 H 892.403 2.33047 -2.23358 0
M  V30 9384 H 891.455 0.465296 -3.77544 0
M  V30 9385 H 892.767 0.827284 -4.91892 0
M  V30 9386 H 891.921 3.1692 -5.17346 0
M  V30 9387 H 890.66 2.86784 -3.9447 0
M  V30 9388 H 889.665 1.07409 -5.39206 0
M  V30 9389 H 890.89 1.39987 -6.64515 0
M  V30 9390 H 888.836 3.3931 -5.61431 0
M  V30 9391 H 888.753 2.53986 -7.12058 0
M  V30 9392 H 890.021 3.7003 -6.86075 0
M  V30 9393 N 894.251 1.57596 -0.0117121 0
M  V30 9394 C 895.476 1.95764 0.684938 0
M  V30 9395 C 895.901 0.887285 1.65858 0
M  V30 9396 O 895.259 -0.153508 1.80649 0
M  V30 9397 C 895.307 3.33031 1.38285 0
M  V30 9398 O 894.411 3.28163 2.49765 0
M  V30 9399 H 893.752 0.638767 0.181309 0
M  V30 9400 H 896.282 2.04486 -0.0683883 0
M  V30 9401 H 896.292 3.68866 1.74362 0
M  V30 9402 H 894.967 4.10483 0.669043 0
M  V30 9403 H 893.544 3.04021 2.15929 0
M  V30 9404 N 895.729 -0.261212 1.5542 0
M  V30 9405 C 897.14 -0.83138 1.67167 0
M  V30 9406 C 897.491 -1.8659 0.606525 0
M  V30 9407 O 896.616 -2.14953 -0.24985 0
M  V30 9408 C 897.211 -1.51475 3.03052 0
M  V30 9409 C 895.77 -2.0328 3.16787 0
M  V30 9410 C 894.917 -0.878903 2.63003 0
M  V30 9411 H 897.868 -0.0373102 1.58656 0
M  V30 9412 H 897.889 -2.38222 2.96699 0
M  V30 9413 H 897.401 -0.76157 3.80554 0
M  V30 9414 H 895.502 -2.81523 2.44082 0
M  V30 9415 H 895.615 -2.24001 4.2351 0
M  V30 9416 H 893.979 -1.27551 2.2046 0
M  V30 9417 H 894.762 -0.13904 3.43018 0
M  V30 9418 N 897.207 -1.48554 -0.526253 0
M  V30 9419 C 898.137 -1.66252 -1.63959 0
M  V30 9420 C 899.118 -0.511351 -1.62232 0
M  V30 9421 O 900.303 -0.744322 -1.7937 0
M  V30 9422 C 897.433 -1.70556 -3.02536 0
M  V30 9423 C 896.387 -2.8521 -3.19123 0
M  V30 9424 C 895.713 -2.74606 -4.58798 0
M  V30 9425 C 897.013 -4.26463 -3.0154 0
M  V30 9426 H 898.707 -2.59459 -1.49404 0
M  V30 9427 H 896.253 -1.24862 -0.717326 0
M  V30 9428 H 898.206 -1.81524 -3.80298 0
M  V30 9429 H 896.93 -0.739297 -3.18123 0
M  V30 9430 H 895.589 -2.73802 -2.43779 0
M  V30 9431 H 895.237 -1.75941 -4.71226 0
M  V30 9432 H 894.937 -3.51544 -4.70841 0
M  V30 9433 H 896.461 -2.87548 -5.38655 0
M  V30 9434 H 897.875 -4.38685 -3.69091 0
M  V30 9435 H 896.272 -5.04428 -3.25073 0
M  V30 9436 H 897.342 -4.42667 -1.97925 0
M  V30 9437 N 898.685 0.775411 -1.37205 0
M  V30 9438 C 899.632 1.88857 -1.32671 0
M  V30 9439 C 900.602 1.64976 -0.192899 0
M  V30 9440 O 901.787 1.86944 -0.381673 0
M  V30 9441 C 898.927 3.25871 -1.13588 0
M  V30 9442 C 898.04 3.61731 -2.36167 0
M  V30 9443 C 897.175 4.87934 -2.09985 0
M  V30 9444 C 896.214 5.16514 -3.2845 0
M  V30 9445 N 895.351 6.33905 -3.01842 0
M  V30 9446 H 900.191 1.92068 -2.27846 0
M  V30 9447 H 897.728 0.939066 -1.13225 0
M  V30 9448 H 899.686 4.04903 -1.00546 0
M  V30 9449 H 898.316 3.22045 -0.220613 0
M  V30 9450 H 897.368 2.77712 -2.59962 0
M  V30 9451 H 898.68 3.78792 -3.24528 0
M  V30 9452 H 897.834 5.74863 -1.93953 0
M  V30 9453 H 896.573 4.7297 -1.18956 0
M  V30 9454 H 895.578 4.28063 -3.45025 0
M  V30 9455 H 896.803 5.33389 -4.20325 0
M  V30 9456 H 894.749 6.20306 -2.13439 0
M  V30 9457 H 894.666 6.51364 -3.83746 0
M  V30 9458 H 895.934 7.23779 -2.8942 0
M  V30 9459 N 900.163 1.21714 1.00117 0
M  V30 9460 C 901.574 1.03477 1.55401 0
M  V30 9461 C 901.925 -0.40429 1.91989 0
M  V30 9462 O 901.05 -1.28807 1.7389 0
M  V30 9463 C 901.645 1.87213 2.82377 0
M  V30 9464 C 900.204 1.73297 3.34133 0
M  V30 9465 C 899.351 1.84189 2.07291 0
M  V30 9466 H 902.302 1.3568 0.823195 0
M  V30 9467 H 902.323 1.38465 3.54412 0
M  V30 9468 H 901.835 2.91944 2.55715 0
M  V30 9469 H 899.936 0.712662 3.65721 0
M  V30 9470 H 900.049 2.55486 4.05294 0
M  V30 9471 H 898.413 1.27538 2.20468 0
M  V30 9472 H 899.196 2.90435 1.83037 0
M  V30 9473 N 901.641 -1.19671 1.02551 0
M  V30 9474 C 902.889 -1.88894 0.71858 0
M  V30 9475 C 903.21 -1.79797 -0.754856 0
M  V30 9476 O 902.48 -1.20621 -1.54362 0
M  V30 9477 H 901.06 -0.699244 0.262806 0
M  V30 9478 H 903.722 -1.45298 1.29902 0
M  V30 9479 H 902.818 -2.95309 1.00989 0
M  V30 9480 N 903.119 -0.802921 -1.35613 0
M  V30 9481 C 904.066 -0.20874 -2.29854 0
M  V30 9482 C 905.036 0.655128 -1.52634 0
M  V30 9483 O 906.221 0.600979 -1.81088 0
M  V30 9484 C 903.361 0.639663 -3.3912 0
M  V30 9485 C 902.474 -0.244234 -4.31309 0
M  V30 9486 C 901.609 0.611825 -5.27665 0
M  V30 9487 C 900.648 -0.272698 -6.11492 0
M  V30 9488 N 899.785 0.543122 -6.99996 0
M  V30 9489 H 904.625 -1.01782 -2.80079 0
M  V30 9490 H 902.162 -0.513465 -1.37848 0
M  V30 9491 H 904.12 1.14668 -4.01132 0
M  V30 9492 H 902.75 1.41404 -2.9018 0
M  V30 9493 H 901.802 -0.869322 -3.70334 0
M  V30 9494 H 903.114 -0.925202 -4.90144 0
M  V30 9495 H 902.268 1.18412 -5.95032 0
M  V30 9496 H 901.007 1.32637 -4.69317 0
M  V30 9497 H 900.012 -0.857287 -5.43075 0
M  V30 9498 H 901.237 -0.985051 -6.71918 0
M  V30 9499 H 899.183 1.24171 -6.44141 0
M  V30 9500 H 899.1 -0.0798767 -7.55958 0
M  V30 9501 H 900.368 1.09881 -7.71717 0
M  V30 9502 N 904.597 1.47463 -0.556102 0
M  V30 9503 C 905.874 1.9557 0.0339892 0
M  V30 9504 C 906.254 1.49869 1.48669 0
M  V30 9505 O 905.602 0.737019 2.16288 0
M  V30 9506 C 905.812 3.48826 -0.110343 0
M  V30 9507 C 907.16 4.24585 0.0355716 0
M  V30 9508 O 908.184 3.5618 -0.0378356 0
M  V30 9509 O 907.043 5.46158 0.193299 0
M  V30 9510 H 904.137 0.824461 0.0647521 0
M  V30 9511 H 906.683 1.57868 -0.622547 0
M  V30 9512 H 905.455 3.74891 -1.12126 0
M  V30 9513 H 905.078 3.9329 0.583855 0
M  V30 9514 N 906.075 0.2925 1.54862 0
M  V30 9515 C 907.323 -0.318633 1.99572 0
M  V30 9516 C 907.644 -1.55062 1.1824 0
M  V30 9517 O 906.914 -1.93943 0.276226 0
M  V30 9518 H 905.494 -0.120722 0.737181 0
M  V30 9519 H 908.156 0.401862 1.90712 0
M  V30 9520 H 907.252 -0.596542 3.06346 0
M  V30 9521 N 907.553 -1.57587 0.0200696 0
M  V30 9522 C 908.964 -1.79312 -0.520019 0
M  V30 9523 C 909.315 -0.929475 -1.72787 0
M  V30 9524 O 908.44 -0.137389 -2.15963 0
M  V30 9525 C 909.035 -3.25203 -0.950172 0
M  V30 9526 C 907.594 -3.47954 -1.43543 0
M  V30 9527 C 906.741 -2.74459 -0.395917 0
M  V30 9528 H 909.692 -1.56779 0.246153 0
M  V30 9529 H 909.713 -3.34418 -1.81508 0
M  V30 9530 H 909.225 -3.88035 -0.070883 0
M  V30 9531 H 907.326 -2.90363 -2.33495 0
M  V30 9532 H 907.439 -4.56661 -1.44905 0
M  V30 9533 H 905.803 -2.39669 -0.862022 0
M  V30 9534 H 906.586 -3.40001 0.47475 0
M  V30 9535 N 909.032 0.252966 -1.55557 0
M  V30 9536 C 909.979 1.3131 -1.89806 0
M  V30 9537 C 910.949 1.48121 -0.751633 0
M  V30 9538 O 912.134 1.62202 -1.00474 0
M  V30 9539 C 909.274 2.66467 -2.19293 0
M  V30 9540 C 908.387 2.57714 -3.46709 0
M  V30 9541 C 907.522 3.85184 -3.65796 0
M  V30 9542 C 906.561 3.71023 -4.86835 0
M  V30 9543 N 905.698 4.90371 -5.02474 0
M  V30 9544 H 910.538 1.01402 -2.80217 0
M  V30 9545 H 908.075 0.489462 -1.38718 0
M  V30 9546 H 910.033 3.45132 -2.34392 0
M  V30 9547 H 908.663 2.94536 -1.32093 0
M  V30 9548 H 907.715 1.70651 -3.39974 0
M  V30 9549 H 909.027 2.43158 -4.35517 0
M  V30 9550 H 908.181 4.72292 -3.80822 0
M  V30 9551 H 906.92 4.0263 -2.7521 0
M  V30 9552 H 905.925 2.82299 -4.71792 0
M  V30 9553 H 907.15 3.55078 -5.78875 0
M  V30 9554 H 905.096 5.0819 -4.14824 0
M  V30 9555 H 905.013 4.78423 -5.85361 0
M  V30 9556 H 906.281 5.78995 -5.21905 0
M  V30 9557 N 910.51 1.48831 0.518367 0
M  V30 9558 C 911.44 1.67119 1.63075 0
M  V30 9559 C 912.421 0.519948 1.61958 0
M  V30 9560 O 913.606 0.753824 1.78972 0
M  V30 9561 C 910.736 1.72158 3.01627 0
M  V30 9562 C 909.69 2.86898 3.17606 0
M  V30 9563 C 909.016 2.77035 4.57335 0
M  V30 9564 C 910.316 4.28057 2.99274 0
M  V30 9565 H 912.01 2.60248 1.48025 0
M  V30 9566 H 909.556 1.2524 0.710694 0
M  V30 9567 H 911.509 1.83539 3.7933 0
M  V30 9568 H 910.233 0.756157 3.17726 0
M  V30 9569 H 908.892 2.75091 2.42323 0
M  V30 9570 H 908.54 1.78438 4.70286 0
M  V30 9571 H 908.24 3.54036 4.6897 0
M  V30 9572 H 909.764 2.904 5.37122 0
M  V30 9573 H 911.178 4.40636 3.6676 0
M  V30 9574 H 909.575 5.06145 3.22393 0
M  V30 9575 H 910.645 4.4371 1.95574 0
M  V30 9576 N 911.988 -0.768124 1.37614 0
M  V30 9577 C 912.935 -1.88151 1.33671 0
M  V30 9578 C 913.905 -1.64871 0.201645 0
M  V30 9579 O 915.09 -1.86739 0.391582 0
M  V30 9580 C 912.23 -3.25264 1.15314 0
M  V30 9581 C 911.343 -3.60473 2.38082 0
M  V30 9582 C 910.478 -4.86814 2.12569 0
M  V30 9583 C 909.517 -5.14765 3.31184 0
M  V30 9584 N 908.654 -6.32295 3.052 0
M  V30 9585 H 913.494 -1.90857 2.28862 0
M  V30 9586 H 911.031 -0.933048 1.13722 0
M  V30 9587 H 912.989 -4.04364 1.02691 0
M  V30 9588 H 911.619 -3.21924 0.237689 0
M  V30 9589 H 910.671 -2.7633 2.61431 0
M  V30 9590 H 911.983 -3.77065 3.26532 0
M  V30 9591 H 911.137 -5.73826 1.96999 0
M  V30 9592 H 909.876 -4.72333 1.21462 0
M  V30 9593 H 908.881 -4.26227 3.4729 0
M  V30 9594 H 910.106 -5.31153 4.23147 0
M  V30 9595 H 908.052 -6.19166 2.16726 0
M  V30 9596 H 907.969 -6.4932 3.87195 0
M  V30 9597 H 909.237 -7.22234 2.93254 0
M  V30 9598 N 913.466 -1.22244 -0.994698 0
M  V30 9599 C 914.398 -0.948706 -2.08644 0
M  V30 9600 C 915.411 0.0720049 -1.62641 0
M  V30 9601 O 916.6 -0.161778 -1.77765 0
M  V30 9602 C 913.7 -0.404885 -3.36473 0
M  V30 9603 C 912.873 -1.48239 -4.11514 0
M  V30 9604 C 911.932 -0.94597 -5.17627 0
M  V30 9605 O 910.958 -1.63177 -5.45309 0
M  V30 9606 N 912.16 0.23355 -5.8003 0
M  V30 9607 H 914.925 -1.88858 -2.32707 0
M  V30 9608 H 912.486 -1.12908 -1.16032 0
M  V30 9609 H 914.478 -0.0313903 -4.04688 0
M  V30 9610 H 913.048 0.440061 -3.09487 0
M  V30 9611 H 912.268 -2.02928 -3.37955 0
M  V30 9612 H 913.556 -2.20741 -4.58422 0
M  V30 9613 H 912.954 0.80756 -5.59906 0
M  V30 9614 H 911.511 0.54845 -6.49488 0
M  V30 9615 N 914.944 1.19125 -1.03184 0
M  V30 9616 C 916.19 1.89428 -0.740857 0
M  V30 9617 C 916.545 1.78302 0.72291 0
M  V30 9618 O 915.838 1.16656 1.51994 0
M  V30 9619 C 916.032 3.39052 -1.13041 0
M  V30 9620 C 915.861 3.64739 -2.6305 0
M  V30 9621 C 914.631 3.82603 -3.30066 0
M  V30 9622 C 916.829 3.66052 -3.61262 0
M  V30 9623 N 914.811 3.95947 -4.69147 0
M  V30 9624 C 916.182 3.85003 -4.85976 0
M  V30 9625 C 918.237 3.49093 -3.55019 0
M  V30 9626 C 916.94 3.88753 -6.05197 0
M  V30 9627 C 918.966 3.54122 -4.73658 0
M  V30 9628 C 918.328 3.73561 -5.97187 0
M  V30 9629 H 914.427 0.71217 -0.323014 0
M  V30 9630 H 917.011 1.43146 -1.31974 0
M  V30 9631 H 915.182 3.8405 -0.579699 0
M  V30 9632 H 916.914 3.96887 -0.791369 0
M  V30 9633 H 913.669 3.81615 -2.80476 0
M  V30 9634 H 914.093 4.06461 -5.41404 0
M  V30 9635 H 918.735 3.33018 -2.60497 0
M  V30 9636 H 916.453 4.03619 -7.00084 0
M  V30 9637 H 920.039 3.42286 -4.70459 0
M  V30 9638 H 918.919 3.7733 -6.87453 0
M  V30 9639 N 916.422 0.810101 1.35185 0
M  V30 9640 C 917.833 0.452616 1.81131 0
M  V30 9641 C 918.184 -1.02573 1.67252 0
M  V30 9642 O 917.309 -1.79735 1.20516 0
M  V30 9643 C 917.904 0.814775 3.28857 0
M  V30 9644 C 916.463 0.509839 3.72931 0
M  V30 9645 C 915.61 1.03852 2.57119 0
M  V30 9646 H 918.561 1.00143 1.23114 0
M  V30 9647 H 918.582 0.113635 3.8033 0
M  V30 9648 H 918.094 1.89078 3.38926 0
M  V30 9649 H 916.195 -0.557289 3.68409 0
M  V30 9650 H 916.308 1.04493 4.67566 0
M  V30 9651 H 914.672 0.460671 2.50499 0
M  V30 9652 H 915.455 2.12071 2.69964 0
M  V30 9653 N 917.9 -1.47166 0.563914 0
M  V30 9654 C 918.83 -2.32894 -0.168148 0
M  V30 9655 C 919.811 -1.44202 -0.902214 0
M  V30 9656 O 920.996 -1.73048 -0.881365 0
M  V30 9657 C 918.126 -3.26116 -1.19439 0
M  V30 9658 C 917.08 -4.24101 -0.576363 0
M  V30 9659 C 916.406 -5.06696 -1.70772 0
M  V30 9660 C 917.706 -5.20142 0.47425 0
M  V30 9661 H 919.4 -2.9435 0.547573 0
M  V30 9662 H 916.946 -1.41545 0.264778 0
M  V30 9663 H 918.899 -3.84935 -1.71474 0
M  V30 9664 H 917.623 -2.62728 -1.94014 0
M  V30 9665 H 916.282 -3.66519 -0.0772534 0
M  V30 9666 H 915.93 -4.39707 -2.44268 0
M  V30 9667 H 915.63 -5.7304 -1.29994 0
M  V30 9668 H 917.154 -5.68375 -2.2312 0
M  V30 9669 H 918.568 -5.73286 0.0397035 0
M  V30 9670 H 916.965 -5.94726 0.801287 0
M  V30 9671 H 918.035 -4.65214 1.36764 0
M  V30 9672 N 919.378 -0.300708 -1.54705 0
M  V30 9673 C 920.603 0.314073 -2.05008 0
M  V30 9674 C 921.028 1.46759 -1.17657 0
M  V30 9675 O 920.386 1.80398 -0.180598 0
M  V30 9676 C 920.434 0.748243 -3.52752 0
M  V30 9677 O 919.538 1.85305 -3.68424 0
M  V30 9678 H 918.879 0.0610139 -0.661191 0
M  V30 9679 H 921.409 -0.442467 -1.99758 0
M  V30 9680 H 921.419 1.03713 -3.94598 0
M  V30 9681 H 920.094 -0.095573 -4.1579 0
M  V30 9682 H 918.671 1.56473 -3.38483 0
M  V30 9683 N 920.856 1.57574 -0.0284266 0
M  V30 9684 C 921.803 2.10176 0.953658 0
M  V30 9685 C 922.773 1.00367 1.32347 0
M  V30 9686 O 923.958 1.27783 1.4169 0
M  V30 9687 C 921.098 2.63287 2.231 0
M  V30 9688 C 920.211 3.87102 1.91771 0
M  V30 9689 C 919.346 4.28609 3.13795 0
M  V30 9690 C 918.385 5.45184 2.78282 0
M  V30 9691 N 917.522 5.81851 3.92929 0
M  V30 9692 H 922.362 2.93806 0.498176 0
M  V30 9693 H 919.899 1.45222 0.234302 0
M  V30 9694 H 921.857 2.9217 2.97813 0
M  V30 9695 H 920.487 1.82489 2.66266 0
M  V30 9696 H 919.539 3.64952 1.07303 0
M  V30 9697 H 920.851 4.71892 1.61615 0
M  V30 9698 H 920.005 4.58925 3.96829 0
M  V30 9699 H 918.744 3.42585 3.47112 0
M  V30 9700 H 917.749 5.14563 1.93661 0
M  V30 9701 H 918.974 6.32907 2.46182 0
M  V30 9702 H 916.92 4.98782 4.2609 0
M  V30 9703 H 916.837 6.6128 3.66395 0
M  V30 9704 H 918.105 6.16772 4.76669 0
M  V30 9705 N 922.334 -0.244713 1.55689 0
M  V30 9706 C 923.244 -1.32447 1.93636 0
M  V30 9707 C 924.26 -1.52541 0.837086 0
M  V30 9708 O 925.436 -1.66121 1.13867 0
M  V30 9709 C 922.501 -2.65864 2.22525 0
M  V30 9710 C 921.562 -2.54273 3.45896 0
M  V30 9711 C 920.795 -3.81327 3.73397 0
M  V30 9712 O 921.018 -4.83307 3.02936 0
M  V30 9713 O 919.952 -3.79829 4.66919 0
M  V30 9714 H 923.778 -1.03255 2.85608 0
M  V30 9715 H 921.363 -0.445652 1.42598 0
M  V30 9716 H 923.245 -3.447 2.42404 0
M  V30 9717 H 921.92 -2.94784 1.33731 0
M  V30 9718 H 920.827 -1.73715 3.31321 0
M  V30 9719 H 922.16 -2.30297 4.34999 0
M  V30 9720 N 923.813 -1.49104 -0.510467 0
M  V30 9721 C 924.76 -1.65074 -1.61305 0
M  V30 9722 C 925.73 -0.492362 -1.58635 0
M  V30 9723 O 926.915 -0.718241 -1.76765 0
M  V30 9724 C 924.055 -1.71457 -2.99493 0
M  V30 9725 C 923.168 -2.98536 -3.12251 0
M  V30 9726 C 922.303 -2.95957 -4.41116 0
M  V30 9727 C 921.342 -4.17655 -4.47471 0
M  V30 9728 N 920.479 -4.13041 -5.67751 0
M  V30 9729 H 925.319 -2.59222 -1.46996 0
M  V30 9730 H 922.856 -1.28535 -0.715346 0
M  V30 9731 H 924.814 -1.7314 -3.79577 0
M  V30 9732 H 923.444 -0.807834 -3.12528 0
M  V30 9733 H 922.496 -3.06509 -2.25292 0
M  V30 9734 H 923.808 -3.88527 -3.12807 0
M  V30 9735 H 922.962 -2.96149 -5.2951 0
M  V30 9736 H 921.701 -2.03728 -4.4311 0
M  V30 9737 H 920.706 -4.17717 -3.57481 0
M  V30 9738 H 921.931 -5.11066 -4.472 0
M  V30 9739 H 919.877 -3.23643 -5.70606 0
M  V30 9740 H 919.794 -4.96757 -5.69884 0
M  V30 9741 H 921.062 -4.17322 -6.58379 0
M  V30 9742 N 925.291 0.760815 -1.38019 0
M  V30 9743 C 926.54 1.51506 -1.3315 0
M  V30 9744 C 926.853 1.95444 0.0782124 0
M  V30 9745 O 928.059 2.70352 0.249418 0
M  V30 9746 C 926.515 2.73636 -2.33776 0
M  V30 9747 C 926.123 2.36753 -3.80332 0
M  V30 9748 C 927.867 3.51548 -2.37937 0
M  V30 9749 C 925.774 3.55451 -4.72661 0
M  V30 9750 H 924.704 0.568844 -0.494907 0
M  V30 9751 H 927.355 0.832343 -1.63537 0
M  V30 9752 H 925.737 3.43852 -1.96422 0
M  V30 9753 H 926.911 1.7425 -4.26584 0
M  V30 9754 H 925.226 1.71991 -3.7922 0
M  V30 9755 H 927.823 4.39791 -3.04119 0
M  V30 9756 H 928.166 3.9219 -1.39617 0
M  V30 9757 H 928.699 2.88339 -2.74054 0
M  V30 9758 H 925.438 3.19882 -5.7215 0
M  V30 9759 H 924.958 4.17022 -4.31107 0
M  V30 9760 H 926.637 4.22125 -4.90326 0
M  V30 9761 N 926.769 1.22769 0.988202 0
M  V30 9762 C 928.015 1.05665 1.73097 0
M  V30 9763 C 928.348 -0.406615 1.89895 0
M  V30 9764 O 927.623 -1.30132 1.44554 0
M  V30 9765 C 927.906 1.77381 3.13382 0
M  V30 9766 C 927.759 3.31332 3.04203 0
M  V30 9767 C 929.078 1.52999 4.12649 0
M  V30 9768 H 926.197 0.385258 0.628288 0
M  V30 9769 H 928.839 1.51171 1.15097 0
M  V30 9770 H 926.989 1.38696 3.62899 0
M  V30 9771 H 928.661 3.79489 2.6227 0
M  V30 9772 H 926.904 3.60767 2.40894 0
M  V30 9773 H 927.575 3.76692 4.03493 0
M  V30 9774 H 930.051 1.86611 3.71908 0
M  V30 9775 H 928.927 2.05666 5.08913 0
M  V30 9776 H 929.188 0.463615 4.39662 0
M  V30 9777 N 928.247 -1.18576 1.03814 0
M  V30 9778 C 929.21 -2.2033 0.63146 0
M  V30 9779 C 930.21 -1.57787 -0.309816 0
M  V30 9780 O 931.4 -1.73938 -0.0955598 0
M  V30 9781 C 928.532 -3.40818 -0.0745963 0
M  V30 9782 H 929.725 -2.57824 1.53189 0
M  V30 9783 H 927.278 -1.32416 0.830398 0
M  V30 9784 H 928.013 -3.08853 -0.988947 0
M  V30 9785 H 927.798 -3.87453 0.6019 0
M  V30 9786 H 929.288 -4.16166 -0.345727 0
M  V30 9787 N 929.725 -0.817259 -1.34754 0
M  V30 9788 C 930.655 -0.249769 -2.3216 0
M  V30 9789 C 931.636 0.630663 -1.57977 0
M  V30 9790 O 932.821 0.558719 -1.85989 0
M  V30 9791 C 929.951 0.593825 -3.42186 0
M  V30 9792 C 928.905 -0.188997 -4.27583 0
M  V30 9793 C 928.231 0.776979 -5.29025 0
M  V30 9794 C 929.531 -1.39401 -5.03354 0
M  V30 9795 H 931.225 -1.06359 -2.79872 0
M  V30 9796 H 928.771 -0.512894 -1.34556 0
M  V30 9797 H 930.724 1.00097 -4.09339 0
M  V30 9798 H 929.448 1.44064 -2.93109 0
M  V30 9799 H 928.107 -0.577445 -3.62024 0
M  V30 9800 H 927.755 1.61959 -4.76212 0
M  V30 9801 H 927.455 0.257448 -5.87036 0
M  V30 9802 H 928.979 1.18211 -5.99048 0
M  V30 9803 H 930.393 -1.06117 -5.63393 0
M  V30 9804 H 928.79 -1.84878 -5.70912 0
M  V30 9805 H 929.86 -2.17515 -4.33377 0
M  V30 9806 N 931.203 1.46865 -0.571711 0
M  V30 9807 C 932.619 1.57897 -0.23255 0
M  V30 9808 C 932.819 1.56836 1.26509 0
M  V30 9809 O 931.875 1.47947 2.04617 0
M  V30 9810 C 933.188 2.87778 -0.872036 0
M  V30 9811 C 934.736 3.01389 -0.844605 0
M  V30 9812 C 935.211 4.33991 -1.46343 0
M  V30 9813 N 936.702 4.40662 -1.42727 0
M  V30 9814 C 937.437 5.41858 -1.87557 0
M  V30 9815 N 936.933 6.49787 -2.4031 0
M  V30 9816 N 938.726 5.32992 -1.7854 0
M  V30 9817 H 930.877 1.45798 -1.54457 0
M  V30 9818 H 933.14 0.694785 -0.644964 0
M  V30 9819 H 932.846 2.94332 -1.92513 0
M  V30 9820 H 932.72 3.75345 -0.373677 0
M  V30 9821 H 935.107 2.94423 0.19984 0
M  V30 9822 H 935.188 2.15327 -1.38087 0
M  V30 9823 H 934.832 4.41714 -2.50701 0
M  V30 9824 H 934.762 5.18809 -0.902479 0
M  V30 9825 H 937.253 3.63263 -1.04155 0
M  V30 9826 H 937.566 7.23199 -2.72403 0
M  V30 9827 H 935.911 6.50637 -2.44329 0
M  V30 9828 H 939.102 4.47575 -1.37093 0
M  V30 9829 H 939.275 6.11716 -2.13794 0
M  V30 9830 N 932.681 0.308908 1.54543 0
M  V30 9831 C 933.591 -0.572939 2.27496 0
M  V30 9832 C 934.607 -1.14171 1.31305 0
M  V30 9833 O 935.783 -1.16481 1.64299 0
M  V30 9834 C 932.848 -1.72483 3.0075 0
M  V30 9835 C 931.909 -1.18934 4.12496 0
M  V30 9836 C 931.142 -2.28634 4.82247 0
M  V30 9837 O 931.365 -3.48691 4.5141 0
M  V30 9838 O 930.299 -1.94879 5.69478 0
M  V30 9839 H 934.125 0.0190877 3.03694 0
M  V30 9840 H 931.71 0.0750943 1.49211 0
M  V30 9841 H 933.592 -2.39578 3.46671 0
M  V30 9842 H 932.267 -2.30332 2.2744 0
M  V30 9843 H 931.174 -0.483904 3.70957 0
M  V30 9844 H 932.507 -0.656185 4.87806 0
M  V30 9845 N 934.159 -1.57557 0.0367827 0
M  V30 9846 C 935.408 -1.91291 -0.639569 0
M  V30 9847 C 935.721 -0.915601 -1.72847 0
M  V30 9848 O 936.927 -1.14447 -2.46199 0
M  V30 9849 C 935.383 -3.39697 -1.18888 0
M  V30 9850 C 934.991 -4.47803 -0.132851 0
M  V30 9851 C 936.735 -3.82487 -1.8413 0
M  V30 9852 C 934.642 -5.87311 -0.694229 0
M  V30 9853 H 933.572 -0.713886 -0.242658 0
M  V30 9854 H 936.223 -1.83209 0.103332 0
M  V30 9855 H 934.605 -3.42736 -1.98363 0
M  V30 9856 H 935.779 -4.56334 0.640009 0
M  V30 9857 H 934.094 -4.14264 0.421264 0
M  V30 9858 H 936.691 -4.84076 -2.27101 0
M  V30 9859 H 937.034 -3.17959 -2.68716 0
M  V30 9860 H 937.567 -3.81903 -1.11332 0
M  V30 9861 H 934.306 -6.55401 0.113667 0
M  V30 9862 H 933.826 -5.82371 -1.4354 0
M  V30 9863 H 935.505 -6.36119 -1.1816 0
M  V30 9864 N 935.637 0.236453 -1.55816 0
M  V30 9865 C 936.877 0.970249 -1.79904 0
M  V30 9866 C 937.241 1.8212 -0.607965 0
M  V30 9867 O 938.442 2.58759 -0.727833 0
M  V30 9868 C 936.713 1.79938 -3.088 0
M  V30 9869 S 938.272 2.59084 -3.54148 0
M  V30 9870 H 935.09 0.32618 -0.631765 0
M  V30 9871 H 937.692 0.237147 -1.94056 0
M  V30 9872 H 936.396 1.16412 -3.93544 0
M  V30 9873 H 935.927 2.57504 -2.97414 0
M  V30 9874 H 937.942 3.82315 -3.16306 0
M  V30 9875 N 937.115 1.49373 0.502552 0
M  V30 9876 C 938.025 1.68659 1.63068 0
M  V30 9877 C 939.041 0.569182 1.64427 0
M  V30 9878 O 940.217 0.843695 1.82876 0
M  V30 9879 C 937.282 1.74745 2.99441 0
M  V30 9880 C 936.343 2.98311 3.08721 0
M  V30 9881 C 935.576 3.04097 4.38589 0
M  V30 9882 O 935.799 2.17519 5.27297 0
M  V30 9883 O 934.733 3.96544 4.52809 0
M  V30 9884 H 938.559 2.64226 1.49727 0
M  V30 9885 H 936.144 1.33096 0.67867 0
M  V30 9886 H 938.026 1.8111 3.80496 0
M  V30 9887 H 936.701 0.823565 3.13048 0
M  V30 9888 H 935.608 2.97465 2.2686 0
M  V30 9889 H 936.941 3.90174 3.00041 0
M  V30 9890 N 938.594 -0.753485 1.38421 0
M  V30 9891 C 939.541 -1.86723 1.35659 0
M  V30 9892 C 940.511 -1.64648 0.219121 0
M  V30 9893 O 941.696 -1.86313 0.411366 0
M  V30 9894 C 938.836 -3.24023 1.18758 0
M  V30 9895 C 937.949 -3.57928 2.41892 0
M  V30 9896 C 937.084 -4.84532 2.17721 0
M  V30 9897 C 936.123 -5.11224 3.36626 0
M  V30 9898 N 935.26 -6.29023 3.11889 0
M  V30 9899 H 940.1 -1.88419 2.30873 0
M  V30 9900 H 937.637 -0.920934 1.14705 0
M  V30 9901 H 939.595 -4.03252 1.06974 0
M  V30 9902 H 938.225 -3.21654 0.27182 0
M  V30 9903 H 937.277 -2.73541 2.64347 0
M  V30 9904 H 938.589 -3.73581 3.30513 0
M  V30 9905 H 937.743 -5.71704 2.03074 0
M  V30 9906 H 936.482 -4.71018 1.26465 0
M  V30 9907 H 935.487 -4.2252 3.51791 0
M  V30 9908 H 936.712 -5.26635 4.28757 0
M  V30 9909 H 934.658 -6.16832 2.2328 0
M  V30 9910 H 934.575 -6.45177 3.9406 0
M  V30 9911 H 935.843 -7.19083 3.00898 0
M  V30 9912 N 940.072 -1.23292 -0.981677 0
M  V30 9913 C 941.005 -0.956198 -2.07201 0
M  V30 9914 C 941.983 0.105027 -1.6226 0
M  V30 9915 O 943.167 -0.0289582 -1.88478 0
M  V30 9916 C 940.294 -0.44029 -3.35826 0
M  V30 9917 C 939.34 -1.48792 -3.99704 0
M  V30 9918 S 940.173 -3.06491 -4.39117 0
M  V30 9919 C 941.329 -2.56567 -5.70898 0
M  V30 9920 H 941.562 -1.87947 -2.30355 0
M  V30 9921 H 939.095 -1.06522 -1.1177 0
M  V30 9922 H 941.053 -0.149237 -4.10229 0
M  V30 9923 H 939.714 0.462045 -3.10683 0
M  V30 9924 H 938.907 -1.07706 -4.92357 0
M  V30 9925 H 938.509 -1.72826 -3.31673 0
M  V30 9926 H 940.801 -1.98508 -6.47766 0
M  V30 9927 H 941.744 -3.47755 -6.16824 0
M  V30 9928 H 942.152 -1.97465 -5.28836 0
M  V30 9929 N 941.55 1.18024 -1.04442 0
M  V30 9930 C 942.46 2.25436 -0.649276 0
M  V30 9931 C 943.476 1.70915 0.326189 0
M  V30 9932 O 944.652 2.00592 0.180174 0
M  V30 9933 C 941.717 3.46693 -0.0222558 0
M  V30 9934 C 940.778 4.16332 -1.0472 0
M  V30 9935 C 940.011 5.31799 -0.450011 0
M  V30 9936 O 940.234 5.65544 0.742717 0
M  V30 9937 O 939.168 5.90209 -1.18056 0
M  V30 9938 H 942.994 2.61508 -1.54426 0
M  V30 9939 H 940.579 1.25178 -0.81552 0
M  V30 9940 H 942.461 4.20132 0.326597 0
M  V30 9941 H 941.136 3.12436 0.84649 0
M  V30 9942 H 940.043 3.44944 -1.44792 0
M  V30 9943 H 941.376 4.54598 -1.88684 0
M  V30 9944 N 943.028 0.824394 1.34319 0
M  V30 9945 C 943.975 0.245282 2.29493 0
M  V30 9946 C 944.945 -0.630762 1.53657 0
M  V30 9947 O 946.13 -0.572094 1.82021 0
M  V30 9948 C 943.27 -0.585631 3.40095 0
M  V30 9949 C 942.383 0.312821 4.30866 0
M  V30 9950 C 941.518 -0.527801 5.28571 0
M  V30 9951 C 940.557 0.369946 6.10981 0
M  V30 9952 N 939.694 -0.43169 7.00772 0
M  V30 9953 H 944.534 1.06225 2.78425 0
M  V30 9954 H 942.071 0.53533 1.37013 0
M  V30 9955 H 944.029 -1.08271 4.02906 0
M  V30 9956 H 942.659 -1.3677 2.92393 0
M  V30 9957 H 941.711 0.928129 3.68904 0
M  V30 9958 H 943.023 1.00306 4.8861 0
M  V30 9959 H 942.177 -1.0893 5.96841 0
M  V30 9960 H 940.916 -1.25154 4.71368 0
M  V30 9961 H 939.921 0.943577 5.41643 0
M  V30 9962 H 941.146 1.09182 6.70266 0
M  V30 9963 H 939.092 -1.13908 6.46035 0
M  V30 9964 H 939.009 0.200133 7.55735 0
M  V30 9965 H 940.277 -0.975894 7.73367 0
M  V30 9966 N 944.506 -1.46559 0.579492 0
M  V30 9967 C 945.783 -1.956 -0.00287136 0
M  V30 9968 C 946.163 -1.52215 -1.46266 0
M  V30 9969 O 945.511 -0.771335 -2.15088 0
M  V30 9970 C 945.721 -3.48606 0.165824 0
M  V30 9971 C 947.069 -4.24588 0.0319807 0
M  V30 9972 O 948.093 -3.56075 0.094496 0
M  V30 9973 O 946.952 -5.46396 -0.106386 0
M  V30 9974 H 944.046 -0.825387 -0.0516274 0
M  V30 9975 H 946.592 -1.56858 0.647584 0
M  V30 9976 H 945.364 -3.7306 1.18076 0
M  V30 9977 H 944.987 -3.94169 -0.521212 0
M  V30 9978 N 945.984 -0.3171 -1.54377 0
M  V30 9979 C 947.232 0.286842 -2.00054 0
M  V30 9980 C 947.553 1.53161 -1.20692 0
M  V30 9981 O 946.823 1.93479 -0.307045 0
M  V30 9982 H 945.403 0.108979 -0.739008 0
M  V30 9983 H 948.065 -0.432152 -1.90049 0
M  V30 9984 H 947.161 0.547729 -3.07256 0
M  V30 9985 N 947.462 1.57535 -0.0451378 0
M  V30 9986 C 948.394 2.08109 0.960372 0
M  V30 9987 C 949.407 1.0077 1.27864 0
M  V30 9988 O 950.596 1.28351 1.24049 0
M  V30 9989 C 947.696 2.50414 2.28355 0
M  V30 9990 C 946.869 3.8102 2.14808 0
M  V30 9991 C 945.928 4.09702 3.30198 0
M  V30 9992 O 944.954 4.79715 3.0637 0
M  V30 9993 N 946.156 3.61138 4.54489 0
M  V30 9994 H 948.921 2.94999 0.528752 0
M  V30 9995 H 946.482 1.61283 0.141248 0
M  V30 9996 H 948.474 2.66683 3.04405 0
M  V30 9997 H 947.044 1.68805 2.63104 0
M  V30 9998 H 946.264 3.74392 1.23387 0
M  V30 9999 H 947.552 4.66559 2.02978 0
M  V30 10000 H 946.95 3.04527 4.76739 0
M  V30 10001 H 945.507 3.82656 5.27653 0
M  V30 10002 N 948.94 -0.228186 1.55939 0
M  V30 10003 C 949.87 -1.28607 1.94891 0
M  V30 10004 C 950.851 -1.49236 0.816245 0
M  V30 10005 O 952.036 -1.61531 1.07803 0
M  V30 10006 C 949.166 -2.63719 2.25986 0
M  V30 10007 C 948.12 -2.57757 3.4168 0
M  V30 10008 C 947.446 -3.96837 3.58364 0
M  V30 10009 C 948.746 -2.13116 4.76843 0
M  V30 10010 H 950.44 -0.962531 2.83506 0
M  V30 10011 H 947.986 -0.461577 1.36402 0
M  V30 10012 H 949.939 -3.37878 2.51826 0
M  V30 10013 H 948.663 -2.97747 1.34217 0
M  V30 10014 H 947.322 -1.86055 3.15878 0
M  V30 10015 H 946.97 -4.28162 2.63982 0
M  V30 10016 H 946.67 -3.93731 4.36176 0
M  V30 10017 H 948.194 -4.72668 3.86545 0
M  V30 10018 H 949.608 -2.77015 5.01932 0
M  V30 10019 H 948.005 -2.21083 5.57891 0
M  V30 10020 H 949.075 -1.08326 4.72645 0
M  V30 10021 N 950.418 -1.49637 -0.494624 0
M  V30 10022 C 951.328 -1.69522 -1.62172 0
M  V30 10023 C 952.344 -0.577894 -1.64123 0
M  V30 10024 O 953.52 -0.853382 -1.82426 0
M  V30 10025 C 950.585 -1.7633 -2.9851 0
M  V30 10026 C 949.646 -2.99944 -3.07135 0
M  V30 10027 C 948.879 -3.06419 -4.36971 0
M  V30 10028 O 949.102 -2.20312 -5.26136 0
M  V30 10029 O 948.036 -3.9894 -4.507 0
M  V30 10030 H 951.862 -2.65017 -1.48324 0
M  V30 10031 H 949.447 -1.33454 -0.671603 0
M  V30 10032 H 951.329 -1.83125 -3.7953 0
M  V30 10033 H 950.004 -0.840155 -3.12607 0
M  V30 10034 H 948.911 -2.98664 -2.2528 0
M  V30 10035 H 950.244 -3.9176 -2.97968 0
M  V30 10036 N 951.896 0.746133 -1.38819 0
M  V30 10037 C 952.806 1.89063 -1.38897 0
M  V30 10038 C 953.822 1.71648 -0.28513 0
M  V30 10039 O 954.998 1.94443 -0.524783 0
M  V30 10040 C 952.063 3.24523 -1.22007 0
M  V30 10041 C 951.124 3.54411 -2.42263 0
M  V30 10042 C 950.357 4.83408 -2.26169 0
M  V30 10043 O 950.58 5.56325 -1.25931 0
M  V30 10044 O 949.514 5.12943 -3.14918 0
M  V30 10045 H 953.34 1.91951 -2.35347 0
M  V30 10046 H 950.925 0.892433 -1.19816 0
M  V30 10047 H 952.807 4.05496 -1.14677 0
M  V30 10048 H 951.482 3.2243 -0.286455 0
M  V30 10049 H 950.389 2.73569 -2.55168 0
M  V30 10050 H 951.722 3.61273 -3.3428 0
M  V30 10051 N 953.375 1.23811 0.975125 0
M  V30 10052 C 954.338 1.02505 2.05001 0
M  V30 10053 C 955.338 -0.0150084 1.60793 0
M  V30 10054 O 956.528 0.225246 1.72738 0
M  V30 10055 C 953.66 0.552087 3.364 0
M  V30 10056 H 954.853 1.979 2.25335 0
M  V30 10057 H 952.406 1.05929 1.1493 0
M  V30 10058 H 953.141 -0.405394 3.21756 0
M  V30 10059 H 952.926 1.30267 3.69828 0
M  V30 10060 H 954.416 0.423828 4.15444 0
M  V30 10061 N 954.853 -1.17469 1.05066 0
M  V30 10062 C 956.264 -1.69334 0.786304 0
M  V30 10063 C 956.615 -1.83604 -0.691671 0
M  V30 10064 O 955.74 -1.52269 -1.53763 0
M  V30 10065 C 956.335 -3.07572 1.42074 0
M  V30 10066 C 954.894 -3.56609 1.20446 0
M  V30 10067 C 954.041 -2.329 1.50508 0
M  V30 10068 H 956.992 -1.02003 1.21577 0
M  V30 10069 H 957.013 -3.71352 0.829334 0
M  V30 10070 H 956.525 -2.97154 2.49642 0
M  V30 10071 H 954.626 -3.72306 0.147968 0
M  V30 10072 H 954.739 -4.39446 1.90852 0
M  V30 10073 H 953.103 -2.37305 0.925124 0
M  V30 10074 H 953.886 -2.25093 2.59207 0
M  V30 10075 N 956.331 -0.831506 -1.3388 0
M  V30 10076 C 957.742 -0.481375 -1.80388 0
M  V30 10077 C 958.093 0.998993 -1.68863 0
M  V30 10078 O 957.218 1.77795 -1.2336 0
M  V30 10079 C 957.813 -0.86699 -3.27519 0
M  V30 10080 C 956.372 -0.569105 -3.72073 0
M  V30 10081 C 955.519 -1.07929 -2.55434 0
M  V30 10082 H 958.47 -1.02089 -1.21505 0
M  V30 10083 H 958.491 -0.174128 -3.80101 0
M  V30 10084 H 958.003 -1.94447 -3.35875 0
M  V30 10085 H 956.104 0.498607 -3.69249 0
M  V30 10086 H 956.217 -1.11918 -4.65845 0
M  V30 10087 H 954.581 -0.500465 -2.49735 0
M  V30 10088 H 955.364 -2.16339 -2.66556 0
M  V30 10089 N 957.809 1.4625 -0.587256 0
M  V30 10090 C 959.037 2.06744 -0.08033 0
M  V30 10091 C 959.452 1.43527 1.2266 0
M  V30 10092 O 958.809 0.542168 1.74261 0
M  V30 10093 C 958.86 3.61394 0.0873469 0
M  V30 10094 O 958.581 4.22247 -1.16785 0
M  V30 10095 C 960.082 4.38828 0.628095 0
M  V30 10096 H 957.302 0.668354 -0.0595301 0
M  V30 10097 H 959.846 1.87808 -0.809217 0
M  V30 10098 H 958.001 3.79742 0.766473 0
M  V30 10099 H 958.415 5.15176 -0.984565 0
M  V30 10100 H 959.889 5.47613 0.694583 0
M  V30 10101 H 960.366 4.07188 1.64606 0
M  V30 10102 H 960.972 4.25297 -0.0163115 0
M  V30 10103 N 959.287 0.325282 1.54207 0
M  V30 10104 C 960.235 -0.5554 2.25872 0
M  V30 10105 C 961.229 -1.11714 1.27344 0
M  V30 10106 O 962.435 -1.06498 1.45115 0
M  V30 10107 H 958.81 -0.19776 0.725531 0
M  V30 10108 H 960.781 0.0712858 2.98315 0
M  V30 10109 C 959.53 -1.70379 3.03095 0
M  V30 10110 H 958.853 -1.2808 3.78729 0
M  V30 10111 H 960.293 -2.29556 3.56483 0
M  V30 10112 C 958.752 -2.62242 2.11496 0
M  V30 10113 O 959.282 -3.64003 1.69895 0
M  V30 10114 N 957.488 -2.30515 1.7695 0
M  V30 10115 H 957.035 -1.47805 2.10978 0
M  V30 10116 H 956.993 -2.92241 1.15942 0
M  V30 10117 N 960.765 -1.57509 0.0534917 0
M  V30 10118 C 962.176 -1.80374 -0.481867 0
M  V30 10119 C 962.527 -0.965917 -1.70776 0
M  V30 10120 O 961.652 -0.183167 -2.15623 0
M  V30 10121 C 962.247 -3.27146 -0.880978 0
M  V30 10122 C 960.806 -3.50921 -1.3613 0
M  V30 10123 C 959.953 -2.75237 -0.337611 0
M  V30 10124 H 962.904 -1.56222 0.279353 0
M  V30 10125 H 962.925 -3.38193 -1.74373 0
M  V30 10126 H 962.437 -3.88098 0.011441 0
M  V30 10127 H 960.538 -2.95251 -2.27283 0
M  V30 10128 H 960.651 -4.59632 -1.35186 0
M  V30 10129 H 959.015 -2.41444 -0.810991 0
M  V30 10130 H 959.798 -3.38918 0.546763 0
M  V30 10131 N 962.243 0.219913 -1.56058 0
M  V30 10132 C 963.473 0.959521 -1.82967 0
M  V30 10133 C 963.881 1.78382 -0.630602 0
M  V30 10134 O 963.224 1.79062 0.410203 0
M  V30 10135 C 963.286 1.92481 -3.0363 0
M  V30 10136 C 962.95 1.28487 -4.38566 0
M  V30 10137 C 963.947 0.673946 -5.15513 0
M  V30 10138 C 961.632 1.29615 -4.85289 0
M  V30 10139 C 963.626 0.0828324 -6.37346 0
M  V30 10140 C 961.313 0.701191 -6.07064 0
M  V30 10141 C 962.311 0.0955877 -6.82933 0
M  V30 10142 O 961.999 -0.490109 -8.02405 0
M  V30 10143 H 961.731 0.286709 -0.612188 0
M  V30 10144 H 964.285 0.239761 -2.03996 0
M  V30 10145 H 962.515 2.6836 -2.78424 0
M  V30 10146 H 964.204 2.5301 -3.17397 0
M  V30 10147 H 964.97 0.657548 -4.80522 0
M  V30 10148 H 960.849 1.75691 -4.26208 0
M  V30 10149 H 964.393 -0.390482 -6.96506 0
M  V30 10150 H 960.29 0.715007 -6.41528 0
M  V30 10151 H 961.058 -0.384588 -8.17596 0
M  V30 10152 N 963.721 1.49897 0.486681 0
M  V30 10153 C 964.669 1.68125 1.60738 0
M  V30 10154 C 965.663 0.547097 1.60322 0
M  V30 10155 O 966.869 0.727153 1.64659 0
M  V30 10156 H 963.244 0.530391 0.533094 0
M  V30 10157 H 965.215 2.62165 1.42521 0
M  V30 10158 C 963.964 1.77827 2.98786 0
M  V30 10159 H 963.287 2.6448 2.99818 0
M  V30 10160 H 964.727 1.94611 3.76699 0
M  V30 10161 C 963.186 0.526287 3.32764 0
M  V30 10162 O 963.716 -0.341607 4.00245 0
M  V30 10163 N 961.922 0.384947 2.88039 0
M  V30 10164 H 961.469 1.09222 2.33299 0
M  V30 10165 H 961.427 -0.451618 3.11139 0
M  V30 10166 N 965.199 -0.738761 1.39212 0
M  V30 10167 C 966.427 -1.52801 1.39497 0
M  V30 10168 C 966.842 -1.88797 -0.0114917 0
M  V30 10169 O 966.199 -1.53835 -0.981887 0
M  V30 10170 C 966.25 -2.81793 2.2644 0
M  V30 10171 O 965.971 -2.47328 3.61608 0
M  V30 10172 C 967.472 -3.75844 2.35067 0
M  V30 10173 H 964.692 -0.472322 0.476606 0
M  V30 10174 H 967.236 -0.913153 1.8298 0
M  V30 10175 H 965.391 -3.3962 1.8638 0
M  V30 10176 H 965.805 -3.30162 4.07545 0
M  V30 10177 H 967.279 -4.6326 3.00157 0
M  V30 10178 H 967.756 -4.17329 1.3687 0
M  V30 10179 H 968.362 -3.23937 2.75581 0
M  V30 10180 N 966.677 -1.24326 -0.968545 0
M  V30 10181 C 968.088 -1.07561 -1.52603 0
M  V30 10182 C 968.439 0.353245 -1.92994 0
M  V30 10183 O 967.564 1.24151 -1.77244 0
M  V30 10184 C 968.159 -1.94634 -2.77314 0
M  V30 10185 C 966.718 -1.82095 -3.29421 0
M  V30 10186 C 965.865 -1.8962 -2.02335 0
M  V30 10187 H 968.816 -1.37815 -0.786932 0
M  V30 10188 H 968.837 -1.47812 -3.50616 0
M  V30 10189 H 968.349 -2.98621 -2.47885 0
M  V30 10190 H 966.45 -0.809376 -3.63703 0
M  V30 10191 H 966.563 -2.66142 -3.98378 0
M  V30 10192 H 964.927 -1.33339 -2.17009 0
M  V30 10193 H 965.71 -2.95185 -1.75273 0
M  V30 10194 N 968.156 1.1691 -1.05688 0
M  V30 10195 C 969.384 1.91204 -0.790485 0
M  V30 10196 C 969.799 1.77095 0.654434 0
M  V30 10197 O 969.156 1.11146 1.44751 0
M  V30 10198 C 969.207 3.42108 -1.16808 0
M  V30 10199 O 968.928 3.55788 -2.55629 0
M  V30 10200 C 970.429 4.33466 -0.92855 0
M  V30 10201 H 967.649 0.606508 -0.287035 0
M  V30 10202 H 970.193 1.48225 -1.40888 0
M  V30 10203 H 968.348 3.82814 -0.59434 0
M  V30 10204 H 968.762 4.49321 -2.70575 0
M  V30 10205 H 970.236 5.37836 -1.24245 0
M  V30 10206 H 970.713 4.38989 0.136016 0
M  V30 10207 H 971.319 3.98481 -1.48638 0
M  V30 10208 N 969.634 0.838594 1.33437 0
M  V30 10209 C 970.881 0.434169 1.97791 0
M  V30 10210 C 971.209 -1.00652 1.66431 0
M  V30 10211 O 970.464 -1.71848 0.936309 0
M  V30 10212 C 970.763 0.601425 3.52303 0
M  V30 10213 C 970.429 2.01017 4.03612 0
M  V30 10214 C 969.091 2.39551 4.17336 0
M  V30 10215 C 971.443 2.93035 4.31022 0
M  V30 10216 C 968.771 3.69406 4.55802 0
M  V30 10217 C 971.123 4.22372 4.7094 0
M  V30 10218 C 969.787 4.60862 4.82869 0
M  V30 10219 H 969.057 0.158874 0.723768 0
M  V30 10220 H 971.704 1.06556 1.59116 0
M  V30 10221 H 970.009 -0.113284 3.91636 0
M  V30 10222 H 971.706 0.268798 4.00098 0
M  V30 10223 H 968.296 1.7009 3.93405 0
M  V30 10224 H 972.48 2.64503 4.19943 0
M  V30 10225 H 967.736 3.99033 4.63231 0
M  V30 10226 H 971.91 4.93749 4.91106 0
M  V30 10227 H 969.537 5.6153 5.12433 0
M  V30 10228 N 971.112 -1.45937 0.595003 0
M  V30 10229 C 972.075 -2.2888 -0.121102 0
M  V30 10230 C 973.075 -1.39075 -0.807149 0
M  V30 10231 O 974.265 -1.61326 -0.657228 0
M  V30 10232 C 971.397 -3.19778 -1.1813 0
M  V30 10233 H 972.59 -2.93673 0.607968 0
M  V30 10234 H 970.143 -1.5225 0.353495 0
M  V30 10235 H 970.878 -2.59759 -1.94154 0
M  V30 10236 H 970.663 -3.85914 -0.693724 0
M  V30 10237 H 972.153 -3.82176 -1.68319 0
M  V30 10238 N 972.59 -0.333456 -1.54032 0
M  V30 10239 C 973.839 0.267081 -1.99924 0
M  V30 10240 C 974.152 1.52463 -1.22534 0
M  V30 10241 O 975.358 2.20178 -1.58852 0
M  V30 10242 C 973.814 0.526456 -3.56029 0
M  V30 10243 C 973.422 -0.714607 -4.42264 0
M  V30 10244 C 975.166 1.0864 -4.10363 0
M  V30 10245 C 973.073 -0.42659 -5.89859 0
M  V30 10246 H 972.003 0.103577 -0.746852 0
M  V30 10247 H 974.654 -0.447218 -1.77967 0
M  V30 10248 H 973.036 1.3012 -3.74012 0
M  V30 10249 H 974.21 -1.48968 -4.36056 0
M  V30 10250 H 972.525 -1.19547 -3.9887 0
M  V30 10251 H 975.122 1.31668 -5.18235 0
M  V30 10252 H 975.465 2.03884 -3.62956 0
M  V30 10253 H 975.998 0.37261 -3.96051 0
M  V30 10254 H 972.737 -1.34847 -6.4148 0
M  V30 10255 H 972.257 0.310588 -5.98995 0
M  V30 10256 H 973.936 -0.0400807 -6.46988 0
M  V30 10257 N 974.068 1.57479 -0.061844 0
M  V30 10258 C 975.015 2.12152 0.908862 0
M  V30 10259 C 975.985 1.03152 1.30188 0
M  V30 10260 O 977.17 1.3076 1.38948 0
M  V30 10261 C 974.31 2.6796 2.17465 0
M  V30 10262 C 973.423 3.91083 1.83517 0
M  V30 10263 C 972.558 4.35169 3.04633 0
M  V30 10264 C 971.597 5.50964 2.66655 0
M  V30 10265 N 970.734 5.90055 3.80499 0
M  V30 10266 H 975.574 2.94797 0.435743 0
M  V30 10267 H 973.111 1.45686 0.203445 0
M  V30 10268 H 975.069 2.98421 2.91548 0
M  V30 10269 H 973.699 1.88096 2.62335 0
M  V30 10270 H 972.751 3.67146 0.995381 0
M  V30 10271 H 974.063 4.75214 1.51569 0
M  V30 10272 H 973.217 4.67239 3.87005 0
M  V30 10273 H 971.956 3.49871 3.39767 0
M  V30 10274 H 970.961 5.18556 1.82703 0
M  V30 10275 H 972.186 6.37986 2.32702 0
M  V30 10276 H 970.132 5.07708 4.15414 0
M  V30 10277 H 970.049 6.68903 3.52285 0
M  V30 10278 H 971.317 6.26744 4.63479 0
M  V30 10279 N 975.546 -0.211634 1.56173 0
M  V30 10280 C 976.493 -1.26231 1.93221 0
M  V30 10281 C 977.463 -1.46076 0.790641 0
M  V30 10282 O 978.648 -1.59482 1.04739 0
M  V30 10283 C 975.788 -2.60559 2.26281 0
M  V30 10284 C 974.901 -2.48431 3.5342 0
M  V30 10285 C 974.036 -3.7535 3.7588 0
M  V30 10286 C 973.075 -3.57985 4.96501 0
M  V30 10287 N 972.212 -4.76877 5.15299 0
M  V30 10288 H 977.052 -0.939367 2.82807 0
M  V30 10289 H 974.589 -0.452511 1.39967 0
M  V30 10290 H 976.547 -3.38796 2.43461 0
M  V30 10291 H 975.177 -2.9093 1.39855 0
M  V30 10292 H 974.229 -1.61577 3.44379 0
M  V30 10293 H 975.541 -2.31526 4.41811 0
M  V30 10294 H 974.695 -4.62029 3.9321 0
M  V30 10295 H 973.434 -3.95191 2.85788 0
M  V30 10296 H 972.439 -2.69691 4.79111 0
M  V30 10297 H 973.664 -3.39605 5.88086 0
M  V30 10298 H 971.61 -4.97013 4.28152 0
M  V30 10299 H 971.527 -4.62735 5.9784 0
M  V30 10300 H 972.795 -5.64954 5.37073 0
M  V30 10301 N 977.024 -1.50153 -0.478725 0
M  V30 10302 C 977.971 -1.68458 -1.57767 0
M  V30 10303 C 978.941 -0.5259 -1.57555 0
M  V30 10304 O 980.126 -0.755574 -1.75202 0
M  V30 10305 C 977.266 -1.77772 -2.95789 0
M  V30 10306 C 976.379 -3.05092 -3.05848 0
M  V30 10307 C 975.514 -3.05247 -4.34739 0
M  V30 10308 C 974.553 -4.27053 -4.38512 0
M  V30 10309 N 973.69 -4.24991 -5.58862 0
M  V30 10310 H 978.53 -2.62282 -1.41464 0
M  V30 10311 H 976.067 -1.30023 -0.687921 0
M  V30 10312 H 978.025 -1.81152 -3.75819 0
M  V30 10313 H 976.655 -0.873944 -3.10744 0
M  V30 10314 H 975.707 -3.11219 -2.1874 0
M  V30 10315 H 977.019 -3.95075 -3.04495 0
M  V30 10316 H 976.173 -3.07314 -5.23109 0
M  V30 10317 H 974.912 -2.13081 -4.38689 0
M  V30 10318 H 973.917 -4.25206 -3.4854 0
M  V30 10319 H 975.142 -5.20437 -4.36259 0
M  V30 10320 H 973.088 -3.35674 -5.63612 0
M  V30 10321 H 973.005 -5.08734 -5.59219 0
M  V30 10322 H 974.273 -4.31193 -6.49379 0
M  V30 10323 N 978.502 0.731368 -1.39602 0
M  V30 10324 C 979.779 1.48308 -1.27531 0
M  V30 10325 C 980.159 2.10795 0.113482 0
M  V30 10326 O 979.507 1.98886 1.12501 0
M  V30 10327 C 979.717 2.53156 -2.40235 0
M  V30 10328 C 981.065 3.19436 -2.79725 0
M  V30 10329 O 982.089 2.6347 -2.39712 0
M  V30 10330 O 980.948 4.20714 -3.48801 0
M  V30 10331 H 978.042 0.658753 -0.499973 0
M  V30 10332 H 980.588 0.764884 -1.51485 0
M  V30 10333 H 979.36 2.05387 -3.33064 0
M  V30 10334 H 978.983 3.3253 -2.17966 0
M  V30 10335 N 979.98 1.24838 0.961938 0
M  V30 10336 C 980.927 1.04582 2.05745 0
M  V30 10337 C 981.897 -0.0427281 1.66045 0
M  V30 10338 O 983.082 0.113026 1.90465 0
M  V30 10339 C 980.222 0.66284 3.38675 0
M  V30 10340 C 979.335 1.82548 3.91536 0
M  V30 10341 C 978.47 1.38753 5.12758 0
M  V30 10342 C 977.509 2.51976 5.5783 0
M  V30 10343 N 976.646 2.09009 6.70268 0
M  V30 10344 H 981.486 1.98343 2.22405 0
M  V30 10345 H 979.023 0.987822 1.08998 0
M  V30 10346 H 980.981 0.421788 4.15062 0
M  V30 10347 H 979.611 -0.237776 3.21923 0
M  V30 10348 H 978.663 2.18004 3.11735 0
M  V30 10349 H 979.975 2.67601 4.20941 0
M  V30 10350 H 979.129 1.1057 5.96539 0
M  V30 10351 H 977.868 0.507618 4.85051 0
M  V30 10352 H 976.873 2.80912 4.72619 0
M  V30 10353 H 978.098 3.40534 5.87549 0
M  V30 10354 H 976.044 1.23423 6.44285 0
M  V30 10355 H 975.961 2.87613 6.99153 0
M  V30 10356 H 977.229 1.83981 7.57477 0
M  V30 10357 N 981.458 -1.16348 1.06306 0
M  V30 10358 C 982.406 -2.22799 0.668087 0
M  V30 10359 C 983.4 -1.66426 -0.316051 0
M  V30 10360 O 984.606 -1.79089 -0.180902 0
M  V30 10361 H 980.981 -0.725487 0.19792 0
M  V30 10362 H 982.952 -2.53401 1.57577 0
M  V30 10363 C 981.701 -3.47628 0.0706797 0
M  V30 10364 H 981.024 -3.9132 0.819064 0
M  V30 10365 H 982.464 -4.23666 -0.16816 0
M  V30 10366 C 980.923 -3.15343 -1.18577 0
M  V30 10367 O 981.453 -3.31158 -2.27371 0
M  V30 10368 N 979.659 -2.69472 -1.08779 0
M  V30 10369 H 979.206 -2.56803 -0.202447 0
M  V30 10370 H 979.164 -2.48244 -1.92931 0
M  V30 10371 N 982.937 -0.845659 -1.3299 0
M  V30 10372 C 983.884 -0.281761 -2.29074 0
M  V30 10373 C 984.854 0.606237 -1.54641 0
M  V30 10374 O 986.039 0.543063 -1.82908 0
M  V30 10375 C 983.179 0.531451 -3.40983 0
M  V30 10376 C 982.292 -0.381328 -4.30314 0
M  V30 10377 C 981.427 0.443643 -5.29344 0
M  V30 10378 C 980.466 -0.467101 -6.10315 0
M  V30 10379 N 979.603 0.320148 -7.0137 0
M  V30 10380 H 984.443 -1.10641 -2.76699 0
M  V30 10381 H 981.98 -0.55706 -1.36144 0
M  V30 10382 H 983.938 1.01848 -4.04577 0
M  V30 10383 H 982.568 1.32101 -2.94532 0
M  V30 10384 H 981.62 -0.986701 -3.6738 0
M  V30 10385 H 982.932 -1.08067 -4.86953 0
M  V30 10386 H 982.086 0.994212 -5.98498 0
M  V30 10387 H 980.825 1.17639 -4.73299 0
M  V30 10388 H 979.83 -1.02963 -5.40073 0
M  V30 10389 H 981.055 -1.19832 -6.68444 0
M  V30 10390 H 979.001 1.03615 -6.47765 0
M  V30 10391 H 978.918 -0.320338 -7.55321 0
M  V30 10392 H 980.186 0.852735 -7.74822 0
M  V30 10393 N 984.415 1.45619 -0.602734 0
M  V30 10394 C 985.661 2.03131 -0.104587 0
M  V30 10395 C 986.016 1.4634 1.2491 0
M  V30 10396 O 985.309 0.626733 1.8106 0
M  V30 10397 C 985.503 3.574 -0.00157909 0
M  V30 10398 C 985.332 4.29155 -1.34373 0
M  V30 10399 C 984.102 4.67272 -1.92316 0
M  V30 10400 C 986.3 4.61422 -2.27143 0
M  V30 10401 N 984.282 5.23864 -3.20062 0
M  V30 10402 C 985.653 5.18796 -3.39485 0
M  V30 10403 C 987.708 4.4336 -2.26575 0
M  V30 10404 C 986.411 5.60012 -4.51419 0
M  V30 10405 C 988.437 4.85605 -3.37553 0
M  V30 10406 C 987.799 5.43068 -4.48617 0
M  V30 10407 H 983.898 0.777739 -0.0815251 0
M  V30 10408 H 986.482 1.77504 -0.800024 0
M  V30 10409 H 984.653 3.82698 0.663068 0
M  V30 10410 H 986.385 4.01565 0.502784 0
M  V30 10411 H 983.14 4.50671 -1.45577 0
M  V30 10412 H 983.564 5.56664 -3.85298 0
M  V30 10413 H 988.206 3.98251 -1.41971 0
M  V30 10414 H 985.924 6.04089 -5.36751 0
M  V30 10415 H 989.51 4.73365 -3.38255 0
M  V30 10416 H 988.39 5.75156 -5.33072 0
M  V30 10417 N 985.893 0.34162 1.53853 0
M  V30 10418 C 987.309 -0.0103769 1.59597 0
M  V30 10419 C 987.509 -1.48897 1.35764 0
M  V30 10420 O 986.565 -2.24743 1.15095 0
M  V30 10421 C 987.878 0.424067 2.97695 0
M  V30 10422 C 989.426 0.376247 3.1073 0
M  V30 10423 C 989.901 0.786129 4.51203 0
M  V30 10424 N 991.392 0.74024 4.57247 0
M  V30 10425 C 992.127 1.02937 5.64085 0
M  V30 10426 N 991.623 1.38655 6.78783 0
M  V30 10427 N 993.416 0.953734 5.5395 0
M  V30 10428 H 985.567 1.30477 1.67599 0
M  V30 10429 H 987.83 0.531753 0.78482 0
M  V30 10430 H 987.536 1.45493 3.20195 0
M  V30 10431 H 987.41 -0.201713 3.7666 0
M  V30 10432 H 989.797 -0.645441 2.87955 0
M  V30 10433 H 989.878 1.0372 2.33828 0
M  V30 10434 H 989.522 1.80582 4.74713 0
M  V30 10435 H 989.452 0.102671 5.265 0
M  V30 10436 H 991.943 0.476763 3.7488 0
M  V30 10437 H 992.256 1.59206 7.56223 0
M  V30 10438 H 990.601 1.42498 6.80235 0
M  V30 10439 H 993.792 0.674044 4.63222 0
M  V30 10440 H 993.965 1.18241 6.37121 0
M  V30 10441 N 987.371 -1.57444 0.0701946 0
M  V30 10442 C 988.304 -2.08232 -0.93352 0
M  V30 10443 C 989.282 -0.987073 -1.29212 0
M  V30 10444 O 990.466 -1.26035 -1.40169 0
M  V30 10445 C 987.593 -2.53866 -2.2421 0
M  V30 10446 C 986.639 -3.7481 -2.03518 0
M  V30 10447 S 987.472 -5.1958 -1.29601 0
M  V30 10448 C 988.628 -5.68544 -2.61742 0
M  V30 10449 H 988.861 -2.93042 -0.501354 0
M  V30 10450 H 986.394 -1.53741 -0.142533 0
M  V30 10451 H 988.352 -2.80818 -2.99419 0
M  V30 10452 H 987.013 -1.69327 -2.64551 0
M  V30 10453 H 986.206 -4.04724 -3.00358 0
M  V30 10454 H 985.808 -3.48222 -1.36445 0
M  V30 10455 H 988.1 -5.75291 -3.57836 0
M  V30 10456 H 989.043 -6.67459 -2.3644 0
M  V30 10457 H 989.451 -4.96354 -2.68873 0
M  V30 10458 N 988.849 0.203349 -1.56283 0
M  V30 10459 C 989.779 1.2549 -1.96912 0
M  V30 10460 C 990.76 1.47919 -0.839884 0
M  V30 10461 O 991.945 1.59795 -1.10359 0
M  V30 10462 C 989.075 2.6009 -2.30153 0
M  V30 10463 C 988.029 2.52289 -3.45738 0
M  V30 10464 C 987.355 3.91086 -3.64632 0
M  V30 10465 C 988.655 2.05503 -4.80173 0
M  V30 10466 H 990.349 0.917306 -2.85002 0
M  V30 10467 H 987.895 0.439818 -1.37119 0
M  V30 10468 H 989.848 3.33829 -2.5717 0
M  V30 10469 H 988.572 2.95574 -1.38937 0
M  V30 10470 H 987.231 1.81006 -3.18798 0
M  V30 10471 H 986.879 4.23908 -2.7076 0
M  V30 10472 H 986.579 3.86742 -4.42385 0
M  V30 10473 H 988.103 4.66459 -3.94016 0
M  V30 10474 H 989.517 2.68995 -5.06275 0
M  V30 10475 H 987.914 2.1218 -5.61337 0
M  V30 10476 H 988.984 1.00793 -4.74309 0
M  V30 10477 N 990.327 1.50405 0.470755 0
M  V30 10478 C 991.576 1.60652 1.21959 0
M  V30 10479 C 991.889 0.312521 1.93087 0
M  V30 10480 O 993.095 0.293901 2.69905 0
M  V30 10481 C 991.551 2.83581 2.21607 0
M  V30 10482 C 991.159 4.19858 1.5628 0
M  V30 10483 C 992.903 3.03173 2.9713 0
M  V30 10484 C 990.81 5.33974 2.54217 0
M  V30 10485 H 989.74 0.598264 0.458907 0
M  V30 10486 H 992.391 1.76836 0.490041 0
M  V30 10487 H 990.773 2.60957 2.97855 0
M  V30 10488 H 991.947 4.52738 0.85819 0
M  V30 10489 H 990.262 4.05873 0.930366 0
M  V30 10490 H 992.859 3.856 3.70428 0
M  V30 10491 H 993.202 2.14914 3.56536 0
M  V30 10492 H 993.735 3.2598 2.27995 0
M  V30 10493 H 990.474 6.24388 1.99549 0
M  V30 10494 H 989.994 5.05511 3.22829 0
M  V30 10495 H 991.673 5.64561 3.16039 0
M  V30 10496 N 991.805 -0.723954 1.39988 0
M  V30 10497 C 993.082 -1.4763 1.28316 0
M  V30 10498 C 993.462 -2.10852 -0.102302 0
M  V30 10499 O 992.81 -1.9948 -1.11445 0
M  V30 10500 C 993.02 -2.51878 2.41574 0
M  V30 10501 C 994.368 -3.17948 2.81415 0
M  V30 10502 O 995.392 -2.62195 2.41106 0
M  V30 10503 O 994.251 -4.18858 3.51027 0
M  V30 10504 H 991.345 -0.656092 0.50346 0
M  V30 10505 H 993.891 -0.75684 1.51888 0
M  V30 10506 H 992.663 -2.03618 3.34149 0
M  V30 10507 H 992.286 -3.3137 2.19727 0
M  V30 10508 N 993.283 -1.25346 -0.955304 0
M  V30 10509 C 994.53 -1.10055 -1.69983 0
M  V30 10510 C 994.858 0.358586 -1.91166 0
M  V30 10511 O 994.113 1.28071 -1.47974 0
M  V30 10512 C 994.412 -1.7993 -3.08804 0
M  V30 10513 C 994.078 -3.29851 -3.07424 0
M  V30 10514 C 992.74 -3.7075 -3.06754 0
M  V30 10515 C 995.092 -4.25636 -3.00805 0
M  V30 10516 C 992.42 -5.05847 -2.97214 0
M  V30 10517 C 994.772 -5.60756 -2.92806 0
M  V30 10518 C 993.436 -6.00984 -2.90472 0
M  V30 10519 H 992.706 -0.402718 -0.622012 0
M  V30 10520 H 995.353 -1.5561 -1.11614 0
M  V30 10521 H 993.658 -1.26803 -3.70713 0
M  V30 10522 H 995.355 -1.65551 -3.65231 0
M  V30 10523 H 991.945 -2.97308 -3.08716 0
M  V30 10524 H 996.129 -3.9503 -3.00441 0
M  V30 10525 H 991.385 -5.36196 -2.93775 0
M  V30 10526 H 995.559 -6.34671 -2.86645 0
M  V30 10527 H 993.186 -7.05626 -2.82835 0
M  V30 10528 N 994.761 1.15782 -1.06922 0
M  V30 10529 C 996.177 1.38454 -0.793896 0
M  V30 10530 C 996.377 1.92238 0.603875 0
M  V30 10531 O 995.433 2.1253 1.36335 0
M  V30 10532 C 996.746 2.3595 -1.86408 0
M  V30 10533 C 998.294 2.49622 -1.88833 0
M  V30 10534 C 998.769 3.50406 -2.94923 0
M  V30 10535 N 1000.26 3.57938 -2.93997 0
M  V30 10536 C 1001 4.35728 -3.72731 0
M  V30 10537 N 1000.49 5.16888 -4.61301 0
M  V30 10538 N 1002.28 4.30774 -3.61096 0
M  V30 10539 H 994.435 0.792101 -1.97077 0
M  V30 10540 H 996.698 0.410779 -0.85438 0
M  V30 10541 H 996.404 2.03537 -2.86819 0
M  V30 10542 H 996.278 3.35677 -1.72049 0
M  V30 10543 H 998.665 2.81335 -0.890759 0
M  V30 10544 H 998.746 1.49909 -2.0727 0
M  V30 10545 H 998.39 3.19429 -3.94877 0
M  V30 10546 H 998.32 4.49864 -2.73734 0
M  V30 10547 H 1000.81 3.00007 -2.29791 0
M  V30 10548 H 1001.12 5.73477 -5.18019 0
M  V30 10549 H 999.469 5.16209 -4.65353 0
M  V30 10550 H 1002.66 3.66432 -2.91282 0
M  V30 10551 H 1002.83 4.91151 -4.22699 0
M  V30 10552 N 996.239 0.8527 1.3254 0
M  V30 10553 C 997.149 0.298744 2.3269 0
M  V30 10554 C 998.165 -0.582418 1.63963 0
M  V30 10555 O 999.341 -0.483253 1.95516 0
M  V30 10556 C 996.406 -0.505453 3.42996 0
M  V30 10557 C 995.467 0.401618 4.27417 0
M  V30 10558 C 994.7 -0.364294 5.32455 0
M  V30 10559 O 994.923 -1.59448 5.47661 0
M  V30 10560 O 993.857 0.268892 6.01299 0
M  V30 10561 H 997.683 1.12843 2.81958 0
M  V30 10562 H 995.268 0.615584 1.36128 0
M  V30 10563 H 997.15 -0.961974 4.10273 0
M  V30 10564 H 995.825 -1.31197 2.95921 0
M  V30 10565 H 994.732 0.906274 3.62957 0
M  V30 10566 H 996.065 1.17327 4.78012 0
M  V30 10567 N 997.718 -1.45297 0.610449 0
M  V30 10568 C 998.648 -2.33311 -0.0939698 0
M  V30 10569 C 999.629 -1.46999 -0.85588 0
M  V30 10570 O 1000.81 -1.75764 -0.825865 0
M  V30 10571 C 997.944 -3.29751 -1.09003 0
M  V30 10572 C 996.898 -4.2572 -0.441146 0
M  V30 10573 C 996.224 -5.11873 -1.54566 0
M  V30 10574 C 997.524 -5.1837 0.639489 0
M  V30 10575 H 999.218 -2.92459 0.640941 0
M  V30 10576 H 996.764 -1.40631 0.309675 0
M  V30 10577 H 998.717 -3.90195 -1.59141 0
M  V30 10578 H 997.441 -2.68768 -1.85557 0
M  V30 10579 H 996.1 -3.66579 0.0393908 0
M  V30 10580 H 995.748 -4.47256 -2.30155 0
M  V30 10581 H 995.448 -5.76886 -1.11698 0
M  V30 10582 H 996.972 -5.75185 -2.04925 0
M  V30 10583 H 998.386 -5.7287 0.22207 0
M  V30 10584 H 996.783 -5.91876 0.990089 0
M  V30 10585 H 997.853 -4.60627 1.51495 0
M  V30 10586 N 999.196 -0.349774 -1.5367 0
M  V30 10587 C 1000.14 0.519396 -2.26727 0
M  V30 10588 C 1001.14 1.09673 -1.29105 0
M  V30 10589 O 1002.34 1.04176 -1.46791 0
M  V30 10590 H 998.719 0.186192 -0.728585 0
M  V30 10591 H 1000.69 -0.118736 -2.98164 0
M  V30 10592 C 999.439 1.65535 -3.05767 0
M  V30 10593 H 998.762 1.22038 -3.80719 0
M  V30 10594 H 1000.2 2.23856 -3.6009 0
M  V30 10595 C 998.661 2.58844 -2.15642 0
M  V30 10596 O 999.191 3.61254 -1.75665 0
M  V30 10597 N 997.397 2.27671 -1.80595 0
M  V30 10598 H 996.944 1.44429 -2.13302 0
M  V30 10599 H 996.902 2.90359 -1.20577 0
M  V30 10600 N 1000.67 1.57404 -0.0785433 0
M  V30 10601 C 1002.09 1.57158 0.2781 0
M  V30 10602 C 1002.29 1.08847 1.69572 0
M  V30 10603 O 1001.35 0.757407 2.40873 0
M  V30 10604 C 1002.66 3.00589 0.0816067 0
M  V30 10605 C 1004.21 3.12637 0.150627 0
M  V30 10606 C 1004.68 4.57997 -0.0176685 0
M  V30 10607 N 1006.17 4.63185 0.0377145 0
M  V30 10608 C 1006.91 5.7336 -0.0679907 0
M  V30 10609 N 1006.4 6.92426 -0.227598 0
M  V30 10610 N 1008.2 5.62099 -0.0104424 0
M  V30 10611 H 1000.35 1.87121 -1.00496 0
M  V30 10612 H 1002.61 0.862937 -0.392484 0
M  V30 10613 H 1002.32 3.40072 -0.896869 0
M  V30 10614 H 1002.19 3.67931 0.831046 0
M  V30 10615 H 1004.58 2.73037 1.11959 0
M  V30 10616 H 1004.66 2.4792 -0.630028 0
M  V30 10617 H 1004.3 4.98288 -0.983431 0
M  V30 10618 H 1004.23 5.20754 0.782475 0
M  V30 10619 H 1006.72 3.77564 0.159208 0
M  V30 10620 H 1007.04 7.72217 -0.300217 0
M  V30 10621 H 1005.38 6.94502 -0.263049 0
M  V30 10622 H 1008.57 4.67964 0.112999 0
M  V30 10623 H 1008.75 6.47928 -0.0962747 0
M  V30 10624 N 1002.15 -0.195058 1.56388 0
M  V30 10625 C 1003.4 -0.9168 1.80894 0
M  V30 10626 C 1003.73 -1.82907 0.652592 0
M  V30 10627 O 1003.01 -1.91382 -0.346853 0
M  V30 10628 C 1003.29 -1.733 3.15657 0
M  V30 10629 C 1003.14 -0.845449 4.41783 0
M  V30 10630 C 1004.46 -2.70557 3.47112 0
M  V30 10631 H 1001.58 -0.331861 0.658056 0
M  V30 10632 H 1004.22 -0.184174 1.89105 0
M  V30 10633 H 1002.37 -2.3576 3.08787 0
M  V30 10634 H 1004.04 -0.235557 4.60698 0
M  V30 10635 H 1002.29 -0.152172 4.33533 0
M  V30 10636 H 1002.96 -1.45152 5.32574 0
M  V30 10637 H 1005.43 -2.1823 3.54281 0
M  V30 10638 H 1004.31 -3.24749 4.42526 0
M  V30 10639 H 1004.57 -3.49605 2.70608 0
M  V30 10640 N 1003.63 -1.50653 -0.462772 0
M  V30 10641 C 1004.86 -1.65826 -1.23731 0
M  V30 10642 C 1005.27 -0.345002 -1.85621 0
M  V30 10643 O 1004.63 0.673935 -1.69601 0
M  V30 10644 C 1004.68 -2.7555 -2.33997 0
M  V30 10645 O 1004.4 -4.01785 -1.74643 0
M  V30 10646 C 1005.9 -3.0177 -3.2473 0
M  V30 10647 H 1003.12 -0.557177 -0.373892 0
M  V30 10648 H 1005.67 -1.96925 -0.551434 0
M  V30 10649 H 1003.82 -2.47122 -2.98345 0
M  V30 10650 H 1004.24 -4.62529 -2.4732 0
M  V30 10651 H 1005.71 -3.82188 -3.98292 0
M  V30 10652 H 1006.19 -2.13167 -3.84001 0
M  V30 10653 H 1006.79 -3.31761 -2.66111 0
M  V30 10654 N 1005.11 0.71652 -1.4037 0
M  V30 10655 C 1006.04 1.84138 -1.36477 0
M  V30 10656 C 1007.05 1.6054 -0.27033 0
M  V30 10657 O 1008.24 1.70431 -0.530612 0
M  V30 10658 C 1005.34 3.20523 -1.10082 0
M  V30 10659 C 1004.52 3.71326 -2.31162 0
M  V30 10660 C 1003.57 4.86322 -2.00942 0
M  V30 10661 O 1002.6 4.99022 -2.73799 0
M  V30 10662 N 1003.8 5.72051 -0.986812 0
M  V30 10663 H 1006.57 1.87977 -2.3342 0
M  V30 10664 H 1004.13 0.89802 -1.34712 0
M  V30 10665 H 1006.12 3.95049 -0.878526 0
M  V30 10666 H 1004.69 3.11838 -0.21809 0
M  V30 10667 H 1003.91 2.87941 -2.69227 0
M  V30 10668 H 1005.2 4.02003 -3.11883 0
M  V30 10669 H 1004.6 5.64399 -0.383381 0
M  V30 10670 H 1003.15 6.46565 -0.824419 0
M  V30 10671 N 1006.59 1.25851 0.948643 0
M  V30 10672 C 1007.86 1.01717 1.67072 0
M  V30 10673 C 1008.24 -0.454749 2.06144 0
M  V30 10674 O 1007.59 -1.43345 1.77945 0
M  V30 10675 C 1007.8 1.95872 2.88852 0
M  V30 10676 C 1009.15 2.24057 3.60671 0
M  V30 10677 O 1010.17 1.93678 2.98944 0
M  V30 10678 O 1009.03 2.75745 4.71833 0
M  V30 10679 H 1006.13 0.386198 0.731287 0
M  V30 10680 H 1008.67 1.37031 1.00104 0
M  V30 10681 H 1007.44 2.95233 2.56814 0
M  V30 10682 H 1007.07 1.60992 3.63548 0
M  V30 10683 N 1008.06 -1.15214 1.07534 0
M  V30 10684 C 1009.31 -1.86043 0.799629 0
M  V30 10685 C 1009.64 -1.82435 -0.674356 0
M  V30 10686 O 1008.89 -1.24379 -1.51091 0
M  V30 10687 C 1009.19 -3.34623 1.25547 0
M  V30 10688 C 1008.86 -3.58425 2.73573 0
M  V30 10689 C 1007.52 -3.6463 3.14004 0
M  V30 10690 C 1009.87 -3.67977 3.6911 0
M  V30 10691 C 1007.2 -3.779 4.48786 0
M  V30 10692 C 1009.55 -3.82771 5.03656 0
M  V30 10693 C 1008.22 -3.87222 5.43705 0
M  V30 10694 H 1007.49 -0.680781 0.292605 0
M  V30 10695 H 1010.13 -1.36149 1.34669 0
M  V30 10696 H 1008.44 -3.86737 0.627828 0
M  V30 10697 H 1010.14 -3.87836 1.01901 0
M  V30 10698 H 1006.73 -3.54238 2.41275 0
M  V30 10699 H 1010.91 -3.62482 3.39 0
M  V30 10700 H 1006.17 -3.79604 4.79281 0
M  V30 10701 H 1010.34 -3.89104 5.77556 0
M  V30 10702 H 1007.97 -3.97256 6.48145 0
M  V30 10703 N 1009.54 -0.859717 -1.32086 0
M  V30 10704 C 1010.77 -0.479724 -2.01262 0
M  V30 10705 C 1011.19 0.924985 -1.64589 0
M  V30 10706 O 1010.54 1.60439 -0.869803 0
M  V30 10707 C 1010.59 -0.615128 -3.56228 0
M  V30 10708 O 1010.31 -1.96451 -3.91585 0
M  V30 10709 C 1011.82 -0.234804 -4.42678 0
M  V30 10710 H 1009.04 -0.188007 -0.644123 0
M  V30 10711 H 1011.58 -1.15805 -1.68551 0
M  V30 10712 H 1009.73 0.0155268 -3.87397 0
M  V30 10713 H 1010.15 -1.96491 -4.86304 0
M  V30 10714 H 1011.62 -0.380534 -5.50687 0
M  V30 10715 H 1012.1 0.825189 -4.31378 0
M  V30 10716 H 1012.71 -0.840739 -4.16907 0
M  V30 10717 N 1011.02 1.44971 -0.618145 0
M  V30 10718 C 1011.93 2.34403 0.0960457 0
M  V30 10719 C 1012.95 1.51862 0.849355 0
M  V30 10720 O 1014.12 1.84632 0.804557 0
M  V30 10721 C 1011.19 3.29646 1.07397 0
M  V30 10722 C 1010.25 4.28095 0.321466 0
M  V30 10723 C 1009.48 5.18787 1.25281 0
M  V30 10724 O 1009.7 5.1313 2.49106 0
M  V30 10725 O 1008.64 5.97282 0.744156 0
M  V30 10726 H 1012.46 2.96898 -0.639176 0
M  V30 10727 H 1010.05 1.44529 -0.37837 0
M  V30 10728 H 1011.93 3.88307 1.63694 0
M  V30 10729 H 1010.61 2.69702 1.79004 0
M  V30 10730 H 1009.51 3.73019 -0.284223 0
M  V30 10731 H 1010.85 4.90923 -0.354315 0
M  V30 10732 N 1012.5 0.357919 1.53482 0
M  V30 10733 C 1013.74 -0.23451 2.0144 0
M  V30 10734 C 1014.08 -1.49044 1.24497 0
M  V30 10735 O 1013.35 -1.91566 0.336535 0
M  V30 10736 C 1013.64 -0.534193 3.56116 0
M  V30 10737 C 1013.49 0.734834 4.43757 0
M  V30 10738 C 1014.81 -1.33793 4.1927 0
M  V30 10739 H 1011.93 -0.0837595 0.732225 0
M  V30 10740 H 1014.57 0.481297 1.83803 0
M  V30 10741 H 1012.72 -1.144 3.71275 0
M  V30 10742 H 1014.39 1.37251 4.40409 0
M  V30 10743 H 1012.63 1.35678 4.12036 0
M  V30 10744 H 1013.3 0.48021 5.49907 0
M  V30 10745 H 1015.78 -0.822158 4.07897 0
M  V30 10746 H 1014.66 -1.51636 5.27539 0
M  V30 10747 H 1014.92 -2.34423 3.74831 0
M  V30 10748 N 1013.98 -1.5736 0.0868897 0
M  V30 10749 C 1014.91 -2.10582 -0.904858 0
M  V30 10750 C 1015.92 -1.04124 -1.25148 0
M  V30 10751 O 1017.11 -1.31595 -1.20603 0
M  V30 10752 C 1014.21 -2.56381 -2.21635 0
M  V30 10753 C 1013.38 -3.86581 -2.04631 0
M  V30 10754 C 1012.44 -4.18313 -3.19219 0
M  V30 10755 O 1011.47 -4.87669 -2.93544 0
M  V30 10756 N 1012.67 -3.73061 -4.44754 0
M  V30 10757 H 1015.44 -2.96297 -0.450352 0
M  V30 10758 H 1013 -1.616 -0.0984376 0
M  V30 10759 H 1014.99 -2.7466 -2.97227 0
M  V30 10760 H 1013.56 -1.75721 -2.58536 0
M  V30 10761 H 1012.78 -3.77532 -1.13417 0
M  V30 10762 H 1014.07 -4.71777 -1.90537 0
M  V30 10763 H 1013.46 -3.1706 -4.68497 0
M  V30 10764 H 1012.02 -3.96511 -5.17322 0
M  V30 10765 N 1015.45 0.186762 -1.56489 0
M  V30 10766 C 1016.38 1.23395 -1.98232 0
M  V30 10767 C 1017.37 1.4702 -0.855526 0
M  V30 10768 O 1018.55 1.58616 -1.12048 0
M  V30 10769 C 1015.68 2.57635 -2.32898 0
M  V30 10770 C 1014.63 2.48607 -3.48394 0
M  V30 10771 C 1013.96 3.87196 -3.68759 0
M  V30 10772 C 1015.26 2.00398 -4.82325 0
M  V30 10773 H 1016.95 0.887026 -2.85958 0
M  V30 10774 H 1014.5 0.42525 -1.37578 0
M  V30 10775 H 1016.45 3.31082 -2.60696 0
M  V30 10776 H 1015.18 2.94084 -1.42064 0
M  V30 10777 H 1013.84 1.77615 -3.207 0
M  V30 10778 H 1013.48 4.21012 -2.75241 0
M  V30 10779 H 1013.18 3.82029 -4.46462 0
M  V30 10780 H 1014.71 4.62253 -3.98941 0
M  V30 10781 H 1016.12 2.6361 -5.091 0
M  V30 10782 H 1014.52 2.06214 -5.63556 0
M  V30 10783 H 1015.59 0.957562 -4.75351 0
M  V30 10784 N 1016.93 1.50896 0.454776 0
M  V30 10785 C 1018.18 1.62378 1.20324 0
M  V30 10786 C 1018.5 0.333883 1.9212 0
M  V30 10787 O 1017.77 -0.649477 1.8482 0
M  V30 10788 H 1016.35 0.598395 0.447139 0
M  V30 10789 H 1019.01 1.87749 0.523102 0
M  V30 10790 H 1018.11 2.44296 1.94232 0
M  V30 10791 N 1018.41 -0.709066 1.40748 0
M  V30 10792 C 1019.66 -1.4646 1.38681 0
M  V30 10793 C 1019.97 -1.95599 -0.0056209 0
M  V30 10794 O 1021.18 -2.71091 -0.148907 0
M  V30 10795 C 1019.63 -2.64771 2.43771 0
M  V30 10796 C 1019.24 -2.22474 3.88856 0
M  V30 10797 C 1020.99 -3.42475 2.50821 0
M  V30 10798 C 1018.89 -3.37663 4.85528 0
M  V30 10799 H 1017.82 -0.550084 0.515678 0
M  V30 10800 H 1020.47 -0.771074 1.66513 0
M  V30 10801 H 1018.86 -3.36325 2.09048 0
M  V30 10802 H 1020.03 -1.58297 4.32757 0
M  V30 10803 H 1018.35 -1.57798 3.85342 0
M  V30 10804 H 1020.94 -4.28201 3.20232 0
M  V30 10805 H 1021.29 -3.86738 1.54076 0
M  V30 10806 H 1021.82 -2.77969 2.84567 0
M  V30 10807 H 1018.56 -2.98426 5.83628 0
M  V30 10808 H 1018.08 -4.00734 4.46287 0
M  V30 10809 H 1019.76 -4.03636 5.05655 0
M  V30 10810 N 1019.89 -1.26353 -0.941956 0
M  V30 10811 C 1021.3 -1.10774 -1.50287 0
M  V30 10812 C 1021.65 0.312229 -1.937 0
M  V30 10813 O 1020.78 1.20364 -1.79838 0
M  V30 10814 C 1021.37 -2.00473 -2.73123 0
M  V30 10815 C 1019.93 -1.89042 -3.25485 0
M  V30 10816 C 1019.08 -1.93869 -1.98267 0
M  V30 10817 H 1022.03 -1.39454 -0.757523 0
M  V30 10818 H 1022.05 -1.55216 -3.47402 0
M  V30 10819 H 1021.56 -3.03812 -2.41495 0
M  V30 10820 H 1019.66 -0.886341 -3.61904 0
M  V30 10821 H 1019.78 -2.74533 -3.92643 0
M  V30 10822 H 1018.14 -1.37912 -2.14132 0
M  V30 10823 H 1018.92 -2.98837 -1.68972 0
M  V30 10824 N 1021.37 1.14642 -1.08144 0
M  V30 10825 C 1022.32 2.17665 -0.678661 0
M  V30 10826 C 1023.3 1.58072 0.300336 0
M  V30 10827 O 1024.49 1.7664 0.112781 0
M  V30 10828 C 1021.62 3.43191 -0.0866362 0
M  V30 10829 C 1020.71 4.0982 -1.09126 0
M  V30 10830 N 1021.1 4.51814 -2.27372 0
M  V30 10831 C 1019.4 4.36272 -0.926411 0
M  V30 10832 C 1020.1 5.03581 -2.91172 0
M  V30 10833 N 1019.07 4.97624 -2.18795 0
M  V30 10834 H 1022.88 2.47872 -1.57914 0
M  V30 10835 H 1020.39 1.31296 -0.955772 0
M  V30 10836 H 1022.39 4.1632 0.219859 0
M  V30 10837 H 1021.05 3.14464 0.80886 0
M  V30 10838 H 1022.06 4.44941 -2.65044 0
M  V30 10839 H 1018.74 4.17414 -0.084492 0
M  V30 10840 H 1020.13 5.45969 -3.91621 0
M  V30 10841 N 1022.85 0.866709 1.31628 0
M  V30 10842 C 1024.26 0.529032 1.79048 0
M  V30 10843 C 1024.61 -0.953871 1.71452 0
M  V30 10844 O 1023.73 -1.74462 1.28031 0
M  V30 10845 C 1024.33 0.953522 3.25105 0
M  V30 10846 C 1022.89 0.667554 3.70433 0
M  V30 10847 C 1022.03 1.14664 2.52483 0
M  V30 10848 H 1024.98 1.05275 1.18756 0
M  V30 10849 H 1025.01 0.274844 3.79506 0
M  V30 10850 H 1024.52 2.03283 3.30602 0
M  V30 10851 H 1022.62 -0.400532 3.70441 0
M  V30 10852 H 1022.73 1.2423 4.62714 0
M  V30 10853 H 1021.1 0.566502 2.4832 0
M  V30 10854 H 1021.88 2.2333 2.60727 0
M  V30 10855 N 1024.32 -1.44642 0.625825 0
M  V30 10856 C 1025.29 -2.29085 -0.072526 0
M  V30 10857 C 1026.29 -1.40755 -0.777467 0
M  V30 10858 O 1027.48 -1.62684 -0.622861 0
M  V30 10859 C 1024.61 -3.22212 -1.1132 0
M  V30 10860 H 1025.8 -2.92317 0.670124 0
M  V30 10861 H 1023.35 -1.51466 0.38571 0
M  V30 10862 H 1024.09 -2.63819 -1.88601 0
M  V30 10863 H 1023.87 -3.87299 -0.611709 0
M  V30 10864 H 1025.36 -3.8566 -1.60175 0
M  V30 10865 N 1025.8 -0.366053 -1.5329 0
M  V30 10866 C 1027.05 0.223051 -2.00865 0
M  V30 10867 C 1027.37 1.49244 -1.25504 0
M  V30 10868 O 1026.64 1.92404 -0.368444 0
M  V30 10869 H 1025.22 0.085413 -0.742101 0
M  V30 10870 H 1027.88 -0.492396 -1.88578 0
M  V30 10871 H 1026.98 0.449701 -3.08843 0
M  V30 10872 N 1027.28 1.57312 -0.0952337 0
M  V30 10873 C 1028.21 2.17056 0.860753 0
M  V30 10874 C 1029.19 1.10394 1.29411 0
M  V30 10875 O 1030.38 1.38532 1.36098 0
M  V30 10876 C 1027.51 2.751 2.11984 0
M  V30 10877 C 1026.46 3.87136 1.8251 0
M  V30 10878 C 1025.79 4.31883 3.15247 0
M  V30 10879 C 1027.09 5.10326 1.11194 0
M  V30 10880 H 1028.78 2.97192 0.362983 0
M  V30 10881 H 1026.33 1.42955 0.173151 0
M  V30 10882 H 1028.28 3.15547 2.79299 0
M  V30 10883 H 1027 1.92219 2.64044 0
M  V30 10884 H 1025.66 3.47229 1.17592 0
M  V30 10885 H 1025.31 3.45893 3.65195 0
M  V30 10886 H 1025.01 5.0742 2.96309 0
M  V30 10887 H 1026.53 4.74964 3.83721 0
M  V30 10888 H 1027.95 5.47942 1.6862 0
M  V30 10889 H 1026.34 5.91293 1.02435 0
M  V30 10890 H 1027.41 4.84807 0.0947227 0
M  V30 10891 N 1028.76 -0.17846 1.56586 0
M  V30 10892 C 1029.72 -1.20479 1.94981 0
M  V30 10893 C 1030.72 -1.37561 0.832677 0
M  V30 10894 O 1031.91 -1.35089 1.09984 0
M  V30 10895 C 1029.04 -2.57117 2.23839 0
M  V30 10896 H 1030.24 -0.876173 2.86816 0
M  V30 10897 H 1027.79 -0.420635 1.50534 0
M  V30 10898 H 1028.52 -2.95005 1.34695 0
M  V30 10899 H 1028.31 -2.46086 3.05261 0
M  V30 10900 H 1029.8 -3.31096 2.5449 0
M  V30 10901 N 1030.24 -1.51135 -0.446768 0
M  V30 10902 C 1031.18 -1.71767 -1.54158 0
M  V30 10903 C 1032.15 -0.559201 -1.56404 0
M  V30 10904 O 1033.34 -0.792567 -1.7356 0
M  V30 10905 C 1030.48 -1.84006 -2.91952 0
M  V30 10906 C 1029.59 -3.11511 -2.99308 0
M  V30 10907 C 1028.73 -3.144 -4.28166 0
M  V30 10908 C 1027.76 -4.36258 -4.29355 0
M  V30 10909 N 1026.9 -4.3675 -5.49722 0
M  V30 10910 H 1031.74 -2.65224 -1.35869 0
M  V30 10911 H 1029.28 -1.31453 -0.660186 0
M  V30 10912 H 1031.24 -1.89083 -3.71892 0
M  V30 10913 H 1029.87 -0.939661 -3.08821 0
M  V30 10914 H 1028.92 -3.15788 -2.12089 0
M  V30 10915 H 1030.23 -4.01445 -2.96047 0
M  V30 10916 H 1029.38 -3.18341 -5.16473 0
M  V30 10917 H 1028.12 -2.22338 -4.3407 0
M  V30 10918 H 1027.13 -4.32503 -3.39442 0
M  V30 10919 H 1028.35 -5.29574 -4.25122 0
M  V30 10920 H 1026.3 -3.47554 -5.56365 0
M  V30 10921 H 1026.22 -5.20481 -5.48302 0
M  V30 10922 H 1027.48 -4.4487 -6.40086 0
M  V30 10923 N 1031.71 0.701592 -1.41122 0
M  V30 10924 C 1033.13 1.01143 -1.23459 0
M  V30 10925 C 1033.33 2.01144 -0.11968 0
M  V30 10926 O 1032.39 2.47132 0.517889 0
M  V30 10927 C 1033.7 1.54179 -2.58165 0
M  V30 10928 C 1035.25 1.66093 -2.65296 0
M  V30 10929 C 1035.72 2.22532 -4.00304 0
M  V30 10930 N 1037.21 2.299 -4.0212 0
M  V30 10931 C 1037.95 2.74584 -5.0338 0
M  V30 10932 N 1037.44 3.18917 -6.15032 0
M  V30 10933 N 1039.24 2.74094 -4.90743 0
M  V30 10934 H 1031.39 0.0390087 -2.12364 0
M  V30 10935 H 1033.65 0.0798848 -0.944628 0
M  V30 10936 H 1033.36 0.881587 -3.40472 0
M  V30 10937 H 1033.23 2.52488 -2.80231 0
M  V30 10938 H 1035.62 2.31227 -1.83352 0
M  V30 10939 H 1035.7 0.663461 -2.47046 0
M  V30 10940 H 1035.34 1.58016 -4.82694 0
M  V30 10941 H 1035.27 3.2302 -4.15891 0
M  V30 10942 H 1037.76 1.98607 -3.21502 0
M  V30 10943 H 1038.08 3.5162 -6.88174 0
M  V30 10944 H 1036.42 3.1684 -6.18577 0
M  V30 10945 H 1039.61 2.38804 -4.02604 0
M  V30 10946 H 1039.79 3.086 -5.69798 0
M  V30 10947 N 1033.19 1.2685 0.935242 0
M  V30 10948 C 1034.14 1.08923 2.03481 0
M  V30 10949 C 1035.11 -0.00749786 1.66098 0
M  V30 10950 O 1036.29 0.153401 1.90182 0
M  V30 10951 C 1033.43 0.734529 3.37192 0
M  V30 10952 C 1032.55 1.90812 3.87576 0
M  V30 10953 C 1031.68 1.49599 5.097 0
M  V30 10954 C 1030.72 2.63752 5.5236 0
M  V30 10955 N 1029.86 2.23179 6.65684 0
M  V30 10956 H 1034.7 2.03016 2.18148 0
M  V30 10957 H 1032.23 1.01072 1.06878 0
M  V30 10958 H 1034.19 0.509734 4.14074 0
M  V30 10959 H 1032.82 -0.169438 3.22355 0
M  V30 10960 H 1031.87 2.24567 3.0704 0
M  V30 10961 H 1033.19 2.7647 4.1517 0
M  V30 10962 H 1032.34 1.23199 5.9406 0
M  V30 10963 H 1031.08 0.61039 4.83865 0
M  V30 10964 H 1030.08 2.90874 4.66554 0
M  V30 10965 H 1031.31 3.5292 5.80193 0
M  V30 10966 H 1029.26 1.37061 6.41522 0
M  V30 10967 H 1029.17 3.02379 6.92895 0
M  V30 10968 H 1030.44 2.00007 7.53404 0
M  V30 10969 N 1034.67 -1.14067 1.0875 0
M  V30 10970 C 1036.09 -1.37173 0.815823 0
M  V30 10971 C 1036.29 -1.93175 -0.573215 0
M  V30 10972 O 1035.34 -2.14672 -1.32937 0
M  V30 10973 C 1036.66 -2.32955 1.90138 0
M  V30 10974 C 1038.2 -2.46586 1.9278 0
M  V30 10975 C 1038.68 -3.4567 3.0046 0
M  V30 10976 N 1040.17 -3.53216 2.99655 0
M  V30 10977 C 1040.9 -4.29743 3.79616 0
M  V30 10978 N 1040.4 -5.09484 4.69466 0
M  V30 10979 N 1042.19 -4.24975 3.67903 0
M  V30 10980 H 1034.34 -0.760648 1.98313 0
M  V30 10981 H 1036.61 -0.397135 0.860807 0
M  V30 10982 H 1036.31 -1.98949 2.90021 0
M  V30 10983 H 1036.19 -3.32897 1.77368 0
M  V30 10984 H 1038.57 -2.79882 0.935404 0
M  V30 10985 H 1038.66 -1.46593 2.09629 0
M  V30 10986 H 1038.3 -3.13106 3.99909 0
M  V30 10987 H 1038.23 -4.45452 2.80856 0
M  V30 10988 H 1040.72 -2.96314 2.34535 0
M  V30 10989 H 1041.03 -5.65163 5.27077 0
M  V30 10990 H 1039.38 -5.08741 4.73506 0
M  V30 10991 H 1042.57 -3.61751 2.97075 0
M  V30 10992 H 1042.74 -4.84364 4.30459 0
M  V30 10993 N 1036.15 -0.873678 -1.31166 0
M  V30 10994 C 1037.4 -0.482577 -1.95842 0
M  V30 10995 C 1037.71 0.970881 -1.69804 0
M  V30 10996 O 1038.92 1.4683 -2.28371 0
M  V30 10997 C 1037.37 -0.812074 -3.50619 0
M  V30 10998 C 1036.98 -2.28254 -3.85492 0
M  V30 10999 C 1038.72 -0.489624 -4.21667 0
M  V30 11000 C 1036.63 -2.55426 -5.33396 0
M  V30 11001 H 1035.56 -0.176736 -0.732994 0
M  V30 11002 H 1038.21 -1.06709 -1.49283 0
M  V30 11003 H 1036.59 -0.156769 -3.9569 0
M  V30 11004 H 1037.77 -2.98122 -3.51369 0
M  V30 11005 H 1036.08 -2.5714 -3.27518 0
M  V30 11006 H 1038.68 -0.669811 -5.30488 0
M  V30 11007 H 1039.02 0.570204 -4.12376 0
M  V30 11008 H 1039.56 -1.10163 -3.82242 0
M  V30 11009 H 1036.3 -3.60106 -5.47726 0
M  V30 11010 H 1035.82 -1.90156 -5.68859 0
M  V30 11011 H 1037.49 -2.40345 -6.00702 0
M  V30 11012 N 1037.63 1.44308 -0.633487 0
M  V30 11013 C 1038.85 2.06384 -0.146063 0
M  V30 11014 C 1039.27 1.47357 1.18031 0
M  V30 11015 O 1038.63 0.597334 1.72448 0
M  V30 11016 C 1038.68 3.61489 -0.0276722 0
M  V30 11017 O 1038.4 4.18318 -1.3016 0
M  V30 11018 C 1039.9 4.40604 0.488168 0
M  V30 11019 H 1037.12 0.666122 -0.0807632 0
M  V30 11020 H 1039.66 1.85139 -0.868557 0
M  V30 11021 H 1037.82 3.81988 0.645273 0
M  V30 11022 H 1038.23 5.11783 -1.14797 0
M  V30 11023 H 1039.71 5.49545 0.520013 0
M  V30 11024 H 1040.18 4.12218 1.51568 0
M  V30 11025 H 1040.79 4.2503 -0.151608 0
M  V30 11026 N 1039.1 0.374177 1.53094 0
M  V30 11027 C 1040.35 -0.213131 2.01677 0
M  V30 11028 C 1040.68 -1.47715 1.26071 0
M  V30 11029 O 1039.96 -1.91199 0.356834 0
M  V30 11030 C 1040.24 -0.496392 3.56662 0
M  V30 11031 C 1040.09 0.781859 4.42953 0
M  V30 11032 C 1041.41 -1.29339 4.20666 0
M  V30 11033 H 1038.53 -0.0759885 0.733072 0
M  V30 11034 H 1041.17 0.500765 1.83282 0
M  V30 11035 H 1039.32 -1.10455 3.72467 0
M  V30 11036 H 1041 1.41914 4.38928 0
M  V30 11037 H 1039.24 1.40041 4.10574 0
M  V30 11038 H 1039.91 0.538508 5.49367 0
M  V30 11039 H 1042.39 -0.778848 4.08746 0
M  V30 11040 H 1041.26 -1.46033 5.29118 0
M  V30 11041 H 1041.52 -2.30435 3.77296 0
M  V30 11042 N 1040.58 -1.57259 0.103575 0
M  V30 11043 C 1041.51 -2.17509 -0.84923 0
M  V30 11044 C 1042.49 -1.11079 -1.28824 0
M  V30 11045 O 1043.68 -1.39252 -1.35361 0
M  V30 11046 C 1040.81 -2.76221 -2.10522 0
M  V30 11047 C 1039.76 -3.88098 -1.80454 0
M  V30 11048 C 1039.09 -4.33549 -3.12952 0
M  V30 11049 C 1040.39 -5.10909 -1.08486 0
M  V30 11050 H 1042.08 -2.9738 -0.347217 0
M  V30 11051 H 1039.63 -1.43045 -0.165568 0
M  V30 11052 H 1041.58 -3.17024 -2.77621 0
M  V30 11053 H 1040.31 -1.93617 -2.63021 0
M  V30 11054 H 1038.96 -3.47847 -1.15749 0
M  V30 11055 H 1038.61 -3.47825 -3.63355 0
M  V30 11056 H 1038.31 -5.08984 -2.93614 0
M  V30 11057 H 1039.84 -4.76992 -3.81196 0
M  V30 11058 H 1041.25 -5.48828 -1.65711 0
M  V30 11059 H 1039.65 -5.91828 -0.992973 0
M  V30 11060 H 1040.72 -4.84851 -0.0690108 0
M  V30 11061 N 1042.06 0.170153 -1.56679 0
M  V30 11062 C 1043.34 0.913938 -1.72935 0
M  V30 11063 C 1043.72 2.00342 -0.665293 0
M  V30 11064 O 1043.07 2.26252 0.319715 0
M  V30 11065 C 1043.28 1.47761 -3.16177 0
M  V30 11066 C 1044.62 1.95007 -3.7717 0
M  V30 11067 O 1045.65 1.57552 -3.19462 0
M  V30 11068 O 1044.51 2.64007 -4.78501 0
M  V30 11069 H 1041.6 0.43027 -0.706256 0
M  V30 11070 H 1044.15 0.157891 -1.68964 0
M  V30 11071 H 1042.92 0.69352 -3.85105 0
M  V30 11072 H 1042.54 2.2978 -3.24479 0
M  V30 11073 N 1043.54 1.5137 0.438746 0
M  V30 11074 C 1044.79 1.63202 1.18524 0
M  V30 11075 C 1045.1 0.353408 1.92381 0
M  V30 11076 O 1046.31 0.351086 2.6922 0
M  V30 11077 C 1044.76 2.88218 2.15542 0
M  V30 11078 C 1044.37 4.23078 1.47339 0
M  V30 11079 C 1046.11 3.09407 2.90633 0
M  V30 11080 C 1044.02 5.39246 2.42833 0
M  V30 11081 H 1042.95 0.607864 0.446114 0
M  V30 11082 H 1045.6 1.77835 0.452421 0
M  V30 11083 H 1043.98 2.67216 2.92253 0
M  V30 11084 H 1045.16 4.54457 0.761964 0
M  V30 11085 H 1043.47 4.07755 0.844065 0
M  V30 11086 H 1046.07 3.9337 3.62165 0
M  V30 11087 H 1046.41 2.22428 3.51897 0
M  V30 11088 H 1046.95 3.30743 2.21029 0
M  V30 11089 H 1043.69 6.2848 1.8626 0
M  V30 11090 H 1043.21 5.12245 3.12034 0
M  V30 11091 H 1044.88 5.71137 3.03992 0
M  V30 11092 N 1045.02 -0.694098 1.41492 0
M  V30 11093 C 1046.26 -1.45127 1.4065 0
M  V30 11094 C 1046.59 -1.94993 0.0170289 0
M  V30 11095 O 1045.86 -1.71799 -0.941372 0
M  V30 11096 H 1044.44 -0.538493 0.51772 0
M  V30 11097 H 1047.1 -0.821441 1.76744 0
M  V30 11098 H 1046.19 -2.31372 2.0946 0
M  V30 11099 N 1046.49 -1.27344 -0.928501 0
M  V30 11100 C 1047.77 -1.04362 -1.65433 0
M  V30 11101 C 1048.15 0.421896 -2.06841 0
M  V30 11102 O 1047.5 1.40496 -1.80203 0
M  V30 11103 C 1047.71 -2.00442 -2.85699 0
M  V30 11104 C 1049.06 -2.29767 -3.57061 0
M  V30 11105 O 1050.08 -1.98409 -2.95825 0
M  V30 11106 O 1048.94 -2.83217 -4.67387 0
M  V30 11107 H 1046.03 -0.397783 -0.72505 0
M  V30 11108 H 1048.58 -1.38606 -0.979109 0
M  V30 11109 H 1047.35 -2.99281 -2.52085 0
M  V30 11110 H 1046.98 -1.66755 -3.60941 0
M  V30 11111 N 1047.97 1.13488 -1.09353 0
M  V30 11112 C 1048.94 2.17066 -0.735863 0
M  V30 11113 C 1049.94 1.59086 0.234181 0
M  V30 11114 O 1051.13 1.74196 0.012463 0
M  V30 11115 C 1048.26 3.40786 -0.0880975 0
M  V30 11116 H 1049.45 2.50221 -1.65316 0
M  V30 11117 H 1047 1.28304 -0.89263 0
M  V30 11118 H 1047.74 3.1322 0.840462 0
M  V30 11119 H 1047.52 3.8414 -0.786073 0
M  V30 11120 H 1049.01 4.17342 0.146775 0
M  V30 11121 N 1049.45 0.880621 1.30701 0
M  V30 11122 C 1050.68 0.51094 2.00182 0
M  V30 11123 C 1051.09 -0.903914 1.66211 0
M  V30 11124 O 1050.43 -1.60529 0.893089 0
M  V30 11125 C 1050.49 0.600775 3.54445 0
M  V30 11126 C 1050.16 1.97915 4.1192 0
M  V30 11127 C 1051.16 2.94802 4.28238 0
M  V30 11128 C 1048.84 2.28336 4.47401 0
M  V30 11129 C 1050.83 4.20245 4.79242 0
M  V30 11130 C 1048.52 3.54026 4.98105 0
M  V30 11131 C 1049.52 4.49796 5.13978 0
M  V30 11132 O 1049.21 5.73256 5.63589 0
M  V30 11133 H 1048.94 0.196477 0.646818 0
M  V30 11134 H 1051.49 1.18659 1.67658 0
M  V30 11135 H 1049.72 -0.131832 3.86475 0
M  V30 11136 H 1051.41 0.242996 4.05172 0
M  V30 11137 H 1052.18 2.7261 4.01134 0
M  V30 11138 H 1048.06 1.54564 4.34317 0
M  V30 11139 H 1051.6 4.95003 4.91546 0
M  V30 11140 H 1047.5 3.76057 5.24644 0
M  V30 11141 H 1048.27 5.75577 5.81939 0
M  V30 11142 N 1050.93 -1.4397 0.641131 0
M  V30 11143 C 1052.18 -2.01946 0.149629 0
M  V30 11144 C 1052.5 -1.50496 -1.23212 0
M  V30 11145 O 1051.76 -0.683453 -1.83378 0
M  V30 11146 C 1052.06 -3.5727 0.0963368 0
M  V30 11147 C 1051.72 -4.28016 1.4182 0
M  V30 11148 C 1050.39 -4.47059 1.78021 0
M  V30 11149 C 1052.74 -4.68183 2.29028 0
M  V30 11150 C 1050.07 -5.03532 3.01119 0
M  V30 11151 C 1052.42 -5.26019 3.51406 0
M  V30 11152 C 1051.08 -5.4328 3.87818 0
M  V30 11153 H 1050.35 -0.738974 0.0547531 0
M  V30 11154 H 1053 -1.72605 0.829436 0
M  V30 11155 H 1051.3 -3.86083 -0.666879 0
M  V30 11156 H 1053 -3.99871 -0.300635 0
M  V30 11157 H 1049.59 -4.13531 1.12651 0
M  V30 11158 H 1053.78 -4.53175 2.02353 0
M  V30 11159 H 1049.03 -5.15082 3.29395 0
M  V30 11160 H 1053.21 -5.56092 4.19208 0
M  V30 11161 H 1050.83 -5.86805 4.83284 0
M  V30 11162 N 1052.41 -0.382291 -1.52893 0
M  V30 11163 C 1053.63 0.204961 -2.06385 0
M  V30 11164 C 1054.06 1.40316 -1.25271 0
M  V30 11165 O 1053.42 1.79187 -0.275969 0
M  V30 11166 C 1053.46 0.560205 -3.56222 0
M  V30 11167 O 1052.57 1.65515 -3.77728 0
M  V30 11168 H 1051.91 0.0258798 -0.663495 0
M  V30 11169 H 1054.44 -0.547733 -1.97132 0
M  V30 11170 H 1054.45 0.826501 -3.99541 0
M  V30 11171 H 1053.12 -0.31584 -4.14699 0
M  V30 11172 H 1051.7 1.38311 -3.46301 0
M  V30 11173 N 1053.89 1.57202 -0.111913 0
M  V30 11174 C 1055.13 1.94125 0.547573 0
M  V30 11175 C 1055.45 0.997026 1.68282 0
M  V30 11176 O 1056.65 1.26063 2.40459 0
M  V30 11177 C 1055.11 3.44982 1.02545 0
M  V30 11178 C 1054.72 4.47927 -0.0809529 0
M  V30 11179 C 1056.46 3.90837 1.65671 0
M  V30 11180 C 1054.37 5.89955 0.413224 0
M  V30 11181 H 1053.3 0.724651 0.208321 0
M  V30 11182 H 1055.95 1.82507 -0.190625 0
M  V30 11183 H 1054.33 3.5181 1.81785 0
M  V30 11184 H 1055.51 4.52761 -0.857003 0
M  V30 11185 H 1053.82 4.11782 -0.618434 0
M  V30 11186 H 1056.42 4.9436 2.03746 0
M  V30 11187 H 1056.76 3.30417 2.53239 0
M  V30 11188 H 1057.29 3.8678 0.929844 0
M  V30 11189 H 1054.03 6.54113 -0.426238 0
M  V30 11190 H 1053.55 5.88557 1.15591 0
M  V30 11191 H 1055.23 6.41032 0.876756 0
M  V30 11192 N 1055.36 -0.161842 1.56767 0
M  V30 11193 C 1056.77 -0.723385 1.72116 0
M  V30 11194 C 1057.13 -1.82355 0.723961 0
M  V30 11195 O 1056.25 -2.16107 -0.112643 0
M  V30 11196 C 1056.85 -1.31895 3.12072 0
M  V30 11197 C 1055.4 -1.82722 3.29074 0
M  V30 11198 C 1054.55 -0.709863 2.6806 0
M  V30 11199 H 1057.5 0.0636647 1.58572 0
M  V30 11200 H 1057.52 -2.18871 3.11249 0
M  V30 11201 H 1057.04 -0.51801 3.84627 0
M  V30 11202 H 1055.14 -2.6543 2.61491 0
M  V30 11203 H 1055.25 -1.96614 4.36898 0
M  V30 11204 H 1053.61 -1.13273 2.28126 0
M  V30 11205 H 1054.4 0.0793884 3.43208 0
M  V30 11206 N 1056.84 -1.516 -0.430713 0
M  V30 11207 C 1057.77 -1.76342 -1.53054 0
M  V30 11208 C 1058.75 -0.61349 -1.58652 0
M  V30 11209 O 1059.94 -0.856888 -1.74273 0
M  V30 11210 C 1057.07 -1.8945 -2.91077 0
M  V30 11211 C 1056.02 -3.04928 -3.00339 0
M  V30 11212 C 1055.35 -3.03228 -4.40405 0
M  V30 11213 C 1056.65 -4.44777 -2.73808 0
M  V30 11214 H 1058.34 -2.68435 -1.326 0
M  V30 11215 H 1055.89 -1.29171 -0.636466 0
M  V30 11216 H 1057.84 -2.05343 -3.67984 0
M  V30 11217 H 1056.56 -0.940114 -3.12777 0
M  V30 11218 H 1055.22 -2.88751 -2.25872 0
M  V30 11219 H 1054.87 -2.05553 -4.59083 0
M  V30 11220 H 1054.57 -3.80776 -4.47531 0
M  V30 11221 H 1056.1 -3.21222 -5.19277 0
M  V30 11222 H 1057.51 -4.6127 -3.40445 0
M  V30 11223 H 1055.91 -5.2408 -2.92335 0
M  V30 11224 H 1056.98 -4.54358 -1.69372 0
M  V30 11225 N 1058.32 0.686584 -1.41858 0
M  V30 11226 C 1059.6 1.44176 -1.32185 0
M  V30 11227 C 1059.98 2.11049 0.046362 0
M  V30 11228 O 1059.32 2.02365 1.06117 0
M  V30 11229 C 1059.53 2.45385 -2.48168 0
M  V30 11230 C 1060.88 3.10375 -2.89746 0
M  V30 11231 O 1061.91 2.55711 -2.47973 0
M  V30 11232 O 1060.77 4.09404 -3.62009 0
M  V30 11233 H 1057.86 0.642513 -0.520678 0
M  V30 11234 H 1060.41 0.716303 -1.53841 0
M  V30 11235 H 1059.18 1.94687 -3.3943 0
M  V30 11236 H 1058.8 3.25428 -2.28435 0
M  V30 11237 N 1059.8 1.27835 0.921735 0
M  V30 11238 C 1060.71 1.12904 2.05645 0
M  V30 11239 C 1061.72 0.0575704 1.73905 0
M  V30 11240 O 1062.9 0.265261 1.99645 0
M  V30 11241 C 1059.96 0.783957 3.3772 0
M  V30 11242 C 1059.03 1.93694 3.8312 0
M  V30 11243 C 1058.26 1.60823 5.08893 0
M  V30 11244 O 1058.48 0.518873 5.68035 0
M  V30 11245 O 1057.42 2.44932 5.49811 0
M  V30 11246 H 1061.24 2.08143 2.21157 0
M  V30 11247 H 1058.83 1.07078 1.04185 0
M  V30 11248 H 1060.71 0.605107 4.17033 0
M  V30 11249 H 1059.38 -0.138849 3.23402 0
M  V30 11250 H 1058.29 2.17089 3.04669 0
M  V30 11251 H 1059.62 2.84016 4.0199 0
M  V30 11252 N 1061.28 -1.12907 1.09954 0
M  V30 11253 C 1062.19 -2.22082 0.756095 0
M  V30 11254 C 1063.2 -1.72277 -0.244272 0
M  V30 11255 O 1064.38 -2.01224 -0.0842637 0
M  V30 11256 C 1061.44 -3.46192 0.187642 0
M  V30 11257 C 1060.5 -4.10861 1.24465 0
M  V30 11258 C 1059.74 -5.29047 0.703227 0
M  V30 11259 O 1059.96 -5.68443 -0.472043 0
M  V30 11260 O 1058.89 -5.83904 1.46082 0
M  V30 11261 H 1062.72 -2.53842 1.66727 0
M  V30 11262 H 1060.3 -1.21145 0.874316 0
M  V30 11263 H 1062.19 -4.21212 -0.125774 0
M  V30 11264 H 1060.86 -3.16119 -0.696459 0
M  V30 11265 H 1059.77 -3.37643 1.61085 0
M  V30 11266 H 1061.1 -4.45078 2.10159 0
M  V30 11267 N 1062.75 -0.88754 -1.30232 0
M  V30 11268 C 1064 -0.507279 -1.96043 0
M  V30 11269 C 1064.33 0.944059 -1.70052 0
M  V30 11270 O 1063.58 1.68255 -0.999444 0
M  V30 11271 C 1063.88 -0.731765 -3.49828 0
M  V30 11272 C 1063.55 -2.15858 -3.95874 0
M  V30 11273 C 1062.21 -2.54875 -4.08157 0
M  V30 11274 C 1064.56 -3.0883 -4.19849 0
M  V30 11275 C 1061.89 -3.86069 -4.41778 0
M  V30 11276 C 1064.24 -4.39559 -4.5494 0
M  V30 11277 C 1062.91 -4.78465 -4.65432 0
M  V30 11278 H 1062.18 -0.185627 -0.717373 0
M  V30 11279 H 1064.82 -1.12388 -1.55052 0
M  V30 11280 H 1063.13 -0.0321473 -3.91787 0
M  V30 11281 H 1064.83 -0.417107 -3.98825 0
M  V30 11282 H 1061.42 -1.84574 -3.86821 0
M  V30 11283 H 1065.6 -2.79906 -4.09837 0
M  V30 11284 H 1060.86 -4.1595 -4.48102 0
M  V30 11285 H 1065.03 -5.11636 -4.72442 0
M  V30 11286 H 1062.66 -5.80162 -4.91239 0
M  V30 11287 N 1064.23 1.43628 -0.648757 0
M  V30 11288 C 1065.65 1.56442 -0.315921 0
M  V30 11289 C 1065.85 1.63322 1.18018 0
M  V30 11290 O 1064.9 1.58585 1.96487 0
M  V30 11291 C 1066.22 2.82751 -1.02335 0
M  V30 11292 C 1067.77 2.96488 -1.00318 0
M  V30 11293 C 1068.24 4.25623 -1.69142 0
M  V30 11294 N 1069.73 4.32477 -1.65885 0
M  V30 11295 C 1070.47 5.31154 -2.16016 0
M  V30 11296 N 1069.96 6.36135 -2.74415 0
M  V30 11297 N 1071.76 5.22778 -2.06541 0
M  V30 11298 H 1063.91 1.37405 -1.61968 0
M  V30 11299 H 1066.17 0.65962 -0.680886 0
M  V30 11300 H 1065.88 2.83714 -2.07844 0
M  V30 11301 H 1065.75 3.72836 -0.572114 0
M  V30 11302 H 1068.14 2.95068 0.0434919 0
M  V30 11303 H 1068.22 2.07704 -1.49307 0
M  V30 11304 H 1067.86 4.27804 -2.73763 0
M  V30 11305 H 1067.79 5.13296 -1.17622 0
M  V30 11306 H 1070.28 3.57232 -1.23264 0
M  V30 11307 H 1070.6 7.07743 -3.10355 0
M  V30 11308 H 1068.94 6.36771 -2.78474 0
M  V30 11309 H 1072.13 4.39678 -1.60625 0
M  V30 11310 H 1072.3 5.99523 -2.45919 0
M  V30 11311 N 1065.71 0.390394 1.52688 0
M  V30 11312 C 1066.64 -0.479319 2.24132 0
M  V30 11313 C 1067.66 -1.0258 1.26416 0
M  V30 11314 O 1068.84 -0.927943 1.52484 0
M  V30 11315 C 1065.94 -1.67711 2.94493 0
M  V30 11316 C 1065.12 -1.2578 4.18925 0
M  V30 11317 C 1064.18 -2.3204 4.72275 0
M  V30 11318 O 1063.2 -1.93402 5.35336 0
M  V30 11319 N 1064.4 -3.63967 4.52226 0
M  V30 11320 H 1067.17 0.132777 2.99406 0
M  V30 11321 H 1064.73 0.216807 1.60442 0
M  V30 11322 H 1066.72 -2.38323 3.27084 0
M  V30 11323 H 1065.29 -2.19552 2.22521 0
M  V30 11324 H 1064.51 -0.380528 3.92359 0
M  V30 11325 H 1065.8 -0.954329 4.9977 0
M  V30 11326 H 1065.2 -3.98119 4.01892 0
M  V30 11327 H 1063.76 -4.30611 4.89303 0
M  V30 11328 N 1067.19 -1.57141 0.120249 0
M  V30 11329 C 1068.42 -1.993 -0.544346 0
M  V30 11330 C 1068.83 -0.998858 -1.60684 0
M  V30 11331 O 1068.17 0.0162197 -1.83693 0
M  V30 11332 C 1068.23 -3.37874 -1.22808 0
M  V30 11333 C 1067.9 -4.55924 -0.313374 0
M  V30 11334 C 1068.89 -5.17962 0.448501 0
M  V30 11335 C 1066.58 -5.018 -0.224082 0
M  V30 11336 C 1068.57 -6.24264 1.28739 0
M  V30 11337 C 1066.26 -6.07963 0.618437 0
M  V30 11338 C 1067.26 -6.69061 1.3728 0
M  V30 11339 O 1066.94 -7.73173 2.20133 0
M  V30 11340 H 1066.68 -0.659466 -0.148596 0
M  V30 11341 H 1069.23 -2.04387 0.203779 0
M  V30 11342 H 1067.46 -3.29545 -2.02329 0
M  V30 11343 H 1069.15 -3.64314 -1.7897 0
M  V30 11344 H 1069.92 -4.83434 0.389395 0
M  V30 11345 H 1065.79 -4.53989 -0.80094 0
M  V30 11346 H 1069.34 -6.71883 1.87667 0
M  V30 11347 H 1065.24 -6.4192 0.678932 0
M  V30 11348 H 1066 -7.90276 2.13088 0
M  V30 11349 N 1068.67 0.153526 -1.5685 0
M  V30 11350 C 1069.89 0.882335 -1.87143 0
M  V30 11351 C 1070.31 1.75034 -0.707702 0
M  V30 11352 O 1069.67 1.79624 0.32273 0
M  V30 11353 C 1069.72 1.74444 -3.16625 0
M  V30 11354 O 1069.44 0.911419 -4.28515 0
M  V30 11355 C 1070.94 2.58139 -3.60388 0
M  V30 11356 H 1068.16 0.25546 -0.620469 0
M  V30 11357 H 1070.7 0.148275 -2.03962 0
M  V30 11358 H 1068.86 2.43163 -3.0158 0
M  V30 11359 H 1069.27 1.50268 -5.02513 0
M  V30 11360 H 1070.75 3.14215 -4.53842 0
M  V30 11361 H 1071.22 3.33865 -2.85361 0
M  V30 11362 H 1071.83 1.94721 -3.78105 0
M  V30 11363 N 1070.14 1.51827 0.422667 0
M  V30 11364 C 1071.11 1.7359 1.49663 0
M  V30 11365 C 1072.11 0.605811 1.48952 0
M  V30 11366 O 1073.3 0.87354 1.50715 0
M  V30 11367 C 1070.43 1.80585 2.8914 0
M  V30 11368 H 1071.62 2.69453 1.31664 0
M  V30 11369 H 1069.18 1.42038 0.652298 0
M  V30 11370 H 1069.91 0.865895 3.12526 0
M  V30 11371 H 1069.7 2.62729 2.9106 0
M  V30 11372 H 1071.19 1.99212 3.67021 0
M  V30 11373 N 1071.62 -0.679052 1.4222 0
M  V30 11374 C 1072.87 -1.43912 1.42463 0
M  V30 11375 C 1073.2 -1.9446 0.0395574 0
M  V30 11376 O 1072.45 -1.71019 -0.951365 0
M  V30 11377 C 1072.75 -2.65528 2.39227 0
M  V30 11378 C 1072.42 -2.33545 3.85704 0
M  V30 11379 C 1071.08 -2.24534 4.25603 0
M  V30 11380 C 1073.43 -2.07496 4.78116 0
M  V30 11381 C 1070.76 -1.87592 5.55901 0
M  V30 11382 C 1073.11 -1.72059 6.08752 0
M  V30 11383 C 1071.78 -1.61555 6.47654 0
M  V30 11384 H 1071.05 -0.52661 0.521309 0
M  V30 11385 H 1073.69 -0.774661 1.75132 0
M  V30 11386 H 1072 -3.36985 1.9987 0
M  V30 11387 H 1073.69 -3.23702 2.36681 0
M  V30 11388 H 1070.28 -2.4146 3.54112 0
M  V30 11389 H 1074.47 -2.13393 4.48082 0
M  V30 11390 H 1069.72 -1.78026 5.84908 0
M  V30 11391 H 1073.9 -1.50926 6.79849 0
M  V30 11392 H 1071.53 -1.32699 7.48529 0
M  V30 11393 N 1073.1 -1.28322 -0.914942 0
M  V30 11394 C 1074.33 -1.18254 -1.69775 0
M  V30 11395 C 1074.74 0.258978 -1.87015 0
M  V30 11396 O 1074.1 1.17514 -1.3963 0
M  V30 11397 C 1074.15 -1.8753 -3.09054 0
M  V30 11398 O 1073.87 -3.26051 -2.92613 0
M  V30 11399 C 1075.37 -1.83749 -4.03424 0
M  V30 11400 H 1072.59 -0.41055 -0.530744 0
M  V30 11401 H 1075.14 -1.69425 -1.14523 0
M  V30 11402 H 1073.29 -1.40233 -3.61128 0
M  V30 11403 H 1073.71 -3.60729 -3.80756 0
M  V30 11404 H 1075.18 -2.36813 -4.98622 0
M  V30 11405 H 1075.66 -0.809601 -4.31674 0
M  V30 11406 H 1076.26 -2.3072 -3.57279 0
M  V30 11407 N 1074.58 1.12322 -1.10551 0
M  V30 11408 C 1075.51 2.20176 -0.777486 0
M  V30 11409 C 1076.49 1.68252 0.250069 0
M  V30 11410 O 1077.67 1.93856 0.115574 0
M  V30 11411 C 1074.8 3.46666 -0.209822 0
M  V30 11412 C 1073.76 4.11749 -1.1682 0
M  V30 11413 C 1073.08 5.32703 -0.461684 0
M  V30 11414 C 1074.38 4.57746 -2.51527 0
M  V30 11415 H 1076.08 2.47872 -1.67928 0
M  V30 11416 H 1073.62 1.19136 -0.808863 0
M  V30 11417 H 1075.58 4.21388 0.0318068 0
M  V30 11418 H 1074.3 3.18401 0.727226 0
M  V30 11419 H 1072.96 3.39009 -1.3953 0
M  V30 11420 H 1072.61 5.00706 0.479875 0
M  V30 11421 H 1072.31 5.77197 -1.1008 0
M  V30 11422 H 1073.83 6.10172 -0.228629 0
M  V30 11423 H 1075.25 5.23835 -2.32958 0
M  V30 11424 H 1073.64 5.13021 -3.11335 0
M  V30 11425 H 1074.71 3.71667 -3.11435 0
M  V30 11426 N 1076.06 0.894434 1.2976 0
M  V30 11427 C 1077.47 0.566892 1.77885 0
M  V30 11428 C 1077.82 -0.917289 1.73437 0
M  V30 11429 O 1076.94 -1.71707 1.31703 0
M  V30 11430 C 1077.54 1.02227 3.2301 0
M  V30 11431 C 1076.1 0.745978 3.68934 0
M  V30 11432 C 1075.24 1.19993 2.49994 0
M  V30 11433 H 1078.2 1.0777 1.16496 0
M  V30 11434 H 1078.22 0.355281 3.78838 0
M  V30 11435 H 1077.73 2.1025 3.26215 0
M  V30 11436 H 1075.83 -0.321866 3.71207 0
M  V30 11437 H 1075.94 1.34017 4.59974 0
M  V30 11438 H 1074.31 0.619047 2.47063 0
M  V30 11439 H 1075.09 2.28811 2.55931 0
M  V30 11440 N 1077.53 -1.43282 0.656365 0
M  V30 11441 C 1078.76 -2.06641 0.177245 0
M  V30 11442 C 1079.18 -1.48893 -1.14946 0
M  V30 11443 O 1078.54 -0.600099 -1.7108 0
M  V30 11444 C 1078.59 -3.60453 0.10299 0
M  V30 11445 O 1077.69 -4.01687 -0.933895 0
M  V30 11446 H 1077.04 -0.656978 0.096314 0
M  V30 11447 H 1079.57 -1.83733 0.900178 0
M  V30 11448 H 1079.58 -4.07923 -0.079291 0
M  V30 11449 H 1078.25 -4.01861 1.07147 0
M  V30 11450 H 1076.83 -3.65801 -0.724148 0
M  V30 11451 N 1079.01 -0.398486 -1.52479 0
M  V30 11452 C 1080.26 0.181019 -2.0199 0
M  V30 11453 C 1080.59 1.45691 -1.28405 0
M  V30 11454 O 1079.87 1.90607 -0.387207 0
M  V30 11455 C 1080.15 0.439587 -3.57407 0
M  V30 11456 C 1080 -0.85223 -4.41653 0
M  V30 11457 C 1081.32 1.2263 -4.2267 0
M  V30 11458 H 1078.44 0.0643164 -0.734188 0
M  V30 11459 H 1081.08 -0.52986 -1.82462 0
M  V30 11460 H 1079.23 1.04516 -3.74177 0
M  V30 11461 H 1080.91 -1.48879 -4.36615 0
M  V30 11462 H 1079.15 -1.46555 -4.08294 0
M  V30 11463 H 1079.82 -0.625839 -5.48441 0
M  V30 11464 H 1082.3 0.713722 -4.09933 0
M  V30 11465 H 1081.17 1.37596 -5.31374 0
M  V30 11466 H 1081.43 2.24403 -3.80914 0
M  V30 11467 N 1080.49 1.57075 -0.12858 0
M  V30 11468 C 1081.44 2.17084 0.835308 0
M  V30 11469 C 1082.43 1.12268 1.26855 0
M  V30 11470 O 1083.64 1.30554 1.23917 0
M  V30 11471 H 1080.01 0.694866 0.287516 0
M  V30 11472 H 1081.99 2.96839 0.304798 0
M  V30 11473 C 1080.73 2.79237 2.07177 0
M  V30 11474 H 1080.06 3.59594 1.74735 0
M  V30 11475 H 1081.5 3.24751 2.72604 0
M  V30 11476 C 1079.96 1.76803 2.86779 0
M  V30 11477 O 1080.49 1.22723 3.82494 0
M  V30 11478 N 1078.69 1.46525 2.50956 0
M  V30 11479 H 1078.24 1.90694 1.73187 0
M  V30 11480 H 1078.2 0.782326 3.04511 0
M  V30 11481 N 1081.97 -0.145205 1.5693 0
M  V30 11482 C 1082.92 -1.19841 1.99351 0
M  V30 11483 C 1083.91 -1.44371 0.886197 0
M  V30 11484 O 1085.12 -1.44642 1.07138 0
M  V30 11485 H 1081.49 -0.403437 0.63462 0
M  V30 11486 H 1083.46 -0.813932 2.87085 0
M  V30 11487 C 1082.21 -2.52377 2.39167 0
M  V30 11488 H 1081.54 -2.34332 3.23927 0
M  V30 11489 H 1082.98 -3.24694 2.72671 0
M  V30 11490 C 1081.43 -3.1305 1.24503 0
M  V30 11491 O 1081.96 -3.97962 0.546739 0
M  V30 11492 N 1080.17 -2.72528 1.00882 0
M  V30 11493 H 1079.72 -2.03576 1.57843 0
M  V30 11494 H 1079.68 -3.13456 0.24351 0
M  V30 11495 N 1083.45 -1.52049 -0.414609 0
M  V30 11496 C 1084.41 -1.74382 -1.4874 0
M  V30 11497 C 1085.41 -0.613701 -1.48628 0
M  V30 11498 O 1086.6 -0.88152 -1.50249 0
M  V30 11499 C 1083.73 -1.82116 -2.88178 0
M  V30 11500 H 1084.93 -2.70147 -1.30233 0
M  V30 11501 H 1082.48 -1.42382 -0.644756 0
M  V30 11502 H 1083.21 -0.882457 -3.12063 0
M  V30 11503 H 1083 -2.64268 -2.89663 0
M  V30 11504 H 1084.49 -2.01155 -3.65959 0
M  V30 11505 N 1084.93 0.6715 -1.42579 0
M  V30 11506 C 1085.84 1.81435 -1.48723 0
M  V30 11507 C 1086.85 1.69895 -0.375716 0
M  V30 11508 O 1088.03 1.91388 -0.627115 0
M  V30 11509 C 1085.09 3.17599 -1.39038 0
M  V30 11510 C 1084.15 3.41071 -2.60709 0
M  V30 11511 C 1083.39 4.7074 -2.51476 0
M  V30 11512 O 1083.61 5.48868 -1.55243 0
M  V30 11513 O 1082.54 4.95528 -3.41666 0
M  V30 11514 H 1086.37 1.79206 -2.45191 0
M  V30 11515 H 1083.95 0.827666 -1.24379 0
M  V30 11516 H 1085.84 3.98847 -1.3601 0
M  V30 11517 H 1084.51 3.20458 -0.456966 0
M  V30 11518 H 1083.42 2.59659 -2.69311 0
M  V30 11519 H 1084.75 3.43045 -3.5296 0
M  V30 11520 N 1086.4 1.28806 0.908124 0
M  V30 11521 C 1087.81 1.14719 1.47297 0
M  V30 11522 C 1088.17 -0.260763 1.94459 0
M  V30 11523 O 1087.29 -1.15553 1.82966 0
M  V30 11524 C 1087.89 2.07643 2.67712 0
M  V30 11525 C 1086.44 1.97605 3.20358 0
M  V30 11526 C 1085.59 1.99058 1.93058 0
M  V30 11527 H 1088.54 1.41413 0.720283 0
M  V30 11528 H 1088.56 1.64372 3.43165 0
M  V30 11529 H 1088.08 3.10108 2.33355 0
M  V30 11530 H 1086.18 0.981982 3.59427 0
M  V30 11531 H 1086.29 2.84846 3.85226 0
M  V30 11532 H 1084.65 1.43541 2.104 0
M  V30 11533 H 1085.44 3.03212 1.60989 0
M  V30 11534 N 1087.88 -1.11734 1.11145 0
M  V30 11535 C 1089.13 -1.83043 0.856717 0
M  V30 11536 C 1089.45 -1.84901 -0.619407 0
M  V30 11537 O 1088.72 -1.31738 -1.44989 0
M  V30 11538 H 1087.3 -0.677823 0.31395 0
M  V30 11539 H 1089.96 -1.35262 1.40322 0
M  V30 11540 H 1089.06 -2.87005 1.22616 0
M  V30 11541 N 1089.36 -0.901303 -1.29284 0
M  V30 11542 C 1090.31 -0.378666 -2.27672 0
M  V30 11543 C 1091.28 0.540102 -1.57074 0
M  V30 11544 O 1092.46 0.464997 -1.85047 0
M  V30 11545 C 1089.6 0.38635 -3.42931 0
M  V30 11546 C 1088.71 -0.563496 -4.28309 0
M  V30 11547 C 1087.85 0.218731 -5.30749 0
M  V30 11548 C 1086.89 -0.725536 -6.07785 0
M  V30 11549 N 1086.03 0.0223854 -7.02096 0
M  V30 11550 H 1090.87 -1.22277 -2.71758 0
M  V30 11551 H 1088.4 -0.614302 -1.33659 0
M  V30 11552 H 1090.36 0.845967 -4.08533 0
M  V30 11553 H 1088.99 1.1949 -2.9987 0
M  V30 11554 H 1088.04 -1.14163 -3.62865 0
M  V30 11555 H 1089.35 -1.28623 -4.81931 0
M  V30 11556 H 1088.51 0.739473 -6.02177 0
M  V30 11557 H 1087.25 0.97459 -4.77863 0
M  V30 11558 H 1086.25 -1.25776 -5.3522 0
M  V30 11559 H 1087.48 -1.48075 -6.6276 0
M  V30 11560 H 1085.42 0.760482 -6.51577 0
M  V30 11561 H 1085.34 -0.640408 -7.53283 0
M  V30 11562 H 1086.61 0.523339 -7.77741 0
M  V30 11563 N 1090.84 1.42931 -0.663954 0
M  V30 11564 C 1092.25 1.56098 -0.332496 0
M  V30 11565 C 1092.45 1.64564 1.16279 0
M  V30 11566 O 1091.51 1.6066 1.94794 0
M  V30 11567 C 1092.82 2.81649 -1.05329 0
M  V30 11568 C 1094.37 2.95408 -1.03457 0
M  V30 11569 C 1094.85 4.23805 -1.73647 0
M  V30 11570 N 1096.34 4.30693 -1.70462 0
M  V30 11571 C 1097.07 5.28833 -2.21637 0
M  V30 11572 N 1096.57 6.33189 -2.81147 0
M  V30 11573 N 1098.36 5.20558 -2.12075 0
M  V30 11574 H 1090.51 1.3568 -1.63416 0
M  V30 11575 H 1092.77 0.652361 -0.687844 0
M  V30 11576 H 1092.48 2.81494 -2.10842 0
M  V30 11577 H 1092.35 3.72208 -0.611626 0
M  V30 11578 H 1094.74 2.95097 0.0121936 0
M  V30 11579 H 1094.82 2.06109 -1.51502 0
M  V30 11580 H 1094.47 4.24876 -2.78285 0
M  V30 11581 H 1094.4 5.12019 -1.2306 0
M  V30 11582 H 1096.89 3.55904 -1.27046 0
M  V30 11583 H 1097.2 7.04411 -3.17844 0
M  V30 11584 H 1095.55 6.33781 -2.85212 0
M  V30 11585 H 1098.74 4.3795 -1.6528 0
M  V30 11586 H 1098.91 5.96881 -2.52264 0
M  V30 11587 N 1092.32 0.406567 1.52266 0
M  V30 11588 C 1093.55 -0.169378 2.05905 0
M  V30 11589 C 1093.95 -1.39626 1.27676 0
M  V30 11590 O 1093.3 -1.80871 0.32114 0
M  V30 11591 C 1093.36 -0.587209 3.54672 0
M  V30 11592 C 1093.02 0.528588 4.53933 0
M  V30 11593 C 1094.02 1.39137 5.00936 0
M  V30 11594 C 1091.7 0.700549 4.97391 0
M  V30 11595 C 1093.7 2.41108 5.90039 0
M  V30 11596 C 1091.39 1.72357 5.8629 0
M  V30 11597 C 1092.38 2.57725 6.32509 0
M  V30 11598 O 1092.07 3.58275 7.19649 0
M  V30 11599 H 1091.8 -0.0250574 0.675535 0
M  V30 11600 H 1094.36 0.575377 1.97177 0
M  V30 11601 H 1092.59 -1.38421 3.61077 0
M  V30 11602 H 1094.28 -1.09078 3.90969 0
M  V30 11603 H 1095.04 1.26991 4.68079 0
M  V30 11604 H 1090.92 0.0457503 4.60977 0
M  V30 11605 H 1094.47 3.07774 6.26036 0
M  V30 11606 H 1090.36 1.84535 6.1856 0
M  V30 11607 H 1091.13 3.54489 7.37753 0
M  V30 11608 N 1093.79 -1.57004 0.136909 0
M  V30 11609 C 1095.04 -1.94972 -0.51662 0
M  V30 11610 C 1095.36 -1.02367 -1.66674 0
M  V30 11611 O 1096.56 -1.29873 -2.38423 0
M  V30 11612 C 1095.02 -3.4657 -0.970435 0
M  V30 11613 C 1094.63 -4.47741 0.152204 0
M  V30 11614 C 1096.37 -3.93423 -1.59432 0
M  V30 11615 C 1094.28 -5.90537 -0.319315 0
M  V30 11616 H 1093.21 -0.727873 -0.196766 0
M  V30 11617 H 1095.86 -1.82181 0.219637 0
M  V30 11618 H 1094.24 -3.54657 -1.76165 0
M  V30 11619 H 1095.41 -4.5134 0.928925 0
M  V30 11620 H 1093.73 -4.10746 0.683867 0
M  V30 11621 H 1096.33 -4.97539 -1.95856 0
M  V30 11622 H 1096.67 -3.34404 -2.47951 0
M  V30 11623 H 1097.2 -3.8821 -0.868193 0
M  V30 11624 H 1093.94 -6.53352 0.530248 0
M  V30 11625 H 1093.46 -5.90321 -1.06213 0
M  V30 11626 H 1095.14 -6.42346 -0.774662 0
M  V30 11627 N 1095.27 0.136881 -1.57004 0
M  V30 11628 C 1096.5 0.861186 -1.87796 0
M  V30 11629 C 1096.91 1.74788 -0.724272 0
M  V30 11630 O 1096.25 1.80984 0.31471 0
M  V30 11631 C 1096.32 1.76115 -3.13407 0
M  V30 11632 C 1095.98 1.05059 -4.4476 0
M  V30 11633 C 1096.98 0.399736 -5.18361 0
M  V30 11634 C 1094.66 1.03709 -4.91477 0
M  V30 11635 C 1096.66 -0.255127 -6.36889 0
M  V30 11636 C 1094.34 0.378414 -6.09927 0
M  V30 11637 C 1095.34 -0.266555 -6.8248 0
M  V30 11638 O 1095.03 -0.914757 -7.98679 0
M  V30 11639 H 1094.76 0.253855 -0.626525 0
M  V30 11640 H 1097.31 0.131291 -2.0498 0
M  V30 11641 H 1095.54 2.53224 -2.92257 0
M  V30 11642 H 1097.23 2.3583 -3.30362 0
M  V30 11643 H 1098 0.401909 -4.83332 0
M  V30 11644 H 1093.88 1.52852 -4.34922 0
M  V30 11645 H 1097.42 -0.759135 -6.93457 0
M  V30 11646 H 1093.32 0.373942 -6.44416 0
M  V30 11647 H 1094.09 -0.817437 -8.14408 0
M  V30 11648 N 1096.75 1.52266 0.40654 0
M  V30 11649 C 1097.7 1.75794 1.4955 0
M  V30 11650 C 1098.67 0.600472 1.54866 0
M  V30 11651 O 1099.85 0.838305 1.71397 0
M  V30 11652 C 1096.99 1.91682 2.86971 0
M  V30 11653 C 1096.11 3.19337 2.90943 0
M  V30 11654 C 1095.24 3.25641 4.1968 0
M  V30 11655 C 1094.28 4.47488 4.17637 0
M  V30 11656 N 1093.42 4.51171 5.37949 0
M  V30 11657 H 1098.26 2.68733 1.28789 0
M  V30 11658 H 1095.79 1.33157 0.625102 0
M  V30 11659 H 1097.75 1.98877 3.66748 0
M  V30 11660 H 1096.38 1.02121 3.06221 0
M  V30 11661 H 1095.43 3.21301 2.03642 0
M  V30 11662 H 1096.75 4.09153 2.85299 0
M  V30 11663 H 1095.9 3.31922 5.07851 0
M  V30 11664 H 1094.64 2.33769 4.28023 0
M  V30 11665 H 1093.64 4.41351 3.27856 0
M  V30 11666 H 1094.87 5.40659 4.10932 0
M  V30 11667 H 1092.81 3.62182 5.46955 0
M  V30 11668 H 1092.73 5.34835 5.3431 0
M  V30 11669 H 1094 4.61685 6.28066 0
M  V30 11670 N 1098.23 -0.663929 1.42933 0
M  V30 11671 C 1099.47 -1.42603 1.44195 0
M  V30 11672 C 1099.81 -1.94101 0.0620284 0
M  V30 11673 O 1099.08 -1.71609 -0.91546 0
M  V30 11674 C 1099.37 -2.61522 2.47544 0
M  V30 11675 C 1099.22 -2.15587 3.94769 0
M  V30 11676 C 1100.54 -3.6374 2.47753 0
M  V30 11677 H 1097.66 -0.517189 0.525056 0
M  V30 11678 H 1100.3 -0.75361 1.74415 0
M  V30 11679 H 1098.45 -3.1889 2.21904 0
M  V30 11680 H 1100.12 -1.63303 4.31428 0
M  V30 11681 H 1098.36 -1.47057 4.08114 0
M  V30 11682 H 1099.03 -3.01053 4.62678 0
M  V30 11683 H 1101.51 -3.16111 2.70579 0
M  V30 11684 H 1100.39 -4.44512 3.22025 0
M  V30 11685 H 1100.65 -4.15607 1.50742 0
M  V30 11686 N 1099.71 -1.29285 -0.901281 0
M  V30 11687 C 1100.64 -1.16832 -2.0217 0
M  V30 11688 C 1101.62 -0.0629265 -1.69984 0
M  V30 11689 O 1102.8 -0.242123 -1.92685 0
M  V30 11690 C 1099.93 -0.842406 -3.36929 0
M  V30 11691 C 1098.89 -1.90394 -3.8332 0
M  V30 11692 C 1098.21 -1.43138 -5.15185 0
M  V30 11693 C 1099.51 -3.31254 -4.03817 0
M  V30 11694 H 1101.21 -2.10562 -2.12847 0
M  V30 11695 H 1098.75 -1.01375 -1.0227 0
M  V30 11696 H 1100.71 -0.741999 -4.14816 0
M  V30 11697 H 1099.43 0.130598 -3.26339 0
M  V30 11698 H 1098.09 -1.99371 -3.07647 0
M  V30 11699 H 1097.74 -0.447091 -5.01009 0
M  V30 11700 H 1097.44 -2.14129 -5.47195 0
M  V30 11701 H 1098.96 -1.34444 -5.95615 0
M  V30 11702 H 1100.37 -3.25129 -4.72191 0
M  V30 11703 H 1098.77 -4.00189 -4.47178 0
M  V30 11704 H 1099.84 -3.74349 -3.08206 0
M  V30 11705 N 1101.18 1.11143 -1.11736 0
M  V30 11706 C 1102.6 1.64462 -0.883693 0
M  V30 11707 C 1102.95 1.87324 0.583448 0
M  V30 11708 O 1102.07 1.60975 1.44623 0
M  V30 11709 C 1102.67 2.98765 -1.59764 0
M  V30 11710 C 1101.23 3.4898 -1.41032 0
M  V30 11711 C 1100.37 2.23729 -1.63831 0
M  V30 11712 H 1103.32 0.947415 -1.27317 0
M  V30 11713 H 1103.34 3.65885 -1.04443 0
M  V30 11714 H 1102.86 2.82094 -2.66542 0
M  V30 11715 H 1100.96 3.7081 -0.364781 0
M  V30 11716 H 1101.07 4.27571 -2.16148 0
M  V30 11717 H 1099.43 2.31507 -1.06191 0
M  V30 11718 H 1100.22 2.09597 -2.7189 0
M  V30 11719 N 1102.66 0.908147 1.28804 0
M  V30 11720 C 1103.59 0.34957 2.26519 0
M  V30 11721 C 1104.61 -0.508845 1.54643 0
M  V30 11722 O 1105.8 -0.324633 1.75523 0
M  V30 11723 C 1102.9 -0.519461 3.34895 0
M  V30 11724 C 1102.07 0.315157 4.36263 0
M  V30 11725 C 1101.13 -0.488059 5.23932 0
M  V30 11726 O 1100.15 0.0974133 5.69117 0
M  V30 11727 N 1101.36 -1.79233 5.52137 0
M  V30 11728 H 1104.12 1.18945 2.75086 0
M  V30 11729 H 1101.68 0.77351 1.42227 0
M  V30 11730 H 1103.67 -1.0634 3.90479 0
M  V30 11731 H 1102.24 -1.26004 2.8608 0
M  V30 11732 H 1101.46 1.04049 3.8022 0
M  V30 11733 H 1102.75 0.886438 5.01019 0
M  V30 11734 H 1102.15 -2.2906 5.1725 0
M  V30 11735 H 1100.71 -2.28322 6.10502 0
M  V30 11736 N 1104.14 -1.42577 0.671525 0
M  V30 11737 C 1105.39 -2.01185 0.192051 0
M  V30 11738 C 1105.71 -1.53349 -1.20454 0
M  V30 11739 O 1104.98 -0.753781 -1.80817 0
M  V30 11740 H 1103.56 -0.743898 0.0680106 0
M  V30 11741 H 1106.22 -1.74539 0.8673 0
M  V30 11742 H 1105.32 -3.11516 0.190796 0
M  V30 11743 N 1105.62 -0.414636 -1.52048 0
M  V30 11744 C 1106.86 0.151945 -2.02832 0
M  V30 11745 C 1107.22 1.42337 -1.29452 0
M  V30 11746 O 1106.51 1.87509 -0.39383 0
M  V30 11747 C 1106.71 0.448327 -3.54577 0
M  V30 11748 C 1106.54 -0.792827 -4.42656 0
M  V30 11749 C 1105.31 -1.31966 -4.87763 0
M  V30 11750 C 1107.5 -1.67252 -4.86345 0
M  V30 11751 N 1105.49 -2.51572 -5.59986 0
M  V30 11752 C 1106.86 -2.71479 -5.57404 0
M  V30 11753 C 1108.91 -1.68963 -4.68354 0
M  V30 11754 C 1107.61 -3.77334 -6.12382 0
M  V30 11755 C 1109.64 -2.7374 -5.24233 0
M  V30 11756 C 1109 -3.76687 -5.95219 0
M  V30 11757 H 1105.1 0.0170247 -0.781815 0
M  V30 11758 H 1107.69 -0.570219 -1.86163 0
M  V30 11759 H 1105.86 1.13953 -3.71307 0
M  V30 11760 H 1107.59 1.00427 -3.92041 0
M  V30 11761 H 1104.34 -0.876885 -4.65411 0
M  V30 11762 H 1104.77 -3.12161 -6.00737 0
M  V30 11763 H 1109.41 -0.907103 -4.12955 0
M  V30 11764 H 1107.13 -4.56439 -6.6685 0
M  V30 11765 H 1110.71 -2.75978 -5.12179 0
M  V30 11766 H 1109.59 -4.56431 -6.37684 0
M  V30 11767 N 1107.1 1.56929 -0.145233 0
M  V30 11768 C 1108.04 2.16671 0.795128 0
M  V30 11769 C 1109.01 1.09908 1.24537 0
M  V30 11770 O 1110.2 1.37941 1.31821 0
M  V30 11771 C 1107.34 2.79111 2.02956 0
M  V30 11772 C 1106.45 4.00261 1.62528 0
M  V30 11773 C 1105.59 4.50705 2.81137 0
M  V30 11774 C 1104.63 5.64324 2.37075 0
M  V30 11775 N 1103.76 6.09395 3.48687 0
M  V30 11776 H 1108.6 2.96692 0.278865 0
M  V30 11777 H 1106.14 1.4656 0.125934 0
M  V30 11778 H 1108.1 3.13456 2.7532 0
M  V30 11779 H 1106.73 2.01737 2.51996 0
M  V30 11780 H 1105.78 3.71906 0.799365 0
M  V30 11781 H 1107.09 4.8258 1.26166 0
M  V30 11782 H 1106.25 4.87096 3.61693 0
M  V30 11783 H 1104.98 3.67389 3.20744 0
M  V30 11784 H 1103.99 5.27511 1.54958 0
M  V30 11785 H 1105.21 6.49425 1.98556 0
M  V30 11786 H 1103.16 5.29014 3.87917 0
M  V30 11787 H 1103.08 6.86636 3.16333 0
M  V30 11788 H 1104.35 6.50431 4.29605 0
M  V30 11789 N 1108.58 -0.128553 1.57075 0
M  V30 11790 C 1109.82 -0.836355 1.83982 0
M  V30 11791 C 1110.14 -1.80862 0.728971 0
M  V30 11792 O 1109.41 -1.94326 -0.247859 0
M  V30 11793 H 1107.99 -0.31185 0.678792 0
M  V30 11794 H 1110.66 -0.118153 1.94542 0
M  V30 11795 H 1109.75 -1.38741 2.79567 0
M  V30 11796 N 1110.05 -1.5248 -0.398459 0
M  V30 11797 C 1111.28 -1.71221 -1.17039 0
M  V30 11798 C 1111.7 -0.425515 -1.83224 0
M  V30 11799 O 1111.06 0.617938 -1.70444 0
M  V30 11800 C 1111.11 -2.8562 -2.20121 0
M  V30 11801 O 1110.21 -2.51934 -3.26501 0
M  V30 11802 H 1109.55 -0.569654 -0.34116 0
M  V30 11803 H 1112.08 -1.99231 -0.465652 0
M  V30 11804 H 1112.09 -3.10842 -2.64275 0
M  V30 11805 H 1110.77 -3.78969 -1.71334 0
M  V30 11806 H 1109.35 -2.3742 -2.87552 0
M  V30 11807 N 1111.53 0.65634 -1.43283 0
M  V30 11808 C 1112.94 1.23744 -1.39801 0
M  V30 11809 C 1113.29 1.95942 -0.100507 0
M  V30 11810 O 1112.42 2.01063 0.800161 0
M  V30 11811 C 1113.01 2.25062 -2.53244 0
M  V30 11812 C 1111.57 2.78657 -2.53036 0
M  V30 11813 C 1110.72 1.53251 -2.31105 0
M  V30 11814 H 1113.67 0.448553 -1.52229 0
M  V30 11815 H 1113.69 3.07174 -2.24553 0
M  V30 11816 H 1113.2 1.72487 -3.47664 0
M  V30 11817 H 1111.3 3.35304 -1.62487 0
M  V30 11818 H 1111.42 3.26414 -3.507 0
M  V30 11819 H 1109.78 1.80487 -1.79713 0
M  V30 11820 H 1110.56 1.02615 -3.27605 0
M  V30 11821 N 1113.01 1.29761 0.894412 0
M  V30 11822 C 1113.97 1.15335 1.98067 0
M  V30 11823 C 1114.97 0.0872804 1.60563 0
M  V30 11824 O 1116.16 0.334645 1.70955 0
M  V30 11825 C 1113.29 0.764907 3.32208 0
M  V30 11826 H 1114.49 2.11829 2.12293 0
M  V30 11827 H 1112.04 1.13023 1.0796 0
M  V30 11828 H 1112.78 -0.199948 3.23683 0
M  V30 11829 H 1112.56 1.53523 3.60795 0
M  V30 11830 H 1114.05 0.687176 4.11907 0
M  V30 11831 N 1114.49 -1.10549 1.12324 0
M  V30 11832 C 1115.74 -1.81851 0.872531 0
M  V30 11833 C 1116.05 -1.86058 -0.603468 0
M  V30 11834 O 1117.26 -2.53553 -0.970736 0
M  V30 11835 C 1115.71 -3.26631 1.51131 0
M  V30 11836 C 1115.32 -3.30725 3.02201 0
M  V30 11837 C 1117.06 -4.02768 1.34082 0
M  V30 11838 C 1114.97 -4.69957 3.59018 0
M  V30 11839 H 1113.9 -0.681422 0.322769 0
M  V30 11840 H 1116.55 -1.24332 1.34959 0
M  V30 11841 H 1114.93 -3.8414 0.961913 0
M  V30 11842 H 1116.11 -2.83046 3.63623 0
M  V30 11843 H 1114.42 -2.68072 3.18632 0
M  V30 11844 H 1117.02 -5.05612 1.73955 0
M  V30 11845 H 1117.36 -4.15328 0.284369 0
M  V30 11846 H 1117.9 -3.51671 1.85937 0
M  V30 11847 H 1114.63 -4.62597 4.64418 0
M  V30 11848 H 1114.15 -5.18008 3.02371 0
M  V30 11849 H 1115.83 -5.38925 3.58007 0
M  V30 11850 N 1115.97 -0.914965 -1.28321 0
M  V30 11851 C 1117.21 -0.548749 -1.94923 0
M  V30 11852 C 1117.54 0.907776 -1.72016 0
M  V30 11853 O 1116.8 1.66097 -1.03491 0
M  V30 11854 C 1117.09 -0.805805 -3.48198 0
M  V30 11855 C 1116.76 -2.24207 -3.91206 0
M  V30 11856 C 1115.42 -2.63475 -4.02659 0
M  V30 11857 C 1117.77 -3.17667 -4.13204 0
M  V30 11858 C 1115.1 -3.95353 -4.3349 0
M  V30 11859 C 1117.45 -4.4911 -4.45514 0
M  V30 11860 C 1116.12 -4.8823 -4.55179 0
M  V30 11861 H 1115.39 -0.200801 -0.713274 0
M  V30 11862 H 1118.04 -1.15652 -1.52633 0
M  V30 11863 H 1116.34 -0.115244 -3.9163 0
M  V30 11864 H 1118.04 -0.501609 -3.9785 0
M  V30 11865 H 1114.63 -1.92737 -3.82819 0
M  V30 11866 H 1118.81 -2.88537 -4.03807 0
M  V30 11867 H 1114.07 -4.25362 -4.39178 0
M  V30 11868 H 1118.24 -5.21542 -4.61483 0
M  V30 11869 H 1115.87 -5.90451 -4.78823 0
M  V30 11870 N 1117.44 1.42219 -0.679077 0
M  V30 11871 C 1118.38 2.29172 0.035583 0
M  V30 11872 C 1119.39 1.43909 0.761183 0
M  V30 11873 O 1120.58 1.67584 0.61463 0
M  V30 11874 C 1117.68 3.21426 1.07419 0
M  V30 11875 C 1116.85 4.35364 0.421547 0
M  V30 11876 C 1115.91 5.08307 1.36051 0
M  V30 11877 O 1114.94 5.62678 0.859186 0
M  V30 11878 N 1116.14 5.14222 2.69362 0
M  V30 11879 H 1118.9 2.91147 -0.710865 0
M  V30 11880 H 1116.46 1.53192 -0.523821 0
M  V30 11881 H 1118.46 3.67091 1.70371 0
M  V30 11882 H 1117.03 2.60873 1.72233 0
M  V30 11883 H 1116.25 3.9229 -0.387559 0
M  V30 11884 H 1117.53 5.08789 -0.0329421 0
M  V30 11885 H 1116.93 4.71467 3.12627 0
M  V30 11886 H 1115.49 5.63519 3.27551 0
M  V30 11887 N 1118.92 0.422693 1.51826 0
M  V30 11888 C 1120.15 -0.14753 2.06073 0
M  V30 11889 C 1120.56 -1.38264 1.2915 0
M  V30 11890 O 1119.9 -1.8052 0.340306 0
M  V30 11891 C 1119.96 -0.549558 3.55275 0
M  V30 11892 C 1119.63 0.576704 4.53347 0
M  V30 11893 C 1120.63 1.44442 4.99432 0
M  V30 11894 C 1118.31 0.753264 4.9662 0
M  V30 11895 C 1120.3 2.47352 5.87448 0
M  V30 11896 C 1117.99 1.78566 5.84429 0
M  V30 11897 C 1118.99 2.64419 6.29739 0
M  V30 11898 O 1118.68 3.65888 7.15808 0
M  V30 11899 H 1118.41 -0.0178911 0.675763 0
M  V30 11900 H 1120.96 0.596258 1.96555 0
M  V30 11901 H 1119.19 -1.34583 3.62525 0
M  V30 11902 H 1120.88 -1.04925 3.92104 0
M  V30 11903 H 1121.65 1.31948 4.66706 0
M  V30 11904 H 1117.53 0.0946405 4.60903 0
M  V30 11905 H 1121.07 3.14397 6.22736 0
M  V30 11906 H 1116.97 1.91086 6.16568 0
M  V30 11907 H 1117.74 3.62294 7.33952 0
M  V30 11908 N 1120.4 -1.5685 0.153553 0
M  V30 11909 C 1121.63 -2.00701 -0.502678 0
M  V30 11910 C 1122.04 -1.0337 -1.57988 0
M  V30 11911 O 1121.4 -0.0317233 -1.82472 0
M  V30 11912 C 1121.45 -3.44443 -1.09732 0
M  V30 11913 O 1121.17 -4.38054 -0.0631405 0
M  V30 11914 C 1122.67 -4.03605 -1.83352 0
M  V30 11915 H 1119.89 -0.658229 -0.130289 0
M  V30 11916 H 1122.44 -2.02965 0.250063 0
M  V30 11917 H 1120.59 -3.43009 -1.80065 0
M  V30 11918 H 1121.01 -5.22114 -0.499681 0
M  V30 11919 H 1122.48 -5.0616 -2.20241 0
M  V30 11920 H 1122.96 -3.44687 -2.7219 0
M  V30 11921 H 1123.56 -4.08688 -1.17703 0
M  V30 11922 N 1121.88 0.120221 -1.57141 0
M  V30 11923 C 1122.81 1.17787 -1.95452 0
M  V30 11924 C 1123.79 1.40174 -0.824016 0
M  V30 11925 O 1124.97 1.54348 -1.08208 0
M  V30 11926 C 1122.1 2.53193 -2.24969 0
M  V30 11927 C 1121.15 2.47241 -3.47526 0
M  V30 11928 S 1121.98 1.91325 -5.00155 0
M  V30 11929 C 1123.13 3.28406 -5.32823 0
M  V30 11930 H 1123.37 0.851152 -2.84856 0
M  V30 11931 H 1120.9 0.326929 -1.50899 0
M  V30 11932 H 1122.86 3.31104 -2.42652 0
M  V30 11933 H 1121.52 2.83043 -1.36181 0
M  V30 11934 H 1120.71 3.46981 -3.65541 0
M  V30 11935 H 1120.31 1.7745 -3.29223 0
M  V30 11936 H 1122.61 4.24613 -5.2793 0
M  V30 11937 H 1123.55 3.1522 -6.34068 0
M  V30 11938 H 1123.96 3.26779 -4.603 0
M  V30 11939 N 1123.36 1.52689 0.390367 0
M  V30 11940 C 1124.77 1.41909 0.730338 0
M  V30 11941 C 1124.97 0.538427 1.94173 0
M  V30 11942 O 1124.03 0.0113527 2.52497 0
M  V30 11943 C 1125.34 2.84737 0.966714 0
M  V30 11944 C 1126.89 2.94206 1.06827 0
M  V30 11945 C 1127.36 4.38042 1.33728 0
M  V30 11946 N 1128.86 4.4136 1.40553 0
M  V30 11947 C 1129.59 5.49735 1.63031 0
M  V30 11948 N 1129.09 6.68197 1.82988 0
M  V30 11949 N 1130.88 5.37276 1.65199 0
M  V30 11950 H 1123.03 2.08469 -0.406766 0
M  V30 11951 H 1125.29 0.940401 -0.11979 0
M  V30 11952 H 1125 3.51385 0.148725 0
M  V30 11953 H 1124.87 3.26909 1.88176 0
M  V30 11954 H 1127.26 2.27726 1.87683 0
M  V30 11955 H 1127.34 2.55463 0.131168 0
M  V30 11956 H 1126.99 5.05087 0.533832 0
M  V30 11957 H 1126.92 4.74336 2.28721 0
M  V30 11958 H 1129.41 3.55976 1.26844 0
M  V30 11959 H 1129.72 7.46567 1.99643 0
M  V30 11960 H 1128.06 6.71228 1.80215 0
M  V30 11961 H 1131.26 4.437 1.49158 0
M  V30 11962 H 1131.43 6.21806 1.82377 0
M  V30 11963 N 1124.83 -0.648732 1.43629 0
M  V30 11964 C 1125.78 -1.75473 1.45579 0
M  V30 11965 C 1126.77 -1.57611 0.323683 0
M  V30 11966 O 1127.96 -1.67646 0.56778 0
M  V30 11967 C 1125.09 -3.14083 1.38589 0
M  V30 11968 C 1124.18 -3.37477 2.56846 0
M  V30 11969 N 1124.57 -3.31322 3.82177 0
M  V30 11970 C 1122.86 -3.68212 2.51666 0
M  V30 11971 C 1123.57 -3.54921 4.60875 0
M  V30 11972 N 1122.54 -3.76951 3.91675 0
M  V30 11973 H 1126.34 -1.69146 2.40347 0
M  V30 11974 H 1123.86 -0.850566 1.38344 0
M  V30 11975 H 1125.85 -3.93374 1.38068 0
M  V30 11976 H 1124.51 -3.21588 0.448442 0
M  V30 11977 H 1125.53 -3.10633 4.144 0
M  V30 11978 H 1122.2 -3.82806 1.66631 0
M  V30 11979 H 1123.59 -3.55904 5.69897 0
M  V30 11980 N 1126.31 -1.30234 -0.887518 0
M  V30 11981 C 1127.56 -1.19086 -1.64153 0
M  V30 11982 C 1127.89 0.254428 -1.92526 0
M  V30 11983 O 1127.17 1.18233 -1.54438 0
M  V30 11984 C 1127.45 -2.01723 -2.98295 0
M  V30 11985 C 1127.3 -3.54458 -2.76911 0
M  V30 11986 C 1128.62 -1.85307 -3.99186 0
M  V30 11987 H 1125.74 -0.433967 -0.595686 0
M  V30 11988 H 1128.38 -1.59839 -1.0272 0
M  V30 11989 H 1126.53 -1.67096 -3.5073 0
M  V30 11990 H 1128.2 -3.99131 -2.31284 0
M  V30 11991 H 1126.45 -3.78768 -2.11464 0
M  V30 11992 H 1127.12 -4.07565 -3.72283 0
M  V30 11993 H 1129.59 -2.15575 -3.55903 0
M  V30 11994 H 1128.47 -2.45456 -4.90961 0
M  V30 11995 H 1128.73 -0.811528 -4.34588 0
M  V30 11996 N 1127.79 1.09952 -1.12909 0
M  V30 11997 C 1128.72 2.18477 -0.824014 0
M  V30 11998 C 1129.7 1.68744 0.214324 0
M  V30 11999 O 1130.89 1.94057 0.0744281 0
M  V30 12000 C 1128.02 3.46143 -0.283308 0
M  V30 12001 C 1126.97 4.09178 -1.25528 0
M  V30 12002 C 1126.3 5.31604 -0.574574 0
M  V30 12003 C 1127.6 4.52308 -2.6118 0
M  V30 12004 H 1129.29 2.44254 -1.73148 0
M  V30 12005 H 1126.84 1.17394 -0.833952 0
M  V30 12006 H 1128.79 4.21361 -0.057583 0
M  V30 12007 H 1127.51 3.19872 0.659525 0
M  V30 12008 H 1126.17 3.35973 -1.4669 0
M  V30 12009 H 1125.82 5.01611 0.37356 0
M  V30 12010 H 1125.52 5.74732 -1.22299 0
M  V30 12011 H 1127.04 6.0955 -0.358004 0
M  V30 12012 H 1128.46 5.18776 -2.44017 0
M  V30 12013 H 1126.86 5.06302 -3.22147 0
M  V30 12014 H 1127.93 3.64977 -3.19249 0
M  V30 12015 N 1129.27 0.921757 1.27833 0
M  V30 12016 C 1130.18 0.421668 2.30779 0
M  V30 12017 C 1131.19 -0.494686 1.6682 0
M  V30 12018 O 1132.37 -0.378935 1.97803 0
M  V30 12019 C 1129.44 -0.322928 3.45193 0
M  V30 12020 C 1128.5 0.627618 4.24687 0
M  V30 12021 C 1127.73 -0.0815385 5.33638 0
M  V30 12022 O 1127.95 -1.30193 5.55343 0
M  V30 12023 O 1126.89 0.58725 5.99028 0
M  V30 12024 H 1130.71 1.2763 2.7558 0
M  V30 12025 H 1128.3 0.686877 1.32674 0
M  V30 12026 H 1130.18 -0.743145 4.14796 0
M  V30 12027 H 1128.85 -1.15326 3.02459 0
M  V30 12028 H 1127.76 1.09739 3.57642 0
M  V30 12029 H 1129.09 1.425 4.71121 0
M  V30 12030 N 1130.75 -1.41857 0.686609 0
M  V30 12031 C 1132.16 -1.84439 0.289662 0
M  V30 12032 C 1132.51 -1.57462 -1.17047 0
M  V30 12033 O 1131.63 -1.04046 -1.89745 0
M  V30 12034 C 1132.23 -3.34802 0.518948 0
M  V30 12035 C 1130.79 -3.75988 0.176007 0
M  V30 12036 C 1129.93 -2.65339 0.805632 0
M  V30 12037 H 1132.89 -1.31536 0.88792 0
M  V30 12038 H 1132.91 -3.79833 -0.225209 0
M  V30 12039 H 1132.42 -3.54405 1.58173 0
M  V30 12040 H 1130.52 -3.61989 -0.882865 0
M  V30 12041 H 1130.63 -4.75009 0.624772 0
M  V30 12042 H 1129 -2.53605 0.235966 0
M  V30 12043 H 1129.78 -2.87762 1.8721 0
M  V30 12044 N 1132.22 -0.430739 -1.51599 0
M  V30 12045 C 1133.47 0.137929 -2.0203 0
M  V30 12046 C 1133.8 1.43287 -1.31526 0
M  V30 12047 O 1133.05 1.9121 -0.416814 0
M  V30 12048 C 1133.35 0.410694 -3.55032 0
M  V30 12049 C 1133.02 -0.797634 -4.43789 0
M  V30 12050 C 1131.68 -1.12902 -4.67768 0
M  V30 12051 C 1134.03 -1.60403 -4.95904 0
M  V30 12052 C 1131.36 -2.2676 -5.41107 0
M  V30 12053 C 1133.71 -2.73354 -5.70491 0
M  V30 12054 C 1132.38 -3.06955 -5.92735 0
M  V30 12055 H 1131.65 0.0504718 -0.739279 0
M  V30 12056 H 1134.29 -0.576585 -1.82614 0
M  V30 12057 H 1132.6 1.20703 -3.72744 0
M  V30 12058 H 1134.3 0.864006 -3.91581 0
M  V30 12059 H 1130.89 -0.529397 -4.25318 0
M  V30 12060 H 1135.07 -1.36122 -4.77268 0
M  V30 12061 H 1130.33 -2.53114 -5.56546 0
M  V30 12062 H 1134.5 -3.36213 -6.09864 0
M  V30 12063 H 1132.13 -3.95293 -6.49344 0
M  V30 12064 N 1133.7 1.56767 -0.161869 0
M  V30 12065 C 1135.12 1.58412 0.194403 0
M  V30 12066 C 1135.32 1.17682 1.63564 0
M  V30 12067 O 1134.37 0.884024 2.36519 0
M  V30 12068 C 1135.69 3.00599 -0.0778438 0
M  V30 12069 C 1137.24 3.12996 -0.015307 0
M  V30 12070 C 1137.71 4.57259 -0.260418 0
M  V30 12071 N 1139.2 4.62733 -0.207863 0
M  V30 12072 C 1139.94 5.72193 -0.371821 0
M  V30 12073 N 1139.43 6.90246 -0.594318 0
M  V30 12074 N 1141.23 5.61253 -0.308384 0
M  V30 12075 H 1133.38 1.81531 -1.10274 0
M  V30 12076 H 1135.64 0.840919 -0.437675 0
M  V30 12077 H 1135.35 3.3484 -1.07587 0
M  V30 12078 H 1135.22 3.71819 0.634845 0
M  V30 12079 H 1137.61 2.78588 0.97329 0
M  V30 12080 H 1137.69 2.44232 -0.760559 0
M  V30 12081 H 1137.33 4.92375 -1.24618 0
M  V30 12082 H 1137.26 5.2417 0.505334 0
M  V30 12083 H 1139.75 3.77878 -0.0411541 0
M  V30 12084 H 1140.07 7.6954 -0.70913 0
M  V30 12085 H 1138.41 6.92131 -0.630819 0
M  V30 12086 H 1141.6 4.67905 -0.135217 0
M  V30 12087 H 1141.77 6.46507 -0.439592 0
M  V30 12088 N 1135.18 -0.111886 1.57202 0
M  V30 12089 C 1136.13 -1.13688 2.00858 0
M  V30 12090 C 1137.1 -1.40752 0.881939 0
M  V30 12091 O 1138.28 -1.52498 1.14669 0
M  V30 12092 C 1135.42 -2.45641 2.42393 0
M  V30 12093 C 1134.54 -2.25452 3.68504 0
M  V30 12094 C 1133.67 -3.50686 3.9899 0
M  V30 12095 C 1132.71 -3.25685 5.18262 0
M  V30 12096 N 1131.85 -4.4314 5.44583 0
M  V30 12097 H 1136.69 -0.757611 2.88209 0
M  V30 12098 H 1134.22 -0.362582 1.42561 0
M  V30 12099 H 1136.18 -3.22627 2.64514 0
M  V30 12100 H 1134.81 -2.81447 1.58074 0
M  V30 12101 H 1133.86 -1.39349 3.53958 0
M  V30 12102 H 1135.18 -2.0296 4.55641 0
M  V30 12103 H 1134.33 -4.36087 4.21797 0
M  V30 12104 H 1133.07 -3.76216 3.10343 0
M  V30 12105 H 1132.07 -2.38675 4.95292 0
M  V30 12106 H 1133.3 -3.01518 6.08493 0
M  V30 12107 H 1131.24 -4.68778 4.58893 0
M  V30 12108 H 1131.16 -4.23778 6.26058 0
M  V30 12109 H 1132.43 -5.29654 5.71915 0
M  V30 12110 N 1136.66 -1.52894 -0.382264 0
M  V30 12111 C 1137.62 -1.77497 -1.45008 0
M  V30 12112 C 1138.62 -0.64509 -1.47293 0
M  V30 12113 O 1139.81 -0.913192 -1.48346 0
M  V30 12114 C 1136.94 -1.88188 -2.8425 0
M  V30 12115 H 1138.14 -2.72849 -1.24473 0
M  V30 12116 H 1135.69 -1.43717 -0.61441 0
M  V30 12117 H 1136.42 -0.948451 -3.10121 0
M  V30 12118 H 1136.21 -2.70353 -2.83992 0
M  V30 12119 H 1137.7 -2.08873 -3.6161 0
M  V30 12120 N 1138.14 0.641106 -1.43971 0
M  V30 12121 C 1139.09 1.77474 -1.50352 0
M  V30 12122 C 1140.08 1.65173 -0.376052 0
M  V30 12123 O 1141.29 1.71373 -0.550572 0
M  V30 12124 H 1137.66 0.585747 -0.471597 0
M  V30 12125 H 1139.63 1.69213 -2.45784 0
M  V30 12126 C 1138.38 3.15778 -1.45532 0
M  V30 12127 H 1137.7 3.25886 -2.316 0
M  V30 12128 H 1139.14 3.95022 -1.54058 0
M  V30 12129 C 1137.6 3.36447 -0.174624 0
M  V30 12130 O 1138.13 3.9446 0.759215 0
M  V30 12131 N 1136.34 2.90487 -0.0809383 0
M  V30 12132 H 1135.89 2.43461 -0.841691 0
M  V30 12133 H 1135.84 3.04693 0.775231 0
M  V30 12134 N 1139.62 1.30703 0.880598 0
M  V30 12135 C 1141.03 1.17818 1.4483 0
M  V30 12136 C 1141.38 -0.219456 1.94969 0
M  V30 12137 O 1140.5 -1.11646 1.85375 0
M  V30 12138 C 1141.1 2.13275 2.63247 0
M  V30 12139 C 1139.66 2.04356 3.16094 0
M  V30 12140 C 1138.8 2.03108 1.88792 0
M  V30 12141 H 1141.75 1.42909 0.690125 0
M  V30 12142 H 1141.78 1.71615 3.39601 0
M  V30 12143 H 1141.29 3.14988 2.26725 0
M  V30 12144 H 1139.39 1.058 3.57263 0
M  V30 12145 H 1139.5 2.92953 3.79098 0
M  V30 12146 H 1137.87 1.47971 2.07308 0
M  V30 12147 H 1138.65 3.06558 1.54521 0
M  V30 12148 N 1141.09 -1.09351 1.1349 0
M  V30 12149 C 1142.37 -1.78121 0.808225 0
M  V30 12150 C 1142.75 -1.99154 -0.700072 0
M  V30 12151 O 1142.1 -1.59356 -1.63762 0
M  V30 12152 C 1142.31 -3.10368 1.59601 0
M  V30 12153 C 1143.66 -3.85063 1.78919 0
M  V30 12154 O 1144.68 -3.20122 1.56206 0
M  V30 12155 O 1143.54 -5.01648 2.16821 0
M  V30 12156 H 1140.63 -0.77253 0.295173 0
M  V30 12157 H 1143.18 -1.15901 1.23956 0
M  V30 12158 H 1141.95 -2.90549 2.62101 0
M  V30 12159 H 1141.57 -3.80312 1.15967 0
M  V30 12160 N 1142.57 -0.928524 -1.27343 0
M  V30 12161 C 1143.82 -0.570235 -1.94618 0
M  V30 12162 C 1144.15 0.886381 -1.72792 0
M  V30 12163 O 1143.43 1.63242 -1.05747 0
M  V30 12164 C 1143.71 -0.897964 -3.48724 0
M  V30 12165 C 1143.56 -2.40839 -3.7989 0
M  V30 12166 C 1144.88 -0.404429 -4.38238 0
M  V30 12167 H 1142 -0.208645 -0.70685 0
M  V30 12168 H 1144.64 -1.16045 -1.50444 0
M  V30 12169 H 1142.79 -0.395679 -3.8648 0
M  V30 12170 H 1144.46 -2.98243 -3.51921 0
M  V30 12171 H 1142.71 -2.85723 -3.26412 0
M  V30 12172 H 1143.38 -2.58823 -4.8756 0
M  V30 12173 H 1145.85 -0.834918 -4.07637 0
M  V30 12174 H 1144.73 -0.662684 -5.44885 0
M  V30 12175 H 1144.99 0.695507 -4.36595 0
M  V30 12176 N 1144.05 1.41491 -0.694123 0
M  V30 12177 C 1145.28 2.05579 -0.233466 0
M  V30 12178 C 1145.69 1.5223 1.11675 0
M  V30 12179 O 1145.05 0.669937 1.69759 0
M  V30 12180 C 1145.1 3.61047 -0.180967 0
M  V30 12181 O 1144.82 4.12421 -1.47785 0
M  V30 12182 C 1146.32 4.42278 0.300853 0
M  V30 12183 H 1143.54 0.662097 -0.108943 0
M  V30 12184 H 1146.09 1.81288 -0.946299 0
M  V30 12185 H 1144.24 3.84381 0.482678 0
M  V30 12186 H 1144.66 5.06454 -1.364 0
M  V30 12187 H 1146.13 5.51256 0.286464 0
M  V30 12188 H 1146.61 4.18276 1.33948 0
M  V30 12189 H 1147.21 4.24004 -0.331741 0
M  V30 12190 N 1145.53 0.438773 1.51369 0
M  V30 12191 C 1146.46 -0.362467 2.3067 0
M  V30 12192 C 1147.44 -1.01973 1.36145 0
M  V30 12193 O 1148.62 -1.0231 1.65065 0
M  V30 12194 C 1145.75 -1.46313 3.14976 0
M  V30 12195 C 1144.71 -0.929272 4.1779 0
M  V30 12196 C 1144.03 -2.12579 4.90627 0
M  V30 12197 C 1145.33 0.0372782 5.22287 0
M  V30 12198 H 1147.03 0.29931 2.979 0
M  V30 12199 H 1144.57 0.14539 1.43264 0
M  V30 12200 H 1146.53 -2.03088 3.69233 0
M  V30 12201 H 1145.25 -2.15321 2.45569 0
M  V30 12202 H 1143.91 -0.383722 3.64586 0
M  V30 12203 H 1143.56 -2.8021 4.17722 0
M  V30 12204 H 1143.26 -1.77496 5.60151 0
M  V30 12205 H 1144.78 -2.69905 5.47708 0
M  V30 12206 H 1146.2 -0.44022 5.71607 0
M  V30 12207 H 1144.59 0.300748 5.99346 0
M  V30 12208 H 1145.66 0.973503 4.75027 0
M  V30 12209 N 1147.01 -1.56678 0.170181 0
M  V30 12210 C 1148.25 -1.9714 -0.475767 0
M  V30 12211 C 1148.58 -1.05611 -1.62972 0
M  V30 12212 O 1147.86 -0.103017 -1.94227 0
M  V30 12213 C 1148.14 -3.47072 -0.959828 0
M  V30 12214 C 1148 -4.4938 0.194225 0
M  V30 12215 C 1149.31 -4.00071 -1.83387 0
M  V30 12216 H 1146.43 -0.716776 -0.171466 0
M  V30 12217 H 1149.08 -1.88266 0.256086 0
M  V30 12218 H 1147.23 -3.54766 -1.58346 0
M  V30 12219 H 1148.9 -4.53748 0.83128 0
M  V30 12220 H 1147.14 -4.25393 0.849893 0
M  V30 12221 H 1147.81 -5.51685 -0.186575 0
M  V30 12222 H 1150.29 -3.95002 -1.30815 0
M  V30 12223 H 1149.16 -5.05398 -2.14159 0
M  V30 12224 H 1149.42 -3.43819 -2.77923 0
M  V30 12225 N 1148.48 0.103547 -1.57259 0
M  V30 12226 C 1149.42 1.15225 -1.98131 0
M  V30 12227 C 1150.43 1.36793 -0.882692 0
M  V30 12228 O 1151.62 1.35595 -1.16088 0
M  V30 12229 C 1148.72 2.50941 -2.27776 0
M  V30 12230 C 1147.89 2.49765 -3.59077 0
M  V30 12231 C 1146.95 3.67344 -3.76756 0
M  V30 12232 O 1145.98 3.50221 -4.48702 0
M  V30 12233 N 1147.18 4.86504 -3.16692 0
M  V30 12234 H 1149.94 0.804448 -2.88702 0
M  V30 12235 H 1147.5 0.292636 -1.59233 0
M  V30 12236 H 1149.5 3.28186 -2.36804 0
M  V30 12237 H 1148.07 2.77843 -1.43255 0
M  V30 12238 H 1147.29 1.58125 -3.61096 0
M  V30 12239 H 1148.57 2.4605 -4.4535 0
M  V30 12240 H 1147.97 5.03319 -2.58236 0
M  V30 12241 H 1146.53 5.61371 -3.31218 0
M  V30 12242 N 1149.96 1.53094 0.37415 0
M  V30 12243 C 1151.19 1.72508 1.13687 0
M  V30 12244 C 1151.6 0.449922 1.83773 0
M  V30 12245 O 1150.94 -0.586391 1.74089 0
M  V30 12246 C 1151 2.82965 2.21746 0
M  V30 12247 C 1150.67 4.23599 1.71501 0
M  V30 12248 C 1151.67 5.06245 1.1837 0
M  V30 12249 C 1149.35 4.69978 1.77273 0
M  V30 12250 C 1151.34 6.33357 0.71679 0
M  V30 12251 C 1149.03 5.9707 1.30194 0
M  V30 12252 C 1150.03 6.7859 0.774856 0
M  V30 12253 O 1149.72 8.03298 0.310981 0
M  V30 12254 H 1149.45 0.580611 0.346218 0
M  V30 12255 H 1152 2.00596 0.441614 0
M  V30 12256 H 1150.23 2.5033 2.9474 0
M  V30 12257 H 1151.92 2.90638 2.83345 0
M  V30 12258 H 1152.69 4.71591 1.13256 0
M  V30 12259 H 1148.57 4.06605 2.17241 0
M  V30 12260 H 1152.11 6.96934 0.30471 0
M  V30 12261 H 1148.01 6.31225 1.34999 0
M  V30 12262 H 1148.78 8.17364 0.431098 0
M  V30 12263 N 1151.44 -0.633461 1.44309 0
M  V30 12264 C 1152.37 -1.7583 1.45462 0
M  V30 12265 C 1153.35 -1.59545 0.313723 0
M  V30 12266 O 1154.53 -1.8146 0.51034 0
M  V30 12267 C 1151.66 -3.13375 1.28506 0
M  V30 12268 C 1150.71 -3.48315 2.46128 0
M  V30 12269 S 1151.54 -3.46058 4.08662 0
M  V30 12270 C 1152.7 -4.86226 3.94125 0
M  V30 12271 H 1152.93 -1.74585 2.4064 0
M  V30 12272 H 1150.46 -0.807868 1.31578 0
M  V30 12273 H 1152.42 -3.92748 1.19411 0
M  V30 12274 H 1151.08 -3.12161 0.348432 0
M  V30 12275 H 1150.27 -4.48397 2.30122 0
M  V30 12276 H 1149.88 -2.76399 2.51951 0
M  V30 12277 H 1152.17 -5.75393 3.57671 0
M  V30 12278 H 1153.11 -5.07287 4.9403 0
M  V30 12279 H 1153.52 -4.60691 3.26227 0
M  V30 12280 N 1152.92 -1.31168 -0.873655 0
M  V30 12281 C 1154.2 -1.11285 -1.60857 0
M  V30 12282 C 1154.58 0.333788 -2.08444 0
M  V30 12283 O 1153.92 1.32726 -1.86 0
M  V30 12284 C 1154.13 -2.12379 -2.7694 0
M  V30 12285 C 1155.48 -2.44704 -3.46994 0
M  V30 12286 O 1156.51 -2.10778 -2.87143 0
M  V30 12287 O 1155.36 -3.02786 -4.54954 0
M  V30 12288 H 1152.46 -0.428177 -0.707526 0
M  V30 12289 H 1155 -1.42634 -0.91944 0
M  V30 12290 H 1153.78 -3.09703 -2.39164 0
M  V30 12291 H 1153.4 -1.81914 -3.53544 0
M  V30 12292 N 1154.4 1.08748 -1.14068 0
M  V30 12293 C 1155.67 1.7769 -0.81766 0
M  V30 12294 C 1156.05 1.99522 0.689501 0
M  V30 12295 O 1155.4 1.60222 1.62914 0
M  V30 12296 C 1155.61 3.09517 -1.61245 0
M  V30 12297 C 1156.96 3.84108 -1.80958 0
M  V30 12298 O 1157.98 3.19289 -1.57902 0
M  V30 12299 O 1156.84 5.00491 -2.19479 0
M  V30 12300 H 1153.94 0.770953 -0.299265 0
M  V30 12301 H 1156.48 1.15242 -1.24569 0
M  V30 12302 H 1155.25 2.89155 -2.63638 0
M  V30 12303 H 1154.88 3.79692 -1.17982 0
M  V30 12304 N 1155.87 0.935264 1.26849 0
M  V30 12305 C 1157.12 0.575467 1.93317 0
M  V30 12306 C 1157.44 -0.88876 1.74242 0
M  V30 12307 O 1158.64 -1.35767 2.35116 0
M  V30 12308 C 1157.1 0.978433 3.46345 0
M  V30 12309 C 1156.71 2.46386 3.74163 0
M  V30 12310 C 1158.45 0.690249 4.18851 0
M  V30 12311 C 1156.36 2.80584 5.20602 0
M  V30 12312 H 1155.29 0.211506 0.723727 0
M  V30 12313 H 1157.94 1.1371 1.44022 0
M  V30 12314 H 1156.32 0.345379 3.94491 0
M  V30 12315 H 1157.49 3.14547 3.36745 0
M  V30 12316 H 1155.81 2.72473 3.14877 0
M  V30 12317 H 1158.41 0.922151 5.26688 0
M  V30 12318 H 1158.75 -0.372805 4.14627 0
M  V30 12319 H 1159.28 1.28275 3.76551 0
M  V30 12320 H 1156.02 3.85828 5.29921 0
M  V30 12321 H 1155.54 2.1708 5.59139 0
M  V30 12322 H 1157.22 2.68732 5.88551 0
M  V30 12323 N 1157.35 -1.41121 0.701616 0
M  V30 12324 C 1158.28 -2.33436 0.0545974 0
M  V30 12325 C 1159.26 -1.52144 -0.760662 0
M  V30 12326 O 1160.45 -1.80661 -0.712414 0
M  V30 12327 C 1157.58 -3.36015 -0.878117 0
M  V30 12328 C 1156.53 -4.27664 -0.169511 0
M  V30 12329 C 1155.86 -5.20666 -1.21699 0
M  V30 12330 C 1157.16 -5.13254 0.967859 0
M  V30 12331 H 1158.85 -2.87791 0.825637 0
M  V30 12332 H 1156.4 -1.38377 0.398484 0
M  V30 12333 H 1158.35 -3.99526 -1.34004 0
M  V30 12334 H 1157.08 -2.80024 -1.68089 0
M  V30 12335 H 1155.73 -3.65586 0.272441 0
M  V30 12336 H 1155.38 -4.60987 -2.01246 0
M  V30 12337 H 1155.08 -5.82822 -0.747836 0
M  V30 12338 H 1156.61 -5.87053 -1.6793 0
M  V30 12339 H 1158.02 -5.70298 0.585944 0
M  V30 12340 H 1156.42 -5.84381 1.3645 0
M  V30 12341 H 1157.49 -4.5006 1.80483 0
M  V30 12342 N 1158.83 -0.446794 -1.51134 0
M  V30 12343 C 1160.08 0.118047 -2.01354 0
M  V30 12344 C 1160.39 1.42953 -1.33505 0
M  V30 12345 O 1161.6 2.07788 -1.74747 0
M  V30 12346 C 1160.05 0.260912 -3.58953 0
M  V30 12347 C 1159.66 -1.0407 -4.35745 0
M  V30 12348 C 1161.41 0.779014 -4.17291 0
M  V30 12349 C 1159.31 -0.862958 -5.8507 0
M  V30 12350 H 1158.24 0.0478915 -0.752478 0
M  V30 12351 H 1160.89 -0.577997 -1.74159 0
M  V30 12352 H 1159.28 1.02018 -3.82633 0
M  V30 12353 H 1160.45 -1.80903 -4.23805 0
M  V30 12354 H 1158.77 -1.48805 -3.88904 0
M  V30 12355 H 1161.36 0.928636 -5.26574 0
M  V30 12356 H 1161.71 1.76399 -3.7708 0
M  V30 12357 H 1162.24 0.0778022 -3.97724 0
M  V30 12358 H 1158.98 -1.82059 -6.2971 0
M  V30 12359 H 1158.5 -0.134588 -5.99649 0
M  V30 12360 H 1160.18 -0.51989 -6.44908 0
M  V30 12361 N 1160.31 1.56586 -0.178487 0
M  V30 12362 C 1161.27 2.17091 0.73512 0
M  V30 12363 C 1162.27 1.12088 1.15295 0
M  V30 12364 O 1163.46 1.37563 1.06874 0
M  V30 12365 C 1160.59 2.75957 2.00151 0
M  V30 12366 H 1161.79 2.99176 0.208272 0
M  V30 12367 H 1159.34 1.56138 0.0710967 0
M  V30 12368 H 1160.07 1.97626 2.57127 0
M  V30 12369 H 1159.86 3.52809 1.7108 0
M  V30 12370 H 1161.35 3.2247 2.65335 0
M  V30 12371 N 1161.79 -0.095206 1.57312 0
M  V30 12372 C 1163.01 -0.81614 1.90667 0
M  V30 12373 C 1163.44 -1.71494 0.772746 0
M  V30 12374 O 1162.79 -1.79192 -0.275682 0
M  V30 12375 C 1162.84 -1.60555 3.22885 0
M  V30 12376 O 1161.95 -2.71448 3.10467 0
M  V30 12377 H 1161.29 -0.224217 0.624998 0
M  V30 12378 H 1163.82 -0.070464 2.04479 0
M  V30 12379 H 1163.83 -1.98979 3.5619 0
M  V30 12380 H 1162.5 -0.945918 4.05 0
M  V30 12381 H 1161.08 -2.36053 2.88675 0
M  V30 12382 N 1163.26 -1.53291 -0.366026 0
M  V30 12383 C 1164.54 -1.60055 -1.12436 0
M  V30 12384 C 1164.92 -0.407811 -2.07123 0
M  V30 12385 O 1164.27 0.601977 -2.20428 0
M  V30 12386 C 1164.48 -2.95062 -1.86385 0
M  V30 12387 C 1165.83 -3.49623 -2.40934 0
M  V30 12388 O 1166.85 -2.97088 -1.96512 0
M  V30 12389 O 1165.71 -4.41461 -3.2214 0
M  V30 12390 H 1162.8 -0.646476 -0.51575 0
M  V30 12391 H 1165.35 -1.65632 -0.369326 0
M  V30 12392 H 1164.12 -3.73312 -1.17277 0
M  V30 12393 H 1163.75 -2.92973 -2.68798 0
M  V30 12394 N 1164.74 0.6258 -1.44643 0
M  V30 12395 C 1166.16 0.944569 -1.28647 0
M  V30 12396 C 1166.36 2.00227 -0.226134 0
M  V30 12397 O 1165.41 2.4953 0.386161 0
M  V30 12398 C 1166.73 1.40278 -2.65975 0
M  V30 12399 C 1168.28 1.51797 -2.73727 0
M  V30 12400 C 1168.75 2.01 -4.11537 0
M  V30 12401 N 1170.24 2.08262 -4.13741 0
M  V30 12402 C 1170.98 2.47515 -5.17227 0
M  V30 12403 N 1170.47 2.85867 -6.31072 0
M  V30 12404 N 1172.27 2.47695 -5.04583 0
M  V30 12405 H 1164.42 -0.0736157 -2.12272 0
M  V30 12406 H 1166.68 0.0296998 -0.947535 0
M  V30 12407 H 1166.39 0.699871 -3.44666 0
M  V30 12408 H 1166.26 2.37279 -2.93221 0
M  V30 12409 H 1168.65 2.21183 -1.95351 0
M  V30 12410 H 1168.73 0.531574 -2.50216 0
M  V30 12411 H 1168.37 1.32207 -4.90391 0
M  V30 12412 H 1168.3 3.0052 -4.32429 0
M  V30 12413 H 1170.79 1.81286 -3.31578 0
M  V30 12414 H 1171.11 3.14647 -7.05845 0
M  V30 12415 H 1169.45 2.83605 -6.34502 0
M  V30 12416 H 1172.64 2.17127 -4.14697 0
M  V30 12417 H 1172.81 2.77962 -5.85356 0
M  V30 12418 N 1166.22 1.31629 0.866686 0
M  V30 12419 C 1167.45 1.24474 1.65269 0
M  V30 12420 C 1167.86 -0.18939 1.87848 0
M  V30 12421 O 1167.22 -1.12251 1.43895 0
M  V30 12422 C 1167.27 1.98872 3.01881 0
M  V30 12423 O 1166.99 3.36687 2.8031 0
M  V30 12424 C 1168.49 1.98595 3.96327 0
M  V30 12425 H 1165.71 0.429966 0.515141 0
M  V30 12426 H 1168.26 1.73559 1.08156 0
M  V30 12427 H 1166.41 1.53539 3.55675 0
M  V30 12428 H 1166.83 3.74612 3.67105 0
M  V30 12429 H 1168.3 2.55156 4.89489 0
M  V30 12430 H 1168.78 0.969257 4.28371 0
M  V30 12431 H 1169.38 2.43821 3.4847 0
M  V30 12432 N 1167.7 -1.08142 1.14644 0
M  V30 12433 C 1168.98 -1.77254 0.827071 0
M  V30 12434 C 1169.36 -1.99885 -0.67891 0
M  V30 12435 O 1168.7 -1.61084 -1.62062 0
M  V30 12436 C 1168.91 -3.08658 1.62884 0
M  V30 12437 C 1170.26 -3.83143 1.82993 0
M  V30 12438 O 1171.29 -3.18447 1.59593 0
M  V30 12439 O 1170.15 -4.9932 2.2213 0
M  V30 12440 H 1167.24 -0.769356 0.30335 0
M  V30 12441 H 1169.79 -1.1458 1.25178 0
M  V30 12442 H 1168.56 -2.87753 2.65168 0
M  V30 12443 H 1168.18 -3.79061 1.19994 0
M  V30 12444 N 1169.18 -0.941978 -1.26351 0
M  V30 12445 C 1170.11 -0.469913 -2.28723 0
M  V30 12446 C 1171.09 0.477218 -1.63269 0
M  V30 12447 O 1172.27 0.378902 -1.90468 0
M  V30 12448 C 1169.4 0.264971 -3.46288 0
M  V30 12449 C 1168.36 -0.595682 -4.23834 0
M  V30 12450 C 1167.68 0.269208 -5.34022 0
M  V30 12451 C 1168.98 -1.86743 -4.87775 0
M  V30 12452 H 1170.68 -1.32551 -2.6846 0
M  V30 12453 H 1168.22 -0.638809 -1.29055 0
M  V30 12454 H 1170.18 0.606259 -4.17016 0
M  V30 12455 H 1168.9 1.15471 -3.05506 0
M  V30 12456 H 1167.56 -0.919875 -3.54872 0
M  V30 12457 H 1167.21 1.15832 -4.89481 0
M  V30 12458 H 1166.91 -0.30325 -5.86817 0
M  V30 12459 H 1168.43 0.605748 -6.07588 0
M  V30 12460 H 1169.85 -1.59333 -5.50714 0
M  V30 12461 H 1168.24 -2.38452 -5.50691 0
M  V30 12462 H 1169.31 -2.57831 -4.10671 0
M  V30 12463 N 1170.66 1.40747 -0.709091 0
M  V30 12464 C 1171.57 2.3454 -0.0532205 0
M  V30 12465 C 1172.58 1.56956 0.751057 0
M  V30 12466 O 1173.76 1.89375 0.685509 0
M  V30 12467 C 1170.82 3.35809 0.862157 0
M  V30 12468 C 1169.88 4.29273 0.0485632 0
M  V30 12469 C 1169.12 5.25705 0.920345 0
M  V30 12470 O 1169.34 5.27933 2.15969 0
M  V30 12471 O 1168.27 6.00806 0.3628 0
M  V30 12472 H 1172.1 2.92232 -0.826698 0
M  V30 12473 H 1169.68 1.4183 -0.469519 0
M  V30 12474 H 1171.57 3.97931 1.38668 0
M  V30 12475 H 1170.24 2.8054 1.61489 0
M  V30 12476 H 1169.15 3.70456 -0.520873 0
M  V30 12477 H 1170.48 4.87676 -0.665807 0
M  V30 12478 N 1172.13 0.454803 1.50895 0
M  V30 12479 C 1173.08 -0.366073 2.25042 0
M  V30 12480 C 1174.07 -0.975353 1.27967 0
M  V30 12481 O 1175.26 -0.8906 1.52962 0
M  V30 12482 C 1172.39 -1.45683 3.10856 0
M  V30 12483 C 1171.47 -0.856086 4.1537 0
M  V30 12484 N 1171.87 0.0138787 5.05798 0
M  V30 12485 C 1170.16 -1.1218 4.31661 0
M  V30 12486 C 1170.86 0.35313 5.80627 0
M  V30 12487 N 1169.84 -0.267648 5.42941 0
M  V30 12488 H 1173.64 0.304357 2.9232 0
M  V30 12489 H 1171.16 0.267937 1.60174 0
M  V30 12490 H 1173.15 -2.05793 3.62567 0
M  V30 12491 H 1171.81 -2.12942 2.45124 0
M  V30 12492 H 1172.82 0.381574 5.16492 0
M  V30 12493 H 1169.5 -1.79059 3.77153 0
M  V30 12494 H 1170.89 1.06213 6.63452 0
M  V30 12495 N 1173.61 -1.56489 0.186789 0
M  V30 12496 C 1174.89 -1.89066 -0.501337 0
M  V30 12497 C 1175.27 -1.09906 -1.80233 0
M  V30 12498 O 1174.62 -0.197626 -2.27644 0
M  V30 12499 C 1174.83 -3.41318 -0.728207 0
M  V30 12500 C 1176.17 -4.11379 -1.0513 0
M  V30 12501 O 1177.2 -3.46722 -0.816216 0
M  V30 12502 O 1176.06 -5.25638 -1.49557 0
M  V30 12503 H 1173.15 -0.784966 -0.260303 0
M  V30 12504 H 1175.7 -1.68183 0.226382 0
M  V30 12505 H 1174.47 -3.90834 0.19088 0
M  V30 12506 H 1174.09 -3.67865 -1.50869 0
M  V30 12507 N 1175.09 0.086862 -1.5736 0
M  V30 12508 C 1176.51 0.441284 -1.53378 0
M  V30 12509 C 1176.71 1.80046 -0.904748 0
M  V30 12510 O 1175.76 2.47484 -0.500781 0
M  V30 12511 C 1177.07 0.3962 -2.98078 0
M  V30 12512 C 1178.62 0.477468 -3.09337 0
M  V30 12513 C 1179.1 0.462448 -4.55659 0
M  V30 12514 N 1180.59 0.522963 -4.60238 0
M  V30 12515 C 1181.32 0.533313 -5.70914 0
M  V30 12516 N 1180.82 0.499376 -6.90998 0
M  V30 12517 N 1182.61 0.578742 -5.59113 0
M  V30 12518 H 1174.76 -0.803308 -1.96623 0
M  V30 12519 H 1177.03 -0.299879 -0.89932 0
M  V30 12520 H 1176.73 -0.535505 -3.47599 0
M  V30 12521 H 1176.61 1.21209 -3.57195 0
M  V30 12522 H 1178.99 1.39959 -2.59799 0
M  V30 12523 H 1179.07 -0.366717 -2.53158 0
M  V30 12524 H 1178.72 -0.455768 -5.05851 0
M  V30 12525 H 1178.65 1.32396 -5.09685 0
M  V30 12526 H 1181.14 0.554051 -3.73816 0
M  V30 12527 H 1181.45 0.510784 -7.7111 0
M  V30 12528 H 1179.8 0.466296 -6.93434 0
M  V30 12529 H 1182.99 0.602841 -4.64202 0
M  V30 12530 H 1183.16 0.583339 -6.45369 0
M  V30 12531 N 1176.57 1.53483 0.357892 0
M  V30 12532 C 1177.81 1.70289 1.10134 0
M  V30 12533 C 1178.15 0.457296 1.88739 0
M  V30 12534 O 1177.42 -0.545527 1.86693 0
M  V30 12535 C 1177.7 2.95755 2.05429 0
M  V30 12536 C 1177.56 4.30489 1.30382 0
M  V30 12537 C 1178.88 3.16844 3.05447 0
M  V30 12538 H 1176 0.61965 0.399003 0
M  V30 12539 H 1178.64 1.86133 0.381357 0
M  V30 12540 H 1176.79 2.82377 2.66825 0
M  V30 12541 H 1178.46 4.55692 0.71711 0
M  V30 12542 H 1176.7 4.2955 0.605712 0
M  V30 12543 H 1177.37 5.14427 2.00171 0
M  V30 12544 H 1179.85 3.29458 2.54159 0
M  V30 12545 H 1178.73 4.06053 3.69341 0
M  V30 12546 H 1178.99 2.32476 3.76041 0
M  V30 12547 N 1178.05 -0.61812 1.44973 0
M  V30 12548 C 1179.29 -1.37944 1.48658 0
M  V30 12549 C 1179.62 -1.93805 0.123749 0
M  V30 12550 O 1178.9 -1.74434 -0.860401 0
M  V30 12551 C 1179.18 -2.53515 2.55739 0
M  V30 12552 C 1179.04 -2.02918 4.01428 0
M  V30 12553 C 1180.35 -3.55674 2.59199 0
M  V30 12554 H 1177.47 -0.500223 0.541244 0
M  V30 12555 H 1180.12 -0.69774 1.76725 0
M  V30 12556 H 1178.27 -3.11669 2.31937 0
M  V30 12557 H 1179.94 -1.49494 4.36405 0
M  V30 12558 H 1178.18 -1.33999 4.12586 0
M  V30 12559 H 1178.85 -2.86181 4.72021 0
M  V30 12560 H 1181.33 -3.07343 2.80499 0
M  V30 12561 H 1180.2 -4.34042 3.36004 0
M  V30 12562 H 1180.46 -4.10601 1.63888 0
M  V30 12563 N 1179.52 -1.32087 -0.859693 0
M  V30 12564 C 1180.45 -1.23204 -1.98351 0
M  V30 12565 C 1181.43 -0.116974 -1.69697 0
M  V30 12566 O 1182.62 -0.303301 -1.91817 0
M  V30 12567 C 1179.75 -0.949171 -3.34078 0
M  V30 12568 C 1178.7 -2.02493 -3.77069 0
M  V30 12569 C 1178.03 -1.59455 -5.1037 0
M  V30 12570 C 1179.33 -3.43934 -3.93074 0
M  V30 12571 H 1181.02 -2.17227 -2.0604 0
M  V30 12572 H 1178.57 -1.04577 -0.989931 0
M  V30 12573 H 1180.52 -0.873594 -4.12245 0
M  V30 12574 H 1179.25 0.0267095 -3.26589 0
M  V30 12575 H 1177.91 -2.09057 -3.01149 0
M  V30 12576 H 1177.55 -0.606256 -4.99333 0
M  V30 12577 H 1177.25 -2.31429 -5.40106 0
M  V30 12578 H 1178.78 -1.53325 -5.91036 0
M  V30 12579 H 1180.19 -3.39986 -4.61608 0
M  V30 12580 H 1178.59 -4.14214 -4.3422 0
M  V30 12581 H 1179.66 -3.83965 -2.9614 0
M  V30 12582 N 1181 1.07532 -1.15215 0
M  V30 12583 C 1181.93 2.14598 -0.805006 0
M  V30 12584 C 1182.95 1.61778 0.182152 0
M  V30 12585 O 1184.14 1.78453 -0.040834 0
M  V30 12586 C 1181.24 3.38444 -0.175736 0
M  V30 12587 C 1180.41 4.20621 -1.19986 0
M  V30 12588 C 1179.47 5.22851 -0.592705 0
M  V30 12589 O 1178.49 5.55121 -1.25815 0
M  V30 12590 N 1179.7 5.7711 0.626425 0
M  V30 12591 H 1182.46 2.44981 -1.7264 0
M  V30 12592 H 1180.02 1.23423 -1.04778 0
M  V30 12593 H 1182.01 4.03969 0.243166 0
M  V30 12594 H 1180.58 3.0579 0.64896 0
M  V30 12595 H 1179.8 3.50941 -1.79539 0
M  V30 12596 H 1181.09 4.72339 -1.89139 0
M  V30 12597 H 1180.49 5.53139 1.18546 0
M  V30 12598 H 1179.05 6.44273 0.98771 0
M  V30 12599 N 1182.48 0.948665 1.2585 0
M  V30 12600 C 1183.41 0.482036 2.2847 0
M  V30 12601 C 1184.39 -0.468553 1.63519 0
M  V30 12602 O 1185.58 -0.368796 1.90666 0
M  V30 12603 C 1182.71 -0.246603 3.46423 0
M  V30 12604 C 1181.66 0.61815 4.23513 0
M  V30 12605 C 1180.99 -0.240884 5.34157 0
M  V30 12606 C 1182.29 1.89327 4.86778 0
M  V30 12607 H 1183.98 1.33973 2.67753 0
M  V30 12608 H 1181.53 0.645645 1.28715 0
M  V30 12609 H 1183.48 -0.584135 4.17332 0
M  V30 12610 H 1182.2 -1.13849 3.06114 0
M  V30 12611 H 1180.86 0.938682 3.54379 0
M  V30 12612 H 1180.51 -1.13235 4.90089 0
M  V30 12613 H 1180.21 0.334367 5.86648 0
M  V30 12614 H 1181.73 -0.573517 6.07901 0
M  V30 12615 H 1183.15 1.62252 5.49861 0
M  V30 12616 H 1181.55 2.41369 5.49419 0
M  V30 12617 H 1182.62 2.60006 4.09298 0
M  V30 12618 N 1183.96 -1.40369 0.716545 0
M  V30 12619 C 1184.91 -2.3071 0.0645944 0
M  V30 12620 C 1185.88 -1.48239 -0.749294 0
M  V30 12621 O 1187.06 -1.76975 -0.713045 0
M  V30 12622 C 1184.2 -3.34456 -0.850478 0
M  V30 12623 C 1183.31 -4.31992 -0.0259594 0
M  V30 12624 C 1182.45 -5.22806 -0.940599 0
M  V30 12625 C 1181.49 -6.12001 -0.110228 0
M  V30 12626 N 1180.62 -6.9523 -0.979796 0
M  V30 12627 H 1185.46 -2.85896 0.840682 0
M  V30 12628 H 1183 -1.40789 0.426258 0
M  V30 12629 H 1184.96 -3.93177 -1.39528 0
M  V30 12630 H 1183.59 -2.8077 -1.59274 0
M  V30 12631 H 1182.64 -3.75045 0.636036 0
M  V30 12632 H 1183.95 -4.94971 0.616883 0
M  V30 12633 H 1183.11 -5.86463 -1.5539 0
M  V30 12634 H 1181.85 -4.60104 -1.61726 0
M  V30 12635 H 1180.85 -5.47373 0.516001 0
M  V30 12636 H 1182.08 -6.76763 0.562944 0
M  V30 12637 H 1180.02 -6.35115 -1.64209 0
M  V30 12638 H 1179.94 -7.54978 -0.393012 0
M  V30 12639 H 1181.21 -7.63335 -1.57924 0
M  V30 12640 N 1185.44 -0.462799 -1.50652 0
M  V30 12641 C 1186.35 0.341191 -2.32106 0
M  V30 12642 C 1187.36 1.00384 -1.42123 0
M  V30 12643 O 1188.54 0.993635 -1.75182 0
M  V30 12644 C 1185.6 1.41356 -3.16575 0
M  V30 12645 C 1184.66 0.768375 -4.22368 0
M  V30 12646 C 1183.9 1.78964 -5.028 0
M  V30 12647 O 1184.12 3.01515 -4.84195 0
M  V30 12648 O 1183.05 1.36606 -5.86193 0
M  V30 12649 H 1186.88 -0.324482 -3.01962 0
M  V30 12650 H 1184.47 -0.224807 -1.47699 0
M  V30 12651 H 1186.35 2.0349 -3.69012 0
M  V30 12652 H 1185.02 2.06285 -2.49456 0
M  V30 12653 H 1183.93 0.108297 -3.73943 0
M  V30 12654 H 1185.26 0.162164 -4.91933 0
M  V30 12655 N 1186.91 1.56388 -0.195085 0
M  V30 12656 C 1187.84 2.22091 0.720971 0
M  V30 12657 C 1188.83 1.184 1.22128 0
M  V30 12658 O 1190.01 1.46907 1.27012 0
M  V30 12659 C 1187.14 2.88025 1.94059 0
M  V30 12660 C 1186.09 3.97959 1.5752 0
M  V30 12661 C 1185.42 4.51058 2.87143 0
M  V30 12662 C 1186.72 5.16365 0.785145 0
M  V30 12663 H 1188.41 2.98898 0.173245 0
M  V30 12664 H 1185.96 1.43767 0.0818868 0
M  V30 12665 H 1187.91 3.32671 2.58666 0
M  V30 12666 H 1186.64 2.08623 2.51285 0
M  V30 12667 H 1185.3 3.54004 0.952715 0
M  V30 12668 H 1184.94 3.68418 3.42458 0
M  V30 12669 H 1184.64 5.25237 2.63439 0
M  V30 12670 H 1186.17 4.98406 3.52738 0
M  V30 12671 H 1187.58 5.57556 1.33431 0
M  V30 12672 H 1185.98 5.9661 0.646231 0
M  V30 12673 H 1187.05 4.84428 -0.213789 0
M  V30 12674 N 1188.39 -0.0785156 1.57404 0
M  V30 12675 C 1189.32 -1.09446 2.06262 0
M  V30 12676 C 1190.3 -1.40777 0.954772 0
M  V30 12677 O 1191.49 -1.5052 1.22708 0
M  V30 12678 C 1188.62 -2.40979 2.50093 0
M  V30 12679 C 1187.57 -2.24017 3.64692 0
M  V30 12680 C 1186.9 -3.60873 3.94556 0
M  V30 12681 C 1188.2 -1.66696 4.94985 0
M  V30 12682 H 1189.89 -0.687928 2.9139 0
M  V30 12683 H 1187.44 -0.329466 1.4018 0
M  V30 12684 H 1189.39 -3.12337 2.82884 0
M  V30 12685 H 1188.12 -2.83599 1.61985 0
M  V30 12686 H 1186.77 -1.55101 3.32174 0
M  V30 12687 H 1186.42 -4.01051 3.0359 0
M  V30 12688 H 1186.12 -3.50365 4.71718 0
M  V30 12689 H 1187.65 -4.33673 4.29837 0
M  V30 12690 H 1189.06 -2.27913 5.2605 0
M  V30 12691 H 1187.46 -1.66902 5.76423 0
M  V30 12692 H 1188.53 -0.627827 4.80818 0
M  V30 12693 N 1189.87 -1.5367 -0.349747 0
M  V30 12694 C 1190.82 -1.81914 -1.44948 0
M  V30 12695 C 1191.81 -0.689218 -1.54745 0
M  V30 12696 O 1193.02 -0.872448 -1.57443 0
M  V30 12697 H 1189.39 -0.576234 -0.483176 0
M  V30 12698 H 1191.36 -2.73932 -1.18338 0
M  V30 12699 C 1190.11 -2.04005 -2.81562 0
M  V30 12700 H 1189.44 -2.90399 -2.74788 0
M  V30 12701 H 1190.88 -2.27737 -3.57648 0
M  V30 12702 C 1189.34 -0.823748 -3.26674 0
M  V30 12703 O 1189.87 -0.0201351 -4.01695 0
M  V30 12704 N 1188.07 -0.642716 -2.83403 0
M  V30 12705 H 1187.62 -1.29783 -2.22517 0
M  V30 12706 H 1187.58 0.169654 -3.13942 0
M  V30 12707 N 1191.35 0.610423 -1.45298 0
M  V30 12708 C 1192.57 1.40112 -1.52917 0
M  V30 12709 C 1193 1.87404 -0.161696 0
M  V30 12710 O 1192.36 1.59973 0.853135 0
M  V30 12711 C 1192.4 2.58359 -2.51561 0
M  V30 12712 O 1191.51 3.58895 -2.03146 0
M  V30 12713 H 1190.85 0.41841 -0.515586 0
M  V30 12714 H 1193.38 0.743159 -1.90626 0
M  V30 12715 H 1193.39 3.0564 -2.70275 0
M  V30 12716 H 1192.06 2.23286 -3.50879 0
M  V30 12717 H 1190.64 3.18282 -1.94296 0
M  V30 12718 N 1192.83 1.32541 0.852676 0
M  V30 12719 C 1194.08 1.22567 1.60188 0
M  V30 12720 C 1194.39 -0.210594 1.94463 0
M  V30 12721 O 1195.59 -0.432214 2.68038 0
M  V30 12722 C 1194.05 2.14678 2.88862 0
M  V30 12723 C 1193.66 3.63398 2.62004 0
M  V30 12724 C 1195.4 2.13545 3.66877 0
M  V30 12725 C 1193.31 4.47464 3.86691 0
M  V30 12726 H 1192.24 0.455184 0.601102 0
M  V30 12727 H 1194.89 1.57515 0.941347 0
M  V30 12728 H 1193.27 1.72647 3.56383 0
M  V30 12729 H 1194.45 4.13783 2.02782 0
M  V30 12730 H 1192.76 3.66681 1.97316 0
M  V30 12731 H 1195.36 2.73589 4.59405 0
M  V30 12732 H 1195.7 1.12694 4.00756 0
M  V30 12733 H 1196.23 2.53866 3.06263 0
M  V30 12734 H 1192.97 5.49136 3.57952 0
M  V30 12735 H 1192.49 4.01829 4.45302 0
M  V30 12736 H 1194.17 4.60565 4.5441 0
M  V30 12737 N 1194.3 -1.0692 1.15784 0
M  V30 12738 C 1195.55 -1.79245 0.933581 0
M  V30 12739 C 1195.87 -1.87362 -0.540427 0
M  V30 12740 O 1195.14 -1.37769 -1.39271 0
M  V30 12741 H 1193.72 -0.663898 0.342416 0
M  V30 12742 H 1196.39 -1.29189 1.45932 0
M  V30 12743 H 1195.48 -2.81546 1.34679 0
M  V30 12744 N 1195.78 -0.955326 -1.25345 0
M  V30 12745 C 1197.03 -0.610484 -1.93079 0
M  V30 12746 C 1197.36 0.852591 -1.74817 0
M  V30 12747 O 1196.61 1.6272 -1.08723 0
M  V30 12748 C 1196.91 -0.916173 -3.45458 0
M  V30 12749 C 1196.58 -2.36539 -3.83875 0
M  V30 12750 C 1195.24 -2.76152 -3.94073 0
M  V30 12751 C 1197.59 -3.30652 -4.02888 0
M  V30 12752 C 1194.92 -4.08944 -4.20692 0
M  V30 12753 C 1197.27 -4.63057 -4.31 0
M  V30 12754 C 1195.94 -5.02464 -4.39415 0
M  V30 12755 H 1195.21 -0.223392 -0.706525 0
M  V30 12756 H 1197.85 -1.20449 -1.48877 0
M  V30 12757 H 1196.16 -0.23978 -3.91066 0
M  V30 12758 H 1197.85 -0.627929 -3.96053 0
M  V30 12759 H 1194.44 -2.04819 -3.76493 0
M  V30 12760 H 1198.63 -3.01237 -3.94423 0
M  V30 12761 H 1193.88 -4.39118 -4.25423 0
M  V30 12762 H 1198.06 -5.3596 -4.44657 0
M  V30 12763 H 1195.69 -6.05386 -4.59795 0
M  V30 12764 N 1197.26 1.39987 -0.723979 0
M  V30 12765 C 1198.49 2.0556 -0.275634 0
M  V30 12766 C 1198.91 1.54207 1.07711 0
M  V30 12767 O 1198.27 0.681041 1.68022 0
M  V30 12768 C 1198.32 3.59551 -0.27485 0
M  V30 12769 O 1197.42 4.05685 0.741182 0
M  V30 12770 H 1196.76 0.651634 -0.12755 0
M  V30 12771 H 1199.29 1.79229 -0.986814 0
M  V30 12772 H 1199.3 4.07837 -0.115425 0
M  V30 12773 H 1197.98 3.96291 -1.26198 0
M  V30 12774 H 1196.55 3.6884 0.548795 0
M  V30 12775 N 1198.74 0.470782 1.50404 0
M  V30 12776 C 1199.96 -0.084284 2.07229 0
M  V30 12777 C 1200.39 -1.32774 1.33239 0
M  V30 12778 O 1199.75 -1.77274 0.379971 0
M  V30 12779 C 1199.8 -0.351565 3.58882 0
M  V30 12780 O 1198.9 -1.43211 3.86736 0
M  V30 12781 H 1198.24 0.0128479 0.663876 0
M  V30 12782 H 1200.77 0.661735 1.93603 0
M  V30 12783 H 1200.78 -0.592151 4.0368 0
M  V30 12784 H 1199.46 0.557084 4.12152 0
M  V30 12785 H 1198.03 -1.17886 3.53776 0
M  V30 12786 N 1200.22 -1.56282 0.203376 0
M  V30 12787 C 1201.63 -1.84146 -0.307752 0
M  V30 12788 C 1201.98 -1.12429 -1.60792 0
M  V30 12789 O 1201.1 -0.387852 -2.12896 0
M  V30 12790 C 1201.7 -3.34053 -0.565152 0
M  V30 12791 C 1200.26 -3.62298 -1.02063 0
M  V30 12792 C 1199.41 -2.77202 -0.0737343 0
M  V30 12793 H 1202.36 -1.52848 0.426983 0
M  V30 12794 H 1202.38 -3.53273 -1.41345 0
M  V30 12795 H 1201.89 -3.86222 0.381301 0
M  V30 12796 H 1199.99 -3.1557 -1.98107 0
M  V30 12797 H 1200.1 -4.70424 -0.907614 0
M  V30 12798 H 1198.47 -2.48074 -0.577169 0
M  V30 12799 H 1199.25 -3.32164 0.86731 0
M  V30 12800 N 1201.7 0.070167 -1.57444 0
M  V30 12801 C 1202.61 1.10106 -2.07157 0
M  V30 12802 C 1203.62 1.42293 -1.00143 0
M  V30 12803 O 1204.8 1.52437 -1.31624 0
M  V30 12804 C 1201.86 2.39486 -2.50694 0
M  V30 12805 C 1200.92 2.14255 -3.72012 0
M  V30 12806 C 1200.16 3.37466 -4.13464 0
M  V30 12807 O 1200.38 4.46645 -3.54773 0
M  V30 12808 O 1199.31 3.25583 -5.0624 0
M  V30 12809 H 1203.14 0.70873 -2.95315 0
M  V30 12810 H 1200.72 0.28441 -1.46668 0
M  V30 12811 H 1202.61 3.15625 -2.79212 0
M  V30 12812 H 1201.28 2.78095 -1.65664 0
M  V30 12813 H 1200.19 1.35816 -3.48575 0
M  V30 12814 H 1201.52 1.80525 -4.57899 0
M  V30 12815 N 1203.17 1.53854 0.341593 0
M  V30 12816 C 1204.08 1.84975 1.44297 0
M  V30 12817 C 1205.1 0.740057 1.57477 0
M  V30 12818 O 1206.28 1.03256 1.72917 0
M  V30 12819 C 1203.34 2.05464 2.79259 0
M  V30 12820 C 1202.4 3.29318 2.75405 0
M  V30 12821 C 1201.63 3.4882 4.03931 0
M  V30 12822 O 1201.86 2.7212 5.01305 0
M  V30 12823 O 1200.79 4.42253 4.08284 0
M  V30 12824 H 1204.62 2.78592 1.20913 0
M  V30 12825 H 1202.2 1.39532 0.533953 0
M  V30 12826 H 1204.08 2.20374 3.59184 0
M  V30 12827 H 1202.76 1.15035 3.0257 0
M  V30 12828 H 1201.67 3.1981 1.94094 0
M  V30 12829 H 1203 4.19746 2.57049 0
M  V30 12830 N 1204.65 -0.602709 1.4562 0
M  V30 12831 C 1205.6 -1.71312 1.54664 0
M  V30 12832 C 1206.57 -1.61403 0.392197 0
M  V30 12833 O 1207.75 -1.80911 0.606297 0
M  V30 12834 C 1204.89 -3.09629 1.52393 0
M  V30 12835 C 1204.01 -3.30308 2.78425 0
M  V30 12836 C 1203.14 -4.5876 2.67793 0
M  V30 12837 C 1202.18 -4.72713 3.88855 0
M  V30 12838 N 1201.32 -5.92469 3.76729 0
M  V30 12839 H 1206.16 -1.62918 2.49523 0
M  V30 12840 H 1203.69 -0.794324 1.2381 0
M  V30 12841 H 1205.65 -3.89661 1.49064 0
M  V30 12842 H 1204.28 -3.16968 0.610816 0
M  V30 12843 H 1203.33 -2.44018 2.9182 0
M  V30 12844 H 1204.65 -3.36491 3.68205 0
M  V30 12845 H 1203.8 -5.46993 2.62457 0
M  V30 12846 H 1202.54 -4.54983 1.75619 0
M  V30 12847 H 1201.54 -3.82903 3.94545 0
M  V30 12848 H 1202.77 -4.78284 4.82101 0
M  V30 12849 H 1200.72 -5.89728 2.87328 0
M  V30 12850 H 1200.63 -5.99833 4.60148 0
M  V30 12851 H 1201.9 -6.83187 3.75334 0
M  V30 12852 N 1206.13 -1.32992 -0.845635 0
M  V30 12853 C 1207.38 -1.24065 -1.60044 0
M  V30 12854 C 1207.7 0.195282 -1.93517 0
M  V30 12855 O 1206.96 1.1507 -1.58296 0
M  V30 12856 C 1207.26 -2.05454 -2.92444 0
M  V30 12857 C 1206.92 -3.54718 -2.78362 0
M  V30 12858 C 1205.59 -3.95413 -2.74229 0
M  V30 12859 C 1207.94 -4.49598 -2.63649 0
M  V30 12860 C 1205.27 -5.29216 -2.53274 0
M  V30 12861 C 1207.62 -5.83554 -2.44228 0
M  V30 12862 C 1206.28 -6.2344 -2.38493 0
M  V30 12863 H 1205.55 -0.453985 -0.585644 0
M  V30 12864 H 1208.2 -1.6451 -0.980244 0
M  V30 12865 H 1206.5 -1.57765 -3.58633 0
M  V30 12866 H 1208.2 -1.95909 -3.49887 0
M  V30 12867 H 1204.79 -3.22403 -2.82409 0
M  V30 12868 H 1208.98 -4.19072 -2.65881 0
M  V30 12869 H 1204.23 -5.59164 -2.47275 0
M  V30 12870 H 1208.41 -6.56681 -2.31825 0
M  V30 12871 H 1206.03 -7.27058 -2.22015 0
M  V30 12872 N 1207.61 1.06304 -1.1635 0
M  V30 12873 C 1208.54 2.13732 -0.827721 0
M  V30 12874 C 1209.55 1.61962 0.164983 0
M  V30 12875 O 1210.74 1.784 -0.0597591 0
M  V30 12876 C 1207.84 3.38239 -0.211623 0
M  V30 12877 C 1207.01 4.19325 -1.2444 0
M  V30 12878 C 1206.07 5.22193 -0.648127 0
M  V30 12879 O 1205.1 5.53755 -1.31695 0
M  V30 12880 N 1206.3 5.77742 0.565179 0
M  V30 12881 H 1209.07 2.43136 -1.75228 0
M  V30 12882 H 1206.63 1.22304 -1.06081 0
M  V30 12883 H 1208.62 4.04204 0.200306 0
M  V30 12884 H 1207.19 3.06461 0.616491 0
M  V30 12885 H 1206.41 3.49017 -1.83251 0
M  V30 12886 H 1207.7 4.70306 -1.94138 0
M  V30 12887 H 1207.1 5.54366 1.12673 0
M  V30 12888 H 1205.65 6.45284 0.919321 0
M  V30 12889 N 1209.09 0.96196 1.24836 0
M  V30 12890 C 1210.03 0.48686 2.25607 0
M  V30 12891 C 1211 -0.464546 1.59472 0
M  V30 12892 O 1212.19 -0.376179 1.87055 0
M  V30 12893 C 1209.33 -0.222294 3.44383 0
M  V30 12894 C 1208.44 0.767206 4.25133 0
M  V30 12895 C 1207.58 0.0347458 5.31189 0
M  V30 12896 C 1206.61 1.01469 6.03631 0
M  V30 12897 N 1205.75 0.312619 7.01404 0
M  V30 12898 H 1210.59 1.35104 2.65614 0
M  V30 12899 H 1208.13 0.677373 1.30576 0
M  V30 12900 H 1210.09 -0.650087 4.12104 0
M  V30 12901 H 1208.72 -1.05047 3.0523 0
M  V30 12902 H 1207.77 1.31346 3.57005 0
M  V30 12903 H 1209.08 1.5147 4.75245 0
M  V30 12904 H 1208.23 -0.451325 6.05019 0
M  V30 12905 H 1206.97 -0.745485 4.81969 0
M  V30 12906 H 1205.98 1.51169 5.28609 0
M  V30 12907 H 1207.2 1.79527 6.5494 0
M  V30 12908 H 1205.15 -0.44874 6.54463 0
M  V30 12909 H 1205.07 0.999079 7.49369 0
M  V30 12910 H 1206.33 -0.151673 7.79352 0
M  V30 12911 N 1210.56 -1.39601 0.731392 0
M  V30 12912 C 1211.84 -1.94531 0.20422 0
M  V30 12913 C 1212.22 -1.66845 -1.29329 0
M  V30 12914 O 1211.57 -0.994706 -2.05713 0
M  V30 12915 C 1211.78 -3.44891 0.53395 0
M  V30 12916 C 1213.13 -4.21863 0.481298 0
M  V30 12917 O 1214.15 -3.53073 0.470929 0
M  V30 12918 O 1213.01 -5.44452 0.472663 0
M  V30 12919 H 1210.1 -0.826214 0.0360436 0
M  V30 12920 H 1212.65 -1.49121 0.810005 0
M  V30 12921 H 1211.42 -3.58463 1.56907 0
M  V30 12922 H 1211.04 -3.97472 -0.10099 0
M  V30 12923 N 1212.04 -0.478751 -1.50152 0
M  V30 12924 C 1213.45 -0.0254907 -1.86683 0
M  V30 12925 C 1213.8 1.38171 -1.39295 0
M  V30 12926 O 1212.93 2.0257 -0.761207 0
M  V30 12927 C 1213.52 -0.0394819 -3.38777 0
M  V30 12928 C 1212.08 0.35834 -3.7469 0
M  V30 12929 C 1211.23 -0.421667 -2.74075 0
M  V30 12930 H 1214.18 -0.692653 -1.42787 0
M  V30 12931 H 1214.2 0.760957 -3.72813 0
M  V30 12932 H 1213.71 -1.06378 -3.73236 0
M  V30 12933 H 1211.82 1.38671 -3.45834 0
M  V30 12934 H 1211.93 0.0543589 -4.79069 0
M  V30 12935 H 1210.29 0.125634 -2.5439 0
M  V30 12936 H 1211.08 -1.44562 -3.11379 0
M  V30 12937 N 1213.52 1.56172 -0.211661 0
M  V30 12938 C 1214.93 1.84307 0.297982 0
M  V30 12939 C 1215.28 1.1328 1.60194 0
M  V30 12940 O 1214.41 0.399137 2.12687 0
M  V30 12941 C 1215 3.34348 0.547428 0
M  V30 12942 C 1213.56 3.62835 1.0014 0
M  V30 12943 C 1212.71 2.77237 0.0590326 0
M  V30 12944 H 1215.66 1.5262 -0.435083 0
M  V30 12945 H 1215.68 3.54018 1.39469 0
M  V30 12946 H 1215.19 3.86015 -0.401778 0
M  V30 12947 H 1213.29 3.16616 1.96431 0
M  V30 12948 H 1213.41 4.70899 0.882653 0
M  V30 12949 H 1211.77 2.48377 0.564005 0
M  V30 12950 H 1212.55 3.31699 -0.884913 0
M  V30 12951 N 1215 -0.0618163 1.57479 0
M  V30 12952 C 1216.25 -0.759069 1.87735 0
M  V30 12953 C 1216.57 -1.77071 0.804732 0
M  V30 12954 O 1215.83 -1.94694 -0.198173 0
M  V30 12955 C 1216.13 -1.4939 3.2468 0
M  V30 12956 C 1215.79 -0.621312 4.46599 0
M  V30 12957 C 1214.46 -0.380873 4.7969 0
M  V30 12958 C 1216.81 -0.0168537 5.21197 0
M  V30 12959 C 1214.14 0.473341 5.84787 0
M  V30 12960 C 1216.49 0.824872 6.27199 0
M  V30 12961 C 1215.15 1.07509 6.58785 0
M  V30 12962 H 1214.42 -0.277763 0.686971 0
M  V30 12963 H 1217.07 -0.0195971 1.9149 0
M  V30 12964 H 1215.37 -2.30584 3.16762 0
M  V30 12965 H 1217.07 -2.03837 3.45328 0
M  V30 12966 H 1213.66 -0.818848 4.20705 0
M  V30 12967 H 1217.84 -0.189707 4.95937 0
M  V30 12968 H 1213.1 0.675842 6.07653 0
M  V30 12969 H 1217.27 1.29993 6.8416 0
M  V30 12970 H 1214.9 1.73876 7.40048 0
M  V30 12971 N 1216.48 -1.54033 -0.333429 0
M  V30 12972 C 1217.41 -1.79056 -1.43079 0
M  V30 12973 C 1218.42 -0.672176 -1.48276 0
M  V30 12974 O 1219.61 -0.949103 -1.51176 0
M  V30 12975 C 1216.71 -1.88443 -2.81678 0
M  V30 12976 C 1215.88 -3.18493 -2.99802 0
M  V30 12977 C 1214.94 -3.18708 -4.18702 0
M  V30 12978 O 1213.97 -3.92389 -4.12334 0
M  V30 12979 N 1215.17 -2.41792 -5.27747 0
M  V30 12980 H 1217.94 -2.73753 -1.21981 0
M  V30 12981 H 1215.5 -1.53207 -0.523365 0
M  V30 12982 H 1217.49 -1.86027 -3.59411 0
M  V30 12983 H 1216.06 -1.00887 -2.95872 0
M  V30 12984 H 1215.28 -3.33951 -2.09453 0
M  V30 12985 H 1216.57 -4.04376 -3.088 0
M  V30 12986 H 1215.96 -1.81501 -5.35793 0
M  V30 12987 H 1214.52 -2.45163 -6.03936 0
M  V30 12988 N 1217.95 0.594978 -1.45938 0
M  V30 12989 C 1219.2 1.35356 -1.51823 0
M  V30 12990 C 1219.56 1.91711 -0.162721 0
M  V30 12991 O 1218.85 1.72831 0.827047 0
M  V30 12992 C 1219.04 2.51129 -2.54301 0
M  V30 12993 C 1218.87 2.06113 -3.99684 0
M  V30 12994 C 1217.64 1.91698 -4.67525 0
M  V30 12995 C 1219.84 1.62817 -4.87848 0
M  V30 12996 N 1217.82 1.40625 -5.97577 0
M  V30 12997 C 1219.19 1.23248 -6.07626 0
M  V30 12998 C 1221.25 1.50523 -4.74602 0
M  V30 12999 C 1219.95 0.726124 -7.15626 0
M  V30 13000 C 1221.98 1.0129 -5.82661 0
M  V30 13001 C 1221.34 0.626938 -7.01604 0
M  V30 13002 H 1217.44 0.488744 -0.610454 0
M  V30 13003 H 1220.02 0.678804 -1.82484 0
M  V30 13004 H 1218.19 3.16184 -2.25571 0
M  V30 13005 H 1219.92 3.18046 -2.50257 0
M  V30 13006 H 1216.68 2.1327 -4.22863 0
M  V30 13007 H 1217.1 1.17285 -6.66763 0
M  V30 13008 H 1221.75 1.78985 -3.83046 0
M  V30 13009 H 1219.46 0.429069 -8.0696 0
M  V30 13010 H 1223.05 0.921864 -5.7445 0
M  V30 13011 H 1221.93 0.251849 -7.83795 0
M  V30 13012 N 1219.43 1.33438 0.838571 0
M  V30 13013 C 1220.37 1.18055 1.9529 0
M  V30 13014 C 1221.34 0.075958 1.62422 0
M  V30 13015 O 1222.53 0.23825 1.86988 0
M  V30 13016 C 1219.65 0.810795 3.28852 0
M  V30 13017 C 1218.7 1.92293 3.80691 0
M  V30 13018 S 1219.53 3.53395 4.02334 0
M  V30 13019 C 1220.69 3.18426 5.38846 0
M  V30 13020 H 1220.92 2.12384 2.08039 0
M  V30 13021 H 1218.46 1.18284 0.992385 0
M  V30 13022 H 1220.41 0.604235 4.06029 0
M  V30 13023 H 1219.07 -0.113894 3.13893 0
M  V30 13024 H 1218.27 1.61758 4.77337 0
M  V30 13025 H 1217.87 2.08617 3.10411 0
M  V30 13026 H 1220.16 2.6927 6.21691 0
M  V30 13027 H 1221.1 4.14153 5.74354 0
M  V30 13028 H 1221.51 2.55016 5.03614 0
M  V30 13029 N 1220.91 -1.05686 1.16912 0
M  V30 13030 C 1222.16 -1.78244 0.95254 0
M  V30 13031 C 1222.48 -1.87924 -0.520525 0
M  V30 13032 O 1221.75 -1.39239 -1.37802 0
M  V30 13033 H 1220.33 -0.660228 0.349439 0
M  V30 13034 H 1222.99 -1.27634 1.47294 0
M  V30 13035 H 1222.09 -2.80102 1.37657 0
M  V30 13036 N 1222.39 -0.968567 -1.24324 0
M  V30 13037 C 1223.62 -0.647628 -1.96187 0
M  V30 13038 C 1224.03 0.787267 -1.72043 0
M  V30 13039 O 1223.37 1.53996 -1.00155 0
M  V30 13040 C 1223.43 -0.843517 -3.49464 0
M  V30 13041 C 1223.1 -2.25822 -3.97308 0
M  V30 13042 C 1224.09 -3.23602 -4.06913 0
M  V30 13043 C 1221.78 -2.58614 -4.30609 0
M  V30 13044 C 1223.77 -4.5226 -4.49154 0
M  V30 13045 C 1221.46 -3.87499 -4.72534 0
M  V30 13046 C 1222.46 -4.84134 -4.81771 0
M  V30 13047 O 1222.14 -6.10719 -5.2276 0
M  V30 13048 H 1221.88 -0.240568 -0.631746 0
M  V30 13049 H 1224.43 -1.29926 -1.59086 0
M  V30 13050 H 1222.66 -0.134716 -3.86465 0
M  V30 13051 H 1224.35 -0.521533 -4.02536 0
M  V30 13052 H 1225.12 -2.99596 -3.81402 0
M  V30 13053 H 1220.99 -1.84116 -4.22637 0
M  V30 13054 H 1224.54 -5.27689 -4.56279 0
M  V30 13055 H 1220.44 -4.11305 -4.97492 0
M  V30 13056 H 1221.2 -6.14298 -5.40906 0
M  V30 13057 N 1223.87 1.39211 -0.738786 0
M  V30 13058 C 1224.78 2.34374 -0.102958 0
M  V30 13059 C 1225.79 1.58514 0.717596 0
M  V30 13060 O 1226.97 1.90786 0.645186 0
M  V30 13061 C 1224.03 3.37562 0.790733 0
M  V30 13062 C 1223.09 4.29279 -0.0425028 0
M  V30 13063 C 1222.33 5.27539 0.808628 0
M  V30 13064 O 1222.55 5.32396 2.04722 0
M  V30 13065 O 1221.48 6.0144 0.235279 0
M  V30 13066 H 1225.31 2.90412 -0.888498 0
M  V30 13067 H 1222.9 1.40803 -0.499498 0
M  V30 13068 H 1224.78 4.00783 1.30196 0
M  V30 13069 H 1223.45 2.83903 1.55502 0
M  V30 13070 H 1222.36 3.69268 -0.599335 0
M  V30 13071 H 1223.69 4.86154 -0.7691 0
M  V30 13072 N 1225.34 0.486708 1.49896 0
M  V30 13073 C 1226.27 -0.288898 2.31706 0
M  V30 13074 C 1227.26 -0.975901 1.3932 0
M  V30 13075 O 1228.44 -0.970065 1.68236 0
M  V30 13076 C 1225.57 -1.36218 3.19471 0
M  V30 13077 C 1224.52 -0.795884 4.20535 0
M  V30 13078 C 1223.85 -1.96862 4.97141 0
M  V30 13079 C 1225.15 0.203421 5.21904 0
M  V30 13080 H 1226.84 0.393934 2.96797 0
M  V30 13081 H 1224.39 0.190894 1.42729 0
M  V30 13082 H 1226.34 -1.91238 3.75508 0
M  V30 13083 H 1225.07 -2.074 2.52295 0
M  V30 13084 H 1223.73 -0.267538 3.65622 0
M  V30 13085 H 1223.37 -2.66779 4.26425 0
M  V30 13086 H 1223.07 -1.59585 5.65514 0
M  V30 13087 H 1224.6 -2.52343 5.56017 0
M  V30 13088 H 1226.01 -0.258144 5.72719 0
M  V30 13089 H 1224.41 0.491273 5.98086 0
M  V30 13090 H 1225.48 1.12414 4.7169 0
M  V30 13091 N 1226.82 -1.56058 0.219941 0
M  V30 13092 C 1228.07 -1.99306 -0.40606 0
M  V30 13093 C 1228.42 -1.10505 -1.57501 0
M  V30 13094 O 1227.72 -0.154663 -1.90975 0
M  V30 13095 C 1227.91 -3.46113 -0.8911 0
M  V30 13096 C 1227.74 -4.49115 0.229307 0
M  V30 13097 C 1226.51 -5.00495 0.695169 0
M  V30 13098 C 1228.71 -5.0353 1.04701 0
M  V30 13099 N 1226.69 -5.872 1.7908 0
M  V30 13100 C 1228.06 -5.87144 1.99154 0
M  V30 13101 C 1230.12 -4.85898 1.08663 0
M  V30 13102 C 1228.82 -6.55009 2.97246 0
M  V30 13103 C 1230.85 -5.54521 2.05572 0
M  V30 13104 C 1230.21 -6.37902 2.98765 0
M  V30 13105 H 1226.31 -0.773453 -0.115304 0
M  V30 13106 H 1228.89 -1.9186 0.331342 0
M  V30 13107 H 1227.06 -3.5401 -1.59787 0
M  V30 13108 H 1228.79 -3.76281 -1.48978 0
M  V30 13109 H 1225.55 -4.72747 0.284052 0
M  V30 13110 H 1225.97 -6.35253 2.34057 0
M  V30 13111 H 1230.61 -4.21088 0.380063 0
M  V30 13112 H 1228.33 -7.19002 3.68866 0
M  V30 13113 H 1231.92 -5.42845 2.0931 0
M  V30 13114 H 1230.8 -6.90067 3.72529 0
M  V30 13115 N 1228.3 0.053464 -1.57509 0
M  V30 13116 C 1229.71 0.603099 -1.76691 0
M  V30 13117 C 1230.06 1.76934 -0.847861 0
M  V30 13118 O 1229.19 2.16369 -0.0364962 0
M  V30 13119 C 1229.78 1.10084 -3.20417 0
M  V30 13120 C 1228.34 1.59618 -3.4088 0
M  V30 13121 C 1227.49 0.523516 -2.72313 0
M  V30 13122 H 1230.44 -0.172751 -1.57757 0
M  V30 13123 H 1230.46 1.9691 -3.25587 0
M  V30 13124 H 1229.97 0.251818 -3.87282 0
M  V30 13125 H 1228.07 2.46786 -2.79155 0
M  V30 13126 H 1228.19 1.6605 -4.49404 0
M  V30 13127 H 1226.55 0.972886 -2.35387 0
M  V30 13128 H 1227.33 -0.315629 -3.41846 0
M  V30 13129 N 1229.78 1.54207 0.325255 0
M  V30 13130 C 1231.01 1.76293 1.08298 0
M  V30 13131 C 1231.42 0.510722 1.81761 0
M  V30 13132 O 1230.78 -0.5185 1.7498 0
M  V30 13133 C 1230.83 2.95498 2.08238 0
M  V30 13134 O 1230.55 4.15877 1.37759 0
M  V30 13135 C 1232.05 3.29781 2.96242 0
M  V30 13136 H 1229.27 0.588576 0.322209 0
M  V30 13137 H 1231.82 2.0109 0.371896 0
M  V30 13138 H 1229.97 2.72979 2.74884 0
M  V30 13139 H 1230.39 4.82918 2.04672 0
M  V30 13140 H 1231.86 4.16495 3.62265 0
M  V30 13141 H 1232.34 2.46874 3.63249 0
M  V30 13142 H 1232.94 3.54372 2.3516 0
M  V30 13143 N 1231.26 -0.58723 1.46251 0
M  V30 13144 C 1232.2 -1.69662 1.56472 0
M  V30 13145 C 1233.17 -1.60978 0.409294 0
M  V30 13146 O 1234.36 -1.80257 0.625451 0
M  V30 13147 C 1231.5 -3.07996 1.55669 0
M  V30 13148 C 1230.61 -3.27337 2.81913 0
M  V30 13149 C 1229.75 -4.55894 2.72644 0
M  V30 13150 C 1228.79 -4.68562 3.93847 0
M  V30 13151 N 1227.92 -5.8844 3.82991 0
M  V30 13152 H 1232.76 -1.60262 2.51237 0
M  V30 13153 H 1230.3 -0.781148 1.24645 0
M  V30 13154 H 1232.26 -3.88058 1.53189 0
M  V30 13155 H 1230.89 -3.16303 0.6444 0
M  V30 13156 H 1229.94 -2.4091 2.94392 0
M  V30 13157 H 1231.25 -3.32567 3.71754 0
M  V30 13158 H 1230.41 -5.44178 2.68244 0
M  V30 13159 H 1229.15 -4.53094 1.80435 0
M  V30 13160 H 1228.15 -3.78696 3.98584 0
M  V30 13161 H 1229.38 -4.73144 4.87146 0
M  V30 13162 H 1227.32 -5.86647 2.93566 0
M  V30 13163 H 1227.24 -5.94919 4.66484 0
M  V30 13164 H 1228.51 -6.79168 3.82559 0
M  V30 13165 N 1232.74 -1.33881 -0.831482 0
M  V30 13166 C 1233.98 -1.26951 -1.58918 0
M  V30 13167 C 1234.34 0.161359 -1.91722 0
M  V30 13168 O 1233.63 1.1054 -1.56498 0
M  V30 13169 C 1233.82 -2.08544 -2.90249 0
M  V30 13170 C 1233.65 -3.5942 -2.70273 0
M  V30 13171 C 1232.42 -4.28718 -2.67449 0
M  V30 13172 C 1234.62 -4.53599 -2.42388 0
M  V30 13173 N 1232.6 -5.65496 -2.38929 0
M  V30 13174 C 1233.97 -5.7832 -2.23485 0
M  V30 13175 C 1236.03 -4.42605 -2.28046 0
M  V30 13176 C 1234.73 -6.93286 -1.91695 0
M  V30 13177 C 1236.76 -5.57395 -1.97649 0
M  V30 13178 C 1236.12 -6.81129 -1.79563 0
M  V30 13179 H 1232.22 -0.519762 -0.58427 0
M  V30 13180 H 1234.8 -1.68502 -0.97546 0
M  V30 13181 H 1232.97 -1.69302 -3.49559 0
M  V30 13182 H 1234.71 -1.93325 -3.55538 0
M  V30 13183 H 1231.46 -3.81068 -2.81219 0
M  V30 13184 H 1231.88 -6.37619 -2.27532 0
M  V30 13185 H 1236.53 -3.47571 -2.40737 0
M  V30 13186 H 1234.24 -7.88311 -1.7774 0
M  V30 13187 H 1237.83 -5.50828 -1.87296 0
M  V30 13188 H 1236.71 -7.68449 -1.56382 0
M  V30 13189 N 1234.21 1.05064 -1.1747 0
M  V30 13190 C 1235.16 2.12841 -0.89259 0
M  V30 13191 C 1236.13 1.65288 0.16402 0
M  V30 13192 O 1237.32 1.90782 0.026537 0
M  V30 13193 C 1234.46 3.42614 -0.41344 0
M  V30 13194 C 1233.57 4.03835 -1.53432 0
M  V30 13195 C 1232.7 5.21531 -1.00891 0
M  V30 13196 C 1231.74 5.74761 -2.10515 0
M  V30 13197 N 1230.88 6.83756 -1.59442 0
M  V30 13198 H 1235.72 2.36312 -1.81551 0
M  V30 13199 H 1233.26 1.15929 -0.905483 0
M  V30 13200 H 1235.21 4.17035 -0.117181 0
M  V30 13201 H 1233.84 3.19323 0.472517 0
M  V30 13202 H 1232.9 3.2684 -1.94627 0
M  V30 13203 H 1234.21 4.3938 -2.36108 0
M  V30 13204 H 1233.36 6.03027 -0.666575 0
M  V30 13205 H 1232.1 4.87464 -0.151608 0
M  V30 13206 H 1231.11 4.91893 -2.45604 0
M  V30 13207 H 1232.33 6.10875 -2.96663 0
M  V30 13208 H 1230.28 6.51584 -0.759849 0
M  V30 13209 H 1230.19 7.18311 -2.35724 0
M  V30 13210 H 1231.46 7.68901 -1.28105 0
M  V30 13211 N 1235.69 0.975146 1.23809 0
M  V30 13212 C 1236.62 0.530389 2.27396 0
M  V30 13213 C 1237.6 -0.433763 1.64476 0
M  V30 13214 O 1238.79 -0.32827 1.91405 0
M  V30 13215 C 1235.92 -0.173066 3.46869 0
M  V30 13216 C 1234.87 0.707844 4.22106 0
M  V30 13217 C 1234.2 -0.127527 5.34548 0
M  V30 13218 C 1235.5 1.99609 4.82652 0
M  V30 13219 H 1237.19 1.39622 2.64851 0
M  V30 13220 H 1234.74 0.672802 1.27316 0
M  V30 13221 H 1236.69 -0.495481 4.18477 0
M  V30 13222 H 1235.41 -1.0733 3.0846 0
M  V30 13223 H 1234.07 1.01364 3.52308 0
M  V30 13224 H 1233.72 -1.02814 4.9238 0
M  V30 13225 H 1233.42 0.458728 5.85807 0
M  V30 13226 H 1234.95 -0.444443 6.0898 0
M  V30 13227 H 1236.36 1.73878 5.46296 0
M  V30 13228 H 1234.76 2.52969 5.44175 0
M  V30 13229 H 1235.83 2.68629 4.03691 0
M  V30 13230 N 1237.17 -1.38817 0.746158 0
M  V30 13231 C 1238.1 -2.29081 0.0737986 0
M  V30 13232 C 1239.11 -1.47377 -0.691656 0
M  V30 13233 O 1240.3 -1.70326 -0.533973 0
M  V30 13234 C 1237.4 -3.26185 -0.919607 0
M  V30 13235 C 1236.58 -4.36879 -0.213349 0
M  V30 13236 C 1235.64 -5.1422 -1.11644 0
M  V30 13237 O 1234.66 -5.66137 -0.589747 0
M  V30 13238 N 1235.86 -5.26488 -2.44521 0
M  V30 13239 H 1238.63 -2.87424 0.848966 0
M  V30 13240 H 1236.19 -1.50518 0.596314 0
M  V30 13241 H 1238.18 -3.74802 -1.52662 0
M  V30 13242 H 1236.75 -2.68793 -1.5959 0
M  V30 13243 H 1235.97 -3.89994 0.574285 0
M  V30 13244 H 1237.26 -5.08053 0.275655 0
M  V30 13245 H 1236.66 -4.85846 -2.89777 0
M  V30 13246 H 1235.21 -5.78505 -3.00291 0
M  V30 13247 N 1238.65 -0.49465 -1.49636 0
M  V30 13248 C 1239.59 0.287153 -2.29007 0
M  V30 13249 C 1240.56 0.966099 -1.35114 0
M  V30 13250 O 1241.75 0.973991 -1.64067 0
M  V30 13251 C 1238.89 1.34941 -3.17624 0
M  V30 13252 C 1238 0.682879 -4.26569 0
M  V30 13253 C 1237.14 1.72503 -5.0241 0
M  V30 13254 C 1236.18 1.04003 -6.032 0
M  V30 13255 N 1235.31 2.0261 -6.7223 0
M  V30 13256 H 1240.15 -0.395941 -2.95358 0
M  V30 13257 H 1237.69 -0.207103 -1.45635 0
M  V30 13258 H 1239.65 1.9772 -3.67372 0
M  V30 13259 H 1238.28 2.00135 -2.5327 0
M  V30 13260 H 1237.33 -0.0580477 -3.80356 0
M  V30 13261 H 1238.64 0.143334 -4.98594 0
M  V30 13262 H 1237.8 2.42804 -5.55996 0
M  V30 13263 H 1236.54 2.29843 -4.30144 0
M  V30 13264 H 1235.54 0.322765 -5.48852 0
M  V30 13265 H 1236.77 0.473219 -6.77449 0
M  V30 13266 H 1234.71 2.58922 -6.0274 0
M  V30 13267 H 1234.63 1.53704 -7.4021 0
M  V30 13268 H 1235.9 2.72218 -7.30423 0
M  V30 13269 N 1240.13 1.55939 -0.228214 0
M  V30 13270 C 1241.37 1.97652 0.402067 0
M  V30 13271 C 1241.69 1.11911 1.60422 0
M  V30 13272 O 1242.89 1.43552 2.30445 0
M  V30 13273 C 1241.35 3.51638 0.766724 0
M  V30 13274 C 1240.96 4.46092 -0.412991 0
M  V30 13275 C 1242.7 4.02049 1.36224 0
M  V30 13276 C 1240.61 5.91394 -0.0255281 0
M  V30 13277 H 1239.54 0.738107 0.153994 0
M  V30 13278 H 1242.19 1.8059 -0.32548 0
M  V30 13279 H 1240.57 3.64325 1.55188 0
M  V30 13280 H 1241.75 4.45156 -1.19049 0
M  V30 13281 H 1240.06 4.0606 -0.92218 0
M  V30 13282 H 1242.66 5.08111 1.66514 0
M  V30 13283 H 1243 3.48292 2.28032 0
M  V30 13284 H 1243.53 3.92612 0.640378 0
M  V30 13285 H 1240.27 6.49149 -0.910269 0
M  V30 13286 H 1239.79 5.95509 0.716149 0
M  V30 13287 H 1241.47 6.4577 0.398839 0
M  V30 13288 N 1241.6 -0.0451101 1.57535 0
M  V30 13289 C 1242.51 -1.06796 2.08882 0
M  V30 13290 C 1243.53 -1.40682 1.02394 0
M  V30 13291 O 1244.71 -1.50324 1.34033 0
M  V30 13292 C 1241.77 -2.35467 2.54472 0
M  V30 13293 C 1240.83 -2.0831 3.75374 0
M  V30 13294 C 1240.07 -3.30846 4.1878 0
M  V30 13295 O 1240.29 -4.40945 3.61834 0
M  V30 13296 O 1239.22 -3.17488 5.11356 0
M  V30 13297 H 1243.05 -0.661658 2.96405 0
M  V30 13298 H 1240.63 -0.26104 1.47102 0
M  V30 13299 H 1242.52 -3.11143 2.84198 0
M  V30 13300 H 1241.19 -2.75425 1.70068 0
M  V30 13301 H 1240.1 -1.30254 3.50692 0
M  V30 13302 H 1241.43 -1.73218 4.60713 0
M  V30 13303 N 1243.08 -1.54377 -0.317073 0
M  V30 13304 C 1244.01 -1.8721 -1.39552 0
M  V30 13305 C 1244.99 -0.729483 -1.53664 0
M  V30 13306 O 1246.18 -0.983799 -1.67437 0
M  V30 13307 C 1243.31 -2.1052 -2.76222 0
M  V30 13308 C 1242.26 -3.26366 -2.76892 0
M  V30 13309 C 1241.59 -3.35061 -4.16699 0
M  V30 13310 C 1242.89 -4.63862 -2.40061 0
M  V30 13311 H 1244.58 -2.77532 -1.12323 0
M  V30 13312 H 1242.13 -1.33536 -0.538897 0
M  V30 13313 H 1244.08 -2.32073 -3.51739 0
M  V30 13314 H 1242.81 -1.16953 -3.04942 0
M  V30 13315 H 1241.46 -3.0471 -2.03831 0
M  V30 13316 H 1241.11 -2.39041 -4.4257 0
M  V30 13317 H 1240.81 -4.12923 -4.18053 0
M  V30 13318 H 1242.34 -3.58856 -4.94019 0
M  V30 13319 H 1243.75 -4.85252 -3.05292 0
M  V30 13320 H 1242.15 -5.44321 -2.52655 0
M  V30 13321 H 1243.22 -4.6567 -1.35202 0
M  V30 13322 N 1244.56 0.579466 -1.4656 0
M  V30 13323 C 1245.97 1.1616 -1.46164 0
M  V30 13324 C 1246.32 1.95134 -0.20423 0
M  V30 13325 O 1245.45 2.05022 0.692457 0
M  V30 13326 C 1246.04 2.11322 -2.64818 0
M  V30 13327 C 1244.6 2.64852 -2.67452 0
M  V30 13328 C 1243.75 1.40786 -2.38903 0
M  V30 13329 H 1246.7 0.367229 -1.54393 0
M  V30 13330 H 1246.72 2.94839 -2.4052 0
M  V30 13331 H 1246.23 1.53815 -3.56318 0
M  V30 13332 H 1244.33 3.26219 -1.80032 0
M  V30 13333 H 1244.45 3.07366 -3.67509 0
M  V30 13334 H 1242.81 1.70707 -1.89027 0
M  V30 13335 H 1243.59 0.851049 -3.32584 0
M  V30 13336 N 1246.04 1.3432 0.824371 0
M  V30 13337 C 1246.97 1.21619 1.94271 0
M  V30 13338 C 1247.98 0.143628 1.62165 0
M  V30 13339 O 1249.17 0.395353 1.74067 0
M  V30 13340 C 1246.27 0.846128 3.28167 0
M  V30 13341 C 1245.45 2.01337 3.88307 0
M  V30 13342 C 1244.5 1.62194 5.00579 0
M  V30 13343 O 1243.53 2.33831 5.18953 0
M  V30 13344 N 1244.73 0.535262 5.78027 0
M  V30 13345 H 1247.5 2.17963 2.05699 0
M  V30 13346 H 1245.06 1.27256 1.00088 0
M  V30 13347 H 1247.05 0.566086 4.00721 0
M  V30 13348 H 1245.62 -0.0270764 3.12588 0
M  V30 13349 H 1244.84 2.45823 3.08164 0
M  V30 13350 H 1246.13 2.79404 4.25219 0
M  V30 13351 H 1245.53 -0.0603126 5.65668 0
M  V30 13352 H 1244.08 0.314946 6.51039 0
M  V30 13353 N 1247.52 -1.0444 1.18026 0
M  V30 13354 C 1248.93 -1.29766 0.929143 0
M  V30 13355 C 1249.13 -1.97338 -0.407436 0
M  V30 13356 O 1248.19 -2.25166 -1.14265 0
M  V30 13357 C 1249.5 -2.16002 2.09197 0
M  V30 13358 C 1251.05 -2.29361 2.12985 0
M  V30 13359 C 1251.52 -3.18962 3.28675 0
M  V30 13360 N 1253.02 -3.26549 3.28512 0
M  V30 13361 C 1253.75 -3.96025 4.14671 0
M  V30 13362 N 1253.25 -4.67863 5.10956 0
M  V30 13363 N 1255.04 -3.92266 4.02597 0
M  V30 13364 H 1247.19 -0.58984 2.04046 0
M  V30 13365 H 1249.45 -0.322752 0.891367 0
M  V30 13366 H 1249.16 -1.73653 3.05839 0
M  V30 13367 H 1249.03 -3.16667 2.04943 0
M  V30 13368 H 1251.42 -2.70948 1.16924 0
M  V30 13369 H 1251.5 -1.28299 2.21298 0
M  V30 13370 H 1251.15 -2.78087 4.25006 0
M  V30 13371 H 1251.08 -4.20047 3.17598 0
M  V30 13372 H 1253.57 -2.75371 2.58804 0
M  V30 13373 H 1253.88 -5.1846 5.73079 0
M  V30 13374 H 1252.22 -4.6678 5.14919 0
M  V30 13375 H 1255.42 -3.35273 3.26665 0
M  V30 13376 H 1255.59 -4.4614 4.69961 0
M  V30 13377 N 1248.99 -0.981699 -1.2329 0
M  V30 13378 C 1249.9 -0.531296 -2.28505 0
M  V30 13379 C 1250.92 0.414531 -1.6899 0
M  V30 13380 O 1252.1 0.284129 -1.99386 0
M  V30 13381 C 1249.16 0.157864 -3.4634 0
M  V30 13382 C 1248.22 -0.829527 -4.21209 0
M  V30 13383 C 1247.46 -0.17316 -5.33419 0
M  V30 13384 O 1247.68 1.03549 -5.60922 0
M  V30 13385 O 1246.61 -0.872385 -5.95544 0
M  V30 13386 H 1250.44 -1.40633 -2.69177 0
M  V30 13387 H 1248.02 -0.749395 -1.29246 0
M  V30 13388 H 1249.91 0.544394 -4.17869 0
M  V30 13389 H 1248.58 1.00764 -3.07617 0
M  V30 13390 H 1247.49 -1.26678 -3.51999 0
M  V30 13391 H 1248.82 -1.64815 -4.63785 0
M  V30 13392 N 1250.47 1.3842 -0.753509 0
M  V30 13393 C 1251.7 2.04403 -0.320449 0
M  V30 13394 C 1252.12 1.5683 1.05118 0
M  V30 13395 O 1251.47 0.741335 1.66765 0
M  V30 13396 C 1251.52 3.59954 -0.333937 0
M  V30 13397 O 1251.24 4.05782 -1.65144 0
M  V30 13398 C 1252.75 4.43156 0.112997 0
M  V30 13399 H 1249.97 0.656881 -0.136927 0
M  V30 13400 H 1252.51 1.77112 -1.02234 0
M  V30 13401 H 1250.66 3.86083 0.319215 0
M  V30 13402 H 1251.08 5.00213 -1.57757 0
M  V30 13403 H 1252.55 5.51975 0.0523995 0
M  V30 13404 H 1253.03 4.23581 1.16087 0
M  V30 13405 H 1253.64 4.22216 -0.511278 0
M  V30 13406 N 1251.95 0.502579 1.49372 0
M  V30 13407 C 1253.2 -0.0334303 2.03373 0
M  V30 13408 C 1253.55 -1.34548 1.3753 0
M  V30 13409 O 1252.84 -1.84894 0.502484 0
M  V30 13410 C 1253.04 -0.240835 3.56588 0
M  V30 13411 C 1252.87 1.04956 4.37281 0
M  V30 13412 C 1251.64 1.6018 4.7924 0
M  V30 13413 C 1253.84 1.95323 4.75766 0
M  V30 13414 N 1251.82 2.83793 5.44366 0
M  V30 13415 C 1253.19 3.03516 5.40628 0
M  V30 13416 C 1255.24 1.95982 4.57707 0
M  V30 13417 C 1253.95 4.12396 5.89341 0
M  V30 13418 C 1255.97 3.03839 5.07382 0
M  V30 13419 C 1255.33 4.10749 5.72245 0
M  V30 13420 H 1251.43 0.0285863 0.781477 0
M  V30 13421 H 1254.02 0.677787 1.82522 0
M  V30 13422 H 1252.19 -0.921111 3.7732 0
M  V30 13423 H 1253.92 -0.773993 3.9723 0
M  V30 13424 H 1250.68 1.14674 4.59507 0
M  V30 13425 H 1251.1 3.46654 5.81515 0
M  V30 13426 H 1255.74 1.14632 4.06963 0
M  V30 13427 H 1253.46 4.94542 6.39104 0
M  V30 13428 H 1257.05 3.0537 4.95218 0
M  V30 13429 H 1255.93 4.92833 6.09988 0
M  V30 13430 N 1253.43 -1.55816 0.23648 0
M  V30 13431 C 1254.66 -2.03083 -0.395584 0
M  V30 13432 C 1255.07 -1.11599 -1.52286 0
M  V30 13433 O 1254.43 -0.128403 -1.82048 0
M  V30 13434 C 1254.48 -3.49776 -0.913197 0
M  V30 13435 O 1254.2 -4.37773 0.169151 0
M  V30 13436 C 1255.7 -4.12756 -1.617 0
M  V30 13437 H 1252.92 -0.66421 -0.0952146 0
M  V30 13438 H 1255.47 -2.01354 0.357299 0
M  V30 13439 H 1253.62 -3.52072 -1.6163 0
M  V30 13440 H 1254.03 -5.24029 -0.222217 0
M  V30 13441 H 1255.51 -5.17123 -1.93101 0
M  V30 13442 H 1255.99 -3.58631 -2.53537 0
M  V30 13443 H 1256.59 -4.14353 -0.958736 0
M  V30 13444 N 1254.91 0.036755 -1.57557 0
M  V30 13445 C 1256.15 0.730186 -1.89199 0
M  V30 13446 C 1256.49 1.75414 -0.833271 0
M  V30 13447 O 1255.76 1.93901 0.152579 0
M  V30 13448 C 1256.04 1.40669 -3.31488 0
M  V30 13449 C 1255.9 0.396764 -4.48047 0
M  V30 13450 C 1257.22 2.34268 -3.72567 0
M  V30 13451 H 1254.33 0.263983 -0.6881 0
M  V30 13452 H 1256.98 -0.0069847 -1.89999 0
M  V30 13453 H 1255.13 2.03502 -3.30937 0
M  V30 13454 H 1256.8 -0.229062 -4.60731 0
M  V30 13455 H 1255.04 -0.284698 -4.32865 0
M  V30 13456 H 1255.71 0.908436 -5.44474 0
M  V30 13457 H 1258.19 1.81485 -3.74436 0
M  V30 13458 H 1257.06 2.78587 -4.72949 0
M  V30 13459 H 1257.33 3.20611 -3.04403 0
M  V30 13460 N 1256.39 1.54543 0.308881 0
M  V30 13461 C 1257.33 1.85693 1.40074 0
M  V30 13462 C 1258.33 0.730004 1.52864 0
M  V30 13463 O 1259.53 0.913884 1.55075 0
M  V30 13464 H 1255.91 0.588842 0.467728 0
M  V30 13465 H 1257.88 2.76973 1.11034 0
M  V30 13466 C 1256.63 2.11399 2.76054 0
M  V30 13467 H 1255.95 2.97583 2.66992 0
M  V30 13468 H 1257.39 2.37139 3.51484 0
M  V30 13469 C 1255.85 0.91007 3.24375 0
M  V30 13470 O 1256.38 0.12663 4.015 0
M  V30 13471 N 1254.59 0.717629 2.816 0
M  V30 13472 H 1254.13 1.35637 2.18998 0
M  V30 13473 H 1254.09 -0.0863585 3.14281 0
M  V30 13474 N 1257.86 -0.571685 1.46866 0
M  V30 13475 C 1259.14 -1.33216 1.43223 0
M  V30 13476 C 1259.52 -2.1075 0.121495 0
M  V30 13477 O 1258.87 -2.10157 -0.897003 0
M  V30 13478 C 1259.08 -2.24888 2.66882 0
M  V30 13479 C 1260.43 -2.86369 3.13493 0
M  V30 13480 O 1261.45 -2.35197 2.67509 0
M  V30 13481 O 1260.31 -3.79342 3.93398 0
M  V30 13482 H 1257.4 -0.599106 0.570089 0
M  V30 13483 H 1259.95 -0.591788 1.59047 0
M  V30 13484 H 1258.72 -1.67099 3.53827 0
M  V30 13485 H 1258.34 -3.06246 2.53573 0
M  V30 13486 N 1259.34 -1.34755 -0.817236 0
M  V30 13487 C 1260.59 -1.26771 -1.56882 0
M  V30 13488 C 1260.9 0.158962 -1.94953 0
M  V30 13489 O 1262.11 0.360996 -2.69089 0
M  V30 13490 C 1260.57 -2.22261 -2.83069 0
M  V30 13491 C 1260.17 -3.70216 -2.52277 0
M  V30 13492 C 1261.92 -2.23197 -3.61086 0
M  V30 13493 C 1259.82 -4.57559 -3.74691 0
M  V30 13494 H 1258.75 -0.470961 -0.588822 0
M  V30 13495 H 1261.41 -1.59955 -0.899254 0
M  V30 13496 H 1259.79 -1.82036 -3.5168 0
M  V30 13497 H 1260.96 -4.19014 -1.9174 0
M  V30 13498 H 1259.28 -3.71784 -1.87525 0
M  V30 13499 H 1261.87 -2.85673 -4.5199 0
M  V30 13500 H 1262.22 -1.2328 -3.97628 0
M  V30 13501 H 1262.75 -2.61897 -2.99424 0
M  V30 13502 H 1259.49 -5.58434 -3.43267 0
M  V30 13503 H 1259.01 -4.13494 -4.34491 0
M  V30 13504 H 1260.69 -4.72451 -4.42039 0
M  V30 13505 N 1260.82 1.03812 -1.18578 0
M  V30 13506 C 1261.75 2.11928 -0.872871 0
M  V30 13507 C 1262.76 1.62275 0.130592 0
M  V30 13508 O 1263.95 1.78233 -0.0975869 0
M  V30 13509 C 1261.05 3.37714 -0.283321 0
M  V30 13510 C 1260.23 4.16591 -1.33307 0
M  V30 13511 C 1259.29 5.20701 -0.758746 0
M  V30 13512 O 1258.31 5.50837 -1.43412 0
M  V30 13513 N 1259.51 5.78811 0.442505 0
M  V30 13514 H 1262.28 2.39364 -1.80346 0
M  V30 13515 H 1259.84 1.20027 -1.08652 0
M  V30 13516 H 1261.83 4.04538 0.114524 0
M  V30 13517 H 1260.4 3.07699 0.551347 0
M  V30 13518 H 1259.62 3.45051 -1.90613 0
M  V30 13519 H 1260.91 4.66082 -2.04071 0
M  V30 13520 H 1260.31 5.56631 1.00889 0
M  V30 13521 H 1258.86 6.47089 0.78224 0
M  V30 13522 N 1262.3 0.988223 1.22768 0
M  V30 13523 C 1263.24 0.534605 2.24523 0
M  V30 13524 C 1264.21 -0.430615 1.60421 0
M  V30 13525 O 1265.4 -0.336417 1.87811 0
M  V30 13526 C 1262.54 -0.149195 3.44777 0
M  V30 13527 C 1261.65 0.85721 4.2341 0
M  V30 13528 C 1260.79 0.147411 5.30995 0
M  V30 13529 C 1259.83 1.1425 6.01343 0
M  V30 13530 N 1258.96 0.461327 7.00583 0
M  V30 13531 H 1263.8 1.40708 2.62689 0
M  V30 13532 H 1261.34 0.704918 1.2911 0
M  V30 13533 H 1263.3 -0.562527 4.1339 0
M  V30 13534 H 1261.93 -0.985485 3.07389 0
M  V30 13535 H 1260.98 1.38889 3.54138 0
M  V30 13536 H 1262.29 1.61517 4.71926 0
M  V30 13537 H 1261.45 -0.32289 6.0584 0
M  V30 13538 H 1260.19 -0.643085 4.83442 0
M  V30 13539 H 1259.19 1.62348 5.25284 0
M  V30 13540 H 1260.42 1.93379 6.50985 0
M  V30 13541 H 1258.36 -0.309818 6.55268 0
M  V30 13542 H 1258.28 1.15781 7.47082 0
M  V30 13543 H 1259.55 0.0136734 7.79499 0
M  V30 13544 N 1263.78 -1.38018 0.760839 0
M  V30 13545 C 1264.71 -2.32995 0.153557 0
M  V30 13546 C 1265.69 -1.55234 -0.695448 0
M  V30 13547 O 1266.87 -1.8352 -0.635148 0
M  V30 13548 C 1264 -3.39437 -0.734811 0
M  V30 13549 C 1262.96 -4.27998 0.0120287 0
M  V30 13550 C 1262.28 -5.25359 -0.995067 0
M  V30 13551 C 1263.58 -5.08687 1.18468 0
M  V30 13552 H 1265.28 -2.8403 0.946956 0
M  V30 13553 H 1262.82 -1.36562 0.456816 0
M  V30 13554 H 1264.77 -4.0485 -1.16938 0
M  V30 13555 H 1263.5 -2.86901 -1.56061 0
M  V30 13556 H 1262.16 -3.64102 0.427254 0
M  V30 13557 H 1261.81 -4.69108 -1.81512 0
M  V30 13558 H 1261.51 -5.85469 -0.499969 0
M  V30 13559 H 1263.03 -5.93648 -1.4288 0
M  V30 13560 H 1264.44 -5.67299 0.8273 0
M  V30 13561 H 1262.84 -5.78068 1.61112 0
M  V30 13562 H 1263.91 -4.42 1.99409 0
M  V30 13563 N 1265.25 -0.510493 -1.49103 0
M  V30 13564 C 1266.5 0.030689 -2.02777 0
M  V30 13565 C 1266.83 1.35765 -1.38858 0
M  V30 13566 O 1266.11 1.87209 -0.527528 0
M  V30 13567 C 1266.39 0.173261 -3.59683 0
M  V30 13568 C 1266.24 -1.17749 -4.34114 0
M  V30 13569 C 1267.56 0.909395 -4.30602 0
M  V30 13570 H 1264.68 0.0096789 -0.736936 0
M  V30 13571 H 1267.32 -0.663746 -1.78029 0
M  V30 13572 H 1265.47 0.764721 -3.80899 0
M  V30 13573 H 1267.15 -1.80856 -4.24369 0
M  V30 13574 H 1265.39 -1.76438 -3.96298 0
M  V30 13575 H 1266.06 -1.03094 -5.42287 0
M  V30 13576 H 1268.54 0.407677 -4.14098 0
M  V30 13577 H 1267.41 0.978012 -5.40117 0
M  V30 13578 H 1267.67 1.9553 -3.96511 0
M  V30 13579 N 1266.73 1.55688 -0.24474 0
M  V30 13580 C 1267.98 1.98498 0.379852 0
M  V30 13581 C 1268.3 1.13416 1.58625 0
M  V30 13582 O 1267.57 0.216456 1.947 0
M  V30 13583 H 1266.15 0.73312 0.143334 0
M  V30 13584 H 1268.81 1.91858 -0.343027 0
M  V30 13585 H 1267.91 3.04367 0.690463 0
M  V30 13586 N 1268.21 -0.0283989 1.57574 0
M  V30 13587 C 1269.46 -0.720142 1.89583 0
M  V30 13588 C 1269.79 -1.7497 0.842562 0
M  V30 13589 O 1269.06 -1.93979 -0.142294 0
M  V30 13590 C 1269.35 -1.38909 3.32229 0
M  V30 13591 C 1269.2 -0.372998 4.48251 0
M  V30 13592 C 1270.52 -2.32289 3.73804 0
M  V30 13593 H 1267.64 -0.26033 0.689491 0
M  V30 13594 H 1270.28 0.0170607 1.89992 0
M  V30 13595 H 1268.43 -2.01744 3.32011 0
M  V30 13596 H 1270.1 0.253492 4.60603 0
M  V30 13597 H 1268.34 0.30765 4.32708 0
M  V30 13598 H 1269.02 -0.879549 5.44948 0
M  V30 13599 H 1271.49 -1.79497 3.75393 0
M  V30 13600 H 1270.37 -2.76075 4.74419 0
M  V30 13601 H 1270.63 -3.18992 3.06099 0
M  V30 13602 N 1269.69 -1.54705 -0.300681 0
M  V30 13603 C 1270.62 -1.88679 -1.37559 0
M  V30 13604 C 1271.6 -0.74574 -1.52881 0
M  V30 13605 O 1272.78 -1.0015 -1.66384 0
M  V30 13606 C 1269.91 -2.13438 -2.73974 0
M  V30 13607 C 1268.87 -3.29284 -2.73415 0
M  V30 13608 C 1268.19 -3.39462 -4.13122 0
M  V30 13609 C 1269.49 -4.66382 -2.35128 0
M  V30 13610 H 1271.19 -2.78707 -1.09373 0
M  V30 13611 H 1268.73 -1.341 -0.524704 0
M  V30 13612 H 1270.69 -2.35791 -3.49257 0
M  V30 13613 H 1269.41 -1.20181 -3.03684 0
M  V30 13614 H 1268.07 -3.06855 -2.00588 0
M  V30 13615 H 1267.72 -2.43721 -4.4001 0
M  V30 13616 H 1267.42 -4.17334 -4.1365 0
M  V30 13617 H 1268.94 -3.64075 -4.90185 0
M  V30 13618 H 1270.36 -4.88463 -3.00128 0
M  V30 13619 H 1268.75 -5.4697 -2.46867 0
M  V30 13620 H 1269.82 -4.67078 -1.30256 0
M  V30 13621 N 1271.17 0.563888 -1.47167 0
M  V30 13622 C 1272.11 1.69254 -1.59549 0
M  V30 13623 C 1273.11 1.62948 -0.463078 0
M  V30 13624 O 1274.31 1.68214 -0.640639 0
M  V30 13625 H 1270.69 0.559925 -0.501984 0
M  V30 13626 H 1272.66 1.55946 -2.54408 0
M  V30 13627 C 1271.41 3.0762 -1.62066 0
M  V30 13628 H 1270.73 3.13151 -2.48549 0
M  V30 13629 H 1272.17 3.863 -1.74781 0
M  V30 13630 C 1270.63 3.35048 -0.352721 0
M  V30 13631 O 1271.16 3.9793 0.549053 0
M  V30 13632 N 1269.37 2.8965 -0.234805 0
M  V30 13633 H 1268.91 2.38657 -0.969561 0
M  V30 13634 H 1268.87 3.08373 0.61263 0
M  V30 13635 N 1272.64 1.35187 0.810078 0
M  V30 13636 C 1273.89 1.29463 1.56879 0
M  V30 13637 C 1274.25 -0.130837 1.91955 0
M  V30 13638 O 1273.54 -1.08036 1.58236 0
M  V30 13639 C 1273.73 2.13135 2.86894 0
M  V30 13640 C 1273.56 3.63674 2.64521 0
M  V30 13641 C 1272.33 4.32918 2.60595 0
M  V30 13642 C 1274.53 4.57398 2.35141 0
M  V30 13643 N 1272.51 5.69226 2.29902 0
M  V30 13644 C 1273.88 5.81802 2.14257 0
M  V30 13645 C 1275.94 4.46177 2.20976 0
M  V30 13646 C 1274.64 6.96248 1.80641 0
M  V30 13647 C 1276.67 5.60469 1.88756 0
M  V30 13648 C 1276.03 6.83899 1.68704 0
M  V30 13649 H 1272.13 0.528991 0.575927 0
M  V30 13650 H 1274.71 1.70032 0.948529 0
M  V30 13651 H 1272.88 1.74842 3.46821 0
M  V30 13652 H 1274.61 1.98957 3.52418 0
M  V30 13653 H 1271.37 3.85494 2.75121 0
M  V30 13654 H 1271.79 6.41158 2.1736 0
M  V30 13655 H 1276.44 3.51357 2.35177 0
M  V30 13656 H 1274.15 7.91039 1.65176 0
M  V30 13657 H 1277.74 5.53738 1.78509 0
M  V30 13658 H 1276.62 7.7084 1.44136 0
M  V30 13659 N 1274.12 -1.03182 1.19127 0
M  V30 13660 C 1275.09 -2.09559 0.928307 0
M  V30 13661 C 1276.09 -1.60548 -0.0899992 0
M  V30 13662 O 1277.28 -1.736 0.144422 0
M  V30 13663 C 1274.41 -3.38609 0.394561 0
M  V30 13664 H 1275.6 -2.34321 1.87173 0
M  V30 13665 H 1273.15 -1.19746 1.00452 0
M  V30 13666 H 1273.89 -3.19515 -0.555046 0
M  V30 13667 H 1273.67 -3.75502 1.12873 0
M  V30 13668 H 1275.16 -4.16969 0.229569 0
M  V30 13669 N 1275.6 -0.99472 -1.22242 0
M  V30 13670 C 1276.56 -0.551619 -2.22463 0
M  V30 13671 C 1277.56 0.366498 -1.56568 0
M  V30 13672 O 1278.75 0.158204 -1.7348 0
M  V30 13673 C 1275.89 0.197416 -3.40328 0
M  V30 13674 H 1277.08 -1.43795 -2.63179 0
M  V30 13675 H 1274.63 -0.782121 -1.35324 0
M  V30 13676 H 1275.37 1.09965 -3.05087 0
M  V30 13677 H 1275.15 -0.461829 -3.89371 0
M  V30 13678 H 1276.64 0.495534 -4.1465 0
M  V30 13679 N 1277.08 1.37613 -0.768148 0
M  V30 13680 C 1278.01 2.28935 -0.110234 0
M  V30 13681 C 1279.02 1.48459 0.668122 0
M  V30 13682 O 1280.21 1.71154 0.506808 0
M  V30 13683 C 1277.31 3.27606 0.867598 0
M  V30 13684 C 1276.49 4.37163 0.143819 0
M  V30 13685 C 1275.54 5.15931 1.03449 0
M  V30 13686 O 1274.57 5.67003 0.499605 0
M  V30 13687 N 1275.77 5.30311 2.36114 0
M  V30 13688 H 1278.54 2.86037 -0.894585 0
M  V30 13689 H 1276.1 1.4955 -0.620185 0
M  V30 13690 H 1278.09 3.77183 1.4668 0
M  V30 13691 H 1276.66 2.71298 1.55294 0
M  V30 13692 H 1275.88 3.89031 -0.636257 0
M  V30 13693 H 1277.17 5.0755 -0.356446 0
M  V30 13694 H 1276.57 4.90394 2.82011 0
M  V30 13695 H 1275.12 5.83209 2.9105 0
M  V30 13696 N 1278.56 0.518393 1.4883 0
M  V30 13697 C 1279.81 -0.0218436 2.01688 0
M  V30 13698 C 1280.12 -1.36421 1.40174 0
M  V30 13699 O 1281.32 -1.99214 1.84461 0
M  V30 13700 C 1279.78 -0.0893538 3.59789 0
M  V30 13701 C 1279.39 1.24741 4.30283 0
M  V30 13702 C 1281.13 -0.579032 4.20532 0
M  V30 13703 C 1279.04 1.14112 5.80286 0
M  V30 13704 H 1277.97 -0.0119353 0.753906 0
M  V30 13705 H 1280.62 0.660432 1.71203 0
M  V30 13706 H 1279 -0.836458 3.87065 0
M  V30 13707 H 1280.18 2.00917 4.14691 0
M  V30 13708 H 1278.49 1.67191 3.81361 0
M  V30 13709 H 1281.09 -0.676343 5.30405 0
M  V30 13710 H 1281.43 -1.58207 3.85067 0
M  V30 13711 H 1281.96 0.112046 3.97642 0
M  V30 13712 H 1278.7 2.11895 6.20307 0
M  V30 13713 H 1278.22 0.420535 5.98324 0
M  V30 13714 H 1279.9 0.826992 6.41693 0
M  V30 13715 N 1280.03 -1.55556 0.252993 0
M  V30 13716 C 1281.26 -2.03196 -0.37348 0
M  V30 13717 C 1281.67 -1.13145 -1.51641 0
M  V30 13718 O 1281.02 -0.139519 -1.83169 0
M  V30 13719 C 1281.08 -3.47066 -0.937308 0
M  V30 13720 C 1280.74 -4.5694 0.0741513 0
M  V30 13721 C 1281.74 -5.12297 0.885862 0
M  V30 13722 C 1279.42 -5.01894 0.202003 0
M  V30 13723 C 1281.42 -6.11107 1.81182 0
M  V30 13724 C 1279.1 -6.00534 1.13146 0
M  V30 13725 C 1280.1 -6.5502 1.93489 0
M  V30 13726 O 1279.79 -7.51735 2.84868 0
M  V30 13727 H 1279.52 -0.669687 -0.092171 0
M  V30 13728 H 1282.08 -2.01924 0.376264 0
M  V30 13729 H 1280.31 -3.45507 -1.73672 0
M  V30 13730 H 1282 -3.78171 -1.47451 0
M  V30 13731 H 1282.76 -4.78395 0.797707 0
M  V30 13732 H 1278.64 -4.59144 -0.413301 0
M  V30 13733 H 1282.18 -6.53561 2.43935 0
M  V30 13734 H 1278.08 -6.33856 1.22052 0
M  V30 13735 H 1278.85 -7.69373 2.79298 0
M  V30 13736 N 1281.51 0.0200419 -1.57587 0
M  V30 13737 C 1282.92 0.565484 -1.7793 0
M  V30 13738 C 1283.27 1.75096 -0.885201 0
M  V30 13739 O 1282.4 2.16243 -0.0823831 0
M  V30 13740 C 1282.99 1.03263 -3.2268 0
M  V30 13741 C 1281.55 1.52352 -3.44189 0
M  V30 13742 C 1280.7 0.465637 -2.73363 0
M  V30 13743 H 1283.65 -0.206174 -1.57355 0
M  V30 13744 H 1283.67 1.89959 -3.2969 0
M  V30 13745 H 1283.18 0.169613 -3.87729 0
M  V30 13746 H 1281.29 2.40809 -2.84327 0
M  V30 13747 H 1281.4 1.5648 -4.52825 0
M  V30 13748 H 1279.76 0.922738 -2.37398 0
M  V30 13749 H 1280.55 -0.388068 -3.411 0
M  V30 13750 N 1282.99 1.54862 0.292472 0
M  V30 13751 C 1284.24 1.74203 1.02458 0
M  V30 13752 C 1284.56 0.535398 1.87506 0
M  V30 13753 O 1283.83 -0.450164 1.90658 0
M  V30 13754 H 1282.41 0.642369 0.381276 0
M  V30 13755 H 1285.07 1.92232 0.321398 0
M  V30 13756 H 1284.17 2.63486 1.67277 0
M  V30 13757 N 1284.47 -0.556076 1.47464 0
M  V30 13758 C 1285.72 -1.30955 1.53407 0
M  V30 13759 C 1286.03 -1.94559 0.201485 0
M  V30 13760 O 1287.24 -2.71144 0.138925 0
M  V30 13761 C 1285.69 -2.37476 2.70431 0
M  V30 13762 C 1285.3 -1.80057 4.10224 0
M  V30 13763 C 1287.04 -3.13997 2.85668 0
M  V30 13764 C 1284.95 -2.84365 5.18547 0
M  V30 13765 H 1283.88 -0.4924 0.571015 0
M  V30 13766 H 1286.53 -0.590459 1.73741 0
M  V30 13767 H 1284.91 -3.12304 2.43479 0
M  V30 13768 H 1286.09 -1.11593 4.47083 0
M  V30 13769 H 1284.4 -1.16116 3.99882 0
M  V30 13770 H 1287 -3.91892 3.63764 0
M  V30 13771 H 1287.34 -3.68253 1.94153 0
M  V30 13772 H 1287.88 -2.46281 3.12395 0
M  V30 13773 H 1284.62 -2.34963 6.11942 0
M  V30 13774 H 1284.14 -3.51235 4.86203 0
M  V30 13775 H 1285.81 -3.47836 5.45545 0
M  V30 13776 N 1285.95 -1.35615 -0.802897 0
M  V30 13777 C 1286.89 -1.28839 -1.91492 0
M  V30 13778 C 1287.86 -0.159621 -1.65331 0
M  V30 13779 O 1289.05 -0.343931 -1.87675 0
M  V30 13780 C 1286.19 -1.06999 -3.28093 0
M  V30 13781 C 1285.3 -2.28831 -3.66416 0
M  V30 13782 C 1284.44 -2.00111 -4.92066 0
M  V30 13783 C 1283.48 -3.17977 -5.23027 0
M  V30 13784 N 1282.61 -2.89009 -6.39858 0
M  V30 13785 H 1287.45 -2.2393 -1.96619 0
M  V30 13786 H 1284.99 -1.1131 -0.961687 0
M  V30 13787 H 1286.95 -0.923673 -4.06847 0
M  V30 13788 H 1285.58 -0.155684 -3.22424 0
M  V30 13789 H 1284.63 -2.54314 -2.82893 0
M  V30 13790 H 1285.94 -3.1683 -3.85253 0
M  V30 13791 H 1285.1 -1.82331 -5.78654 0
M  V30 13792 H 1283.84 -1.09402 -4.75271 0
M  V30 13793 H 1282.84 -3.3633 -4.34928 0
M  V30 13794 H 1284.07 -4.09493 -5.41749 0
M  V30 13795 H 1282.01 -2.00898 -6.24481 0
M  V30 13796 H 1281.93 -3.70544 -6.58964 0
M  V30 13797 H 1283.2 -2.74779 -7.29463 0
M  V30 13798 N 1287.43 1.02549 -1.19673 0
M  V30 13799 C 1288.65 1.79623 -1.0268 0
M  V30 13800 C 1289.07 1.83969 0.424345 0
M  V30 13801 O 1288.43 1.28621 1.29472 0
M  V30 13802 C 1288.48 3.24514 -1.59289 0
M  V30 13803 O 1288.2 3.20462 -2.98723 0
M  V30 13804 C 1289.7 4.18173 -1.47126 0
M  V30 13805 H 1286.92 0.565167 -0.3617 0
M  V30 13806 H 1289.46 1.29143 -1.58564 0
M  V30 13807 H 1287.62 3.72173 -1.07546 0
M  V30 13808 H 1288.03 4.11341 -3.25421 0
M  V30 13809 H 1289.51 5.17714 -1.9151 0
M  V30 13810 H 1289.98 4.37165 -0.422315 0
M  V30 13811 H 1290.59 3.7639 -1.98017 0
M  V30 13812 N 1288.9 1.00119 1.21713 0
M  V30 13813 C 1289.85 0.558388 2.23943 0
M  V30 13814 C 1290.82 -0.413576 1.60869 0
M  V30 13815 O 1292.01 -0.316478 1.88157 0
M  V30 13816 C 1289.15 -0.112618 3.44916 0
M  V30 13817 C 1288.26 0.902071 4.22477 0
M  V30 13818 C 1287.39 0.203722 5.30809 0
M  V30 13819 C 1286.43 1.20622 6.00097 0
M  V30 13820 N 1285.57 0.535607 7.00054 0
M  V30 13821 H 1290.41 1.43486 2.61182 0
M  V30 13822 H 1287.95 0.718572 1.28355 0
M  V30 13823 H 1289.9 -0.51865 4.13964 0
M  V30 13824 H 1288.53 -0.952827 3.08417 0
M  V30 13825 H 1287.59 1.42637 3.52645 0
M  V30 13826 H 1288.9 1.66513 4.70186 0
M  V30 13827 H 1288.05 -0.258614 6.06149 0
M  V30 13828 H 1286.79 -0.591773 4.84096 0
M  V30 13829 H 1285.8 1.6791 5.23532 0
M  V30 13830 H 1287.02 2.00273 6.48897 0
M  V30 13831 H 1284.97 -0.2403 6.5556 0
M  V30 13832 H 1284.88 1.23698 7.45812 0
M  V30 13833 H 1286.15 0.0963489 7.7944 0
M  V30 13834 N 1290.38 -1.37203 0.775435 0
M  V30 13835 C 1291.33 -2.27584 0.137667 0
M  V30 13836 C 1292.32 -1.46281 -0.670135 0
M  V30 13837 O 1293.51 -1.688 -0.532503 0
M  V30 13838 C 1290.64 -3.3528 -0.73773 0
M  V30 13839 C 1289.72 -4.24028 0.078102 0
M  V30 13840 N 1290.11 -4.93117 1.1256 0
M  V30 13841 C 1288.41 -4.45763 -0.145295 0
M  V30 13842 C 1289.11 -5.58656 1.62107 0
M  V30 13843 N 1288.09 -5.3554 0.932622 0
M  V30 13844 H 1291.89 -2.78475 0.93961 0
M  V30 13845 H 1289.4 -1.50364 0.613544 0
M  V30 13846 H 1291.4 -3.98941 -1.21043 0
M  V30 13847 H 1290.06 -2.85944 -1.53838 0
M  V30 13848 H 1291.07 -4.95465 1.50781 0
M  V30 13849 H 1287.75 -4.07292 -0.917557 0
M  V30 13850 H 1289.14 -6.23866 2.49482 0
M  V30 13851 N 1291.86 -0.526279 -1.48553 0
M  V30 13852 C 1292.79 0.227364 -2.3239 0
M  V30 13853 C 1293.77 0.93862 -1.41859 0
M  V30 13854 O 1294.96 0.925119 -1.70749 0
M  V30 13855 C 1292.09 1.277 -3.22971 0
M  V30 13856 C 1291.04 0.684107 -4.22497 0
M  V30 13857 C 1290.37 1.83612 -5.02186 0
M  V30 13858 C 1291.67 -0.341723 -5.21181 0
M  V30 13859 H 1293.36 -0.472486 -2.95648 0
M  V30 13860 H 1290.91 -0.228669 -1.42173 0
M  V30 13861 H 1292.86 1.81215 -3.80446 0
M  V30 13862 H 1291.58 2.00638 -2.57705 0
M  V30 13863 H 1290.24 0.170505 -3.66203 0
M  V30 13864 H 1289.89 2.55379 -4.33348 0
M  V30 13865 H 1289.59 1.44536 -5.69547 0
M  V30 13866 H 1291.11 2.37513 -5.62512 0
M  V30 13867 H 1292.53 0.106207 -5.73202 0
M  V30 13868 H 1290.92 -0.649673 -5.96573 0
M  V30 13869 H 1291.99 -1.2488 -4.68543 0
M  V30 13870 N 1293.34 1.5542 -0.261239 0
M  V30 13871 C 1294.58 2.0119 0.360848 0
M  V30 13872 C 1294.94 1.14558 1.5408 0
M  V30 13873 O 1296.14 1.49846 2.23158 0
M  V30 13874 C 1294.41 3.49513 0.74668 0
M  V30 13875 S 1295.97 4.17281 1.35726 0
M  V30 13876 H 1292.79 0.701978 0.112903 0
M  V30 13877 H 1295.39 1.91775 -0.379829 0
M  V30 13878 H 1294.1 4.10221 -0.121172 0
M  V30 13879 H 1293.63 3.62884 1.51917 0
M  V30 13880 H 1295.64 4.19756 2.64612 0
M  V30 13881 N 1294.82 -0.0116844 1.57596 0
M  V30 13882 C 1296.23 -0.367602 1.55309 0
M  V30 13883 C 1296.43 -1.75524 0.98962 0
M  V30 13884 O 1295.49 -2.44813 0.618289 0
M  V30 13885 C 1296.8 -0.253532 2.99629 0
M  V30 13886 C 1298.35 -0.329335 3.11263 0
M  V30 13887 C 1298.82 -0.24452 4.57347 0
M  V30 13888 N 1300.31 -0.302782 4.62209 0
M  V30 13889 C 1301.05 -0.260315 5.72809 0
M  V30 13890 N 1300.55 -0.169124 6.92594 0
M  V30 13891 N 1302.34 -0.311323 5.61237 0
M  V30 13892 H 1294.49 0.896204 1.92567 0
M  V30 13893 H 1296.75 0.342445 0.883988 0
M  V30 13894 H 1296.46 0.70074 3.44648 0
M  V30 13895 H 1296.33 -1.04029 3.62571 0
M  V30 13896 H 1298.72 -1.27405 2.66181 0
M  V30 13897 H 1298.8 0.487084 2.5112 0
M  V30 13898 H 1298.44 0.696597 5.031 0
M  V30 13899 H 1298.37 -1.07927 5.15421 0
M  V30 13900 H 1300.87 -0.375067 3.76034 0
M  V30 13901 H 1301.18 -0.142296 7.72669 0
M  V30 13902 H 1299.52 -0.134919 6.94869 0
M  V30 13903 H 1302.71 -0.380678 4.6655 0
M  V30 13904 H 1302.89 -0.274761 6.47417 0
M  V30 13905 N 1296.29 -1.55015 -0.284256 0
M  V30 13906 C 1297.22 -1.90128 -1.3555 0
M  V30 13907 C 1298.2 -0.761914 -1.52082 0
M  V30 13908 O 1299.39 -1.01909 -1.65312 0
M  V30 13909 C 1296.52 -2.16332 -2.71695 0
M  V30 13910 C 1295.47 -3.32166 -2.69907 0
M  V30 13911 C 1294.8 -3.43824 -4.09498 0
M  V30 13912 C 1296.1 -4.6885 -2.30168 0
M  V30 13913 H 1297.79 -2.79852 -1.06411 0
M  V30 13914 H 1295.34 -1.34649 -0.510451 0
M  V30 13915 H 1297.29 -2.39482 -3.46737 0
M  V30 13916 H 1296.02 -1.23395 -3.02392 0
M  V30 13917 H 1294.68 -3.08965 -1.97322 0
M  V30 13918 H 1294.32 -2.48375 -4.374 0
M  V30 13919 H 1294.02 -4.21698 -4.092 0
M  V30 13920 H 1295.55 -3.69254 -4.86296 0
M  V30 13921 H 1296.96 -4.91619 -2.9493 0
M  V30 13922 H 1295.36 -5.49558 -2.41052 0
M  V30 13923 H 1296.43 -4.68433 -1.25294 0
M  V30 13924 N 1297.77 0.548248 -1.47757 0
M  V30 13925 C 1299.02 1.30139 -1.54099 0
M  V30 13926 C 1299.33 1.9445 -0.2118 0
M  V30 13927 O 1300.54 2.71067 -0.153302 0
M  V30 13928 C 1299 2.36039 -2.71687 0
M  V30 13929 C 1298.6 1.77879 -4.11173 0
M  V30 13930 C 1300.35 3.12478 -2.87329 0
M  V30 13931 C 1298.25 2.81611 -5.20047 0
M  V30 13932 H 1297.18 0.489364 -0.573619 0
M  V30 13933 H 1299.84 0.581237 -1.74051 0
M  V30 13934 H 1298.22 3.11008 -2.45132 0
M  V30 13935 H 1299.39 1.09221 -4.47669 0
M  V30 13936 H 1297.71 1.13994 -4.00493 0
M  V30 13937 H 1300.3 3.89958 -3.65837 0
M  V30 13938 H 1300.65 3.67218 -1.96103 0
M  V30 13939 H 1301.18 2.4462 -3.13697 0
M  V30 13940 H 1297.92 2.31714 -6.13179 0
M  V30 13941 H 1297.44 3.48652 -4.88059 0
M  V30 13942 H 1299.12 3.44938 -5.47382 0
M  V30 13943 N 1299.25 1.36039 0.795694 0
M  V30 13944 C 1300.67 1.16315 1.09284 0
M  V30 13945 C 1300.87 -0.017024 2.01493 0
M  V30 13946 O 1299.92 -0.684316 2.4305 0
M  V30 13947 C 1301.23 2.47113 1.71335 0
M  V30 13948 C 1302.78 2.5342 1.83705 0
M  V30 13949 C 1303.26 3.84289 2.49171 0
M  V30 13950 N 1304.75 3.856 2.56645 0
M  V30 13951 C 1305.48 4.83597 3.08094 0
M  V30 13952 N 1304.98 5.91985 3.59897 0
M  V30 13953 N 1306.77 4.71023 3.06748 0
M  V30 13954 H 1298.92 2.11611 0.182957 0
M  V30 13955 H 1301.19 0.937035 0.143771 0
M  V30 13956 H 1300.89 3.33708 1.11049 0
M  V30 13957 H 1300.77 2.62461 2.70914 0
M  V30 13958 H 1303.15 1.67247 2.43131 0
M  V30 13959 H 1303.23 2.41977 0.829495 0
M  V30 13960 H 1302.88 4.70865 1.90391 0
M  V30 13961 H 1302.81 3.93025 3.50484 0
M  V30 13962 H 1305.3 3.07291 2.19956 0
M  V30 13963 H 1305.61 6.6274 3.97487 0
M  V30 13964 H 1303.96 5.95662 3.58066 0
M  V30 13965 H 1307.15 3.8548 2.65561 0
M  V30 13966 H 1307.32 5.47555 3.46536 0
M  V30 13967 N 1300.73 -1.01913 1.20215 0
M  V30 13968 C 1301.98 -1.75124 1.00876 0
M  V30 13969 C 1302.3 -1.89485 -0.460475 0
M  V30 13970 O 1301.57 -1.43552 -1.33302 0
M  V30 13971 H 1300.15 -0.648777 0.370266 0
M  V30 13972 H 1302.81 -1.22883 1.5128 0
M  V30 13973 H 1301.91 -2.7558 1.46499 0
M  V30 13974 N 1302.21 -1.00763 -1.2118 0
M  V30 13975 C 1303.15 -0.570257 -2.23644 0
M  V30 13976 C 1304.12 0.405039 -1.61086 0
M  V30 13977 O 1305.31 0.306496 -1.88322 0
M  V30 13978 C 1302.45 0.094325 -3.44971 0
M  V30 13979 C 1301.56 -0.924463 -4.21993 0
M  V30 13980 C 1300.7 -0.231869 -5.30694 0
M  V30 13981 C 1299.74 -1.23803 -5.99449 0
M  V30 13982 N 1298.87 -0.572725 -6.9976 0
M  V30 13983 H 1303.71 -1.44869 -2.60417 0
M  V30 13984 H 1301.25 -0.725369 -1.27972 0
M  V30 13985 H 1303.21 0.496689 -4.14233 0
M  V30 13986 H 1301.84 0.936457 -3.08918 0
M  V30 13987 H 1300.89 -1.44505 -3.51884 0
M  V30 13988 H 1302.2 -1.69004 -4.69296 0
M  V30 13989 H 1301.36 0.226465 -6.06277 0
M  V30 13990 H 1300.09 0.566092 -4.84403 0
M  V30 13991 H 1299.1 -1.70684 -5.22635 0
M  V30 13992 H 1300.32 -2.03711 -6.47826 0
M  V30 13993 H 1298.27 0.205531 -6.55678 0
M  V30 13994 H 1298.19 -1.27651 -7.45145 0
M  V30 13995 H 1299.46 -0.137683 -7.79378 0
M  V30 13996 N 1303.68 1.3679 -0.7827 0
M  V30 13997 C 1304.62 2.27871 -0.122531 0
M  V30 13998 C 1305.6 1.46885 0.697399 0
M  V30 13999 O 1306.78 1.76198 0.669819 0
M  V30 14000 C 1303.91 3.28314 0.832311 0
M  V30 14001 C 1302.95 4.26394 0.0950152 0
M  V30 14002 S 1303.79 5.2131 -1.22457 0
M  V30 14003 C 1304.94 6.25302 -0.273558 0
M  V30 14004 H 1305.17 2.83514 -0.894814 0
M  V30 14005 H 1302.71 1.43229 -0.5766 0
M  V30 14006 H 1304.67 3.86688 1.37778 0
M  V30 14007 H 1303.33 2.71597 1.57779 0
M  V30 14008 H 1302.52 4.97297 0.819278 0
M  V30 14009 H 1302.12 3.72067 -0.379778 0
M  V30 14010 H 1304.41 6.75263 0.550064 0
M  V30 14011 H 1305.36 7.01684 -0.951071 0
M  V30 14012 H 1305.76 5.64372 0.120115 0
M  V30 14013 N 1305.16 0.53415 1.48272 0
M  V30 14014 C 1306.39 0.00574475 2.06899 0
M  V30 14015 C 1306.81 -1.27754 1.39012 0
M  V30 14016 O 1306.16 -1.76102 0.478993 0
M  V30 14017 C 1306.21 -0.217576 3.60845 0
M  V30 14018 O 1305.93 1.01487 4.26183 0
M  V30 14019 C 1307.44 -0.785888 4.36278 0
M  V30 14020 H 1304.66 0.0353967 0.670066 0
M  V30 14021 H 1307.2 0.740984 1.90603 0
M  V30 14022 H 1305.35 -0.902875 3.76732 0
M  V30 14023 H 1305.77 0.7982 5.18391 0
M  V30 14024 H 1307.24 -0.891551 5.44753 0
M  V30 14025 H 1307.72 -1.79178 4.00989 0
M  V30 14026 H 1308.33 -0.137022 4.25079 0
M  V30 14027 N 1306.64 -1.55279 0.269478 0
M  V30 14028 C 1307.57 -2.25278 -0.614188 0
M  V30 14029 C 1308.55 -1.24092 -1.1634 0
M  V30 14030 O 1309.74 -1.52799 -1.19858 0
M  V30 14031 C 1306.87 -2.96956 -1.80096 0
M  V30 14032 C 1305.82 -4.05021 -1.38353 0
M  V30 14033 C 1305.15 -4.64244 -2.65295 0
M  V30 14034 C 1306.45 -5.19523 -0.537886 0
M  V30 14035 H 1308.14 -2.99385 -0.0304397 0
M  V30 14036 H 1305.69 -1.43994 -0.0132004 0
M  V30 14037 H 1307.64 -3.44633 -2.42499 0
M  V30 14038 H 1306.36 -2.20374 -2.41045 0
M  V30 14039 H 1305.02 -3.58146 -0.78273 0
M  V30 14040 H 1304.67 -3.84337 -3.2449 0
M  V30 14041 H 1304.37 -5.37208 -2.38079 0
M  V30 14042 H 1305.89 -5.14668 -3.28557 0
M  V30 14043 H 1307.31 -5.63287 -1.06677 0
M  V30 14044 H 1305.71 -5.99014 -0.360845 0
M  V30 14045 H 1306.78 -4.82857 0.444672 0
M  V30 14046 N 1308.12 0.00332656 -1.576 0
M  V30 14047 C 1309.35 0.699945 -1.94701 0
M  V30 14048 C 1309.76 1.67492 -0.871312 0
M  V30 14049 O 1309.12 1.81882 0.150054 0
M  V30 14050 C 1309.17 1.43471 -3.31811 0
M  V30 14051 O 1308.89 0.498835 -4.35251 0
M  V30 14052 C 1310.39 2.22614 -3.83351 0
M  V30 14053 H 1307.61 0.195158 -0.641993 0
M  V30 14054 H 1310.16 -0.0468044 -2.04446 0
M  V30 14055 H 1308.31 2.13311 -3.23384 0
M  V30 14056 H 1308.72 1.01688 -5.14548 0
M  V30 14057 H 1310.2 2.69527 -4.81725 0
M  V30 14058 H 1310.68 3.05146 -3.15883 0
M  V30 14059 H 1311.28 1.57796 -3.94944 0
M  V30 14060 N 1309.6 1.55164 0.276031 0
M  V30 14061 C 1310.51 1.90928 1.36321 0
M  V30 14062 C 1311.52 0.806183 1.54197 0
M  V30 14063 O 1312.7 1.10497 1.68382 0
M  V30 14064 C 1309.76 2.17123 2.70293 0
M  V30 14065 C 1308.82 3.40703 2.6119 0
M  V30 14066 C 1308.06 3.65638 3.88773 0
M  V30 14067 O 1308.28 2.93137 4.89313 0
M  V30 14068 O 1307.21 4.59172 3.89159 0
M  V30 14069 H 1311.04 2.8347 1.08988 0
M  V30 14070 H 1308.63 1.41672 0.474292 0
M  V30 14071 H 1310.51 2.3541 3.49514 0
M  V30 14072 H 1309.18 1.27765 2.97419 0
M  V30 14073 H 1308.09 3.27754 1.80355 0
M  V30 14074 H 1309.42 4.30271 2.39014 0
M  V30 14075 N 1311.07 -0.540404 1.48045 0
M  V30 14076 C 1311.98 -1.67308 1.64455 0
M  V30 14077 C 1313 -1.65823 0.527152 0
M  V30 14078 O 1314.18 -1.84964 0.796881 0
M  V30 14079 C 1311.24 -3.03792 1.67068 0
M  V30 14080 C 1310.3 -3.16213 2.90358 0
M  V30 14081 C 1309.54 -4.46187 2.92837 0
M  V30 14082 O 1309.76 -5.32662 2.04029 0
M  V30 14083 O 1308.69 -4.62754 3.84892 0
M  V30 14084 H 1312.52 -1.56403 2.6033 0
M  V30 14085 H 1310.1 -0.712323 1.31325 0
M  V30 14086 H 1311.99 -3.84982 1.71368 0
M  V30 14087 H 1310.66 -3.15043 0.74363 0
M  V30 14088 H 1309.57 -2.34357 2.91595 0
M  V30 14089 H 1310.9 -3.09874 3.82412 0
M  V30 14090 N 1312.55 -1.36459 -0.788468 0
M  V30 14091 C 1313.8 -1.30935 -1.54867 0
M  V30 14092 C 1314.13 0.110916 -1.93883 0
M  V30 14093 O 1313.41 1.06452 -1.62783 0
M  V30 14094 C 1313.69 -2.23294 -2.8251 0
M  V30 14095 C 1313.54 -3.74022 -2.49856 0
M  V30 14096 C 1314.86 -2.14407 -3.84341 0
M  V30 14097 H 1311.98 -0.476958 -0.561854 0
M  V30 14098 H 1314.62 -1.67018 -0.905805 0
M  V30 14099 H 1312.77 -1.92652 -3.37369 0
M  V30 14100 H 1314.44 -4.15187 -2.01041 0
M  V30 14101 H 1312.69 -3.93411 -1.82785 0
M  V30 14102 H 1313.36 -4.34057 -3.41026 0
M  V30 14103 H 1315.83 -2.41381 -3.38932 0
M  V30 14104 H 1314.71 -2.81199 -4.71401 0
M  V30 14105 H 1314.97 -1.13166 -4.27371 0
M  V30 14106 N 1314.03 1.01274 -1.20754 0
M  V30 14107 C 1314.96 2.10029 -0.917628 0
M  V30 14108 C 1315.98 1.62516 0.0961411 0
M  V30 14109 O 1317.16 1.77986 -0.135371 0
M  V30 14110 C 1314.26 3.37037 -0.354891 0
M  V30 14111 C 1313.44 4.1367 -1.42113 0
M  V30 14112 C 1312.5 5.18974 -0.869023 0
M  V30 14113 O 1311.52 5.47671 -1.55063 0
M  V30 14114 N 1312.72 5.79619 0.319631 0
M  V30 14115 H 1315.49 2.35485 -1.85383 0
M  V30 14116 H 1313.05 1.17695 -1.11173 0
M  V30 14117 H 1315.04 4.0469 0.0286895 0
M  V30 14118 H 1313.61 3.088 0.485956 0
M  V30 14119 H 1312.83 3.40931 -1.97889 0
M  V30 14120 H 1314.12 4.61649 -2.13911 0
M  V30 14121 H 1313.52 5.58646 0.89059 0
M  V30 14122 H 1312.08 6.48603 0.644807 0
M  V30 14123 N 1315.51 1.01404 1.20644 0
M  V30 14124 C 1316.76 0.712655 1.90507 0
M  V30 14125 C 1317.11 -0.749299 1.7721 0
M  V30 14126 O 1316.4 -1.53709 1.14386 0
M  V30 14127 C 1316.6 1.07995 3.40693 0
M  V30 14128 C 1316.43 2.57606 3.68604 0
M  V30 14129 C 1315.2 3.2435 3.8746 0
M  V30 14130 C 1317.39 3.55788 3.71375 0
M  V30 14131 N 1315.38 4.63218 4.02868 0
M  V30 14132 C 1316.75 4.80207 3.92175 0
M  V30 14133 C 1318.8 3.49797 3.54325 0
M  V30 14134 C 1317.51 5.9936 3.97694 0
M  V30 14135 C 1319.53 4.68349 3.61114 0
M  V30 14136 C 1318.89 5.91575 3.82385 0
M  V30 14137 H 1314.99 0.312406 0.716887 0
M  V30 14138 H 1317.58 1.29835 1.4509 0
M  V30 14139 H 1315.75 0.522623 3.84868 0
M  V30 14140 H 1317.48 0.732364 3.98018 0
M  V30 14141 H 1314.23 2.7478 3.85737 0
M  V30 14142 H 1314.66 5.3531 4.14454 0
M  V30 14143 H 1319.3 2.55525 3.36848 0
M  V30 14144 H 1317.02 6.94015 4.13968 0
M  V30 14145 H 1320.6 4.65325 3.49233 0
M  V30 14146 H 1319.48 6.81776 3.87494 0
M  V30 14147 N 1316.99 -1.36373 0.789944 0
M  V30 14148 C 1318.22 -2.03482 0.37453 0
M  V30 14149 C 1318.63 -1.59562 -1.00923 0
M  V30 14150 O 1317.99 -0.785289 -1.64741 0
M  V30 14151 C 1318.04 -3.58942 0.429255 0
M  V30 14152 O 1317.76 -4.01261 1.75845 0
M  V30 14153 C 1319.26 -4.433 0.00453729 0
M  V30 14154 H 1316.48 -0.653019 0.154295 0
M  V30 14155 H 1319.02 -1.74339 1.06894 0
M  V30 14156 H 1317.18 -3.86793 -0.21674 0
M  V30 14157 H 1317.59 -4.95854 1.70964 0
M  V30 14158 H 1319.07 -5.5192 0.0939653 0
M  V30 14159 H 1319.54 -4.26509 -1.04816 0
M  V30 14160 H 1320.15 -4.20712 0.623041 0
M  V30 14161 N 1318.47 -0.542005 -1.47987 0
M  V30 14162 C 1319.38 0.217677 -2.33588 0
M  V30 14163 C 1320.39 0.927093 -1.47245 0
M  V30 14164 O 1321.57 0.899378 -1.80203 0
M  V30 14165 C 1318.63 1.24376 -3.23622 0
M  V30 14166 C 1317.69 0.543407 -4.25847 0
M  V30 14167 C 1316.93 1.5206 -5.11579 0
M  V30 14168 O 1317.15 2.75425 -4.99497 0
M  V30 14169 O 1316.08 1.05341 -5.9261 0
M  V30 14170 H 1319.91 -0.484089 -2.99817 0
M  V30 14171 H 1317.49 -0.302783 -1.463 0
M  V30 14172 H 1319.38 1.83644 -3.7928 0
M  V30 14173 H 1318.05 1.92772 -2.6004 0
M  V30 14174 H 1316.96 -0.090074 -3.73992 0
M  V30 14175 H 1318.29 -0.0988264 -4.92101 0
M  V30 14176 N 1319.94 1.55134 -0.277709 0
M  V30 14177 C 1320.88 2.18745 0.650058 0
M  V30 14178 C 1321.85 1.14922 1.15029 0
M  V30 14179 O 1323.04 1.43458 1.22278 0
M  V30 14180 C 1320.17 2.81277 1.88683 0
M  V30 14181 C 1319.21 3.98425 1.52185 0
M  V30 14182 S 1320.04 5.32153 0.597782 0
M  V30 14183 C 1321.2 5.98155 1.84287 0
M  V30 14184 H 1321.43 2.97098 0.109571 0
M  V30 14185 H 1318.97 1.54276 -0.0619536 0
M  V30 14186 H 1320.92 3.17934 2.59669 0
M  V30 14187 H 1319.59 2.02813 2.39845 0
M  V30 14188 H 1318.78 4.40877 2.4422 0
M  V30 14189 H 1318.38 3.63203 0.892146 0
M  V30 14190 H 1320.67 6.17546 2.78646 0
M  V30 14191 H 1321.62 6.92857 1.46131 0
M  V30 14192 H 1322.02 5.27541 2.00899 0
M  V30 14193 N 1321.42 0.00503138 1.57599 0
M  V30 14194 C 1322.38 -0.969628 2.0768 0
M  V30 14195 C 1323.38 -1.26933 0.987148 0
M  V30 14196 O 1324.57 -1.21368 1.24962 0
M  V30 14197 C 1321.71 -2.29312 2.52247 0
M  V30 14198 H 1322.9 -0.536342 2.95065 0
M  V30 14199 H 1320.45 -0.242543 1.54407 0
M  V30 14200 H 1321.19 -2.7732 1.6812 0
M  V30 14201 H 1320.97 -2.08878 3.31832 0
M  V30 14202 H 1322.46 -2.99221 2.91302 0
M  V30 14203 N 1322.9 -1.55308 -0.267798 0
M  V30 14204 C 1323.81 -1.91649 -1.35307 0
M  V30 14205 C 1324.83 -0.814349 -1.53767 0
M  V30 14206 O 1326 -1.11388 -1.67793 0
M  V30 14207 C 1323.07 -2.18553 -2.69138 0
M  V30 14208 C 1322.13 -3.42083 -2.5938 0
M  V30 14209 C 1321.36 -3.67695 -3.86828 0
M  V30 14210 O 1321.58 -2.95728 -4.87751 0
M  V30 14211 O 1320.52 -4.61229 -3.86718 0
M  V30 14212 H 1324.34 -2.84044 -1.07483 0
M  V30 14213 H 1321.93 -1.41921 -0.466772 0
M  V30 14214 H 1323.81 -2.3726 -3.48261 0
M  V30 14215 H 1322.49 -1.2934 -2.96737 0
M  V30 14216 H 1321.39 -3.28706 -1.78614 0
M  V30 14217 H 1322.73 -4.31532 -2.36729 0
M  V30 14218 N 1324.38 0.532545 -1.4833 0
M  V30 14219 C 1325.34 1.61955 -1.62183 0
M  V30 14220 C 1326.34 1.52982 -0.495281 0
M  V30 14221 O 1327.53 1.56698 -0.761005 0
M  V30 14222 C 1324.66 3.0157 -1.58961 0
M  V30 14223 H 1325.86 1.51013 -2.59105 0
M  V30 14224 H 1323.41 0.754405 -1.36888 0
M  V30 14225 H 1324.14 3.18021 -0.635069 0
M  V30 14226 H 1323.93 3.09491 -2.40744 0
M  V30 14227 H 1325.42 3.80604 -1.71843 0
M  V30 14228 N 1325.86 1.36875 0.78122 0
M  V30 14229 C 1326.77 1.3404 1.92537 0
M  V30 14230 C 1327.78 0.241354 1.72318 0
M  V30 14231 O 1328.96 0.475128 1.95715 0
M  V30 14232 C 1326.02 1.13708 3.27523 0
M  V30 14233 C 1325.08 2.33165 3.60462 0
M  V30 14234 C 1324.32 2.13793 4.89007 0
M  V30 14235 O 1324.54 1.11732 5.5935 0
M  V30 14236 O 1323.47 3.01762 5.20791 0
M  V30 14237 H 1327.3 2.30386 1.97879 0
M  V30 14238 H 1324.88 1.17506 0.922637 0
M  V30 14239 H 1326.77 1.0432 4.08283 0
M  V30 14240 H 1325.44 0.204306 3.23055 0
M  V30 14241 H 1324.35 2.48123 2.79974 0
M  V30 14242 H 1325.68 3.24977 3.69663 0
M  V30 14243 N 1327.33 -1.00632 1.21289 0
M  V30 14244 C 1328.56 -1.77709 1.05371 0
M  V30 14245 C 1328.97 -1.84933 -0.39956 0
M  V30 14246 O 1328.31 -1.30881 -1.28903 0
M  V30 14247 C 1328.38 -3.23206 1.5741 0
M  V30 14248 C 1328.04 -3.39563 3.05852 0
M  V30 14249 C 1329.04 -3.27952 4.03415 0
M  V30 14250 C 1326.72 -3.65048 3.4503 0
M  V30 14251 C 1328.72 -3.41587 5.38142 0
M  V30 14252 C 1326.4 -3.78325 4.7991 0
M  V30 14253 C 1327.4 -3.66601 5.76275 0
M  V30 14254 O 1327.09 -3.79458 7.08708 0
M  V30 14255 H 1326.82 -0.565369 0.370585 0
M  V30 14256 H 1329.38 -1.27483 1.6105 0
M  V30 14257 H 1327.61 -3.74562 0.96126 0
M  V30 14258 H 1329.29 -3.81953 1.37356 0
M  V30 14259 H 1330.06 -3.0819 3.74492 0
M  V30 14260 H 1325.94 -3.73256 2.70557 0
M  V30 14261 H 1329.48 -3.32353 6.13341 0
M  V30 14262 H 1325.38 -3.97591 5.08519 0
M  V30 14263 H 1326.15 -3.96413 7.161 0
M  V30 14264 N 1328.81 -1.02043 -1.20104 0
M  V30 14265 C 1329.72 -0.603724 -2.26699 0
M  V30 14266 C 1330.74 0.360558 -1.70223 0
M  V30 14267 O 1331.91 0.220552 -2.00189 0
M  V30 14268 C 1328.98 0.0475988 -3.46667 0
M  V30 14269 C 1328.04 -0.963111 -4.18357 0
M  V30 14270 C 1327.27 -0.342775 -5.32598 0
M  V30 14271 O 1327.5 0.856509 -5.63933 0
M  V30 14272 O 1326.43 -1.06141 -5.92467 0
M  V30 14273 H 1330.26 -1.49125 -2.64566 0
M  V30 14274 H 1327.84 -0.790134 -1.26796 0
M  V30 14275 H 1329.72 0.411177 -4.19389 0
M  V30 14276 H 1328.4 0.909266 -3.10667 0
M  V30 14277 H 1327.3 -1.37813 -3.47791 0
M  V30 14278 H 1328.64 -1.79487 -4.58307 0
M  V30 14279 N 1330.29 1.35952 -0.797165 0
M  V30 14280 C 1331.2 2.33726 -0.202271 0
M  V30 14281 C 1332.22 1.61415 0.649719 0
M  V30 14282 O 1333.39 1.93351 0.563686 0
M  V30 14283 C 1330.46 3.40612 0.64685 0
M  V30 14284 C 1329.52 4.28712 -0.224536 0
M  V30 14285 C 1328.75 5.30493 0.584153 0
M  V30 14286 O 1328.97 5.40599 1.81957 0
M  V30 14287 O 1327.91 6.01897 -0.0200239 0
M  V30 14288 H 1331.73 2.86383 -1.01087 0
M  V30 14289 H 1329.32 1.38557 -0.558768 0
M  V30 14290 H 1331.2 4.05944 1.1308 0
M  V30 14291 H 1329.88 2.90243 1.43321 0
M  V30 14292 H 1328.78 3.66394 -0.755415 0
M  V30 14293 H 1330.12 4.82454 -0.974603 0
M  V30 14294 N 1331.77 0.549846 1.47697 0
M  V30 14295 C 1332.72 -0.215119 2.31603 0
M  V30 14296 C 1333.71 -0.916441 1.4247 0
M  V30 14297 O 1334.92 -0.838565 1.59274 0
M  V30 14298 H 1331.29 -0.0882441 0.746805 0
M  V30 14299 H 1333.26 0.511847 2.93977 0
M  V30 14300 C 1332.01 -1.23662 3.24966 0
M  V30 14301 H 1331.33 -0.706384 3.9351 0
M  V30 14302 H 1332.77 -1.7429 3.86522 0
M  V30 14303 C 1331.23 -2.28066 2.47967 0
M  V30 14304 O 1331.76 -3.34862 2.21879 0
M  V30 14305 N 1329.97 -2.01799 2.09106 0
M  V30 14306 H 1329.52 -1.14965 2.30523 0
M  V30 14307 H 1329.47 -2.71872 1.57902 0
M  V30 14308 N 1333.25 -1.54984 0.285932 0
M  V30 14309 C 1334.19 -2.2295 -0.596822 0
M  V30 14310 C 1335.16 -1.20674 -1.14136 0
M  V30 14311 O 1336.35 -1.49249 -1.18867 0
M  V30 14312 C 1333.49 -2.9625 -1.77002 0
M  V30 14313 C 1332.6 -4.13268 -1.25831 0
M  V30 14314 C 1331.74 -4.74187 -2.39417 0
M  V30 14315 C 1330.78 -5.83377 -1.85304 0
M  V30 14316 N 1329.91 -6.38313 -2.92405 0
M  V30 14317 H 1334.75 -2.97998 -0.0106104 0
M  V30 14318 H 1332.29 -1.47099 0.00653041 0
M  V30 14319 H 1334.25 -3.36971 -2.4598 0
M  V30 14320 H 1332.88 -2.23606 -2.3281 0
M  V30 14321 H 1331.93 -3.77593 -0.461278 0
M  V30 14322 H 1333.24 -4.91979 -0.822049 0
M  V30 14323 H 1332.4 -5.17683 -3.16369 0
M  V30 14324 H 1331.13 -3.94775 -2.86364 0
M  V30 14325 H 1330.14 -5.3932 -1.06835 0
M  V30 14326 H 1331.36 -6.64664 -1.3928 0
M  V30 14327 H 1329.31 -5.61791 -3.38713 0
M  V30 14328 H 1329.23 -7.12328 -2.53228 0
M  V30 14329 H 1330.5 -6.86468 -3.69299 0
M  V30 14330 N 1334.72 -0.0133892 -1.57594 0
M  V30 14331 C 1335.97 0.667896 -1.90321 0
M  V30 14332 C 1336.29 1.74187 -0.88984 0
M  V30 14333 O 1337.49 2.47871 -1.10779 0
M  V30 14334 C 1335.95 1.23917 -3.37894 0
M  V30 14335 C 1335.56 0.199313 -4.47556 0
M  V30 14336 C 1337.3 1.89788 -3.79712 0
M  V30 14337 C 1335.21 0.781339 -5.86216 0
M  V30 14338 H 1334.14 0.253229 -0.710205 0
M  V30 14339 H 1336.79 -0.0761229 -1.83342 0
M  V30 14340 H 1335.17 2.03429 -3.39754 0
M  V30 14341 H 1336.34 -0.572196 -4.57234 0
M  V30 14342 H 1334.66 -0.359719 -4.14843 0
M  V30 14343 H 1337.26 2.34262 -4.80651 0
M  V30 14344 H 1337.6 2.73406 -3.13934 0
M  V30 14345 H 1338.13 1.16989 -3.80208 0
M  V30 14346 H 1334.87 -0.0163598 -6.55498 0
M  V30 14347 H 1334.39 1.5217 -5.80176 0
M  V30 14348 H 1336.07 1.2759 -6.34295 0
M  V30 14349 N 1336.2 1.55448 0.259558 0
M  V30 14350 C 1337.45 1.7589 0.987201 0
M  V30 14351 C 1337.76 0.574951 1.86959 0
M  V30 14352 O 1338.97 0.662091 2.63303 0
M  V30 14353 C 1337.43 3.11349 1.80526 0
M  V30 14354 C 1337.03 4.37353 0.970882 0
M  V30 14355 C 1338.78 3.41136 2.5264 0
M  V30 14356 C 1336.69 5.63847 1.7841 0
M  V30 14357 H 1335.62 0.655662 0.372321 0
M  V30 14358 H 1338.27 1.81893 0.242332 0
M  V30 14359 H 1336.65 2.9942 2.5916 0
M  V30 14360 H 1337.82 4.60237 0.227763 0
M  V30 14361 H 1336.14 4.14809 0.363669 0
M  V30 14362 H 1338.73 4.32855 3.13912 0
M  V30 14363 H 1339.08 2.61879 3.23612 0
M  V30 14364 H 1339.61 3.54224 1.81026 0
M  V30 14365 H 1336.35 6.4589 1.11834 0
M  V30 14366 H 1335.87 5.45086 2.50283 0
M  V30 14367 H 1337.55 6.02641 2.35441 0
M  V30 14368 N 1337.68 -0.524672 1.4861 0
M  V30 14369 C 1338.61 -1.63782 1.66426 0
M  V30 14370 C 1339.59 -1.62177 0.513077 0
M  V30 14371 O 1340.78 -1.7929 0.74623 0
M  V30 14372 C 1337.91 -3.02354 1.70877 0
M  V30 14373 C 1336.86 -3.18819 2.85549 0
M  V30 14374 C 1336.19 -4.58506 2.75094 0
M  V30 14375 C 1337.49 -3.01086 4.26784 0
M  V30 14376 H 1339.18 -1.49127 2.59618 0
M  V30 14377 H 1336.73 -0.715997 1.24938 0
M  V30 14378 H 1338.68 -3.80105 1.81929 0
M  V30 14379 H 1337.4 -3.18044 0.742682 0
M  V30 14380 H 1336.06 -2.43487 2.74061 0
M  V30 14381 H 1335.71 -4.71038 1.76443 0
M  V30 14382 H 1335.41 -4.70466 3.52044 0
M  V30 14383 H 1336.93 -5.38348 2.88121 0
M  V30 14384 H 1338.35 -3.68624 4.39077 0
M  V30 14385 H 1336.75 -3.24536 5.04774 0
M  V30 14386 H 1337.82 -1.97454 4.42877 0
M  V30 14387 N 1339.16 -1.37287 -0.77395 0
M  V30 14388 C 1340.38 -1.35734 -1.56815 0
M  V30 14389 C 1340.81 0.0555546 -1.88018 0
M  V30 14390 O 1340.17 1.03197 -1.49064 0
M  V30 14391 C 1340.21 -2.2008 -2.85652 0
M  V30 14392 O 1339.32 -1.60391 -3.79932 0
M  V30 14393 H 1338.66 -0.463881 -0.47509 0
M  V30 14394 H 1341.19 -1.80781 -0.958087 0
M  V30 14395 H 1341.2 -2.33215 -3.34776 0
M  V30 14396 H 1339.87 -3.22781 -2.6227 0
M  V30 14397 H 1338.45 -1.56285 -3.3857 0
M  V30 14398 N 1340.64 0.999871 -1.21821 0
M  V30 14399 C 1341.57 2.09044 -0.939852 0
M  V30 14400 C 1342.58 1.62609 0.0788987 0
M  V30 14401 O 1343.77 1.77832 -0.154241 0
M  V30 14402 C 1340.87 3.36641 -0.390618 0
M  V30 14403 C 1340.04 4.12139 -1.46493 0
M  V30 14404 C 1339.1 5.18023 -0.924019 0
M  V30 14405 O 1338.13 5.45996 -1.60864 0
M  V30 14406 N 1339.33 5.79926 0.258136 0
M  V30 14407 H 1342.1 2.33506 -1.8787 0
M  V30 14408 H 1339.66 1.16509 -1.12415 0
M  V30 14409 H 1341.65 4.04697 -0.0142349 0
M  V30 14410 H 1340.22 3.09298 0.453176 0
M  V30 14411 H 1339.44 3.38813 -2.01494 0
M  V30 14412 H 1340.73 4.59354 -2.18795 0
M  V30 14413 H 1340.12 5.59559 0.831288 0
M  V30 14414 H 1338.68 6.4925 0.575977 0
M  V30 14415 N 1342.11 1.02678 1.19562 0
M  V30 14416 C 1343.02 0.615738 2.26375 0
M  V30 14417 C 1344.04 -0.351525 1.70412 0
M  V30 14418 O 1345.22 -0.209932 2.00303 0
M  V30 14419 C 1342.28 -0.0292135 3.46688 0
M  V30 14420 C 1341.34 0.985284 4.1784 0
M  V30 14421 C 1340.58 0.371016 5.32409 0
M  V30 14422 O 1340.8 -0.826591 5.64379 0
M  V30 14423 O 1339.73 1.09282 5.91896 0
M  V30 14424 H 1343.56 1.50526 2.63772 0
M  V30 14425 H 1341.14 0.796847 1.26375 0
M  V30 14426 H 1343.03 -0.38893 4.19601 0
M  V30 14427 H 1341.7 -0.892778 3.11145 0
M  V30 14428 H 1340.61 1.39655 3.47055 0
M  V30 14429 H 1341.94 1.81915 4.57349 0
M  V30 14430 N 1343.59 -1.35528 0.804364 0
M  V30 14431 C 1344.52 -2.28562 0.170893 0
M  V30 14432 C 1345.54 -1.50178 -0.628526 0
M  V30 14433 O 1346.73 -1.72438 -0.461252 0
M  V30 14434 C 1343.83 -3.29792 -0.780434 0
M  V30 14435 C 1343 -4.37391 -0.0278619 0
M  V30 14436 C 1342.06 -5.18492 -0.897341 0
M  V30 14437 O 1341.08 -5.68128 -0.349098 0
M  V30 14438 N 1342.29 -5.36385 -2.21971 0
M  V30 14439 H 1345.05 -2.83565 0.970108 0
M  V30 14440 H 1342.61 -1.47854 0.659617 0
M  V30 14441 H 1344.6 -3.80939 -1.36628 0
M  V30 14442 H 1343.17 -2.7532 -1.48046 0
M  V30 14443 H 1342.39 -3.87208 0.739178 0
M  V30 14444 H 1343.68 -5.06426 0.490889 0
M  V30 14445 H 1343.08 -4.97699 -2.6891 0
M  V30 14446 H 1341.64 -5.90721 -2.75485 0
M  V30 14447 N 1345.07 -0.557671 -1.47404 0
M  V30 14448 C 1345.98 0.19289 -2.33806 0
M  V30 14449 C 1347 0.911424 -1.4822 0
M  V30 14450 O 1348.17 0.880214 -1.81147 0
M  V30 14451 C 1345.24 1.20937 -3.24923 0
M  V30 14452 C 1344.3 0.498209 -4.26399 0
M  V30 14453 C 1343.53 1.46626 -5.13163 0
M  V30 14454 O 1343.76 2.70111 -5.0239 0
M  V30 14455 O 1342.69 0.990497 -5.93694 0
M  V30 14456 H 1346.52 -0.515861 -2.99287 0
M  V30 14457 H 1344.1 -0.318283 -1.4597 0
M  V30 14458 H 1345.98 1.7961 -3.81206 0
M  V30 14459 H 1344.66 1.90003 -2.6207 0
M  V30 14460 H 1343.56 -0.129736 -3.73875 0
M  V30 14461 H 1344.9 -0.151015 -4.91968 0
M  V30 14462 N 1346.55 1.54831 -0.294147 0
M  V30 14463 C 1347.8 1.99606 0.316509 0
M  V30 14464 C 1348.12 1.18405 1.54936 0
M  V30 14465 O 1347.39 0.278289 1.93913 0
M  V30 14466 H 1345.97 0.737309 0.119938 0
M  V30 14467 H 1348.63 1.90669 -0.403891 0
M  V30 14468 H 1347.73 3.06409 0.593282 0
M  V30 14469 N 1348.03 0.0217466 1.57585 0
M  V30 14470 C 1349.27 -0.662733 1.93358 0
M  V30 14471 C 1349.63 -1.69715 0.897829 0
M  V30 14472 O 1350.83 -2.43358 1.14151 0
M  V30 14473 C 1349.1 -1.26973 3.34085 0
M  V30 14474 S 1350.66 -1.97631 3.91775 0
M  V30 14475 H 1347.48 -0.218386 0.67663 0
M  V30 14476 H 1350.08 0.0836466 1.95321 0
M  V30 14477 H 1348.79 -0.504339 4.07289 0
M  V30 14478 H 1348.32 -2.05357 3.35547 0
M  V30 14479 H 1350.33 -3.25393 3.74612 0
M  V30 14480 N 1349.51 -1.55583 -0.251311 0
M  V30 14481 C 1350.74 -1.80996 -0.99619 0
M  V30 14482 C 1351.14 -0.594534 -1.79616 0
M  V30 14483 O 1350.49 0.446197 -1.78199 0
M  V30 14484 C 1350.55 -2.99691 -1.98559 0
M  V30 14485 C 1350.21 -4.35888 -1.37297 0
M  V30 14486 C 1351.21 -5.14051 -0.777672 0
M  V30 14487 C 1348.89 -4.82579 -1.39366 0
M  V30 14488 C 1350.89 -6.3705 -0.211225 0
M  V30 14489 C 1348.58 -6.05528 -0.823357 0
M  V30 14490 C 1349.57 -6.82602 -0.233163 0
M  V30 14491 O 1349.26 -8.03229 0.328345 0
M  V30 14492 H 1348.99 -0.606287 -0.298985 0
M  V30 14493 H 1351.55 -2.03471 -0.280813 0
M  V30 14494 H 1349.78 -2.7296 -2.73915 0
M  V30 14495 H 1351.47 -3.12235 -2.59354 0
M  V30 14496 H 1352.23 -4.791 -0.754228 0
M  V30 14497 H 1348.11 -4.22582 -1.84243 0
M  V30 14498 H 1351.66 -6.97152 0.250073 0
M  V30 14499 H 1347.55 -6.39957 -0.844114 0
M  V30 14500 H 1348.32 -8.18205 0.219785 0
M  V30 14501 N 1350.98 0.516783 -1.48886 0
M  V30 14502 C 1352.21 1.2944 -1.61024 0
M  V30 14503 C 1352.62 1.87195 -0.274705 0
M  V30 14504 O 1351.96 1.67787 0.747868 0
M  V30 14505 C 1352.03 2.4743 -2.60804 0
M  V30 14506 C 1351.69 2.10663 -4.05549 0
M  V30 14507 C 1352.69 1.65559 -4.92835 0
M  V30 14508 C 1350.37 2.20782 -4.51177 0
M  V30 14509 C 1352.37 1.31057 -6.23781 0
M  V30 14510 C 1350.05 1.85891 -5.82141 0
M  V30 14511 C 1351.05 1.41101 -6.68266 0
M  V30 14512 O 1350.74 1.06674 -7.96791 0
M  V30 14513 H 1350.47 0.399402 -0.545394 0
M  V30 14514 H 1353.03 0.628719 -1.95541 0
M  V30 14515 H 1351.26 3.17023 -2.21435 0
M  V30 14516 H 1352.94 3.09478 -2.62637 0
M  V30 14517 H 1353.71 1.57201 -4.58817 0
M  V30 14518 H 1349.59 2.54598 -3.84319 0
M  V30 14519 H 1353.13 0.960245 -6.9096 0
M  V30 14520 H 1349.03 1.93894 -6.15691 0
M  V30 14521 H 1349.8 1.19958 -8.09662 0
M  V30 14522 N 1352.46 1.37696 0.766659 0
M  V30 14523 C 1353.39 1.2975 1.88938 0
M  V30 14524 C 1354.41 0.212278 1.6141 0
M  V30 14525 O 1355.6 0.468825 1.72233 0
M  V30 14526 C 1352.7 0.984553 3.24283 0
M  V30 14527 C 1351.87 2.17625 3.79418 0
M  V30 14528 C 1350.93 1.83279 4.9325 0
M  V30 14529 O 1349.95 2.55631 5.08568 0
M  V30 14530 N 1351.16 0.779941 5.75237 0
M  V30 14531 H 1353.92 2.26492 1.96269 0
M  V30 14532 H 1351.48 1.31387 0.946001 0
M  V30 14533 H 1353.47 0.735536 3.9796 0
M  V30 14534 H 1352.04 0.105527 3.12422 0
M  V30 14535 H 1351.26 2.58672 2.9746 0
M  V30 14536 H 1352.55 2.97187 4.12986 0
M  V30 14537 H 1351.95 0.179661 5.65415 0
M  V30 14538 H 1350.51 0.59079 6.49117 0
M  V30 14539 N 1353.94 -0.993397 1.22349 0
M  V30 14540 C 1354.85 -2.11771 1.00947 0
M  V30 14541 C 1355.87 -1.73949 -0.0420679 0
M  V30 14542 O 1357.04 -2.00837 0.150548 0
M  V30 14543 C 1354.11 -3.41654 0.589359 0
M  V30 14544 C 1353.17 -3.93579 1.71446 0
M  V30 14545 C 1352.4 -5.17264 1.3143 0
M  V30 14546 O 1352.62 -5.70074 0.192876 0
M  V30 14547 O 1351.56 -5.62929 2.13059 0
M  V30 14548 H 1355.38 -2.32708 1.95142 0
M  V30 14549 H 1352.97 -1.10144 1.00939 0
M  V30 14550 H 1354.85 -4.19813 0.365403 0
M  V30 14551 H 1353.53 -3.22077 -0.323738 0
M  V30 14552 H 1352.43 -3.16596 1.99294 0
M  V30 14553 H 1353.77 -4.17588 2.6054 0
M  V30 14554 N 1355.42 -1.03311 -1.19015 0
M  V30 14555 C 1356.64 -0.751686 -1.93299 0
M  V30 14556 C 1357.07 0.68392 -1.75226 0
M  V30 14557 O 1356.43 1.47274 -1.05736 0
M  V30 14558 C 1356.47 -1.11335 -3.42982 0
M  V30 14559 O 1355.58 -0.234434 -4.11733 0
M  V30 14560 H 1354.92 -0.277331 -0.60331 0
M  V30 14561 H 1357.45 -1.38092 -1.5097 0
M  V30 14562 H 1357.46 -1.07204 -3.93664 0
M  V30 14563 H 1356.13 -2.15922 -3.55458 0
M  V30 14564 H 1354.71 -0.3347 -3.71395 0
M  V30 14565 N 1356.9 1.35099 -0.81154 0
M  V30 14566 C 1357.84 2.29717 -0.223372 0
M  V30 14567 C 1358.81 1.53049 0.645396 0
M  V30 14568 O 1360 1.81467 0.589436 0
M  V30 14569 C 1357.14 3.3952 0.618057 0
M  V30 14570 C 1356.25 4.31145 -0.271693 0
M  V30 14571 C 1355.39 5.28044 0.578214 0
M  V30 14572 C 1354.42 6.11306 -0.311628 0
M  V30 14573 N 1353.56 7.00328 0.498539 0
M  V30 14574 H 1358.4 2.79426 -1.03563 0
M  V30 14575 H 1355.94 1.37518 -0.522231 0
M  V30 14576 H 1357.9 4.01854 1.12111 0
M  V30 14577 H 1356.53 2.91075 1.39554 0
M  V30 14578 H 1355.58 3.69773 -0.892885 0
M  V30 14579 H 1356.89 4.89545 -0.956392 0
M  V30 14580 H 1356.04 5.95774 1.1462 0
M  V30 14581 H 1354.78 4.70152 1.29646 0
M  V30 14582 H 1353.79 5.42518 -0.891849 0
M  V30 14583 H 1355.01 6.71277 -1.02781 0
M  V30 14584 H 1352.96 6.44919 1.20067 0
M  V30 14585 H 1352.88 7.55892 -0.12801 0
M  V30 14586 H 1354.14 7.72401 1.04965 0
M  V30 14587 N 1358.37 0.56548 1.47106 0
M  V30 14588 C 1359.78 0.134289 1.86216 0
M  V30 14589 C 1360.14 -1.29815 1.47114 0
M  V30 14590 O 1359.26 -1.97787 0.878017 0
M  V30 14591 C 1359.86 0.236931 3.37971 0
M  V30 14592 C 1358.41 -0.139275 3.76142 0
M  V30 14593 C 1357.56 0.580743 2.71151 0
M  V30 14594 H 1360.51 0.774723 1.38505 0
M  V30 14595 H 1360.53 -0.542301 3.76616 0
M  V30 14596 H 1360.05 1.27958 3.66399 0
M  V30 14597 H 1358.15 -1.18272 3.53331 0
M  V30 14598 H 1358.26 0.225045 4.78571 0
M  V30 14599 H 1356.62 0.0228963 2.5469 0
M  V30 14600 H 1357.41 1.62471 3.0242 0
M  V30 14601 N 1359.85 -1.54672 0.302354 0
M  V30 14602 C 1360.78 -2.2653 -0.566265 0
M  V30 14603 C 1361.76 -1.26532 -1.13682 0
M  V30 14604 O 1362.95 -1.55307 -1.1659 0
M  V30 14605 C 1360.08 -3.00709 -1.73757 0
M  V30 14606 C 1359.03 -4.07865 -1.29731 0
M  V30 14607 C 1358.36 -4.69767 -2.55388 0
M  V30 14608 C 1359.66 -5.20547 -0.427567 0
M  V30 14609 H 1361.35 -2.99382 0.033071 0
M  V30 14610 H 1358.9 -1.4399 0.0173458 0
M  V30 14611 H 1360.85 -3.497 -2.35134 0
M  V30 14612 H 1359.58 -2.25437 -2.36317 0
M  V30 14613 H 1358.23 -3.59726 -0.706586 0
M  V30 14614 H 1357.88 -3.91134 -3.16265 0
M  V30 14615 H 1357.58 -5.42137 -2.26631 0
M  V30 14616 H 1359.11 -5.21521 -3.17566 0
M  V30 14617 H 1360.52 -5.65424 -0.947053 0
M  V30 14618 H 1358.92 -5.99645 -0.233704 0
M  V30 14619 H 1359.99 -4.81805 0.546993 0
M  V30 14620 N 1361.33 -0.0301034 -1.57571 0
M  V30 14621 C 1362.24 0.967086 -2.1374 0
M  V30 14622 C 1363.26 1.35636 -1.0899 0
M  V30 14623 O 1364.43 1.43758 -1.41052 0
M  V30 14624 C 1361.5 2.23058 -2.65417 0
M  V30 14625 C 1360.56 1.90163 -3.84885 0
M  V30 14626 C 1359.79 3.10488 -4.34088 0
M  V30 14627 O 1360.01 4.23179 -3.8246 0
M  V30 14628 O 1358.95 2.92729 -5.25921 0
M  V30 14629 H 1362.77 0.519486 -2.99224 0
M  V30 14630 H 1360.36 0.190559 -1.4818 0
M  V30 14631 H 1362.24 2.97229 -2.98719 0
M  V30 14632 H 1360.92 2.66997 -1.83015 0
M  V30 14633 H 1359.82 1.13373 -3.56507 0
M  V30 14634 H 1361.16 1.51039 -4.68453 0
M  V30 14635 N 1362.81 1.55714 0.243056 0
M  V30 14636 C 1363.77 1.89832 1.28438 0
M  V30 14637 C 1364.77 0.775083 1.40887 0
M  V30 14638 O 1365.96 1.04304 1.39521 0
M  V30 14639 C 1363.09 2.13016 2.66153 0
M  V30 14640 H 1364.29 2.82947 0.994022 0
M  V30 14641 H 1361.84 1.48665 0.482521 0
M  V30 14642 H 1362.57 1.22381 3.00322 0
M  V30 14643 H 1362.36 2.94824 2.58498 0
M  V30 14644 H 1363.85 2.40581 3.41336 0
M  V30 14645 N 1364.29 -0.50888 1.49158 0
M  V30 14646 C 1365.51 -1.28771 1.61943 0
M  V30 14647 C 1365.93 -1.86594 0.287759 0
M  V30 14648 O 1365.29 -1.67448 -0.725769 0
M  V30 14649 C 1365.34 -2.4236 2.68224 0
M  V30 14650 O 1365.06 -1.86915 3.96225 0
M  V30 14651 C 1366.56 -3.33856 2.91642 0
M  V30 14652 H 1363.78 -0.390849 0.545416 0
M  V30 14653 H 1366.32 -0.611729 1.95136 0
M  V30 14654 H 1364.48 -3.05803 2.37831 0
M  V30 14655 H 1364.89 -2.61426 4.54705 0
M  V30 14656 H 1366.37 -4.09856 3.69759 0
M  V30 14657 H 1366.84 -3.90374 2.01258 0
M  V30 14658 H 1367.45 -2.76187 3.23421 0
M  V30 14659 N 1365.76 -1.381 -0.759346 0
M  V30 14660 C 1367.01 -1.3419 -1.52055 0
M  V30 14661 C 1367.34 0.0697657 -1.94075 0
M  V30 14662 O 1366.62 1.02975 -1.65004 0
M  V30 14663 C 1366.9 -2.29236 -2.7771 0
M  V30 14664 C 1366.75 -3.79237 -2.41866 0
M  V30 14665 C 1368.07 -2.22511 -3.79706 0
M  V30 14666 H 1365.19 -0.488768 -0.551611 0
M  V30 14667 H 1367.83 -1.68902 -0.870174 0
M  V30 14668 H 1365.98 -1.99764 -3.33206 0
M  V30 14669 H 1367.66 -4.19358 -1.92189 0
M  V30 14670 H 1365.9 -3.97199 -1.74399 0
M  V30 14671 H 1366.57 -4.41193 -3.31742 0
M  V30 14672 H 1369.05 -2.48516 -3.33735 0
M  V30 14673 H 1367.92 -2.91134 -4.6533 0
M  V30 14674 H 1368.18 -1.22206 -4.24874 0
M  V30 14675 N 1367.24 0.986894 -1.22875 0
M  V30 14676 C 1368.49 1.72152 -1.05103 0
M  V30 14677 C 1368.8 1.91185 0.413248 0
M  V30 14678 O 1370.01 2.62031 0.710759 0
M  V30 14679 C 1368.47 3.09771 -1.8322 0
M  V30 14680 C 1368.07 2.98648 -3.33936 0
M  V30 14681 C 1369.82 3.87238 -1.73917 0
M  V30 14682 C 1367.73 4.31459 -4.04471 0
M  V30 14683 H 1366.66 0.645498 -0.389677 0
M  V30 14684 H 1369.31 1.10125 -1.46781 0
M  V30 14685 H 1367.69 3.72515 -1.34345 0
M  V30 14686 H 1368.86 2.45033 -3.9025 0
M  V30 14687 H 1367.18 2.34661 -3.43982 0
M  V30 14688 H 1369.77 4.85549 -2.23933 0
M  V30 14689 H 1370.12 4.1036 -0.700711 0
M  V30 14690 H 1370.65 3.31183 -2.20369 0
M  V30 14691 H 1367.39 4.13534 -5.08596 0
M  V30 14692 H 1366.91 4.84964 -3.52944 0
M  V30 14693 H 1368.59 5.00179 -4.10403 0
M  V30 14694 N 1368.72 1.0394 1.18466 0
M  V30 14695 C 1369.67 0.629352 2.22054 0
M  V30 14696 C 1370.64 -0.362187 1.62103 0
M  V30 14697 O 1371.82 -0.256457 1.89069 0
M  V30 14698 C 1368.96 -0.00282888 3.451 0
M  V30 14699 C 1368.08 1.03602 4.19393 0
M  V30 14700 C 1367.21 0.372492 5.29892 0
M  V30 14701 C 1366.25 1.39652 5.95956 0
M  V30 14702 N 1365.39 0.758053 6.97996 0
M  V30 14703 H 1370.23 1.51722 2.56485 0
M  V30 14704 H 1367.76 0.759043 1.26004 0
M  V30 14705 H 1369.72 -0.386688 4.15404 0
M  V30 14706 H 1368.35 -0.854224 3.11292 0
M  V30 14707 H 1367.4 1.53784 3.47929 0
M  V30 14708 H 1368.72 1.81387 4.64651 0
M  V30 14709 H 1367.87 -0.065642 6.06664 0
M  V30 14710 H 1366.61 -0.437462 4.85734 0
M  V30 14711 H 1365.61 1.84481 5.17926 0
M  V30 14712 H 1366.84 2.20816 6.42197 0
M  V30 14713 H 1364.78 -0.0316173 6.55992 0
M  V30 14714 H 1364.7 1.47363 7.41499 0
M  V30 14715 H 1365.97 0.344273 7.78739 0
M  V30 14716 N 1370.2 -1.34667 0.818693 0
M  V30 14717 C 1371.42 -2.03173 0.416585 0
M  V30 14718 C 1371.85 -1.61261 -0.968321 0
M  V30 14719 O 1371.21 -0.79517 -1.62932 0
M  V30 14720 C 1371.25 -3.56803 0.521884 0
M  V30 14721 O 1370.36 -4.09827 -0.459953 0
M  V30 14722 H 1369.7 -0.6413 0.172136 0
M  V30 14723 H 1372.23 -1.72006 1.10794 0
M  V30 14724 H 1372.24 -4.06073 0.3961 0
M  V30 14725 H 1370.91 -3.86656 1.53198 0
M  V30 14726 H 1369.49 -3.71744 -0.293405 0
M  V30 14727 N 1371.68 -0.573274 -1.46804 0
M  V30 14728 C 1372.61 0.20305 -2.28299 0
M  V30 14729 C 1373.62 0.864367 -1.37958 0
M  V30 14730 O 1374.81 0.735516 -1.62642 0
M  V30 14731 C 1371.91 1.30633 -3.12711 0
M  V30 14732 C 1371.08 0.738741 -4.31116 0
M  V30 14733 C 1370.14 1.72853 -4.96999 0
M  V30 14734 O 1369.17 1.2683 -5.5489 0
M  V30 14735 N 1370.37 3.06239 -4.93151 0
M  V30 14736 H 1373.14 -0.496086 -2.95566 0
M  V30 14737 H 1370.7 -0.410411 -1.56612 0
M  V30 14738 H 1372.69 1.96755 -3.53652 0
M  V30 14739 H 1371.26 1.90846 -2.47581 0
M  V30 14740 H 1370.48 -0.0996941 -3.94074 0
M  V30 14741 H 1371.77 0.339154 -5.07668 0
M  V30 14742 H 1371.16 3.46262 -4.47347 0
M  V30 14743 H 1369.72 3.67876 -5.38062 0
M  V30 14744 N 1373.15 1.5451 -0.310553 0
M  V30 14745 C 1374.43 1.92452 0.34951 0
M  V30 14746 C 1374.81 1.23881 1.70929 0
M  V30 14747 O 1374.16 0.377898 2.25353 0
M  V30 14748 C 1374.37 3.46026 0.454675 0
M  V30 14749 C 1375.72 4.18432 0.721071 0
M  V30 14750 O 1376.74 3.52112 0.538112 0
M  V30 14751 O 1375.6 5.3586 1.07314 0
M  V30 14752 H 1372.69 0.803168 0.197103 0
M  V30 14753 H 1375.24 1.65852 -0.359313 0
M  V30 14754 H 1374.01 3.88081 -0.500853 0
M  V30 14755 H 1373.64 3.7869 1.21159 0
M  V30 14756 N 1374.63 0.0384594 1.57553 0
M  V30 14757 C 1375.58 -0.958199 2.11946 0
M  V30 14758 C 1376.58 -1.33073 1.04823 0
M  V30 14759 O 1377.78 -1.31187 1.23247 0
M  V30 14760 H 1374.16 -0.326819 0.677269 0
M  V30 14761 H 1376.13 -0.474211 2.94608 0
M  V30 14762 C 1374.88 -2.22821 2.6692 0
M  V30 14763 H 1374.2 -1.95032 3.49002 0
M  V30 14764 H 1375.64 -2.90746 3.08614 0
M  V30 14765 C 1374.1 -2.96429 1.60098 0
M  V30 14766 O 1374.63 -3.88892 1.00628 0
M  V30 14767 N 1372.83 -2.58931 1.3192 0
M  V30 14768 H 1372.38 -1.83818 1.80468 0
M  V30 14769 H 1372.34 -3.0849 0.60674 0
M  V30 14770 N 1376.11 -1.55841 -0.234795 0
M  V30 14771 C 1377.04 -1.87793 -1.31402 0
M  V30 14772 C 1378.06 -0.765113 -1.43701 0
M  V30 14773 O 1379.25 -1.04332 -1.44834 0
M  V30 14774 C 1376.35 -2.05976 -2.69123 0
M  V30 14775 C 1375.52 -3.36914 -2.7894 0
M  V30 14776 C 1374.58 -3.44691 -3.97586 0
M  V30 14777 O 1373.6 -4.17818 -3.86545 0
M  V30 14778 N 1374.81 -2.74866 -5.11301 0
M  V30 14779 H 1377.57 -2.80957 -1.04324 0
M  V30 14780 H 1375.13 -1.56226 -0.424872 0
M  V30 14781 H 1377.12 -2.08507 -3.46853 0
M  V30 14782 H 1375.69 -1.195 -2.88857 0
M  V30 14783 H 1374.91 -3.46595 -1.87791 0
M  V30 14784 H 1376.2 -4.23196 -2.82458 0
M  V30 14785 H 1375.6 -2.15208 -5.23165 0
M  V30 14786 H 1374.16 -2.83075 -5.87122 0
M  V30 14787 N 1377.59 0.500963 -1.49426 0
M  V30 14788 C 1378.84 1.25427 -1.60124 0
M  V30 14789 C 1379.19 1.90288 -0.284312 0
M  V30 14790 O 1378.48 1.77741 0.715459 0
M  V30 14791 C 1378.68 2.34448 -2.69757 0
M  V30 14792 C 1378.51 1.80278 -4.11983 0
M  V30 14793 C 1377.28 1.61577 -4.7877 0
M  V30 14794 C 1379.47 1.31462 -4.97215 0
M  V30 14795 N 1377.46 1.02337 -6.0531 0
M  V30 14796 C 1378.83 0.843562 -6.14235 0
M  V30 14797 C 1380.88 1.20035 -4.83214 0
M  V30 14798 C 1379.59 0.269543 -7.18795 0
M  V30 14799 C 1381.61 0.640304 -5.87924 0
M  V30 14800 C 1380.97 0.179474 -7.04171 0
M  V30 14801 H 1377.07 0.448932 -0.6403 0
M  V30 14802 H 1379.66 0.561377 -1.86431 0
M  V30 14803 H 1377.83 3.01198 -2.45223 0
M  V30 14804 H 1379.56 3.01487 -2.69977 0
M  V30 14805 H 1376.31 1.85946 -4.3557 0
M  V30 14806 H 1376.74 0.746441 -6.72872 0
M  V30 14807 H 1381.38 1.54263 -3.93653 0
M  V30 14808 H 1379.1 -0.0849963 -8.08055 0
M  V30 14809 H 1382.68 0.554669 -5.7915 0
M  V30 14810 H 1381.56 -0.247125 -7.83811 0
M  V30 14811 N 1379.07 1.38501 0.752011 0
M  V30 14812 C 1380.29 1.38212 1.54636 0
M  V30 14813 C 1380.72 -0.0256356 1.88083 0
M  V30 14814 O 1380.08 -1.00812 1.50687 0
M  V30 14815 C 1380.12 2.24597 2.82114 0
M  V30 14816 O 1379.23 1.66415 3.77332 0
M  V30 14817 H 1378.57 0.47138 0.46765 0
M  V30 14818 H 1381.1 1.82283 0.929205 0
M  V30 14819 H 1381.11 2.38511 3.31023 0
M  V30 14820 H 1379.78 3.26913 2.57101 0
M  V30 14821 H 1378.36 1.61651 3.36041 0
M  V30 14822 N 1380.55 -0.980364 1.23396 0
M  V30 14823 C 1381.78 -1.75434 1.09117 0
M  V30 14824 C 1382.18 -1.85739 -0.360243 0
M  V30 14825 O 1381.53 -1.33585 -1.26098 0
M  V30 14826 C 1381.59 -3.19795 1.6423 0
M  V30 14827 C 1381.25 -3.32999 3.12986 0
M  V30 14828 C 1382.25 -3.19321 4.1028 0
M  V30 14829 C 1379.93 -3.57647 3.52695 0
M  V30 14830 C 1381.93 -3.30096 5.45266 0
M  V30 14831 C 1379.62 -3.68061 4.87826 0
M  V30 14832 C 1380.61 -3.54295 5.83921 0
M  V30 14833 O 1380.3 -3.6434 7.16597 0
M  V30 14834 H 1380.03 -0.557382 0.382494 0
M  V30 14835 H 1382.59 -1.24038 1.63718 0
M  V30 14836 H 1380.82 -3.72439 1.04049 0
M  V30 14837 H 1382.51 -3.78954 1.45427 0
M  V30 14838 H 1383.27 -3.00177 3.80945 0
M  V30 14839 H 1379.15 -3.67433 2.78413 0
M  V30 14840 H 1382.7 -3.19268 6.20253 0
M  V30 14841 H 1378.59 -3.86715 5.16838 0
M  V30 14842 H 1379.36 -3.81135 7.24347 0
M  V30 14843 N 1382.02 -1.04567 -1.17913 0
M  V30 14844 C 1382.97 -0.641119 -2.21717 0
M  V30 14845 C 1383.94 0.353585 -1.62293 0
M  V30 14846 O 1385.13 0.246427 -1.89202 0
M  V30 14847 C 1382.27 -0.0154726 -3.45097 0
M  V30 14848 C 1381.38 -1.05825 -4.18838 0
M  V30 14849 C 1380.51 -0.400588 -5.29687 0
M  V30 14850 C 1379.55 -1.42811 -5.95207 0
M  V30 14851 N 1378.69 -0.795059 -6.97584 0
M  V30 14852 H 1383.53 -1.5308 -2.55676 0
M  V30 14853 H 1381.07 -0.765715 -1.25599 0
M  V30 14854 H 1383.02 0.364653 -4.15603 0
M  V30 14855 H 1381.65 0.837704 -3.11741 0
M  V30 14856 H 1380.71 -1.55627 -3.47109 0
M  V30 14857 H 1382.02 -1.83849 -4.63682 0
M  V30 14858 H 1381.17 0.0334682 -6.06691 0
M  V30 14859 H 1379.91 0.411696 -4.85959 0
M  V30 14860 H 1378.92 -1.87225 -5.1694 0
M  V30 14861 H 1380.14 -2.24218 -6.41017 0
M  V30 14862 H 1378.09 -0.00317202 -6.56 0
M  V30 14863 H 1378 -1.51293 -7.40707 0
M  V30 14864 H 1379.27 -0.385567 -7.78546 0
M  V30 14865 N 1383.5 1.34231 -0.825823 0
M  V30 14866 C 1384.75 1.97454 -0.411661 0
M  V30 14867 C 1385.06 1.66193 1.03147 0
M  V30 14868 O 1386.27 2.22929 1.54968 0
M  V30 14869 C 1384.73 3.53318 -0.685145 0
M  V30 14870 C 1384.33 3.9347 -2.14208 0
M  V30 14871 C 1386.08 4.23158 -0.337291 0
M  V30 14872 C 1383.98 5.42258 -2.3603 0
M  V30 14873 H 1382.91 0.738889 -0.150196 0
M  V30 14874 H 1385.57 1.53033 -1.01258 0
M  V30 14875 H 1383.95 3.95998 -0.0140178 0
M  V30 14876 H 1385.12 3.61888 -2.85261 0
M  V30 14877 H 1383.44 3.36575 -2.45165 0
M  V30 14878 H 1386.03 5.32558 -0.47813 0
M  V30 14879 H 1386.38 4.10053 0.718499 0
M  V30 14880 H 1386.91 3.85965 -0.963113 0
M  V30 14881 H 1383.65 5.60352 -3.40126 0
M  V30 14882 H 1383.17 5.75345 -1.69524 0
M  V30 14883 H 1384.85 6.08976 -2.18533 0
M  V30 14884 N 1384.98 0.581051 1.46498 0
M  V30 14885 C 1385.93 -0.174031 2.27335 0
M  V30 14886 C 1386.91 -0.863391 1.35773 0
M  V30 14887 O 1388.11 -0.75776 1.59959 0
M  V30 14888 C 1385.23 -1.18814 3.22084 0
M  V30 14889 C 1384.32 -0.500978 4.21131 0
M  V30 14890 N 1384.71 0.442495 5.03861 0
M  V30 14891 C 1383.01 -0.751932 4.39616 0
M  V30 14892 C 1383.71 0.843944 5.75545 0
M  V30 14893 N 1382.69 0.19346 5.43256 0
M  V30 14894 H 1386.49 0.551004 2.88689 0
M  V30 14895 H 1384 0.402722 1.57327 0
M  V30 14896 H 1386 -1.74325 3.78703 0
M  V30 14897 H 1384.66 -1.91401 2.62289 0
M  V30 14898 H 1385.67 0.817931 5.114 0
M  V30 14899 H 1382.35 -1.46451 3.90971 0
M  V30 14900 H 1383.74 1.62058 6.52063 0
M  V30 14901 N 1386.46 -1.54343 0.318742 0
M  V30 14902 C 1387.39 -2.21652 -0.583351 0
M  V30 14903 C 1388.4 -1.21494 -1.08366 0
M  V30 14904 O 1389.59 -1.4799 -0.998064 0
M  V30 14905 C 1386.69 -2.86349 -1.81266 0
M  V30 14906 C 1385.86 -4.12601 -1.45186 0
M  V30 14907 C 1384.92 -4.60937 -2.53818 0
M  V30 14908 O 1383.95 -5.25731 -2.18164 0
M  V30 14909 N 1385.15 -4.34755 -3.84667 0
M  V30 14910 H 1387.92 -2.99699 -0.00703539 0
M  V30 14911 H 1385.48 -1.61278 0.141728 0
M  V30 14912 H 1387.47 -3.15611 -2.53321 0
M  V30 14913 H 1386.04 -2.12037 -2.29693 0
M  V30 14914 H 1385.26 -3.90157 -0.563143 0
M  V30 14915 H 1386.55 -4.94774 -1.18642 0
M  V30 14916 H 1385.95 -3.82883 -4.16434 0
M  V30 14917 H 1384.5 -4.68683 -4.52967 0
M  V30 14918 N 1387.94 -0.0468143 -1.5753 0
M  V30 14919 C 1388.85 0.944362 -2.14753 0
M  V30 14920 C 1389.86 1.34473 -1.10422 0
M  V30 14921 O 1391.04 1.42254 -1.42569 0
M  V30 14922 C 1388.1 2.2023 -2.67768 0
M  V30 14923 C 1387.16 1.8607 -3.8688 0
M  V30 14924 C 1386.4 3.05867 -4.37357 0
M  V30 14925 O 1386.62 4.19099 -3.86927 0
M  V30 14926 O 1385.55 2.87134 -5.28997 0
M  V30 14927 H 1389.38 0.48772 -2.99758 0
M  V30 14928 H 1386.96 0.174831 -1.48374 0
M  V30 14929 H 1388.85 2.94044 -3.01855 0
M  V30 14930 H 1387.52 2.65041 -1.85836 0
M  V30 14931 H 1386.43 1.09586 -3.5769 0
M  V30 14932 H 1387.76 1.46062 -4.70028 0
M  V30 14933 N 1389.41 1.55964 0.226527 0
M  V30 14934 C 1390.69 1.69528 0.975689 0
M  V30 14935 C 1391.07 0.592635 2.02611 0
M  V30 14936 O 1390.42 -0.401073 2.24953 0
M  V30 14937 C 1390.63 3.10644 1.59063 0
M  V30 14938 C 1391.98 3.69895 2.08478 0
M  V30 14939 O 1393 3.13574 1.68966 0
M  V30 14940 O 1391.86 4.68672 2.81085 0
M  V30 14941 H 1388.95 0.690285 0.455451 0
M  V30 14942 H 1391.5 1.68285 0.218702 0
M  V30 14943 H 1390.27 3.82355 0.831903 0
M  V30 14944 H 1389.9 3.15984 2.41329 0
M  V30 14945 N 1390.89 -0.493031 1.4969 0
M  V30 14946 C 1391.84 -1.59367 1.66945 0
M  V30 14947 C 1392.81 -1.58049 0.510842 0
M  V30 14948 O 1393.99 -1.75915 0.738822 0
M  V30 14949 C 1391.13 -2.97472 1.74941 0
M  V30 14950 C 1390.25 -3.08745 3.02159 0
M  V30 14951 C 1389.38 -4.37632 3.01085 0
M  V30 14952 C 1388.42 -4.42567 4.22849 0
M  V30 14953 N 1387.56 -5.62892 4.19639 0
M  V30 14954 H 1392.4 -1.4396 2.6092 0
M  V30 14955 H 1389.94 -0.700297 1.29361 0
M  V30 14956 H 1391.89 -3.7753 1.77558 0
M  V30 14957 H 1390.52 -3.11564 0.844252 0
M  V30 14958 H 1389.58 -2.217 3.09117 0
M  V30 14959 H 1390.89 -3.08251 3.92151 0
M  V30 14960 H 1390.04 -5.26018 3.02309 0
M  V30 14961 H 1388.78 -4.40702 2.08885 0
M  V30 14962 H 1387.79 -3.52581 4.21861 0
M  V30 14963 H 1389.01 -4.41205 5.1625 0
M  V30 14964 H 1386.96 -5.6679 3.30281 0
M  V30 14965 H 1386.87 -5.64048 5.03374 0
M  V30 14966 H 1388.14 -6.53464 4.24977 0
M  V30 14967 N 1392.37 -1.38898 -0.744656 0
M  V30 14968 C 1393.62 -1.34909 -1.49941 0
M  V30 14969 C 1393.93 0.0553979 -1.95522 0
M  V30 14970 O 1395.14 0.21785 -2.70625 0
M  V30 14971 C 1393.59 -2.36954 -2.70889 0
M  V30 14972 C 1393.2 -3.83069 -2.32298 0
M  V30 14973 C 1394.95 -2.42024 -3.48747 0
M  V30 14974 C 1392.85 -4.76777 -3.4991 0
M  V30 14975 H 1391.78 -0.501512 -0.563029 0
M  V30 14976 H 1394.43 -1.64497 -0.813201 0
M  V30 14977 H 1392.82 -2.00421 -3.41537 0
M  V30 14978 H 1393.99 -4.28588 -1.69259 0
M  V30 14979 H 1392.31 -3.81202 -1.67554 0
M  V30 14980 H 1394.9 -3.0923 -4.36212 0
M  V30 14981 H 1395.25 -1.44184 -3.90534 0
M  V30 14982 H 1395.78 -2.774 -2.85121 0
M  V30 14983 H 1392.52 -5.75844 -3.13183 0
M  V30 14984 H 1392.04 -4.35944 -4.11962 0
M  V30 14985 H 1393.72 -4.95219 -4.16374 0
M  V30 14986 N 1393.85 0.973806 -1.23914 0
M  V30 14987 C 1394.78 2.08526 -1.05068 0
M  V30 14988 C 1395.76 1.70065 0.0344761 0
M  V30 14989 O 1396.94 1.93755 -0.131432 0
M  V30 14990 C 1394.07 3.41198 -0.648165 0
M  V30 14991 C 1393.03 3.9359 -1.6814 0
M  V30 14992 C 1392.35 5.22534 -1.13414 0
M  V30 14993 C 1393.65 4.22116 -3.07597 0
M  V30 14994 H 1395.35 2.24551 -1.98034 0
M  V30 14995 H 1392.89 1.07905 -0.953546 0
M  V30 14996 H 1394.85 4.18383 -0.50334 0
M  V30 14997 H 1393.57 3.25056 0.317182 0
M  V30 14998 H 1392.23 3.18555 -1.81434 0
M  V30 14999 H 1391.88 5.02747 -0.159578 0
M  V30 15000 H 1391.58 5.58555 -1.82456 0
M  V30 15001 H 1393.1 6.02334 -1.0013 0
M  V30 15002 H 1394.52 4.90027 -2.97567 0
M  V30 15003 H 1392.91 4.69352 -3.73937 0
M  V30 15004 H 1393.98 3.29128 -3.56094 0
M  V30 15005 N 1395.33 1.05191 1.17357 0
M  V30 15006 C 1396.27 0.652868 2.21374 0
M  V30 15007 C 1397.24 -0.344974 1.62478 0
M  V30 15008 O 1398.43 -0.23639 1.8933 0
M  V30 15009 C 1395.57 0.0337737 3.45083 0
M  V30 15010 C 1394.68 1.08045 4.18271 0
M  V30 15011 C 1393.82 0.428673 5.29468 0
M  V30 15012 C 1392.86 1.45966 5.94441 0
M  V30 15013 N 1391.99 0.832042 6.97152 0
M  V30 15014 H 1396.83 1.54434 2.54861 0
M  V30 15015 H 1394.37 0.772365 1.25192 0
M  V30 15016 H 1396.33 -0.342607 4.15791 0
M  V30 15017 H 1394.96 -0.821159 3.12181 0
M  V30 15018 H 1394.01 1.57466 3.46278 0
M  V30 15019 H 1395.32 1.86305 4.62701 0
M  V30 15020 H 1394.48 -0.00129344 6.067 0
M  V30 15021 H 1393.21 -0.385919 4.86171 0
M  V30 15022 H 1392.22 1.89964 5.1594 0
M  V30 15023 H 1393.44 2.27615 6.39819 0
M  V30 15024 H 1391.39 0.0379612 6.55989 0
M  V30 15025 H 1391.31 1.55219 7.39894 0
M  V30 15026 H 1392.58 0.42685 7.7833 0
M  V30 15027 N 1396.8 -1.33791 0.83293 0
M  V30 15028 C 1398.05 -1.98266 0.426412 0
M  V30 15029 C 1398.38 -1.65848 -1.01035 0
M  V30 15030 O 1397.66 -0.93528 -1.70537 0
M  V30 15031 C 1397.94 -3.54356 0.640586 0
M  V30 15032 C 1397.79 -3.96482 2.12419 0
M  V30 15033 C 1399.11 -4.40022 0.0829237 0
M  V30 15034 H 1396.23 -0.720213 0.156404 0
M  V30 15035 H 1398.87 -1.58527 1.04735 0
M  V30 15036 H 1397.02 -3.88338 0.11204 0
M  V30 15037 H 1398.7 -3.72786 2.71714 0
M  V30 15038 H 1396.94 -3.46429 2.61092 0
M  V30 15039 H 1397.61 -5.05179 2.22482 0
M  V30 15040 H 1400.09 -4.12651 0.534634 0
M  V30 15041 H 1398.96 -5.48272 0.262511 0
M  V30 15042 H 1399.22 -4.30341 -1.01287 0
M  V30 15043 N 1398.28 -0.588812 -1.46187 0
M  V30 15044 C 1399.53 -0.0765765 -2.01955 0
M  V30 15045 C 1399.85 1.29034 -1.46203 0
M  V30 15046 O 1399.12 1.84836 -0.649044 0
M  V30 15047 H 1397.7 -0.025318 -0.746571 0
M  V30 15048 H 1400.36 -0.765971 -1.79217 0
M  V30 15049 H 1399.46 -0.0121702 -3.12098 0
M  V30 15050 N 1399.76 1.54172 -0.326923 0
M  V30 15051 C 1400.71 2.24454 0.537501 0
M  V30 15052 C 1401.68 1.23658 1.10896 0
M  V30 15053 O 1402.86 1.52348 1.14868 0
M  V30 15054 C 1400 3.00839 1.69085 0
M  V30 15055 C 1399.12 4.16459 1.1483 0
M  V30 15056 C 1398.25 4.80368 2.26761 0
M  V30 15057 C 1397.29 5.88085 1.69771 0
M  V30 15058 N 1396.43 6.45842 2.75378 0
M  V30 15059 H 1401.27 2.97921 -0.0684022 0
M  V30 15060 H 1398.8 1.4703 -0.0455287 0
M  V30 15061 H 1400.76 3.43375 2.36959 0
M  V30 15062 H 1399.39 2.297 2.26799 0
M  V30 15063 H 1398.44 3.78683 0.361004 0
M  V30 15064 H 1399.76 4.93986 0.69132 0
M  V30 15065 H 1398.91 5.25889 3.02533 0
M  V30 15066 H 1397.65 4.02228 2.75796 0
M  V30 15067 H 1396.65 5.41963 0.924985 0
M  V30 15068 H 1397.88 6.68123 1.21609 0
M  V30 15069 H 1395.82 5.70574 3.23699 0
M  V30 15070 H 1395.74 7.18792 2.34253 0
M  V30 15071 H 1397.01 6.96018 3.50969 0
M  V30 15072 N 1401.24 0.0551678 1.57503 0
M  V30 15073 C 1402.49 -0.61772 1.92848 0
M  V30 15074 C 1402.81 -1.70614 0.933862 0
M  V30 15075 O 1402.07 -1.95628 -0.0532073 0
M  V30 15076 C 1402.37 -1.24895 3.34867 0
M  V30 15077 C 1402.03 -0.288325 4.49977 0
M  V30 15078 C 1400.7 -0.0240016 4.81194 0
M  V30 15079 C 1403.05 0.369804 5.19886 0
M  V30 15080 C 1400.38 0.905818 5.79665 0
M  V30 15081 C 1402.73 1.28784 6.19352 0
M  V30 15082 C 1401.39 1.5608 6.48996 0
M  V30 15083 H 1400.66 -0.22604 0.705682 0
M  V30 15084 H 1403.31 0.1225 1.91108 0
M  V30 15085 H 1401.61 -2.06452 3.32993 0
M  V30 15086 H 1403.31 -1.77659 3.59497 0
M  V30 15087 H 1399.9 -0.504524 4.2562 0
M  V30 15088 H 1404.08 0.178689 4.95978 0
M  V30 15089 H 1399.34 1.12472 6.00966 0
M  V30 15090 H 1403.51 1.80385 6.72632 0
M  V30 15091 H 1401.14 2.28292 7.25112 0
M  V30 15092 N 1402.72 -1.56081 -0.218252 0
M  V30 15093 C 1403.68 -1.91851 -1.25402 0
M  V30 15094 C 1404.68 -0.797399 -1.39636 0
M  V30 15095 O 1405.87 -1.06511 -1.37844 0
M  V30 15096 C 1403 -2.17223 -2.6273 0
M  V30 15097 H 1404.19 -2.84493 -0.948882 0
M  V30 15098 H 1401.75 -1.49414 -0.458809 0
M  V30 15099 H 1402.48 -1.27144 -2.98337 0
M  V30 15100 H 1402.27 -2.98899 -2.53775 0
M  V30 15101 H 1403.76 -2.45981 -3.37466 0
M  V30 15102 N 1404.2 0.485086 -1.49949 0
M  V30 15103 C 1405.14 1.5848 -1.67788 0
M  V30 15104 C 1406.11 1.57776 -0.519216 0
M  V30 15105 O 1407.3 1.75521 -0.748141 0
M  V30 15106 C 1404.44 2.9654 -1.76516 0
M  V30 15107 C 1403.55 3.07139 -3.03792 0
M  V30 15108 C 1402.69 4.36029 -3.03401 0
M  V30 15109 C 1401.72 4.40318 -4.2519 0
M  V30 15110 N 1400.86 5.60659 -4.22618 0
M  V30 15111 H 1405.7 1.42575 -2.6168 0
M  V30 15112 H 1403.24 0.693426 -1.29731 0
M  V30 15113 H 1405.2 3.76583 -1.79557 0
M  V30 15114 H 1403.83 3.11112 -0.860764 0
M  V30 15115 H 1402.88 2.20057 -3.10289 0
M  V30 15116 H 1404.19 3.06167 -3.9378 0
M  V30 15117 H 1403.34 5.24407 -3.05094 0
M  V30 15118 H 1402.08 4.39588 -2.11219 0
M  V30 15119 H 1401.09 3.50339 -4.23725 0
M  V30 15120 H 1402.31 4.38461 -5.18583 0
M  V30 15121 H 1400.26 5.6503 -3.33282 0
M  V30 15122 H 1400.18 5.61371 -5.06359 0
M  V30 15123 H 1401.44 6.51201 -4.28436 0
M  V30 15124 N 1405.67 1.39291 0.737279 0
M  V30 15125 C 1406.92 1.35702 1.49224 0
M  V30 15126 C 1407.24 -0.0450282 1.95548 0
M  V30 15127 O 1408.44 -0.203495 2.70736 0
M  V30 15128 C 1406.9 2.38387 2.69629 0
M  V30 15129 C 1406.51 3.84295 2.30263 0
M  V30 15130 C 1408.25 2.4387 3.47459 0
M  V30 15131 C 1406.16 4.78626 3.47377 0
M  V30 15132 H 1405.09 0.50449 0.560362 0
M  V30 15133 H 1407.74 1.64926 0.804466 0
M  V30 15134 H 1406.12 2.0223 3.40469 0
M  V30 15135 H 1407.29 4.2948 1.66984 0
M  V30 15136 H 1405.61 3.82085 1.6553 0
M  V30 15137 H 1408.21 3.11539 4.34566 0
M  V30 15138 H 1408.55 1.46253 3.89764 0
M  V30 15139 H 1409.08 2.78908 2.83646 0
M  V30 15140 H 1405.82 5.77497 3.10124 0
M  V30 15141 H 1405.34 4.38123 4.09645 0
M  V30 15142 H 1407.02 4.9742 4.13742 0
M  V30 15143 N 1407.15 -0.967221 1.24429 0
M  V30 15144 C 1408.1 -2.06187 1.03709 0
M  V30 15145 C 1409.07 -1.66025 -0.0497665 0
M  V30 15146 O 1410.25 -1.90511 0.104951 0
M  V30 15147 C 1407.39 -3.38952 0.648477 0
M  V30 15148 C 1406.51 -3.92306 1.80886 0
M  V30 15149 C 1405.64 -5.13342 1.36579 0
M  V30 15150 C 1404.68 -5.58893 2.49609 0
M  V30 15151 N 1403.82 -6.71148 2.06165 0
M  V30 15152 H 1408.66 -2.23244 1.97399 0
M  V30 15153 H 1406.19 -1.09415 0.983192 0
M  V30 15154 H 1408.15 -4.15237 0.40419 0
M  V30 15155 H 1406.78 -3.21819 -0.25142 0
M  V30 15156 H 1405.83 -3.12656 2.1668 0
M  V30 15157 H 1407.15 -4.22071 2.65815 0
M  V30 15158 H 1406.3 -5.97003 1.0804 0
M  V30 15159 H 1405.04 -4.85262 0.487051 0
M  V30 15160 H 1404.04 -4.73805 2.78906 0
M  V30 15161 H 1405.27 -5.88987 3.3804 0
M  V30 15162 H 1403.22 -6.44802 1.20691 0
M  V30 15163 H 1403.13 -7.00366 2.84647 0
M  V30 15164 H 1404.4 -7.5825 1.80769 0
M  V30 15165 N 1408.63 -1.05812 -1.16797 0
M  V30 15166 C 1409.58 -0.658636 -2.2308 0
M  V30 15167 C 1410.57 0.323104 -1.6629 0
M  V30 15168 O 1411.78 0.188492 -1.7901 0
M  V30 15169 H 1408.15 -0.194843 -0.72632 0
M  V30 15170 H 1410.12 -1.56501 -2.54067 0
M  V30 15171 C 1408.87 -0.0559428 -3.47655 0
M  V30 15172 H 1408.2 -0.802468 -3.91664 0
M  V30 15173 H 1409.64 0.186118 -4.23591 0
M  V30 15174 C 1408.09 1.19913 -3.14837 0
M  V30 15175 O 1408.62 2.28772 -3.30191 0
M  V30 15176 N 1406.83 1.09921 -2.69009 0
M  V30 15177 H 1406.38 0.213331 -2.56715 0
M  V30 15178 H 1406.34 1.93981 -2.47424 0
M  V30 15179 N 1410.11 1.33347 -0.840014 0
M  V30 15180 C 1411.34 2.01952 -0.449793 0
M  V30 15181 C 1411.75 1.63197 0.949317 0
M  V30 15182 O 1411.11 0.84589 1.61713 0
M  V30 15183 C 1411.16 3.57102 -0.562178 0
M  V30 15184 O 1410.88 3.94458 -1.90616 0
M  V30 15185 C 1412.38 4.42978 -0.169062 0
M  V30 15186 H 1409.6 0.646843 -0.178425 0
M  V30 15187 H 1412.14 1.70251 -1.1329 0
M  V30 15188 H 1410.3 3.87331 0.0730345 0
M  V30 15189 H 1410.71 4.89167 -1.8925 0
M  V30 15190 H 1412.19 5.51191 -0.298742 0
M  V30 15191 H 1412.66 4.30106 0.889137 0
M  V30 15192 H 1413.27 4.18109 -0.778756 0
M  V30 15193 N 1411.59 0.596556 1.45873 0
M  V30 15194 C 1412.54 -0.14991 2.27507 0
M  V30 15195 C 1413.52 -0.848942 1.36681 0
M  V30 15196 O 1414.71 -0.740752 1.60754 0
M  V30 15197 C 1411.84 -1.15391 3.23326 0
M  V30 15198 C 1410.93 -0.456283 4.21638 0
M  V30 15199 N 1411.32 0.495911 5.03363 0
M  V30 15200 C 1409.62 -0.705263 4.40389 0
M  V30 15201 C 1410.32 0.904941 5.74618 0
M  V30 15202 N 1409.29 0.251069 5.4302 0
M  V30 15203 H 1413.09 0.581593 2.88088 0
M  V30 15204 H 1410.61 0.419386 1.56891 0
M  V30 15205 H 1412.61 -1.70299 3.80531 0
M  V30 15206 H 1411.27 -1.88609 2.64305 0
M  V30 15207 H 1412.28 0.872126 5.10504 0
M  V30 15208 H 1408.95 -1.42296 3.92502 0
M  V30 15209 H 1410.34 1.68965 6.50308 0
M  V30 15210 N 1413.06 -1.53996 0.335095 0
M  V30 15211 C 1414.29 -2.05188 -0.26563 0
M  V30 15212 C 1414.71 -1.21058 -1.44881 0
M  V30 15213 O 1414.06 -0.243919 -1.80863 0
M  V30 15214 C 1414.11 -3.54875 -0.688904 0
M  V30 15215 O 1413.84 -4.35811 0.447217 0
M  V30 15216 C 1415.34 -4.22204 -1.35123 0
M  V30 15217 H 1412.56 -0.668921 -0.0527806 0
M  V30 15218 H 1415.1 -1.98675 0.48463 0
M  V30 15219 H 1413.26 -3.61638 -1.38912 0
M  V30 15220 H 1413.67 -5.24381 0.111495 0
M  V30 15221 H 1415.14 -5.28356 -1.59823 0
M  V30 15222 H 1415.62 -3.74029 -2.30216 0
M  V30 15223 H 1416.23 -4.19611 -0.693283 0
M  V30 15224 N 1414.54 -0.0635198 -1.57472 0
M  V30 15225 C 1415.49 0.924358 -2.13444 0
M  V30 15226 C 1416.48 1.31389 -1.06927 0
M  V30 15227 O 1417.69 1.2921 -1.25319 0
M  V30 15228 H 1414.06 0.316003 -0.682383 0
M  V30 15229 H 1416.04 0.427281 -2.95325 0
M  V30 15230 C 1414.78 2.18546 -2.70431 0
M  V30 15231 H 1414.11 1.89455 -3.52061 0
M  V30 15232 H 1415.55 2.85799 -3.13201 0
M  V30 15233 C 1414.01 2.93845 -1.64794 0
M  V30 15234 O 1414.54 3.87242 -1.06802 0
M  V30 15235 N 1412.74 2.568 -1.36023 0
M  V30 15236 H 1412.29 1.80924 -1.83369 0
M  V30 15237 H 1412.25 3.07486 -0.655741 0
M  V30 15238 N 1416.02 1.56195 0.209972 0
M  V30 15239 C 1417.27 1.7939 0.930796 0
M  V30 15240 C 1417.59 0.634038 1.84404 0
M  V30 15241 O 1416.86 -0.348467 1.92776 0
M  V30 15242 H 1415.44 0.661676 0.346689 0
M  V30 15243 H 1418.1 1.93665 0.219049 0
M  V30 15244 H 1417.2 2.71982 1.53075 0
M  V30 15245 N 1417.5 -0.477127 1.50204 0
M  V30 15246 C 1418.74 -1.23147 1.6113 0
M  V30 15247 C 1419.08 -1.91743 0.307909 0
M  V30 15248 O 1418.35 -1.81841 -0.690223 0
M  V30 15249 C 1418.63 -2.27985 2.78738 0
M  V30 15250 C 1418.49 -1.63733 4.18941 0
M  V30 15251 C 1419.81 -3.29349 2.9192 0
M  V30 15252 H 1416.93 -0.446358 0.586459 0
M  V30 15253 H 1419.57 -0.52612 1.8257 0
M  V30 15254 H 1417.72 -2.88143 2.60588 0
M  V30 15255 H 1419.39 -1.07218 4.48667 0
M  V30 15256 H 1417.63 -0.940634 4.23479 0
M  V30 15257 H 1418.3 -2.39888 4.9715 0
M  V30 15258 H 1420.78 -2.79208 3.08516 0
M  V30 15259 H 1419.66 -4.0004 3.75845 0
M  V30 15260 H 1419.92 -3.93111 2.02278 0
M  V30 15261 N 1418.98 -1.3968 -0.729882 0
M  V30 15262 C 1420.39 -1.21396 -1.0361 0
M  V30 15263 C 1420.59 -0.0791302 -2.01345 0
M  V30 15264 O 1419.65 0.567575 -2.46038 0
M  V30 15265 C 1420.96 -2.55006 -1.59349 0
M  V30 15266 C 1422.51 -2.61896 -1.71405 0
M  V30 15267 C 1422.98 -3.9574 -2.30552 0
M  V30 15268 N 1424.48 -3.97406 -2.37955 0
M  V30 15269 C 1425.21 -4.97745 -2.8467 0
M  V30 15270 N 1424.71 -6.08482 -3.31243 0
M  V30 15271 N 1426.5 -4.85121 -2.83925 0
M  V30 15272 H 1418.65 -2.12242 -0.081787 0
M  V30 15273 H 1420.91 -0.942827 -0.0989005 0
M  V30 15274 H 1420.62 -3.38626 -0.950005 0
M  V30 15275 H 1420.49 -2.75087 -2.58083 0
M  V30 15276 H 1422.88 -1.78656 -2.34874 0
M  V30 15277 H 1422.96 -2.45659 -0.7131 0
M  V30 15278 H 1422.61 -4.79412 -1.67709 0
M  V30 15279 H 1422.54 -4.09299 -3.31334 0
M  V30 15280 H 1425.03 -3.17435 -2.05044 0
M  V30 15281 H 1425.34 -6.8095 -3.65414 0
M  V30 15282 H 1423.68 -6.12068 -3.29239 0
M  V30 15283 H 1426.88 -3.97711 -2.46867 0
M  V30 15284 H 1427.05 -5.63465 -3.20017 0
M  V30 15285 N 1420.45 0.960609 -1.2494 0
M  V30 15286 C 1421.38 2.074 -1.07274 0
M  V30 15287 C 1422.37 1.70092 0.0164365 0
M  V30 15288 O 1423.55 1.93604 -0.151975 0
M  V30 15289 C 1420.68 3.40491 -0.684317 0
M  V30 15290 C 1419.63 3.91784 -1.72306 0
M  V30 15291 C 1418.96 5.21301 -1.18949 0
M  V30 15292 C 1420.26 4.18829 -3.12056 0
M  V30 15293 H 1421.95 2.22438 -2.00404 0
M  V30 15294 H 1419.5 1.06888 -0.964937 0
M  V30 15295 H 1421.45 4.17826 -0.547686 0
M  V30 15296 H 1420.18 3.25374 0.282687 0
M  V30 15297 H 1418.84 3.16613 -1.84802 0
M  V30 15298 H 1418.48 5.02549 -0.212892 0
M  V30 15299 H 1418.18 5.56588 -1.8837 0
M  V30 15300 H 1419.71 6.01238 -1.06513 0
M  V30 15301 H 1421.12 4.86844 -3.02748 0
M  V30 15302 H 1419.52 4.6536 -3.78894 0
M  V30 15303 H 1420.59 3.25333 -3.59564 0
M  V30 15304 N 1421.93 1.0643 1.16234 0
M  V30 15305 C 1422.86 0.697605 2.22836 0
M  V30 15306 C 1423.84 -0.310563 1.67241 0
M  V30 15307 O 1425.03 -0.185385 1.93313 0
M  V30 15308 C 1422.16 0.0847097 3.47197 0
M  V30 15309 C 1421.11 1.019 4.15693 0
M  V30 15310 C 1420.44 0.269339 5.34021 0
M  V30 15311 C 1421.74 2.34861 4.66516 0
M  V30 15312 H 1423.43 1.58883 2.53765 0
M  V30 15313 H 1420.98 0.765388 1.21975 0
M  V30 15314 H 1422.93 -0.1837 4.20999 0
M  V30 15315 H 1421.66 -0.84154 3.15572 0
M  V30 15316 H 1420.31 1.27218 3.43818 0
M  V30 15317 H 1419.96 -0.660072 4.9865 0
M  V30 15318 H 1419.66 0.892001 5.8079 0
M  V30 15319 H 1421.19 0.00850775 6.10599 0
M  V30 15320 H 1422.6 2.13922 5.31893 0
M  V30 15321 H 1421 2.92637 5.23912 0
M  V30 15322 H 1422.07 2.97834 3.82653 0
M  V30 15323 N 1423.41 -1.329 0.847073 0
M  V30 15324 C 1424.37 -2.27341 0.291324 0
M  V30 15325 C 1425.37 -1.51295 -0.544653 0
M  V30 15326 O 1426.56 -1.70497 -0.357258 0
M  V30 15327 C 1423.7 -3.35779 -0.588668 0
M  V30 15328 H 1424.89 -2.78009 1.12477 0
M  V30 15329 H 1422.44 -1.43442 0.620803 0
M  V30 15330 H 1423.18 -2.90366 -1.44423 0
M  V30 15331 H 1422.96 -3.92099 0.00960515 0
M  V30 15332 H 1424.45 -4.06166 -0.970526 0
M  V30 15333 N 1424.89 -0.604284 -1.45555 0
M  V30 15334 C 1425.84 0.137842 -2.27583 0
M  V30 15335 C 1426.82 0.841681 -1.3713 0
M  V30 15336 O 1428.01 0.732216 -1.61145 0
M  V30 15337 C 1425.14 1.13675 -3.23934 0
M  V30 15338 C 1424.23 0.433916 -4.21874 0
M  V30 15339 N 1424.62 -0.522599 -5.03093 0
M  V30 15340 C 1422.92 0.681898 -4.40756 0
M  V30 15341 C 1423.62 -0.935401 -5.7413 0
M  V30 15342 N 1422.6 -0.279863 -5.42879 0
M  V30 15343 H 1426.4 -0.596862 -2.87776 0
M  V30 15344 H 1423.91 -0.427701 -1.56667 0
M  V30 15345 H 1425.91 1.68278 -3.81429 0
M  V30 15346 H 1424.57 1.87204 -2.65301 0
M  V30 15347 H 1425.58 -0.899187 -5.10034 0
M  V30 15348 H 1422.26 1.40212 -3.93252 0
M  V30 15349 H 1423.65 -1.72412 -6.49403 0
M  V30 15350 N 1426.37 1.53816 -0.343257 0
M  V30 15351 C 1427.61 2.01207 0.253721 0
M  V30 15352 C 1427.95 1.23069 1.50225 0
M  V30 15353 O 1427.22 0.31824 1.91879 0
M  V30 15354 C 1427.5 3.5559 0.56815 0
M  V30 15355 C 1427.36 4.44438 -0.692457 0
M  V30 15356 C 1428.68 4.17974 1.37788 0
M  V30 15357 H 1425.79 0.731392 0.0907427 0
M  V30 15358 H 1428.44 1.84254 -0.463736 0
M  V30 15359 H 1426.59 3.70166 1.17937 0
M  V30 15360 H 1428.26 4.41698 -1.33042 0
M  V30 15361 H 1426.5 4.13312 -1.3174 0
M  V30 15362 H 1427.17 5.5034 -0.427715 0
M  V30 15363 H 1429.65 4.07094 0.861043 0
M  V30 15364 H 1428.52 5.26068 1.56663 0
M  V30 15365 H 1428.79 3.72577 2.3799 0
M  V30 15366 N 1427.84 0.0718701 1.57436 0
M  V30 15367 C 1429.09 -0.596799 1.92669 0
M  V30 15368 C 1429.41 -1.70765 0.953876 0
M  V30 15369 O 1430.61 -2.43589 1.19903 0
M  V30 15370 C 1429.07 -1.11291 3.42261 0
M  V30 15371 C 1428.68 -0.0330681 4.47988 0
M  V30 15372 C 1430.42 -1.75564 3.86494 0
M  V30 15373 C 1428.33 -0.56323 5.88712 0
M  V30 15374 H 1427.26 -0.226695 0.719114 0
M  V30 15375 H 1429.91 0.144117 1.82933 0
M  V30 15376 H 1428.29 -1.9068 3.4707 0
M  V30 15377 H 1429.46 0.741501 4.54795 0
M  V30 15378 H 1427.78 0.513438 4.13222 0
M  V30 15379 H 1430.38 -2.16261 4.89014 0
M  V30 15380 H 1430.72 -2.61566 3.23865 0
M  V30 15381 H 1431.25 -1.02798 3.84288 0
M  V30 15382 H 1427.99 0.259632 6.54986 0
M  V30 15383 H 1427.51 -1.30532 5.85424 0
M  V30 15384 H 1429.19 -1.03961 6.38593 0
M  V30 15385 N 1429.32 -1.56304 -0.201686 0
M  V30 15386 C 1430.25 -1.90538 -1.27389 0
M  V30 15387 C 1431.27 -0.795422 -1.42045 0
M  V30 15388 O 1432.46 -1.07381 -1.42589 0
M  V30 15389 C 1429.56 -2.11638 -2.64694 0
M  V30 15390 C 1428.73 -3.42755 -2.71731 0
M  V30 15391 C 1427.79 -3.53047 -3.90185 0
M  V30 15392 O 1426.81 -4.25923 -3.77595 0
M  V30 15393 N 1428.02 -2.85649 -5.05356 0
M  V30 15394 H 1430.78 -2.83106 -0.983411 0
M  V30 15395 H 1428.34 -1.57092 -0.391638 0
M  V30 15396 H 1430.33 -2.15818 -3.42352 0
M  V30 15397 H 1428.9 -1.256 -2.86258 0
M  V30 15398 H 1428.12 -3.50501 -1.80397 0
M  V30 15399 H 1429.41 -4.29092 -2.73418 0
M  V30 15400 H 1428.81 -2.26256 -5.18483 0
M  V30 15401 H 1427.37 -2.95465 -5.80985 0
M  V30 15402 N 1430.8 0.469154 -1.50455 0
M  V30 15403 C 1431.75 1.56691 -1.6946 0
M  V30 15404 C 1432.72 1.57217 -0.535921 0
M  V30 15405 O 1433.9 1.74717 -0.766715 0
M  V30 15406 C 1431.04 2.94651 -1.79651 0
M  V30 15407 C 1430.16 3.03899 -3.07033 0
M  V30 15408 C 1429.29 4.32786 -3.08009 0
M  V30 15409 C 1428.33 4.35784 -4.29836 0
M  V30 15410 N 1427.47 5.56145 -4.28541 0
M  V30 15411 H 1432.31 1.39791 -2.63178 0
M  V30 15412 H 1429.84 0.679628 -1.30459 0
M  V30 15413 H 1431.8 3.74658 -1.83541 0
M  V30 15414 H 1430.43 3.10182 -0.893713 0
M  V30 15415 H 1429.48 2.16754 -3.12605 0
M  V30 15416 H 1430.8 3.01974 -3.97005 0
M  V30 15417 H 1429.95 5.21141 -3.10639 0
M  V30 15418 H 1428.69 4.37323 -2.1587 0
M  V30 15419 H 1427.69 3.45825 -4.27417 0
M  V30 15420 H 1428.92 4.32937 -5.23204 0
M  V30 15421 H 1426.86 5.61464 -3.39256 0
M  V30 15422 H 1426.78 5.55969 -5.12284 0
M  V30 15423 H 1428.05 6.4662 -4.35319 0
M  V30 15424 N 1432.28 1.40065 0.722464 0
M  V30 15425 C 1433.53 1.37277 1.47776 0
M  V30 15426 C 1433.84 -0.0242852 1.95585 0
M  V30 15427 O 1435.05 -0.174769 2.70937 0
M  V30 15428 C 1433.5 2.41233 2.67085 0
M  V30 15429 C 1433.11 3.86716 2.26174 0
M  V30 15430 C 1434.85 2.47541 3.44853 0
M  V30 15431 C 1432.76 4.82284 3.42281 0
M  V30 15432 H 1431.69 0.510405 0.55498 0
M  V30 15433 H 1434.34 1.6577 0.786928 0
M  V30 15434 H 1432.72 2.0583 3.38305 0
M  V30 15435 H 1433.9 4.31227 1.6242 0
M  V30 15436 H 1432.21 3.83819 1.61468 0
M  V30 15437 H 1434.81 3.16131 4.31237 0
M  V30 15438 H 1435.15 1.50379 3.8819 0
M  V30 15439 H 1435.69 2.81901 2.80672 0
M  V30 15440 H 1432.43 5.80754 3.03982 0
M  V30 15441 H 1431.95 4.42443 4.04975 0
M  V30 15442 H 1433.62 5.0178 4.08443 0
M  V30 15443 N 1433.76 -0.95397 1.25448 0
M  V30 15444 C 1435.01 -1.6953 1.10018 0
M  V30 15445 C 1435.33 -1.9166 -0.359385 0
M  V30 15446 O 1434.6 -1.50417 -1.25506 0
M  V30 15447 H 1433.18 -0.628238 0.404136 0
M  V30 15448 H 1435.84 -1.14691 1.57581 0
M  V30 15449 H 1434.93 -2.67427 1.60901 0
M  V30 15450 N 1435.24 -1.07045 -1.15668 0
M  V30 15451 C 1436.18 -0.688004 -2.20307 0
M  V30 15452 C 1437.15 0.319081 -1.63006 0
M  V30 15453 O 1438.34 0.206239 -1.89682 0
M  V30 15454 C 1435.48 -0.0886692 -3.44986 0
M  V30 15455 C 1434.59 -1.14685 -4.16499 0
M  V30 15456 C 1433.73 -0.512852 -5.28719 0
M  V30 15457 C 1432.76 -1.55404 -5.92044 0
M  V30 15458 N 1431.9 -0.942848 -6.9574 0
M  V30 15459 H 1436.74 -1.58469 -2.52372 0
M  V30 15460 H 1434.28 -0.792184 -1.23947 0
M  V30 15461 H 1436.24 0.276415 -4.16283 0
M  V30 15462 H 1434.87 0.77139 -3.13448 0
M  V30 15463 H 1433.92 -1.62955 -3.43729 0
M  V30 15464 H 1435.23 -1.93643 -4.59678 0
M  V30 15465 H 1434.38 -0.0952274 -6.06625 0
M  V30 15466 H 1433.12 0.308524 -4.86723 0
M  V30 15467 H 1432.13 -1.98148 -5.12852 0
M  V30 15468 H 1433.35 -2.37765 -6.36117 0
M  V30 15469 H 1431.3 -0.142319 -6.55846 0
M  V30 15470 H 1431.22 -1.6697 -7.37331 0
M  V30 15471 H 1432.48 -0.550621 -7.77553 0
M  V30 15472 N 1436.71 1.32449 -0.85411 0
M  V30 15473 C 1437.62 2.32658 -0.301221 0
M  V30 15474 C 1438.64 1.64025 0.580673 0
M  V30 15475 O 1439.82 1.95568 0.481172 0
M  V30 15476 C 1436.88 3.43049 0.501803 0
M  V30 15477 C 1435.94 4.27374 -0.406166 0
M  V30 15478 C 1435.17 5.32494 0.358627 0
M  V30 15479 O 1435.4 5.4783 1.58865 0
M  V30 15480 O 1434.33 6.0127 -0.275291 0
M  V30 15481 H 1438.16 2.81838 -1.13143 0
M  V30 15482 H 1435.74 1.36063 -0.617032 0
M  V30 15483 H 1437.62 4.10375 0.957608 0
M  V30 15484 H 1436.3 2.9606 1.30882 0
M  V30 15485 H 1435.21 3.6286 -0.910136 0
M  V30 15486 H 1436.54 4.77887 -1.17835 0
M  V30 15487 N 1438.19 0.611994 1.45232 0
M  V30 15488 C 1439.15 -0.0943825 2.29006 0
M  V30 15489 C 1440.15 -0.790863 1.40007 0
M  V30 15490 O 1441.34 -0.638356 1.62082 0
M  V30 15491 C 1438.48 -1.1439 3.21135 0
M  V30 15492 H 1439.67 0.6422 2.92943 0
M  V30 15493 H 1437.22 0.37124 1.51827 0
M  V30 15494 H 1437.96 -1.9111 2.62007 0
M  V30 15495 H 1437.74 -0.648638 3.86698 0
M  V30 15496 H 1439.23 -1.63848 3.84114 0
M  V30 15497 N 1439.67 -1.53632 0.351409 0
M  V30 15498 C 1440.92 -2.00222 -0.243731 0
M  V30 15499 C 1441.23 -1.24305 -1.51022 0
M  V30 15500 O 1442.44 -1.61411 -2.18309 0
M  V30 15501 C 1440.89 -3.56619 -0.48487 0
M  V30 15502 C 1440.5 -4.414 0.766173 0
M  V30 15503 C 1442.25 -4.11603 -1.03844 0
M  V30 15504 C 1440.15 -5.89321 0.4954 0
M  V30 15505 H 1439.08 -0.74801 -0.0948534 0
M  V30 15506 H 1441.73 -1.77433 0.467957 0
M  V30 15507 H 1440.12 -3.75505 -1.25746 0
M  V30 15508 H 1441.29 -4.34288 1.54047 0
M  V30 15509 H 1439.6 -3.97448 1.24194 0
M  V30 15510 H 1442.2 -5.19736 -1.25611 0
M  V30 15511 H 1442.54 -3.65311 -1.99634 0
M  V30 15512 H 1443.08 -3.96459 -0.326363 0
M  V30 15513 H 1439.82 -6.39863 1.42324 0
M  V30 15514 H 1439.34 -5.99317 -0.240662 0
M  V30 15515 H 1441.02 -6.46897 0.115584 0
M  V30 15516 N 1441.15 -0.0802183 -1.57396 0
M  V30 15517 C 1442.39 0.587831 -1.94094 0
M  V30 15518 C 1442.73 1.6875 -0.961093 0
M  V30 15519 O 1442 1.94498 0.00832799 0
M  V30 15520 C 1442.28 1.15692 -3.41009 0
M  V30 15521 C 1442.14 0.0633211 -4.49755 0
M  V30 15522 C 1443.46 2.05987 -3.88918 0
M  V30 15523 H 1440.58 0.212214 -0.705786 0
M  V30 15524 H 1443.22 -0.147902 -1.89423 0
M  V30 15525 H 1441.37 1.78394 -3.4512 0
M  V30 15526 H 1443.04 -0.57019 -4.57763 0
M  V30 15527 H 1441.28 -0.605003 -4.2956 0
M  V30 15528 H 1441.95 0.502056 -5.49712 0
M  V30 15529 H 1444.43 1.5321 -3.86867 0
M  V30 15530 H 1443.31 2.42737 -4.92311 0
M  V30 15531 H 1443.57 2.97147 -3.27347 0
M  V30 15532 N 1442.63 1.56409 0.193394 0
M  V30 15533 C 1443.87 1.79919 0.911712 0
M  V30 15534 C 1444.19 0.653729 1.84352 0
M  V30 15535 O 1445.39 0.773172 2.60258 0
M  V30 15536 C 1443.85 3.18726 1.67158 0
M  V30 15537 C 1443.46 4.41078 0.784512 0
M  V30 15538 C 1445.2 3.51544 2.37944 0
M  V30 15539 C 1443.11 5.70907 1.54335 0
M  V30 15540 H 1442.04 0.670864 0.344177 0
M  V30 15541 H 1444.69 1.82757 0.164967 0
M  V30 15542 H 1443.07 3.10142 2.46227 0
M  V30 15543 H 1444.25 4.60789 0.032356 0
M  V30 15544 H 1442.56 4.15978 0.187407 0
M  V30 15545 H 1445.16 4.45779 2.95271 0
M  V30 15546 H 1445.5 2.75369 3.12214 0
M  V30 15547 H 1446.03 3.61583 1.65839 0
M  V30 15548 H 1442.77 6.50052 0.843393 0
M  V30 15549 H 1442.29 5.5521 2.26939 0
M  V30 15550 H 1443.97 6.12085 2.09669 0
M  V30 15551 N 1444.1 -0.461169 1.50702 0
M  V30 15552 C 1445.35 -1.21137 1.63393 0
M  V30 15553 C 1445.7 -1.89467 0.334664 0
M  V30 15554 O 1445 -1.79575 -0.668083 0
M  V30 15555 C 1445.19 -2.27213 2.75879 0
M  V30 15556 C 1445.02 -1.69291 4.16618 0
M  V30 15557 C 1443.79 -1.48827 4.82886 0
M  V30 15558 C 1445.99 -1.18233 5.00525 0
M  V30 15559 N 1443.97 -0.862524 6.07811 0
M  V30 15560 C 1445.34 -0.680412 6.16255 0
M  V30 15561 C 1447.4 -1.07182 4.86227 0
M  V30 15562 C 1446.1 -0.0788727 7.19257 0
M  V30 15563 C 1448.13 -0.484201 5.89415 0
M  V30 15564 C 1447.49 0.00728753 7.044 0
M  V30 15565 H 1443.59 -0.431797 0.651978 0
M  V30 15566 H 1446.17 -0.511751 1.87854 0
M  V30 15567 H 1444.34 -2.94591 2.53122 0
M  V30 15568 H 1446.07 -2.94223 2.77875 0
M  V30 15569 H 1442.83 -1.74332 4.40347 0
M  V30 15570 H 1443.25 -0.567778 6.74615 0
M  V30 15571 H 1447.89 -1.43771 3.97605 0
M  V30 15572 H 1445.61 0.299208 8.07546 0
M  V30 15573 H 1449.2 -0.400923 5.80417 0
M  V30 15574 H 1448.08 0.454852 7.8288 0
M  V30 15575 N 1445.58 -1.40446 -0.715026 0
M  V30 15576 C 1446.83 -1.3848 -1.47199 0
M  V30 15577 C 1447.15 0.0119198 -1.94996 0
M  V30 15578 O 1446.42 0.966772 -1.70383 0
M  V30 15579 H 1445 -0.509669 -0.54612 0
M  V30 15580 H 1447.66 -1.75505 -0.847588 0
M  V30 15581 H 1446.76 -2.06002 -2.34456 0
M  V30 15582 N 1447.06 0.947303 -1.25952 0
M  V30 15583 C 1447.99 2.0487 -1.02767 0
M  V30 15584 C 1449 1.62797 0.00985984 0
M  V30 15585 O 1450.19 1.77018 -0.229527 0
M  V30 15586 C 1447.29 3.34682 -0.533048 0
M  V30 15587 C 1446.47 4.05555 -1.63841 0
M  V30 15588 C 1445.53 5.13638 -1.1429 0
M  V30 15589 O 1444.55 5.38682 -1.83876 0
M  V30 15590 N 1445.75 5.80499 0.0119377 0
M  V30 15591 H 1448.52 2.25327 -1.97605 0
M  V30 15592 H 1446.08 1.11636 -1.17256 0
M  V30 15593 H 1448.07 4.04273 -0.185868 0
M  V30 15594 H 1446.64 3.10941 0.321585 0
M  V30 15595 H 1445.86 3.29962 -2.15683 0
M  V30 15596 H 1447.15 4.49661 -2.38081 0
M  V30 15597 H 1446.55 5.62581 0.593212 0
M  V30 15598 H 1445.1 6.51109 0.30009 0
M  V30 15599 N 1448.54 1.07657 1.15099 0
M  V30 15600 C 1449.78 0.802796 1.86234 0
M  V30 15601 C 1450.12 -0.669555 1.82293 0
M  V30 15602 O 1449.39 -1.49162 1.24823 0
M  V30 15603 C 1449.68 1.3156 3.35208 0
M  V30 15604 C 1449.53 2.85272 3.47764 0
M  V30 15605 C 1450.85 0.934641 4.30061 0
M  V30 15606 H 1447.97 0.293099 0.676212 0
M  V30 15607 H 1450.61 1.33488 1.35207 0
M  V30 15608 H 1448.76 0.86298 3.78794 0
M  V30 15609 H 1450.43 3.38847 3.13018 0
M  V30 15610 H 1448.67 3.23316 2.89222 0
M  V30 15611 H 1449.34 3.16223 4.52446 0
M  V30 15612 H 1451.82 1.3247 3.9445 0
M  V30 15613 H 1450.7 1.32074 5.32774 0
M  V30 15614 H 1450.96 -0.159122 4.41814 0
M  V30 15615 N 1450.02 -1.31994 0.861122 0
M  V30 15616 C 1451.43 -1.79271 0.521437 0
M  V30 15617 C 1451.78 -1.71046 -0.96113 0
M  V30 15618 O 1450.9 -1.2729 -1.75003 0
M  V30 15619 C 1451.5 -3.25507 0.939731 0
M  V30 15620 C 1450.06 -3.70713 0.651845 0
M  V30 15621 C 1449.2 -2.52967 1.13592 0
M  V30 15622 H 1452.16 -1.19201 1.0477 0
M  V30 15623 H 1452.18 -3.79619 0.258754 0
M  V30 15624 H 1451.69 -3.3146 2.0188 0
M  V30 15625 H 1449.79 -3.70268 -0.416232 0
M  V30 15626 H 1449.9 -4.63236 1.22267 0
M  V30 15627 H 1448.27 -2.48558 0.555971 0
M  V30 15628 H 1449.05 -2.61671 2.22223 0
M  V30 15629 N 1451.49 -0.619688 -1.44906 0
M  V30 15630 C 1452.44 0.0920359 -2.30616 0
M  V30 15631 C 1453.41 0.848114 -1.42815 0
M  V30 15632 O 1454.6 0.831439 -1.71732 0
M  V30 15633 C 1451.74 1.07537 -3.27917 0
M  V30 15634 C 1450.85 0.318904 -4.30821 0
M  V30 15635 C 1449.98 1.29303 -5.15222 0
M  V30 15636 C 1449.02 0.525071 -6.09844 0
M  V30 15637 N 1448.16 1.44909 -6.86983 0
M  V30 15638 H 1453 -0.644834 -2.9094 0
M  V30 15639 H 1450.54 -0.329785 -1.43356 0
M  V30 15640 H 1452.5 1.65874 -3.82808 0
M  V30 15641 H 1451.13 1.7795 -2.6932 0
M  V30 15642 H 1450.18 -0.380192 -3.78495 0
M  V30 15643 H 1451.49 -0.279742 -4.98015 0
M  V30 15644 H 1450.64 1.94809 -5.74573 0
M  V30 15645 H 1449.38 1.92561 -4.48076 0
M  V30 15646 H 1448.39 -0.14355 -5.49613 0
M  V30 15647 H 1449.61 -0.102625 -6.79022 0
M  V30 15648 H 1447.56 2.06908 -6.22515 0
M  V30 15649 H 1447.48 0.90418 -7.50574 0
M  V30 15650 H 1448.74 2.09335 -7.50866 0
M  V30 15651 N 1452.97 1.53444 -0.359552 0
M  V30 15652 C 1454.22 2.01166 0.232022 0
M  V30 15653 C 1454.55 1.24699 1.49266 0
M  V30 15654 O 1453.8 0.327164 1.92946 0
M  V30 15655 C 1454.1 3.5273 0.575863 0
M  V30 15656 C 1453.77 4.47027 -0.589746 0
M  V30 15657 C 1452.43 4.72525 -0.909587 0
M  V30 15658 C 1454.78 5.02846 -1.37095 0
M  V30 15659 C 1452.11 5.51096 -2.01271 0
M  V30 15660 C 1454.46 5.82622 -2.46444 0
M  V30 15661 C 1453.13 6.06409 -2.7897 0
M  V30 15662 H 1452.4 0.73612 0.084903 0
M  V30 15663 H 1455.04 1.85105 -0.490771 0
M  V30 15664 H 1453.35 3.66708 1.37959 0
M  V30 15665 H 1455.04 3.87125 1.04573 0
M  V30 15666 H 1451.63 4.27324 -0.330418 0
M  V30 15667 H 1455.82 4.83098 -1.1371 0
M  V30 15668 H 1451.07 5.67747 -2.26877 0
M  V30 15669 H 1455.25 6.24884 -3.07398 0
M  V30 15670 H 1452.88 6.67077 -3.64572 0
M  V30 15671 N 1454.45 0.0885642 1.57351 0
M  V30 15672 C 1455.4 -0.883199 2.10199 0
M  V30 15673 C 1456.38 -1.24805 1.0155 0
M  V30 15674 O 1457.58 -1.22423 1.27835 0
M  V30 15675 C 1454.71 -2.14467 2.68065 0
M  V30 15676 C 1453.79 -1.80555 3.83746 0
M  V30 15677 N 1454.18 -1.17169 4.92042 0
M  V30 15678 C 1452.48 -2.10204 3.93358 0
M  V30 15679 C 1453.18 -1.01722 5.72737 0
M  V30 15680 N 1452.16 -1.53241 5.21553 0
M  V30 15681 H 1455.96 -0.38908 2.91313 0
M  V30 15682 H 1453.47 -0.114842 1.61993 0
M  V30 15683 H 1455.47 -2.85021 3.04251 0
M  V30 15684 H 1454.13 -2.64451 1.88403 0
M  V30 15685 H 1455.14 -0.839293 5.11054 0
M  V30 15686 H 1451.82 -2.62448 3.24696 0
M  V30 15687 H 1453.21 -0.522042 6.69869 0
M  V30 15688 N 1455.93 -1.56509 -0.185096 0
M  V30 15689 C 1456.86 -1.98363 -1.23184 0
M  V30 15690 C 1457.84 -0.85709 -1.46929 0
M  V30 15691 O 1459.02 -1.12216 -1.58497 0
M  V30 15692 C 1456.15 -2.33172 -2.57387 0
M  V30 15693 C 1455.11 -3.48658 -2.48236 0
M  V30 15694 C 1454.43 -3.69171 -3.86804 0
M  V30 15695 C 1455.73 -4.82538 -1.99885 0
M  V30 15696 H 1457.43 -2.86053 -0.883982 0
M  V30 15697 H 1454.97 -1.37623 -0.423786 0
M  V30 15698 H 1456.93 -2.61048 -3.30805 0
M  V30 15699 H 1455.65 -1.42377 -2.93933 0
M  V30 15700 H 1454.31 -3.20889 -1.77273 0
M  V30 15701 H 1453.96 -2.75689 -4.20719 0
M  V30 15702 H 1453.66 -4.46868 -3.81553 0
M  V30 15703 H 1455.18 -3.99433 -4.61829 0
M  V30 15704 H 1456.6 -5.0938 -2.63068 0
M  V30 15705 H 1454.99 -5.63775 -2.05614 0
M  V30 15706 H 1456.06 -4.75453 -0.952503 0
M  V30 15707 N 1457.41 0.45317 -1.50944 0
M  V30 15708 C 1458.82 1.03354 -1.55482 0
M  V30 15709 C 1459.17 1.92701 -0.368873 0
M  V30 15710 O 1458.29 2.10153 0.516208 0
M  V30 15711 C 1458.89 1.88118 -2.81775 0
M  V30 15712 C 1457.45 2.41232 -2.88936 0
M  V30 15713 C 1456.59 1.20032 -2.49975 0
M  V30 15714 H 1459.55 0.235059 -1.5695 0
M  V30 15715 H 1459.57 2.73394 -2.64643 0
M  V30 15716 H 1459.08 1.23064 -3.68072 0
M  V30 15717 H 1457.18 3.09788 -2.07032 0
M  V30 15718 H 1457.29 2.75113 -3.92237 0
M  V30 15719 H 1455.66 1.54072 -2.02815 0
M  V30 15720 H 1456.44 0.56612 -3.386 0
M  V30 15721 N 1458.88 1.40823 0.707568 0
M  V30 15722 C 1460.13 1.39741 1.4697 0
M  V30 15723 C 1460.46 0.00231194 1.942 0
M  V30 15724 O 1459.74 -0.967798 1.68713 0
M  V30 15725 C 1460.02 2.39385 2.69011 0
M  V30 15726 C 1459.87 3.87953 2.27624 0
M  V30 15727 C 1461.19 2.3645 3.71186 0
M  V30 15728 H 1458.31 0.508904 0.533091 0
M  V30 15729 H 1460.95 1.72015 0.806888 0
M  V30 15730 H 1459.1 2.11993 3.25563 0
M  V30 15731 H 1460.78 4.26202 1.76492 0
M  V30 15732 H 1459.02 4.03399 1.59537 0
M  V30 15733 H 1459.69 4.53201 3.15139 0
M  V30 15734 H 1462.17 2.60731 3.24282 0
M  V30 15735 H 1461.04 3.08204 4.54204 0
M  V30 15736 H 1461.3 1.3789 4.20046 0
M  V30 15737 N 1460.36 -0.94061 1.26453 0
M  V30 15738 C 1461.27 -2.07298 1.09839 0
M  V30 15739 C 1462.29 -1.73971 0.0317477 0
M  V30 15740 O 1463.46 -2.00017 0.235594 0
M  V30 15741 C 1460.53 -3.38847 0.733736 0
M  V30 15742 C 1459.59 -3.85954 1.87985 0
M  V30 15743 C 1458.82 -5.11224 1.5325 0
M  V30 15744 O 1459.05 -5.68743 0.434491 0
M  V30 15745 O 1457.98 -5.53386 2.36743 0
M  V30 15746 H 1461.81 -2.24222 2.04837 0
M  V30 15747 H 1459.39 -1.05763 1.0552 0
M  V30 15748 H 1461.27 -4.17885 0.543131 0
M  V30 15749 H 1459.95 -3.2316 -0.186843 0
M  V30 15750 H 1458.86 -3.07858 2.12542 0
M  V30 15751 H 1460.19 -4.06162 2.78017 0
M  V30 15752 N 1461.84 -1.08266 -1.14527 0
M  V30 15753 C 1462.79 -0.711332 -2.19565 0
M  V30 15754 C 1463.76 0.301774 -1.63336 0
M  V30 15755 O 1464.94 0.186109 -1.8989 0
M  V30 15756 C 1462.08 -0.125255 -3.44873 0
M  V30 15757 C 1461.2 -1.19096 -4.15259 0
M  V30 15758 C 1460.33 -0.568901 -5.28145 0
M  V30 15759 C 1459.37 -1.61675 -5.90362 0
M  V30 15760 N 1458.51 -1.01659 -6.94701 0
M  V30 15761 H 1463.35 -1.61137 -2.50677 0
M  V30 15762 H 1460.88 -0.805286 -1.231 0
M  V30 15763 H 1462.84 0.232247 -4.16553 0
M  V30 15764 H 1461.47 0.738101 -3.14248 0
M  V30 15765 H 1460.52 -1.66591 -3.41982 0
M  V30 15766 H 1461.84 -1.98508 -4.57598 0
M  V30 15767 H 1460.99 -0.159563 -6.0649 0
M  V30 15768 H 1459.73 0.256884 -4.87023 0
M  V30 15769 H 1458.73 -2.03576 -5.10722 0
M  V30 15770 H 1459.96 -2.44498 -6.33559 0
M  V30 15771 H 1457.9 -0.211872 -6.55658 0
M  V30 15772 H 1457.82 -1.74781 -7.35518 0
M  V30 15773 H 1459.09 -0.63306 -7.76925 0
M  V30 15774 N 1463.32 1.31536 -0.86811 0
M  V30 15775 C 1464.6 1.9149 -0.398866 0
M  V30 15776 C 1464.98 1.79008 1.1189 0
M  V30 15777 O 1464.32 1.19659 1.94664 0
M  V30 15778 C 1464.53 3.37771 -0.878173 0
M  V30 15779 C 1465.88 4.14882 -0.903216 0
M  V30 15780 O 1466.91 3.46545 -0.823703 0
M  V30 15781 O 1465.77 5.36936 -1.01794 0
M  V30 15782 H 1462.86 0.818398 -0.118971 0
M  V30 15783 H 1465.41 1.40216 -0.955899 0
M  V30 15784 H 1464.18 3.40861 -1.9217 0
M  V30 15785 H 1463.8 3.96472 -0.299346 0
M  V30 15786 N 1464.8 0.627364 1.44575 0
M  V30 15787 C 1466.04 0.130545 2.02379 0
M  V30 15788 C 1466.38 -1.24301 1.49208 0
M  V30 15789 O 1465.65 -1.82425 0.674626 0
M  V30 15790 C 1465.93 0.11311 3.59922 0
M  V30 15791 C 1465.79 1.51874 4.23385 0
M  V30 15792 C 1467.11 -0.564341 4.36467 0
M  V30 15793 H 1464.23 0.0489125 0.735375 0
M  V30 15794 H 1466.87 0.803118 1.72192 0
M  V30 15795 H 1465.02 -0.459621 3.85772 0
M  V30 15796 H 1466.69 2.14007 4.08655 0
M  V30 15797 H 1464.93 2.07371 3.81024 0
M  V30 15798 H 1465.6 1.4586 5.3238 0
M  V30 15799 H 1468.08 -0.0773244 4.16028 0
M  V30 15800 H 1466.96 -0.545715 5.46181 0
M  V30 15801 H 1467.22 -1.63403 4.10794 0
M  V30 15802 N 1466.28 -1.53251 0.367684 0
M  V30 15803 C 1467.52 -2.02269 -0.214246 0
M  V30 15804 C 1467.88 -1.25014 -1.46251 0
M  V30 15805 O 1467.17 -0.335984 -1.88631 0
M  V30 15806 C 1467.36 -3.53031 -0.557149 0
M  V30 15807 C 1467.19 -4.44885 0.656332 0
M  V30 15808 C 1465.96 -4.91591 1.16905 0
M  V30 15809 C 1468.16 -4.91258 1.52218 0
M  V30 15810 N 1466.14 -5.67457 2.34233 0
M  V30 15811 C 1467.51 -5.65488 2.5421 0
M  V30 15812 C 1469.57 -4.73329 1.54481 0
M  V30 15813 C 1468.27 -6.23696 3.58324 0
M  V30 15814 C 1470.3 -5.32403 2.5749 0
M  V30 15815 C 1469.66 -6.06521 3.58206 0
M  V30 15816 H 1465.76 -0.780921 -0.0410579 0
M  V30 15817 H 1468.34 -1.87828 0.512703 0
M  V30 15818 H 1466.51 -3.67628 -1.25317 0
M  V30 15819 H 1468.25 -3.88768 -1.12435 0
M  V30 15820 H 1465 -4.67888 0.733353 0
M  V30 15821 H 1465.42 -6.10052 2.9354 0
M  V30 15822 H 1470.07 -4.15549 0.779688 0
M  V30 15823 H 1467.78 -6.8057 4.35717 0
M  V30 15824 H 1471.37 -5.20423 2.60098 0
M  V30 15825 H 1470.25 -6.51418 4.36606 0
M  V30 15826 N 1467.75 -0.0969077 -1.57302 0
M  V30 15827 C 1468.66 0.875561 -2.17649 0
M  V30 15828 C 1469.68 1.30892 -1.14645 0
M  V30 15829 O 1470.86 1.37646 -1.47022 0
M  V30 15830 C 1467.92 2.116 -2.74639 0
M  V30 15831 C 1466.98 1.73667 -3.92604 0
M  V30 15832 C 1466.21 2.91798 -4.46867 0
M  V30 15833 O 1466.44 4.06577 -4.00064 0
M  V30 15834 O 1465.37 2.70159 -5.37864 0
M  V30 15835 H 1469.2 0.392107 -3.01158 0
M  V30 15836 H 1466.78 0.127539 -1.48855 0
M  V30 15837 H 1468.66 2.84292 -3.11057 0
M  V30 15838 H 1467.34 2.58994 -1.94174 0
M  V30 15839 H 1466.25 0.981505 -3.60995 0
M  V30 15840 H 1467.58 1.31035 -4.74437 0
M  V30 15841 N 1469.23 1.56605 0.176793 0
M  V30 15842 C 1470.16 1.9254 1.24342 0
M  V30 15843 C 1471.18 0.81792 1.40762 0
M  V30 15844 O 1472.37 1.09636 1.40862 0
M  V30 15845 C 1469.47 2.15822 2.61293 0
M  V30 15846 C 1468.64 3.47035 2.66243 0
M  V30 15847 C 1467.7 3.5921 3.84519 0
M  V30 15848 O 1466.72 4.31876 3.70771 0
M  V30 15849 N 1467.93 2.93653 5.00748 0
M  V30 15850 H 1470.69 2.84635 0.938246 0
M  V30 15851 H 1468.25 1.57695 0.366597 0
M  V30 15852 H 1470.24 2.21237 3.38875 0
M  V30 15853 H 1468.81 1.30138 2.84223 0
M  V30 15854 H 1468.03 3.53326 1.74798 0
M  V30 15855 H 1469.32 4.33388 2.66557 0
M  V30 15856 H 1468.72 2.34476 5.14818 0
M  V30 15857 H 1467.28 3.04671 5.76211 0
M  V30 15858 N 1470.71 -0.445159 1.51182 0
M  V30 15859 C 1471.96 -1.19398 1.64669 0
M  V30 15860 C 1472.31 -1.89101 0.35474 0
M  V30 15861 O 1471.6 -1.80274 -0.648999 0
M  V30 15862 C 1471.8 -2.24274 2.78273 0
M  V30 15863 C 1471.63 -1.64863 4.1839 0
M  V30 15864 C 1470.4 -1.43697 4.84437 0
M  V30 15865 C 1472.59 -1.12917 5.01751 0
M  V30 15866 N 1470.58 -0.798009 6.08691 0
M  V30 15867 C 1471.95 -0.615012 6.16942 0
M  V30 15868 C 1474 -1.02018 4.87336 0
M  V30 15869 C 1472.71 -0.00258151 7.193 0
M  V30 15870 C 1474.73 -0.421658 5.89895 0
M  V30 15871 C 1474.09 0.0819981 7.04352 0
M  V30 15872 H 1470.19 -0.424858 0.656521 0
M  V30 15873 H 1472.78 -0.491798 1.88386 0
M  V30 15874 H 1470.95 -2.91889 2.56233 0
M  V30 15875 H 1472.68 -2.91259 2.8098 0
M  V30 15876 H 1469.43 -1.69652 4.42171 0
M  V30 15877 H 1469.86 -0.496194 6.75179 0
M  V30 15878 H 1474.5 -1.39546 3.99107 0
M  V30 15879 H 1472.22 0.384842 8.07183 0
M  V30 15880 H 1475.8 -0.339339 5.8081 0
M  V30 15881 H 1474.68 0.537861 7.82353 0
M  V30 15882 N 1472.19 -1.41197 -0.700089 0
M  V30 15883 C 1473.43 -1.4152 -1.46095 0
M  V30 15884 C 1473.79 -0.0221135 -1.92387 0
M  V30 15885 O 1473.08 0.951201 -1.66321 0
M  V30 15886 C 1473.28 -2.35259 -2.6905 0
M  V30 15887 C 1473.1 -3.83544 -2.34785 0
M  V30 15888 C 1471.87 -4.52258 -2.25369 0
M  V30 15889 C 1474.07 -4.74637 -1.9805 0
M  V30 15890 N 1472.05 -5.85695 -1.83942 0
M  V30 15891 C 1473.43 -5.96989 -1.67346 0
M  V30 15892 C 1475.48 -4.62326 -1.84821 0
M  V30 15893 C 1474.18 -7.08401 -1.24742 0
M  V30 15894 C 1476.21 -5.73696 -1.43621 0
M  V30 15895 C 1475.57 -6.95143 -1.13825 0
M  V30 15896 H 1471.67 -0.573085 -0.53207 0
M  V30 15897 H 1474.25 -1.77032 -0.810413 0
M  V30 15898 H 1472.43 -2.01849 -3.3183 0
M  V30 15899 H 1474.16 -2.26333 -3.35493 0
M  V30 15900 H 1470.91 -4.06137 -2.43618 0
M  V30 15901 H 1471.34 -6.56403 -1.65722 0
M  V30 15902 H 1475.98 -3.68934 -2.06513 0
M  V30 15903 H 1473.7 -8.01663 -1.01794 0
M  V30 15904 H 1477.28 -5.66172 -1.33941 0
M  V30 15905 H 1476.16 -7.79856 -0.824257 0
M  V30 15906 N 1473.67 0.933891 -1.2695 0
M  V30 15907 C 1474.89 1.71512 -1.15721 0
M  V30 15908 C 1475.31 1.8661 0.286712 0
M  V30 15909 O 1474.67 1.3787 1.19574 0
M  V30 15910 C 1474.72 3.11804 -1.82922 0
M  V30 15911 O 1474.44 2.97421 -3.21672 0
M  V30 15912 C 1475.94 4.06108 -1.7774 0
M  V30 15913 H 1473.16 0.53678 -0.402626 0
M  V30 15914 H 1475.7 1.17025 -1.67706 0
M  V30 15915 H 1473.86 3.6317 -1.34856 0
M  V30 15916 H 1474.27 3.86069 -3.55037 0
M  V30 15917 H 1475.75 5.02082 -2.29385 0
M  V30 15918 H 1476.22 4.32828 -0.74543 0
M  V30 15919 H 1476.83 3.60665 -2.25391 0
M  V30 15920 N 1475.14 1.08871 1.13951 0
M  V30 15921 C 1476.42 0.73388 1.81311 0
M  V30 15922 C 1476.8 -0.781824 1.96089 0
M  V30 15923 O 1476.15 -1.70211 1.52448 0
M  V30 15924 C 1476.36 1.46631 3.16702 0
M  V30 15925 C 1477.71 1.62843 3.92132 0
M  V30 15926 O 1478.73 1.42836 3.26307 0
M  V30 15927 O 1477.59 1.95893 5.10185 0
M  V30 15928 H 1474.68 0.262976 0.784074 0
M  V30 15929 H 1477.23 1.19057 1.20927 0
M  V30 15930 H 1476 2.49863 3.01138 0
M  V30 15931 H 1475.62 1.00141 3.84782 0
M  V30 15932 N 1476.62 -1.31073 0.875073 0
M  V30 15933 C 1477.85 -2.00397 0.50245 0
M  V30 15934 C 1478.26 -1.65826 -0.910951 0
M  V30 15935 O 1477.6 -0.886276 -1.60906 0
M  V30 15936 C 1477.66 -3.54696 0.585744 0
M  V30 15937 C 1477.33 -4.12756 1.96167 0
M  V30 15938 C 1478.33 -4.29484 2.92984 0
M  V30 15939 C 1476.01 -4.48365 2.26437 0
M  V30 15940 C 1478 -4.81019 4.18209 0
M  V30 15941 C 1475.69 -4.99601 3.51912 0
M  V30 15942 C 1476.69 -5.1588 4.47613 0
M  V30 15943 O 1476.38 -5.66014 5.70862 0
M  V30 15944 H 1476.11 -0.647645 0.193733 0
M  V30 15945 H 1478.66 -1.6816 1.17947 0
M  V30 15946 H 1476.89 -3.86416 -0.148214 0
M  V30 15947 H 1478.58 -4.05271 0.225818 0
M  V30 15948 H 1479.35 -4.02286 2.70907 0
M  V30 15949 H 1475.23 -4.34968 1.52721 0
M  V30 15950 H 1478.77 -4.9364 4.92915 0
M  V30 15951 H 1474.67 -5.26234 3.73829 0
M  V30 15952 H 1475.44 -5.84374 5.73105 0
M  V30 15953 N 1478.1 -0.635022 -1.4424 0
M  V30 15954 C 1479.35 -0.149809 -2.02848 0
M  V30 15955 C 1479.7 1.21619 -1.49086 0
M  V30 15956 O 1478.99 1.79619 -0.666909 0
M  V30 15957 C 1479.19 -0.081191 -3.57308 0
M  V30 15958 C 1479.02 -1.439 -4.26055 0
M  V30 15959 C 1477.79 -2.02677 -4.62872 0
M  V30 15960 C 1479.99 -2.37365 -4.56248 0
M  V30 15961 N 1477.97 -3.31652 -5.16605 0
M  V30 15962 C 1479.34 -3.50957 -5.11106 0
M  V30 15963 C 1481.39 -2.36395 -4.38203 0
M  V30 15964 C 1480.1 -4.63781 -5.49818 0
M  V30 15965 C 1482.12 -3.48286 -4.77965 0
M  V30 15966 C 1481.48 -4.60603 -5.3294 0
M  V30 15967 H 1477.58 -0.0988293 -0.77573 0
M  V30 15968 H 1480.17 -0.839365 -1.75678 0
M  V30 15969 H 1478.34 0.577656 -3.8408 0
M  V30 15970 H 1480.07 0.41321 -4.02585 0
M  V30 15971 H 1476.83 -1.55579 -4.47316 0
M  V30 15972 H 1477.25 -3.97602 -5.47943 0
M  V30 15973 H 1481.89 -1.50807 -3.9499 0
M  V30 15974 H 1479.61 -5.50074 -5.91983 0
M  V30 15975 H 1483.2 -3.48716 -4.65713 0
M  V30 15976 H 1482.08 -5.45751 -5.63139 0
M  V30 15977 N 1479.58 1.53054 -0.375806 0
M  V30 15978 C 1480.51 2.23664 0.500685 0
M  V30 15979 C 1481.52 1.25432 1.03782 0
M  V30 15980 O 1482.71 1.51592 0.942451 0
M  V30 15981 C 1479.81 2.9288 1.70513 0
M  V30 15982 C 1478.99 4.17706 1.29772 0
M  V30 15983 C 1478.04 4.7004 2.36536 0
M  V30 15984 O 1477.07 5.33466 1.98502 0
M  V30 15985 N 1478.27 4.48732 3.68266 0
M  V30 15986 H 1481.04 2.99519 -0.104201 0
M  V30 15987 H 1478.6 1.60641 -0.201488 0
M  V30 15988 H 1480.59 3.24795 2.41433 0
M  V30 15989 H 1479.16 2.20416 2.21665 0
M  V30 15990 H 1478.38 3.91978 0.41795 0
M  V30 15991 H 1479.67 4.98837 1.00197 0
M  V30 15992 H 1479.07 3.98075 4.01936 0
M  V30 15993 H 1477.62 4.85172 4.3526 0
M  V30 15994 N 1481.06 0.105248 1.57248 0
M  V30 15995 C 1482.3 -0.556878 1.95004 0
M  V30 15996 C 1482.64 -1.672 0.987818 0
M  V30 15997 O 1481.91 -1.94487 0.022616 0
M  V30 15998 C 1482.19 -1.10252 3.42807 0
M  V30 15999 C 1482.05 0.00823908 4.49799 0
M  V30 16000 C 1483.37 -1.99774 3.92146 0
M  V30 16001 H 1480.48 -0.200959 0.709073 0
M  V30 16002 H 1483.13 0.178019 1.89164 0
M  V30 16003 H 1481.28 -1.7288 3.47915 0
M  V30 16004 H 1482.95 0.642944 4.56797 0
M  V30 16005 H 1481.19 0.673265 4.28544 0
M  V30 16006 H 1481.86 -0.414538 5.50441 0
M  V30 16007 H 1484.34 -1.47036 3.89255 0
M  V30 16008 H 1483.21 -2.34874 4.9611 0
M  V30 16009 H 1483.48 -2.91902 3.32033 0
M  V30 16010 N 1482.53 -1.56697 -0.168486 0
M  V30 16011 C 1483.76 -1.86292 -0.900152 0
M  V30 16012 C 1484.18 -0.690968 -1.75702 0
M  V30 16013 O 1483.53 0.339855 -1.79308 0
M  V30 16014 C 1483.59 -3.14946 -1.77457 0
M  V30 16015 O 1483.31 -4.27625 -0.952267 0
M  V30 16016 C 1484.81 -3.57908 -2.61566 0
M  V30 16017 H 1482.03 -0.618003 -0.261369 0
M  V30 16018 H 1484.57 -2.03811 -0.16773 0
M  V30 16019 H 1482.73 -2.99246 -2.4603 0
M  V30 16020 H 1483.14 -5.01057 -1.55056 0
M  V30 16021 H 1484.61 -4.50823 -3.18532 0
M  V30 16022 H 1485.09 -2.82162 -3.36573 0
M  V30 16023 H 1485.7 -3.7623 -1.98321 0
M  V30 16024 N 1484.01 0.437135 -1.51416 0
M  V30 16025 C 1485.26 1.18523 -1.653 0
M  V30 16026 C 1485.61 1.88911 -0.364764 0
M  V30 16027 O 1484.91 1.80615 0.63943 0
M  V30 16028 C 1485.1 2.22795 -2.79458 0
M  V30 16029 C 1484.93 1.62642 -4.19259 0
M  V30 16030 C 1483.7 1.41126 -4.85192 0
M  V30 16031 C 1485.9 1.10255 -5.02343 0
M  V30 16032 N 1483.88 0.765717 -6.09106 0
M  V30 16033 C 1485.25 0.582285 -6.1726 0
M  V30 16034 C 1487.31 0.994325 -4.8787 0
M  V30 16035 C 1486.01 -0.0355648 -7.19291 0
M  V30 16036 C 1488.03 0.390369 -5.9011 0
M  V30 16037 C 1487.4 -0.11935 -7.04299 0
M  V30 16038 H 1483.5 0.42137 -0.658765 0
M  V30 16039 H 1486.08 0.4818 -1.88645 0
M  V30 16040 H 1484.25 2.90526 -2.57777 0
M  V30 16041 H 1485.98 2.89765 -2.82521 0
M  V30 16042 H 1482.74 1.67305 -4.43064 0
M  V30 16043 H 1483.16 0.460381 -6.75433 0
M  V30 16044 H 1487.8 1.37428 -3.99842 0
M  V30 16045 H 1485.52 -0.427644 -8.06968 0
M  V30 16046 H 1489.11 0.308533 -5.80981 0
M  V30 16047 H 1487.99 -0.579344 -7.82057 0
M  V30 16048 N 1485.49 1.41566 0.692592 0
M  V30 16049 C 1486.74 1.40381 1.44831 0
M  V30 16050 C 1487.05 0.0172068 1.95592 0
M  V30 16051 O 1488.26 -0.11726 2.71247 0
M  V30 16052 C 1486.71 2.46844 2.61908 0
M  V30 16053 C 1486.32 3.91426 2.17921 0
M  V30 16054 C 1488.07 2.548 3.39525 0
M  V30 16055 C 1485.97 4.89436 3.31974 0
M  V30 16056 H 1484.9 0.522062 0.544028 0
M  V30 16057 H 1487.55 1.67402 0.751589 0
M  V30 16058 H 1485.94 2.12959 3.33863 0
M  V30 16059 H 1487.11 4.34575 1.53236 0
M  V30 16060 H 1485.43 3.87158 1.5329 0
M  V30 16061 H 1488.02 3.25207 4.24434 0
M  V30 16062 H 1488.37 1.58579 3.84913 0
M  V30 16063 H 1488.9 2.87791 2.74629 0
M  V30 16064 H 1485.64 5.87071 2.91595 0
M  V30 16065 H 1485.16 4.50933 3.95499 0
M  V30 16066 H 1486.84 5.10331 3.97708 0
M  V30 16067 N 1486.97 -0.927146 1.27443 0
M  V30 16068 C 1488.38 -1.48984 1.1252 0
M  V30 16069 C 1488.73 -1.94051 -0.289602 0
M  V30 16070 O 1487.86 -1.8123 -1.18257 0
M  V30 16071 C 1488.45 -2.70765 2.03646 0
M  V30 16072 C 1487.01 -3.23256 1.92827 0
M  V30 16073 C 1486.16 -1.95991 1.9617 0
M  V30 16074 H 1489.11 -0.741196 1.40328 0
M  V30 16075 H 1489.13 -3.45567 1.5926 0
M  V30 16076 H 1488.64 -2.37933 3.0661 0
M  V30 16077 H 1486.74 -3.60845 0.928516 0
M  V30 16078 H 1486.85 -3.89413 2.79096 0
M  V30 16079 H 1485.22 -2.12508 1.40402 0
M  V30 16080 H 1486 -1.65473 3.00788 0
M  V30 16081 N 1488.45 -1.09474 -1.13372 0
M  V30 16082 C 1489.36 -0.746674 -2.224 0
M  V30 16083 C 1490.37 0.251572 -1.72172 0
M  V30 16084 O 1491.55 0.092793 -2.01186 0
M  V30 16085 C 1488.61 -0.172965 -3.46268 0
M  V30 16086 C 1487.67 -1.22722 -4.11385 0
M  V30 16087 C 1486.91 -0.680794 -5.2934 0
M  V30 16088 O 1487.13 0.496135 -5.68238 0
M  V30 16089 O 1486.06 -1.43605 -5.84518 0
M  V30 16090 H 1489.89 -1.65649 -2.54547 0
M  V30 16091 H 1487.48 -0.869172 -1.21514 0
M  V30 16092 H 1489.36 0.143629 -4.21155 0
M  V30 16093 H 1488.03 0.709853 -3.15821 0
M  V30 16094 H 1486.94 -1.59652 -3.38323 0
M  V30 16095 H 1488.27 -2.0827 -4.45965 0
M  V30 16096 N 1489.92 1.30607 -0.882012 0
M  V30 16097 C 1491.17 1.96927 -0.509063 0
M  V30 16098 C 1491.53 1.6838 0.930903 0
M  V30 16099 O 1490.82 0.976464 1.64851 0
M  V30 16100 C 1491.01 3.50136 -0.716929 0
M  V30 16101 C 1490.84 3.93573 -2.17555 0
M  V30 16102 C 1489.61 4.19321 -2.81954 0
M  V30 16103 C 1491.81 4.06619 -3.14906 0
M  V30 16104 N 1489.79 4.49198 -4.18443 0
M  V30 16105 C 1491.16 4.40345 -4.36459 0
M  V30 16106 C 1493.22 3.89035 -3.10734 0
M  V30 16107 C 1491.92 4.58322 -5.54377 0
M  V30 16108 C 1493.95 4.08212 -4.27922 0
M  V30 16109 C 1493.31 4.42281 -5.4824 0
M  V30 16110 H 1489.41 0.745681 -0.23555 0
M  V30 16111 H 1491.99 1.57898 -1.13913 0
M  V30 16112 H 1490.16 3.88226 -0.116371 0
M  V30 16113 H 1491.89 4.03502 -0.311174 0
M  V30 16114 H 1488.65 4.12412 -2.32838 0
M  V30 16115 H 1489.07 4.68276 -4.88924 0
M  V30 16116 H 1493.72 3.61774 -2.18813 0
M  V30 16117 H 1491.43 4.84426 -6.46805 0
M  V30 16118 H 1495.02 3.96079 -4.2616 0
M  V30 16119 H 1493.9 4.56815 -6.37408 0
M  V30 16120 N 1491.4 0.642663 1.43901 0
M  V30 16121 C 1492.68 0.0821715 1.95427 0
M  V30 16122 C 1493.06 -1.3951 1.58431 0
M  V30 16123 O 1492.41 -2.11531 0.864118 0
M  V30 16124 C 1492.62 0.317229 3.47555 0
M  V30 16125 C 1493.97 0.216547 4.24047 0
M  V30 16126 O 1494.99 0.249216 3.55327 0
M  V30 16127 O 1493.85 0.131269 5.46342 0
M  V30 16128 H 1490.94 -0.0156936 0.826851 0
M  V30 16129 H 1493.49 0.715168 1.53894 0
M  V30 16130 H 1492.26 1.34184 3.67574 0
M  V30 16131 H 1491.88 -0.349348 3.96062 0
M  V30 16132 N 1492.88 -1.52852 0.383918 0
M  V30 16133 C 1494.13 -2.0151 -0.199989 0
M  V30 16134 C 1494.46 -1.27058 -1.47263 0
M  V30 16135 O 1493.71 -0.357819 -1.92401 0
M  V30 16136 C 1494.01 -3.53602 -0.519674 0
M  V30 16137 C 1493.68 -4.46032 0.660789 0
M  V30 16138 C 1492.34 -4.71018 0.984646 0
M  V30 16139 C 1494.69 -5.00602 1.45077 0
M  V30 16140 C 1492.02 -5.47824 2.10013 0
M  V30 16141 C 1494.37 -5.78627 2.55682 0
M  V30 16142 C 1493.03 -6.01894 2.88582 0
M  V30 16143 H 1492.3 -0.737377 -0.0731812 0
M  V30 16144 H 1494.95 -1.843 0.520157 0
M  V30 16145 H 1493.26 -3.68856 -1.32108 0
M  V30 16146 H 1494.95 -3.88739 -0.984011 0
M  V30 16147 H 1491.54 -4.26745 0.398359 0
M  V30 16148 H 1495.73 -4.81228 1.21381 0
M  V30 16149 H 1490.98 -5.64066 2.3588 0
M  V30 16150 H 1495.16 -6.19914 3.173 0
M  V30 16151 H 1492.78 -6.61192 3.75138 0
M  V30 16152 N 1494.36 -0.113586 -1.5719 0
M  V30 16153 C 1495.61 0.545507 -1.94183 0
M  V30 16154 C 1495.92 1.68176 -0.998816 0
M  V30 16155 O 1497.13 2.40324 -1.26319 0
M  V30 16156 C 1495.58 1.02178 -3.45091 0
M  V30 16157 C 1495.19 -0.0857195 -4.47918 0
M  V30 16158 C 1496.94 1.65255 -3.91013 0
M  V30 16159 C 1494.84 0.406946 -5.89998 0
M  V30 16160 H 1493.77 0.20755 -0.724872 0
M  V30 16161 H 1496.42 -0.192567 -1.82487 0
M  V30 16162 H 1494.81 1.81411 -3.52003 0
M  V30 16163 H 1495.98 -0.861821 -4.52669 0
M  V30 16164 H 1494.29 -0.622816 -4.11716 0
M  V30 16165 H 1496.89 2.0322 -4.94576 0
M  V30 16166 H 1497.23 2.52888 -3.30687 0
M  V30 16167 H 1497.77 0.925727 -3.86879 0
M  V30 16168 H 1494.51 -0.433199 -6.54067 0
M  V30 16169 H 1494.03 1.14965 -5.88679 0
M  V30 16170 H 1495.71 0.869934 -6.41125 0
M  V30 16171 N 1495.84 1.56784 0.160173 0
M  V30 16172 C 1497.06 1.87129 0.894283 0
M  V30 16173 C 1497.49 0.701172 1.74543 0
M  V30 16174 O 1496.85 -0.349542 1.77899 0
M  V30 16175 C 1496.89 3.15969 1.73769 0
M  V30 16176 O 1496 2.98977 2.84054 0
M  V30 16177 H 1495.34 0.615192 0.249869 0
M  V30 16178 H 1497.87 2.04012 0.154956 0
M  V30 16179 H 1497.88 3.47657 2.13538 0
M  V30 16180 H 1496.55 4.00742 1.11258 0
M  V30 16181 H 1495.13 2.78668 2.47788 0
M  V30 16182 N 1497.32 -0.429099 1.51646 0
M  V30 16183 C 1498.54 -1.20006 1.68541 0
M  V30 16184 C 1498.96 -1.84806 0.386264 0
M  V30 16185 O 1498.32 -1.7106 -0.635988 0
M  V30 16186 C 1498.37 -2.27801 2.80694 0
M  V30 16187 O 1498.09 -1.65649 4.05576 0
M  V30 16188 C 1499.59 -3.17927 3.08929 0
M  V30 16189 H 1496.81 -0.361388 0.565367 0
M  V30 16190 H 1499.35 -0.507432 1.98104 0
M  V30 16191 H 1497.51 -2.92766 2.53706 0
M  V30 16192 H 1497.92 -2.36955 4.67924 0
M  V30 16193 H 1499.4 -3.8968 3.90965 0
M  V30 16194 H 1499.87 -3.79157 2.21668 0
M  V30 16195 H 1500.48 -2.58654 3.37606 0
M  V30 16196 N 1498.79 -1.41931 -0.685074 0
M  V30 16197 C 1500.2 -1.37279 -1.26536 0
M  V30 16198 C 1500.56 -0.0610089 -1.96105 0
M  V30 16199 O 1499.68 0.840508 -1.9941 0
M  V30 16200 C 1500.28 -2.48658 -2.30119 0
M  V30 16201 C 1498.83 -2.47371 -2.83698 0
M  V30 16202 C 1497.98 -2.2797 -1.57876 0
M  V30 16203 H 1500.93 -1.51294 -0.479132 0
M  V30 16204 H 1500.95 -2.18319 -3.11636 0
M  V30 16205 H 1500.47 -3.44118 -1.79456 0
M  V30 16206 H 1498.57 -1.55699 -3.3851 0
M  V30 16207 H 1498.68 -3.44052 -3.33414 0
M  V30 16208 H 1497.04 -1.7604 -1.84071 0
M  V30 16209 H 1497.83 -3.25471 -1.09194 0
M  V30 16210 N 1500.27 0.920374 -1.27933 0
M  V30 16211 C 1501.68 1.48385 -1.13309 0
M  V30 16212 C 1502.03 1.94202 0.279307 0
M  V30 16213 O 1501.16 1.81855 1.17294 0
M  V30 16214 C 1501.75 2.69681 -2.05079 0
M  V30 16215 C 1500.31 3.22229 -1.94539 0
M  V30 16216 C 1499.46 1.94948 -1.97207 0
M  V30 16217 H 1502.41 0.733744 -1.40719 0
M  V30 16218 H 1502.43 3.44717 -1.6109 0
M  V30 16219 H 1501.94 2.36304 -3.07867 0
M  V30 16220 H 1500.04 3.60348 -0.94764 0
M  V30 16221 H 1500.16 3.87927 -2.81157 0
M  V30 16222 H 1498.52 2.1176 -1.41527 0
M  V30 16223 H 1499.3 1.63875 -3.01662 0
M  V30 16224 N 1501.75 1.10074 1.1279 0
M  V30 16225 C 1502.68 0.768146 2.20503 0
M  V30 16226 C 1503.66 -0.257199 1.68144 0
M  V30 16227 O 1504.85 -0.12379 1.93805 0
M  V30 16228 C 1501.98 0.195125 3.46751 0
M  V30 16229 C 1500.93 1.15074 4.1224 0
M  V30 16230 C 1500.26 0.439098 5.32894 0
M  V30 16231 C 1501.56 2.49584 4.58808 0
M  V30 16232 H 1503.25 1.66876 2.48581 0
M  V30 16233 H 1500.8 0.803806 1.19478 0
M  V30 16234 H 1502.75 -0.0496695 4.21371 0
M  V30 16235 H 1501.47 -0.740717 3.1809 0
M  V30 16236 H 1500.13 1.38092 3.39597 0
M  V30 16237 H 1499.78 -0.501096 5.00498 0
M  V30 16238 H 1499.48 1.07632 5.77658 0
M  V30 16239 H 1501 0.202761 6.10263 0
M  V30 16240 H 1502.42 2.30736 5.24818 0
M  V30 16241 H 1500.81 3.09157 5.14336 0
M  V30 16242 H 1501.88 3.09857 3.72984 0
M  V30 16243 N 1503.23 -1.30138 0.888926 0
M  V30 16244 C 1504.47 -1.96279 0.51012 0
M  V30 16245 C 1504.81 -1.69984 -0.939096 0
M  V30 16246 O 1504.08 -1.00677 -1.66416 0
M  V30 16247 C 1504.36 -3.51321 0.790305 0
M  V30 16248 C 1504.22 -3.87116 2.29044 0
M  V30 16249 C 1505.54 -4.39274 0.269477 0
M  V30 16250 H 1502.66 -0.712931 0.18681 0
M  V30 16251 H 1505.3 -1.53942 1.11364 0
M  V30 16252 H 1503.45 -3.87514 0.276647 0
M  V30 16253 H 1505.12 -3.60926 2.87281 0
M  V30 16254 H 1503.36 -3.35044 2.7555 0
M  V30 16255 H 1504.03 -4.95288 2.43708 0
M  V30 16256 H 1506.51 -4.10012 0.709173 0
M  V30 16257 H 1505.39 -5.46665 0.494815 0
M  V30 16258 H 1505.65 -4.3425 -0.829434 0
M  V30 16259 N 1504.71 -0.650285 -1.43559 0
M  V30 16260 C 1506.12 -0.317586 -1.56408 0
M  V30 16261 C 1506.32 1.17844 -1.63447 0
M  V30 16262 O 1505.38 1.96318 -1.58794 0
M  V30 16263 C 1506.69 -1.02636 -2.82642 0
M  V30 16264 C 1508.24 -1.00633 -2.96381 0
M  V30 16265 C 1508.71 -1.69595 -4.25443 0
M  V30 16266 N 1510.2 -1.66345 -4.323 0
M  V30 16267 C 1510.94 -2.16581 -5.30924 0
M  V30 16268 N 1510.44 -2.75092 -6.35843 0
M  V30 16269 N 1512.23 -2.07098 -5.22558 0
M  V30 16270 H 1504.38 -1.62114 -1.37233 0
M  V30 16271 H 1506.64 -0.681588 -0.658895 0
M  V30 16272 H 1506.35 -2.08146 -2.83493 0
M  V30 16273 H 1506.22 -0.576081 -3.72775 0
M  V30 16274 H 1508.61 0.0403519 -2.95072 0
M  V30 16275 H 1508.69 -1.49528 -2.07545 0
M  V30 16276 H 1508.33 -2.74218 -4.27512 0
M  V30 16277 H 1508.26 -1.18168 -5.1317 0
M  V30 16278 H 1510.76 -1.23644 -3.571 0
M  V30 16279 H 1511.07 -3.11108 -7.07412 0
M  V30 16280 H 1509.41 -2.79152 -6.36474 0
M  V30 16281 H 1512.6 -1.61093 -4.39507 0
M  V30 16282 H 1512.78 -2.46557 -5.99261 0
M  V30 16283 N 1506.18 1.52647 -0.392018 0
M  V30 16284 C 1507.11 2.29446 0.433228 0
M  V30 16285 C 1508.09 1.32945 1.06111 0
M  V30 16286 O 1509.28 1.61841 1.07337 0
M  V30 16287 C 1506.41 3.10328 1.55929 0
M  V30 16288 C 1505.36 4.14735 1.05731 0
M  V30 16289 C 1504.69 4.83858 2.27565 0
M  V30 16290 C 1505.99 5.22154 0.123346 0
M  V30 16291 H 1507.68 2.9868 -0.207563 0
M  V30 16292 H 1505.23 1.43643 -0.101266 0
M  V30 16293 H 1507.18 3.62814 2.14346 0
M  V30 16294 H 1505.91 2.38832 2.22771 0
M  V30 16295 H 1504.57 3.63234 0.495653 0
M  V30 16296 H 1504.21 4.08907 2.92923 0
M  V30 16297 H 1503.91 5.54428 1.94637 0
M  V30 16298 H 1505.44 5.39149 2.86619 0
M  V30 16299 H 1506.85 5.69983 0.615784 0
M  V30 16300 H 1505.25 5.99987 -0.116304 0
M  V30 16301 H 1506.32 4.77796 -0.826969 0
M  V30 16302 N 1507.66 0.121921 1.57128 0
M  V30 16303 C 1508.91 -0.536164 1.95584 0
M  V30 16304 C 1509.24 -1.66143 1.0055 0
M  V30 16305 O 1508.52 -1.94452 0.0432427 0
M  V30 16306 C 1508.8 -1.0661 3.43957 0
M  V30 16307 C 1508.65 0.0559458 4.49765 0
M  V30 16308 C 1509.97 -1.95603 3.94243 0
M  V30 16309 H 1507.09 -0.193427 0.711165 0
M  V30 16310 H 1509.73 0.198072 1.88965 0
M  V30 16311 H 1507.88 -1.69181 3.49729 0
M  V30 16312 H 1509.55 0.691357 4.5609 0
M  V30 16313 H 1507.8 0.71868 4.27805 0
M  V30 16314 H 1508.47 -0.356133 5.5085 0
M  V30 16315 H 1510.94 -1.42899 3.90793 0
M  V30 16316 H 1509.82 -2.29599 4.98573 0
M  V30 16317 H 1510.08 -2.88364 3.3511 0
M  V30 16318 N 1509.14 -1.56867 -0.151857 0
M  V30 16319 C 1510.39 -1.83082 -0.865285 0
M  V30 16320 C 1510.72 -0.702056 -1.81387 0
M  V30 16321 O 1509.97 0.309291 -1.9324 0
M  V30 16322 C 1510.27 -3.15597 -1.6773 0
M  V30 16323 C 1509.94 -4.4231 -0.875929 0
M  V30 16324 C 1508.6 -4.76724 -0.654826 0
M  V30 16325 C 1510.95 -5.20246 -0.315162 0
M  V30 16326 C 1508.28 -5.86538 0.13783 0
M  V30 16327 C 1510.63 -6.30892 0.464508 0
M  V30 16328 C 1509.29 -6.63859 0.696233 0
M  V30 16329 H 1508.56 -0.669945 -0.31663 0
M  V30 16330 H 1511.21 -1.91064 -0.129175 0
M  V30 16331 H 1509.52 -3.03044 -2.48338 0
M  V30 16332 H 1511.21 -3.33094 -2.23269 0
M  V30 16333 H 1507.8 -4.15328 -1.05832 0
M  V30 16334 H 1511.99 -4.94038 -0.473273 0
M  V30 16335 H 1507.24 -6.10525 0.32691 0
M  V30 16336 H 1511.42 -6.90479 0.906187 0
M  V30 16337 H 1509.04 -7.48788 1.3123 0
M  V30 16338 N 1510.62 0.421051 -1.51871 0
M  V30 16339 C 1511.57 1.53277 -1.74954 0
M  V30 16340 C 1512.56 1.57792 -0.616282 0
M  V30 16341 O 1513.77 1.61342 -0.798054 0
M  V30 16342 H 1510.14 0.50953 -0.553067 0
M  V30 16343 H 1512.11 1.30988 -2.68113 0
M  V30 16344 C 1510.86 2.90772 -1.90649 0
M  V30 16345 H 1510.18 2.88035 -2.77265 0
M  V30 16346 H 1511.62 3.67882 -2.10805 0
M  V30 16347 C 1510.08 3.30161 -0.670463 0
M  V30 16348 O 1510.61 4.01352 0.167271 0
M  V30 16349 N 1508.82 2.86093 -0.509813 0
M  V30 16350 H 1508.37 2.28329 -1.19262 0
M  V30 16351 H 1508.32 3.12809 0.315918 0
M  V30 16352 N 1512.1 1.42293 0.677538 0
M  V30 16353 C 1513.03 1.48344 1.80323 0
M  V30 16354 C 1514.01 0.340276 1.66662 0
M  V30 16355 O 1515.19 0.554209 1.86124 0
M  V30 16356 C 1512.32 1.38247 3.18599 0
M  V30 16357 C 1511.28 2.50562 3.46991 0
M  V30 16358 C 1510.6 2.25524 4.84812 0
M  V30 16359 C 1511.9 3.92877 3.44158 0
M  V30 16360 H 1513.6 2.42558 1.75516 0
M  V30 16361 H 1511.14 1.16746 0.842999 0
M  V30 16362 H 1513.1 1.41089 3.97079 0
M  V30 16363 H 1511.82 0.405255 3.24076 0
M  V30 16364 H 1510.48 2.47032 2.7087 0
M  V30 16365 H 1510.13 1.26102 4.86937 0
M  V30 16366 H 1509.83 3.00797 5.04772 0
M  V30 16367 H 1511.35 2.3011 5.65581 0
M  V30 16368 H 1512.76 3.98024 4.12613 0
M  V30 16369 H 1511.16 4.6798 3.75653 0
M  V30 16370 H 1512.23 4.19743 2.42783 0
M  V30 16371 N 1513.57 -0.913576 1.28419 0
M  V30 16372 C 1514.82 -1.66519 1.15755 0
M  V30 16373 C 1515.15 -1.91974 -0.293166 0
M  V30 16374 O 1514.43 -1.52025 -1.21321 0
M  V30 16375 C 1514.71 -3.02299 1.95672 0
M  V30 16376 C 1514.56 -2.83996 3.48807 0
M  V30 16377 C 1515.88 -4.02838 1.77226 0
M  V30 16378 H 1513 -0.604309 0.421877 0
M  V30 16379 H 1515.64 -1.05919 1.57737 0
M  V30 16380 H 1513.79 -3.54025 1.59995 0
M  V30 16381 H 1515.47 -2.39279 3.9439 0
M  V30 16382 H 1513.71 -2.19052 3.74431 0
M  V30 16383 H 1514.38 -3.80419 3.99982 0
M  V30 16384 H 1516.86 -3.60174 2.0836 0
M  V30 16385 H 1515.73 -4.95806 2.35515 0
M  V30 16386 H 1515.99 -4.36135 0.723804 0
M  V30 16387 N 1515.05 -1.1067 -1.12204 0
M  V30 16388 C 1516 -0.757745 -2.18007 0
M  V30 16389 C 1516.97 0.26706 -1.63939 0
M  V30 16390 O 1518.15 0.145789 -1.90242 0
M  V30 16391 C 1515.29 -0.198379 -3.44529 0
M  V30 16392 C 1514.41 -1.27878 -4.12639 0
M  V30 16393 C 1513.54 -0.6808 -5.26819 0
M  V30 16394 C 1512.58 -1.74161 -5.868 0
M  V30 16395 N 1511.72 -1.16372 -6.92389 0
M  V30 16396 H 1516.56 -1.66418 -2.47202 0
M  V30 16397 H 1514.1 -0.831216 -1.21364 0
M  V30 16398 H 1516.05 0.143838 -4.16952 0
M  V30 16399 H 1514.68 0.671279 -3.15743 0
M  V30 16400 H 1513.74 -1.73808 -3.38371 0
M  V30 16401 H 1515.05 -2.08169 -4.53285 0
M  V30 16402 H 1514.2 -0.288172 -6.06015 0
M  V30 16403 H 1512.94 0.153521 -4.87458 0
M  V30 16404 H 1511.95 -2.14364 -5.06289 0
M  V30 16405 H 1513.17 -2.57882 -6.28231 0
M  V30 16406 H 1511.12 -0.350899 -6.55061 0
M  V30 16407 H 1511.03 -1.90344 -7.31646 0
M  V30 16408 H 1512.3 -0.797715 -7.75407 0
M  V30 16409 N 1516.53 1.29665 -0.895815 0
M  V30 16410 C 1517.81 1.90601 -0.439394 0
M  V30 16411 C 1518.19 1.81341 1.08068 0
M  V30 16412 O 1517.54 1.23761 1.92082 0
M  V30 16413 C 1517.75 3.35832 -0.949622 0
M  V30 16414 C 1519.09 4.12873 -0.991015 0
M  V30 16415 O 1520.12 3.4472 -0.897025 0
M  V30 16416 O 1518.98 5.34656 -1.1316 0
M  V30 16417 H 1516.07 0.81569 -0.136304 0
M  V30 16418 H 1518.62 1.38157 -0.985426 0
M  V30 16419 H 1517.39 3.36708 -1.99357 0
M  V30 16420 H 1517.01 3.95747 -0.383376 0
M  V30 16421 N 1518.01 0.657889 1.43212 0
M  V30 16422 C 1519.42 0.252443 1.84985 0
M  V30 16423 C 1519.77 -1.20196 1.55072 0
M  V30 16424 O 1518.9 -1.91803 1.00202 0
M  V30 16425 C 1519.49 0.451388 3.3578 0
M  V30 16426 C 1518.05 0.100219 3.76267 0
M  V30 16427 C 1517.2 0.752009 2.66908 0
M  V30 16428 H 1520.15 0.861239 1.33298 0
M  V30 16429 H 1520.17 -0.30169 3.79302 0
M  V30 16430 H 1519.68 1.51001 3.5752 0
M  V30 16431 H 1517.78 -0.955618 3.60137 0
M  V30 16432 H 1517.89 0.528942 4.76171 0
M  V30 16433 H 1516.26 0.184823 2.54029 0
M  V30 16434 H 1517.04 1.81375 2.91476 0
M  V30 16435 N 1519.49 -1.52437 0.400108 0
M  V30 16436 C 1520.74 -2.00896 -0.179909 0
M  V30 16437 C 1521.05 -1.29046 -1.46991 0
M  V30 16438 O 1522.25 -1.68274 -2.13063 0
M  V30 16439 C 1520.71 -3.57981 -0.371169 0
M  V30 16440 C 1520.32 -4.38739 0.906213 0
M  V30 16441 C 1522.06 -4.14698 -0.906965 0
M  V30 16442 C 1519.97 -5.87447 0.682637 0
M  V30 16443 H 1518.9 -0.750649 -0.071008 0
M  V30 16444 H 1521.55 -1.75854 0.524169 0
M  V30 16445 H 1519.93 -3.79315 -1.13736 0
M  V30 16446 H 1521.11 -4.29167 1.67785 0
M  V30 16447 H 1519.42 -3.93296 1.36776 0
M  V30 16448 H 1522.02 -5.2347 -1.09012 0
M  V30 16449 H 1522.36 -3.71477 -1.87911 0
M  V30 16450 H 1522.89 -3.97297 -0.200068 0
M  V30 16451 H 1519.63 -6.35011 1.62608 0
M  V30 16452 H 1519.15 -5.99779 -0.0498716 0
M  V30 16453 H 1520.83 -6.46202 0.321331 0
M  V30 16454 N 1520.96 -0.130252 -1.57061 0
M  V30 16455 C 1521.87 0.829198 -2.19457 0
M  V30 16456 C 1522.89 1.2843 -1.17395 0
M  V30 16457 O 1524.07 1.34496 -1.49909 0
M  V30 16458 C 1521.13 2.05727 -2.79065 0
M  V30 16459 C 1520.19 1.65301 -3.962 0
M  V30 16460 C 1519.43 2.82253 -4.52956 0
M  V30 16461 O 1519.65 3.97999 -4.08598 0
M  V30 16462 O 1518.58 2.5869 -5.43473 0
M  V30 16463 H 1522.41 0.328139 -3.01922 0
M  V30 16464 H 1519.99 0.0959361 -1.49092 0
M  V30 16465 H 1521.88 2.7763 -3.17017 0
M  V30 16466 H 1520.55 2.54817 -1.99624 0
M  V30 16467 H 1519.46 0.904712 -3.62996 0
M  V30 16468 H 1520.79 1.20942 -4.7711 0
M  V30 16469 N 1522.44 1.56945 0.143535 0
M  V30 16470 C 1523.69 1.83176 0.853873 0
M  V30 16471 C 1524.01 0.71168 1.81549 0
M  V30 16472 O 1523.28 -0.266391 1.9408 0
M  V30 16473 H 1521.86 0.675785 0.318313 0
M  V30 16474 H 1524.52 1.9442 0.136712 0
M  V30 16475 H 1523.62 2.7823 1.41402 0
M  V30 16476 N 1523.92 -0.412991 1.52093 0
M  V30 16477 C 1524.83 -1.52768 1.78042 0
M  V30 16478 C 1525.85 -1.60758 0.665791 0
M  V30 16479 O 1527.02 -1.77545 0.950772 0
M  V30 16480 C 1524.09 -2.8854 1.92213 0
M  V30 16481 C 1523.15 -2.90468 3.16112 0
M  V30 16482 C 1522.38 -4.19763 3.29598 0
M  V30 16483 O 1522.61 -5.13454 2.48438 0
M  V30 16484 O 1521.54 -4.2847 4.22726 0
M  V30 16485 H 1525.37 -1.33777 2.72649 0
M  V30 16486 H 1522.95 -0.598461 1.3689 0
M  V30 16487 H 1524.83 -3.69073 2.03379 0
M  V30 16488 H 1523.51 -3.07607 1.00795 0
M  V30 16489 H 1522.41 -2.08801 3.10408 0
M  V30 16490 H 1523.75 -2.76349 4.07298 0
M  V30 16491 N 1525.4 -1.4265 -0.669982 0
M  V30 16492 C 1526.31 -1.48916 -1.81276 0
M  V30 16493 C 1527.33 -0.377523 -1.69855 0
M  V30 16494 O 1528.5 -0.629151 -1.91321 0
M  V30 16495 C 1525.57 -1.39376 -3.17451 0
M  V30 16496 C 1524.63 -2.61072 -3.40793 0
M  V30 16497 C 1523.86 -2.51976 -4.70472 0
M  V30 16498 O 1524.08 -1.55827 -5.48702 0
M  V30 16499 O 1523.02 -3.42193 -4.95164 0
M  V30 16500 H 1526.84 -2.45382 -1.78945 0
M  V30 16501 H 1524.43 -1.24467 -0.826342 0
M  V30 16502 H 1526.31 -1.36435 -3.98702 0
M  V30 16503 H 1524.99 -0.460376 -3.20409 0
M  V30 16504 H 1523.89 -2.69587 -2.59372 0
M  V30 16505 H 1525.23 -3.53325 -3.42669 0
M  V30 16506 N 1526.88 0.906753 -1.28902 0
M  V30 16507 C 1528.11 1.69019 -1.19333 0
M  V30 16508 C 1528.52 1.87176 0.247065 0
M  V30 16509 O 1527.88 1.40376 1.16623 0
M  V30 16510 C 1527.93 3.07854 -1.89495 0
M  V30 16511 O 1527.65 2.90531 -3.27908 0
M  V30 16512 C 1529.15 4.02246 -1.86314 0
M  V30 16513 H 1526.37 0.528119 -0.413922 0
M  V30 16514 H 1528.91 1.13441 -1.70151 0
M  V30 16515 H 1527.07 3.60228 -1.42529 0
M  V30 16516 H 1527.48 3.78451 -3.63146 0
M  V30 16517 H 1528.96 4.97104 -2.39983 0
M  V30 16518 H 1529.43 4.31149 -0.837071 0
M  V30 16519 H 1530.04 3.55803 -2.3299 0
M  V30 16520 N 1528.36 1.11264 1.11616 0
M  V30 16521 C 1529.59 0.881522 1.8685 0
M  V30 16522 C 1529.99 -0.572088 1.80344 0
M  V30 16523 O 1529.34 -1.40665 1.18148 0
M  V30 16524 C 1529.4 1.26245 3.36604 0
M  V30 16525 C 1529.06 2.72485 3.6688 0
M  V30 16526 C 1530.06 3.70708 3.64516 0
M  V30 16527 C 1527.74 3.09086 3.95943 0
M  V30 16528 C 1529.74 5.0355 3.90789 0
M  V30 16529 C 1527.43 4.42114 4.21875 0
M  V30 16530 C 1528.42 5.39155 4.19286 0
M  V30 16531 O 1528.11 6.69787 4.44568 0
M  V30 16532 H 1527.84 0.315647 0.597782 0
M  V30 16533 H 1530.4 1.48317 1.42095 0
M  V30 16534 H 1528.63 0.603938 3.81955 0
M  V30 16535 H 1530.32 1.00744 3.93199 0
M  V30 16536 H 1531.08 3.43776 3.42115 0
M  V30 16537 H 1526.96 2.34171 3.97095 0
M  V30 16538 H 1530.51 5.79285 3.88684 0
M  V30 16539 H 1526.4 4.6878 4.43751 0
M  V30 16540 H 1527.17 6.75548 4.62144 0
M  V30 16541 N 1529.83 -1.29188 0.902679 0
M  V30 16542 C 1531.06 -1.99286 0.544844 0
M  V30 16543 C 1531.47 -1.67721 -0.875572 0
M  V30 16544 O 1530.81 -0.920207 -1.5899 0
M  V30 16545 C 1530.88 -3.53374 0.660849 0
M  V30 16546 C 1530.54 -4.08502 2.04878 0
M  V30 16547 C 1531.54 -4.23173 3.02028 0
M  V30 16548 C 1529.22 -4.43461 2.35897 0
M  V30 16549 C 1531.22 -4.7204 4.28318 0
M  V30 16550 C 1528.9 -4.92024 3.6243 0
M  V30 16551 C 1529.9 -5.06269 4.58455 0
M  V30 16552 O 1529.59 -5.53778 5.8274 0
M  V30 16553 H 1529.32 -0.64339 0.207427 0
M  V30 16554 H 1531.88 -1.6562 1.21487 0
M  V30 16555 H 1530.11 -3.86643 -0.066216 0
M  V30 16556 H 1531.79 -4.04701 0.311732 0
M  V30 16557 H 1532.56 -3.96449 2.79379 0
M  V30 16558 H 1528.44 -4.31631 1.61913 0
M  V30 16559 H 1531.98 -4.83074 5.03275 0
M  V30 16560 H 1527.88 -5.18186 3.84907 0
M  V30 16561 H 1528.65 -5.72086 5.85372 0
M  V30 16562 N 1531.31 -0.665475 -1.42861 0
M  V30 16563 C 1532.56 -0.184156 -2.01962 0
M  V30 16564 C 1532.89 1.20301 -1.52451 0
M  V30 16565 O 1532.17 1.80573 -0.722756 0
M  V30 16566 C 1532.45 -0.208497 -3.59496 0
M  V30 16567 C 1532.3 -1.63045 -4.19209 0
M  V30 16568 C 1533.62 0.448421 -4.3781 0
M  V30 16569 H 1530.74 -0.0683924 -0.73382 0
M  V30 16570 H 1533.38 -0.84849 -1.70002 0
M  V30 16571 H 1531.53 0.357179 -3.86855 0
M  V30 16572 H 1533.2 -2.24766 -4.02837 0
M  V30 16573 H 1531.45 -2.17401 -3.75392 0
M  V30 16574 H 1532.12 -1.59924 -5.28326 0
M  V30 16575 H 1534.59 -0.0330053 -4.16087 0
M  V30 16576 H 1533.47 0.400713 -5.47435 0
M  V30 16577 H 1533.73 1.52454 -4.14982 0
M  V30 16578 N 1532.79 1.52222 -0.408187 0
M  V30 16579 C 1534.07 1.94285 0.22641 0
M  V30 16580 C 1534.45 1.34501 1.62705 0
M  V30 16581 O 1533.79 0.52045 2.22494 0
M  V30 16582 C 1534 3.48217 0.233695 0
M  V30 16583 C 1535.35 4.22171 0.453504 0
M  V30 16584 O 1536.38 3.54821 0.313093 0
M  V30 16585 O 1535.24 5.416 0.730183 0
M  V30 16586 H 1532.33 0.814078 0.145625 0
M  V30 16587 H 1534.88 1.63232 -0.464062 0
M  V30 16588 H 1533.65 3.84111 -0.746644 0
M  V30 16589 H 1533.27 3.85629 0.968305 0
M  V30 16590 N 1534.27 0.138579 1.5699 0
M  V30 16591 C 1535.52 -0.513611 1.95465 0
M  V30 16592 C 1535.84 -1.65952 1.02396 0
M  V30 16593 O 1535.11 -1.9572 0.0839001 0
M  V30 16594 H 1533.69 -0.192729 0.72171 0
M  V30 16595 H 1536.35 0.212107 1.93742 0
M  V30 16596 H 1535.44 -0.895313 2.98983 0
M  V30 16597 N 1535.75 -1.57019 -0.13521 0
M  V30 16598 C 1536.97 -1.88528 -0.864399 0
M  V30 16599 C 1537.4 -0.728852 -1.73405 0
M  V30 16600 O 1536.75 0.321196 -1.78432 0
M  V30 16601 C 1536.8 -3.18694 -1.6872 0
M  V30 16602 O 1535.91 -3.03458 -2.79262 0
M  V30 16603 H 1535.25 -0.61909 -0.24005 0
M  V30 16604 H 1537.78 -2.04233 -0.12248 0
M  V30 16605 H 1537.79 -3.51011 -2.0798 0
M  V30 16606 H 1536.46 -4.02462 -1.04868 0
M  V30 16607 H 1535.04 -2.82575 -2.43323 0
M  V30 16608 N 1537.22 0.404919 -1.52309 0
M  V30 16609 C 1538.46 1.1606 -1.68254 0
M  V30 16610 C 1538.83 1.87663 -0.405788 0
M  V30 16611 O 1540.03 2.65151 -0.441388 0
M  V30 16612 C 1538.3 2.12531 -2.87342 0
M  V30 16613 S 1539.86 2.9615 -3.23791 0
M  V30 16614 H 1536.68 0.393113 -0.592438 0
M  V30 16615 H 1539.28 0.4473 -1.90314 0
M  V30 16616 H 1537.98 1.58623 -3.78506 0
M  V30 16617 H 1537.51 2.88395 -2.67567 0
M  V30 16618 H 1539.53 4.14521 -2.7274 0
M  V30 16619 N 1538.7 1.43003 0.662408 0
M  V30 16620 C 1539.93 1.47766 1.45533 0
M  V30 16621 C 1540.35 0.0940298 1.87865 0
M  V30 16622 O 1539.71 -0.910252 1.56793 0
M  V30 16623 C 1539.76 2.42084 2.6726 0
M  V30 16624 O 1538.86 1.90076 3.65985 0
M  V30 16625 H 1538.2 0.500167 0.436725 0
M  V30 16626 H 1540.73 1.87823 0.811399 0
M  V30 16627 H 1540.74 2.5908 3.15185 0
M  V30 16628 H 1539.42 3.42601 2.3579 0
M  V30 16629 H 1538 1.82695 3.2508 0
M  V30 16630 N 1540.18 -0.899904 1.29381 0
M  V30 16631 C 1541.13 -2.004 1.14493 0
M  V30 16632 C 1542.1 -1.66056 0.0383099 0
M  V30 16633 O 1543.28 -1.89687 0.20579 0
M  V30 16634 C 1540.42 -3.35039 0.827237 0
M  V30 16635 C 1539.54 -3.82166 2.01427 0
M  V30 16636 C 1538.67 -5.0538 1.63598 0
M  V30 16637 C 1537.71 -5.44876 2.78884 0
M  V30 16638 N 1536.85 -6.59276 2.41452 0
M  V30 16639 H 1541.69 -2.12466 2.08955 0
M  V30 16640 H 1539.22 -1.0405 1.03981 0
M  V30 16641 H 1541.18 -4.12511 0.62373 0
M  V30 16642 H 1539.81 -3.227 -0.0804772 0
M  V30 16643 H 1538.86 -3.00731 2.32949 0
M  V30 16644 H 1540.18 -4.07387 2.87814 0
M  V30 16645 H 1539.33 -5.90436 1.39534 0
M  V30 16646 H 1538.07 -4.81998 0.743593 0
M  V30 16647 H 1537.07 -4.58355 3.0363 0
M  V30 16648 H 1538.3 -5.7024 3.68786 0
M  V30 16649 H 1536.24 -6.37498 1.54701 0
M  V30 16650 H 1536.16 -6.84293 3.21372 0
M  V30 16651 H 1537.43 -7.47602 2.20708 0
M  V30 16652 N 1541.66 -1.11854 -1.11024 0
M  V30 16653 C 1542.59 -0.738635 -2.16972 0
M  V30 16654 C 1543.6 0.231814 -1.61141 0
M  V30 16655 O 1544.79 0.0140607 -1.78494 0
M  V30 16656 C 1541.89 -0.0715797 -3.38824 0
M  V30 16657 C 1541.07 -1.06995 -4.24112 0
M  V30 16658 C 1540.12 -0.431644 -5.24427 0
M  V30 16659 O 1539.15 -1.08685 -5.58727 0
M  V30 16660 N 1540.35 0.803593 -5.74911 0
M  V30 16661 H 1543.12 -1.65025 -2.50174 0
M  V30 16662 H 1540.68 -1.00933 -1.26586 0
M  V30 16663 H 1542.67 0.367274 -4.0303 0
M  V30 16664 H 1541.24 0.742686 -3.03649 0
M  V30 16665 H 1540.46 -1.68662 -3.56296 0
M  V30 16666 H 1541.75 -1.74525 -4.77931 0
M  V30 16667 H 1541.15 1.355 -5.49232 0
M  V30 16668 H 1539.7 1.18536 -6.40931 0
M  V30 16669 N 1543.14 1.28707 -0.909517 0
M  V30 16670 C 1544.36 1.99821 -0.555557 0
M  V30 16671 C 1544.79 1.67549 0.854931 0
M  V30 16672 O 1544.14 0.905521 1.57067 0
M  V30 16673 C 1544.19 3.52361 -0.766438 0
M  V30 16674 O 1543.3 4.12022 0.17654 0
M  V30 16675 H 1542.64 0.627918 -0.215905 0
M  V30 16676 H 1545.17 1.63965 -1.2238 0
M  V30 16677 H 1545.18 4.02379 -0.674894 0
M  V30 16678 H 1543.85 3.75184 -1.7947 0
M  V30 16679 H 1542.43 3.72882 0.0366216 0
M  V30 16680 N 1544.61 0.673042 1.42506 0
M  V30 16681 C 1545.56 -0.00638067 2.30799 0
M  V30 16682 C 1546.53 -0.794524 1.45865 0
M  V30 16683 O 1547.72 -0.767129 1.74699 0
M  V30 16684 C 1544.86 -0.952923 3.31683 0
M  V30 16685 C 1543.97 -0.158787 4.31708 0
M  V30 16686 C 1543.1 -1.10092 5.19666 0
M  V30 16687 C 1542.14 -0.29837 6.11372 0
M  V30 16688 N 1541.28 -1.19312 6.91888 0
M  V30 16689 H 1546.12 0.75237 2.88346 0
M  V30 16690 H 1543.66 0.382763 1.42033 0
M  V30 16691 H 1545.62 -1.51552 3.887 0
M  V30 16692 H 1544.25 -1.67832 2.75739 0
M  V30 16693 H 1543.3 0.520406 3.76823 0
M  V30 16694 H 1544.61 0.464385 4.96634 0
M  V30 16695 H 1543.76 -1.7335 5.81407 0
M  V30 16696 H 1542.5 -1.75798 4.54914 0
M  V30 16697 H 1541.51 0.347437 5.48701 0
M  V30 16698 H 1542.73 0.354569 6.78174 0
M  V30 16699 H 1540.68 -1.83661 6.29765 0
M  V30 16700 H 1540.6 -0.624986 7.53412 0
M  V30 16701 H 1541.86 -1.81323 7.58118 0
M  V30 16702 N 1546.09 -1.52004 0.416254 0
M  V30 16703 C 1547 -2.30947 -0.412403 0
M  V30 16704 C 1548.02 -1.38969 -1.04707 0
M  V30 16705 O 1549.19 -1.72044 -1.04703 0
M  V30 16706 C 1546.26 -3.12078 -1.51024 0
M  V30 16707 C 1545.32 -4.19805 -0.897892 0
M  V30 16708 C 1544.55 -4.97059 -1.94341 0
M  V30 16709 O 1544.78 -4.74695 -3.16261 0
M  V30 16710 O 1543.71 -5.81715 -1.54567 0
M  V30 16711 H 1547.54 -3.02817 0.231473 0
M  V30 16712 H 1545.12 -1.4832 0.179283 0
M  V30 16713 H 1547 -3.6258 -2.14741 0
M  V30 16714 H 1545.68 -2.42995 -2.13858 0
M  V30 16715 H 1544.59 -3.73433 -0.223236 0
M  V30 16716 H 1545.92 -4.91201 -0.31336 0
M  V30 16717 N 1547.57 -0.146903 -1.56914 0
M  V30 16718 C 1548.82 0.503237 -1.95734 0
M  V30 16719 C 1549.14 1.65407 -1.03275 0
M  V30 16720 O 1548.41 1.95673 -0.0942784 0
M  V30 16721 H 1546.99 0.188899 -0.722721 0
M  V30 16722 H 1549.65 -0.222379 -1.93627 0
M  V30 16723 H 1548.75 0.879445 -2.99453 0
M  V30 16724 N 1549.05 1.57088 0.126881 0
M  V30 16725 C 1550 1.99764 1.15599 0
M  V30 16726 C 1550.97 0.868468 1.41587 0
M  V30 16727 O 1552.15 1.13209 1.53585 0
M  V30 16728 C 1549.29 2.40038 2.47943 0
M  V30 16729 C 1548.4 3.66336 2.28958 0
M  V30 16730 C 1547.54 3.95626 3.54477 0
M  V30 16731 C 1546.58 5.15131 3.30616 0
M  V30 16732 N 1545.71 5.4033 4.48317 0
M  V30 16733 H 1550.55 2.87473 0.785078 0
M  V30 16734 H 1548.09 1.42209 0.376169 0
M  V30 16735 H 1550.05 2.61423 3.25136 0
M  V30 16736 H 1548.68 1.55382 2.82942 0
M  V30 16737 H 1547.73 3.52612 1.4272 0
M  V30 16738 H 1549.04 4.53684 2.07298 0
M  V30 16739 H 1548.2 4.17617 4.40092 0
M  V30 16740 H 1546.94 3.06738 3.79161 0
M  V30 16741 H 1545.94 4.92992 2.43391 0
M  V30 16742 H 1547.17 6.05588 3.0731 0
M  V30 16743 H 1545.11 4.54399 4.73136 0
M  V30 16744 H 1545.03 6.21985 4.29733 0
M  V30 16745 H 1546.3 5.66835 5.35088 0
M  V30 16746 N 1550.53 -0.396836 1.52522 0
M  V30 16747 C 1551.49 -1.46695 1.76106 0
M  V30 16748 C 1552.49 -1.47902 0.631005 0
M  V30 16749 O 1553.68 -1.4921 0.898995 0
M  V30 16750 C 1550.81 -2.86033 1.85467 0
M  V30 16751 H 1552 -1.27071 2.71649 0
M  V30 16752 H 1549.56 -0.628096 1.43125 0
M  V30 16753 H 1550.29 -3.11012 0.918816 0
M  V30 16754 H 1550.08 -2.86559 2.67631 0
M  V30 16755 H 1551.57 -3.63587 2.05412 0
M  V30 16756 N 1552.01 -1.43353 -0.654814 0
M  V30 16757 C 1553.25 -1.44599 -1.41193 0
M  V30 16758 C 1553.57 -0.0707955 -1.94871 0
M  V30 16759 O 1552.84 0.893637 -1.7433 0
M  V30 16760 H 1551.42 -0.532373 -0.524011 0
M  V30 16761 H 1554.09 -1.78942 -0.772388 0
M  V30 16762 H 1553.18 -2.15761 -2.25508 0
M  V30 16763 N 1553.48 0.89303 -1.29857 0
M  V30 16764 C 1554.71 1.675 -1.20943 0
M  V30 16765 C 1555.12 1.87779 0.231435 0
M  V30 16766 O 1554.46 1.41955 1.16596 0
M  V30 16767 C 1554.53 3.07722 -1.8587 0
M  V30 16768 C 1554.19 3.10647 -3.35182 0
M  V30 16769 C 1555.19 2.903 -4.31303 0
M  V30 16770 C 1552.87 3.32501 -3.76495 0
M  V30 16771 C 1554.87 2.91749 -5.66711 0
M  V30 16772 C 1552.55 3.33581 -5.12022 0
M  V30 16773 C 1553.55 3.13228 -6.06941 0
M  V30 16774 O 1553.24 3.14109 -7.39994 0
M  V30 16775 H 1552.97 0.529708 -0.419982 0
M  V30 16776 H 1555.53 1.12466 -1.71874 0
M  V30 16777 H 1553.76 3.64386 -1.29459 0
M  V30 16778 H 1555.44 3.68035 -1.71187 0
M  V30 16779 H 1556.21 2.73221 -4.00718 0
M  V30 16780 H 1552.09 3.47381 -3.03064 0
M  V30 16781 H 1555.63 2.75782 -6.40773 0
M  V30 16782 H 1551.53 3.50193 -5.4225 0
M  V30 16783 H 1552.3 3.3033 -7.48882 0
M  V30 16784 N 1554.96 1.12442 1.10429 0
M  V30 16785 C 1556.21 0.874466 1.81758 0
M  V30 16786 C 1556.52 -0.601487 1.86122 0
M  V30 16787 O 1557.73 -0.968037 2.53656 0
M  V30 16788 C 1556.19 1.51478 3.2647 0
M  V30 16789 C 1555.79 3.02552 3.30403 0
M  V30 16790 C 1557.54 1.34511 4.02625 0
M  V30 16791 C 1555.44 3.59518 4.69575 0
M  V30 16792 H 1554.37 0.323494 0.681078 0
M  V30 16793 H 1557.03 1.35091 1.24188 0
M  V30 16794 H 1555.41 0.966 3.84037 0
M  V30 16795 H 1556.58 3.63924 2.82659 0
M  V30 16796 H 1554.9 3.18917 2.67733 0
M  V30 16797 H 1557.49 1.74492 5.05427 0
M  V30 16798 H 1557.84 0.288788 4.15297 0
M  V30 16799 H 1558.37 1.86311 3.51473 0
M  V30 16800 H 1555.11 4.6491 4.62103 0
M  V30 16801 H 1554.63 3.02922 5.17686 0
M  V30 16802 H 1556.31 3.58581 5.38543 0
M  V30 16803 N 1556.44 -1.28223 0.91633 0
M  V30 16804 C 1557.67 -1.98986 0.566772 0
M  V30 16805 C 1558.08 -1.68455 -0.852553 0
M  V30 16806 O 1557.44 -0.938734 -1.56506 0
M  V30 16807 C 1557.49 -3.53217 0.769423 0
M  V30 16808 O 1557.21 -3.82674 2.1329 0
M  V30 16809 C 1558.71 -4.41238 0.427043 0
M  V30 16810 H 1555.93 -0.63534 0.215834 0
M  V30 16811 H 1558.48 -1.63357 1.23024 0
M  V30 16812 H 1556.63 -3.87098 0.152915 0
M  V30 16813 H 1557.05 -4.77302 2.17448 0
M  V30 16814 H 1558.52 -5.48512 0.619594 0
M  V30 16815 H 1559 -4.34558 -0.63686 0
M  V30 16816 H 1559.6 -4.12858 1.0212 0
M  V30 16817 N 1557.92 -0.68059 -1.42147 0
M  V30 16818 C 1559.19 -0.133957 -1.95141 0
M  V30 16819 C 1559.57 1.3526 -1.62074 0
M  V30 16820 O 1558.92 2.09165 -0.919898 0
M  V30 16821 C 1559.13 -0.409266 -3.46592 0
M  V30 16822 C 1560.48 -0.328899 -4.23324 0
M  V30 16823 O 1561.5 -0.343337 -3.54541 0
M  V30 16824 O 1560.36 -0.276076 -5.45802 0
M  V30 16825 H 1557.46 -0.00623443 -0.826977 0
M  V30 16826 H 1560 -0.755719 -1.51944 0
M  V30 16827 H 1558.78 -1.43883 -3.63887 0
M  V30 16828 H 1558.4 0.244216 -3.96849 0
M  V30 16829 N 1559.4 1.51781 -0.424309 0
M  V30 16830 C 1560.81 1.59419 -0.0759329 0
M  V30 16831 C 1561.01 1.43616 1.41339 0
M  V30 16832 O 1560.07 1.27078 2.18191 0
M  V30 16833 C 1561.38 2.94966 -0.584411 0
M  V30 16834 C 1562.93 3.08241 -0.54371 0
M  V30 16835 C 1563.4 4.46292 -1.02895 0
M  V30 16836 N 1564.89 4.52575 -0.986392 0
M  V30 16837 C 1565.63 5.57694 -1.33286 0
M  V30 16838 N 1565.13 6.70293 -1.75154 0
M  V30 16839 N 1566.92 5.47983 -1.25186 0
M  V30 16840 H 1559.07 1.60299 -1.39349 0
M  V30 16841 H 1561.33 0.75492 -0.573411 0
M  V30 16842 H 1561.04 3.11859 -1.62593 0
M  V30 16843 H 1560.91 3.772 -0.00224435 0
M  V30 16844 H 1563.3 2.91024 0.488798 0
M  V30 16845 H 1563.38 2.27878 -1.16212 0
M  V30 16846 H 1563.02 4.64255 -2.05986 0
M  V30 16847 H 1562.95 5.25175 -0.387202 0
M  V30 16848 H 1565.45 3.71754 -0.678765 0
M  V30 16849 H 1565.76 7.46508 -1.99863 0
M  V30 16850 H 1564.1 6.71535 -1.79071 0
M  V30 16851 H 1567.29 4.58899 -0.923525 0
M  V30 16852 H 1567.47 6.29796 -1.52517 0
M  V30 16853 N 1560.87 0.155222 1.56834 0
M  V30 16854 C 1562.12 -0.49285 1.95998 0
M  V30 16855 C 1562.44 -1.64857 1.0415 0
M  V30 16856 O 1561.71 -1.9562 0.104654 0
M  V30 16857 H 1560.29 -0.185063 0.723713 0
M  V30 16858 H 1562.95 0.232644 1.93507 0
M  V30 16859 H 1562.05 -0.863552 2.99915 0
M  V30 16860 N 1562.35 -1.57153 -0.118549 0
M  V30 16861 C 1563.3 -2.00374 -1.14538 0
M  V30 16862 C 1564.27 -0.875964 -1.41124 0
M  V30 16863 O 1565.45 -1.14022 -1.52982 0
M  V30 16864 C 1562.59 -2.4135 -2.46666 0
M  V30 16865 C 1561.71 -3.67545 -2.27012 0
M  V30 16866 C 1560.84 -3.975 -3.52374 0
M  V30 16867 C 1559.88 -5.16877 -3.27879 0
M  V30 16868 N 1559.02 -5.427 -4.45445 0
M  V30 16869 H 1563.86 -2.87885 -0.769821 0
M  V30 16870 H 1561.39 -1.42406 -0.368622 0
M  V30 16871 H 1563.35 -2.63144 -3.23745 0
M  V30 16872 H 1561.98 -1.5688 -2.82114 0
M  V30 16873 H 1561.03 -3.53364 -1.40848 0
M  V30 16874 H 1562.35 -4.54777 -2.04889 0
M  V30 16875 H 1561.5 -4.19945 -4.37871 0
M  V30 16876 H 1560.24 -3.08745 -3.77529 0
M  V30 16877 H 1559.24 -4.94276 -2.40773 0
M  V30 16878 H 1560.47 -6.0721 -3.04094 0
M  V30 16879 H 1558.42 -4.56902 -4.70719 0
M  V30 16880 H 1558.33 -6.24256 -4.26428 0
M  V30 16881 H 1559.6 -5.69664 -5.32074 0
M  V30 16882 N 1563.83 0.388742 -1.5273 0
M  V30 16883 C 1565.11 1.14799 -1.58368 0
M  V30 16884 C 1565.49 2.07706 -0.377018 0
M  V30 16885 O 1564.83 2.1951 0.634634 0
M  V30 16886 C 1565.04 1.90745 -2.92262 0
M  V30 16887 C 1566.39 2.46098 -3.46007 0
M  V30 16888 O 1567.42 2.00901 -2.94138 0
M  V30 16889 O 1566.28 3.28658 -4.3663 0
M  V30 16890 H 1563.37 0.52529 -0.638748 0
M  V30 16891 H 1565.92 0.393874 -1.65066 0
M  V30 16892 H 1564.69 1.22806 -3.7153 0
M  V30 16893 H 1564.31 2.73118 -2.88951 0
M  V30 16894 N 1565.31 1.43698 0.647203 0
M  V30 16895 C 1566.25 1.49323 1.75987 0
M  V30 16896 C 1567.22 0.342379 1.62533 0
M  V30 16897 O 1568.41 0.550379 1.8269 0
M  V30 16898 C 1565.55 1.428 3.14169 0
M  V30 16899 C 1564.66 2.68136 3.38714 0
M  V30 16900 C 1563.8 2.53559 4.66778 0
M  V30 16901 C 1562.84 3.74135 4.84447 0
M  V30 16902 N 1561.97 3.58332 6.03774 0
M  V30 16903 H 1566.81 2.44395 1.70514 0
M  V30 16904 H 1564.35 1.21309 0.832021 0
M  V30 16905 H 1566.31 1.37011 3.94061 0
M  V30 16906 H 1564.94 0.513057 3.18697 0
M  V30 16907 H 1563.99 2.84179 2.52877 0
M  V30 16908 H 1565.3 3.57684 3.47654 0
M  V30 16909 H 1564.46 2.45513 5.54805 0
M  V30 16910 H 1563.2 1.61545 4.60168 0
M  V30 16911 H 1562.2 3.82584 3.94854 0
M  V30 16912 H 1563.43 4.67165 4.92883 0
M  V30 16913 H 1561.37 2.69057 5.98284 0
M  V30 16914 H 1561.29 4.41485 6.13699 0
M  V30 16915 H 1562.56 3.54148 6.94406 0
M  V30 16916 N 1566.79 -0.886131 1.30328 0
M  V30 16917 C 1568.03 -1.64026 1.19261 0
M  V30 16918 C 1568.37 -1.92553 -0.252379 0
M  V30 16919 O 1567.64 -1.54564 -1.18069 0
M  V30 16920 C 1567.92 -2.9808 2.0204 0
M  V30 16921 C 1567.78 -2.76534 3.54752 0
M  V30 16922 C 1569.1 -3.98989 1.85731 0
M  V30 16923 H 1566.21 -0.595224 0.4346 0
M  V30 16924 H 1568.86 -1.0255 1.59949 0
M  V30 16925 H 1567.01 -3.50552 1.67469 0
M  V30 16926 H 1568.68 -2.3086 3.99376 0
M  V30 16927 H 1566.92 -2.1106 3.78993 0
M  V30 16928 H 1567.59 -3.71849 4.07961 0
M  V30 16929 H 1570.07 -3.55673 2.15953 0
M  V30 16930 H 1568.94 -4.90699 2.45979 0
M  V30 16931 H 1569.21 -4.34501 0.816152 0
M  V30 16932 N 1568.26 -1.13026 -1.09832 0
M  V30 16933 C 1569.21 -0.803817 -2.1635 0
M  V30 16934 C 1570.18 0.232226 -1.64469 0
M  V30 16935 O 1571.37 0.105403 -1.90509 0
M  V30 16936 C 1568.51 -0.271414 -3.44031 0
M  V30 16937 C 1567.62 -1.36602 -4.09834 0
M  V30 16938 C 1566.75 -0.792393 -5.25257 0
M  V30 16939 C 1565.79 -1.86569 -5.82974 0
M  V30 16940 N 1564.93 -1.31032 -6.89764 0
M  V30 16941 H 1569.77 -1.71624 -2.43617 0
M  V30 16942 H 1567.31 -0.856772 -1.19574 0
M  V30 16943 H 1569.27 0.0553638 -4.17163 0
M  V30 16944 H 1567.9 0.604154 -3.17096 0
M  V30 16945 H 1566.95 -1.80946 -3.34608 0
M  V30 16946 H 1568.26 -2.17737 -4.48767 0
M  V30 16947 H 1567.41 -0.416652 -6.05268 0
M  V30 16948 H 1566.15 0.0500894 -4.87674 0
M  V30 16949 H 1565.16 -2.25054 -5.01628 0
M  V30 16950 H 1566.38 -2.7115 -6.22619 0
M  V30 16951 H 1564.33 -0.489768 -6.54169 0
M  V30 16952 H 1564.25 -2.0582 -7.27444 0
M  V30 16953 H 1565.51 -0.962011 -7.73541 0
M  V30 16954 N 1569.74 1.27735 -0.923117 0
M  V30 16955 C 1570.99 1.94858 -0.56198 0
M  V30 16956 C 1571.32 1.72414 0.893698 0
M  V30 16957 O 1570.6 1.05054 1.63689 0
M  V30 16958 C 1570.88 3.49102 -0.883173 0
M  V30 16959 C 1570.73 3.80908 -2.39227 0
M  V30 16960 C 1572.05 4.38405 -0.385848 0
M  V30 16961 H 1569.17 0.707728 -0.205646 0
M  V30 16962 H 1571.81 1.50935 -1.15406 0
M  V30 16963 H 1569.96 3.86644 -0.379292 0
M  V30 16964 H 1571.63 3.53182 -2.96749 0
M  V30 16965 H 1569.88 3.2762 -2.84337 0
M  V30 16966 H 1570.55 4.88653 -2.56754 0
M  V30 16967 H 1573.02 4.07988 -0.817631 0
M  V30 16968 H 1571.9 5.45161 -0.63958 0
M  V30 16969 H 1572.16 4.36296 0.714009 0
M  V30 16970 N 1571.22 0.688118 1.41784 0
M  V30 16971 C 1572.15 0.0323199 2.33478 0
M  V30 16972 C 1573.13 -0.775145 1.51412 0
M  V30 16973 O 1574.32 -0.72962 1.79973 0
M  V30 16974 C 1571.45 -0.910141 3.35162 0
M  V30 16975 C 1570.4 -0.210312 4.27483 0
M  V30 16976 C 1569.73 -1.26662 5.19481 0
M  V30 16977 C 1571.03 0.918839 5.14154 0
M  V30 16978 H 1572.72 0.798138 2.88566 0
M  V30 16979 H 1570.27 0.385262 1.38751 0
M  V30 16980 H 1572.22 -1.3781 3.98229 0
M  V30 16981 H 1570.94 -1.70754 2.78408 0
M  V30 16982 H 1569.6 0.237544 3.6583 0
M  V30 16983 H 1569.25 -2.05635 4.59046 0
M  V30 16984 H 1568.95 -0.803416 5.82082 0
M  V30 16985 H 1570.47 -1.73524 5.85424 0
M  V30 16986 H 1571.89 0.531499 5.70831 0
M  V30 16987 H 1570.29 1.30867 5.85657 0
M  V30 16988 H 1571.36 1.7618 4.51762 0
M  V30 16989 N 1572.7 -1.51554 0.432352 0
M  V30 16990 C 1573.61 -2.31371 -0.387885 0
M  V30 16991 C 1574.62 -1.40072 -1.03227 0
M  V30 16992 O 1575.8 -1.73145 -1.02873 0
M  V30 16993 C 1572.87 -3.13662 -1.47705 0
M  V30 16994 C 1571.93 -4.20734 -0.853315 0
M  V30 16995 C 1571.16 -4.99092 -1.89058 0
M  V30 16996 O 1571.38 -4.78022 -3.11209 0
M  V30 16997 O 1570.32 -5.83322 -1.48389 0
M  V30 16998 H 1574.14 -3.02554 0.263578 0
M  V30 16999 H 1571.73 -1.48122 0.195004 0
M  V30 17000 H 1573.61 -3.64837 -2.10884 0
M  V30 17001 H 1572.28 -2.45249 -2.11269 0
M  V30 17002 H 1571.19 -3.73649 -0.183616 0
M  V30 17003 H 1572.52 -4.91506 -0.261244 0
M  V30 17004 N 1574.18 -0.163538 -1.56749 0
M  V30 17005 C 1575.11 0.801071 -2.14745 0
M  V30 17006 C 1576.12 1.1992 -1.10104 0
M  V30 17007 O 1577.31 1.14041 -1.37321 0
M  V30 17008 C 1574.41 2.08867 -2.66886 0
M  V30 17009 C 1573.58 1.85532 -3.96102 0
M  V30 17010 C 1572.64 2.98436 -4.33385 0
M  V30 17011 O 1571.67 2.69408 -5.01406 0
M  V30 17012 N 1572.87 4.26029 -3.94309 0
M  V30 17013 H 1575.64 0.3053 -2.98141 0
M  V30 17014 H 1573.2 0.019501 -1.61888 0
M  V30 17015 H 1575.19 2.83477 -2.8883 0
M  V30 17016 H 1573.76 2.49657 -1.88122 0
M  V30 17017 H 1572.98 0.94868 -3.82614 0
M  V30 17018 H 1574.27 1.673 -4.80508 0
M  V30 17019 H 1573.66 4.52475 -3.39533 0
M  V30 17020 H 1572.22 4.97367 -4.21271 0
M  V30 17021 N 1575.65 1.57214 0.110213 0
M  V30 17022 C 1576.88 1.89505 0.830391 0
M  V30 17023 C 1577.3 0.755702 1.73016 0
M  V30 17024 O 1576.65 -0.273072 1.80445 0
M  V30 17025 C 1576.71 3.21316 1.65646 0
M  V30 17026 O 1576.43 4.30865 0.7929 0
M  V30 17027 C 1577.93 3.67369 2.48102 0
M  V30 17028 H 1575.15 0.627277 0.238252 0
M  V30 17029 H 1577.69 2.04293 0.0919716 0
M  V30 17030 H 1575.85 3.08171 2.34754 0
M  V30 17031 H 1576.26 5.06466 1.36353 0
M  V30 17032 H 1577.73 4.62335 3.0158 0
M  V30 17033 H 1578.21 2.94459 3.25869 0
M  V30 17034 H 1578.82 3.83331 1.8422 0
M  V30 17035 N 1577.13 -0.380637 1.52934 0
M  V30 17036 C 1578.36 -1.14583 1.72274 0
M  V30 17037 C 1578.78 -1.83484 0.444864 0
M  V30 17038 O 1578.13 -1.72997 -0.581245 0
M  V30 17039 C 1578.18 -2.18756 2.87799 0
M  V30 17040 O 1577.9 -1.52662 4.10641 0
M  V30 17041 C 1579.41 -3.07938 3.18887 0
M  V30 17042 H 1576.63 -0.343218 0.576578 0
M  V30 17043 H 1579.17 -0.444149 1.99619 0
M  V30 17044 H 1577.32 -2.84546 2.62892 0
M  V30 17045 H 1577.74 -2.21949 4.75225 0
M  V30 17046 H 1579.21 -3.77045 4.03164 0
M  V30 17047 H 1579.69 -3.71913 2.33618 0
M  V30 17048 H 1580.3 -2.47783 3.45664 0
M  V30 17049 N 1578.61 -1.44039 -0.639573 0
M  V30 17050 C 1579.56 -1.50541 -1.77314 0
M  V30 17051 C 1580.55 -0.37781 -1.65133 0
M  V30 17052 O 1581.76 -0.552396 -1.71314 0
M  V30 17053 H 1578.13 -0.472221 -0.585245 0
M  V30 17054 H 1580.1 -2.45964 -1.68951 0
M  V30 17055 C 1578.85 -1.45868 -3.15623 0
M  V30 17056 H 1578.18 -2.31946 -3.25639 0
M  V30 17057 H 1579.62 -1.54479 -3.94857 0
M  V30 17058 C 1578.08 -0.178204 -3.36428 0
M  V30 17059 O 1578.61 0.755017 -3.94541 0
M  V30 17060 N 1576.81 -0.0840295 -2.90478 0
M  V30 17061 H 1576.36 -0.844281 -2.43371 0
M  V30 17062 H 1576.32 0.771988 -3.04775 0
M  V30 17063 N 1580.09 0.879207 -1.30796 0
M  V30 17064 C 1581.02 1.99134 -1.13482 0
M  V30 17065 C 1582.03 1.6262 -0.0764492 0
M  V30 17066 O 1583.22 1.75553 -0.323038 0
M  V30 17067 C 1580.32 3.31386 -0.709706 0
M  V30 17068 C 1579.5 3.963 -1.85108 0
M  V30 17069 C 1578.55 5.06858 -1.41356 0
M  V30 17070 O 1577.58 5.28178 -2.12172 0
M  V30 17071 N 1578.78 5.79746 -0.295789 0
M  V30 17072 H 1581.55 2.14536 -2.09271 0
M  V30 17073 H 1579.11 1.05264 -1.23009 0
M  V30 17074 H 1581.1 4.02719 -0.399903 0
M  V30 17075 H 1579.67 3.12209 0.156309 0
M  V30 17076 H 1578.89 3.18065 -2.3287 0
M  V30 17077 H 1580.18 4.36408 -2.61582 0
M  V30 17078 H 1579.58 5.64935 0.294166 0
M  V30 17079 H 1578.13 6.51784 -0.0454707 0
M  V30 17080 N 1581.57 1.13606 1.09231 0
M  V30 17081 C 1582.5 0.77306 2.15769 0
M  V30 17082 C 1583.51 -0.206148 1.6149 0
M  V30 17083 O 1584.7 0.014338 1.78494 0
M  V30 17084 C 1581.8 0.125475 3.38668 0
M  V30 17085 C 1580.97 1.13728 4.22356 0
M  V30 17086 C 1580.03 0.515021 5.23674 0
M  V30 17087 O 1579.06 1.1756 5.56928 0
M  V30 17088 N 1580.26 -0.712028 5.76117 0
M  V30 17089 H 1583.03 1.68984 2.47517 0
M  V30 17090 H 1580.59 1.02935 1.24964 0
M  V30 17091 H 1582.58 -0.303109 4.03563 0
M  V30 17092 H 1581.15 -0.694284 3.04792 0
M  V30 17093 H 1580.37 1.74309 3.53568 0
M  V30 17094 H 1581.66 1.82106 4.75094 0
M  V30 17095 H 1581.06 -1.26745 5.51319 0
M  V30 17096 H 1579.61 -1.08324 6.42736 0
M  V30 17097 N 1583.05 -1.27244 0.929878 0
M  V30 17098 C 1584.01 -2.25028 0.435315 0
M  V30 17099 C 1585.01 -1.54453 -0.447332 0
M  V30 17100 O 1586.2 -1.72424 -0.248105 0
M  V30 17101 C 1583.33 -3.38843 -0.373933 0
M  V30 17102 H 1584.52 -2.70293 1.2993 0
M  V30 17103 H 1582.08 -1.39204 0.710771 0
M  V30 17104 H 1582.81 -2.98963 -1.25664 0
M  V30 17105 H 1582.6 -3.91244 0.258946 0
M  V30 17106 H 1584.09 -4.11516 -0.710255 0
M  V30 17107 N 1584.52 -0.695628 -1.41417 0
M  V30 17108 C 1585.43 -0.0308378 -2.3458 0
M  V30 17109 C 1586.45 0.766 -1.56232 0
M  V30 17110 O 1587.63 0.703548 -1.88712 0
M  V30 17111 C 1584.69 0.894162 -3.34971 0
M  V30 17112 C 1583.75 0.0895231 -4.29207 0
M  V30 17113 C 1582.98 0.970467 -5.24802 0
M  V30 17114 O 1583.21 2.20997 -5.25848 0
M  V30 17115 O 1582.14 0.420114 -6.00432 0
M  V30 17116 H 1585.97 -0.798775 -2.93007 0
M  V30 17117 H 1583.55 -0.455964 -1.42272 0
M  V30 17118 H 1585.43 1.42458 -3.9659 0
M  V30 17119 H 1584.11 1.64159 -2.78987 0
M  V30 17120 H 1583.02 -0.4855 -3.70936 0
M  V30 17121 H 1584.35 -0.619241 -4.88289 0
M  V30 17122 N 1586 1.51322 -0.440383 0
M  V30 17123 C 1586.93 2.30708 0.360013 0
M  V30 17124 C 1587.91 1.36254 1.01828 0
M  V30 17125 O 1589.1 1.65174 1.02134 0
M  V30 17126 C 1586.23 3.15132 1.45977 0
M  V30 17127 C 1585.18 4.17889 0.924825 0
M  V30 17128 C 1584.51 4.90853 2.12056 0
M  V30 17129 C 1585.81 5.22282 -0.0428362 0
M  V30 17130 H 1587.5 2.97868 -0.30248 0
M  V30 17131 H 1585.05 1.43249 -0.146914 0
M  V30 17132 H 1587 3.69449 2.02695 0
M  V30 17133 H 1585.72 2.45798 2.1506 0
M  V30 17134 H 1584.38 3.64627 0.379842 0
M  V30 17135 H 1584.03 4.1802 2.79765 0
M  V30 17136 H 1583.73 5.60339 1.769 0
M  V30 17137 H 1585.26 5.47995 2.69322 0
M  V30 17138 H 1586.67 5.71654 0.434137 0
M  V30 17139 H 1585.07 5.99314 -0.307126 0
M  V30 17140 H 1586.14 4.74923 -0.978557 0
M  V30 17141 N 1587.48 0.171848 1.5666 0
M  V30 17142 C 1588.39 -0.770721 2.21579 0
M  V30 17143 C 1589.41 -1.25273 1.20759 0
M  V30 17144 O 1590.58 -1.30474 1.53422 0
M  V30 17145 C 1587.65 -1.98256 2.84422 0
M  V30 17146 C 1586.71 -1.54738 4.00443 0
M  V30 17147 C 1585.94 -2.70145 4.6028 0
M  V30 17148 O 1586.16 -3.87026 4.19007 0
M  V30 17149 O 1585.1 -2.44189 5.50141 0
M  V30 17150 H 1588.92 -0.247974 3.02686 0
M  V30 17151 H 1586.51 -0.0563734 1.49294 0
M  V30 17152 H 1588.39 -2.69127 3.24266 0
M  V30 17153 H 1587.07 -2.49435 2.0631 0
M  V30 17154 H 1585.97 -0.808152 3.65267 0
M  V30 17155 H 1587.31 -1.08249 4.80149 0
M  V30 17156 N 1588.96 -1.5727 -0.101874 0
M  V30 17157 C 1589.92 -2.00625 -1.10826 0
M  V30 17158 C 1590.92 -0.89878 -1.33336 0
M  V30 17159 O 1592.11 -1.16442 -1.29564 0
M  V30 17160 C 1589.24 -2.36113 -2.45893 0
M  V30 17161 H 1590.44 -2.90748 -0.735238 0
M  V30 17162 H 1587.99 -1.52406 -0.346713 0
M  V30 17163 H 1588.72 -1.48923 -2.88084 0
M  V30 17164 H 1588.51 -3.169 -2.30904 0
M  V30 17165 H 1590 -2.70336 -3.1829 0
M  V30 17166 N 1590.44 0.372521 -1.53134 0
M  V30 17167 C 1591.68 1.11589 -1.6898 0
M  V30 17168 C 1592.01 1.89503 -0.438049 0
M  V30 17169 O 1591.27 1.86911 0.579891 0
M  V30 17170 C 1591.56 2.10742 -2.88656 0
M  V30 17171 C 1591.23 1.49361 -4.25443 0
M  V30 17172 C 1589.89 1.32348 -4.62642 0
M  V30 17173 C 1592.24 1.04889 -5.10537 0
M  V30 17174 C 1589.57 0.694368 -5.82577 0
M  V30 17175 C 1591.92 0.433809 -6.31111 0
M  V30 17176 C 1590.59 0.251118 -6.67027 0
M  V30 17177 H 1589.86 0.408333 -0.618341 0
M  V30 17178 H 1592.51 0.398507 -1.87308 0
M  V30 17179 H 1590.81 2.88759 -2.64812 0
M  V30 17180 H 1592.51 2.682 -2.98111 0
M  V30 17181 H 1589.1 1.63594 -3.9615 0
M  V30 17182 H 1593.28 1.16829 -4.82353 0
M  V30 17183 H 1588.54 0.541171 -6.09 0
M  V30 17184 H 1592.71 0.0809859 -6.96353 0
M  V30 17185 H 1590.34 -0.23844 -7.59826 0
M  V30 17186 N 1591.91 1.44376 0.631925 0
M  V30 17187 C 1592.84 1.54005 1.75512 0
M  V30 17188 C 1593.82 0.393126 1.65495 0
M  V30 17189 O 1595.01 0.613143 1.84267 0
M  V30 17190 C 1592.14 1.48313 3.14039 0
M  V30 17191 C 1591.09 2.61474 3.38844 0
M  V30 17192 C 1590.42 2.40834 4.77392 0
M  V30 17193 C 1591.72 4.03627 3.31485 0
M  V30 17194 H 1593.41 2.48019 1.6771 0
M  V30 17195 H 1590.96 1.19368 0.80543 0
M  V30 17196 H 1592.91 1.5365 3.9239 0
M  V30 17197 H 1591.64 0.508152 3.22623 0
M  V30 17198 H 1590.3 2.55525 2.62874 0
M  V30 17199 H 1589.94 1.4153 4.82678 0
M  V30 17200 H 1589.64 3.16703 4.94947 0
M  V30 17201 H 1591.17 2.47988 5.57974 0
M  V30 17202 H 1592.58 4.1095 3.99741 0
M  V30 17203 H 1590.98 4.79694 3.60574 0
M  V30 17204 H 1592.05 4.27255 2.29307 0
M  V30 17205 N 1593.39 -0.872258 1.31261 0
M  V30 17206 C 1594.32 -1.98231 1.13047 0
M  V30 17207 C 1595.3 -1.62563 0.0345979 0
M  V30 17208 O 1596.49 -1.87534 0.190586 0
M  V30 17209 C 1593.61 -3.30809 0.726841 0
M  V30 17210 C 1592.66 -3.85461 1.82542 0
M  V30 17211 S 1593.49 -4.11197 3.43041 0
M  V30 17212 C 1594.65 -5.46776 3.0461 0
M  V30 17213 H 1594.88 -2.13377 2.07021 0
M  V30 17214 H 1592.41 -1.02217 1.1572 0
M  V30 17215 H 1594.37 -4.07435 0.500707 0
M  V30 17216 H 1593.03 -3.13502 -0.193741 0
M  V30 17217 H 1592.23 -4.81299 1.49558 0
M  V30 17218 H 1591.83 -3.1562 2.0065 0
M  V30 17219 H 1594.12 -6.28343 2.53361 0
M  V30 17220 H 1595.06 -5.84708 3.99402 0
M  V30 17221 H 1595.47 -5.09941 2.42116 0
M  V30 17222 N 1594.87 -1.14184 -1.08627 0
M  V30 17223 C 1595.83 -0.82954 -2.13662 0
M  V30 17224 C 1596.83 0.164794 -1.59953 0
M  V30 17225 O 1598.02 -0.0632831 -1.74085 0
M  V30 17226 C 1595.15 -0.236176 -3.40081 0
M  V30 17227 H 1596.35 -1.76038 -2.42797 0
M  V30 17228 H 1593.9 -0.947568 -1.24301 0
M  V30 17229 H 1594.64 0.70349 -3.16578 0
M  V30 17230 H 1594.42 -0.952341 -3.80359 0
M  V30 17231 H 1595.91 -0.03481 -4.17585 0
M  V30 17232 N 1596.35 1.26749 -0.936613 0
M  V30 17233 C 1597.28 2.2892 -0.460213 0
M  V30 17234 C 1598.26 1.63065 0.484135 0
M  V30 17235 O 1599.44 1.90305 0.386973 0
M  V30 17236 C 1596.57 3.46172 0.279648 0
M  V30 17237 C 1595.53 4.24083 -0.57771 0
M  V30 17238 C 1594.85 5.33903 0.291843 0
M  V30 17239 C 1596.15 4.88562 -1.84673 0
M  V30 17240 H 1597.85 2.69019 -1.31412 0
M  V30 17241 H 1595.39 1.29325 -0.633333 0
M  V30 17242 H 1597.35 4.16755 0.623931 0
M  V30 17243 H 1596.07 3.05014 1.16765 0
M  V30 17244 H 1594.73 3.55258 -0.904824 0
M  V30 17245 H 1594.38 4.88986 1.17906 0
M  V30 17246 H 1594.08 5.8694 -0.278372 0
M  V30 17247 H 1595.6 6.07326 0.631498 0
M  V30 17248 H 1597.02 5.51384 -1.56997 0
M  V30 17249 H 1595.41 5.51697 -2.36115 0
M  V30 17250 H 1596.48 4.11761 -2.56088 0
M  V30 17251 N 1597.83 0.703118 1.41046 0
M  V30 17252 C 1599.05 0.246552 2.05426 0
M  V30 17253 C 1599.47 -1.10704 1.52938 0
M  V30 17254 O 1598.83 -1.69329 0.680733 0
M  V30 17255 C 1598.88 0.203953 3.60924 0
M  V30 17256 O 1598.6 1.50408 4.11472 0
M  V30 17257 C 1600.1 -0.272686 4.42461 0
M  V30 17258 H 1597.32 0.113157 0.66139 0
M  V30 17259 H 1599.86 0.957823 1.80682 0
M  V30 17260 H 1598.02 -0.458194 3.84681 0
M  V30 17261 H 1598.43 1.39622 5.05575 0
M  V30 17262 H 1599.91 -0.251357 5.51427 0
M  V30 17263 H 1600.38 -1.31282 4.1912 0
M  V30 17264 H 1600.99 0.358733 4.23784 0
M  V30 17265 N 1599.3 -1.51086 0.448402 0
M  V30 17266 C 1600.58 -1.94817 -0.174819 0
M  V30 17267 C 1600.96 -1.38767 -1.59081 0
M  V30 17268 O 1600.31 -0.579257 -2.21036 0
M  V30 17269 C 1600.52 -3.48714 -0.14129 0
M  V30 17270 C 1601.87 -4.23225 -0.341414 0
M  V30 17271 O 1602.89 -3.55527 -0.218908 0
M  V30 17272 O 1601.75 -5.43346 -0.586331 0
M  V30 17273 H 1598.84 -0.817652 -0.12399 0
M  V30 17274 H 1601.39 -1.61944 0.507177 0
M  V30 17275 H 1600.16 -3.81996 0.848222 0
M  V30 17276 H 1599.79 -3.88061 -0.865722 0
M  V30 17277 N 1600.78 -0.180154 -1.56567 0
M  V30 17278 C 1602.01 0.471692 -2.01965 0
M  V30 17279 C 1602.43 1.5542 -1.05954 0
M  V30 17280 O 1601.79 1.81255 -0.0405307 0
M  V30 17281 C 1601.84 1.01883 -3.45908 0
M  V30 17282 O 1600.94 2.13245 -3.52988 0
M  V30 17283 H 1600.28 0.11197 -0.654491 0
M  V30 17284 H 1602.81 -0.286642 -2.02582 0
M  V30 17285 H 1602.82 1.33922 -3.85395 0
M  V30 17286 H 1601.5 0.226299 -4.15284 0
M  V30 17287 H 1600.08 1.82184 -3.25367 0
M  V30 17288 N 1602.26 1.57322 0.0935319 0
M  V30 17289 C 1603.51 1.858 0.795165 0
M  V30 17290 C 1603.83 0.769078 1.79193 0
M  V30 17291 O 1603.1 -0.204511 1.9483 0
M  V30 17292 H 1601.68 0.68557 0.296653 0
M  V30 17293 H 1604.34 1.94756 0.0747892 0
M  V30 17294 H 1603.44 2.82588 1.32479 0
M  V30 17295 N 1603.74 -0.364395 1.53329 0
M  V30 17296 C 1605.15 -0.941133 1.61244 0
M  V30 17297 C 1605.5 -1.90223 0.480596 0
M  V30 17298 O 1604.63 -2.12805 -0.392805 0
M  V30 17299 C 1605.22 -1.7137 2.92263 0
M  V30 17300 C 1603.78 -2.23976 3.02509 0
M  V30 17301 C 1602.93 -1.05253 2.56548 0
M  V30 17302 H 1605.88 -0.143153 1.58053 0
M  V30 17303 H 1605.9 -2.575 2.80132 0
M  V30 17304 H 1605.41 -1.01395 3.74621 0
M  V30 17305 H 1603.51 -2.9719 2.24741 0
M  V30 17306 H 1603.62 -2.51777 4.07609 0
M  V30 17307 H 1601.99 -1.41986 2.11452 0
M  V30 17308 H 1602.77 -0.367744 3.41325 0
M  V30 17309 N 1605.22 -1.44709 -0.62426 0
M  V30 17310 C 1606.16 -1.52104 -1.73589 0
M  V30 17311 C 1607.13 -0.368193 -1.61968 0
M  V30 17312 O 1608.32 -0.579374 -1.81791 0
M  V30 17313 C 1605.46 -1.4778 -3.11857 0
M  V30 17314 C 1604.57 -2.73491 -3.34405 0
M  V30 17315 C 1603.71 -2.60953 -4.62685 0
M  V30 17316 C 1602.75 -3.81795 -4.78434 0
M  V30 17317 N 1601.88 -3.67892 -5.97997 0
M  V30 17318 H 1606.72 -2.47077 -1.66604 0
M  V30 17319 H 1604.26 -1.22617 -0.812616 0
M  V30 17320 H 1606.22 -1.43263 -3.91831 0
M  V30 17321 H 1604.85 -0.563694 -3.1784 0
M  V30 17322 H 1603.9 -2.88166 -2.48324 0
M  V30 17323 H 1605.21 -3.6317 -3.4192 0
M  V30 17324 H 1604.37 -2.54308 -5.50829 0
M  V30 17325 H 1603.1 -1.68846 -4.57539 0
M  V30 17326 H 1602.11 -3.88817 -3.88717 0
M  V30 17327 H 1603.33 -4.74947 -4.85388 0
M  V30 17328 H 1601.28 -2.78541 -5.93928 0
M  V30 17329 H 1601.2 -4.51193 -6.06598 0
M  V30 17330 H 1602.47 -3.6515 -6.88684 0
M  V30 17331 N 1606.69 0.865285 -1.31722 0
M  V30 17332 C 1607.66 1.95449 -1.19718 0
M  V30 17333 C 1608.66 1.60329 -0.123025 0
M  V30 17334 O 1609.85 1.70168 -0.372643 0
M  V30 17335 C 1606.98 3.30421 -0.838718 0
M  V30 17336 H 1608.17 2.07522 -2.16506 0
M  V30 17337 H 1605.73 1.05416 -1.154 0
M  V30 17338 H 1606.46 3.24048 0.127797 0
M  V30 17339 H 1606.25 3.57286 -1.61522 0
M  V30 17340 H 1607.74 4.10274 -0.77876 0
M  V30 17341 N 1608.17 1.14759 1.0802 0
M  V30 17342 C 1609.12 0.833824 2.17141 0
M  V30 17343 C 1610.11 -0.189939 1.68332 0
M  V30 17344 O 1611.32 -0.0456447 1.79942 0
M  V30 17345 H 1607.7 0.251944 0.70854 0
M  V30 17346 H 1609.67 1.76196 2.40827 0
M  V30 17347 C 1608.42 0.33203 3.46111 0
M  V30 17348 H 1607.74 1.11117 3.84048 0
M  V30 17349 H 1609.18 0.151078 4.23731 0
M  V30 17350 C 1607.64 -0.945153 3.2337 0
M  V30 17351 O 1608.17 -2.0181 3.47326 0
M  V30 17352 N 1606.37 -0.881963 2.76893 0
M  V30 17353 H 1605.92 -0.00865768 2.57599 0
M  V30 17354 H 1605.88 -1.73706 2.62056 0
M  V30 17355 N 1609.65 -1.26251 0.943322 0
M  V30 17356 C 1610.9 -1.92946 0.587764 0
M  V30 17357 C 1611.21 -1.74805 -0.877647 0
M  V30 17358 O 1612.42 -2.35976 -1.34267 0
M  V30 17359 C 1610.87 -3.45715 1.00047 0
M  V30 17360 C 1610.48 -3.72586 2.48764 0
M  V30 17361 C 1612.23 -4.18403 0.716905 0
M  V30 17362 C 1610.13 -5.18805 2.83893 0
M  V30 17363 H 1609.06 -0.722366 0.21611 0
M  V30 17364 H 1611.71 -1.43295 1.14625 0
M  V30 17365 H 1610.1 -3.94263 0.370491 0
M  V30 17366 H 1611.27 -3.34735 3.16684 0
M  V30 17367 H 1609.59 -3.13136 2.74472 0
M  V30 17368 H 1612.18 -5.2609 0.955669 0
M  V30 17369 H 1612.53 -4.14856 -0.346396 0
M  V30 17370 H 1613.06 -3.75726 1.3067 0
M  V30 17371 H 1609.8 -5.27454 3.89195 0
M  V30 17372 H 1609.32 -5.57745 2.20636 0
M  V30 17373 H 1611 -5.86828 2.72474 0
M  V30 17374 N 1611.13 -0.710588 -1.40671 0
M  V30 17375 C 1612.38 -0.244967 -2.00207 0
M  V30 17376 C 1612.69 1.16693 -1.56978 0
M  V30 17377 O 1613.9 1.73081 -2.09177 0
M  V30 17378 C 1612.35 -0.387049 -3.57813 0
M  V30 17379 C 1611.96 -1.80527 -4.10017 0
M  V30 17380 C 1613.71 0.0180338 -4.24496 0
M  V30 17381 C 1611.61 -1.89821 -5.60109 0
M  V30 17382 H 1610.54 -0.087831 -0.748867 0
M  V30 17383 H 1613.19 -0.880956 -1.6097 0
M  V30 17384 H 1611.58 0.317442 -3.94726 0
M  V30 17385 H 1612.75 -2.53974 -3.84492 0
M  V30 17386 H 1611.06 -2.16137 -3.55913 0
M  V30 17387 H 1613.66 -0.0307544 -5.34691 0
M  V30 17388 H 1614 1.05915 -4.02601 0
M  V30 17389 H 1614.54 -0.63672 -3.92671 0
M  V30 17390 H 1611.28 -2.92036 -5.86852 0
M  V30 17391 H 1610.8 -1.20779 -5.87514 0
M  V30 17392 H 1612.48 -1.66801 -6.25129 0
M  V30 17393 N 1612.61 1.50847 -0.456408 0
M  V30 17394 C 1613.85 2.02534 0.103772 0
M  V30 17395 C 1614.19 1.33874 1.40682 0
M  V30 17396 O 1613.46 0.459695 1.8899 0
M  V30 17397 C 1613.74 3.58825 0.302817 0
M  V30 17398 C 1613.6 4.38077 -1.02022 0
M  V30 17399 C 1614.92 4.27044 1.06404 0
M  V30 17400 H 1612.04 0.736108 0.0362398 0
M  V30 17401 H 1614.68 1.80306 -0.599134 0
M  V30 17402 H 1612.83 3.77895 0.901542 0
M  V30 17403 H 1614.5 4.30613 -1.6544 0
M  V30 17404 H 1612.74 4.02401 -1.62036 0
M  V30 17405 H 1613.41 5.45652 -0.834766 0
M  V30 17406 H 1615.89 4.12359 0.556698 0
M  V30 17407 H 1614.77 5.3624 1.17209 0
M  V30 17408 H 1615.03 3.89204 2.09697 0
M  V30 17409 N 1614.09 0.188454 1.56469 0
M  V30 17410 C 1615.36 -0.499324 1.89119 0
M  V30 17411 C 1615.74 -1.80116 1.10098 0
M  V30 17412 O 1615.09 -2.27623 0.200048 0
M  V30 17413 C 1615.3 -0.724574 3.41396 0
M  V30 17414 C 1616.65 -1.04692 4.11491 0
M  V30 17415 O 1617.67 -0.812526 3.46809 0
M  V30 17416 O 1616.53 -1.48998 5.25797 0
M  V30 17417 H 1613.63 -0.259468 0.785242 0
M  V30 17418 H 1616.17 0.228172 1.68159 0
M  V30 17419 H 1614.94 0.195039 3.90814 0
M  V30 17420 H 1614.57 -1.50477 3.68025 0
M  V30 17421 N 1615.56 -1.5737 -0.0851874 0
M  V30 17422 C 1616.79 -1.91183 -0.803983 0
M  V30 17423 C 1617.21 -0.78365 -1.70999 0
M  V30 17424 O 1616.57 0.264266 -1.79364 0
M  V30 17425 C 1616.62 -3.239 -1.58496 0
M  V30 17426 O 1615.72 -3.12189 -2.69466 0
M  V30 17427 H 1615.06 -0.626413 -0.220233 0
M  V30 17428 H 1617.59 -2.04519 -0.0574426 0
M  V30 17429 H 1617.6 -3.5745 -1.96707 0
M  V30 17430 H 1616.28 -4.05594 -0.920111 0
M  V30 17431 H 1614.86 -2.90173 -2.3421 0
M  V30 17432 N 1617.04 0.356258 -1.53521 0
M  V30 17433 C 1617.97 1.45722 -1.76912 0
M  V30 17434 C 1618.99 1.49257 -0.650091 0
M  V30 17435 O 1620.18 1.52569 -0.926557 0
M  V30 17436 C 1617.28 2.84444 -1.84241 0
M  V30 17437 C 1616.45 3.04497 -3.14007 0
M  V30 17438 C 1615.51 4.23387 -3.12458 0
M  V30 17439 O 1614.53 4.18113 -3.86225 0
M  V30 17440 N 1615.74 5.31278 -2.33931 0
M  V30 17441 H 1618.5 1.26031 -2.71912 0
M  V30 17442 H 1616.06 0.546052 -1.52414 0
M  V30 17443 H 1618.05 3.62133 -1.80671 0
M  V30 17444 H 1616.62 2.97338 -0.96484 0
M  V30 17445 H 1615.84 2.14387 -3.30805 0
M  V30 17446 H 1617.13 3.14769 -3.99747 0
M  V30 17447 H 1616.53 5.38428 -1.73527 0
M  V30 17448 H 1615.09 6.07508 -2.36171 0
M  V30 17449 N 1618.52 1.45038 0.616577 0
M  V30 17450 C 1619.75 1.51874 1.40064 0
M  V30 17451 C 1620.16 0.147105 1.88627 0
M  V30 17452 O 1619.5 -0.85995 1.62329 0
M  V30 17453 C 1619.56 2.43421 2.64549 0
M  V30 17454 C 1619.23 3.90326 2.37685 0
M  V30 17455 C 1620.22 4.80471 1.98605 0
M  V30 17456 C 1617.91 4.35163 2.50875 0
M  V30 17457 C 1619.9 6.13456 1.73064 0
M  V30 17458 C 1617.59 5.68192 2.24947 0
M  V30 17459 C 1618.59 6.57157 1.86102 0
M  V30 17460 O 1618.28 7.87721 1.60472 0
M  V30 17461 H 1618.01 0.517048 0.435474 0
M  V30 17462 H 1620.56 1.90826 0.759899 0
M  V30 17463 H 1618.79 1.99423 3.31312 0
M  V30 17464 H 1620.48 2.41042 3.26579 0
M  V30 17465 H 1621.25 4.47098 1.87959 0
M  V30 17466 H 1617.13 3.66165 2.80078 0
M  V30 17467 H 1620.67 6.82855 1.42669 0
M  V30 17468 H 1616.57 6.01122 2.35207 0
M  V30 17469 H 1617.33 7.99661 1.74598 0
M  V30 17470 N 1620 -0.858287 1.32179 0
M  V30 17471 C 1621.24 -1.6146 1.22713 0
M  V30 17472 C 1621.58 -1.93045 -0.211479 0
M  V30 17473 O 1620.85 -1.57034 -1.14764 0
M  V30 17474 C 1621.13 -2.93728 2.08317 0
M  V30 17475 C 1620.99 -2.68947 3.60538 0
M  V30 17476 C 1622.31 -3.94959 1.94153 0
M  V30 17477 H 1619.43 -0.585872 0.447128 0
M  V30 17478 H 1622.07 -0.99134 1.62088 0
M  V30 17479 H 1620.22 -3.4692 1.74867 0
M  V30 17480 H 1621.89 -2.22336 4.04183 0
M  V30 17481 H 1620.13 -2.02974 3.83385 0
M  V30 17482 H 1620.8 -3.63112 4.15756 0
M  V30 17483 H 1623.28 -3.51013 2.23449 0
M  V30 17484 H 1622.16 -4.85371 2.56332 0
M  V30 17485 H 1622.42 -4.32672 0.908132 0
M  V30 17486 N 1621.48 -1.1533 -1.07409 0
M  V30 17487 C 1622.41 -0.793078 -2.13976 0
M  V30 17488 C 1623.39 0.23021 -1.60962 0
M  V30 17489 O 1624.57 0.116904 -1.88137 0
M  V30 17490 C 1621.7 -0.179232 -3.38225 0
M  V30 17491 C 1620.74 -1.17432 -4.10015 0
M  V30 17492 S 1621.58 -2.7161 -4.61506 0
M  V30 17493 C 1622.73 -2.11643 -5.89031 0
M  V30 17494 H 1622.97 -1.69568 -2.44201 0
M  V30 17495 H 1620.5 -0.975582 -1.19674 0
M  V30 17496 H 1622.46 0.168494 -4.10154 0
M  V30 17497 H 1621.12 0.700954 -3.06179 0
M  V30 17498 H 1620.31 -0.693027 -4.99213 0
M  V30 17499 H 1619.91 -1.46655 -3.44047 0
M  V30 17500 H 1622.2 -1.47812 -6.61179 0
M  V30 17501 H 1623.15 -2.99006 -6.41873 0
M  V30 17502 H 1623.56 -1.55971 -5.42525 0
M  V30 17503 N 1622.95 1.25748 -0.950004 0
M  V30 17504 C 1624.2 1.92954 -0.601104 0
M  V30 17505 C 1624.52 1.74817 0.863953 0
M  V30 17506 O 1623.79 1.10904 1.61484 0
M  V30 17507 H 1622.37 0.714077 -0.219325 0
M  V30 17508 H 1625.03 1.53009 -1.20724 0
M  V30 17509 H 1624.13 3.00959 -0.826447 0
M  V30 17510 N 1624.43 0.718038 1.40292 0
M  V30 17511 C 1625.68 0.255581 2.00074 0
M  V30 17512 C 1625.99 -1.15859 1.57594 0
M  V30 17513 O 1627.2 -1.71969 2.10092 0
M  V30 17514 C 1625.66 0.406019 3.57602 0
M  V30 17515 C 1625.26 1.82699 4.09054 0
M  V30 17516 C 1627.01 0.00447854 4.245 0
M  V30 17517 C 1624.91 1.92788 5.59094 0
M  V30 17518 H 1623.84 0.0918012 0.748391 0
M  V30 17519 H 1626.5 0.88948 1.60501 0
M  V30 17520 H 1624.88 -0.296504 3.94888 0
M  V30 17521 H 1626.05 2.56009 3.8314 0
M  V30 17522 H 1624.37 2.18021 3.54761 0
M  V30 17523 H 1626.96 0.05911 5.34667 0
M  V30 17524 H 1627.31 -1.03779 4.03157 0
M  V30 17525 H 1627.84 0.657535 3.92328 0
M  V30 17526 H 1624.58 2.95145 5.85295 0
M  V30 17527 H 1624.1 1.23893 5.86865 0
M  V30 17528 H 1625.78 1.70114 6.24236 0
M  V30 17529 N 1625.91 -1.50602 0.464402 0
M  V30 17530 C 1627.16 -2.01478 -0.0945398 0
M  V30 17531 C 1627.47 -1.35165 -1.41386 0
M  V30 17532 O 1628.68 -1.7716 -2.05735 0
M  V30 17533 C 1627.13 -3.59233 -0.219003 0
M  V30 17534 C 1626.74 -4.345 1.09148 0
M  V30 17535 C 1628.49 -4.18172 -0.730262 0
M  V30 17536 C 1626.39 -5.84023 0.931179 0
M  V30 17537 H 1625.32 -0.752985 -0.0391065 0
M  V30 17538 H 1627.97 -1.73473 0.598283 0
M  V30 17539 H 1626.36 -3.83798 -0.975455 0
M  V30 17540 H 1627.53 -4.21665 1.85837 0
M  V30 17541 H 1625.85 -3.8714 1.53334 0
M  V30 17542 H 1628.44 -5.27622 -0.867119 0
M  V30 17543 H 1628.79 -3.79113 -1.71986 0
M  V30 17544 H 1629.32 -3.97788 -0.0313808 0
M  V30 17545 H 1626.06 -6.27543 1.89395 0
M  V30 17546 H 1625.58 -5.99451 0.20456 0
M  V30 17547 H 1627.26 -6.44257 0.595118 0
M  V30 17548 N 1627.39 -0.19675 -1.56367 0
M  V30 17549 C 1628.62 0.447139 -2.02011 0
M  V30 17550 C 1629.03 1.55077 -1.07687 0
M  V30 17551 O 1628.39 1.82316 -0.0820316 0
M  V30 17552 C 1628.44 1.00192 -3.47338 0
M  V30 17553 O 1628.16 -0.0576859 -4.38062 0
M  V30 17554 C 1629.66 1.72152 -4.08508 0
M  V30 17555 H 1626.88 0.112088 -0.661572 0
M  V30 17556 H 1629.43 -0.30594 -2.02199 0
M  V30 17557 H 1627.58 1.70537 -3.47844 0
M  V30 17558 H 1627.99 0.355508 -5.23294 0
M  V30 17559 H 1629.47 2.06199 -5.12041 0
M  V30 17560 H 1629.95 2.62581 -3.52062 0
M  V30 17561 H 1630.55 1.06388 -4.11779 0
M  V30 17562 N 1628.87 1.57413 0.0768405 0
M  V30 17563 C 1630.11 1.86633 0.775414 0
M  V30 17564 C 1630.44 0.788041 1.78367 0
M  V30 17565 O 1629.71 -0.183835 1.95036 0
M  V30 17566 H 1628.29 0.688678 0.289365 0
M  V30 17567 H 1630.95 1.94825 0.0541285 0
M  V30 17568 H 1630.04 2.83977 1.29474 0
M  V30 17569 N 1630.34 -0.348112 1.53707 0
M  V30 17570 C 1631.58 -1.09736 1.72445 0
M  V30 17571 C 1631.95 -1.86028 0.475158 0
M  V30 17572 O 1633.15 -2.6333 0.539493 0
M  V30 17573 C 1631.42 -2.01721 2.95032 0
M  V30 17574 S 1632.98 -2.83929 3.34559 0
M  V30 17575 H 1629.8 -0.370854 0.60662 0
M  V30 17576 H 1632.4 -0.376358 1.91843 0
M  V30 17577 H 1631.1 -1.44466 3.84133 0
M  V30 17578 H 1630.63 -2.78265 2.78086 0
M  V30 17579 H 1632.65 -4.04113 2.87937 0
M  V30 17580 N 1631.82 -1.45363 -0.608876 0
M  V30 17581 C 1633.23 -1.43794 -1.19081 0
M  V30 17582 C 1633.58 -0.164874 -1.95506 0
M  V30 17583 O 1632.71 0.733623 -2.03585 0
M  V30 17584 C 1633.3 -2.60506 -2.16615 0
M  V30 17585 C 1631.86 -2.62061 -2.70187 0
M  V30 17586 C 1631.01 -2.36018 -1.4557 0
M  V30 17587 H 1633.96 -1.53622 -0.39826 0
M  V30 17588 H 1633.98 -2.34531 -2.99625 0
M  V30 17589 H 1633.49 -3.53147 -1.60963 0
M  V30 17590 H 1631.6 -1.73423 -3.2978 0
M  V30 17591 H 1631.71 -3.61242 -3.14708 0
M  V30 17592 H 1630.07 -1.8555 -1.74481 0
M  V30 17593 H 1630.86 -3.30802 -0.917884 0
M  V30 17594 N 1633.3 0.851265 -1.32632 0
M  V30 17595 C 1634.53 1.63805 -1.26394 0
M  V30 17596 C 1634.94 1.88056 0.167454 0
M  V30 17597 O 1634.3 1.45196 1.10564 0
M  V30 17598 C 1634.35 2.9954 -2.02381 0
M  V30 17599 O 1634.07 2.76361 -3.39935 0
M  V30 17600 C 1635.57 3.93982 -2.03207 0
M  V30 17601 H 1632.79 0.510088 -0.435948 0
M  V30 17602 H 1635.34 1.06123 -1.74809 0
M  V30 17603 H 1633.49 3.53859 -1.5768 0
M  V30 17604 H 1633.91 3.62708 -3.78871 0
M  V30 17605 H 1635.38 4.86478 -2.60851 0
M  V30 17606 H 1635.86 4.27211 -1.01918 0
M  V30 17607 H 1636.46 3.45601 -2.47871 0
M  V30 17608 N 1634.78 1.15898 1.06796 0
M  V30 17609 C 1635.69 0.87507 2.17669 0
M  V30 17610 C 1636.7 -0.150763 1.73346 0
M  V30 17611 O 1637.88 0.0246621 2.01385 0
M  V30 17612 C 1634.95 0.374555 3.44671 0
M  V30 17613 C 1634.01 1.46498 4.0353 0
M  V30 17614 C 1633.24 0.988256 5.2447 0
M  V30 17615 O 1633.46 -0.163992 5.70164 0
M  V30 17616 O 1632.4 1.7744 5.75151 0
M  V30 17617 H 1636.22 1.80208 2.44456 0
M  V30 17618 H 1633.81 0.93854 1.1624 0
M  V30 17619 H 1635.69 0.102161 4.21276 0
M  V30 17620 H 1634.36 -0.524513 3.19422 0
M  V30 17621 H 1633.27 1.79105 3.28439 0
M  V30 17622 H 1634.6 2.33917 4.33063 0
M  V30 17623 N 1636.26 -1.25243 0.956659 0
M  V30 17624 C 1637.48 -1.97621 0.629337 0
M  V30 17625 C 1637.91 -1.70606 -0.792158 0
M  V30 17626 O 1637.26 -0.963192 -1.53598 0
M  V30 17627 C 1637.31 -3.49273 0.896687 0
M  V30 17628 O 1636.42 -4.12393 -0.0234986 0
M  V30 17629 H 1635.76 -0.619472 0.239061 0
M  V30 17630 H 1638.29 -1.5931 1.28381 0
M  V30 17631 H 1638.3 -3.99597 0.82377 0
M  V30 17632 H 1636.97 -3.68265 1.93271 0
M  V30 17633 H 1635.55 -3.72761 0.101796 0
M  V30 17634 N 1637.73 -0.725468 -1.3991 0
M  V30 17635 C 1638.64 -0.0805887 -2.34462 0
M  V30 17636 C 1639.66 0.732689 -1.57822 0
M  V30 17637 O 1640.84 0.663362 -1.90162 0
M  V30 17638 C 1637.9 0.822908 -3.36792 0
M  V30 17639 C 1636.96 -0.00153812 -4.293 0
M  V30 17640 C 1636.2 0.85893 -5.26743 0
M  V30 17641 O 1636.42 2.09793 -5.30418 0
M  V30 17642 O 1635.35 0.292659 -6.01188 0
M  V30 17643 H 1639.18 -0.860746 -2.91247 0
M  V30 17644 H 1636.76 -0.48604 -1.41273 0
M  V30 17645 H 1638.65 1.34014 -3.99522 0
M  V30 17646 H 1637.32 1.58204 -2.82406 0
M  V30 17647 H 1636.23 -0.564072 -3.69823 0
M  V30 17648 H 1637.56 -0.722675 -4.86866 0
M  V30 17649 N 1639.21 1.50354 -0.472382 0
M  V30 17650 C 1640.44 2.07238 0.0820787 0
M  V30 17651 C 1640.86 1.3338 1.32632 0
M  V30 17652 O 1640.22 0.381857 1.77233 0
M  V30 17653 C 1640.27 3.58919 0.347746 0
M  V30 17654 O 1639.37 3.86888 1.42799 0
M  V30 17655 H 1638.71 0.663862 -0.0135544 0
M  V30 17656 H 1641.24 1.93533 -0.663795 0
M  V30 17657 H 1641.25 4.03743 0.587855 0
M  V30 17658 H 1639.93 4.12093 -0.56147 0
M  V30 17659 H 1638.51 3.53901 1.17509 0
M  V30 17660 N 1640.69 0.205039 1.56261 0
M  V30 17661 C 1642.11 -0.150644 1.58887 0
M  V30 17662 C 1642.31 -1.60256 1.22148 0
M  V30 17663 O 1641.36 -2.33991 0.948912 0
M  V30 17664 C 1642.68 0.160711 3.0027 0
M  V30 17665 C 1644.22 0.101616 3.12835 0
M  V30 17666 C 1644.7 0.386417 4.56367 0
M  V30 17667 N 1646.19 0.335392 4.61984 0
M  V30 17668 C 1646.93 0.529473 5.7095 0
M  V30 17669 N 1646.42 0.784441 6.88345 0
M  V30 17670 N 1648.21 0.463044 5.6019 0
M  V30 17671 H 1640.37 1.15238 1.78421 0
M  V30 17672 H 1642.63 0.460698 0.82853 0
M  V30 17673 H 1642.33 1.1678 3.31746 0
M  V30 17674 H 1642.21 -0.532067 3.73429 0
M  V30 17675 H 1644.6 -0.896093 2.81166 0
M  V30 17676 H 1644.68 0.827622 2.42041 0
M  V30 17677 H 1644.32 1.38149 4.88751 0
M  V30 17678 H 1644.25 -0.360592 5.25364 0
M  V30 17679 H 1646.74 0.145346 3.7762 0
M  V30 17680 H 1647.05 0.921077 7.67291 0
M  V30 17681 H 1645.4 0.821448 6.90128 0
M  V30 17682 H 1648.59 0.2642 4.67354 0
M  V30 17683 H 1648.76 0.617712 6.45049 0
M  V30 17684 N 1642.17 -1.57451 -0.0684915 0
M  V30 17685 C 1643.1 -2.06954 -1.0813 0
M  V30 17686 C 1644.08 -0.963716 -1.40166 0
M  V30 17687 O 1645.27 -1.23664 -1.49736 0
M  V30 17688 C 1642.4 -2.51622 -2.39381 0
M  V30 17689 C 1641.35 -3.66111 -2.2169 0
M  V30 17690 C 1640.68 -3.96846 -3.58354 0
M  V30 17691 C 1641.98 -4.96036 -1.63541 0
M  V30 17692 H 1643.67 -2.91822 -0.66936 0
M  V30 17693 H 1641.22 -1.40387 -0.320533 0
M  V30 17694 H 1643.17 -2.84867 -3.1053 0
M  V30 17695 H 1641.89 -1.63788 -2.82562 0
M  V30 17696 H 1640.55 -3.33155 -1.52982 0
M  V30 17697 H 1640.2 -3.06137 -3.9911 0
M  V30 17698 H 1639.9 -4.73939 -3.47354 0
M  V30 17699 H 1641.42 -4.3259 -4.30927 0
M  V30 17700 H 1642.84 -5.27491 -2.24559 0
M  V30 17701 H 1641.23 -5.77474 -1.63228 0
M  V30 17702 H 1642.3 -4.81208 -0.597199 0
M  V30 17703 N 1643.65 0.339955 -1.5389 0
M  V30 17704 C 1644.89 1.08139 -1.71563 0
M  V30 17705 C 1645.23 1.88193 -0.479292 0
M  V30 17706 O 1644.5 1.87317 0.523702 0
M  V30 17707 C 1644.78 2.01963 -2.98132 0
M  V30 17708 C 1644.64 1.25349 -4.31981 0
M  V30 17709 C 1645.96 3.01729 -3.20387 0
M  V30 17710 H 1643.08 0.391744 -0.624264 0
M  V30 17711 H 1645.72 0.359609 -1.86566 0
M  V30 17712 H 1643.87 2.63511 -2.85472 0
M  V30 17713 H 1645.54 0.66388 -4.56498 0
M  V30 17714 H 1643.78 0.555541 -4.30228 0
M  V30 17715 H 1644.45 1.94154 -5.16728 0
M  V30 17716 H 1646.93 2.50297 -3.32401 0
M  V30 17717 H 1645.81 3.64577 -4.10335 0
M  V30 17718 H 1646.07 3.73303 -2.36849 0
M  V30 17719 N 1645.13 1.45684 0.601159 0
M  V30 17720 C 1646.07 1.55189 1.7326 0
M  V30 17721 C 1647.07 0.421459 1.64073 0
M  V30 17722 O 1648.27 0.597622 1.6979 0
M  V30 17723 H 1644.65 0.487571 0.572519 0
M  V30 17724 H 1646.62 2.50357 1.6237 0
M  V30 17725 C 1645.37 1.54185 3.11644 0
M  V30 17726 H 1644.69 2.40498 3.19375 0
M  V30 17727 H 1646.13 1.64893 3.90623 0
M  V30 17728 C 1644.59 0.267339 3.35838 0
M  V30 17729 O 1645.12 -0.650146 3.96404 0
M  V30 17730 N 1643.33 0.161015 2.90154 0
M  V30 17731 H 1642.87 0.90851 2.41047 0
M  V30 17732 H 1642.83 -0.690911 3.06714 0
M  V30 17733 N 1646.6 -0.84422 1.33082 0
M  V30 17734 C 1647.54 -1.96055 1.18722 0
M  V30 17735 C 1648.55 -1.62361 0.119538 0
M  V30 17736 O 1649.74 -1.74634 0.369469 0
M  V30 17737 C 1646.84 -3.29387 0.797318 0
M  V30 17738 C 1646.01 -3.91253 1.95551 0
M  V30 17739 C 1645.07 -5.02932 1.54745 0
M  V30 17740 O 1644.1 -5.22367 2.26101 0
M  V30 17741 N 1645.3 -5.78758 0.449394 0
M  V30 17742 H 1648.06 -2.08912 2.14886 0
M  V30 17743 H 1645.62 -1.01966 1.25756 0
M  V30 17744 H 1647.62 -4.01517 0.506536 0
M  V30 17745 H 1646.19 -3.12514 -0.0734775 0
M  V30 17746 H 1645.41 -3.11779 2.41221 0
M  V30 17747 H 1646.69 -4.2932 2.73061 0
M  V30 17748 H 1646.09 -5.65516 -0.14428 0
M  V30 17749 H 1644.65 -6.51434 0.218264 0
M  V30 17750 N 1648.08 -1.16463 -1.0618 0
M  V30 17751 C 1649.33 -0.941322 -1.78387 0
M  V30 17752 C 1649.64 0.531995 -1.88226 0
M  V30 17753 O 1650.85 0.873227 -2.57074 0
M  V30 17754 C 1649.31 -1.63491 -3.20623 0
M  V30 17755 C 1648.91 -3.14607 -3.18946 0
M  V30 17756 C 1650.66 -1.49361 -3.97356 0
M  V30 17757 C 1648.56 -3.76698 -4.55908 0
M  V30 17758 H 1647.49 -0.348549 -0.668603 0
M  V30 17759 H 1650.15 -1.39607 -1.19088 0
M  V30 17760 H 1648.53 -1.10787 -3.80187 0
M  V30 17761 H 1649.7 -3.74164 -2.68957 0
M  V30 17762 H 1648.02 -3.28634 -2.55712 0
M  V30 17763 H 1650.61 -1.93131 -4.98603 0
M  V30 17764 H 1650.96 -0.442724 -4.13939 0
M  V30 17765 H 1651.49 -1.99227 -3.44316 0
M  V30 17766 H 1648.23 -4.8174 -4.4453 0
M  V30 17767 H 1647.75 -3.21927 -5.06086 0
M  V30 17768 H 1649.43 -3.78321 -5.24864 0
M  V30 17769 N 1649.56 1.24734 -0.963288 0
M  V30 17770 C 1650.81 1.91987 -0.618386 0
M  V30 17771 C 1651.12 1.76179 0.849726 0
M  V30 17772 O 1652.33 2.38082 1.30496 0
M  V30 17773 C 1650.78 3.44079 -1.05534 0
M  V30 17774 C 1650.39 3.68582 -2.5466 0
M  V30 17775 C 1652.14 4.17209 -0.783378 0
M  V30 17776 C 1650.04 5.14223 -2.92111 0
M  V30 17777 H 1648.97 0.718836 -0.227575 0
M  V30 17778 H 1651.62 1.41453 -1.1689 0
M  V30 17779 H 1650.01 3.93624 -0.433168 0
M  V30 17780 H 1651.18 3.29655 -3.2197 0
M  V30 17781 H 1649.49 3.08729 -2.79419 0
M  V30 17782 H 1652.09 5.24503 -1.03924 0
M  V30 17783 H 1652.43 4.15355 0.280352 0
M  V30 17784 H 1652.97 3.736 -1.36631 0
M  V30 17785 H 1649.71 5.21195 -3.97537 0
M  V30 17786 H 1649.23 5.54164 -2.29482 0
M  V30 17787 H 1650.91 5.82419 -2.81775 0
M  V30 17788 N 1651.04 0.732878 1.39523 0
M  V30 17789 C 1651.95 0.0930216 2.34416 0
M  V30 17790 C 1652.96 -0.724309 1.58208 0
M  V30 17791 O 1654.14 -0.653267 1.90511 0
M  V30 17792 C 1651.2 -0.805036 3.37224 0
M  V30 17793 C 1650.27 0.0243049 4.29293 0
M  V30 17794 C 1649.5 -0.830984 5.27191 0
M  V30 17795 O 1649.72 -2.06977 5.31523 0
M  V30 17796 O 1648.66 -0.260772 6.01335 0
M  V30 17797 H 1652.48 0.876179 2.90786 0
M  V30 17798 H 1650.07 0.493525 1.41013 0
M  V30 17799 H 1651.95 -1.31894 4.00228 0
M  V30 17800 H 1650.62 -1.56704 2.83241 0
M  V30 17801 H 1649.53 0.583677 3.69519 0
M  V30 17802 H 1650.86 0.748485 4.86476 0
M  V30 17803 N 1652.52 -1.50101 0.480349 0
M  V30 17804 C 1653.43 -2.32488 -0.31408 0
M  V30 17805 C 1654.44 -1.43285 -0.987186 0
M  V30 17806 O 1655.62 -1.7633 -0.973123 0
M  V30 17807 C 1652.68 -3.18203 -1.37651 0
M  V30 17808 C 1651.74 -4.23236 -0.71903 0
M  V30 17809 C 1650.98 -5.04854 -1.73084 0
M  V30 17810 O 1651.2 -4.87681 -2.95843 0
M  V30 17811 O 1650.13 -5.87748 -1.29755 0
M  V30 17812 H 1653.96 -3.01562 0.3597 0
M  V30 17813 H 1651.54 -1.47427 0.242029 0
M  V30 17814 H 1653.43 -3.71362 -1.9917 0
M  V30 17815 H 1652.1 -2.51846 -2.0336 0
M  V30 17816 H 1651.01 -3.74044 -0.0646492 0
M  V30 17817 H 1652.34 -4.92089 -0.104743 0
M  V30 17818 N 1653.99 -0.213323 -1.5615 0
M  V30 17819 C 1654.93 0.739954 -2.1587 0
M  V30 17820 C 1655.9 1.19683 -1.10067 0
M  V30 17821 O 1657.09 1.28106 -1.38279 0
M  V30 17822 C 1654.22 2.00152 -2.73234 0
M  V30 17823 C 1653.26 1.68529 -3.91791 0
M  V30 17824 S 1654.09 0.817317 -5.29226 0
M  V30 17825 C 1655.25 2.08863 -5.90023 0
M  V30 17826 H 1655.48 0.232328 -2.96391 0
M  V30 17827 H 1653.02 0.00189263 -1.544 0
M  V30 17828 H 1654.97 2.72594 -3.06925 0
M  V30 17829 H 1653.64 2.48027 -1.92722 0
M  V30 17830 H 1652.83 2.62241 -4.30402 0
M  V30 17831 H 1652.43 1.04157 -3.59204 0
M  V30 17832 H 1654.72 3.03943 -6.05495 0
M  V30 17833 H 1655.67 1.74656 -6.86222 0
M  V30 17834 H 1656.07 2.22541 -5.18783 0
M  V30 17835 N 1655.47 1.57485 0.0601405 0
M  V30 17836 C 1656.72 1.86998 0.75595 0
M  V30 17837 C 1657.03 0.807616 1.78149 0
M  V30 17838 O 1658.24 0.99096 2.52769 0
M  V30 17839 C 1656.7 3.31746 1.39545 0
M  V30 17840 C 1656.3 4.46139 0.407874 0
M  V30 17841 C 1658.05 3.70445 2.07294 0
M  V30 17842 C 1655.96 5.81933 1.05395 0
M  V30 17843 H 1654.89 0.697619 0.286083 0
M  V30 17844 H 1657.54 1.83498 0.00948593 0
M  V30 17845 H 1655.92 3.29894 2.19057 0
M  V30 17846 H 1657.09 4.59405 -0.358281 0
M  V30 17847 H 1655.41 4.1607 -0.16581 0
M  V30 17848 H 1658 4.692 2.56428 0
M  V30 17849 H 1658.35 3.00839 2.87753 0
M  V30 17850 H 1658.88 3.74337 1.34598 0
M  V30 17851 H 1655.62 6.54861 0.289437 0
M  V30 17852 H 1655.14 5.72446 1.79068 0
M  V30 17853 H 1656.82 6.27652 1.5704 0
M  V30 17854 N 1656.95 -0.331789 1.54068 0
M  V30 17855 C 1657.9 -1.40798 1.82879 0
M  V30 17856 C 1658.87 -1.51753 0.675292 0
M  V30 17857 O 1660.05 -1.67105 0.920905 0
M  V30 17858 C 1657.19 -2.7728 2.0545 0
M  V30 17859 C 1656.31 -2.75022 3.33147 0
M  V30 17860 C 1655.44 -4.03297 3.45723 0
M  V30 17861 C 1654.48 -3.95314 4.67326 0
M  V30 17862 N 1653.62 -5.15303 4.76872 0
M  V30 17863 H 1658.46 -1.15529 2.74695 0
M  V30 17864 H 1655.99 -0.559411 1.36048 0
M  V30 17865 H 1657.95 -3.56611 2.16528 0
M  V30 17866 H 1656.58 -3.00875 1.16935 0
M  V30 17867 H 1655.63 -1.87729 3.30851 0
M  V30 17868 H 1656.95 -2.65003 4.22581 0
M  V30 17869 H 1656.1 -4.91057 3.56297 0
M  V30 17870 H 1654.84 -4.16112 2.54367 0
M  V30 17871 H 1653.84 -3.05939 4.56817 0
M  V30 17872 H 1655.07 -3.84072 5.60058 0
M  V30 17873 H 1653.01 -5.28639 3.88429 0
M  V30 17874 H 1652.93 -5.07588 5.60259 0
M  V30 17875 H 1654.2 -6.04801 4.91769 0
M  V30 17876 N 1658.43 -1.46001 -0.593424 0
M  V30 17877 C 1659.38 -1.55752 -1.70323 0
M  V30 17878 C 1660.35 -0.402466 -1.6115 0
M  V30 17879 O 1661.53 -0.617804 -1.80521 0
M  V30 17880 C 1658.67 -1.54362 -3.08653 0
M  V30 17881 C 1657.78 -2.80523 -3.28529 0
M  V30 17882 C 1656.92 -2.70709 -4.57045 0
M  V30 17883 C 1655.96 -3.91857 -4.70228 0
M  V30 17884 N 1655.09 -3.80494 -5.90059 0
M  V30 17885 H 1659.93 -2.50555 -1.61326 0
M  V30 17886 H 1657.47 -1.24313 -0.786425 0
M  V30 17887 H 1659.43 -1.51542 -3.88704 0
M  V30 17888 H 1658.06 -0.630986 -3.16573 0
M  V30 17889 H 1657.11 -2.93368 -2.42155 0
M  V30 17890 H 1658.42 -3.70341 -3.3414 0
M  V30 17891 H 1657.58 -2.65935 -5.45311 0
M  V30 17892 H 1656.32 -1.78513 -4.53855 0
M  V30 17893 H 1655.32 -3.96975 -3.80383 0
M  V30 17894 H 1656.55 -4.85136 -4.75205 0
M  V30 17895 H 1654.49 -2.91077 -5.87886 0
M  V30 17896 H 1654.41 -4.63958 -5.96891 0
M  V30 17897 H 1655.68 -3.79676 -6.80783 0
M  V30 17898 N 1659.91 0.83715 -1.33527 0
M  V30 17899 C 1661.13 1.62456 -1.28124 0
M  V30 17900 C 1661.55 1.88223 0.147499 0
M  V30 17901 O 1660.91 1.4636 1.09018 0
M  V30 17902 C 1660.96 2.97376 -2.05547 0
M  V30 17903 O 1660.68 2.7274 -3.42847 0
M  V30 17904 C 1662.18 3.91805 -2.07374 0
M  V30 17905 H 1659.4 0.505436 -0.441334 0
M  V30 17906 H 1661.94 1.04263 -1.75925 0
M  V30 17907 H 1660.1 3.52166 -1.61424 0
M  V30 17908 H 1660.51 3.58669 -3.82696 0
M  V30 17909 H 1661.99 4.83684 -2.65996 0
M  V30 17910 H 1662.46 4.26106 -1.06444 0
M  V30 17911 H 1663.07 3.42952 -2.51523 0
M  V30 17912 N 1661.38 1.17024 1.05561 0
M  V30 17913 C 1662.29 0.898107 2.16728 0
M  V30 17914 C 1663.31 -0.132369 1.73496 0
M  V30 17915 O 1664.49 0.0460203 2.01347 0
M  V30 17916 C 1661.55 0.411091 3.44254 0
M  V30 17917 C 1660.61 1.5077 4.01954 0
M  V30 17918 C 1659.85 1.04383 5.23393 0
M  V30 17919 O 1660.07 -0.10351 5.70306 0
M  V30 17920 O 1659 1.8353 5.73237 0
M  V30 17921 H 1662.83 1.82791 2.42531 0
M  V30 17922 H 1660.41 0.950816 1.15238 0
M  V30 17923 H 1662.3 0.146837 4.21144 0
M  V30 17924 H 1660.97 -0.490605 3.19961 0
M  V30 17925 H 1659.88 1.82579 3.26521 0
M  V30 17926 H 1661.21 2.38497 4.30558 0
M  V30 17927 N 1662.86 -1.24221 0.969889 0
M  V30 17928 C 1664.11 -1.91656 0.628559 0
M  V30 17929 C 1664.42 -1.76627 -0.840371 0
M  V30 17930 O 1665.63 -2.38771 -1.29232 0
M  V30 17931 C 1664.09 -3.43515 1.07357 0
M  V30 17932 C 1663.69 -3.67226 2.56611 0
M  V30 17933 C 1665.44 -4.16788 0.805493 0
M  V30 17934 C 1663.35 -5.12667 2.94834 0
M  V30 17935 H 1662.28 -0.717619 0.231384 0
M  V30 17936 H 1664.93 -1.40831 1.17639 0
M  V30 17937 H 1663.31 -3.93388 0.454037 0
M  V30 17938 H 1664.48 -3.27942 3.23713 0
M  V30 17939 H 1662.8 -3.07243 2.81053 0
M  V30 17940 H 1665.39 -5.23945 1.06705 0
M  V30 17941 H 1665.74 -4.15498 -0.258321 0
M  V30 17942 H 1666.27 -3.7287 1.3861 0
M  V30 17943 H 1663.01 -5.1908 4.00295 0
M  V30 17944 H 1662.53 -5.5294 2.32417 0
M  V30 17945 H 1664.21 -5.80916 2.8486 0
M  V30 17946 N 1664.34 -0.740267 -1.39132 0
M  V30 17947 C 1665.57 -0.300494 -2.04403 0
M  V30 17948 C 1665.98 1.07148 -1.55936 0
M  V30 17949 O 1665.32 1.68929 -0.72172 0
M  V30 17950 C 1665.38 -0.229797 -3.58765 0
M  V30 17951 C 1665.05 -1.54111 -4.30231 0
M  V30 17952 C 1666.04 -2.48781 -4.56513 0
M  V30 17953 C 1663.73 -1.80686 -4.68677 0
M  V30 17954 C 1665.72 -3.68255 -5.20256 0
M  V30 17955 C 1663.41 -3.00437 -5.32147 0
M  V30 17956 C 1664.41 -3.94043 -5.5787 0
M  V30 17957 O 1664.1 -5.1169 -6.20023 0
M  V30 17958 H 1663.83 -0.128309 -0.663711 0
M  V30 17959 H 1666.38 -1.00624 -1.79064 0
M  V30 17960 H 1664.61 0.532089 -3.83022 0
M  V30 17961 H 1666.3 0.178681 -4.05507 0
M  V30 17962 H 1667.07 -2.29521 -4.27253 0
M  V30 17963 H 1662.95 -1.08669 -4.48009 0
M  V30 17964 H 1666.49 -4.41334 -5.4025 0
M  V30 17965 H 1662.39 -3.19595 -5.60829 0
M  V30 17966 H 1663.16 -5.12095 -6.38515 0
M  V30 17967 N 1665.82 1.49844 -0.488302 0
M  V30 17968 C 1667.06 2.02709 0.060788 0
M  V30 17969 C 1667.4 1.36828 1.37811 0
M  V30 17970 O 1666.67 0.499679 1.87972 0
M  V30 17971 C 1666.96 3.59386 0.226637 0
M  V30 17972 C 1666.81 4.35814 -1.11292 0
M  V30 17973 C 1668.13 4.29204 0.973218 0
M  V30 17974 H 1665.25 0.736712 0.0206177 0
M  V30 17975 H 1667.89 1.78995 -0.637245 0
M  V30 17976 H 1666.04 3.79722 0.821182 0
M  V30 17977 H 1667.71 4.27007 -1.74536 0
M  V30 17978 H 1665.95 3.98874 -1.70535 0
M  V30 17979 H 1666.62 5.43758 -0.950319 0
M  V30 17980 H 1669.1 4.13447 0.469106 0
M  V30 17981 H 1667.98 5.38605 1.05809 0
M  V30 17982 H 1668.24 3.93564 2.01394 0
M  V30 17983 N 1667.3 0.221601 1.56034 0
M  V30 17984 C 1668.26 -0.674973 2.19036 0
M  V30 17985 C 1669.26 -1.1216 1.15225 0
M  V30 17986 O 1670.45 -1.0304 1.40458 0
M  V30 17987 C 1667.58 -1.92465 2.81372 0
M  V30 17988 H 1668.77 -0.125689 2.99637 0
M  V30 17989 H 1666.33 -0.0280114 1.56275 0
M  V30 17990 H 1667.06 -2.5158 2.04641 0
M  V30 17991 H 1666.85 -1.61286 3.57392 0
M  V30 17992 H 1668.34 -2.56342 3.29664 0
M  V30 17993 N 1668.77 -1.57515 -0.0517878 0
M  V30 17994 C 1670.02 -1.8935 -0.742852 0
M  V30 17995 C 1670.38 -0.817645 -1.74162 0
M  V30 17996 O 1669.67 0.176157 -1.90788 0
M  V30 17997 C 1669.86 -3.25625 -1.4732 0
M  V30 17998 C 1669.69 -4.46365 -0.546677 0
M  V30 17999 C 1668.46 -5.04993 -0.176143 0
M  V30 18000 C 1670.66 -5.14034 0.165236 0
M  V30 18001 N 1668.64 -6.09252 0.75401 0
M  V30 18002 C 1670.01 -6.1265 0.95185 0
M  V30 18003 C 1672.07 -4.97347 0.234592 0
M  V30 18004 C 1670.77 -6.96378 1.80141 0
M  V30 18005 C 1672.8 -5.81618 1.07119 0
M  V30 18006 C 1672.16 -6.79786 1.8458 0
M  V30 18007 H 1668.26 -0.742089 -0.246634 0
M  V30 18008 H 1670.84 -1.947 -0.00363349 0
M  V30 18009 H 1669.01 -3.21246 -2.18301 0
M  V30 18010 H 1670.74 -3.45045 -2.11485 0
M  V30 18011 H 1667.5 -4.70587 -0.5334 0
M  V30 18012 H 1667.92 -6.66046 1.21292 0
M  V30 18013 H 1672.57 -4.21349 -0.349957 0
M  V30 18014 H 1670.28 -7.71736 2.39685 0
M  V30 18015 H 1673.87 -5.70758 1.1281 0
M  V30 18016 H 1672.75 -7.43862 2.48271 0
M  V30 18017 N 1670.25 0.323614 -1.54242 0
M  V30 18018 C 1671.5 1.06314 -1.727 0
M  V30 18019 C 1671.83 1.87674 -0.499225 0
M  V30 18020 O 1671.11 1.87862 0.503805 0
M  V30 18021 C 1671.39 1.9879 -3.00258 0
M  V30 18022 C 1671.24 1.2076 -4.33286 0
M  V30 18023 C 1672.56 2.98314 -3.23569 0
M  V30 18024 H 1669.68 0.385101 -0.628384 0
M  V30 18025 H 1672.32 0.339801 -1.86937 0
M  V30 18026 H 1670.47 2.60468 -2.88251 0
M  V30 18027 H 1672.15 0.615425 -4.57176 0
M  V30 18028 H 1670.39 0.509878 -4.30793 0
M  V30 18029 H 1671.06 1.88662 -5.18759 0
M  V30 18030 H 1673.54 2.46757 -3.35037 0
M  V30 18031 H 1672.41 3.60204 -4.14179 0
M  V30 18032 H 1672.67 3.7077 -2.40795 0
M  V30 18033 N 1671.73 1.46313 0.585673 0
M  V30 18034 C 1673.14 1.4567 1.16778 0
M  V30 18035 C 1673.49 0.195957 1.95219 0
M  V30 18036 O 1672.62 -0.701142 2.04727 0
M  V30 18037 C 1673.21 2.6392 2.12443 0
M  V30 18038 C 1671.77 2.66327 2.65983 0
M  V30 18039 C 1670.92 2.38304 1.41797 0
M  V30 18040 H 1673.87 1.54236 0.37377 0
M  V30 18041 H 1673.89 2.39268 2.95856 0
M  V30 18042 H 1673.4 3.55663 1.55324 0
M  V30 18043 H 1671.5 1.78648 3.2698 0
M  V30 18044 H 1671.62 3.66203 3.08921 0
M  V30 18045 H 1669.98 1.88302 1.71507 0
M  V30 18046 H 1670.76 3.3222 0.86514 0
M  V30 18047 N 1673.21 -0.830057 1.33969 0
M  V30 18048 C 1674.17 -1.92206 1.24858 0
M  V30 18049 C 1675.17 -1.59946 0.16549 0
M  V30 18050 O 1676.36 -1.6912 0.417629 0
M  V30 18051 C 1673.49 -3.28082 0.926029 0
M  V30 18052 H 1674.69 -2.01708 2.21932 0
M  V30 18053 H 1672.24 -1.02319 1.18154 0
M  V30 18054 H 1672.98 -3.24273 -0.0418364 0
M  V30 18055 H 1672.76 -3.52878 1.70938 0
M  V30 18056 H 1674.25 -4.08065 0.887263 0
M  V30 18057 N 1674.69 -1.17582 -1.04939 0
M  V30 18058 C 1675.64 -0.862938 -2.11039 0
M  V30 18059 C 1676.62 0.163585 -1.60066 0
M  V30 18060 O 1677.81 -0.0392119 -1.76957 0
M  V30 18061 C 1674.94 -0.380811 -3.41181 0
M  V30 18062 C 1674.03 -1.4389 -3.98944 0
M  V30 18063 N 1674.42 -2.65304 -4.30636 0
M  V30 18064 C 1672.72 -1.29736 -4.26714 0
M  V30 18065 C 1673.42 -3.33311 -4.76737 0
M  V30 18066 N 1672.39 -2.6069 -4.77013 0
M  V30 18067 H 1676.2 -1.78602 -2.33407 0
M  V30 18068 H 1673.71 -1.06491 -1.22611 0
M  V30 18069 H 1675.71 -0.1382 -4.16671 0
M  V30 18070 H 1674.37 0.536032 -3.20245 0
M  V30 18071 H 1675.38 -3.02247 -4.20556 0
M  V30 18072 H 1672.06 -0.442367 -4.1515 0
M  V30 18073 H 1673.45 -4.37026 -5.1035 0
M  V30 18074 N 1676.17 1.23705 -0.976463 0
M  V30 18075 C 1677.11 2.25023 -0.513156 0
M  V30 18076 C 1678.08 1.60003 0.445903 0
M  V30 18077 O 1679.27 1.87481 0.354323 0
M  V30 18078 C 1676.41 3.44619 0.182088 0
M  V30 18079 C 1675.52 4.24209 -0.816769 0
M  V30 18080 C 1674.66 5.31112 -0.0967355 0
M  V30 18081 C 1673.69 6.02406 -1.08507 0
M  V30 18082 N 1672.83 7.00991 -0.394455 0
M  V30 18083 H 1677.67 2.64019 -1.38194 0
M  V30 18084 H 1675.21 1.29777 -0.692566 0
M  V30 18085 H 1677.17 4.12835 0.601948 0
M  V30 18086 H 1675.8 3.06435 1.01477 0
M  V30 18087 H 1674.85 3.55448 -1.35503 0
M  V30 18088 H 1676.16 4.73445 -1.57006 0
M  V30 18089 H 1675.31 6.05504 0.380686 0
M  V30 18090 H 1674.05 4.82806 0.689187 0
M  V30 18091 H 1673.06 5.26809 -1.57328 0
M  V30 18092 H 1674.28 6.528 -1.87159 0
M  V30 18093 H 1672.23 6.54943 0.372331 0
M  V30 18094 H 1672.15 7.48152 -1.08647 0
M  V30 18095 H 1673.41 7.79476 0.0607087 0
M  V30 18096 N 1677.64 0.747635 1.38738 0
M  V30 18097 C 1678.89 0.300552 1.99853 0
M  V30 18098 C 1679.21 -1.11986 1.59638 0
M  V30 18099 O 1678.48 -1.76477 0.850447 0
M  V30 18100 H 1677.06 0.108134 0.739132 0
M  V30 18101 H 1679.72 0.960405 1.69594 0
M  V30 18102 H 1678.82 0.358956 3.10029 0
M  V30 18103 N 1679.12 -1.49583 0.496242 0
M  V30 18104 C 1680.37 -2.01634 -0.051782 0
M  V30 18105 C 1680.68 -1.38133 -1.38487 0
M  V30 18106 O 1681.89 -1.81484 -2.0193 0
M  V30 18107 C 1680.35 -3.59617 -0.142755 0
M  V30 18108 C 1679.95 -4.32088 1.1834 0
M  V30 18109 C 1681.7 -4.19626 -0.641397 0
M  V30 18110 C 1679.6 -5.81917 1.05485 0
M  V30 18111 H 1678.53 -0.753645 -0.0231258 0
M  V30 18112 H 1681.19 -1.72165 0.634944 0
M  V30 18113 H 1679.57 -3.85781 -0.893826 0
M  V30 18114 H 1680.74 -4.17628 1.94739 0
M  V30 18115 H 1679.06 -3.83801 1.61511 0
M  V30 18116 H 1681.65 -5.29343 -0.755008 0
M  V30 18117 H 1682 -3.82676 -1.63906 0
M  V30 18118 H 1682.53 -3.97765 0.053003 0
M  V30 18119 H 1679.27 -6.23384 2.02664 0
M  V30 18120 H 1678.79 -5.98882 0.331667 0
M  V30 18121 H 1680.47 -6.4285 0.731641 0
M  V30 18122 N 1680.6 -0.229873 -1.55915 0
M  V30 18123 C 1681.85 0.398775 -1.98127 0
M  V30 18124 C 1682.17 1.597 -1.11897 0
M  V30 18125 O 1681.44 1.94898 -0.197868 0
M  V30 18126 H 1680.02 0.150323 -0.731719 0
M  V30 18127 H 1682.68 -0.324704 -1.92176 0
M  V30 18128 H 1681.78 0.719475 -3.03694 0
M  V30 18129 N 1682.08 1.5754 0.0434337 0
M  V30 18130 C 1683.33 1.88235 0.735652 0
M  V30 18131 C 1683.65 0.825698 1.76656 0
M  V30 18132 O 1682.92 -0.142424 1.95382 0
M  V30 18133 H 1681.5 0.694661 0.274692 0
M  V30 18134 H 1684.16 1.94896 0.0127911 0
M  V30 18135 H 1683.25 2.86659 1.23421 0
M  V30 18136 N 1683.56 -0.31543 1.54411 0
M  V30 18137 C 1684.5 -1.4086 1.85098 0
M  V30 18138 C 1685.5 -1.53172 0.723518 0
M  V30 18139 O 1686.7 -1.55461 0.907303 0
M  V30 18140 H 1683.08 -0.47022 0.586853 0
M  V30 18141 H 1685.05 -1.12207 2.765 0
M  V30 18142 C 1683.8 -2.76948 2.10227 0
M  V30 18143 H 1683.12 -2.68251 2.96448 0
M  V30 18144 H 1684.56 -3.52486 2.35647 0
M  V30 18145 C 1683.02 -3.24758 0.896312 0
M  V30 18146 O 1683.55 -4.0155 0.109609 0
M  V30 18147 N 1681.76 -2.81901 0.705685 0
M  V30 18148 H 1681.3 -2.19571 1.34708 0
M  V30 18149 H 1681.26 -3.14242 -0.0996804 0
M  V30 18150 N 1685.03 -1.46622 -0.577906 0
M  V30 18151 C 1685.97 -1.53587 -1.70128 0
M  V30 18152 C 1686.98 -0.423789 -1.57187 0
M  V30 18153 O 1688.17 -0.692392 -1.64524 0
M  V30 18154 C 1685.27 -1.40459 -3.08422 0
M  V30 18155 C 1684.44 -2.65872 -3.47319 0
M  V30 18156 C 1683.5 -2.46875 -4.64693 0
M  V30 18157 O 1682.53 -3.20617 -4.70312 0
M  V30 18158 N 1683.73 -1.53352 -5.59878 0
M  V30 18159 H 1686.49 -2.50449 -1.64606 0
M  V30 18160 H 1684.05 -1.42739 -0.764014 0
M  V30 18161 H 1686.05 -1.25516 -3.84744 0
M  V30 18162 H 1684.62 -0.517603 -3.08285 0
M  V30 18163 H 1683.84 -2.95724 -2.60655 0
M  V30 18164 H 1685.12 -3.49173 -3.70075 0
M  V30 18165 H 1684.52 -0.925526 -5.58078 0
M  V30 18166 H 1683.08 -1.4437 -6.3561 0
M  V30 18167 N 1686.51 0.822941 -1.34408 0
M  V30 18168 C 1687.42 1.96567 -1.28056 0
M  V30 18169 C 1688.44 1.72979 -0.188251 0
M  V30 18170 O 1689.61 1.97084 -0.41472 0
M  V30 18171 C 1686.68 3.30865 -1.03583 0
M  V30 18172 C 1685.74 3.67461 -2.2197 0
M  V30 18173 C 1684.97 4.9535 -1.98655 0
M  V30 18174 O 1685.2 5.62521 -0.944785 0
M  V30 18175 O 1684.13 5.29824 -2.85605 0
M  V30 18176 H 1687.96 2.0487 -2.24192 0
M  V30 18177 H 1685.54 0.958334 -1.14614 0
M  V30 18178 H 1687.42 4.11298 -0.917162 0
M  V30 18179 H 1686.1 3.2353 -0.104868 0
M  V30 18180 H 1685.01 2.87472 -2.39396 0
M  V30 18181 H 1686.34 3.79481 -3.13456 0
M  V30 18182 N 1687.99 1.18137 1.04314 0
M  V30 18183 C 1689.24 0.969582 1.76867 0
M  V30 18184 C 1689.55 -0.501982 1.89049 0
M  V30 18185 O 1690.76 -0.832218 2.58431 0
M  V30 18186 C 1689.21 1.68571 3.17981 0
M  V30 18187 C 1688.82 3.19641 3.13901 0
M  V30 18188 C 1690.57 1.55664 3.94929 0
M  V30 18189 C 1688.47 3.83904 4.49858 0
M  V30 18190 H 1687.4 0.359141 0.662973 0
M  V30 18191 H 1690.05 1.41484 1.16852 0
M  V30 18192 H 1688.44 1.16821 3.78377 0
M  V30 18193 H 1689.61 3.78395 2.62971 0
M  V30 18194 H 1687.93 3.32661 2.50451 0
M  V30 18195 H 1690.52 2.01039 4.95467 0
M  V30 18196 H 1690.87 0.508522 4.13182 0
M  V30 18197 H 1691.4 2.0468 3.41103 0
M  V30 18198 H 1688.14 4.88751 4.36809 0
M  V30 18199 H 1687.66 3.29937 5.00901 0
M  V30 18200 H 1689.34 3.86623 5.18779 0
M  V30 18201 N 1689.47 -1.23186 0.98301 0
M  V30 18202 C 1690.75 -1.87121 0.569651 0
M  V30 18203 C 1691.13 -1.88355 -0.95319 0
M  V30 18204 O 1690.47 -1.36699 -1.831 0
M  V30 18205 C 1690.68 -3.28493 1.17871 0
M  V30 18206 C 1692.03 -4.05065 1.27308 0
M  V30 18207 O 1693.06 -3.37722 1.13236 0
M  V30 18208 O 1691.91 -5.2559 1.49723 0
M  V30 18209 H 1689.01 -0.804363 0.192171 0
M  V30 18210 H 1691.55 -1.31041 1.07826 0
M  V30 18211 H 1690.33 -3.22175 2.22078 0
M  V30 18212 H 1689.95 -3.92166 0.655087 0
M  V30 18213 N 1690.95 -0.754982 -1.38339 0
M  V30 18214 C 1691.9 -0.103867 -2.27763 0
M  V30 18215 C 1692.88 0.691777 -1.4527 0
M  V30 18216 O 1694.07 0.557503 -1.67991 0
M  V30 18217 C 1691.2 0.787421 -3.34148 0
M  V30 18218 C 1690.29 -0.0151461 -4.24097 0
M  V30 18219 N 1690.68 -1.05227 -4.94733 0
M  V30 18220 C 1688.98 0.211452 -4.45498 0
M  V30 18221 C 1689.68 -1.53796 -5.61001 0
M  V30 18222 N 1688.65 -0.853018 -5.36866 0
M  V30 18223 H 1692.46 -0.898166 -2.7984 0
M  V30 18224 H 1689.97 -0.591155 -1.51258 0
M  V30 18225 H 1691.97 1.26952 -3.971 0
M  V30 18226 H 1690.63 1.58066 -2.83629 0
M  V30 18227 H 1691.64 -1.43409 -4.97649 0
M  V30 18228 H 1688.31 0.977919 -4.05885 0
M  V30 18229 H 1689.7 -2.40193 -6.27501 0
M  V30 18230 N 1692.42 1.49318 -0.504168 0
M  V30 18231 C 1693.35 2.32027 0.261837 0
M  V30 18232 C 1694.34 1.4045 0.959575 0
M  V30 18233 O 1695.52 1.69357 0.950365 0
M  V30 18234 C 1692.65 3.21039 1.3248 0
M  V30 18235 C 1691.6 4.21435 0.746752 0
M  V30 18236 C 1690.93 4.99405 1.91047 0
M  V30 18237 C 1692.23 5.21631 -0.264315 0
M  V30 18238 H 1693.92 2.96317 -0.428544 0
M  V30 18239 H 1691.47 1.42497 -0.207539 0
M  V30 18240 H 1693.42 3.77714 1.86843 0
M  V30 18241 H 1692.15 2.54699 2.04441 0
M  V30 18242 H 1690.81 3.6591 0.22485 0
M  V30 18243 H 1690.45 4.29509 2.61784 0
M  V30 18244 H 1690.15 5.67338 1.52975 0
M  V30 18245 H 1691.68 5.58924 2.45837 0
M  V30 18246 H 1693.09 5.72981 0.191288 0
M  V30 18247 H 1691.49 5.97472 -0.561039 0
M  V30 18248 H 1692.56 4.70346 -1.17911 0
M  V30 18249 N 1693.9 0.238138 1.5579 0
M  V30 18250 C 1695.15 -0.389608 1.99022 0
M  V30 18251 C 1695.48 -1.58226 1.12597 0
M  V30 18252 O 1694.76 -1.93595 0.187363 0
M  V30 18253 C 1695.04 -0.808025 3.50917 0
M  V30 18254 C 1694.89 0.389417 4.48111 0
M  V30 18255 C 1696.21 -1.6582 4.07666 0
M  V30 18256 H 1693.33 -0.140141 0.723553 0
M  V30 18257 H 1695.97 0.337696 1.86975 0
M  V30 18258 H 1694.12 -1.42772 3.61315 0
M  V30 18259 H 1695.79 1.02777 4.49705 0
M  V30 18260 H 1694.04 1.03404 4.21296 0
M  V30 18261 H 1694.71 0.0534549 5.51974 0
M  V30 18262 H 1697.18 -1.13518 4.00316 0
M  V30 18263 H 1696.06 -1.91984 5.14231 0
M  V30 18264 H 1696.32 -2.62712 3.55577 0
M  V30 18265 N 1695.38 -1.57561 -0.0350783 0
M  V30 18266 C 1696.61 -1.93644 -0.742753 0
M  V30 18267 C 1697.03 -0.837655 -1.68419 0
M  V30 18268 O 1696.39 0.207069 -1.80114 0
M  V30 18269 C 1696.44 -3.28779 -1.48111 0
M  V30 18270 O 1695.54 -3.20604 -2.59398 0
M  V30 18271 H 1694.88 -0.633103 -0.200192 0
M  V30 18272 H 1697.41 -2.04599 0.00765271 0
M  V30 18273 H 1697.42 -3.63527 -1.85236 0
M  V30 18274 H 1696.1 -4.08316 -0.790608 0
M  V30 18275 H 1694.67 -2.97477 -2.2486 0
M  V30 18276 N 1696.86 0.307236 -1.54576 0
M  V30 18277 C 1697.79 1.40019 -1.81459 0
M  V30 18278 C 1698.8 1.47113 -0.697246 0
M  V30 18279 O 1699.99 1.49544 -0.974626 0
M  V30 18280 C 1697.09 2.78439 -1.93197 0
M  V30 18281 C 1696.27 2.94353 -3.23536 0
M  V30 18282 C 1695.32 4.13232 -3.25769 0
M  V30 18283 O 1694.35 4.05614 -3.99331 0
M  V30 18284 N 1695.55 5.23567 -2.50715 0
M  V30 18285 H 1698.32 1.17317 -2.75784 0
M  V30 18286 H 1695.88 0.497286 -1.54074 0
M  V30 18287 H 1697.87 3.56202 -1.921 0
M  V30 18288 H 1696.44 2.94117 -1.05895 0
M  V30 18289 H 1695.66 2.03754 -3.37458 0
M  V30 18290 H 1696.95 3.01892 -4.09559 0
M  V30 18291 H 1696.35 5.32635 -1.90569 0
M  V30 18292 H 1694.9 5.99687 -2.55379 0
M  V30 18293 N 1698.34 1.46926 0.570122 0
M  V30 18294 C 1699.58 1.52585 1.32523 0
M  V30 18295 C 1699.91 0.184291 1.94127 0
M  V30 18296 O 1699.18 -0.790478 1.79244 0
M  V30 18297 H 1697.76 0.562019 0.492081 0
M  V30 18298 H 1700.42 1.83141 0.666746 0
M  V30 18299 H 1699.51 2.28541 2.12545 0
M  V30 18300 N 1699.82 -0.815801 1.34842 0
M  V30 18301 C 1701.06 -1.56747 1.26938 0
M  V30 18302 C 1701.38 -1.9497 -0.156887 0
M  V30 18303 O 1702.58 -2.69128 -0.358132 0
M  V30 18304 C 1701.04 -2.82832 2.22562 0
M  V30 18305 C 1700.65 -2.51883 3.70485 0
M  V30 18306 C 1702.39 -3.60849 2.23581 0
M  V30 18307 C 1700.3 -3.74204 4.57957 0
M  V30 18308 H 1699.23 -0.58832 0.471588 0
M  V30 18309 H 1701.88 -0.897551 1.60051 0
M  V30 18310 H 1700.26 -3.51486 1.8241 0
M  V30 18311 H 1701.44 -1.91294 4.19217 0
M  V30 18312 H 1699.75 -1.87129 3.71983 0
M  V30 18313 H 1702.35 -4.51686 2.86154 0
M  V30 18314 H 1702.69 -3.97496 1.23703 0
M  V30 18315 H 1703.22 -2.99146 2.62215 0
M  V30 18316 H 1699.96 -3.42672 5.58799 0
M  V30 18317 H 1699.48 -4.34051 4.13956 0
M  V30 18318 H 1701.16 -4.41536 4.72921 0
M  V30 18319 N 1701.29 -1.18689 -1.03686 0
M  V30 18320 C 1702.71 -0.937386 -1.29171 0
M  V30 18321 C 1702.91 0.394863 -1.97593 0
M  V30 18322 O 1701.97 1.12829 -2.25889 0
M  V30 18323 C 1703.28 -2.10568 -2.14666 0
M  V30 18324 C 1704.83 -2.14441 -2.28 0
M  V30 18325 C 1705.3 -3.30699 -3.16863 0
M  V30 18326 N 1706.79 -3.30584 -3.24451 0
M  V30 18327 C 1707.53 -4.17184 -3.93376 0
M  V30 18328 N 1707.02 -5.13924 -4.646 0
M  V30 18329 N 1708.82 -4.05086 -3.89694 0
M  V30 18330 H 1700.97 -2.04417 -0.576836 0
M  V30 18331 H 1703.23 -0.893404 -0.31707 0
M  V30 18332 H 1702.94 -3.06938 -1.71702 0
M  V30 18333 H 1702.81 -2.06955 -3.15356 0
M  V30 18334 H 1705.2 -1.18647 -2.70198 0
M  V30 18335 H 1705.28 -2.22111 -1.26888 0
M  V30 18336 H 1704.92 -4.26768 -2.75375 0
M  V30 18337 H 1704.85 -3.20266 -4.18016 0
M  V30 18338 H 1707.34 -2.60552 -2.73717 0
M  V30 18339 H 1707.66 -5.76368 -5.14801 0
M  V30 18340 H 1706 -5.1788 -4.63492 0
M  V30 18341 H 1709.19 -3.28793 -3.33186 0
M  V30 18342 H 1709.37 -4.72792 -4.43139 0
M  V30 18343 N 1702.77 1.22662 -0.989529 0
M  V30 18344 C 1703.7 2.23784 -0.495301 0
M  V30 18345 C 1704.72 1.5761 0.40779 0
M  V30 18346 O 1705.91 1.77255 0.210464 0
M  V30 18347 C 1703.01 3.37553 0.301836 0
M  V30 18348 C 1702.18 4.33312 -0.596578 0
M  V30 18349 C 1701.24 5.25991 0.148272 0
M  V30 18350 O 1700.26 5.67296 -0.46519 0
M  V30 18351 N 1701.47 5.62571 1.43158 0
M  V30 18352 H 1704.23 2.66819 -1.36483 0
M  V30 18353 H 1701.79 1.36928 -0.863853 0
M  V30 18354 H 1703.78 3.96538 0.808701 0
M  V30 18355 H 1702.35 2.93628 1.07243 0
M  V30 18356 H 1701.57 3.72697 -1.28416 0
M  V30 18357 H 1702.86 4.94239 -1.20853 0
M  V30 18358 H 1702.26 5.30979 1.95136 0
M  V30 18359 H 1700.82 6.23987 1.8837 0
M  V30 18360 N 1704.25 0.762308 1.37937 0
M  V30 18361 C 1705.5 0.322846 2.00214 0
M  V30 18362 C 1705.83 -1.09513 1.60376 0
M  V30 18363 O 1705.1 -1.75165 0.845432 0
M  V30 18364 C 1705.39 0.455651 3.57206 0
M  V30 18365 C 1705.24 1.91537 4.06981 0
M  V30 18366 C 1706.56 -0.145758 4.39859 0
M  V30 18367 H 1703.68 0.118781 0.727365 0
M  V30 18368 H 1706.32 0.963585 1.63753 0
M  V30 18369 H 1704.47 -0.0898341 3.88396 0
M  V30 18370 H 1706.14 2.51983 3.86397 0
M  V30 18371 H 1704.38 2.42744 3.59524 0
M  V30 18372 H 1705.06 1.9594 5.16054 0
M  V30 18373 H 1707.53 0.31956 4.14871 0
M  V30 18374 H 1706.41 -0.0226441 5.48895 0
M  V30 18375 H 1706.67 -1.23504 4.24499 0
M  V30 18376 N 1705.73 -1.49049 0.51208 0
M  V30 18377 C 1706.66 -2.32163 -0.249529 0
M  V30 18378 C 1707.64 -1.40957 -0.952114 0
M  V30 18379 O 1708.82 -1.69858 -0.94137 0
M  V30 18380 C 1705.95 -3.21737 -1.30776 0
M  V30 18381 C 1704.91 -4.21825 -0.724392 0
M  V30 18382 C 1704.23 -5.00411 -1.88396 0
M  V30 18383 C 1705.53 -5.21483 0.291975 0
M  V30 18384 H 1707.23 -2.96086 0.444253 0
M  V30 18385 H 1704.77 -1.42385 0.215093 0
M  V30 18386 H 1706.73 -3.78699 -1.84837 0
M  V30 18387 H 1705.45 -2.55779 -2.03088 0
M  V30 18388 H 1704.11 -3.66024 -0.205441 0
M  V30 18389 H 1703.76 -4.30891 -2.59502 0
M  V30 18390 H 1703.46 -5.68141 -1.49964 0
M  V30 18391 H 1704.98 -5.6022 -2.42869 0
M  V30 18392 H 1706.4 -5.73074 -0.160899 0
M  V30 18393 H 1704.79 -5.97166 0.592717 0
M  V30 18394 H 1705.86 -4.69714 1.20404 0
M  V30 18395 N 1707.21 -0.246397 -1.55662 0
M  V30 18396 C 1708.45 0.378487 -1.98931 0
M  V30 18397 C 1708.78 1.57984 -1.13452 0
M  V30 18398 O 1708.04 1.94822 -0.185214 0
M  V30 18399 C 1708.33 0.832225 -3.47576 0
M  V30 18400 C 1708 -0.261318 -4.50142 0
M  V30 18401 C 1706.66 -0.56166 -4.77911 0
M  V30 18402 C 1709.01 -0.999618 -5.11524 0
M  V30 18403 C 1706.34 -1.60438 -5.64337 0
M  V30 18404 C 1708.69 -2.03186 -5.99081 0
M  V30 18405 C 1707.36 -2.33885 -6.25183 0
M  V30 18406 H 1706.63 0.138498 -0.727942 0
M  V30 18407 H 1709.28 -0.354116 -1.88197 0
M  V30 18408 H 1707.58 1.64402 -3.55639 0
M  V30 18409 H 1709.28 1.32598 -3.78442 0
M  V30 18410 H 1705.87 -0.0170894 -4.28597 0
M  V30 18411 H 1710.05 -0.780833 -4.90119 0
M  V30 18412 H 1705.31 -1.84758 -5.82816 0
M  V30 18413 H 1709.48 -2.60886 -6.45687 0
M  V30 18414 H 1707.11 -3.14822 -6.91947 0
M  V30 18415 N 1708.68 1.57577 0.026722 0
M  V30 18416 C 1709.61 2.09748 1.02605 0
M  V30 18417 C 1710.59 1.00054 1.37562 0
M  V30 18418 O 1711.78 1.2759 1.46405 0
M  V30 18419 C 1708.91 2.57881 2.32626 0
M  V30 18420 C 1707.86 3.7186 2.11905 0
M  V30 18421 C 1707.19 4.06208 3.47706 0
M  V30 18422 C 1708.49 5.00198 1.50332 0
M  V30 18423 H 1710.18 2.93494 0.591753 0
M  V30 18424 H 1707.73 1.41188 0.283199 0
M  V30 18425 H 1709.68 2.93 3.02868 0
M  V30 18426 H 1708.41 1.71222 2.7812 0
M  V30 18427 H 1707.07 3.37094 1.44096 0
M  V30 18428 H 1706.71 3.16611 3.90853 0
M  V30 18429 H 1706.41 4.82982 3.34667 0
M  V30 18430 H 1707.94 4.43863 4.19306 0
M  V30 18431 H 1709.35 5.33259 2.10494 0
M  V30 18432 H 1707.75 5.81599 1.4786 0
M  V30 18433 H 1708.82 4.82623 0.469405 0
M  V30 18434 N 1710.16 -0.299034 1.54737 0
M  V30 18435 C 1711.07 -1.39141 1.88884 0
M  V30 18436 C 1712.09 -1.55377 0.783203 0
M  V30 18437 O 1713.26 -1.70003 1.07985 0
M  V30 18438 C 1710.33 -2.73487 2.13087 0
M  V30 18439 C 1709.39 -2.66219 3.36788 0
M  V30 18440 C 1708.62 -3.94158 3.59827 0
M  V30 18441 O 1708.85 -4.9361 2.85841 0
M  V30 18442 O 1707.78 -3.95933 4.53344 0
M  V30 18443 H 1711.61 -1.13184 2.81821 0
M  V30 18444 H 1709.19 -0.495271 1.40952 0
M  V30 18445 H 1711.07 -3.5297 2.30195 0
M  V30 18446 H 1709.75 -2.99283 1.23335 0
M  V30 18447 H 1708.65 -1.85201 3.25041 0
M  V30 18448 H 1709.99 -2.45376 4.26675 0
M  V30 18449 N 1711.64 -1.47227 -0.562322 0
M  V30 18450 C 1712.59 -1.59329 -1.66981 0
M  V30 18451 C 1713.56 -0.436558 -1.6026 0
M  V30 18452 O 1714.74 -0.655956 -1.7917 0
M  V30 18453 C 1711.88 -1.60874 -3.05309 0
M  V30 18454 C 1710.99 -2.87428 -3.22505 0
M  V30 18455 C 1710.13 -2.80342 -4.512 0
M  V30 18456 C 1709.17 -4.01744 -4.6181 0
M  V30 18457 N 1708.31 -3.92924 -5.81855 0
M  V30 18458 H 1713.15 -2.53921 -1.55975 0
M  V30 18459 H 1710.68 -1.25953 -0.759879 0
M  V30 18460 H 1712.64 -1.59753 -3.85402 0
M  V30 18461 H 1711.27 -0.697994 -3.15163 0
M  V30 18462 H 1710.32 -2.98439 -2.35878 0
M  V30 18463 H 1711.63 -3.77345 -3.26209 0
M  V30 18464 H 1710.79 -2.77442 -5.39547 0
M  V30 18465 H 1709.53 -1.881 -4.49966 0
M  V30 18466 H 1708.53 -4.04954 -3.71877 0
M  V30 18467 H 1709.76 -4.95107 -4.64807 0
M  V30 18468 H 1707.7 -3.03481 -5.8158 0
M  V30 18469 H 1707.62 -4.76514 -5.86916 0
M  V30 18470 H 1708.89 -3.94031 -6.72577 0
M  V30 18471 N 1713.12 0.808639 -1.35273 0
M  V30 18472 C 1714.37 1.56071 -1.27768 0
M  V30 18473 C 1714.68 1.9505 0.146545 0
M  V30 18474 O 1715.89 2.69314 0.343855 0
M  V30 18475 C 1714.34 2.81648 -2.24059 0
M  V30 18476 C 1713.95 2.49915 -3.71815 0
M  V30 18477 C 1715.69 3.59658 -2.25492 0
M  V30 18478 C 1713.6 3.7177 -4.59936 0
M  V30 18479 H 1712.53 0.585811 -0.474701 0
M  V30 18480 H 1715.18 0.889051 -1.60525 0
M  V30 18481 H 1713.56 3.50514 -1.84271 0
M  V30 18482 H 1714.74 1.89068 -4.20226 0
M  V30 18483 H 1713.05 1.85154 -3.72971 0
M  V30 18484 H 1715.65 4.50162 -2.88545 0
M  V30 18485 H 1715.99 3.96835 -1.2581 0
M  V30 18486 H 1716.53 2.97751 -2.63798 0
M  V30 18487 H 1713.26 3.39704 -5.60608 0
M  V30 18488 H 1712.78 4.3185 -4.16252 0
M  V30 18489 H 1714.46 4.39022 -4.75256 0
M  V30 18490 N 1714.6 1.19237 1.03055 0
M  V30 18491 C 1715.51 0.943876 2.14775 0
M  V30 18492 C 1716.52 -0.0955384 1.73738 0
M  V30 18493 O 1717.7 0.0887187 2.01204 0
M  V30 18494 C 1714.76 0.48402 3.43305 0
M  V30 18495 C 1713.82 1.59262 3.98665 0
M  V30 18496 C 1713.06 1.15461 5.21061 0
M  V30 18497 O 1713.28 0.0174841 5.70397 0
M  V30 18498 O 1712.21 1.95648 5.69215 0
M  V30 18499 H 1716.04 1.87894 2.38599 0
M  V30 18500 H 1713.63 0.975046 1.13195 0
M  V30 18501 H 1715.51 0.236135 4.20738 0
M  V30 18502 H 1714.18 -0.422626 3.20929 0
M  V30 18503 H 1713.09 1.89464 3.22574 0
M  V30 18504 H 1714.42 2.47576 4.25402 0
M  V30 18505 N 1716.07 -1.22136 0.99602 0
M  V30 18506 C 1717.49 -1.72743 0.708295 0
M  V30 18507 C 1717.84 -1.8026 -0.774649 0
M  V30 18508 O 1716.96 -1.45102 -1.60544 0
M  V30 18509 C 1717.56 -3.13729 1.27905 0
M  V30 18510 C 1716.12 -3.61729 1.04064 0
M  V30 18511 C 1715.26 -2.39519 1.39735 0
M  V30 18512 H 1718.21 -1.07439 1.16801 0
M  V30 18513 H 1718.23 -3.74746 0.65919 0
M  V30 18514 H 1717.75 -3.08225 2.35836 0
M  V30 18515 H 1715.85 -3.72594 -0.0219029 0
M  V30 18516 H 1715.96 -4.47689 1.70621 0
M  V30 18517 H 1714.32 -2.41275 0.815986 0
M  V30 18518 H 1715.11 -2.36675 2.48677 0
M  V30 18519 N 1717.55 -0.769612 -1.37531 0
M  V30 18520 C 1718.52 -0.160716 -2.28636 0
M  V30 18521 C 1719.52 0.630362 -1.47929 0
M  V30 18522 O 1720.71 0.454265 -1.68173 0
M  V30 18523 C 1717.84 0.779904 -3.31859 0
M  V30 18524 H 1719.03 -0.963794 -2.83991 0
M  V30 18525 H 1716.58 -0.537678 -1.46761 0
M  V30 18526 H 1717.32 1.60807 -2.81623 0
M  V30 18527 H 1717.1 0.21485 -3.91511 0
M  V30 18528 H 1718.59 1.20143 -3.99944 0
M  V30 18529 N 1719.03 1.48775 -0.519977 0
M  V30 18530 C 1719.96 2.27418 0.285222 0
M  V30 18531 C 1720.98 1.34753 0.91354 0
M  V30 18532 O 1722.16 1.59885 0.793672 0
M  V30 18533 C 1719.26 3.07799 1.41821 0
M  V30 18534 C 1718.44 4.28173 0.893682 0
M  V30 18535 C 1717.5 4.90445 1.90658 0
M  V30 18536 O 1716.52 5.49957 1.46751 0
M  V30 18537 N 1717.72 4.8179 3.23819 0
M  V30 18538 H 1720.49 2.97162 -0.38921 0
M  V30 18539 H 1718.05 1.5799 -0.353684 0
M  V30 18540 H 1720.04 3.46329 2.09377 0
M  V30 18541 H 1718.61 2.4054 1.99648 0
M  V30 18542 H 1717.83 3.94177 0.0424379 0
M  V30 18543 H 1719.12 5.06116 0.521952 0
M  V30 18544 H 1718.52 4.34573 3.62164 0
M  V30 18545 H 1717.08 5.2445 3.87035 0
M  V30 18546 N 1720.51 0.254649 1.55529 0
M  V30 18547 C 1721.42 -0.652184 2.25352 0
M  V30 18548 C 1722.43 -1.18695 1.2723 0
M  V30 18549 O 1723.61 -1.22158 1.60123 0
M  V30 18550 C 1720.68 -1.829 2.94531 0
M  V30 18551 C 1719.74 -1.33294 4.08082 0
M  V30 18552 C 1718.97 -2.45367 4.73952 0
M  V30 18553 O 1719.19 -3.64271 4.38933 0
M  V30 18554 O 1718.13 -2.14684 5.62311 0
M  V30 18555 H 1721.95 -0.0871786 3.03575 0
M  V30 18556 H 1719.54 0.0228432 1.49383 0
M  V30 18557 H 1721.42 -2.5156 3.38076 0
M  V30 18558 H 1720.09 -2.38148 2.19242 0
M  V30 18559 H 1719 -0.613396 3.69037 0
M  V30 18560 H 1720.33 -0.826454 4.85212 0
M  V30 18561 N 1721.99 -1.57589 -0.0183649 0
M  V30 18562 C 1722.9 -2.10665 -1.03235 0
M  V30 18563 C 1723.91 -1.04767 -1.38924 0
M  V30 18564 O 1725.09 -1.36565 -1.48027 0
M  V30 18565 C 1722.15 -2.58432 -2.31114 0
M  V30 18566 C 1721.21 -3.78856 -2.01908 0
M  V30 18567 C 1720.45 -4.24335 -3.2369 0
M  V30 18568 O 1720.67 -3.69266 -4.3474 0
M  V30 18569 O 1719.6 -5.16671 -3.08763 0
M  V30 18570 H 1723.43 -2.97485 -0.611254 0
M  V30 18571 H 1721.02 -1.47524 -0.236035 0
M  V30 18572 H 1722.9 -2.89438 -3.06274 0
M  V30 18573 H 1721.57 -1.74718 -2.72498 0
M  V30 18574 H 1720.48 -3.52852 -1.24282 0
M  V30 18575 H 1721.81 -4.63587 -1.65373 0
M  V30 18576 N 1723.46 0.290824 -1.54893 0
M  V30 18577 C 1724.41 1.36087 -1.82933 0
M  V30 18578 C 1725.4 1.45492 -0.687082 0
M  V30 18579 O 1726.59 1.49473 -0.947984 0
M  V30 18580 C 1723.72 2.72421 -2.08906 0
M  V30 18581 C 1722.81 2.67197 -3.29342 0
M  V30 18582 N 1723.2 2.3159 -4.49666 0
M  V30 18583 C 1721.49 2.98286 -3.31574 0
M  V30 18584 C 1722.2 2.35917 -5.31712 0
M  V30 18585 N 1721.17 2.7368 -4.69681 0
M  V30 18586 H 1724.97 1.07537 -2.7352 0
M  V30 18587 H 1722.49 0.49943 -1.5453 0
M  V30 18588 H 1724.48 3.49587 -2.27144 0
M  V30 18589 H 1723.14 3.01874 -1.19593 0
M  V30 18590 H 1724.16 2.0387 -4.76085 0
M  V30 18591 H 1720.83 3.32567 -2.52399 0
M  V30 18592 H 1722.22 2.111 -6.37876 0
M  V30 18593 N 1724.94 1.47523 0.554506 0
M  V30 18594 C 1726.17 1.58154 1.34172 0
M  V30 18595 C 1726.59 0.233124 1.8665 0
M  V30 18596 O 1725.95 -0.791439 1.63113 0
M  V30 18597 C 1726 2.61242 2.48566 0
M  V30 18598 O 1725.1 2.167 3.50877 0
M  V30 18599 H 1724.44 0.531184 0.398421 0
M  V30 18600 H 1726.97 1.93324 0.669841 0
M  V30 18601 H 1726.98 2.81746 2.95098 0
M  V30 18602 H 1725.66 3.59148 2.09727 0
M  V30 18603 H 1724.24 2.06305 3.10632 0
M  V30 18604 N 1726.42 -0.801453 1.357 0
M  V30 18605 C 1727.37 -1.91355 1.29043 0
M  V30 18606 C 1728.34 -1.65314 0.161381 0
M  V30 18607 O 1729.52 -1.87638 0.345928 0
M  V30 18608 C 1726.66 -3.27979 1.07348 0
M  V30 18609 C 1725.78 -3.66172 2.29221 0
M  V30 18610 C 1724.91 -4.91853 2.00635 0
M  V30 18611 C 1723.95 -5.22688 3.18533 0
M  V30 18612 N 1723.09 -6.3955 2.8969 0
M  V30 18613 H 1727.93 -1.96381 2.24139 0
M  V30 18614 H 1725.46 -0.960502 1.11413 0
M  V30 18615 H 1727.42 -4.06748 0.928002 0
M  V30 18616 H 1726.05 -3.22408 0.159115 0
M  V30 18617 H 1725.1 -2.82623 2.54615 0
M  V30 18618 H 1726.42 -3.84916 3.1724 0
M  V30 18619 H 1725.57 -5.78459 1.82947 0
M  V30 18620 H 1724.31 -4.75154 1.09908 0
M  V30 18621 H 1723.31 -4.34569 3.36793 0
M  V30 18622 H 1724.54 -5.41313 4.10069 0
M  V30 18623 H 1722.48 -6.24266 2.01562 0
M  V30 18624 H 1722.4 -6.58569 3.71245 0
M  V30 18625 H 1723.67 -7.29171 2.75555 0
M  V30 18626 N 1727.9 -1.19782 -1.02421 0
M  V30 18627 C 1729.13 -1.02721 -1.79254 0
M  V30 18628 C 1729.54 0.426969 -1.84319 0
M  V30 18629 O 1728.88 1.30832 -1.28953 0
M  V30 18630 C 1728.94 -1.52594 -3.25508 0
M  V30 18631 C 1728.61 -3.00778 -3.44066 0
M  V30 18632 C 1729.6 -3.98502 -3.33905 0
M  V30 18633 C 1727.29 -3.39572 -3.7013 0
M  V30 18634 C 1729.28 -5.33012 -3.49539 0
M  V30 18635 C 1726.97 -4.7424 -3.85408 0
M  V30 18636 C 1727.97 -5.70769 -3.75116 0
M  V30 18637 O 1727.65 -7.02997 -3.89937 0
M  V30 18638 H 1727.39 -0.362151 -0.570808 0
M  V30 18639 H 1729.94 -1.5914 -1.2986 0
M  V30 18640 H 1728.17 -0.90555 -3.75948 0
M  V30 18641 H 1729.86 -1.31671 -3.8395 0
M  V30 18642 H 1730.63 -3.69875 -3.13715 0
M  V30 18643 H 1726.5 -2.64986 -3.77231 0
M  V30 18644 H 1730.05 -6.0834 -3.41421 0
M  V30 18645 H 1725.95 -5.02561 -4.05096 0
M  V30 18646 H 1726.71 -7.10136 -4.07 0
M  V30 18647 N 1729.38 1.21606 -1.00248 0
M  V30 18648 C 1730.33 2.21711 -0.531824 0
M  V30 18649 C 1731.31 1.55714 0.405201 0
M  V30 18650 O 1732.5 1.75493 0.230462 0
M  V30 18651 C 1729.63 3.43003 0.142686 0
M  V30 18652 C 1728.72 4.16191 -0.815209 0
M  V30 18653 N 1729.11 4.65986 -1.967 0
M  V30 18654 C 1727.41 4.41484 -0.633069 0
M  V30 18655 C 1728.11 5.21897 -2.56901 0
M  V30 18656 N 1727.08 5.11121 -1.85084 0
M  V30 18657 H 1730.89 2.57862 -1.41013 0
M  V30 18658 H 1728.4 1.37385 -0.86598 0
M  V30 18659 H 1730.4 4.13923 0.497322 0
M  V30 18660 H 1729.06 3.08362 1.01701 0
M  V30 18661 H 1730.07 4.61644 -2.34746 0
M  V30 18662 H 1726.75 4.17047 0.194381 0
M  V30 18663 H 1728.14 5.70898 -3.54296 0
M  V30 18664 N 1730.86 0.776895 1.37121 0
M  V30 18665 C 1732.08 0.353911 2.04358 0
M  V30 18666 C 1732.51 -1.01745 1.58207 0
M  V30 18667 O 1731.86 -1.653 0.744691 0
M  V30 18668 C 1731.91 0.411918 3.5824 0
M  V30 18669 O 1731.02 -0.58576 4.08219 0
M  V30 18670 H 1730.36 0.152335 0.64629 0
M  V30 18671 H 1732.89 1.05452 1.75331 0
M  V30 18672 H 1732.9 0.271043 4.07099 0
M  V30 18673 H 1731.57 1.41236 3.91185 0
M  V30 18674 H 1730.15 -0.40758 3.70666 0
M  V30 18675 N 1732.33 -1.48497 0.527859 0
M  V30 18676 C 1733.28 -2.31258 -0.249477 0
M  V30 18677 C 1734.28 -1.41094 -0.93749 0
M  V30 18678 O 1735.48 -1.58011 -0.862117 0
M  V30 18679 H 1731.86 -0.745412 -0.0993208 0
M  V30 18680 H 1733.83 -2.94705 0.46815 0
M  V30 18681 C 1732.58 -3.23095 -1.28472 0
M  V30 18682 H 1731.9 -3.92418 -0.764724 0
M  V30 18683 H 1733.34 -3.83892 -1.80008 0
M  V30 18684 C 1731.8 -2.44554 -2.31722 0
M  V30 18685 O 1732.33 -2.16883 -3.38119 0
M  V30 18686 N 1730.53 -2.06088 -2.04881 0
M  V30 18687 H 1730.08 -2.28791 -1.18374 0
M  V30 18688 H 1730.04 -1.53849 -2.74186 0
M  V30 18689 N 1733.81 -0.262893 -1.55392 0
M  V30 18690 C 1735.06 0.357939 -1.98499 0
M  V30 18691 C 1735.37 1.5789 -1.15456 0
M  V30 18692 O 1736.58 2.2719 -1.4865 0
M  V30 18693 C 1735.04 0.688205 -3.53259 0
M  V30 18694 C 1734.64 -0.512257 -4.45062 0
M  V30 18695 C 1736.39 1.27234 -4.04984 0
M  V30 18696 C 1734.29 -0.157257 -5.91191 0
M  V30 18697 H 1733.22 0.137514 -0.741354 0
M  V30 18698 H 1735.88 -0.365626 -1.79821 0
M  V30 18699 H 1734.26 1.47034 -3.67692 0
M  V30 18700 H 1735.43 -1.28935 -4.42394 0
M  V30 18701 H 1733.75 -1.0124 -4.03905 0
M  V30 18702 H 1736.34 1.55155 -5.11694 0
M  V30 18703 H 1736.69 2.20217 -3.53285 0
M  V30 18704 H 1737.22 0.552763 -3.93941 0
M  V30 18705 H 1733.96 -1.05464 -6.4696 0
M  V30 18706 H 1733.48 0.583319 -5.96957 0
M  V30 18707 H 1735.16 0.254892 -6.46498 0
M  V30 18708 N 1735.29 1.57597 0.0100073 0
M  V30 18709 C 1736.24 2.07788 1.00463 0
M  V30 18710 C 1737.21 0.971101 1.34755 0
M  V30 18711 O 1738.39 1.2429 1.44764 0
M  V30 18712 C 1735.53 2.57769 2.29454 0
M  V30 18713 C 1734.64 3.8231 2.01153 0
M  V30 18714 C 1733.78 4.2083 3.24154 0
M  V30 18715 C 1732.82 5.38236 2.91494 0
M  V30 18716 N 1731.96 5.72096 4.07001 0
M  V30 18717 H 1736.8 2.92504 0.569675 0
M  V30 18718 H 1734.33 1.44607 0.269645 0
M  V30 18719 H 1736.29 2.84821 3.04849 0
M  V30 18720 H 1734.92 1.75942 2.70637 0
M  V30 18721 H 1733.97 3.62227 1.16171 0
M  V30 18722 H 1735.28 4.67811 1.73074 0
M  V30 18723 H 1734.44 4.49111 4.07902 0
M  V30 18724 H 1733.18 3.34019 3.55363 0
M  V30 18725 H 1732.18 5.09688 2.06151 0
M  V30 18726 H 1733.41 6.26716 2.61543 0
M  V30 18727 H 1731.35 4.88243 4.38126 0
M  V30 18728 H 1731.27 6.52148 3.82411 0
M  V30 18729 H 1732.54 6.04964 4.91567 0
M  V30 18730 N 1736.77 -0.282606 1.55045 0
M  V30 18731 C 1737.68 -1.37129 1.90349 0
M  V30 18732 C 1738.69 -1.54537 0.799639 0
M  V30 18733 O 1739.87 -1.68849 1.09782 0
M  V30 18734 C 1736.93 -2.71211 2.15975 0
M  V30 18735 C 1736 -2.62632 3.39592 0
M  V30 18736 C 1735.23 -3.90319 3.63987 0
M  V30 18737 O 1735.45 -4.90551 2.9106 0
M  V30 18738 O 1734.39 -3.91102 4.57518 0
M  V30 18739 H 1738.21 -1.10189 2.83006 0
M  V30 18740 H 1735.8 -0.480293 1.41469 0
M  V30 18741 H 1737.68 -3.50509 2.33926 0
M  V30 18742 H 1736.35 -2.97958 1.26503 0
M  V30 18743 H 1735.26 -1.81743 3.26987 0
M  V30 18744 H 1736.59 -2.40836 4.29254 0
M  V30 18745 N 1738.25 -1.47815 -0.546675 0
M  V30 18746 C 1739.18 -1.63976 -1.66235 0
M  V30 18747 C 1740.16 -0.488945 -1.62921 0
M  V30 18748 O 1741.34 -0.719532 -1.80378 0
M  V30 18749 C 1738.47 -1.6637 -3.04858 0
M  V30 18750 C 1737.43 -2.80785 -3.23023 0
M  V30 18751 C 1736.75 -2.68257 -4.62539 0
M  V30 18752 C 1738.05 -4.22267 -3.07388 0
M  V30 18753 H 1739.75 -2.57375 -1.52965 0
M  V30 18754 H 1737.29 -1.23861 -0.734465 0
M  V30 18755 H 1739.24 -1.76266 -3.82764 0
M  V30 18756 H 1737.97 -0.695386 -3.19111 0
M  V30 18757 H 1736.63 -2.70417 -2.47529 0
M  V30 18758 H 1736.28 -1.69431 -4.73606 0
M  V30 18759 H 1735.98 -3.45022 -4.75641 0
M  V30 18760 H 1737.5 -2.80097 -5.42566 0
M  V30 18761 H 1738.91 -4.33557 -3.75102 0
M  V30 18762 H 1737.31 -4.999 -3.31994 0
M  V30 18763 H 1738.38 -4.39897 -2.04006 0
M  V30 18764 N 1739.72 0.794246 -1.36123 0
M  V30 18765 C 1740.97 1.55421 -1.30277 0
M  V30 18766 C 1741.3 1.93834 0.119134 0
M  V30 18767 O 1740.58 1.6233 1.07141 0
M  V30 18768 C 1740.86 2.83454 -2.22094 0
M  V30 18769 C 1740.71 2.51439 -3.72959 0
M  V30 18770 C 1742.03 3.85246 -2.12776 0
M  V30 18771 H 1739.15 0.563871 -0.474572 0
M  V30 18772 H 1741.79 0.912877 -1.66633 0
M  V30 18773 H 1739.94 3.38182 -1.9122 0
M  V30 18774 H 1741.62 2.02799 -4.14331 0
M  V30 18775 H 1739.86 1.84451 -3.92632 0
M  V30 18776 H 1740.53 3.42863 -4.32608 0
M  V30 18777 H 1743.01 3.39952 -2.39942 0
M  V30 18778 H 1741.88 4.72588 -2.79198 0
M  V30 18779 H 1742.14 4.27847 -1.11353 0
M  V30 18780 N 1741.2 1.20323 1.01785 0
M  V30 18781 C 1742.45 1.01263 1.75363 0
M  V30 18782 C 1742.78 -0.455392 1.89094 0
M  V30 18783 O 1742.03 -1.35435 1.41266 0
M  V30 18784 C 1742.33 1.63984 3.1756 0
M  V30 18785 C 1742 3.13781 3.23809 0
M  V30 18786 C 1740.66 3.54661 3.25222 0
M  V30 18787 C 1743.01 4.09779 3.22072 0
M  V30 18788 C 1740.34 4.90068 3.22568 0
M  V30 18789 C 1742.69 5.45131 3.20959 0
M  V30 18790 C 1741.35 5.85426 3.20675 0
M  V30 18791 H 1740.62 0.370547 0.641698 0
M  V30 18792 H 1743.27 1.4973 1.19387 0
M  V30 18793 H 1741.58 1.07776 3.76685 0
M  V30 18794 H 1743.27 1.46753 3.73182 0
M  V30 18795 H 1739.86 2.81215 3.23444 0
M  V30 18796 H 1744.05 3.79231 3.20152 0
M  V30 18797 H 1739.3 5.20553 3.20678 0
M  V30 18798 H 1743.48 6.19264 3.18568 0
M  V30 18799 H 1741.1 6.90321 3.18373 0
M  V30 18800 N 1742.68 -1.21073 1.00892 0
M  V30 18801 C 1743.63 -2.23583 0.572636 0
M  V30 18802 C 1744.6 -1.61129 -0.403324 0
M  V30 18803 O 1745.78 -1.88355 -0.304491 0
M  V30 18804 C 1742.92 -3.44981 -0.0906539 0
M  V30 18805 C 1742.03 -4.21894 0.928953 0
M  V30 18806 C 1741.17 -5.30669 0.237516 0
M  V30 18807 C 1740.21 -5.99317 1.24441 0
M  V30 18808 N 1739.35 -6.99699 0.580172 0
M  V30 18809 H 1744.19 -2.60263 1.45146 0
M  V30 18810 H 1741.72 -1.27895 0.72673 0
M  V30 18811 H 1743.68 -4.14285 -0.492281 0
M  V30 18812 H 1742.31 -3.09017 -0.933169 0
M  V30 18813 H 1741.36 -3.5173 1.4488 0
M  V30 18814 H 1742.67 -4.69116 1.69503 0
M  V30 18815 H 1741.83 -6.06301 -0.220013 0
M  V30 18816 H 1740.57 -4.84463 -0.560937 0
M  V30 18817 H 1739.57 -5.22453 1.7124 0
M  V30 18818 H 1740.8 -6.47609 2.04401 0
M  V30 18819 H 1738.74 -6.55699 -0.198553 0
M  V30 18820 H 1738.66 -7.45009 1.28444 0
M  V30 18821 H 1739.93 -7.79363 0.145977 0
M  V30 18822 N 1744.16 -0.784156 -1.36707 0
M  V30 18823 C 1745.41 -0.354133 -1.99379 0
M  V30 18824 C 1745.73 1.07276 -1.62241 0
M  V30 18825 O 1744.99 1.75481 -0.866317 0
M  V30 18826 C 1745.29 -0.459004 -3.5444 0
M  V30 18827 C 1744.95 -1.84594 -4.11383 0
M  V30 18828 C 1743.62 -2.22543 -4.26648 0
M  V30 18829 C 1745.97 -2.75433 -4.42477 0
M  V30 18830 C 1743.3 -3.50744 -4.70315 0
M  V30 18831 C 1745.65 -4.03056 -4.87574 0
M  V30 18832 C 1744.31 -4.41034 -5.01044 0
M  V30 18833 H 1743.58 -0.129586 -0.729581 0
M  V30 18834 H 1746.23 -1.00059 -1.6328 0
M  V30 18835 H 1744.53 0.27097 -3.90862 0
M  V30 18836 H 1746.23 -0.107393 -4.00856 0
M  V30 18837 H 1742.82 -1.54103 -3.99938 0
M  V30 18838 H 1747 -2.4737 -4.30258 0
M  V30 18839 H 1742.26 -3.80047 -4.78931 0
M  V30 18840 H 1746.43 -4.73563 -5.10599 0
M  V30 18841 H 1744.06 -5.4043 -5.34639 0
M  V30 18842 N 1745.64 1.48215 -0.535727 0
M  V30 18843 C 1746.88 2.021 -0.00372016 0
M  V30 18844 C 1747.21 1.41456 1.34221 0
M  V30 18845 O 1746.48 0.581987 1.87055 0
M  V30 18846 H 1745.06 0.746998 0.00161295 0
M  V30 18847 H 1747.72 1.81862 -0.700863 0
M  V30 18848 H 1746.81 3.11939 0.100352 0
M  V30 18849 N 1747.11 0.27113 1.5525 0
M  V30 18850 C 1748.04 -0.61179 2.25343 0
M  V30 18851 C 1749.03 -1.16208 1.24216 0
M  V30 18852 O 1750.21 -1.19696 1.52927 0
M  V30 18853 C 1747.34 -1.7978 2.97147 0
M  V30 18854 C 1746.29 -1.37922 4.05169 0
M  V30 18855 C 1745.62 -2.64801 4.64526 0
M  V30 18856 C 1746.92 -0.532357 5.1958 0
M  V30 18857 H 1748.61 -0.0272538 2.99388 0
M  V30 18858 H 1746.16 -0.0116681 1.43995 0
M  V30 18859 H 1748.11 -2.42132 3.44891 0
M  V30 18860 H 1746.84 -2.40811 2.20631 0
M  V30 18861 H 1745.5 -0.778918 3.5823 0
M  V30 18862 H 1745.14 -3.24081 3.84682 0
M  V30 18863 H 1744.84 -2.37507 5.37461 0
M  V30 18864 H 1746.37 -3.28009 5.15017 0
M  V30 18865 H 1747.78 -1.06078 5.63401 0
M  V30 18866 H 1746.18 -0.35447 5.99052 0
M  V30 18867 H 1747.25 0.44981 4.82809 0
M  V30 18868 N 1748.59 -1.576 -0.00164943 0
M  V30 18869 C 1750 -1.78578 -0.544681 0
M  V30 18870 C 1750.35 -0.905575 -1.74051 0
M  V30 18871 O 1749.48 -0.107614 -2.16132 0
M  V30 18872 C 1750.07 -3.23863 -0.994898 0
M  V30 18873 C 1748.63 -3.45943 -1.48325 0
M  V30 18874 C 1747.78 -2.73887 -0.433702 0
M  V30 18875 H 1750.73 -1.57104 0.224524 0
M  V30 18876 H 1750.75 -3.31885 -1.86099 0
M  V30 18877 H 1750.26 -3.87901 -0.124352 0
M  V30 18878 H 1748.37 -2.87118 -2.37474 0
M  V30 18879 H 1748.48 -4.54621 -1.51185 0
M  V30 18880 H 1746.84 -2.38458 -0.894969 0
M  V30 18881 H 1747.63 -3.40623 0.42785 0
M  V30 18882 N 1750.07 0.274379 -1.55193 0
M  V30 18883 C 1751.49 0.621497 -1.47002 0
M  V30 18884 C 1751.69 1.89572 -0.682995 0
M  V30 18885 O 1750.74 2.51696 -0.201296 0
M  V30 18886 C 1752.06 0.749741 -2.91203 0
M  V30 18887 C 1753.6 0.843886 -3.01409 0
M  V30 18888 C 1754.08 1.00392 -4.46862 0
M  V30 18889 N 1755.57 1.06947 -4.50684 0
M  V30 18890 C 1756.3 1.21207 -5.60443 0
M  V30 18891 N 1755.8 1.32195 -6.80071 0
M  V30 18892 N 1757.59 1.24307 -5.48183 0
M  V30 18893 H 1749.74 -0.562462 -2.04817 0
M  V30 18894 H 1752.01 -0.190205 -0.928723 0
M  V30 18895 H 1751.71 -0.116074 -3.51508 0
M  V30 18896 H 1751.59 1.63046 -3.40141 0
M  V30 18897 H 1753.97 1.70017 -2.41202 0
M  V30 18898 H 1754.06 -0.061411 -2.55726 0
M  V30 18899 H 1753.7 0.152298 -5.07672 0
M  V30 18900 H 1753.63 1.92384 -4.902 0
M  V30 18901 H 1756.12 0.997012 -3.64511 0
M  V30 18902 H 1756.43 1.42906 -7.59472 0
M  V30 18903 H 1754.78 1.29202 -6.82885 0
M  V30 18904 H 1757.97 1.15352 -4.53665 0
M  V30 18905 H 1758.14 1.35076 -6.33765 0
M  V30 18906 N 1751.55 1.48103 0.538828 0
M  V30 18907 C 1752.48 1.64856 1.65363 0
M  V30 18908 C 1753.46 0.497579 1.6266 0
M  V30 18909 O 1754.64 0.729088 1.79994 0
M  V30 18910 C 1751.77 1.67984 3.03971 0
M  V30 18911 C 1750.73 2.82494 3.21529 0
M  V30 18912 C 1750.05 2.70706 4.6111 0
M  V30 18913 C 1751.35 4.23892 3.05145 0
M  V30 18914 H 1753.05 2.58183 1.51598 0
M  V30 18915 H 1750.59 1.24249 0.727886 0
M  V30 18916 H 1752.55 1.78294 3.81824 0
M  V30 18917 H 1751.27 0.712299 3.18738 0
M  V30 18918 H 1749.93 2.71725 2.46091 0
M  V30 18919 H 1749.58 1.7194 4.727 0
M  V30 18920 H 1749.28 3.47539 4.73804 0
M  V30 18921 H 1750.8 2.82971 5.41073 0
M  V30 18922 H 1752.22 4.3554 3.72797 0
M  V30 18923 H 1750.61 5.01654 3.29338 0
M  V30 18924 H 1751.68 4.40973 2.01671 0
M  V30 18925 N 1753.03 -0.787016 1.36542 0
M  V30 18926 C 1754.27 -1.54728 1.311 0
M  V30 18927 C 1754.61 -1.93895 -0.108853 0
M  V30 18928 O 1753.88 -1.62896 -1.06278 0
M  V30 18929 C 1754.16 -2.82272 2.23594 0
M  V30 18930 C 1754.02 -2.49457 3.74287 0
M  V30 18931 C 1755.34 -3.84112 2.14816 0
M  V30 18932 H 1752.45 -0.561347 0.477555 0
M  V30 18933 H 1755.1 -0.904027 1.67115 0
M  V30 18934 H 1753.25 -3.37163 1.93011 0
M  V30 18935 H 1754.92 -2.00599 4.15401 0
M  V30 18936 H 1753.16 -1.82366 3.93605 0
M  V30 18937 H 1753.83 -3.40563 4.3442 0
M  V30 18938 H 1756.31 -3.38674 2.41741 0
M  V30 18939 H 1755.18 -4.71101 2.817 0
M  V30 18940 H 1755.45 -4.2725 1.13621 0
M  V30 18941 N 1754.5 -1.20861 -1.01145 0
M  V30 18942 C 1755.47 -0.963742 -2.07954 0
M  V30 18943 C 1756.47 0.0627362 -1.60678 0
M  V30 18944 O 1757.66 -0.173867 -1.7333 0
M  V30 18945 C 1754.79 -0.451977 -3.3789 0
M  V30 18946 H 1755.98 -1.91123 -2.3111 0
M  V30 18947 H 1753.54 -1.0247 -1.18024 0
M  V30 18948 H 1754.27 0.500735 -3.20411 0
M  V30 18949 H 1754.06 -1.19231 -3.73532 0
M  V30 18950 H 1755.55 -0.300308 -4.16519 0
M  V30 18951 N 1755.98 1.20536 -1.01532 0
M  V30 18952 C 1756.93 2.23277 -0.584486 0
M  V30 18953 C 1757.9 1.6134 0.394773 0
M  V30 18954 O 1759.08 1.88514 0.294498 0
M  V30 18955 C 1756.22 3.45024 0.0723574 0
M  V30 18956 C 1755.34 4.21395 -0.951314 0
M  V30 18957 C 1754.47 5.30535 -0.265656 0
M  V30 18958 C 1753.51 5.98649 -1.27617 0
M  V30 18959 N 1752.65 6.99381 -0.61727 0
M  V30 18960 H 1757.49 2.59489 -1.46524 0
M  V30 18961 H 1755.03 1.27507 -0.733502 0
M  V30 18962 H 1756.98 4.14541 0.470303 0
M  V30 18963 H 1755.61 3.09508 0.916768 0
M  V30 18964 H 1754.67 3.50957 -1.46743 0
M  V30 18965 H 1755.98 4.68211 -1.71989 0
M  V30 18966 H 1755.13 6.06409 0.187857 0
M  V30 18967 H 1753.87 4.84754 0.535237 0
M  V30 18968 H 1752.88 5.21537 -1.74008 0
M  V30 18969 H 1754.1 6.46516 -2.07832 0
M  V30 18970 H 1752.05 6.55796 0.163777 0
M  V30 18971 H 1751.96 7.44317 -1.32393 0
M  V30 18972 H 1753.23 7.79275 -0.187306 0
M  V30 18973 N 1757.46 0.791395 1.36289 0
M  V30 18974 C 1758.39 0.149076 2.28715 0
M  V30 18975 C 1759.41 -0.642827 1.49571 0
M  V30 18976 O 1760.59 -0.477685 1.7199 0
M  V30 18977 C 1757.69 -0.811868 3.29032 0
M  V30 18978 C 1756.87 -0.0695975 4.37345 0
M  V30 18979 C 1755.93 -0.946776 5.17612 0
M  V30 18980 O 1754.95 -0.403295 5.67769 0
M  V30 18981 N 1756.15 -2.27079 5.34243 0
M  V30 18982 H 1758.92 0.943005 2.84478 0
M  V30 18983 H 1756.48 0.645479 1.48476 0
M  V30 18984 H 1758.47 -1.40257 3.79618 0
M  V30 18985 H 1757.04 -1.50667 2.73895 0
M  V30 18986 H 1756.26 0.702196 3.87895 0
M  V30 18987 H 1757.55 0.442542 5.06872 0
M  V30 18988 H 1756.95 -2.73646 4.9511 0
M  V30 18989 H 1755.51 -2.81109 5.88065 0
M  V30 18990 N 1758.94 -1.47929 0.54358 0
M  V30 18991 C 1760.19 -2.01696 0.0123924 0
M  V30 18992 C 1760.5 -1.42469 -1.34022 0
M  V30 18993 O 1761.71 -1.87816 -1.96054 0
M  V30 18994 C 1760.16 -3.59889 -0.0282734 0
M  V30 18995 C 1759.77 -4.28104 1.32027 0
M  V30 18996 C 1761.52 -4.21455 -0.507571 0
M  V30 18997 C 1759.42 -5.78266 1.23945 0
M  V30 18998 H 1758.35 -0.754 0.000862593 0
M  V30 18999 H 1761 -1.70058 0.689396 0
M  V30 19000 H 1759.39 -3.88429 -0.770641 0
M  V30 19001 H 1760.56 -4.11221 2.07927 0
M  V30 19002 H 1758.87 -3.78468 1.7364 0
M  V30 19003 H 1761.47 -5.31477 -0.586219 0
M  V30 19004 H 1761.81 -3.87696 -1.51648 0
M  V30 19005 H 1762.35 -3.97395 0.179522 0
M  V30 19006 H 1759.09 -6.16621 2.22393 0
M  V30 19007 H 1758.61 -5.97524 0.522029 0
M  V30 19008 H 1760.29 -6.40197 0.935788 0
M  V30 19009 N 1760.42 -0.27936 -1.55104 0
M  V30 19010 C 1761.66 0.336703 -1.99985 0
M  V30 19011 C 1762 1.55186 -1.16752 0
M  V30 19012 O 1761.27 1.93031 -0.238626 0
M  V30 19013 C 1761.55 0.714701 -3.52936 0
M  V30 19014 C 1761.41 -0.508088 -4.46921 0
M  V30 19015 C 1762.73 1.54953 -4.11919 0
M  V30 19016 H 1759.85 0.120908 -0.727015 0
M  V30 19017 H 1762.49 -0.38715 -1.86014 0
M  V30 19018 H 1760.64 1.33143 -3.64973 0
M  V30 19019 H 1762.31 -1.14664 -4.46822 0
M  V30 19020 H 1760.55 -1.14537 -4.18406 0
M  V30 19021 H 1761.22 -0.199782 -5.51638 0
M  V30 19022 H 1763.7 1.02864 -4.03185 0
M  V30 19023 H 1762.58 1.78282 -5.1914 0
M  V30 19024 H 1762.84 2.53192 -3.62417 0
M  V30 19025 N 1761.9 1.57599 -0.0067085 0
M  V30 19026 C 1763.17 1.82097 0.714141 0
M  V30 19027 C 1763.55 0.885868 1.91613 0
M  V30 19028 O 1762.9 -0.0638506 2.28411 0
M  V30 19029 C 1763.11 3.30759 1.11354 0
M  V30 19030 C 1764.46 3.96668 1.51459 0
M  V30 19031 O 1765.48 3.35121 1.20715 0
M  V30 19032 O 1764.34 5.051 2.08654 0
M  V30 19033 H 1761.44 0.750071 0.348314 0
M  V30 19034 H 1763.98 1.69669 -0.0326766 0
M  V30 19035 H 1762.75 3.90455 0.257068 0
M  V30 19036 H 1762.38 3.48211 1.91924 0
M  V30 19037 N 1763.37 -0.266145 1.55336 0
M  V30 19038 C 1764.6 -1.01489 1.80299 0
M  V30 19039 C 1765.02 -1.79679 0.579742 0
M  V30 19040 O 1764.37 -1.76831 -0.451319 0
M  V30 19041 C 1764.42 -1.96805 3.03233 0
M  V30 19042 O 1764.15 -1.21782 4.20834 0
M  V30 19043 C 1765.65 -2.83436 3.40851 0
M  V30 19044 H 1762.87 -0.299504 0.600449 0
M  V30 19045 H 1765.41 -0.294854 2.02363 0
M  V30 19046 H 1763.57 -2.64262 2.83275 0
M  V30 19047 H 1763.98 -1.86086 4.9038 0
M  V30 19048 H 1765.45 -3.461 4.30022 0
M  V30 19049 H 1765.93 -3.53559 2.60562 0
M  V30 19050 H 1766.54 -2.2146 3.63092 0
M  V30 19051 N 1764.85 -1.48386 -0.530967 0
M  V30 19052 C 1766.09 -1.57951 -1.29734 0
M  V30 19053 C 1766.46 -0.247309 -1.90401 0
M  V30 19054 O 1767.66 -0.217934 -2.67915 0
M  V30 19055 C 1765.93 -2.68547 -2.35833 0
M  V30 19056 S 1767.49 -2.9787 -3.2221 0
M  V30 19057 H 1764.3 -0.55746 -0.441315 0
M  V30 19058 H 1766.91 -1.85903 -0.605005 0
M  V30 19059 H 1765.61 -3.63903 -1.89744 0
M  V30 19060 H 1765.14 -2.42493 -3.09775 0
M  V30 19061 H 1767.16 -2.37092 -4.35892 0
M  V30 19062 N 1766.33 0.779763 -1.36958 0
M  V30 19063 C 1767.61 1.52679 -1.22264 0
M  V30 19064 C 1767.99 2.10269 0.187164 0
M  V30 19065 O 1767.33 1.94828 1.19391 0
M  V30 19066 C 1767.54 2.61406 -2.31231 0
M  V30 19067 C 1768.89 3.29027 -2.68377 0
M  V30 19068 O 1769.92 2.71696 -2.30347 0
M  V30 19069 O 1768.78 4.3266 -3.33868 0
M  V30 19070 H 1765.87 0.675843 -0.476619 0
M  V30 19071 H 1768.42 0.817416 -1.48716 0
M  V30 19072 H 1767.19 2.16915 -3.25674 0
M  V30 19073 H 1766.81 3.39953 -2.06199 0
M  V30 19074 N 1767.81 1.21396 1.00503 0
M  V30 19075 C 1768.75 0.973198 2.09279 0
M  V30 19076 C 1769.72 -0.100797 1.65794 0
M  V30 19077 O 1770.91 0.0463185 1.90744 0
M  V30 19078 C 1768.05 0.543941 3.40786 0
M  V30 19079 C 1767.16 1.68737 3.97683 0
M  V30 19080 C 1766.3 1.20728 5.17299 0
M  V30 19081 C 1765.34 2.32305 5.66305 0
M  V30 19082 N 1764.47 1.8543 6.77171 0
M  V30 19083 H 1769.31 1.90441 2.29208 0
M  V30 19084 H 1766.85 0.949082 1.12387 0
M  V30 19085 H 1768.81 0.276311 4.16284 0
M  V30 19086 H 1767.44 -0.350263 3.20894 0
M  V30 19087 H 1766.49 2.06964 3.19171 0
M  V30 19088 H 1767.8 2.5271 4.30045 0
M  V30 19089 H 1766.96 0.896312 6.00043 0
M  V30 19090 H 1765.7 0.3376 4.8653 0
M  V30 19091 H 1764.7 2.64205 4.82158 0
M  V30 19092 H 1765.93 3.19769 5.99103 0
M  V30 19093 H 1763.87 1.00806 6.48208 0
M  V30 19094 H 1763.79 2.62976 7.08788 0
M  V30 19095 H 1765.06 1.57366 7.6345 0
M  V30 19096 N 1769.29 -1.19996 1.0217 0
M  V30 19097 C 1770.53 -1.91201 0.722601 0
M  V30 19098 C 1770.89 -1.77387 -0.734692 0
M  V30 19099 O 1772.09 -2.43121 -1.14654 0
M  V30 19100 C 1770.36 -3.38308 1.1525 0
M  V30 19101 S 1771.92 -4.27805 0.976144 0
M  V30 19102 H 1768.74 -0.660456 0.263285 0
M  V30 19103 H 1771.34 -1.45115 1.31003 0
M  V30 19104 H 1770.04 -3.45885 2.20889 0
M  V30 19105 H 1769.58 -3.89422 0.558056 0
M  V30 19106 H 1771.59 -4.96061 -0.117417 0
M  V30 19107 N 1770.76 -0.798611 -1.35867 0
M  V30 19108 C 1771.71 -0.176275 -2.27318 0
M  V30 19109 C 1772.7 0.64521 -1.47397 0
M  V30 19110 O 1773.89 0.503776 -1.69679 0
M  V30 19111 C 1771.02 0.680716 -3.36483 0
M  V30 19112 C 1770.1 -0.150062 -4.23834 0
M  V30 19113 N 1770.5 -1.20913 -4.91135 0
M  V30 19114 C 1768.79 0.0696135 -4.45946 0
M  V30 19115 C 1769.49 -1.71566 -5.55824 0
M  V30 19116 N 1768.47 -1.02339 -5.3388 0
M  V30 19117 H 1772.27 -0.986741 -2.7684 0
M  V30 19118 H 1769.79 -0.638977 -1.49301 0
M  V30 19119 H 1771.78 1.14254 -4.00938 0
M  V30 19120 H 1770.44 1.48962 -2.88514 0
M  V30 19121 H 1771.45 -1.59169 -4.92834 0
M  V30 19122 H 1768.13 0.848295 -4.08791 0
M  V30 19123 H 1769.52 -2.60035 -6.19541 0
M  V30 19124 N 1772.24 1.47639 -0.551417 0
M  V30 19125 C 1773.17 2.27972 0.236919 0
M  V30 19126 C 1774.19 1.3666 0.884752 0
M  V30 19127 O 1775.38 1.61532 0.75958 0
M  V30 19128 C 1772.48 3.10738 1.3526 0
M  V30 19129 C 1771.65 4.29972 0.802659 0
M  V30 19130 C 1770.71 4.94379 1.80212 0
M  V30 19131 O 1769.73 5.52946 1.35053 0
M  V30 19132 N 1770.94 4.8855 3.13526 0
M  V30 19133 H 1773.7 2.9627 -0.452154 0
M  V30 19134 H 1771.26 1.57204 -0.387116 0
M  V30 19135 H 1773.25 3.50692 2.01983 0
M  V30 19136 H 1771.82 2.44721 1.945 0
M  V30 19137 H 1771.04 3.94178 -0.0411825 0
M  V30 19138 H 1772.33 5.07109 0.41448 0
M  V30 19139 H 1771.73 4.42157 3.52865 0
M  V30 19140 H 1770.29 5.32541 3.75823 0
M  V30 19141 N 1773.72 0.287581 1.54954 0
M  V30 19142 C 1774.67 -0.594449 2.23013 0
M  V30 19143 C 1775.64 -1.14007 1.20795 0
M  V30 19144 O 1776.82 -1.18708 1.49376 0
M  V30 19145 C 1773.96 -1.76687 2.96439 0
M  V30 19146 C 1773.08 -1.25391 4.13402 0
M  V30 19147 C 1772.21 -2.38912 4.74441 0
M  V30 19148 C 1771.25 -1.84683 5.83574 0
M  V30 19149 N 1770.39 -2.91725 6.38624 0
M  V30 19150 H 1775.23 -0.00743921 2.97999 0
M  V30 19151 H 1772.76 0.00809578 1.47098 0
M  V30 19152 H 1774.72 -2.45621 3.37233 0
M  V30 19153 H 1773.35 -2.32571 2.23853 0
M  V30 19154 H 1772.4 -0.45726 3.77642 0
M  V30 19155 H 1773.72 -0.816813 4.92067 0
M  V30 19156 H 1772.87 -3.15818 5.18019 0
M  V30 19157 H 1771.61 -2.85943 3.95079 0
M  V30 19158 H 1770.61 -1.06261 5.39434 0
M  V30 19159 H 1771.84 -1.38572 6.64812 0
M  V30 19160 H 1769.78 -3.38115 5.62152 0
M  V30 19161 H 1769.7 -2.5247 7.12597 0
M  V30 19162 H 1770.97 -3.68569 6.86861 0
M  V30 19163 N 1775.2 -1.57593 0.0150662 0
M  V30 19164 C 1776.45 -1.90836 -0.665282 0
M  V30 19165 C 1776.77 -0.890693 -1.73469 0
M  V30 19166 O 1776.04 0.0698113 -1.95776 0
M  V30 19167 H 1774.62 -0.704377 -0.24872 0
M  V30 19168 H 1777.28 -1.94809 0.0595521 0
M  V30 19169 H 1776.38 -2.91043 -1.12697 0
M  V30 19170 N 1776.68 0.257904 -1.55475 0
M  V30 19171 C 1777.59 1.34084 -1.92506 0
M  V30 19172 C 1778.6 1.53246 -0.824123 0
M  V30 19173 O 1779.78 1.67081 -1.12455 0
M  V30 19174 C 1776.84 2.67741 -2.20263 0
M  V30 19175 C 1775.9 2.57196 -3.43728 0
M  V30 19176 C 1775.14 3.84479 -3.7015 0
M  V30 19177 O 1775.36 4.85858 -2.98827 0
M  V30 19178 O 1774.29 3.83774 -4.63682 0
M  V30 19179 H 1778.12 1.05672 -2.84723 0
M  V30 19180 H 1775.71 0.457726 -1.42215 0
M  V30 19181 H 1777.59 3.46743 -2.39473 0
M  V30 19182 H 1776.26 2.95907 -1.31227 0
M  V30 19183 H 1775.17 1.76518 -3.29837 0
M  V30 19184 H 1776.5 2.33977 -4.33031 0
M  V30 19185 N 1778.15 1.48666 0.52309 0
M  V30 19186 C 1779.12 1.63211 1.60919 0
M  V30 19187 C 1780.12 0.505012 1.52664 0
M  V30 19188 O 1781.31 0.770967 1.56211 0
M  V30 19189 C 1778.44 1.60878 3.00551 0
M  V30 19190 H 1779.63 2.60061 1.4936 0
M  V30 19191 H 1777.19 1.37366 0.745674 0
M  V30 19192 H 1777.92 0.655306 3.1761 0
M  V30 19193 H 1777.71 2.4271 3.07952 0
M  V30 19194 H 1779.2 1.74263 3.79502 0
M  V30 19195 N 1779.63 -0.772489 1.37369 0
M  V30 19196 C 1780.88 -1.52629 1.31861 0
M  V30 19197 C 1781.19 -1.9537 -0.0947795 0
M  V30 19198 O 1782.4 -2.70131 -0.27233 0
M  V30 19199 C 1780.86 -2.75608 2.31448 0
M  V30 19200 C 1780.46 -2.39969 3.78311 0
M  V30 19201 C 1782.21 -3.53553 2.34948 0
M  V30 19202 C 1780.12 -3.59445 4.69631 0
M  V30 19203 H 1779.05 -0.573019 0.490066 0
M  V30 19204 H 1781.7 -0.846178 1.62825 0
M  V30 19205 H 1780.08 -3.45505 1.935 0
M  V30 19206 H 1781.25 -1.7786 4.25091 0
M  V30 19207 H 1779.57 -1.752 3.77748 0
M  V30 19208 H 1782.16 -4.42353 3.00379 0
M  V30 19209 H 1782.51 -3.93359 1.36287 0
M  V30 19210 H 1783.04 -2.90652 2.716 0
M  V30 19211 H 1779.78 -3.24721 5.69418 0
M  V30 19212 H 1779.3 -4.20662 4.27555 0
M  V30 19213 H 1780.98 -4.26267 4.86729 0
M  V30 19214 N 1781.11 -1.21927 -0.998575 0
M  V30 19215 C 1782.06 -0.951671 -2.07189 0
M  V30 19216 C 1783.04 0.095548 -1.60616 0
M  V30 19217 O 1784.24 -0.11423 -1.76631 0
M  V30 19218 C 1781.37 -0.525175 -3.39259 0
M  V30 19219 C 1780.45 -1.60681 -3.92482 0
M  V30 19220 N 1780.84 -2.8333 -4.18996 0
M  V30 19221 C 1779.14 -1.47718 -4.20827 0
M  V30 19222 C 1779.84 -3.53231 -4.62172 0
M  V30 19223 N 1778.82 -2.80687 -4.65527 0
M  V30 19224 H 1782.62 -1.88341 -2.25621 0
M  V30 19225 H 1780.13 -1.11596 -1.17984 0
M  V30 19226 H 1782.13 -0.3148 -4.1571 0
M  V30 19227 H 1780.79 0.399723 -3.2223 0
M  V30 19228 H 1781.8 -3.19812 -4.07358 0
M  V30 19229 H 1778.48 -0.618048 -4.129 0
M  V30 19230 H 1779.87 -4.58279 -4.91355 0
M  V30 19231 N 1782.59 1.19452 -1.02805 0
M  V30 19232 C 1783.84 1.8874 -0.722599 0
M  V30 19233 C 1784.16 1.79957 0.751028 0
M  V30 19234 O 1783.43 1.20949 1.54104 0
M  V30 19235 H 1782.01 0.698683 -0.264294 0
M  V30 19236 H 1784.67 1.45021 -1.30211 0
M  V30 19237 H 1783.77 2.95094 -1.01617 0
M  V30 19238 N 1784.07 0.805805 1.35442 0
M  V30 19239 C 1785 0.173326 2.28544 0
M  V30 19240 C 1786.01 -0.626927 1.50245 0
M  V30 19241 O 1787.2 -0.459416 1.72487 0
M  V30 19242 C 1784.3 -0.776924 3.29874 0
M  V30 19243 C 1783.47 -0.0232073 4.37394 0
M  V30 19244 C 1782.53 -0.891823 5.18587 0
M  V30 19245 O 1781.56 -0.343052 5.68165 0
M  V30 19246 N 1782.76 -2.214 5.36621 0
M  V30 19247 H 1785.53 0.973125 2.83461 0
M  V30 19248 H 1783.09 0.66119 1.47783 0
M  V30 19249 H 1785.08 -1.36223 3.81085 0
M  V30 19250 H 1783.65 -1.47753 2.75477 0
M  V30 19251 H 1782.87 0.743298 3.87129 0
M  V30 19252 H 1784.16 0.496278 5.06374 0
M  V30 19253 H 1783.55 -2.6838 4.97985 0
M  V30 19254 H 1782.11 -2.74856 5.91014 0
M  V30 19255 N 1785.54 -1.47344 0.559239 0
M  V30 19256 C 1786.79 -2.02768 0.0359962 0
M  V30 19257 C 1787.12 -1.43247 -1.31126 0
M  V30 19258 O 1786.4 -0.588793 -1.85374 0
M  V30 19259 C 1786.68 -3.60058 -0.0549111 0
M  V30 19260 C 1786.53 -4.30008 1.31958 0
M  V30 19261 C 1787.85 -4.33359 -0.767331 0
M  V30 19262 H 1784.97 -0.736856 0.0145552 0
M  V30 19263 H 1787.61 -1.75751 0.72192 0
M  V30 19264 H 1785.76 -3.83208 -0.639076 0
M  V30 19265 H 1787.44 -4.18193 1.94711 0
M  V30 19266 H 1785.68 -3.90283 1.89372 0
M  V30 19267 H 1786.35 -5.38605 1.20867 0
M  V30 19268 H 1788.83 -4.15215 -0.27131 0
M  V30 19269 H 1787.7 -5.4304 -0.799905 0
M  V30 19270 H 1787.96 -4.02725 -1.82387 0
M  V30 19271 N 1787.02 -0.295795 -1.54799 0
M  V30 19272 C 1787.97 0.598403 -2.24771 0
M  V30 19273 C 1788.96 1.14123 -1.25189 0
M  V30 19274 O 1790.17 1.09248 -1.43056 0
M  V30 19275 H 1786.55 0.21157 -0.721625 0
M  V30 19276 H 1788.52 -0.0143437 -2.98397 0
M  V30 19277 C 1787.27 1.76132 -2.99788 0
M  V30 19278 H 1786.59 1.35284 -3.76216 0
M  V30 19279 H 1788.03 2.36317 -3.52037 0
M  V30 19280 C 1786.49 2.6623 -2.06453 0
M  V30 19281 O 1787.02 3.67179 -1.62918 0
M  V30 19282 N 1785.22 2.3385 -1.72518 0
M  V30 19283 H 1784.77 1.51804 -2.08119 0
M  V30 19284 H 1784.73 2.944 -1.10344 0
M  V30 19285 N 1788.5 1.57583 -0.0234236 0
M  V30 19286 C 1789.73 1.96267 0.670371 0
M  V30 19287 C 1790.15 0.899586 1.65194 0
M  V30 19288 O 1789.51 -0.140079 1.80758 0
M  V30 19289 C 1789.56 3.34049 1.35806 0
M  V30 19290 O 1788.66 3.3001 2.4732 0
M  V30 19291 H 1788 0.640097 0.176557 0
M  V30 19292 H 1790.53 2.04429 -0.0835829 0
M  V30 19293 H 1790.54 3.70151 1.71616 0
M  V30 19294 H 1789.22 4.10969 0.63852 0
M  V30 19295 H 1787.79 3.05618 2.13664 0
M  V30 19296 N 1789.98 -0.249655 1.5561 0
M  V30 19297 C 1791.26 -1.00075 1.68061 0
M  V30 19298 C 1791.64 -2.03468 0.562492 0
M  V30 19299 O 1790.98 -2.24332 -0.434424 0
M  V30 19300 C 1791.19 -1.63657 3.08249 0
M  V30 19301 C 1792.54 -2.13946 3.66759 0
M  V30 19302 O 1793.57 -1.73603 3.11031 0
M  V30 19303 O 1792.43 -2.88012 4.64447 0
M  V30 19304 H 1789.52 -0.465648 0.683448 0
M  V30 19305 H 1792.07 -0.243659 1.67942 0
M  V30 19306 H 1790.84 -0.888572 3.81078 0
M  V30 19307 H 1790.46 -2.45993 3.12367 0
M  V30 19308 N 1791.46 -1.48941 -0.515198 0
M  V30 19309 C 1792.39 -1.67466 -1.62719 0
M  V30 19310 C 1793.37 -0.523393 -1.61847 0
M  V30 19311 O 1794.55 -0.757631 -1.78812 0
M  V30 19312 C 1791.68 -1.72799 -3.0126 0
M  V30 19313 C 1790.64 -2.87574 -3.16994 0
M  V30 19314 C 1789.96 -2.78008 -4.56745 0
M  V30 19315 C 1791.26 -4.28693 -2.98362 0
M  V30 19316 H 1792.96 -2.60562 -1.47471 0
M  V30 19317 H 1790.5 -1.25391 -0.708027 0
M  V30 19318 H 1792.46 -1.84346 -3.78939 0
M  V30 19319 H 1791.18 -0.762918 -3.17564 0
M  V30 19320 H 1789.84 -2.75606 -2.41737 0
M  V30 19321 H 1789.49 -1.79438 -4.69905 0
M  V30 19322 H 1789.19 -3.55033 -4.68215 0
M  V30 19323 H 1790.71 -2.91543 -5.36503 0
M  V30 19324 H 1792.13 -4.41416 -3.65821 0
M  V30 19325 H 1790.52 -5.0683 -3.21315 0
M  V30 19326 H 1791.59 -4.44125 -1.9463 0
M  V30 19327 N 1792.94 0.765193 -1.37777 0
M  V30 19328 C 1794.18 1.52096 -1.33084 0
M  V30 19329 C 1794.5 1.94827 0.08221 0
M  V30 19330 O 1793.77 1.66787 1.02757 0
M  V30 19331 H 1792.35 0.564139 -0.489649 0
M  V30 19332 H 1795.02 0.910308 -1.72335 0
M  V30 19333 H 1794.11 2.4173 -1.97416 0
M  V30 19334 N 1794.41 1.22455 0.992094 0
M  V30 19335 C 1795.64 1.07594 1.76723 0
M  V30 19336 C 1796.06 -0.37345 1.8507 0
M  V30 19337 O 1795.41 -1.25876 1.32142 0
M  V30 19338 C 1795.46 1.68178 3.19998 0
M  V30 19339 O 1795.19 3.07447 3.12102 0
M  V30 19340 C 1796.69 1.58602 4.13957 0
M  V30 19341 H 1793.91 0.377148 0.554978 0
M  V30 19342 H 1796.45 1.62065 1.24721 0
M  V30 19343 H 1794.61 1.17768 3.69066 0
M  V30 19344 H 1795.02 3.36641 4.0221 0
M  V30 19345 H 1796.49 2.05714 5.12236 0
M  V30 19346 H 1796.97 0.542712 4.35834 0
M  V30 19347 H 1797.58 2.08321 3.70786 0
M  V30 19348 N 1795.89 -1.18905 1.03437 0
M  V30 19349 C 1797.14 -1.8927 0.744887 0
M  V30 19350 C 1797.49 -1.78456 -0.719113 0
M  V30 19351 O 1796.79 -1.16979 -1.51745 0
M  V30 19352 C 1796.98 -3.38811 1.13762 0
M  V30 19353 C 1796.81 -3.64179 2.63826 0
M  V30 19354 C 1795.58 -3.81899 3.30879 0
M  V30 19355 C 1797.78 -3.65282 3.62041 0
M  V30 19356 N 1795.76 -3.94947 4.69989 0
M  V30 19357 C 1797.13 -3.83968 4.86794 0
M  V30 19358 C 1799.18 -3.48337 3.55761 0
M  V30 19359 C 1797.89 -3.87464 6.06023 0
M  V30 19360 C 1799.91 -3.53113 4.74411 0
M  V30 19361 C 1799.28 -3.72289 5.9798 0
M  V30 19362 H 1795.37 -0.711481 0.324529 0
M  V30 19363 H 1797.96 -1.42865 1.32279 0
M  V30 19364 H 1796.13 -3.83925 0.587871 0
M  V30 19365 H 1797.86 -3.96718 0.799815 0
M  V30 19366 H 1794.62 -3.81017 2.81288 0
M  V30 19367 H 1795.04 -4.05308 5.42268 0
M  V30 19368 H 1799.68 -3.32463 2.61206 0
M  V30 19369 H 1797.4 -4.02128 7.00941 0
M  V30 19370 H 1800.99 -3.41284 4.71186 0
M  V30 19371 H 1799.87 -3.75866 6.88255 0
M  V30 19372 N 1797.37 -0.812977 -1.35013 0
M  V30 19373 C 1798.3 -0.185443 -2.28449 0
M  V30 19374 C 1799.31 0.618951 -1.50575 0
M  V30 19375 O 1800.5 0.450262 -1.72728 0
M  V30 19376 C 1797.6 0.759419 -3.30282 0
M  V30 19377 C 1796.78 1.09356e-05 -4.374 0
M  V30 19378 C 1795.84 0.864309 -5.19053 0
M  V30 19379 O 1794.86 0.312916 -5.68339 0
M  V30 19380 N 1796.06 2.18551 -5.37788 0
M  V30 19381 H 1798.83 -0.988144 -2.82941 0
M  V30 19382 H 1796.39 -0.669018 -1.47431 0
M  V30 19383 H 1798.38 1.342 -3.81802 0
M  V30 19384 H 1796.95 1.4629 -2.76257 0
M  V30 19385 H 1796.17 -0.763818 -3.86729 0
M  V30 19386 H 1797.46 -0.523125 -5.06104 0
M  V30 19387 H 1796.86 2.65735 -4.99401 0
M  V30 19388 H 1795.41 2.71718 -5.92463 0
M  V30 19389 N 1798.85 1.47045 -0.567045 0
M  V30 19390 C 1799.78 2.27106 0.223156 0
M  V30 19391 C 1800.76 1.34662 0.911315 0
M  V30 19392 O 1801.94 1.64055 0.92834 0
M  V30 19393 C 1799.07 3.1197 1.31879 0
M  V30 19394 C 1798.12 4.20064 0.738145 0
M  V30 19395 S 1798.95 5.33828 -0.422892 0
M  V30 19396 C 1800.1 6.22257 0.674324 0
M  V30 19397 H 1800.34 2.93779 -0.456193 0
M  V30 19398 H 1797.87 1.50297 -0.353581 0
M  V30 19399 H 1799.83 3.61432 1.9462 0
M  V30 19400 H 1798.49 2.44641 1.97002 0
M  V30 19401 H 1797.68 4.7921 1.56122 0
M  V30 19402 H 1797.28 3.73534 0.186721 0
M  V30 19403 H 1799.58 6.59201 1.56398 0
M  V30 19404 H 1800.52 7.07998 0.11999 0
M  V30 19405 H 1800.93 5.56079 0.971422 0
M  V30 19406 N 1800.33 0.304 1.5464 0
M  V30 19407 C 1801.6 -0.357665 1.92302 0
M  V30 19408 C 1801.98 -1.71453 1.23155 0
M  V30 19409 O 1801.33 -2.25512 0.368342 0
M  V30 19410 C 1801.54 -0.469339 3.4583 0
M  V30 19411 C 1802.89 -0.738803 4.18123 0
M  V30 19412 O 1803.91 -0.553033 3.51881 0
M  V30 19413 O 1802.77 -1.09585 5.354 0
M  V30 19414 H 1799.87 -0.200506 0.802326 0
M  V30 19415 H 1802.41 0.352279 1.66003 0
M  V30 19416 H 1801.18 0.484397 3.8829 0
M  V30 19417 H 1800.81 -1.22763 3.78173 0
M  V30 19418 N 1801.8 -1.57568 0.0317802 0
M  V30 19419 C 1803.04 -1.93776 -0.650407 0
M  V30 19420 C 1803.41 -0.908617 -1.69139 0
M  V30 19421 O 1804.61 -1.15698 -2.42626 0
M  V30 19422 C 1802.88 -3.34887 -1.24843 0
M  V30 19423 S 1804.44 -3.93025 -1.95132 0
M  V30 19424 H 1801.26 -0.678007 -0.214074 0
M  V30 19425 H 1803.86 -1.95264 0.0960817 0
M  V30 19426 H 1802.56 -4.07602 -0.478395 0
M  V30 19427 H 1802.09 -3.36848 -2.03216 0
M  V30 19428 H 1804.11 -3.76676 -3.23001 0
M  V30 19429 N 1803.28 0.241399 -1.5574 0
M  V30 19430 C 1804.51 0.986075 -1.81891 0
M  V30 19431 C 1804.93 1.78734 -0.608254 0
M  V30 19432 O 1804.28 1.77527 0.423129 0
M  V30 19433 C 1804.33 1.91956 -3.06325 0
M  V30 19434 O 1804.05 1.15071 -4.22718 0
M  V30 19435 C 1805.56 2.77977 -3.45317 0
M  V30 19436 H 1802.78 0.289913 -0.605137 0
M  V30 19437 H 1805.32 0.262622 -2.02807 0
M  V30 19438 H 1803.47 2.59721 -2.87443 0
M  V30 19439 H 1803.89 1.78261 -4.93278 0
M  V30 19440 H 1805.36 3.39215 -4.35474 0
M  V30 19441 H 1805.84 3.49369 -2.66154 0
M  V30 19442 H 1806.45 2.15655 -3.66569 0
M  V30 19443 N 1804.76 1.49212 0.507292 0
M  V30 19444 C 1805.71 1.61812 1.60626 0
M  V30 19445 C 1806.69 0.474071 1.53758 0
M  V30 19446 O 1807.89 0.726703 1.61394 0
M  V30 19447 C 1805.02 1.68213 2.99265 0
M  V30 19448 C 1804.1 2.88174 3.11153 0
M  V30 19449 N 1804.49 4.12328 2.92949 0
M  V30 19450 C 1802.79 2.8598 3.42245 0
M  V30 19451 C 1803.49 4.92935 3.08853 0
M  V30 19452 N 1802.47 4.2618 3.37449 0
M  V30 19453 H 1806.27 2.5553 1.45196 0
M  V30 19454 H 1803.78 1.45898 0.71328 0
M  V30 19455 H 1805.78 1.75336 3.78236 0
M  V30 19456 H 1804.44 0.756279 3.1577 0
M  V30 19457 H 1805.45 4.42408 2.6925 0
M  V30 19458 H 1802.13 2.02748 3.64965 0
M  V30 19459 H 1803.52 6.01543 2.99324 0
M  V30 19460 N 1806.24 -0.757876 1.38181 0
M  V30 19461 C 1807.17 -1.88519 1.37779 0
M  V30 19462 C 1808.15 -1.68336 0.24432 0
M  V30 19463 O 1809.33 -1.88991 0.446762 0
M  V30 19464 C 1806.46 -3.2599 1.19784 0
M  V30 19465 C 1805.42 -3.60764 2.30289 0
M  V30 19466 C 1804.74 -4.96927 1.97403 0
M  V30 19467 C 1806.04 -3.66082 3.72533 0
M  V30 19468 H 1807.74 -1.89112 2.32114 0
M  V30 19469 H 1805.28 -0.908442 1.11729 0
M  V30 19470 H 1807.24 -4.04504 1.18129 0
M  V30 19471 H 1805.96 -3.25864 0.219088 0
M  V30 19472 H 1804.62 -2.84566 2.31123 0
M  V30 19473 H 1804.27 -4.93356 0.98023 0
M  V30 19474 H 1803.97 -5.21162 2.7141 0
M  V30 19475 H 1805.49 -5.77825 1.97359 0
M  V30 19476 H 1806.91 -4.3472 3.73754 0
M  V30 19477 H 1805.3 -4.01824 4.4571 0
M  V30 19478 H 1806.37 -2.66412 4.05158 0
M  V30 19479 N 1807.72 -1.22979 -0.985586 0
M  V30 19480 C 1808.63 -1.02294 -2.11124 0
M  V30 19481 C 1809.64 0.030991 -1.73972 0
M  V30 19482 O 1810.82 -0.163333 -2.00737 0
M  V30 19483 C 1807.88 -0.611102 -3.41272 0
M  V30 19484 C 1806.94 -1.73949 -3.9248 0
M  V30 19485 C 1806.18 -1.34721 -5.16417 0
M  V30 19486 O 1806.4 -0.229171 -5.69939 0
M  V30 19487 O 1805.33 -2.16639 -5.61561 0
M  V30 19488 H 1809.16 -1.9662 -2.31461 0
M  V30 19489 H 1806.75 -1.01639 -1.09499 0
M  V30 19490 H 1808.63 -0.392127 -4.19572 0
M  V30 19491 H 1807.3 0.303224 -3.22277 0
M  V30 19492 H 1806.21 -2.01305 -3.1532 0
M  V30 19493 H 1807.54 -2.63194 -4.1592 0
M  V30 19494 N 1809.19 1.18355 -1.04066 0
M  V30 19495 C 1810.44 1.87963 -0.742576 0
M  V30 19496 C 1810.76 1.80744 0.731899 0
M  V30 19497 O 1810.03 1.22576 1.52813 0
M  V30 19498 H 1808.61 0.69584 -0.271689 0
M  V30 19499 H 1811.28 1.43632 -1.31741 0
M  V30 19500 H 1810.37 2.93999 -1.04741 0
M  V30 19501 N 1810.67 0.820125 1.3458 0
M  V30 19502 C 1811.62 0.237994 2.2957 0
M  V30 19503 C 1812.59 -0.635637 1.53456 0
M  V30 19504 O 1813.77 -0.57787 1.81839 0
M  V30 19505 C 1810.91 -0.596426 3.39907 0
M  V30 19506 C 1810.03 0.29914 4.30963 0
M  V30 19507 C 1809.16 -0.54458 5.28401 0
M  V30 19508 C 1808.2 0.350546 6.11095 0
M  V30 19509 N 1807.34 -0.453936 7.00631 0
M  V30 19510 H 1812.18 1.0534 2.7876 0
M  V30 19511 H 1809.72 0.530977 1.37183 0
M  V30 19512 H 1811.67 -1.0955 4.0256 0
M  V30 19513 H 1810.3 -1.37697 2.91958 0
M  V30 19514 H 1809.36 0.916412 3.69196 0
M  V30 19515 H 1810.67 0.987544 4.88926 0
M  V30 19516 H 1809.82 -1.10825 5.96492 0
M  V30 19517 H 1808.56 -1.2665 4.70968 0
M  V30 19518 H 1807.57 0.926375 5.41939 0
M  V30 19519 H 1808.79 1.07054 6.70609 0
M  V30 19520 H 1806.74 -1.15958 6.4567 0
M  V30 19521 H 1806.65 0.176138 7.55795 0
M  V30 19522 H 1807.92 -1.00044 7.73053 0
M  V30 19523 N 1812.15 -1.46743 0.574835 0
M  V30 19524 C 1813.4 -2.01625 0.0551724 0
M  V30 19525 C 1813.71 -1.4528 -1.3097 0
M  V30 19526 O 1814.92 -1.91932 -1.92026 0
M  V30 19527 C 1813.37 -3.59868 0.0480708 0
M  V30 19528 C 1812.98 -4.25207 1.41078 0
M  V30 19529 C 1814.73 -4.22436 -0.41806 0
M  V30 19530 C 1812.63 -5.75507 1.36183 0
M  V30 19531 H 1811.56 -0.753812 0.0168558 0
M  V30 19532 H 1814.21 -1.68557 0.725313 0
M  V30 19533 H 1812.6 -3.89976 -0.688076 0
M  V30 19534 H 1813.77 -4.06718 2.16603 0
M  V30 19535 H 1812.09 -3.747 1.81628 0
M  V30 19536 H 1814.68 -5.32601 -0.473353 0
M  V30 19537 H 1815.03 -3.90826 -1.43391 0
M  V30 19538 H 1815.56 -3.96925 0.263775 0
M  V30 19539 H 1812.3 -6.11765 2.35423 0
M  V30 19540 H 1811.82 -5.96282 0.648655 0
M  V30 19541 H 1813.5 -6.38068 1.07137 0
M  V30 19542 N 1813.63 -0.312197 -1.54477 0
M  V30 19543 C 1814.87 0.294208 -2.00655 0
M  V30 19544 C 1815.21 1.52674 -1.20018 0
M  V30 19545 O 1814.48 1.92481 -0.279517 0
M  V30 19546 C 1814.77 0.639677 -3.54373 0
M  V30 19547 C 1814.62 -0.602773 -4.45743 0
M  V30 19548 C 1815.94 1.46181 -4.15113 0
M  V30 19549 H 1813.06 0.10546 -0.729416 0
M  V30 19550 H 1815.7 -0.426519 -1.85151 0
M  V30 19551 H 1813.85 1.25371 -3.67715 0
M  V30 19552 H 1815.52 -1.24116 -4.44289 0
M  V30 19553 H 1813.76 -1.23386 -4.15882 0
M  V30 19554 H 1814.43 -0.316748 -5.5109 0
M  V30 19555 H 1816.91 0.942887 -4.05276 0
M  V30 19556 H 1815.79 1.67231 -5.22805 0
M  V30 19557 H 1816.05 2.45448 -3.67706 0
M  V30 19558 N 1815.11 1.57549 -0.040136 0
M  V30 19559 C 1816.36 1.91427 0.635496 0
M  V30 19560 C 1816.67 0.919277 1.72652 0
M  V30 19561 O 1817.87 1.14971 2.45955 0
M  V30 19562 C 1816.33 3.39949 1.18164 0
M  V30 19563 C 1815.94 4.4783 0.12332 0
M  V30 19564 C 1817.68 3.82878 1.83315 0
M  V30 19565 C 1815.59 5.87458 0.681727 0
M  V30 19566 H 1814.52 0.714401 0.241138 0
M  V30 19567 H 1817.17 1.83186 -0.107231 0
M  V30 19568 H 1815.55 3.43157 1.97633 0
M  V30 19569 H 1816.73 4.56197 -0.64972 0
M  V30 19570 H 1815.04 4.14173 -0.43008 0
M  V30 19571 H 1817.64 4.84558 2.2607 0
M  V30 19572 H 1817.98 3.1853 2.68038 0
M  V30 19573 H 1818.51 3.82139 1.10519 0
M  V30 19574 H 1815.25 6.55376 -0.127616 0
M  V30 19575 H 1814.77 5.82675 1.423 0
M  V30 19576 H 1816.45 6.36369 1.16806 0
M  V30 19577 N 1816.58 -0.233136 1.55866 0
M  V30 19578 C 1817.83 -0.96064 1.78604 0
M  V30 19579 C 1818.16 -1.84444 0.607795 0
M  V30 19580 O 1817.44 -1.9048 -0.39342 0
M  V30 19581 C 1817.72 -1.80946 3.11337 0
M  V30 19582 C 1817.57 -0.952929 4.3959 0
M  V30 19583 C 1818.89 -2.78941 3.40411 0
M  V30 19584 H 1816.01 -0.347809 0.649767 0
M  V30 19585 H 1818.65 -0.230233 1.886 0
M  V30 19586 H 1816.8 -2.43219 3.02946 0
M  V30 19587 H 1818.48 -0.347831 4.59987 0
M  V30 19588 H 1816.72 -0.257846 4.33033 0
M  V30 19589 H 1817.39 -1.58096 5.28876 0
M  V30 19590 H 1819.87 -2.26804 3.48854 0
M  V30 19591 H 1818.74 -3.35443 4.34475 0
M  V30 19592 H 1819 -3.561 2.62003 0
M  V30 19593 N 1818.06 -1.49479 -0.499372 0
M  V30 19594 C 1819.03 -1.6575 -1.58302 0
M  V30 19595 C 1820.03 -0.529236 -1.51841 0
M  V30 19596 O 1821.22 -0.795721 -1.54964 0
M  V30 19597 C 1818.35 -1.65639 -2.97954 0
M  V30 19598 H 1819.54 -2.62404 -1.45203 0
M  V30 19599 H 1817.09 -1.38535 -0.723725 0
M  V30 19600 H 1817.83 -0.705752 -3.16527 0
M  V30 19601 H 1817.61 -2.47578 -3.04051 0
M  V30 19602 H 1819.1 -1.80279 -3.76682 0
M  V30 19603 N 1819.54 0.750537 -1.38581 0
M  V30 19604 C 1820.79 1.51198 -1.35156 0
M  V30 19605 C 1821.12 1.94115 0.0574068 0
M  V30 19606 O 1820.4 1.65657 1.01922 0
M  V30 19607 C 1820.68 2.76245 -2.30999 0
M  V30 19608 C 1820.53 2.39446 -3.8077 0
M  V30 19609 C 1821.85 3.78282 -2.24924 0
M  V30 19610 H 1818.97 0.548488 -0.492271 0
M  V30 19611 H 1821.61 0.859402 -1.69453 0
M  V30 19612 H 1819.76 3.31928 -2.01882 0
M  V30 19613 H 1821.43 1.89515 -4.20573 0
M  V30 19614 H 1819.68 1.71866 -3.98302 0
M  V30 19615 H 1820.35 3.28926 -4.43296 0
M  V30 19616 H 1822.82 3.32146 -2.50636 0
M  V30 19617 H 1821.7 4.63467 -2.94091 0
M  V30 19618 H 1821.96 4.24088 -1.24908 0
M  V30 19619 N 1821.02 1.235 0.979051 0
M  V30 19620 C 1821.97 0.984512 2.05649 0
M  V30 19621 C 1822.95 -0.0699833 1.60748 0
M  V30 19622 O 1824.15 0.142316 1.76427 0
M  V30 19623 C 1821.27 0.579082 3.38381 0
M  V30 19624 C 1820.36 1.66905 3.89876 0
M  V30 19625 N 1820.75 2.8996 4.14436 0
M  V30 19626 C 1819.05 1.54394 4.18424 0
M  V30 19627 C 1819.75 3.60539 4.56493 0
M  V30 19628 N 1818.73 2.88058 4.61003 0
M  V30 19629 H 1822.53 1.91906 2.22597 0
M  V30 19630 H 1820.04 1.13459 1.16193 0
M  V30 19631 H 1822.04 0.380896 4.15156 0
M  V30 19632 H 1820.7 -0.348408 3.22825 0
M  V30 19633 H 1821.71 3.26252 4.02219 0
M  V30 19634 H 1818.39 0.683659 4.11864 0
M  V30 19635 H 1819.78 4.66038 4.84002 0
M  V30 19636 N 1822.5 -1.17802 1.04693 0
M  V30 19637 C 1823.74 -1.88217 0.755141 0
M  V30 19638 C 1824.08 -1.8053 -0.715731 0
M  V30 19639 O 1823.35 -1.20987 -1.52291 0
M  V30 19640 C 1823.63 -3.38447 1.22986 0
M  V30 19641 C 1823.49 -3.54911 2.7633 0
M  V30 19642 C 1824.81 -4.323 0.824891 0
M  V30 19643 H 1821.93 -0.683452 0.275795 0
M  V30 19644 H 1824.57 -1.38561 1.30004 0
M  V30 19645 H 1822.72 -3.80868 0.7663 0
M  V30 19646 H 1824.39 -3.2154 3.30771 0
M  V30 19647 H 1822.63 -2.97357 3.1585 0
M  V30 19648 H 1823.3 -4.60347 3.04606 0
M  V30 19649 H 1825.78 -3.97694 1.22389 0
M  V30 19650 H 1824.66 -5.35962 1.18472 0
M  V30 19651 H 1824.92 -4.41265 -0.27151 0
M  V30 19652 N 1823.98 -0.827251 -1.34143 0
M  V30 19653 C 1824.94 -0.257543 -2.27748 0
M  V30 19654 C 1825.94 0.567053 -1.5047 0
M  V30 19655 O 1827.13 0.382529 -1.69948 0
M  V30 19656 C 1824.26 0.638449 -3.34868 0
M  V30 19657 H 1825.45 -1.08338 -2.79648 0
M  V30 19658 H 1823.01 -0.599441 -1.44348 0
M  V30 19659 H 1823.74 1.48717 -2.8819 0
M  V30 19660 H 1823.53 0.0486033 -3.9207 0
M  V30 19661 H 1825.02 1.03071 -4.0468 0
M  V30 19662 N 1825.45 1.46436 -0.582609 0
M  V30 19663 C 1826.68 2.07275 -0.0718712 0
M  V30 19664 C 1827.1 1.42851 1.22373 0
M  V30 19665 O 1826.46 0.512272 1.73912 0
M  V30 19666 C 1826.51 3.6051 0.08055 0
M  V30 19667 O 1825.61 3.96414 1.13707 0
M  V30 19668 H 1824.95 0.661027 -0.0627607 0
M  V30 19669 H 1827.48 1.88076 -0.805524 0
M  V30 19670 H 1827.49 4.06991 0.286749 0
M  V30 19671 H 1826.17 4.06792 -0.865603 0
M  V30 19672 H 1824.75 3.61643 0.909338 0
M  V30 19673 N 1826.93 0.320385 1.54309 0
M  V30 19674 C 1828.18 -0.282584 2.00115 0
M  V30 19675 C 1828.5 -1.52904 1.21018 0
M  V30 19676 O 1827.77 -1.93413 0.311163 0
M  V30 19677 H 1826.35 -0.107406 0.739238 0
M  V30 19678 H 1829.01 0.436196 1.89956 0
M  V30 19679 H 1828.11 -0.541189 3.07372 0
M  V30 19680 N 1828.41 -1.57525 0.0484906 0
M  V30 19681 C 1829.66 -1.92585 -0.62589 0
M  V30 19682 C 1829.98 -0.926621 -1.71009 0
M  V30 19683 O 1829.24 0.0614997 -1.95603 0
M  V30 19684 C 1829.54 -3.34335 -1.26313 0
M  V30 19685 C 1829.2 -4.49851 -0.307397 0
M  V30 19686 C 1827.87 -4.8118 -0.0443996 0
M  V30 19687 C 1830.22 -5.20039 0.347762 0
M  V30 19688 C 1827.55 -5.80044 0.881238 0
M  V30 19689 C 1829.9 -6.19893 1.26157 0
M  V30 19690 C 1828.56 -6.49651 1.53327 0
M  V30 19691 H 1827.83 -0.704717 -0.229029 0
M  V30 19692 H 1830.48 -1.91158 0.114397 0
M  V30 19693 H 1828.78 -3.32115 -2.07862 0
M  V30 19694 H 1830.48 -3.58741 -1.79182 0
M  V30 19695 H 1827.07 -4.25402 -0.522561 0
M  V30 19696 H 1831.26 -4.9605 0.157663 0
M  V30 19697 H 1826.51 -6.01437 1.09924 0
M  V30 19698 H 1830.69 -6.73391 1.77532 0
M  V30 19699 H 1828.31 -7.26073 2.25216 0
M  V30 19700 N 1829.89 0.224867 -1.55988 0
M  V30 19701 C 1831.14 0.947776 -1.78045 0
M  V30 19702 C 1831.45 1.85632 -0.616454 0
M  V30 19703 O 1832.66 2.61763 -0.720579 0
M  V30 19704 C 1831.11 1.73546 -3.15293 0
M  V30 19705 C 1830.72 0.873219 -4.39407 0
M  V30 19706 C 1832.46 2.44978 -3.46679 0
M  V30 19707 C 1830.37 1.65806 -5.67682 0
M  V30 19708 H 1829.3 0.357623 -0.663793 0
M  V30 19709 H 1831.95 0.201754 -1.82388 0
M  V30 19710 H 1830.33 2.52426 -3.05118 0
M  V30 19711 H 1831.51 0.125187 -4.6063 0
M  V30 19712 H 1829.82 0.271179 -4.15516 0
M  V30 19713 H 1832.42 3.04192 -4.3974 0
M  V30 19714 H 1832.76 3.17699 -2.69023 0
M  V30 19715 H 1833.3 1.7309 -3.58168 0
M  V30 19716 H 1830.03 0.974191 -6.4822 0
M  V30 19717 H 1829.55 2.38079 -5.50526 0
M  V30 19718 H 1831.23 2.21959 -6.07736 0
M  V30 19719 N 1831.37 1.49742 0.491438 0
M  V30 19720 C 1832.28 1.69866 1.6181 0
M  V30 19721 C 1833.29 0.581386 1.64 0
M  V30 19722 O 1834.47 0.857263 1.82244 0
M  V30 19723 C 1831.53 1.76965 2.98135 0
M  V30 19724 C 1830.59 3.00597 3.06496 0
M  V30 19725 C 1829.83 3.07348 4.36317 0
M  V30 19726 O 1830.05 2.21432 5.25665 0
M  V30 19727 O 1828.98 3.99898 4.4985 0
M  V30 19728 H 1832.81 2.65332 1.47759 0
M  V30 19729 H 1830.39 1.33596 0.668761 0
M  V30 19730 H 1832.28 1.83932 3.7914 0
M  V30 19731 H 1830.95 0.846807 3.12427 0
M  V30 19732 H 1829.86 2.99142 2.24643 0
M  V30 19733 H 1831.19 3.92393 2.97133 0
M  V30 19734 N 1832.84 -0.743177 1.38977 0
M  V30 19735 C 1833.81 -1.83876 1.36829 0
M  V30 19736 C 1834.81 -1.5857 0.266875 0
M  V30 19737 O 1836 -1.66121 0.524337 0
M  V30 19738 C 1833.13 -3.21528 1.1328 0
M  V30 19739 H 1834.32 -1.87186 2.3431 0
M  V30 19740 H 1831.88 -0.945979 1.24422 0
M  V30 19741 H 1832.61 -3.23883 0.164474 0
M  V30 19742 H 1832.4 -3.41292 1.93034 0
M  V30 19743 H 1833.89 -4.01597 1.14498 0
M  V30 19744 N 1834.32 -1.24018 -0.972487 0
M  V30 19745 C 1835.23 -1.04527 -2.10027 0
M  V30 19746 C 1836.25 0.0125372 -1.73995 0
M  V30 19747 O 1837.42 -0.184615 -2.00552 0
M  V30 19748 C 1834.49 -0.647264 -3.40604 0
M  V30 19749 C 1833.55 -1.78102 -3.90613 0
M  V30 19750 C 1832.78 -1.4019 -5.14959 0
M  V30 19751 O 1833.01 -0.289608 -5.69664 0
M  V30 19752 O 1831.94 -2.22583 -5.59232 0
M  V30 19753 H 1835.77 -1.99064 -2.29363 0
M  V30 19754 H 1833.35 -1.02794 -1.08414 0
M  V30 19755 H 1835.23 -0.436606 -4.19132 0
M  V30 19756 H 1833.91 0.269025 -3.2258 0
M  V30 19757 H 1832.82 -2.04638 -3.13168 0
M  V30 19758 H 1834.15 -2.67591 -4.13105 0
M  V30 19759 N 1835.8 1.17245 -1.05316 0
M  V30 19760 C 1837.05 1.87813 -0.765112 0
M  V30 19761 C 1837.38 1.80907 0.706147 0
M  V30 19762 O 1836.65 1.21793 1.51647 0
M  V30 19763 C 1836.94 3.3779 -1.24779 0
M  V30 19764 C 1836.79 3.53441 -2.78208 0
M  V30 19765 C 1838.11 4.31857 -0.847805 0
M  V30 19766 H 1835.23 0.681979 -0.279415 0
M  V30 19767 H 1837.87 1.37869 -1.30737 0
M  V30 19768 H 1836.02 3.80456 -0.786487 0
M  V30 19769 H 1837.69 3.19782 -3.32472 0
M  V30 19770 H 1835.94 2.95678 -3.17423 0
M  V30 19771 H 1836.61 4.58725 -3.07043 0
M  V30 19772 H 1839.08 3.97039 -1.24496 0
M  V30 19773 H 1837.96 5.35326 -1.21313 0
M  V30 19774 H 1838.22 4.41403 0.248104 0
M  V30 19775 N 1837.28 0.834353 1.33702 0
M  V30 19776 C 1838.53 0.424225 1.97188 0
M  V30 19777 C 1838.84 -1.02086 1.66846 0
M  V30 19778 O 1840.05 -1.53545 2.23911 0
M  V30 19779 C 1838.5 0.707628 3.52875 0
M  V30 19780 C 1838.11 2.16709 3.92098 0
M  V30 19781 C 1839.85 0.364228 4.22935 0
M  V30 19782 C 1837.76 2.39478 5.40744 0
M  V30 19783 H 1836.69 0.154897 0.737918 0
M  V30 19784 H 1839.34 1.02231 1.52385 0
M  V30 19785 H 1837.72 0.0392323 3.95981 0
M  V30 19786 H 1838.9 2.87559 3.60064 0
M  V30 19787 H 1837.21 2.47303 3.35008 0
M  V30 19788 H 1839.81 0.512031 5.32243 0
M  V30 19789 H 1840.15 -0.692375 4.10502 0
M  V30 19790 H 1840.69 0.98767 3.85344 0
M  V30 19791 H 1837.43 3.43687 5.58175 0
M  V30 19792 H 1836.95 1.73184 5.74254 0
M  V30 19793 H 1838.62 2.22406 6.07573 0
M  V30 19794 N 1838.76 -1.46125 0.590367 0
M  V30 19795 C 1840.17 -1.85962 0.165876 0
M  V30 19796 C 1840.52 -1.49296 -1.27299 0
M  V30 19797 O 1839.64 -0.911461 -1.96269 0
M  V30 19798 C 1840.24 -3.3752 0.294262 0
M  V30 19799 C 1838.8 -3.76324 -0.0754118 0
M  V30 19800 C 1837.94 -2.70126 0.626682 0
M  V30 19801 H 1840.9 -1.3717 0.79812 0
M  V30 19802 H 1840.92 -3.77482 -0.4783 0
M  V30 19803 H 1840.43 -3.64175 1.34159 0
M  V30 19804 H 1838.53 -3.55287 -1.12258 0
M  V30 19805 H 1838.64 -4.7812 0.306241 0
M  V30 19806 H 1837.01 -2.54614 0.0661219 0
M  V30 19807 H 1837.79 -2.99619 1.6758 0
M  V30 19808 N 1840.23 -0.328564 -1.54137 0
M  V30 19809 C 1841.17 0.569226 -2.22019 0
M  V30 19810 C 1842.18 1.0759 -1.22181 0
M  V30 19811 O 1843.37 0.988621 -1.48622 0
M  V30 19812 C 1840.47 1.79439 -2.87498 0
M  V30 19813 C 1839.64 1.42555 -4.13517 0
M  V30 19814 C 1838.7 2.50878 -4.62544 0
M  V30 19815 O 1837.73 2.14812 -5.27109 0
M  V30 19816 N 1838.93 3.8189 -4.37196 0
M  V30 19817 H 1841.69 -0.0120478 -2.99698 0
M  V30 19818 H 1839.25 -0.151994 -1.61185 0
M  V30 19819 H 1841.25 2.51307 -3.17218 0
M  V30 19820 H 1839.82 2.28339 -2.13495 0
M  V30 19821 H 1839.04 0.538288 -3.90507 0
M  V30 19822 H 1840.32 1.1549 -4.9552 0
M  V30 19823 H 1839.72 4.13987 -3.85527 0
M  V30 19824 H 1838.28 4.49974 -4.71558 0
M  V30 19825 N 1841.71 1.57497 -0.0568439 0
M  V30 19826 C 1842.62 2.1535 0.930668 0
M  V30 19827 C 1843.64 1.11276 1.33767 0
M  V30 19828 O 1844.81 1.43472 1.41343 0
M  V30 19829 C 1841.88 2.69165 2.18521 0
M  V30 19830 C 1840.94 3.88057 1.83603 0
M  V30 19831 C 1840.17 4.39296 3.03076 0
M  V30 19832 O 1840.4 3.89588 4.16627 0
M  V30 19833 O 1839.33 5.30814 2.8376 0
M  V30 19834 H 1843.16 3.00063 0.468623 0
M  V30 19835 H 1840.74 1.48482 0.16538 0
M  V30 19836 H 1842.62 3.03721 2.92116 0
M  V30 19837 H 1841.3 1.8752 2.63852 0
M  V30 19838 H 1840.21 3.5838 1.07306 0
M  V30 19839 H 1841.54 4.70949 1.43066 0
M  V30 19840 N 1843.19 -0.216591 1.56105 0
M  V30 19841 C 1844.42 -0.957013 1.83436 0
M  V30 19842 C 1844.83 -1.77743 0.636612 0
M  V30 19843 O 1844.19 -1.78178 -0.394833 0
M  V30 19844 C 1844.24 -1.87058 3.09341 0
M  V30 19845 O 1843.96 -1.08331 4.24495 0
M  V30 19846 C 1845.46 -2.72448 3.49695 0
M  V30 19847 H 1842.68 -0.280249 0.609673 0
M  V30 19848 H 1845.23 -0.230324 2.03199 0
M  V30 19849 H 1843.38 -2.55116 2.91539 0
M  V30 19850 H 1843.8 -1.70391 4.96052 0
M  V30 19851 H 1845.27 -3.32244 4.40815 0
M  V30 19852 H 1845.75 -3.4509 2.71679 0
M  V30 19853 H 1846.35 -2.09796 3.69954 0
M  V30 19854 N 1844.67 -1.5 -0.48349 0
M  V30 19855 C 1845.92 -1.60052 -1.23401 0
M  V30 19856 C 1846.24 -0.297159 -1.92723 0
M  V30 19857 O 1845.51 0.684629 -1.83547 0
M  V30 19858 H 1844.09 -0.589753 -0.458477 0
M  V30 19859 H 1846.75 -1.86716 -0.558835 0
M  V30 19860 H 1845.85 -2.40545 -1.98858 0
M  V30 19861 N 1846.15 0.735796 -1.39369 0
M  V30 19862 C 1847.56 1.04124 -1.20956 0
M  V30 19863 C 1847.76 2.01376 -0.0705944 0
M  V30 19864 O 1846.82 2.45795 0.577999 0
M  V30 19865 C 1848.13 1.60429 -2.54329 0
M  V30 19866 C 1849.68 1.72513 -2.61167 0
M  V30 19867 C 1850.15 2.32227 -3.94759 0
M  V30 19868 N 1851.65 2.39638 -3.96394 0
M  V30 19869 C 1852.38 2.86777 -4.96534 0
M  V30 19870 N 1851.88 3.3382 -6.07072 0
M  V30 19871 N 1853.67 2.85979 -4.83913 0
M  V30 19872 H 1845.82 0.0907834 -2.12206 0
M  V30 19873 H 1848.08 0.102896 -0.942399 0
M  V30 19874 H 1847.79 0.964351 -3.38221 0
M  V30 19875 H 1847.66 2.59247 -2.73991 0
M  V30 19876 H 1850.05 2.35629 -1.77659 0
M  V30 19877 H 1850.13 0.723507 -2.45355 0
M  V30 19878 H 1849.78 1.69739 -4.78697 0
M  V30 19879 H 1849.71 3.33066 -4.07891 0
M  V30 19880 H 1852.2 2.06388 -3.16563 0
M  V30 19881 H 1852.51 3.68297 -6.79395 0
M  V30 19882 H 1850.85 3.3183 -6.10666 0
M  V30 19883 H 1854.05 2.48551 -3.96661 0
M  V30 19884 H 1854.22 3.22403 -5.62104 0
M  V30 19885 N 1847.63 1.24532 0.965897 0
M  V30 19886 C 1848.56 0.997143 2.06373 0
M  V30 19887 C 1849.57 -0.0340261 1.62764 0
M  V30 19888 O 1850.76 0.203223 1.77339 0
M  V30 19889 C 1847.86 0.483305 3.35436 0
M  V30 19890 C 1847.03 1.57803 4.07942 0
M  V30 19891 C 1846.09 1.06652 5.15278 0
M  V30 19892 O 1845.12 1.75859 5.41352 0
M  V30 19893 N 1846.32 -0.0981119 5.80417 0
M  V30 19894 H 1849.08 1.94238 2.28236 0
M  V30 19895 H 1846.65 1.15586 1.13365 0
M  V30 19896 H 1848.64 0.125833 4.04504 0
M  V30 19897 H 1847.21 -0.367709 3.1043 0
M  V30 19898 H 1846.43 2.1076 3.33127 0
M  V30 19899 H 1847.72 2.3138 4.53146 0
M  V30 19900 H 1847.11 -0.676662 5.61638 0
M  V30 19901 H 1845.67 -0.396714 6.50592 0
M  V30 19902 N 1849.1 -1.16685 1.05936 0
M  V30 19903 C 1850.33 -1.91035 0.794553 0
M  V30 19904 C 1850.75 -1.77234 -0.650663 0
M  V30 19905 O 1850.1 -1.11454 -1.44514 0
M  V30 19906 C 1850.15 -3.41859 1.17536 0
M  V30 19907 O 1849.88 -3.55243 2.56386 0
M  V30 19908 C 1851.38 -4.33267 0.937774 0
M  V30 19909 H 1848.6 -0.605896 0.288325 0
M  V30 19910 H 1851.14 -1.47925 1.41203 0
M  V30 19911 H 1849.3 -3.82686 0.602486 0
M  V30 19912 H 1849.71 -4.48744 2.71531 0
M  V30 19913 H 1851.18 -5.3757 1.25389 0
M  V30 19914 H 1851.66 -4.39017 -0.126673 0
M  V30 19915 H 1852.27 -3.98163 1.49486 0
M  V30 19916 N 1850.58 -0.841432 -1.33258 0
M  V30 19917 C 1851.54 -0.281685 -2.27462 0
M  V30 19918 C 1852.54 0.551062 -1.51063 0
M  V30 19919 O 1853.73 0.364482 -1.70344 0
M  V30 19920 C 1850.87 0.602896 -3.35526 0
M  V30 19921 H 1852.06 -1.11298 -2.78483 0
M  V30 19922 H 1849.61 -0.614717 -1.43704 0
M  V30 19923 H 1850.35 1.45652 -2.89751 0
M  V30 19924 H 1850.13 0.00701634 -3.92099 0
M  V30 19925 H 1851.62 0.987735 -4.05751 0
M  V30 19926 N 1852.06 1.4581 -0.598108 0
M  V30 19927 C 1852.99 2.33223 0.113747 0
M  V30 19928 C 1853.97 1.46268 0.868312 0
M  V30 19929 O 1855.16 1.75058 0.840737 0
M  V30 19930 C 1852.29 3.28815 1.11795 0
M  V30 19931 C 1851.24 4.25331 0.477223 0
M  V30 19932 C 1850.57 5.10544 1.589 0
M  V30 19933 C 1851.87 5.18894 -0.595518 0
M  V30 19934 H 1853.56 2.92992 -0.616123 0
M  V30 19935 H 1851.11 1.40888 -0.297741 0
M  V30 19936 H 1853.06 3.88832 1.62443 0
M  V30 19937 H 1851.78 2.67185 1.87829 0
M  V30 19938 H 1850.44 3.66599 -0.00831044 0
M  V30 19939 H 1850.09 4.45288 2.33939 0
M  V30 19940 H 1849.79 5.75918 1.16584 0
M  V30 19941 H 1851.31 5.73427 2.09794 0
M  V30 19942 H 1852.73 5.73037 -0.173494 0
M  V30 19943 H 1851.12 5.92694 -0.939873 0
M  V30 19944 H 1852.19 4.61895 -1.47584 0
M  V30 19945 N 1853.54 0.336733 1.53961 0
M  V30 19946 C 1854.78 -0.26186 2.008 0
M  V30 19947 C 1855.11 -1.51101 1.22469 0
M  V30 19948 O 1854.37 -1.9341 0.298485 0
M  V30 19949 C 1854.67 -0.628163 3.51836 0
M  V30 19950 C 1854.33 0.523319 4.47853 0
M  V30 19951 C 1852.99 0.83934 4.73823 0
M  V30 19952 C 1855.35 1.29615 5.04826 0
M  V30 19953 C 1852.67 1.93068 5.54023 0
M  V30 19954 C 1855.03 2.37768 5.86216 0
M  V30 19955 C 1853.69 2.69937 6.10483 0
M  V30 19956 H 1852.96 -0.0958214 0.734778 0
M  V30 19957 H 1855.61 0.463238 1.85813 0
M  V30 19958 H 1853.91 -1.43388 3.64619 0
M  V30 19959 H 1855.61 -1.10309 3.8553 0
M  V30 19960 H 1852.2 0.266944 4.27768 0
M  V30 19961 H 1856.38 1.06526 4.84733 0
M  V30 19962 H 1851.64 2.18423 5.71053 0
M  V30 19963 H 1855.81 2.98087 6.29378 0
M  V30 19964 H 1853.44 3.54629 6.72415 0
M  V30 19965 N 1855.02 -1.57465 0.0651956 0
M  V30 19966 C 1855.95 -2.15374 -0.902018 0
M  V30 19967 C 1856.93 -1.07904 -1.31494 0
M  V30 19968 O 1858.11 -1.35909 -1.38717 0
M  V30 19969 C 1855.24 -2.71005 -2.17195 0
M  V30 19970 C 1854.2 -3.83583 -1.89864 0
M  V30 19971 C 1853.52 -4.25789 -3.23432 0
M  V30 19972 C 1854.82 -5.08112 -1.20913 0
M  V30 19973 H 1856.52 -2.96445 -0.419631 0
M  V30 19974 H 1854.06 -1.42599 -0.200401 0
M  V30 19975 H 1856.01 -3.1016 -2.8527 0
M  V30 19976 H 1854.74 -1.87146 -2.67664 0
M  V30 19977 H 1853.4 -3.44921 -1.24197 0
M  V30 19978 H 1853.05 -3.38861 -3.71729 0
M  V30 19979 H 1852.75 -5.01673 -3.05938 0
M  V30 19980 H 1854.27 -4.67555 -3.92715 0
M  V30 19981 H 1855.68 -5.44624 -1.79046 0
M  V30 19982 H 1854.08 -5.8923 -1.137 0
M  V30 19983 H 1855.15 -4.84538 -0.187224 0
M  V30 19984 N 1856.49 0.20831 -1.56217 0
M  V30 19985 C 1857.42 1.26115 -1.96513 0
M  V30 19986 C 1858.4 1.48185 -0.835183 0
M  V30 19987 O 1859.59 1.60145 -1.09851 0
M  V30 19988 C 1856.72 2.6082 -2.29326 0
M  V30 19989 C 1855.67 2.53385 -3.44935 0
M  V30 19990 C 1855 3.92241 -3.63388 0
M  V30 19991 C 1856.3 2.07026 -4.79518 0
M  V30 19992 H 1857.99 0.92635 -2.84709 0
M  V30 19993 H 1855.54 0.444169 -1.36979 0
M  V30 19994 H 1857.49 3.34644 -2.56109 0
M  V30 19995 H 1856.22 2.96014 -1.37997 0
M  V30 19996 H 1854.88 1.82018 -3.18222 0
M  V30 19997 H 1854.52 4.24766 -2.69413 0
M  V30 19998 H 1854.22 3.88145 -4.41154 0
M  V30 19999 H 1855.75 4.67707 -3.92533 0
M  V30 20000 H 1857.16 2.70601 -5.05419 0
M  V30 20001 H 1855.56 2.13961 -5.60661 0
M  V30 20002 H 1856.63 1.02298 -4.73986 0
M  V30 20003 N 1857.97 1.50255 0.475528 0
M  V30 20004 C 1858.92 1.68794 1.57408 0
M  V30 20005 C 1859.89 0.529252 1.57442 0
M  V30 20006 O 1861.07 0.759301 1.75041 0
M  V30 20007 C 1858.21 1.78401 2.9541 0
M  V30 20008 C 1857.33 3.05742 3.05198 0
M  V30 20009 C 1856.46 3.06172 4.34088 0
M  V30 20010 C 1855.5 4.27985 4.37602 0
M  V30 20011 N 1854.64 4.26179 5.57957 0
M  V30 20012 H 1859.48 2.62583 1.40905 0
M  V30 20013 H 1857.01 1.30169 0.685152 0
M  V30 20014 H 1858.97 1.81952 3.75432 0
M  V30 20015 H 1857.6 0.880556 3.10558 0
M  V30 20016 H 1856.65 3.11683 2.18077 0
M  V30 20017 H 1857.97 3.95722 3.03654 0
M  V30 20018 H 1857.12 3.08427 5.22454 0
M  V30 20019 H 1855.86 2.14014 4.38234 0
M  V30 20020 H 1854.86 4.25947 3.47634 0
M  V30 20021 H 1856.09 5.21364 4.35151 0
M  V30 20022 H 1854.04 3.36873 5.62897 0
M  V30 20023 H 1853.95 5.09923 5.58135 0
M  V30 20024 H 1855.22 4.32574 6.4846 0
M  V30 20025 N 1859.45 -0.728395 1.39758 0
M  V30 20026 C 1860.38 -1.85554 1.41747 0
M  V30 20027 C 1861.36 -1.6778 0.279972 0
M  V30 20028 O 1862.55 -1.88001 0.48675 0
M  V30 20029 C 1859.68 -3.23375 1.26671 0
M  V30 20030 C 1858.63 -3.55799 2.37889 0
M  V30 20031 C 1857.96 -4.92628 2.07899 0
M  V30 20032 C 1859.26 -3.58098 3.80215 0
M  V30 20033 H 1860.95 -1.84146 2.36073 0
M  V30 20034 H 1858.5 -0.884539 1.13631 0
M  V30 20035 H 1860.45 -4.01907 1.26682 0
M  V30 20036 H 1859.17 -3.25326 0.288159 0
M  V30 20037 H 1857.83 -2.796 2.37107 0
M  V30 20038 H 1857.48 -4.91166 1.08466 0
M  V30 20039 H 1857.18 -5.15288 2.82404 0
M  V30 20040 H 1858.7 -5.73509 2.09571 0
M  V30 20041 H 1860.12 -4.26694 3.82891 0
M  V30 20042 H 1858.51 -3.9228 4.54133 0
M  V30 20043 H 1859.58 -2.57758 4.10718 0
M  V30 20044 N 1860.93 -1.25042 -0.959279 0
M  V30 20045 C 1861.89 -1.05107 -2.03679 0
M  V30 20046 C 1862.89 -0.0054691 -1.60799 0
M  V30 20047 O 1864.08 -0.247225 -1.72437 0
M  V30 20048 C 1861.21 -0.594881 -3.35669 0
M  V30 20049 H 1862.41 -2.00753 -2.22796 0
M  V30 20050 H 1859.96 -1.07384 -1.13571 0
M  V30 20051 H 1860.69 0.364387 -3.22246 0
M  V30 20052 H 1860.48 -1.34966 -3.68139 0
M  V30 20053 H 1861.97 -0.476698 -4.1487 0
M  V30 20054 N 1862.41 1.16121 -1.06553 0
M  V30 20055 C 1863.63 1.91152 -0.804706 0
M  V30 20056 C 1864.06 1.77045 0.635338 0
M  V30 20057 O 1863.41 1.09757 1.44302 0
M  V30 20058 C 1863.46 3.39782 -1.20751 0
M  V30 20059 O 1862.57 4.1093 -0.347889 0
M  V30 20060 H 1861.91 0.595433 -0.293863 0
M  V30 20061 H 1864.44 1.47104 -1.42203 0
M  V30 20062 H 1864.45 3.90558 -1.1802 0
M  V30 20063 H 1863.12 3.49369 -2.25642 0
M  V30 20064 H 1861.7 3.70331 -0.436993 0
M  V30 20065 N 1863.88 0.848487 1.3281 0
M  V30 20066 C 1865.3 0.537529 1.50276 0
M  V30 20067 C 1865.5 -0.93314 1.78591 0
M  V30 20068 O 1864.56 -1.71649 1.85184 0
M  V30 20069 C 1865.87 1.41919 2.65103 0
M  V30 20070 C 1867.42 1.41897 2.78988 0
M  V30 20071 C 1867.89 2.2857 3.96888 0
M  V30 20072 N 1869.38 2.26331 4.04139 0
M  V30 20073 C 1870.12 2.90127 4.94585 0
M  V30 20074 N 1869.61 3.63011 5.9008 0
M  V30 20075 N 1871.41 2.79547 4.87658 0
M  V30 20076 H 1863.56 1.80038 1.12695 0
M  V30 20077 H 1865.82 0.768636 0.554889 0
M  V30 20078 H 1865.53 2.4647 2.50889 0
M  V30 20079 H 1865.4 1.10213 3.60739 0
M  V30 20080 H 1867.79 0.381128 2.92628 0
M  V30 20081 H 1867.87 1.77614 1.84084 0
M  V30 20082 H 1867.51 3.32418 3.84006 0
M  V30 20083 H 1867.44 1.90188 4.91056 0
M  V30 20084 H 1869.93 1.73337 3.35802 0
M  V30 20085 H 1870.25 4.08872 6.55777 0
M  V30 20086 H 1868.59 3.67119 5.90126 0
M  V30 20087 H 1871.78 2.22162 4.12021 0
M  V30 20088 H 1871.96 3.29548 5.57944 0
M  V30 20089 N 1865.36 -1.4549 0.605832 0
M  V30 20090 C 1866.61 -2.03108 0.10891 0
M  V30 20091 C 1866.96 -1.46605 -1.24598 0
M  V30 20092 O 1866.26 -0.630585 -1.80926 0
M  V30 20093 C 1866.45 -3.57399 0.00918576 0
M  V30 20094 C 1866.28 -4.28868 1.35286 0
M  V30 20095 C 1865.05 -4.66861 1.9331 0
M  V30 20096 C 1867.25 -4.60938 2.28124 0
M  V30 20097 N 1865.23 -5.23182 3.21176 0
M  V30 20098 C 1866.6 -5.18073 3.40589 0
M  V30 20099 C 1868.66 -4.42877 2.27518 0
M  V30 20100 C 1867.36 -5.5905 4.5261 0
M  V30 20101 C 1869.38 -4.84885 3.38585 0
M  V30 20102 C 1868.75 -5.42111 4.49772 0
M  V30 20103 H 1864.85 -0.777564 0.0831802 0
M  V30 20104 H 1867.43 -1.77333 0.8038 0
M  V30 20105 H 1865.6 -3.82839 -0.654922 0
M  V30 20106 H 1867.33 -4.01671 -0.494237 0
M  V30 20107 H 1864.09 -4.5036 1.46536 0
M  V30 20108 H 1864.51 -5.55842 3.86482 0
M  V30 20109 H 1869.15 -3.97948 1.42819 0
M  V30 20110 H 1866.87 -6.02945 5.38036 0
M  V30 20111 H 1870.46 -4.72644 3.39262 0
M  V30 20112 H 1869.34 -5.7402 5.34294 0
M  V30 20113 N 1866.84 -0.344893 -1.5378 0
M  V30 20114 C 1868.25 0.138727 -1.86184 0
M  V30 20115 C 1868.6 1.49882 -1.26609 0
M  V30 20116 O 1867.73 2.08478 -0.580174 0
M  V30 20117 C 1868.32 0.258502 -3.37812 0
M  V30 20118 C 1866.88 0.686356 -3.70089 0
M  V30 20119 C 1866.03 -0.179085 -2.76721 0
M  V30 20120 H 1868.98 -0.564442 -1.48323 0
M  V30 20121 H 1869 1.08576 -3.6468 0
M  V30 20122 H 1868.51 -0.731538 -3.81143 0
M  V30 20123 H 1866.61 1.68537 -3.32304 0
M  V30 20124 H 1866.73 0.475315 -4.76736 0
M  V30 20125 H 1865.09 0.348791 -2.523 0
M  V30 20126 H 1865.87 -1.16628 -3.22882 0
M  V30 20127 N 1868.32 1.57428 -0.0735454 0
M  V30 20128 C 1869.57 1.92732 0.594748 0
M  V30 20129 C 1869.88 0.955693 1.70663 0
M  V30 20130 O 1871.09 1.20162 2.43461 0
M  V30 20131 C 1869.54 3.42379 1.10927 0
M  V30 20132 C 1869.15 4.47991 0.0283008 0
M  V30 20133 C 1870.89 3.8668 1.75153 0
M  V30 20134 C 1868.8 5.88771 0.556965 0
M  V30 20135 H 1867.73 0.719355 0.22593 0
M  V30 20136 H 1870.38 1.82918 -0.146063 0
M  V30 20137 H 1868.76 3.47272 1.9031 0
M  V30 20138 H 1869.94 4.54716 -0.74634 0
M  V30 20139 H 1868.25 4.13168 -0.517835 0
M  V30 20140 H 1870.85 4.89244 2.15741 0
M  V30 20141 H 1871.19 3.24144 2.61221 0
M  V30 20142 H 1871.73 3.84397 1.02389 0
M  V30 20143 H 1868.47 6.54958 -0.266602 0
M  V30 20144 H 1867.99 5.85563 1.29909 0
M  V30 20145 H 1869.66 6.38703 1.03281 0
M  V30 20146 N 1869.8 -0.200022 1.56326 0
M  V30 20147 C 1871.02 -0.937503 1.84441 0
M  V30 20148 C 1871.44 -1.77058 0.655428 0
M  V30 20149 O 1870.8 -1.78587 -0.375913 0
M  V30 20150 C 1870.85 -1.83766 3.11307 0
M  V30 20151 O 1870.57 -1.03823 4.2562 0
M  V30 20152 C 1872.07 -2.68724 3.52565 0
M  V30 20153 H 1869.29 -0.273767 0.612611 0
M  V30 20154 H 1871.83 -0.208759 2.03432 0
M  V30 20155 H 1869.99 -2.52009 2.94228 0
M  V30 20156 H 1870.4 -1.6512 4.97831 0
M  V30 20157 H 1871.88 -3.2755 4.44314 0
M  V30 20158 H 1872.35 -3.4219 2.75323 0
M  V30 20159 H 1872.96 -2.0586 3.72158 0
M  V30 20160 N 1871.27 -1.50505 -0.467553 0
M  V30 20161 C 1872.22 -1.66014 -1.5628 0
M  V30 20162 C 1873.21 -0.51467 -1.52447 0
M  V30 20163 O 1874.4 -0.769238 -1.59411 0
M  V30 20164 C 1871.53 -1.76088 -2.947 0
M  V30 20165 C 1870.62 -2.96323 -3.03404 0
M  V30 20166 N 1871.01 -4.19951 -2.81913 0
M  V30 20167 C 1869.3 -2.94954 -3.34542 0
M  V30 20168 C 1870.01 -5.0095 -2.95676 0
M  V30 20169 N 1868.98 -4.34977 -3.26031 0
M  V30 20170 H 1872.78 -2.59289 -1.3837 0
M  V30 20171 H 1870.3 -1.47737 -0.674347 0
M  V30 20172 H 1872.29 -1.85303 -3.73455 0
M  V30 20173 H 1870.95 -0.839734 -3.13654 0
M  V30 20174 H 1871.97 -4.49391 -2.57426 0
M  V30 20175 H 1868.64 -2.12353 -3.59462 0
M  V30 20176 H 1870.03 -6.09268 -2.8327 0
M  V30 20177 N 1872.75 0.720973 -1.40142 0
M  V30 20178 C 1873.68 1.84799 -1.42729 0
M  V30 20179 C 1874.66 1.67629 -0.288866 0
M  V30 20180 O 1875.85 1.8774 -0.496713 0
M  V30 20181 C 1872.98 3.22699 -1.28385 0
M  V30 20182 C 1871.93 3.54532 -2.39773 0
M  V30 20183 C 1871.26 4.91518 -2.10509 0
M  V30 20184 C 1872.56 3.56077 -3.82108 0
M  V30 20185 H 1874.25 1.82892 -2.37046 0
M  V30 20186 H 1871.8 0.8785 -1.14098 0
M  V30 20187 H 1873.75 4.0123 -1.28812 0
M  V30 20188 H 1872.48 3.25169 -0.305408 0
M  V30 20189 H 1871.13 2.78338 -2.38586 0
M  V30 20190 H 1870.78 4.90584 -1.11069 0
M  V30 20191 H 1870.48 5.13783 -2.85132 0
M  V30 20192 H 1872.01 5.72389 -2.1261 0
M  V30 20193 H 1873.42 4.24657 -3.85148 0
M  V30 20194 H 1871.82 3.89866 -4.56207 0
M  V30 20195 H 1872.89 2.55576 -4.12079 0
M  V30 20196 N 1874.23 1.25549 0.952634 0
M  V30 20197 C 1875.18 1.02791 2.03514 0
M  V30 20198 C 1876.16 -0.0358706 1.6086 0
M  V30 20199 O 1877.36 0.179707 1.76085 0
M  V30 20200 C 1874.49 0.650727 3.37076 0
M  V30 20201 C 1873.57 1.75137 3.86248 0
M  V30 20202 N 1873.96 2.98686 4.08192 0
M  V30 20203 C 1872.26 1.63235 4.15055 0
M  V30 20204 C 1872.96 3.70141 4.48743 0
M  V30 20205 N 1871.94 2.97771 4.54789 0
M  V30 20206 H 1875.74 1.96585 2.18476 0
M  V30 20207 H 1873.25 1.15898 1.13761 0
M  V30 20208 H 1875.25 0.468871 4.14255 0
M  V30 20209 H 1873.91 -0.279854 3.23492 0
M  V30 20210 H 1874.92 3.3471 3.95208 0
M  V30 20211 H 1871.6 0.770867 4.10322 0
M  V30 20212 H 1872.99 4.762 4.74008 0
M  V30 20213 N 1875.71 -1.15554 1.07168 0
M  V30 20214 C 1876.94 -1.90182 0.81477 0
M  V30 20215 C 1877.35 -1.77914 -0.631829 0
M  V30 20216 O 1876.71 -1.1298 -1.43324 0
M  V30 20217 C 1876.76 -3.40593 1.21155 0
M  V30 20218 O 1876.48 -3.52504 2.60139 0
M  V30 20219 C 1877.98 -4.32248 0.983675 0
M  V30 20220 H 1875.2 -0.602804 0.294735 0
M  V30 20221 H 1877.75 -1.46419 1.42764 0
M  V30 20222 H 1875.9 -3.82026 0.643041 0
M  V30 20223 H 1876.31 -4.45839 2.76275 0
M  V30 20224 H 1877.79 -5.3621 1.31084 0
M  V30 20225 H 1878.27 -4.39127 -0.0801022 0
M  V30 20226 H 1878.87 -3.96556 1.537 0
M  V30 20227 N 1877.19 -0.855519 -1.32358 0
M  V30 20228 C 1878.46 -0.380575 -1.91862 0
M  V30 20229 C 1878.84 1.13593 -1.77932 0
M  V30 20230 O 1878.19 1.95797 -1.17796 0
M  V30 20231 C 1878.4 -0.845902 -3.38593 0
M  V30 20232 C 1879.75 -0.863586 -4.15725 0
M  V30 20233 O 1880.77 -0.790597 -3.47315 0
M  V30 20234 O 1879.63 -0.966658 -5.37883 0
M  V30 20235 H 1876.73 -0.111156 -0.819496 0
M  V30 20236 H 1879.27 -0.942476 -1.41122 0
M  V30 20237 H 1878.05 -1.88909 -3.42679 0
M  V30 20238 H 1877.67 -0.2615 -3.96739 0
M  V30 20239 N 1878.67 1.45167 -0.61354 0
M  V30 20240 C 1879.61 2.32319 0.114222 0
M  V30 20241 C 1880.61 1.4632 0.853634 0
M  V30 20242 O 1881.81 1.62769 0.768525 0
M  V30 20243 H 1878.19 0.749935 0.0556921 0
M  V30 20244 H 1880.16 2.91474 -0.639175 0
M  V30 20245 C 1878.91 3.30035 1.09417 0
M  V30 20246 H 1878.23 3.96209 0.534632 0
M  V30 20247 H 1879.67 3.93734 1.5732 0
M  V30 20248 C 1878.13 2.57648 2.1707 0
M  V30 20249 O 1878.66 2.36227 3.24899 0
M  V30 20250 N 1876.87 2.17682 1.92517 0
M  V30 20251 H 1876.41 2.35303 1.04834 0
M  V30 20252 H 1876.37 1.69573 2.6475 0
M  V30 20253 N 1880.14 0.353044 1.53595 0
M  V30 20254 C 1881.39 -0.240073 2.00669 0
M  V30 20255 C 1881.71 -1.50303 1.24234 0
M  V30 20256 O 1880.98 -1.92709 0.352118 0
M  V30 20257 H 1879.56 -0.0917016 0.74135 0
M  V30 20258 H 1882.22 0.47639 1.88988 0
M  V30 20259 H 1881.32 -0.475869 3.08451 0
M  V30 20260 N 1881.62 -1.57387 0.0818932 0
M  V30 20261 C 1882.58 -2.12162 -0.86718 0
M  V30 20262 C 1883.58 -1.04788 -1.21967 0
M  V30 20263 O 1884.77 -1.30733 -1.15128 0
M  V30 20264 C 1881.91 -2.63132 -2.16736 0
M  V30 20265 H 1883.1 -2.9733 -0.391788 0
M  V30 20266 H 1880.65 -1.55406 -0.166944 0
M  V30 20267 H 1881.39 -1.81446 -2.6879 0
M  V30 20268 H 1881.17 -3.41625 -1.92445 0
M  V30 20269 H 1882.66 -3.05549 -2.84657 0
M  V30 20270 N 1883.1 0.191729 -1.56429 0
M  V30 20271 C 1884.05 1.25706 -1.95706 0
M  V30 20272 C 1885.04 1.46938 -0.842948 0
M  V30 20273 O 1886.25 1.47759 -1.02797 0
M  V30 20274 H 1882.62 0.422099 -0.622364 0
M  V30 20275 H 1884.59 0.8988 -2.84542 0
M  V30 20276 C 1883.34 2.59366 -2.3157 0
M  V30 20277 H 1882.67 2.43845 -3.16827 0
M  V30 20278 H 1884.11 3.32646 -2.62912 0
M  V30 20279 C 1882.56 3.16609 -1.15155 0
M  V30 20280 O 1883.09 3.9941 -0.428355 0
M  V30 20281 N 1881.3 2.75402 -0.927467 0
M  V30 20282 H 1880.85 2.08172 -1.5173 0
M  V30 20283 H 1880.81 3.1404 -0.150348 0
M  V30 20284 N 1884.58 1.50751 0.459565 0
M  V30 20285 C 1885.82 1.62315 1.21078 0
M  V30 20286 C 1886.15 0.328859 1.917 0
M  V30 20287 O 1885.41 -0.685929 1.83285 0
M  V30 20288 C 1885.71 2.7612 2.26919 0
M  V30 20289 C 1885.37 4.16196 1.73469 0
M  V30 20290 C 1884.03 4.54307 1.58613 0
M  V30 20291 C 1886.39 5.03696 1.33941 0
M  V30 20292 C 1883.71 5.77647 1.0267 0
M  V30 20293 C 1886.07 6.27593 0.794349 0
M  V30 20294 C 1884.73 6.64496 0.632515 0
M  V30 20295 H 1884 0.593954 0.443057 0
M  V30 20296 H 1886.65 1.8472 0.505069 0
M  V30 20297 H 1884.95 2.47849 3.03443 0
M  V30 20298 H 1886.65 2.8227 2.84824 0
M  V30 20299 H 1883.24 3.86136 1.86002 0
M  V30 20300 H 1887.42 4.74875 1.44247 0
M  V30 20301 H 1882.68 6.04904 0.888879 0
M  V30 20302 H 1886.85 6.94748 0.479449 0
M  V30 20303 H 1884.48 7.59945 0.196879 0
M  V30 20304 N 1886.06 -0.713531 1.40522 0
M  V30 20305 C 1887.02 -1.80932 1.40699 0
M  V30 20306 C 1888.02 -1.57968 0.30045 0
M  V30 20307 O 1889.21 -1.64972 0.559456 0
M  V30 20308 C 1886.34 -3.19053 1.20075 0
M  V30 20309 H 1887.53 -1.82174 2.38228 0
M  V30 20310 H 1885.09 -0.919374 1.26401 0
M  V30 20311 H 1885.82 -3.23461 0.233137 0
M  V30 20312 H 1885.61 -3.37121 2.00229 0
M  V30 20313 H 1887.1 -3.99078 1.22991 0
M  V30 20314 N 1887.53 -1.26053 -0.945962 0
M  V30 20315 C 1888.76 -1.14181 -1.7314 0
M  V30 20316 C 1889.18 0.299663 -1.85698 0
M  V30 20317 O 1888.54 1.21711 -1.34373 0
M  V30 20318 C 1888.59 -1.81052 -3.11854 0
M  V30 20319 O 1887.69 -1.09606 -3.97568 0
M  V30 20320 H 1887.03 -0.398138 -0.531397 0
M  V30 20321 H 1889.56 -1.66782 -1.18511 0
M  V30 20322 H 1889.57 -1.87685 -3.62269 0
M  V30 20323 H 1888.25 -2.85921 -3.0203 0
M  V30 20324 H 1886.83 -1.10915 -3.56023 0
M  V30 20325 N 1889.01 1.14984 -1.07779 0
M  V30 20326 C 1889.94 2.19494 -0.659934 0
M  V30 20327 C 1890.96 1.60201 0.289756 0
M  V30 20328 O 1892.15 1.78328 0.0784004 0
M  V30 20329 C 1889.25 3.38862 0.0506161 0
M  V30 20330 C 1888.42 4.27693 -0.916355 0
M  V30 20331 C 1887.48 5.25642 -0.242303 0
M  V30 20332 O 1886.5 5.62282 -0.884715 0
M  V30 20333 N 1887.71 5.7164 1.01033 0
M  V30 20334 H 1890.47 2.5596 -1.55899 0
M  V30 20335 H 1888.03 1.30143 -0.963043 0
M  V30 20336 H 1890.02 4.01444 0.512331 0
M  V30 20337 H 1888.59 3.00775 0.851671 0
M  V30 20338 H 1887.81 3.62145 -1.55708 0
M  V30 20339 H 1889.1 4.83913 -1.57182 0
M  V30 20340 H 1888.5 5.43991 1.55212 0
M  V30 20341 H 1887.06 6.36241 1.41565 0
M  V30 20342 N 1890.49 0.862526 1.31902 0
M  V30 20343 C 1891.4 0.316029 2.32462 0
M  V30 20344 C 1892.42 -0.570217 1.64391 0
M  V30 20345 O 1893.59 -0.46871 1.9587 0
M  V30 20346 C 1890.66 -0.479949 3.43362 0
M  V30 20347 C 1889.72 0.43337 4.27107 0
M  V30 20348 C 1888.95 -0.324714 5.32711 0
M  V30 20349 O 1889.17 -1.55373 5.48831 0
M  V30 20350 O 1888.11 0.313571 6.01083 0
M  V30 20351 H 1891.93 1.14935 2.81111 0
M  V30 20352 H 1889.52 0.625683 1.35667 0
M  V30 20353 H 1891.4 -0.931458 4.10977 0
M  V30 20354 H 1890.08 -1.28994 2.96888 0
M  V30 20355 H 1888.98 0.933222 3.62273 0
M  V30 20356 H 1890.32 1.20876 4.77127 0
M  V30 20357 N 1891.97 -1.4484 0.62123 0
M  V30 20358 C 1893.21 -2.02433 0.121965 0
M  V30 20359 C 1893.55 -1.48679 -1.24932 0
M  V30 20360 O 1892.82 -0.666887 -1.8271 0
M  V30 20361 C 1893.11 -3.59967 0.0978513 0
M  V30 20362 C 1892.96 -4.24025 1.50077 0
M  V30 20363 C 1894.28 -4.36224 -0.582838 0
M  V30 20364 H 1891.4 -0.735576 0.0457947 0
M  V30 20365 H 1894.04 -1.72531 0.795812 0
M  V30 20366 H 1892.19 -3.85573 -0.47597 0
M  V30 20367 H 1893.86 -4.09558 2.12272 0
M  V30 20368 H 1892.1 -3.819 2.05754 0
M  V30 20369 H 1892.77 -5.32994 1.43602 0
M  V30 20370 H 1895.25 -4.15992 -0.0949595 0
M  V30 20371 H 1894.13 -5.45944 -0.568863 0
M  V30 20372 H 1894.39 -4.10098 -1.65142 0
M  V30 20373 N 1893.45 -0.361184 -1.53405 0
M  V30 20374 C 1894.39 0.487369 -2.25596 0
M  V30 20375 C 1895.36 1.08114 -1.26097 0
M  V30 20376 O 1896.55 1.11446 -1.54869 0
M  V30 20377 C 1893.69 1.62342 -3.04531 0
M  V30 20378 C 1892.8 1.05525 -4.18914 0
M  V30 20379 C 1891.94 2.16004 -4.853 0
M  V30 20380 C 1890.98 1.5663 -5.91721 0
M  V30 20381 N 1890.11 2.60923 -6.51816 0
M  V30 20382 H 1894.95 -0.134748 -2.97695 0
M  V30 20383 H 1892.49 -0.0782688 -1.46892 0
M  V30 20384 H 1894.45 2.29252 -3.48568 0
M  V30 20385 H 1893.08 2.21626 -2.34695 0
M  V30 20386 H 1892.13 0.276561 -3.79393 0
M  V30 20387 H 1893.44 0.581111 -4.95403 0
M  V30 20388 H 1892.6 2.90743 -5.32497 0
M  V30 20389 H 1891.33 2.66768 -4.08272 0
M  V30 20390 H 1890.34 0.804031 -5.43889 0
M  V30 20391 H 1891.56 1.06696 -6.70666 0
M  V30 20392 H 1889.51 3.10909 -5.77643 0
M  V30 20393 H 1889.43 2.18184 -7.23831 0
M  V30 20394 H 1890.7 3.35378 -7.03663 0
M  V30 20395 N 1894.92 1.57341 -0.0902386 0
M  V30 20396 C 1895.86 2.09404 0.906927 0
M  V30 20397 C 1896.84 1.00345 1.27944 0
M  V30 20398 O 1898.02 1.2781 1.38553 0
M  V30 20399 C 1895.15 2.567 2.20959 0
M  V30 20400 C 1894.19 3.77371 1.98729 0
M  V30 20401 S 1895.03 5.21189 1.22974 0
M  V30 20402 C 1896.18 5.71831 2.5448 0
M  V30 20403 H 1896.41 2.93657 0.463996 0
M  V30 20404 H 1893.95 1.5391 0.122943 0
M  V30 20405 H 1895.91 2.84608 2.95819 0
M  V30 20406 H 1894.57 1.72682 2.62373 0
M  V30 20407 H 1893.76 4.08516 2.95179 0
M  V30 20408 H 1893.36 3.49932 1.31999 0
M  V30 20409 H 1895.65 5.79801 3.50481 0
M  V30 20410 H 1896.6 6.70416 2.27921 0
M  V30 20411 H 1897 4.99738 2.6253 0
M  V30 20412 N 1896.4 -0.183431 1.56529 0
M  V30 20413 C 1897.65 -0.903332 1.8157 0
M  V30 20414 C 1897.98 -1.82417 0.666167 0
M  V30 20415 O 1897.26 -1.91635 -0.332621 0
M  V30 20416 C 1897.54 -1.70949 3.16936 0
M  V30 20417 C 1897.39 -0.812595 4.42399 0
M  V30 20418 C 1898.71 -2.6797 3.49113 0
M  V30 20419 H 1895.83 -0.326961 0.660504 0
M  V30 20420 H 1898.47 -0.170115 1.89237 0
M  V30 20421 H 1896.62 -2.33458 3.10531 0
M  V30 20422 H 1898.29 -0.201313 4.60861 0
M  V30 20423 H 1896.54 -0.119949 4.33634 0
M  V30 20424 H 1897.21 -1.4119 5.33638 0
M  V30 20425 H 1899.68 -2.15591 3.55893 0
M  V30 20426 H 1898.56 -3.21451 4.44927 0
M  V30 20427 H 1898.82 -3.47584 2.73199 0
M  V30 20428 N 1897.88 -1.50992 -0.451564 0
M  V30 20429 C 1898.84 -1.70703 -1.52949 0
M  V30 20430 C 1899.84 -0.577275 -1.50081 0
M  V30 20431 O 1901.03 -0.844619 -1.52354 0
M  V30 20432 C 1898.17 -1.75035 -2.92533 0
M  V30 20433 H 1899.36 -2.66891 -1.36782 0
M  V30 20434 H 1896.91 -1.40767 -0.679285 0
M  V30 20435 H 1897.65 -0.806096 -3.14122 0
M  V30 20436 H 1897.43 -2.57126 -2.96021 0
M  V30 20437 H 1898.92 -1.92171 -3.70756 0
M  V30 20438 N 1899.36 0.706069 -1.40899 0
M  V30 20439 C 1900.6 1.46693 -1.40899 0
M  V30 20440 C 1900.96 1.92395 -0.0139578 0
M  V30 20441 O 1900.25 1.65916 0.958243 0
M  V30 20442 C 1900.45 2.70045 -2.34116 0
M  V30 20443 C 1900.28 2.36409 -3.82545 0
M  V30 20444 C 1899.05 2.27284 -4.51298 0
M  V30 20445 C 1901.24 2.00061 -4.73793 0
M  V30 20446 N 1899.23 1.86423 -5.8491 0
M  V30 20447 C 1900.6 1.69875 -5.96274 0
M  V30 20448 C 1902.65 1.86779 -4.61539 0
M  V30 20449 C 1901.35 1.27744 -7.07866 0
M  V30 20450 C 1903.38 1.46052 -5.73082 0
M  V30 20451 C 1902.74 1.1677 -6.94654 0
M  V30 20452 H 1898.84 0.534494 -0.570824 0
M  V30 20453 H 1901.43 0.81791 -1.76687 0
M  V30 20454 H 1899.6 3.32683 -2.00441 0
M  V30 20455 H 1901.33 3.36449 -2.24909 0
M  V30 20456 H 1898.08 2.45337 -4.05101 0
M  V30 20457 H 1898.51 1.68504 -6.55695 0
M  V30 20458 H 1903.15 2.08075 -3.68055 0
M  V30 20459 H 1900.87 1.05191 -8.01224 0
M  V30 20460 H 1904.45 1.3634 -5.65599 0
M  V30 20461 H 1903.33 0.857309 -7.795 0
M  V30 20462 N 1900.84 1.26553 0.939264 0
M  V30 20463 C 1902.08 1.13385 1.68865 0
M  V30 20464 C 1902.44 -0.319227 1.89733 0
M  V30 20465 O 1901.73 -1.23093 1.46829 0
M  V30 20466 C 1901.92 1.83848 3.06488 0
M  V30 20467 C 1901.75 3.35858 2.99048 0
M  V30 20468 C 1900.52 4.05152 3.0196 0
M  V30 20469 C 1902.72 4.3202 2.7904 0
M  V30 20470 N 1900.7 5.4382 2.84839 0
M  V30 20471 C 1902.07 5.57876 2.70508 0
M  V30 20472 C 1904.13 4.22248 2.63838 0
M  V30 20473 C 1902.83 6.75076 2.48325 0
M  V30 20474 C 1904.86 5.39157 2.4303 0
M  V30 20475 C 1904.22 6.63962 2.35231 0
M  V30 20476 H 1900.32 0.469707 0.62522 0
M  V30 20477 H 1902.9 1.59865 1.11136 0
M  V30 20478 H 1901.07 1.3984 3.62353 0
M  V30 20479 H 1902.81 1.63286 3.70297 0
M  V30 20480 H 1899.56 3.56528 3.11745 0
M  V30 20481 H 1899.99 6.16638 2.7944 0
M  V30 20482 H 1904.63 3.2649 2.68634 0
M  V30 20483 H 1902.35 7.70929 2.4227 0
M  V30 20484 H 1905.93 5.33468 2.3217 0
M  V30 20485 H 1904.81 7.529 2.19344 0
M  V30 20486 N 1902.31 -1.14411 1.08387 0
M  V30 20487 C 1903.28 -2.17682 0.717433 0
M  V30 20488 C 1904.28 -1.58881 -0.24766 0
M  V30 20489 O 1905.47 -1.74179 -0.027231 0
M  V30 20490 C 1902.6 -3.40849 0.0592022 0
M  V30 20491 H 1903.79 -2.51614 1.63188 0
M  V30 20492 H 1901.35 -1.29056 0.88172 0
M  V30 20493 H 1902.08 -3.12496 -0.866987 0
M  V30 20494 H 1901.87 -3.84792 0.753477 0
M  V30 20495 H 1903.36 -4.17203 -0.182152 0
M  V30 20496 N 1903.79 -0.869509 -1.31443 0
M  V30 20497 C 1905.04 -0.479265 -1.96335 0
M  V30 20498 C 1905.36 0.971583 -1.69072 0
M  V30 20499 O 1904.63 1.68104 -1.00588 0
M  V30 20500 H 1903.21 -0.174241 -0.726394 0
M  V30 20501 H 1905.87 -1.1092 -1.60259 0
M  V30 20502 H 1904.97 -0.636628 -3.05538 0
M  V30 20503 N 1905.27 1.44508 -0.628902 0
M  V30 20504 C 1906.52 2.01281 -0.129966 0
M  V30 20505 C 1906.83 1.50041 1.25488 0
M  V30 20506 O 1908.04 1.98927 1.84771 0
M  V30 20507 C 1906.49 3.59442 -0.1816 0
M  V30 20508 C 1906.1 4.19678 -1.56762 0
M  V30 20509 C 1907.85 4.23697 0.260988 0
M  V30 20510 C 1905.75 5.70056 -1.57449 0
M  V30 20511 H 1904.68 0.752667 -0.0448215 0
M  V30 20512 H 1907.33 1.65749 -0.787372 0
M  V30 20513 H 1905.72 3.92261 0.542864 0
M  V30 20514 H 1906.89 3.98399 -2.31549 0
M  V30 20515 H 1905.21 3.67701 -1.9541 0
M  V30 20516 H 1907.8 5.33991 0.275356 0
M  V30 20517 H 1908.15 3.95878 1.28787 0
M  V30 20518 H 1908.68 3.95672 -0.410909 0
M  V30 20519 H 1905.42 6.02606 -2.57966 0
M  V30 20520 H 1904.94 5.93464 -0.869514 0
M  V30 20521 H 1906.62 6.33652 -1.30745 0
M  V30 20522 N 1906.75 0.369315 1.53212 0
M  V30 20523 C 1907.66 -0.483226 2.29569 0
M  V30 20524 C 1908.68 -1.08931 1.35684 0
M  V30 20525 O 1909.85 -1.09944 1.68743 0
M  V30 20526 C 1906.92 -1.60549 3.07286 0
M  V30 20527 C 1905.98 -1.02656 4.16846 0
M  V30 20528 C 1905.21 -2.09534 4.90847 0
M  V30 20529 O 1905.43 -3.30709 4.64745 0
M  V30 20530 O 1904.37 -1.72382 5.76687 0
M  V30 20531 H 1908.19 0.138246 3.03385 0
M  V30 20532 H 1905.78 0.133589 1.48802 0
M  V30 20533 H 1907.66 -2.25789 3.55805 0
M  V30 20534 H 1906.34 -2.21229 2.36303 0
M  V30 20535 H 1905.24 -0.337963 3.7257 0
M  V30 20536 H 1906.58 -0.464259 4.90006 0
M  V30 20537 N 1908.23 -1.57291 0.0985816 0
M  V30 20538 C 1909.18 -2.10757 -0.869797 0
M  V30 20539 C 1910.16 -1.02343 -1.24156 0
M  V30 20540 O 1911.35 -1.28612 -1.21606 0
M  V30 20541 C 1908.48 -2.69425 -2.12756 0
M  V30 20542 C 1907.57 -3.84888 -1.78107 0
M  V30 20543 N 1907.96 -4.92778 -1.14034 0
M  V30 20544 C 1906.26 -3.94688 -2.07695 0
M  V30 20545 C 1906.96 -5.73373 -0.980736 0
M  V30 20546 N 1905.93 -5.22519 -1.49917 0
M  V30 20547 H 1909.74 -2.91555 -0.370523 0
M  V30 20548 H 1907.25 -1.62063 -0.104525 0
M  V30 20549 H 1909.25 -3.0606 -2.83077 0
M  V30 20550 H 1907.91 -1.90083 -2.63246 0
M  V30 20551 H 1908.92 -5.11578 -0.806735 0
M  V30 20552 H 1905.6 -3.2636 -2.60375 0
M  V30 20553 H 1906.99 -6.70188 -0.479379 0
M  V30 20554 N 1909.71 0.175127 -1.56624 0
M  V30 20555 C 1910.93 0.908041 -1.85909 0
M  V30 20556 C 1911.35 1.75993 -0.683514 0
M  V30 20557 O 1910.71 1.79162 0.347453 0
M  V30 20558 C 1910.76 1.78791 -3.14191 0
M  V30 20559 O 1910.48 0.970386 -4.27218 0
M  V30 20560 C 1911.98 2.63081 -3.56796 0
M  V30 20561 H 1909.2 0.263986 -0.616889 0
M  V30 20562 H 1911.74 0.176369 -2.03738 0
M  V30 20563 H 1909.9 2.47296 -2.982 0
M  V30 20564 H 1910.31 1.57179 -5.00395 0
M  V30 20565 H 1911.79 3.2044 -4.49469 0
M  V30 20566 H 1912.26 3.37766 -2.80732 0
M  V30 20567 H 1912.87 1.99914 -3.75386 0
M  V30 20568 N 1911.18 1.5123 0.44355 0
M  V30 20569 C 1912.43 1.6359 1.1935 0
M  V30 20570 C 1912.76 0.349172 1.9134 0
M  V30 20571 O 1912.01 -0.66645 1.84003 0
M  V30 20572 C 1912.31 2.78511 2.23978 0
M  V30 20573 C 1911.98 4.18013 1.69045 0
M  V30 20574 C 1910.64 4.55964 1.53786 0
M  V30 20575 C 1912.99 5.05088 1.28591 0
M  V30 20576 C 1910.32 5.78703 0.965374 0
M  V30 20577 C 1912.67 6.284 0.72774 0
M  V30 20578 C 1911.34 6.6513 0.562001 0
M  V30 20579 H 1910.61 0.59862 0.436733 0
M  V30 20580 H 1913.25 1.85245 0.485449 0
M  V30 20581 H 1911.56 2.51054 3.00798 0
M  V30 20582 H 1913.26 2.85275 2.81814 0
M  V30 20583 H 1909.85 3.88087 1.81896 0
M  V30 20584 H 1914.03 4.76378 1.39202 0
M  V30 20585 H 1909.29 6.05813 0.824671 0
M  V30 20586 H 1913.46 6.95217 0.405735 0
M  V30 20587 H 1911.09 7.60111 0.116266 0
M  V30 20588 N 1912.66 -0.698586 1.41271 0
M  V30 20589 C 1913.91 -1.45573 1.40189 0
M  V30 20590 C 1914.23 -1.94997 0.0108379 0
M  V30 20591 O 1913.5 -1.715 -0.946822 0
M  V30 20592 H 1912.08 -0.540134 0.516008 0
M  V30 20593 H 1914.74 -0.827048 1.76482 0
M  V30 20594 H 1913.84 -2.32036 2.08724 0
M  V30 20595 N 1914.14 -1.27049 -0.93254 0
M  V30 20596 C 1915.39 -1.1327 -1.68219 0
M  V30 20597 C 1915.72 0.321632 -1.91518 0
M  V30 20598 O 1914.99 1.23564 -1.50207 0
M  V30 20599 C 1915.28 -1.91162 -3.0517 0
M  V30 20600 C 1915.13 -3.44552 -2.89143 0
M  V30 20601 C 1916.45 -1.71227 -4.05425 0
M  V30 20602 H 1913.57 -0.412859 -0.610505 0
M  V30 20603 H 1916.21 -1.56148 -1.08249 0
M  V30 20604 H 1914.36 -1.54722 -3.56361 0
M  V30 20605 H 1916.03 -3.90794 -2.45107 0
M  V30 20606 H 1914.27 -3.71138 -2.24586 0
M  V30 20607 H 1914.95 -3.9429 -3.86315 0
M  V30 20608 H 1917.42 -2.0299 -3.63227 0
M  V30 20609 H 1916.3 -2.28129 -4.99248 0
M  V30 20610 H 1916.56 -0.65898 -4.37161 0
M  V30 20611 N 1915.62 1.13835 -1.08993 0
M  V30 20612 C 1917.03 1.66568 -0.843325 0
M  V30 20613 C 1917.38 1.85846 0.628955 0
M  V30 20614 O 1916.5 1.57401 1.48506 0
M  V30 20615 C 1917.1 3.02573 -1.52431 0
M  V30 20616 C 1915.66 3.52315 -1.3248 0
M  V30 20617 C 1914.81 2.27658 -1.58326 0
M  V30 20618 H 1917.76 0.978181 -1.24969 0
M  V30 20619 H 1917.78 3.68323 -0.954898 0
M  V30 20620 H 1917.29 2.8851 -2.59584 0
M  V30 20621 H 1915.39 3.71589 -0.274248 0
M  V30 20622 H 1915.5 4.32715 -2.05657 0
M  V30 20623 H 1913.87 2.34028 -1.00514 0
M  V30 20624 H 1914.65 2.16165 -2.66698 0
M  V30 20625 N 1917.1 0.876467 1.3098 0
M  V30 20626 C 1918.33 0.504582 2.00344 0
M  V30 20627 C 1918.73 -0.909186 1.65923 0
M  V30 20628 O 1918.08 -1.60812 0.887988 0
M  V30 20629 C 1918.14 0.589519 3.54634 0
M  V30 20630 C 1917.8 1.96607 4.12547 0
M  V30 20631 C 1918.8 2.9344 4.29172 0
M  V30 20632 C 1916.48 2.26914 4.48124 0
M  V30 20633 C 1918.48 4.18721 4.80574 0
M  V30 20634 C 1916.17 3.52443 4.99227 0
M  V30 20635 C 1917.16 4.48161 5.15403 0
M  V30 20636 O 1916.85 5.71464 5.65406 0
M  V30 20637 H 1916.58 0.194422 0.647438 0
M  V30 20638 H 1919.14 1.18126 1.68034 0
M  V30 20639 H 1917.37 -0.144102 3.86431 0
M  V30 20640 H 1919.06 0.230131 4.05247 0
M  V30 20641 H 1919.82 2.71335 4.01998 0
M  V30 20642 H 1915.7 1.53184 4.34805 0
M  V30 20643 H 1919.25 4.9344 4.93115 0
M  V30 20644 H 1915.14 3.74389 5.25836 0
M  V30 20645 H 1915.91 5.73727 5.83764 0
M  V30 20646 N 1918.57 -1.44173 0.636557 0
M  V30 20647 C 1919.52 -2.32472 -0.077248 0
M  V30 20648 C 1920.52 -1.47659 -0.830248 0
M  V30 20649 O 1921.72 -1.63971 -0.742533 0
M  V30 20650 H 1918.1 -0.750726 -0.0437543 0
M  V30 20651 H 1920.07 -2.9042 0.685465 0
M  V30 20652 C 1918.82 -3.31734 -1.04152 0
M  V30 20653 H 1918.14 -3.9701 -0.471531 0
M  V30 20654 H 1919.58 -3.96187 -1.51036 0
M  V30 20655 C 1918.04 -2.61069 -2.12943 0
M  V30 20656 O 1918.57 -2.41366 -3.211 0
M  V30 20657 N 1916.77 -2.20717 -1.8903 0
M  V30 20658 H 1916.32 -2.36941 -1.01077 0
M  V30 20659 H 1916.28 -1.73763 -2.62018 0
M  V30 20660 N 1920.05 -0.377435 -1.53014 0
M  V30 20661 C 1921.46 0.0992038 -1.86436 0
M  V30 20662 C 1921.81 1.47163 -1.2976 0
M  V30 20663 O 1920.94 2.072 -0.624264 0
M  V30 20664 C 1921.53 0.186789 -3.38285 0
M  V30 20665 C 1920.09 0.6077 -3.71462 0
M  V30 20666 C 1919.24 -0.237741 -2.76279 0
M  V30 20667 H 1922.19 -0.595776 -1.47092 0
M  V30 20668 H 1922.21 1.00817 -3.66901 0
M  V30 20669 H 1921.72 -0.812219 -3.79506 0
M  V30 20670 H 1919.82 1.61451 -3.35804 0
M  V30 20671 H 1919.94 0.374085 -4.77637 0
M  V30 20672 H 1918.3 0.295196 -2.52984 0
M  V30 20673 H 1919.08 -1.23451 -3.20335 0
M  V30 20674 N 1921.53 1.57237 -0.106922 0
M  V30 20675 C 1922.46 2.11718 0.877968 0
M  V30 20676 C 1923.48 1.0571 1.23812 0
M  V30 20677 O 1924.66 1.3312 1.18917 0
M  V30 20678 C 1921.76 2.59182 2.18352 0
M  V30 20679 C 1920.94 3.89156 1.99691 0
M  V30 20680 C 1920 4.22344 3.13866 0
M  V30 20681 O 1919.02 4.91367 2.87309 0
M  V30 20682 N 1920.22 3.78694 4.39967 0
M  V30 20683 H 1922.99 2.96846 0.412584 0
M  V30 20684 H 1920.55 1.61713 0.0778505 0
M  V30 20685 H 1922.54 2.78423 2.93706 0
M  V30 20686 H 1921.11 1.78999 2.56277 0
M  V30 20687 H 1920.33 3.78945 1.086 0
M  V30 20688 H 1921.62 4.74165 1.84514 0
M  V30 20689 H 1921.02 3.23 4.64422 0
M  V30 20690 H 1919.58 4.03067 5.12231 0
M  V30 20691 N 1923.01 -0.166818 1.56715 0
M  V30 20692 C 1924.23 -0.902208 1.86748 0
M  V30 20693 C 1924.66 -1.74838 0.693767 0
M  V30 20694 O 1924.02 -1.77749 -0.35708 0
M  V30 20695 C 1924.06 -1.75107 3.1523 0
M  V30 20696 O 1923.17 -2.85319 2.9777 0
M  V30 20697 H 1922.51 -0.252474 0.614128 0
M  V30 20698 H 1925.04 -0.163603 2.03945 0
M  V30 20699 H 1925.05 -2.15009 3.46749 0
M  V30 20700 H 1923.72 -1.12955 4.00267 0
M  V30 20701 H 1922.3 -2.48967 2.77615 0
M  V30 20702 N 1924.49 -1.51463 -0.435524 0
M  V30 20703 C 1925.42 -1.69104 -1.54715 0
M  V30 20704 C 1926.43 -0.571681 -1.52432 0
M  V30 20705 O 1927.62 -0.846054 -1.57176 0
M  V30 20706 C 1924.72 -1.69217 -2.9363 0
M  V30 20707 C 1923.89 -2.97766 -3.20397 0
M  V30 20708 C 1922.95 -2.90043 -4.39046 0
M  V30 20709 O 1921.98 -3.63985 -4.37611 0
M  V30 20710 N 1923.18 -2.06018 -5.42712 0
M  V30 20711 H 1925.95 -2.64998 -1.39985 0
M  V30 20712 H 1923.51 -1.49371 -0.624486 0
M  V30 20713 H 1925.5 -1.61616 -3.71029 0
M  V30 20714 H 1924.07 -0.809085 -3.01948 0
M  V30 20715 H 1923.29 -3.19222 -2.31282 0
M  V30 20716 H 1924.58 -3.82857 -3.35109 0
M  V30 20717 H 1923.97 -1.45324 -5.46715 0
M  V30 20718 H 1922.53 -2.04295 -6.18956 0
M  V30 20719 N 1925.96 0.691085 -1.4164 0
M  V30 20720 C 1927.21 1.44828 -1.40959 0
M  V30 20721 C 1927.53 1.94988 -0.0211789 0
M  V30 20722 O 1926.8 1.71999 0.937714 0
M  V30 20723 H 1925.38 0.53739 -0.518865 0
M  V30 20724 H 1928.05 0.817677 -1.76918 0
M  V30 20725 H 1927.14 2.30926 -2.09952 0
M  V30 20726 N 1927.44 1.27542 0.925789 0
M  V30 20727 C 1928.69 1.14161 1.67616 0
M  V30 20728 C 1929.02 -0.311471 1.91686 0
M  V30 20729 O 1928.3 -1.22766 1.5086 0
M  V30 20730 C 1928.58 1.92778 3.04152 0
M  V30 20731 C 1928.43 3.46081 2.87312 0
M  V30 20732 C 1929.75 1.73374 4.04511 0
M  V30 20733 H 1926.87 0.416091 0.608307 0
M  V30 20734 H 1929.51 1.56719 1.0742 0
M  V30 20735 H 1927.66 1.5661 3.55536 0
M  V30 20736 H 1929.33 3.92089 2.43031 0
M  V30 20737 H 1927.58 3.72324 2.22615 0
M  V30 20738 H 1928.25 3.96333 3.84219 0
M  V30 20739 H 1930.72 2.04914 3.62146 0
M  V30 20740 H 1929.6 2.30773 4.98031 0
M  V30 20741 H 1929.86 0.682154 4.36806 0
M  V30 20742 N 1928.92 -1.13255 1.09595 0
M  V30 20743 C 1930.17 -1.84844 0.83429 0
M  V30 20744 C 1930.5 -1.83403 -0.638518 0
M  V30 20745 O 1929.77 -1.27337 -1.47022 0
M  V30 20746 C 1930.06 -3.32926 1.3723 0
M  V30 20747 C 1929.91 -3.42872 2.91134 0
M  V30 20748 C 1931.23 -4.28413 1.0075 0
M  V30 20749 H 1928.35 -0.671139 0.304534 0
M  V30 20750 H 1930.99 -1.32922 1.35764 0
M  V30 20751 H 1929.14 -3.77275 0.927149 0
M  V30 20752 H 1930.81 -3.07222 3.44111 0
M  V30 20753 H 1929.06 -2.83693 3.28178 0
M  V30 20754 H 1929.73 -4.47013 3.23857 0
M  V30 20755 H 1932.2 -3.92145 1.39146 0
M  V30 20756 H 1931.08 -5.30455 1.41098 0
M  V30 20757 H 1931.34 -4.4202 -0.0841095 0
M  V30 20758 N 1930.4 -0.883401 -1.30514 0
M  V30 20759 C 1931.31 -0.352971 -2.31929 0
M  V30 20760 C 1932.32 0.543992 -1.65278 0
M  V30 20761 O 1933.5 0.437489 -1.96591 0
M  V30 20762 C 1930.57 0.425263 -3.44082 0
M  V30 20763 C 1929.63 -0.501265 -4.26363 0
M  V30 20764 C 1928.86 0.239923 -5.3316 0
M  V30 20765 O 1929.08 1.46622 -5.51233 0
M  V30 20766 O 1928.02 -0.409158 -6.00508 0
M  V30 20767 H 1931.84 -1.19393 -2.79247 0
M  V30 20768 H 1929.43 -0.647187 -1.34655 0
M  V30 20769 H 1931.31 0.865957 -4.12407 0
M  V30 20770 H 1929.98 1.24255 -2.98902 0
M  V30 20771 H 1928.89 -0.990738 -3.60743 0
M  V30 20772 H 1930.22 -1.28451 -4.75143 0
M  V30 20773 N 1931.88 1.43833 -0.644194 0
M  V30 20774 C 1932.84 2.29159 0.0433471 0
M  V30 20775 C 1933.84 1.41734 0.75948 0
M  V30 20776 O 1935.03 1.63464 0.602093 0
M  V30 20777 C 1932.16 3.23604 1.07208 0
M  V30 20778 H 1933.35 2.9144 -0.707295 0
M  V30 20779 H 1930.91 1.50963 -0.404968 0
M  V30 20780 H 1931.64 2.66199 1.85226 0
M  V30 20781 H 1931.43 3.88047 0.562339 0
M  V30 20782 H 1932.92 3.87669 1.55251 0
M  V30 20783 N 1933.35 0.385544 1.52811 0
M  V30 20784 C 1934.29 -0.495455 2.22757 0
M  V30 20785 C 1935.27 -1.06709 1.22687 0
M  V30 20786 O 1936.45 -1.11944 1.5166 0
M  V30 20787 C 1933.58 -1.68545 2.93786 0
M  V30 20788 C 1932.62 -1.23942 4.08094 0
M  V30 20789 S 1933.46 -0.22408 5.35031 0
M  V30 20790 C 1934.61 -1.41995 6.0958 0
M  V30 20791 H 1934.84 0.0985156 2.97137 0
M  V30 20792 H 1932.38 0.169717 1.53464 0
M  V30 20793 H 1934.34 -2.36794 3.35319 0
M  V30 20794 H 1933 -2.25071 2.19093 0
M  V30 20795 H 1932.19 -2.12783 4.5688 0
M  V30 20796 H 1931.79 -0.635901 3.68554 0
M  V30 20797 H 1934.08 -2.34766 6.35524 0
M  V30 20798 H 1935.03 -0.973078 7.01382 0
M  V30 20799 H 1935.43 -1.63505 5.40302 0
M  V30 20800 N 1934.83 -1.57178 0.115259 0
M  V30 20801 C 1935.78 -2.16368 -0.853683 0
M  V30 20802 C 1936.77 -1.11189 -1.27802 0
M  V30 20803 O 1937.98 -1.29499 -1.2502 0
M  V30 20804 H 1934.36 -0.692403 -0.293397 0
M  V30 20805 H 1936.33 -2.9657 -0.329954 0
M  V30 20806 C 1935.08 -2.7747 -2.09537 0
M  V30 20807 H 1934.4 -3.581 -1.77777 0
M  V30 20808 H 1935.84 -3.22428 -2.75347 0
M  V30 20809 C 1934.3 -1.74366 -2.88268 0
M  V30 20810 O 1934.83 -1.19476 -3.83521 0
M  V30 20811 N 1933.03 -1.44392 -2.52189 0
M  V30 20812 H 1932.58 -1.89219 -1.74797 0
M  V30 20813 H 1932.54 -0.756482 -3.05163 0
M  V30 20814 N 1936.31 0.158505 -1.56801 0
M  V30 20815 C 1937.26 1.20094 -1.93808 0
M  V30 20816 C 1938.25 1.39146 -0.807916 0
M  V30 20817 O 1939.44 1.40901 -1.07125 0
M  V30 20818 C 1936.57 2.53736 -2.31243 0
M  V30 20819 C 1935.65 2.38324 -3.50803 0
M  V30 20820 N 1936.04 1.92648 -4.67676 0
M  V30 20821 C 1934.34 2.69112 -3.55661 0
M  V30 20822 C 1935.04 1.90005 -5.49793 0
M  V30 20823 N 1934.02 2.3289 -4.91186 0
M  V30 20824 H 1937.82 0.839694 -2.81649 0
M  V30 20825 H 1935.33 0.366668 -1.58207 0
M  V30 20826 H 1937.33 3.29079 -2.55955 0
M  V30 20827 H 1935.99 2.90652 -1.44747 0
M  V30 20828 H 1937 1.62788 -4.91651 0
M  V30 20829 H 1933.68 3.0998 -2.79676 0
M  V30 20830 H 1935.07 1.5628 -6.53472 0
M  V30 20831 N 1937.79 1.51692 0.427485 0
M  V30 20832 C 1938.74 1.70099 1.51823 0
M  V30 20833 C 1939.72 0.554908 1.51028 0
M  V30 20834 O 1940.92 0.811233 1.57315 0
M  V30 20835 C 1938.04 1.8384 2.89927 0
M  V30 20836 C 1937.13 3.04263 2.9544 0
M  V30 20837 N 1937.52 4.27277 2.7068 0
M  V30 20838 C 1935.82 3.0372 3.26604 0
M  V30 20839 C 1936.52 5.08613 2.8229 0
M  V30 20840 N 1935.5 4.43468 3.14384 0
M  V30 20841 H 1939.3 2.62867 1.31447 0
M  V30 20842 H 1936.81 1.49473 0.63494 0
M  V30 20843 H 1938.81 1.95139 3.6841 0
M  V30 20844 H 1937.47 0.922599 3.11317 0
M  V30 20845 H 1938.48 4.56058 2.45421 0
M  V30 20846 H 1935.16 2.21808 3.53705 0
M  V30 20847 H 1936.55 6.16564 2.67017 0
M  V30 20848 N 1939.27 -0.683564 1.42004 0
M  V30 20849 C 1940.2 -1.8095 1.47578 0
M  V30 20850 C 1941.18 -1.66804 0.333208 0
M  V30 20851 O 1942.36 -1.86357 0.546314 0
M  V30 20852 C 1939.49 -3.19182 1.36895 0
M  V30 20853 C 1938.45 -3.4805 2.49089 0
M  V30 20854 C 1937.77 -4.85764 2.23467 0
M  V30 20855 C 1939.07 -3.4582 3.91415 0
M  V30 20856 H 1940.77 -1.76543 2.41812 0
M  V30 20857 H 1938.31 -0.84794 1.16387 0
M  V30 20858 H 1940.27 -3.97674 1.39404 0
M  V30 20859 H 1938.99 -3.24245 0.391513 0
M  V30 20860 H 1937.65 -2.71915 2.45882 0
M  V30 20861 H 1937.3 -4.87467 1.24037 0
M  V30 20862 H 1937 -5.06043 2.98654 0
M  V30 20863 H 1938.52 -5.66551 2.27711 0
M  V30 20864 H 1939.94 -4.14297 3.96272 0
M  V30 20865 H 1938.33 -3.77633 4.66383 0
M  V30 20866 H 1939.4 -2.4456 4.1871 0
M  V30 20867 N 1940.75 -1.28031 -0.919012 0
M  V30 20868 C 1941.69 -1.11505 -2.02077 0
M  V30 20869 C 1942.66 -0.0136546 -1.66094 0
M  V30 20870 O 1943.85 -0.177608 -1.89972 0
M  V30 20871 C 1940.99 -0.777409 -3.3623 0
M  V30 20872 C 1940.1 -1.95732 -3.85114 0
M  V30 20873 C 1939.24 -1.56077 -5.07753 0
M  V30 20874 C 1938.27 -2.70764 -5.48956 0
M  V30 20875 N 1937.41 -2.31638 -6.62788 0
M  V30 20876 H 1942.25 -2.05778 -2.15545 0
M  V30 20877 H 1939.79 -1.02425 -1.05582 0
M  V30 20878 H 1941.75 -0.562424 -4.13392 0
M  V30 20879 H 1940.38 0.128373 -3.22545 0
M  V30 20880 H 1939.43 -2.28459 -3.04156 0
M  V30 20881 H 1940.74 -2.81735 -4.11615 0
M  V30 20882 H 1939.89 -1.30754 -5.92443 0
M  V30 20883 H 1938.63 -0.671958 -4.83049 0
M  V30 20884 H 1937.64 -2.96792 -4.62812 0
M  V30 20885 H 1938.86 -3.6028 -5.75652 0
M  V30 20886 H 1936.81 -1.4522 -6.39724 0
M  V30 20887 H 1936.73 -3.11178 -6.88988 0
M  V30 20888 H 1937.99 -2.09585 -7.50796 0
M  V30 20889 N 1942.22 1.12672 -1.10194 0
M  V30 20890 C 1943.17 2.20403 -0.743323 0
M  V30 20891 C 1944.17 1.67402 0.259382 0
M  V30 20892 O 1945.37 1.79599 0.120012 0
M  V30 20893 H 1941.75 0.718351 -0.22243 0
M  V30 20894 H 1943.72 2.47907 -1.66087 0
M  V30 20895 C 1942.47 3.47188 -0.188629 0
M  V30 20896 H 1941.79 3.88315 -0.951411 0
M  V30 20897 H 1943.23 4.23993 0.0242649 0
M  V30 20898 C 1941.69 3.19186 1.07806 0
M  V30 20899 O 1942.22 3.38684 2.16 0
M  V30 20900 N 1940.42 2.73009 0.995705 0
M  V30 20901 H 1939.97 2.57342 0.115168 0
M  V30 20902 H 1939.93 2.54649 1.84394 0
M  V30 20903 N 1943.7 0.89031 1.30043 0
M  V30 20904 C 1944.63 0.31832 2.26979 0
M  V30 20905 C 1945.65 -0.530108 1.53928 0
M  V30 20906 O 1946.84 -0.348791 1.75059 0
M  V30 20907 C 1943.94 -0.565563 3.34148 0
M  V30 20908 C 1943.11 0.255006 4.36656 0
M  V30 20909 C 1942.17 -0.560216 5.23209 0
M  V30 20910 O 1941.19 0.0189739 5.69197 0
M  V30 20911 N 1942.4 -1.86825 5.49615 0
M  V30 20912 H 1945.16 1.15143 2.76699 0
M  V30 20913 H 1942.72 0.753836 1.43279 0
M  V30 20914 H 1944.71 -1.11711 3.88976 0
M  V30 20915 H 1943.28 -1.29935 2.84316 0
M  V30 20916 H 1942.5 0.987993 3.81618 0
M  V30 20917 H 1943.79 0.817308 5.02193 0
M  V30 20918 H 1943.19 -2.36167 5.14045 0
M  V30 20919 H 1941.75 -2.36713 6.07297 0
M  V30 20920 N 1945.18 -1.43489 0.651812 0
M  V30 20921 C 1946.43 -2.01049 0.161972 0
M  V30 20922 C 1946.74 -1.52018 -1.23085 0
M  V30 20923 O 1947.95 -2.01842 -1.81583 0
M  V30 20924 C 1946.4 -3.59107 0.238761 0
M  V30 20925 C 1946.01 -4.17131 1.63419 0
M  V30 20926 C 1947.76 -4.24059 -0.193548 0
M  V30 20927 C 1945.66 -5.67479 1.66498 0
M  V30 20928 H 1944.59 -0.751858 0.0567901 0
M  V30 20929 H 1947.24 -1.64475 0.813641 0
M  V30 20930 H 1945.63 -3.93075 -0.48039 0
M  V30 20931 H 1946.8 -3.94665 2.37858 0
M  V30 20932 H 1945.11 -3.64546 2.01235 0
M  V30 20933 H 1947.71 -5.34361 -0.190368 0
M  V30 20934 H 1948.05 -3.97877 -1.22472 0
M  V30 20935 H 1948.59 -3.94968 0.473805 0
M  V30 20936 H 1945.33 -5.98426 2.6752 0
M  V30 20937 H 1944.85 -5.92006 0.963819 0
M  V30 20938 H 1946.53 -6.31492 1.40809 0
M  V30 20939 N 1946.66 -0.393643 -1.52605 0
M  V30 20940 C 1947.93 0.244939 -1.9406 0
M  V30 20941 C 1948.31 1.63981 -1.32942 0
M  V30 20942 O 1947.66 2.2298 -0.499195 0
M  V30 20943 C 1947.87 0.266912 -3.47978 0
M  V30 20944 C 1949.22 0.493768 -4.21719 0
M  V30 20945 O 1950.24 0.346936 -3.54506 0
M  V30 20946 O 1949.1 0.78183 -5.40879 0
M  V30 20947 H 1946.2 0.153387 -0.812651 0
M  V30 20948 H 1948.74 -0.448465 -1.63667 0
M  V30 20949 H 1947.52 -0.709958 -3.84806 0
M  V30 20950 H 1947.14 1.00506 -3.84687 0
M  V30 20951 N 1948.14 1.57115 -0.123593 0
M  V30 20952 C 1949.55 1.5789 0.232975 0
M  V30 20953 C 1949.75 1.13659 1.66385 0
M  V30 20954 O 1948.81 0.826084 2.38604 0
M  V30 20955 C 1950.12 3.007 -0.0045178 0
M  V30 20956 C 1951.67 3.12941 0.0610235 0
M  V30 20957 C 1952.14 4.57758 -0.148835 0
M  V30 20958 N 1953.63 4.63103 -0.0949606 0
M  V30 20959 C 1954.37 5.7293 -0.232177 0
M  V30 20960 N 1953.87 6.9149 -0.42582 0
M  V30 20961 N 1955.66 5.61839 -0.171428 0
M  V30 20962 H 1947.81 1.84166 -1.05814 0
M  V30 20963 H 1950.07 0.851342 -0.417038 0
M  V30 20964 H 1949.78 3.37364 -0.993901 0
M  V30 20965 H 1949.65 3.70161 0.725327 0
M  V30 20966 H 1952.04 2.76131 1.04094 0
M  V30 20967 H 1952.12 2.46014 -0.700776 0
M  V30 20968 H 1951.76 4.95267 -1.12574 0
M  V30 20969 H 1951.69 5.22782 0.633006 0
M  V30 20970 H 1954.19 3.77866 0.0510058 0
M  V30 20971 H 1954.5 7.7104 -0.521263 0
M  V30 20972 H 1952.84 6.93464 -0.461851 0
M  V30 20973 H 1956.03 4.68095 -0.0210758 0
M  V30 20974 H 1956.21 6.47387 -0.281807 0
M  V30 20975 N 1949.61 -0.150187 1.56883 0
M  V30 20976 C 1950.86 -0.861749 1.82364 0
M  V30 20977 C 1951.18 -1.82479 0.704319 0
M  V30 20978 O 1952.38 -2.58027 0.844649 0
M  V30 20979 C 1950.84 -1.58305 3.23214 0
M  V30 20980 C 1950.45 -0.662577 4.43073 0
M  V30 20981 C 1952.19 -2.28159 3.57972 0
M  V30 20982 C 1950.1 -1.38532 5.74946 0
M  V30 20983 H 1949.03 -0.325546 0.6801 0
M  V30 20984 H 1951.68 -0.114505 1.83142 0
M  V30 20985 H 1950.06 -2.37581 3.16814 0
M  V30 20986 H 1951.23 0.0947281 4.60703 0
M  V30 20987 H 1949.55 -0.0726217 4.16337 0
M  V30 20988 H 1952.15 -2.82865 4.53753 0
M  V30 20989 H 1952.49 -3.04501 2.83874 0
M  V30 20990 H 1953.02 -1.55805 3.66019 0
M  V30 20991 H 1949.76 -0.663808 6.5213 0
M  V30 20992 H 1949.28 -2.11542 5.61258 0
M  V30 20993 H 1950.96 -1.9271 6.17634 0
M  V30 20994 N 1951.09 -1.51916 -0.419434 0
M  V30 20995 C 1952.51 -1.4049 -0.757287 0
M  V30 20996 C 1952.71 -0.501274 -1.95165 0
M  V30 20997 O 1951.76 0.0368349 -2.52473 0
M  V30 20998 C 1953.08 -2.8284 -1.02088 0
M  V30 20999 C 1954.63 -2.92113 -1.12422 0
M  V30 21000 C 1955.1 -4.3541 -1.42064 0
M  V30 21001 N 1956.59 -4.38598 -1.4895 0
M  V30 21002 C 1957.33 -5.46524 -1.73492 0
M  V30 21003 N 1956.82 -6.64583 -1.95706 0
M  V30 21004 N 1958.62 -5.34026 -1.75422 0
M  V30 21005 H 1950.77 -2.09207 0.366909 0
M  V30 21006 H 1953.03 -0.942516 0.101822 0
M  V30 21007 H 1952.74 -3.51038 -0.215755 0
M  V30 21008 H 1952.61 -3.23259 -1.9438 0
M  V30 21009 H 1955 -2.24103 -1.91994 0
M  V30 21010 H 1955.08 -2.55167 -0.179896 0
M  V30 21011 H 1954.72 -5.03976 -0.630123 0
M  V30 21012 H 1954.65 -4.69884 -2.37731 0
M  V30 21013 H 1957.14 -3.53491 -1.33614 0
M  V30 21014 H 1957.46 -7.42621 -2.13854 0
M  V30 21015 H 1955.8 -6.67667 -1.92992 0
M  V30 21016 H 1958.99 -4.40773 -1.57598 0
M  V30 21017 H 1959.16 -6.18212 -1.9421 0
M  V30 21018 N 1952.57 0.676023 -1.42365 0
M  V30 21019 C 1953.48 1.81906 -1.48147 0
M  V30 21020 C 1954.5 1.70014 -0.37032 0
M  V30 21021 O 1955.67 1.91586 -0.621036 0
M  V30 21022 C 1952.74 3.18039 -1.38029 0
M  V30 21023 C 1951.8 3.41897 -2.59625 0
M  V30 21024 C 1951.03 4.71536 -2.4998 0
M  V30 21025 O 1951.25 5.49358 -1.535 0
M  V30 21026 O 1950.19 4.9661 -3.40091 0
M  V30 21027 H 1954.01 1.79984 -2.44621 0
M  V30 21028 H 1951.6 0.831611 -1.24115 0
M  V30 21029 H 1953.48 3.99277 -1.34743 0
M  V30 21030 H 1952.16 3.20602 -0.446789 0
M  V30 21031 H 1951.06 2.60512 -2.68485 0
M  V30 21032 H 1952.4 3.44164 -3.51869 0
M  V30 21033 N 1954.05 1.28517 0.912209 0
M  V30 21034 C 1954.98 1.08378 2.01958 0
M  V30 21035 C 1955.99 0.0350385 1.62762 0
M  V30 21036 O 1957.18 0.278256 1.76318 0
M  V30 21037 C 1954.28 0.62514 3.33084 0
M  V30 21038 C 1953.46 1.74963 4.00882 0
M  V30 21039 C 1952.51 1.28411 5.10291 0
M  V30 21040 O 1951.54 1.98662 5.33406 0
M  V30 21041 N 1952.74 0.148151 5.80311 0
M  V30 21042 H 1955.51 2.03744 2.19792 0
M  V30 21043 H 1953.07 1.2029 1.0836 0
M  V30 21044 H 1955.06 0.297284 4.03607 0
M  V30 21045 H 1953.63 -0.235714 3.1171 0
M  V30 21046 H 1952.85 2.247 3.23888 0
M  V30 21047 H 1954.14 2.50391 4.42924 0
M  V30 21048 H 1953.54 -0.437843 5.64003 0
M  V30 21049 H 1952.09 -0.120419 6.51689 0
M  V30 21050 N 1955.53 -1.12086 1.1079 0
M  V30 21051 C 1956.49 -2.16111 0.763446 0
M  V30 21052 C 1957.49 -1.59371 -0.213903 0
M  V30 21053 O 1958.68 -1.74197 0.00972099 0
M  V30 21054 C 1955.81 -3.40646 0.131488 0
M  V30 21055 H 1957 -2.48096 1.68489 0
M  V30 21056 H 1954.56 -1.27156 0.908896 0
M  V30 21057 H 1955.29 -3.14265 -0.800507 0
M  V30 21058 H 1955.08 -3.83108 0.834928 0
M  V30 21059 H 1956.57 -4.17495 -0.0936165 0
M  V30 21060 N 1957 -0.897194 -1.29569 0
M  V30 21061 C 1957.95 -0.362849 -2.29752 0
M  V30 21062 C 1958.95 0.536674 -1.60674 0
M  V30 21063 O 1960.15 0.419753 -1.75037 0
M  V30 21064 H 1956.53 -0.0987052 -0.745494 0
M  V30 21065 H 1958.5 -1.22122 -2.72266 0
M  V30 21066 C 1957.25 0.396775 -3.45429 0
M  V30 21067 H 1956.57 -0.286159 -3.98775 0
M  V30 21068 H 1958.01 0.73556 -4.17571 0
M  V30 21069 C 1956.47 1.59849 -2.96563 0
M  V30 21070 O 1957 2.69781 -2.97626 0
M  V30 21071 N 1955.21 1.4398 -2.52424 0
M  V30 21072 H 1954.75 0.545463 -2.51759 0
M  V30 21073 H 1954.71 2.24519 -2.20088 0
M  V30 21074 N 1958.48 1.43142 -0.659413 0
M  V30 21075 C 1959.71 2.06603 -0.181642 0
M  V30 21076 C 1960.13 1.49137 1.14629 0
M  V30 21077 O 1959.49 0.603739 1.70952 0
M  V30 21078 C 1959.54 3.6043 -0.110662 0
M  V30 21079 O 1958.64 4.01884 0.925344 0
M  V30 21080 H 1957.98 0.656771 -0.097712 0
M  V30 21081 H 1960.51 1.83541 -0.904086 0
M  V30 21082 H 1960.52 4.07939 0.0706089 0
M  V30 21083 H 1959.2 4.01632 -1.08002 0
M  V30 21084 H 1957.78 3.65954 0.716361 0
M  V30 21085 N 1959.96 0.40173 1.52394 0
M  V30 21086 C 1961.21 -0.17672 2.02029 0
M  V30 21087 C 1961.54 -1.45417 1.28715 0
M  V30 21088 O 1960.81 -1.90524 0.391263 0
M  V30 21089 C 1961.1 -0.43198 3.575 0
M  V30 21090 C 1960.95 0.861628 4.4147 0
M  V30 21091 C 1962.27 -1.2173 4.2293 0
M  V30 21092 H 1959.39 -0.0627536 0.734323 0
M  V30 21093 H 1962.03 0.533742 1.82349 0
M  V30 21094 H 1960.18 -1.03719 3.74399 0
M  V30 21095 H 1961.85 1.49808 4.36297 0
M  V30 21096 H 1960.1 1.47424 4.07981 0
M  V30 21097 H 1960.77 0.637511 5.48306 0
M  V30 21098 H 1963.24 -0.704996 4.10084 0
M  V30 21099 H 1962.12 -1.36465 5.31666 0
M  V30 21100 H 1962.38 -2.23592 3.81391 0
M  V30 21101 N 1961.44 -1.57047 0.131923 0
M  V30 21102 C 1962.35 -2.19545 -0.826862 0
M  V30 21103 C 1963.36 -1.17532 -1.28305 0
M  V30 21104 O 1964.54 -1.50052 -1.34337 0
M  V30 21105 C 1961.61 -2.79284 -2.0543 0
M  V30 21106 C 1960.67 -3.96375 -1.64879 0
M  V30 21107 C 1959.9 -4.53256 -2.81771 0
M  V30 21108 O 1960.12 -4.09022 -3.97564 0
M  V30 21109 O 1959.06 -5.43748 -2.58111 0
M  V30 21110 H 1962.88 -3.01957 -0.324926 0
M  V30 21111 H 1960.47 -1.49102 -0.0943495 0
M  V30 21112 H 1962.35 -3.17312 -2.77292 0
M  V30 21113 H 1961.02 -1.99895 -2.54605 0
M  V30 21114 H 1959.93 -3.63092 -0.900848 0
M  V30 21115 H 1961.26 -4.77238 -1.20434 0
M  V30 21116 N 1962.92 0.141865 -1.5696 0
M  V30 21117 C 1964.14 0.868403 -1.87793 0
M  V30 21118 C 1964.56 1.74504 -0.720691 0
M  V30 21119 O 1963.92 1.79859 0.309372 0
M  V30 21120 C 1963.97 1.72086 -3.17913 0
M  V30 21121 O 1963.69 0.879548 -4.2918 0
M  V30 21122 C 1965.19 2.55454 -3.62296 0
M  V30 21123 H 1962.41 0.250842 -0.62235 0
M  V30 21124 H 1964.95 0.133113 -2.04066 0
M  V30 21125 H 1963.11 2.40915 -3.03379 0
M  V30 21126 H 1963.52 1.4653 -5.03616 0
M  V30 21127 H 1965 3.10834 -4.56165 0
M  V30 21128 H 1965.47 3.31735 -2.87834 0
M  V30 21129 H 1966.08 1.91906 -3.79542 0
M  V30 21130 N 1964.39 1.52136 0.411372 0
M  V30 21131 C 1965.64 1.65314 1.15561 0
M  V30 21132 C 1965.96 0.38805 1.91712 0
M  V30 21133 O 1967.16 0.399588 2.68543 0
M  V30 21134 C 1965.62 2.92059 2.10308 0
M  V30 21135 C 1965.23 4.25667 1.39684 0
M  V30 21136 C 1966.97 3.14599 2.85005 0
M  V30 21137 C 1964.88 5.43538 2.33067 0
M  V30 21138 H 1963.81 0.615812 0.435077 0
M  V30 21139 H 1966.46 1.78622 0.420271 0
M  V30 21140 H 1964.84 2.72444 2.87385 0
M  V30 21141 H 1966.01 4.55757 0.679869 0
M  V30 21142 H 1964.33 4.09212 0.77038 0
M  V30 21143 H 1966.93 3.99839 3.55011 0
M  V30 21144 H 1967.27 2.28739 3.47828 0
M  V30 21145 H 1967.8 3.34676 2.15028 0
M  V30 21146 H 1964.54 6.31738 1.74894 0
M  V30 21147 H 1964.06 5.1779 3.02744 0
M  V30 21148 H 1965.74 5.76527 2.93641 0
M  V30 21149 N 1965.87 -0.668464 1.42721 0
M  V30 21150 C 1967.12 -1.43061 1.43741 0
M  V30 21151 C 1967.45 -1.9412 0.0558656 0
M  V30 21152 O 1966.73 -1.71317 -0.920904 0
M  V30 21153 C 1967.01 -2.62307 2.46712 0
M  V30 21154 C 1966.86 -2.16839 3.94082 0
M  V30 21155 C 1968.18 -3.64525 2.46596 0
M  V30 21156 H 1965.3 -0.518854 0.523412 0
M  V30 21157 H 1967.94 -0.759144 1.74175 0
M  V30 21158 H 1966.09 -3.19593 2.20891 0
M  V30 21159 H 1967.77 -1.64672 4.30907 0
M  V30 21160 H 1966.01 -1.48352 4.07645 0
M  V30 21161 H 1966.68 -3.02521 4.6172 0
M  V30 21162 H 1969.16 -3.16968 2.69574 0
M  V30 21163 H 1968.03 -4.45532 3.20613 0
M  V30 21164 H 1968.29 -4.16084 1.49421 0
M  V30 21165 N 1967.35 -1.28999 -0.905381 0
M  V30 21166 C 1968.28 -1.16189 -2.0254 0
M  V30 21167 C 1969.26 -0.0575293 -1.70003 0
M  V30 21168 O 1970.45 -0.236004 -1.92761 0
M  V30 21169 C 1967.58 -0.831704 -3.37194 0
M  V30 21170 C 1966.53 -1.89176 -3.83922 0
M  V30 21171 C 1965.86 -1.41501 -5.15637 0
M  V30 21172 C 1967.16 -3.29971 -4.04866 0
M  V30 21173 H 1968.85 -2.09886 -2.13514 0
M  V30 21174 H 1966.4 -1.0105 -1.02591 0
M  V30 21175 H 1968.35 -0.728825 -4.1505 0
M  V30 21176 H 1967.07 0.140958 -3.26296 0
M  V30 21177 H 1965.73 -1.98393 -3.08279 0
M  V30 21178 H 1965.38 -0.431182 -5.01149 0
M  V30 21179 H 1965.08 -2.12391 -5.47872 0
M  V30 21180 H 1966.61 -1.32552 -5.96039 0
M  V30 21181 H 1968.02 -3.23628 -4.73221 0
M  V30 21182 H 1966.42 -3.98768 -4.48447 0
M  V30 21183 H 1967.49 -3.73369 -3.09393 0
M  V30 21184 N 1968.83 1.11497 -1.11383 0
M  V30 21185 C 1969.76 2.16696 -0.715422 0
M  V30 21186 C 1970.74 1.60028 0.288088 0
M  V30 21187 O 1971.92 1.87593 0.184653 0
M  V30 21188 C 1969.05 3.38652 -0.0571822 0
M  V30 21189 C 1968.1 4.13982 -1.02574 0
M  V30 21190 S 1968.93 4.70998 -2.54796 0
M  V30 21191 C 1970.09 5.96278 -1.90271 0
M  V30 21192 H 1970.32 2.50155 -1.60654 0
M  V30 21193 H 1967.85 1.23113 -0.931804 0
M  V30 21194 H 1969.81 4.0928 0.316249 0
M  V30 21195 H 1968.47 3.03453 0.810878 0
M  V30 21196 H 1967.66 5.01386 -0.512606 0
M  V30 21197 H 1967.27 3.4911 -1.34157 0
M  V30 21198 H 1969.56 6.66078 -1.2388 0
M  V30 21199 H 1970.5 6.52235 -2.75671 0
M  V30 21200 H 1970.91 5.47795 -1.36312 0
M  V30 21201 N 1970.31 0.904053 1.29092 0
M  V30 21202 C 1971.27 0.389889 2.25859 0
M  V30 21203 C 1972.27 -0.47836 1.5352 0
M  V30 21204 O 1973.46 -0.282793 1.71889 0
M  V30 21205 C 1970.59 -0.442126 3.38021 0
M  V30 21206 H 1971.79 1.24458 2.72856 0
M  V30 21207 H 1969.34 0.68258 1.40608 0
M  V30 21208 H 1970.07 -1.31662 2.96371 0
M  V30 21209 H 1969.86 0.180067 3.91686 0
M  V30 21210 H 1971.35 -0.793021 4.10001 0
M  V30 21211 N 1971.79 -1.4279 0.666995 0
M  V30 21212 C 1973.03 -2.01942 0.186305 0
M  V30 21213 C 1973.36 -1.52579 -1.20139 0
M  V30 21214 O 1972.64 -0.724677 -1.80496 0
M  V30 21215 C 1972.92 -3.59474 0.212322 0
M  V30 21216 C 1972.78 -4.19035 1.63491 0
M  V30 21217 C 1974.09 -4.37857 -0.443762 0
M  V30 21218 H 1971.21 -0.733747 0.0691733 0
M  V30 21219 H 1973.86 -1.69912 0.850298 0
M  V30 21220 H 1972.01 -3.86892 -0.353062 0
M  V30 21221 H 1973.68 -4.02598 2.25195 0
M  V30 21222 H 1971.92 -3.75161 2.178 0
M  V30 21223 H 1972.59 -5.28155 1.60486 0
M  V30 21224 H 1975.07 -4.16083 0.0374331 0
M  V30 21225 H 1973.94 -5.47478 -0.394887 0
M  V30 21226 H 1974.2 -4.15144 -1.52012 0
M  V30 21227 N 1973.26 -0.409806 -1.52179 0
M  V30 21228 C 1974.21 0.432719 -2.23856 0
M  V30 21229 C 1975.2 1.01291 -1.25016 0
M  V30 21230 O 1976.39 0.935617 -1.5025 0
M  V30 21231 C 1973.52 1.54847 -3.06394 0
M  V30 21232 C 1972.6 0.979019 -4.12645 0
M  V30 21233 N 1973 0.136283 -5.05616 0
M  V30 21234 C 1971.29 1.24946 -4.28141 0
M  V30 21235 C 1971.99 -0.180604 -5.8142 0
M  V30 21236 N 1970.97 0.428712 -5.41907 0
M  V30 21237 H 1974.77 -0.217442 -2.93095 0
M  V30 21238 H 1972.29 -0.220268 -1.60899 0
M  V30 21239 H 1974.28 2.16466 -3.56298 0
M  V30 21240 H 1972.94 2.20125 -2.38695 0
M  V30 21241 H 1973.95 -0.228075 -5.17398 0
M  V30 21242 H 1970.63 1.90176 -3.71671 0
M  V30 21243 H 1972.02 -0.8647 -6.66313 0
M  V30 21244 N 1974.74 1.56975 -0.14025 0
M  V30 21245 C 1975.98 1.97796 0.515374 0
M  V30 21246 C 1976.35 1.02298 1.62478 0
M  V30 21247 O 1977.55 1.32137 2.34079 0
M  V30 21248 C 1975.82 3.42691 1.01477 0
M  V30 21249 S 1977.38 4.05534 1.67594 0
M  V30 21250 H 1974.19 0.691143 0.166859 0
M  V30 21251 H 1976.8 1.94138 -0.230367 0
M  V30 21252 H 1975.5 4.09929 0.19647 0
M  V30 21253 H 1975.03 3.50047 1.79529 0
M  V30 21254 H 1977.05 3.98032 2.96285 0
M  V30 21255 N 1976.22 -0.133539 1.57033 0
M  V30 21256 C 1977.15 -1.1944 1.94446 0
M  V30 21257 C 1978.13 -1.40868 0.812103 0
M  V30 21258 O 1979.31 -1.5526 1.06895 0
M  V30 21259 C 1976.44 -2.55091 2.22814 0
M  V30 21260 C 1975.49 -2.50178 3.45417 0
M  V30 21261 S 1976.32 -1.95558 4.98515 0
M  V30 21262 C 1977.48 -3.32912 5.30019 0
M  V30 21263 H 1977.71 -0.875271 2.84124 0
M  V30 21264 H 1975.24 -0.33971 1.50616 0
M  V30 21265 H 1977.2 -3.3315 2.39837 0
M  V30 21266 H 1975.86 -2.84188 1.33777 0
M  V30 21267 H 1975.05 -3.50068 3.62586 0
M  V30 21268 H 1974.66 -1.80235 3.27706 0
M  V30 21269 H 1976.95 -4.29074 5.24311 0
M  V30 21270 H 1977.89 -3.20584 6.31373 0
M  V30 21271 H 1978.3 -3.30669 4.57513 0
M  V30 21272 N 1977.7 -1.52352 -0.403298 0
M  V30 21273 C 1978.65 -1.76731 -1.51224 0
M  V30 21274 C 1979.64 -0.634655 -1.57062 0
M  V30 21275 O 1980.85 -0.816829 -1.60399 0
M  V30 21276 H 1977.22 -0.558976 -0.503041 0
M  V30 21277 H 1979.19 -2.69624 -1.2785 0
M  V30 21278 C 1977.94 -1.94029 -2.88527 0
M  V30 21279 H 1977.26 -2.80607 -2.8478 0
M  V30 21280 H 1978.7 -2.15084 -3.65397 0
M  V30 21281 C 1977.16 -0.708949 -3.29356 0
M  V30 21282 O 1977.69 0.12042 -4.01519 0
M  V30 21283 N 1975.9 -0.543167 -2.85479 0
M  V30 21284 H 1975.45 -1.21919 -2.26922 0
M  V30 21285 H 1975.4 0.279391 -3.13156 0
M  V30 21286 N 1979.18 0.660885 -1.43074 0
M  V30 21287 C 1980.42 1.42086 -1.44284 0
M  V30 21288 C 1980.75 1.94394 -0.0643177 0
M  V30 21289 O 1980.01 1.72217 0.929509 0
M  V30 21290 C 1980.3 2.6246 -2.42589 0
M  V30 21291 C 1979.97 2.28615 -3.88647 0
M  V30 21292 C 1978.63 2.19096 -4.28428 0
M  V30 21293 C 1980.98 2.0139 -4.8072 0
M  V30 21294 C 1978.31 1.80498 -5.58245 0
M  V30 21295 C 1980.66 1.64293 -6.10893 0
M  V30 21296 C 1979.33 1.53294 -6.49659 0
M  V30 21297 H 1978.6 0.519929 -0.527973 0
M  V30 21298 H 1981.25 0.752296 -1.76104 0
M  V30 21299 H 1979.55 3.34413 -2.04145 0
M  V30 21300 H 1981.25 3.20662 -2.40784 0
M  V30 21301 H 1977.84 2.36931 -3.57158 0
M  V30 21302 H 1982.02 2.0767 -4.50763 0
M  V30 21303 H 1977.28 1.70563 -5.87127 0
M  V30 21304 H 1981.45 1.42256 -6.81716 0
M  V30 21305 H 1979.08 1.23156 -7.50158 0
M  V30 21306 N 1980.65 1.29477 0.898527 0
M  V30 21307 C 1981.6 1.14706 2.00278 0
M  V30 21308 C 1982.57 0.040077 1.66052 0
M  V30 21309 O 1983.76 0.207808 1.89665 0
M  V30 21310 C 1980.9 0.830802 3.3495 0
M  V30 21311 C 1980.01 2.01834 3.81952 0
M  V30 21312 C 1979.14 1.64135 5.05206 0
M  V30 21313 C 1978.18 2.79464 5.44579 0
M  V30 21314 N 1977.32 2.42153 6.59019 0
M  V30 21315 H 1982.16 2.09181 2.12244 0
M  V30 21316 H 1979.7 1.04092 1.03939 0
M  V30 21317 H 1981.66 0.628119 4.12445 0
M  V30 21318 H 1980.29 -0.0770431 3.22708 0
M  V30 21319 H 1979.34 2.33269 3.00483 0
M  V30 21320 H 1980.65 2.88247 4.07081 0
M  V30 21321 H 1979.8 1.40163 5.90288 0
M  V30 21322 H 1978.54 0.748722 4.81918 0
M  V30 21323 H 1977.55 3.04117 4.58031 0
M  V30 21324 H 1978.77 3.69393 5.69847 0
M  V30 21325 H 1976.72 1.55379 6.37333 0
M  V30 21326 H 1976.64 3.221 6.8395 0
M  V30 21327 H 1977.9 2.21503 7.47366 0
M  V30 21328 N 1982.13 -1.10905 1.11972 0
M  V30 21329 C 1983.55 -1.3478 0.854776 0
M  V30 21330 C 1983.75 -1.94737 -0.517653 0
M  V30 21331 O 1982.8 -2.18391 -1.26734 0
M  V30 21332 C 1984.12 -2.27414 1.96732 0
M  V30 21333 C 1985.67 -2.40964 1.99764 0
M  V30 21334 C 1986.14 -3.36923 3.10237 0
M  V30 21335 N 1987.63 -3.44488 3.09648 0
M  V30 21336 C 1988.37 -4.18695 3.91768 0
M  V30 21337 N 1987.86 -4.95829 4.83865 0
M  V30 21338 N 1989.66 -4.14263 3.79924 0
M  V30 21339 H 1981.81 -0.703538 2.0041 0
M  V30 21340 H 1984.07 -0.372318 0.871828 0
M  V30 21341 H 1983.78 -1.90561 2.956 0
M  V30 21342 H 1983.65 -3.27681 1.86829 0
M  V30 21343 H 1986.04 -2.77089 1.01518 0
M  V30 21344 H 1986.12 -1.40529 2.13741 0
M  V30 21345 H 1985.76 -3.01524 4.08712 0
M  V30 21346 H 1985.69 -4.37225 2.93499 0
M  V30 21347 H 1988.18 -2.89475 2.42925 0
M  V30 21348 H 1988.5 -5.49836 5.43047 0
M  V30 21349 H 1986.84 -4.9497 4.87883 0
M  V30 21350 H 1990.03 -3.53095 3.07314 0
M  V30 21351 H 1990.2 -4.71837 4.44155 0
M  V30 21352 N 1983.61 -0.910886 -1.2861 0
M  V30 21353 C 1985.03 -0.608615 -1.4754 0
M  V30 21354 C 1985.23 0.846869 -1.8284 0
M  V30 21355 O 1984.28 1.62618 -1.93162 0
M  V30 21356 C 1985.6 -1.54405 -2.5803 0
M  V30 21357 C 1987.14 -1.55046 -2.719 0
M  V30 21358 C 1987.62 -2.47245 -3.85531 0
M  V30 21359 N 1989.11 -2.45356 -3.9288 0
M  V30 21360 C 1989.84 -3.13394 -4.80179 0
M  V30 21361 N 1989.34 -3.90751 -5.72088 0
M  V30 21362 N 1991.13 -3.02495 -4.73765 0
M  V30 21363 H 1983.28 -1.8521 -1.03977 0
M  V30 21364 H 1985.55 -0.794235 -0.517585 0
M  V30 21365 H 1985.25 -2.5816 -2.38844 0
M  V30 21366 H 1985.13 -1.27299 -3.5507 0
M  V30 21367 H 1987.51 -0.520311 -2.90477 0
M  V30 21368 H 1987.6 -1.86195 -1.754 0
M  V30 21369 H 1987.24 -3.50361 -3.67709 0
M  V30 21370 H 1987.17 -2.134 -4.81423 0
M  V30 21371 H 1989.66 -1.89161 -3.27149 0
M  V30 21372 H 1989.97 -4.39694 -6.35523 0
M  V30 21373 H 1988.32 -3.94857 -5.71938 0
M  V30 21374 H 1991.51 -2.41567 -4.00953 0
M  V30 21375 H 1991.68 -3.55793 -5.41586 0
M  V30 21376 N 1985.09 1.42434 -0.674558 0
M  V30 21377 C 1986.34 2.01144 -0.196332 0
M  V30 21378 C 1986.66 1.53605 1.20127 0
M  V30 21379 O 1985.93 0.757627 1.80657 0
M  V30 21380 H 1984.51 0.743751 -0.0695937 0
M  V30 21381 H 1987.17 1.74354 -0.871013 0
M  V30 21382 H 1986.27 3.11475 -0.197426 0
M  V30 21383 N 1986.57 0.417871 1.51959 0
M  V30 21384 C 1987.81 -0.154746 2.01507 0
M  V30 21385 C 1988.14 -1.44898 1.30497 0
M  V30 21386 O 1987.41 -1.91043 0.433536 0
M  V30 21387 H 1985.99 -0.0601759 0.744572 0
M  V30 21388 H 1988.65 0.556118 1.86798 0
M  V30 21389 H 1987.74 -0.344616 3.10192 0
M  V30 21390 N 1988.04 -1.56898 0.148573 0
M  V30 21391 C 1989.29 -1.9535 -0.502116 0
M  V30 21392 C 1989.61 -1.03603 -1.65909 0
M  V30 21393 O 1990.81 -1.31641 -2.37451 0
M  V30 21394 C 1989.27 -3.47281 -0.944653 0
M  V30 21395 C 1988.88 -4.47616 0.185474 0
M  V30 21396 C 1990.62 -3.94597 -1.56504 0
M  V30 21397 C 1988.53 -5.90758 -0.27542 0
M  V30 21398 H 1987.46 -0.729315 -0.191351 0
M  V30 21399 H 1990.11 -1.82013 0.233169 0
M  V30 21400 H 1988.49 -3.55957 -1.73525 0
M  V30 21401 H 1989.66 -4.50637 0.962441 0
M  V30 21402 H 1987.98 -4.10226 0.714373 0
M  V30 21403 H 1990.58 -4.9898 -1.92153 0
M  V30 21404 H 1990.92 -3.36238 -2.45459 0
M  V30 21405 H 1991.45 -3.88845 -0.839319 0
M  V30 21406 H 1988.19 -6.5294 0.578787 0
M  V30 21407 H 1987.71 -5.91094 -1.01823 0
M  V30 21408 H 1989.39 -6.42904 -0.726905 0
M  V30 21409 N 1989.52 0.125209 -1.57102 0
M  V30 21410 C 1990.77 0.832437 -1.8416 0
M  V30 21411 C 1991.09 1.80706 -0.732819 0
M  V30 21412 O 1990.36 1.94378 0.243723 0
M  V30 21413 H 1988.94 0.310405 -0.679454 0
M  V30 21414 H 1991.6 0.114013 -1.94566 0
M  V30 21415 H 1990.7 1.38145 -2.79861 0
M  V30 21416 N 1991 1.52564 0.395213 0
M  V30 21417 C 1992.28 1.5788 1.1547 0
M  V30 21418 C 1992.66 0.36821 2.07864 0
M  V30 21419 O 1992.01 -0.643933 2.19239 0
M  V30 21420 C 1992.22 2.91451 1.91982 0
M  V30 21421 C 1993.56 3.44961 2.47562 0
M  V30 21422 O 1994.59 2.93284 2.02146 0
M  V30 21423 O 1993.45 4.35233 3.30506 0
M  V30 21424 H 1990.54 0.636516 0.527993 0
M  V30 21425 H 1993.09 1.64897 0.400867 0
M  V30 21426 H 1991.86 3.71006 1.2438 0
M  V30 21427 H 1991.48 2.8779 2.7434 0
M  V30 21428 N 1992.48 -0.653289 1.43422 0
M  V30 21429 C 1993.41 -1.77818 1.43025 0
M  V30 21430 C 1994.39 -1.59962 0.291706 0
M  V30 21431 O 1995.57 -1.82146 0.485285 0
M  V30 21432 C 1992.7 -3.15116 1.24175 0
M  V30 21433 C 1991.75 -3.51674 2.41305 0
M  V30 21434 S 1992.58 -3.51656 4.03854 0
M  V30 21435 C 1993.74 -4.91612 3.87387 0
M  V30 21436 H 1993.97 -1.77884 2.38211 0
M  V30 21437 H 1991.5 -0.825924 1.30453 0
M  V30 21438 H 1993.46 -3.94357 1.13987 0
M  V30 21439 H 1992.12 -3.12612 0.30538 0
M  V30 21440 H 1991.31 -4.51526 2.2392 0
M  V30 21441 H 1990.92 -2.79845 2.48118 0
M  V30 21442 H 1993.21 -5.80268 3.49708 0
M  V30 21443 H 1994.15 -5.14047 4.86992 0
M  V30 21444 H 1994.56 -4.65143 3.19847 0
M  V30 21445 N 1993.96 -1.29952 -0.891648 0
M  V30 21446 C 1995.18 -1.21297 -1.67615 0
M  V30 21447 C 1995.6 0.225203 -1.87452 0
M  V30 21448 O 1994.96 1.14977 -1.41727 0
M  V30 21449 C 1995.01 -1.93074 -3.05622 0
M  V30 21450 O 1994.73 -3.31276 -2.86684 0
M  V30 21451 C 1996.23 -1.90996 -4.00044 0
M  V30 21452 H 1993.45 -0.420057 -0.523253 0
M  V30 21453 H 1995.99 -1.71463 -1.11448 0
M  V30 21454 H 1994.15 -1.46724 -3.5854 0
M  V30 21455 H 1994.56 -3.67538 -3.74187 0
M  V30 21456 H 1996.04 -2.45768 -4.94269 0
M  V30 21457 H 1996.51 -0.887331 -4.30143 0
M  V30 21458 H 1997.12 -2.37127 -3.53059 0
M  V30 21459 N 1995.44 1.1031 -1.12559 0
M  V30 21460 C 1996.85 1.63801 -0.895891 0
M  V30 21461 C 1997.2 1.87753 0.569511 0
M  V30 21462 O 1996.32 1.62046 1.43423 0
M  V30 21463 C 1996.92 2.9757 -1.6198 0
M  V30 21464 C 1995.48 3.47922 -1.43622 0
M  V30 21465 C 1994.62 2.22506 -1.65489 0
M  V30 21466 H 1997.57 0.937927 -1.28018 0
M  V30 21467 H 1997.6 3.65099 -1.07159 0
M  V30 21468 H 1997.11 2.80105 -2.68631 0
M  V30 21469 H 1995.21 3.70529 -0.392328 0
M  V30 21470 H 1995.32 4.25953 -2.1932 0
M  V30 21471 H 1993.69 2.30712 -1.07908 0
M  V30 21472 H 1994.47 2.07571 -2.7344 0
M  V30 21473 N 1996.91 0.917694 1.28125 0
M  V30 21474 C 1997.88 0.413823 2.25433 0
M  V30 21475 C 1998.88 -0.46205 1.54019 0
M  V30 21476 O 2000.07 -0.264546 1.7218 0
M  V30 21477 C 1997.2 -0.406249 3.38471 0
M  V30 21478 H 1998.39 1.27345 2.7152 0
M  V30 21479 H 1995.94 0.697455 1.39876 0
M  V30 21480 H 1996.68 -1.28511 2.97751 0
M  V30 21481 H 1996.46 0.221601 3.91473 0
M  V30 21482 H 1997.95 -0.749491 4.10819 0
M  V30 21483 N 1998.39 -1.42074 0.682102 0
M  V30 21484 C 1999.3 -2.34598 0.00845226 0
M  V30 21485 C 2000.32 -1.55494 -0.780873 0
M  V30 21486 O 2001.49 -1.88032 -0.721524 0
M  V30 21487 C 1998.56 -3.34103 -0.926085 0
M  V30 21488 C 1997.62 -4.29102 -0.130475 0
M  V30 21489 C 1996.85 -5.23853 -1.0205 0
M  V30 21490 O 1997.08 -5.23716 -2.26004 0
M  V30 21491 O 1996.01 -6.00004 -0.47739 0
M  V30 21492 H 1999.84 -2.93756 0.770779 0
M  V30 21493 H 1997.42 -1.42701 0.442368 0
M  V30 21494 H 1999.3 -3.95212 -1.46236 0
M  V30 21495 H 1997.98 -2.77408 -1.66814 0
M  V30 21496 H 1996.88 -3.71383 0.450082 0
M  V30 21497 H 1998.22 -4.88858 0.57262 0
M  V30 21498 N 1999.87 -0.425924 -1.51735 0
M  V30 21499 C 2001.29 -0.0776294 -1.59411 0
M  V30 21500 C 2001.49 1.41186 -1.43767 0
M  V30 21501 O 2000.54 2.18056 -1.27311 0
M  V30 21502 C 2001.85 -0.58755 -2.94904 0
M  V30 21503 C 2003.4 -0.54699 -3.08183 0
M  V30 21504 C 2003.88 -1.0337 -4.46182 0
M  V30 21505 N 2005.37 -0.991208 -4.5247 0
M  V30 21506 C 2006.1 -1.3388 -5.57552 0
M  V30 21507 N 2005.6 -1.75868 -6.70106 0
M  V30 21508 N 2007.39 -1.25769 -5.47849 0
M  V30 21509 H 1999.54 -1.39519 -1.60151 0
M  V30 21510 H 2001.81 -0.574214 -0.754309 0
M  V30 21511 H 2001.51 -1.62925 -3.11686 0
M  V30 21512 H 2001.39 -0.0062584 -3.77199 0
M  V30 21513 H 2003.77 0.485701 -2.91076 0
M  V30 21514 H 2003.85 -1.16454 -2.27754 0
M  V30 21515 H 2003.5 -2.0648 -4.64035 0
M  V30 21516 H 2003.43 -0.39279 -5.25133 0
M  V30 21517 H 2005.92 -0.682721 -3.71682 0
M  V30 21518 H 2006.23 -2.00657 -7.46295 0
M  V30 21519 H 2004.58 -1.79785 -6.71344 0
M  V30 21520 H 2007.77 -0.928407 -4.58801 0
M  V30 21521 H 2007.94 -1.53187 -6.29633 0
M  V30 21522 N 2001.35 1.56817 -0.156891 0
M  V30 21523 C 2002.28 2.20266 0.774915 0
M  V30 21524 C 2003.26 1.15387 1.24979 0
M  V30 21525 O 2004.44 1.43766 1.30557 0
M  V30 21526 C 2001.57 2.83207 2.01025 0
M  V30 21527 C 2000.53 3.94 1.67177 0
M  V30 21528 C 1999.85 4.43921 2.98057 0
M  V30 21529 C 2001.15 5.14297 0.91083 0
M  V30 21530 H 2002.85 2.98387 0.246082 0
M  V30 21531 H 2000.39 1.43525 0.116921 0
M  V30 21532 H 2002.35 3.26264 2.66701 0
M  V30 21533 H 2001.07 2.02433 2.56298 0
M  V30 21534 H 1999.73 3.51576 1.03876 0
M  V30 21535 H 1999.38 3.59957 3.5134 0
M  V30 21536 H 1999.08 5.18657 2.76169 0
M  V30 21537 H 2000.6 4.89656 3.64787 0
M  V30 21538 H 2002.02 5.54137 1.46988 0
M  V30 21539 H 2000.41 5.94857 0.791526 0
M  V30 21540 H 2001.48 4.84806 -0.0955943 0
M  V30 21541 N 2002.83 -0.116876 1.57166 0
M  V30 21542 C 2004.07 -0.822873 1.84151 0
M  V30 21543 C 2004.39 -1.80944 0.742867 0
M  V30 21544 O 2005.59 -2.56177 0.89919 0
M  V30 21545 C 2004.05 -1.51414 3.26499 0
M  V30 21546 C 2003.66 -0.568446 4.44379 0
M  V30 21547 C 2005.4 -2.20514 3.62731 0
M  V30 21548 C 2003.31 -1.26306 5.77755 0
M  V30 21549 H 2002.24 -0.311047 0.686852 0
M  V30 21550 H 2004.89 -0.0756323 1.83344 0
M  V30 21551 H 2003.27 -2.30807 3.21782 0
M  V30 21552 H 2004.45 0.192429 4.60398 0
M  V30 21553 H 2002.76 0.0157058 4.16397 0
M  V30 21554 H 2005.36 -2.73177 4.5965 0
M  V30 21555 H 2005.7 -2.98411 2.90269 0
M  V30 21556 H 2006.23 -1.48006 3.69241 0
M  V30 21557 H 2002.97 -0.525332 6.53392 0
M  V30 21558 H 2002.49 -1.99589 5.65618 0
M  V30 21559 H 2004.17 -1.79566 6.21583 0
M  V30 21560 N 2004.3 -1.52772 -0.387116 0
M  V30 21561 C 2005.25 -1.78325 -1.49341 0
M  V30 21562 C 2006.25 -0.651278 -1.5638 0
M  V30 21563 O 2007.45 -0.833795 -1.59524 0
M  V30 21564 H 2003.83 -0.56428 -0.497084 0
M  V30 21565 H 2005.8 -2.70965 -1.24983 0
M  V30 21566 C 2004.55 -1.97079 -2.86453 0
M  V30 21567 H 2003.87 -2.83612 -2.81788 0
M  V30 21568 H 2005.31 -2.18947 -3.63095 0
M  V30 21569 C 2003.77 -0.743842 -3.28586 0
M  V30 21570 O 2004.3 0.0778266 -4.01625 0
M  V30 21571 N 2002.5 -0.573415 -2.84886 0
M  V30 21572 H 2002.05 -1.24319 -2.25616 0
M  V30 21573 H 2002.01 0.24616 -3.13435 0
M  V30 21574 N 2005.78 0.645673 -1.43767 0
M  V30 21575 C 2006.71 1.77057 -1.43966 0
M  V30 21576 C 2007.69 1.59805 -0.300185 0
M  V30 21577 O 2008.88 1.81886 -0.494937 0
M  V30 21578 C 2006 3.14453 -1.25845 0
M  V30 21579 C 2005.05 3.50389 -2.43166 0
M  V30 21580 S 2005.88 3.4951 -4.05713 0
M  V30 21581 C 2007.04 4.8955 -3.89989 0
M  V30 21582 H 2007.27 1.76619 -2.39151 0
M  V30 21583 H 2004.8 0.818994 -1.30889 0
M  V30 21584 H 2006.76 3.93747 -1.16077 0
M  V30 21585 H 2005.42 3.12446 -0.321954 0
M  V30 21586 H 2004.62 4.50332 -2.26312 0
M  V30 21587 H 2004.22 2.78525 -2.49599 0
M  V30 21588 H 2006.51 5.78405 -3.5278 0
M  V30 21589 H 2007.45 5.11457 -4.89711 0
M  V30 21590 H 2007.86 4.6344 -3.2231 0
M  V30 21591 N 2007.26 1.30423 0.884744 0
M  V30 21592 C 2008.51 1.18625 1.63129 0
M  V30 21593 C 2008.82 -0.257953 1.93892 0
M  V30 21594 O 2010.03 -0.497448 2.66904 0
M  V30 21595 C 2008.48 2.0757 2.94011 0
M  V30 21596 C 2008.09 3.569 2.70788 0
M  V30 21597 C 2009.84 2.04535 3.71975 0
M  V30 21598 C 2007.74 4.37901 3.97488 0
M  V30 21599 H 2006.67 0.440391 0.612023 0
M  V30 21600 H 2009.32 1.55172 0.979478 0
M  V30 21601 H 2007.71 1.63905 3.60487 0
M  V30 21602 H 2008.88 4.08715 2.12812 0
M  V30 21603 H 2007.19 3.61761 2.06199 0
M  V30 21604 H 2009.79 2.62305 4.6594 0
M  V30 21605 H 2010.13 1.02888 4.03385 0
M  V30 21606 H 2010.67 2.46322 3.12362 0
M  V30 21607 H 2007.41 5.40244 3.71236 0
M  V30 21608 H 2006.93 3.9085 4.54968 0
M  V30 21609 H 2008.61 4.49347 4.65506 0
M  V30 21610 N 2008.74 -1.09711 1.13142 0
M  V30 21611 C 2009.97 -1.85595 0.914436 0
M  V30 21612 C 2010.38 -1.81013 -0.536632 0
M  V30 21613 O 2009.74 -1.20419 -1.37134 0
M  V30 21614 C 2009.79 -3.33692 1.39039 0
M  V30 21615 O 2009.51 -3.38219 2.78459 0
M  V30 21616 C 2011.01 -4.26427 1.21142 0
M  V30 21617 H 2008.23 -0.586333 0.326274 0
M  V30 21618 H 2010.77 -1.38646 1.50325 0
M  V30 21619 H 2008.93 -3.7808 0.844641 0
M  V30 21620 H 2009.34 -4.30567 2.9952 0
M  V30 21621 H 2010.82 -5.28508 1.59323 0
M  V30 21622 H 2011.29 -4.38934 0.152782 0
M  V30 21623 H 2011.9 -3.87851 1.74505 0
M  V30 21624 N 2010.22 -0.924476 -1.27637 0
M  V30 21625 C 2011.44 -0.579431 -1.98621 0
M  V30 21626 C 2011.86 0.84181 -1.68994 0
M  V30 21627 O 2011.22 1.55905 -0.948681 0
M  V30 21628 C 2011.27 -0.791898 -3.5272 0
M  V30 21629 O 2010.99 -2.15722 -3.81308 0
M  V30 21630 C 2012.49 -0.45513 -4.40957 0
M  V30 21631 H 2009.71 -0.219875 -0.633953 0
M  V30 21632 H 2012.25 -1.24062 -1.6257 0
M  V30 21633 H 2010.41 -0.17756 -3.86993 0
M  V30 21634 H 2010.82 -2.20483 -4.75907 0
M  V30 21635 H 2012.3 -0.654507 -5.48106 0
M  V30 21636 H 2012.77 0.609177 -4.34955 0
M  V30 21637 H 2013.38 -1.04747 -4.12199 0
M  V30 21638 N 2011.69 1.41711 -0.689627 0
M  V30 21639 C 2012.6 2.34591 -0.0208935 0
M  V30 21640 C 2013.62 1.55906 0.772616 0
M  V30 21641 O 2014.8 1.88412 0.711542 0
M  V30 21642 C 2011.86 3.34589 0.908354 0
M  V30 21643 C 2010.92 4.29165 0.107717 0
M  V30 21644 C 2010.16 5.24386 0.992705 0
M  V30 21645 O 2010.38 5.24907 2.23224 0
M  V30 21646 O 2009.31 6.00249 0.445563 0
M  V30 21647 H 2013.14 2.93343 -0.786347 0
M  V30 21648 H 2010.72 1.42464 -0.449929 0
M  V30 21649 H 2012.61 3.95982 1.44138 0
M  V30 21650 H 2011.28 2.78288 1.6534 0
M  V30 21651 H 2010.19 3.71139 -0.469771 0
M  V30 21652 H 2011.52 4.88547 -0.598537 0
M  V30 21653 N 2013.17 0.433965 1.51507 0
M  V30 21654 C 2014.1 -0.41493 2.25413 0
M  V30 21655 C 2015.12 -0.989176 1.29303 0
M  V30 21656 O 2016.31 -0.883889 1.55079 0
M  V30 21657 C 2013.41 -1.59207 2.99176 0
M  V30 21658 C 2012.58 -1.1373 4.22355 0
M  V30 21659 C 2011.64 -2.18418 4.78727 0
M  V30 21660 O 2010.66 -1.77991 5.40655 0
M  V30 21661 N 2011.87 -3.50866 4.62465 0
M  V30 21662 H 2014.63 0.218474 2.98903 0
M  V30 21663 H 2012.19 0.26267 1.59755 0
M  V30 21664 H 2014.18 -2.28857 3.33776 0
M  V30 21665 H 2012.75 -2.13089 2.28718 0
M  V30 21666 H 2011.97 -0.267997 3.93288 0
M  V30 21667 H 2013.26 -0.8108 5.02298 0
M  V30 21668 H 2012.66 -3.86446 4.1313 0
M  V30 21669 H 2011.22 -4.1642 5.01436 0
M  V30 21670 N 2014.65 -1.56732 0.165206 0
M  V30 21671 C 2015.56 -2.2125 -0.780107 0
M  V30 21672 C 2016.58 -1.20227 -1.25784 0
M  V30 21673 O 2017.75 -1.52868 -1.31124 0
M  V30 21674 C 2014.82 -2.83579 -1.99459 0
M  V30 21675 C 2013.88 -3.99784 -1.56434 0
M  V30 21676 C 2013.11 -4.5913 -2.72094 0
M  V30 21677 O 2013.33 -4.17363 -3.88799 0
M  V30 21678 O 2012.27 -5.49101 -2.46519 0
M  V30 21679 H 2016.09 -3.02578 -0.260803 0
M  V30 21680 H 2013.68 -1.49268 -0.0627015 0
M  V30 21681 H 2015.56 -3.23123 -2.70499 0
M  V30 21682 H 2014.24 -2.05251 -2.50307 0
M  V30 21683 H 2013.14 -3.64921 -0.823629 0
M  V30 21684 H 2014.48 -4.79686 -1.10284 0
M  V30 21685 N 2016.13 0.10854 -1.57226 0
M  V30 21686 C 2017.38 0.813095 -1.84585 0
M  V30 21687 C 2017.69 1.80548 -0.752453 0
M  V30 21688 O 2018.9 2.55697 -0.912763 0
M  V30 21689 C 2017.35 1.4968 -3.27298 0
M  V30 21690 C 2016.96 0.544871 -4.44674 0
M  V30 21691 C 2018.7 2.18587 -3.63895 0
M  V30 21692 C 2016.61 1.2324 -5.78417 0
M  V30 21693 H 2015.54 0.3074 -0.688492 0
M  V30 21694 H 2018.19 0.065908 -1.83382 0
M  V30 21695 H 2016.57 2.29098 -3.23002 0
M  V30 21696 H 2017.75 -0.216842 -4.6029 0
M  V30 21697 H 2016.06 -0.0377882 -4.16383 0
M  V30 21698 H 2018.66 2.70735 -4.61093 0
M  V30 21699 H 2019 2.96868 -2.91848 0
M  V30 21700 H 2019.54 1.46046 -3.70021 0
M  V30 21701 H 2016.28 0.490673 -6.53661 0
M  V30 21702 H 2015.8 1.96587 -5.66669 0
M  V30 21703 H 2017.47 1.76267 -6.22526 0
M  V30 21704 N 2017.61 1.52975 0.379009 0
M  V30 21705 C 2018.54 1.74729 1.48332 0
M  V30 21706 C 2019.55 0.627862 1.50206 0
M  V30 21707 O 2020.74 0.903805 1.53927 0
M  V30 21708 C 2017.84 1.79998 2.87148 0
M  V30 21709 C 2017.01 3.09452 3.09125 0
M  V30 21710 C 2016.07 3.06138 4.27979 0
M  V30 21711 O 2015.1 3.79976 4.23801 0
M  V30 21712 N 2016.3 2.26019 5.34692 0
M  V30 21713 H 2019.07 2.70011 1.30054 0
M  V30 21714 H 2016.63 1.51586 0.568617 0
M  V30 21715 H 2018.62 1.75275 3.64775 0
M  V30 21716 H 2017.19 0.920593 2.98737 0
M  V30 21717 H 2016.41 3.27586 2.19274 0
M  V30 21718 H 2017.7 3.9503 3.20669 0
M  V30 21719 H 2017.09 1.65515 5.40945 0
M  V30 21720 H 2015.65 2.27126 6.10948 0
M  V30 21721 N 2019.08 -0.63804 1.44107 0
M  V30 21722 C 2020.33 -1.39772 1.46526 0
M  V30 21723 C 2020.66 -1.94267 0.0952359 0
M  V30 21724 O 2019.91 -1.73674 -0.901993 0
M  V30 21725 C 2020.21 -2.58567 2.46734 0
M  V30 21726 C 2019.88 -2.22403 3.92234 0
M  V30 21727 C 2018.54 -2.12252 4.31859 0
M  V30 21728 C 2020.89 -1.93717 4.83863 0
M  V30 21729 C 2018.22 -1.71594 5.61046 0
M  V30 21730 C 2020.57 -1.54553 6.1343 0
M  V30 21731 C 2019.24 -1.42939 6.52016 0
M  V30 21732 H 2018.51 -0.511463 0.536177 0
M  V30 21733 H 2021.15 -0.724184 1.77279 0
M  V30 21734 H 2019.46 -3.31123 2.0944 0
M  V30 21735 H 2021.16 -3.16791 2.45855 0
M  V30 21736 H 2017.75 -2.31219 3.60882 0
M  V30 21737 H 2021.93 -2.00472 4.5401 0
M  V30 21738 H 2017.19 -1.612 5.89766 0
M  V30 21739 H 2021.36 -1.31393 6.83892 0
M  V30 21740 H 2018.99 -1.11206 7.52022 0
M  V30 21741 N 2020.56 -1.3089 -0.877815 0
M  V30 21742 C 2021.49 -1.13694 -1.99013 0
M  V30 21743 C 2022.51 -0.0781797 -1.62612 0
M  V30 21744 O 2023.7 -0.324906 -1.75518 0
M  V30 21745 C 2020.8 -0.713232 -3.3131 0
M  V30 21746 C 2019.97 -1.8553 -3.96103 0
M  V30 21747 C 2019.03 -1.41895 -5.06707 0
M  V30 21748 O 2018.05 -2.12734 -5.27952 0
M  V30 21749 N 2019.26 -0.301958 -5.79714 0
M  V30 21750 H 2022.02 -2.09499 -2.14313 0
M  V30 21751 H 2019.58 -1.2312 -1.05133 0
M  V30 21752 H 2021.57 -0.404189 -4.02677 0
M  V30 21753 H 2020.14 0.152987 -3.12225 0
M  V30 21754 H 2019.36 -2.33208 -3.17817 0
M  V30 21755 H 2020.65 -2.62046 -4.3613 0
M  V30 21756 H 2020.05 0.288154 -5.64966 0
M  V30 21757 H 2018.61 -0.0524068 -6.51779 0
M  V30 21758 N 2022.04 1.0911 -1.13723 0
M  V30 21759 C 2022.97 2.15687 -0.775355 0
M  V30 21760 C 2023.99 1.61511 0.204429 0
M  V30 21761 O 2025.17 1.78493 -0.0162374 0
M  V30 21762 C 2022.27 3.38654 -0.129079 0
M  V30 21763 C 2021.45 4.22235 -1.14178 0
M  V30 21764 C 2020.51 5.23618 -0.520594 0
M  V30 21765 O 2019.53 5.56802 -1.18152 0
M  V30 21766 N 2020.73 5.76192 0.705897 0
M  V30 21767 H 2023.5 2.47337 -1.69247 0
M  V30 21768 H 2021.06 1.24855 -1.03067 0
M  V30 21769 H 2023.05 4.03595 0.298814 0
M  V30 21770 H 2021.62 3.04866 0.69104 0
M  V30 21771 H 2020.84 3.53382 -1.74685 0
M  V30 21772 H 2022.13 4.749 -1.82612 0
M  V30 21773 H 2021.53 5.51453 1.26158 0
M  V30 21774 H 2020.09 6.42851 1.0764 0
M  V30 21775 N 2023.52 0.931232 1.27145 0
M  V30 21776 C 2024.74 0.589393 1.98849 0
M  V30 21777 C 2025.17 -0.82637 1.68976 0
M  V30 21778 O 2024.53 -1.55507 0.93205 0
M  V30 21779 C 2024.57 0.826135 3.51009 0
M  V30 21780 O 2023.68 -0.106581 4.12262 0
M  V30 21781 H 2023.02 0.226532 0.624163 0
M  V30 21782 H 2025.55 1.25145 1.61864 0
M  V30 21783 H 2025.56 0.743094 4.01176 0
M  V30 21784 H 2024.23 1.85812 3.72084 0
M  V30 21785 H 2022.81 0.0266735 3.7289 0
M  V30 21786 N 2025 -1.41343 0.697132 0
M  V30 21787 C 2025.94 -2.30777 0.0327941 0
M  V30 21788 C 2026.91 -1.47192 -0.769652 0
M  V30 21789 O 2028.1 -1.75976 -0.737366 0
M  V30 21790 C 2025.24 -3.33252 -0.896488 0
M  V30 21791 C 2024.35 -4.31915 -0.0854899 0
M  V30 21792 C 2023.49 -5.2146 -1.01256 0
M  V30 21793 C 2022.53 -6.11791 -0.194558 0
M  V30 21794 N 2021.66 -6.93813 -1.07551 0
M  V30 21795 H 2026.5 -2.87027 0.801203 0
M  V30 21796 H 2024.04 -1.41363 0.406815 0
M  V30 21797 H 2026 -3.91216 -1.44933 0
M  V30 21798 H 2024.63 -2.78548 -1.63128 0
M  V30 21799 H 2023.68 -3.75886 0.58429 0
M  V30 21800 H 2024.99 -4.95774 0.548612 0
M  V30 21801 H 2024.15 -5.84266 -1.63457 0
M  V30 21802 H 2022.89 -4.57832 -1.68051 0
M  V30 21803 H 2021.89 -5.48032 0.440518 0
M  V30 21804 H 2023.12 -6.77474 0.469626 0
M  V30 21805 H 2021.06 -6.32792 -1.72946 0
M  V30 21806 H 2020.98 -7.54364 -0.497018 0
M  V30 21807 H 2022.25 -7.61086 -1.68429 0
M  V30 21808 N 2026.48 -0.441993 -1.51275 0
M  V30 21809 C 2027.42 0.381441 -2.29451 0
M  V30 21810 C 2028.42 1.01672 -1.35496 0
M  V30 21811 O 2029.62 0.95115 -1.52817 0
M  V30 21812 H 2026 0.141826 -0.738505 0
M  V30 21813 H 2027.97 -0.298692 -2.96901 0
M  V30 21814 C 2026.72 1.46756 -3.15211 0
M  V30 21815 H 2026.04 0.988092 -3.87397 0
M  V30 21816 H 2027.48 2.01687 -3.72959 0
M  V30 21817 C 2025.94 2.4534 -2.30889 0
M  V30 21818 O 2026.47 3.49979 -1.97173 0
M  V30 21819 N 2024.68 2.16342 -1.94022 0
M  V30 21820 H 2024.22 1.31276 -2.2164 0
M  V30 21821 H 2024.18 2.82543 -1.37902 0
M  V30 21822 N 2027.95 1.56642 -0.173515 0
M  V30 21823 C 2029.18 2.01763 0.480249 0
M  V30 21824 C 2029.6 1.05294 1.55868 0
M  V30 21825 O 2028.96 0.0328468 1.8127 0
M  V30 21826 C 2029.01 3.45473 1.03349 0
M  V30 21827 O 2028.11 3.52081 2.14739 0
M  V30 21828 H 2027.45 0.654011 0.114743 0
M  V30 21829 H 2029.98 2.02702 -0.278052 0
M  V30 21830 H 2029.99 3.84823 1.35554 0
M  V30 21831 H 2028.67 4.15184 0.243902 0
M  V30 21832 H 2027.25 3.24591 1.83562 0
M  V30 21833 N 2029.43 -0.1002 1.57281 0
M  V30 21834 C 2030.38 -1.12192 2.01697 0
M  V30 21835 C 2031.35 -1.40092 0.892374 0
M  V30 21836 O 2032.53 -1.51641 1.158 0
M  V30 21837 C 2029.67 -2.43833 2.44212 0
M  V30 21838 C 2028.79 -2.22707 3.70169 0
M  V30 21839 C 2027.92 -3.47711 4.01585 0
M  V30 21840 C 2026.96 -3.21825 5.20668 0
M  V30 21841 N 2026.1 -4.39081 5.47862 0
M  V30 21842 H 2030.94 -0.736171 2.88764 0
M  V30 21843 H 2028.47 -0.351977 1.42827 0
M  V30 21844 H 2030.43 -3.20652 2.66904 0
M  V30 21845 H 2029.06 -2.80264 1.60162 0
M  V30 21846 H 2028.11 -1.36715 3.54983 0
M  V30 21847 H 2029.43 -1.99568 4.57137 0
M  V30 21848 H 2028.58 -4.3294 4.25027 0
M  V30 21849 H 2027.32 -3.739 3.1313 0
M  V30 21850 H 2026.32 -2.34988 4.97052 0
M  V30 21851 H 2027.55 -2.96987 6.10717 0
M  V30 21852 H 2025.5 -4.65355 4.62364 0
M  V30 21853 H 2025.41 -4.19114 6.2919 0
M  V30 21854 H 2026.68 -5.2539 5.75835 0
M  V30 21855 N 2030.91 -1.53174 -0.370891 0
M  V30 21856 C 2032.16 -1.69098 -1.11409 0
M  V30 21857 C 2032.48 -0.440066 -1.89456 0
M  V30 21858 O 2031.74 0.577901 -1.86973 0
M  V30 21859 C 2032.04 -2.88881 -2.10435 0
M  V30 21860 C 2031.7 -4.25602 -1.48908 0
M  V30 21861 C 2030.37 -4.62782 -1.31856 0
M  V30 21862 C 2032.72 -5.10648 -1.04346 0
M  V30 21863 C 2030.05 -5.8265 -0.688168 0
M  V30 21864 C 2032.4 -6.31157 -0.427093 0
M  V30 21865 C 2031.06 -6.67054 -0.244019 0
M  V30 21866 H 2030.33 -0.618775 -0.407674 0
M  V30 21867 H 2032.98 -1.8735 -0.396513 0
M  V30 21868 H 2031.28 -2.65119 -2.88477 0
M  V30 21869 H 2032.98 -2.98396 -2.67882 0
M  V30 21870 H 2029.57 -3.96324 -1.63173 0
M  V30 21871 H 2033.76 -4.82477 -1.16315 0
M  V30 21872 H 2029.01 -6.09057 -0.53469 0
M  V30 21873 H 2033.19 -6.96361 -0.0735755 0
M  V30 21874 H 2030.81 -7.598 0.246525 0
M  V30 21875 N 2032.39 0.630389 -1.44443 0
M  V30 21876 C 2033.33 1.74232 -1.51367 0
M  V30 21877 C 2034.3 1.62122 -0.361324 0
M  V30 21878 O 2035.49 1.82035 -0.571662 0
M  V30 21879 C 2032.63 3.12481 -1.46457 0
M  V30 21880 C 2031.74 3.35561 -2.72071 0
M  V30 21881 C 2030.88 4.63787 -2.58989 0
M  V30 21882 C 2029.92 4.80048 -3.79764 0
M  V30 21883 N 2029.05 5.99551 -3.65354 0
M  V30 21884 H 2033.89 1.6765 -2.46368 0
M  V30 21885 H 2031.43 0.817807 -1.22272 0
M  V30 21886 H 2033.39 3.92435 -1.41601 0
M  V30 21887 H 2032.02 3.18076 -0.550216 0
M  V30 21888 H 2031.07 2.49543 -2.8711 0
M  V30 21889 H 2032.38 3.43456 -3.61717 0
M  V30 21890 H 2031.54 5.51902 -2.51971 0
M  V30 21891 H 2030.28 4.58251 -1.66905 0
M  V30 21892 H 2029.28 3.90362 -3.87166 0
M  V30 21893 H 2030.51 4.87397 -4.72886 0
M  V30 21894 H 2028.45 5.95104 -2.76021 0
M  V30 21895 H 2028.37 6.08505 -4.48617 0
M  V30 21896 H 2029.64 6.90226 -3.62228 0
M  V30 21897 N 2033.87 1.31354 0.870861 0
M  V30 21898 C 2034.81 1.18858 1.99939 0
M  V30 21899 C 2035.81 0.0970869 1.69122 0
M  V30 21900 O 2037.01 0.258917 1.78128 0
M  V30 21901 H 2033.39 0.367991 0.65581 0
M  V30 21902 H 2035.36 2.14338 2.07609 0
M  V30 21903 C 2034.11 0.911812 3.35531 0
M  V30 21904 H 2033.43 1.74383 3.59765 0
M  V30 21905 H 2034.87 0.864551 4.15092 0
M  V30 21906 C 2033.33 -0.385431 3.34688 0
M  V30 21907 O 2033.86 -1.40251 3.76421 0
M  V30 21908 N 2032.07 -0.401645 2.87811 0
M  V30 21909 H 2031.61 0.426528 2.54044 0
M  V30 21910 H 2031.57 -1.26952 2.87629 0
M  V30 21911 N 2035.34 -1.08505 1.143 0
M  V30 21912 C 2036.59 -1.80872 0.910589 0
M  V30 21913 C 2036.92 -1.86177 -0.562883 0
M  V30 21914 O 2036.17 -1.33282 -1.43299 0
M  V30 21915 C 2036.47 -3.26425 1.45538 0
M  V30 21916 C 2036.14 -3.41239 2.94732 0
M  V30 21917 C 2034.8 -3.44989 3.35464 0
M  V30 21918 C 2037.15 -3.45 3.90672 0
M  V30 21919 C 2034.48 -3.5009 4.70801 0
M  V30 21920 C 2036.83 -3.51637 5.25865 0
M  V30 21921 C 2035.5 -3.53659 5.66111 0
M  V30 21922 H 2034.77 -0.661856 0.333208 0
M  V30 21923 H 2037.41 -1.27762 1.4265 0
M  V30 21924 H 2035.72 -3.82237 0.860376 0
M  V30 21925 H 2037.42 -3.8097 1.25151 0
M  V30 21926 H 2034.01 -3.39011 2.6224 0
M  V30 21927 H 2038.19 -3.41334 3.60284 0
M  V30 21928 H 2033.45 -3.49949 5.01344 0
M  V30 21929 H 2037.62 -3.53492 6.00013 0
M  V30 21930 H 2035.25 -3.57365 6.70965 0
M  V30 21931 N 2036.82 -0.937962 -1.26649 0
M  V30 21932 C 2038.24 -0.639774 -1.46216 0
M  V30 21933 C 2038.44 0.807896 -1.84595 0
M  V30 21934 O 2037.49 1.58484 -1.96568 0
M  V30 21935 C 2038.81 -1.59844 -2.54697 0
M  V30 21936 C 2040.35 -1.60779 -2.6855 0
M  V30 21937 C 2040.83 -2.55367 -3.80199 0
M  V30 21938 N 2042.32 -2.53634 -3.87587 0
M  V30 21939 C 2043.06 -3.23509 -4.73423 0
M  V30 21940 N 2042.55 -4.02798 -5.63671 0
M  V30 21941 N 2044.34 -3.12477 -4.67242 0
M  V30 21942 H 2036.5 -1.87374 -1.00025 0
M  V30 21943 H 2038.76 -0.805036 -0.500621 0
M  V30 21944 H 2038.46 -2.63168 -2.33314 0
M  V30 21945 H 2038.34 -1.34802 -3.5229 0
M  V30 21946 H 2040.73 -0.581808 -2.89308 0
M  V30 21947 H 2040.81 -1.89873 -1.71411 0
M  V30 21948 H 2040.45 -3.58081 -3.60195 0
M  V30 21949 H 2040.38 -2.23564 -4.76788 0
M  V30 21950 H 2042.87 -1.96058 -3.23063 0
M  V30 21951 H 2043.18 -4.53075 -6.26053 0
M  V30 21952 H 2041.53 -4.069 -5.63434 0
M  V30 21953 H 2044.72 -2.50018 -3.95738 0
M  V30 21954 H 2044.89 -3.67201 -5.33917 0
M  V30 21955 N 2038.3 1.40971 -0.704618 0
M  V30 21956 C 2039.55 2.01377 -0.239781 0
M  V30 21957 C 2039.88 1.5571 1.16051 0
M  V30 21958 O 2039.15 0.772278 1.78511 0
M  V30 21959 C 2039.44 3.58784 -0.307556 0
M  V30 21960 C 2039.29 4.14553 -1.74544 0
M  V30 21961 C 2040.61 4.3888 0.327516 0
M  V30 21962 H 2037.73 0.731655 -0.088603 0
M  V30 21963 H 2040.37 1.67597 -0.895048 0
M  V30 21964 H 2038.52 3.87692 0.25036 0
M  V30 21965 H 2040.19 3.96486 -2.3579 0
M  V30 21966 H 2038.43 3.69254 -2.2767 0
M  V30 21967 H 2039.11 5.23715 -1.74433 0
M  V30 21968 H 2041.58 4.15838 -0.147737 0
M  V30 21969 H 2040.46 5.48332 0.249594 0
M  V30 21970 H 2040.72 4.19029 1.40952 0
M  V30 21971 N 2039.78 0.45001 1.51039 0
M  V30 21972 C 2041.01 -0.110336 2.06305 0
M  V30 21973 C 2041.42 -1.35912 1.31623 0
M  V30 21974 O 2040.76 -1.79877 0.372811 0
M  V30 21975 C 2040.82 -0.485388 3.56208 0
M  V30 21976 C 2040.49 0.658381 4.52233 0
M  V30 21977 C 2041.48 1.53427 4.96746 0
M  V30 21978 C 2039.17 0.842718 4.9518 0
M  V30 21979 C 2041.16 2.57908 5.82891 0
M  V30 21980 C 2038.85 1.89078 5.81113 0
M  V30 21981 C 2039.85 2.75734 6.24868 0
M  V30 21982 O 2039.53 3.7874 7.09092 0
M  V30 21983 H 2039.27 -0.0056993 0.675976 0
M  V30 21984 H 2041.82 0.631614 1.95448 0
M  V30 21985 H 2040.05 -1.28022 3.64893 0
M  V30 21986 H 2041.74 -0.978357 3.93933 0
M  V30 21987 H 2042.51 1.40345 4.6425 0
M  V30 21988 H 2038.38 0.177759 4.60657 0
M  V30 21989 H 2041.93 3.25578 6.16964 0
M  V30 21990 H 2037.83 2.02176 6.13021 0
M  V30 21991 H 2038.59 3.75473 7.27298 0
M  V30 21992 N 2041.26 -1.56548 0.18182 0
M  V30 21993 C 2042.49 -2.01282 -0.465719 0
M  V30 21994 C 2042.89 -1.06114 -1.56641 0
M  V30 21995 O 2042.24 -0.0558759 -1.83615 0
M  V30 21996 C 2042.3 -3.42432 -1.09454 0
M  V30 21997 C 2041.96 -4.56803 -0.134223 0
M  V30 21998 C 2042.96 -5.15803 0.651409 0
M  V30 21999 C 2040.65 -5.02293 -0.026997 0
M  V30 22000 C 2042.64 -6.18731 1.53137 0
M  V30 22001 C 2040.33 -6.05068 0.856532 0
M  V30 22002 C 2041.32 -6.63159 1.63429 0
M  V30 22003 O 2041.01 -7.63939 2.50303 0
M  V30 22004 H 2040.74 -0.664789 -0.122603 0
M  V30 22005 H 2043.3 -2.0343 0.283825 0
M  V30 22006 H 2041.53 -3.3723 -1.89242 0
M  V30 22007 H 2043.22 -3.71056 -1.64536 0
M  V30 22008 H 2043.98 -4.81534 0.5788 0
M  V30 22009 H 2039.86 -4.56782 -0.622173 0
M  V30 22010 H 2043.41 -6.64001 2.13888 0
M  V30 22011 H 2039.3 -6.38761 0.930305 0
M  V30 22012 H 2040.07 -7.81305 2.43935 0
M  V30 22013 N 2042.73 0.0918577 -1.57332 0
M  V30 22014 C 2044.15 0.446151 -1.53237 0
M  V30 22015 C 2044.35 1.80332 -0.899027 0
M  V30 22016 O 2043.41 2.47642 -0.492921 0
M  V30 22017 C 2044.72 0.405662 -2.97951 0
M  V30 22018 C 2046.27 0.487286 -3.09184 0
M  V30 22019 C 2046.74 0.476912 -4.5551 0
M  V30 22020 N 2048.23 0.537573 -4.6007 0
M  V30 22021 C 2048.97 0.551436 -5.70742 0
M  V30 22022 N 2048.46 0.521312 -6.90836 0
M  V30 22023 N 2050.26 0.59649 -5.58926 0
M  V30 22024 H 2042.41 -0.797061 -1.96877 0
M  V30 22025 H 2044.67 -0.297022 -0.900268 0
M  V30 22026 H 2044.38 -0.524467 -3.47768 0
M  V30 22027 H 2044.25 1.22343 -3.56808 0
M  V30 22028 H 2046.64 1.40783 -2.59353 0
M  V30 22029 H 2046.72 -0.358678 -2.53273 0
M  V30 22030 H 2046.36 -0.439705 -5.05993 0
M  V30 22031 H 2046.29 1.34013 -5.09262 0
M  V30 22032 H 2048.78 0.565916 -3.73639 0
M  V30 22033 H 2049.1 0.535263 -7.70944 0
M  V30 22034 H 2047.44 0.48831 -6.93282 0
M  V30 22035 H 2050.63 0.617576 -4.64008 0
M  V30 22036 H 2050.81 0.603826 -6.45181 0
M  V30 22037 N 2044.21 1.53368 0.362763 0
M  V30 22038 C 2045.12 1.82969 1.46832 0
M  V30 22039 C 2046.14 0.718285 1.58482 0
M  V30 22040 O 2047.31 1.00863 1.74323 0
M  V30 22041 C 2044.38 2.01596 2.82064 0
M  V30 22042 C 2043.44 3.25491 2.79918 0
M  V30 22043 C 2042.67 3.4322 4.087 0
M  V30 22044 O 2042.9 2.65185 5.05008 0
M  V30 22045 O 2041.83 4.36585 4.1434 0
M  V30 22046 H 2045.66 2.769 1.24741 0
M  V30 22047 H 2043.24 1.38783 0.553131 0
M  V30 22048 H 2045.12 2.15403 3.62187 0
M  V30 22049 H 2043.8 1.10854 3.04127 0
M  V30 22050 H 2042.71 3.17105 1.98483 0
M  V30 22051 H 2044.04 4.16164 2.62809 0
M  V30 22052 N 2045.69 -0.62272 1.44776 0
M  V30 22053 C 2046.94 -1.37937 1.47708 0
M  V30 22054 C 2047.26 -1.94665 0.114186 0
M  V30 22055 O 2046.53 -1.76277 -0.854583 0
M  V30 22056 H 2045.11 -0.512023 0.543914 0
M  V30 22057 H 2047.77 -0.732336 1.80618 0
M  V30 22058 H 2046.87 -2.20646 2.2073 0
M  V30 22059 N 2047.17 -1.31814 -0.863883 0
M  V30 22060 C 2048.58 -1.10603 -1.15061 0
M  V30 22061 C 2048.78 0.119526 -2.01145 0
M  V30 22062 O 2047.84 0.807099 -2.39253 0
M  V30 22063 C 2049.15 -2.38075 -1.83686 0
M  V30 22064 C 2050.7 -2.43744 -1.96361 0
M  V30 22065 C 2051.18 -3.71113 -2.68401 0
M  V30 22066 N 2052.67 -3.72042 -2.75933 0
M  V30 22067 C 2053.4 -4.67294 -3.32301 0
M  V30 22068 N 2052.9 -5.72905 -3.89553 0
M  V30 22069 N 2054.69 -4.54804 -3.30317 0
M  V30 22070 H 2046.84 -2.10406 -0.290393 0
M  V30 22071 H 2049.11 -0.928505 -0.191264 0
M  V30 22072 H 2048.81 -3.27625 -1.27885 0
M  V30 22073 H 2048.69 -2.48336 -2.83917 0
M  V30 22074 H 2051.07 -1.54659 -2.51326 0
M  V30 22075 H 2051.15 -2.37443 -0.951544 0
M  V30 22076 H 2050.8 -4.60567 -2.14103 0
M  V30 22077 H 2050.73 -3.74682 -3.70028 0
M  V30 22078 H 2053.22 -2.95701 -2.35307 0
M  V30 22079 H 2053.53 -6.41656 -4.30694 0
M  V30 22080 H 2051.88 -5.76671 -3.87911 0
M  V30 22081 H 2055.07 -3.71468 -2.84832 0
M  V30 22082 H 2055.24 -5.29213 -3.73948 0
M  V30 22083 N 2048.65 1.07897 -1.14873 0
M  V30 22084 C 2049.92 1.77077 -0.830842 0
M  V30 22085 C 2050.3 2.00029 0.674654 0
M  V30 22086 O 2049.65 1.61429 1.61719 0
M  V30 22087 C 2049.86 3.08311 -1.63541 0
M  V30 22088 C 2051.21 3.82753 -1.83808 0
M  V30 22089 O 2052.23 3.18107 -1.6027 0
M  V30 22090 O 2051.09 4.98846 -2.23192 0
M  V30 22091 H 2048.19 0.768708 -0.304987 0
M  V30 22092 H 2050.73 1.14313 -1.25422 0
M  V30 22093 H 2049.5 2.87188 -2.6578 0
M  V30 22094 H 2049.13 3.78805 -1.208 0
M  V30 22095 N 2050.12 0.944665 1.2615 0
M  V30 22096 C 2051.06 0.414303 2.25424 0
M  V30 22097 C 2052.07 -0.464345 1.56037 0
M  V30 22098 O 2053.26 -0.274229 1.76381 0
M  V30 22099 C 2050.36 -0.423331 3.36246 0
M  V30 22100 C 2049.53 0.439977 4.35182 0
M  V30 22101 C 2048.59 -0.337801 5.25115 0
M  V30 22102 O 2047.62 0.260373 5.68604 0
M  V30 22103 N 2048.82 -1.63346 5.57044 0
M  V30 22104 H 2051.58 1.26775 2.71566 0
M  V30 22105 H 2049.14 0.813928 1.39953 0
M  V30 22106 H 2051.14 -0.951131 3.93364 0
M  V30 22107 H 2049.71 -1.17759 2.89571 0
M  V30 22108 H 2048.93 1.14896 3.77084 0
M  V30 22109 H 2050.21 1.02957 4.98274 0
M  V30 22110 H 2049.61 -2.14152 5.23599 0
M  V30 22111 H 2048.17 -2.10743 6.16791 0
M  V30 22112 N 2051.6 -1.40596 0.712085 0
M  V30 22113 C 2052.53 -2.33389 0.0719438 0
M  V30 22114 C 2053.51 -1.52706 -0.749334 0
M  V30 22115 O 2054.7 -1.81185 -0.698968 0
M  V30 22116 C 2051.83 -3.36659 -0.853122 0
M  V30 22117 C 2050.78 -4.27778 -0.137724 0
M  V30 22118 C 2050.11 -5.21556 -1.17827 0
M  V30 22119 C 2051.41 -5.12521 1.00597 0
M  V30 22120 H 2053.1 -2.87169 0.847002 0
M  V30 22121 H 2050.65 -1.38077 0.408756 0
M  V30 22122 H 2052.6 -4.00511 -1.31031 0
M  V30 22123 H 2051.33 -2.81266 -1.66004 0
M  V30 22124 H 2049.98 -3.65374 0.299603 0
M  V30 22125 H 2049.63 -4.6247 -1.97814 0
M  V30 22126 H 2049.33 -5.83361 -0.704503 0
M  V30 22127 H 2050.86 -5.88285 -1.63563 0
M  V30 22128 H 2052.27 -5.69847 0.62831 0
M  V30 22129 H 2050.67 -5.83351 1.40789 0
M  V30 22130 H 2051.74 -4.48706 1.83822 0
M  V30 22131 N 2053.08 -0.458013 -1.50798 0
M  V30 22132 C 2054.33 0.0937906 -2.03184 0
M  V30 22133 C 2054.68 1.38571 -1.33476 0
M  V30 22134 O 2053.97 1.86304 -0.447373 0
M  V30 22135 C 2054.17 0.346589 -3.55716 0
M  V30 22136 C 2054 -0.919282 -4.40204 0
M  V30 22137 C 2052.77 -1.45882 -4.83784 0
M  V30 22138 C 2054.97 -1.81113 -4.81355 0
M  V30 22139 N 2052.95 -2.67507 -5.52551 0
M  V30 22140 C 2054.32 -2.87332 -5.494 0
M  V30 22141 C 2056.37 -1.82308 -4.63323 0
M  V30 22142 C 2055.08 -3.94718 -6.01324 0
M  V30 22143 C 2057.1 -2.88642 -5.16178 0
M  V30 22144 C 2056.46 -3.9358 -5.84187 0
M  V30 22145 H 2052.56 -0.00537405 -0.781982 0
M  V30 22146 H 2055.15 -0.623303 -1.84453 0
M  V30 22147 H 2053.32 1.03272 -3.74419 0
M  V30 22148 H 2055.05 0.891577 -3.94757 0
M  V30 22149 H 2051.81 -1.00982 -4.62709 0
M  V30 22150 H 2052.23 -3.29238 -5.9155 0
M  V30 22151 H 2056.87 -1.025 -4.10187 0
M  V30 22152 H 2054.59 -4.75351 -6.53504 0
M  V30 22153 H 2058.18 -2.90534 -5.04065 0
M  V30 22154 H 2057.06 -4.74507 -6.2435 0
M  V30 22155 N 2054.56 1.56449 -0.190119 0
M  V30 22156 C 2055.51 2.1886 0.732745 0
M  V30 22157 C 2056.48 1.1343 1.21338 0
M  V30 22158 O 2057.66 1.4166 1.27817 0
M  V30 22159 C 2054.8 2.84809 1.94878 0
M  V30 22160 C 2053.91 4.04751 1.50998 0
M  V30 22161 C 2053.05 4.58572 2.68114 0
M  V30 22162 C 2052.09 5.70883 2.20815 0
M  V30 22163 N 2051.23 6.19132 3.3109 0
M  V30 22164 H 2056.07 2.97369 0.193776 0
M  V30 22165 H 2053.6 1.46861 0.0839065 0
M  V30 22166 H 2055.56 3.21213 2.66229 0
M  V30 22167 H 2054.19 2.08872 2.46115 0
M  V30 22168 H 2053.24 3.74043 0.69252 0
M  V30 22169 H 2054.55 4.85996 1.12292 0
M  V30 22170 H 2053.71 4.97256 3.47594 0
M  V30 22171 H 2052.45 3.76425 3.1009 0
M  V30 22172 H 2051.45 5.31733 1.39786 0
M  V30 22173 H 2052.68 6.54845 1.79875 0
M  V30 22174 H 2050.62 5.39908 3.72607 0
M  V30 22175 H 2050.54 6.95415 2.96538 0
M  V30 22176 H 2051.81 6.62468 4.108 0
M  V30 22177 N 2056.04 -0.0835127 1.57379 0
M  V30 22178 C 2057.29 -0.783318 1.86302 0
M  V30 22179 C 2057.61 -1.787 0.780472 0
M  V30 22180 O 2056.88 -1.94956 -0.192101 0
M  V30 22181 H 2055.46 -0.292281 0.687445 0
M  V30 22182 H 2058.12 -0.0623868 1.948 0
M  V30 22183 H 2057.21 -1.30677 2.83425 0
M  V30 22184 N 2057.52 -1.53558 -0.354624 0
M  V30 22185 C 2058.93 -1.6184 -0.930847 0
M  V30 22186 C 2059.28 -0.492698 -1.89913 0
M  V30 22187 O 2058.4 0.379247 -2.13051 0
M  V30 22188 C 2059 -2.93348 -1.69506 0
M  V30 22189 C 2057.56 -3.03929 -2.22046 0
M  V30 22190 C 2056.7 -2.57213 -1.03618 0
M  V30 22191 H 2059.65 -1.58141 -0.133086 0
M  V30 22192 H 2059.68 -2.81766 -2.55711 0
M  V30 22193 H 2059.19 -3.75259 -0.990072 0
M  V30 22194 H 2057.29 -2.26629 -2.95753 0
M  V30 22195 H 2057.4 -4.09204 -2.49176 0
M  V30 22196 H 2055.77 -2.12352 -1.40636 0
M  V30 22197 H 2056.55 -3.41552 -0.346003 0
M  V30 22198 N 2058.99 0.615033 -1.45104 0
M  V30 22199 C 2060.24 1.37152 -1.48438 0
M  V30 22200 C 2060.56 1.94602 -0.124508 0
M  V30 22201 O 2059.83 1.76728 0.845222 0
M  V30 22202 H 2058.41 0.509131 -0.546621 0
M  V30 22203 H 2061.07 0.722747 -1.81004 0
M  V30 22204 H 2060.17 2.19472 -2.21898 0
M  V30 22205 N 2060.47 1.3227 0.85688 0
M  V30 22206 C 2061.38 1.23012 1.99763 0
M  V30 22207 C 2062.4 0.144168 1.73402 0
M  V30 22208 O 2063.57 0.364429 1.98075 0
M  V30 22209 C 2060.64 0.951293 3.33394 0
M  V30 22210 C 2059.7 2.12547 3.72991 0
M  V30 22211 C 2058.93 1.85984 5.00245 0
M  V30 22212 O 2059.16 0.801321 5.64743 0
M  V30 22213 O 2058.09 2.72029 5.36921 0
M  V30 22214 H 2061.92 2.18906 2.10509 0
M  V30 22215 H 2059.5 1.12138 0.987193 0
M  V30 22216 H 2061.38 0.812192 4.13499 0
M  V30 22217 H 2060.06 0.0224976 3.23692 0
M  V30 22218 H 2058.96 2.32003 2.93471 0
M  V30 22219 H 2060.3 3.03697 3.87336 0
M  V30 22220 N 2061.95 -1.07287 1.15444 0
M  V30 22221 C 2062.88 -2.16494 0.87478 0
M  V30 22222 C 2063.86 -1.69199 -0.174882 0
M  V30 22223 O 2065.05 -1.94178 -0.0291162 0
M  V30 22224 C 2062.18 -3.45387 0.364018 0
M  V30 22225 C 2061.13 -4.06137 1.35043 0
M  V30 22226 C 2060.46 -5.30118 0.69849 0
M  V30 22227 C 2061.76 -4.46089 2.71665 0
M  V30 22228 H 2063.45 -2.40146 1.78802 0
M  V30 22229 H 2061 -1.15415 0.861124 0
M  V30 22230 H 2062.95 -4.21111 0.15591 0
M  V30 22231 H 2061.67 -3.21324 -0.58469 0
M  V30 22232 H 2060.33 -3.32458 1.54491 0
M  V30 22233 H 2059.98 -5.02346 -0.256386 0
M  V30 22234 H 2059.68 -5.71721 1.35679 0
M  V30 22235 H 2061.2 -6.08548 0.500171 0
M  V30 22236 H 2062.62 -5.12939 2.56059 0
M  V30 22237 H 2061.01 -4.98645 3.33876 0
M  V30 22238 H 2062.08 -3.57427 3.2768 0
M  V30 22239 N 2063.43 -0.951342 -1.25647 0
M  V30 22240 C 2064.36 -0.486897 -2.28367 0
M  V30 22241 C 2065.34 0.465072 -1.63619 0
M  V30 22242 O 2066.52 0.364737 -1.90744 0
M  V30 22243 C 2063.65 0.239229 -3.46475 0
M  V30 22244 C 2062.61 -0.627163 -4.2338 0
M  V30 22245 C 2061.93 0.229514 -5.34207 0
M  V30 22246 C 2063.23 -1.90362 -4.86374 0
M  V30 22247 H 2064.93 -1.34542 -2.67467 0
M  V30 22248 H 2062.47 -0.648383 -1.28577 0
M  V30 22249 H 2064.43 0.575251 -4.17455 0
M  V30 22250 H 2063.15 1.13197 -3.06356 0
M  V30 22251 H 2061.81 -0.946222 -3.54178 0
M  V30 22252 H 2061.46 1.12192 -4.90328 0
M  V30 22253 H 2061.16 -0.346852 -5.86575 0
M  V30 22254 H 2062.68 0.560578 -6.08021 0
M  V30 22255 H 2064.1 -1.63422 -5.49515 0
M  V30 22256 H 2062.49 -2.42538 -5.48904 0
M  V30 22257 H 2063.56 -2.60876 -4.08744 0
M  V30 22258 N 2064.91 1.40216 -0.719531 0
M  V30 22259 C 2066.15 2.016 -0.269965 0
M  V30 22260 C 2066.51 1.56043 1.12554 0
M  V30 22261 O 2065.8 0.772364 1.75343 0
M  V30 22262 C 2065.99 3.56196 -0.293164 0
M  V30 22263 C 2065.82 4.16761 -1.68939 0
M  V30 22264 C 2064.59 4.50023 -2.29798 0
M  V30 22265 C 2066.79 4.41352 -2.64031 0
M  V30 22266 N 2064.77 4.96005 -3.61735 0
M  V30 22267 C 2066.14 4.89369 -3.8068 0
M  V30 22268 C 2068.2 4.23396 -2.61992 0
M  V30 22269 C 2066.9 5.21315 -4.95603 0
M  V30 22270 C 2068.93 4.56446 -3.76046 0
M  V30 22271 C 2068.29 5.04656 -4.91428 0
M  V30 22272 H 2064.39 0.768495 -0.144706 0
M  V30 22273 H 2066.97 1.70385 -0.942176 0
M  V30 22274 H 2065.14 3.86832 0.348627 0
M  V30 22275 H 2066.88 4.04328 0.173485 0
M  V30 22276 H 2063.63 4.37292 -1.8186 0
M  V30 22277 H 2064.05 5.23373 -4.2943 0
M  V30 22278 H 2068.7 3.85341 -1.7399 0
M  V30 22279 H 2066.41 5.58284 -5.84247 0
M  V30 22280 H 2070 4.4419 -3.75748 0
M  V30 22281 H 2068.88 5.29747 -5.78219 0
M  V30 22282 N 2066.38 0.466004 1.50553 0
M  V30 22283 C 2067.33 -0.330804 2.28417 0
M  V30 22284 C 2068.3 -0.991708 1.33246 0
M  V30 22285 O 2069.49 -1.00512 1.62179 0
M  V30 22286 C 2066.63 -1.40978 3.14991 0
M  V30 22287 C 2065.74 -0.76416 4.25188 0
M  V30 22288 C 2064.87 -1.8206 4.99027 0
M  V30 22289 C 2063.91 -1.15495 6.01105 0
M  V30 22290 N 2063.05 -2.15401 6.68242 0
M  V30 22291 H 2067.89 0.339504 2.9606 0
M  V30 22292 H 2065.43 0.179273 1.46003 0
M  V30 22293 H 2067.38 -2.04695 3.63532 0
M  V30 22294 H 2066.01 -2.04932 2.49405 0
M  V30 22295 H 2065.07 -0.0145483 3.80397 0
M  V30 22296 H 2066.38 -0.238458 4.9823 0
M  V30 22297 H 2065.53 -2.5337 5.51261 0
M  V30 22298 H 2064.27 -2.38009 4.25679 0
M  V30 22299 H 2063.28 -0.427447 5.48136 0
M  V30 22300 H 2064.5 -0.602414 6.76423 0
M  V30 22301 H 2062.45 -2.70378 5.97689 0
M  V30 22302 H 2062.36 -1.67802 7.37142 0
M  V30 22303 H 2063.63 -2.86107 7.25095 0
M  V30 22304 N 2067.86 -1.56346 0.198413 0
M  V30 22305 C 2069.11 -1.97283 -0.438612 0
M  V30 22306 C 2069.43 -1.08657 -1.61922 0
M  V30 22307 O 2068.7 -0.158561 -1.95257 0
M  V30 22308 H 2067.28 -0.728541 -0.165035 0
M  V30 22309 H 2069.94 -1.92791 0.285919 0
M  V30 22310 H 2069.04 -3.02183 -0.780516 0
M  V30 22311 N 2069.34 0.0751653 -1.57421 0
M  V30 22312 C 2070.25 1.10763 -2.06806 0
M  V30 22313 C 2071.27 1.4261 -0.99691 0
M  V30 22314 O 2072.44 1.52854 -1.31139 0
M  V30 22315 C 2069.51 2.40281 -2.49932 0
M  V30 22316 C 2068.57 2.15435 -3.7133 0
M  V30 22317 C 2067.8 3.38777 -4.1239 0
M  V30 22318 O 2068.02 4.4777 -3.53353 0
M  V30 22319 O 2066.96 3.27189 -5.05204 0
M  V30 22320 H 2070.78 0.718102 -2.95088 0
M  V30 22321 H 2068.37 0.289065 -1.46577 0
M  V30 22322 H 2070.25 3.16509 -2.78208 0
M  V30 22323 H 2068.93 2.7862 -1.64781 0
M  V30 22324 H 2067.83 1.36922 -3.48142 0
M  V30 22325 H 2069.17 1.81978 -4.57324 0
M  V30 22326 N 2070.82 1.53744 0.346476 0
M  V30 22327 C 2072.07 1.70512 1.0849 0
M  V30 22328 C 2072.39 0.469467 1.89264 0
M  V30 22329 O 2071.66 -0.516594 1.88966 0
M  V30 22330 H 2070.24 0.628636 0.403517 0
M  V30 22331 H 2072.9 1.9099 0.388459 0
M  V30 22332 H 2072 2.57472 1.76394 0
M  V30 22333 N 2072.3 -0.607329 1.45428 0
M  V30 22334 C 2073.26 -1.69997 1.53732 0
M  V30 22335 C 2074.26 -1.55304 0.416799 0
M  V30 22336 O 2075.45 -1.60367 0.680287 0
M  V30 22337 C 2072.58 -3.09267 1.43411 0
M  V30 22338 H 2073.77 -1.64001 2.51085 0
M  V30 22339 H 2071.33 -0.82308 1.32872 0
M  V30 22340 H 2072.06 -3.2084 0.47243 0
M  V30 22341 H 2071.85 -3.2134 2.24685 0
M  V30 22342 H 2073.34 -3.88855 1.52255 0
M  V30 22343 N 2073.77 -1.32722 -0.849853 0
M  V30 22344 C 2075.02 -1.23739 -1.60675 0
M  V30 22345 C 2075.35 0.199183 -1.93176 0
M  V30 22346 O 2074.63 1.13761 -1.57761 0
M  V30 22347 C 2074.91 -2.10183 -2.92395 0
M  V30 22348 C 2074.76 -3.62243 -2.66646 0
M  V30 22349 C 2076.08 -1.96664 -3.93715 0
M  V30 22350 H 2073.2 -0.45085 -0.583013 0
M  V30 22351 H 2075.84 -1.62716 -0.980999 0
M  V30 22352 H 2073.99 -1.77072 -3.458 0
M  V30 22353 H 2075.67 -4.05591 -2.19758 0
M  V30 22354 H 2073.91 -3.8467 -2.00529 0
M  V30 22355 H 2074.58 -4.1806 -3.60458 0
M  V30 22356 H 2077.06 -2.25679 -3.49583 0
M  V30 22357 H 2075.93 -2.59417 -4.83729 0
M  V30 22358 H 2076.19 -0.935664 -4.32085 0
M  V30 22359 N 2075.25 1.06673 -1.16011 0
M  V30 22360 C 2076.5 1.78785 -0.933751 0
M  V30 22361 C 2076.81 1.87999 0.539969 0
M  V30 22362 O 2078.02 2.56701 0.884117 0
M  V30 22363 C 2076.48 3.21313 -1.6213 0
M  V30 22364 C 2076.08 3.20277 -3.13252 0
M  V30 22365 C 2077.83 3.97985 -1.47675 0
M  V30 22366 C 2075.74 4.57501 -3.74762 0
M  V30 22367 H 2074.67 0.670074 -0.345711 0
M  V30 22368 H 2077.32 1.19679 -1.39101 0
M  V30 22369 H 2075.7 3.80653 -1.09174 0
M  V30 22370 H 2076.87 2.70541 -3.7302 0
M  V30 22371 H 2075.19 2.57103 -3.27547 0
M  V30 22372 H 2077.78 4.99417 -1.91016 0
M  V30 22373 H 2078.13 4.14123 -0.425173 0
M  V30 22374 H 2078.66 3.45157 -1.97766 0
M  V30 22375 H 2075.4 4.46568 -4.79851 0
M  V30 22376 H 2074.92 5.07446 -3.19778 0
M  V30 22377 H 2076.6 5.26463 -3.76093 0
M  V30 22378 N 2076.73 0.957992 1.25141 0
M  V30 22379 C 2077.66 0.499001 2.28106 0
M  V30 22380 C 2078.64 -0.456388 1.63863 0
M  V30 22381 O 2079.83 -0.354616 1.90935 0
M  V30 22382 C 2076.96 -0.220851 3.46597 0
M  V30 22383 C 2075.91 0.649607 4.23042 0
M  V30 22384 C 2075.24 -0.201181 5.34321 0
M  V30 22385 C 2076.54 1.92939 4.85357 0
M  V30 22386 H 2078.23 1.35959 2.6675 0
M  V30 22387 H 2075.78 0.655192 1.28231 0
M  V30 22388 H 2077.73 -0.553105 4.17754 0
M  V30 22389 H 2076.45 -1.11571 3.06952 0
M  V30 22390 H 2075.11 0.964992 3.53671 0
M  V30 22391 H 2074.76 -1.0959 4.90917 0
M  V30 22392 H 2074.46 0.377954 5.86383 0
M  V30 22393 H 2075.98 -0.528325 6.0831 0
M  V30 22394 H 2077.4 1.66333 5.4864 0
M  V30 22395 H 2075.8 2.45445 5.4761 0
M  V30 22396 H 2076.87 2.6304 4.07355 0
M  V30 22397 N 2078.21 -1.39832 0.726957 0
M  V30 22398 C 2079.16 -2.30655 0.0817379 0
M  V30 22399 C 2080.13 -1.48792 -0.738257 0
M  V30 22400 O 2081.31 -1.775 -0.699873 0
M  V30 22401 C 2078.45 -3.35079 -0.825599 0
M  V30 22402 C 2077.56 -4.32 0.006145 0
M  V30 22403 C 2076.7 -5.23491 -0.90172 0
M  V30 22404 C 2075.74 -6.12066 -0.064744 0
M  V30 22405 N 2074.87 -6.95939 -0.928103 0
M  V30 22406 H 2079.71 -2.85263 0.861906 0
M  V30 22407 H 2077.25 -1.40468 0.436709 0
M  V30 22408 H 2079.21 -3.94203 -1.36602 0
M  V30 22409 H 2077.84 -2.81946 -1.57183 0
M  V30 22410 H 2076.89 -3.74562 0.66389 0
M  V30 22411 H 2078.2 -4.94499 0.65365 0
M  V30 22412 H 2077.36 -5.87602 -1.51027 0
M  V30 22413 H 2076.1 -4.61294 -1.58302 0
M  V30 22414 H 2075.1 -5.46975 0.556665 0
M  V30 22415 H 2076.33 -6.76326 0.613222 0
M  V30 22416 H 2074.27 -6.36318 -1.59484 0
M  V30 22417 H 2074.19 -7.55249 -0.336895 0
M  V30 22418 H 2075.46 -7.64487 -1.52247 0
M  V30 22419 N 2079.69 -0.473982 -1.50304 0
M  V30 22420 C 2080.93 0.0801282 -2.02642 0
M  V30 22421 C 2081.27 1.3911 -1.35506 0
M  V30 22422 O 2080.54 1.8844 -0.481719 0
M  V30 22423 C 2080.82 0.26092 -3.59153 0
M  V30 22424 C 2080.68 -1.07128 -4.36857 0
M  V30 22425 C 2082 1.01413 -4.28256 0
M  V30 22426 H 2079.11 0.0276467 -0.736481 0
M  V30 22427 H 2081.76 -0.620135 -1.79595 0
M  V30 22428 H 2079.91 0.857378 -3.78921 0
M  V30 22429 H 2081.58 -1.70454 -4.28653 0
M  V30 22430 H 2079.82 -1.66721 -4.00483 0
M  V30 22431 H 2080.49 -0.898389 -5.4464 0
M  V30 22432 H 2082.97 0.508536 -4.12981 0
M  V30 22433 H 2081.84 1.10943 -5.37571 0
M  V30 22434 H 2082.11 2.05141 -3.91624 0
M  V30 22435 N 2081.16 1.56239 -0.206702 0
M  V30 22436 C 2082.41 1.97513 0.428144 0
M  V30 22437 C 2082.73 1.09514 1.61343 0
M  V30 22438 O 2082 0.168913 1.9517 0
M  V30 22439 H 2080.58 0.729406 0.161169 0
M  V30 22440 H 2083.25 1.92637 -0.296139 0
M  V30 22441 H 2082.34 3.02592 0.764479 0
M  V30 22442 N 2082.64 -0.0668159 1.57458 0
M  V30 22443 C 2083.87 -0.777815 1.91723 0
M  V30 22444 C 2084.29 -1.70866 0.803128 0
M  V30 22445 O 2083.64 -1.8113 -0.223207 0
M  V30 22446 C 2083.69 -1.56722 3.25761 0
M  V30 22447 O 2083.41 -0.673779 4.32888 0
M  V30 22448 C 2084.92 -2.37877 3.74071 0
M  V30 22449 H 2082.14 -0.220863 0.633609 0
M  V30 22450 H 2084.68 -0.0355987 2.04469 0
M  V30 22451 H 2082.83 -2.26166 3.14527 0
M  V30 22452 H 2083.25 -1.22335 5.10034 0
M  V30 22453 H 2084.72 -2.88716 4.70476 0
M  V30 22454 H 2085.2 -3.17625 3.03334 0
M  V30 22455 H 2085.81 -1.73579 3.88266 0
M  V30 22456 N 2084.12 -1.53926 -0.338317 0
M  V30 22457 C 2085.4 -1.62057 -1.09531 0
M  V30 22458 C 2085.78 -0.445104 -2.06354 0
M  V30 22459 O 2085.13 0.56212 -2.21478 0
M  V30 22460 C 2085.34 -2.98376 -1.81033 0
M  V30 22461 C 2086.68 -3.53912 -2.34589 0
M  V30 22462 O 2087.71 -3.00584 -1.91122 0
M  V30 22463 O 2086.57 -4.472 -3.14125 0
M  V30 22464 H 2083.66 -0.655673 -0.504006 0
M  V30 22465 H 2086.21 -1.66272 -0.339391 0
M  V30 22466 H 2084.98 -3.75366 -1.10525 0
M  V30 22467 H 2084.6 -2.97774 -2.6347 0
M  V30 22468 N 2085.6 0.599608 -1.45748 0
M  V30 22469 C 2086.85 1.35451 -1.49452 0
M  V30 22470 C 2087.16 1.95072 -0.143637 0
M  V30 22471 O 2088.37 2.71437 -0.0583691 0
M  V30 22472 C 2086.82 2.454 -2.63262 0
M  V30 22473 C 2086.43 1.92156 -4.04698 0
M  V30 22474 C 2088.18 3.22339 -2.7622 0
M  V30 22475 C 2086.08 2.99633 -5.09876 0
M  V30 22476 H 2085.01 0.509134 -0.556146 0
M  V30 22477 H 2087.66 0.641777 -1.71911 0
M  V30 22478 H 2086.05 3.19395 -2.34101 0
M  V30 22479 H 2087.22 1.24817 -4.43574 0
M  V30 22480 H 2085.53 1.27937 -3.96259 0
M  V30 22481 H 2088.13 4.02519 -3.5197 0
M  V30 22482 H 2088.47 3.73854 -1.83135 0
M  V30 22483 H 2089.01 2.55446 -3.04946 0
M  V30 22484 H 2085.75 2.53026 -6.04697 0
M  V30 22485 H 2085.27 3.65514 -4.75562 0
M  V30 22486 H 2086.95 3.63878 -5.34978 0
M  V30 22487 N 2087.08 1.33171 0.842803 0
M  V30 22488 C 2088.02 1.23097 1.95232 0
M  V30 22489 C 2088.99 0.110469 1.65732 0
M  V30 22490 O 2090.18 0.288065 1.88613 0
M  V30 22491 C 2087.32 0.972118 3.31125 0
M  V30 22492 C 2086.43 2.17852 3.73047 0
M  V30 22493 C 2085.57 1.85415 4.9779 0
M  V30 22494 C 2084.61 3.0231 5.32236 0
M  V30 22495 N 2083.74 2.69887 6.48156 0
M  V30 22496 H 2088.58 2.17995 2.03181 0
M  V30 22497 H 2086.12 1.08406 0.994308 0
M  V30 22498 H 2088.08 0.802486 4.09409 0
M  V30 22499 H 2086.71 0.0598977 3.22744 0
M  V30 22500 H 2085.76 2.45803 2.90318 0
M  V30 22501 H 2087.07 3.05254 3.94489 0
M  V30 22502 H 2086.23 1.65073 5.83812 0
M  V30 22503 H 2084.97 0.952447 4.78309 0
M  V30 22504 H 2083.97 3.2327 4.44721 0
M  V30 22505 H 2085.2 3.93229 5.53667 0
M  V30 22506 H 2083.14 1.82271 6.30169 0
M  V30 22507 H 2083.06 3.50818 6.69673 0
M  V30 22508 H 2084.33 2.53002 7.37299 0
M  V30 22509 N 2088.56 -1.06056 1.16576 0
M  V30 22510 C 2089.8 -1.79164 0.950155 0
M  V30 22511 C 2090.13 -1.87092 -0.520588 0
M  V30 22512 O 2089.41 -1.36429 -1.38627 0
M  V30 22513 C 2089.69 -3.23525 1.58125 0
M  V30 22514 C 2089.55 -3.23663 3.1235 0
M  V30 22515 C 2090.86 -4.21138 1.27792 0
M  V30 22516 H 2087.98 -0.650413 0.3466 0
M  V30 22517 H 2090.63 -1.24019 1.43942 0
M  V30 22518 H 2088.78 -3.70615 1.16521 0
M  V30 22519 H 2090.45 -2.84716 3.62953 0
M  V30 22520 H 2088.69 -2.62248 3.45555 0
M  V30 22521 H 2089.36 -4.25512 3.51629 0
M  V30 22522 H 2091.84 -3.82502 1.63803 0
M  V30 22523 H 2090.71 -5.20408 1.74547 0
M  V30 22524 H 2090.97 -4.4166 0.197169 0
M  V30 22525 N 2090.03 -0.964615 -1.24631 0
M  V30 22526 C 2091.28 -0.625742 -1.92905 0
M  V30 22527 C 2091.61 0.836529 -1.75259 0
M  V30 22528 O 2090.89 1.60146 -1.10379 0
M  V30 22529 C 2091.17 -0.997473 -3.46009 0
M  V30 22530 C 2091.02 -2.51621 -3.72836 0
M  V30 22531 C 2092.34 -0.529778 -4.369 0
M  V30 22532 H 2089.46 -0.228804 -0.700584 0
M  V30 22533 H 2092.1 -1.20306 -1.47059 0
M  V30 22534 H 2090.25 -0.506207 -3.85188 0
M  V30 22535 H 2091.93 -3.082 -3.43235 0
M  V30 22536 H 2090.17 -2.94954 -3.18095 0
M  V30 22537 H 2090.84 -2.72681 -4.79947 0
M  V30 22538 H 2093.32 -0.951326 -4.05079 0
M  V30 22539 H 2092.19 -0.818472 -5.42764 0
M  V30 22540 H 2092.45 0.570178 -4.38408 0
M  V30 22541 N 2091.51 1.39445 -0.734362 0
M  V30 22542 C 2092.92 1.8335 -0.352097 0
M  V30 22543 C 2093.27 1.61344 1.11635 0
M  V30 22544 O 2092.4 1.10427 1.86105 0
M  V30 22545 C 2092.99 3.32848 -0.632286 0
M  V30 22546 C 2091.55 3.75174 -0.303522 0
M  V30 22547 C 2090.7 2.62452 -0.895228 0
M  V30 22548 H 2093.65 1.28446 -0.932054 0
M  V30 22549 H 2093.67 3.80378 0.0961584 0
M  V30 22550 H 2093.18 3.48832 -1.70111 0
M  V30 22551 H 2091.28 3.64777 0.759492 0
M  V30 22552 H 2091.4 4.72615 -0.785637 0
M  V30 22553 H 2089.76 2.52658 -0.321907 0
M  V30 22554 H 2090.54 2.81242 -1.9687 0
M  V30 22555 N 2092.99 0.481946 1.5005 0
M  V30 22556 C 2094.41 0.13674 1.59013 0
M  V30 22557 C 2094.61 -1.35753 1.48908 0
M  V30 22558 O 2093.66 -2.1318 1.35316 0
M  V30 22559 C 2094.97 0.696597 2.9252 0
M  V30 22560 C 2096.52 0.660993 3.05941 0
M  V30 22561 C 2097 1.19858 4.42038 0
M  V30 22562 N 2098.49 1.15846 4.4848 0
M  V30 22563 C 2099.22 1.54481 5.52199 0
M  V30 22564 N 2098.72 2.00617 6.63117 0
M  V30 22565 N 2100.51 1.46016 5.42804 0
M  V30 22566 H 2092.66 1.45367 1.54862 0
M  V30 22567 H 2094.93 0.601814 0.732478 0
M  V30 22568 H 2094.63 1.74381 3.05425 0
M  V30 22569 H 2094.51 0.146249 3.76916 0
M  V30 22570 H 2096.89 -0.377335 2.92678 0
M  V30 22571 H 2096.97 1.24827 2.23275 0
M  V30 22572 H 2096.62 2.2356 4.56052 0
M  V30 22573 H 2096.55 0.587419 5.23313 0
M  V30 22574 H 2099.04 0.820197 3.68892 0
M  V30 22575 H 2099.35 2.28217 7.38334 0
M  V30 22576 H 2097.7 2.04578 6.64209 0
M  V30 22577 H 2100.89 1.09805 4.55039 0
M  V30 22578 H 2101.06 1.7645 6.23514 0
M  V30 22579 N 2094.47 -1.56127 0.214985 0
M  V30 22580 C 2095.88 -1.5898 -0.140524 0
M  V30 22581 C 2096.08 -1.23166 -1.59475 0
M  V30 22582 O 2095.14 -0.963792 -2.33382 0
M  V30 22583 C 2096.45 -3.00162 0.179827 0
M  V30 22584 C 2098 -3.12764 0.121534 0
M  V30 22585 C 2098.48 -4.56112 0.415468 0
M  V30 22586 N 2099.97 -4.61761 0.364801 0
M  V30 22587 C 2100.7 -5.70602 0.565817 0
M  V30 22588 N 2100.2 -6.87831 0.828254 0
M  V30 22589 N 2101.99 -5.59883 0.498704 0
M  V30 22590 H 2094.14 -1.77683 1.16372 0
M  V30 22591 H 2096.4 -0.825579 0.465964 0
M  V30 22592 H 2096.11 -3.30995 1.1889 0
M  V30 22593 H 2095.98 -3.7376 -0.508279 0
M  V30 22594 H 2098.37 -2.81731 -0.878172 0
M  V30 22595 H 2098.45 -2.4151 0.843017 0
M  V30 22596 H 2098.1 -4.87861 1.41258 0
M  V30 22597 H 2098.03 -5.25583 -0.327132 0
M  V30 22598 H 2100.52 -3.7752 0.169387 0
M  V30 22599 H 2100.83 -7.66689 0.969914 0
M  V30 22600 H 2099.18 -6.89591 0.865375 0
M  V30 22601 H 2102.37 -4.67176 0.293953 0
M  V30 22602 H 2102.54 -6.44643 0.658773 0
M  V30 22603 N 2095.95 0.0584645 -1.57492 0
M  V30 22604 C 2096.89 1.06805 -2.04601 0
M  V30 22605 C 2097.86 1.37677 -0.929204 0
M  V30 22606 O 2099.05 1.48518 -1.19779 0
M  V30 22607 C 2096.19 2.37272 -2.50591 0
M  V30 22608 C 2095.3 2.12815 -3.75944 0
M  V30 22609 C 2094.44 3.36941 -4.10663 0
M  V30 22610 C 2093.47 3.07907 -5.29018 0
M  V30 22611 N 2092.61 4.24401 -5.5931 0
M  V30 22612 H 2097.45 0.659352 -2.90614 0
M  V30 22613 H 2094.99 0.313985 -1.4371 0
M  V30 22614 H 2096.95 3.13463 -2.75312 0
M  V30 22615 H 2095.58 2.75919 -1.67536 0
M  V30 22616 H 2094.63 1.27255 -3.58483 0
M  V30 22617 H 2095.94 1.87378 -4.62267 0
M  V30 22618 H 2095.09 4.21519 -4.36356 0
M  V30 22619 H 2093.83 3.65466 -3.22933 0
M  V30 22620 H 2092.84 2.21727 -5.03108 0
M  V30 22621 H 2094.06 2.80691 -6.18377 0
M  V30 22622 H 2092.01 4.52933 -4.7454 0
M  V30 22623 H 2091.93 4.02284 -6.40081 0
M  V30 22624 H 2093.19 5.09938 -5.89562 0
M  V30 22625 N 2097.42 1.54103 0.330149 0
M  V30 22626 C 2098.39 1.82317 1.389 0
M  V30 22627 C 2099.39 0.694711 1.45019 0
M  V30 22628 O 2100.58 0.963016 1.45161 0
M  V30 22629 C 2097.71 1.97727 2.77699 0
M  V30 22630 H 2098.9 2.76916 1.15141 0
M  V30 22631 H 2096.45 1.4572 0.565276 0
M  V30 22632 H 2097.19 1.05316 3.06723 0
M  V30 22633 H 2096.97 2.79837 2.74652 0
M  V30 22634 H 2098.46 2.21026 3.54313 0
M  V30 22635 N 2098.9 -0.59187 1.46064 0
M  V30 22636 C 2099.85 -1.70158 1.55933 0
M  V30 22637 C 2100.82 -1.61107 0.404181 0
M  V30 22638 O 2102 -1.80455 0.619725 0
M  V30 22639 C 2099.14 -3.08488 1.5469 0
M  V30 22640 C 2098.26 -3.2823 2.80872 0
M  V30 22641 C 2097.39 -4.56757 2.71195 0
M  V30 22642 C 2096.43 -4.6981 3.92358 0
M  V30 22643 N 2095.57 -5.89653 3.81121 0
M  V30 22644 H 2100.41 -1.61059 2.50727 0
M  V30 22645 H 2097.95 -0.785101 1.24397 0
M  V30 22646 H 2099.9 -3.88542 1.51956 0
M  V30 22647 H 2098.53 -3.16506 0.634355 0
M  V30 22648 H 2097.59 -2.41843 2.93626 0
M  V30 22649 H 2098.9 -3.33745 3.70696 0
M  V30 22650 H 2098.05 -5.45027 2.66515 0
M  V30 22651 H 2096.79 -4.53665 1.78996 0
M  V30 22652 H 2095.8 -3.7996 3.9738 0
M  V30 22653 H 2097.02 -4.74688 4.85642 0
M  V30 22654 H 2094.97 -5.87576 2.91702 0
M  V30 22655 H 2094.88 -5.96397 4.64593 0
M  V30 22656 H 2096.15 -6.80379 3.80401 0
M  V30 22657 N 2100.38 -1.33616 -0.835729 0
M  V30 22658 C 2101.63 -1.24597 -1.58614 0
M  V30 22659 C 2101.94 0.185813 -1.94715 0
M  V30 22660 O 2103.15 0.398045 -2.68566 0
M  V30 22661 C 2101.6 -2.18339 -2.86105 0
M  V30 22662 C 2101.21 -3.66705 -2.57355 0
M  V30 22663 C 2102.96 -2.182 -3.64128 0
M  V30 22664 C 2100.86 -4.52352 -3.80962 0
M  V30 22665 H 2099.79 -0.462802 -0.595256 0
M  V30 22666 H 2102.44 -1.58701 -0.921212 0
M  V30 22667 H 2100.83 -1.77172 -3.54156 0
M  V30 22668 H 2102 -4.16331 -1.97496 0
M  V30 22669 H 2100.32 -3.69164 -1.92631 0
M  V30 22670 H 2102.91 -2.79417 -4.55884 0
M  V30 22671 H 2103.26 -1.17789 -3.99289 0
M  V30 22672 H 2103.79 -2.57745 -3.03005 0
M  V30 22673 H 2100.53 -5.5365 -3.5093 0
M  V30 22674 H 2100.05 -4.07467 -4.40149 0
M  V30 22675 H 2101.73 -4.66315 -4.48508 0
M  V30 22676 N 2101.86 1.05436 -1.17136 0
M  V30 22677 C 2103.11 1.77784 -0.952661 0
M  V30 22678 C 2103.42 1.88561 0.519999 0
M  V30 22679 O 2104.63 2.57625 0.856841 0
M  V30 22680 C 2103.08 3.19575 -1.65529 0
M  V30 22681 C 2102.69 3.16936 -3.16631 0
M  V30 22682 C 2104.43 3.96397 -1.51888 0
M  V30 22683 C 2102.34 4.535 -3.79594 0
M  V30 22684 H 2101.27 0.66637 -0.352799 0
M  V30 22685 H 2103.92 1.18197 -1.40363 0
M  V30 22686 H 2102.3 3.79474 -1.13205 0
M  V30 22687 H 2103.48 2.6657 -3.75869 0
M  V30 22688 H 2101.79 2.53614 -3.30256 0
M  V30 22689 H 2104.39 4.97363 -1.96302 0
M  V30 22690 H 2104.73 4.13649 -0.469072 0
M  V30 22691 H 2105.27 3.4304 -2.01416 0
M  V30 22692 H 2102.01 4.41453 -4.84561 0
M  V30 22693 H 2101.53 5.04026 -3.25143 0
M  V30 22694 H 2103.2 5.22444 -3.81656 0
M  V30 22695 N 2103.34 0.971211 1.24118 0
M  V30 22696 C 2104.28 0.503612 2.25239 0
M  V30 22697 C 2105.25 -0.452682 1.59812 0
M  V30 22698 O 2106.44 -0.362267 1.87329 0
M  V30 22699 C 2103.58 -0.196695 3.44539 0
M  V30 22700 C 2102.69 0.798779 4.24551 0
M  V30 22701 C 2101.83 0.0742204 5.31148 0
M  V30 22702 C 2100.87 1.05952 6.0286 0
M  V30 22703 N 2100 0.364736 7.01152 0
M  V30 22704 H 2104.84 1.37074 2.64603 0
M  V30 22705 H 2102.38 0.687058 1.30069 0
M  V30 22706 H 2104.34 -0.619443 4.12576 0
M  V30 22707 H 2102.97 -1.02775 3.06002 0
M  V30 22708 H 2102.02 1.33995 3.56019 0
M  V30 22709 H 2103.33 1.54998 4.74107 0
M  V30 22710 H 2102.49 -0.40635 6.05338 0
M  V30 22711 H 2101.22 -0.709647 4.82509 0
M  V30 22712 H 2100.23 1.55093 5.27471 0
M  V30 22713 H 2101.45 1.8439 6.53588 0
M  V30 22714 H 2099.4 -0.400091 6.54779 0
M  V30 22715 H 2099.32 1.05474 7.48606 0
M  V30 22716 H 2100.59 -0.0937508 7.79444 0
M  V30 22717 N 2104.81 -1.39054 0.741747 0
M  V30 22718 C 2106.09 -1.94374 0.218671 0
M  V30 22719 C 2106.47 -1.67801 -1.28086 0
M  V30 22720 O 2105.82 -1.00997 -2.04968 0
M  V30 22721 C 2106.03 -3.44485 0.559566 0
M  V30 22722 C 2107.38 -4.21494 0.512635 0
M  V30 22723 O 2108.4 -3.52713 0.497155 0
M  V30 22724 O 2107.26 -5.44086 0.513112 0
M  V30 22725 H 2104.35 -0.825923 0.0421827 0
M  V30 22726 H 2106.9 -1.48515 0.821064 0
M  V30 22727 H 2105.67 -3.57287 1.59567 0
M  V30 22728 H 2105.3 -3.97536 -0.0714489 0
M  V30 22729 N 2106.29 -0.489897 -1.49792 0
M  V30 22730 C 2107.52 0.055599 -2.06525 0
M  V30 22731 C 2107.93 1.32375 -1.3518 0
M  V30 22732 O 2107.27 1.78826 -0.420371 0
M  V30 22733 C 2107.34 0.390775 -3.5737 0
M  V30 22734 C 2107 -0.778051 -4.50328 0
M  V30 22735 C 2108 -1.66543 -4.92503 0
M  V30 22736 C 2105.68 -0.97371 -4.92772 0
M  V30 22737 C 2107.68 -2.73272 -5.75848 0
M  V30 22738 C 2105.36 -2.04419 -5.75896 0
M  V30 22739 C 2106.36 -2.92205 -6.17337 0
M  V30 22740 O 2106.05 -3.97407 -6.98801 0
M  V30 22741 H 2105.78 -0.012225 -0.675889 0
M  V30 22742 H 2108.33 -0.683211 -1.93704 0
M  V30 22743 H 2106.56 1.18303 -3.68159 0
M  V30 22744 H 2108.25 0.873568 -3.96388 0
M  V30 22745 H 2109.02 -1.52604 -4.60366 0
M  V30 22746 H 2104.9 -0.299832 -4.60024 0
M  V30 22747 H 2108.44 -3.41821 -6.08115 0
M  V30 22748 H 2104.34 -2.18358 -6.07446 0
M  V30 22749 H 2105.11 -3.94624 -7.17087 0
M  V30 22750 N 2107.77 1.56011 -0.223262 0
M  V30 22751 C 2109.02 1.97956 0.407171 0
M  V30 22752 C 2109.34 1.11219 1.60173 0
M  V30 22753 O 2108.61 0.189604 1.9498 0
M  V30 22754 H 2107.19 0.731075 0.153424 0
M  V30 22755 H 2109.85 1.92312 -0.316554 0
M  V30 22756 H 2108.95 3.03386 0.732342 0
M  V30 22757 N 2109.25 -0.0501116 1.5752 0
M  V30 22758 C 2110.5 -0.743624 1.87922 0
M  V30 22759 C 2110.82 -1.77004 0.818202 0
M  V30 22760 O 2110.09 -1.95319 -0.150705 0
M  V30 22761 H 2108.67 -0.277634 0.69349 0
M  V30 22762 H 2111.33 -0.0210527 1.94889 0
M  V30 22763 H 2110.43 -1.24635 2.86134 0
M  V30 22764 N 2110.73 -1.54276 -0.321972 0
M  V30 22765 C 2111.97 -1.72216 -1.05764 0
M  V30 22766 C 2112.3 -0.499518 -1.88494 0
M  V30 22767 O 2111.57 0.486466 -1.89764 0
M  V30 22768 H 2110.15 -0.634976 -0.393465 0
M  V30 22769 H 2112.81 -1.91583 -0.358025 0
M  V30 22770 H 2111.9 -2.60245 -1.72275 0
M  V30 22771 N 2112.2 0.584116 -1.46376 0
M  V30 22772 C 2113.15 1.69328 -1.56833 0
M  V30 22773 C 2114.12 1.60891 -0.412719 0
M  V30 22774 O 2115.31 1.80124 -0.629286 0
M  V30 22775 C 2112.45 3.07663 -1.56324 0
M  V30 22776 C 2111.56 3.26736 -2.82609 0
M  V30 22777 C 2110.69 4.55312 -2.73613 0
M  V30 22778 C 2109.73 4.67723 -3.94844 0
M  V30 22779 N 2108.87 5.87624 -3.84243 0
M  V30 22780 H 2113.71 1.59727 -2.51577 0
M  V30 22781 H 2111.25 0.778493 -1.24811 0
M  V30 22782 H 2113.21 3.87731 -1.54014 0
M  V30 22783 H 2111.84 3.16165 -0.651131 0
M  V30 22784 H 2110.89 2.40283 -2.94904 0
M  V30 22785 H 2112.2 3.31775 -3.72461 0
M  V30 22786 H 2111.35 5.43606 -2.69401 0
M  V30 22787 H 2110.09 4.52709 -1.81399 0
M  V30 22788 H 2109.1 3.77847 -3.99389 0
M  V30 22789 H 2110.32 4.72106 -4.88152 0
M  V30 22790 H 2108.27 5.86021 -2.94814 0
M  V30 22791 H 2108.19 5.93925 -4.67749 0
M  V30 22792 H 2109.45 6.78352 -3.84003 0
M  V30 22793 N 2113.68 1.34058 0.828631 0
M  V30 22794 C 2114.59 1.27222 1.97109 0
M  V30 22795 C 2115.61 0.180917 1.73057 0
M  V30 22796 O 2116.79 0.406362 1.97258 0
M  V30 22797 C 2113.85 1.0218 3.31301 0
M  V30 22798 C 2112.91 2.2041 3.68399 0
M  V30 22799 C 2112.14 1.96553 4.96188 0
M  V30 22800 O 2112.37 0.920931 5.62917 0
M  V30 22801 O 2111.3 2.83356 5.3103 0
M  V30 22802 H 2115.13 2.23322 2.05818 0
M  V30 22803 H 2112.71 1.14206 0.963184 0
M  V30 22804 H 2114.59 0.899718 4.11683 0
M  V30 22805 H 2113.27 0.0911525 3.23572 0
M  V30 22806 H 2112.18 2.38176 2.88484 0
M  V30 22807 H 2113.51 3.11845 3.80807 0
M  V30 22808 N 2115.16 -1.04814 1.17694 0
M  V30 22809 C 2116.09 -2.12156 0.840545 0
M  V30 22810 C 2117.07 -1.61435 -0.194298 0
M  V30 22811 O 2118.26 -1.88351 -0.0749663 0
M  V30 22812 C 2115.38 -3.37742 0.254529 0
M  V30 22813 C 2114.43 -4.07297 1.26536 0
M  V30 22814 S 2115.26 -4.55342 2.81823 0
M  V30 22815 C 2116.42 -5.84171 2.24712 0
M  V30 22816 H 2116.65 -2.40363 1.74965 0
M  V30 22817 H 2114.18 -1.17471 1.002 0
M  V30 22818 H 2116.14 -4.10428 -0.077089 0
M  V30 22819 H 2114.8 -3.07664 -0.632577 0
M  V30 22820 H 2114 -4.97545 0.804056 0
M  V30 22821 H 2113.6 -3.40695 1.54283 0
M  V30 22822 H 2115.89 -6.57722 1.62504 0
M  V30 22823 H 2116.83 -6.35053 3.1323 0
M  V30 22824 H 2117.24 -5.38916 1.68018 0
M  V30 22825 N 2116.64 -0.977779 -1.23601 0
M  V30 22826 C 2117.92 -0.561714 -1.87361 0
M  V30 22827 C 2118.3 0.961166 -1.87949 0
M  V30 22828 O 2117.64 1.83678 -1.35922 0
M  V30 22829 C 2117.85 -1.16478 -3.28989 0
M  V30 22830 C 2119.2 -1.2559 -4.05601 0
M  V30 22831 O 2120.23 -1.11804 -3.38199 0
M  V30 22832 O 2119.09 -1.47493 -5.2622 0
M  V30 22833 H 2116.18 -0.18876 -0.80517 0
M  V30 22834 H 2118.73 -1.07269 -1.31497 0
M  V30 22835 H 2117.5 -2.20711 -3.23114 0
M  V30 22836 H 2117.12 -0.638457 -3.9244 0
M  V30 22837 N 2118.12 1.38658 -0.749111 0
M  V30 22838 C 2119.34 2.0503 -0.312666 0
M  V30 22839 C 2119.77 1.56125 1.04912 0
M  V30 22840 O 2119.13 0.711236 1.66767 0
M  V30 22841 C 2119.17 3.58997 -0.339658 0
M  V30 22842 O 2118.28 4.06956 0.667887 0
M  V30 22843 H 2117.62 0.649228 -0.139282 0
M  V30 22844 H 2120.15 1.7742 -1.01898 0
M  V30 22845 H 2120.16 4.07562 -0.188968 0
M  V30 22846 H 2118.83 3.93951 -1.33325 0
M  V30 22847 H 2117.41 3.69769 0.482177 0
M  V30 22848 N 2119.6 0.497834 1.49531 0
M  V30 22849 C 2120.82 -0.0468921 2.07347 0
M  V30 22850 C 2121.25 -1.30349 1.35612 0
M  V30 22851 O 2120.6 -1.76559 0.411884 0
M  V30 22852 C 2120.65 -0.286776 3.59458 0
M  V30 22853 O 2119.76 -1.36212 3.89256 0
M  V30 22854 H 2119.1 0.0248202 0.663536 0
M  V30 22855 H 2121.63 0.696547 1.92378 0
M  V30 22856 H 2121.64 -0.519243 4.04682 0
M  V30 22857 H 2120.31 0.631334 4.1108 0
M  V30 22858 H 2118.89 -1.11485 3.55845 0
M  V30 22859 N 2121.07 -1.5589 0.231532 0
M  V30 22860 C 2122.3 -2.03407 -0.405035 0
M  V30 22861 C 2122.72 -1.11007 -1.51852 0
M  V30 22862 O 2122.08 -0.100101 -1.81023 0
M  V30 22863 C 2122.13 -3.4907 -0.904554 0
M  V30 22864 O 2121.23 -3.59808 -2.01524 0
M  V30 22865 H 2120.57 -0.657819 -0.090391 0
M  V30 22866 H 2123.1 -2.0153 0.353092 0
M  V30 22867 H 2123.11 -3.89589 -1.21178 0
M  V30 22868 H 2121.79 -4.15803 -0.0896407 0
M  V30 22869 H 2120.37 -3.3118 -1.71388 0
M  V30 22870 N 2122.55 0.0417572 -1.57545 0
M  V30 22871 C 2123.5 1.05387 -2.02182 0
M  V30 22872 C 2124.49 1.32769 -0.908905 0
M  V30 22873 O 2125.68 1.32567 -1.17282 0
M  V30 22874 C 2122.81 2.35884 -2.49427 0
M  V30 22875 C 2121.89 2.11646 -3.67514 0
M  V30 22876 N 2122.28 1.57426 -4.80677 0
M  V30 22877 C 2120.58 2.41988 -3.74643 0
M  V30 22878 C 2121.28 1.487 -5.62373 0
M  V30 22879 N 2120.26 1.95813 -5.07108 0
M  V30 22880 H 2124.06 0.62846 -2.87102 0
M  V30 22881 H 2121.57 0.248304 -1.60491 0
M  V30 22882 H 2123.57 3.09186 -2.7966 0
M  V30 22883 H 2122.23 2.79114 -1.65908 0
M  V30 22884 H 2123.24 1.25871 -5.02371 0
M  V30 22885 H 2119.92 2.8838 -3.01899 0
M  V30 22886 H 2121.31 1.07377 -6.63265 0
M  V30 22887 N 2124.03 1.54445 0.313786 0
M  V30 22888 C 2124.96 1.79371 1.41072 0
M  V30 22889 C 2125.94 0.644191 1.49295 0
M  V30 22890 O 2127.12 0.882726 1.66554 0
M  V30 22891 C 2124.25 1.91902 2.7909 0
M  V30 22892 C 2123.3 3.14253 2.88352 0
M  V30 22893 S 2124.13 4.7263 2.51757 0
M  V30 22894 C 2125.29 4.8808 3.91828 0
M  V30 22895 H 2125.52 2.72131 1.19717 0
M  V30 22896 H 2123.05 1.45693 0.51118 0
M  V30 22897 H 2125.01 1.99807 3.58591 0
M  V30 22898 H 2123.67 1.00103 2.97722 0
M  V30 22899 H 2122.86 3.19785 3.89556 0
M  V30 22900 H 2122.47 3.04729 2.16833 0
M  V30 22901 H 2124.76 4.71317 4.86689 0
M  V30 22902 H 2125.7 5.90178 3.91274 0
M  V30 22903 H 2126.11 4.16316 3.81236 0
M  V30 22904 N 2125.51 -0.576345 1.46683 0
M  V30 22905 C 2126.42 -1.71268 1.60326 0
M  V30 22906 C 2127.43 -1.67059 0.486559 0
M  V30 22907 O 2128.61 -1.86852 0.75154 0
M  V30 22908 C 2125.67 -3.07775 1.5961 0
M  V30 22909 C 2124.74 -3.232 2.8256 0
M  V30 22910 C 2123.97 -4.53195 2.81869 0
M  V30 22911 O 2124.19 -5.37478 1.90979 0
M  V30 22912 O 2123.13 -4.72003 3.73493 0
M  V30 22913 H 2126.95 -1.62705 2.56439 0
M  V30 22914 H 2124.54 -0.744135 1.29549 0
M  V30 22915 H 2126.42 -3.89046 1.61929 0
M  V30 22916 H 2125.09 -3.16762 0.666583 0
M  V30 22917 H 2124 -2.41398 2.85793 0
M  V30 22918 H 2125.33 -3.19107 3.74742 0
M  V30 22919 N 2126.99 -1.34495 -0.82151 0
M  V30 22920 C 2128.26 -1.17511 -1.56367 0
M  V30 22921 C 2128.64 0.251735 -2.09594 0
M  V30 22922 O 2127.99 1.25325 -1.91065 0
M  V30 22923 C 2128.2 -2.23083 -2.68393 0
M  V30 22924 C 2129.55 -2.58132 -3.37124 0
M  V30 22925 O 2130.57 -2.21883 -2.78651 0
M  V30 22926 O 2129.43 -3.20405 -4.42722 0
M  V30 22927 H 2126.53 -0.455611 -0.690179 0
M  V30 22928 H 2129.07 -1.46132 -0.862761 0
M  V30 22929 H 2127.84 -3.1885 -2.26827 0
M  V30 22930 H 2127.47 -1.95647 -3.46133 0
M  V30 22931 N 2128.46 1.04188 -1.18248 0
M  V30 22932 C 2129.69 1.81021 -1.00194 0
M  V30 22933 C 2130.11 1.83367 0.449658 0
M  V30 22934 O 2129.46 1.26824 1.31232 0
M  V30 22935 C 2129.52 3.26678 -1.54802 0
M  V30 22936 O 2129.24 3.24548 -2.94279 0
M  V30 22937 C 2130.74 4.20161 -1.41349 0
M  V30 22938 H 2127.96 0.570098 -0.353877 0
M  V30 22939 H 2130.5 1.31316 -1.56769 0
M  V30 22940 H 2128.66 3.7362 -1.02407 0
M  V30 22941 H 2129.07 4.15787 -3.19721 0
M  V30 22942 H 2130.54 5.20304 -1.84357 0
M  V30 22943 H 2131.02 4.37705 -0.362029 0
M  V30 22944 H 2131.63 3.79083 -1.92811 0
M  V30 22945 N 2129.94 0.98432 1.23081 0
M  V30 22946 C 2131.19 0.654086 1.91223 0
M  V30 22947 C 2131.51 -0.815416 1.77133 0
M  V30 22948 O 2130.78 -1.58365 1.15315 0
M  V30 22949 H 2129.36 0.238934 0.707757 0
M  V30 22950 H 2132.02 1.24898 1.49621 0
M  V30 22951 H 2131.12 0.909129 2.98565 0
M  V30 22952 N 2131.42 -1.38259 0.756453 0
M  V30 22953 C 2132.33 -2.34224 0.132796 0
M  V30 22954 C 2133.35 -1.59415 -0.697351 0
M  V30 22955 O 2134.52 -1.91592 -0.620838 0
M  V30 22956 C 2131.59 -3.38542 -0.747682 0
M  V30 22957 C 2130.65 -4.2919 0.097166 0
M  V30 22958 C 2129.88 -5.28526 -0.741383 0
M  V30 22959 O 2130.1 -5.34959 -1.97926 0
M  V30 22960 O 2129.04 -6.01691 -0.158669 0
M  V30 22961 H 2132.86 -2.89257 0.925409 0
M  V30 22962 H 2130.45 -1.40155 0.517388 0
M  V30 22963 H 2132.33 -4.02409 -1.25081 0
M  V30 22964 H 2131.01 -2.8586 -1.51874 0
M  V30 22965 H 2129.91 -3.68475 0.646311 0
M  V30 22966 H 2131.25 -4.85135 0.830947 0
M  V30 22967 N 2132.9 -0.505757 -1.49264 0
M  V30 22968 C 2133.86 0.259147 -2.2773 0
M  V30 22969 C 2134.86 0.88969 -1.33945 0
M  V30 22970 O 2136.05 0.753485 -1.57061 0
M  V30 22971 C 2133.18 1.37232 -3.12058 0
M  V30 22972 H 2134.38 -0.42945 -2.96809 0
M  V30 22973 H 2131.93 -0.260876 -1.54108 0
M  V30 22974 H 2132.66 2.09492 -2.47555 0
M  V30 22975 H 2132.45 0.925587 -3.81019 0
M  V30 22976 H 2133.94 1.91099 -3.7131 0
M  V30 22977 N 2134.38 1.55765 -0.239796 0
M  V30 22978 C 2135.79 1.59184 0.115214 0
M  V30 22979 C 2135.99 1.25688 1.57496 0
M  V30 22980 O 2135.05 1.0008 2.31819 0
M  V30 22981 C 2136.36 2.99838 -0.227557 0
M  V30 22982 C 2137.91 3.12531 -0.171276 0
M  V30 22983 C 2138.38 4.55393 -0.487979 0
M  V30 22984 N 2139.88 4.61122 -0.438217 0
M  V30 22985 C 2140.61 5.69629 -0.656523 0
M  V30 22986 N 2140.11 6.86426 -0.937578 0
M  V30 22987 N 2141.9 5.59019 -0.587713 0
M  V30 22988 H 2134.05 1.7581 -1.19184 0
M  V30 22989 H 2136.31 0.818062 -0.47904 0
M  V30 22990 H 2136.02 3.29062 -1.24141 0
M  V30 22991 H 2135.89 3.74521 0.448752 0
M  V30 22992 H 2138.28 2.83092 0.83324 0
M  V30 22993 H 2138.36 2.40138 -0.881332 0
M  V30 22994 H 2138.01 4.85552 -1.49002 0
M  V30 22995 H 2137.94 5.26037 0.243475 0
M  V30 22996 H 2140.43 3.77203 -0.229426 0
M  V30 22997 H 2140.74 7.65049 -1.09177 0
M  V30 22998 H 2139.08 6.88127 -0.974973 0
M  V30 22999 H 2142.28 4.66649 -0.368239 0
M  V30 23000 H 2142.45 6.43513 -0.761246 0
M  V30 23001 N 2135.85 -0.0334016 1.57565 0
M  V30 23002 C 2136.76 -1.05241 2.0967 0
M  V30 23003 C 2137.78 -1.39917 1.03437 0
M  V30 23004 O 2138.96 -1.49324 1.35146 0
M  V30 23005 C 2136.02 -2.3357 2.56215 0
M  V30 23006 C 2135.08 -2.05514 3.76912 0
M  V30 23007 C 2134.32 -3.27724 4.21227 0
M  V30 23008 O 2134.54 -4.38244 3.65101 0
M  V30 23009 O 2133.47 -3.13679 5.13701 0
M  V30 23010 H 2137.3 -0.639612 2.96888 0
M  V30 23011 H 2134.88 -0.250101 1.47292 0
M  V30 23012 H 2136.77 -3.09022 2.86502 0
M  V30 23013 H 2135.44 -2.74153 1.7211 0
M  V30 23014 H 2134.35 -1.27644 3.5165 0
M  V30 23015 H 2135.68 -1.69789 4.61988 0
M  V30 23016 N 2137.33 -1.54609 -0.305591 0
M  V30 23017 C 2138.58 -1.73929 -1.04291 0
M  V30 23018 C 2138.91 -0.521093 -1.87078 0
M  V30 23019 O 2138.19 0.481847 -1.88437 0
M  V30 23020 C 2138.47 -3.02557 -1.95272 0
M  V30 23021 C 2138.32 -4.34666 -1.15695 0
M  V30 23022 C 2139.64 -3.27028 -2.94517 0
M  V30 23023 H 2136.76 -0.632835 -0.377741 0
M  V30 23024 H 2139.4 -1.87321 -0.317961 0
M  V30 23025 H 2137.55 -2.91271 -2.57087 0
M  V30 23026 H 2139.22 -4.57863 -0.562028 0
M  V30 23027 H 2137.47 -4.31359 -0.459568 0
M  V30 23028 H 2138.14 -5.20925 -1.82595 0
M  V30 23029 H 2140.61 -3.37894 -2.42831 0
M  V30 23030 H 2139.49 -4.18355 -3.55346 0
M  V30 23031 H 2139.75 -2.45106 -3.67934 0
M  V30 23032 N 2138.81 0.568558 -1.46987 0
M  V30 23033 C 2139.77 1.65862 -1.58185 0
M  V30 23034 C 2140.77 1.54145 -0.457828 0
M  V30 23035 O 2141.96 1.58507 -0.722567 0
M  V30 23036 C 2139.1 3.05356 -1.5156 0
M  V30 23037 H 2140.29 1.57286 -2.55345 0
M  V30 23038 H 2137.84 0.787562 -1.35008 0
M  V30 23039 H 2138.58 3.19475 -0.557329 0
M  V30 23040 H 2138.36 3.1527 -2.33125 0
M  V30 23041 H 2139.85 3.84682 -1.62511 0
M  V30 23042 O 2140.33 1.44906 0.713047 0
M  V30 23043 H 2141.02 1.37529 1.36402 0
M  V30 END ATOM
M  V30 BEGIN BOND
M  V30 END BOND
M  V30 END CTAB
M  END
$$$$
