drugbank_target|P05884 Envelope glycoprotein gp160 (DB03740; DB04473)
 OpenBabel12092120253D

  0  0  0     0  0            999 V3000
M  V30 BEGIN CTAB
M  V30 COUNTS 14123 14299 0 0 0
M  V30 BEGIN ATOM
M  V30 1 H -0.908 1.98254 -0.117106 0
M  V30 2 N 0 1.576 0 0
M  V30 3 C 0.933 2.03868 1.02534 0
M  V30 4 C 1.911 0.928543 1.3348 0
M  V30 5 O 3.095 1.19667 1.45644 0
M  V30 6 C 0.222 2.43627 2.35294 0
M  V30 7 C -0.732 3.65373 2.2001 0
M  V30 8 S 0.101 5.13292 1.52614 0
M  V30 9 C 1.257 5.56322 2.86805 0
M  V30 10 H 1.49 2.90518 0.631377 0
M  V30 11 H -0.977 1.52953 0.210867 0
M  V30 12 H 0.981 2.67203 3.11629 0
M  V30 13 H -0.358 1.57376 2.7183 0
M  V30 14 H -1.165 3.90944 3.18086 0
M  V30 15 H -1.563 3.418 1.51819 0
M  V30 16 H 0.729 5.58782 3.83104 0
M  V30 17 H 1.672 6.56266 2.65933 0
M  V30 18 H 2.08 4.83886 2.90714 0
M  V30 19 N 1.4781 -0.272755 1.55222 0
M  V30 20 C 2.7261 -1.00234 1.75492 0
M  V30 21 C 3.0471 -1.8681 0.5592 0
M  V30 22 O 2.3171 -1.91215 -0.425882 0
M  V30 23 H 0.8971 -0.373076 0.647166 0
M  V30 24 H 3.5591 -0.296926 1.92625 0
M  V30 25 H 2.6551 -1.63913 2.65592 0
M  V30 26 N 2.9562 -1.48159 -0.537278 0
M  V30 27 C 4.1962 -1.57397 -1.30405 0
M  V30 28 C 4.5602 -0.239202 -1.90504 0
M  V30 29 O 5.7612 -0.206528 -2.68005 0
M  V30 30 C 4.0322 -2.6754 -2.36974 0
M  V30 31 S 5.5912 -2.96496 -3.23475 0
M  V30 32 H 2.4092 -0.555577 -0.443684 0
M  V30 33 H 5.0112 -1.85644 -0.612912 0
M  V30 34 H 3.7152 -3.63092 -1.91291 0
M  V30 35 H 3.2462 -2.41172 -3.10805 0
M  V30 36 H 5.2612 -2.35234 -4.36897 0
M  V30 37 N 4.4343 0.785586 -1.36625 0
M  V30 38 C 5.3643 1.91259 -1.33949 0
M  V30 39 C 6.3453 1.68795 -0.210325 0
M  V30 40 O 7.5303 1.89854 -0.408561 0
M  V30 41 C 4.6603 3.28339 -1.13186 0
M  V30 42 C 3.6143 3.65335 -2.22967 0
M  V30 43 C 2.9403 5.00806 -1.87342 0
M  V30 44 C 4.2403 3.7352 -3.65075 0
M  V30 45 H 5.9343 1.93755 -2.28253 0
M  V30 46 H 3.4803 0.930788 -1.09874 0
M  V30 47 H 5.4333 4.06804 -1.09948 0
M  V30 48 H 4.1573 3.2624 -0.153332 0
M  V30 49 H 2.8163 2.89169 -2.25337 0
M  V30 50 H 2.4643 4.95233 -0.880545 0
M  V30 51 H 2.1643 5.26529 -2.60846 0
M  V30 52 H 3.6883 5.81687 -1.85667 0
M  V30 53 H 5.1023 4.42168 -3.64911 0
M  V30 54 H 3.4993 4.10731 -4.37516 0
M  V30 55 H 4.5693 2.74527 -3.99703 0
M  V30 56 N 5.9124 1.20967 1.01018 0
M  V30 57 C 7.1604 1.02172 1.74371 0
M  V30 58 C 7.4814 -0.446414 1.89821 0
M  V30 59 O 6.7514 -1.32234 1.44537 0
M  V30 60 H 5.3314 0.375066 0.646014 0
M  V30 61 H 7.9934 1.52187 1.21758 0
M  V30 62 H 7.0894 1.48538 2.74487 0
M  V30 63 N 7.3905 -1.2043 1.01659 0
M  V30 64 C 8.3385 -2.25249 0.580143 0
M  V30 65 C 9.3325 -1.65057 -0.381115 0
M  V30 66 O 10.5385 -1.78241 -0.251039 0
M  V30 67 H 6.9135 -0.732695 0.169299 0
M  V30 68 H 8.8845 -2.59389 1.47512 0
M  V30 69 C 7.6335 -3.47638 -0.065788 0
M  V30 70 H 6.9565 -3.94233 0.664874 0
M  V30 71 H 8.3965 -4.2268 -0.334282 0
M  V30 72 C 6.8555 -3.10447 -1.3086 0
M  V30 73 O 7.3855 -3.21981 -2.4019 0
M  V30 74 N 5.5915 -2.64996 -1.1927 0
M  V30 75 H 5.1385 -2.55811 -0.303064 0
M  V30 76 H 5.0965 -2.40482 -2.02523 0
M  V30 77 N 8.8686 -0.792821 -1.36206 0
M  V30 78 C 9.8006 -0.151469 -2.28699 0
M  V30 79 C 10.8136 0.641262 -1.49638 0
M  V30 80 O 12.0026 0.475885 -1.72039 0
M  V30 81 C 9.1026 0.808424 -3.29117 0
M  V30 82 C 8.2756 0.0650202 -4.37352 0
M  V30 83 C 7.3346 0.941358 -5.17711 0
M  V30 84 O 6.3606 0.397352 -5.67811 0
M  V30 85 N 7.5626 2.2652 -5.3448 0
M  V30 86 H 10.3276 -0.945982 -2.84379 0
M  V30 87 H 7.8886 -0.647032 -1.48409 0
M  V30 88 H 9.8806 1.3986 -3.79765 0
M  V30 89 H 8.4506 1.5038 -2.74052 0
M  V30 90 H 7.6706 -0.706255 -3.87822 0
M  V30 91 H 8.9586 -0.447847 -5.06825 0
M  V30 92 H 8.3566 2.73128 -4.95396 0
M  V30 93 H 6.9136 2.80493 -5.88359 0
M  V30 94 N 10.3467 1.47872 -0.545128 0
M  V30 95 C 11.2767 2.32661 0.197793 0
M  V30 96 C 12.2577 1.43041 0.920504 0
M  V30 97 O 13.4427 1.71912 0.90333 0
M  V30 98 C 10.5727 3.24569 1.23582 0
M  V30 99 C 9.5267 4.23333 0.630323 0
M  V30 100 C 8.8527 5.0448 1.77211 0
M  V30 101 C 10.1527 5.20704 -0.407974 0
M  V30 102 H 11.8467 2.95024 -0.510045 0
M  V30 103 H 9.3927 1.4187 -0.246731 0
M  V30 104 H 11.3457 3.8272 1.76362 0
M  V30 105 H 10.0697 2.60236 1.97344 0
M  V30 106 H 8.7287 3.6639 0.123922 0
M  V30 107 H 8.3767 4.36561 2.49847 0
M  V30 108 H 8.0767 5.71339 1.37281 0
M  V30 109 H 9.6007 5.65487 2.3034 0
M  V30 110 H 11.0147 5.7329 0.033305 0
M  V30 111 H 9.4117 5.95699 -0.725486 0
M  V30 112 H 10.4817 4.66917 -1.30828 0
M  V30 113 N 11.8248 0.280983 1.55075 0
M  V30 114 C 12.7548 -0.597469 2.25727 0
M  V30 115 C 13.7358 -1.15417 1.24952 0
M  V30 116 O 14.9208 -1.18722 1.53684 0
M  V30 117 C 12.0508 -1.7789 2.98283 0
M  V30 118 C 11.0048 -1.35347 4.06036 0
M  V30 119 C 10.3308 -2.61846 4.66198 0
M  V30 120 C 11.6308 -0.499354 5.19907 0
M  V30 121 H 13.3248 -0.00824265 2.99399 0
M  V30 122 H 10.8708 -0.0025244 1.44 0
M  V30 123 H 12.8238 -2.39937 3.46422 0
M  V30 124 H 11.5478 -2.39405 2.22155 0
M  V30 125 H 10.2068 -0.756156 3.58717 0
M  V30 126 H 9.8548 -3.21632 3.86732 0
M  V30 127 H 9.5548 -2.3409 5.38958 0
M  V30 128 H 11.0788 -3.24732 5.1709 0
M  V30 129 H 12.4928 -1.02498 5.64063 0
M  V30 130 H 10.8898 -0.316424 5.99265 0
M  V30 131 H 11.9598 0.480459 4.82514 0
M  V30 132 N 13.3029 -1.57598 0.00835791 0
M  V30 133 C 14.5519 -1.90107 -0.673968 0
M  V30 134 C 14.8649 -0.884275 -1.7447 0
M  V30 135 O 16.0709 -1.09987 -2.48224 0
M  V30 136 C 14.5269 -3.37497 -1.24995 0
M  V30 137 C 14.1349 -4.47491 -0.2136 0
M  V30 138 C 15.8789 -3.79104 -1.90999 0
M  V30 139 C 13.7859 -5.85963 -0.80005 0
M  V30 140 H 12.7159 -0.709393 -0.255495 0
M  V30 141 H 15.3669 -1.83365 0.0702693 0
M  V30 142 H 13.7489 -3.39102 -2.04513 0
M  V30 143 H 14.9229 -4.57414 0.557596 0
M  V30 144 H 13.2379 -4.14956 0.346474 0
M  V30 145 H 15.8349 -4.79901 -2.35795 0
M  V30 146 H 16.1779 -3.1306 -2.74407 0
M  V30 147 H 16.7109 -3.79833 -1.18203 0
M  V30 148 H 13.4499 -6.555 -0.00456708 0
M  V30 149 H 12.9699 -5.79687 -1.54021 0
M  V30 150 H 14.6489 -6.33884 -1.29615 0
M  V30 151 N 14.781 0.264519 -1.55364 0
M  V30 152 C 15.744 1.31046 -1.88042 0
M  V30 153 C 16.744 1.41943 -0.755569 0
M  V30 154 O 17.934 1.40947 -1.02369 0
M  V30 155 C 15.066 2.69067 -2.09323 0
M  V30 156 H 16.259 1.03297 -2.81549 0
M  V30 157 H 13.812 0.502989 -1.47986 0
M  V30 158 H 14.547 3.01982 -1.18226 0
M  V30 159 H 14.332 2.62542 -2.91229 0
M  V30 160 H 15.822 3.44623 -2.35848 0
M  V30 161 N 16.2591 1.48442 0.529413 0
M  V30 162 C 17.5081 1.55742 1.28169 0
M  V30 163 C 17.8211 0.236511 1.94165 0
M  V30 164 O 19.0271 0.187761 2.7085 0
M  V30 165 C 17.4831 2.74667 2.32564 0
M  V30 166 C 17.0911 4.13402 1.72636 0
M  V30 167 C 18.8351 2.9128 3.08798 0
M  V30 168 C 16.7421 5.23587 2.74975 0
M  V30 169 H 15.6721 0.579796 0.48203 0
M  V30 170 H 18.3231 1.74776 0.559056 0
M  V30 171 H 16.7051 2.49067 3.07866 0
M  V30 172 H 17.8791 4.49022 1.03519 0
M  V30 173 H 16.1941 4.0191 1.08892 0
M  V30 174 H 18.7911 3.70767 3.85274 0
M  V30 175 H 19.1341 2.00757 3.64695 0
M  V30 176 H 19.6671 3.16782 2.40611 0
M  V30 177 H 16.4061 6.16076 2.23897 0
M  V30 178 H 15.9261 4.92454 3.42417 0
M  V30 179 H 17.6051 5.51724 3.37949 0
M  V30 180 N 17.7372 -0.778329 1.37039 0
M  V30 181 C 18.6672 -1.90546 1.34962 0
M  V30 182 C 19.6482 -1.68681 0.219274 0
M  V30 183 O 20.8332 -1.89634 0.418624 0
M  V30 184 C 17.9632 -3.27734 1.14925 0
M  V30 185 C 16.9172 -3.64147 2.24902 0
M  V30 186 C 16.2432 -4.99806 1.89996 0
M  V30 187 C 17.5432 -3.71579 3.67051 0
M  V30 188 H 19.2372 -1.92541 2.29277 0
M  V30 189 H 16.7832 -0.924948 1.10366 0
M  V30 190 H 18.7362 -4.06215 1.12104 0
M  V30 191 H 17.4602 -3.26154 0.170631 0
M  V30 192 H 16.1192 -2.8797 2.26868 0
M  V30 193 H 15.7672 -4.94759 0.906796 0
M  V30 194 H 15.4672 -5.25139 2.63634 0
M  V30 195 H 16.9912 -5.80694 1.88749 0
M  V30 196 H 18.4052 -4.40227 3.67251 0
M  V30 197 H 16.8022 -4.08405 4.39688 0
M  V30 198 H 17.8722 -2.72404 4.01154 0
M  V30 199 N 19.2153 -1.21501 -1.00376 0
M  V30 200 C 20.1453 -0.999478 -2.11028 0
M  V30 201 C 21.1263 0.0759671 -1.6993 0
M  V30 202 O 22.3113 -0.0841106 -1.94018 0
M  V30 203 C 19.4413 -0.564709 -3.42678 0
M  V30 204 C 18.3953 -1.58486 -3.97576 0
M  V30 205 C 17.7213 -1.00628 -5.25146 0
M  V30 206 C 19.0213 -2.97204 -4.29496 0
M  V30 207 H 20.7153 -1.92495 -2.29317 0
M  V30 208 H 18.2613 -0.92693 -1.102 0
M  V30 209 H 20.2143 -0.401091 -4.19487 0
M  V30 210 H 18.9383 0.396411 -3.24185 0
M  V30 211 H 17.5973 -1.73606 -3.22888 0
M  V30 212 H 17.2453 -0.0368439 -5.02987 0
M  V30 213 H 16.9453 -1.68771 -5.62841 0
M  V30 214 H 18.4693 -0.854015 -6.04598 0
M  V30 215 H 19.8833 -2.8552 -4.97143 0
M  V30 216 H 18.2803 -3.62372 -4.78338 0
M  V30 217 H 19.3503 -3.47956 -3.3772 0
M  V30 218 N 20.6934 1.19889 -1.02296 0
M  V30 219 C 21.6234 2.25141 -0.619174 0
M  V30 220 C 22.6044 1.66051 0.368915 0
M  V30 221 O 23.7894 1.92546 0.252941 0
M  V30 222 C 20.9194 3.4728 0.0368783 0
M  V30 223 C 19.8734 4.19005 -0.872865 0
M  V30 224 C 19.1994 5.34637 -0.0822402 0
M  V30 225 C 20.4994 4.74452 -2.18387 0
M  V30 226 H 22.1934 2.59171 -1.49903 0
M  V30 227 H 19.7394 1.24579 -0.722222 0
M  V30 228 H 21.6924 4.20098 0.330958 0
M  V30 229 H 20.4164 3.12433 0.95149 0
M  V30 230 H 19.0754 3.48061 -1.15105 0
M  V30 231 H 18.7234 4.96034 0.83422 0
M  V30 232 H 18.4234 5.83557 -0.688149 0
M  V30 233 H 19.9474 6.10255 0.205238 0
M  V30 234 H 21.3614 5.39055 -1.95172 0
M  V30 235 H 19.7584 5.33834 -2.74119 0
M  V30 236 H 20.8284 3.92844 -2.84257 0
M  V30 237 N 22.1715 0.800033 1.35784 0
M  V30 238 C 23.3965 0.388511 2.03729 0
M  V30 239 C 23.8215 -0.990481 1.5991 0
M  V30 240 O 23.1795 -1.64013 0.772612 0
M  V30 241 C 23.2275 0.4726 3.5749 0
M  V30 242 O 22.3315 -0.51646 4.09153 0
M  V30 243 H 21.6725 0.163271 0.643614 0
M  V30 244 H 24.2025 1.0841 1.73518 0
M  V30 245 H 24.2125 0.34003 4.06581 0
M  V30 246 H 22.8875 1.47848 3.88734 0
M  V30 247 H 21.4645 -0.344673 3.71304 0
M  V30 248 N 23.6496 -1.47581 0.552962 0
M  V30 249 C 24.8956 -2.02782 0.0273648 0
M  V30 250 C 25.2286 -1.42687 -1.31734 0
M  V30 251 O 24.5036 -0.580897 -1.85623 0
M  V30 252 C 24.7866 -3.60031 -0.0702371 0
M  V30 253 C 24.6396 -4.30566 1.30126 0
M  V30 254 C 25.9586 -4.33028 -0.785771 0
M  V30 255 H 23.0776 -0.736912 0.0114185 0
M  V30 256 H 25.7196 -1.76056 0.714432 0
M  V30 257 H 23.8696 -3.82932 -0.655382 0
M  V30 258 H 25.5416 -4.19018 1.92929 0
M  V30 259 H 23.7846 -3.91086 1.87709 0
M  V30 260 H 24.4556 -5.39114 1.18573 0
M  V30 261 H 26.9316 -4.15095 -0.288982 0
M  V30 262 H 25.8076 -5.42695 -0.823013 0
M  V30 263 H 26.0686 -4.01945 -1.841 0
M  V30 264 N 25.1277 -0.289203 -1.54924 0
M  V30 265 C 26.3577 0.325989 -2.04012 0
M  V30 266 C 26.7657 1.48961 -1.1665 0
M  V30 267 O 26.1087 1.82794 -0.1822 0
M  V30 268 C 26.1707 0.856112 -3.49158 0
M  V30 269 C 25.8347 -0.180697 -4.56643 0
M  V30 270 C 26.8317 -1.0051 -5.10092 0
M  V30 271 C 24.5167 -0.318998 -5.01286 0
M  V30 272 C 26.5107 -1.95385 -6.06715 0
M  V30 273 C 24.1977 -1.27121 -5.97732 0
M  V30 274 C 25.1957 -2.08713 -6.50329 0
M  V30 275 O 24.8837 -3.02322 -7.44887 0
M  V30 276 H 24.6157 0.0765276 -0.671654 0
M  V30 277 H 27.1697 -0.423254 -2.00992 0
M  V30 278 H 25.3997 1.65567 -3.49463 0
M  V30 279 H 27.0887 1.38591 -3.81507 0
M  V30 280 H 27.8547 -0.90906 -4.76404 0
M  V30 281 H 23.7337 0.306108 -4.59983 0
M  V30 282 H 27.2777 -2.59111 -6.47694 0
M  V30 283 H 23.1747 -1.36801 -6.30837 0
M  V30 284 H 23.9427 -2.97165 -7.6265 0
M  V30 285 N 26.6058 1.57591 -0.0167156 0
M  V30 286 C 27.8538 1.90906 0.663285 0
M  V30 287 C 28.1748 0.892509 1.73376 0
M  V30 288 O 27.4448 -0.0677623 1.95783 0
M  V30 289 H 26.0248 0.704637 0.247983 0
M  V30 290 H 28.6868 1.94803 -0.0615909 0
M  V30 291 H 27.7828 2.9116 1.12393 0
M  V30 292 N 28.0839 -0.256276 1.55502 0
M  V30 293 C 29.3329 -0.983486 1.76098 0
M  V30 294 C 29.6459 -1.86837 0.578896 0
M  V30 295 O 30.8519 -2.63163 0.667648 0
M  V30 296 C 29.3079 -1.79868 3.1173 0
M  V30 297 C 28.9159 -0.961648 4.37557 0
M  V30 298 C 30.6599 -2.51919 3.41668 0
M  V30 299 C 28.5669 -1.77219 5.64223 0
M  V30 300 H 27.4969 -0.370936 0.656447 0
M  V30 301 H 30.1479 -0.238492 1.81944 0
M  V30 302 H 28.5299 -2.58527 2.99966 0
M  V30 303 H 29.7039 -0.218048 4.60284 0
M  V30 304 H 28.0189 -0.354913 4.14885 0
M  V30 305 H 30.6159 -3.12998 4.33516 0
M  V30 306 H 30.9589 -3.23059 2.62562 0
M  V30 307 H 31.4919 -1.80278 3.54605 0
M  V30 308 H 28.2309 -1.10471 6.46124 0
M  V30 309 H 27.7509 -2.49132 5.45613 0
M  V30 310 H 29.4299 -2.34169 6.03137 0
M  V30 311 N 29.562 -1.4872 -0.521534 0
M  V30 312 C 30.792 -1.6061 -1.29954 0
M  V30 313 C 31.2 -0.268728 -1.87282 0
M  V30 314 O 30.543 0.753221 -1.67548 0
M  V30 315 C 30.605 -2.60013 -2.48261 0
M  V30 316 C 30.269 -4.04874 -2.11957 0
M  V30 317 C 31.266 -4.92304 -1.67132 0
M  V30 318 C 28.951 -4.5047 -2.22221 0
M  V30 319 C 30.945 -6.2336 -1.33047 0
M  V30 320 C 28.632 -5.81544 -1.87748 0
M  V30 321 C 29.63 -6.67812 -1.43234 0
M  V30 322 O 29.318 -7.96446 -1.09217 0
M  V30 323 H 29.05 -0.544116 -0.401141 0
M  V30 324 H 31.604 -1.95339 -0.634958 0
M  V30 325 H 29.834 -2.20422 -3.17728 0
M  V30 326 H 31.523 -2.61648 -3.10315 0
M  V30 327 H 32.289 -4.58312 -1.58665 0
M  V30 328 H 28.168 -3.83504 -2.55823 0
M  V30 329 H 31.712 -6.90649 -0.982299 0
M  V30 330 H 27.609 -6.15069 -1.95858 0
M  V30 331 H 28.377 -8.09275 -1.22542 0
M  V30 332 N 31.0401 0.771051 -1.3745 0
M  V30 333 C 32.2801 1.54264 -1.34096 0
M  V30 334 C 32.6441 1.91858 0.0737639 0
M  V30 335 O 33.8451 2.67797 0.23203 0
M  V30 336 C 32.1161 2.77326 -2.25445 0
M  V30 337 S 33.6751 3.67383 -2.39948 0
M  V30 338 H 30.4931 0.528122 -0.476034 0
M  V30 339 H 33.0951 0.906633 -1.73206 0
M  V30 340 H 31.7991 2.47788 -3.27153 0
M  V30 341 H 31.3301 3.45886 -1.87421 0
M  V30 342 H 33.3451 4.69334 -1.61059 0
M  V30 343 N 32.5182 1.22032 0.997298 0
M  V30 344 C 33.7462 1.06841 1.7718 0
M  V30 345 C 34.1612 -0.381325 1.84909 0
M  V30 346 O 33.5182 -1.26437 1.31605 0
M  V30 347 C 33.5692 1.66814 3.20711 0
M  V30 348 O 33.2902 3.06116 3.13408 0
M  V30 349 C 34.7912 1.56838 4.14628 0
M  V30 350 H 32.0112 0.374782 0.556578 0
M  V30 351 H 34.5552 1.61532 1.2541 0
M  V30 352 H 32.7102 1.16196 3.69564 0
M  V30 353 H 33.1242 3.34926 4.0364 0
M  V30 354 H 34.5982 2.03532 5.13107 0
M  V30 355 H 35.0752 0.524155 4.36061 0
M  V30 356 H 35.6812 2.06741 3.7167 0
M  V30 357 N 33.9963 -1.19345 1.0293 0
M  V30 358 C 34.9283 -2.22036 0.56857 0
M  V30 359 C 35.9413 -1.58865 -0.355779 0
M  V30 360 O 37.1303 -1.77851 -0.152103 0
M  V30 361 C 34.2303 -3.38363 -0.190752 0
M  V30 362 C 33.4033 -4.31118 0.738643 0
M  V30 363 C 32.4623 -5.26194 0.0246497 0
M  V30 364 O 31.4883 -5.65461 0.651354 0
M  V30 365 N 32.6903 -5.66971 -1.24594 0
M  V30 366 H 35.4553 -2.6219 1.45177 0
M  V30 367 H 33.0163 -1.34015 0.908381 0
M  V30 368 H 35.0083 -3.98981 -0.677961 0
M  V30 369 H 33.5783 -2.96994 -0.975366 0
M  V30 370 H 32.7983 -3.68276 1.40593 0
M  V30 371 H 34.0863 -4.90001 1.37029 0
M  V30 372 H 33.4843 -5.37104 -1.77583 0
M  V30 373 H 32.0413 -6.2984 -1.67764 0
M  V30 374 N 35.4744 -0.807222 -1.35358 0
M  V30 375 C 36.7044 -0.399796 -2.02695 0
M  V30 376 C 37.1124 0.994176 -1.60974 0
M  V30 377 O 36.4554 1.65209 -0.803226 0
M  V30 378 C 36.5174 -0.404445 -3.57218 0
M  V30 379 C 36.1814 -1.74904 -4.22206 0
M  V30 380 C 37.1784 -2.70743 -4.4384 0
M  V30 381 C 34.8634 -2.03322 -4.5931 0
M  V30 382 C 36.8574 -3.93183 -5.01683 0
M  V30 383 C 34.5444 -3.26026 -5.16866 0
M  V30 384 C 35.5424 -4.20774 -5.37994 0
M  V30 385 O 35.2304 -5.41312 -5.94337 0
M  V30 386 H 34.9624 -0.160517 -0.656666 0
M  V30 387 H 37.5164 -1.09235 -1.73945 0
M  V30 388 H 35.7464 0.344707 -3.85161 0
M  V30 389 H 37.4354 -0.0192429 -4.05895 0
M  V30 390 H 38.2014 -2.5008 -4.15554 0
M  V30 391 H 34.0804 -1.30384 -4.42178 0
M  V30 392 H 37.6244 -4.6715 -5.1809 0
M  V30 393 H 33.5214 -3.46559 -5.44579 0
M  V30 394 H 34.2894 -5.42618 -6.12787 0
M  V30 395 N 36.9525 1.47285 -0.560781 0
M  V30 396 C 38.1985 2.02764 -0.0381184 0
M  V30 397 C 38.5315 1.43384 1.30976 0
M  V30 398 O 37.8065 0.590733 1.85312 0
M  V30 399 C 38.0895 3.60064 0.0511427 0
M  V30 400 C 37.9425 4.2987 -1.32408 0
M  V30 401 C 39.2615 4.33439 0.762795 0
M  V30 402 H 36.3805 0.736841 -0.0153264 0
M  V30 403 H 39.0225 1.75675 -0.723759 0
M  V30 404 H 37.1725 3.83274 0.635065 0
M  V30 405 H 38.8445 4.17989 -1.95148 0
M  V30 406 H 37.0875 3.90085 -1.8978 0
M  V30 407 H 37.7585 5.38478 -1.21431 0
M  V30 408 H 40.2345 4.15243 0.266965 0
M  V30 409 H 39.1105 5.43124 0.794221 0
M  V30 410 H 39.3715 4.02915 1.81966 0
M  V30 411 N 38.4306 0.297415 1.54768 0
M  V30 412 C 39.6586 -0.315623 2.04478 0
M  V30 413 C 40.0736 -1.47792 1.17486 0
M  V30 414 O 39.4306 -1.81404 0.19971 0
M  V30 415 C 39.4816 -0.7753 3.53088 0
M  V30 416 O 39.2026 0.340732 4.36773 0
M  V30 417 C 40.7036 -1.45386 4.18781 0
M  V30 418 H 37.9236 -0.0690887 0.667434 0
M  V30 419 H 40.4676 0.436003 1.99798 0
M  V30 420 H 38.6226 -1.47696 3.58141 0
M  V30 421 H 39.0366 -0.0165035 5.24497 0
M  V30 422 H 40.5106 -1.72669 5.24299 0
M  V30 423 H 40.9876 -2.39275 3.68299 0
M  V30 424 H 41.5936 -0.795475 4.17795 0
M  V30 425 N 39.9087 -1.5758 0.0250728 0
M  V30 426 C 41.1547 -1.91917 -0.655413 0
M  V30 427 C 41.4877 -0.901433 -1.72011 0
M  V30 428 O 40.7627 0.0764069 -1.9435 0
M  V30 429 C 41.0457 -3.36751 -1.27558 0
M  V30 430 C 40.8987 -4.49258 -0.220719 0
M  V30 431 C 42.2177 -3.81469 -2.19475 0
M  V30 432 H 39.3367 -0.697925 -0.23679 0
M  V30 433 H 41.9787 -1.89825 0.0815036 0
M  V30 434 H 40.1287 -3.38664 -1.90365 0
M  V30 435 H 41.8007 -4.59478 0.409601 0
M  V30 436 H 40.0437 -4.31415 0.454264 0
M  V30 437 H 40.7147 -5.47618 -0.694175 0
M  V30 438 H 43.1907 -3.81266 -1.66659 0
M  V30 439 H 42.0667 -4.83512 -2.59822 0
M  V30 440 H 42.3277 -3.16744 -3.08424 0
M  V30 441 N 41.3868 0.248026 -1.55636 0
M  V30 442 C 42.6338 0.976224 -1.77415 0
M  V30 443 C 42.9618 1.85361 -0.589193 0
M  V30 444 O 42.2168 1.90973 0.427529 0
M  V30 445 C 42.5158 1.86819 -3.04686 0
M  V30 446 C 42.1818 1.14625 -4.36087 0
M  V30 447 C 40.8438 0.946723 -4.71795 0
M  V30 448 C 43.1958 0.634463 -5.17324 0
M  V30 449 C 40.5238 0.223091 -5.86276 0
M  V30 450 C 42.8758 -0.0756959 -6.32555 0
M  V30 451 C 41.5398 -0.286711 -6.66884 0
M  V30 452 H 40.8098 0.357226 -0.649208 0
M  V30 453 H 43.4568 0.246415 -1.89908 0
M  V30 454 H 41.7618 2.66502 -2.872 0
M  V30 455 H 43.4588 2.43329 -3.18735 0
M  V30 456 H 40.0488 1.3117 -4.08035 0
M  V30 457 H 44.2328 0.77616 -4.90193 0
M  V30 458 H 39.4888 0.0491185 -6.1138 0
M  V30 459 H 43.6628 -0.479899 -6.94745 0
M  V30 460 H 41.2898 -0.849389 -7.5544 0
M  V30 461 N 42.8649 1.48995 0.513639 0
M  V30 462 C 44.0949 1.61297 1.291 0
M  V30 463 C 44.5029 0.278656 1.87137 0
M  V30 464 O 43.8459 -0.744325 1.67945 0
M  V30 465 C 43.9079 2.61326 2.46879 0
M  V30 466 C 43.5719 4.05993 2.09807 0
M  V30 467 C 44.5689 4.93183 1.64519 0
M  V30 468 C 42.2539 4.51642 2.19829 0
M  V30 469 C 44.2479 6.24056 1.2974 0
M  V30 470 C 41.9349 5.82532 1.84662 0
M  V30 471 C 42.9329 6.68562 1.3969 0
M  V30 472 O 42.6209 7.97014 1.04992 0
M  V30 473 H 42.3529 0.546236 0.39825 0
M  V30 474 H 44.9069 1.95673 0.62459 0
M  V30 475 H 43.1369 2.22104 3.16554 0
M  V30 476 H 44.8259 2.6329 3.08923 0
M  V30 477 H 45.5919 4.59147 1.56233 0
M  V30 478 H 41.4709 3.84855 2.53786 0
M  V30 479 H 45.0149 6.91161 0.945659 0
M  V30 480 H 40.9119 6.16099 1.92594 0
M  V30 481 H 41.6799 8.09913 1.18249 0
M  V30 482 N 44.343 -0.763751 1.37857 0
M  V30 483 C 45.591 -1.51957 1.33243 0
M  V30 484 C 45.912 -1.94835 -0.0801709 0
M  V30 485 O 45.182 -1.66894 -1.02582 0
M  V30 486 H 43.762 -0.563626 0.49024 0
M  V30 487 H 46.424 -0.908504 1.7243 0
M  V30 488 H 45.52 -2.41523 1.97669 0
M  V30 489 N 45.8211 -1.22559 -0.990812 0
M  V30 490 C 47.0671 -1.05297 -1.73322 0
M  V30 491 C 47.4001 0.410655 -1.89808 0
M  V30 492 O 46.6751 1.30439 -1.44277 0
M  V30 493 C 46.9581 -1.76713 -3.13759 0
M  V30 494 C 46.8111 -3.30684 -3.04907 0
M  V30 495 C 48.1301 -1.52121 -4.12974 0
M  V30 496 H 45.2491 -0.38392 -0.629106 0
M  V30 497 H 47.8911 -1.50926 -1.15418 0
M  V30 498 H 46.0411 -1.37924 -3.63193 0
M  V30 499 H 47.7131 -3.7893 -2.63077 0
M  V30 500 H 45.9561 -3.60253 -2.41661 0
M  V30 501 H 46.6271 -3.75833 -4.04294 0
M  V30 502 H 49.1031 -1.85819 -3.72304 0
M  V30 503 H 47.9791 -2.04582 -5.0935 0
M  V30 504 H 48.2401 -0.454257 -4.3976 0
M  V30 505 N 47.2992 1.18797 -1.03562 0
M  V30 506 C 48.7102 1.70322 -0.764676 0
M  V30 507 C 49.0612 1.82708 0.714996 0
M  V30 508 O 48.1862 1.50299 1.55689 0
M  V30 509 C 48.7812 3.09356 -1.38145 0
M  V30 510 C 47.3402 3.58114 -1.15895 0
M  V30 511 C 46.4872 2.34798 -1.4753 0
M  V30 512 H 49.4382 1.03543 -1.20268 0
M  V30 513 H 49.4592 3.72378 -0.781977 0
M  V30 514 H 48.9712 3.00309 -2.45837 0
M  V30 515 H 47.0722 3.72464 -0.100544 0
M  V30 516 H 47.1852 4.4184 -1.8524 0
M  V30 517 H 45.5492 2.38464 -0.894829 0
M  V30 518 H 46.3322 2.28375 -2.56319 0
M  V30 519 N 48.7773 0.814389 1.34928 0
M  V30 520 C 49.7403 0.235759 2.27984 0
M  V30 521 C 50.7403 -0.581412 1.49921 0
M  V30 522 O 51.9303 -0.398758 1.69575 0
M  V30 523 C 49.0623 -0.670433 3.34242 0
M  V30 524 H 50.2553 1.05659 2.80671 0
M  V30 525 H 47.8083 0.585614 1.44915 0
M  V30 526 H 48.5433 -1.51466 2.86755 0
M  V30 527 H 48.3283 -0.0860822 3.92005 0
M  V30 528 H 49.8183 -1.06935 4.03676 0
M  V30 529 N 50.2554 -1.46986 0.568584 0
M  V30 530 C 51.5014 -2.0332 0.0571487 0
M  V30 531 C 51.8564 -1.43384 -1.28291 0
M  V30 532 O 51.1494 -0.584304 -1.82473 0
M  V30 533 C 51.3434 -3.57306 -0.081836 0
M  V30 534 C 51.1724 -4.32174 1.24321 0
M  V30 535 C 49.9424 -4.71633 1.81358 0
M  V30 536 C 52.1404 -4.66598 2.16312 0
M  V30 537 N 50.1224 -5.31191 3.07748 0
M  V30 538 C 51.4934 -5.26578 3.27285 0
M  V30 539 C 53.5484 -4.48527 2.16166 0
M  V30 540 C 52.2514 -5.70395 4.38226 0
M  V30 541 C 54.2774 -4.93351 3.26127 0
M  V30 542 C 53.6394 -5.5339 4.3582 0
M  V30 543 H 49.7384 -0.77943 0.063351 0
M  V30 544 H 52.3224 -1.79323 0.758378 0
M  V30 545 H 50.4934 -3.81046 -0.752207 0
M  V30 546 H 52.2254 -4.00282 -0.59637 0
M  V30 547 H 48.9804 -4.53946 1.35019 0
M  V30 548 H 49.4044 -5.65505 3.72201 0
M  V30 549 H 54.0464 -4.01456 1.32638 0
M  V30 550 H 51.7644 -6.16452 5.22506 0
M  V30 551 H 55.3504 -4.81131 3.27115 0
M  V30 552 H 54.2304 -5.87441 5.19503 0
M  V30 553 N 51.7335 -0.305618 -1.54608 0
M  V30 554 C 53.1495 0.0476228 -1.59529 0
M  V30 555 C 53.3495 1.52025 -1.32252 0
M  V30 556 O 52.4055 2.27368 -1.09818 0
M  V30 557 C 53.7185 -0.354471 -2.98603 0
M  V30 558 C 55.2665 -0.303622 -3.11524 0
M  V30 559 C 55.7415 -0.680608 -4.52915 0
M  V30 560 N 57.2325 -0.63332 -4.5885 0
M  V30 561 C 57.9675 -0.897432 -5.66334 0
M  V30 562 N 57.4635 -1.22775 -6.81834 0
M  V30 563 N 59.2565 -0.824186 -5.56025 0
M  V30 564 H 51.4075 -1.2653 -1.70599 0
M  V30 565 H 53.6705 -0.513291 -0.797017 0
M  V30 566 H 53.3765 -1.3798 -3.23503 0
M  V30 567 H 53.2505 0.289568 -3.76087 0
M  V30 568 H 55.6375 0.712472 -2.8637 0
M  V30 569 H 55.7185 -0.982348 -2.36185 0
M  V30 570 H 55.3625 -1.69453 -4.78799 0
M  V30 571 H 55.2925 0.0202385 -5.26596 0
M  V30 572 H 57.7835 -0.389138 -3.75891 0
M  V30 573 H 58.0965 -1.41513 -7.59733 0
M  V30 574 H 56.4415 -1.26583 -6.83375 0
M  V30 575 H 59.6325 -0.565748 -4.64669 0
M  V30 576 H 59.8055 -1.03338 -6.39707 0
M  V30 577 N 53.2116 1.57565 -0.0334293 0
M  V30 578 C 54.1596 2.1164 0.96496 0
M  V30 579 C 55.1536 1.04398 1.33407 0
M  V30 580 O 56.3596 1.22828 1.3158 0
M  V30 581 H 52.7346 0.676222 0.32898 0
M  V30 582 H 54.7056 2.94455 0.483614 0
M  V30 583 C 53.4546 2.66207 2.23672 0
M  V30 584 H 52.7776 3.48378 1.96145 0
M  V30 585 H 54.2176 3.07685 2.9173 0
M  V30 586 C 52.6766 1.59151 2.96939 0
M  V30 587 O 53.2066 0.993858 3.89211 0
M  V30 588 N 51.4126 1.31093 2.59351 0
M  V30 589 H 50.9596 1.7988 1.84393 0
M  V30 590 H 50.9176 0.596889 3.08682 0
M  V30 591 N 54.6897 -0.239769 1.55765 0
M  V30 592 C 55.6527 -1.28038 1.90103 0
M  V30 593 C 56.6527 -1.40723 0.778055 0
M  V30 594 O 57.8427 -1.39301 1.04599 0
M  V30 595 C 54.9747 -2.65702 2.13577 0
M  V30 596 H 56.1677 -0.988048 2.83157 0
M  V30 597 H 53.7207 -0.479382 1.48767 0
M  V30 598 H 54.4557 -3.00063 1.23015 0
M  V30 599 H 54.2407 -2.57875 2.95369 0
M  V30 600 H 55.7307 -3.40828 2.41301 0
M  V30 601 N 56.1678 -1.49265 -0.50573 0
M  V30 602 C 57.3958 -1.62215 -1.28429 0
M  V30 603 C 57.8108 -0.291697 -1.86533 0
M  V30 604 O 57.1678 0.722233 -1.67601 0
M  V30 605 C 57.2188 -2.68735 -2.41793 0
M  V30 606 O 56.9398 -3.96619 -1.86078 0
M  V30 607 C 58.4408 -2.92346 -3.3324 0
M  V30 608 H 55.6608 -0.546239 -0.389697 0
M  V30 609 H 58.2048 -1.95265 -0.607609 0
M  V30 610 H 56.3598 -2.38476 -3.053 0
M  V30 611 H 56.7738 -4.55256 -2.60465 0
M  V30 612 H 58.2478 -3.70623 -4.09075 0
M  V30 613 H 58.7248 -2.02081 -3.89948 0
M  V30 614 H 59.3308 -3.24003 -2.75503 0
M  V30 615 N 57.6459 0.756429 -1.3826 0
M  V30 616 C 58.8949 1.51082 -1.3363 0
M  V30 617 C 59.2079 1.95467 0.0720068 0
M  V30 618 O 60.4139 2.7043 0.240834 0
M  V30 619 C 58.8699 2.72893 -2.34644 0
M  V30 620 C 58.4779 2.35544 -3.81081 0
M  V30 621 C 60.2219 3.50791 -2.39052 0
M  V30 622 C 58.1289 3.53948 -4.73787 0
M  V30 623 H 57.0589 0.56727 -0.49671 0
M  V30 624 H 59.7099 0.827147 -1.638 0
M  V30 625 H 58.0919 3.43227 -1.97513 0
M  V30 626 H 59.2659 1.72894 -4.27135 0
M  V30 627 H 57.5809 1.70786 -3.79764 0
M  V30 628 H 60.1779 4.38823 -3.05513 0
M  V30 629 H 60.5209 3.91745 -1.40861 0
M  V30 630 H 61.0539 2.87467 -2.74968 0
M  V30 631 H 57.7929 3.18064 -5.73163 0
M  V30 632 H 57.3129 4.15651 -4.32428 0
M  V30 633 H 58.9919 4.20566 -4.91663 0
M  V30 634 N 59.124 1.23083 0.984299 0
M  V30 635 C 60.535 1.05609 1.5396 0
M  V30 636 C 60.886 -0.377793 1.92528 0
M  V30 637 O 60.011 -1.26398 1.75649 0
M  V30 638 C 60.606 1.91087 2.7977 0
M  V30 639 C 59.165 1.77885 3.31713 0
M  V30 640 C 58.312 1.87028 2.04733 0
M  V30 641 H 61.263 1.36802 0.804419 0
M  V30 642 H 61.284 1.43336 3.5247 0
M  V30 643 H 60.796 2.9544 2.51668 0
M  V30 644 H 58.897 0.762995 3.64704 0
M  V30 645 H 59.01 2.61047 4.01735 0
M  V30 646 H 57.374 1.30565 2.18689 0
M  V30 647 H 58.157 2.92929 1.79017 0
M  V30 648 N 60.6021 -1.18246 1.0419 0
M  V30 649 C 61.5321 -2.24127 0.654914 0
M  V30 650 C 62.5131 -1.66617 -0.342451 0
M  V30 651 O 63.6981 -1.92924 -0.222277 0
M  V30 652 C 60.8281 -3.47295 0.0183757 0
M  V30 653 C 59.7821 -4.17563 0.939414 0
M  V30 654 C 59.1081 -5.34438 0.167286 0
M  V30 655 C 60.4081 -4.70917 2.25908 0
M  V30 656 H 62.1021 -2.56753 1.54007 0
M  V30 657 H 59.6481 -1.23414 0.74195 0
M  V30 658 H 61.6011 -4.20572 -0.264082 0
M  V30 659 H 60.3251 -3.13907 -0.901664 0
M  V30 660 H 58.9841 -3.46186 1.20628 0
M  V30 661 H 58.6321 -4.97298 -0.7552 0
M  V30 662 H 58.3321 -5.82388 0.780901 0
M  V30 663 H 59.8561 -6.10504 -0.108125 0
M  V30 664 H 61.2701 -5.35882 2.03724 0
M  V30 665 H 59.6671 -5.29406 2.82577 0
M  V30 666 H 60.7371 -3.88272 2.9047 0
M  V30 667 N 62.0802 -0.821533 -1.34494 0
M  V30 668 C 63.3272 -0.408946 -1.98328 0
M  V30 669 C 63.6552 1.02764 -1.65136 0
M  V30 670 O 62.9102 1.73026 -0.914349 0
M  V30 671 C 63.2092 -0.556512 -3.53041 0
M  V30 672 C 62.8752 -1.95861 -4.0614 0
M  V30 673 C 61.5372 -2.34217 -4.20352 0
M  V30 674 C 63.8892 -2.87523 -4.34718 0
M  V30 675 C 61.2172 -3.63572 -4.6047 0
M  V30 676 C 63.5692 -4.1634 -4.76281 0
M  V30 677 C 62.2332 -4.54675 -4.88699 0
M  V30 678 H 61.5032 -0.149644 -0.725732 0
M  V30 679 H 64.1502 -1.04521 -1.6046 0
M  V30 680 H 62.4552 0.163148 -3.9146 0
M  V30 681 H 64.1522 -0.217826 -4.00408 0
M  V30 682 H 60.7422 -1.65066 -3.95539 0
M  V30 683 H 64.9262 -2.59133 -4.23277 0
M  V30 684 H 60.1822 -3.93101 -4.68275 0
M  V30 685 H 64.3562 -4.87455 -4.97354 0
M  V30 686 H 61.9832 -5.54959 -5.19542 0
M  V30 687 N 63.5583 1.46682 -0.576371 0
M  V30 688 C 64.7983 2.04306 -0.0621356 0
M  V30 689 C 65.1623 1.4389 1.2712 0
M  V30 690 O 66.3633 1.92675 1.87429 0
M  V30 691 C 64.6343 3.57399 0.00927922 0
M  V30 692 S 66.1933 4.36309 0.466859 0
M  V30 693 H 63.0113 0.710167 -0.0344016 0
M  V30 694 H 65.6133 1.79807 -0.767437 0
M  V30 695 H 64.3173 3.98889 -0.965178 0
M  V30 696 H 63.8483 3.86424 0.737547 0
M  V30 697 H 65.8633 4.6533 1.72287 0
M  V30 698 N 65.0364 0.313813 1.54444 0
M  V30 699 C 65.9994 -0.54379 2.22656 0
M  V30 700 C 66.9994 -1.05124 1.21678 0
M  V30 701 O 68.1894 -0.945225 1.46325 0
M  V30 702 C 65.3214 -1.75427 2.92298 0
M  V30 703 H 66.5144 0.0523599 2.99854 0
M  V30 704 H 64.0674 0.0647834 1.56166 0
M  V30 705 H 64.8024 -2.38991 2.19211 0
M  V30 706 H 64.5874 -1.39791 3.66334 0
M  V30 707 H 66.0774 -2.36325 3.44297 0
M  V30 708 N 66.5145 -1.57545 0.0417849 0
M  V30 709 C 67.7425 -1.96624 -0.643928 0
M  V30 710 C 68.1575 -0.918897 -1.64929 0
M  V30 711 O 67.5145 0.0979323 -1.82237 0
M  V30 712 C 67.5655 -3.35781 -1.33914 0
M  V30 713 O 67.2865 -4.365 -0.374048 0
M  V30 714 C 68.7875 -3.89566 -2.1155 0
M  V30 715 H 66.0075 -0.647316 -0.176702 0
M  V30 716 H 68.5515 -2.04229 0.105304 0
M  V30 717 H 66.7065 -3.29357 -2.03968 0
M  V30 718 H 67.1205 -5.17248 -0.869179 0
M  V30 719 H 68.5945 -4.89242 -2.55628 0
M  V30 720 H 69.0715 -3.24488 -2.9598 0
M  V30 721 H 69.6775 -3.99298 -1.46427 0
M  V30 722 N 67.9926 0.231505 -1.5589 0
M  V30 723 C 68.9396 1.28682 -1.91598 0
M  V30 724 C 69.9096 1.47071 -0.771974 0
M  V30 725 O 71.0946 1.60802 -1.027 0
M  V30 726 C 68.2346 2.6342 -2.22944 0
M  V30 727 C 67.3476 2.52912 -3.50228 0
M  V30 728 C 66.4826 3.80106 -3.7107 0
M  V30 729 C 65.5216 3.64279 -4.91902 0
M  V30 730 N 64.6586 4.834 -5.09184 0
M  V30 731 H 69.4986 0.975305 -2.81588 0
M  V30 732 H 67.0356 0.470299 -1.39379 0
M  V30 733 H 68.9936 3.41869 -2.39126 0
M  V30 734 H 67.6236 2.92687 -1.36139 0
M  V30 735 H 66.6756 1.6595 -3.42294 0
M  V30 736 H 67.9876 2.37133 -4.38827 0
M  V30 737 H 67.1416 4.66999 -3.87295 0
M  V30 738 H 65.8806 3.98799 -2.80733 0
M  V30 739 H 64.8856 2.7577 -4.75637 0
M  V30 740 H 66.1106 3.47067 -5.83714 0
M  V30 741 H 64.0566 5.02425 -4.21788 0
M  V30 742 H 63.9736 4.70311 -5.91898 0
M  V30 743 H 65.2416 5.71747 -5.29835 0
M  V30 744 N 69.4707 1.49531 0.497807 0
M  V30 745 C 70.4187 1.66926 1.61983 0
M  V30 746 C 71.4127 0.535167 1.60724 0
M  V30 747 O 72.6187 0.714896 1.65195 0
M  V30 748 H 68.9937 0.526415 0.537021 0
M  V30 749 H 70.9647 2.61098 1.44465 0
M  V30 750 C 69.7137 1.75602 3.00099 0
M  V30 751 H 69.0367 2.62244 3.01775 0
M  V30 752 H 70.4767 1.91807 3.78135 0
M  V30 753 C 68.9357 0.501543 3.33146 0
M  V30 754 O 69.4657 -0.371342 3.9998 0
M  V30 755 N 67.6717 0.363531 2.88317 0
M  V30 756 H 67.2187 1.07485 2.34104 0
M  V30 757 H 67.1767 -0.474728 3.10795 0
M  V30 758 N 70.9488 -0.749086 1.3866 0
M  V30 759 C 72.3648 -1.05276 1.19955 0
M  V30 760 C 72.5648 -2.01435 0.05134 0
M  V30 761 O 71.6208 -2.45232 -0.60147 0
M  V30 762 C 72.9338 -1.62853 2.52783 0
M  V30 763 C 74.4818 -1.75002 2.59506 0
M  V30 764 C 74.9568 -2.35991 3.92521 0
M  V30 765 N 76.4478 -2.43416 3.94085 0
M  V30 766 C 77.1828 -2.91511 4.9377 0
M  V30 767 N 76.6788 -3.39608 6.03853 0
M  V30 768 N 78.4718 -2.90592 4.81157 0
M  V30 769 H 70.6228 -0.111066 2.12109 0
M  V30 770 H 72.8858 -0.111901 0.941373 0
M  V30 771 H 72.5918 -0.99664 3.37283 0
M  V30 772 H 72.4658 -2.61854 2.715 0
M  V30 773 H 74.8528 -2.37317 1.75398 0
M  V30 774 H 74.9338 -0.74693 2.44652 0
M  V30 775 H 74.5778 -1.74308 4.77053 0
M  V30 776 H 74.5078 -3.3695 4.04688 0
M  V30 777 H 76.9988 -2.09405 3.14576 0
M  V30 778 H 77.3118 -3.74775 6.75843 0
M  V30 779 H 75.6568 -3.37653 6.07466 0
M  V30 780 H 78.8478 -2.52332 3.94267 0
M  V30 781 H 79.0208 -3.27762 5.58996 0
M  V30 782 N 72.4269 -1.23603 -0.977757 0
M  V30 783 C 73.7039 -0.977897 -1.69401 0
M  V30 784 C 74.0839 0.502738 -2.05026 0
M  V30 785 O 73.4319 1.47459 -1.74551 0
M  V30 786 C 73.6419 -1.89077 -2.93345 0
M  V30 787 C 74.9899 -2.15579 -3.65802 0
M  V30 788 O 76.0139 -1.86648 -3.03383 0
M  V30 789 O 74.8729 -2.64658 -4.78141 0
M  V30 790 H 71.9669 -0.369025 -0.740101 0
M  V30 791 H 74.5129 -1.34657 -1.03274 0
M  V30 792 H 73.2849 -2.89158 -2.63634 0
M  V30 793 H 72.9079 -1.52463 -3.67207 0
M  V30 794 N 73.905 1.17692 -1.04816 0
M  V30 795 C 75.133 1.91786 -0.776254 0
M  V30 796 C 75.548 1.76604 0.667577 0
M  V30 797 O 74.905 1.10067 1.45573 0
M  V30 798 C 74.956 3.42967 -1.14263 0
M  V30 799 O 74.677 3.57678 -2.52978 0
M  V30 800 C 76.178 4.34144 -0.896311 0
M  V30 801 H 73.398 0.608624 -0.282519 0
M  V30 802 H 75.942 1.49268 -1.39783 0
M  V30 803 H 74.097 3.83245 -0.565874 0
M  V30 804 H 74.511 4.51319 -2.67229 0
M  V30 805 H 75.985 5.38744 -1.20244 0
M  V30 806 H 76.462 4.38876 0.168636 0
M  V30 807 H 77.068 3.99574 -1.45672 0
M  V30 808 N 75.3831 0.828654 1.34056 0
M  V30 809 C 76.6291 0.429279 1.98818 0
M  V30 810 C 76.9841 -0.998011 1.64492 0
M  V30 811 O 76.2771 -1.68652 0.909228 0
M  V30 812 C 76.4711 0.575226 3.52741 0
M  V30 813 C 76.3001 2.01515 4.02022 0
M  V30 814 C 75.0701 2.64825 4.30344 0
M  V30 815 C 77.2681 2.98261 4.18981 0
M  V30 816 N 75.2501 3.99998 4.65698 0
M  V30 817 C 76.6211 4.18356 4.57578 0
M  V30 818 C 78.6761 2.94802 4.01243 0
M  V30 819 C 77.3791 5.35454 4.80293 0
M  V30 820 C 79.4051 4.11121 4.25128 0
M  V30 821 C 78.7671 5.29969 4.64018 0
M  V30 822 H 74.8661 0.205304 0.754569 0
M  V30 823 H 77.4501 1.07457 1.62361 0
M  V30 824 H 75.6211 -0.0401962 3.88379 0
M  V30 825 H 77.3531 0.148292 4.04428 0
M  V30 826 H 74.1081 2.16027 4.21461 0
M  V30 827 H 74.5321 4.69653 4.87601 0
M  V30 828 H 79.1741 2.04054 3.70299 0
M  V30 829 H 76.8921 6.26755 5.10102 0
M  V30 830 H 80.4781 4.0985 4.12934 0
M  V30 831 H 79.3581 6.18479 4.82134 0
M  V30 832 N 76.8612 -1.46375 0.584142 0
M  V30 833 C 78.1092 -2.01978 0.0701287 0
M  V30 834 C 78.4302 -1.4579 -1.295 0
M  V30 835 O 77.7002 -0.64314 -1.85042 0
M  V30 836 H 76.2802 -0.746648 0.0229345 0
M  V30 837 H 78.9422 -1.79461 0.760245 0
M  V30 838 H 78.0382 -3.121 0.0022064 0
M  V30 839 N 78.3393 -0.321999 -1.54275 0
M  V30 840 C 79.5673 0.283052 -2.04955 0
M  V30 841 C 79.9823 1.45904 -1.19823 0
M  V30 842 O 79.3393 1.81063 -0.228545 0
M  V30 843 C 79.3903 0.719028 -3.54277 0
M  V30 844 O 79.1113 -0.410175 -4.36176 0
M  V30 845 C 80.6123 1.38705 -4.21041 0
M  V30 846 H 77.8323 0.0584616 -0.668448 0
M  V30 847 H 80.3763 -0.467734 -1.99079 0
M  V30 848 H 78.5313 1.41979 -3.60445 0
M  V30 849 H 78.9453 -0.0669416 -5.24457 0
M  V30 850 H 80.4193 1.64306 -5.2698 0
M  V30 851 H 80.8963 2.33385 -3.72059 0
M  V30 852 H 81.5023 0.728906 -4.19007 0
M  V30 853 N 79.8174 1.5752 -0.0501392 0
M  V30 854 C 81.0454 1.96963 0.633492 0
M  V30 855 C 81.4604 0.927631 1.6444 0
M  V30 856 O 80.8174 -0.0882665 1.82286 0
M  V30 857 C 80.8684 3.36487 1.32132 0
M  V30 858 O 80.5894 4.36693 0.350894 0
M  V30 859 C 82.0904 3.90682 2.09481 0
M  V30 860 H 79.3104 0.648244 0.173266 0
M  V30 861 H 81.8544 2.0417 -0.116134 0
M  V30 862 H 80.0094 3.30434 2.02218 0
M  V30 863 H 80.4234 5.17702 0.841735 0
M  V30 864 H 81.8974 4.90591 2.5303 0
M  V30 865 H 82.3744 3.26053 2.94255 0
M  V30 866 H 82.9804 4.00069 1.44307 0
M  V30 867 N 81.2955 -0.223234 1.56011 0
M  V30 868 C 82.2275 -1.30006 1.88762 0
M  V30 869 C 83.2405 -1.43129 0.775746 0
M  V30 870 O 84.4295 -1.44057 1.05403 0
M  V30 871 C 81.5295 -2.67589 2.07965 0
M  V30 872 C 80.7025 -2.76434 3.38973 0
M  V30 873 C 79.7615 -3.95019 3.47629 0
M  V30 874 O 78.7875 -3.83436 4.20672 0
M  V30 875 N 79.9895 -5.09249 2.78649 0
M  V30 876 H 82.7545 -1.02238 2.81722 0
M  V30 877 H 80.3155 -0.413278 1.56536 0
M  V30 878 H 82.3075 -3.45297 2.11073 0
M  V30 879 H 80.8775 -2.87964 1.21638 0
M  V30 880 H 80.0975 -1.85216 3.47978 0
M  V30 881 H 81.3855 -2.79313 4.25278 0
M  V30 882 H 80.7835 -5.21556 2.19081 0
M  V30 883 H 79.3405 -5.85007 2.8742 0
M  V30 884 N 82.7736 -1.49793 -0.48987 0
M  V30 885 C 84.0136 -1.61466 -1.25332 0
M  V30 886 C 84.3776 -0.299688 -1.89647 0
M  V30 887 O 85.5786 -0.291687 -2.67213 0
M  V30 888 C 83.8496 -2.74944 -2.28343 0
M  V30 889 S 85.4086 -3.06637 -3.13878 0
M  V30 890 H 82.2266 -0.569411 -0.425784 0
M  V30 891 H 84.8286 -1.875 -0.553541 0
M  V30 892 H 83.5326 -3.68994 -1.79643 0
M  V30 893 H 83.0636 -2.50938 -3.02975 0
M  V30 894 H 85.0786 -2.49015 -4.29192 0
M  V30 895 N 84.2517 0.741722 -1.39055 0
M  V30 896 C 85.1817 1.869 -1.39966 0
M  V30 897 C 86.1627 1.6804 -0.26392 0
M  V30 898 O 87.3477 1.88458 -0.468755 0
M  V30 899 C 84.4777 3.24572 -1.23574 0
M  V30 900 C 83.4317 3.58056 -2.34477 0
M  V30 901 C 82.7577 4.94593 -2.0318 0
M  V30 902 C 84.0577 3.61716 -3.76774 0
M  V30 903 H 85.7517 1.86395 -2.34302 0
M  V30 904 H 83.2977 0.895361 -1.1278 0
M  V30 905 H 85.2507 4.031 -1.22834 0
M  V30 906 H 83.9747 3.25587 -0.257045 0
M  V30 907 H 82.6337 2.81854 -2.34423 0
M  V30 908 H 82.2817 4.92181 -1.03765 0
M  V30 909 H 81.9817 5.17964 -2.77465 0
M  V30 910 H 83.5057 5.75486 -2.04079 0
M  V30 911 H 84.9197 4.30335 -3.78794 0
M  V30 912 H 83.3167 3.96603 -4.50362 0
M  V30 913 H 84.3867 2.61672 -4.08235 0
M  V30 914 N 85.7298 1.2412 0.971189 0
M  V30 915 C 87.1408 1.07236 1.52831 0
M  V30 916 C 87.4918 -0.357352 1.92918 0
M  V30 917 O 86.6168 -1.24528 1.76979 0
M  V30 918 C 87.2118 1.94043 2.77728 0
M  V30 919 C 85.7708 1.81394 3.29808 0
M  V30 920 C 84.9178 1.89189 2.02738 0
M  V30 921 H 87.8688 1.37648 0.789864 0
M  V30 922 H 87.8898 1.47066 3.5093 0
M  V30 923 H 87.4018 2.98093 2.4852 0
M  V30 924 H 85.5028 0.801634 3.63874 0
M  V30 925 H 85.6158 2.65294 3.98944 0
M  V30 926 H 83.9798 1.32877 2.17292 0
M  V30 927 H 84.7628 2.94812 1.759 0
M  V30 928 N 87.2079 -1.17134 1.05439 0
M  V30 929 C 88.4849 -1.83411 0.679699 0
M  V30 930 C 88.8649 -1.9368 -0.839726 0
M  V30 931 O 88.2129 -1.47325 -1.74664 0
M  V30 932 C 88.4229 -3.20918 1.37159 0
M  V30 933 C 89.7709 -3.96796 1.51123 0
M  V30 934 O 90.7949 -3.30406 1.3308 0
M  V30 935 O 89.6539 -5.15778 1.80651 0
M  V30 936 H 86.7479 -0.79154 0.239569 0
M  V30 937 H 89.2939 -1.24411 1.15413 0
M  V30 938 H 88.0659 -3.08428 2.40807 0
M  V30 939 H 87.6889 -3.87587 0.886674 0
M  V30 940 N 88.686 -0.835752 -1.33615 0
M  V30 941 C 89.634 -0.255238 -2.31195 0
M  V30 942 C 90.628 0.61107 -1.57995 0
M  V30 943 O 91.834 0.500979 -1.72888 0
M  V30 944 H 88.209 -0.0638085 -0.749288 0
M  V30 945 H 90.18 -1.09283 -2.77669 0
M  V30 946 C 88.929 0.55754 -3.43201 0
M  V30 947 H 88.252 -0.0997553 -3.99676 0
M  V30 948 H 89.692 0.929622 -4.13683 0
M  V30 949 C 88.151 1.73515 -2.88781 0
M  V30 950 O 88.681 2.83376 -2.84712 0
M  V30 951 N 86.887 1.55603 -2.4543 0
M  V30 952 H 86.434 0.662354 -2.48939 0
M  V30 953 H 86.392 2.34545 -2.09371 0
M  V30 954 N 90.1641 1.46063 -0.591896 0
M  V30 955 C 91.4121 2.01938 -0.0808391 0
M  V30 956 C 91.7331 1.46475 1.28725 0
M  V30 957 O 91.0031 0.652944 1.84698 0
M  V30 958 H 89.5831 0.746516 -0.0268938 0
M  V30 959 H 92.2451 1.79055 -0.769752 0
M  V30 960 H 91.3411 3.12094 -0.0187578 0
M  V30 961 N 91.6422 0.330177 1.54103 0
M  V30 962 C 92.9192 -0.325007 1.92881 0
M  V30 963 C 93.2992 -1.6934 1.26045 0
M  V30 964 O 92.6472 -2.24855 0.406526 0
M  V30 965 C 92.8572 -0.410634 3.46576 0
M  V30 966 C 94.2052 -0.667801 4.19316 0
M  V30 967 O 95.2292 -0.49329 3.52768 0
M  V30 968 O 94.0882 -1.00491 5.37181 0
M  V30 969 H 91.1822 -0.186873 0.80561 0
M  V30 970 H 93.7282 0.380376 1.65382 0
M  V30 971 H 92.5002 0.550164 3.87413 0
M  V30 972 H 92.1232 -1.16333 3.802 0
M  V30 973 N 93.1203 -1.57491 0.0584922 0
M  V30 974 C 94.3503 -1.9701 -0.622134 0
M  V30 975 C 94.7583 -0.935034 -1.6448 0
M  V30 976 O 94.1013 0.0882904 -1.83488 0
M  V30 977 C 94.1633 -3.32794 -1.35972 0
M  V30 978 C 93.8273 -4.54343 -0.492043 0
M  V30 979 C 94.8243 -5.19323 0.244901 0
M  V30 980 C 92.5093 -5.00534 -0.420821 0
M  V30 981 C 94.5033 -6.28835 1.04143 0
M  V30 982 C 92.1903 -6.09921 0.379389 0
M  V30 983 C 93.1883 -6.73933 1.10919 0
M  V30 984 O 92.8763 -7.81216 1.89623 0
M  V30 985 H 92.6083 -0.653127 -0.174359 0
M  V30 986 H 95.1623 -2.05029 0.123418 0
M  V30 987 H 93.3923 -3.21351 -2.15105 0
M  V30 988 H 95.0813 -3.5701 -1.93129 0
M  V30 989 H 95.8473 -4.8459 0.19939 0
M  V30 990 H 91.7263 -4.50496 -0.978474 0
M  V30 991 H 95.2703 -6.7873 1.61157 0
M  V30 992 H 91.1673 -6.44089 0.426512 0
M  V30 993 H 91.9353 -7.98029 1.81913 0
M  V30 994 N 94.5984 0.214957 -1.56127 0
M  V30 995 C 95.8234 0.95924 -1.83884 0
M  V30 996 C 96.2484 1.7689 -0.639644 0
M  V30 997 O 95.6064 1.76566 0.411601 0
M  V30 998 C 95.6544 1.84723 -3.09693 0
M  V30 999 O 94.7584 2.94346 -2.8885 0
M  V30 1000 H 94.0994 0.27125 -0.606069 0
M  V30 1001 H 96.6294 0.226276 -2.03345 0
M  V30 1002 H 96.6394 2.25576 -3.39969 0
M  V30 1003 H 95.3144 1.25218 -3.96602 0
M  V30 1004 H 93.8914 2.57391 -2.69823 0
M  V30 1005 N 96.0765 1.50051 0.48192 0
M  V30 1006 C 96.9865 1.7089 1.60728 0
M  V30 1007 C 98.0025 0.591788 1.63627 0
M  V30 1008 O 99.1785 0.868817 1.81696 0
M  V30 1009 C 96.2435 1.78855 2.97005 0
M  V30 1010 C 95.3045 3.02537 3.04581 0
M  V30 1011 C 94.5375 3.10112 4.34357 0
M  V30 1012 O 94.7605 2.24765 5.24249 0
M  V30 1013 O 93.6945 4.02747 4.47301 0
M  V30 1014 H 97.5205 2.66264 1.46072 0
M  V30 1015 H 95.1055 1.34018 0.660264 0
M  V30 1016 H 96.9875 1.86336 3.77964 0
M  V30 1017 H 95.6625 0.866628 3.11883 0
M  V30 1018 H 94.5695 3.00563 2.22739 0
M  V30 1019 H 95.9025 3.94272 2.94636 0
M  V30 1020 N 97.5546 -0.734337 1.39446 0
M  V30 1021 C 98.4846 -1.86155 1.40955 0
M  V30 1022 C 99.4656 -1.67898 0.272827 0
M  V30 1023 O 100.651 -1.88207 0.478743 0
M  V30 1024 C 97.7806 -3.23912 1.25294 0
M  V30 1025 C 96.7346 -3.56808 2.36373 0
M  V30 1026 C 96.0606 -4.93508 2.058 0
M  V30 1027 C 97.3606 -3.59713 3.78687 0
M  V30 1028 H 99.0546 -1.8515 2.35287 0
M  V30 1029 H 96.6006 -0.889367 1.13253 0
M  V30 1030 H 98.5536 -4.02443 1.2497 0
M  V30 1031 H 97.2776 -3.25446 0.274308 0
M  V30 1032 H 95.9366 -2.80606 2.35914 0
M  V30 1033 H 95.5846 -4.91623 1.06374 0
M  V30 1034 H 95.2846 -5.16486 2.80208 0
M  V30 1035 H 96.8086 -5.74396 2.07128 0
M  V30 1036 H 98.2226 -4.2832 3.81071 0
M  V30 1037 H 96.6196 -3.94209 4.52459 0
M  V30 1038 H 97.6896 -2.59504 4.09617 0
M  V30 1039 N 99.0327 -1.24633 -0.964593 0
M  V30 1040 C 99.9957 -1.0424 -2.04124 0
M  V30 1041 C 100.996 0.00137563 -1.608 0
M  V30 1042 O 102.186 -0.239883 -1.7254 0
M  V30 1043 C 99.3177 -0.580588 -3.3592 0
M  V30 1044 H 100.511 -1.99803 -2.23649 0
M  V30 1045 H 98.0637 -1.06899 -1.14027 0
M  V30 1046 H 98.7987 0.3781 -3.22088 0
M  V30 1047 H 98.5837 -1.33398 -3.6871 0
M  V30 1048 H 100.074 -0.459034 -4.15069 0
M  V30 1049 N 100.511 1.16574 -1.06058 0
M  V30 1050 C 101.441 2.23057 -0.690488 0
M  V30 1051 C 102.422 1.67141 0.315901 0
M  V30 1052 O 103.607 1.93253 0.191556 0
M  V30 1053 C 100.737 3.47222 -0.073625 0
M  V30 1054 C 99.6908 4.16016 -1.00573 0
M  V30 1055 C 99.0168 5.34104 -0.252289 0
M  V30 1056 C 100.317 4.67264 -2.33371 0
M  V30 1057 H 102.011 2.54271 -1.58072 0
M  V30 1058 H 99.5568 1.22218 -0.76149 0
M  V30 1059 H 101.51 4.20939 0.19714 0
M  V30 1060 H 100.234 3.15302 0.85161 0
M  V30 1061 H 98.8928 3.44223 -1.2612 0
M  V30 1062 H 98.5408 4.98437 0.675988 0
M  V30 1063 H 98.2408 5.81072 -0.873455 0
M  V30 1064 H 99.7648 6.10599 0.0109857 0
M  V30 1065 H 101.179 5.32573 -2.12223 0
M  V30 1066 H 99.5758 5.24843 -2.90963 0
M  V30 1067 H 100.646 3.83602 -2.96611 0
M  V30 1068 N 101.989 0.842826 1.3317 0
M  V30 1069 C 102.937 0.267495 2.31057 0
M  V30 1070 C 103.931 -0.602682 1.58316 0
M  V30 1071 O 105.137 -0.491803 1.73151 0
M  V30 1072 H 101.512 0.0677813 0.748939 0
M  V30 1073 H 103.483 1.10754 2.77085 0
M  V30 1074 C 102.232 -0.539331 3.43492 0
M  V30 1075 H 101.555 0.12095 3.99617 0
M  V30 1076 H 102.995 -0.90767 4.14171 0
M  V30 1077 C 101.454 -1.71981 2.89697 0
M  V30 1078 O 101.984 -2.81862 2.86211 0
M  V30 1079 N 100.19 -1.54299 2.46252 0
M  V30 1080 H 99.7369 -0.649143 2.49287 0
M  V30 1081 H 99.6949 -2.33431 2.10612 0
M  V30 1082 N 103.467 -1.45747 0.599634 0
M  V30 1083 C 104.713 -2.02592 0.0918643 0
M  V30 1084 C 105.046 -1.46806 -1.27128 0
M  V30 1085 O 104.321 -0.639658 -1.83681 0
M  V30 1086 C 104.604 -3.60073 0.0443398 0
M  V30 1087 C 104.457 -4.26208 1.43759 0
M  V30 1088 C 105.776 -4.35309 -0.647608 0
M  V30 1089 H 102.895 -0.736175 0.034857 0
M  V30 1090 H 105.537 -1.73694 0.770081 0
M  V30 1091 H 103.687 -3.84823 -0.533224 0
M  V30 1092 H 105.359 -4.12668 2.06162 0
M  V30 1093 H 103.602 -3.84916 2.00056 0
M  V30 1094 H 104.273 -5.35069 1.35665 0
M  V30 1095 H 106.749 -4.15805 -0.156776 0
M  V30 1096 H 105.625 -5.45038 -0.649942 0
M  V30 1097 H 105.886 -4.07598 -1.71219 0
M  V30 1098 N 104.945 -0.338344 -1.53925 0
M  V30 1099 C 106.173 0.261298 -2.05243 0
M  V30 1100 C 106.588 1.44625 -1.21363 0
M  V30 1101 O 105.945 1.80811 -0.247736 0
M  V30 1102 C 105.996 0.681412 -3.5502 0
M  V30 1103 O 105.717 -0.456414 -4.35716 0
M  V30 1104 C 107.218 1.34232 -4.22489 0
M  V30 1105 H 104.438 0.0513685 -0.669031 0
M  V30 1106 H 106.982 -0.488822 -1.98572 0
M  V30 1107 H 105.137 1.38148 -3.61931 0
M  V30 1108 H 105.551 -0.122564 -5.24357 0
M  V30 1109 H 107.025 1.58708 -5.28693 0
M  V30 1110 H 107.502 2.29426 -3.74514 0
M  V30 1111 H 108.108 0.684424 -4.19757 0
M  V30 1112 N 106.423 1.57458 -0.0668435 0
M  V30 1113 C 107.333 2.15937 0.916975 0
M  V30 1114 C 108.349 1.12123 1.33058 0
M  V30 1115 O 109.525 1.44366 1.40429 0
M  V30 1116 C 106.59 2.70547 2.16807 0
M  V30 1117 C 105.651 3.89215 1.81135 0
M  V30 1118 C 104.884 4.41211 3.0028 0
M  V30 1119 O 105.107 3.92225 4.14144 0
M  V30 1120 O 104.041 5.32605 2.80384 0
M  V30 1121 H 107.867 3.00354 0.449561 0
M  V30 1122 H 105.452 1.48584 0.155949 0
M  V30 1123 H 107.334 3.0557 2.90181 0
M  V30 1124 H 106.009 1.89192 2.62656 0
M  V30 1125 H 104.916 3.59054 1.05028 0
M  V30 1126 H 106.249 4.71848 1.40073 0
M  V30 1127 N 107.901 -0.206675 1.56239 0
M  V30 1128 C 109.126 -0.949474 1.8439 0
M  V30 1129 C 109.551 -1.76549 0.649016 0
M  V30 1130 O 108.909 -1.76782 -0.402231 0
M  V30 1131 C 108.957 -1.83078 3.10668 0
M  V30 1132 O 108.061 -2.9281 2.90407 0
M  V30 1133 H 107.402 -0.268033 0.607499 0
M  V30 1134 H 109.932 -0.215488 2.03462 0
M  V30 1135 H 109.942 -2.2377 3.41161 0
M  V30 1136 H 108.617 -1.23112 3.97261 0
M  V30 1137 H 107.194 -2.55956 2.71184 0
M  V30 1138 N 109.379 -1.50304 -0.473955 0
M  V30 1139 C 110.626 -1.6115 -1.22625 0
M  V30 1140 C 110.954 -0.310517 -1.92005 0
M  V30 1141 O 110.209 0.703419 -1.82621 0
M  V30 1142 C 110.508 -2.73938 -2.29549 0
M  V30 1143 C 110.174 -4.14519 -1.7744 0
M  V30 1144 C 108.836 -4.5277 -1.62949 0
M  V30 1145 C 111.188 -5.02392 -1.3875 0
M  V30 1146 C 108.516 -5.76639 -1.08187 0
M  V30 1147 C 110.868 -6.26805 -0.854309 0
M  V30 1148 C 109.532 -6.63861 -0.696011 0
M  V30 1149 H 108.802 -0.589691 -0.448715 0
M  V30 1150 H 111.449 -1.84228 -0.522705 0
M  V30 1151 H 109.754 -2.44937 -3.05799 0
M  V30 1152 H 111.451 -2.79534 -2.87509 0
M  V30 1153 H 108.041 -3.8434 -1.89685 0
M  V30 1154 H 112.225 -4.73474 -1.4878 0
M  V30 1155 H 107.481 -6.04027 -0.946666 0
M  V30 1156 H 111.655 -6.94258 -0.545843 0
M  V30 1157 H 109.282 -7.59722 -0.26952 0
M  V30 1158 N 110.857 0.726932 -1.39834 0
M  V30 1159 C 112.134 1.47902 -1.28001 0
M  V30 1160 C 112.514 2.1083 0.106789 0
M  V30 1161 O 111.862 1.99242 1.11869 0
M  V30 1162 C 112.072 2.52392 -2.41038 0
M  V30 1163 C 113.42 3.18546 -2.80737 0
M  V30 1164 O 114.444 2.62708 -2.40547 0
M  V30 1165 O 113.303 4.19604 -3.50135 0
M  V30 1166 H 110.397 0.657163 -0.502062 0
M  V30 1167 H 112.943 0.760071 -1.51727 0
M  V30 1168 H 111.715 2.04329 -3.33715 0
M  V30 1169 H 111.338 3.31837 -2.19021 0
M  V30 1170 N 112.336 1.25143 0.95797 0
M  V30 1171 C 113.299 1.05321 2.03569 0
M  V30 1172 C 114.299 0.007152 1.60798 0
M  V30 1173 O 115.489 0.24903 1.72411 0
M  V30 1174 C 112.621 0.598394 3.35607 0
M  V30 1175 H 113.814 2.00986 2.22586 0
M  V30 1176 H 111.367 1.07502 1.13459 0
M  V30 1177 H 112.102 -0.361014 3.22284 0
M  V30 1178 H 111.887 1.35351 3.67998 0
M  V30 1179 H 113.377 0.48104 4.1482 0
M  V30 1180 N 113.814 -1.1601 1.06675 0
M  V30 1181 C 115.06 -1.87145 0.796766 0
M  V30 1182 C 115.415 -1.8037 -0.669658 0
M  V30 1183 O 114.708 -1.21116 -1.48463 0
M  V30 1184 C 114.902 -3.35547 1.23057 0
M  V30 1185 C 114.731 -3.56769 2.73762 0
M  V30 1186 C 113.501 -3.72635 3.41279 0
M  V30 1187 C 115.699 -3.55166 3.7197 0
M  V30 1188 N 113.681 -3.81845 4.80695 0
M  V30 1189 C 115.052 -3.70406 4.97191 0
M  V30 1190 C 117.107 -3.384 3.65226 0
M  V30 1191 C 115.81 -3.70615 6.16471 0
M  V30 1192 C 117.836 -3.39904 4.83962 0
M  V30 1193 C 117.198 -3.55667 6.08013 0
M  V30 1194 H 113.297 -0.702267 0.344014 0
M  V30 1195 H 115.881 -1.39165 1.36166 0
M  V30 1196 H 114.052 -3.82159 0.693456 0
M  V30 1197 H 115.784 -3.94363 0.908844 0
M  V30 1198 H 112.539 -3.73121 2.91681 0
M  V30 1199 H 112.963 -3.90209 5.53232 0
M  V30 1200 H 117.605 -3.25138 2.70269 0
M  V30 1201 H 115.323 -3.82658 7.11757 0
M  V30 1202 H 118.909 -3.28169 4.80413 0
M  V30 1203 H 117.789 -3.56755 6.98352 0
M  V30 1204 N 115.292 -0.849877 -1.32721 0
M  V30 1205 C 116.202 -0.293791 -2.32753 0
M  V30 1206 C 117.218 0.585906 -1.63839 0
M  V30 1207 O 118.394 0.487413 -1.95413 0
M  V30 1208 C 115.459 0.512752 -3.42887 0
M  V30 1209 C 114.52 -0.39252 -4.27502 0
M  V30 1210 C 113.753 0.375625 -5.32377 0
M  V30 1211 O 113.976 1.60613 -5.4732 0
M  V30 1212 O 112.91 -0.256094 -6.01355 0
M  V30 1213 H 116.736 -1.12242 -2.82197 0
M  V30 1214 H 114.321 -0.612685 -1.36259 0
M  V30 1215 H 116.203 0.970704 -4.10067 0
M  V30 1216 H 114.878 1.31826 -2.95641 0
M  V30 1217 H 113.785 -0.898547 -3.63149 0
M  V30 1218 H 115.118 -1.16309 -4.7826 0
M  V30 1219 N 116.77 1.45427 -0.607355 0
M  V30 1220 C 117.718 2.32269 0.12411 0
M  V30 1221 C 118.712 1.45955 0.859854 0
M  V30 1222 O 119.918 1.6244 0.775447 0
M  V30 1223 H 116.293 0.749691 0.0588839 0
M  V30 1224 H 118.264 2.91743 -0.626762 0
M  V30 1225 C 117.013 3.29567 1.1082 0
M  V30 1226 H 116.336 3.95978 0.551492 0
M  V30 1227 H 117.776 3.93061 1.58995 0
M  V30 1228 C 116.235 2.56722 2.18164 0
M  V30 1229 O 116.765 2.34842 3.25902 0
M  V30 1230 N 114.971 2.16861 1.93442 0
M  V30 1231 H 114.518 2.34855 1.05834 0
M  V30 1232 H 114.476 1.68444 2.65469 0
M  V30 1233 N 118.248 0.346503 1.53744 0
M  V30 1234 C 119.476 -0.25041 2.05379 0
M  V30 1235 C 119.891 -1.43979 1.22129 0
M  V30 1236 O 119.248 -1.80677 0.257321 0
M  V30 1237 C 119.299 -0.662575 3.55376 0
M  V30 1238 O 119.02 0.479515 4.35468 0
M  V30 1239 C 120.521 -1.31989 4.23195 0
M  V30 1240 H 117.741 -0.0478198 0.669294 0
M  V30 1241 H 120.285 0.499346 1.9831 0
M  V30 1242 H 118.44 -1.36227 3.62658 0
M  V30 1243 H 118.854 0.15037 5.24284 0
M  V30 1244 H 120.328 -1.55902 5.29527 0
M  V30 1245 H 120.805 -2.27436 3.75725 0
M  V30 1246 H 121.411 -0.662154 4.20114 0
M  V30 1247 N 119.726 -1.57421 0.075193 0
M  V30 1248 C 120.972 -1.93905 -0.594025 0
M  V30 1249 C 121.305 -0.955701 -1.69056 0
M  V30 1250 O 120.58 0.0145373 -1.94495 0
M  V30 1251 C 120.863 -3.40638 -1.1678 0
M  V30 1252 C 120.716 -4.49733 -0.0776792 0
M  V30 1253 C 122.035 -3.88259 -2.07228 0
M  V30 1254 H 119.154 -0.705105 -0.214466 0
M  V30 1255 H 121.796 -1.8947 0.141854 0
M  V30 1256 H 119.946 -3.44549 -1.79494 0
M  V30 1257 H 121.618 -4.57942 0.555573 0
M  V30 1258 H 119.861 -4.29751 0.591286 0
M  V30 1259 H 120.532 -5.49549 -0.519603 0
M  V30 1260 H 123.008 -3.86376 -1.54445 0
M  V30 1261 H 121.884 -4.91533 -2.44308 0
M  V30 1262 H 122.145 -3.26396 -2.98191 0
M  V30 1263 N 121.204 0.198386 -1.56346 0
M  V30 1264 C 122.432 0.935572 -1.84539 0
M  V30 1265 C 122.847 1.76989 -0.657281 0
M  V30 1266 O 122.204 1.78626 0.374043 0
M  V30 1267 C 122.255 1.8344 -3.11499 0
M  V30 1268 O 121.976 1.03377 -4.25728 0
M  V30 1269 C 123.477 2.68355 -3.52846 0
M  V30 1270 H 120.697 0.273126 -0.612897 0
M  V30 1271 H 123.241 0.20663 -2.03453 0
M  V30 1272 H 121.396 2.51701 -2.94492 0
M  V30 1273 H 121.81 1.64599 -4.98003 0
M  V30 1274 H 123.284 3.27085 -4.44657 0
M  V30 1275 H 123.761 3.41901 -2.75681 0
M  V30 1276 H 124.367 2.05471 -3.72373 0
M  V30 1277 N 122.682 1.50554 0.465978 0
M  V30 1278 C 123.592 1.72585 1.58907 0
M  V30 1279 C 124.608 0.60911 1.6299 0
M  V30 1280 O 125.784 0.88804 1.80765 0
M  V30 1281 C 122.849 1.81995 2.95091 0
M  V30 1282 C 121.91 3.05751 3.01355 0
M  V30 1283 C 121.143 3.14702 4.31043 0
M  V30 1284 O 121.366 2.30313 5.21835 0
M  V30 1285 O 120.3 4.07468 4.43005 0
M  V30 1286 H 124.126 2.67799 1.43239 0
M  V30 1287 H 121.711 1.34711 0.646013 0
M  V30 1288 H 123.593 1.90335 3.75966 0
M  V30 1289 H 122.268 0.899659 3.10947 0
M  V30 1290 H 121.175 3.02908 2.19539 0
M  V30 1291 H 122.508 3.97375 2.90437 0
M  V30 1292 N 124.16 -0.719506 1.40217 0
M  V30 1293 C 125.092 -1.84428 1.36084 0
M  V30 1294 C 126.105 -1.60597 0.266913 0
M  V30 1295 O 127.294 -1.70544 0.526983 0
M  V30 1296 C 124.394 -3.20757 1.094 0
M  V30 1297 C 123.567 -3.71817 2.30372 0
M  V30 1298 C 122.626 -4.86748 1.99907 0
M  V30 1299 O 121.652 -4.99603 2.72737 0
M  V30 1300 N 122.854 -5.7226 0.974635 0
M  V30 1301 H 125.619 -1.88473 2.33019 0
M  V30 1302 H 123.18 -0.900885 1.3452 0
M  V30 1303 H 125.172 -3.95235 0.870116 0
M  V30 1304 H 123.742 -3.11884 0.211452 0
M  V30 1305 H 122.962 -2.88514 2.68614 0
M  V30 1306 H 124.25 -4.02666 3.11026 0
M  V30 1307 H 123.648 -5.6448 0.371368 0
M  V30 1308 H 122.205 -6.46739 0.810656 0
M  V30 1309 N 125.638 -1.25649 -0.95132 0
M  V30 1310 C 126.601 -1.06399 -2.03007 0
M  V30 1311 C 127.601 -0.0156794 -1.60792 0
M  V30 1312 O 128.791 -0.25817 -1.72276 0
M  V30 1313 C 125.923 -0.616184 -3.35285 0
M  V30 1314 H 127.116 -2.02164 -2.21517 0
M  V30 1315 H 124.669 -1.08103 -1.12887 0
M  V30 1316 H 125.404 0.343917 -3.22471 0
M  V30 1317 H 125.189 -1.37301 -3.67275 0
M  V30 1318 H 126.679 -0.503032 -4.14559 0
M  V30 1319 N 127.117 1.15442 -1.07289 0
M  V30 1320 C 128.366 1.85557 -0.790669 0
M  V30 1321 C 128.679 1.83186 0.685739 0
M  V30 1322 O 129.885 2.48977 1.0827 0
M  V30 1323 C 128.341 3.33038 -1.36433 0
M  V30 1324 C 127.949 3.43856 -2.8717 0
M  V30 1325 C 129.693 4.0834 -1.1601 0
M  V30 1326 C 127.6 4.85482 -3.3773 0
M  V30 1327 H 126.53 0.695122 -0.292098 0
M  V30 1328 H 129.181 1.30219 -1.29287 0
M  V30 1329 H 127.563 3.88043 -0.789864 0
M  V30 1330 H 128.737 2.98961 -3.50655 0
M  V30 1331 H 127.052 2.81998 -3.06376 0
M  V30 1332 H 129.649 5.12859 -1.51262 0
M  V30 1333 H 129.992 4.16182 -0.0991007 0
M  V30 1334 H 130.525 3.59603 -1.70089 0
M  V30 1335 H 127.264 4.82823 -4.43353 0
M  V30 1336 H 126.784 5.30961 -2.78999 0
M  V30 1337 H 128.463 5.54335 -3.33648 0
M  V30 1338 N 128.595 0.856903 1.32268 0
M  V30 1339 C 129.505 0.306131 2.32594 0
M  V30 1340 C 130.521 -0.577209 1.64147 0
M  V30 1341 O 131.697 -0.477043 1.95669 0
M  V30 1342 C 128.762 -0.494561 3.43154 0
M  V30 1343 C 127.823 0.415186 4.27288 0
M  V30 1344 C 127.056 -0.347387 5.32568 0
M  V30 1345 O 127.279 -1.57708 5.48165 0
M  V30 1346 O 126.213 0.287982 6.01211 0
M  V30 1347 H 130.039 1.13737 2.81598 0
M  V30 1348 H 127.624 0.619902 1.35932 0
M  V30 1349 H 129.506 -0.948944 4.10576 0
M  V30 1350 H 128.181 -1.30257 2.96336 0
M  V30 1351 H 127.088 0.917793 3.62667 0
M  V30 1352 H 128.421 1.18844 4.77637 0
M  V30 1353 N 130.073 -1.45103 0.615059 0
M  V30 1354 C 131.35 -1.95549 0.0448276 0
M  V30 1355 C 131.73 -1.55737 -1.4251 0
M  V30 1356 O 131.078 -0.823556 -2.13143 0
M  V30 1357 C 131.288 -3.48098 0.250785 0
M  V30 1358 C 132.636 -4.24384 0.135509 0
M  V30 1359 O 133.66 -3.55738 0.181299 0
M  V30 1360 O 132.519 -5.46493 0.0268878 0
M  V30 1361 H 129.613 -0.8264 -0.0314845 0
M  V30 1362 H 132.159 -1.55232 0.685642 0
M  V30 1363 H 130.931 -3.7007 1.27139 0
M  V30 1364 H 130.554 -3.95323 -0.424937 0
M  V30 1365 N 131.551 -0.354651 -1.53558 0
M  V30 1366 C 132.797 0.238797 -2.01389 0
M  V30 1367 C 133.13 1.49309 -1.2418 0
M  V30 1368 O 132.405 1.91638 -0.332457 0
M  V30 1369 C 132.688 0.541771 -3.56001 0
M  V30 1370 C 132.541 -0.725388 -4.43912 0
M  V30 1371 C 133.86 1.34685 -4.18984 0
M  V30 1372 H 130.979 0.0853177 -0.732045 0
M  V30 1373 H 133.621 -0.477384 -1.83905 0
M  V30 1374 H 131.771 1.15189 -3.71031 0
M  V30 1375 H 133.443 -1.36313 -4.407 0
M  V30 1376 H 131.686 -1.34801 -4.12324 0
M  V30 1377 H 132.357 -0.468505 -5.50008 0
M  V30 1378 H 134.833 0.830837 -4.07721 0
M  V30 1379 H 133.709 1.52759 -5.27215 0
M  V30 1380 H 133.97 2.35221 -3.74331 0
M  V30 1381 N 133.029 1.57378 -0.0835403 0
M  V30 1382 C 134.275 1.95025 0.577664 0
M  V30 1383 C 134.63 0.964049 1.66505 0
M  V30 1384 O 133.923 -0.0118235 1.91596 0
M  V30 1385 C 134.117 3.37063 1.1884 0
M  V30 1386 C 133.946 4.49409 0.16171 0
M  V30 1387 C 132.716 5.04642 -0.257756 0
M  V30 1388 C 134.914 5.10722 -0.605634 0
M  V30 1389 N 132.896 6.00537 -1.27393 0
M  V30 1390 C 134.267 6.02225 -1.47395 0
M  V30 1391 C 136.322 4.93501 -0.660418 0
M  V30 1392 C 135.025 6.78355 -2.39221 0
M  V30 1393 C 137.051 5.70283 -1.56623 0
M  V30 1394 C 136.413 6.61444 -2.4222 0
M  V30 1395 H 132.512 0.760512 0.182058 0
M  V30 1396 H 135.096 1.94013 -0.163419 0
M  V30 1397 H 133.267 3.3879 1.89936 0
M  V30 1398 H 134.999 3.61917 1.81103 0
M  V30 1399 H 131.754 4.73428 0.127702 0
M  V30 1400 H 132.178 6.53184 -1.77987 0
M  V30 1401 H 136.82 4.22798 -0.0128221 0
M  V30 1402 H 134.538 7.48327 -3.05011 0
M  V30 1403 H 138.124 5.58976 -1.61361 0
M  V30 1404 H 137.004 7.1982 -3.11174 0
M  V30 1405 N 134.507 -0.190092 1.56449 0
M  V30 1406 C 135.439 -1.25973 1.91477 0
M  V30 1407 C 136.452 -1.41452 0.805931 0
M  V30 1408 O 137.641 -1.41789 1.08435 0
M  V30 1409 C 134.741 -2.63117 2.13594 0
M  V30 1410 C 133.914 -2.69182 3.4476 0
M  V30 1411 C 132.973 -3.87557 3.5593 0
M  V30 1412 O 131.999 -3.74427 4.28711 0
M  V30 1413 N 133.201 -5.03224 2.89388 0
M  V30 1414 H 135.966 -0.962394 2.83828 0
M  V30 1415 H 133.527 -0.379981 1.57378 0
M  V30 1416 H 135.519 -3.40742 2.1835 0
M  V30 1417 H 134.089 -2.85319 1.27719 0
M  V30 1418 H 133.309 -1.77793 3.51828 0
M  V30 1419 H 134.597 -2.70229 4.31107 0
M  V30 1420 H 133.995 -5.16791 2.30094 0
M  V30 1421 H 132.552 -5.78778 2.99764 0
M  V30 1422 N 135.985 -1.50799 -0.457987 0
M  V30 1423 C 136.915 -1.73553 -1.5621 0
M  V30 1424 C 137.896 -0.584774 -1.59732 0
M  V30 1425 O 139.081 -0.825314 -1.7579 0
M  V30 1426 C 136.211 -1.84169 -2.94447 0
M  V30 1427 C 135.165 -2.99461 -3.0579 0
M  V30 1428 C 134.491 -2.95235 -4.45803 0
M  V30 1429 C 135.791 -4.39766 -2.81786 0
M  V30 1430 H 137.485 -2.66 -1.37421 0
M  V30 1431 H 135.031 -1.28002 -0.659662 0
M  V30 1432 H 136.984 -1.98672 -3.71628 0
M  V30 1433 H 135.708 -0.883545 -3.14422 0
M  V30 1434 H 134.367 -2.8463 -2.31044 0
M  V30 1435 H 134.015 -1.97239 -4.62715 0
M  V30 1436 H 133.715 -3.72642 -4.54326 0
M  V30 1437 H 135.239 -3.11803 -5.24987 0
M  V30 1438 H 136.653 -4.55054 -3.4871 0
M  V30 1439 H 135.05 -5.18722 -3.0174 0
M  V30 1440 H 136.12 -4.51229 -1.7754 0
M  V30 1441 N 137.463 0.71206 -1.40597 0
M  V30 1442 C 138.71 1.47197 -1.39065 0
M  V30 1443 C 139.038 1.94499 0.00583891 0
M  V30 1444 O 138.293 1.68752 0.99102 0
M  V30 1445 C 138.592 2.71039 -2.32965 0
M  V30 1446 C 138.258 2.42484 -3.80148 0
M  V30 1447 C 136.92 2.34406 -4.20247 0
M  V30 1448 C 139.272 2.18598 -4.73143 0
M  V30 1449 C 136.6 2.00516 -5.51371 0
M  V30 1450 C 138.952 1.8622 -6.0457 0
M  V30 1451 C 137.616 1.76626 -6.43708 0
M  V30 1452 H 136.886 0.538634 -0.508876 0
M  V30 1453 H 139.533 0.815325 -1.73276 0
M  V30 1454 H 137.838 3.41558 -1.91951 0
M  V30 1455 H 139.535 3.29138 -2.29061 0
M  V30 1456 H 136.125 2.49659 -3.4838 0
M  V30 1457 H 140.309 2.23793 -4.42979 0
M  V30 1458 H 135.565 1.91628 -5.80593 0
M  V30 1459 H 139.739 1.66752 -6.76141 0
M  V30 1460 H 137.366 1.50133 -7.45228 0
M  V30 1461 N 138.941 1.26152 0.944643 0
M  V30 1462 C 139.851 1.09176 2.07648 0
M  V30 1463 C 140.867 0.0261935 1.7398 0
M  V30 1464 O 142.043 0.229208 2.00091 0
M  V30 1465 C 139.108 0.722915 3.39079 0
M  V30 1466 C 138.169 1.86752 3.86552 0
M  V30 1467 C 137.402 1.51617 5.11711 0
M  V30 1468 O 137.625 0.416331 5.68879 0
M  V30 1469 O 136.559 2.34975 5.54139 0
M  V30 1470 H 140.385 2.0412 2.24875 0
M  V30 1471 H 137.97 1.05182 1.061 0
M  V30 1472 H 139.852 0.529787 4.18056 0
M  V30 1473 H 138.527 -0.197159 3.23099 0
M  V30 1474 H 137.434 2.11558 3.08535 0
M  V30 1475 H 138.767 2.76719 4.07047 0
M  V30 1476 N 140.419 -1.14872 1.07899 0
M  V30 1477 C 141.647 -1.89661 0.82683 0
M  V30 1478 C 142.062 -1.78312 -0.620519 0
M  V30 1479 O 141.419 -1.13888 -1.42604 0
M  V30 1480 C 141.47 -3.39817 1.23316 0
M  V30 1481 O 141.191 -3.50845 2.62372 0
M  V30 1482 C 142.692 -4.31615 1.0111 0
M  V30 1483 H 139.912 -0.60092 0.298557 0
M  V30 1484 H 142.456 -1.4551 1.43691 0
M  V30 1485 H 140.611 -3.8161 0.667286 0
M  V30 1486 H 141.025 -4.44076 2.79101 0
M  V30 1487 H 142.499 -5.35367 1.34486 0
M  V30 1488 H 142.976 -4.39169 -0.0522168 0
M  V30 1489 H 143.582 -3.95572 1.56215 0
M  V30 1490 N 141.898 -0.863906 -1.31812 0
M  V30 1491 C 143.123 -0.48527 -2.01643 0
M  V30 1492 C 143.548 0.913058 -1.64453 0
M  V30 1493 O 142.906 1.6014 -0.849985 0
M  V30 1494 C 142.954 -0.642625 -3.54828 0
M  V30 1495 O 142.058 0.320659 -4.11151 0
M  V30 1496 H 141.399 -0.193793 -0.635091 0
M  V30 1497 H 143.929 -1.16565 -1.68148 0
M  V30 1498 H 143.939 -0.533628 -4.04495 0
M  V30 1499 H 142.614 -1.66227 -3.81237 0
M  V30 1500 H 141.191 0.167126 -3.72525 0
M  V30 1501 N 143.376 1.44774 -0.622745 0
M  V30 1502 C 144.625 2.01334 -0.121397 0
M  V30 1503 C 144.938 1.49505 1.26125 0
M  V30 1504 O 146.144 1.98139 1.85616 0
M  V30 1505 C 144.6 3.59516 -0.166298 0
M  V30 1506 C 144.208 4.20342 -1.54974 0
M  V30 1507 C 145.952 4.23582 0.279021 0
M  V30 1508 C 143.859 5.70721 -1.55021 0
M  V30 1509 H 142.789 0.752851 -0.0416172 0
M  V30 1510 H 145.44 1.66083 -0.780309 0
M  V30 1511 H 143.822 3.92027 0.559557 0
M  V30 1512 H 144.996 3.99381 -2.29851 0
M  V30 1513 H 143.311 3.68529 -1.93843 0
M  V30 1514 H 145.908 5.33868 0.298083 0
M  V30 1515 H 146.251 3.95327 1.30471 0
M  V30 1516 H 146.784 3.95843 -0.394063 0
M  V30 1517 H 143.523 6.03698 -2.55399 0
M  V30 1518 H 143.043 5.93829 -0.844245 0
M  V30 1519 H 144.722 6.34203 -1.28047 0
M  V30 1520 N 144.854 0.36279 1.53368 0
M  V30 1521 C 145.801 -0.485008 2.25646 0
M  V30 1522 C 146.771 -1.07982 1.2621 0
M  V30 1523 O 147.956 -1.11284 1.54986 0
M  V30 1524 C 145.096 -1.62023 3.04701 0
M  V30 1525 C 144.209 -1.05086 4.19024 0
M  V30 1526 C 143.344 -2.15496 4.85525 0
M  V30 1527 C 142.383 -1.5601 5.91884 0
M  V30 1528 N 141.52 -2.60241 6.52088 0
M  V30 1529 H 146.36 0.137864 2.97681 0
M  V30 1530 H 143.897 0.0798061 1.46883 0
M  V30 1531 H 145.855 -2.28887 3.48807 0
M  V30 1532 H 144.485 -2.2138 2.34927 0
M  V30 1533 H 143.537 -0.27259 3.79422 0
M  V30 1534 H 144.849 -0.575926 4.95464 0
M  V30 1535 H 144.003 -2.90186 5.32801 0
M  V30 1536 H 142.742 -2.66341 4.08551 0
M  V30 1537 H 141.747 -0.798338 5.43973 0
M  V30 1538 H 142.972 -1.05994 6.70777 0
M  V30 1539 H 140.918 -3.10304 5.77968 0
M  V30 1540 H 140.835 -2.17426 7.24059 0
M  V30 1541 H 142.103 -3.34641 7.04014 0
M  V30 1542 N 146.332 -1.57332 0.0918853 0
M  V30 1543 C 147.743 -1.81496 -0.437739 0
M  V30 1544 C 148.094 -1.00727 -1.6837 0
M  V30 1545 O 147.219 -0.235694 -2.15113 0
M  V30 1546 C 147.814 -3.29197 -0.800939 0
M  V30 1547 C 146.373 -3.54136 -1.27532 0
M  V30 1548 C 145.52 -2.75979 -0.270392 0
M  V30 1549 H 148.471 -1.55494 0.317366 0
M  V30 1550 H 148.492 -3.42344 -1.66074 0
M  V30 1551 H 148.004 -3.87955 0.106078 0
M  V30 1552 H 146.105 -3.00705 -2.20016 0
M  V30 1553 H 146.218 -4.62792 -1.23938 0
M  V30 1554 H 144.582 -2.43349 -0.751872 0
M  V30 1555 H 145.365 -3.37484 0.629248 0
M  V30 1556 N 147.81 0.181792 -1.56548 0
M  V30 1557 C 149.05 0.906711 -1.83189 0
M  V30 1558 C 149.414 1.79882 -0.671312 0
M  V30 1559 O 150.615 2.56054 -0.81792 0
M  V30 1560 C 148.886 1.69023 -3.14906 0
M  V30 1561 S 150.445 2.46535 -3.62996 0
M  V30 1562 H 147.263 0.303877 -0.642791 0
M  V30 1563 H 149.865 0.169107 -1.94767 0
M  V30 1564 H 148.569 1.02571 -3.97376 0
M  V30 1565 H 148.1 2.46941 -3.06241 0
M  V30 1566 H 150.115 3.71014 -3.29489 0
M  V30 1567 N 149.288 1.51039 0.449983 0
M  V30 1568 C 150.534 1.63322 1.20223 0
M  V30 1569 C 150.867 0.34241 1.91158 0
M  V30 1570 O 150.142 -0.657344 1.83055 0
M  V30 1571 C 150.425 2.82801 2.22925 0
M  V30 1572 C 150.278 4.21823 1.56157 0
M  V30 1573 C 151.597 2.97807 3.24035 0
M  V30 1574 H 148.716 0.594407 0.435718 0
M  V30 1575 H 151.358 1.83489 0.493136 0
M  V30 1576 H 149.508 2.65738 2.834 0
M  V30 1577 H 151.18 4.50526 0.991162 0
M  V30 1578 H 149.423 4.25105 0.864172 0
M  V30 1579 H 150.094 5.01391 2.30891 0
M  V30 1580 H 152.57 3.13497 2.73603 0
M  V30 1581 H 151.446 3.82992 3.93202 0
M  V30 1582 H 151.707 2.09328 3.89402 0
M  V30 1583 N 150.766 -0.704594 1.40972 0
M  V30 1584 C 151.713 -1.81862 1.42109 0
M  V30 1585 C 152.683 -1.63781 0.276593 0
M  V30 1586 O 153.868 -1.84759 0.4763 0
M  V30 1587 C 151.008 -3.19669 1.30022 0
M  V30 1588 C 150.121 -3.49246 2.54267 0
M  V30 1589 C 149.256 -4.76618 2.3454 0
M  V30 1590 C 148.295 -4.99133 3.54306 0
M  V30 1591 N 147.432 -6.17726 3.33706 0
M  V30 1592 H 152.272 -1.80226 2.37324 0
M  V30 1593 H 149.809 -0.880238 1.17857 0
M  V30 1594 H 151.767 -3.99263 1.21018 0
M  V30 1595 H 150.397 -3.20506 0.384192 0
M  V30 1596 H 149.449 -2.64125 2.73756 0
M  V30 1597 H 150.761 -3.61788 3.43381 0
M  V30 1598 H 149.915 -5.64249 2.22952 0
M  V30 1599 H 148.654 -4.66305 1.42867 0
M  V30 1600 H 147.659 -4.09953 3.66359 0
M  V30 1601 H 148.884 -5.11311 4.4692 0
M  V30 1602 H 146.83 -6.08642 2.44725 0
M  V30 1603 H 146.747 -6.30995 4.16391 0
M  V30 1604 H 148.015 -7.08115 3.25873 0
M  V30 1605 N 152.244 -1.26651 -0.937939 0
M  V30 1606 C 153.174 -1.10993 -2.05433 0
M  V30 1607 C 154.155 -0.0142161 -1.70094 0
M  V30 1608 O 155.34 -0.186837 -1.93299 0
M  V30 1609 C 152.47 -0.745561 -3.39203 0
M  V30 1610 C 151.424 -1.79337 -3.88616 0
M  V30 1611 C 150.75 -1.28324 -5.19073 0
M  V30 1612 C 152.05 -3.19553 -4.13138 0
M  V30 1613 H 153.744 -2.0438 -2.1879 0
M  V30 1614 H 151.29 -0.984041 -1.05131 0
M  V30 1615 H 153.243 -0.622888 -4.16771 0
M  V30 1616 H 151.967 0.22401 -3.25831 0
M  V30 1617 H 150.626 -1.90477 -3.13231 0
M  V30 1618 H 150.274 -0.303414 -5.02084 0
M  V30 1619 H 149.974 -1.98369 -5.53103 0
M  V30 1620 H 151.498 -1.1733 -5.99221 0
M  V30 1621 H 152.912 -3.11471 -4.81309 0
M  V30 1622 H 151.309 -3.87218 -4.58457 0
M  V30 1623 H 152.379 -3.65368 -3.18801 0
M  V30 1624 N 153.722 1.14298 -1.08507 0
M  V30 1625 C 154.947 1.8976 -0.837001 0
M  V30 1626 C 155.372 1.78097 0.605228 0
M  V30 1627 O 154.73 1.12188 1.4242 0
M  V30 1628 C 154.778 3.37685 -1.26495 0
M  V30 1629 O 153.882 4.10281 -0.417514 0
M  V30 1630 H 153.223 0.590365 -0.303917 0
M  V30 1631 H 155.753 1.44672 -1.44676 0
M  V30 1632 H 155.763 3.88501 -1.24625 0
M  V30 1633 H 154.438 3.45492 -2.31534 0
M  V30 1634 H 153.015 3.69536 -0.499722 0
M  V30 1635 N 155.201 0.870884 1.31352 0
M  V30 1636 C 156.612 0.534714 1.78879 0
M  V30 1637 C 156.963 -0.948423 1.71754 0
M  V30 1638 O 156.088 -1.74055 1.28584 0
M  V30 1639 C 156.683 0.963839 3.24801 0
M  V30 1640 C 155.242 0.679311 3.70219 0
M  V30 1641 C 154.389 1.15465 2.52117 0
M  V30 1642 H 157.34 1.05651 1.18421 0
M  V30 1643 H 157.361 0.286892 3.79417 0
M  V30 1644 H 156.873 2.04332 3.29955 0
M  V30 1645 H 154.974 -0.388769 3.70566 0
M  V30 1646 H 155.087 1.25698 4.62317 0
M  V30 1647 H 153.451 0.574383 2.48139 0
M  V30 1648 H 154.234 2.24157 2.60016 0
M  V30 1649 N 156.679 -1.44442 0.630414 0
M  V30 1650 C 157.609 -2.33418 -0.0618083 0
M  V30 1651 C 158.59 -1.48165 -0.835541 0
M  V30 1652 O 159.775 -1.76886 -0.801564 0
M  V30 1653 C 156.905 -3.31222 -1.04449 0
M  V30 1654 C 155.859 -4.26288 -0.382436 0
M  V30 1655 C 155.185 -5.13954 -1.47497 0
M  V30 1656 C 156.485 -5.1744 0.710865 0
M  V30 1657 H 158.179 -2.91548 0.681184 0
M  V30 1658 H 155.725 -1.40191 0.329026 0
M  V30 1659 H 157.678 -3.92351 -1.53748 0
M  V30 1660 H 156.402 -2.71299 -1.81836 0
M  V30 1661 H 155.061 -3.6649 0.0899054 0
M  V30 1662 H 154.709 -4.50385 -2.2397 0
M  V30 1663 H 154.409 -5.7837 -1.03737 0
M  V30 1664 H 155.933 -5.77955 -1.96979 0
M  V30 1665 H 157.347 -5.72509 0.300996 0
M  V30 1666 H 155.744 -5.90455 1.07156 0
M  V30 1667 H 156.814 -4.58496 1.57829 0
M  V30 1668 N 158.157 -0.370918 -1.53173 0
M  V30 1669 C 159.397 0.217106 -2.03244 0
M  V30 1670 C 159.761 1.45558 -1.25207 0
M  V30 1671 O 160.962 2.11957 -1.65311 0
M  V30 1672 C 159.233 0.496664 -3.53932 0
M  V30 1673 S 160.792 1.0576 -4.25864 0
M  V30 1674 H 157.61 0.0627827 -0.708223 0
M  V30 1675 H 160.212 -0.515019 -1.88594 0
M  V30 1676 H 158.916 -0.412096 -4.08326 0
M  V30 1677 H 158.447 1.25772 -3.72753 0
M  V30 1678 H 160.462 2.34145 -4.37482 0
M  V30 1679 N 159.635 1.57281 -0.100228 0
M  V30 1680 C 160.884 1.93713 0.561984 0
M  V30 1681 C 161.197 0.984492 1.69018 0
M  V30 1682 O 162.403 1.24273 2.41389 0
M  V30 1683 C 160.859 3.4421 1.05106 0
M  V30 1684 C 160.467 4.47975 -0.0476628 0
M  V30 1685 C 162.211 3.89595 1.68571 0
M  V30 1686 C 160.118 5.89631 0.457055 0
M  V30 1687 H 159.048 0.723082 0.2137 0
M  V30 1688 H 161.699 1.82644 -0.177057 0
M  V30 1689 H 160.081 3.50449 1.84395 0
M  V30 1690 H 161.255 4.53385 -0.823333 0
M  V30 1691 H 159.57 4.1223 -0.587816 0
M  V30 1692 H 162.167 4.92832 2.07414 0
M  V30 1693 H 162.51 3.28526 2.55688 0
M  V30 1694 H 163.043 3.86078 0.958562 0
M  V30 1695 H 159.782 6.54411 -0.377616 0
M  V30 1696 H 159.302 5.87681 1.19962 0
M  V30 1697 H 160.981 6.40363 0.92437 0
M  V30 1698 N 161.113 -0.173488 1.56642 0
M  V30 1699 C 162.341 -0.906095 1.86004 0
M  V30 1700 C 162.756 -1.75921 0.685355 0
M  V30 1701 O 162.113 -1.79198 -0.345578 0
M  V30 1702 C 162.164 -1.78462 3.14378 0
M  V30 1703 O 161.885 -0.965914 4.27319 0
M  V30 1704 C 163.386 -2.62707 3.57071 0
M  V30 1705 H 160.606 -0.263341 0.617165 0
M  V30 1706 H 163.15 -0.174236 2.03756 0
M  V30 1707 H 161.305 -2.46984 2.98459 0
M  V30 1708 H 161.719 -1.56655 5.00559 0
M  V30 1709 H 163.193 -3.19969 4.49804 0
M  V30 1710 H 163.67 -3.37472 2.81086 0
M  V30 1711 H 164.276 -1.99521 3.75595 0
M  V30 1712 N 162.591 -1.51276 -0.441967 0
M  V30 1713 C 163.524 -1.66933 -1.55591 0
M  V30 1714 C 164.502 -0.516958 -1.54163 0
M  V30 1715 O 165.686 -0.740209 -1.73358 0
M  V30 1716 C 162.813 -1.67866 -2.94174 0
M  V30 1717 C 161.859 -2.89013 -3.13646 0
M  V30 1718 S 162.692 -4.49897 -2.90436 0
M  V30 1719 C 163.848 -4.53568 -4.31308 0
M  V30 1720 H 164.081 -2.61155 -1.42076 0
M  V30 1721 H 161.614 -1.40902 -0.631341 0
M  V30 1722 H 163.572 -1.69089 -3.74058 0
M  V30 1723 H 162.233 -0.748296 -3.05056 0
M  V30 1724 H 161.426 -2.86054 -4.14957 0
M  V30 1725 H 161.028 -2.85509 -2.4158 0
M  V30 1726 H 163.32 -4.28924 -5.24434 0
M  V30 1727 H 164.263 -5.55355 -4.39303 0
M  V30 1728 H 164.671 -3.82943 -4.14747 0
M  V30 1729 N 164.069 0.697108 -1.41344 0
M  V30 1730 C 165.485 1.00751 -1.2378 0
M  V30 1731 C 165.685 2.01105 -0.126066 0
M  V30 1732 O 164.741 2.47295 0.51004 0
M  V30 1733 C 166.054 1.53359 -2.58653 0
M  V30 1734 C 167.602 1.6525 -2.65822 0
M  V30 1735 C 168.077 2.2126 -4.01009 0
M  V30 1736 N 169.568 2.28622 -4.02847 0
M  V30 1737 C 170.303 2.72984 -5.04249 0
M  V30 1738 N 169.799 3.16962 -6.16041 0
M  V30 1739 N 171.592 2.72534 -4.91611 0
M  V30 1740 H 163.743 0.0322662 -2.12375 0
M  V30 1741 H 166.006 0.0768853 -0.944877 0
M  V30 1742 H 165.712 0.870773 -3.4075 0
M  V30 1743 H 165.586 2.51597 -2.81032 0
M  V30 1744 H 167.973 2.30644 -1.84086 0
M  V30 1745 H 168.054 0.655614 -2.47256 0
M  V30 1746 H 167.698 1.56482 -4.83193 0
M  V30 1747 H 167.628 3.21698 -4.16915 0
M  V30 1748 H 170.119 1.97585 -3.22131 0
M  V30 1749 H 170.432 3.49434 -6.89287 0
M  V30 1750 H 168.777 3.14875 -6.1958 0
M  V30 1751 H 171.968 2.37525 -4.0336 0
M  V30 1752 H 172.141 3.06789 -5.70775 0
M  V30 1753 N 165.547 1.27147 0.931209 0
M  V30 1754 C 166.787 1.14511 1.69312 0
M  V30 1755 C 167.151 -0.304638 1.89568 0
M  V30 1756 O 168.352 -0.553343 2.63043 0
M  V30 1757 C 166.623 1.90349 3.02493 0
M  V30 1758 S 168.182 1.93884 3.93642 0
M  V30 1759 H 165 0.408858 0.581684 0
M  V30 1760 H 167.602 1.61006 1.10893 0
M  V30 1761 H 166.306 2.94877 2.85439 0
M  V30 1762 H 165.837 1.44333 3.65966 0
M  V30 1763 H 167.852 1.03273 4.85334 0
M  V30 1764 N 167.025 -1.13721 1.09112 0
M  V30 1765 C 167.973 -2.21103 0.722219 0
M  V30 1766 C 168.967 -1.67147 -0.275374 0
M  V30 1767 O 170.173 -1.79477 -0.137176 0
M  V30 1768 H 166.548 -0.720445 0.215553 0
M  V30 1769 H 168.519 -2.49483 1.63709 0
M  V30 1770 C 167.268 -3.47352 0.15543 0
M  V30 1771 H 166.591 -3.89206 0.914246 0
M  V30 1772 H 168.031 -4.2395 -0.0647967 0
M  V30 1773 C 166.49 -3.1814 -1.10852 0
M  V30 1774 O 167.02 -3.36604 -2.19227 0
M  V30 1775 N 165.226 -2.72045 -1.02176 0
M  V30 1776 H 164.773 -2.57221 -0.139764 0
M  V30 1777 H 164.731 -2.52875 -1.8682 0
M  V30 1778 N 168.503 -0.877838 -1.30888 0
M  V30 1779 C 169.45 -0.337538 -2.28318 0
M  V30 1780 C 170.42 0.568346 -1.56074 0
M  V30 1781 O 171.605 0.498298 -1.84178 0
M  V30 1782 C 168.745 0.448142 -3.42178 0
M  V30 1783 C 167.858 -0.48615 -4.29256 0
M  V30 1784 C 166.993 0.314427 -5.30269 0
M  V30 1785 C 166.032 -0.615791 -6.08995 0
M  V30 1786 N 165.169 0.14902 -7.01942 0
M  V30 1787 H 170.009 -1.17356 -2.73919 0
M  V30 1788 H 167.546 -0.590094 -1.34745 0
M  V30 1789 H 169.504 0.919517 -4.06941 0
M  V30 1790 H 168.134 1.24879 -2.97666 0
M  V30 1791 H 167.186 -1.076 -3.64865 0
M  V30 1792 H 168.498 -1.19909 -4.84173 0
M  V30 1793 H 167.652 0.847969 -6.00745 0
M  V30 1794 H 166.391 1.06062 -4.76027 0
M  V30 1795 H 165.396 -1.16102 -5.37401 0
M  V30 1796 H 166.621 -1.36097 -6.65323 0
M  V30 1797 H 164.567 0.877884 -6.50099 0
M  V30 1798 H 164.484 -0.504433 -7.54315 0
M  V30 1799 H 165.752 0.663537 -7.76671 0
M  V30 1800 N 169.982 1.44106 -0.638065 0
M  V30 1801 C 171.207 2.0685 -0.150916 0
M  V30 1802 C 171.632 1.47417 1.16833 0
M  V30 1803 O 170.99 0.578264 1.71831 0
M  V30 1804 C 171.038 3.60555 -0.05708 0
M  V30 1805 O 170.142 4.00465 0.984972 0
M  V30 1806 H 169.483 0.658151 -0.0879399 0
M  V30 1807 H 172.013 1.84865 -0.876707 0
M  V30 1808 H 172.023 4.07789 0.131232 0
M  V30 1809 H 170.698 4.03193 -1.02021 0
M  V30 1810 H 169.275 3.64849 0.770672 0
M  V30 1811 N 171.46 0.379036 1.52974 0
M  V30 1812 C 172.37 -0.468639 2.29872 0
M  V30 1813 C 173.386 -1.08067 1.36373 0
M  V30 1814 O 174.562 -1.08871 1.69438 0
M  V30 1815 C 171.627 -1.58594 3.083 0
M  V30 1816 C 170.688 -1.00007 4.17489 0
M  V30 1817 C 169.921 -2.06413 4.92168 0
M  V30 1818 O 170.144 -3.27751 4.66835 0
M  V30 1819 O 169.078 -1.68717 5.7777 0
M  V30 1820 H 172.904 0.157508 3.03291 0
M  V30 1821 H 170.489 0.143035 1.48714 0
M  V30 1822 H 172.371 -2.23525 3.57232 0
M  V30 1823 H 171.046 -2.19724 2.37703 0
M  V30 1824 H 169.953 -0.314299 3.72777 0
M  V30 1825 H 171.286 -0.433135 4.90291 0
M  V30 1826 N 172.938 -1.57226 0.108567 0
M  V30 1827 C 174.166 -1.99179 -0.559954 0
M  V30 1828 C 174.581 -0.988022 -1.60884 0
M  V30 1829 O 173.938 0.0205512 -1.82488 0
M  V30 1830 C 173.989 -3.41159 -1.19552 0
M  V30 1831 O 173.71 -4.37694 -0.188577 0
M  V30 1832 C 175.211 -3.98188 -1.94837 0
M  V30 1833 H 172.431 -0.654228 -0.149088 0
M  V30 1834 H 174.975 -2.03598 0.19183 0
M  V30 1835 H 173.13 -3.37711 -1.89815 0
M  V30 1836 H 173.544 -5.20469 -0.649014 0
M  V30 1837 H 175.018 -4.99644 -2.34648 0
M  V30 1838 H 175.495 -3.3675 -2.81951 0
M  V30 1839 H 176.101 -4.0515 -1.2936 0
M  V30 1840 N 174.416 0.165178 -1.56732 0
M  V30 1841 C 175.693 0.908443 -1.73224 0
M  V30 1842 C 176.073 2.0013 -0.67165 0
M  V30 1843 O 175.421 2.26353 0.31253 0
M  V30 1844 C 175.631 1.46756 -3.16644 0
M  V30 1845 C 176.979 1.93809 -3.77787 0
M  V30 1846 O 178.003 1.56537 -3.1996 0
M  V30 1847 O 176.862 2.62486 -4.79336 0
M  V30 1848 H 173.956 0.428025 -0.707618 0
M  V30 1849 H 176.502 0.152526 -1.69013 0
M  V30 1850 H 175.274 0.68129 -3.85323 0
M  V30 1851 H 174.897 2.28749 -3.25207 0
M  V30 1852 N 175.894 1.51508 0.433938 0
M  V30 1853 C 177.31 1.39759 0.770682 0
M  V30 1854 C 177.51 0.482594 1.95636 0
M  V30 1855 O 176.566 -0.0609691 2.52426 0
M  V30 1856 C 177.879 2.81851 1.04787 0
M  V30 1857 C 179.427 2.91025 1.1521 0
M  V30 1858 C 179.902 4.34032 1.46219 0
M  V30 1859 N 181.393 4.37154 1.53136 0
M  V30 1860 C 182.128 5.4484 1.78709 0
M  V30 1861 N 181.624 6.62682 2.02051 0
M  V30 1862 N 183.417 5.32324 1.80519 0
M  V30 1863 H 175.568 2.09548 -0.346892 0
M  V30 1864 H 177.831 0.943446 -0.0928074 0
M  V30 1865 H 177.537 3.50815 0.249304 0
M  V30 1866 H 177.411 3.21386 1.97461 0
M  V30 1867 H 179.798 2.22257 1.94128 0
M  V30 1868 H 179.879 2.54983 0.204281 0
M  V30 1869 H 179.523 5.03351 0.678274 0
M  V30 1870 H 179.453 4.6759 2.42212 0
M  V30 1871 H 181.944 3.52197 1.36987 0
M  V30 1872 H 182.257 7.40543 2.20943 0
M  V30 1873 H 180.602 6.65791 1.99366 0
M  V30 1874 H 183.793 4.39246 1.61805 0
M  V30 1875 H 183.966 6.16328 2.00111 0
M  V30 1876 N 177.372 -0.689602 1.41712 0
M  V30 1877 C 178.618 -1.45041 1.42599 0
M  V30 1878 C 178.973 -1.92366 0.0363764 0
M  V30 1879 O 178.266 -1.67022 -0.938844 0
M  V30 1880 C 178.46 -2.67298 2.37247 0
M  V30 1881 C 178.289 -2.31935 3.85274 0
M  V30 1882 C 177.059 -2.2201 4.53916 0
M  V30 1883 C 179.257 -1.94526 4.76093 0
M  V30 1884 N 177.239 -1.79594 5.87043 0
M  V30 1885 C 178.61 -1.62915 5.98213 0
M  V30 1886 C 180.665 -1.81388 4.63684 0
M  V30 1887 C 179.368 -1.19486 7.09306 0
M  V30 1888 C 181.394 -1.39364 5.74745 0
M  V30 1889 C 180.756 -1.08668 6.95967 0
M  V30 1890 H 176.855 -0.527806 0.577014 0
M  V30 1891 H 179.439 -0.797266 1.77628 0
M  V30 1892 H 177.61 -3.30325 2.04304 0
M  V30 1893 H 179.342 -3.33806 2.28814 0
M  V30 1894 H 176.097 -2.406 4.07932 0
M  V30 1895 H 176.521 -1.60851 6.57614 0
M  V30 1896 H 181.163 -2.03772 3.70455 0
M  V30 1897 H 178.881 -0.958477 8.02396 0
M  V30 1898 H 182.467 -1.2974 5.6715 0
M  V30 1899 H 181.347 -0.766417 7.80446 0
M  V30 1900 N 178.85 -1.27639 -0.924453 0
M  V30 1901 C 180.098 -1.13941 -1.66918 0
M  V30 1902 C 180.419 0.314589 -1.92446 0
M  V30 1903 O 179.689 1.21964 -1.53303 0
M  V30 1904 H 178.269 -0.418678 -0.618642 0
M  V30 1905 H 180.931 -1.60213 -1.10985 0
M  V30 1906 H 180.027 -1.67094 -2.63602 0
M  V30 1907 N 180.328 1.1314 -1.09713 0
M  V30 1908 C 181.258 2.20748 -0.761102 0
M  V30 1909 C 182.239 1.68061 0.262566 0
M  V30 1910 O 183.424 1.93765 0.129977 0
M  V30 1911 C 180.554 3.46812 -0.184054 0
M  V30 1912 C 179.508 4.12606 -1.13757 0
M  V30 1913 C 178.834 5.33031 -0.422083 0
M  V30 1914 C 180.134 4.59603 -2.48118 0
M  V30 1915 H 181.828 2.49113 -1.66082 0
M  V30 1916 H 179.374 1.19734 -0.799987 0
M  V30 1917 H 181.327 4.21353 0.0631215 0
M  V30 1918 H 180.051 3.17851 0.750868 0
M  V30 1919 H 178.71 3.40036 -1.37007 0
M  V30 1920 H 178.358 5.00335 0.517072 0
M  V30 1921 H 178.058 5.77999 -1.05788 0
M  V30 1922 H 179.582 6.10325 -0.183277 0
M  V30 1923 H 180.996 5.25552 -2.29059 0
M  V30 1924 H 179.393 5.15321 -3.07514 0
M  V30 1925 H 180.463 3.73971 -3.08665 0
M  V30 1926 N 181.806 0.884767 1.30421 0
M  V30 1927 C 183.034 0.518044 2.0031 0
M  V30 1928 C 183.449 -0.893408 1.66324 0
M  V30 1929 O 182.806 -1.5875 0.900262 0
M  V30 1930 C 182.857 0.682997 3.54989 0
M  V30 1931 O 182.578 2.03888 3.87764 0
M  V30 1932 C 184.079 0.31924 4.42149 0
M  V30 1933 H 181.299 0.200265 0.640418 0
M  V30 1934 H 183.843 1.19001 1.6631 0
M  V30 1935 H 181.998 0.0584052 3.87356 0
M  V30 1936 H 182.412 2.05735 4.82466 0
M  V30 1937 H 183.886 0.485555 5.4986 0
M  V30 1938 H 184.363 -0.742717 4.32875 0
M  V30 1939 H 184.969 0.920147 4.15227 0
M  V30 1940 N 183.284 -1.43765 0.645699 0
M  V30 1941 C 184.231 -2.30745 -0.0504648 0
M  V30 1942 C 185.201 -1.4432 -0.822241 0
M  V30 1943 O 186.386 -1.73202 -0.800358 0
M  V30 1944 C 183.526 -3.29802 -1.0161 0
M  V30 1945 C 182.639 -4.31326 -0.241219 0
M  V30 1946 C 181.774 -5.17469 -1.19998 0
M  V30 1947 C 180.813 -6.10691 -0.415094 0
M  V30 1948 N 179.95 -6.89483 -1.32506 0
M  V30 1949 H 184.79 -2.8973 0.697155 0
M  V30 1950 H 182.327 -1.42738 0.355563 0
M  V30 1951 H 184.285 -3.85734 -1.58949 0
M  V30 1952 H 182.915 -2.72483 -1.73069 0
M  V30 1953 H 181.967 -3.77749 0.448334 0
M  V30 1954 H 183.279 -4.9743 0.369437 0
M  V30 1955 H 182.433 -5.7799 -1.84424 0
M  V30 1956 H 181.172 -4.51473 -1.84455 0
M  V30 1957 H 180.177 -5.49265 0.242565 0
M  V30 1958 H 181.402 -6.78727 0.224966 0
M  V30 1959 H 179.348 -6.26142 -1.95657 0
M  V30 1960 H 179.265 -7.52081 -0.768783 0
M  V30 1961 H 180.533 -7.54516 -1.9577 0
M  V30 1962 N 184.763 -0.387143 -1.52771 0
M  V30 1963 C 185.988 0.198407 -2.06449 0
M  V30 1964 C 186.413 1.39918 -1.25716 0
M  V30 1965 O 185.771 1.79099 -0.281657 0
M  V30 1966 C 185.819 0.548893 -3.56398 0
M  V30 1967 O 184.923 1.64315 -3.78252 0
M  V30 1968 H 184.264 0.0237731 -0.663574 0
M  V30 1969 H 186.794 -0.553989 -1.96957 0
M  V30 1970 H 186.804 0.813812 -3.99801 0
M  V30 1971 H 185.479 -0.329005 -4.14597 0
M  V30 1972 H 184.056 1.37211 -3.46738 0
M  V30 1973 N 186.241 1.57166 -0.116904 0
M  V30 1974 C 187.466 1.999 0.55271 0
M  V30 1975 C 187.891 0.996039 1.59564 0
M  V30 1976 O 187.249 -0.032556 1.81271 0
M  V30 1977 C 187.297 3.4152 1.15742 0
M  V30 1978 O 186.401 3.44106 2.27299 0
M  V30 1979 H 185.742 0.649447 0.138258 0
M  V30 1980 H 188.272 2.03573 -0.204759 0
M  V30 1981 H 188.282 3.79684 1.49346 0
M  V30 1982 H 186.957 4.14034 0.393493 0
M  V30 1983 H 185.534 3.17759 1.9515 0
M  V30 1984 N 187.719 -0.156864 1.56817 0
M  V30 1985 C 188.947 -0.886316 1.86955 0
M  V30 1986 C 189.362 -1.75185 0.703975 0
M  V30 1987 O 188.719 -1.79555 -0.326552 0
M  V30 1988 C 188.77 -1.75117 3.16253 0
M  V30 1989 O 188.491 -0.920537 4.2832 0
M  V30 1990 C 189.992 -2.58905 3.59837 0
M  V30 1991 H 187.212 -0.25678 0.619923 0
M  V30 1992 H 189.756 -0.152615 2.0393 0
M  V30 1993 H 187.911 -2.43805 3.01062 0
M  V30 1994 H 188.325 -1.51337 5.02192 0
M  V30 1995 H 189.799 -3.1518 4.53172 0
M  V30 1996 H 190.276 -3.34472 2.84649 0
M  V30 1997 H 190.882 -1.95526 3.7769 0
M  V30 1998 N 189.197 -1.51736 -0.425897 0
M  V30 1999 C 190.425 -1.68794 -1.1965 0
M  V30 2000 C 190.84 -0.390164 -1.84725 0
M  V30 2001 O 190.197 0.632376 -1.71194 0
M  V30 2002 C 190.248 -2.81174 -2.27208 0
M  V30 2003 O 189.969 -4.05925 -1.64793 0
M  V30 2004 C 191.47 -3.09599 -3.17275 0
M  V30 2005 H 188.69 -0.566128 -0.360194 0
M  V30 2006 H 191.234 -1.98211 -0.503249 0
M  V30 2007 H 189.389 -2.54324 -2.9223 0
M  V30 2008 H 189.803 -4.68423 -2.35967 0
M  V30 2009 H 191.277 -3.91786 -3.88854 0
M  V30 2010 H 191.754 -2.22468 -3.78688 0
M  V30 2011 H 192.36 -3.38151 -2.57941 0
M  V30 2012 N 190.675 0.682077 -1.42076 0
M  V30 2013 C 191.924 1.43786 -1.41451 0
M  V30 2014 C 192.237 1.95574 -0.0317074 0
M  V30 2015 O 193.443 2.71326 0.0971462 0
M  V30 2016 C 191.899 2.60071 -2.48779 0
M  V30 2017 C 191.507 2.15013 -3.93031 0
M  V30 2018 C 193.251 3.37626 -2.57311 0
M  V30 2019 C 191.158 3.28336 -4.91883 0
M  V30 2020 H 190.088 0.540143 -0.526082 0
M  V30 2021 H 192.739 0.739157 -1.67955 0
M  V30 2022 H 191.121 3.32275 -2.15429 0
M  V30 2023 H 192.295 1.5001 -4.35699 0
M  V30 2024 H 190.61 1.50416 -3.88284 0
M  V30 2025 H 193.207 4.22012 -3.28345 0
M  V30 2026 H 193.55 3.83727 -1.61429 0
M  V30 2027 H 194.083 2.72488 -2.89819 0
M  V30 2028 H 190.822 2.87234 -5.89217 0
M  V30 2029 H 190.342 3.92145 -4.53853 0
M  V30 2030 H 192.021 3.93913 -5.13265 0
M  V30 2031 N 192.153 1.28127 0.917671 0
M  V30 2032 C 193.381 1.17892 1.70026 0
M  V30 2033 C 193.796 -0.262958 1.8696 0
M  V30 2034 O 193.153 -1.17811 1.3938 0
M  V30 2035 C 193.204 1.86872 3.09453 0
M  V30 2036 O 192.925 3.25428 2.93306 0
M  V30 2037 C 194.426 1.8289 4.03815 0
M  V30 2038 H 191.646 0.40942 0.531617 0
M  V30 2039 H 194.19 1.69181 1.14883 0
M  V30 2040 H 192.345 1.39464 3.61426 0
M  V30 2041 H 192.759 3.59918 3.81523 0
M  V30 2042 H 194.233 2.35751 4.99125 0
M  V30 2043 H 194.71 0.800412 4.31845 0
M  V30 2044 H 195.316 2.29959 3.57769 0
M  V30 2045 N 193.631 -1.12557 1.10312 0
M  V30 2046 C 194.859 -1.87864 0.866873 0
M  V30 2047 C 195.274 -1.79588 -0.582557 0
M  V30 2048 O 194.631 -1.16887 -1.40156 0
M  V30 2049 C 194.682 -3.37125 1.30496 0
M  V30 2050 O 194.403 -3.45201 2.69755 0
M  V30 2051 C 195.904 -4.29373 1.10243 0
M  V30 2052 H 193.124 -0.594452 0.311236 0
M  V30 2053 H 195.668 -1.42429 1.46745 0
M  V30 2054 H 193.823 -3.80109 0.748081 0
M  V30 2055 H 194.237 -4.38056 2.88457 0
M  V30 2056 H 195.711 -5.32394 1.45811 0
M  V30 2057 H 196.188 -4.39181 0.0409492 0
M  V30 2058 H 196.794 -3.92169 1.64571 0
M  V30 2059 N 195.109 -0.891671 -1.2995 0
M  V30 2060 C 196.072 -0.36828 -2.26222 0
M  V30 2061 C 197.072 0.493014 -1.53056 0
M  V30 2062 O 198.262 0.299213 -1.71611 0
M  V30 2063 C 195.394 0.47442 -3.37583 0
M  V30 2064 H 196.587 -1.21844 -2.74033 0
M  V30 2065 H 194.14 -0.669107 -1.41254 0
M  V30 2066 H 194.875 1.34489 -2.95099 0
M  V30 2067 H 194.66 -0.142615 -3.91841 0
M  V30 2068 H 196.15 0.83218 -4.09224 0
M  V30 2069 N 196.587 1.43421 -0.653314 0
M  V30 2070 C 197.55 2.29182 0.0287951 0
M  V30 2071 C 198.55 1.42213 0.750465 0
M  V30 2072 O 199.74 1.63843 0.591701 0
M  V30 2073 C 196.872 3.24278 1.05151 0
M  V30 2074 H 198.065 2.90985 -0.725786 0
M  V30 2075 H 195.618 1.50702 -0.414545 0
M  V30 2076 H 196.353 2.6737 1.83532 0
M  V30 2077 H 196.138 3.88396 0.537687 0
M  V30 2078 H 197.628 3.88647 1.52786 0
M  V30 2079 N 198.065 0.39524 1.52563 0
M  V30 2080 C 199.476 -0.0774719 1.86539 0
M  V30 2081 C 199.827 -1.45641 1.31466 0
M  V30 2082 O 198.952 -2.06459 0.648367 0
M  V30 2083 C 199.547 -0.147356 3.38479 0
M  V30 2084 C 198.106 -0.564373 3.72145 0
M  V30 2085 C 197.253 0.269919 2.75983 0
M  V30 2086 H 200.204 0.612876 1.46388 0
M  V30 2087 H 200.225 -0.965343 3.68051 0
M  V30 2088 H 199.737 0.856387 3.78534 0
M  V30 2089 H 197.838 -1.57527 3.37663 0
M  V30 2090 H 197.951 -0.318402 4.78041 0
M  V30 2091 H 196.315 -0.265696 2.5331 0
M  V30 2092 H 197.098 1.27175 3.18875 0
M  V30 2093 N 199.544 -1.57102 0.125237 0
M  V30 2094 C 200.772 -1.99761 -0.538797 0
M  V30 2095 C 201.187 -1.00503 -1.59827 0
M  V30 2096 O 200.544 0.00119474 -1.825 0
M  V30 2097 C 200.595 -3.42408 -1.15927 0
M  V30 2098 O 200.316 -4.37869 -0.142143 0
M  V30 2099 C 201.817 -4.00232 -1.90602 0
M  V30 2100 H 199.037 -0.655772 -0.14214 0
M  V30 2101 H 201.581 -2.03383 0.213413 0
M  V30 2102 H 199.736 -3.39706 -1.86223 0
M  V30 2103 H 200.15 -5.21128 -0.593775 0
M  V30 2104 H 201.624 -5.02105 -2.29335 0
M  V30 2105 H 202.101 -3.39721 -2.78363 0
M  V30 2106 H 202.707 -4.06499 -1.25055 0
M  V30 2107 N 201.022 0.148545 -1.56898 0
M  V30 2108 C 202.247 0.880385 -1.87787 0
M  V30 2109 C 202.672 1.74018 -0.714093 0
M  V30 2110 O 202.03 1.78153 0.336343 0
M  V30 2111 C 202.078 1.71422 -3.17249 0
M  V30 2112 O 201.182 2.8183 -3.01074 0
M  V30 2113 H 200.523 0.245301 -0.617028 0
M  V30 2114 H 203.053 0.139826 -2.04122 0
M  V30 2115 H 203.063 2.10954 -3.49231 0
M  V30 2116 H 201.738 1.08284 -4.01556 0
M  V30 2117 H 200.315 2.45715 -2.80497 0
M  V30 2118 N 202.5 1.5196 0.417844 0
M  V30 2119 C 203.463 1.74065 1.49111 0
M  V30 2120 C 204.463 0.610537 1.48758 0
M  V30 2121 O 205.653 0.87832 1.50437 0
M  V30 2122 C 202.785 1.81502 2.88565 0
M  V30 2123 H 203.978 2.69869 1.30807 0
M  V30 2124 H 201.531 1.42244 0.647785 0
M  V30 2125 H 202.266 0.875813 3.1225 0
M  V30 2126 H 202.051 2.63651 2.90225 0
M  V30 2127 H 203.541 2.00376 3.66387 0
M  V30 2128 N 203.978 -0.674533 1.42435 0
M  V30 2129 C 205.389 -1.25514 1.38214 0
M  V30 2130 C 205.74 -1.96055 0.0755464 0
M  V30 2131 O 204.865 -2.00028 -0.8257 0
M  V30 2132 C 205.46 -2.28269 2.50357 0
M  V30 2133 C 204.019 -2.81856 2.49467 0
M  V30 2134 C 203.166 -1.56182 2.29134 0
M  V30 2135 H 206.117 -0.467902 1.51646 0
M  V30 2136 H 206.138 -3.10009 2.20624 0
M  V30 2137 H 205.65 -1.769 3.45439 0
M  V30 2138 H 203.751 -3.37346 1.58204 0
M  V30 2139 H 203.864 -3.30854 3.46515 0
M  V30 2140 H 202.228 -1.82761 1.774 0
M  V30 2141 H 203.011 -1.06778 3.26272 0
M  V30 2142 N 205.456 -1.28612 -0.910864 0
M  V30 2143 C 206.702 -1.16106 -1.66274 0
M  V30 2144 C 207.035 0.289113 -1.92036 0
M  V30 2145 O 206.31 1.21 -1.52281 0
M  V30 2146 C 206.593 -1.96309 -3.01885 0
M  V30 2147 C 206.446 -3.49405 -2.8326 0
M  V30 2148 C 207.765 -1.78076 -4.02463 0
M  V30 2149 H 204.884 -0.423152 -0.603417 0
M  V30 2150 H 207.526 -1.57961 -1.05586 0
M  V30 2151 H 205.676 -1.60742 -3.53687 0
M  V30 2152 H 207.348 -3.94894 -2.38446 0
M  V30 2153 H 205.591 -3.74893 -2.18261 0
M  V30 2154 H 206.262 -4.00784 -3.79574 0
M  V30 2155 H 208.738 -2.0912 -3.59733 0
M  V30 2156 H 207.614 -2.36561 -4.95308 0
M  V30 2157 H 207.875 -0.733008 -4.35981 0
M  V30 2158 N 206.934 1.1197 -1.10907 0
M  V30 2159 C 208.159 1.87942 -0.877064 0
M  V30 2160 C 208.584 1.79341 0.567314 0
M  V30 2161 O 207.942 1.15184 1.40009 0
M  V30 2162 C 207.99 3.34926 -1.33629 0
M  V30 2163 O 207.094 4.09303 -0.504447 0
M  V30 2164 H 206.435 0.583785 -0.316371 0
M  V30 2165 H 208.965 1.4157 -1.47712 0
M  V30 2166 H 208.975 3.8577 -1.32837 0
M  V30 2167 H 207.65 3.40504 -2.3881 0
M  V30 2168 H 206.227 3.68393 -0.577993 0
M  V30 2169 N 208.412 0.89855 1.29475 0
M  V30 2170 C 209.322 0.379974 2.31502 0
M  V30 2171 C 210.338 -0.524695 1.659 0
M  V30 2172 O 211.514 -0.414551 1.97087 0
M  V30 2173 C 208.579 -0.385138 3.44554 0
M  V30 2174 C 207.64 0.550914 4.2575 0
M  V30 2175 C 206.873 -0.177778 5.33404 0
M  V30 2176 O 207.096 -1.40189 5.52904 0
M  V30 2177 O 206.03 0.479106 5.9999 0
M  V30 2178 H 209.856 1.22639 2.77837 0
M  V30 2179 H 207.441 0.662834 1.33891 0
M  V30 2180 H 209.323 -0.817841 4.13388 0
M  V30 2181 H 207.998 -1.20763 3.0033 0
M  V30 2182 H 206.905 1.03271 3.59564 0
M  V30 2183 H 208.238 1.33979 4.73614 0
M  V30 2184 N 209.89 -1.43072 0.660911 0
M  V30 2185 C 210.837 -2.30785 -0.0259884 0
M  V30 2186 C 211.807 -1.45184 -0.806888 0
M  V30 2187 O 212.992 -1.74041 -0.781943 0
M  V30 2188 C 210.132 -3.30861 -0.981067 0
M  V30 2189 C 209.245 -4.31558 -0.195458 0
M  V30 2190 C 208.38 -5.18712 -1.14503 0
M  V30 2191 C 207.419 -6.11097 -0.350299 0
M  V30 2192 N 206.556 -6.90849 -1.25186 0
M  V30 2193 H 211.396 -2.88975 0.727846 0
M  V30 2194 H 208.933 -1.42353 0.370682 0
M  V30 2195 H 210.891 -3.87399 -1.54849 0
M  V30 2196 H 209.521 -2.74304 -1.70169 0
M  V30 2197 H 208.573 -3.77252 0.488374 0
M  V30 2198 H 209.885 -4.9701 0.422176 0
M  V30 2199 H 209.039 -5.79914 -1.78284 0
M  V30 2200 H 207.778 -4.53404 -1.79656 0
M  V30 2201 H 206.783 -5.48976 0.300808 0
M  V30 2202 H 208.008 -6.7845 0.296941 0
M  V30 2203 H 205.954 -6.28182 -1.89005 0
M  V30 2204 H 205.871 -7.52854 -0.688971 0
M  V30 2205 H 207.139 -7.5655 -1.87757 0
M  V30 2206 N 211.368 -0.403325 -1.52352 0
M  V30 2207 C 212.617 0.175668 -2.00934 0
M  V30 2208 C 212.93 1.46718 -1.29356 0
M  V30 2209 O 214.136 2.12708 -1.68724 0
M  V30 2210 C 212.592 0.363612 -3.58058 0
M  V30 2211 C 212.2 -0.915472 -4.38547 0
M  V30 2212 C 213.944 0.89821 -4.14888 0
M  V30 2213 C 211.851 -0.695035 -5.87302 0
M  V30 2214 H 210.781 0.0694234 -0.750797 0
M  V30 2215 H 213.432 -0.527879 -1.75743 0
M  V30 2216 H 211.814 1.12935 -3.79555 0
M  V30 2217 H 212.988 -1.68691 -4.28812 0
M  V30 2218 H 211.303 -1.37606 -3.93006 0
M  V30 2219 H 213.9 1.07907 -5.23699 0
M  V30 2220 H 214.243 1.87126 -3.71873 0
M  V30 2221 H 214.776 0.191681 -3.97338 0
M  V30 2222 H 211.515 -1.63948 -6.34666 0
M  V30 2223 H 211.035 0.0372116 -5.99788 0
M  V30 2224 H 212.714 -0.33497 -6.46132 0
M  V30 2225 N 212.846 1.57033 -0.133567 0
M  V30 2226 C 214.123 1.87256 0.56522 0
M  V30 2227 C 214.503 1.03726 1.83859 0
M  V30 2228 O 213.851 0.120247 2.28183 0
M  V30 2229 C 214.061 3.3865 0.843636 0
M  V30 2230 C 215.409 4.07574 1.19032 0
M  V30 2231 O 216.433 3.43752 0.933429 0
M  V30 2232 O 215.292 5.20259 1.67312 0
M  V30 2233 H 212.386 0.775678 0.286796 0
M  V30 2234 H 214.932 1.68855 -0.169168 0
M  V30 2235 H 213.704 3.91257 -0.0581149 0
M  V30 2236 H 213.327 3.62532 1.63268 0
M  V30 2237 N 214.325 -0.140222 1.56975 0
M  V30 2238 C 215.258 -1.20266 1.93936 0
M  V30 2239 C 216.236 -1.41212 0.806099 0
M  V30 2240 O 217.42 -1.55713 1.06234 0
M  V30 2241 C 214.547 -2.56037 2.21726 0
M  V30 2242 C 213.593 -2.51646 3.44349 0
M  V30 2243 S 214.426 -1.97678 4.97678 0
M  V30 2244 C 215.582 -3.35165 5.28597 0
M  V30 2245 H 215.815 -0.887358 2.83749 0
M  V30 2246 H 213.348 -0.346119 1.50471 0
M  V30 2247 H 215.306 -3.34167 2.38416 0
M  V30 2248 H 213.967 -2.84755 1.32566 0
M  V30 2249 H 213.16 -3.51608 3.61092 0
M  V30 2250 H 212.762 -1.81628 3.26936 0
M  V30 2251 H 215.054 -4.31302 5.2248 0
M  V30 2252 H 215.997 -3.23269 6.30002 0
M  V30 2253 H 216.405 -3.32614 4.56101 0
M  V30 2254 N 215.803 -1.52179 -0.40978 0
M  V30 2255 C 217.049 -1.66453 -1.15851 0
M  V30 2256 C 217.382 -0.392972 -1.90182 0
M  V30 2257 O 216.657 0.608579 -1.84734 0
M  V30 2258 C 216.94 -2.88612 -2.15349 0
M  V30 2259 C 216.793 -4.25815 -1.44918 0
M  V30 2260 C 218.112 -3.06294 -3.16026 0
M  V30 2261 H 215.231 -0.60575 -0.419805 0
M  V30 2262 H 217.873 -1.84732 -0.444314 0
M  V30 2263 H 216.023 -2.73158 -2.76255 0
M  V30 2264 H 217.695 -4.52995 -0.871365 0
M  V30 2265 H 215.938 -4.27247 -0.751159 0
M  V30 2266 H 216.609 -5.07337 -2.17516 0
M  V30 2267 H 219.085 -3.20641 -2.65195 0
M  V30 2268 H 217.961 -3.93283 -3.8291 0
M  V30 2269 H 218.222 -2.19579 -3.83715 0
M  V30 2270 N 217.281 0.66697 -1.42791 0
M  V30 2271 C 218.229 1.80157 -1.47127 0
M  V30 2272 C 219.223 1.65825 -0.346199 0
M  V30 2273 O 220.429 1.72338 -0.519572 0
M  V30 2274 H 216.804 0.594158 -0.460956 0
M  V30 2275 H 218.775 1.73619 -2.42692 0
M  V30 2276 C 217.524 3.18351 -1.39813 0
M  V30 2277 H 216.847 3.3001 -2.25684 0
M  V30 2278 H 218.287 3.97736 -1.46908 0
M  V30 2279 C 216.746 3.36707 -0.11391 0
M  V30 2280 O 217.276 3.93027 0.830241 0
M  V30 2281 N 215.482 2.90586 -0.0285295 0
M  V30 2282 H 215.029 2.4494 -0.79764 0
M  V30 2283 H 214.987 3.03245 0.830063 0
M  V30 2284 N 218.759 1.29093 0.90403 0
M  V30 2285 C 219.669 1.15727 2.0407 0
M  V30 2286 C 220.685 0.0815308 1.73809 0
M  V30 2287 O 221.861 0.292749 1.99261 0
M  V30 2288 C 218.926 0.830424 3.36608 0
M  V30 2289 C 217.987 1.98955 3.80415 0
M  V30 2290 C 217.22 1.6782 5.06628 0
M  V30 2291 O 217.443 0.597105 5.67266 0
M  V30 2292 O 216.377 2.52486 5.46383 0
M  V30 2293 H 220.203 2.11171 2.18267 0
M  V30 2294 H 217.788 1.08504 1.027 0
M  V30 2295 H 219.67 0.662521 4.16159 0
M  V30 2296 H 218.345 -0.0942678 3.23563 0
M  V30 2297 H 217.252 2.21267 3.01648 0
M  V30 2298 H 218.585 2.89529 3.98037 0
M  V30 2299 N 220.237 -1.11381 1.11499 0
M  V30 2300 C 221.465 -1.86934 0.88675 0
M  V30 2301 C 221.88 -1.80195 -0.563476 0
M  V30 2302 O 221.237 -1.18367 -1.38908 0
M  V30 2303 C 221.288 -3.35722 1.34064 0
M  V30 2304 O 221.009 -3.4232 2.73401 0
M  V30 2305 C 222.51 -4.2818 1.14791 0
M  V30 2306 H 219.73 -0.591117 0.317523 0
M  V30 2307 H 222.274 -1.40865 1.48248 0
M  V30 2308 H 220.429 -3.79294 0.788355 0
M  V30 2309 H 220.843 -4.34971 2.93087 0
M  V30 2310 H 222.317 -5.30817 1.5145 0
M  V30 2311 H 222.794 -4.39113 0.0875279 0
M  V30 2312 H 223.4 -3.90402 1.68721 0
M  V30 2313 N 221.715 -0.905404 -1.28997 0
M  V30 2314 C 222.94 -0.549175 -1.99997 0
M  V30 2315 C 223.365 0.860276 -1.67275 0
M  V30 2316 O 222.723 1.57355 -0.900502 0
M  V30 2317 C 222.771 -0.755185 -3.52604 0
M  V30 2318 O 221.875 0.189692 -4.11964 0
M  V30 2319 H 221.216 -0.213899 -0.628604 0
M  V30 2320 H 223.746 -1.21856 -1.64354 0
M  V30 2321 H 223.756 -0.662045 -4.02593 0
M  V30 2322 H 222.431 -1.78271 -3.75755 0
M  V30 2323 H 221.008 0.0485257 -3.72868 0
M  V30 2324 N 223.193 1.4272 -0.668489 0
M  V30 2325 C 224.418 2.06484 -0.194758 0
M  V30 2326 C 224.843 1.49862 1.13679 0
M  V30 2327 O 224.201 0.614582 1.70565 0
M  V30 2328 C 224.249 3.60353 -0.133546 0
M  V30 2329 O 223.353 4.02464 0.899806 0
M  V30 2330 H 222.694 0.656137 -0.10188 0
M  V30 2331 H 225.224 1.82964 -0.915722 0
M  V30 2332 H 225.234 4.07976 0.0447041 0
M  V30 2333 H 223.909 4.00938 -1.1055 0
M  V30 2334 H 222.486 3.66402 0.693109 0
M  V30 2335 N 224.671 0.411399 1.52136 0
M  V30 2336 C 225.911 -0.163143 2.03748 0
M  V30 2337 C 226.275 -1.42187 1.29022 0
M  V30 2338 O 227.476 -2.075 1.70872 0
M  V30 2339 C 225.747 -0.402651 3.55125 0
M  V30 2340 S 227.306 -0.944315 4.28519 0
M  V30 2341 H 224.124 -0.0439833 0.709638 0
M  V30 2342 H 226.726 0.56484 1.87163 0
M  V30 2343 H 225.43 0.520212 4.0709 0
M  V30 2344 H 224.961 -1.15844 3.75957 0
M  V30 2345 H 226.976 -2.22463 4.43536 0
M  V30 2346 N 226.149 -1.5696 0.141893 0
M  V30 2347 C 227.398 -1.95135 -0.510427 0
M  V30 2348 C 227.711 -1.02896 -1.66348 0
M  V30 2349 O 228.917 -1.30629 -2.38009 0
M  V30 2350 C 227.373 -3.46876 -0.959427 0
M  V30 2351 C 226.981 -4.47691 0.166419 0
M  V30 2352 C 228.725 -3.93927 -1.58183 0
M  V30 2353 C 226.632 -5.90636 -0.300565 0
M  V30 2354 H 225.562 -0.728494 -0.194454 0
M  V30 2355 H 228.213 -1.8211 0.22542 0
M  V30 2356 H 226.595 -3.55215 -1.75038 0
M  V30 2357 H 227.769 -4.51043 0.94325 0
M  V30 2358 H 226.084 -4.10527 0.696905 0
M  V30 2359 H 228.681 -4.98158 -1.94275 0
M  V30 2360 H 229.024 -3.3519 -2.46888 0
M  V30 2361 H 229.557 -3.88484 -0.855863 0
M  V30 2362 H 226.296 -6.5318 0.550989 0
M  V30 2363 H 225.816 -5.90655 -1.04338 0
M  V30 2364 H 227.495 -6.42588 -0.754265 0
M  V30 2365 N 227.627 0.131896 -1.57047 0
M  V30 2366 C 228.59 1.14638 -1.98471 0
M  V30 2367 C 229.59 1.35029 -0.873148 0
M  V30 2368 O 230.78 1.31764 -1.13946 0
M  V30 2369 C 227.912 2.50358 -2.31373 0
M  V30 2370 H 229.105 0.79064 -2.8929 0
M  V30 2371 H 226.658 0.375761 -1.51716 0
M  V30 2372 H 227.393 2.90876 -1.43393 0
M  V30 2373 H 227.178 2.36915 -3.12432 0
M  V30 2374 H 228.668 3.23395 -2.64207 0
M  V30 2375 N 229.106 1.52395 0.401703 0
M  V30 2376 C 230.038 1.72505 1.50912 0
M  V30 2377 C 231.051 0.605468 1.51122 0
M  V30 2378 O 232.24 0.880828 1.55254 0
M  V30 2379 C 229.34 1.75711 2.89791 0
M  V30 2380 C 228.513 3.04824 3.1369 0
M  V30 2381 C 227.572 2.99743 4.32482 0
M  V30 2382 O 226.598 3.73635 4.29402 0
M  V30 2383 N 227.8 2.18047 5.37992 0
M  V30 2384 H 230.565 2.68049 1.34052 0
M  V30 2385 H 228.126 1.50724 0.591084 0
M  V30 2386 H 230.118 1.69834 3.6734 0
M  V30 2387 H 228.688 0.876092 3.00072 0
M  V30 2388 H 227.908 3.2429 2.24119 0
M  V30 2389 H 229.196 3.90221 3.26504 0
M  V30 2390 H 228.594 1.57456 5.43345 0
M  V30 2391 H 227.151 2.18021 6.14256 0
M  V30 2392 N 230.584 -0.659388 1.43143 0
M  V30 2393 C 231.532 -1.79374 1.4808 0
M  V30 2394 C 232.526 -1.65639 0.354988 0
M  V30 2395 O 233.732 -1.7206 0.528704 0
M  V30 2396 H 230.107 -0.591705 0.4641 0
M  V30 2397 H 232.078 -1.72329 2.43609 0
M  V30 2398 C 230.827 -3.17606 1.41499 0
M  V30 2399 H 230.15 -3.28809 2.27431 0
M  V30 2400 H 231.59 -3.96951 1.49015 0
M  V30 2401 C 230.049 -3.36642 0.131765 0
M  V30 2402 O 230.579 -3.93461 -0.809386 0
M  V30 2403 N 228.785 -2.90567 0.0439396 0
M  V30 2404 H 228.332 -2.44513 0.810619 0
M  V30 2405 H 228.29 -3.03681 -0.813969 0
M  V30 2406 N 232.062 -1.29571 -0.897171 0
M  V30 2407 C 233.01 -1.14802 -2.02295 0
M  V30 2408 C 234.004 -0.0629637 -1.69283 0
M  V30 2409 O 235.21 -0.222945 -1.78614 0
M  V30 2410 H 231.585 -0.354692 -0.663097 0
M  V30 2411 H 233.556 -2.10108 -2.11889 0
M  V30 2412 C 232.305 -0.843966 -3.37302 0
M  V30 2413 H 231.628 -1.67093 -3.63208 0
M  V30 2414 H 233.068 -0.780672 -4.16751 0
M  V30 2415 C 231.527 0.452843 -3.33843 0
M  V30 2416 O 232.057 1.47813 -3.73516 0
M  V30 2417 N 230.263 0.459601 -2.86943 0
M  V30 2418 H 229.81 -0.375213 -2.54853 0
M  V30 2419 H 229.768 1.32726 -2.85011 0
M  V30 2420 N 233.54 1.10788 -1.12088 0
M  V30 2421 C 234.78 1.84297 -0.883974 0
M  V30 2422 C 235.144 1.83036 0.579797 0
M  V30 2423 O 236.345 2.52061 0.933734 0
M  V30 2424 C 234.616 3.27173 -1.43849 0
M  V30 2425 S 236.175 4.17853 -1.33957 0
M  V30 2426 H 232.993 0.635433 -0.318977 0
M  V30 2427 H 235.595 1.33341 -1.4297 0
M  V30 2428 H 234.299 3.25658 -2.49749 0
M  V30 2429 H 233.83 3.83198 -0.890096 0
M  V30 2430 H 235.845 4.95239 -0.308603 0
M  V30 2431 N 235.018 0.912232 1.28515 0
M  V30 2432 C 236.246 0.560416 1.99166 0
M  V30 2433 C 236.661 -0.857927 1.68182 0
M  V30 2434 O 236.018 -1.56805 0.933733 0
M  V30 2435 C 236.069 0.758142 3.53461 0
M  V30 2436 O 235.79 2.12067 3.83352 0
M  V30 2437 C 237.291 0.412954 4.41372 0
M  V30 2438 H 234.511 0.213805 0.636026 0
M  V30 2439 H 237.055 1.22502 1.63749 0
M  V30 2440 H 235.21 0.140556 3.87145 0
M  V30 2441 H 235.624 2.15923 4.77993 0
M  V30 2442 H 237.098 0.60208 5.48707 0
M  V30 2443 H 237.575 -0.65073 4.34353 0
M  V30 2444 H 238.181 1.00802 4.13182 0
M  V30 2445 N 236.496 -1.42363 0.676048 0
M  V30 2446 C 237.744 -2.01123 0.198437 0
M  V30 2447 C 238.065 -1.53731 -1.19966 0
M  V30 2448 O 237.335 -0.759518 -1.80577 0
M  V30 2449 H 235.915 -0.743678 0.0703721 0
M  V30 2450 H 238.577 -1.74263 0.872837 0
M  V30 2451 H 237.673 -3.11454 0.200686 0
M  V30 2452 N 237.974 -0.419461 -1.51915 0
M  V30 2453 C 238.904 0.391813 -2.30189 0
M  V30 2454 C 239.885 1.03699 -1.34836 0
M  V30 2455 O 241.07 1.04403 -1.63748 0
M  V30 2456 C 238.2 1.50312 -3.13087 0
M  V30 2457 C 237.154 0.9824 -4.16573 0
M  V30 2458 C 236.48 2.18809 -4.8788 0
M  V30 2459 C 237.78 0.0292356 -5.22292 0
M  V30 2460 H 239.474 -0.26135 -2.98257 0
M  V30 2461 H 237.02 -0.127134 -1.43438 0
M  V30 2462 H 238.973 2.07773 -3.66617 0
M  V30 2463 H 237.697 2.18431 -2.42807 0
M  V30 2464 H 236.356 0.430119 -3.64068 0
M  V30 2465 H 236.004 2.85507 -4.14119 0
M  V30 2466 H 235.704 1.84615 -5.57845 0
M  V30 2467 H 237.228 2.76858 -5.44226 0
M  V30 2468 H 238.642 0.512976 -5.71 0
M  V30 2469 H 237.039 -0.2244 -5.9968 0
M  V30 2470 H 238.109 -0.912931 -4.76228 0
M  V30 2471 N 239.452 1.56882 -0.150215 0
M  V30 2472 C 240.362 2.20494 0.801222 0
M  V30 2473 C 241.378 1.19019 1.26927 0
M  V30 2474 O 242.554 1.51607 1.32579 0
M  V30 2475 C 239.619 2.81659 2.02161 0
M  V30 2476 C 238.68 3.9827 1.60249 0
M  V30 2477 C 237.913 4.56508 2.7647 0
M  V30 2478 O 238.136 4.13627 3.92771 0
M  V30 2479 O 237.07 5.46719 2.51757 0
M  V30 2480 H 240.896 3.02315 0.289717 0
M  V30 2481 H 238.481 1.49202 0.0769684 0
M  V30 2482 H 240.363 3.20522 2.73576 0
M  V30 2483 H 239.038 2.02849 2.52258 0
M  V30 2484 H 237.945 3.64117 0.858477 0
M  V30 2485 H 239.278 4.78609 1.14864 0
M  V30 2486 N 240.93 -0.123565 1.57115 0
M  V30 2487 C 241.862 -1.17739 1.96648 0
M  V30 2488 C 242.875 -1.37906 0.865201 0
M  V30 2489 O 244.064 -1.37062 1.14351 0
M  V30 2490 C 241.164 -2.53821 2.24562 0
M  V30 2491 C 240.337 -2.54317 3.55867 0
M  V30 2492 C 239.396 -3.72112 3.72047 0
M  V30 2493 O 238.422 -3.55907 4.44206 0
M  V30 2494 N 239.624 -4.90498 3.10471 0
M  V30 2495 H 242.389 -0.841147 2.87654 0
M  V30 2496 H 239.95 -0.31289 1.58848 0
M  V30 2497 H 241.942 -3.31175 2.32606 0
M  V30 2498 H 240.512 -2.79645 1.39705 0
M  V30 2499 H 239.732 -1.62711 3.59053 0
M  V30 2500 H 241.02 -2.51701 4.42181 0
M  V30 2501 H 240.418 -5.06567 2.51806 0
M  V30 2502 H 238.975 -5.65544 3.24043 0
M  V30 2503 N 242.408 -1.52605 -0.393616 0
M  V30 2504 C 243.318 -1.79971 -1.50492 0
M  V30 2505 C 244.334 -0.686181 -1.59899 0
M  V30 2506 O 245.51 -0.973274 -1.76322 0
M  V30 2507 C 242.575 -1.95867 -2.86072 0
M  V30 2508 C 241.636 -3.19781 -2.86424 0
M  V30 2509 C 240.869 -3.34909 -4.15538 0
M  V30 2510 O 241.092 -2.54948 -5.10253 0
M  V30 2511 O 240.026 -4.28141 -4.23059 0
M  V30 2512 H 243.852 -2.74328 -1.30299 0
M  V30 2513 H 241.437 -1.3764 -0.581005 0
M  V30 2514 H 243.319 -2.08056 -3.66457 0
M  V30 2515 H 241.994 -1.04699 -3.063 0
M  V30 2516 H 240.901 -3.13038 -2.04837 0
M  V30 2517 H 242.234 -4.1078 -2.71147 0
M  V30 2518 N 243.887 0.651787 -1.4349 0
M  V30 2519 C 244.819 1.77725 -1.44729 0
M  V30 2520 C 245.832 1.59141 -0.343231 0
M  V30 2521 O 247.021 1.67835 -0.607751 0
M  V30 2522 C 244.121 3.15172 -1.24579 0
M  V30 2523 C 243.294 3.60402 -2.47849 0
M  V30 2524 C 242.353 4.76656 -2.22902 0
M  V30 2525 O 241.379 4.86022 -2.96263 0
M  V30 2526 N 242.581 5.66958 -1.24656 0
M  V30 2527 H 245.346 1.77141 -2.41746 0
M  V30 2528 H 242.907 0.835678 -1.38665 0
M  V30 2529 H 244.899 3.90634 -1.0577 0
M  V30 2530 H 243.469 3.1052 -0.360015 0
M  V30 2531 H 242.689 2.75369 -2.82073 0
M  V30 2532 H 243.977 3.87368 -3.29884 0
M  V30 2533 H 243.375 5.62065 -0.640265 0
M  V30 2534 H 241.932 6.42135 -1.1183 0
M  V30 2535 N 245.365 1.30045 0.890287 0
M  V30 2536 C 246.298 1.10301 1.99772 0
M  V30 2537 C 247.276 0.0121631 1.62595 0
M  V30 2538 O 248.46 0.16469 1.87779 0
M  V30 2539 C 245.587 0.681125 3.31781 0
M  V30 2540 C 244.633 1.77206 3.87944 0
M  V30 2541 S 245.466 3.37335 4.15891 0
M  V30 2542 C 246.622 2.97036 5.50927 0
M  V30 2543 H 246.855 2.04057 2.16213 0
M  V30 2544 H 244.388 1.14299 1.03804 0
M  V30 2545 H 246.346 0.444439 4.08087 0
M  V30 2546 H 245.007 -0.236981 3.13205 0
M  V30 2547 H 244.2 1.42903 4.83316 0
M  V30 2548 H 243.802 1.96275 3.18358 0
M  V30 2549 H 246.094 2.44666 6.31779 0
M  V30 2550 H 247.037 3.91296 5.90164 0
M  V30 2551 H 247.445 2.35057 5.13233 0
M  V30 2552 N 246.843 -1.10192 1.12674 0
M  V30 2553 C 248.092 -1.81573 0.8783 0
M  V30 2554 C 248.405 -1.86249 -0.597557 0
M  V30 2555 O 249.611 -2.5386 -0.962681 0
M  V30 2556 C 248.067 -3.26149 1.52167 0
M  V30 2557 C 247.675 -3.29763 3.03249 0
M  V30 2558 C 249.419 -4.0234 1.3536 0
M  V30 2559 C 247.326 -4.68815 3.60508 0
M  V30 2560 H 246.256 -0.680394 0.324931 0
M  V30 2561 H 248.907 -1.23902 1.35353 0
M  V30 2562 H 247.289 -3.83832 0.974104 0
M  V30 2563 H 248.463 -2.8189 3.6452 0
M  V30 2564 H 246.778 -2.67059 3.19481 0
M  V30 2565 H 249.375 -5.05058 1.75559 0
M  V30 2566 H 249.718 -4.15235 0.297554 0
M  V30 2567 H 250.251 -3.51079 1.87052 0
M  V30 2568 H 246.99 -4.61121 4.65884 0
M  V30 2569 H 246.51 -5.17045 3.04014 0
M  V30 2570 H 248.189 -5.37785 3.59717 0
M  V30 2571 N 248.321 -0.919034 -1.28029 0
M  V30 2572 C 249.546 -0.570357 -1.99403 0
M  V30 2573 C 249.971 0.842486 -1.68178 0
M  V30 2574 O 249.329 1.56391 -0.917141 0
M  V30 2575 C 249.377 -0.792541 -3.51783 0
M  V30 2576 O 248.481 0.145988 -4.12142 0
M  V30 2577 H 247.822 -0.220555 -0.6263 0
M  V30 2578 H 250.352 -1.23592 -1.63053 0
M  V30 2579 H 250.362 -0.704708 -4.01868 0
M  V30 2580 H 249.037 -1.82247 -3.73844 0
M  V30 2581 H 247.614 0.00897528 -3.72899 0
M  V30 2582 N 249.799 1.42003 -0.683588 0
M  V30 2583 C 251.039 2.03282 -0.213513 0
M  V30 2584 C 251.403 1.52924 1.16097 0
M  V30 2585 O 252.604 2.06048 1.7262 0
M  V30 2586 C 250.875 3.56483 -0.255856 0
M  V30 2587 S 252.434 4.3857 0.14193 0
M  V30 2588 H 249.252 0.705659 -0.0869853 0
M  V30 2589 H 251.854 1.73619 -0.8987 0
M  V30 2590 H 250.558 3.90631 -1.25841 0
M  V30 2591 H 250.089 3.90831 0.448875 0
M  V30 2592 H 252.104 4.76828 1.37295 0
M  V30 2593 N 251.277 0.427512 1.51691 0
M  V30 2594 C 252.224 -0.388867 2.275 0
M  V30 2595 C 253.194 -1.02532 1.30677 0
M  V30 2596 O 254.379 -1.0461 1.59566 0
M  V30 2597 C 251.519 -1.48954 3.11298 0
M  V30 2598 C 250.632 -0.872194 4.23104 0
M  V30 2599 C 249.767 -1.94709 4.94228 0
M  V30 2600 C 248.806 -1.30766 5.97969 0
M  V30 2601 N 247.943 -2.32349 6.62539 0
M  V30 2602 H 252.783 0.263997 2.96828 0
M  V30 2603 H 250.32 0.142033 1.46413 0
M  V30 2604 H 252.278 -2.13887 3.58201 0
M  V30 2605 H 250.908 -2.11217 2.44105 0
M  V30 2606 H 249.96 -0.111419 3.80237 0
M  V30 2607 H 251.272 -0.365264 4.97461 0
M  V30 2608 H 250.426 -2.67327 5.44629 0
M  V30 2609 H 249.165 -2.48773 4.1948 0
M  V30 2610 H 248.17 -0.566902 5.4687 0
M  V30 2611 H 249.395 -0.774483 6.74669 0
M  V30 2612 H 247.341 -2.85511 5.90609 0
M  V30 2613 H 247.258 -1.8652 7.3263 0
M  V30 2614 H 248.526 -3.04481 7.17574 0
M  V30 2615 N 252.755 -1.56801 0.158532 0
M  V30 2616 C 254.002 -1.9649 -0.489679 0
M  V30 2617 C 254.33 -1.04394 -1.6411 0
M  V30 2618 O 253.585 -0.0754401 -1.95555 0
M  V30 2619 C 253.884 -3.4235 -1.02623 0
M  V30 2620 C 253.55 -4.50899 0.00794526 0
M  V30 2621 C 252.212 -4.80312 0.292207 0
M  V30 2622 C 254.564 -5.16333 0.710584 0
M  V30 2623 C 251.892 -5.72461 1.28472 0
M  V30 2624 C 254.244 -6.09553 1.69199 0
M  V30 2625 C 252.908 -6.37339 1.98383 0
M  V30 2626 H 252.178 -0.719009 -0.179186 0
M  V30 2627 H 254.825 -1.8989 0.247798 0
M  V30 2628 H 253.13 -3.45838 -1.84128 0
M  V30 2629 H 254.827 -3.70393 -1.53656 0
M  V30 2630 H 251.417 -4.28015 -0.22379 0
M  V30 2631 H 255.601 -4.93732 0.504174 0
M  V30 2632 H 250.857 -5.92278 1.51714 0
M  V30 2633 H 255.031 -6.59327 2.24189 0
M  V30 2634 H 252.658 -7.08546 2.7544 0
M  V30 2635 N 254.233 0.115231 -1.57178 0
M  V30 2636 C 255.461 0.836437 -1.89239 0
M  V30 2637 C 255.876 1.73256 -0.750175 0
M  V30 2638 O 255.233 1.80357 0.278832 0
M  V30 2639 C 255.284 1.66671 -3.20785 0
M  V30 2640 O 255.005 0.806652 -4.3061 0
M  V30 2641 C 256.506 2.49274 -3.66575 0
M  V30 2642 H 253.726 0.240253 -0.626514 0
M  V30 2643 H 256.27 0.0984932 -2.04263 0
M  V30 2644 H 254.425 2.35737 -3.0742 0
M  V30 2645 H 254.839 1.37969 -5.06028 0
M  V30 2646 H 256.313 3.03055 -4.6137 0
M  V30 2647 H 256.79 3.26807 -2.93417 0
M  V30 2648 H 257.396 1.85443 -3.82741 0
M  V30 2649 N 255.711 1.52812 0.385517 0
M  V30 2650 C 256.644 1.72592 1.49289 0
M  V30 2651 C 257.622 0.573819 1.52138 0
M  V30 2652 O 258.806 0.80404 1.70492 0
M  V30 2653 C 255.933 1.78669 2.87741 0
M  V30 2654 C 254.979 3.00455 3.02703 0
M  V30 2655 S 255.812 4.60366 2.73538 0
M  V30 2656 C 256.968 4.69263 4.14177 0
M  V30 2657 H 257.201 2.66248 1.32285 0
M  V30 2658 H 254.734 1.43148 0.578611 0
M  V30 2659 H 256.692 1.82855 3.67524 0
M  V30 2660 H 255.353 0.861 3.02069 0
M  V30 2661 H 254.546 3.01258 4.04054 0
M  V30 2662 H 254.148 2.94278 2.30817 0
M  V30 2663 H 256.44 4.48092 5.08153 0
M  V30 2664 H 257.383 5.71276 4.18388 0
M  V30 2665 H 257.791 3.98072 4.00249 0
M  V30 2666 N 257.189 -0.644168 1.43834 0
M  V30 2667 C 258.417 -1.43147 1.49387 0
M  V30 2668 C 258.832 -1.88452 0.114583 0
M  V30 2669 O 258.189 -1.60047 -0.876989 0
M  V30 2670 C 258.24 -2.66046 2.44748 0
M  V30 2671 O 257.961 -2.22633 3.77314 0
M  V30 2672 C 259.462 -3.59311 2.59635 0
M  V30 2673 H 256.682 -0.439447 0.507077 0
M  V30 2674 H 259.226 -0.78895 1.88669 0
M  V30 2675 H 257.381 -3.26418 2.08638 0
M  V30 2676 H 257.795 -3.02216 4.28679 0
M  V30 2677 H 259.269 -4.42187 3.30416 0
M  V30 2678 H 259.746 -4.07259 1.64427 0
M  V30 2679 H 260.352 -3.04816 2.96593 0
M  V30 2680 N 258.668 -1.30515 -0.883378 0
M  V30 2681 C 259.916 -1.19194 -1.63209 0
M  V30 2682 C 260.237 0.253205 -1.93349 0
M  V30 2683 O 259.507 1.17025 -1.57105 0
M  V30 2684 H 258.087 -0.438148 -0.605009 0
M  V30 2685 H 260.749 -1.63663 -1.05832 0
M  V30 2686 H 259.845 -1.75396 -2.58153 0
M  V30 2687 N 260.146 1.09593 -1.13257 0
M  V30 2688 C 261.076 2.18214 -0.830946 0
M  V30 2689 C 262.057 1.68812 0.208966 0
M  V30 2690 O 263.242 1.9408 0.0682666 0
M  V30 2691 C 260.372 3.46051 -0.294296 0
M  V30 2692 C 259.326 4.08778 -1.26826 0
M  V30 2693 C 258.652 5.31419 -0.591449 0
M  V30 2694 C 259.952 4.51476 -2.62615 0
M  V30 2695 H 261.646 2.43703 -1.73923 0
M  V30 2696 H 259.192 1.17128 -0.837675 0
M  V30 2697 H 261.145 4.2134 -0.0709606 0
M  V30 2698 H 259.869 3.20079 0.649366 0
M  V30 2699 H 258.528 3.35505 -1.47756 0
M  V30 2700 H 258.176 5.01727 0.357633 0
M  V30 2701 H 257.876 5.74341 -1.24123 0
M  V30 2702 H 259.4 6.09433 -0.377355 0
M  V30 2703 H 260.814 5.17999 -2.45663 0
M  V30 2704 H 259.211 5.05277 -3.23752 0
M  V30 2705 H 260.281 3.63962 -3.20406 0
M  V30 2706 N 261.624 0.925811 1.2754 0
M  V30 2707 C 262.571 0.422045 2.26908 0
M  V30 2708 C 263.541 -0.510029 1.58076 0
M  V30 2709 O 264.726 -0.429599 1.85901 0
M  V30 2710 C 261.866 -0.320837 3.43605 0
M  V30 2711 C 260.979 0.64513 4.27156 0
M  V30 2712 C 260.114 -0.117405 5.3107 0
M  V30 2713 C 259.153 0.841391 6.0629 0
M  V30 2714 N 258.29 0.111604 7.02011 0
M  V30 2715 H 263.13 1.27441 2.69375 0
M  V30 2716 H 260.667 0.639697 1.32462 0
M  V30 2717 H 262.625 -0.76785 4.10073 0
M  V30 2718 H 261.255 -1.13745 3.02096 0
M  V30 2719 H 260.307 1.21067 3.6062 0
M  V30 2720 H 261.619 1.37797 4.79389 0
M  V30 2721 H 260.773 -0.624422 6.03478 0
M  V30 2722 H 259.512 -0.883219 4.79636 0
M  V30 2723 H 258.517 1.35967 5.32722 0
M  V30 2724 H 259.742 1.60696 6.59813 0
M  V30 2725 H 257.688 -0.635999 6.5291 0
M  V30 2726 H 257.605 0.784044 7.51923 0
M  V30 2727 H 258.873 -0.374823 7.78598 0
M  V30 2728 N 263.102 -1.41638 0.69111 0
M  V30 2729 C 264.518 -1.55435 0.362224 0
M  V30 2730 C 264.718 -1.66754 -1.13117 0
M  V30 2731 O 263.774 -1.64348 -1.91692 0
M  V30 2732 C 265.087 -2.79588 1.10684 0
M  V30 2733 C 266.635 -2.9338 1.09075 0
M  V30 2734 C 267.11 -4.20414 1.81703 0
M  V30 2735 N 268.601 -4.27362 1.7865 0
M  V30 2736 C 269.336 -5.24507 2.31689 0
M  V30 2737 N 268.832 -6.27708 2.93179 0
M  V30 2738 N 270.625 -5.16416 2.2197 0
M  V30 2739 H 262.776 -1.32536 1.65976 0
M  V30 2740 H 265.039 -0.639115 0.700168 0
M  V30 2741 H 264.745 -2.77419 2.16175 0
M  V30 2742 H 264.619 -3.70973 0.682545 0
M  V30 2743 H 267.006 -2.95067 0.0441238 0
M  V30 2744 H 267.087 -2.0318 1.55407 0
M  V30 2745 H 266.731 -4.19488 2.86343 0
M  V30 2746 H 266.661 -5.09578 1.32808 0
M  V30 2747 H 269.152 -3.53415 1.33815 0
M  V30 2748 H 269.465 -6.98217 3.31229 0
M  V30 2749 H 267.81 -6.28223 2.97255 0
M  V30 2750 H 271.001 -4.34716 1.73607 0
M  V30 2751 H 271.174 -5.91958 2.63609 0
M  V30 2752 N 264.58 -0.43555 -1.51462 0
M  V30 2753 C 265.857 0.191364 -1.94662 0
M  V30 2754 C 266.237 1.60254 -1.37411 0
M  V30 2755 O 265.585 2.2152 -0.560458 0
M  V30 2756 C 265.795 0.17091 -3.48581 0
M  V30 2757 C 267.143 0.377357 -4.2292 0
M  V30 2758 O 268.167 0.249104 -3.55328 0
M  V30 2759 O 267.026 0.63247 -5.42828 0
M  V30 2760 H 264.12 0.130932 -0.816569 0
M  V30 2761 H 266.666 -0.4934 -1.62369 0
M  V30 2762 H 265.438 -0.815738 -3.82703 0
M  V30 2763 H 265.061 0.898659 -3.87311 0
M  V30 2764 N 266.058 1.56714 -0.166846 0
M  V30 2765 C 267.005 2.17746 0.765193 0
M  V30 2766 C 267.975 1.11614 1.23011 0
M  V30 2767 O 269.16 1.39745 1.29908 0
M  V30 2768 C 266.3 2.81882 1.9909 0
M  V30 2769 C 265.413 4.02462 1.56997 0
M  V30 2770 C 264.548 4.54537 2.749 0
M  V30 2771 C 263.587 5.67538 2.29275 0
M  V30 2772 N 262.724 6.14142 3.40255 0
M  V30 2773 H 267.564 2.97048 0.237952 0
M  V30 2774 H 265.101 1.4672 0.105725 0
M  V30 2775 H 267.059 3.17221 2.70974 0
M  V30 2776 H 265.689 2.05191 2.49192 0
M  V30 2777 H 264.741 3.72973 0.748037 0
M  V30 2778 H 266.053 4.84273 1.19503 0
M  V30 2779 H 265.207 4.92035 3.54946 0
M  V30 2780 H 263.946 3.71774 3.1565 0
M  V30 2781 H 262.951 5.29597 1.47674 0
M  V30 2782 H 264.176 6.52099 1.89588 0
M  V30 2783 H 262.122 5.3431 3.8059 0
M  V30 2784 H 262.039 6.9093 3.06841 0
M  V30 2785 H 263.307 6.56289 4.206 0
M  V30 2786 N 267.536 -0.106894 1.57237 0
M  V30 2787 C 268.764 -0.826389 1.8968 0
M  V30 2788 C 269.179 -1.72856 0.759353 0
M  V30 2789 O 268.536 -1.80503 -0.269263 0
M  V30 2790 C 268.587 -1.64967 3.21665 0
M  V30 2791 O 268.308 -0.783804 4.31031 0
M  V30 2792 C 269.809 -2.47326 3.67892 0
M  V30 2793 H 267.029 -0.236927 0.627779 0
M  V30 2794 H 269.573 -0.0876593 2.04312 0
M  V30 2795 H 267.728 -2.34103 3.08666 0
M  V30 2796 H 268.142 -1.35284 5.06753 0
M  V30 2797 H 269.616 -3.00604 4.6297 0
M  V30 2798 H 270.093 -3.25247 2.95146 0
M  V30 2799 H 270.699 -1.83411 3.83719 0
M  V30 2800 N 269.014 -1.53014 -0.377408 0
M  V30 2801 C 269.961 -1.78616 -1.46168 0
M  V30 2802 C 270.931 -0.629917 -1.53692 0
M  V30 2803 O 272.116 -0.870861 -1.69766 0
M  V30 2804 C 269.256 -1.97123 -2.8326 0
M  V30 2805 C 268.369 -3.24831 -2.84796 0
M  V30 2806 C 267.504 -3.33591 -4.13389 0
M  V30 2807 C 266.543 -4.55377 -4.09021 0
M  V30 2808 N 265.68 -4.61355 -5.29241 0
M  V30 2809 H 270.52 -2.71142 -1.23637 0
M  V30 2810 H 268.057 -1.34326 -0.599577 0
M  V30 2811 H 270.015 -2.05839 -3.62886 0
M  V30 2812 H 268.645 -1.07946 -3.04216 0
M  V30 2813 H 267.697 -3.25128 -1.97474 0
M  V30 2814 H 269.009 -4.14523 -2.77439 0
M  V30 2815 H 268.163 -3.41554 -5.01424 0
M  V30 2816 H 266.902 -2.41894 -4.23484 0
M  V30 2817 H 265.907 -4.47527 -3.19373 0
M  V30 2818 H 267.132 -5.48402 -4.00539 0
M  V30 2819 H 265.078 -3.72554 -5.39944 0
M  V30 2820 H 264.995 -5.44935 -5.24006 0
M  V30 2821 H 266.263 -4.73586 -6.19141 0
M  V30 2822 N 270.492 0.636531 -1.44174 0
M  V30 2823 C 271.402 1.77754 -1.53103 0
M  V30 2824 C 272.418 1.68928 -0.417034 0
M  V30 2825 O 273.594 1.89801 -0.6736 0
M  V30 2826 C 270.659 3.14115 -1.46741 0
M  V30 2827 C 269.72 3.34612 -2.68948 0
M  V30 2828 C 268.953 4.64467 -2.6288 0
M  V30 2829 O 269.176 5.44919 -1.68581 0
M  V30 2830 O 268.11 4.87049 -3.53648 0
M  V30 2831 H 271.936 1.73174 -2.49489 0
M  V30 2832 H 269.521 0.79709 -1.2636 0
M  V30 2833 H 271.403 3.95412 -1.45696 0
M  V30 2834 H 270.078 3.19249 -0.534975 0
M  V30 2835 H 268.985 2.53014 -2.75562 0
M  V30 2836 H 270.318 3.34336 -3.61221 0
M  V30 2837 N 271.97 1.30982 0.876444 0
M  V30 2838 C 273.2 1.23063 1.65949 0
M  V30 2839 C 273.608 -0.207537 1.88058 0
M  V30 2840 O 272.951 -1.14781 1.43426 0
M  V30 2841 C 273.013 1.89768 3.05333 0
M  V30 2842 C 272.677 3.39106 3.0636 0
M  V30 2843 C 273.674 4.3496 2.84791 0
M  V30 2844 C 271.359 3.80693 3.27686 0
M  V30 2845 C 273.353 5.70375 2.84519 0
M  V30 2846 C 271.04 5.16223 3.27043 0
M  V30 2847 C 272.038 6.10875 3.05485 0
M  V30 2848 O 271.726 7.43928 3.04674 0
M  V30 2849 H 271.458 0.426685 0.524324 0
M  V30 2850 H 274.012 1.7329 1.10271 0
M  V30 2851 H 272.242 1.34082 3.6271 0
M  V30 2852 H 273.931 1.75853 3.65829 0
M  V30 2853 H 274.697 4.0416 2.68103 0
M  V30 2854 H 270.576 3.07457 3.43499 0
M  V30 2855 H 274.12 6.44228 2.67611 0
M  V30 2856 H 270.017 5.4666 3.43269 0
M  V30 2857 H 270.785 7.53022 3.2078 0
M  V30 2858 N 273.449 -1.08991 1.13837 0
M  V30 2859 C 274.397 -2.17841 0.815347 0
M  V30 2860 C 275.391 -1.68164 -0.204233 0
M  V30 2861 O 276.597 -1.79897 -0.0609304 0
M  V30 2862 H 272.972 -0.710654 0.245915 0
M  V30 2863 H 274.943 -2.42315 1.74143 0
M  V30 2864 C 273.692 -3.46381 0.302614 0
M  V30 2865 H 273.015 -3.84979 1.0785 0
M  V30 2866 H 274.455 -4.23844 0.115074 0
M  V30 2867 C 272.914 -3.22556 -0.972591 0
M  V30 2868 O 273.444 -3.45599 -2.04754 0
M  V30 2869 N 271.65 -2.76134 -0.905455 0
M  V30 2870 H 271.197 -2.57582 -0.0305421 0
M  V30 2871 H 271.155 -2.60571 -1.75926 0
M  V30 2872 N 274.927 -0.932562 -1.27047 0
M  V30 2873 C 275.837 -0.441219 -2.30414 0
M  V30 2874 C 276.853 0.480525 -1.67233 0
M  V30 2875 O 278.029 0.362151 -1.98117 0
M  V30 2876 C 275.094 0.293651 -3.45454 0
M  V30 2877 C 274.155 -0.663601 -4.2414 0
M  V30 2878 C 273.388 0.0362932 -5.33688 0
M  V30 2879 O 273.611 1.2548 -5.56427 0
M  V30 2880 O 272.545 -0.638015 -5.98509 0
M  V30 2881 H 276.371 -1.29962 -2.74488 0
M  V30 2882 H 273.956 -0.6981 -1.32087 0
M  V30 2883 H 275.838 0.707951 -4.15411 0
M  V30 2884 H 274.513 1.12758 -3.03426 0
M  V30 2885 H 273.42 -1.12768 -3.56699 0
M  V30 2886 H 274.753 -1.46489 -4.69896 0
M  V30 2887 N 276.405 1.4127 -0.698611 0
M  V30 2888 C 277.633 2.05503 -0.239992 0
M  V30 2889 C 278.048 1.52584 1.11191 0
M  V30 2890 O 277.405 0.675323 1.69545 0
M  V30 2891 C 277.456 3.60987 -0.192429 0
M  V30 2892 O 277.177 4.1195 -1.49094 0
M  V30 2893 C 278.678 4.42371 0.28681 0
M  V30 2894 H 275.898 0.661748 -0.111045 0
M  V30 2895 H 278.442 1.80987 -0.95205 0
M  V30 2896 H 276.597 3.84533 0.470472 0
M  V30 2897 H 277.011 5.06018 -1.38007 0
M  V30 2898 H 278.485 5.51344 0.26896 0
M  V30 2899 H 278.962 4.18699 1.32619 0
M  V30 2900 H 279.568 4.23897 -0.345201 0
M  V30 2901 N 277.883 0.443576 1.51229 0
M  V30 2902 C 279.129 -0.11321 2.03085 0
M  V30 2903 C 279.484 -1.39841 1.32145 0
M  V30 2904 O 278.777 -1.86723 0.429542 0
M  V30 2905 C 278.971 -0.380579 3.55368 0
M  V30 2906 C 278.8 0.877157 4.41062 0
M  V30 2907 C 277.57 1.4125 4.85156 0
M  V30 2908 C 279.768 1.76503 4.83064 0
M  V30 2909 N 277.75 2.62213 5.55083 0
M  V30 2910 C 279.121 2.82067 5.52122 0
M  V30 2911 C 281.176 1.7787 4.65045 0
M  V30 2912 C 279.879 3.88952 6.05069 0
M  V30 2913 C 281.905 2.83694 5.18914 0
M  V30 2914 C 281.267 3.87978 5.87922 0
M  V30 2915 H 277.366 -0.00210178 0.781997 0
M  V30 2916 H 279.95 0.605641 1.85041 0
M  V30 2917 H 278.121 -1.06847 3.73414 0
M  V30 2918 H 279.853 -0.929274 3.93887 0
M  V30 2919 H 276.608 0.965542 4.63653 0
M  V30 2920 H 277.032 3.23568 5.9467 0
M  V30 2921 H 281.674 0.985744 4.11148 0
M  V30 2922 H 279.392 4.69082 6.58018 0
M  V30 2923 H 282.978 2.85702 5.06819 0
M  V30 2924 H 281.858 4.68517 6.28857 0
M  V30 2925 N 279.361 -1.56624 0.175154 0
M  V30 2926 C 280.591 -2.01082 -0.474283 0
M  V30 2927 C 280.999 -1.05447 -1.57091 0
M  V30 2928 O 280.342 -0.0480595 -1.83637 0
M  V30 2929 C 280.404 -3.41963 -1.10911 0
M  V30 2930 C 280.068 -4.56742 -0.153666 0
M  V30 2931 C 281.065 -5.16076 0.629448 0
M  V30 2932 C 278.75 -5.02277 -0.0483776 0
M  V30 2933 C 280.744 -6.19377 1.50501 0
M  V30 2934 C 278.431 -6.05427 0.830768 0
M  V30 2935 C 279.429 -6.63849 1.60605 0
M  V30 2936 O 279.117 -7.64998 2.47049 0
M  V30 2937 H 278.849 -0.664261 -0.125432 0
M  V30 2938 H 281.403 -2.03549 0.275163 0
M  V30 2939 H 279.633 -3.36422 -1.90676 0
M  V30 2940 H 281.322 -3.70352 -1.66114 0
M  V30 2941 H 282.088 -4.81776 0.558297 0
M  V30 2942 H 277.967 -4.56513 -0.641611 0
M  V30 2943 H 281.511 -6.64906 2.1106 0
M  V30 2944 H 277.408 -6.39151 0.903107 0
M  V30 2945 H 278.176 -7.82336 2.40607 0
M  V30 2946 N 280.839 0.0985539 -1.57292 0
M  V30 2947 C 282.064 0.820196 -1.90493 0
M  V30 2948 C 282.489 1.71658 -0.769094 0
M  V30 2949 O 281.847 1.79133 0.279495 0
M  V30 2950 C 281.895 1.61242 -3.22542 0
M  V30 2951 O 280.999 2.72108 -3.09888 0
M  V30 2952 H 280.34 0.225547 -0.62452 0
M  V30 2953 H 282.87 0.0748159 -2.04463 0
M  V30 2954 H 282.88 1.99737 -3.55766 0
M  V30 2955 H 281.555 0.954535 -4.04798 0
M  V30 2956 H 280.132 2.36667 -2.88172 0
M  V30 2957 N 282.317 1.53212 0.369288 0
M  V30 2958 C 283.545 1.73119 1.13303 0
M  V30 2959 C 283.96 0.458455 1.83149 0
M  V30 2960 O 283.317 -0.568403 1.73423 0
M  V30 2961 C 283.368 2.89413 2.16616 0
M  V30 2962 O 283.089 4.11761 1.49614 0
M  V30 2963 C 284.59 3.21161 3.05566 0
M  V30 2964 H 281.81 0.579107 0.338934 0
M  V30 2965 H 284.354 1.99942 0.429338 0
M  V30 2966 H 282.509 2.64994 2.82589 0
M  V30 2967 H 282.923 4.76858 2.18419 0
M  V30 2968 H 284.397 4.05949 3.74045 0
M  V30 2969 H 284.874 2.36369 3.70171 0
M  V30 2970 H 285.48 3.47492 2.45213 0
M  V30 2971 N 283.795 -0.628877 1.44509 0
M  V30 2972 C 285.072 -1.38733 1.37886 0
M  V30 2973 C 285.452 -2.11065 0.0387008 0
M  V30 2974 O 284.8 -2.06476 -0.97878 0
M  V30 2975 C 285.01 -2.35188 2.57852 0
M  V30 2976 C 286.358 -2.9845 3.02014 0
M  V30 2977 O 287.382 -2.45513 2.58073 0
M  V30 2978 O 286.241 -3.94487 3.78209 0
M  V30 2979 H 283.335 -0.621015 0.54614 0
M  V30 2980 H 285.881 -0.653744 1.56602 0
M  V30 2981 H 284.653 -1.80855 3.46998 0
M  V30 2982 H 284.276 -3.1596 2.4136 0
M  V30 2983 N 285.273 -1.31445 -0.869486 0
M  V30 2984 C 286.203 -1.21727 -1.99261 0
M  V30 2985 C 287.184 -0.104359 -1.6978 0
M  V30 2986 O 288.369 -0.289038 -1.92037 0
M  V30 2987 C 285.499 -0.924317 -3.34774 0
M  V30 2988 C 284.453 -1.99685 -3.78563 0
M  V30 2989 C 283.779 -1.55658 -5.11541 0
M  V30 2990 C 285.079 -3.41003 -3.95619 0
M  V30 2991 H 286.773 -2.1569 -2.07649 0
M  V30 2992 H 284.319 -1.03839 -0.997675 0
M  V30 2993 H 286.272 -0.842934 -4.12883 0
M  V30 2994 H 284.996 0.0509793 -3.2656 0
M  V30 2995 H 283.655 -2.06813 -3.02694 0
M  V30 2996 H 283.303 -0.569132 -4.9977 0
M  V30 2997 H 283.003 -2.27409 -5.41811 0
M  V30 2998 H 284.527 -1.48928 -5.92159 0
M  V30 2999 H 285.941 -3.36547 -4.64122 0
M  V30 3000 H 284.338 -4.10975 -4.37286 0
M  V30 3001 H 285.408 -3.81754 -2.98985 0
M  V30 3002 N 286.751 1.08385 -1.14413 0
M  V30 3003 C 287.997 1.81044 -0.913834 0
M  V30 3004 C 288.33 1.86004 0.558209 0
M  V30 3005 O 287.605 1.33606 1.4135 0
M  V30 3006 C 287.888 3.26648 -1.51569 0
M  V30 3007 C 287.741 3.29895 -3.0576 0
M  V30 3008 C 289.06 4.23629 -1.19273 0
M  V30 3009 H 286.179 0.65727 -0.333414 0
M  V30 3010 H 288.821 1.26896 -1.41412 0
M  V30 3011 H 286.971 3.72889 -1.09023 0
M  V30 3012 H 288.643 2.91977 -3.57137 0
M  V30 3013 H 286.886 2.69163 -3.40197 0
M  V30 3014 H 287.557 4.32516 -3.42977 0
M  V30 3015 H 290.033 3.85727 -1.56057 0
M  V30 3016 H 288.909 5.23822 -1.64017 0
M  V30 3017 H 289.17 4.41968 -0.108068 0
M  V30 3018 N 288.23 0.939286 1.26551 0
M  V30 3019 C 289.47 0.5933 1.956 0
M  V30 3020 C 289.834 -0.851515 1.72085 0
M  V30 3021 O 291.035 -1.30634 2.34921 0
M  V30 3022 C 289.306 0.923996 3.45249 0
M  V30 3023 S 290.865 0.688269 4.33369 0
M  V30 3024 H 287.683 0.218591 0.676564 0
M  V30 3025 H 290.285 1.2102 1.5354 0
M  V30 3026 H 288.989 1.97297 3.59864 0
M  V30 3027 H 288.52 0.296746 3.92279 0
M  V30 3028 H 290.535 -0.448434 4.9417 0
M  V30 3029 N 289.708 -1.40897 0.706093 0
M  V30 3030 C 290.618 -2.3455 0.0482286 0
M  V30 3031 C 291.634 -1.56796 -0.754396 0
M  V30 3032 O 292.81 -1.89228 -0.689538 0
M  V30 3033 C 289.875 -3.35625 -0.869303 0
M  V30 3034 C 288.936 -4.29261 -0.0576994 0
M  V30 3035 C 288.169 -5.25508 -0.931531 0
M  V30 3036 O 288.392 -5.27472 -2.17092 0
M  V30 3037 O 287.326 -6.00727 -0.375587 0
M  V30 3038 H 291.152 -2.92407 0.820476 0
M  V30 3039 H 288.737 -1.4193 0.4665 0
M  V30 3040 H 290.619 -3.97635 -1.39514 0
M  V30 3041 H 289.294 -2.80196 -1.62086 0
M  V30 3042 H 288.201 -3.70566 0.512988 0
M  V30 3043 H 289.534 -4.87817 0.655426 0
M  V30 3044 N 291.186 -0.45159 -1.50991 0
M  V30 3045 C 292.118 0.388634 -2.25881 0
M  V30 3046 C 293.131 0.974041 -1.30446 0
M  V30 3047 O 294.32 0.865758 -1.56099 0
M  V30 3048 C 291.42 1.5571 -3.01011 0
M  V30 3049 C 290.593 1.08801 -4.23652 0
M  V30 3050 C 289.652 2.12825 -4.8124 0
M  V30 3051 O 288.678 1.71678 -5.42693 0
M  V30 3052 N 289.88 3.45453 -4.66522 0
M  V30 3053 H 292.645 -0.25329 -2.98628 0
M  V30 3054 H 290.206 -0.281268 -1.59438 0
M  V30 3055 H 292.198 2.24952 -3.3642 0
M  V30 3056 H 290.768 2.10409 -2.31186 0
M  V30 3057 H 289.988 0.22215 -3.93574 0
M  V30 3058 H 291.276 0.752213 -5.03209 0
M  V30 3059 H 290.674 3.81605 -4.17605 0
M  V30 3060 H 289.231 4.10549 -5.06254 0
M  V30 3061 N 292.664 1.56529 -0.183458 0
M  V30 3062 C 293.912 1.96855 0.457452 0
M  V30 3063 C 294.233 1.07104 1.62953 0
M  V30 3064 O 293.503 0.139887 1.954 0
M  V30 3065 H 292.083 0.72693 0.171992 0
M  V30 3066 H 294.745 1.93056 -0.267476 0
M  V30 3067 H 293.841 3.01423 0.809368 0
M  V30 3068 N 294.142 -0.090211 1.57342 0
M  V30 3069 C 295.09 -1.12792 2.03422 0
M  V30 3070 C 296.084 -1.41182 0.936166 0
M  V30 3071 O 297.29 -1.40805 1.12133 0
M  V30 3072 H 293.665 -0.380986 0.648347 0
M  V30 3073 H 295.636 -0.71299 2.89757 0
M  V30 3074 C 294.385 -2.43855 2.47851 0
M  V30 3075 H 293.708 -2.22855 3.31927 0
M  V30 3076 H 295.148 -3.14955 2.83865 0
M  V30 3077 C 293.607 -3.08503 1.3538 0
M  V30 3078 O 294.137 -3.95805 0.685641 0
M  V30 3079 N 292.343 -2.68831 1.10355 0
M  V30 3080 H 291.89 -1.97929 1.64869 0
M  V30 3081 H 291.848 -3.12412 0.353031 0
M  V30 3082 N 295.62 -1.53406 -0.361157 0
M  V30 3083 C 296.845 -1.74024 -1.12829 0
M  V30 3084 C 297.27 -0.470069 -1.82132 0
M  V30 3085 O 296.628 0.57619 -1.719 0
M  V30 3086 C 296.676 -2.90903 -2.13091 0
M  V30 3087 O 295.78 -2.59821 -3.20261 0
M  V30 3088 H 295.121 -0.577804 -0.327168 0
M  V30 3089 H 297.651 -2.00307 -0.41693 0
M  V30 3090 H 297.661 -3.17194 -2.56616 0
M  V30 3091 H 296.336 -3.83034 -1.62042 0
M  V30 3092 H 294.913 -2.44362 -2.81677 0
M  V30 3093 N 297.098 0.621204 -1.44841 0
M  V30 3094 C 298.326 1.40752 -1.51646 0
M  V30 3095 C 298.741 1.88246 -0.144549 0
M  V30 3096 O 298.098 1.61422 0.851416 0
M  V30 3097 C 298.149 2.62119 -2.4895 0
M  V30 3098 O 297.87 2.16602 -3.80808 0
M  V30 3099 C 299.371 3.55135 -2.65319 0
M  V30 3100 H 296.591 0.431325 -0.514004 0
M  V30 3101 H 299.135 0.758835 -1.899 0
M  V30 3102 H 297.29 3.23058 -2.13805 0
M  V30 3103 H 297.704 2.95358 -4.33433 0
M  V30 3104 H 299.178 4.36874 -3.37409 0
M  V30 3105 H 299.655 4.04592 -1.70886 0
M  V30 3106 H 300.261 3.00058 -3.01405 0
M  V30 3107 N 298.576 1.31904 0.862503 0
M  V30 3108 C 299.853 1.12644 1.59908 0
M  V30 3109 C 300.233 -0.316104 2.0872 0
M  V30 3110 O 299.581 -1.31145 1.87118 0
M  V30 3111 C 299.791 2.1472 2.7513 0
M  V30 3112 C 301.139 2.47637 3.44907 0
M  V30 3113 O 302.163 2.13205 2.85346 0
M  V30 3114 O 301.022 3.06632 4.52371 0
M  V30 3115 H 298.116 0.43416 0.703871 0
M  V30 3116 H 300.662 1.43408 0.907314 0
M  V30 3117 H 299.434 3.1172 2.3653 0
M  V30 3118 H 299.057 1.84905 3.51989 0
M  V30 3119 N 300.054 -1.07777 1.14986 0
M  V30 3120 C 301.002 -2.16964 0.838406 0
M  V30 3121 C 301.996 -1.68372 -0.186386 0
M  V30 3122 O 303.202 -1.79951 -0.0418465 0
M  V30 3123 H 299.577 -0.708006 0.253439 0
M  V30 3124 H 301.548 -2.40454 1.76704 0
M  V30 3125 C 300.297 -3.4604 0.339335 0
M  V30 3126 H 299.62 -3.83813 1.11927 0
M  V30 3127 H 301.06 -4.23698 0.160021 0
M  V30 3128 C 299.519 -3.23569 -0.938325 0
M  V30 3129 O 300.049 -3.47752 -2.01077 0
M  V30 3130 N 298.255 -2.77079 -0.876117 0
M  V30 3131 H 297.802 -2.576 -0.00322037 0
M  V30 3132 H 297.76 -2.62422 -1.73153 0
M  V30 3133 N 301.532 -0.945985 -1.26051 0
M  V30 3134 C 302.442 -0.465633 -2.29933 0
M  V30 3135 C 303.458 0.462761 -1.67733 0
M  V30 3136 O 304.634 0.341118 -1.9849 0
M  V30 3137 C 301.699 0.256994 -3.45746 0
M  V30 3138 C 300.76 -0.708549 -4.23412 0
M  V30 3139 C 299.993 -0.0203135 -5.33696 0
M  V30 3140 O 300.216 1.19571 -5.57726 0
M  V30 3141 O 299.15 -0.701459 -5.97799 0
M  V30 3142 H 302.976 -1.32866 -2.73094 0
M  V30 3143 H 300.561 -0.712071 -1.31339 0
M  V30 3144 H 302.443 0.663852 -4.16138 0
M  V30 3145 H 301.118 1.09533 -3.04605 0
M  V30 3146 H 300.025 -1.16545 -3.55483 0
M  V30 3147 H 301.358 -1.51465 -4.68315 0
M  V30 3148 N 303.011 1.40521 -0.713556 0
M  V30 3149 C 304.236 2.05759 -0.26035 0
M  V30 3150 C 304.661 1.53403 1.08854 0
M  V30 3151 O 304.019 0.668535 1.68524 0
M  V30 3152 C 304.067 3.59745 -0.248122 0
M  V30 3153 O 303.171 4.05123 0.77131 0
M  V30 3154 H 302.512 0.652564 -0.122703 0
M  V30 3155 H 305.042 1.79958 -0.973467 0
M  V30 3156 H 305.052 4.07911 -0.0851129 0
M  V30 3157 H 303.727 3.97218 -1.2325 0
M  V30 3158 H 302.304 3.68422 0.57619 0
M  V30 3159 N 304.489 0.459591 1.5075 0
M  V30 3160 C 305.905 0.113092 1.59199 0
M  V30 3161 C 306.105 -1.37951 1.46874 0
M  V30 3162 O 305.161 -2.15168 1.32132 0
M  V30 3163 C 306.474 0.653043 2.93523 0
M  V30 3164 C 308.022 0.615449 3.0689 0
M  V30 3165 C 308.497 1.13275 4.43771 0
M  V30 3166 N 309.988 1.09167 4.50152 0
M  V30 3167 C 310.723 1.46256 5.54434 0
M  V30 3168 N 310.219 1.90739 6.66026 0
M  V30 3169 N 312.012 1.37932 5.44914 0
M  V30 3170 H 304.163 1.43049 1.57005 0
M  V30 3171 H 306.426 0.590861 0.741341 0
M  V30 3172 H 306.132 1.69822 3.07983 0
M  V30 3173 H 306.006 0.0902132 3.77092 0
M  V30 3174 H 308.393 -0.420793 2.92084 0
M  V30 3175 H 308.474 1.21495 2.25106 0
M  V30 3176 H 308.118 2.16757 4.59324 0
M  V30 3177 H 308.048 0.509576 5.24129 0
M  V30 3178 H 310.539 0.76528 3.7007 0
M  V30 3179 H 310.852 2.17218 7.41644 0
M  V30 3180 H 309.197 1.94683 6.67176 0
M  V30 3181 H 312.388 1.0303 4.56621 0
M  V30 3182 H 312.561 1.67164 6.26067 0
M  V30 3183 N 305.967 -1.56429 0.191757 0
M  V30 3184 C 307.207 -1.99383 -0.450099 0
M  V30 3185 C 307.571 -1.07581 -1.59029 0
M  V30 3186 O 308.772 -1.39758 -2.29611 0
M  V30 3187 C 307.043 -3.45841 -0.901611 0
M  V30 3188 S 308.602 -4.10822 -1.54177 0
M  V30 3189 H 305.42 -0.696253 -0.144057 0
M  V30 3190 H 308.022 -1.93276 0.294036 0
M  V30 3191 H 306.726 -4.10354 -0.0616596 0
M  V30 3192 H 306.257 -3.55757 -1.67929 0
M  V30 3193 H 308.272 -4.07553 -2.83046 0
M  V30 3194 N 307.445 0.0818655 -1.57387 0
M  V30 3195 C 308.675 0.794954 -1.90694 0
M  V30 3196 C 309.083 1.72147 -0.784982 0
M  V30 3197 O 308.426 1.81974 0.251196 0
M  V30 3198 C 308.488 1.65042 -3.19376 0
M  V30 3199 C 308.152 0.894337 -4.48164 0
M  V30 3200 C 309.149 0.21813 -5.19442 0
M  V30 3201 C 306.834 0.864495 -4.94805 0
M  V30 3202 C 308.828 -0.477802 -6.35607 0
M  V30 3203 C 306.515 0.164785 -6.10878 0
M  V30 3204 C 307.513 -0.505173 -6.81129 0
M  V30 3205 O 307.201 -1.19363 -7.94989 0
M  V30 3206 H 306.933 0.231779 -0.635023 0
M  V30 3207 H 309.487 0.059493 -2.05314 0
M  V30 3208 H 307.717 2.42844 -3.00938 0
M  V30 3209 H 309.406 2.24127 -3.38411 0
M  V30 3210 H 310.172 0.232558 -4.84442 0
M  V30 3211 H 306.051 1.37542 -4.40004 0
M  V30 3212 H 309.595 -1.00129 -6.90377 0
M  V30 3213 H 305.492 0.148249 -6.4533 0
M  V30 3214 H 306.26 -1.10188 -8.11049 0
M  V30 3215 N 308.923 1.53595 0.353017 0
M  V30 3216 C 309.856 1.7572 1.45594 0
M  V30 3217 C 310.834 0.605961 1.50887 0
M  V30 3218 O 312.018 0.840023 1.68748 0
M  V30 3219 C 309.145 1.84732 2.83887 0
M  V30 3220 C 308.191 3.06808 2.96262 0
M  V30 3221 S 309.024 4.66065 2.63711 0
M  V30 3222 C 310.18 4.77943 4.04131 0
M  V30 3223 H 310.413 2.68994 1.26608 0
M  V30 3224 H 307.946 1.44343 0.548117 0
M  V30 3225 H 309.904 1.9061 3.63563 0
M  V30 3226 H 308.565 0.92488 3.00175 0
M  V30 3227 H 307.758 3.09761 3.97573 0
M  V30 3228 H 307.36 2.99108 2.24523 0
M  V30 3229 H 309.652 4.5877 4.98534 0
M  V30 3230 H 310.595 5.80022 4.06177 0
M  V30 3231 H 311.003 4.06472 3.91715 0
M  V30 3232 N 310.401 -0.613514 1.45168 0
M  V30 3233 C 311.349 -1.74572 1.53712 0
M  V30 3234 C 312.343 -1.64426 0.407505 0
M  V30 3235 O 313.549 -1.70291 0.583176 0
M  V30 3236 H 309.924 -0.576641 0.48269 0
M  V30 3237 H 311.895 -1.64492 2.48968 0
M  V30 3238 C 310.644 -3.12943 1.51532 0
M  V30 3239 H 309.967 -3.21407 2.37776 0
M  V30 3240 H 311.407 -3.9201 1.61569 0
M  V30 3241 C 309.866 -3.36053 0.238798 0
M  V30 3242 O 310.396 -3.95837 -0.6838 0
M  V30 3243 N 308.602 -2.9028 0.136359 0
M  V30 3244 H 308.149 -2.41811 0.887999 0
M  V30 3245 H 308.107 -3.06116 -0.716944 0
M  V30 3246 N 311.879 -1.3236 -0.855495 0
M  V30 3247 C 312.829 -1.17809 -1.95205 0
M  V30 3248 C 313.813 -0.0852319 -1.60674 0
M  V30 3249 O 315.005 -0.311651 -1.74235 0
M  V30 3250 C 312.134 -0.902437 -3.31226 0
M  V30 3251 C 311.22 -2.03695 -3.7198 0
M  V30 3252 N 311.611 -3.28544 -3.84568 0
M  V30 3253 C 309.909 -1.93993 -4.016 0
M  V30 3254 C 310.61 -4.02847 -4.19629 0
M  V30 3255 N 309.586 -3.31138 -4.31102 0
M  V30 3256 H 313.388 -2.12462 -2.0307 0
M  V30 3257 H 310.902 -1.24127 -1.0472 0
M  V30 3258 H 312.899 -0.77915 -4.09554 0
M  V30 3259 H 311.559 0.0357267 -3.2468 0
M  V30 3260 H 312.57 -3.6349 -3.68911 0
M  V30 3261 H 309.247 -1.07733 -4.03361 0
M  V30 3262 H 310.637 -5.10506 -4.36845 0
M  V30 3263 N 313.357 1.07166 -1.15556 0
M  V30 3264 C 314.597 1.81391 -0.94216 0
M  V30 3265 C 314.961 1.84788 0.521272 0
M  V30 3266 O 316.162 2.54904 0.85307 0
M  V30 3267 C 314.433 3.22431 -1.54185 0
M  V30 3268 S 315.992 4.13379 -1.47183 0
M  V30 3269 H 312.81 0.624963 -0.339031 0
M  V30 3270 H 315.412 1.28725 -1.4714 0
M  V30 3271 H 314.116 3.17548 -2.59984 0
M  V30 3272 H 313.647 3.80172 -1.01156 0
M  V30 3273 H 315.662 4.94007 -0.466004 0
M  V30 3274 N 314.835 0.952656 1.25548 0
M  V30 3275 C 315.783 0.462354 2.27958 0
M  V30 3276 C 316.777 -0.46634 1.62855 0
M  V30 3277 O 317.983 -0.343287 1.76696 0
M  V30 3278 H 314.358 0.13101 0.7405 0
M  V30 3279 H 316.329 1.33839 2.66702 0
M  V30 3280 C 315.078 -0.24628 3.46827 0
M  V30 3281 H 314.401 0.459192 3.97154 0
M  V30 3282 H 315.841 -0.553393 4.20373 0
M  V30 3283 C 314.3 -1.4681 3.0323 0
M  V30 3284 O 314.83 -2.56591 3.09069 0
M  V30 3285 N 313.036 -1.32874 2.58443 0
M  V30 3286 H 312.583 -0.435536 2.53891 0
M  V30 3287 H 312.541 -2.14742 2.29637 0
M  V30 3288 N 316.313 -1.40141 0.720998 0
M  V30 3289 C 317.541 -2.05096 0.272656 0
M  V30 3290 C 317.956 -1.54334 -1.0875 0
M  V30 3291 O 317.313 -0.702211 -1.6845 0
M  V30 3292 C 317.364 -3.60636 0.249835 0
M  V30 3293 O 317.085 -4.09526 1.55629 0
M  V30 3294 C 318.586 -4.42772 -0.216396 0
M  V30 3295 H 315.806 -0.659897 0.121558 0
M  V30 3296 H 318.35 -1.79449 0.980723 0
M  V30 3297 H 316.505 -3.85232 -0.409237 0
M  V30 3298 H 316.919 -5.03758 1.4604 0
M  V30 3299 H 318.393 -5.51702 -0.181212 0
M  V30 3300 H 318.87 -4.20756 -1.25941 0
M  V30 3301 H 319.476 -4.23294 0.412596 0
M  V30 3302 N 317.792 -0.46758 -1.50504 0
M  V30 3303 C 319.017 0.0886943 -2.0721 0
M  V30 3304 C 319.442 1.33057 -1.32956 0
M  V30 3305 O 318.8 1.77354 -0.376197 0
M  V30 3306 C 318.848 0.359202 -3.58806 0
M  V30 3307 O 317.952 1.44034 -3.8643 0
M  V30 3308 H 317.293 -0.0114349 -0.663902 0
M  V30 3309 H 319.823 -0.657613 -1.93744 0
M  V30 3310 H 319.833 0.600742 -4.03553 0
M  V30 3311 H 318.508 -0.548311 -4.1227 0
M  V30 3312 H 317.085 1.18638 -3.53524 0
M  V30 3313 N 319.27 1.56325 -0.20005 0
M  V30 3314 C 320.516 1.98012 0.438059 0
M  V30 3315 C 320.849 1.08702 1.60927 0
M  V30 3316 O 320.124 0.140064 1.93995 0
M  V30 3317 C 320.407 3.48841 0.893419 0
M  V30 3318 C 320.26 4.48928 -0.279947 0
M  V30 3319 C 321.579 4.03498 1.75719 0
M  V30 3320 H 318.698 0.719918 0.157757 0
M  V30 3321 H 321.34 1.87743 -0.291968 0
M  V30 3322 H 319.49 3.57723 1.51547 0
M  V30 3323 H 321.162 4.52079 -0.91772 0
M  V30 3324 H 319.405 4.23694 -0.930919 0
M  V30 3325 H 320.076 5.5194 0.0812601 0
M  V30 3326 H 322.552 3.97427 1.23253 0
M  V30 3327 H 321.428 5.09393 2.04476 0
M  V30 3328 H 321.689 3.4906 2.71311 0
M  V30 3329 N 320.748 -0.0735177 1.57428 0
M  V30 3330 C 321.997 -0.771809 1.86349 0
M  V30 3331 C 322.31 -1.78828 0.792452 0
M  V30 3332 O 323.516 -2.53602 0.96945 0
M  V30 3333 C 321.972 -1.42358 3.30548 0
M  V30 3334 C 321.58 -0.445761 4.45777 0
M  V30 3335 C 323.324 -2.10434 3.6867 0
M  V30 3336 C 321.231 -1.10335 5.81016 0
M  V30 3337 H 320.161 -0.291999 0.695164 0
M  V30 3338 H 322.812 -0.0250749 1.83483 0
M  V30 3339 H 321.194 -2.21852 3.28021 0
M  V30 3340 H 322.368 0.319239 4.59693 0
M  V30 3341 H 320.683 0.130457 4.16196 0
M  V30 3342 H 323.28 -2.60405 4.67004 0
M  V30 3343 H 323.623 -2.90298 2.98383 0
M  V30 3344 H 324.156 -1.37773 3.7318 0
M  V30 3345 H 320.895 -0.345061 6.54591 0
M  V30 3346 H 320.415 -1.83925 5.70904 0
M  V30 3347 H 322.094 -1.62367 6.26295 0
M  V30 3348 N 322.226 -1.5378 -0.344866 0
M  V30 3349 C 323.158 -1.77988 -1.44406 0
M  V30 3350 C 324.171 -0.661138 -1.48771 0
M  V30 3351 O 325.36 -0.937842 -1.51877 0
M  V30 3352 C 322.46 -1.86345 -2.8307 0
M  V30 3353 C 321.633 -3.16256 -3.0216 0
M  V30 3354 C 320.692 -3.15588 -4.21059 0
M  V30 3355 O 319.718 -3.89314 -4.15239 0
M  V30 3356 N 320.92 -2.37864 -5.29529 0
M  V30 3357 H 323.685 -2.72839 -1.24012 0
M  V30 3358 H 321.246 -1.52814 -0.534737 0
M  V30 3359 H 323.238 -1.83351 -3.60783 0
M  V30 3360 H 321.808 -0.986858 -2.96614 0
M  V30 3361 H 321.028 -3.32385 -2.11929 0
M  V30 3362 H 322.316 -4.0207 -3.11797 0
M  V30 3363 H 321.714 -1.77514 -5.37127 0
M  V30 3364 H 320.271 -2.40668 -6.05741 0
M  V30 3365 N 323.704 0.605807 -1.45491 0
M  V30 3366 C 324.614 1.74466 -1.56839 0
M  V30 3367 C 325.63 1.68006 -0.452772 0
M  V30 3368 O 326.806 1.8833 -0.713708 0
M  V30 3369 C 323.871 3.10931 -1.53371 0
M  V30 3370 C 322.932 3.28832 -2.75986 0
M  V30 3371 C 322.165 4.58787 -2.72673 0
M  V30 3372 O 322.388 5.4122 -1.80102 0
M  V30 3373 O 321.322 4.79438 -3.63899 0
M  V30 3374 H 325.148 1.67843 -2.53106 0
M  V30 3375 H 322.733 0.770108 -1.28022 0
M  V30 3376 H 324.615 3.92233 -1.54051 0
M  V30 3377 H 323.29 3.18042 -0.602572 0
M  V30 3378 H 322.197 2.47112 -2.80867 0
M  V30 3379 H 323.53 3.26599 -3.68231 0
M  V30 3380 N 325.182 1.32811 0.848464 0
M  V30 3381 C 326.407 1.26882 1.6406 0
M  V30 3382 C 326.832 -0.15913 1.87426 0
M  V30 3383 O 326.19 -1.11258 1.43148 0
M  V30 3384 C 326.238 2.03997 2.97351 0
M  V30 3385 O 325.342 1.39201 3.88197 0
M  V30 3386 H 324.683 0.436982 0.499943 0
M  V30 3387 H 327.213 1.75224 1.0563 0
M  V30 3388 H 327.223 2.14403 3.47124 0
M  V30 3389 H 325.898 3.0783 2.79666 0
M  V30 3390 H 324.475 1.37381 3.46671 0
M  V30 3391 N 326.66 -1.06551 1.16123 0
M  V30 3392 C 327.9 -1.80889 0.951766 0
M  V30 3393 C 328.264 -1.85062 -0.511465 0
M  V30 3394 O 329.465 -2.55353 -0.83954 0
M  V30 3395 C 327.736 -3.21609 1.55893 0
M  V30 3396 S 329.295 -4.12593 1.49373 0
M  V30 3397 H 326.113 -0.623156 0.342341 0
M  V30 3398 H 328.715 -1.27943 1.47821 0
M  V30 3399 H 327.419 -3.16165 2.61664 0
M  V30 3400 H 326.95 -3.79631 1.0317 0
M  V30 3401 H 328.965 -4.93753 0.492196 0
M  V30 3402 N 328.138 -0.959301 -1.25041 0
M  V30 3403 C 329.415 -0.533805 -1.88175 0
M  V30 3404 C 329.795 0.988994 -1.865 0
M  V30 3405 O 329.143 1.85677 -1.33177 0
M  V30 3406 C 329.353 -1.11575 -3.30684 0
M  V30 3407 C 330.701 -1.19548 -4.07423 0
M  V30 3408 O 331.725 -1.06765 -3.39823 0
M  V30 3409 O 330.584 -1.39656 -5.28354 0
M  V30 3410 H 327.678 -0.176772 -0.807887 0
M  V30 3411 H 330.224 -1.05303 -1.33076 0
M  V30 3412 H 328.996 -2.15884 -3.26358 0
M  V30 3413 H 328.619 -0.580059 -3.93346 0
M  V30 3414 N 329.616 1.39756 -0.72842 0
M  V30 3415 C 330.563 2.30647 -0.0841519 0
M  V30 3416 C 331.533 1.48869 0.7367 0
M  V30 3417 O 332.718 1.77574 0.698015 0
M  V30 3418 C 329.858 3.35165 0.822091 0
M  V30 3419 C 328.971 4.31999 -0.0106663 0
M  V30 3420 C 328.106 5.23585 0.896241 0
M  V30 3421 C 327.145 6.12072 0.0583381 0
M  V30 3422 N 326.282 6.96035 0.920818 0
M  V30 3423 H 331.122 2.85173 -0.864891 0
M  V30 3424 H 328.659 1.40422 -0.438179 0
M  V30 3425 H 330.617 3.94345 1.36189 0
M  V30 3426 H 329.247 2.8211 1.56888 0
M  V30 3427 H 328.299 3.74492 -0.66781 0
M  V30 3428 H 329.611 4.9443 -0.658825 0
M  V30 3429 H 328.765 5.87759 1.50412 0
M  V30 3430 H 327.504 4.61459 1.57819 0
M  V30 3431 H 326.509 5.46916 -0.562389 0
M  V30 3432 H 327.734 6.76261 -0.6203 0
M  V30 3433 H 325.68 6.36485 1.58818 0
M  V30 3434 H 325.597 7.55284 0.32899 0
M  V30 3435 H 326.865 7.64646 1.51447 0
M  V30 3436 N 331.094 0.475555 1.50254 0
M  V30 3437 C 332.044 -0.335025 2.25525 0
M  V30 3438 C 333.028 -0.957625 1.29299 0
M  V30 3439 O 334.22 -0.869436 1.54175 0
M  V30 3440 C 331.349 -1.41385 3.12834 0
M  V30 3441 C 330.435 -0.798762 4.1651 0
M  V30 3442 N 330.826 0.0835815 5.05731 0
M  V30 3443 C 329.124 -1.06221 4.33166 0
M  V30 3444 C 329.825 0.433113 5.80085 0
M  V30 3445 N 328.801 -0.1928 5.43258 0
M  V30 3446 H 332.603 0.344612 2.91873 0
M  V30 3447 H 330.117 0.289986 1.5979 0
M  V30 3448 H 332.114 -2.00777 3.65368 0
M  V30 3449 H 330.774 -2.09543 2.48036 0
M  V30 3450 H 331.785 0.452715 5.15918 0
M  V30 3451 H 328.462 -1.73844 3.79585 0
M  V30 3452 H 329.852 1.15346 6.61925 0
M  V30 3453 N 332.573 -1.56217 0.208337 0
M  V30 3454 C 333.803 -2.02043 -0.431523 0
M  V30 3455 C 334.211 -1.08755 -1.54819 0
M  V30 3456 O 333.554 -0.0870009 -1.83494 0
M  V30 3457 C 333.616 -3.44239 -1.03633 0
M  V30 3458 C 333.28 -4.56965 -0.0567502 0
M  V30 3459 C 334.277 -5.14624 0.738773 0
M  V30 3460 C 331.962 -5.02266 0.0581736 0
M  V30 3461 C 333.956 -6.16045 1.63605 0
M  V30 3462 C 331.643 -6.03528 0.959001 0
M  V30 3463 C 332.641 -6.60293 1.7465 0
M  V30 3464 O 332.329 -7.59586 2.6322 0
M  V30 3465 H 332.061 -0.666772 -0.111313 0
M  V30 3466 H 334.615 -2.02919 0.318277 0
M  V30 3467 H 332.845 -3.40391 -1.83497 0
M  V30 3468 H 334.534 -3.73793 -1.58221 0
M  V30 3469 H 335.3 -4.80483 0.660364 0
M  V30 3470 H 331.179 -4.57771 -0.544633 0
M  V30 3471 H 334.723 -6.60279 2.25116 0
M  V30 3472 H 330.62 -6.37092 1.03848 0
M  V30 3473 H 331.388 -7.77057 2.57148 0
M  V30 3474 N 334.051 0.0651679 -1.57465 0
M  V30 3475 C 335.297 0.758912 -1.88712 0
M  V30 3476 C 335.652 1.7485 -0.802819 0
M  V30 3477 O 334.945 1.90632 0.192359 0
M  V30 3478 C 335.139 1.50081 -3.24362 0
M  V30 3479 C 334.968 0.584579 -4.45884 0
M  V30 3480 C 333.738 0.219039 -5.04825 0
M  V30 3481 C 335.936 -0.121559 -5.14156 0
M  V30 3482 N 333.918 -0.702222 -6.09871 0
M  V30 3483 C 335.289 -0.899767 -6.13436 0
M  V30 3484 C 337.344 -0.192331 -4.97528 0
M  V30 3485 C 336.047 -1.74218 -6.97883 0
M  V30 3486 C 338.073 -1.02174 -5.82507 0
M  V30 3487 C 337.435 -1.78798 -6.8133 0
M  V30 3488 H 333.534 0.25293 -0.739967 0
M  V30 3489 H 336.118 0.0201744 -1.9469 0
M  V30 3490 H 334.289 2.21023 -3.1938 0
M  V30 3491 H 336.021 2.14409 -3.43236 0
M  V30 3492 H 332.776 0.57336 -4.70117 0
M  V30 3493 H 333.2 -1.15629 -6.67052 0
M  V30 3494 H 337.842 0.385741 -4.21037 0
M  V30 3495 H 335.56 -2.3312 -7.73745 0
M  V30 3496 H 339.146 -1.07957 -5.71696 0
M  V30 3497 H 338.026 -2.41942 -7.45945 0
M  V30 3498 N 335.529 1.53961 0.336706 0
M  V30 3499 C 336.806 1.62171 1.09361 0
M  V30 3500 C 337.186 0.447263 2.06307 0
M  V30 3501 O 336.534 -0.559802 2.21537 0
M  V30 3502 C 336.744 2.98565 1.80721 0
M  V30 3503 C 338.092 3.54157 2.34218 0
M  V30 3504 O 339.116 3.00784 1.90807 0
M  V30 3505 O 337.975 4.47528 3.13657 0
M  V30 3506 H 335.069 0.6562 0.503319 0
M  V30 3507 H 337.615 1.66307 0.33765 0
M  V30 3508 H 336.387 3.75482 1.10132 0
M  V30 3509 H 336.01 2.9805 2.63158 0
M  V30 3510 N 337.007 -0.598083 1.45811 0
M  V30 3511 C 338.235 -1.38322 1.53866 0
M  V30 3512 C 338.65 -1.87992 0.174479 0
M  V30 3513 O 338.007 -1.62756 -0.825627 0
M  V30 3514 C 338.058 -2.58125 2.53089 0
M  V30 3515 O 337.779 -2.10516 3.84206 0
M  V30 3516 C 339.28 -3.50869 2.70935 0
M  V30 3517 H 336.5 -0.423093 0.520801 0
M  V30 3518 H 339.044 -0.728527 1.91083 0
M  V30 3519 H 337.199 -3.19615 2.18917 0
M  V30 3520 H 337.613 -2.88425 4.38077 0
M  V30 3521 H 339.087 -4.31451 3.44317 0
M  V30 3522 H 339.564 -4.01822 1.77301 0
M  V30 3523 H 340.17 -2.95225 3.06141 0
M  V30 3524 N 338.485 -1.33259 -0.841409 0
M  V30 3525 C 339.734 -1.23921 -1.59143 0
M  V30 3526 C 340.047 0.1941 -1.94635 0
M  V30 3527 O 341.253 0.409474 -2.68394 0
M  V30 3528 C 339.709 -2.17119 -2.87032 0
M  V30 3529 C 339.317 -3.65606 -2.58914 0
M  V30 3530 C 341.061 -2.16648 -3.65053 0
M  V30 3531 C 338.968 -4.50726 -3.82884 0
M  V30 3532 H 337.898 -0.460264 -0.597221 0
M  V30 3533 H 340.549 -1.58307 -0.927959 0
M  V30 3534 H 338.931 -1.75663 -3.54906 0
M  V30 3535 H 340.105 -4.15487 -1.99267 0
M  V30 3536 H 338.42 -3.68341 -1.942 0
M  V30 3537 H 341.017 -2.77474 -4.57069 0
M  V30 3538 H 341.36 -1.16088 -3.99787 0
M  V30 3539 H 341.893 -2.56453 -3.041 0
M  V30 3540 H 338.632 -5.52151 -3.53283 0
M  V30 3541 H 338.152 -4.0559 -4.41879 0
M  V30 3542 H 339.831 -4.64401 -4.50489 0
M  V30 3543 N 339.963 1.05934 -1.16686 0
M  V30 3544 C 341.379 1.30938 -0.912542 0
M  V30 3545 C 341.579 1.96803 0.432533 0
M  V30 3546 O 340.635 2.23693 1.17123 0
M  V30 3547 C 341.948 2.18649 -2.06429 0
M  V30 3548 C 343.496 2.32055 -2.10047 0
M  V30 3549 C 343.971 3.23122 -3.24586 0
M  V30 3550 N 345.462 3.30706 -3.24327 0
M  V30 3551 C 346.197 4.01273 -4.09594 0
M  V30 3552 N 345.693 4.74332 -5.04956 0
M  V30 3553 N 347.486 3.97361 -3.97569 0
M  V30 3554 H 339.637 0.615777 -2.03278 0
M  V30 3555 H 341.9 0.334077 -0.887185 0
M  V30 3556 H 341.606 1.77534 -3.03603 0
M  V30 3557 H 341.48 3.19252 -2.00894 0
M  V30 3558 H 343.867 2.72415 -1.13464 0
M  V30 3559 H 343.948 1.31107 -2.19647 0
M  V30 3560 H 343.592 2.83477 -4.2143 0
M  V30 3561 H 343.522 4.24057 -3.12223 0
M  V30 3562 H 346.013 2.78644 -2.55276 0
M  V30 3563 H 346.326 5.25716 -5.6643 0
M  V30 3564 H 344.671 4.733 -5.08933 0
M  V30 3565 H 347.862 3.39405 -3.22369 0
M  V30 3566 H 348.035 4.52089 -4.64241 0
M  V30 3567 N 341.441 0.965919 1.2453 0
M  V30 3568 C 342.688 0.626831 1.92554 0
M  V30 3569 C 343.016 -0.837739 1.75534 0
M  V30 3570 O 342.271 -1.61793 1.10098 0
M  V30 3571 C 342.57 0.945428 3.44669 0
M  V30 3572 C 342.236 2.39785 3.81856 0
M  V30 3573 C 340.898 2.79483 3.91718 0
M  V30 3574 C 343.25 3.34055 4.00071 0
M  V30 3575 C 340.578 4.12496 4.1721 0
M  V30 3576 C 342.93 4.66694 4.27059 0
M  V30 3577 C 341.594 5.06172 4.3514 0
M  V30 3578 H 340.864 0.229374 0.704605 0
M  V30 3579 H 343.511 1.21707 1.4785 0
M  V30 3580 H 341.816 0.272926 3.90848 0
M  V30 3581 H 343.513 0.661484 3.95507 0
M  V30 3582 H 340.103 2.08003 3.74743 0
M  V30 3583 H 344.287 3.04571 3.91855 0
M  V30 3584 H 339.543 4.42709 4.21685 0
M  V30 3585 H 343.717 5.3971 4.40097 0
M  V30 3586 H 341.344 6.09262 4.54646 0
M  V30 3587 N 342.919 -1.39368 0.735821 0
M  V30 3588 C 344.335 -1.54204 0.411492 0
M  V30 3589 C 344.535 -1.70268 -1.07755 0
M  V30 3590 O 343.591 -1.70364 -1.86366 0
M  V30 3591 C 344.904 -2.75925 1.19523 0
M  V30 3592 C 346.452 -2.89761 1.18354 0
M  V30 3593 C 346.927 -4.14421 1.94986 0
M  V30 3594 N 348.418 -4.21462 1.92156 0
M  V30 3595 C 349.153 -5.16871 2.48258 0
M  V30 3596 N 348.649 -6.18063 3.13001 0
M  V30 3597 N 350.442 -5.09093 2.38287 0
M  V30 3598 H 342.593 -1.27189 1.70108 0
M  V30 3599 H 344.856 -0.616517 0.720147 0
M  V30 3600 H 344.562 -2.70401 2.24892 0
M  V30 3601 H 344.436 -3.68614 0.800222 0
M  V30 3602 H 346.823 -2.94777 0.137975 0
M  V30 3603 H 346.904 -1.98133 1.61793 0
M  V30 3604 H 346.548 -4.10166 2.99543 0
M  V30 3605 H 346.478 -5.05095 1.48953 0
M  V30 3606 H 348.969 -3.48979 1.44991 0
M  V30 3607 H 349.282 -6.87326 3.53275 0
M  V30 3608 H 347.627 -6.18448 3.17091 0
M  V30 3609 H 350.818 -4.28973 1.8735 0
M  V30 3610 H 350.991 -5.83272 2.82308 0
M  V30 3611 N 344.397 -0.483516 -1.5 0
M  V30 3612 C 345.627 0.0643896 -2.065 0
M  V30 3613 C 346.035 1.32949 -1.34615 0
M  V30 3614 O 345.378 1.79003 -0.412756 0
M  V30 3615 C 345.44 0.405983 -3.572 0
M  V30 3616 C 345.104 -0.758875 -4.50655 0
M  V30 3617 C 346.101 -1.64445 -4.93208 0
M  V30 3618 C 343.786 -0.952725 -4.93182 0
M  V30 3619 C 345.78 -2.70818 -5.77006 0
M  V30 3620 C 343.467 -2.01966 -5.76761 0
M  V30 3621 C 344.465 -2.89574 -6.18576 0
M  V30 3622 O 344.153 -3.94429 -7.00486 0
M  V30 3623 H 343.885 -0.00934786 -0.675935 0
M  V30 3624 H 346.439 -0.674959 -1.93993 0
M  V30 3625 H 344.669 1.19869 -3.67652 0
M  V30 3626 H 346.358 0.890433 -3.96013 0
M  V30 3627 H 347.124 -1.50643 -4.61012 0
M  V30 3628 H 343.003 -0.280247 -4.60147 0
M  V30 3629 H 346.547 -3.3923 -6.09565 0
M  V30 3630 H 342.444 -2.1577 -6.0837 0
M  V30 3631 H 343.212 -3.91568 -7.1876 0
M  V30 3632 N 345.875 1.56104 -0.216619 0
M  V30 3633 C 347.115 2.00074 0.418322 0
M  V30 3634 C 347.479 1.10098 1.57297 0
M  V30 3635 O 348.68 1.43393 2.27359 0
M  V30 3636 C 346.951 3.47231 0.846477 0
M  V30 3637 S 348.51 4.13223 1.47622 0
M  V30 3638 H 345.328 0.698457 0.132962 0
M  V30 3639 H 347.93 1.92784 -0.324748 0
M  V30 3640 H 346.634 4.104 -0.0036319 0
M  V30 3641 H 346.165 3.58384 1.62248 0
M  V30 3642 H 348.18 4.12005 2.76526 0
M  V30 3643 N 347.353 -0.0568162 1.57498 0
M  V30 3644 C 348.316 -1.05038 2.03715 0
M  V30 3645 C 349.316 -1.30709 0.936577 0
M  V30 3646 O 350.506 -1.26178 1.20103 0
M  V30 3647 C 347.638 -2.39034 2.43055 0
M  V30 3648 H 348.831 -0.651715 2.92733 0
M  V30 3649 H 346.384 -0.302947 1.53336 0
M  V30 3650 H 347.119 -2.83703 1.57108 0
M  V30 3651 H 346.904 -2.21739 3.2338 0
M  V30 3652 H 348.394 -3.10421 2.79336 0
M  V30 3653 N 348.832 -1.54138 -0.328536 0
M  V30 3654 C 350.243 -1.63395 -0.903272 0
M  V30 3655 C 350.594 -0.524828 -1.8905 0
M  V30 3656 O 349.719 0.343068 -2.13663 0
M  V30 3657 C 350.314 -2.9618 -1.64507 0
M  V30 3658 C 348.873 -3.0765 -2.1686 0
M  V30 3659 C 348.02 -2.58933 -0.992416 0
M  V30 3660 H 350.971 -1.58344 -0.106253 0
M  V30 3661 H 350.992 -2.86061 -2.50897 0
M  V30 3662 H 350.504 -3.76884 -0.926302 0
M  V30 3663 H 348.605 -2.31611 -2.91868 0
M  V30 3664 H 348.718 -4.1337 -2.42202 0
M  V30 3665 H 347.082 -2.14706 -1.37016 0
M  V30 3666 H 347.865 -3.42089 -0.288041 0
M  V30 3667 N 350.31 0.590341 -1.46126 0
M  V30 3668 C 351.721 1.17243 -1.45296 0
M  V30 3669 C 352.072 1.95281 -0.189723 0
M  V30 3670 O 351.197 2.04502 0.707674 0
M  V30 3671 C 351.792 2.13284 -2.6324 0
M  V30 3672 C 350.351 2.66832 -2.65476 0
M  V30 3673 C 349.498 1.42557 -2.3785 0
M  V30 3674 H 352.449 0.378692 -1.54116 0
M  V30 3675 H 352.47 2.96619 -2.38323 0
M  V30 3676 H 351.982 1.56459 -3.55165 0
M  V30 3677 H 350.083 3.27548 -1.77603 0
M  V30 3678 H 350.196 3.10088 -3.65215 0
M  V30 3679 H 348.56 1.72107 -1.87753 0
M  V30 3680 H 349.343 0.875741 -3.31942 0
M  V30 3681 N 351.788 1.33704 0.83433 0
M  V30 3682 C 353.036 1.25169 1.58673 0
M  V30 3683 C 353.357 -0.18127 1.94156 0
M  V30 3684 O 352.627 -1.11113 1.6134 0
M  V30 3685 H 351.207 0.4603 0.58833 0
M  V30 3686 H 353.869 1.67478 0.996847 0
M  V30 3687 H 352.965 1.84856 2.51465 0
M  V30 3688 N 353.266 -1.05314 1.17247 0
M  V30 3689 C 354.496 -1.81707 0.983166 0
M  V30 3690 C 354.904 -1.83222 -0.471822 0
M  V30 3691 O 354.247 -1.25721 -1.3394 0
M  V30 3692 C 354.309 -3.29134 1.44606 0
M  V30 3693 C 353.973 -3.51304 2.92292 0
M  V30 3694 C 354.97 -3.4353 3.90235 0
M  V30 3695 C 352.655 -3.78306 3.30439 0
M  V30 3696 C 354.649 -3.62442 5.24323 0
M  V30 3697 C 352.336 -3.96866 4.64694 0
M  V30 3698 C 353.334 -3.88933 5.61445 0
M  V30 3699 O 353.022 -4.06976 6.93272 0
M  V30 3700 H 352.754 -0.579476 0.348114 0
M  V30 3701 H 355.308 -1.33705 1.55924 0
M  V30 3702 H 353.538 -3.78046 0.813537 0
M  V30 3703 H 355.227 -3.87049 1.22262 0
M  V30 3704 H 355.993 -3.22648 3.62109 0
M  V30 3705 H 351.872 -3.83585 2.55702 0
M  V30 3706 H 355.416 -3.56165 5.99827 0
M  V30 3707 H 351.313 -4.1724 4.92525 0
M  V30 3708 H 352.081 -4.24209 6.99992 0
M  V30 3709 N 354.744 -0.972509 -1.24016 0
M  V30 3710 C 355.707 -0.511403 -2.23422 0
M  V30 3711 C 356.707 0.394679 -1.55881 0
M  V30 3712 O 357.897 0.189469 -1.73167 0
M  V30 3713 C 355.029 0.258769 -3.39916 0
M  V30 3714 H 356.222 -1.39024 -2.6573 0
M  V30 3715 H 353.775 -0.757585 -1.36713 0
M  V30 3716 H 354.51 1.1545 -3.03054 0
M  V30 3717 H 354.295 -0.391522 -3.9014 0
M  V30 3718 H 355.785 0.570244 -4.13688 0
M  V30 3719 N 356.222 1.38976 -0.743202 0
M  V30 3720 C 357.152 2.33171 -0.123873 0
M  V30 3721 C 358.133 1.54336 0.71516 0
M  V30 3722 O 359.318 1.82696 0.658467 0
M  V30 3723 C 356.448 3.38474 0.777978 0
M  V30 3724 C 355.402 4.27979 0.0424758 0
M  V30 3725 C 354.728 5.2405 1.06189 0
M  V30 3726 C 356.028 5.10155 -1.1198 0
M  V30 3727 H 357.722 2.85213 -0.910709 0
M  V30 3728 H 355.268 1.37133 -0.439388 0
M  V30 3729 H 357.221 4.03328 1.22084 0
M  V30 3730 H 355.945 2.84891 1.59702 0
M  V30 3731 H 354.604 3.64616 -0.380853 0
M  V30 3732 H 354.252 4.66758 1.87472 0
M  V30 3733 H 353.952 5.84785 0.574485 0
M  V30 3734 H 355.476 5.9178 1.50428 0
M  V30 3735 H 356.89 5.68307 -0.75499 0
M  V30 3736 H 355.287 5.80073 -1.53738 0
M  V30 3737 H 356.357 4.44504 -1.93764 0
M  V30 3738 N 357.7 0.491464 1.49741 0
M  V30 3739 C 358.63 -0.28154 2.31796 0
M  V30 3740 C 359.611 -0.971473 1.3963 0
M  V30 3741 O 360.796 -0.964719 1.68543 0
M  V30 3742 C 357.926 -1.35203 3.19902 0
M  V30 3743 C 356.88 -0.782529 4.20786 0
M  V30 3744 C 356.206 -1.95283 4.97764 0
M  V30 3745 C 357.506 0.21999 5.21837 0
M  V30 3746 H 359.2 0.403355 2.96671 0
M  V30 3747 H 356.746 0.195425 1.42668 0
M  V30 3748 H 358.699 -1.90045 3.76113 0
M  V30 3749 H 357.423 -2.06598 2.52953 0
M  V30 3750 H 356.082 -0.255928 3.65706 0
M  V30 3751 H 355.73 -2.65423 4.2727 0
M  V30 3752 H 355.43 -1.57789 5.66018 0
M  V30 3753 H 356.954 -2.50577 5.56816 0
M  V30 3754 H 358.368 -0.23996 5.72798 0
M  V30 3755 H 356.765 0.51026 5.97927 0
M  V30 3756 H 357.835 1.13911 4.7133 0
M  V30 3757 N 359.178 -1.55987 0.224894 0
M  V30 3758 C 360.594 -1.59066 -0.130426 0
M  V30 3759 C 360.794 -1.24176 -1.5869 0
M  V30 3760 O 359.85 -0.978592 -2.32766 0
M  V30 3761 C 361.163 -3.00042 0.198883 0
M  V30 3762 C 362.711 -3.1268 0.141391 0
M  V30 3763 C 363.186 -4.55839 0.444422 0
M  V30 3764 N 364.677 -4.6152 0.394115 0
M  V30 3765 C 365.412 -5.70231 0.602038 0
M  V30 3766 N 364.908 -6.87291 0.871914 0
M  V30 3767 N 366.701 -5.59555 0.534245 0
M  V30 3768 H 358.852 -1.76941 1.17497 0
M  V30 3769 H 361.115 -0.822604 0.471197 0
M  V30 3770 H 360.821 -3.30234 1.2099 0
M  V30 3771 H 360.695 -3.74075 -0.484535 0
M  V30 3772 H 363.082 -2.82283 -0.860265 0
M  V30 3773 H 363.163 -2.40969 0.858335 0
M  V30 3774 H 362.807 -4.86954 1.44353 0
M  V30 3775 H 362.737 -5.2578 -0.293752 0
M  V30 3776 H 365.228 -3.77405 0.193356 0
M  V30 3777 H 365.541 -7.66058 1.01858 0
M  V30 3778 H 363.886 -6.89028 0.909145 0
M  V30 3779 H 367.077 -4.6698 0.323612 0
M  V30 3780 H 367.25 -6.44211 0.699693 0
M  V30 3781 N 360.656 0.0484629 -1.57525 0
M  V30 3782 C 361.896 0.748196 -1.90214 0
M  V30 3783 C 362.26 1.73545 -0.821347 0
M  V30 3784 O 363.461 2.48201 -1.03198 0
M  V30 3785 C 361.732 1.41727 -3.28098 0
M  V30 3786 S 363.291 2.14884 -3.82584 0
M  V30 3787 H 360.109 0.248307 -0.666232 0
M  V30 3788 H 362.711 0.00343188 -1.955 0
M  V30 3789 H 361.415 0.685244 -4.04639 0
M  V30 3790 H 360.946 2.20099 -3.26068 0
M  V30 3791 H 362.961 3.41755 -3.59747 0
M  V30 3792 N 362.134 1.5431 0.320358 0
M  V30 3793 C 363.082 1.84647 1.4145 0
M  V30 3794 C 364.076 0.718624 1.53402 0
M  V30 3795 O 365.282 0.902335 1.5575 0
M  V30 3796 H 361.657 0.585349 0.472091 0
M  V30 3797 H 363.628 2.7614 1.13089 0
M  V30 3798 C 362.377 2.09341 2.77617 0
M  V30 3799 H 361.7 2.9559 2.69196 0
M  V30 3800 H 363.14 2.3452 3.53237 0
M  V30 3801 C 361.599 0.885939 3.25043 0
M  V30 3802 O 362.129 0.0967891 4.01583 0
M  V30 3803 N 360.335 0.696682 2.82125 0
M  V30 3804 H 359.882 1.34006 2.2 0
M  V30 3805 H 359.84 -0.109712 3.14209 0
M  V30 3806 N 363.613 -0.582584 1.46437 0
M  V30 3807 C 364.89 -1.34276 1.4223 0
M  V30 3808 C 365.27 -2.10835 0.10583 0
M  V30 3809 O 364.618 -2.09485 -0.912596 0
M  V30 3810 C 364.828 -2.26865 2.65204 0
M  V30 3811 C 366.176 -2.88691 3.11356 0
M  V30 3812 O 367.2 -2.37178 2.65753 0
M  V30 3813 O 366.059 -3.82255 3.90568 0
M  V30 3814 H 363.153 -0.603326 0.565621 0
M  V30 3815 H 365.699 -0.603591 1.58603 0
M  V30 3816 H 364.471 -1.69724 3.52576 0
M  V30 3817 H 364.094 -3.08122 2.5129 0
M  V30 3818 N 365.091 -1.34144 -0.827227 0
M  V30 3819 C 366.319 -1.29325 -1.61501 0
M  V30 3820 C 366.734 0.13354 -1.88327 0
M  V30 3821 O 366.091 1.0793 -1.47164 0
M  V30 3822 C 366.142 -2.07746 -2.95844 0
M  V30 3823 O 365.863 -3.4486 -2.70191 0
M  V30 3824 C 367.364 -2.10273 -3.90256 0
M  V30 3825 H 364.584 -0.445069 -0.50215 0
M  V30 3826 H 367.128 -1.76693 -1.02955 0
M  V30 3827 H 365.283 -1.6403 -3.5096 0
M  V30 3828 H 365.697 -3.85345 -3.55822 0
M  V30 3829 H 367.171 -2.69575 -4.81698 0
M  V30 3830 H 367.648 -1.096 -4.25305 0
M  V30 3831 H 368.254 -2.54059 -3.41078 0
M  V30 3832 N 366.569 1.04691 -1.17803 0
M  V30 3833 C 367.517 2.14665 -0.895635 0
M  V30 3834 C 368.511 1.68806 0.141679 0
M  V30 3835 O 369.717 1.79999 -0.00587914 0
M  V30 3836 H 366.092 0.701038 -0.272121 0
M  V30 3837 H 368.063 2.35685 -1.83017 0
M  V30 3838 C 366.812 3.45019 -0.430962 0
M  V30 3839 H 366.135 3.8071 -1.22064 0
M  V30 3840 H 367.575 4.23125 -0.272301 0
M  V30 3841 C 366.034 3.25943 0.852207 0
M  V30 3842 O 366.564 3.5296 1.91786 0
M  V30 3843 N 364.77 2.79304 0.802346 0
M  V30 3844 H 364.317 2.57518 -0.0650788 0
M  V30 3845 H 364.275 2.66921 1.66134 0
M  V30 3846 N 368.047 0.979072 1.23499 0
M  V30 3847 C 369.277 0.664237 1.95631 0
M  V30 3848 C 369.685 -0.772653 1.72704 0
M  V30 3849 O 369.028 -1.53141 1.01457 0
M  V30 3850 C 369.09 0.873115 3.48736 0
M  V30 3851 C 368.754 2.29182 3.95379 0
M  V30 3852 C 369.751 3.2704 4.04155 0
M  V30 3853 C 367.436 2.62256 4.28401 0
M  V30 3854 C 369.43 4.56052 4.45304 0
M  V30 3855 C 367.117 3.91491 4.69231 0
M  V30 3856 C 368.115 4.88201 4.77649 0
M  V30 3857 O 367.803 6.15129 5.17563 0
M  V30 3858 H 367.535 0.245915 0.629684 0
M  V30 3859 H 370.089 1.3127 1.57979 0
M  V30 3860 H 368.319 0.167476 3.86337 0
M  V30 3861 H 370.008 0.555642 4.02079 0
M  V30 3862 H 370.774 3.02819 3.78848 0
M  V30 3863 H 366.653 1.87692 4.21061 0
M  V30 3864 H 370.197 5.31538 4.51789 0
M  V30 3865 H 366.094 4.15508 4.93987 0
M  V30 3866 H 366.862 6.18862 5.35679 0
M  V30 3867 N 369.525 -1.3858 0.750561 0
M  V30 3868 C 370.75 -2.04997 0.314812 0
M  V30 3869 C 371.175 -1.56235 -1.04749 0
M  V30 3870 O 370.533 -0.712981 -1.66692 0
M  V30 3871 C 370.581 -3.58961 0.343415 0
M  V30 3872 O 369.685 -4.07025 -0.663628 0
M  V30 3873 H 369.026 -0.649081 0.139962 0
M  V30 3874 H 371.556 -1.77313 1.02084 0
M  V30 3875 H 371.566 -4.07542 0.193233 0
M  V30 3876 H 370.241 -3.93811 1.33738 0
M  V30 3877 H 368.818 -3.6982 -0.478307 0
M  V30 3878 N 371.003 -0.499398 -1.49478 0
M  V30 3879 C 372.251 0.0455996 -2.02049 0
M  V30 3880 C 372.572 1.37633 -1.38138 0
M  V30 3881 O 371.842 1.8842 -0.536166 0
M  V30 3882 H 370.422 0.0198416 -0.746736 0
M  V30 3883 H 373.084 -0.656274 -1.83519 0
M  V30 3884 H 372.18 0.176445 -3.11601 0
M  V30 3885 N 372.481 1.55866 -0.233164 0
M  V30 3886 C 373.728 1.98603 0.395374 0
M  V30 3887 C 374.056 1.12105 1.58942 0
M  V30 3888 O 373.311 0.168656 1.94972 0
M  V30 3889 C 373.61 3.46856 0.861724 0
M  V30 3890 C 373.276 4.50348 -0.223066 0
M  V30 3891 C 371.938 4.78371 -0.521038 0
M  V30 3892 C 374.29 5.12355 -0.956124 0
M  V30 3893 C 371.618 5.6568 -1.55638 0
M  V30 3894 C 373.97 6.00786 -1.98089 0
M  V30 3895 C 372.634 6.27148 -2.28565 0
M  V30 3896 H 371.904 0.726739 0.144677 0
M  V30 3897 H 374.551 1.88491 -0.338114 0
M  V30 3898 H 372.856 3.5423 1.67418 0
M  V30 3899 H 374.553 3.77302 1.35809 0
M  V30 3900 H 371.143 4.28596 0.0193234 0
M  V30 3901 H 375.327 4.90765 -0.739166 0
M  V30 3902 H 370.583 5.84365 -1.798 0
M  V30 3903 H 374.757 6.4788 -2.55391 0
M  V30 3904 H 372.384 6.94597 -3.08932 0
M  V30 3905 N 373.959 -0.0401083 1.57549 0
M  V30 3906 C 374.892 -1.07689 2.01192 0
M  V30 3907 C 375.87 -1.358 0.894273 0
M  V30 3908 O 377.054 -1.48642 1.15921 0
M  V30 3909 C 374.181 -2.41418 2.3756 0
M  V30 3910 C 373.227 -2.29237 3.59656 0
M  V30 3911 S 374.06 -1.65628 5.09242 0
M  V30 3912 C 375.216 -3.0087 5.48843 0
M  V30 3913 H 375.449 -0.705108 2.88817 0
M  V30 3914 H 372.982 -0.249724 1.52367 0
M  V30 3915 H 374.94 -3.18329 2.59186 0
M  V30 3916 H 373.601 -2.75747 1.50407 0
M  V30 3917 H 372.794 -3.27932 3.82722 0
M  V30 3918 H 372.396 -1.60469 3.37825 0
M  V30 3919 H 374.688 -3.97201 5.48851 0
M  V30 3920 H 375.631 -2.82549 6.49286 0
M  V30 3921 H 376.039 -3.02934 4.76331 0
M  V30 3922 N 375.437 -1.54477 -0.31217 0
M  V30 3923 C 376.848 -1.64344 -0.885891 0
M  V30 3924 C 377.199 -0.54485 -1.88483 0
M  V30 3925 O 376.324 0.320387 -2.14015 0
M  V30 3926 C 376.919 -2.97908 -1.61357 0
M  V30 3927 C 375.478 -3.09933 -2.13585 0
M  V30 3928 C 374.625 -2.59971 -0.964897 0
M  V30 3929 H 377.576 -1.58448 -0.0894528 0
M  V30 3930 H 377.597 -2.88706 -2.47848 0
M  V30 3931 H 377.109 -3.77845 -0.886277 0
M  V30 3932 H 375.21 -2.34694 -2.89395 0
M  V30 3933 H 375.323 -4.15916 -2.37804 0
M  V30 3934 H 373.687 -2.16147 -1.34731 0
M  V30 3935 H 374.47 -3.42376 -0.251742 0
M  V30 3936 N 376.915 0.57481 -1.46744 0
M  V30 3937 C 377.862 1.68329 -1.57905 0
M  V30 3938 C 378.832 1.60625 -0.422927 0
M  V30 3939 O 380.017 1.79721 -0.640711 0
M  V30 3940 C 377.157 3.06665 -1.58274 0
M  V30 3941 C 376.27 3.24935 -2.84678 0
M  V30 3942 C 375.405 4.53566 -2.76499 0
M  V30 3943 C 374.444 4.65207 -3.97806 0
M  V30 3944 N 373.581 5.85172 -3.87967 0
M  V30 3945 H 378.421 1.58127 -2.52587 0
M  V30 3946 H 375.958 0.770552 -1.25303 0
M  V30 3947 H 377.916 3.86745 -1.56473 0
M  V30 3948 H 376.546 3.15745 -0.671194 0
M  V30 3949 H 375.598 2.38405 -2.96424 0
M  V30 3950 H 376.91 3.29403 -3.7456 0
M  V30 3951 H 376.064 5.41885 -2.72848 0
M  V30 3952 H 374.803 4.51548 -1.8427 0
M  V30 3953 H 373.808 3.75304 -4.0178 0
M  V30 3954 H 375.033 4.68997 -4.9114 0
M  V30 3955 H 372.979 5.84137 -2.98529 0
M  V30 3956 H 372.896 5.90943 -4.71511 0
M  V30 3957 H 374.164 6.759 -3.88303 0
M  V30 3958 N 378.394 1.34581 0.820102 0
M  V30 3959 C 379.634 1.28448 1.58998 0
M  V30 3960 C 379.998 -0.142883 1.91468 0
M  V30 3961 O 381.199 -0.328422 2.66786 0
M  V30 3962 C 379.47 2.153 2.85273 0
M  V30 3963 S 381.029 2.26548 3.75794 0
M  V30 3964 H 377.847 0.456685 0.54494 0
M  V30 3965 H 380.449 1.69825 0.968487 0
M  V30 3966 H 379.153 3.18008 2.59421 0
M  V30 3967 H 378.684 1.7483 3.52417 0
M  V30 3968 H 380.699 1.44034 4.74835 0
M  V30 3969 N 379.872 -1.04064 1.18357 0
M  V30 3970 C 381.097 -1.81454 1.00445 0
M  V30 3971 C 381.522 -1.82823 -0.442423 0
M  V30 3972 O 380.88 -1.24555 -1.31741 0
M  V30 3973 C 380.928 -3.24925 1.56384 0
M  V30 3974 O 380.032 -4.04856 0.785209 0
M  V30 3975 H 379.373 -0.560604 0.355835 0
M  V30 3976 H 381.903 -1.31059 1.57114 0
M  V30 3977 H 381.913 -3.75702 1.59097 0
M  V30 3978 H 380.588 -3.23244 2.61699 0
M  V30 3979 H 379.165 -3.63537 0.830399 0
M  V30 3980 N 381.35 -0.985608 -1.22978 0
M  V30 3981 C 382.297 -0.529825 -2.24636 0
M  V30 3982 C 383.267 0.434028 -1.60329 0
M  V30 3983 O 384.452 0.340414 -1.87739 0
M  V30 3984 C 381.592 0.156533 -3.44745 0
M  V30 3985 C 380.705 -0.848197 -4.23591 0
M  V30 3986 C 379.84 -0.136109 -5.31026 0
M  V30 3987 C 378.879 -1.1297 -6.01585 0
M  V30 3988 N 378.016 -0.446415 -7.00679 0
M  V30 3989 H 382.856 -1.40148 -2.62988 0
M  V30 3990 H 380.393 -0.702168 -1.29259 0
M  V30 3991 H 382.351 0.571324 -4.1327 0
M  V30 3992 H 380.981 0.992025 -3.07179 0
M  V30 3993 H 380.033 -1.38135 -3.54433 0
M  V30 3994 H 381.345 -1.60512 -4.72268 0
M  V30 3995 H 380.499 0.335784 -6.0577 0
M  V30 3996 H 379.238 0.653373 -4.83304 0
M  V30 3997 H 378.243 -1.6123 -5.25628 0
M  V30 3998 H 379.468 -1.91993 -6.51395 0
M  V30 3999 H 377.414 0.323763 -6.55201 0
M  V30 4000 H 377.331 -1.1419 -7.47326 0
M  V30 4001 H 378.599 0.00291697 -7.795 0
M  V30 4002 N 382.828 1.3818 -0.7579 0
M  V30 4003 C 384.074 2.00316 -0.316453 0
M  V30 4004 C 384.407 1.60026 1.10025 0
M  V30 4005 O 383.682 0.839835 1.75434 0
M  V30 4006 C 383.965 3.57349 -0.444245 0
M  V30 4007 C 383.818 4.07591 -1.90236 0
M  V30 4008 C 385.137 4.3981 0.1598 0
M  V30 4009 H 382.256 0.727741 -0.116459 0
M  V30 4010 H 384.898 1.6406 -0.958352 0
M  V30 4011 H 383.048 3.88365 0.102233 0
M  V30 4012 H 384.72 3.87199 -2.50748 0
M  V30 4013 H 382.963 3.60297 -2.41595 0
M  V30 4014 H 383.634 5.16677 -1.94291 0
M  V30 4015 H 386.11 4.14971 -0.306314 0
M  V30 4016 H 384.986 5.48885 0.0401675 0
M  V30 4017 H 385.247 4.24102 1.24859 0
M  V30 4018 N 384.306 0.507319 1.49211 0
M  V30 4019 C 385.552 -0.0350047 2.0277 0
M  V30 4020 C 385.885 -1.3606 1.38569 0
M  V30 4021 O 385.16 -1.87321 0.523542 0
M  V30 4022 C 385.443 -0.180916 3.59645 0
M  V30 4023 C 385.296 1.16825 4.34364 0
M  V30 4024 C 386.615 -0.918558 4.30407 0
M  V30 4025 H 383.734 -0.0112473 0.736914 0
M  V30 4026 H 386.376 0.659956 1.7817 0
M  V30 4027 H 384.526 -0.772826 3.80736 0
M  V30 4028 H 386.198 1.79952 4.24753 0
M  V30 4029 H 384.441 1.75594 3.96673 0
M  V30 4030 H 385.112 1.01939 5.42506 0
M  V30 4031 H 387.588 -0.41649 4.1401 0
M  V30 4032 H 386.464 -0.989505 5.39907 0
M  V30 4033 H 386.725 -1.96373 3.96093 0
M  V30 4034 N 385.784 -1.5574 0.241426 0
M  V30 4035 C 387.03 -1.99104 -0.385406 0
M  V30 4036 C 387.363 -1.1293 -1.57988 0
M  V30 4037 O 386.638 -0.191449 -1.93555 0
M  V30 4038 C 386.921 -3.51087 -0.800616 0
M  V30 4039 C 386.774 -4.48028 0.398874 0
M  V30 4040 C 388.093 -4.08015 -1.64959 0
M  V30 4041 H 385.212 -0.723848 -0.138614 0
M  V30 4042 H 387.854 -1.86903 0.341642 0
M  V30 4043 H 386.004 -3.61615 -1.4201 0
M  V30 4044 H 387.676 -4.49487 1.03726 0
M  V30 4045 H 385.919 -4.21077 1.04293 0
M  V30 4046 H 386.59 -5.51962 0.0651056 0
M  V30 4047 H 389.066 -4.00555 -1.12672 0
M  V30 4048 H 387.942 -5.14635 -1.90898 0
M  V30 4049 H 388.203 -3.56131 -2.61961 0
M  V30 4050 N 387.262 0.0317525 -1.57568 0
M  V30 4051 C 388.487 0.738664 -1.938 0
M  V30 4052 C 388.912 1.68242 -0.841208 0
M  V30 4053 O 388.27 1.80157 0.203267 0
M  V30 4054 C 388.318 1.47417 -3.29091 0
M  V30 4055 O 387.422 2.5872 -3.2115 0
M  V30 4056 H 386.763 0.198856 -0.633524 0
M  V30 4057 H 389.293 -0.0119713 -2.04596 0
M  V30 4058 H 389.303 1.84468 -3.63917 0
M  V30 4059 H 387.978 0.781988 -4.08482 0
M  V30 4060 H 386.555 2.24231 -2.97951 0
M  V30 4061 N 388.74 1.54641 0.303973 0
M  V30 4062 C 389.965 1.78092 1.06292 0
M  V30 4063 C 390.39 0.537342 1.80262 0
M  V30 4064 O 389.748 -0.511993 1.7392 0
M  V30 4065 C 389.796 2.98612 2.02147 0
M  V30 4066 O 388.9 2.71528 3.10397 0
M  V30 4067 H 388.241 0.589548 0.305497 0
M  V30 4068 H 390.771 2.01716 0.3423 0
M  V30 4069 H 390.781 3.265 2.44667 0
M  V30 4070 H 389.456 3.88785 1.47714 0
M  V30 4071 H 388.033 2.54648 2.72413 0
M  V30 4072 N 390.218 -0.567019 1.47046 0
M  V30 4073 C 391.458 -1.3355 1.54738 0
M  V30 4074 C 391.822 -1.90947 0.200772 0
M  V30 4075 O 393.023 -2.68367 0.152489 0
M  V30 4076 C 391.294 -2.42317 2.62712 0
M  V30 4077 S 392.853 -3.29383 2.89918 0
M  V30 4078 H 389.671 -0.454788 0.546525 0
M  V30 4079 H 392.273 -0.650191 1.84371 0
M  V30 4080 H 390.977 -1.98568 3.59164 0
M  V30 4081 H 390.508 -3.15601 2.34861 0
M  V30 4082 H 392.523 -4.41548 2.26384 0
M  V30 4083 N 391.696 -1.35014 -0.812953 0
M  V30 4084 C 392.924 -1.31031 -1.6012 0
M  V30 4085 C 393.339 0.113558 -1.88458 0
M  V30 4086 O 392.696 1.06363 -1.48301 0
M  V30 4087 C 392.747 -2.10872 -2.93624 0
M  V30 4088 O 392.468 -3.47706 -2.66518 0
M  V30 4089 C 393.969 -2.14401 -3.88004 0
M  V30 4090 H 391.189 -0.45037 -0.497401 0
M  V30 4091 H 393.733 -1.77775 -1.01076 0
M  V30 4092 H 391.888 -1.67744 -3.492 0
M  V30 4093 H 392.302 -3.89097 -3.51715 0
M  V30 4094 H 393.776 -2.74669 -4.78812 0
M  V30 4095 H 394.253 -1.14105 -4.24119 0
M  V30 4096 H 394.859 -2.57662 -3.38364 0
M  V30 4097 N 393.175 1.03435 -1.18907 0
M  V30 4098 C 394.591 1.28973 -0.940111 0
M  V30 4099 C 394.791 1.97676 0.390691 0
M  V30 4100 O 393.847 2.26127 1.12352 0
M  V30 4101 C 395.16 2.14221 -2.11021 0
M  V30 4102 C 396.708 2.27547 -2.14922 0
M  V30 4103 C 397.183 3.16164 -3.31367 0
M  V30 4104 N 398.674 3.23752 -3.31269 0
M  V30 4105 C 399.409 3.92495 -4.18014 0
M  V30 4106 N 398.905 4.63515 -5.14904 0
M  V30 4107 N 400.698 3.88838 -4.05908 0
M  V30 4108 H 392.849 0.57252 -2.04538 0
M  V30 4109 H 395.112 0.315184 -0.894071 0
M  V30 4110 H 394.818 1.71054 -3.073 0
M  V30 4111 H 394.692 3.14919 -2.0762 0
M  V30 4112 H 397.079 2.69947 -1.19217 0
M  V30 4113 H 397.16 1.26418 -2.22378 0
M  V30 4114 H 396.804 2.74474 -4.27348 0
M  V30 4115 H 396.734 4.17339 -3.21148 0
M  V30 4116 H 399.225 2.73167 -2.61129 0
M  V30 4117 H 399.538 5.13583 -5.77453 0
M  V30 4118 H 397.883 4.62398 -5.18857 0
M  V30 4119 H 401.074 3.32491 -3.29495 0
M  V30 4120 H 401.247 4.4214 -4.73726 0
M  V30 4121 N 394.653 0.992116 1.22453 0
M  V30 4122 C 395.586 0.486701 2.22949 0
M  V30 4123 C 396.564 -0.45259 1.56174 0
M  V30 4124 O 397.748 -0.378317 1.84665 0
M  V30 4125 C 394.875 -0.294537 3.37417 0
M  V30 4126 C 393.921 0.590628 4.22391 0
M  V30 4127 S 394.754 2.04546 4.94895 0
M  V30 4128 C 395.91 1.27369 6.12803 0
M  V30 4129 H 396.143 1.33828 2.65475 0
M  V30 4130 H 393.676 0.799023 1.32117 0
M  V30 4131 H 395.634 -0.739241 4.03789 0
M  V30 4132 H 394.295 -1.12139 2.934 0
M  V30 4133 H 393.488 -0.0104375 5.03999 0
M  V30 4134 H 393.09 0.972064 3.61147 0
M  V30 4135 H 395.382 0.540943 6.75337 0
M  V30 4136 H 396.325 2.06502 6.7732 0
M  V30 4137 H 396.733 0.787324 5.58983 0
M  V30 4138 N 396.131 -1.37776 0.765217 0
M  V30 4139 C 397.064 -2.28008 0.0935025 0
M  V30 4140 C 398.042 -1.45985 -0.716047 0
M  V30 4141 O 399.226 -1.75331 -0.692203 0
M  V30 4142 C 396.353 -3.27228 -0.874052 0
M  V30 4143 C 395.399 -4.26239 -0.149307 0
M  V30 4144 S 396.232 -5.22827 1.15809 0
M  V30 4145 C 397.388 -6.256 0.193906 0
M  V30 4146 H 397.621 -2.84631 0.858637 0
M  V30 4147 H 395.154 -1.43952 0.558313 0
M  V30 4148 H 397.112 -3.84902 -1.42691 0
M  V30 4149 H 395.773 -2.69565 -1.61225 0
M  V30 4150 H 394.966 -4.96213 -0.88254 0
M  V30 4151 H 394.568 -3.7252 0.332366 0
M  V30 4152 H 396.86 -6.74508 -0.636011 0
M  V30 4153 H 397.803 -7.02838 0.861638 0
M  V30 4154 H 398.211 -5.64173 -0.191975 0
M  V30 4155 N 397.609 -0.515225 -1.4894 0
M  V30 4156 C 398.519 0.259774 -2.33157 0
M  V30 4157 C 399.535 0.953501 -1.45548 0
M  V30 4158 O 400.711 0.931735 -1.78552 0
M  V30 4159 C 397.776 1.30193 -3.21326 0
M  V30 4160 C 396.837 0.620129 -4.24797 0
M  V30 4161 C 396.07 1.61263 -5.08753 0
M  V30 4162 O 396.293 2.84389 -4.94448 0
M  V30 4163 O 395.227 1.16013 -5.90614 0
M  V30 4164 H 399.053 -0.429932 -3.00641 0
M  V30 4165 H 396.638 -0.276346 -1.46822 0
M  V30 4166 H 398.52 1.90455 -3.75905 0
M  V30 4167 H 397.195 1.97431 -2.56521 0
M  V30 4168 H 396.102 -0.0226019 -3.74093 0
M  V30 4169 H 397.435 -0.0100493 -4.92199 0
M  V30 4170 N 399.087 1.5561 -0.249682 0
M  V30 4171 C 400.315 2.03411 0.378352 0
M  V30 4172 C 400.73 1.12886 1.51335 0
M  V30 4173 O 400.087 0.143833 1.81932 0
M  V30 4174 C 400.138 3.50537 0.88351 0
M  V30 4175 O 399.859 4.37614 -0.20626 0
M  V30 4176 C 401.36 4.14113 1.58195 0
M  V30 4177 H 398.58 0.664994 0.08958 0
M  V30 4178 H 401.124 2.01044 -0.374357 0
M  V30 4179 H 399.279 3.5343 1.58639 0
M  V30 4180 H 399.693 5.24199 0.177782 0
M  V30 4181 H 401.167 5.18741 1.8871 0
M  V30 4182 H 401.644 3.60767 2.50487 0
M  V30 4183 H 402.25 4.15151 0.923573 0
M  V30 4184 N 400.565 -0.0233959 1.57583 0
M  V30 4185 C 401.497 -1.04994 2.03737 0
M  V30 4186 C 402.51 -1.32125 0.951152 0
M  V30 4187 O 403.699 -1.29512 1.22837 0
M  V30 4188 C 400.799 -2.39026 2.40249 0
M  V30 4189 C 399.972 -2.31171 3.7132 0
M  V30 4190 C 399.031 -3.47698 3.94959 0
M  V30 4191 O 398.057 -3.26937 4.65941 0
M  V30 4192 N 399.259 -4.6976 3.41037 0
M  V30 4193 H 402.024 -0.656507 2.92421 0
M  V30 4194 H 399.585 -0.211235 1.60516 0
M  V30 4195 H 401.577 -3.15712 2.53196 0
M  V30 4196 H 400.147 -2.70194 1.57207 0
M  V30 4197 H 399.367 -1.39547 3.68674 0
M  V30 4198 H 400.655 -2.23071 4.57293 0
M  V30 4199 H 400.053 -4.89528 2.83512 0
M  V30 4200 H 398.61 -5.43791 3.59353 0
M  V30 4201 N 402.043 -1.548 -0.295768 0
M  V30 4202 C 403.271 -1.78327 -1.04914 0
M  V30 4203 C 403.686 -0.545316 -1.80753 0
M  V30 4204 O 403.043 0.485013 -1.75937 0
M  V30 4205 C 403.094 -2.99418 -2.02561 0
M  V30 4206 O 402.815 -4.18431 -1.29798 0
M  V30 4207 C 404.316 -3.35375 -2.89895 0
M  V30 4208 H 401.536 -0.594618 -0.310918 0
M  V30 4209 H 404.08 -2.01763 -0.333454 0
M  V30 4210 H 402.235 -2.78175 -2.69624 0
M  V30 4211 H 402.649 -4.86736 -1.95419 0
M  V30 4212 H 404.123 -4.23332 -3.54251 0
M  V30 4213 H 404.6 -2.53761 -3.58472 0
M  V30 4214 H 405.206 -3.58796 -2.28355 0
M  V30 4215 N 403.521 0.559213 -1.47345 0
M  V30 4216 C 404.746 1.34676 -1.57725 0
M  V30 4217 C 405.171 1.86723 -0.227164 0
M  V30 4218 O 404.529 1.6286 0.796642 0
M  V30 4219 C 404.577 2.49399 -2.60447 0
M  V30 4220 O 403.681 3.51567 -2.15578 0
M  V30 4221 H 403.022 0.400115 -0.52991 0
M  V30 4222 H 405.552 0.676009 -1.93109 0
M  V30 4223 H 405.562 2.95996 -2.80803 0
M  V30 4224 H 404.237 2.10873 -3.58477 0
M  V30 4225 H 402.814 3.11289 -2.05313 0
M  V30 4226 N 404.999 1.35443 0.805782 0
M  V30 4227 C 406.227 1.31878 1.59423 0
M  V30 4228 C 406.642 -0.103562 1.88516 0
M  V30 4229 O 405.999 -1.05575 1.48863 0
M  V30 4230 C 406.05 2.12426 2.92502 0
M  V30 4231 O 405.771 3.49115 2.6467 0
M  V30 4232 C 407.272 2.16455 3.86862 0
M  V30 4233 H 404.492 0.453002 0.495005 0
M  V30 4234 H 407.036 1.78309 1.00131 0
M  V30 4235 H 405.191 1.69593 3.48306 0
M  V30 4236 H 405.605 3.90957 3.49647 0
M  V30 4237 H 407.079 2.77204 4.77349 0
M  V30 4238 H 407.556 1.16352 4.23508 0
M  V30 4239 H 408.162 2.59453 3.36993 0
M  V30 4240 N 406.477 -1.02803 1.19454 0
M  V30 4241 C 407.723 -1.76598 1.0092 0
M  V30 4242 C 408.078 -1.86939 -0.455142 0
M  V30 4243 O 407.371 -1.37575 -1.33355 0
M  V30 4244 C 407.565 -3.18941 1.6128 0
M  V30 4245 C 407.394 -3.22476 3.13431 0
M  V30 4246 C 406.164 -3.30375 3.82336 0
M  V30 4247 C 408.362 -3.09451 4.10785 0
M  V30 4248 N 406.344 -3.23292 5.21877 0
M  V30 4249 C 407.715 -3.10012 5.36929 0
M  V30 4250 C 409.77 -2.93585 4.02135 0
M  V30 4251 C 408.473 -2.96334 6.55423 0
M  V30 4252 C 410.499 -2.81256 5.20239 0
M  V30 4253 C 409.861 -2.82472 6.45282 0
M  V30 4254 H 405.96 -0.657447 0.423424 0
M  V30 4255 H 408.544 -1.22369 1.5144 0
M  V30 4256 H 406.715 -3.71489 1.1336 0
M  V30 4257 H 408.447 -3.81102 1.36173 0
M  V30 4258 H 405.202 -3.3663 3.33132 0
M  V30 4259 H 405.626 -3.23156 5.94894 0
M  V30 4260 H 410.268 -2.91466 3.0628 0
M  V30 4261 H 407.986 -2.97203 7.51463 0
M  V30 4262 H 411.572 -2.70014 5.15348 0
M  V30 4263 H 410.452 -2.73036 7.35133 0
M  V30 4264 N 407.956 -0.998596 -1.21925 0
M  V30 4265 C 409.203 -0.677663 -1.90824 0
M  V30 4266 C 409.531 0.790905 -1.77693 0
M  V30 4267 O 408.786 1.58817 -1.14349 0
M  V30 4268 C 409.085 -1.03648 -3.42041 0
M  V30 4269 C 408.751 -2.49825 -3.75364 0
M  V30 4270 C 407.413 -2.8977 -3.8417 0
M  V30 4271 C 409.765 -3.44545 -3.91073 0
M  V30 4272 C 407.093 -4.23412 -4.06127 0
M  V30 4273 C 409.445 -4.77853 -4.14535 0
M  V30 4274 C 408.109 -5.17531 -4.21566 0
M  V30 4275 H 407.379 -0.247975 -0.698276 0
M  V30 4276 H 410.026 -1.25584 -1.44571 0
M  V30 4277 H 408.331 -0.376457 -3.89987 0
M  V30 4278 H 410.028 -0.766113 -3.93614 0
M  V30 4279 H 406.618 -2.17866 -3.69097 0
M  V30 4280 H 410.802 -3.14853 -3.83642 0
M  V30 4281 H 406.058 -4.53734 -4.09799 0
M  V30 4282 H 410.232 -5.51189 -4.25633 0
M  V30 4283 H 407.859 -6.21102 -4.38333 0
M  V30 4284 N 409.434 1.37368 -0.772513 0
M  V30 4285 C 410.682 1.99279 -0.336516 0
M  V30 4286 C 411.003 1.6163 1.09091 0
M  V30 4287 O 410.273 0.882109 1.74916 0
M  V30 4288 H 408.853 0.737063 -0.121435 0
M  V30 4289 H 411.515 1.67836 -0.990809 0
M  V30 4290 H 410.611 3.09332 -0.414763 0
M  V30 4291 N 410.912 0.523116 1.48665 0
M  V30 4292 C 412.159 -0.0134763 2.02496 0
M  V30 4293 C 412.487 -1.3493 1.40086 0
M  V30 4294 O 411.742 -1.88286 0.533567 0
M  V30 4295 C 412.041 -0.191671 3.56886 0
M  V30 4296 C 411.707 1.06893 4.38046 0
M  V30 4297 C 410.369 1.41443 4.59943 0
M  V30 4298 C 412.721 1.90584 4.85106 0
M  V30 4299 C 410.049 2.59594 5.26144 0
M  V30 4300 C 412.401 3.07907 5.52609 0
M  V30 4301 C 411.065 3.42811 5.72745 0
M  V30 4302 H 410.335 -0.00493133 0.740984 0
M  V30 4303 H 412.982 0.687751 1.78724 0
M  V30 4304 H 411.287 -0.97561 3.79459 0
M  V30 4305 H 412.984 -0.621659 3.96152 0
M  V30 4306 H 409.574 0.789848 4.21259 0
M  V30 4307 H 413.758 1.65203 4.67997 0
M  V30 4308 H 409.014 2.86847 5.39934 0
M  V30 4309 H 413.188 3.73066 5.88043 0
M  V30 4310 H 410.815 4.34462 6.23816 0
M  V30 4311 N 412.39 -1.55475 0.257931 0
M  V30 4312 C 413.338 -2.23244 -0.653076 0
M  V30 4313 C 414.332 -1.22366 -1.17144 0
M  V30 4314 O 415.538 -1.40347 -1.12706 0
M  V30 4315 H 411.913 -0.716247 -0.229117 0
M  V30 4316 H 413.884 -2.98343 -0.0584788 0
M  V30 4317 C 412.633 -2.95401 -1.83395 0
M  V30 4318 H 411.956 -3.72802 -1.44424 0
M  V30 4319 H 413.396 -3.46165 -2.44838 0
M  V30 4320 C 411.855 -1.99895 -2.71189 0
M  V30 4321 O 412.385 -1.53909 -3.71046 0
M  V30 4322 N 410.591 -1.6676 -2.3799 0
M  V30 4323 H 410.138 -2.04352 -1.56837 0
M  V30 4324 H 410.096 -1.03127 -2.97005 0
M  V30 4325 N 413.868 0.0150385 -1.57593 0
M  V30 4326 C 415.116 0.701613 -1.8953 0
M  V30 4327 C 415.437 1.75139 -0.857396 0
M  V30 4328 O 414.707 1.95607 0.107194 0
M  V30 4329 H 413.287 0.26213 -0.699498 0
M  V30 4330 H 415.949 -0.0223304 -1.94887 0
M  V30 4331 H 415.045 1.18236 -2.88837 0
M  V30 4332 N 415.346 1.54954 0.287554 0
M  V30 4333 C 416.574 1.78881 1.03967 0
M  V30 4334 C 416.989 0.554894 1.80462 0
M  V30 4335 O 416.346 -0.475676 1.76192 0
M  V30 4336 C 416.397 3.00488 2.0097 0
M  V30 4337 O 416.118 4.19113 1.27577 0
M  V30 4338 C 417.619 3.36907 2.88112 0
M  V30 4339 H 414.839 0.596259 0.307761 0
M  V30 4340 H 417.383 2.01937 0.322749 0
M  V30 4341 H 415.538 2.79601 2.68145 0
M  V30 4342 H 415.952 4.87765 1.92835 0
M  V30 4343 H 417.426 4.25205 3.52001 0
M  V30 4344 H 417.903 2.55659 3.57121 0
M  V30 4345 H 418.509 3.60001 2.26449 0
M  V30 4346 N 416.824 -0.551391 1.4764 0
M  V30 4347 C 418.24 -0.877887 1.33287 0
M  V30 4348 C 418.44 -1.98817 0.327721 0
M  V30 4349 O 417.496 -2.51171 -0.258695 0
M  V30 4350 C 418.809 -1.26563 2.72768 0
M  V30 4351 C 420.357 -1.37673 2.81097 0
M  V30 4352 C 420.832 -1.79799 4.21232 0
M  V30 4353 N 422.323 -1.8694 4.23802 0
M  V30 4354 C 423.058 -2.20876 5.29151 0
M  V30 4355 N 422.554 -2.53386 6.448 0
M  V30 4356 N 424.347 -2.217 5.16532 0
M  V30 4357 H 416.498 0.18153 2.11623 0
M  V30 4358 H 418.761 0.0185514 0.947818 0
M  V30 4359 H 418.467 -0.523591 3.47781 0
M  V30 4360 H 418.341 -2.22052 3.04915 0
M  V30 4361 H 420.728 -2.10956 2.06353 0
M  V30 4362 H 420.809 -0.40357 2.52596 0
M  V30 4363 H 420.453 -1.07083 4.96483 0
M  V30 4364 H 420.383 -2.78128 4.4716 0
M  V30 4365 H 422.874 -1.64179 3.40373 0
M  V30 4366 H 423.187 -2.78325 7.20941 0
M  V30 4367 H 421.532 -2.50953 6.48111 0
M  V30 4368 H 424.723 -1.95745 4.25207 0
M  V30 4369 H 424.896 -2.47818 5.98741 0
M  V30 4370 N 418.302 -1.35869 -0.798587 0
M  V30 4371 C 419.265 -1.29307 -1.89242 0
M  V30 4372 C 420.265 -0.202747 -1.59517 0
M  V30 4373 O 421.455 -0.456957 -1.681 0
M  V30 4374 C 418.587 -1.00229 -3.25833 0
M  V30 4375 H 419.78 -2.26576 -1.96478 0
M  V30 4376 H 417.333 -1.20509 -0.995358 0
M  V30 4377 H 418.068 -0.033801 -3.24282 0
M  V30 4378 H 417.853 -1.79121 -3.48795 0
M  V30 4379 H 419.343 -0.98219 -4.05885 0
M  V30 4380 N 419.78 1.02168 -1.19998 0
M  V30 4381 C 420.69 2.14069 -0.959774 0
M  V30 4382 C 421.706 1.73804 0.082655 0
M  V30 4383 O 422.882 2.01133 -0.103633 0
M  V30 4384 C 419.947 3.42936 -0.509459 0
M  V30 4385 C 419.008 3.97474 -1.62213 0
M  V30 4386 C 418.241 5.2019 -1.19321 0
M  V30 4387 O 418.464 5.70369 -0.0597726 0
M  V30 4388 O 417.398 5.67749 -1.99863 0
M  V30 4389 H 421.224 2.37199 -1.89658 0
M  V30 4390 H 418.809 1.12469 -0.983411 0
M  V30 4391 H 420.691 4.20551 -0.267322 0
M  V30 4392 H 419.366 3.21234 0.398821 0
M  V30 4393 H 418.273 3.21161 -1.9185 0
M  V30 4394 H 419.606 4.23555 -2.50723 0
M  V30 4395 N 421.258 1.00505 1.21394 0
M  V30 4396 C 422.206 0.558623 2.25792 0
M  V30 4397 C 423.2 -0.396848 1.64686 0
M  V30 4398 O 424.406 -0.268035 1.77993 0
M  V30 4399 H 420.781 0.1623 0.734277 0
M  V30 4400 H 422.752 1.4503 2.60785 0
M  V30 4401 C 421.501 -0.0989574 3.47559 0
M  V30 4402 H 420.824 0.627225 3.94849 0
M  V30 4403 H 422.264 -0.3746 4.22342 0
M  V30 4404 C 420.723 -1.33817 3.09184 0
M  V30 4405 O 421.253 -2.43252 3.19674 0
M  V30 4406 N 419.459 -1.21793 2.63846 0
M  V30 4407 H 419.006 -0.32746 2.5551 0
M  V30 4408 H 418.964 -2.04809 2.38539 0
M  V30 4409 N 422.737 -1.36956 0.779787 0
M  V30 4410 C 424.153 -1.52817 0.460342 0
M  V30 4411 C 424.353 -1.7361 -1.02283 0
M  V30 4412 O 423.409 -1.76207 -1.80852 0
M  V30 4413 C 424.722 -2.71983 1.28241 0
M  V30 4414 C 426.27 -2.85849 1.27512 0
M  V30 4415 C 426.745 -4.08008 2.08072 0
M  V30 4416 N 428.236 -4.15135 2.05467 0
M  V30 4417 C 428.971 -5.08711 2.64577 0
M  V30 4418 N 428.467 -6.07792 3.32506 0
M  V30 4419 N 430.26 -5.01254 2.54363 0
M  V30 4420 H 422.411 -1.21713 1.74068 0
M  V30 4421 H 424.674 -0.593294 0.739396 0
M  V30 4422 H 424.38 -2.63109 2.33381 0
M  V30 4423 H 424.254 -3.65882 0.917088 0
M  V30 4424 H 426.641 -2.94189 0.231686 0
M  V30 4425 H 426.722 -1.92886 1.68014 0
M  V30 4426 H 426.366 -4.00429 3.12441 0
M  V30 4427 H 426.296 -5.001 1.64947 0
M  V30 4428 H 428.787 -3.44189 1.5602 0
M  V30 4429 H 429.1 -6.75739 3.74963 0
M  V30 4430 H 427.445 -6.08047 3.36606 0
M  V30 4431 H 430.636 -4.22795 2.00902 0
M  V30 4432 H 430.809 -5.73995 3.00722 0
M  V30 4433 N 424.215 -0.530993 -1.48385 0
M  V30 4434 C 425.443 -0.00134122 -2.069 0
M  V30 4435 C 425.858 1.2805 -1.3874 0
M  V30 4436 O 425.215 1.76204 -0.475244 0
M  V30 4437 C 425.266 0.225256 -3.60798 0
M  V30 4438 O 424.987 -1.0058 -4.26398 0
M  V30 4439 C 426.488 0.795172 -4.3611 0
M  V30 4440 H 423.708 -0.0339704 -0.67014 0
M  V30 4441 H 426.252 -0.736926 -1.90761 0
M  V30 4442 H 424.407 0.910891 -3.76539 0
M  V30 4443 H 424.821 -0.787165 -5.1856 0
M  V30 4444 H 426.295 0.903143 -5.44562 0
M  V30 4445 H 426.772 1.80031 -4.00606 0
M  V30 4446 H 427.378 0.146069 -4.25049 0
M  V30 4447 N 425.693 1.55336 -0.266172 0
M  V30 4448 C 426.923 2.03506 0.356239 0
M  V30 4449 C 427.331 1.14426 1.50676 0
M  V30 4450 O 426.674 0.155043 1.83045 0
M  V30 4451 C 426.736 3.47848 0.90785 0
M  V30 4452 C 426.4 4.56861 -0.112888 0
M  V30 4453 C 427.397 5.11528 -0.929264 0
M  V30 4454 C 425.082 5.01704 -0.244546 0
M  V30 4455 C 427.076 6.09549 -1.86357 0
M  V30 4456 C 424.763 5.99553 -1.18234 0
M  V30 4457 C 425.761 6.53356 -1.99036 0
M  V30 4458 O 425.449 7.49293 -2.91231 0
M  V30 4459 H 425.181 0.670444 0.08649 0
M  V30 4460 H 427.735 2.01598 -0.39337 0
M  V30 4461 H 425.965 3.46967 1.70737 0
M  V30 4462 H 427.654 3.79407 1.44239 0
M  V30 4463 H 428.42 4.77701 -0.838237 0
M  V30 4464 H 424.299 4.59477 0.374359 0
M  V30 4465 H 427.843 6.51469 -2.49467 0
M  V30 4466 H 423.74 6.32799 -1.27421 0
M  V30 4467 H 424.508 7.66978 -2.8581 0
M  V30 4468 N 427.171 -0.0066808 1.57599 0
M  V30 4469 C 428.42 -0.692078 1.89455 0
M  V30 4470 C 428.733 -1.75306 0.867586 0
M  V30 4471 O 429.939 -2.49262 1.07614 0
M  V30 4472 C 428.395 -1.2821 3.36289 0
M  V30 4473 C 428.003 -0.256291 4.47266 0
M  V30 4474 C 429.747 -1.94608 3.77264 0
M  V30 4475 C 427.654 -0.855927 5.85173 0
M  V30 4476 H 426.584 -0.262252 0.706923 0
M  V30 4477 H 429.235 0.052769 1.83424 0
M  V30 4478 H 427.617 -2.0774 3.37135 0
M  V30 4479 H 428.791 0.513923 4.57925 0
M  V30 4480 H 427.106 0.306862 4.15268 0
M  V30 4481 H 429.703 -2.40364 4.77629 0
M  V30 4482 H 430.046 -2.77382 3.10427 0
M  V30 4483 H 430.579 -1.21822 3.78688 0
M  V30 4484 H 427.318 -0.0671161 6.55466 0
M  V30 4485 H 426.838 -1.59546 5.78191 0
M  V30 4486 H 428.517 -1.35658 6.32618 0
M  V30 4487 N 428.649 -1.55105 -0.279332 0
M  V30 4488 C 429.879 -1.7917 -1.02867 0
M  V30 4489 C 430.287 -0.56204 -1.80659 0
M  V30 4490 O 429.63 0.478266 -1.77365 0
M  V30 4491 C 429.692 -2.96061 -2.03932 0
M  V30 4492 C 429.356 -4.33341 -1.45137 0
M  V30 4493 C 430.353 -5.12565 -0.870266 0
M  V30 4494 C 428.038 -4.79987 -1.48048 0
M  V30 4495 C 430.032 -6.36565 -0.326097 0
M  V30 4496 C 427.719 -6.03944 -0.932443 0
M  V30 4497 C 428.717 -6.8207 -0.356247 0
M  V30 4498 O 428.405 -8.03691 0.183412 0
M  V30 4499 H 428.137 -0.600796 -0.309872 0
M  V30 4500 H 430.691 -2.02932 -0.317468 0
M  V30 4501 H 428.921 -2.67975 -2.78794 0
M  V30 4502 H 430.61 -3.07506 -2.64943 0
M  V30 4503 H 431.376 -4.77661 -0.840521 0
M  V30 4504 H 427.255 -4.1919 -1.91835 0
M  V30 4505 H 430.799 -6.97489 0.124286 0
M  V30 4506 H 426.696 -6.3833 -0.959407 0
M  V30 4507 H 427.464 -8.18468 0.0721681 0
M  V30 4508 N 430.127 0.543554 -1.4793 0
M  V30 4509 C 431.373 1.29961 -1.56466 0
M  V30 4510 C 431.728 1.91024 -0.229696 0
M  V30 4511 O 431.021 1.75619 0.766072 0
M  V30 4512 C 431.215 2.42078 -2.62932 0
M  V30 4513 C 431.044 1.92003 -4.06651 0
M  V30 4514 C 429.814 1.75223 -4.73946 0
M  V30 4515 C 432.012 1.45648 -4.93245 0
M  V30 4516 N 429.994 1.19632 -6.02131 0
M  V30 4517 C 431.365 1.01914 -6.11566 0
M  V30 4518 C 433.42 1.33826 -4.79578 0
M  V30 4519 C 432.123 0.475301 -7.17728 0
M  V30 4520 C 434.149 0.808427 -5.85848 0
M  V30 4521 C 433.511 0.381081 -7.03368 0
M  V30 4522 H 429.61 0.467086 -0.62718 0
M  V30 4523 H 432.194 0.614543 -1.84747 0
M  V30 4524 H 430.365 3.08098 -2.36496 0
M  V30 4525 H 432.097 3.09096 -2.61231 0
M  V30 4526 H 428.852 1.98345 -4.30065 0
M  V30 4527 H 429.276 0.93885 -6.70458 0
M  V30 4528 H 433.918 1.65474 -3.89074 0
M  V30 4529 H 431.636 0.146472 -8.07967 0
M  V30 4530 H 435.222 0.720315 -5.77324 0
M  V30 4531 H 434.102 -0.0225344 -7.84197 0
M  V30 4532 N 431.605 1.3629 0.791371 0
M  V30 4533 C 432.555 1.26988 1.89362 0
M  V30 4534 C 433.539 0.161795 1.60084 0
M  V30 4535 O 434.731 0.394426 1.72549 0
M  V30 4536 C 431.86 1.05944 3.26544 0
M  V30 4537 C 430.946 2.21211 3.61838 0
M  V30 4538 N 431.337 3.46518 3.68455 0
M  V30 4539 C 429.635 2.12933 3.91887 0
M  V30 4540 C 430.336 4.2241 3.99931 0
M  V30 4541 N 429.312 3.51329 4.14812 0
M  V30 4542 H 433.114 2.21908 1.92702 0
M  V30 4543 H 430.628 1.28982 0.986787 0
M  V30 4544 H 432.625 0.973666 4.05371 0
M  V30 4545 H 431.285 0.119223 3.24481 0
M  V30 4546 H 432.296 3.80677 3.51148 0
M  V30 4547 H 428.973 1.26855 3.97761 0
M  V30 4548 H 430.363 5.30767 4.1199 0
M  V30 4549 N 433.083 -1.0153 1.20538 0
M  V30 4550 C 434.331 -1.74803 1.01432 0
M  V30 4551 C 434.652 -1.8963 -0.454456 0
M  V30 4552 O 433.922 -1.43975 -1.32846 0
M  V30 4553 H 432.502 -0.647598 0.372324 0
M  V30 4554 H 435.164 -1.22402 1.5167 0
M  V30 4555 H 434.26 -2.75114 1.47373 0
M  V30 4556 N 434.561 -1.01147 -1.20859 0
M  V30 4557 C 435.977 -0.725422 -1.42161 0
M  V30 4558 C 436.177 0.696919 -1.89064 0
M  V30 4559 O 435.233 1.46539 -2.05627 0
M  V30 4560 C 436.546 -1.74678 -2.44761 0
M  V30 4561 C 438.094 -1.76433 -2.58535 0
M  V30 4562 C 438.569 -2.77481 -3.64374 0
M  V30 4563 N 440.06 -2.76189 -3.71852 0
M  V30 4564 C 440.795 -3.51035 -4.53389 0
M  V30 4565 N 440.291 -4.35541 -5.38773 0
M  V30 4566 N 442.084 -3.39655 -4.47873 0
M  V30 4567 H 434.235 -1.92979 -0.887282 0
M  V30 4568 H 436.498 -0.833327 -0.451962 0
M  V30 4569 H 436.204 -2.76551 -2.17285 0
M  V30 4570 H 436.078 -1.55472 -3.43669 0
M  V30 4571 H 438.465 -0.75248 -2.85345 0
M  V30 4572 H 438.546 -1.99712 -1.5984 0
M  V30 4573 H 438.19 -3.78827 -3.38308 0
M  V30 4574 H 438.12 -2.51466 -4.6268 0
M  V30 4575 H 440.611 -2.14885 -3.10858 0
M  V30 4576 H 440.924 -4.89432 -5.98061 0
M  V30 4577 H 439.269 -4.39621 -5.38292 0
M  V30 4578 H 442.46 -2.73063 -3.80203 0
M  V30 4579 H 442.633 -3.9824 -5.11184 0
M  V30 4580 N 436.039 1.36541 -0.78704 0
M  V30 4581 C 437.316 1.9355 -0.282424 0
M  V30 4582 C 437.696 1.71919 1.22503 0
M  V30 4583 O 437.044 1.07677 2.01539 0
M  V30 4584 C 437.254 3.4246 -0.672462 0
M  V30 4585 C 438.602 4.19582 -0.650863 0
M  V30 4586 O 439.626 3.50889 -0.612789 0
M  V30 4587 O 438.485 5.42106 -0.691623 0
M  V30 4588 H 435.579 0.824091 -0.0693 0
M  V30 4589 H 438.125 1.45736 -0.869423 0
M  V30 4590 H 436.897 3.51851 -1.71221 0
M  V30 4591 H 436.52 3.97556 -0.0592211 0
M  V30 4592 N 437.518 0.538854 1.48102 0
M  V30 4593 C 438.466 -0.232325 2.31437 0
M  V30 4594 C 439.46 -0.927004 1.41785 0
M  V30 4595 O 440.666 -0.850378 1.58646 0
M  V30 4596 H 437.041 -0.0937916 0.746128 0
M  V30 4597 H 439.012 0.489986 2.9435 0
M  V30 4598 C 437.761 -1.26074 3.24038 0
M  V30 4599 H 437.084 -0.735609 3.92974 0
M  V30 4600 H 438.524 -1.77157 3.85216 0
M  V30 4601 C 436.983 -2.29902 2.46265 0
M  V30 4602 O 437.513 -3.36502 2.19384 0
M  V30 4603 N 435.719 -2.03348 2.07601 0
M  V30 4604 H 435.266 -1.16675 2.29662 0
M  V30 4605 H 435.224 -2.73038 1.55877 0
M  V30 4606 N 438.996 -1.55193 0.274407 0
M  V30 4607 C 440.412 -1.59401 -0.0797543 0
M  V30 4608 C 440.612 -1.29162 -1.54659 0
M  V30 4609 O 439.668 -1.05215 -2.29534 0
M  V30 4610 C 440.981 -2.99257 0.294238 0
M  V30 4611 C 442.529 -3.12072 0.240796 0
M  V30 4612 C 443.004 -4.54194 0.589218 0
M  V30 4613 N 444.495 -4.60033 0.540744 0
M  V30 4614 C 445.23 -5.68027 0.783147 0
M  V30 4615 N 444.726 -6.8417 1.09013 0
M  V30 4616 N 446.519 -5.57572 0.711993 0
M  V30 4617 H 438.67 -1.73113 1.23067 0
M  V30 4618 H 440.933 -0.807197 0.497129 0
M  V30 4619 H 440.639 -3.26217 1.31435 0
M  V30 4620 H 440.513 -3.75427 -0.365281 0
M  V30 4621 H 442.9 -2.84877 -0.770024 0
M  V30 4622 H 442.981 -2.38117 0.934563 0
M  V30 4623 H 442.625 -4.82115 1.59772 0
M  V30 4624 H 442.555 -5.26448 -0.126331 0
M  V30 4625 H 445.046 -3.76599 0.313327 0
M  V30 4626 H 445.359 -7.6243 1.26178 0
M  V30 4627 H 443.704 -6.85787 1.12789 0
M  V30 4628 H 446.895 -4.65714 0.472014 0
M  V30 4629 H 447.068 -6.41659 0.90429 0
M  V30 4630 N 440.474 -0.00167713 -1.576 0
M  V30 4631 C 441.702 0.693759 -1.94922 0
M  V30 4632 C 442.117 1.67215 -0.876626 0
M  V30 4633 O 441.474 1.81929 0.144279 0
M  V30 4634 C 441.525 1.42416 -3.32265 0
M  V30 4635 O 441.246 0.485014 -4.35407 0
M  V30 4636 C 442.747 2.21395 -3.84056 0
M  V30 4637 H 439.967 0.193118 -0.642609 0
M  V30 4638 H 442.511 -0.0532952 -2.04431 0
M  V30 4639 H 440.666 2.12284 -3.24059 0
M  V30 4640 H 441.08 1.00053 -5.14868 0
M  V30 4641 H 442.554 2.67996 -4.82578 0
M  V30 4642 H 443.031 3.04142 -3.16851 0
M  V30 4643 H 443.637 1.56542 -3.95443 0
M  V30 4644 N 441.952 1.55251 0.271103 0
M  V30 4645 C 443.201 1.75151 1.00025 0
M  V30 4646 C 443.514 0.561041 1.87381 0
M  V30 4647 O 444.72 0.642506 2.63788 0
M  V30 4648 C 443.176 3.09999 1.82835 0
M  V30 4649 C 442.784 4.3662 1.00336 0
M  V30 4650 C 444.528 3.39249 2.55168 0
M  V30 4651 C 442.435 5.62506 1.82595 0
M  V30 4652 H 441.365 0.652877 0.377183 0
M  V30 4653 H 444.016 1.81708 0.255843 0
M  V30 4654 H 442.398 2.97485 2.61378 0
M  V30 4655 H 443.572 4.60055 0.261959 0
M  V30 4656 H 441.887 4.14527 0.394486 0
M  V30 4657 H 444.484 4.3051 3.1712 0
M  V30 4658 H 444.827 2.59467 3.2555 0
M  V30 4659 H 445.36 3.52869 1.83653 0
M  V30 4660 H 442.099 6.45041 1.16631 0
M  V30 4661 H 441.619 5.43211 2.54327 0
M  V30 4662 H 443.298 6.00875 2.39913 0
M  V30 4663 N 443.43 -0.535701 1.48216 0
M  V30 4664 C 444.679 -1.28828 1.55197 0
M  V30 4665 C 444.992 -1.94263 0.228278 0
M  V30 4666 O 446.198 -2.70927 0.176278 0
M  V30 4667 C 444.654 -2.33727 2.73678 0
M  V30 4668 C 444.262 -1.74386 4.12666 0
M  V30 4669 C 446.006 -3.1003 2.89968 0
M  V30 4670 C 443.913 -2.77192 5.22416 0
M  V30 4671 H 442.843 -0.484484 0.577747 0
M  V30 4672 H 445.494 -0.56646 1.74538 0
M  V30 4673 H 443.876 -3.08919 2.4776 0
M  V30 4674 H 445.05 -1.05421 4.48579 0
M  V30 4675 H 443.365 -1.10595 4.01445 0
M  V30 4676 H 445.962 -3.86842 3.6913 0
M  V30 4677 H 446.305 -3.65542 1.9921 0
M  V30 4678 H 446.838 -2.41952 3.15759 0
M  V30 4679 H 443.577 -2.26507 6.15122 0
M  V30 4680 H 443.097 -3.44502 4.90998 0
M  V30 4681 H 444.776 -3.40285 5.50286 0
M  V30 4682 N 444.908 -1.36708 -0.784132 0
M  V30 4683 C 446.133 -1.34565 -1.5782 0
M  V30 4684 C 446.558 0.0695257 -1.87971 0
M  V30 4685 O 445.916 1.04302 -1.48293 0
M  V30 4686 C 445.964 -2.17952 -2.87279 0
M  V30 4687 O 445.068 -1.57563 -3.81114 0
M  V30 4688 H 444.409 -0.460337 -0.478524 0
M  V30 4689 H 446.939 -1.80064 -0.971495 0
M  V30 4690 H 446.949 -2.30721 -3.365 0
M  V30 4691 H 445.624 -3.20823 -2.64661 0
M  V30 4692 H 444.201 -1.53764 -3.39722 0
M  V30 4693 N 446.386 1.0089 -1.21074 0
M  V30 4694 C 447.316 2.1145 -0.990523 0
M  V30 4695 C 448.297 1.69897 0.0831699 0
M  V30 4696 O 449.482 1.94052 -0.0758853 0
M  V30 4697 C 446.612 3.42914 -0.550177 0
M  V30 4698 C 445.566 3.98244 -1.56799 0
M  V30 4699 C 444.892 5.25568 -0.984013 0
M  V30 4700 C 446.192 4.30752 -2.95381 0
M  V30 4701 H 447.886 2.3013 -1.91521 0
M  V30 4702 H 445.432 1.10592 -0.92225 0
M  V30 4703 H 447.385 4.19653 -0.383305 0
M  V30 4704 H 446.109 3.24014 0.41015 0
M  V30 4705 H 444.768 3.23621 -1.72236 0
M  V30 4706 H 444.416 5.02998 -0.0155216 0
M  V30 4707 H 444.116 5.63551 -1.66384 0
M  V30 4708 H 445.64 6.04955 -0.828378 0
M  V30 4709 H 447.054 4.98349 -2.8341 0
M  V30 4710 H 445.451 4.79869 -3.60341 0
M  V30 4711 H 446.521 3.39192 -3.46521 0
M  V30 4712 N 447.864 1.01787 1.20321 0
M  V30 4713 C 448.812 0.58254 2.25187 0
M  V30 4714 C 449.806 -0.379359 1.65098 0
M  V30 4715 O 451.012 -0.249142 1.78267 0
M  V30 4716 H 447.387 0.170078 0.732514 0
M  V30 4717 H 449.358 1.47788 2.59232 0
M  V30 4718 C 448.107 -0.0620885 3.47645 0
M  V30 4719 H 447.43 0.669069 3.94162 0
M  V30 4720 H 448.87 -0.329784 4.22716 0
M  V30 4721 C 447.329 -1.3053 3.10586 0
M  V30 4722 O 447.859 -2.39848 3.22236 0
M  V30 4723 N 446.065 -1.18988 2.65123 0
M  V30 4724 H 445.612 -0.300341 2.55843 0
M  V30 4725 H 445.57 -2.02267 2.40698 0
M  V30 4726 N 449.342 -1.36122 0.79427 0
M  V30 4727 C 450.289 -2.29982 0.194101 0
M  V30 4728 C 451.259 -1.52214 -0.664833 0
M  V30 4729 O 452.444 -1.80702 -0.612498 0
M  V30 4730 C 449.584 -3.38706 -0.661244 0
M  V30 4731 C 448.697 -4.31456 0.216766 0
M  V30 4732 C 447.832 -5.27265 -0.645411 0
M  V30 4733 C 446.871 -6.11653 0.233756 0
M  V30 4734 N 446.008 -6.99636 -0.587682 0
M  V30 4735 H 450.848 -2.80722 0.999965 0
M  V30 4736 H 448.385 -1.38172 0.504677 0
M  V30 4737 H 450.343 -4.00394 -1.17219 0
M  V30 4738 H 448.973 -2.89274 -1.43249 0
M  V30 4739 H 448.025 -3.7088 0.845724 0
M  V30 4740 H 449.337 -4.90724 0.893973 0
M  V30 4741 H 448.491 -5.94266 -1.22198 0
M  V30 4742 H 447.23 -4.68463 -1.35623 0
M  V30 4743 H 446.235 -5.4361 0.82269 0
M  V30 4744 H 447.46 -6.72531 0.942247 0
M  V30 4745 H 445.406 -6.43337 -1.2827 0
M  V30 4746 H 445.323 -7.55993 0.0317402 0
M  V30 4747 H 446.591 -7.71001 -1.14792 0
M  V30 4748 N 450.82 -0.546701 -1.47814 0
M  V30 4749 C 452.05 -0.0232519 -2.06587 0
M  V30 4750 C 452.458 1.2712 -1.40133 0
M  V30 4751 O 451.801 1.77091 -0.488305 0
M  V30 4752 C 451.863 0.254117 -3.58601 0
M  V30 4753 C 451.527 -0.949331 -4.47031 0
M  V30 4754 C 452.524 -1.85216 -4.85789 0
M  V30 4755 C 450.209 -1.16104 -4.88697 0
M  V30 4756 C 452.203 -2.95047 -5.65001 0
M  V30 4757 C 449.89 -2.26247 -5.67676 0
M  V30 4758 C 450.888 -3.1555 -6.05737 0
M  V30 4759 O 450.576 -4.23784 -6.83127 0
M  V30 4760 H 450.308 -0.0380082 -0.674931 0
M  V30 4761 H 452.862 -0.756631 -1.90956 0
M  V30 4762 H 451.092 1.04168 -3.72406 0
M  V30 4763 H 452.781 0.72167 -3.99433 0
M  V30 4764 H 453.547 -1.70061 -4.54207 0
M  V30 4765 H 449.426 -0.475159 -4.58545 0
M  V30 4766 H 452.97 -3.64778 -5.94628 0
M  V30 4767 H 448.867 -2.41379 -5.98671 0
M  V30 4768 H 449.635 -4.21701 -7.01506 0
M  V30 4769 N 452.299 1.55045 -0.282633 0
M  V30 4770 C 453.529 2.03872 0.334635 0
M  V30 4771 C 453.937 1.16018 1.49454 0
M  V30 4772 O 453.28 0.174449 1.8287 0
M  V30 4773 C 453.342 3.48791 0.870905 0
M  V30 4774 C 453.006 4.56715 -0.161338 0
M  V30 4775 C 454.003 5.10513 -0.983466 0
M  V30 4776 C 451.688 5.01417 -0.297745 0
M  V30 4777 C 453.682 6.07538 -1.92811 0
M  V30 4778 C 451.369 5.98265 -1.24586 0
M  V30 4779 C 452.367 6.51208 -2.05954 0
M  V30 4780 O 452.055 7.46162 -2.99162 0
M  V30 4781 H 451.787 0.671324 0.0793742 0
M  V30 4782 H 454.341 2.01169 -0.41473 0
M  V30 4783 H 452.571 3.48758 1.67047 0
M  V30 4784 H 454.26 3.80916 1.40207 0
M  V30 4785 H 455.026 4.76785 -0.888856 0
M  V30 4786 H 450.905 4.59849 0.325604 0
M  V30 4787 H 454.449 6.48787 -2.56363 0
M  V30 4788 H 450.346 6.31412 -1.34126 0
M  V30 4789 H 451.114 7.63903 -2.93929 0
M  V30 4790 N 453.777 0.010035 1.57597 0
M  V30 4791 C 454.725 -0.996272 2.10184 0
M  V30 4792 C 455.719 -1.34942 1.02406 0
M  V30 4793 O 456.925 -1.33389 1.20861 0
M  V30 4794 H 453.3 -0.338982 0.671264 0
M  V30 4795 H 455.271 -0.527272 2.93705 0
M  V30 4796 C 454.02 -2.27599 2.62857 0
M  V30 4797 H 453.343 -2.01295 3.45428 0
M  V30 4798 H 454.783 -2.96265 3.0332 0
M  V30 4799 C 453.242 -2.99269 1.54725 0
M  V30 4800 O 453.772 -3.90644 0.93597 0
M  V30 4801 N 451.978 -2.61269 1.27228 0
M  V30 4802 H 451.525 -1.87043 1.77123 0
M  V30 4803 H 451.483 -3.09534 0.550999 0
M  V30 4804 N 455.255 -1.55392 -0.262866 0
M  V30 4805 C 456.185 -1.91978 -1.32917 0
M  V30 4806 C 457.166 -0.7828 -1.51017 0
M  V30 4807 O 458.351 -1.04178 -1.63892 0
M  V30 4808 C 455.481 -2.20055 -2.68687 0
M  V30 4809 C 454.435 -3.35854 -2.65304 0
M  V30 4810 C 453.761 -3.49435 -4.04721 0
M  V30 4811 C 455.061 -4.71977 -2.23685 0
M  V30 4812 H 456.755 -2.81292 -1.02544 0
M  V30 4813 H 454.301 -1.3534 -0.491846 0
M  V30 4814 H 456.254 -2.44237 -3.43404 0
M  V30 4815 H 454.978 -1.27551 -3.00663 0
M  V30 4816 H 453.637 -3.11655 -1.93045 0
M  V30 4817 H 453.285 -2.54379 -4.33936 0
M  V30 4818 H 452.985 -4.27297 -4.0335 0
M  V30 4819 H 454.509 -3.7592 -4.81161 0
M  V30 4820 H 455.923 -4.95637 -2.88127 0
M  V30 4821 H 454.32 -5.52828 -2.33456 0
M  V30 4822 H 455.39 -4.70115 -1.18827 0
M  V30 4823 N 456.733 0.527833 -1.48498 0
M  V30 4824 C 457.961 1.30823 -1.6029 0
M  V30 4825 C 458.376 1.86945 -0.263974 0
M  V30 4826 O 457.733 1.6651 0.747034 0
M  V30 4827 C 457.784 2.45756 -2.65116 0
M  V30 4828 O 457.505 1.91946 -3.93813 0
M  V30 4829 C 459.006 3.37543 -2.87367 0
M  V30 4830 H 456.226 0.397763 -0.540394 0
M  V30 4831 H 458.77 0.636529 -1.94341 0
M  V30 4832 H 456.925 3.08806 -2.33917 0
M  V30 4833 H 457.339 2.67195 -4.51339 0
M  V30 4834 H 458.813 4.14532 -3.6451 0
M  V30 4835 H 459.29 3.92905 -1.9627 0
M  V30 4836 H 459.896 2.80283 -3.19878 0
M  V30 4837 N 458.211 1.37122 0.776871 0
M  V30 4838 C 459.144 1.26835 1.89705 0
M  V30 4839 C 460.122 0.14992 1.61907 0
M  V30 4840 O 461.306 0.323242 1.85708 0
M  V30 4841 C 458.433 0.95986 3.24814 0
M  V30 4842 C 457.479 2.09447 3.7153 0
M  V30 4843 S 458.312 3.71368 3.85806 0
M  V30 4844 C 459.468 3.42659 5.23771 0
M  V30 4845 H 459.701 2.21647 1.98141 0
M  V30 4846 H 457.234 1.22685 0.937433 0
M  V30 4847 H 459.192 0.788696 4.02852 0
M  V30 4848 H 457.853 0.0293137 3.14086 0
M  V30 4849 H 457.046 1.8335 4.69467 0
M  V30 4850 H 456.648 2.2255 3.00578 0
M  V30 4851 H 458.94 2.9733 6.0877 0
M  V30 4852 H 459.883 4.39905 5.54878 0
M  V30 4853 H 460.291 2.77708 4.91466 0
M  V30 4854 N 459.689 -1.00246 1.21608 0
M  V30 4855 C 460.636 -2.09073 0.977613 0
M  V30 4856 C 461.606 -1.65815 -0.097297 0
M  V30 4857 O 462.791 -1.90734 0.0503445 0
M  V30 4858 C 459.931 -3.40671 0.551133 0
M  V30 4859 C 459.044 -3.97326 1.69576 0
M  V30 4860 C 458.179 -5.17043 1.2182 0
M  V30 4861 C 457.218 -5.65813 2.335 0
M  V30 4862 N 456.355 -6.76778 1.86859 0
M  V30 4863 H 461.195 -2.28806 1.90924 0
M  V30 4864 H 458.732 -1.12186 0.951452 0
M  V30 4865 H 460.69 -4.16225 0.285097 0
M  V30 4866 H 459.32 -3.20967 -0.343489 0
M  V30 4867 H 458.372 -3.18734 2.07637 0
M  V30 4868 H 459.684 -4.29511 2.53617 0
M  V30 4869 H 458.838 -5.99852 0.908975 0
M  V30 4870 H 457.577 -4.86458 0.347869 0
M  V30 4871 H 456.582 -4.81599 2.65222 0
M  V30 4872 H 457.807 -5.98427 3.21033 0
M  V30 4873 H 455.753 -6.47994 1.02174 0
M  V30 4874 H 455.67 -7.08231 2.64471 0
M  V30 4875 H 456.938 -7.63116 1.58978 0
M  V30 4876 N 461.167 -1.02423 -1.1978 0
M  V30 4877 C 462.407 -0.726635 -1.91048 0
M  V30 4878 C 462.771 0.730947 -1.77542 0
M  V30 4879 O 463.972 1.14141 -2.43362 0
M  V30 4880 C 462.243 -1.15964 -3.38064 0
M  V30 4881 S 463.802 -0.985172 -4.27598 0
M  V30 4882 H 460.62 -0.264679 -0.659899 0
M  V30 4883 H 463.222 -1.31309 -1.44838 0
M  V30 4884 H 461.926 -2.21619 -3.45417 0
M  V30 4885 H 461.457 -0.566274 -3.89303 0
M  V30 4886 H 463.472 0.106946 -4.96085 0
M  V30 4887 N 462.645 1.35699 -0.801477 0
M  V30 4888 C 464.061 1.52065 -0.484596 0
M  V30 4889 C 464.261 1.75215 0.995084 0
M  V30 4890 O 463.317 1.79061 1.78026 0
M  V30 4891 C 464.63 2.69908 -1.32552 0
M  V30 4892 C 466.178 2.83784 -1.32044 0
M  V30 4893 C 466.653 4.04646 -2.14536 0
M  V30 4894 N 468.144 4.11814 -2.12046 0
M  V30 4895 C 468.879 5.04437 -2.72636 0
M  V30 4896 N 468.375 6.02426 -3.42133 0
M  V30 4897 N 470.168 4.97144 -2.62305 0
M  V30 4898 H 462.319 1.18928 -1.75983 0
M  V30 4899 H 464.582 0.581455 -0.748741 0
M  V30 4900 H 464.288 2.59363 -2.37537 0
M  V30 4901 H 464.162 3.64376 -0.975181 0
M  V30 4902 H 466.549 2.93783 -0.27846 0
M  V30 4903 H 466.63 1.90188 -1.71062 0
M  V30 4904 H 466.274 3.95407 -3.18772 0
M  V30 4905 H 466.204 4.97413 -1.72882 0
M  V30 4906 H 468.695 3.41664 -1.61476 0
M  V30 4907 H 469.008 6.69688 -3.85666 0
M  V30 4908 H 467.353 6.02615 -3.46237 0
M  V30 4909 H 470.544 4.19546 -2.07603 0
M  V30 4910 H 470.717 5.69138 -3.09815 0
M  V30 4911 N 464.123 0.554532 1.47522 0
M  V30 4912 C 465.539 0.214107 1.58157 0
M  V30 4913 C 465.739 -1.28331 1.55349 0
M  V30 4914 O 464.795 -2.06329 1.45549 0
M  V30 4915 C 466.108 0.838391 2.88776 0
M  V30 4916 C 467.656 0.809374 3.02354 0
M  V30 4917 C 468.131 1.41268 4.35669 0
M  V30 4918 N 469.622 1.37574 4.42298 0
M  V30 4919 C 470.357 1.8122 5.4401 0
M  V30 4920 N 469.853 2.3271 6.52547 0
M  V30 4921 N 471.646 1.72307 5.35039 0
M  V30 4922 H 463.797 1.52744 1.4759 0
M  V30 4923 H 466.06 0.636812 0.702264 0
M  V30 4924 H 465.766 1.89065 2.96559 0
M  V30 4925 H 465.64 0.329847 3.75755 0
M  V30 4926 H 468.027 -0.234187 2.94169 0
M  V30 4927 H 468.108 1.35565 2.16924 0
M  V30 4928 H 467.752 2.45529 4.4461 0
M  V30 4929 H 467.682 0.841871 5.19827 0
M  V30 4930 H 470.173 0.999081 3.64454 0
M  V30 4931 H 470.486 2.63944 7.26329 0
M  V30 4932 H 468.831 2.36719 6.53444 0
M  V30 4933 H 472.022 1.3186 4.49144 0
M  V30 4934 H 472.195 2.06641 6.14169 0
M  V30 4935 N 465.601 -1.54893 0.290851 0
M  V30 4936 C 467.012 -1.85584 -0.203816 0
M  V30 4937 C 467.363 -1.21285 -1.54222 0
M  V30 4938 O 466.488 -0.506841 -2.10381 0
M  V30 4939 C 467.083 -3.367 -0.376595 0
M  V30 4940 C 465.642 -3.6746 -0.815485 0
M  V30 4941 C 464.789 -2.77178 0.0821087 0
M  V30 4942 H 467.74 -1.50208 0.512175 0
M  V30 4943 H 467.761 -3.60656 -1.21275 0
M  V30 4944 H 467.273 -3.8347 0.59767 0
M  V30 4945 H 465.374 -3.26201 -1.80066 0
M  V30 4946 H 465.487 -4.7478 -0.641905 0
M  V30 4947 H 463.851 -2.50925 -0.436895 0
M  V30 4948 H 464.634 -3.26767 1.05254 0
M  V30 4949 N 467.08 -0.0183926 -1.57589 0
M  V30 4950 C 468.328 0.661253 -1.90976 0
M  V30 4951 C 468.649 1.73281 -0.894353 0
M  V30 4952 O 467.919 1.9579 0.0656788 0
M  V30 4953 H 466.499 0.247233 -0.704901 0
M  V30 4954 H 469.161 -0.0636639 -1.94796 0
M  V30 4955 H 468.257 1.12083 -2.9128 0
M  V30 4956 N 468.558 1.5553 0.254621 0
M  V30 4957 C 469.506 1.9048 1.33492 0
M  V30 4958 C 470.5 0.78304 1.50216 0
M  V30 4959 O 471.706 0.967582 1.51782 0
M  V30 4960 H 468.081 0.604846 0.44684 0
M  V30 4961 H 470.052 2.80688 1.01275 0
M  V30 4962 C 468.801 2.20928 2.68489 0
M  V30 4963 H 468.124 3.06742 2.56417 0
M  V30 4964 H 469.564 2.49291 3.42972 0
M  V30 4965 C 468.023 1.023 3.20993 0
M  V30 4966 O 468.553 0.267027 4.00811 0
M  V30 4967 N 466.759 0.815714 2.78917 0
M  V30 4968 H 466.306 1.43217 2.14119 0
M  V30 4969 H 466.264 0.0236532 3.14391 0
M  V30 4970 N 470.036 -0.519951 1.48776 0
M  V30 4971 C 470.983 -1.62352 1.64044 0
M  V30 4972 C 471.953 -1.58945 0.482251 0
M  V30 4973 O 473.138 -1.77219 0.706971 0
M  V30 4974 C 470.278 -3.00579 1.69547 0
M  V30 4975 C 469.391 -3.14145 2.96541 0
M  V30 4976 C 468.526 -4.42991 2.93142 0
M  V30 4977 C 467.565 -4.50122 4.14797 0
M  V30 4978 N 466.702 -5.7037 4.09418 0
M  V30 4979 H 471.542 -1.48643 2.58281 0
M  V30 4980 H 469.079 -0.723516 1.28077 0
M  V30 4981 H 471.037 -3.80671 1.70719 0
M  V30 4982 H 469.667 -3.13036 0.787918 0
M  V30 4983 H 468.719 -2.27239 3.05068 0
M  V30 4984 H 470.031 -3.15275 3.86527 0
M  V30 4985 H 469.185 -5.31385 2.92772 0
M  V30 4986 H 467.924 -4.44398 2.00902 0
M  V30 4987 H 466.929 -3.60133 4.15433 0
M  V30 4988 H 468.154 -4.50445 5.08208 0
M  V30 4989 H 466.1 -5.72655 3.20004 0
M  V30 4990 H 466.017 -5.73036 4.93119 0
M  V30 4991 H 467.285 -6.61023 4.13121 0
M  V30 4992 N 471.514 -1.37532 -0.769588 0
M  V30 4993 C 472.742 -1.36059 -1.55871 0
M  V30 4994 C 473.157 0.053544 -1.88724 0
M  V30 4995 O 472.514 1.01591 -1.5161 0
M  V30 4996 C 472.565 -2.20107 -2.86767 0
M  V30 4997 O 472.286 -3.56009 -2.55321 0
M  V30 4998 C 473.787 -2.26636 -3.80987 0
M  V30 4999 H 471.007 -0.465967 -0.482821 0
M  V30 5000 H 473.551 -1.80901 -0.953686 0
M  V30 5001 H 471.706 -1.78768 -3.43687 0
M  V30 5002 H 472.12 -4.0009 -3.39158 0
M  V30 5003 H 473.594 -2.89763 -4.69831 0
M  V30 5004 H 474.071 -1.2754 -4.20274 0
M  V30 5005 H 474.677 -2.68296 -3.29996 0
M  V30 5006 N 472.992 0.995999 -1.22138 0
M  V30 5007 C 474.238 1.73767 -1.04561 0
M  V30 5008 C 474.571 1.89633 0.418698 0
M  V30 5009 O 473.846 1.43723 1.3105 0
M  V30 5010 C 474.129 3.14505 -1.75382 0
M  V30 5011 C 473.982 3.06306 -3.29388 0
M  V30 5012 C 475.301 4.13615 -1.50369 0
M  V30 5013 H 472.42 0.630728 -0.38125 0
M  V30 5014 H 475.062 1.16057 -1.50435 0
M  V30 5015 H 473.212 3.63775 -1.36383 0
M  V30 5016 H 474.884 2.64681 -3.77812 0
M  V30 5017 H 473.127 2.43186 -3.59226 0
M  V30 5018 H 473.798 4.05884 -3.74116 0
M  V30 5019 H 476.274 3.73089 -1.84239 0
M  V30 5020 H 475.15 5.10212 -2.02421 0
M  V30 5021 H 475.411 4.39949 -0.435611 0
M  V30 5022 N 474.47 1.03057 1.19235 0
M  V30 5023 C 475.4 0.633497 2.24742 0
M  V30 5024 C 476.381 -0.358335 1.66283 0
M  V30 5025 O 477.566 -0.240676 1.92703 0
M  V30 5026 C 474.696 -0.0147648 3.47297 0
M  V30 5027 C 473.65 0.899527 4.18441 0
M  V30 5028 C 472.976 0.116281 5.34574 0
M  V30 5029 C 474.276 2.21404 4.73051 0
M  V30 5030 H 475.97 1.5155 2.58211 0
M  V30 5031 H 473.516 0.73014 1.24117 0
M  V30 5032 H 475.469 -0.304202 4.20301 0
M  V30 5033 H 474.193 -0.931577 3.13032 0
M  V30 5034 H 472.852 1.17319 3.47321 0
M  V30 5035 H 472.5 -0.802619 4.96555 0
M  V30 5036 H 472.2 0.725293 5.83107 0
M  V30 5037 H 473.724 -0.166376 6.10373 0
M  V30 5038 H 475.138 1.98601 5.37802 0
M  V30 5039 H 473.535 2.77512 5.32078 0
M  V30 5040 H 474.605 2.86752 3.91026 0
M  V30 5041 N 475.948 -1.35272 0.808662 0
M  V30 5042 C 477.359 -1.81179 0.450688 0
M  V30 5043 C 477.71 -1.67143 -1.02751 0
M  V30 5044 O 476.835 -1.20325 -1.79864 0
M  V30 5045 C 477.43 -3.28943 0.811275 0
M  V30 5046 C 475.989 -3.72985 0.505871 0
M  V30 5047 C 475.136 -2.57229 1.03578 0
M  V30 5048 H 478.087 -1.2322 1.00012 0
M  V30 5049 H 478.108 -3.80342 0.109588 0
M  V30 5050 H 477.62 -3.39127 1.88718 0
M  V30 5051 H 475.721 -3.68349 -0.561209 0
M  V30 5052 H 475.834 -4.67677 1.03995 0
M  V30 5053 H 474.198 -2.50548 0.458005 0
M  V30 5054 H 474.981 -2.7019 2.11784 0
M  V30 5055 N 477.426 -0.562348 -1.47226 0
M  V30 5056 C 478.672 -0.0402761 -2.0276 0
M  V30 5057 C 479.005 1.30823 -1.43523 0
M  V30 5058 O 478.28 1.85249 -0.592705 0
M  V30 5059 C 478.563 0.047311 -3.60069 0
M  V30 5060 C 478.416 -1.32865 -4.29729 0
M  V30 5061 C 479.735 0.758182 -4.3352 0
M  V30 5062 H 476.854 -0.0161105 -0.736824 0
M  V30 5063 H 479.496 -0.725628 -1.75598 0
M  V30 5064 H 477.646 0.630986 -3.83342 0
M  V30 5065 H 479.318 -1.95593 -4.17781 0
M  V30 5066 H 477.561 -1.90195 -3.89882 0
M  V30 5067 H 478.232 -1.22004 -5.38349 0
M  V30 5068 H 480.708 0.262546 -4.15271 0
M  V30 5069 H 479.584 0.78844 -5.43208 0
M  V30 5070 H 479.845 1.81537 -4.03109 0
M  V30 5071 N 478.904 1.54736 -0.299062 0
M  V30 5072 C 480.132 2.04512 0.313447 0
M  V30 5073 C 480.547 1.17643 1.47667 0
M  V30 5074 O 479.904 0.20164 1.81383 0
M  V30 5075 C 479.955 3.53171 0.771542 0
M  V30 5076 O 479.676 4.36736 -0.345379 0
M  V30 5077 C 481.177 4.18936 1.4494 0
M  V30 5078 H 478.397 0.667507 0.0683784 0
M  V30 5079 H 480.941 1.99752 -0.438129 0
M  V30 5080 H 479.096 3.58298 1.47314 0
M  V30 5081 H 479.51 5.24499 0.0109219 0
M  V30 5082 H 480.984 5.24482 1.72111 0
M  V30 5083 H 481.461 3.68554 2.38883 0
M  V30 5084 H 482.067 4.17879 0.791028 0
M  V30 5085 N 480.382 0.0267497 1.57577 0
M  V30 5086 C 481.631 -0.651736 1.9088 0
M  V30 5087 C 481.944 -1.73427 0.904576 0
M  V30 5088 O 483.15 -2.46923 1.12877 0
M  V30 5089 C 481.606 -1.21048 3.38933 0
M  V30 5090 C 481.214 -0.161362 4.47709 0
M  V30 5091 C 482.958 -1.86562 3.81307 0
M  V30 5092 C 480.865 -0.731611 5.86857 0
M  V30 5093 H 479.795 -0.247198 0.712326 0
M  V30 5094 H 482.446 0.0916641 1.83271 0
M  V30 5095 H 480.828 -2.00542 3.41466 0
M  V30 5096 H 482.002 0.61094 4.56732 0
M  V30 5097 H 480.317 0.394877 4.14523 0
M  V30 5098 H 482.914 -2.30178 4.8262 0
M  V30 5099 H 483.257 -2.70735 3.16241 0
M  V30 5100 H 483.79 -1.13762 3.81186 0
M  V30 5101 H 480.529 0.0719329 6.55461 0
M  V30 5102 H 480.049 -1.47245 5.81445 0
M  V30 5103 H 481.728 -1.22208 6.35354 0
M  V30 5104 N 481.861 -1.55662 -0.24637 0
M  V30 5105 C 482.794 -1.85332 -1.33143 0
M  V30 5106 C 483.772 -0.708464 -1.46354 0
M  V30 5107 O 484.956 -0.954274 -1.6256 0
M  V30 5108 C 482.083 -2.0385 -2.70487 0
M  V30 5109 C 481.129 -3.26488 -2.74423 0
M  V30 5110 S 481.962 -4.83124 -2.30979 0
M  V30 5111 C 483.118 -5.04647 -3.70246 0
M  V30 5112 H 483.351 -2.77077 -1.07777 0
M  V30 5113 H 480.884 -1.47776 -0.44738 0
M  V30 5114 H 482.842 -2.15202 -3.49569 0
M  V30 5115 H 481.503 -1.12947 -2.9309 0
M  V30 5116 H 480.696 -3.36413 -3.7529 0
M  V30 5117 H 480.298 -3.13864 -2.03385 0
M  V30 5118 H 482.59 -4.92023 -4.65746 0
M  V30 5119 H 483.533 -6.06625 -3.65255 0
M  V30 5120 H 483.941 -4.32491 -3.62784 0
M  V30 5121 N 483.339 0.512053 -1.4905 0
M  V30 5122 C 484.564 1.2959 -1.6193 0
M  V30 5123 C 484.989 1.85906 -0.286454 0
M  V30 5124 O 484.347 1.65312 0.744426 0
M  V30 5125 C 484.395 2.40987 -2.68249 0
M  V30 5126 O 483.499 3.44531 -2.26654 0
M  V30 5127 H 482.84 0.383053 -0.542371 0
M  V30 5128 H 485.37 0.614231 -1.95162 0
M  V30 5129 H 485.38 2.86913 -2.90078 0
M  V30 5130 H 484.055 1.99361 -3.65004 0
M  V30 5131 H 482.632 3.046 -2.15112 0
M  V30 5132 N 484.817 1.37938 0.762283 0
M  V30 5133 C 486.065 1.33404 1.51815 0
M  V30 5134 C 486.386 -0.0780975 1.94844 0
M  V30 5135 O 485.656 -1.02405 1.67003 0
M  V30 5136 H 484.236 0.490839 0.563104 0
M  V30 5137 H 486.898 1.72527 0.906669 0
M  V30 5138 H 485.994 1.97926 2.41313 0
M  V30 5139 N 486.295 -0.989507 1.22664 0
M  V30 5140 C 487.225 -2.09847 1.02404 0
M  V30 5141 C 488.206 -1.70007 -0.0561303 0
M  V30 5142 O 489.391 -1.93906 0.106748 0
M  V30 5143 C 486.521 -3.41996 0.604663 0
M  V30 5144 C 485.475 -3.95699 1.63115 0
M  V30 5145 C 484.801 -5.23936 1.0675 0
M  V30 5146 C 486.101 -4.25999 3.02196 0
M  V30 5147 H 487.795 -2.27054 1.95158 0
M  V30 5148 H 485.341 -1.09111 0.939727 0
M  V30 5149 H 487.294 -4.1899 0.45002 0
M  V30 5150 H 486.018 -3.24626 -0.35855 0
M  V30 5151 H 484.677 -3.2084 1.77362 0
M  V30 5152 H 484.325 -5.02909 0.0955422 0
M  V30 5153 H 484.025 -5.60833 1.75328 0
M  V30 5154 H 485.549 -6.0356 0.924516 0
M  V30 5155 H 486.963 -4.93777 2.91303 0
M  V30 5156 H 485.36 -4.74076 3.67929 0
M  V30 5157 H 486.43 -3.33636 3.51873 0
M  V30 5158 N 487.773 -1.03688 -1.18687 0
M  V30 5159 C 489.019 -0.739123 -1.88851 0
M  V30 5160 C 489.352 0.731042 -1.79915 0
M  V30 5161 O 488.627 1.53313 -1.19688 0
M  V30 5162 C 488.91 -1.20106 -3.3948 0
M  V30 5163 C 488.763 -2.73304 -3.57246 0
M  V30 5164 C 490.082 -0.788134 -4.32986 0
M  V30 5165 H 487.201 -0.269978 -0.68577 0
M  V30 5166 H 489.843 -1.28822 -1.3966 0
M  V30 5167 H 487.993 -0.733915 -3.81505 0
M  V30 5168 H 489.665 -3.28027 -3.24339 0
M  V30 5169 H 487.908 -3.13313 -3.00029 0
M  V30 5170 H 488.579 -3.00684 -4.62918 0
M  V30 5171 H 491.055 -1.19005 -3.98719 0
M  V30 5172 H 489.931 -1.13915 -5.36949 0
M  V30 5173 H 490.192 0.308988 -4.41019 0
M  V30 5174 N 489.251 1.34841 -0.815825 0
M  V30 5175 C 490.498 1.98499 -0.400535 0
M  V30 5176 C 490.826 1.64699 1.03463 0
M  V30 5177 O 490.081 0.907006 1.73412 0
M  V30 5178 C 490.38 3.53273 -0.541541 0
M  V30 5179 C 490.046 4.06966 -1.94138 0
M  V30 5180 C 488.708 4.21341 -2.32433 0
M  V30 5181 C 491.06 4.35933 -2.85677 0
M  V30 5182 C 488.388 4.62007 -3.61617 0
M  V30 5183 C 490.74 4.78042 -4.14317 0
M  V30 5184 C 489.404 4.90622 -4.52599 0
M  V30 5185 H 488.674 0.72636 -0.146566 0
M  V30 5186 H 491.321 1.60902 -1.0384 0
M  V30 5187 H 489.626 3.91387 0.179741 0
M  V30 5188 H 491.323 4.00497 -0.20085 0
M  V30 5189 H 487.913 3.96235 -1.63388 0
M  V30 5190 H 492.097 4.24372 -2.57337 0
M  V30 5191 H 487.353 4.69937 -3.91113 0
M  V30 5192 H 491.527 4.99415 -4.85342 0
M  V30 5193 H 489.154 5.2189 -5.52752 0
M  V30 5194 N 490.729 0.570148 1.46925 0
M  V30 5195 C 491.679 -0.190921 2.27199 0
M  V30 5196 C 492.663 -0.873457 1.35128 0
M  V30 5197 O 493.855 -0.769627 1.59392 0
M  V30 5198 C 490.984 -1.21204 3.21192 0
M  V30 5199 C 490.07 -0.532261 4.20747 0
M  V30 5200 N 490.461 0.405038 5.04176 0
M  V30 5201 C 488.759 -0.784582 4.39045 0
M  V30 5202 C 489.46 0.801149 5.76157 0
M  V30 5203 N 488.436 0.153082 5.43384 0
M  V30 5204 H 492.238 0.529535 2.8909 0
M  V30 5205 H 489.752 0.391019 1.57622 0
M  V30 5206 H 491.749 -1.77135 3.77398 0
M  V30 5207 H 490.409 -1.93345 2.6086 0
M  V30 5208 H 491.42 0.779903 5.11994 0
M  V30 5209 H 488.097 -1.49352 3.89872 0
M  V30 5210 H 489.487 1.57208 6.5325 0
M  V30 5211 N 492.207 -1.54576 0.307264 0
M  V30 5212 C 493.432 -2.05139 -0.305379 0
M  V30 5213 C 493.857 -1.18278 -1.46259 0
M  V30 5214 O 493.215 -0.188243 -1.8032 0
M  V30 5215 C 493.263 -3.53066 -0.733283 0
M  V30 5216 O 492.367 -3.69206 -1.83741 0
M  V30 5217 H 491.708 -0.661444 -0.0582105 0
M  V30 5218 H 494.238 -1.99569 0.450931 0
M  V30 5219 H 494.248 -3.95034 -1.02039 0
M  V30 5220 H 492.923 -4.15746 0.113198 0
M  V30 5221 H 491.5 -3.39143 -1.55037 0
M  V30 5222 N 493.685 -0.035106 -1.57561 0
M  V30 5223 C 494.617 0.973604 -2.07494 0
M  V30 5224 C 495.63 1.28504 -0.999534 0
M  V30 5225 O 496.819 1.24864 -1.27559 0
M  V30 5226 C 493.919 2.29945 -2.48955 0
M  V30 5227 C 493.092 2.1723 -3.79644 0
M  V30 5228 C 492.151 3.328 -4.07592 0
M  V30 5229 O 491.177 3.09418 -4.77754 0
M  V30 5230 N 492.379 4.56779 -3.58236 0
M  V30 5231 H 495.144 0.547525 -2.94656 0
M  V30 5232 H 492.705 0.151515 -1.61189 0
M  V30 5233 H 494.697 3.06097 -2.64739 0
M  V30 5234 H 493.267 2.64173 -1.67126 0
M  V30 5235 H 492.487 1.25768 -3.73599 0
M  V30 5236 H 493.775 2.05945 -4.65257 0
M  V30 5237 H 493.173 4.78668 -3.01485 0
M  V30 5238 H 491.73 5.30079 -3.79288 0
M  V30 5239 N 495.163 1.55791 0.238111 0
M  V30 5240 C 496.574 1.68383 0.806472 0
M  V30 5241 C 496.925 0.634157 1.85669 0
M  V30 5242 O 496.05 -0.217913 2.153 0
M  V30 5243 C 496.645 3.05268 1.46959 0
M  V30 5244 C 495.204 3.1977 1.98555 0
M  V30 5245 C 494.351 2.64279 0.839763 0
M  V30 5246 H 497.302 1.58694 0.0137535 0
M  V30 5247 H 497.323 3.00203 2.33792 0
M  V30 5248 H 496.835 3.81643 0.704993 0
M  V30 5249 H 494.936 2.48234 2.77868 0
M  V30 5250 H 495.049 4.26788 2.17689 0
M  V30 5251 H 493.413 2.22329 1.24265 0
M  V30 5252 H 494.196 3.43187 0.0881032 0
M  V30 5253 N 496.642 -0.504142 1.49319 0
M  V30 5254 C 497.572 -1.61473 1.68667 0
M  V30 5255 C 498.553 -1.61455 0.535378 0
M  V30 5256 O 499.738 -1.78245 0.770868 0
M  V30 5257 C 496.868 -2.99971 1.75028 0
M  V30 5258 C 495.822 -3.14854 2.89916 0
M  V30 5259 C 495.148 -4.54671 2.81387 0
M  V30 5260 C 496.448 -2.95176 4.30893 0
M  V30 5261 H 498.142 -1.45535 2.61648 0
M  V30 5262 H 495.688 -0.698711 1.25913 0
M  V30 5263 H 497.641 -3.77562 1.8715 0
M  V30 5264 H 496.365 -3.1699 0.786441 0
M  V30 5265 H 495.024 -2.39687 2.77391 0
M  V30 5266 H 494.672 -4.68562 1.82917 0
M  V30 5267 H 494.372 -4.6557 3.58494 0
M  V30 5268 H 495.896 -5.34327 2.95512 0
M  V30 5269 H 497.31 -3.62538 4.44116 0
M  V30 5270 H 495.707 -3.17549 5.09198 0
M  V30 5271 H 496.777 -1.91332 4.45556 0
M  V30 5272 N 498.12 -1.38341 -0.754957 0
M  V30 5273 C 499.348 -1.37704 -1.54419 0
M  V30 5274 C 499.763 0.0335243 -1.8877 0
M  V30 5275 O 499.12 0.999773 -1.52679 0
M  V30 5276 C 499.171 -2.23136 -2.84416 0
M  V30 5277 O 498.892 -3.58697 -2.51531 0
M  V30 5278 C 500.393 -2.30664 -3.78562 0
M  V30 5279 H 497.613 -0.471061 -0.477852 0
M  V30 5280 H 500.157 -1.81902 -0.934446 0
M  V30 5281 H 498.312 -1.82403 -3.41772 0
M  V30 5282 H 498.726 -4.03665 -3.34896 0
M  V30 5283 H 500.2 -2.9473 -4.66732 0
M  V30 5284 H 500.677 -1.3199 -4.18898 0
M  V30 5285 H 501.283 -2.71781 -3.27131 0
M  V30 5286 N 499.598 0.982988 -1.23187 0
M  V30 5287 C 500.875 1.69814 -0.970707 0
M  V30 5288 C 501.255 2.04811 0.511424 0
M  V30 5289 O 500.603 1.73924 1.48198 0
M  V30 5290 C 500.813 2.94143 -1.87831 0
M  V30 5291 C 502.161 3.66712 -2.14026 0
M  V30 5292 O 503.185 3.04171 -1.8536 0
M  V30 5293 O 502.044 4.79258 -2.62629 0
M  V30 5294 H 499.138 0.741659 -0.365884 0
M  V30 5295 H 501.684 1.03844 -1.34218 0
M  V30 5296 H 500.456 2.64858 -2.88038 0
M  V30 5297 H 500.079 3.6785 -1.50905 0
M  V30 5298 N 501.076 1.04316 1.18135 0
M  V30 5299 C 502.492 0.762858 1.40188 0
M  V30 5300 C 502.692 -0.646547 1.90846 0
M  V30 5301 O 501.748 -1.41036 2.0944 0
M  V30 5302 C 503.061 1.81106 2.40044 0
M  V30 5303 C 504.609 1.83226 2.53766 0
M  V30 5304 C 505.084 2.87044 3.56889 0
M  V30 5305 N 506.575 2.85951 3.64398 0
M  V30 5306 C 507.31 3.62932 4.43923 0
M  V30 5307 N 506.806 4.49672 5.27036 0
M  V30 5308 N 508.599 3.51411 4.38711 0
M  V30 5309 H 500.75 1.95264 0.835805 0
M  V30 5310 H 503.013 0.845017 0.429709 0
M  V30 5311 H 502.719 2.82214 2.09876 0
M  V30 5312 H 502.593 1.64529 3.39426 0
M  V30 5313 H 504.98 0.827869 2.8325 0
M  V30 5314 H 505.061 2.03879 1.54489 0
M  V30 5315 H 504.705 3.87663 3.28145 0
M  V30 5316 H 504.635 2.63645 4.5585 0
M  V30 5317 H 507.126 2.23051 3.05052 0
M  V30 5318 H 507.439 5.05116 5.84874 0
M  V30 5319 H 505.784 4.53738 5.26447 0
M  V30 5320 H 508.975 2.83047 3.72829 0
M  V30 5321 H 509.148 4.11654 5.00445 0
M  V30 5322 N 502.554 -1.34406 0.822964 0
M  V30 5323 C 503.965 -1.8069 0.469879 0
M  V30 5324 C 504.316 -1.68223 -1.00972 0
M  V30 5325 O 503.441 -1.22226 -1.78577 0
M  V30 5326 C 504.036 -3.28064 0.846118 0
M  V30 5327 C 502.595 -3.72428 0.545402 0
M  V30 5328 C 501.742 -2.56116 1.06301 0
M  V30 5329 H 504.693 -1.22153 1.01313 0
M  V30 5330 H 504.714 -3.80205 0.149922 0
M  V30 5331 H 504.226 -3.37107 1.92304 0
M  V30 5332 H 502.327 -3.68924 -0.522109 0
M  V30 5333 H 502.44 -4.66548 1.0895 0
M  V30 5334 H 500.804 -2.50048 0.484554 0
M  V30 5335 H 501.587 -2.67928 2.14638 0
M  V30 5336 N 504.032 -0.577932 -1.46621 0
M  V30 5337 C 504.979 0.158048 -2.30258 0
M  V30 5338 C 505.949 0.888669 -1.40328 0
M  V30 5339 O 507.134 0.880283 -1.6928 0
M  V30 5340 C 504.274 1.16884 -3.24703 0
M  V30 5341 C 503.387 0.442163 -4.29731 0
M  V30 5342 C 502.522 1.44007 -5.11308 0
M  V30 5343 C 501.561 0.69952 -6.0809 0
M  V30 5344 N 500.698 1.64525 -6.82551 0
M  V30 5345 H 505.538 -0.561242 -2.92667 0
M  V30 5346 H 503.075 -0.288591 -1.44241 0
M  V30 5347 H 505.033 1.7677 -3.779 0
M  V30 5348 H 503.663 1.85591 -2.64113 0
M  V30 5349 H 502.715 -0.271632 -3.79429 0
M  V30 5350 H 504.027 -0.136992 -4.98612 0
M  V30 5351 H 503.181 2.11186 -5.68758 0
M  V30 5352 H 501.92 2.05315 -4.42377 0
M  V30 5353 H 500.925 0.0139217 -5.49798 0
M  V30 5354 H 502.15 0.091894 -6.79038 0
M  V30 5355 H 500.096 2.24653 -6.16334 0
M  V30 5356 H 500.013 1.11878 -7.47676 0
M  V30 5357 H 501.281 2.30754 -7.44562 0
M  V30 5358 N 505.51 1.54411 -0.315457 0
M  V30 5359 C 506.442 2.21527 0.588067 0
M  V30 5360 C 507.455 1.21263 1.08624 0
M  V30 5361 O 508.644 1.47777 1.00121 0
M  V30 5362 C 505.744 2.85963 1.81875 0
M  V30 5363 C 504.917 4.12291 1.46063 0
M  V30 5364 C 503.976 4.60396 2.54799 0
M  V30 5365 O 503.002 5.25265 2.19283 0
M  V30 5366 N 504.204 4.33935 3.85591 0
M  V30 5367 H 506.969 2.99697 0.013414 0
M  V30 5368 H 504.53 1.61308 -0.138295 0
M  V30 5369 H 506.522 3.15071 2.53993 0
M  V30 5370 H 505.092 2.11548 2.30144 0
M  V30 5371 H 504.312 3.90036 0.571445 0
M  V30 5372 H 505.6 4.9452 1.19695 0
M  V30 5373 H 504.998 3.81996 4.17248 0
M  V30 5374 H 503.555 4.67718 4.53964 0
M  V30 5375 N 506.988 0.0434614 1.5754 0
M  V30 5376 C 507.951 -0.918696 2.09982 0
M  V30 5377 C 508.951 -1.24488 1.01781 0
M  V30 5378 O 510.141 -1.18284 1.27885 0
M  V30 5379 C 507.273 -2.23093 2.57764 0
M  V30 5380 H 508.466 -0.464229 2.96285 0
M  V30 5381 H 506.019 -0.204818 1.54952 0
M  V30 5382 H 506.754 -2.73137 1.74832 0
M  V30 5383 H 506.539 -2.00724 3.36827 0
M  V30 5384 H 508.029 -2.92028 2.98512 0
M  V30 5385 N 508.466 -1.55915 -0.229846 0
M  V30 5386 C 509.712 -1.79718 -0.952517 0
M  V30 5387 C 510.067 -0.61514 -1.82301 0
M  V30 5388 O 509.36 0.391098 -1.87566 0
M  V30 5389 C 509.554 -3.06845 -1.8325 0
M  V30 5390 C 509.383 -4.37302 -1.04868 0
M  V30 5391 C 508.153 -4.99749 -0.746932 0
M  V30 5392 C 510.351 -5.12599 -0.417989 0
M  V30 5393 N 508.333 -6.13871 0.0591596 0
M  V30 5394 C 509.704 -6.19488 0.251879 0
M  V30 5395 C 511.759 -4.96804 -0.33018 0
M  V30 5396 C 510.462 -7.12299 1.00115 0
M  V30 5397 C 512.488 -5.90007 0.4056 0
M  V30 5398 C 511.85 -6.96317 1.06404 0
M  V30 5399 H 507.949 -0.709382 -0.329091 0
M  V30 5400 H 510.533 -1.93406 -0.224114 0
M  V30 5401 H 508.704 -2.94456 -2.53279 0
M  V30 5402 H 510.436 -3.18874 -2.49202 0
M  V30 5403 H 507.191 -4.61518 -1.06292 0
M  V30 5404 H 507.615 -6.75497 0.450798 0
M  V30 5405 H 512.257 -4.14675 -0.824898 0
M  V30 5406 H 509.975 -7.93916 1.50741 0
M  V30 5407 H 513.561 -5.79862 0.474436 0
M  V30 5408 H 512.441 -7.67194 1.62429 0
M  V30 5409 N 509.944 0.496216 -1.49584 0
M  V30 5410 C 511.184 1.26015 -1.60933 0
M  V30 5411 C 511.548 1.89772 -0.291646 0
M  V30 5412 O 512.749 2.67334 -0.280357 0
M  V30 5413 C 511.02 2.29506 -2.73974 0
M  V30 5414 S 512.579 3.15175 -3.05303 0
M  V30 5415 H 509.397 0.428194 -0.567601 0
M  V30 5416 H 511.999 0.561484 -1.87263 0
M  V30 5417 H 510.703 1.81205 -3.68229 0
M  V30 5418 H 510.234 3.04036 -2.49651 0
M  V30 5419 H 512.249 4.30244 -2.47193 0
M  V30 5420 N 511.423 1.38739 0.74761 0
M  V30 5421 C 512.669 1.3648 1.50814 0
M  V30 5422 C 513.024 -0.0431982 1.92351 0
M  V30 5423 O 512.317 -1.0071 1.62997 0
M  V30 5424 C 512.511 2.25992 2.7688 0
M  V30 5425 C 512.34 3.75354 2.47668 0
M  V30 5426 C 511.11 4.44348 2.40589 0
M  V30 5427 C 513.308 4.67642 2.14046 0
M  V30 5428 N 511.29 5.79114 2.03715 0
M  V30 5429 C 512.661 5.90965 1.87512 0
M  V30 5430 C 514.716 4.55787 2.00407 0
M  V30 5431 C 513.419 7.03759 1.48714 0
M  V30 5432 C 515.445 5.68491 1.63011 0
M  V30 5433 C 514.807 6.90879 1.37353 0
M  V30 5434 H 510.906 0.554695 0.551214 0
M  V30 5435 H 513.49 1.7418 0.870033 0
M  V30 5436 H 511.661 1.9047 3.3849 0
M  V30 5437 H 513.393 2.14815 3.42982 0
M  V30 5438 H 510.148 3.97634 2.57262 0
M  V30 5439 H 510.572 6.504 1.87906 0
M  V30 5440 H 515.214 3.61712 2.18916 0
M  V30 5441 H 512.932 7.97746 1.28945 0
M  V30 5442 H 516.518 5.613 1.53081 0
M  V30 5443 H 515.398 7.76609 1.08848 0
M  V30 5444 N 512.901 -0.976442 1.23707 0
M  V30 5445 C 514.148 -1.71827 1.07153 0
M  V30 5446 C 514.476 -1.9053 -0.390982 0
M  V30 5447 O 513.731 -1.45779 -1.30564 0
M  V30 5448 C 514.03 -3.11814 1.74662 0
M  V30 5449 C 513.696 -3.12978 3.24585 0
M  V30 5450 C 512.358 -3.13003 3.6549 0
M  V30 5451 C 514.71 -3.07986 4.20469 0
M  V30 5452 C 512.038 -3.05757 5.00729 0
M  V30 5453 C 514.39 -3.02282 5.55705 0
M  V30 5454 C 513.054 -3.00631 5.95968 0
M  V30 5455 H 512.324 -0.628758 0.392102 0
M  V30 5456 H 514.971 -1.14239 1.53693 0
M  V30 5457 H 513.276 -3.72812 1.20492 0
M  V30 5458 H 514.973 -3.67989 1.59328 0
M  V30 5459 H 511.563 -3.13718 2.92026 0
M  V30 5460 H 515.747 -3.07103 3.89874 0
M  V30 5461 H 511.003 -3.02834 5.31132 0
M  V30 5462 H 515.177 -2.97376 6.29714 0
M  V30 5463 H 512.804 -2.94771 7.00724 0
M  V30 5464 N 514.379 -1.04941 -1.1758 0
M  V30 5465 C 515.627 -0.756492 -1.87408 0
M  V30 5466 C 515.948 0.718478 -1.81281 0
M  V30 5467 O 515.218 1.519 -1.23706 0
M  V30 5468 H 513.798 -0.276841 -0.693807 0
M  V30 5469 H 516.46 -1.32803 -1.42652 0
M  V30 5470 H 515.556 -1.06918 -2.93215 0
M  V30 5471 N 515.857 1.33968 -0.830081 0
M  V30 5472 C 517.105 1.97672 -0.420734 0
M  V30 5473 C 517.426 1.66111 1.02138 0
M  V30 5474 O 516.696 0.955503 1.71017 0
M  V30 5475 H 515.276 0.73125 -0.152587 0
M  V30 5476 H 517.938 1.63483 -1.0611 0
M  V30 5477 H 517.034 3.07294 -0.545588 0
M  V30 5478 N 517.335 0.585699 1.46312 0
M  V30 5479 C 518.282 -0.145835 2.30339 0
M  V30 5480 C 519.252 -0.881215 1.40797 0
M  V30 5481 O 520.437 -0.871293 1.69744 0
M  V30 5482 C 517.577 -1.15161 3.25318 0
M  V30 5483 C 516.69 -0.419367 4.2996 0
M  V30 5484 C 515.825 -1.41293 5.12064 0
M  V30 5485 C 514.864 -0.667261 6.08452 0
M  V30 5486 N 514.001 -1.60903 6.83414 0
M  V30 5487 H 518.841 0.576755 2.92365 0
M  V30 5488 H 516.378 0.296237 1.44086 0
M  V30 5489 H 518.336 -1.74763 3.78832 0
M  V30 5490 H 516.966 -1.84188 2.65094 0
M  V30 5491 H 516.018 0.291751 3.7928 0
M  V30 5492 H 517.33 0.163433 4.98532 0
M  V30 5493 H 516.484 -2.08167 5.6987 0
M  V30 5494 H 515.223 -2.02966 4.43459 0
M  V30 5495 H 514.228 0.0152356 5.49798 0
M  V30 5496 H 515.453 -0.0558817 6.79077 0
M  V30 5497 H 513.399 -2.21381 6.17516 0
M  V30 5498 H 513.316 -1.07911 7.48259 0
M  V30 5499 H 514.584 -2.26802 7.45775 0
M  V30 5500 N 518.813 -1.54241 0.323641 0
M  V30 5501 C 520.059 -2.01572 -0.272089 0
M  V30 5502 C 520.414 -1.20774 -1.49771 0
M  V30 5503 O 519.707 -0.281821 -1.89516 0
M  V30 5504 C 519.901 -3.5129 -0.658031 0
M  V30 5505 C 519.73 -4.46582 0.528645 0
M  V30 5506 C 518.5 -4.94737 1.02777 0
M  V30 5507 C 520.698 -4.95416 1.38086 0
M  V30 5508 N 518.68 -5.73933 2.17885 0
M  V30 5509 C 520.051 -5.72537 2.3791 0
M  V30 5510 C 522.106 -4.77559 1.40861 0
M  V30 5511 C 520.809 -6.33702 3.40314 0
M  V30 5512 C 522.835 -5.39559 2.42136 0
M  V30 5513 C 522.197 -6.16532 3.40688 0
M  V30 5514 H 518.296 -0.779425 -0.0634072 0
M  V30 5515 H 520.88 -1.8922 0.458697 0
M  V30 5516 H 519.051 -3.63888 -1.35795 0
M  V30 5517 H 520.783 -3.85388 -1.23524 0
M  V30 5518 H 517.538 -4.69796 0.599046 0
M  V30 5519 H 517.962 -6.18209 2.75947 0
M  V30 5520 H 522.604 -4.17611 0.660352 0
M  V30 5521 H 520.322 -6.9277 4.16047 0
M  V30 5522 H 523.908 -5.27659 2.45086 0
M  V30 5523 H 522.788 -6.63655 4.1777 0
M  V30 5524 N 520.291 -0.0518155 -1.57515 0
M  V30 5525 C 521.238 0.922352 -2.11569 0
M  V30 5526 C 522.208 1.30842 -1.02321 0
M  V30 5527 O 523.393 1.39778 -1.29872 0
M  V30 5528 C 520.533 2.19167 -2.6657 0
M  V30 5529 C 519.646 1.86003 -3.89906 0
M  V30 5530 C 518.781 3.07398 -4.33221 0
M  V30 5531 C 517.82 2.70158 -5.49255 0
M  V30 5532 N 516.957 3.84248 -5.8762 0
M  V30 5533 H 521.797 0.454506 -2.94514 0
M  V30 5534 H 519.334 0.212718 -1.45554 0
M  V30 5535 H 521.292 2.93443 -2.96559 0
M  V30 5536 H 519.922 2.63528 -1.86421 0
M  V30 5537 H 518.974 1.01874 -3.66505 0
M  V30 5538 H 520.286 1.54592 -4.74239 0
M  V30 5539 H 519.44 3.89972 -4.64765 0
M  V30 5540 H 518.179 3.41988 -3.477 0
M  V30 5541 H 517.184 1.86001 -5.17382 0
M  V30 5542 H 518.409 2.36759 -6.36492 0
M  V30 5543 H 516.355 4.18638 -5.05053 0
M  V30 5544 H 516.272 3.56538 -6.66646 0
M  V30 5545 H 517.54 4.6746 -6.2378 0
M  V30 5546 N 521.769 1.56035 0.221574 0
M  V30 5547 C 523.046 1.69837 0.970301 0
M  V30 5548 C 523.426 0.599065 2.02421 0
M  V30 5549 O 522.774 -0.393929 2.25079 0
M  V30 5550 C 522.984 3.11148 1.58076 0
M  V30 5551 C 524.332 3.70555 2.07302 0
M  V30 5552 O 525.356 3.14109 1.6797 0
M  V30 5553 O 524.215 4.69562 2.79596 0
M  V30 5554 H 521.309 0.691727 0.453257 0
M  V30 5555 H 523.855 1.68353 0.213358 0
M  V30 5556 H 522.627 3.82617 0.819759 0
M  V30 5557 H 522.25 3.16749 2.40324 0
M  V30 5558 N 523.247 -0.488276 1.49845 0
M  V30 5559 C 524.21 -1.57069 1.66919 0
M  V30 5560 C 525.21 -1.51445 0.540479 0
M  V30 5561 O 526.4 -1.5437 0.807188 0
M  V30 5562 C 523.532 -2.96718 1.67844 0
M  V30 5563 H 524.725 -1.43254 2.63474 0
M  V30 5564 H 522.278 -0.713435 1.39068 0
M  V30 5565 H 523.013 -3.15996 0.7292 0
M  V30 5566 H 522.798 -3.02208 2.49826 0
M  V30 5567 H 524.288 -3.75335 1.83066 0
M  V30 5568 N 524.725 -1.39134 -0.740242 0
M  V30 5569 C 525.974 -1.35384 -1.49512 0
M  V30 5570 C 526.287 0.04919 -1.95538 0
M  V30 5571 O 527.493 0.209257 -2.70692 0
M  V30 5572 C 525.949 -2.37812 -2.70136 0
M  V30 5573 C 525.557 -3.83804 -2.31081 0
M  V30 5574 C 527.301 -2.4313 -3.47977 0
M  V30 5575 C 525.208 -4.77886 -3.48395 0
M  V30 5576 H 524.138 -0.503297 -0.561434 0
M  V30 5577 H 526.789 -1.64754 -0.807974 0
M  V30 5578 H 525.171 -2.01505 -3.40899 0
M  V30 5579 H 526.345 -4.29123 -1.67898 0
M  V30 5580 H 524.66 -3.81732 -1.66343 0
M  V30 5581 H 527.257 -3.10614 -4.35228 0
M  V30 5582 H 527.6 -1.45423 -3.90074 0
M  V30 5583 H 528.133 -2.78304 -2.84239 0
M  V30 5584 H 524.872 -5.76836 -3.11353 0
M  V30 5585 H 524.392 -4.3725 -4.10576 0
M  V30 5586 H 526.071 -4.96538 -4.148 0
M  V30 5587 N 526.204 0.969867 -1.24223 0
M  V30 5588 C 527.151 2.06407 -1.0327 0
M  V30 5589 C 528.121 1.66014 0.0533 0
M  V30 5590 O 529.306 1.90533 -0.100896 0
M  V30 5591 C 526.446 3.3909 -0.641262 0
M  V30 5592 C 525.559 3.9269 -1.80051 0
M  V30 5593 C 524.694 5.13631 -1.35486 0
M  V30 5594 C 523.733 5.59423 -2.48419 0
M  V30 5595 N 522.87 6.71586 -2.04737 0
M  V30 5596 H 527.71 2.23663 -1.96923 0
M  V30 5597 H 525.247 1.09624 -0.980862 0
M  V30 5598 H 527.205 4.15323 -0.395351 0
M  V30 5599 H 525.835 3.21765 0.258269 0
M  V30 5600 H 524.887 3.13116 -2.16014 0
M  V30 5601 H 526.199 4.22636 -2.64916 0
M  V30 5602 H 525.353 5.97231 -1.0677 0
M  V30 5603 H 524.092 4.85364 -0.476722 0
M  V30 5604 H 523.097 4.74398 -2.77897 0
M  V30 5605 H 524.322 5.89705 -3.36786 0
M  V30 5606 H 522.268 6.45058 -1.19318 0
M  V30 5607 H 522.185 7.0097 -2.83156 0
M  V30 5608 H 523.453 7.58633 -1.79154 0
M  V30 5609 N 527.682 1.05563 1.17022 0
M  V30 5610 C 528.592 0.670758 2.24807 0
M  V30 5611 C 529.608 -0.309865 1.71219 0
M  V30 5612 O 530.784 -0.161025 2.00755 0
M  V30 5613 C 527.849 0.055337 3.46656 0
M  V30 5614 C 526.91 1.08688 4.15314 0
M  V30 5615 C 526.143 0.500736 5.31346 0
M  V30 5616 O 526.366 -0.688718 5.66227 0
M  V30 5617 O 525.3 1.23683 5.89055 0
M  V30 5618 H 529.126 1.56914 2.60023 0
M  V30 5619 H 526.711 0.827428 1.24395 0
M  V30 5620 H 528.593 -0.286492 4.20425 0
M  V30 5621 H 527.268 -0.816638 3.13229 0
M  V30 5622 H 526.175 1.48077 3.43546 0
M  V30 5623 H 527.508 1.93014 4.52777 0
M  V30 5624 N 529.16 -1.33526 0.837174 0
M  V30 5625 C 530.406 -1.9813 0.432704 0
M  V30 5626 C 530.739 -1.66168 -1.00508 0
M  V30 5627 O 530.014 -0.94069 -1.70239 0
M  V30 5628 C 530.297 -3.54151 0.651834 0
M  V30 5629 C 530.15 -3.95806 2.13676 0
M  V30 5630 C 531.469 -4.39993 0.0968937 0
M  V30 5631 H 528.588 -0.719713 0.15869 0
M  V30 5632 H 531.23 -1.58193 1.05237 0
M  V30 5633 H 529.38 -3.88301 0.124369 0
M  V30 5634 H 531.052 -3.71921 2.72896 0
M  V30 5635 H 529.295 -3.45599 2.62191 0
M  V30 5636 H 529.966 -5.0447 2.24084 0
M  V30 5637 H 532.442 -4.12479 0.547733 0
M  V30 5638 H 531.318 -5.48186 0.279917 0
M  V30 5639 H 531.579 -4.3066 -0.9992 0
M  V30 5640 N 530.638 -0.59345 -1.46 0
M  V30 5641 C 531.585 0.133618 -2.30413 0
M  V30 5642 C 532.555 0.873736 -1.41262 0
M  V30 5643 O 533.74 0.862279 -1.70204 0
M  V30 5644 C 530.88 1.13434 -3.25924 0
M  V30 5645 C 529.993 0.39656 -4.30176 0
M  V30 5646 C 529.128 1.38575 -5.12806 0
M  V30 5647 C 528.167 0.634984 -6.08797 0
M  V30 5648 N 527.304 1.57276 -6.84258 0
M  V30 5649 H 532.144 -0.592252 -2.92055 0
M  V30 5650 H 529.681 -0.303874 -1.43927 0
M  V30 5651 H 531.639 1.72752 -3.79753 0
M  V30 5652 H 530.269 1.82779 -2.66067 0
M  V30 5653 H 529.321 -0.311861 -3.79119 0
M  V30 5654 H 530.633 -0.189869 -4.98438 0
M  V30 5655 H 529.787 2.05141 -5.70966 0
M  V30 5656 H 528.526 2.00611 -4.44529 0
M  V30 5657 H 527.531 -0.0443925 -5.49782 0
M  V30 5658 H 528.756 0.0198678 -6.79097 0
M  V30 5659 H 526.702 2.18103 -6.18682 0
M  V30 5660 H 526.619 1.03941 -7.48821 0
M  V30 5661 H 527.887 2.22844 -7.46968 0
M  V30 5662 N 532.116 1.54067 -0.331816 0
M  V30 5663 C 533.048 2.22139 0.564538 0
M  V30 5664 C 534.061 1.22408 1.07332 0
M  V30 5665 O 535.25 1.4883 0.985481 0
M  V30 5666 C 532.35 2.87876 1.78831 0
M  V30 5667 C 531.523 4.13817 1.41682 0
M  V30 5668 C 530.582 4.63072 2.49901 0
M  V30 5669 O 529.608 5.27562 2.13699 0
M  V30 5670 N 530.81 4.38001 3.80967 0
M  V30 5671 H 533.575 2.99694 -0.0183736 0
M  V30 5672 H 531.136 1.61153 -0.155396 0
M  V30 5673 H 533.128 3.17747 2.50637 0
M  V30 5674 H 531.698 2.13977 2.27887 0
M  V30 5675 H 530.918 3.9062 0.530044 0
M  V30 5676 H 532.206 4.95762 1.14443 0
M  V30 5677 H 531.604 3.864 4.13173 0
M  V30 5678 H 530.161 4.72507 4.48977 0
M  V30 5679 N 533.594 0.0601682 1.57485 0
M  V30 5680 C 534.822 -0.620937 1.97363 0
M  V30 5681 C 535.237 -1.63846 0.938082 0
M  V30 5682 O 534.594 -1.82339 -0.0766578 0
M  V30 5683 C 534.645 -1.29987 3.37321 0
M  V30 5684 O 534.366 -0.323081 4.36907 0
M  V30 5685 C 535.867 -2.06989 3.92008 0
M  V30 5686 H 533.087 -0.169135 0.649334 0
M  V30 5687 H 535.631 0.129132 2.04092 0
M  V30 5688 H 533.786 -2.0011 3.31715 0
M  V30 5689 H 534.2 -0.808754 5.18227 0
M  V30 5690 H 535.674 -2.49901 4.92192 0
M  V30 5691 H 536.151 -2.92173 3.2792 0
M  V30 5692 H 536.757 -1.41757 4.0098 0
M  V30 5693 N 535.072 -1.5615 -0.213296 0
M  V30 5694 C 536.321 -1.78743 -0.93455 0
M  V30 5695 C 536.634 -0.630199 -1.8517 0
M  V30 5696 O 537.84 -0.739966 -2.61222 0
M  V30 5697 C 536.296 -3.16571 -1.71203 0
M  V30 5698 C 535.904 -4.40043 -0.840617 0
M  V30 5699 C 537.648 -3.48485 -2.42401 0
M  V30 5700 C 535.555 -5.68895 -1.61592 0
M  V30 5701 H 534.485 -0.666426 -0.352692 0
M  V30 5702 H 537.136 -1.82532 -0.188227 0
M  V30 5703 H 535.518 -3.06981 -2.50157 0
M  V30 5704 H 536.692 -4.6071 -0.0910326 0
M  V30 5705 H 535.007 -4.15706 -0.240365 0
M  V30 5706 H 537.604 -4.41983 -3.00924 0
M  V30 5707 H 537.947 -2.71371 -3.15695 0
M  V30 5708 H 538.48 -3.59442 -1.7043 0
M  V30 5709 H 535.219 -6.48925 -0.926106 0
M  V30 5710 H 534.739 -5.52275 -2.33991 0
M  V30 5711 H 536.418 -6.09365 -2.17447 0
M  V30 5712 N 536.55 0.480323 -1.50102 0
M  V30 5713 C 537.796 1.23489 -1.60867 0
M  V30 5714 C 538.129 1.91809 -0.303827 0
M  V30 5715 O 537.404 1.81694 0.694092 0
M  V30 5716 C 537.687 2.28578 -2.78252 0
M  V30 5717 C 537.54 1.64624 -4.18592 0
M  V30 5718 C 538.859 3.2997 -2.91218 0
M  V30 5719 H 535.978 0.447605 -0.585507 0
M  V30 5720 H 538.62 0.530005 -1.82458 0
M  V30 5721 H 536.77 2.88697 -2.59974 0
M  V30 5722 H 538.442 1.08173 -4.48438 0
M  V30 5723 H 536.685 0.949645 -4.23278 0
M  V30 5724 H 537.356 2.40946 -4.96638 0
M  V30 5725 H 539.832 2.79864 -3.07921 0
M  V30 5726 H 538.708 4.00839 -3.74993 0
M  V30 5727 H 538.969 3.93541 -2.0144 0
M  V30 5728 N 538.028 1.39524 0.732853 0
M  V30 5729 C 538.975 1.38416 1.84688 0
M  V30 5730 C 539.945 0.243539 1.64305 0
M  V30 5731 O 541.13 0.438979 1.85681 0
M  V30 5732 C 538.27 1.23555 3.22224 0
M  V30 5733 C 537.383 2.47179 3.54298 0
M  V30 5734 C 536.518 2.2489 4.81246 0
M  V30 5735 C 535.557 3.44178 5.0617 0
M  V30 5736 N 534.694 3.21192 6.24323 0
M  V30 5737 H 539.534 2.33645 1.84971 0
M  V30 5738 H 537.071 1.16059 0.903804 0
M  V30 5739 H 539.029 1.12949 4.0162 0
M  V30 5740 H 537.659 0.31954 3.21215 0
M  V30 5741 H 536.711 2.68379 2.69587 0
M  V30 5742 H 538.023 3.36022 3.68633 0
M  V30 5743 H 537.177 2.11538 5.68627 0
M  V30 5744 H 535.916 1.33443 4.69089 0
M  V30 5745 H 534.921 3.58025 4.17251 0
M  V30 5746 H 536.146 4.36528 5.20212 0
M  V30 5747 H 534.092 2.32413 6.1345 0
M  V30 5748 H 534.009 4.03594 6.39256 0
M  V30 5749 H 535.277 3.1154 7.14537 0
M  V30 5750 N 539.506 -0.963266 1.24736 0
M  V30 5751 C 540.456 -2.0438 1.01058 0
M  V30 5752 C 541.44 -1.60824 -0.0495354 0
M  V30 5753 O 542.632 -1.76232 0.164741 0
M  V30 5754 C 539.761 -3.37617 0.622067 0
M  V30 5755 C 538.847 -3.87722 1.7185 0
M  V30 5756 N 539.238 -4.10715 2.95207 0
M  V30 5757 C 537.536 -4.16426 1.59703 0
M  V30 5758 C 538.237 -4.51872 3.66315 0
M  V30 5759 N 537.213 -4.57302 2.93897 0
M  V30 5760 H 541.015 -2.20138 1.94721 0
M  V30 5761 H 538.529 -1.14741 1.14927 0
M  V30 5762 H 540.526 -4.14638 0.43366 0
M  V30 5763 H 539.186 -3.23242 -0.307327 0
M  V30 5764 H 540.197 -3.98037 3.31341 0
M  V30 5765 H 536.874 -4.10962 0.73598 0
M  V30 5766 H 538.264 -4.78037 4.72155 0
M  V30 5767 N 540.985 -1.06182 -1.16461 0
M  V30 5768 C 542.396 -0.802426 -1.68576 0
M  V30 5769 C 542.747 0.67412 -1.84255 0
M  V30 5770 O 541.872 1.52303 -1.5373 0
M  V30 5771 C 542.467 -1.45002 -3.06202 0
M  V30 5772 C 541.026 -1.23843 -3.55443 0
M  V30 5773 C 540.173 -1.52724 -2.31454 0
M  V30 5774 H 543.124 -1.22545 -1.00839 0
M  V30 5775 H 543.145 -0.864731 -3.70544 0
M  V30 5776 H 542.657 -2.52466 -2.94759 0
M  V30 5777 H 540.758 -0.183487 -3.72148 0
M  V30 5778 H 540.871 -1.95036 -4.37604 0
M  V30 5779 H 539.235 -0.947726 -2.36411 0
M  V30 5780 H 540.018 -2.61343 -2.22609 0
M  V30 5781 N 542.463 1.3308 -0.844243 0
M  V30 5782 C 543.879 1.50447 -0.532729 0
M  V30 5783 C 544.079 1.78292 0.938837 0
M  V30 5784 O 543.135 1.84635 1.72239 0
M  V30 5785 C 544.448 2.65555 -1.41072 0
M  V30 5786 C 545.996 2.7944 -1.41005 0
M  V30 5787 C 546.471 3.97616 -2.27301 0
M  V30 5788 N 547.962 4.0486 -2.2504 0
M  V30 5789 C 548.697 4.95508 -2.88547 0
M  V30 5790 N 548.193 5.91236 -3.61126 0
M  V30 5791 N 549.986 4.88548 -2.77989 0
M  V30 5792 H 542.137 1.13269 -1.79677 0
M  V30 5793 H 544.4 0.55734 -0.766861 0
M  V30 5794 H 544.106 2.51675 -2.45668 0
M  V30 5795 H 543.98 3.61089 -1.09061 0
M  V30 5796 H 546.367 2.92749 -0.371784 0
M  V30 5797 H 546.448 1.8465 -1.77026 0
M  V30 5798 H 546.092 3.85066 -3.3119 0
M  V30 5799 H 546.022 4.91661 -1.88619 0
M  V30 5800 H 548.513 3.36353 -1.72264 0
M  V30 5801 H 548.826 6.57079 -4.06776 0
M  V30 5802 H 547.171 5.91295 -3.65234 0
M  V30 5803 H 550.362 4.12729 -2.20846 0
M  V30 5804 H 550.535 5.58994 -3.27765 0
M  V30 5805 N 543.941 0.601185 1.45683 0
M  V30 5806 C 545.171 0.0999093 2.06358 0
M  V30 5807 C 545.579 -1.21831 1.44754 0
M  V30 5808 O 544.922 -1.75157 0.553695 0
M  V30 5809 C 544.984 -0.12085 3.59297 0
M  V30 5810 C 544.648 1.11459 4.432 0
M  V30 5811 C 545.645 2.03118 4.7858 0
M  V30 5812 C 543.33 1.34162 4.84051 0
M  V30 5813 C 545.324 3.15814 5.53661 0
M  V30 5814 C 543.011 2.4716 5.58888 0
M  V30 5815 C 544.009 3.37814 5.93608 0
M  V30 5816 O 543.697 4.48846 6.66928 0
M  V30 5817 H 543.429 0.0630316 0.673055 0
M  V30 5818 H 545.983 0.826982 1.88016 0
M  V30 5819 H 544.213 -0.902744 3.76015 0
M  V30 5820 H 545.902 -0.572925 4.01836 0
M  V30 5821 H 546.668 1.86801 4.47583 0
M  V30 5822 H 542.547 0.645018 4.56465 0
M  V30 5823 H 546.091 3.86596 5.8068 0
M  V30 5824 H 541.988 2.63432 5.89299 0
M  V30 5825 H 542.756 4.47446 6.85371 0
M  V30 5826 N 545.419 -1.53889 0.339982 0
M  V30 5827 C 546.647 -2.05271 -0.259114 0
M  V30 5828 C 547.062 -1.21517 -1.44496 0
M  V30 5829 O 546.419 -0.24966 -1.80784 0
M  V30 5830 C 546.47 -3.55092 -0.677634 0
M  V30 5831 O 546.191 -4.35667 0.461051 0
M  V30 5832 C 547.692 -4.22631 -1.33782 0
M  V30 5833 H 544.912 -0.669085 -0.0506566 0
M  V30 5834 H 547.456 -1.9852 0.490935 0
M  V30 5835 H 545.611 -3.62077 -1.37763 0
M  V30 5836 H 546.025 -5.24343 0.128144 0
M  V30 5837 H 547.499 -5.28861 -1.58145 0
M  V30 5838 H 547.976 -3.74758 -2.29027 0
M  V30 5839 H 548.582 -4.19829 -0.679957 0
M  V30 5840 N 546.897 -0.0685191 -1.57451 0
M  V30 5841 C 548.145 0.60016 -1.92983 0
M  V30 5842 C 548.466 1.70348 -0.949028 0
M  V30 5843 O 547.736 1.959 0.00335647 0
M  V30 5844 H 546.316 0.224682 -0.712409 0
M  V30 5845 H 548.978 -0.125605 -1.94495 0
M  V30 5846 H 548.074 1.02759 -2.94698 0
M  V30 5847 N 548.375 1.56261 0.205012 0
M  V30 5848 C 549.603 1.84141 0.943386 0
M  V30 5849 C 550.018 0.649772 1.77266 0
M  V30 5850 O 549.375 -0.381612 1.78466 0
M  V30 5851 C 549.426 3.10719 1.84759 0
M  V30 5852 O 549.147 4.25286 1.05181 0
M  V30 5853 C 550.648 3.51706 2.69848 0
M  V30 5854 H 547.868 0.611734 0.275721 0
M  V30 5855 H 550.412 2.03364 0.215253 0
M  V30 5856 H 548.567 2.93422 2.52947 0
M  V30 5857 H 548.981 4.97301 1.66709 0
M  V30 5858 H 550.455 4.43266 3.28967 0
M  V30 5859 H 550.932 2.7423 3.43067 0
M  V30 5860 H 551.538 3.71499 2.07047 0
M  V30 5861 N 549.853 -0.472356 1.50355 0
M  V30 5862 C 550.801 -1.59126 1.69651 0
M  V30 5863 C 551.795 -1.59793 0.56237 0
M  V30 5864 O 553.001 -1.63957 0.742832 0
M  V30 5865 H 549.376 -0.528008 0.535454 0
M  V30 5866 H 551.347 -1.40013 2.63513 0
M  V30 5867 C 550.096 -2.97075 1.8067 0
M  V30 5868 H 549.419 -2.9728 2.67329 0
M  V30 5869 H 550.859 -3.74825 1.98197 0
M  V30 5870 C 549.318 -3.32247 0.558016 0
M  V30 5871 O 549.848 -4.00553 -0.303399 0
M  V30 5872 N 548.054 -2.87659 0.412415 0
M  V30 5873 H 547.601 -2.32246 1.11443 0
M  V30 5874 H 547.559 -3.11556 -0.421908 0
M  V30 5875 N 551.331 -1.39911 -0.725443 0
M  V30 5876 C 552.279 -1.39552 -1.86086 0
M  V30 5877 C 553.273 -0.277334 -1.67114 0
M  V30 5878 O 554.479 -0.447865 -1.74339 0
M  V30 5879 H 550.854 -0.435993 -0.612711 0
M  V30 5880 H 552.825 -2.35305 -1.83505 0
M  V30 5881 C 551.574 -1.26529 -3.2386 0
M  V30 5882 H 550.897 -2.11845 -3.3906 0
M  V30 5883 H 552.337 -1.30336 -4.03471 0
M  V30 5884 C 550.796 0.0254168 -3.3689 0
M  V30 5885 O 551.326 0.992048 -3.89257 0
M  V30 5886 N 549.532 0.0916528 -2.90455 0
M  V30 5887 H 549.079 -0.695675 -2.48028 0
M  V30 5888 H 549.037 0.954745 -2.99553 0
M  V30 5889 N 552.809 0.956637 -1.25245 0
M  V30 5890 C 554.037 1.73571 -1.12608 0
M  V30 5891 C 554.452 1.86063 0.320324 0
M  V30 5892 O 553.809 1.35691 1.22042 0
M  V30 5893 C 553.86 3.15053 -1.77268 0
M  V30 5894 O 553.581 3.03174 -3.16255 0
M  V30 5895 C 555.082 4.09248 -1.70386 0
M  V30 5896 H 552.302 0.543955 -0.392879 0
M  V30 5897 H 554.846 1.20031 -1.65568 0
M  V30 5898 H 553.001 3.65543 -1.28284 0
M  V30 5899 H 553.415 3.9241 -3.48015 0
M  V30 5900 H 554.889 5.06138 -2.20291 0
M  V30 5901 H 555.366 4.34102 -0.667239 0
M  V30 5902 H 555.972 3.64672 -2.18849 0
M  V30 5903 N 554.287 1.06798 1.15896 0
M  V30 5904 C 555.564 0.701057 1.82605 0
M  V30 5905 C 555.944 -0.817066 1.94646 0
M  V30 5906 O 555.292 -1.72933 1.49353 0
M  V30 5907 C 555.502 1.40895 3.19296 0
M  V30 5908 C 556.85 1.55744 3.95005 0
M  V30 5909 O 557.874 1.36927 3.28831 0
M  V30 5910 O 556.733 1.86658 5.13635 0
M  V30 5911 H 553.827 0.248791 0.78869 0
M  V30 5912 H 556.373 1.16857 1.23055 0
M  V30 5913 H 555.145 2.4439 3.05596 0
M  V30 5914 H 554.768 0.931847 3.86526 0
M  V30 5915 N 555.766 -1.3263 0.851289 0
M  V30 5916 C 556.713 -2.28952 0.291469 0
M  V30 5917 C 557.683 -1.54897 -0.599676 0
M  V30 5918 O 558.868 -1.83137 -0.535305 0
M  V30 5919 C 556.008 -3.41206 -0.516992 0
M  V30 5920 C 555.121 -4.30148 0.399566 0
M  V30 5921 C 554.256 -5.29527 -0.4212 0
M  V30 5922 C 553.295 -6.10112 0.492969 0
M  V30 5923 N 552.432 -7.01499 -0.290414 0
M  V30 5924 H 557.272 -2.76228 1.11813 0
M  V30 5925 H 554.809 -1.35907 0.562826 0
M  V30 5926 H 556.767 -4.05005 -1.00132 0
M  V30 5927 H 555.397 -2.9509 -1.30851 0
M  V30 5928 H 554.449 -3.66959 1.00227 0
M  V30 5929 H 555.761 -4.8649 1.1013 0
M  V30 5930 H 554.915 -5.98914 -0.968832 0
M  V30 5931 H 553.654 -4.73794 -1.15632 0
M  V30 5932 H 552.659 -5.39632 1.05251 0
M  V30 5933 H 553.884 -6.6793 1.22664 0
M  V30 5934 H 551.83 -6.48199 -1.00868 0
M  V30 5935 H 551.747 -7.55178 0.352354 0
M  V30 5936 H 553.015 -7.75176 -0.819882 0
M  V30 5937 N 557.244 -0.608902 -1.45362 0
M  V30 5938 C 558.493 -0.10218 -2.01441 0
M  V30 5939 C 558.806 1.27546 -1.48295 0
M  V30 5940 O 560.012 1.87498 -1.96359 0
M  V30 5941 C 558.468 -0.131985 -3.59658 0
M  V30 5942 C 558.076 -1.50956 -4.21801 0
M  V30 5943 C 559.82 0.319427 -4.23296 0
M  V30 5944 C 557.727 -1.49568 -5.72174 0
M  V30 5945 H 556.657 -0.0344314 -0.753213 0
M  V30 5946 H 559.308 -0.764426 -1.6682 0
M  V30 5947 H 557.69 0.596939 -3.91475 0
M  V30 5948 H 558.864 -2.26029 -4.01556 0
M  V30 5949 H 557.179 -1.90318 -3.70362 0
M  V30 5950 H 559.776 0.349013 -5.3356 0
M  V30 5951 H 560.119 1.34237 -3.94064 0
M  V30 5952 H 560.652 -0.356273 -3.96201 0
M  V30 5953 H 557.391 -2.49626 -6.06108 0
M  V30 5954 H 556.911 -0.787542 -5.94607 0
M  V30 5955 H 558.59 -1.21989 -6.35396 0
M  V30 5956 N 558.722 1.53707 -0.348139 0
M  V30 5957 C 559.67 2.26671 0.521808 0
M  V30 5958 C 560.664 1.28988 1.09811 0
M  V30 5959 O 561.87 1.4668 1.04332 0
M  V30 5960 H 558.245 0.728387 0.186968 0
M  V30 5961 H 560.216 2.98176 -0.115563 0
M  V30 5962 C 558.965 3.05591 1.6586 0
M  V30 5963 H 558.288 3.80589 1.22443 0
M  V30 5964 H 559.728 3.59851 2.24239 0
M  V30 5965 C 558.187 2.15366 2.59073 0
M  V30 5966 O 558.717 1.7528 3.61441 0
M  V30 5967 N 556.923 1.80352 2.27863 0
M  V30 5968 H 556.47 2.13149 1.44656 0
M  V30 5969 H 556.428 1.20268 2.90488 0
M  V30 5970 N 560.2 0.0768682 1.57412 0
M  V30 5971 C 561.13 -0.886026 2.16037 0
M  V30 5972 C 562.111 -1.30691 1.08876 0
M  V30 5973 O 563.296 -1.37705 1.36934 0
M  V30 5974 C 560.426 -2.1518 2.72608 0
M  V30 5975 C 559.38 -1.87015 3.8498 0
M  V30 5976 C 558.706 -3.20266 4.28175 0
M  V30 5977 C 560.006 -1.17143 5.08994 0
M  V30 5978 H 561.7 -0.397642 2.96748 0
M  V30 5979 H 559.246 -0.189823 1.42743 0
M  V30 5980 H 561.199 -2.82962 3.12266 0
M  V30 5981 H 559.923 -2.66269 1.89125 0
M  V30 5982 H 558.582 -1.21636 3.45833 0
M  V30 5983 H 558.23 -3.69207 3.41607 0
M  V30 5984 H 557.93 -3.0221 5.03927 0
M  V30 5985 H 559.454 -3.89237 4.70454 0
M  V30 5986 H 560.868 -1.75003 5.45937 0
M  V30 5987 H 559.265 -1.09328 5.90057 0
M  V30 5988 H 560.335 -0.151295 4.84664 0
M  V30 5989 N 561.678 -1.56367 -0.196722 0
M  V30 5990 C 562.906 -1.84639 -0.933608 0
M  V30 5991 C 563.321 -0.659164 -1.76919 0
M  V30 5992 O 562.678 0.372142 -1.78665 0
M  V30 5993 C 562.729 -3.11694 -1.83109 0
M  V30 5994 O 562.45 -4.25838 -1.02924 0
M  V30 5995 C 563.951 -3.53132 -2.67979 0
M  V30 5996 H 561.171 -0.613188 -0.272473 0
M  V30 5997 H 563.715 -2.03475 -0.204465 0
M  V30 5998 H 561.87 -2.94759 -2.51387 0
M  V30 5999 H 562.284 -4.98178 -1.64069 0
M  V30 6000 H 563.758 -4.45005 -3.26611 0
M  V30 6001 H 564.235 -2.76045 -3.41608 0
M  V30 6002 H 564.841 -3.72592 -2.05074 0
M  V30 6003 N 563.156 0.464375 -1.50603 0
M  V30 6004 C 564.119 1.54393 -1.69397 0
M  V30 6005 C 565.119 1.50566 -0.564504 0
M  V30 6006 O 566.309 1.53066 -0.831645 0
M  V30 6007 C 563.441 2.9401 -1.72543 0
M  V30 6008 H 564.634 1.39044 -2.65719 0
M  V30 6009 H 562.187 0.69122 -1.40185 0
M  V30 6010 H 562.922 3.14795 -0.77938 0
M  V30 6011 H 562.707 2.98195 -2.54602 0
M  V30 6012 H 564.197 3.72375 -1.89015 0
M  V30 6013 N 564.634 1.40294 0.718013 0
M  V30 6014 C 566.045 1.34289 1.29705 0
M  V30 6015 C 566.396 0.0152228 1.96194 0
M  V30 6016 O 565.521 -0.88682 1.97394 0
M  V30 6017 C 566.116 2.43219 2.3586 0
M  V30 6018 C 564.675 2.40682 2.89394 0
M  V30 6019 C 563.822 2.24223 1.63154 0
M  V30 6020 H 566.773 1.50135 0.514312 0
M  V30 6021 H 566.794 2.10986 3.16647 0
M  V30 6022 H 566.306 3.39836 1.87439 0
M  V30 6023 H 564.407 1.47756 3.42051 0
M  V30 6024 H 564.52 3.36177 3.41353 0
M  V30 6025 H 562.884 1.71696 1.88129 0
M  V30 6026 H 563.667 3.22834 1.16761 0
M  V30 6027 N 566.112 -0.949982 1.2575 0
M  V30 6028 C 567.36 -1.6918 1.10555 0
M  V30 6029 C 567.681 -1.91773 -0.353298 0
M  V30 6030 O 566.951 -1.50814 -1.25027 0
M  V30 6031 H 565.531 -0.626952 0.406129 0
M  V30 6032 H 568.193 -1.1419 1.57945 0
M  V30 6033 H 567.289 -2.66915 1.61749 0
M  V30 6034 N 567.59 -1.07411 -1.15328 0
M  V30 6035 C 568.838 -0.796073 -1.85761 0
M  V30 6036 C 569.159 0.679864 -1.82764 0
M  V30 6037 O 568.429 1.49242 -1.269 0
M  V30 6038 H 567.009 -0.291495 -0.687779 0
M  V30 6039 H 569.671 -1.35799 -1.39802 0
M  V30 6040 H 568.767 -1.13114 -2.90881 0
M  V30 6041 N 569.068 1.32177 -0.85831 0
M  V30 6042 C 570.316 1.96735 -0.462568 0
M  V30 6043 C 570.637 1.6824 0.985911 0
M  V30 6044 O 569.907 0.991564 1.68952 0
M  V30 6045 H 568.487 0.727849 -0.168064 0
M  V30 6046 H 571.149 1.61195 -1.09554 0
M  V30 6047 H 570.245 3.06068 -0.610647 0
M  V30 6048 N 570.547 0.616602 1.45037 0
M  V30 6049 C 571.824 0.0469086 1.95544 0
M  V30 6050 C 572.204 -1.42345 1.55888 0
M  V30 6051 O 571.552 -2.13055 0.825824 0
M  V30 6052 C 571.762 0.254489 3.48071 0
M  V30 6053 C 573.11 0.140025 4.24369 0
M  V30 6054 O 574.134 0.185084 3.55719 0
M  V30 6055 O 572.993 0.0327034 5.4649 0
M  V30 6056 H 570.087 -0.0306051 0.826433 0
M  V30 6057 H 572.633 0.687293 1.55159 0
M  V30 6058 H 571.405 1.27532 3.69934 0
M  V30 6059 H 571.028 -0.42073 3.95368 0
M  V30 6060 N 572.025 -1.5352 0.356285 0
M  V30 6061 C 573.436 -1.86282 -0.12492 0
M  V30 6062 C 573.787 -1.27717 -1.48939 0
M  V30 6063 O 572.912 -0.595614 -2.08042 0
M  V30 6064 C 573.507 -3.37995 -0.23345 0
M  V30 6065 C 572.066 -3.70588 -0.658899 0
M  V30 6066 C 571.213 -2.76581 0.199596 0
M  V30 6067 H 574.164 -1.47901 0.575423 0
M  V30 6068 H 574.185 -3.65475 -1.0587 0
M  V30 6069 H 573.697 -3.8059 0.759776 0
M  V30 6070 H 571.798 -3.33544 -1.66069 0
M  V30 6071 H 571.911 -4.77076 -0.439957 0
M  V30 6072 H 570.275 -2.52552 -0.330076 0
M  V30 6073 H 571.058 -3.22008 1.19019 0
M  V30 6074 N 573.503 -0.0852151 -1.57369 0
M  V30 6075 C 574.413 0.891712 -2.16992 0
M  V30 6076 C 575.429 1.3174 -1.13669 0
M  V30 6077 O 576.605 1.38735 -1.45995 0
M  V30 6078 C 573.67 2.13635 -2.73059 0
M  V30 6079 C 572.731 1.7658 -3.91303 0
M  V30 6080 C 571.964 2.95111 -4.44686 0
M  V30 6081 O 572.187 4.09539 -3.97032 0
M  V30 6082 O 571.121 2.74149 -5.35841 0
M  V30 6083 H 574.947 0.414477 -3.00858 0
M  V30 6084 H 572.532 0.138598 -1.48756 0
M  V30 6085 H 574.414 2.86595 -3.08935 0
M  V30 6086 H 573.089 2.6043 -1.92244 0
M  V30 6087 H 571.996 1.00831 -3.60255 0
M  V30 6088 H 573.329 1.34557 -4.7345 0
M  V30 6089 N 574.981 1.5647 0.188427 0
M  V30 6090 C 576.227 1.81281 0.909124 0
M  V30 6091 C 576.56 0.66034 1.82628 0
M  V30 6092 O 575.835 -0.338737 1.91528 0
M  V30 6093 C 576.118 3.16388 1.7196 0
M  V30 6094 C 575.971 4.42137 0.826714 0
M  V30 6095 C 577.29 3.48256 2.69083 0
M  V30 6096 H 574.409 0.659457 0.329068 0
M  V30 6097 H 577.051 1.89182 0.176156 0
M  V30 6098 H 575.201 3.09784 2.34448 0
M  V30 6099 H 576.873 4.60794 0.216025 0
M  V30 6100 H 575.116 4.33594 0.133792 0
M  V30 6101 H 575.787 5.33184 1.42893 0
M  V30 6102 H 578.263 3.55203 2.16726 0
M  V30 6103 H 577.139 4.43899 3.2287 0
M  V30 6104 H 577.4 2.72088 3.48455 0
M  V30 6105 N 576.459 -0.456382 1.50847 0
M  V30 6106 C 577.687 -1.23026 1.66349 0
M  V30 6107 C 578.102 -1.85473 0.352868 0
M  V30 6108 O 577.459 -1.69885 -0.666739 0
M  V30 6109 C 577.51 -2.32827 2.76539 0
M  V30 6110 O 577.231 -1.72938 4.02522 0
M  V30 6111 C 578.732 -3.23448 3.03144 0
M  V30 6112 H 575.952 -0.371527 0.558756 0
M  V30 6113 H 578.496 -0.543082 1.97157 0
M  V30 6114 H 576.651 -2.97294 2.48384 0
M  V30 6115 H 577.065 -2.45357 4.63573 0
M  V30 6116 H 578.539 -3.96669 3.83872 0
M  V30 6117 H 579.016 -3.83094 2.14793 0
M  V30 6118 H 579.622 -2.64702 3.32886 0
M  V30 6119 N 577.937 -1.40673 -0.710563 0
M  V30 6120 C 579.184 -1.39222 -1.47049 0
M  V30 6121 C 579.512 0.0037691 -1.945 0
M  V30 6122 O 578.767 0.989224 -1.68857 0
M  V30 6123 C 579.066 -2.33253 -2.70791 0
M  V30 6124 C 578.732 -3.80406 -2.42079 0
M  V30 6125 C 577.394 -4.20496 -2.33959 0
M  V30 6126 C 579.746 -4.73375 -2.18094 0
M  V30 6127 C 577.074 -5.51584 -1.99929 0
M  V30 6128 C 579.426 -6.04768 -1.85576 0
M  V30 6129 C 578.09 -6.43895 -1.75941 0
M  V30 6130 H 577.36 -0.509449 -0.538092 0
M  V30 6131 H 580.007 -1.73363 -0.81348 0
M  V30 6132 H 578.312 -1.92314 -3.41354 0
M  V30 6133 H 580.009 -2.29412 -3.28894 0
M  V30 6134 H 576.599 -3.48645 -2.49288 0
M  V30 6135 H 580.783 -4.43217 -2.23321 0
M  V30 6136 H 576.039 -5.80797 -1.91011 0
M  V30 6137 H 580.213 -6.76318 -1.66033 0
M  V30 6138 H 577.84 -7.45387 -1.4934 0
M  V30 6139 N 579.415 0.9433 -1.26252 0
M  V30 6140 C 580.348 2.04162 -1.01946 0
M  V30 6141 C 581.326 1.62507 0.0550808 0
M  V30 6142 O 582.51 1.883 -0.0869025 0
M  V30 6143 C 579.637 3.34313 -0.54335 0
M  V30 6144 C 578.683 3.94939 -1.61013 0
M  V30 6145 S 579.516 4.29484 -3.19849 0
M  V30 6146 C 580.672 5.62738 -2.74001 0
M  V30 6147 H 580.905 2.24466 -1.94942 0
M  V30 6148 H 578.438 1.08441 -1.09909 0
M  V30 6149 H 580.396 4.09576 -0.275315 0
M  V30 6150 H 579.057 3.11957 0.36629 0
M  V30 6151 H 578.25 4.88812 -1.22795 0
M  V30 6152 H 577.852 3.26202 -1.82943 0
M  V30 6153 H 580.144 6.41356 -2.18333 0
M  V30 6154 H 581.087 6.05839 -3.66558 0
M  V30 6155 H 581.495 5.22514 -2.13634 0
M  V30 6156 N 580.893 1.08022 1.14757 0
M  V30 6157 C 582.139 0.818552 1.86202 0
M  V30 6158 C 582.494 -0.648563 1.81139 0
M  V30 6159 O 581.787 -1.4704 1.22841 0
M  V30 6160 C 581.981 1.26964 3.34088 0
M  V30 6161 C 581.81 2.77907 3.5355 0
M  V30 6162 C 580.58 3.45604 3.68627 0
M  V30 6163 C 582.778 3.7609 3.50801 0
M  V30 6164 N 580.76 4.85119 3.76209 0
M  V30 6165 C 582.131 5.0148 3.64579 0
M  V30 6166 C 584.186 3.6915 3.34115 0
M  V30 6167 C 582.889 6.20755 3.63395 0
M  V30 6168 C 584.915 4.87896 3.34233 0
M  V30 6169 C 584.277 6.12123 3.48547 0
M  V30 6170 H 580.376 0.352186 0.698204 0
M  V30 6171 H 582.96 1.37781 1.37567 0
M  V30 6172 H 581.131 0.738008 3.81324 0
M  V30 6173 H 582.863 0.954806 3.93275 0
M  V30 6174 H 579.618 2.96016 3.69691 0
M  V30 6175 H 580.042 5.57748 3.83726 0
M  V30 6176 H 584.684 2.74045 3.21961 0
M  V30 6177 H 582.402 7.16175 3.74326 0
M  V30 6178 H 585.988 4.8421 3.2254 0
M  V30 6179 H 584.868 7.02468 3.48581 0
M  V30 6180 N 582.371 -1.3172 0.865308 0
M  V30 6181 C 583.599 -2.01057 0.488251 0
M  V30 6182 C 584.014 -1.64979 -0.918 0
M  V30 6183 O 583.371 -0.876597 -1.60069 0
M  V30 6184 C 583.422 -3.55964 0.630224 0
M  V30 6185 O 583.143 -3.90749 1.98109 0
M  V30 6186 C 584.644 -4.42574 0.253567 0
M  V30 6187 H 581.864 -0.64332 0.190736 0
M  V30 6188 H 584.408 -1.68058 1.16519 0
M  V30 6189 H 582.563 -3.874 0.000895422 0
M  V30 6190 H 582.977 -4.85467 1.9855 0
M  V30 6191 H 584.451 -5.50521 0.403875 0
M  V30 6192 H 584.928 -4.31724 -0.806895 0
M  V30 6193 H 585.534 -4.16547 0.858404 0
M  V30 6194 N 583.85 -0.624285 -1.44708 0
M  V30 6195 C 584.798 0.0969952 -2.32398 0
M  V30 6196 C 585.792 0.842762 -1.46949 0
M  V30 6197 O 586.998 0.756436 -1.63334 0
M  V30 6198 H 583.373 0.0501306 -0.750327 0
M  V30 6199 H 585.344 -0.660767 -2.90992 0
M  V30 6200 C 584.093 1.06967 -3.30837 0
M  V30 6201 H 583.416 0.505242 -3.96595 0
M  V30 6202 H 584.856 1.54397 -3.94889 0
M  V30 6203 C 583.315 2.15153 -2.5925 0
M  V30 6204 O 583.845 3.23139 -2.3863 0
M  V30 6205 N 582.051 1.90898 -2.19103 0
M  V30 6206 H 581.598 1.03086 -2.36074 0
M  V30 6207 H 581.556 2.63485 -1.71531 0
M  V30 6208 N 585.328 1.53329 -0.364422 0
M  V30 6209 C 586.568 2.0315 0.22572 0
M  V30 6210 C 586.932 1.24589 1.46087 0
M  V30 6211 O 588.133 1.64411 2.12656 0
M  V30 6212 C 586.404 3.53718 0.511663 0
M  V30 6213 S 587.963 4.25412 1.07564 0
M  V30 6214 H 584.781 0.70795 0.0657843 0
M  V30 6215 H 587.383 1.88811 -0.507019 0
M  V30 6216 H 586.087 4.08497 -0.394784 0
M  V30 6217 H 585.618 3.72217 1.27351 0
M  V30 6218 H 587.633 4.36486 2.35997 0
M  V30 6219 N 586.806 0.0935595 1.57322 0
M  V30 6220 C 588.222 -0.263091 1.57417 0
M  V30 6221 C 588.422 -1.68526 1.1046 0
M  V30 6222 O 587.478 -2.40139 0.780357 0
M  V30 6223 C 588.791 -0.0529201 3.00653 0
M  V30 6224 C 590.339 -0.120788 3.12767 0
M  V30 6225 C 590.814 0.0613707 4.57959 0
M  V30 6226 N 592.305 0.00648534 4.632 0
M  V30 6227 C 593.04 0.122699 5.73269 0
M  V30 6228 N 592.536 0.29366 6.92177 0
M  V30 6229 N 594.329 0.0640787 5.62063 0
M  V30 6230 H 586.48 1.02277 1.86154 0
M  V30 6231 H 588.743 0.4007 0.859153 0
M  V30 6232 H 588.449 0.929279 3.39201 0
M  V30 6233 H 588.323 -0.795899 3.68708 0
M  V30 6234 H 590.71 -1.09349 2.74093 0
M  V30 6235 H 590.791 0.653656 2.47307 0
M  V30 6236 H 590.435 1.03093 4.97327 0
M  V30 6237 H 590.365 -0.732748 5.21477 0
M  V30 6238 H 592.856 -0.123173 3.77699 0
M  V30 6239 H 593.169 0.37389 7.71895 0
M  V30 6240 H 591.514 0.329307 6.94219 0
M  V30 6241 H 594.705 -0.0683396 4.6805 0
M  V30 6242 H 594.878 0.158097 6.47807 0
M  V30 6243 N 588.284 -1.56567 -0.180126 0
M  V30 6244 C 589.532 -1.81133 -0.896392 0
M  V30 6245 C 589.853 -0.669114 -1.83161 0
M  V30 6246 O 589.123 0.311616 -1.93406 0
M  V30 6247 H 587.703 -0.668172 -0.333999 0
M  V30 6248 H 590.365 -1.94048 -0.182051 0
M  V30 6249 H 589.461 -2.74854 -1.47857 0
M  V30 6250 N 589.762 0.448376 -1.51087 0
M  V30 6251 C 590.672 1.56882 -1.74428 0
M  V30 6252 C 591.688 1.62268 -0.62809 0
M  V30 6253 O 592.864 1.79716 -0.909075 0
M  V30 6254 C 589.929 2.92947 -1.85426 0
M  V30 6255 C 588.99 2.97766 -3.09247 0
M  V30 6256 C 588.223 4.27341 -3.19711 0
M  V30 6257 O 588.446 5.19112 -2.36387 0
M  V30 6258 O 587.38 4.38219 -4.12611 0
M  V30 6259 H 591.206 1.40104 -2.69452 0
M  V30 6260 H 588.791 0.630247 -1.35456 0
M  V30 6261 H 590.673 3.73719 -1.94709 0
M  V30 6262 H 589.348 3.09876 -0.935887 0
M  V30 6263 H 588.255 2.15989 -3.0545 0
M  V30 6264 H 589.588 2.8578 -4.00738 0
M  V30 6265 N 591.24 1.41047 0.703093 0
M  V30 6266 C 592.487 1.4 1.46309 0
M  V30 6267 C 592.815 0.00654574 1.94499 0
M  V30 6268 O 592.07 -0.980255 1.6938 0
M  V30 6269 C 592.369 2.34686 2.6955 0
M  V30 6270 C 592.035 3.81684 2.40058 0
M  V30 6271 C 590.697 4.21731 2.31725 0
M  V30 6272 C 593.049 4.74525 2.15581 0
M  V30 6273 C 590.377 5.52637 1.97001 0
M  V30 6274 C 592.729 6.05744 1.82366 0
M  V30 6275 C 591.393 6.44819 1.72524 0
M  V30 6276 H 590.663 0.512295 0.535382 0
M  V30 6277 H 593.31 1.73792 0.804275 0
M  V30 6278 H 591.615 1.94122 3.40329 0
M  V30 6279 H 593.312 2.31152 3.27673 0
M  V30 6280 H 589.902 3.49963 2.47435 0
M  V30 6281 H 594.086 4.44395 2.20968 0
M  V30 6282 H 589.342 5.81802 1.87928 0
M  V30 6283 H 593.516 6.77189 1.62444 0
M  V30 6284 H 591.143 7.46168 1.45385 0
M  V30 6285 N 592.718 -0.936591 1.26751 0
M  V30 6286 C 593.648 -2.05315 1.11212 0
M  V30 6287 C 594.629 -1.70092 0.0160262 0
M  V30 6288 O 595.814 -1.93279 0.188894 0
M  V30 6289 C 592.944 -3.39123 0.749171 0
M  V30 6290 C 591.898 -3.88425 1.79751 0
M  V30 6291 C 591.224 -5.18936 1.28876 0
M  V30 6292 C 592.524 -4.12798 3.19992 0
M  V30 6293 H 594.218 -2.18573 2.04613 0
M  V30 6294 H 591.764 -1.05027 0.985159 0
M  V30 6295 H 593.717 -4.16704 0.627323 0
M  V30 6296 H 592.441 -3.25855 -0.220543 0
M  V30 6297 H 591.1 -3.13028 1.90811 0
M  V30 6298 H 590.748 -5.02051 0.308757 0
M  V30 6299 H 590.448 -5.52892 1.98958 0
M  V30 6300 H 591.972 -5.99096 1.17967 0
M  V30 6301 H 593.386 -4.80977 3.11983 0
M  V30 6302 H 591.783 -4.58044 3.87705 0
M  V30 6303 H 592.853 -3.18412 3.65707 0
M  V30 6304 N 594.196 -1.08629 -1.14182 0
M  V30 6305 C 595.426 -0.837673 -1.88856 0
M  V30 6306 C 595.834 0.614024 -1.78959 0
M  V30 6307 O 595.177 1.43384 -1.14833 0
M  V30 6308 C 595.239 -1.18355 -3.39459 0
M  V30 6309 C 594.903 -2.63848 -3.73139 0
M  V30 6310 C 595.9 -3.62099 -3.73069 0
M  V30 6311 C 593.585 -2.99761 -4.03049 0
M  V30 6312 C 595.579 -4.94292 -4.02435 0
M  V30 6313 C 593.266 -4.32147 -4.32078 0
M  V30 6314 C 594.264 -5.29223 -4.31755 0
M  V30 6315 O 593.952 -6.59229 -4.60079 0
M  V30 6316 H 593.684 -0.301609 -0.604986 0
M  V30 6317 H 596.238 -1.44961 -1.45518 0
M  V30 6318 H 594.468 -0.514628 -3.8326 0
M  V30 6319 H 596.157 -0.915391 -3.95443 0
M  V30 6320 H 596.923 -3.35698 -3.50046 0
M  V30 6321 H 592.802 -2.2484 -4.02453 0
M  V30 6322 H 596.346 -5.70055 -4.02098 0
M  V30 6323 H 592.243 -4.58296 -4.54571 0
M  V30 6324 H 593.011 -6.64578 -4.77785 0
M  V30 6325 N 595.674 1.31259 -0.872281 0
M  V30 6326 C 596.914 1.98418 -0.490894 0
M  V30 6327 C 597.278 1.67429 0.939755 0
M  V30 6328 O 598.479 2.27818 1.42661 0
M  V30 6329 C 596.75 3.49583 -0.743408 0
M  V30 6330 S 598.309 4.36359 -0.462226 0
M  V30 6331 H 595.127 0.687005 -0.183151 0
M  V30 6332 H 597.729 1.59619 -1.12881 0
M  V30 6333 H 596.433 3.69627 -1.78338 0
M  V30 6334 H 595.964 3.93291 -0.0925758 0
M  V30 6335 H 597.979 4.91173 0.704525 0
M  V30 6336 N 597.152 0.631951 1.44375 0
M  V30 6337 C 598.099 -0.0724807 2.30686 0
M  V30 6338 C 599.069 -0.835975 1.43529 0
M  V30 6339 O 600.254 -0.816849 1.7243 0
M  V30 6340 C 597.394 -1.04753 3.28817 0
M  V30 6341 C 596.507 -0.282367 4.31076 0
M  V30 6342 C 595.642 -1.2493 5.163 0
M  V30 6343 C 594.681 -0.473349 6.10267 0
M  V30 6344 N 593.818 -1.39079 6.88187 0
M  V30 6345 H 598.658 0.669477 2.90383 0
M  V30 6346 H 596.195 0.341927 1.43071 0
M  V30 6347 H 598.153 -1.62623 3.842 0
M  V30 6348 H 596.783 -1.75661 2.70819 0
M  V30 6349 H 595.835 0.412268 3.78159 0
M  V30 6350 H 597.147 0.321955 4.9776 0
M  V30 6351 H 596.301 -1.89931 5.76204 0
M  V30 6352 H 595.04 -1.88755 4.49692 0
M  V30 6353 H 594.045 0.190142 5.49471 0
M  V30 6354 H 595.27 0.16019 6.78911 0
M  V30 6355 H 593.216 -2.01623 6.24247 0
M  V30 6356 H 593.133 -0.840513 7.51313 0
M  V30 6357 H 594.401 -2.02961 7.52613 0
M  V30 6358 N 598.631 -1.53133 0.372548 0
M  V30 6359 C 599.564 -2.22328 -0.514361 0
M  V30 6360 C 600.542 -1.21776 -1.07747 0
M  V30 6361 O 601.726 -1.50704 -1.13228 0
M  V30 6362 C 598.853 -2.92343 -1.71035 0
M  V30 6363 C 597.899 -4.07026 -1.27405 0
M  V30 6364 S 598.732 -5.34821 -0.269526 0
M  V30 6365 C 599.888 -6.08352 -1.47168 0
M  V30 6366 H 600.121 -2.9721 0.0732683 0
M  V30 6367 H 597.654 -1.53603 0.156673 0
M  V30 6368 H 599.612 -3.33296 -2.39634 0
M  V30 6369 H 598.273 -2.17173 -2.26925 0
M  V30 6370 H 597.466 -4.55056 -2.16656 0
M  V30 6371 H 597.068 -3.68001 -0.66719 0
M  V30 6372 H 599.36 -6.33507 -2.40157 0
M  V30 6373 H 600.303 -7.0053 -1.03263 0
M  V30 6374 H 600.711 -5.38893 -1.6809 0
M  V30 6375 N 600.109 -0.101901 -1.5727 0
M  V30 6376 C 601.057 0.872034 -2.15635 0
M  V30 6377 C 602.051 1.28742 -1.10099 0
M  V30 6378 O 603.257 1.26116 -1.28432 0
M  V30 6379 H 599.632 0.299269 -0.689886 0
M  V30 6380 H 601.603 0.355137 -2.96279 0
M  V30 6381 C 600.352 2.11886 -2.7568 0
M  V30 6382 H 599.675 1.80813 -3.56576 0
M  V30 6383 H 601.115 2.78077 -3.20077 0
M  V30 6384 C 599.574 2.89739 -1.7191 0
M  V30 6385 O 600.104 3.84522 -1.16213 0
M  V30 6386 N 598.31 2.53407 -1.42245 0
M  V30 6387 H 597.857 1.76398 -1.87727 0
M  V30 6388 H 597.815 3.05795 -0.730529 0
M  V30 6389 N 601.587 1.56661 0.17182 0
M  V30 6390 C 602.833 1.8313 0.88516 0
M  V30 6391 C 603.188 0.682376 1.79893 0
M  V30 6392 O 602.481 -0.321215 1.88888 0
M  V30 6393 C 602.675 3.13435 1.71736 0
M  V30 6394 C 602.504 4.40892 0.885659 0
M  V30 6395 C 601.274 5.02177 0.560939 0
M  V30 6396 C 603.472 5.13797 0.227454 0
M  V30 6397 N 601.454 6.13229 -0.286953 0
M  V30 6398 C 602.825 6.18127 -0.481625 0
M  V30 6399 C 604.88 4.97687 0.145567 0
M  V30 6400 C 603.583 7.08092 -1.26482 0
M  V30 6401 C 605.609 5.88096 -0.624298 0
M  V30 6402 C 604.971 6.91888 -1.32174 0
M  V30 6403 H 601.07 0.721107 0.302536 0
M  V30 6404 H 603.654 1.94104 0.152178 0
M  V30 6405 H 601.825 3.03653 2.42176 0
M  V30 6406 H 603.557 3.27903 2.37196 0
M  V30 6407 H 600.312 4.65145 0.890902 0
M  V30 6408 H 600.736 6.73359 -0.701193 0
M  V30 6409 H 605.378 4.17451 0.670426 0
M  V30 6410 H 603.096 7.87774 -1.80103 0
M  V30 6411 H 606.682 5.77702 -0.689321 0
M  V30 6412 H 605.562 7.60637 -1.90791 0
M  V30 6413 N 603.065 -0.440357 1.51323 0
M  V30 6414 C 604.312 -1.19004 1.63842 0
M  V30 6415 C 604.64 -1.91266 0.35321 0
M  V30 6416 O 603.895 -1.84143 -0.662565 0
M  V30 6417 C 604.194 -2.2339 2.78984 0
M  V30 6418 C 603.86 -1.68162 4.18369 0
M  V30 6419 C 602.522 -1.52823 4.56288 0
M  V30 6420 C 604.874 -1.27524 5.05358 0
M  V30 6421 C 602.202 -0.953157 5.78906 0
M  V30 6422 C 604.554 -0.714474 6.28552 0
M  V30 6423 C 603.218 -0.547961 6.65247 0
M  V30 6424 H 602.488 -0.435468 0.59954 0
M  V30 6425 H 605.135 -0.481538 1.85347 0
M  V30 6426 H 603.44 -3.00267 2.51688 0
M  V30 6427 H 605.137 -2.81211 2.85869 0
M  V30 6428 H 601.727 -1.81077 3.8847 0
M  V30 6429 H 605.911 -1.38197 4.76671 0
M  V30 6430 H 601.167 -0.811882 6.05986 0
M  V30 6431 H 605.341 -0.391059 6.95301 0
M  V30 6432 H 602.968 -0.100222 7.60134 0
M  V30 6433 N 604.543 -1.41418 -0.695603 0
M  V30 6434 C 605.473 -1.46035 -1.82197 0
M  V30 6435 C 606.454 -0.319025 -1.67082 0
M  V30 6436 O 607.639 -0.530462 -1.86815 0
M  V30 6437 C 604.769 -1.34179 -3.20333 0
M  V30 6438 C 603.723 -2.46123 -3.50154 0
M  V30 6439 C 603.049 -2.19332 -4.87645 0
M  V30 6440 C 604.349 -3.88463 -3.49133 0
M  V30 6441 H 606.043 -2.40303 -1.78591 0
M  V30 6442 H 603.589 -1.15663 -0.857797 0
M  V30 6443 H 605.542 -1.36021 -3.98844 0
M  V30 6444 H 604.266 -0.363952 -3.24566 0
M  V30 6445 H 602.925 -2.43563 -2.73994 0
M  V30 6446 H 602.573 -1.19891 -4.88503 0
M  V30 6447 H 602.273 -2.94344 -5.08562 0
M  V30 6448 H 603.797 -2.22889 -5.68465 0
M  V30 6449 H 605.211 -3.92738 -4.17648 0
M  V30 6450 H 603.608 -4.63158 -3.81582 0
M  V30 6451 H 604.678 -4.16617 -2.48109 0
M  V30 6452 N 606.021 0.929856 -1.27246 0
M  V30 6453 C 606.969 2.05151 -1.09616 0
M  V30 6454 C 607.963 1.69388 -0.0198617 0
M  V30 6455 O 609.169 1.79124 -0.177417 0
M  V30 6456 H 605.544 0.671909 -0.337701 0
M  V30 6457 H 607.515 2.17168 -2.04648 0
M  V30 6458 C 606.264 3.3934 -0.757851 0
M  V30 6459 H 605.587 3.67343 -1.57795 0
M  V30 6460 H 607.027 4.18603 -0.674358 0
M  V30 6461 C 605.486 3.32582 0.537658 0
M  V30 6462 O 606.016 3.69633 1.57271 0
M  V30 6463 N 604.222 2.8568 0.532478 0
M  V30 6464 H 603.769 2.55725 -0.310233 0
M  V30 6465 H 603.727 2.81541 1.39936 0
M  V30 6466 N 607.499 1.09233 1.13605 0
M  V30 6467 C 608.745 0.838255 1.85324 0
M  V30 6468 C 609.1 -0.629314 1.81817 0
M  V30 6469 O 608.393 -1.45729 1.24393 0
M  V30 6470 C 608.587 1.305 3.32723 0
M  V30 6471 C 608.416 2.81641 3.50583 0
M  V30 6472 C 607.186 3.49494 3.64941 0
M  V30 6473 C 609.384 3.79789 3.46792 0
M  V30 6474 N 607.366 4.89082 3.71042 0
M  V30 6475 C 608.737 5.05319 3.59239 0
M  V30 6476 C 610.792 3.72673 3.30181 0
M  V30 6477 C 609.495 6.24574 3.56791 0
M  V30 6478 C 611.521 4.91413 3.29039 0
M  V30 6479 C 610.883 6.15785 3.42035 0
M  V30 6480 H 606.982 0.359572 0.69443 0
M  V30 6481 H 609.566 1.39232 1.36098 0
M  V30 6482 H 607.737 0.778411 3.8052 0
M  V30 6483 H 609.469 0.996465 3.92241 0
M  V30 6484 H 606.224 2.9992 3.66531 0
M  V30 6485 H 606.648 5.61787 3.77789 0
M  V30 6486 H 611.29 2.77444 3.19037 0
M  V30 6487 H 609.008 7.20105 3.66708 0
M  V30 6488 H 612.594 4.87604 3.17386 0
M  V30 6489 H 611.474 7.06126 3.41111 0
M  V30 6490 N 608.977 -1.30795 0.87923 0
M  V30 6491 C 610.223 -1.96653 0.495519 0
M  V30 6492 C 610.556 -1.69282 -0.951703 0
M  V30 6493 O 609.831 -0.994374 -1.6716 0
M  V30 6494 C 610.114 -3.51898 0.764174 0
M  V30 6495 C 609.967 -3.88808 2.2616 0
M  V30 6496 C 611.286 -4.39462 0.236825 0
M  V30 6497 H 608.405 -0.7143 0.181507 0
M  V30 6498 H 611.047 -1.54765 1.10217 0
M  V30 6499 H 609.197 -3.87709 0.247841 0
M  V30 6500 H 610.869 -3.63051 2.8459 0
M  V30 6501 H 609.112 -3.37082 2.73053 0
M  V30 6502 H 609.783 -4.97086 2.4002 0
M  V30 6503 H 612.259 -4.10528 0.678683 0
M  V30 6504 H 611.135 -5.47018 0.454176 0
M  V30 6505 H 611.396 -4.33621 -0.861683 0
M  V30 6506 N 610.455 -0.639598 -1.44038 0
M  V30 6507 C 611.365 0.0612377 -2.3452 0
M  V30 6508 C 612.381 0.826717 -1.53106 0
M  V30 6509 O 613.557 0.777059 -1.85806 0
M  V30 6510 C 610.622 1.02492 -3.31204 0
M  V30 6511 C 609.683 0.25788 -4.28525 0
M  V30 6512 C 608.916 1.17566 -5.2059 0
M  V30 6513 O 609.139 2.41461 -5.16771 0
M  V30 6514 O 608.073 0.655407 -5.98321 0
M  V30 6515 H 611.899 -0.68318 -2.95916 0
M  V30 6516 H 609.484 -0.399784 -1.43952 0
M  V30 6517 H 611.366 1.57911 -3.90694 0
M  V30 6518 H 610.041 1.7498 -2.7233 0
M  V30 6519 H 608.948 -0.339566 -3.72556 0
M  V30 6520 H 610.281 -0.427154 -4.90343 0
M  V30 6521 N 611.933 1.52934 -0.380664 0
M  V30 6522 C 613.21 1.93845 0.261417 0
M  V30 6523 C 613.59 1.31544 1.65104 0
M  V30 6524 O 612.938 0.480234 2.23397 0
M  V30 6525 C 613.148 3.47739 0.296466 0
M  V30 6526 C 614.496 4.21284 0.529578 0
M  V30 6527 O 615.52 3.54199 0.377041 0
M  V30 6528 O 614.379 5.40195 0.827753 0
M  V30 6529 H 611.473 0.811318 0.160285 0
M  V30 6530 H 614.019 1.64042 -0.434544 0
M  V30 6531 H 612.791 3.85395 -0.67724 0
M  V30 6532 H 612.414 3.8382 1.0377 0
M  V30 6533 N 613.412 0.11024 1.57214 0
M  V30 6534 C 614.828 -0.24638 1.57687 0
M  V30 6535 C 615.028 -1.67344 1.12241 0
M  V30 6536 O 614.084 -2.39298 0.805783 0
M  V30 6537 C 615.397 -0.0210288 3.00693 0
M  V30 6538 C 616.945 -0.0876077 3.12877 0
M  V30 6539 C 617.42 0.10994 4.57868 0
M  V30 6540 N 618.911 0.0556135 4.63167 0
M  V30 6541 C 619.646 0.183495 5.73106 0
M  V30 6542 N 619.142 0.367058 6.91827 0
M  V30 6543 N 620.935 0.123689 5.61964 0
M  V30 6544 H 613.086 1.04246 1.85058 0
M  V30 6545 H 615.349 0.40979 0.854854 0
M  V30 6546 H 615.055 0.965203 3.38196 0
M  V30 6547 H 614.929 -0.756748 3.69531 0
M  V30 6548 H 617.316 -1.06436 2.75237 0
M  V30 6549 H 617.397 0.67985 2.466 0
M  V30 6550 H 617.041 1.08362 4.96206 0
M  V30 6551 H 616.971 -0.677397 5.22225 0
M  V30 6552 H 619.462 -0.0831062 3.77809 0
M  V30 6553 H 619.775 0.455739 7.71455 0
M  V30 6554 H 618.12 0.40292 6.93831 0
M  V30 6555 H 621.311 -0.0186928 4.68096 0
M  V30 6556 H 621.484 0.226797 6.47603 0
M  V30 6557 N 614.89 -1.56749 -0.16351 0
M  V30 6558 C 616.167 -1.73321 -0.906599 0
M  V30 6559 C 616.547 -0.673779 -2.00059 0
M  V30 6560 O 615.895 0.310121 -2.26386 0
M  V30 6561 C 616.105 -3.168 -1.46419 0
M  V30 6562 C 617.453 -3.77993 -1.93407 0
M  V30 6563 O 618.477 -3.20127 -1.56196 0
M  V30 6564 O 617.336 -4.79615 -2.61976 0
M  V30 6565 H 614.43 -0.708073 -0.427272 0
M  V30 6566 H 616.976 -1.69029 -0.150727 0
M  V30 6567 H 615.748 -3.85396 -0.677189 0
M  V30 6568 H 615.371 -3.2545 -2.28403 0
M  V30 6569 N 616.368 0.432326 -1.51554 0
M  V30 6570 C 617.614 1.18309 -1.64714 0
M  V30 6571 C 617.947 1.90745 -0.364696 0
M  V30 6572 O 617.222 1.8381 0.635936 0
M  V30 6573 C 617.505 2.1961 -2.85383 0
M  V30 6574 C 617.358 1.51223 -4.23617 0
M  V30 6575 C 618.677 3.20538 -3.01569 0
M  V30 6576 H 615.796 0.428751 -0.599451 0
M  V30 6577 H 618.438 0.471689 -1.84052 0
M  V30 6578 H 616.588 2.8028 -2.69027 0
M  V30 6579 H 618.26 0.938516 -4.51652 0
M  V30 6580 H 616.503 0.814501 -4.26085 0
M  V30 6581 H 617.174 2.25024 -5.04052 0
M  V30 6582 H 619.65 2.69926 -3.16669 0
M  V30 6583 H 618.526 3.88706 -3.87555 0
M  V30 6584 H 618.787 3.86933 -2.13859 0
M  V30 6585 N 617.846 1.41785 0.688094 0
M  V30 6586 C 619.074 1.44915 1.47673 0
M  V30 6587 C 619.489 0.0565786 1.88715 0
M  V30 6588 O 618.846 -0.92579 1.57275 0
M  V30 6589 C 618.897 2.36452 2.73446 0
M  V30 6590 O 618.618 3.7029 2.34131 0
M  V30 6591 C 620.119 2.48463 3.67125 0
M  V30 6592 H 617.339 0.493324 0.454832 0
M  V30 6593 H 619.883 1.86153 0.846594 0
M  V30 6594 H 618.038 1.98502 3.3268 0
M  V30 6595 H 618.452 4.19183 3.15255 0
M  V30 6596 H 619.926 3.16662 4.52138 0
M  V30 6597 H 620.403 1.51826 4.12123 0
M  V30 6598 H 621.009 2.8708 3.13792 0
M  V30 6599 N 619.324 -0.923095 1.27737 0
M  V30 6600 C 620.552 -1.70525 1.17171 0
M  V30 6601 C 620.967 -1.86847 -0.270881 0
M  V30 6602 O 620.324 -1.38879 -1.18401 0
M  V30 6603 C 620.375 -3.10242 1.85559 0
M  V30 6604 O 620.096 -2.94683 3.24182 0
M  V30 6605 C 621.597 -4.04586 1.81176 0
M  V30 6606 H 618.817 -0.533347 0.407163 0
M  V30 6607 H 621.361 -1.15599 1.68692 0
M  V30 6608 H 619.516 -3.62014 1.3793 0
M  V30 6609 H 619.93 -3.83045 3.58297 0
M  V30 6610 H 621.404 -5.00119 2.33633 0
M  V30 6611 H 621.881 -4.3218 0.782099 0
M  V30 6612 H 622.487 -3.58741 2.2844 0
M  V30 6613 N 620.802 -1.09834 -1.13024 0
M  V30 6614 C 621.734 -0.699379 -2.18269 0
M  V30 6615 C 622.747 0.260841 -1.60697 0
M  V30 6616 O 623.936 0.0462538 -1.7844 0
M  V30 6617 C 621.036 -0.0104537 -3.38898 0
M  V30 6618 C 620.209 -0.993275 -4.25973 0
M  V30 6619 C 619.268 -0.336982 -5.2512 0
M  V30 6620 O 618.294 -0.985892 -5.60597 0
M  V30 6621 N 619.496 0.90716 -5.73368 0
M  V30 6622 H 622.261 -1.60486 -2.5311 0
M  V30 6623 H 619.822 -0.986337 -1.28386 0
M  V30 6624 H 621.814 0.43991 -4.02302 0
M  V30 6625 H 620.384 0.797335 -3.0226 0
M  V30 6626 H 619.604 -1.62208 -3.5928 0
M  V30 6627 H 620.892 -1.65876 -4.81002 0
M  V30 6628 H 620.29 1.45384 -5.46699 0
M  V30 6629 H 618.847 1.30077 -6.38689 0
M  V30 6630 N 622.28 1.30327 -0.886154 0
M  V30 6631 C 623.696 1.48676 -0.580323 0
M  V30 6632 C 623.896 1.81189 0.881639 0
M  V30 6633 O 622.952 1.90021 1.66278 0
M  V30 6634 C 624.265 2.60932 -1.49449 0
M  V30 6635 C 625.813 2.74812 -1.49824 0
M  V30 6636 C 626.288 3.90183 -2.39836 0
M  V30 6637 N 627.779 3.97495 -2.37806 0
M  V30 6638 C 628.514 4.86078 -3.04165 0
M  V30 6639 N 628.01 5.79448 -3.79753 0
M  V30 6640 N 629.803 4.79456 -2.93391 0
M  V30 6641 H 621.954 1.07495 -1.8319 0
M  V30 6642 H 624.217 0.532661 -0.784204 0
M  V30 6643 H 623.923 2.43731 -2.5355 0
M  V30 6644 H 623.797 3.57437 -1.20494 0
M  V30 6645 H 626.184 2.91418 -0.464731 0
M  V30 6646 H 626.265 1.78924 -1.82811 0
M  V30 6647 H 625.909 3.74334 -3.43273 0
M  V30 6648 H 625.839 4.85411 -2.04166 0
M  V30 6649 H 628.33 3.30703 -1.82877 0
M  V30 6650 H 628.643 6.43805 -4.27475 0
M  V30 6651 H 626.988 5.79376 -3.8386 0
M  V30 6652 H 630.179 4.05494 -2.33864 0
M  V30 6653 H 630.352 5.48283 -3.45383 0
M  V30 6654 N 623.758 0.647228 1.43697 0
M  V30 6655 C 625.169 0.238689 1.85168 0
M  V30 6656 C 625.52 -1.21345 1.54175 0
M  V30 6657 O 624.645 -1.92542 0.987743 0
M  V30 6658 C 625.24 0.426422 3.36106 0
M  V30 6659 C 623.799 0.0722541 3.76331 0
M  V30 6660 C 622.946 0.732153 2.6746 0
M  V30 6661 H 625.897 0.851309 1.33934 0
M  V30 6662 H 625.918 -0.32987 3.79067 0
M  V30 6663 H 625.43 1.48339 3.58632 0
M  V30 6664 H 623.531 -0.982355 3.59417 0
M  V30 6665 H 623.644 0.493541 4.76551 0
M  V30 6666 H 622.008 0.16594 2.54159 0
M  V30 6667 H 622.791 1.79204 2.92816 0
M  V30 6668 N 625.236 -1.5273 0.388769 0
M  V30 6669 C 626.183 -2.26437 -0.446639 0
M  V30 6670 C 627.153 -1.28025 -1.05824 0
M  V30 6671 O 628.338 -1.56852 -1.08637 0
M  V30 6672 C 625.478 -3.07407 -1.56828 0
M  V30 6673 C 624.591 -4.20747 -0.979589 0
M  V30 6674 C 623.726 -4.89113 -2.07224 0
M  V30 6675 C 622.765 -5.94447 -1.45942 0
M  V30 6676 N 621.902 -6.56411 -2.49135 0
M  V30 6677 H 626.742 -2.97404 0.18837 0
M  V30 6678 H 624.279 -1.46727 0.104725 0
M  V30 6679 H 626.237 -3.52642 -2.22934 0
M  V30 6680 H 624.867 -2.3865 -2.17361 0
M  V30 6681 H 623.919 -3.7983 -0.208151 0
M  V30 6682 H 625.231 -4.9637 -0.491747 0
M  V30 6683 H 624.385 -5.3765 -2.81101 0
M  V30 6684 H 623.124 -4.13013 -2.59368 0
M  V30 6685 H 622.129 -5.4525 -0.705894 0
M  V30 6686 H 623.354 -6.7248 -0.945932 0
M  V30 6687 H 621.3 -5.83152 -3.00449 0
M  V30 6688 H 621.217 -7.27645 -2.05105 0
M  V30 6689 H 622.485 -7.09592 -3.22644 0
M  V30 6690 N 626.714 -0.118576 -1.57153 0
M  V30 6691 C 627.624 0.845484 -2.18835 0
M  V30 6692 C 628.64 1.29299 -1.16438 0
M  V30 6693 O 629.816 1.35607 -1.48905 0
M  V30 6694 C 626.881 2.07795 -2.77529 0
M  V30 6695 C 625.942 1.6824 -3.9496 0
M  V30 6696 C 625.175 2.85612 -4.50845 0
M  V30 6697 O 625.398 4.01025 -4.05629 0
M  V30 6698 O 624.332 2.62721 -5.41536 0
M  V30 6699 H 628.158 0.350568 -3.0167 0
M  V30 6700 H 625.743 0.107013 -1.49016 0
M  V30 6701 H 627.625 2.79978 -3.14945 0
M  V30 6702 H 626.3 2.56294 -1.97725 0
M  V30 6703 H 625.207 0.931663 -3.62313 0
M  V30 6704 H 626.54 1.24484 -4.76198 0
M  V30 6705 N 628.193 1.56834 0.155195 0
M  V30 6706 C 629.609 1.51315 0.50755 0
M  V30 6707 C 629.809 0.825614 1.83809 0
M  V30 6708 O 628.865 0.39271 2.49427 0
M  V30 6709 C 630.178 2.96074 0.52542 0
M  V30 6710 C 631.726 3.06968 0.611505 0
M  V30 6711 C 632.201 4.53218 0.660115 0
M  V30 6712 N 633.692 4.5753 0.722564 0
M  V30 6713 C 634.427 5.68056 0.781023 0
M  V30 6714 N 633.923 6.88173 0.799327 0
M  V30 6715 N 635.716 5.56068 0.821278 0
M  V30 6716 H 627.867 1.9993 -0.717063 0
M  V30 6717 H 630.13 0.911507 -0.260496 0
M  V30 6718 H 629.836 3.49599 -0.383875 0
M  V30 6719 H 629.71 3.51587 1.36624 0
M  V30 6720 H 632.097 2.53468 1.51122 0
M  V30 6721 H 632.178 2.54513 -0.256306 0
M  V30 6722 H 631.822 5.07354 -0.23541 0
M  V30 6723 H 631.752 5.03447 1.5443 0
M  V30 6724 H 634.243 3.71054 0.716049 0
M  V30 6725 H 634.556 7.6816 0.845553 0
M  V30 6726 H 632.901 6.90751 0.767337 0
M  V30 6727 H 636.092 4.61142 0.804091 0
M  V30 6728 H 636.265 6.42223 0.863372 0
M  V30 6729 N 629.671 -0.424282 1.51781 0
M  V30 6730 C 630.621 -1.51464 1.70419 0
M  V30 6731 C 631.605 -1.50911 0.558094 0
M  V30 6732 O 632.797 -1.57143 0.814552 0
M  V30 6733 C 629.926 -2.89539 1.84451 0
M  V30 6734 C 629.012 -2.94798 3.04886 0
M  V30 6735 N 629.403 -2.69778 4.27848 0
M  V30 6736 C 627.701 -3.25962 3.04408 0
M  V30 6737 C 628.402 -2.81216 5.09208 0
M  V30 6738 N 627.378 -3.13447 4.44131 0
M  V30 6739 H 631.18 -1.30892 2.63144 0
M  V30 6740 H 628.694 -0.631783 1.49607 0
M  V30 6741 H 630.691 -3.67998 1.95917 0
M  V30 6742 H 629.351 -3.11121 0.929168 0
M  V30 6743 H 630.362 -2.44458 4.56575 0
M  V30 6744 H 627.039 -3.53236 2.22555 0
M  V30 6745 H 628.429 -2.65715 6.17127 0
M  V30 6746 N 631.149 -1.42148 -0.680565 0
M  V30 6747 C 632.565 -1.24947 -0.992995 0
M  V30 6748 C 632.765 -0.149527 -2.00944 0
M  V30 6749 O 631.821 0.481145 -2.47873 0
M  V30 6750 C 633.134 -2.60426 -1.5033 0
M  V30 6751 C 634.682 -2.67733 -1.62137 0
M  V30 6752 C 635.157 -4.03564 -2.16565 0
M  V30 6753 N 636.648 -4.05488 -2.23905 0
M  V30 6754 C 637.383 -5.07401 -2.67081 0
M  V30 6755 N 636.879 -6.19698 -3.09751 0
M  V30 6756 N 638.672 -4.94758 -2.66778 0
M  V30 6757 H 630.823 -2.12399 -0.0074788 0
M  V30 6758 H 633.086 -0.94571 -0.0658529 0
M  V30 6759 H 632.792 -3.41743 -0.830947 0
M  V30 6760 H 632.666 -2.83949 -2.483 0
M  V30 6761 H 635.053 -1.86765 -2.2848 0
M  V30 6762 H 635.134 -2.48004 -0.626713 0
M  V30 6763 H 634.778 -4.84987 -1.50833 0
M  V30 6764 H 634.708 -4.20641 -3.1681 0
M  V30 6765 H 637.199 -3.24415 -1.93812 0
M  V30 6766 H 637.512 -6.93318 -3.41365 0
M  V30 6767 H 635.857 -6.23212 -3.07623 0
M  V30 6768 H 639.048 -4.06105 -2.32801 0
M  V30 6769 H 639.221 -5.74317 -3.00107 0
M  V30 6770 N 632.627 0.916307 -1.28225 0
M  V30 6771 C 634.043 1.19425 -1.05876 0
M  V30 6772 C 634.243 2.005 0.2005 0
M  V30 6773 O 633.299 2.35806 0.902873 0
M  V30 6774 C 634.612 1.93133 -2.30478 0
M  V30 6775 C 636.16 2.06026 -2.35632 0
M  V30 6776 C 636.635 2.83141 -3.59994 0
M  V30 6777 N 638.126 2.90704 -3.60618 0
M  V30 6778 C 638.861 3.50865 -4.53521 0
M  V30 6779 N 638.357 4.12327 -5.56739 0
M  V30 6780 N 640.15 3.48379 -4.41122 0
M  V30 6781 H 632.301 0.37496 -2.09064 0
M  V30 6782 H 634.564 0.228531 -0.920042 0
M  V30 6783 H 634.27 1.40985 -3.22205 0
M  V30 6784 H 634.144 2.93696 -2.36691 0
M  V30 6785 H 636.531 2.57355 -1.44404 0
M  V30 6786 H 636.612 1.04647 -2.33415 0
M  V30 6787 H 636.256 2.32492 -4.51564 0
M  V30 6788 H 636.186 3.84829 -3.59464 0
M  V30 6789 H 638.677 2.47034 -2.85977 0
M  V30 6790 H 638.99 4.56205 -6.23776 0
M  V30 6791 H 637.335 4.10839 -5.60568 0
M  V30 6792 H 640.526 2.99572 -3.59686 0
M  V30 6793 H 640.699 3.94974 -5.13712 0
M  V30 6794 N 634.105 1.10431 1.1244 0
M  V30 6795 C 635.053 0.747974 2.20246 0
M  V30 6796 C 636.047 -0.255848 1.67457 0
M  V30 6797 O 637.253 -0.116221 1.79624 0
M  V30 6798 H 633.628 0.223946 0.71788 0
M  V30 6799 H 635.599 1.6661 2.47556 0
M  V30 6800 C 634.348 0.195957 3.47147 0
M  V30 6801 H 633.671 0.959606 3.88113 0
M  V30 6802 H 635.111 -0.0153154 4.23997 0
M  V30 6803 C 633.57 -1.07132 3.19413 0
M  V30 6804 O 634.1 -2.15284 3.3914 0
M  V30 6805 N 632.306 -0.98994 2.73219 0
M  V30 6806 H 631.853 -0.109736 2.57366 0
M  V30 6807 H 631.811 -1.83856 2.55038 0
M  V30 6808 N 635.583 -1.29855 0.893053 0
M  V30 6809 C 636.813 -1.99686 0.530019 0
M  V30 6810 C 637.221 -1.67066 -0.888012 0
M  V30 6811 O 636.564 -0.908366 -1.5967 0
M  V30 6812 C 636.626 -3.53855 0.63457 0
M  V30 6813 C 636.29 -4.10013 2.01837 0
M  V30 6814 C 637.287 -4.25406 2.98874 0
M  V30 6815 C 634.972 -4.45202 2.32595 0
M  V30 6816 C 636.966 -4.7521 4.24799 0
M  V30 6817 C 634.653 -4.94704 3.58763 0
M  V30 6818 C 635.651 -5.09662 4.5468 0
M  V30 6819 O 635.339 -5.58093 5.78608 0
M  V30 6820 H 635.071 -0.644913 0.20264 0
M  V30 6821 H 637.625 -1.66518 1.20253 0
M  V30 6822 H 635.855 -3.86583 -0.0949477 0
M  V30 6823 H 637.544 -4.04922 0.281648 0
M  V30 6824 H 638.31 -3.98515 2.76425 0
M  V30 6825 H 634.189 -4.32822 1.58701 0
M  V30 6826 H 637.733 -4.86801 4.99671 0
M  V30 6827 H 633.63 -5.21032 3.81046 0
M  V30 6828 H 634.398 -5.7642 5.81104 0
M  V30 6829 N 637.061 -0.65484 -1.43351 0
M  V30 6830 C 638.307 -0.169142 -2.02093 0
M  V30 6831 C 638.64 1.21431 -1.51553 0
M  V30 6832 O 637.915 1.81105 -0.709317 0
M  V30 6833 C 638.198 -0.181775 -3.59641 0
M  V30 6834 C 638.051 -1.59926 -4.20409 0
M  V30 6835 C 639.37 0.480945 -4.37464 0
M  V30 6836 H 636.489 -0.0629371 -0.734308 0
M  V30 6837 H 639.131 -0.835833 -1.70628 0
M  V30 6838 H 637.281 0.385918 -3.86578 0
M  V30 6839 H 638.953 -2.21766 -4.04497 0
M  V30 6840 H 637.196 -2.14605 -3.76998 0
M  V30 6841 H 637.867 -1.55994 -5.295 0
M  V30 6842 H 640.343 -0.00208273 -4.161 0
M  V30 6843 H 639.219 0.441384 -5.47122 0
M  V30 6844 H 639.48 1.55533 -4.13838 0
M  V30 6845 N 638.539 1.52521 -0.396863 0
M  V30 6846 C 639.95 1.86547 0.0754868 0
M  V30 6847 C 640.301 1.31621 1.45501 0
M  V30 6848 O 639.426 0.650563 2.0639 0
M  V30 6849 C 640.021 3.38495 0.143754 0
M  V30 6850 C 638.58 3.72205 0.560413 0
M  V30 6851 C 637.727 2.75954 -0.272856 0
M  V30 6852 H 640.678 1.46323 -0.614434 0
M  V30 6853 H 640.699 3.68153 0.961425 0
M  V30 6854 H 640.211 3.78442 -0.860415 0
M  V30 6855 H 638.312 3.3783 1.57167 0
M  V30 6856 H 638.425 4.78074 0.313314 0
M  V30 6857 H 636.789 2.53339 0.263 0
M  V30 6858 H 637.572 3.1874 -1.27515 0
M  V30 6859 N 640.017 0.126909 1.57088 0
M  V30 6860 C 641.257 -0.53216 1.97351 0
M  V30 6861 C 641.621 -1.63342 1.00913 0
M  V30 6862 O 642.822 -2.35194 1.30144 0
M  V30 6863 C 641.093 -1.04385 3.41817 0
M  V30 6864 S 642.652 -1.71033 4.04095 0
M  V30 6865 H 639.47 -0.172724 0.689701 0
M  V30 6866 H 642.072 0.213865 1.94327 0
M  V30 6867 H 640.776 -0.231289 4.09748 0
M  V30 6868 H 640.307 -1.82496 3.48509 0
M  V30 6869 H 642.322 -2.99656 3.95501 0
M  V30 6870 N 641.495 -1.56914 -0.146875 0
M  V30 6871 C 642.445 -1.94693 -1.18653 0
M  V30 6872 C 643.429 -0.81821 -1.38543 0
M  V30 6873 O 644.621 -1.08167 -1.40103 0
M  V30 6874 C 641.75 -2.33117 -2.52014 0
M  V30 6875 C 640.836 -3.5256 -2.35717 0
M  V30 6876 N 641.227 -4.69091 -1.89175 0
M  V30 6877 C 639.525 -3.57647 -2.66467 0
M  V30 6878 C 640.226 -5.51187 -1.85924 0
M  V30 6879 N 639.202 -4.92899 -2.29242 0
M  V30 6880 H 643.004 -2.82264 -0.81879 0
M  V30 6881 H 640.518 -1.58474 -0.354929 0
M  V30 6882 H 642.515 -2.58387 -3.27172 0
M  V30 6883 H 641.175 -1.46898 -2.89571 0
M  V30 6884 H 642.186 -4.92844 -1.59139 0
M  V30 6885 H 638.863 -2.81967 -3.07898 0
M  V30 6886 H 640.253 -6.54613 -1.51431 0
M  V30 6887 N 642.974 0.416227 -1.52004 0
M  V30 6888 C 644.223 1.16088 -1.64944 0
M  V30 6889 C 644.536 1.91835 -0.381928 0
M  V30 6890 O 645.742 2.6867 -0.391013 0
M  V30 6891 C 644.198 2.1124 -2.91386 0
M  V30 6892 C 643.806 1.41042 -4.25219 0
M  V30 6893 C 645.55 2.86008 -3.13688 0
M  V30 6894 C 643.457 2.34801 -5.42791 0
M  V30 6895 H 642.387 0.437041 -0.61442 0
M  V30 6896 H 645.038 0.425971 -1.78487 0
M  V30 6897 H 643.42 2.88254 -2.71525 0
M  V30 6898 H 644.594 0.694416 -4.55538 0
M  V30 6899 H 642.909 0.78344 -4.08964 0
M  V30 6900 H 645.506 3.56286 -3.98703 0
M  V30 6901 H 645.849 3.48556 -2.27628 0
M  V30 6902 H 646.382 2.16095 -3.33988 0
M  V30 6903 H 643.121 1.7691 -6.31176 0
M  V30 6904 H 642.641 3.04395 -5.16821 0
M  V30 6905 H 644.32 2.9548 -5.75587 0
M  V30 6906 N 644.452 1.42507 0.673017 0
M  V30 6907 C 645.868 1.25472 0.986355 0
M  V30 6908 C 646.068 0.160181 2.00862 0
M  V30 6909 O 645.124 -0.467993 2.48125 0
M  V30 6910 C 646.437 2.61219 1.48947 0
M  V30 6911 C 647.985 2.68589 1.60715 0
M  V30 6912 C 648.46 4.04707 2.14422 0
M  V30 6913 N 649.951 4.0667 2.21752 0
M  V30 6914 C 650.686 5.0881 2.64386 0
M  V30 6915 N 650.182 6.21332 3.0646 0
M  V30 6916 N 651.975 4.96166 2.64151 0
M  V30 6917 H 644.126 2.124 -0.00378532 0
M  V30 6918 H 646.389 0.946046 0.0608367 0
M  V30 6919 H 646.095 3.42179 0.812812 0
M  V30 6920 H 645.969 2.85261 2.46791 0
M  V30 6921 H 648.356 1.87974 2.27486 0
M  V30 6922 H 648.437 2.48333 0.613552 0
M  V30 6923 H 648.081 4.8578 1.48258 0
M  V30 6924 H 648.011 4.22315 3.14575 0
M  V30 6925 H 650.502 3.25438 1.92089 0
M  V30 6926 H 650.815 6.95118 3.37684 0
M  V30 6927 H 649.16 6.24835 3.04313 0
M  V30 6928 H 652.351 4.07334 2.30644 0
M  V30 6929 H 652.524 5.759 2.97057 0
M  V30 6930 N 645.93 -0.909495 1.28709 0
M  V30 6931 C 646.862 -2.01729 1.08804 0
M  V30 6932 C 647.875 -1.62755 0.0384739 0
M  V30 6933 O 649.064 -1.76259 0.281977 0
M  V30 6934 C 646.164 -3.32952 0.63217 0
M  V30 6935 C 645.337 -4.00512 1.75809 0
M  V30 6936 C 644.396 -5.10019 1.29488 0
M  V30 6937 O 643.422 -5.32986 1.99787 0
M  V30 6938 N 644.624 -5.80278 0.1604 0
M  V30 6939 H 647.389 -2.19362 2.04207 0
M  V30 6940 H 644.95 -1.08106 1.20518 0
M  V30 6941 H 646.942 -4.03543 0.305802 0
M  V30 6942 H 645.512 -3.11759 -0.229134 0
M  V30 6943 H 644.732 -3.23413 2.25383 0
M  V30 6944 H 646.02 -4.42395 2.51325 0
M  V30 6945 H 645.418 -5.64094 -0.425937 0
M  V30 6946 H 643.975 -6.51713 -0.106663 0
M  V30 6947 N 647.408 -1.11026 -1.11852 0
M  V30 6948 C 648.657 -0.851249 -1.82857 0
M  V30 6949 C 648.97 0.62514 -1.85341 0
M  V30 6950 O 650.176 1.00026 -2.52403 0
M  V30 6951 C 648.632 -1.47309 -3.28372 0
M  V30 6952 C 648.24 -2.9832 -3.34229 0
M  V30 6953 C 649.984 -1.29373 -4.04306 0
M  V30 6954 C 647.891 -3.53509 -4.74115 0
M  V30 6955 H 646.821 -0.314794 -0.685143 0
M  V30 6956 H 649.472 -1.33499 -1.25898 0
M  V30 6957 H 647.854 -0.917017 -3.85236 0
M  V30 6958 H 649.028 -3.60295 -2.87271 0
M  V30 6959 H 647.343 -3.15482 -2.71772 0
M  V30 6960 H 649.94 -1.68042 -5.07608 0
M  V30 6961 H 650.283 -0.235879 -4.15631 0
M  V30 6962 H 650.816 -1.8182 -3.53817 0
M  V30 6963 H 647.555 -4.58987 -4.67986 0
M  V30 6964 H 647.075 -2.96305 -5.21501 0
M  V30 6965 H 648.754 -3.51693 -5.43066 0
M  V30 6966 N 648.886 1.2938 -0.899927 0
M  V30 6967 C 650.135 1.9483 -0.521937 0
M  V30 6968 C 650.448 1.71725 0.936473 0
M  V30 6969 O 651.654 2.31282 1.42199 0
M  V30 6970 C 650.11 3.48911 -0.88255 0
M  V30 6971 C 649.718 3.80815 -2.35974 0
M  V30 6972 C 651.462 4.20595 -0.57448 0
M  V30 6973 C 649.369 5.28142 -2.66121 0
M  V30 6974 H 648.299 0.729285 -0.191468 0
M  V30 6975 H 650.95 1.47103 -1.09695 0
M  V30 6976 H 649.332 3.95293 -0.236459 0
M  V30 6977 H 650.506 3.45291 -3.05141 0
M  V30 6978 H 648.821 3.22271 -2.63686 0
M  V30 6979 H 651.418 5.29031 -0.776556 0
M  V30 6980 H 651.761 4.13442 0.487005 0
M  V30 6981 H 652.294 3.79945 -1.17842 0
M  V30 6982 H 649.033 5.4036 -3.71068 0
M  V30 6983 H 648.553 5.64913 -2.01578 0
M  V30 6984 H 650.232 5.95738 -2.52399 0
M  V30 6985 N 650.364 0.662433 1.43002 0
M  V30 6986 C 651.312 -0.035345 2.32573 0
M  V30 6987 C 652.306 -0.803505 1.49131 0
M  V30 6988 O 653.512 -0.712865 1.65282 0
M  V30 6989 H 649.887 -0.0302194 0.751393 0
M  V30 6990 H 651.858 0.737686 2.89138 0
M  V30 6991 C 650.607 -0.981575 3.33557 0
M  V30 6992 H 649.93 -0.399914 3.97795 0
M  V30 6993 H 651.37 -1.43873 3.98844 0
M  V30 6994 C 649.829 -2.08204 2.64863 0
M  V30 6995 O 650.359 -3.16698 2.47113 0
M  V30 6996 N 648.565 -1.85022 2.24088 0
M  V30 6997 H 648.112 -0.967909 2.38724 0
M  V30 6998 H 648.07 -2.58845 1.78457 0
M  V30 6999 N 651.842 -1.52309 0.404946 0
M  V30 7000 C 653.07 -2.06185 -0.171818 0
M  V30 7001 C 653.485 -1.27536 -1.39212 0
M  V30 7002 O 652.842 -0.326112 -1.79563 0
M  V30 7003 C 652.893 -3.57647 -0.526417 0
M  V30 7004 O 652.614 -4.3332 0.645417 0
M  V30 7005 C 654.115 -4.27925 -1.15736 0
M  V30 7006 H 651.335 -0.670632 -0.0222328 0
M  V30 7007 H 653.879 -1.96259 0.574692 0
M  V30 7008 H 652.034 -3.67595 -1.22282 0
M  V30 7009 H 652.448 -5.23328 0.35042 0
M  V30 7010 H 653.922 -5.35093 -1.35572 0
M  V30 7011 H 654.399 -3.84134 -2.12926 0
M  V30 7012 H 655.005 -4.22335 -0.501281 0
M  V30 7013 N 653.32 -0.135238 -1.57019 0
M  V30 7014 C 654.566 0.513232 -1.96818 0
M  V30 7015 C 654.921 1.63245 -1.01827 0
M  V30 7016 O 654.214 1.91532 -0.0511756 0
M  V30 7017 C 654.408 1.07694 -3.40788 0
M  V30 7018 C 654.237 0.0138667 -4.49698 0
M  V30 7019 C 653.007 -0.423532 -5.03522 0
M  V30 7020 C 655.205 -0.77322 -5.08454 0
M  V30 7021 N 653.187 -1.47068 -5.96024 0
M  V30 7022 C 654.558 -1.67115 -5.97053 0
M  V30 7023 C 656.613 -0.822313 -4.91063 0
M  V30 7024 C 655.316 -2.61395 -6.70123 0
M  V30 7025 C 657.342 -1.75288 -5.64826 0
M  V30 7026 C 656.704 -2.63836 -6.53123 0
M  V30 7027 H 652.803 0.156956 -0.766087 0
M  V30 7028 H 655.387 -0.227118 -1.93371 0
M  V30 7029 H 653.558 1.78694 -3.44852 0
M  V30 7030 H 655.29 1.69106 -3.67675 0
M  V30 7031 H 652.045 -0.0280202 -4.73592 0
M  V30 7032 H 652.469 -1.99366 -6.46979 0
M  V30 7033 H 657.111 -0.151822 -4.22527 0
M  V30 7034 H 654.829 -3.2945 -7.37895 0
M  V30 7035 H 658.415 -1.79652 -5.53368 0
M  V30 7036 H 657.295 -3.34672 -7.092 0
M  V30 7037 N 654.798 1.5699 0.138552 0
M  V30 7038 C 655.748 1.9532 1.17619 0
M  V30 7039 C 656.732 0.825545 1.38107 0
M  V30 7040 O 657.924 1.08908 1.39528 0
M  V30 7041 C 655.053 2.34451 2.50774 0
M  V30 7042 C 654.139 3.53805 2.33844 0
M  V30 7043 N 654.53 4.70088 1.86685 0
M  V30 7044 C 652.828 3.59055 2.64567 0
M  V30 7045 C 653.529 5.52165 1.82998 0
M  V30 7046 N 652.505 4.94108 2.26624 0
M  V30 7047 H 656.307 2.82694 0.803809 0
M  V30 7048 H 653.821 1.5866 0.346519 0
M  V30 7049 H 655.818 2.60119 3.25797 0
M  V30 7050 H 654.478 1.48431 2.88788 0
M  V30 7051 H 655.489 4.93681 1.56523 0
M  V30 7052 H 652.166 2.83596 3.06398 0
M  V30 7053 H 653.556 6.55407 1.47957 0
M  V30 7054 N 656.276 -0.40816 1.52223 0
M  V30 7055 C 657.223 -1.49737 1.75635 0
M  V30 7056 C 658.193 -1.5493 0.598824 0
M  V30 7057 O 659.378 -1.71487 0.83648 0
M  V30 7058 C 656.518 -2.87174 1.91376 0
M  V30 7059 C 655.631 -2.91283 3.19027 0
M  V30 7060 C 654.766 -4.20026 3.25195 0
M  V30 7061 C 653.805 -4.18113 4.47044 0
M  V30 7062 N 652.942 -5.38429 4.50598 0
M  V30 7063 H 657.782 -1.29075 2.68596 0
M  V30 7064 H 655.319 -0.626518 1.33091 0
M  V30 7065 H 657.277 -3.66959 1.98486 0
M  V30 7066 H 655.907 -3.06329 1.01795 0
M  V30 7067 H 654.959 -2.03984 3.21084 0
M  V30 7068 H 656.271 -2.85734 4.08849 0
M  V30 7069 H 655.425 -5.08204 3.31382 0
M  V30 7070 H 654.164 -4.28271 2.33313 0
M  V30 7071 H 653.169 -3.28325 4.41002 0
M  V30 7072 H 654.394 -4.11507 5.40221 0
M  V30 7073 H 652.34 -5.4734 3.616 0
M  V30 7074 H 652.257 -5.34879 5.34266 0
M  V30 7075 H 653.525 -6.28557 4.61016 0
M  V30 7076 N 657.755 -1.42862 -0.66545 0
M  V30 7077 C 659.001 -1.44043 -1.42757 0
M  V30 7078 C 659.334 -0.0599629 -1.94107 0
M  V30 7079 O 658.609 0.917286 -1.71511 0
M  V30 7080 C 658.892 -2.47266 -2.61786 0
M  V30 7081 C 658.745 -3.94539 -2.16007 0
M  V30 7082 C 660.064 -2.47365 -3.64003 0
M  V30 7083 H 657.183 -0.524506 -0.517748 0
M  V30 7084 H 659.825 -1.74335 -0.755466 0
M  V30 7085 H 657.975 -2.21565 -3.19126 0
M  V30 7086 H 659.647 -4.31254 -1.63762 0
M  V30 7087 H 657.89 -4.07957 -1.47491 0
M  V30 7088 H 658.561 -4.62357 -3.01546 0
M  V30 7089 H 661.037 -2.70243 -3.16399 0
M  V30 7090 H 659.913 -3.21552 -4.44854 0
M  V30 7091 H 660.174 -1.50299 -4.15767 0
M  V30 7092 N 659.233 0.902656 -1.29189 0
M  V30 7093 C 660.481 1.6496 -1.16758 0
M  V30 7094 C 660.802 1.92952 0.28188 0
M  V30 7095 O 660.072 1.55351 1.19344 0
M  V30 7096 H 658.652 0.611447 -0.429118 0
M  V30 7097 H 661.314 1.0825 -1.62074 0
M  V30 7098 H 660.41 2.60728 -1.71544 0
M  V30 7099 N 660.711 1.11618 1.11262 0
M  V30 7100 C 661.658 0.7762 2.17356 0
M  V30 7101 C 662.628 -0.253152 1.6416 0
M  V30 7102 O 663.813 -0.129655 1.90359 0
M  V30 7103 C 660.953 0.227581 3.44349 0
M  V30 7104 C 660.066 1.31372 4.1154 0
M  V30 7105 C 659.201 0.72544 5.26223 0
M  V30 7106 C 658.24 1.7913 5.85302 0
M  V30 7107 N 657.377 1.22237 6.91377 0
M  V30 7108 H 662.217 1.68508 2.45783 0
M  V30 7109 H 659.754 0.841475 1.20655 0
M  V30 7110 H 661.712 -0.108483 4.17059 0
M  V30 7111 H 660.342 -0.644486 3.16301 0
M  V30 7112 H 659.394 1.7667 3.36885 0
M  V30 7113 H 660.706 2.12005 4.51504 0
M  V30 7114 H 659.86 0.339541 6.05749 0
M  V30 7115 H 658.599 -0.112188 4.87571 0
M  V30 7116 H 657.604 2.18648 5.04453 0
M  V30 7117 H 658.829 2.63199 6.26022 0
M  V30 7118 H 656.775 0.406423 6.5474 0
M  V30 7119 H 656.692 1.9654 7.30006 0
M  V30 7120 H 657.96 0.863426 7.74703 0
M  V30 7121 N 662.189 -1.289 0.906776 0
M  V30 7122 C 663.137 -2.29477 0.379873 0
M  V30 7123 C 664.131 -1.61068 -0.524747 0
M  V30 7124 O 665.337 -1.75344 -0.406765 0
M  V30 7125 H 661.712 -0.744742 0.10423 0
M  V30 7126 H 663.683 -2.71353 1.24137 0
M  V30 7127 C 662.432 -3.45713 -0.371154 0
M  V30 7128 H 661.755 -3.98551 0.315716 0
M  V30 7129 H 663.195 -4.18105 -0.704581 0
M  V30 7130 C 661.654 -2.9774 -1.57646 0
M  V30 7131 O 662.184 -2.99618 -2.67567 0
M  V30 7132 N 660.39 -2.53485 -1.42105 0
M  V30 7133 H 659.937 -2.52156 -0.526783 0
M  V30 7134 H 659.895 -2.21747 -2.22881 0
M  V30 7135 N 663.667 -0.670007 -1.42649 0
M  V30 7136 C 664.913 -0.190568 -2.01903 0
M  V30 7137 C 665.246 1.19817 -1.52832 0
M  V30 7138 O 664.521 1.80342 -0.728485 0
M  V30 7139 C 664.804 -0.21991 -3.59428 0
M  V30 7140 C 664.657 -1.64376 -4.18689 0
M  V30 7141 C 665.976 0.434519 -4.3795 0
M  V30 7142 H 663.095 -0.0707219 -0.733599 0
M  V30 7143 H 665.737 -0.853883 -1.69732 0
M  V30 7144 H 663.887 0.344894 -3.86966 0
M  V30 7145 H 665.559 -2.26044 -4.02122 0
M  V30 7146 H 663.802 -2.18591 -3.747 0
M  V30 7147 H 664.473 -1.61601 -5.27815 0
M  V30 7148 H 666.949 -0.0462156 -4.16074 0
M  V30 7149 H 665.825 0.38333 -5.4756 0
M  V30 7150 H 666.086 1.51135 -4.15464 0
M  V30 7151 N 665.145 1.52092 -0.413018 0
M  V30 7152 C 666.375 2.05974 0.160648 0
M  V30 7153 C 666.783 1.28267 1.39084 0
M  V30 7154 O 666.126 0.328805 1.80733 0
M  V30 7155 C 666.188 3.54918 0.572169 0
M  V30 7156 C 665.852 4.53705 -0.547826 0
M  V30 7157 C 666.849 5.00342 -1.41259 0
M  V30 7158 C 664.534 4.97089 -0.721627 0
M  V30 7159 C 666.528 5.89011 -2.43607 0
M  V30 7160 C 664.215 5.85554 -1.74841 0
M  V30 7161 C 665.213 6.3141 -2.60403 0
M  V30 7162 O 664.901 7.18123 -3.61323 0
M  V30 7163 H 664.633 0.675636 0.0221936 0
M  V30 7164 H 667.187 1.96931 -0.58373 0
M  V30 7165 H 665.417 3.61661 1.36889 0
M  V30 7166 H 667.106 3.91428 1.0742 0
M  V30 7167 H 667.872 4.67537 -1.28974 0
M  V30 7168 H 663.751 4.60954 -0.0652911 0
M  V30 7169 H 667.295 6.24725 -3.10425 0
M  V30 7170 H 663.192 6.17773 -1.87156 0
M  V30 7171 H 663.96 7.36244 -3.57613 0
M  V30 7172 N 666.623 0.143563 1.56945 0
M  V30 7173 C 667.553 -0.7936 2.196 0
M  V30 7174 C 668.534 -1.25955 1.14321 0
M  V30 7175 O 669.719 -1.31773 1.42651 0
M  V30 7176 C 666.849 -2.03424 2.81489 0
M  V30 7177 C 665.803 -1.70519 3.92565 0
M  V30 7178 C 665.129 -3.01817 4.41373 0
M  V30 7179 C 666.429 -0.95449 5.13504 0
M  V30 7180 H 668.123 -0.271423 2.98167 0
M  V30 7181 H 665.669 -0.12911 1.4342 0
M  V30 7182 H 667.622 -2.69463 3.23987 0
M  V30 7183 H 666.346 -2.58008 2.00248 0
M  V30 7184 H 665.005 -1.06859 3.5068 0
M  V30 7185 H 664.653 -3.54386 3.56959 0
M  V30 7186 H 664.353 -2.80565 5.16292 0
M  V30 7187 H 665.877 -3.68934 4.86539 0
M  V30 7188 H 667.291 -1.5169 5.52868 0
M  V30 7189 H 665.688 -0.842035 5.94163 0
M  V30 7190 H 666.758 0.0544033 4.84869 0
M  V30 7191 N 668.101 -1.57061 -0.130224 0
M  V30 7192 C 669.512 -1.73539 -0.68856 0
M  V30 7193 C 669.863 -0.760554 -1.80859 0
M  V30 7194 O 668.988 0.0690796 -2.1629 0
M  V30 7195 C 669.583 -3.14666 -1.25581 0
M  V30 7196 C 668.142 -3.32689 -1.76055 0
M  V30 7197 C 667.289 -2.69436 -0.655712 0
M  V30 7198 H 670.24 -1.58412 0.0956002 0
M  V30 7199 H 670.261 -3.15595 -2.12556 0
M  V30 7200 H 669.773 -3.85593 -0.440412 0
M  V30 7201 H 667.874 -2.66786 -2.60108 0
M  V30 7202 H 667.987 -4.4077 -1.87772 0
M  V30 7203 H 666.351 -2.30362 -1.08654 0
M  V30 7204 H 667.134 -3.42979 0.14852 0
M  V30 7205 N 669.579 0.400081 -1.52437 0
M  V30 7206 C 670.99 0.97851 -1.59003 0
M  V30 7207 C 671.341 1.91293 -0.436068 0
M  V30 7208 O 670.466 2.1183 0.442365 0
M  V30 7209 C 671.061 1.78145 -2.88184 0
M  V30 7210 C 669.62 2.30976 -2.97199 0
M  V30 7211 C 668.767 1.11212 -2.54022 0
M  V30 7212 H 671.718 0.180002 -1.57676 0
M  V30 7213 H 671.739 2.63968 -2.74046 0
M  V30 7214 H 671.251 1.1011 -3.72152 0
M  V30 7215 H 669.352 3.02355 -2.17744 0
M  V30 7216 H 669.465 2.61221 -4.01622 0
M  V30 7217 H 667.829 1.46882 -2.08081 0
M  V30 7218 H 668.612 0.447307 -3.40373 0
M  V30 7219 N 671.057 1.43213 0.657864 0
M  V30 7220 C 672.473 1.26511 0.972992 0
M  V30 7221 C 672.673 0.181477 2.00681 0
M  V30 7222 O 671.729 -0.441649 2.48608 0
M  V30 7223 C 673.042 2.62784 1.46168 0
M  V30 7224 C 674.59 2.70278 1.57857 0
M  V30 7225 C 675.065 4.06958 2.10117 0
M  V30 7226 N 676.556 4.08999 2.17426 0
M  V30 7227 C 677.291 5.11585 2.58975 0
M  V30 7228 N 676.787 6.24548 2.99853 0
M  V30 7229 N 678.58 4.9894 2.58873 0
M  V30 7230 H 670.731 2.12384 -0.0263129 0
M  V30 7231 H 672.994 0.946638 0.0507992 0
M  V30 7232 H 672.7 3.43022 0.776474 0
M  V30 7233 H 672.574 2.87863 2.43751 0
M  V30 7234 H 674.961 1.90376 2.25479 0
M  V30 7235 H 675.042 2.4897 0.587179 0
M  V30 7236 H 674.686 4.87325 1.43098 0
M  V30 7237 H 674.616 4.25628 3.10078 0
M  V30 7238 H 677.107 3.27457 1.88627 0
M  V30 7239 H 677.42 6.98661 3.30292 0
M  V30 7240 H 675.765 6.28027 2.97669 0
M  V30 7241 H 678.956 4.09757 2.26311 0
M  V30 7242 H 679.129 5.79019 2.90932 0
M  V30 7243 N 672.536 -0.895792 1.29666 0
M  V30 7244 C 673.446 -2.03329 1.17024 0
M  V30 7245 C 674.462 -1.73753 0.0925962 0
M  V30 7246 O 675.638 -1.99071 0.305431 0
M  V30 7247 C 672.703 -3.36072 0.851841 0
M  V30 7248 C 671.764 -3.7914 2.01373 0
M  V30 7249 C 670.997 -5.05549 1.71043 0
M  V30 7250 O 671.22 -5.66874 0.633213 0
M  V30 7251 O 670.154 -5.44764 2.5596 0
M  V30 7252 H 673.98 -2.16918 2.12556 0
M  V30 7253 H 671.565 -1.02007 1.09156 0
M  V30 7254 H 673.447 -4.15729 0.689006 0
M  V30 7255 H 672.122 -3.23616 -0.0736634 0
M  V30 7256 H 671.029 -3.00233 2.23183 0
M  V30 7257 H 672.362 -3.96186 2.92058 0
M  V30 7258 N 674.014 -1.12206 -1.10668 0
M  V30 7259 C 675.262 -0.874144 -1.82217 0
M  V30 7260 C 675.583 0.601736 -1.85484 0
M  V30 7261 O 674.853 1.43725 -1.33116 0
M  V30 7262 H 673.433 -0.320404 -0.674797 0
M  V30 7263 H 676.095 -1.41606 -1.33917 0
M  V30 7264 H 675.191 -1.25349 -2.85822 0
M  V30 7265 N 675.492 1.28418 -0.913599 0
M  V30 7266 C 676.769 1.89977 -0.465619 0
M  V30 7267 C 677.149 1.82813 1.05559 0
M  V30 7268 O 676.497 1.26397 1.90358 0
M  V30 7269 C 676.707 3.34492 -0.995813 0
M  V30 7270 C 678.055 4.11468 -1.04782 0
M  V30 7271 O 679.079 3.43451 -0.944445 0
M  V30 7272 O 677.938 5.33046 -1.20518 0
M  V30 7273 H 675.032 0.813734 -0.147532 0
M  V30 7274 H 677.578 1.36786 -1.00437 0
M  V30 7275 H 676.35 3.33929 -2.03978 0
M  V30 7276 H 675.973 3.95181 -0.437878 0
M  V30 7277 N 676.97 0.677563 1.42291 0
M  V30 7278 C 677.9 0.014968 2.33495 0
M  V30 7279 C 678.881 -0.786376 1.50831 0
M  V30 7280 O 680.066 -0.742975 1.79426 0
M  V30 7281 C 677.196 -0.935023 3.34477 0
M  V30 7282 C 676.15 -0.242074 4.27315 0
M  V30 7283 C 675.476 -1.30519 5.18526 0
M  V30 7284 C 676.776 0.880604 5.14823 0
M  V30 7285 H 678.47 0.776671 2.89151 0
M  V30 7286 H 676.016 0.37494 1.39033 0
M  V30 7287 H 677.969 -1.40766 3.97194 0
M  V30 7288 H 676.693 -1.72818 2.77131 0
M  V30 7289 H 675.352 0.210351 3.65996 0
M  V30 7290 H 675 -2.09041 4.57505 0
M  V30 7291 H 674.7 -0.846652 5.81468 0
M  V30 7292 H 676.224 -1.7787 5.84119 0
M  V30 7293 H 677.638 0.489062 5.7121 0
M  V30 7294 H 676.035 1.26511 5.86613 0
M  V30 7295 H 677.105 1.72818 4.53059 0
M  V30 7296 N 678.448 -1.51871 0.421078 0
M  V30 7297 C 679.676 -2.06356 -0.14994 0
M  V30 7298 C 680.091 -1.29006 -1.37851 0
M  V30 7299 O 679.448 -0.345139 -1.79207 0
M  V30 7300 C 679.499 -3.58185 -0.488454 0
M  V30 7301 O 679.22 -4.32611 0.691341 0
M  V30 7302 C 680.721 -4.29129 -1.11191 0
M  V30 7303 H 677.941 -0.67083 -0.0151186 0
M  V30 7304 H 680.485 -1.95638 0.595476 0
M  V30 7305 H 678.64 -3.68871 -1.18376 0
M  V30 7306 H 679.054 -5.22927 0.405906 0
M  V30 7307 H 680.528 -5.36501 -1.29889 0
M  V30 7308 H 681.005 -3.86371 -2.0884 0
M  V30 7309 H 681.611 -4.22843 -0.456458 0
M  V30 7310 N 679.926 -0.151884 -1.56866 0
M  V30 7311 C 681.166 0.500695 -1.98173 0
M  V30 7312 C 681.53 1.61715 -1.03499 0
M  V30 7313 O 682.731 2.33093 -1.33869 0
M  V30 7314 C 681.002 0.989333 -3.43434 0
M  V30 7315 S 682.561 1.64583 -4.06765 0
M  V30 7316 H 679.379 0.16173 -0.692361 0
M  V30 7317 H 681.981 -0.244754 -1.93962 0
M  V30 7318 H 680.685 0.166072 -4.10064 0
M  V30 7319 H 680.216 1.76929 -3.51368 0
M  V30 7320 H 682.231 2.93326 -4.00218 0
M  V30 7321 N 681.404 1.57128 0.121893 0
M  V30 7322 C 682.352 2.01109 1.16868 0
M  V30 7323 C 683.346 0.907532 1.43039 0
M  V30 7324 O 684.552 1.09274 1.43036 0
M  V30 7325 H 680.927 0.640539 0.393971 0
M  V30 7326 H 682.898 2.88261 0.771224 0
M  V30 7327 C 681.647 2.42887 2.48799 0
M  V30 7328 H 680.97 3.2737 2.29498 0
M  V30 7329 H 682.41 2.77461 3.20611 0
M  V30 7330 C 680.869 1.29137 3.11168 0
M  V30 7331 O 681.399 0.605756 3.97106 0
M  V30 7332 N 679.605 1.04916 2.71 0
M  V30 7333 H 679.152 1.60848 2.01211 0
M  V30 7334 H 679.11 0.290016 3.1306 0
M  V30 7335 N 682.882 -0.391992 1.52647 0
M  V30 7336 C 684.107 -1.16312 1.71716 0
M  V30 7337 C 684.532 -1.83042 0.433279 0
M  V30 7338 O 683.89 -1.70705 -0.610707 0
M  V30 7339 C 683.938 -2.18908 2.86551 0
M  V30 7340 O 683.042 -3.2543 2.53316 0
M  V30 7341 H 682.383 -0.338743 0.571095 0
M  V30 7342 H 684.913 -0.457202 1.99426 0
M  V30 7343 H 684.923 -2.62954 3.1196 0
M  V30 7344 H 683.598 -1.69726 3.79692 0
M  V30 7345 H 682.175 -2.86543 2.38637 0
M  V30 7346 N 684.36 -1.4356 -0.65026 0
M  V30 7347 C 685.588 -1.48779 -1.43779 0
M  V30 7348 C 686.003 -0.106593 -1.88499 0
M  V30 7349 O 685.36 0.883766 -1.59674 0
M  V30 7350 C 685.411 -2.43618 -2.67081 0
M  V30 7351 O 685.132 -3.76367 -2.24231 0
M  V30 7352 C 686.633 -2.5811 -3.60409 0
M  V30 7353 H 683.853 -0.50521 -0.441593 0
M  V30 7354 H 686.397 -1.88332 -0.796941 0
M  V30 7355 H 684.552 -2.07253 -3.273 0
M  V30 7356 H 684.966 -4.27394 -3.0403 0
M  V30 7357 H 686.44 -3.28539 -4.43583 0
M  V30 7358 H 686.917 -1.627 -4.07953 0
M  V30 7359 H 687.523 -2.95298 -3.0607 0
M  V30 7360 N 685.838 0.888903 -1.30139 0
M  V30 7361 C 687.084 1.6428 -1.18912 0
M  V30 7362 C 687.417 1.92499 0.256477 0
M  V30 7363 O 686.692 1.54312 1.18397 0
M  V30 7364 C 686.975 2.9851 -2.01405 0
M  V30 7365 C 686.828 2.77288 -3.54163 0
M  V30 7366 C 688.147 3.99383 -1.84882 0
M  V30 7367 H 685.266 0.596148 -0.433333 0
M  V30 7368 H 687.908 1.0289 -1.5973 0
M  V30 7369 H 686.058 3.50907 -1.66722 0
M  V30 7370 H 687.73 2.31709 -3.98884 0
M  V30 7371 H 685.973 2.11867 -3.78543 0
M  V30 7372 H 686.644 3.72717 -4.07168 0
M  V30 7373 H 689.12 3.56132 -2.15196 0
M  V30 7374 H 687.996 4.91222 -2.44934 0
M  V30 7375 H 688.257 4.34674 -0.806902 0
M  V30 7376 N 687.317 1.12792 1.10072 0
M  V30 7377 C 688.545 0.908506 1.85886 0
M  V30 7378 C 688.96 -0.542408 1.80841 0
M  V30 7379 O 688.317 -1.37517 1.1998 0
M  V30 7380 C 688.368 1.37973 3.34134 0
M  V30 7381 O 688.089 2.77378 3.39106 0
M  V30 7382 C 689.59 1.1978 4.26811 0
M  V30 7383 H 686.81 0.3244 0.587372 0
M  V30 7384 H 689.354 1.49882 1.39125 0
M  V30 7385 H 687.509 0.832566 3.78348 0
M  V30 7386 H 687.923 2.98144 4.31521 0
M  V30 7387 H 689.397 1.57635 5.29014 0
M  V30 7388 H 689.874 0.138768 4.38981 0
M  V30 7389 H 690.48 1.73266 3.88406 0
M  V30 7390 N 688.795 -1.27931 0.920396 0
M  V30 7391 C 690.02 -1.99343 0.572478 0
M  V30 7392 C 690.445 -1.68267 -0.840696 0
M  V30 7393 O 689.803 -0.918805 -1.56294 0
M  V30 7394 C 689.851 -3.51698 0.796284 0
M  V30 7395 O 688.955 -4.12157 -0.141602 0
M  V30 7396 H 688.296 -0.626065 0.221221 0
M  V30 7397 H 690.826 -1.62921 1.23765 0
M  V30 7398 H 690.836 -4.01793 0.708984 0
M  V30 7399 H 689.511 -3.73649 1.82644 0
M  V30 7400 H 688.088 -3.729 -0.005007 0
M  V30 7401 N 690.273 -0.685099 -1.4193 0
M  V30 7402 C 691.203 -0.0273506 -2.33484 0
M  V30 7403 C 692.184 0.778366 -1.51246 0
M  V30 7404 O 693.369 0.733449 -1.79817 0
M  V30 7405 C 690.499 0.917272 -3.34968 0
M  V30 7406 C 689.453 0.21941 -4.27437 0
M  V30 7407 C 688.779 1.27768 -5.1921 0
M  V30 7408 C 690.079 -0.907894 -5.14349 0
M  V30 7409 H 691.773 -0.791994 -2.88735 0
M  V30 7410 H 689.319 -0.382308 -1.38832 0
M  V30 7411 H 691.272 1.38657 -3.97935 0
M  V30 7412 H 689.996 1.71346 -2.78043 0
M  V30 7413 H 688.655 -0.229757 -3.65879 0
M  V30 7414 H 688.303 2.06612 -4.58607 0
M  V30 7415 H 688.003 0.815803 -5.81909 0
M  V30 7416 H 689.527 1.7477 -5.85054 0
M  V30 7417 H 690.941 -0.519348 -5.70943 0
M  V30 7418 H 689.338 -1.2962 -5.85934 0
M  V30 7419 H 690.408 -1.75218 -4.52136 0
M  V30 7420 N 691.751 1.51645 -0.429126 0
M  V30 7421 C 693 2.01203 0.141538 0
M  V30 7422 C 693.313 1.31828 1.44502 0
M  V30 7423 O 694.519 1.7231 2.09813 0
M  V30 7424 C 692.975 3.58624 0.302786 0
M  V30 7425 C 692.583 4.3693 -0.989775 0
M  V30 7426 C 694.327 4.16353 0.827661 0
M  V30 7427 C 692.234 5.86037 -0.794619 0
M  V30 7428 H 691.164 0.751867 0.05667 0
M  V30 7429 H 693.815 1.74822 -0.557633 0
M  V30 7430 H 692.197 3.81417 1.06476 0
M  V30 7431 H 693.371 4.25887 -1.75945 0
M  V30 7432 H 691.686 3.90614 -1.44256 0
M  V30 7433 H 694.283 5.25455 0.990026 0
M  V30 7434 H 694.626 3.74995 1.80787 0
M  V30 7435 H 695.159 3.97606 0.124213 0
M  V30 7436 H 691.898 6.31792 -1.74697 0
M  V30 7437 H 691.418 5.99765 -0.0645968 0
M  V30 7438 H 693.097 6.45471 -0.444591 0
M  V30 7439 N 693.229 0.160201 1.56784 0
M  V30 7440 C 694.192 -0.760405 2.16219 0
M  V30 7441 C 695.192 -1.16595 1.10735 0
M  V30 7442 O 696.382 -1.08472 1.36306 0
M  V30 7443 C 693.514 -2.03358 2.73603 0
M  V30 7444 H 694.707 -0.243173 2.98912 0
M  V30 7445 H 692.26 -0.0893139 1.56045 0
M  V30 7446 H 692.995 -2.59416 1.94612 0
M  V30 7447 H 692.78 -1.75186 3.50788 0
M  V30 7448 H 694.27 -2.69081 3.19351 0
M  V30 7449 N 694.707 -1.5719 -0.113559 0
M  V30 7450 C 695.655 -2.01725 -1.158 0
M  V30 7451 C 696.649 -0.915105 -1.42556 0
M  V30 7452 O 697.855 -1.10031 -1.42454 0
M  V30 7453 H 694.23 -0.64262 -0.390569 0
M  V30 7454 H 696.201 -2.88666 -0.755926 0
M  V30 7455 C 694.95 -2.44203 -2.47507 0
M  V30 7456 H 694.273 -3.28582 -2.27758 0
M  V30 7457 H 695.713 -2.79158 -3.19135 0
M  V30 7458 C 694.172 -1.30785 -3.10478 0
M  V30 7459 O 694.702 -0.626807 -3.9678 0
M  V30 7460 N 692.908 -1.06352 -2.7044 0
M  V30 7461 H 692.455 -1.61913 -2.00355 0
M  V30 7462 H 692.413 -0.306614 -3.12901 0
M  V30 7463 N 696.185 0.383891 -1.52853 0
M  V30 7464 C 697.434 1.12563 -1.67369 0
M  V30 7465 C 697.747 1.90982 -0.422533 0
M  V30 7466 O 698.953 2.6778 -0.447914 0
M  V30 7467 C 697.409 2.05011 -2.95801 0
M  V30 7468 C 697.017 1.31991 -4.28115 0
M  V30 7469 C 698.761 2.79289 -3.19684 0
M  V30 7470 C 696.668 2.23235 -5.4765 0
M  V30 7471 H 695.598 0.42391 -0.623552 0
M  V30 7472 H 698.249 0.388016 -1.79351 0
M  V30 7473 H 696.631 2.82429 -2.77578 0
M  V30 7474 H 697.805 0.597633 -4.56908 0
M  V30 7475 H 696.12 0.696517 -4.10533 0
M  V30 7476 H 698.717 3.47749 -4.06171 0
M  V30 7477 H 699.06 3.43649 -2.3497 0
M  V30 7478 H 699.593 2.08962 -3.38496 0
M  V30 7479 H 696.332 1.63482 -6.34786 0
M  V30 7480 H 695.852 2.93364 -5.23161 0
M  V30 7481 H 697.531 2.83205 -5.81725 0
M  V30 7482 N 697.663 1.43903 0.642637 0
M  V30 7483 C 698.94 1.36556 1.40043 0
M  V30 7484 C 699.32 0.0185588 2.11092 0
M  V30 7485 O 698.668 -0.998438 2.05532 0
M  V30 7486 C 698.878 2.55596 2.37638 0
M  V30 7487 C 700.226 2.99153 3.01318 0
M  V30 7488 O 701.25 2.55719 2.47965 0
M  V30 7489 O 700.109 3.74427 3.98078 0
M  V30 7490 H 697.203 0.540189 0.626198 0
M  V30 7491 H 699.749 1.55971 0.668657 0
M  V30 7492 H 698.521 3.45256 1.84158 0
M  V30 7493 H 698.144 2.38334 3.18249 0
M  V30 7494 N 699.141 -0.881989 1.30609 0
M  V30 7495 C 700.387 -1.63649 1.20791 0
M  V30 7496 C 700.742 -1.90966 -0.234437 0
M  V30 7497 O 700.035 -1.52163 -1.16434 0
M  V30 7498 C 700.229 -2.97999 1.97311 0
M  V30 7499 C 700.058 -2.83798 3.48839 0
M  V30 7500 C 698.828 -2.83622 4.18195 0
M  V30 7501 C 701.026 -2.59529 4.44015 0
M  V30 7502 N 699.008 -2.60344 5.55962 0
M  V30 7503 C 700.379 -2.45401 5.69366 0
M  V30 7504 C 702.434 -2.44777 4.33576 0
M  V30 7505 C 701.137 -2.18023 6.85462 0
M  V30 7506 C 703.163 -2.18785 5.49443 0
M  V30 7507 C 702.525 -2.05436 6.73777 0
M  V30 7508 H 698.624 -0.603687 0.497077 0
M  V30 7509 H 701.208 -1.03908 1.64655 0
M  V30 7510 H 699.379 -3.55767 1.55834 0
M  V30 7511 H 701.111 -3.6266 1.79611 0
M  V30 7512 H 697.866 -2.95562 3.70054 0
M  V30 7513 H 698.29 -2.51709 6.28468 0
M  V30 7514 H 702.932 -2.53831 3.38126 0
M  V30 7515 H 700.65 -2.07707 7.8095 0
M  V30 7516 H 704.236 -2.08188 5.43276 0
M  V30 7517 H 703.116 -1.85605 7.61919 0
M  V30 7518 N 700.619 -1.13374 -1.09472 0
M  V30 7519 C 701.847 -0.918351 -1.85402 0
M  V30 7520 C 702.262 0.53281 -1.81126 0
M  V30 7521 O 701.619 1.36879 -1.20708 0
M  V30 7522 C 701.67 -1.39743 -3.33398 0
M  V30 7523 O 701.391 -2.79172 -3.37631 0
M  V30 7524 C 702.892 -1.22042 -4.2617 0
M  V30 7525 H 700.112 -0.327511 -0.585643 0
M  V30 7526 H 702.656 -1.50617 -1.38328 0
M  V30 7527 H 700.811 -0.852619 -3.77901 0
M  V30 7528 H 701.225 -3.00428 -4.29934 0
M  V30 7529 H 702.699 -1.60438 -5.2817 0
M  V30 7530 H 703.176 -0.162047 -4.38901 0
M  V30 7531 H 703.782 -1.75323 -3.87482 0
M  V30 7532 N 702.098 1.27442 -0.927168 0
M  V30 7533 C 703.375 1.89473 -0.485742 0
M  V30 7534 C 703.755 1.83922 1.03614 0
M  V30 7535 O 703.103 1.28409 1.89007 0
M  V30 7536 C 703.313 3.33417 -1.03123 0
M  V30 7537 C 704.661 4.10333 -1.0914 0
M  V30 7538 O 705.685 3.4243 -0.98082 0
M  V30 7539 O 704.544 5.31737 -1.26165 0
M  V30 7540 H 701.638 0.812124 -0.156154 0
M  V30 7541 H 704.184 1.35713 -1.01882 0
M  V30 7542 H 702.956 3.31747 -2.07508 0
M  V30 7543 H 702.579 3.94695 -0.479767 0
M  V30 7544 N 703.576 0.692616 1.41565 0
M  V30 7545 C 704.824 0.221896 2.00878 0
M  V30 7546 C 705.145 -1.18164 1.5512 0
M  V30 7547 O 704.415 -1.79679 0.78054 0
M  V30 7548 H 702.995 0.0790463 0.742806 0
M  V30 7549 H 705.657 0.893115 1.73232 0
M  V30 7550 H 704.753 0.23702 3.11199 0
M  V30 7551 N 705.054 -1.51416 0.437162 0
M  V30 7552 C 706.002 -2.29328 -0.388765 0
M  V30 7553 C 706.996 -1.35171 -1.02104 0
M  V30 7554 O 708.202 -1.52513 -0.956024 0
M  V30 7555 H 704.577 -0.738048 -0.144183 0
M  V30 7556 H 706.548 -2.96995 0.289212 0
M  V30 7557 C 705.297 -3.14741 -1.47761 0
M  V30 7558 H 704.62 -3.8708 -1.00045 0
M  V30 7559 H 706.06 -3.72313 -2.02877 0
M  V30 7560 C 704.519 -2.30105 -2.46076 0
M  V30 7561 O 705.049 -1.96055 -3.50607 0
M  V30 7562 N 703.255 -1.93331 -2.1696 0
M  V30 7563 H 702.802 -2.2122 -1.31983 0
M  V30 7564 H 702.76 -1.36999 -2.82982 0
M  V30 7565 N 706.532 -0.168513 -1.56696 0
M  V30 7566 C 707.464 0.794249 -2.14998 0
M  V30 7567 C 708.477 1.1957 -1.10485 0
M  V30 7568 O 709.666 1.13604 -1.37682 0
M  V30 7569 C 706.766 2.08018 -2.67547 0
M  V30 7570 C 705.939 1.84274 -3.96689 0
M  V30 7571 C 704.998 2.97059 -4.3433 0
M  V30 7572 O 704.024 2.67815 -5.02259 0
M  V30 7573 N 705.226 4.24775 -3.9566 0
M  V30 7574 H 707.991 0.295832 -2.98236 0
M  V30 7575 H 705.552 0.0143611 -1.61894 0
M  V30 7576 H 707.544 2.82559 -2.89729 0
M  V30 7577 H 706.114 2.49059 -1.88914 0
M  V30 7578 H 705.334 0.936528 -3.82914 0
M  V30 7579 H 706.622 1.65773 -4.81037 0
M  V30 7580 H 706.02 4.51395 -3.40968 0
M  V30 7581 H 704.577 4.96027 -4.22848 0
M  V30 7582 N 708.01 1.57248 0.105221 0
M  V30 7583 C 709.238 1.89768 0.82437 0
M  V30 7584 C 709.653 0.761192 1.72775 0
M  V30 7585 O 709.01 -0.267342 1.80531 0
M  V30 7586 C 709.061 3.2184 1.64625 0
M  V30 7587 O 708.782 4.31115 0.779217 0
M  V30 7588 C 710.283 3.68155 2.46935 0
M  V30 7589 H 707.503 0.628031 0.236259 0
M  V30 7590 H 710.047 2.04321 0.085485 0
M  V30 7591 H 708.202 3.08915 2.33775 0
M  V30 7592 H 708.616 5.06897 1.34745 0
M  V30 7593 H 710.09 4.6329 3.00111 0
M  V30 7594 H 710.567 2.95492 3.24932 0
M  V30 7595 H 711.173 3.83914 1.83002 0
M  V30 7596 N 709.488 -0.375779 1.53054 0
M  V30 7597 C 710.713 -1.14484 1.7294 0
M  V30 7598 C 711.138 -1.82572 0.452668 0
M  V30 7599 O 710.496 -1.71343 -0.592567 0
M  V30 7600 C 710.544 -2.15857 2.88857 0
M  V30 7601 O 709.648 -3.22725 2.56753 0
M  V30 7602 H 708.989 -0.332666 0.574656 0
M  V30 7603 H 711.519 -0.436025 1.999 0
M  V30 7604 H 711.529 -2.59631 3.14731 0
M  V30 7605 H 710.204 -1.65689 3.81471 0
M  V30 7606 H 708.781 -2.83996 2.41663 0
M  V30 7607 N 710.966 -1.44241 -0.634997 0
M  V30 7608 C 712.215 -1.46102 -1.39058 0
M  V30 7609 C 712.528 -0.0959909 -1.95364 0
M  V30 7610 O 713.734 0.00788751 -2.71499 0
M  V30 7611 C 712.19 -2.57195 -2.51751 0
M  V30 7612 C 711.798 -3.99888 -2.01974 0
M  V30 7613 C 713.542 -2.68272 -3.28984 0
M  V30 7614 C 711.449 -5.02412 -3.11987 0
M  V30 7615 H 710.379 -0.543556 -0.522554 0
M  V30 7616 H 713.03 -1.70294 -0.683538 0
M  V30 7617 H 711.412 -2.26237 -3.25012 0
M  V30 7618 H 712.586 -4.40396 -1.35604 0
M  V30 7619 H 710.901 -3.93019 -1.37568 0
M  V30 7620 H 713.498 -3.42042 -4.10988 0
M  V30 7621 H 713.841 -1.73957 -3.78212 0
M  V30 7622 H 714.374 -2.98622 -2.62812 0
M  V30 7623 H 711.113 -5.98342 -2.67707 0
M  V30 7624 H 710.633 -4.66501 -3.77011 0
M  V30 7625 H 712.312 -5.25939 -3.76825 0
M  V30 7626 N 712.444 0.87505 -1.31075 0
M  V30 7627 C 713.672 1.66058 -1.23419 0
M  V30 7628 C 714.087 1.87723 0.201347 0
M  V30 7629 O 713.444 1.43178 1.13165 0
M  V30 7630 C 713.495 3.03142 -1.96945 0
M  V30 7631 O 713.216 2.82448 -3.34895 0
M  V30 7632 C 714.717 3.97583 -1.96067 0
M  V30 7633 H 711.937 0.517868 -0.426677 0
M  V30 7634 H 714.481 1.09258 -1.72867 0
M  V30 7635 H 712.636 3.56645 -1.51271 0
M  V30 7636 H 713.05 3.69483 -3.72267 0
M  V30 7637 H 714.524 4.91104 -2.52034 0
M  V30 7638 H 715.001 4.2898 -0.941961 0
M  V30 7639 H 715.607 3.50015 -2.41597 0
M  V30 7640 N 713.922 1.13953 1.08869 0
M  V30 7641 C 714.855 0.765765 2.14968 0
M  V30 7642 C 715.833 -0.250689 1.60656 0
M  V30 7643 O 717.017 -0.140852 1.87973 0
M  V30 7644 C 714.144 0.136146 3.38426 0
M  V30 7645 C 713.19 1.12201 4.11477 0
M  V30 7646 S 714.023 2.65711 4.64928 0
M  V30 7647 C 715.179 2.04125 5.91679 0
M  V30 7648 H 715.412 1.66444 2.46341 0
M  V30 7649 H 712.945 0.960263 1.20906 0
M  V30 7650 H 714.903 -0.220712 4.09906 0
M  V30 7651 H 713.564 -0.739887 3.05261 0
M  V30 7652 H 712.757 0.629398 5.00055 0
M  V30 7653 H 712.359 1.42262 3.45886 0
M  V30 7654 H 714.651 1.39381 6.63008 0
M  V30 7655 H 715.594 2.90808 6.45629 0
M  V30 7656 H 716.002 1.4905 5.44467 0
M  V30 7657 N 715.4 -1.26948 0.933913 0
M  V30 7658 C 716.625 -1.98724 0.593589 0
M  V30 7659 C 717.05 -1.6915 -0.822801 0
M  V30 7660 O 716.408 -0.93533 -1.5531 0
M  V30 7661 C 716.456 -3.50834 0.833542 0
M  V30 7662 O 715.56 -4.12284 -0.0978788 0
M  V30 7663 H 714.901 -0.623683 0.227849 0
M  V30 7664 H 717.431 -1.61599 1.25486 0
M  V30 7665 H 717.441 -4.01018 0.75156 0
M  V30 7666 H 716.116 -3.71691 1.86597 0
M  V30 7667 H 714.693 -3.72884 0.0345443 0
M  V30 7668 N 716.879 -0.700114 -1.41195 0
M  V30 7669 C 717.842 -0.0465706 -2.29153 0
M  V30 7670 C 718.842 0.703302 -1.44604 0
M  V30 7671 O 720.032 0.537513 -1.657 0
M  V30 7672 C 717.164 0.944324 -3.2756 0
M  V30 7673 H 718.357 -0.821064 -2.88442 0
M  V30 7674 H 715.91 -0.463869 -1.49258 0
M  V30 7675 H 716.645 1.74642 -2.73259 0
M  V30 7676 H 716.43 0.409701 -3.89954 0
M  V30 7677 H 717.92 1.39925 -3.9346 0
M  V30 7678 N 718.357 1.51182 -0.445186 0
M  V30 7679 C 719.267 2.31692 0.368255 0
M  V30 7680 C 720.283 1.40942 1.02036 0
M  V30 7681 O 721.459 1.74011 1.01401 0
M  V30 7682 C 718.524 3.14903 1.45041 0
M  V30 7683 C 717.585 4.21442 0.817615 0
M  V30 7684 C 716.818 5.00677 1.8482 0
M  V30 7685 O 717.041 4.80644 3.07145 0
M  V30 7686 O 715.975 5.84559 1.43438 0
M  V30 7687 H 719.801 3.0232 -0.289219 0
M  V30 7688 H 717.386 1.47951 -0.207555 0
M  V30 7689 H 719.268 3.66612 2.07783 0
M  V30 7690 H 717.943 2.47031 2.09182 0
M  V30 7691 H 716.85 3.73791 0.151931 0
M  V30 7692 H 718.183 4.9171 0.219564 0
M  V30 7693 N 719.835 0.176821 1.56605 0
M  V30 7694 C 721.081 -0.467406 1.9734 0
M  V30 7695 C 721.414 -1.62523 1.06301 0
M  V30 7696 O 720.689 -1.94182 0.11125 0
M  V30 7697 C 720.972 -0.945106 3.47476 0
M  V30 7698 C 720.825 0.213273 4.49294 0
M  V30 7699 C 722.144 -1.8169 4.00845 0
M  V30 7700 H 719.263 -0.168426 0.717497 0
M  V30 7701 H 721.905 0.264065 1.88156 0
M  V30 7702 H 720.055 -1.56841 3.55434 0
M  V30 7703 H 721.727 0.850508 4.53392 0
M  V30 7704 H 719.97 0.867918 4.25029 0
M  V30 7705 H 720.641 -0.163187 5.51759 0
M  V30 7706 H 723.117 -1.29139 3.95553 0
M  V30 7707 H 721.993 -2.12015 5.06301 0
M  V30 7708 H 722.254 -2.76463 3.44994 0
M  V30 7709 N 721.313 -1.57302 -0.09688 0
M  V30 7710 C 722.276 -2.00976 -1.10188 0
M  V30 7711 C 723.276 -0.903009 -1.3305 0
M  V30 7712 O 724.466 -1.16853 -1.29194 0
M  V30 7713 C 721.598 -2.36893 -2.45142 0
M  V30 7714 H 722.791 -2.9098 -0.726003 0
M  V30 7715 H 720.344 -1.52515 -0.341872 0
M  V30 7716 H 721.079 -1.49837 -2.8761 0
M  V30 7717 H 720.864 -3.17632 -2.29897 0
M  V30 7718 H 722.354 -2.71345 -3.1743 0
M  V30 7719 N 722.791 0.367657 -1.53252 0
M  V30 7720 C 723.701 1.47415 -1.82499 0
M  V30 7721 C 724.717 1.58711 -0.713222 0
M  V30 7722 O 725.893 1.74644 -1.00306 0
M  V30 7723 C 722.958 2.82706 -2.00694 0
M  V30 7724 C 722.019 2.80955 -3.24596 0
M  V30 7725 C 721.252 4.09793 -3.41914 0
M  V30 7726 O 721.475 5.05852 -2.63572 0
M  V30 7727 O 720.409 4.15731 -4.3526 0
M  V30 7728 H 724.235 1.25624 -2.765 0
M  V30 7729 H 721.82 0.557559 -1.38606 0
M  V30 7730 H 723.702 3.62873 -2.14246 0
M  V30 7731 H 722.377 3.04479 -1.09883 0
M  V30 7732 H 721.284 1.99494 -3.16469 0
M  V30 7733 H 722.617 2.64136 -4.15323 0
M  V30 7734 N 724.269 1.44576 0.627338 0
M  V30 7735 C 725.199 1.54562 1.75022 0
M  V30 7736 C 726.18 0.398378 1.65369 0
M  V30 7737 O 727.365 0.61899 1.84071 0
M  V30 7738 C 724.495 1.49309 3.13567 0
M  V30 7739 C 723.449 2.62549 3.38012 0
M  V30 7740 C 722.775 2.42348 4.76625 0
M  V30 7741 C 724.075 4.04678 3.30202 0
M  V30 7742 H 725.769 2.4855 1.66922 0
M  V30 7743 H 723.315 1.19624 0.801636 0
M  V30 7744 H 725.268 1.54895 3.919 0
M  V30 7745 H 723.992 0.518392 3.2246 0
M  V30 7746 H 722.651 2.56358 2.62061 0
M  V30 7747 H 722.299 1.43062 4.82226 0
M  V30 7748 H 721.999 3.18273 4.93939 0
M  V30 7749 H 723.523 2.49758 5.57183 0
M  V30 7750 H 724.937 4.12217 3.98435 0
M  V30 7751 H 723.334 4.80836 3.5905 0
M  V30 7752 H 724.404 4.2798 2.27949 0
M  V30 7753 N 725.747 -0.868086 1.31537 0
M  V30 7754 C 726.977 -1.65162 1.24118 0
M  V30 7755 C 727.385 -1.88187 -0.195558 0
M  V30 7756 O 726.728 -1.44154 -1.13866 0
M  V30 7757 C 726.79 -3.04119 1.91708 0
M  V30 7758 C 726.454 -3.04194 3.4105 0
M  V30 7759 C 727.451 -2.82016 4.36764 0
M  V30 7760 C 725.136 -3.25256 3.82772 0
M  V30 7761 C 727.13 -2.80881 5.72175 0
M  V30 7762 C 724.817 -3.23749 5.18295 0
M  V30 7763 C 725.815 -3.01589 6.12808 0
M  V30 7764 O 725.503 -2.9993 7.45853 0
M  V30 7765 H 725.235 -0.521597 0.430015 0
M  V30 7766 H 727.789 -1.09165 1.73989 0
M  V30 7767 H 726.019 -3.61849 1.36389 0
M  V30 7768 H 727.708 -3.64701 1.78179 0
M  V30 7769 H 728.474 -2.65525 4.05859 0
M  V30 7770 H 724.353 -3.41534 3.09638 0
M  V30 7771 H 727.897 -2.63503 6.45919 0
M  V30 7772 H 723.794 -3.39781 5.48834 0
M  V30 7773 H 724.562 -3.15979 7.55049 0
M  V30 7774 N 727.225 -1.14528 -1.08264 0
M  V30 7775 C 728.641 -0.885976 -1.3275 0
M  V30 7776 C 728.841 0.472096 -1.95892 0
M  V30 7777 O 727.897 1.21606 -2.21288 0
M  V30 7778 C 729.21 -2.01982 -2.22764 0
M  V30 7779 C 730.758 -2.05329 -2.36239 0
M  V30 7780 C 731.233 -3.1801 -3.29596 0
M  V30 7781 N 732.724 -3.17598 -3.37173 0
M  V30 7782 C 733.459 -4.01426 -4.09444 0
M  V30 7783 N 732.955 -4.95297 -4.8441 0
M  V30 7784 N 734.748 -3.89482 -4.0529 0
M  V30 7785 H 726.899 -2.01996 -0.656607 0
M  V30 7786 H 729.162 -0.880274 -0.351884 0
M  V30 7787 H 728.868 -2.99964 -1.83615 0
M  V30 7788 H 728.742 -1.94421 -3.23234 0
M  V30 7789 H 731.129 -1.07953 -2.74646 0
M  V30 7790 H 731.21 -2.1696 -1.35506 0
M  V30 7791 H 730.854 -4.15633 -2.9191 0
M  V30 7792 H 730.784 -3.03616 -4.30261 0
M  V30 7793 H 733.275 -2.4961 -2.83731 0
M  V30 7794 H 733.588 -5.55723 -5.37021 0
M  V30 7795 H 731.933 -4.99293 -4.83457 0
M  V30 7796 H 735.124 -3.15465 -3.45832 0
M  V30 7797 H 735.297 -4.55039 -4.6135 0
M  V30 7798 N 728.703 1.26451 -0.940633 0
M  V30 7799 C 729.633 2.28773 -0.467479 0
M  V30 7800 C 730.614 1.63218 0.478955 0
M  V30 7801 O 731.799 1.90427 0.380929 0
M  V30 7802 C 728.929 3.46259 0.268656 0
M  V30 7803 C 727.883 4.23898 -0.591171 0
M  V30 7804 C 727.209 5.33993 0.274891 0
M  V30 7805 C 728.509 4.87974 -1.86223 0
M  V30 7806 H 730.203 2.68601 -1.32265 0
M  V30 7807 H 727.749 1.29123 -0.637436 0
M  V30 7808 H 729.702 4.16951 0.610696 0
M  V30 7809 H 728.426 3.05383 1.15796 0
M  V30 7810 H 727.085 3.54969 -0.916098 0
M  V30 7811 H 726.733 4.89358 1.16353 0
M  V30 7812 H 726.433 5.86849 -0.297006 0
M  V30 7813 H 727.957 6.07523 0.612213 0
M  V30 7814 H 729.371 5.50883 -1.58747 0
M  V30 7815 H 727.768 5.50945 -2.37866 0
M  V30 7816 H 728.838 4.10945 -2.57394 0
M  V30 7817 N 730.181 0.707592 1.40822 0
M  V30 7818 C 731.091 0.0507246 2.34545 0
M  V30 7819 C 732.107 -0.752727 1.56876 0
M  V30 7820 O 733.283 -0.687524 1.89302 0
M  V30 7821 C 730.348 -0.865731 3.35717 0
M  V30 7822 C 729.409 -0.0531313 4.29267 0
M  V30 7823 C 728.642 -0.925939 5.25606 0
M  V30 7824 O 728.865 -2.16531 5.27703 0
M  V30 7825 O 727.799 -0.369194 6.00767 0
M  V30 7826 H 731.625 0.823587 2.9232 0
M  V30 7827 H 729.21 0.46801 1.4188 0
M  V30 7828 H 731.092 -1.39091 3.97783 0
M  V30 7829 H 729.767 -1.61788 2.80368 0
M  V30 7830 H 728.674 0.516931 3.70511 0
M  V30 7831 H 730.007 0.660617 4.87747 0
M  V30 7832 N 731.66 -1.50943 0.453197 0
M  V30 7833 C 732.59 -2.31005 -0.34044 0
M  V30 7834 C 733.571 -1.37112 -1.00669 0
M  V30 7835 O 734.756 -1.66033 -1.0073 0
M  V30 7836 C 731.886 -3.16358 -1.433 0
M  V30 7837 C 730.84 -4.18658 -0.889363 0
M  V30 7838 C 730.166 -4.92633 -2.07887 0
M  V30 7839 C 731.466 -5.22227 0.0871142 0
M  V30 7840 H 733.16 -2.97601 0.327723 0
M  V30 7841 H 730.706 -1.43119 0.159054 0
M  V30 7842 H 732.659 -3.71155 -1.99555 0
M  V30 7843 H 731.383 -2.47613 -2.12968 0
M  V30 7844 H 730.042 -3.64936 -0.348915 0
M  V30 7845 H 729.69 -4.20376 -2.76211 0
M  V30 7846 H 729.39 -5.61819 -1.72143 0
M  V30 7847 H 730.914 -5.50258 -2.64666 0
M  V30 7848 H 732.328 -5.72001 -0.385656 0
M  V30 7849 H 730.725 -5.99032 0.357926 0
M  V30 7850 H 731.795 -4.74077 1.01879 0
M  V30 7851 N 733.138 -0.185124 -1.56509 0
M  V30 7852 C 734.386 0.455357 -1.96903 0
M  V30 7853 C 734.707 1.62839 -1.07277 0
M  V30 7854 O 733.977 1.95385 -0.141966 0
M  V30 7855 H 732.557 0.171218 -0.727113 0
M  V30 7856 H 735.219 -0.26953 -1.93027 0
M  V30 7857 H 734.315 0.80616 -3.01509 0
M  V30 7858 N 734.616 1.57351 0.0885366 0
M  V30 7859 C 735.893 1.77449 0.822873 0
M  V30 7860 C 736.273 0.768463 1.96616 0
M  V30 7861 O 735.621 -0.201757 2.27608 0
M  V30 7862 C 735.831 3.23425 1.31137 0
M  V30 7863 C 737.179 3.86791 1.75152 0
M  V30 7864 O 738.203 3.27215 1.40745 0
M  V30 7865 O 737.062 4.91568 2.38794 0
M  V30 7866 H 734.156 0.727653 0.393002 0
M  V30 7867 H 736.702 1.69556 0.0699095 0
M  V30 7868 H 735.474 3.88188 0.49254 0
M  V30 7869 H 735.097 3.35977 2.12615 0
M  V30 7870 N 736.094 -0.359525 1.53444 0
M  V30 7871 C 737.324 -1.12036 1.73585 0
M  V30 7872 C 737.732 -1.83335 0.467438 0
M  V30 7873 O 737.075 -1.74641 -0.569753 0
M  V30 7874 C 737.137 -2.19036 2.85068 0
M  V30 7875 C 736.801 -1.67451 4.25217 0
M  V30 7876 C 737.798 -1.13534 5.07352 0
M  V30 7877 C 735.483 -1.72781 4.71648 0
M  V30 7878 C 737.477 -0.656321 6.34012 0
M  V30 7879 C 735.164 -1.2449 5.98285 0
M  V30 7880 C 736.162 -0.710068 6.79299 0
M  V30 7881 O 735.85 -0.234314 8.03558 0
M  V30 7882 H 735.582 -0.340662 0.583888 0
M  V30 7883 H 738.136 -0.422452 2.01009 0
M  V30 7884 H 736.366 -2.92338 2.53131 0
M  V30 7885 H 738.055 -2.80559 2.93328 0
M  V30 7886 H 738.821 -1.08751 4.7265 0
M  V30 7887 H 734.7 -2.13351 4.08659 0
M  V30 7888 H 738.244 -0.238193 6.97193 0
M  V30 7889 H 734.141 -1.28969 6.32485 0
M  V30 7890 H 734.909 -0.353084 8.17738 0
M  V30 7891 N 737.572 -1.44907 -0.619662 0
M  V30 7892 C 738.519 -1.52654 -1.73105 0
M  V30 7893 C 739.489 -0.373334 -1.6185 0
M  V30 7894 O 740.674 -0.585143 -1.81606 0
M  V30 7895 C 737.814 -1.48769 -3.11387 0
M  V30 7896 C 736.927 -2.74551 -3.33535 0
M  V30 7897 C 736.062 -2.62421 -4.61854 0
M  V30 7898 C 735.101 -3.83312 -4.77219 0
M  V30 7899 N 734.238 -3.69789 -5.96826 0
M  V30 7900 H 739.078 -2.47605 -1.65819 0
M  V30 7901 H 736.615 -1.22875 -0.808719 0
M  V30 7902 H 738.573 -1.44507 -3.91374 0
M  V30 7903 H 737.203 -0.573783 -3.1766 0
M  V30 7904 H 736.255 -2.88953 -2.47408 0
M  V30 7905 H 737.567 -3.64253 -3.40765 0
M  V30 7906 H 736.721 -2.56056 -5.50019 0
M  V30 7907 H 735.46 -1.70298 -4.57001 0
M  V30 7908 H 734.465 -3.90049 -3.87481 0
M  V30 7909 H 735.69 -4.76486 -4.83878 0
M  V30 7910 H 733.636 -2.80426 -5.93041 0
M  V30 7911 H 733.553 -4.53116 -6.05163 0
M  V30 7912 H 734.821 -3.67335 -6.87521 0
M  V30 7913 N 739.05 0.861098 -1.31996 0
M  V30 7914 C 739.98 1.98482 -1.22993 0
M  V30 7915 C 740.961 1.6971 -0.115168 0
M  V30 7916 O 742.146 1.91849 -0.30126 0
M  V30 7917 C 739.276 3.34179 -0.945615 0
M  V30 7918 C 738.23 3.77284 -2.02091 0
M  V30 7919 C 737.556 5.1054 -1.58912 0
M  V30 7920 C 738.856 3.93439 -3.43515 0
M  V30 7921 H 740.55 2.06271 -2.17008 0
M  V30 7922 H 738.096 0.991043 -1.04472 0
M  V30 7923 H 740.049 4.12338 -0.869206 0
M  V30 7924 H 738.773 3.26586 0.0301849 0
M  V30 7925 H 737.432 3.01371 -2.08737 0
M  V30 7926 H 737.08 4.99397 -0.600942 0
M  V30 7927 H 736.78 5.40352 -2.30854 0
M  V30 7928 H 738.304 5.91199 -1.52696 0
M  V30 7929 H 739.718 4.6197 -3.39495 0
M  V30 7930 H 738.115 4.34661 -4.13751 0
M  V30 7931 H 739.185 2.96548 -3.8365 0
M  V30 7932 N 740.528 1.15101 1.07655 0
M  V30 7933 C 741.774 0.925343 1.80458 0
M  V30 7934 C 742.107 -0.546354 1.86356 0
M  V30 7935 O 741.382 -1.40496 1.34503 0
M  V30 7936 C 741.665 1.53646 3.25676 0
M  V30 7937 C 741.518 3.07854 3.27942 0
M  V30 7938 C 742.837 1.21968 4.22861 0
M  V30 7939 H 739.956 0.337592 0.655134 0
M  V30 7940 H 742.598 1.42217 1.25993 0
M  V30 7941 H 740.748 1.11395 3.72187 0
M  V30 7942 H 742.42 3.58989 2.89697 0
M  V30 7943 H 740.663 3.41904 2.66991 0
M  V30 7944 H 741.334 3.45725 4.30324 0
M  V30 7945 H 743.81 1.5851 3.84726 0
M  V30 7946 H 742.686 1.67349 5.22767 0
M  V30 7947 H 742.947 0.136207 4.4189 0
M  V30 7948 N 742.006 -1.2595 0.947325 0
M  V30 7949 C 742.916 -2.29883 0.468079 0
M  V30 7950 C 743.932 -1.67783 -0.460975 0
M  V30 7951 O 745.108 -1.98526 -0.339006 0
M  V30 7952 C 742.173 -3.45773 -0.253315 0
M  V30 7953 C 741.234 -4.23337 0.713054 0
M  V30 7954 C 740.467 -5.33694 0.025993 0
M  V30 7955 O 740.69 -5.57853 -1.18978 0
M  V30 7956 O 739.624 -5.97724 0.70782 0
M  V30 7957 H 743.45 -2.72952 1.33156 0
M  V30 7958 H 741.035 -1.31263 0.713468 0
M  V30 7959 H 742.917 -4.16209 -0.659423 0
M  V30 7960 H 741.592 -3.04721 -1.09209 0
M  V30 7961 H 740.499 -3.55359 1.16923 0
M  V30 7962 H 741.832 -4.68154 1.51963 0
M  V30 7963 N 743.484 -0.715051 -1.40445 0
M  V30 7964 C 744.733 -0.251322 -2.00128 0
M  V30 7965 C 745.046 1.16194 -1.57347 0
M  V30 7966 O 746.252 1.72416 -2.09726 0
M  V30 7967 C 744.708 -0.398407 -3.57688 0
M  V30 7968 C 744.316 -1.81828 -4.09442 0
M  V30 7969 C 746.06 0.00455625 -4.245 0
M  V30 7970 C 743.967 -1.91598 -5.59503 0
M  V30 7971 H 742.897 -0.0902081 -0.748584 0
M  V30 7972 H 745.548 -0.886062 -1.6069 0
M  V30 7973 H 743.93 0.304908 -3.94824 0
M  V30 7974 H 745.104 -2.55193 -3.83684 0
M  V30 7975 H 743.419 -2.17266 -3.55225 0
M  V30 7976 H 746.016 -0.0477303 -5.34679 0
M  V30 7977 H 746.359 1.04636 -4.02935 0
M  V30 7978 H 746.892 -0.649184 -3.92467 0
M  V30 7979 H 743.631 -2.93898 -5.85922 0
M  V30 7980 H 743.151 -1.22644 -5.87127 0
M  V30 7981 H 744.83 -1.68785 -6.24596 0
M  V30 7982 N 744.962 1.50701 -0.461195 0
M  V30 7983 C 746.19 2.06681 0.0951756 0
M  V30 7984 C 746.605 1.32615 1.34382 0
M  V30 7985 O 745.962 0.392531 1.78229 0
M  V30 7986 C 746.013 3.59354 0.393316 0
M  V30 7987 O 745.734 4.30626 -0.805797 0
M  V30 7988 C 747.235 4.31926 0.997744 0
M  V30 7989 H 744.455 0.670995 -0.00267259 0
M  V30 7990 H 746.999 1.93991 -0.647137 0
M  V30 7991 H 745.154 3.7188 1.08555 0
M  V30 7992 H 745.568 5.21667 -0.544409 0
M  V30 7993 H 747.042 5.39756 1.15619 0
M  V30 7994 H 747.519 3.91772 1.98523 0
M  V30 7995 H 748.125 4.23905 0.344188 0
M  V30 7996 N 746.441 0.193421 1.56409 0
M  V30 7997 C 747.852 -0.319471 1.83946 0
M  V30 7998 C 748.203 -1.61505 1.11403 0
M  V30 7999 O 747.328 -2.13139 0.374289 0
M  V30 8000 C 747.923 -0.586411 3.33686 0
M  V30 8001 C 746.482 -1.04368 3.61641 0
M  V30 8002 C 745.629 -0.0913834 2.77149 0
M  V30 8003 H 748.58 0.417242 1.53117 0
M  V30 8004 H 748.601 -1.43591 3.52366 0
M  V30 8005 H 748.113 0.356701 3.86457 0
M  V30 8006 H 746.214 -2.00113 3.14302 0
M  V30 8007 H 746.327 -0.937549 4.69837 0
M  V30 8008 H 744.691 -0.592954 2.47702 0
M  V30 8009 H 745.474 0.846142 3.32709 0
M  V30 8010 N 747.919 -1.57396 -0.0801906 0
M  V30 8011 C 749.168 -1.8602 -0.779702 0
M  V30 8012 C 749.481 -0.784864 -1.79163 0
M  V30 8013 O 750.687 -0.958691 -2.54011 0
M  V30 8014 C 749.143 -3.29942 -1.43758 0
M  V30 8015 C 748.751 -4.45584 -0.464654 0
M  V30 8016 C 750.495 -3.67775 -2.11995 0
M  V30 8017 C 748.402 -5.80544 -1.12797 0
M  V30 8018 H 747.332 -0.69392 -0.294943 0
M  V30 8019 H 749.983 -1.83471 -0.0328527 0
M  V30 8020 H 748.365 -3.27078 -2.2324 0
M  V30 8021 H 749.539 -4.59824 0.299749 0
M  V30 8022 H 747.854 -4.16247 0.112813 0
M  V30 8023 H 750.451 -4.65896 -2.62383 0
M  V30 8024 H 750.794 -2.9715 -2.91561 0
M  V30 8025 H 751.327 -3.72593 -1.39354 0
M  V30 8026 H 748.066 -6.54439 -0.372807 0
M  V30 8027 H 747.586 -5.70119 -1.86344 0
M  V30 8028 H 749.265 -6.25602 -1.6502 0
M  V30 8029 N 749.397 0.351382 -1.53633 0
M  V30 8030 C 750.645 1.09034 -1.70165 0
M  V30 8031 C 750.966 1.89413 -0.463422 0
M  V30 8032 O 750.236 1.888 0.522624 0
M  V30 8033 H 748.816 0.405522 -0.627344 0
M  V30 8034 H 751.478 0.394554 -1.90865 0
M  V30 8035 H 750.574 1.77215 -2.56907 0
M  V30 8036 N 750.875 1.45233 0.611969 0
M  V30 8037 C 751.805 1.5641 1.73373 0
M  V30 8038 C 752.786 0.415896 1.64937 0
M  V30 8039 O 753.971 0.638478 1.83404 0
M  V30 8040 C 751.101 1.52627 3.11965 0
M  V30 8041 C 750.055 2.66119 3.35208 0
M  V30 8042 C 749.381 2.4739 4.74028 0
M  V30 8043 C 750.681 4.08157 3.25891 0
M  V30 8044 H 752.375 2.50307 1.64277 0
M  V30 8045 H 749.921 1.20467 0.788904 0
M  V30 8046 H 751.874 1.59043 3.90235 0
M  V30 8047 H 750.598 0.552564 3.21892 0
M  V30 8048 H 749.257 2.59123 2.59327 0
M  V30 8049 H 748.905 1.48168 4.80682 0
M  V30 8050 H 748.605 3.23494 4.90536 0
M  V30 8051 H 750.129 2.55653 5.54503 0
M  V30 8052 H 751.543 4.1642 3.9404 0
M  V30 8053 H 749.94 4.84617 3.5393 0
M  V30 8054 H 751.01 4.30374 2.23397 0
M  V30 8055 N 752.353 -0.854086 1.3245 0
M  V30 8056 C 753.316 -1.94427 1.21371 0
M  V30 8057 C 754.316 -1.60219 0.136613 0
M  V30 8058 O 755.506 -1.69846 0.387057 0
M  V30 8059 C 752.638 -3.29698 0.866701 0
M  V30 8060 H 753.831 -2.05679 2.18257 0
M  V30 8061 H 751.384 -1.04434 1.1629 0
M  V30 8062 H 752.119 -3.24145 -0.100319 0
M  V30 8063 H 751.904 -3.55903 1.64545 0
M  V30 8064 H 753.394 -4.09599 0.813515 0
M  V30 8065 N 753.831 -1.1567 -1.07043 0
M  V30 8066 C 755.242 -0.942408 -1.61169 0
M  V30 8067 C 755.593 0.515537 -1.89306 0
M  V30 8068 O 754.718 1.38726 -1.66084 0
M  V30 8069 C 755.313 -1.70431 -2.92812 0
M  V30 8070 C 753.872 -1.53521 -3.43669 0
M  V30 8071 C 753.019 -1.7179 -2.17678 0
M  V30 8072 H 755.97 -1.3065 -0.9009 0
M  V30 8073 H 755.991 -1.17566 -3.61882 0
M  V30 8074 H 755.503 -2.76538 -2.72302 0
M  V30 8075 H 753.604 -0.498224 -3.69254 0
M  V30 8076 H 753.717 -2.31422 -4.19501 0
M  V30 8077 H 752.081 -1.14468 -2.27529 0
M  V30 8078 H 752.864 -2.79269 -1.99659 0
M  V30 8079 N 755.309 1.25446 -0.953992 0
M  V30 8080 C 756.537 1.97215 -0.625595 0
M  V30 8081 C 756.952 1.70911 0.802168 0
M  V30 8082 O 756.309 0.984782 1.5365 0
M  V30 8083 C 756.36 3.50777 -0.873943 0
M  V30 8084 O 756.081 3.76173 -2.24556 0
M  V30 8085 C 757.582 4.39776 -0.557845 0
M  V30 8086 H 754.802 0.628652 -0.2346 0
M  V30 8087 H 757.346 1.59632 -1.27819 0
M  V30 8088 H 755.501 3.86474 -0.267765 0
M  V30 8089 H 755.915 4.70636 -2.31522 0
M  V30 8090 H 757.389 5.46431 -0.782157 0
M  V30 8091 H 757.866 4.36257 0.507573 0
M  V30 8092 H 758.472 4.09644 -1.14332 0
M  V30 8093 N 756.787 0.722489 1.40064 0
M  V30 8094 C 758.064 0.191829 1.94657 0
M  V30 8095 C 758.444 -1.30389 1.66018 0
M  V30 8096 O 757.792 -2.06342 0.981588 0
M  V30 8097 C 758.002 0.511978 3.45224 0
M  V30 8098 C 759.35 0.454426 4.22161 0
M  V30 8099 O 760.374 0.448438 3.53366 0
M  V30 8100 O 759.233 0.437986 5.44742 0
M  V30 8101 H 756.327 0.0307821 0.826427 0
M  V30 8102 H 758.873 0.800493 1.49634 0
M  V30 8103 H 757.645 1.54622 3.59455 0
M  V30 8104 H 757.268 -0.126296 3.97399 0
M  V30 8105 N 758.265 -1.50454 0.469181 0
M  V30 8106 C 759.511 -2.02615 -0.0865971 0
M  V30 8107 C 759.844 -1.35062 -1.39542 0
M  V30 8108 O 759.119 -0.475701 -1.88593 0
M  V30 8109 C 759.402 -3.59068 -0.272385 0
M  V30 8110 C 759.255 -4.37196 1.05733 0
M  V30 8111 C 760.574 -4.2793 -1.0278 0
M  V30 8112 H 757.693 -0.736389 -0.0299977 0
M  V30 8113 H 760.335 -1.79792 0.614399 0
M  V30 8114 H 758.485 -3.78646 -0.869471 0
M  V30 8115 H 760.157 -4.29195 1.69084 0
M  V30 8116 H 758.4 -4.01013 1.65442 0
M  V30 8117 H 759.071 -5.44924 0.880997 0
M  V30 8118 H 761.547 -4.12816 -0.521718 0
M  V30 8119 H 760.423 -5.37214 -1.12659 0
M  V30 8120 H 760.684 -3.90968 -2.0639 0
M  V30 8121 N 759.743 -0.201713 -1.56304 0
M  V30 8122 C 760.69 0.716499 -2.19397 0
M  V30 8123 C 761.66 1.20494 -1.14326 0
M  V30 8124 O 762.845 1.26763 -1.42604 0
M  V30 8125 C 759.985 1.92762 -2.86246 0
M  V30 8126 C 759.098 1.47993 -4.0586 0
M  V30 8127 C 758.233 2.64706 -4.60547 0
M  V30 8128 C 757.272 2.16576 -5.72504 0
M  V30 8129 N 756.409 3.26491 -6.21569 0
M  V30 8130 H 761.249 0.171724 -2.97505 0
M  V30 8131 H 758.786 0.073016 -1.46919 0
M  V30 8132 H 760.744 2.6384 -3.23178 0
M  V30 8133 H 759.374 2.44559 -2.10691 0
M  V30 8134 H 758.426 0.66477 -3.74546 0
M  V30 8135 H 759.738 1.08686 -4.86815 0
M  V30 8136 H 758.892 3.43898 -4.99819 0
M  V30 8137 H 757.631 3.0729 -3.78713 0
M  V30 8138 H 756.636 1.3584 -5.32755 0
M  V30 8139 H 757.861 1.75015 -6.56161 0
M  V30 8140 H 755.807 3.68594 -5.42655 0
M  V30 8141 H 755.724 2.91374 -6.97594 0
M  V30 8142 H 756.992 4.05877 -6.65495 0
M  V30 8143 N 761.222 1.57436 0.0718424 0
M  V30 8144 C 762.638 1.53792 0.426628 0
M  V30 8145 C 762.838 0.921887 1.79174 0
M  V30 8146 O 761.894 0.524374 2.46995 0
M  V30 8147 C 763.207 2.98443 0.367739 0
M  V30 8148 C 764.755 3.09778 0.447928 0
M  V30 8149 C 765.23 4.5608 0.418946 0
M  V30 8150 N 766.721 4.60716 0.479022 0
M  V30 8151 C 767.456 5.71397 0.47881 0
M  V30 8152 N 766.952 6.91443 0.433417 0
M  V30 8153 N 768.745 5.59639 0.525364 0
M  V30 8154 H 760.896 1.95848 -0.822033 0
M  V30 8155 H 763.159 0.896418 -0.308447 0
M  V30 8156 H 762.865 3.47072 -0.56865 0
M  V30 8157 H 762.739 3.58335 1.17795 0
M  V30 8158 H 765.126 2.61122 1.37474 0
M  V30 8159 H 765.207 2.52796 -0.390857 0
M  V30 8160 H 764.851 5.05393 -0.504016 0
M  V30 8161 H 764.781 5.10925 1.27526 0
M  V30 8162 H 767.272 3.74328 0.518355 0
M  V30 8163 H 767.585 7.71562 0.43718 0
M  V30 8164 H 765.93 6.93847 0.400106 0
M  V30 8165 H 769.121 4.64756 0.558519 0
M  V30 8166 H 769.294 6.45896 0.52173 0
M  V30 8167 N 762.7 -0.34323 1.53817 0
M  V30 8168 C 763.93 -1.10188 1.74763 0
M  V30 8169 C 764.338 -1.82829 0.486856 0
M  V30 8170 O 763.681 -1.75236 -0.551198 0
M  V30 8171 C 763.743 -2.16 2.87375 0
M  V30 8172 C 763.407 -1.62931 4.26969 0
M  V30 8173 C 764.404 -1.08147 5.08528 0
M  V30 8174 C 762.089 -1.67769 4.73454 0
M  V30 8175 C 764.083 -0.589039 6.34672 0
M  V30 8176 C 761.77 -1.18138 5.99572 0
M  V30 8177 C 762.768 -0.637979 6.80014 0
M  V30 8178 O 762.456 -0.149073 8.03762 0
M  V30 8179 H 762.188 -0.33445 0.587469 0
M  V30 8180 H 764.742 -0.401109 2.01445 0
M  V30 8181 H 762.972 -2.89637 2.56218 0
M  V30 8182 H 764.661 -2.77432 2.96287 0
M  V30 8183 H 765.427 -1.03732 4.73777 0
M  V30 8184 H 761.306 -2.09004 4.10899 0
M  V30 8185 H 764.85 -0.164233 6.97407 0
M  V30 8186 H 760.747 -1.22254 6.33817 0
M  V30 8187 H 761.515 -0.266332 8.18067 0
M  V30 8188 N 764.178 -1.45556 -0.604258 0
M  V30 8189 C 765.406 -1.53278 -1.38973 0
M  V30 8190 C 765.821 -0.166509 -1.88064 0
M  V30 8191 O 765.178 0.832519 -1.62405 0
M  V30 8192 C 765.229 -2.51992 -2.59195 0
M  V30 8193 O 764.95 -3.8331 -2.12143 0
M  V30 8194 C 766.451 -2.69445 -3.52015 0
M  V30 8195 H 763.671 -0.519003 -0.425297 0
M  V30 8196 H 766.215 -1.90773 -0.736621 0
M  V30 8197 H 764.37 -2.17561 -3.2054 0
M  V30 8198 H 764.784 -4.3685 -2.90279 0
M  V30 8199 H 766.258 -3.42485 -4.32907 0
M  V30 8200 H 766.735 -1.75596 -4.0257 0
M  V30 8201 H 767.341 -3.04886 -2.9652 0
M  V30 8202 N 765.656 0.84705 -1.32902 0
M  V30 8203 C 766.884 1.63403 -1.26913 0
M  V30 8204 C 767.299 1.88108 0.161483 0
M  V30 8205 O 766.656 1.45546 1.10103 0
M  V30 8206 C 766.707 2.98896 -2.03331 0
M  V30 8207 O 766.428 2.75281 -3.40811 0
M  V30 8208 C 767.929 3.93335 -2.04457 0
M  V30 8209 H 765.149 0.508701 -0.437566 0
M  V30 8210 H 767.693 1.05567 -1.75145 0
M  V30 8211 H 765.848 3.53356 -1.58802 0
M  V30 8212 H 766.262 3.61504 -3.8002 0
M  V30 8213 H 767.736 4.85647 -2.62394 0
M  V30 8214 H 768.213 4.26885 -1.03274 0
M  V30 8215 H 768.819 3.44812 -2.48967 0
M  V30 8216 N 767.134 1.16236 1.06428 0
M  V30 8217 C 768.382 0.941171 1.78847 0
M  V30 8218 C 768.703 -0.53248 1.87589 0
M  V30 8219 O 767.973 -1.38686 1.38358 0
M  V30 8220 H 766.553 0.345228 0.66244 0
M  V30 8221 H 769.215 1.46479 1.28569 0
M  V30 8222 H 768.311 1.35871 2.80972 0
M  V30 8223 N 768.612 -1.24939 0.960631 0
M  V30 8224 C 769.86 -1.92437 0.617441 0
M  V30 8225 C 770.181 -1.75543 -0.849101 0
M  V30 8226 O 769.451 -1.12269 -1.60538 0
M  V30 8227 H 768.031 -0.712192 0.225371 0
M  V30 8228 H 770.693 -1.5198 1.22017 0
M  V30 8229 H 769.789 -3.00247 0.851933 0
M  V30 8230 N 770.09 -0.729906 -1.39679 0
M  V30 8231 C 771.318 -0.285709 -2.04918 0
M  V30 8232 C 771.733 1.07765 -1.55023 0
M  V30 8233 O 771.09 1.67999 -0.712923 0
M  V30 8234 C 771.141 -0.272793 -3.60469 0
M  V30 8235 O 770.862 -1.58233 -4.08527 0
M  V30 8236 C 772.363 0.188199 -4.429 0
M  V30 8237 H 769.583 -0.125758 -0.65911 0
M  V30 8238 H 772.127 -0.992129 -1.78821 0
M  V30 8239 H 770.282 0.384699 -3.85485 0
M  V30 8240 H 770.696 -1.49245 -5.02818 0
M  V30 8241 H 772.17 0.14608 -5.51807 0
M  V30 8242 H 772.647 1.2326 -4.21549 0
M  V30 8243 H 773.253 -0.439541 -4.23023 0
M  V30 8244 N 771.568 1.50203 -0.477153 0
M  V30 8245 C 772.793 2.07263 0.0754986 0
M  V30 8246 C 773.218 1.33801 1.32208 0
M  V30 8247 O 772.576 0.387482 1.77111 0
M  V30 8248 C 772.624 3.59028 0.336348 0
M  V30 8249 O 771.728 3.87339 1.4157 0
M  V30 8250 H 771.069 0.663815 -0.015662 0
M  V30 8251 H 773.599 1.93321 -0.669936 0
M  V30 8252 H 773.609 4.03927 0.575034 0
M  V30 8253 H 772.284 4.11912 -0.574551 0
M  V30 8254 H 770.861 3.54272 1.16385 0
M  V30 8255 N 773.046 0.209999 1.56195 0
M  V30 8256 C 774.462 -0.145598 1.58934 0
M  V30 8257 C 774.662 -1.59868 1.22656 0
M  V30 8258 O 773.718 -2.33689 0.956336 0
M  V30 8259 C 775.031 0.170243 3.00218 0
M  V30 8260 C 776.579 0.111548 3.12801 0
M  V30 8261 C 777.054 0.400904 4.56242 0
M  V30 8262 N 778.545 0.350058 4.61875 0
M  V30 8263 C 779.28 0.547598 5.70779 0
M  V30 8264 N 778.776 0.806291 6.88092 0
M  V30 8265 N 780.569 0.480827 5.6004 0
M  V30 8266 H 772.72 1.15804 1.78054 0
M  V30 8267 H 774.983 0.463326 0.827063 0
M  V30 8268 H 774.689 1.17833 3.31373 0
M  V30 8269 H 774.563 -0.520208 3.73596 0
M  V30 8270 H 776.95 -0.887162 2.81449 0
M  V30 8271 H 777.031 0.835302 2.41777 0
M  V30 8272 H 776.675 1.397 4.8831 0
M  V30 8273 H 776.605 -0.34391 5.25476 0
M  V30 8274 H 779.096 0.157334 3.77572 0
M  V30 8275 H 779.409 0.945433 7.66995 0
M  V30 8276 H 777.754 0.843355 6.89864 0
M  V30 8277 H 780.945 0.279037 4.67268 0
M  V30 8278 H 781.118 0.638189 6.4485 0
M  V30 8279 N 774.524 -1.57472 -0.0634922 0
M  V30 8280 C 775.472 -2.05307 -1.09323 0
M  V30 8281 C 776.466 -0.959995 -1.39572 0
M  V30 8282 O 777.672 -1.14507 -1.38882 0
M  V30 8283 H 774.047 -0.65472 -0.369927 0
M  V30 8284 H 776.018 -2.90925 -0.663707 0
M  V30 8285 C 774.767 -2.51954 -2.39613 0
M  V30 8286 H 774.09 -3.35662 -2.1719 0
M  V30 8287 H 775.53 -2.89169 -3.10092 0
M  V30 8288 C 773.989 -1.40596 -3.06161 0
M  V30 8289 O 774.519 -0.752722 -3.94585 0
M  V30 8290 N 772.725 -1.14902 -2.66919 0
M  V30 8291 H 772.272 -1.68205 -1.95102 0
M  V30 8292 H 772.23 -0.406006 -3.11767 0
M  V30 8293 N 776.003 0.335068 -1.53997 0
M  V30 8294 C 776.95 1.41187 -1.82579 0
M  V30 8295 C 777.92 1.51897 -0.672061 0
M  V30 8296 O 779.105 1.673 -0.917346 0
M  V30 8297 C 776.245 2.77717 -2.0486 0
M  V30 8298 C 775.358 2.7573 -3.32561 0
M  V30 8299 C 774.493 4.04032 -3.44864 0
M  V30 8300 C 773.532 3.96308 -4.66483 0
M  V30 8301 N 772.669 5.16317 -4.75774 0
M  V30 8302 H 777.509 1.16113 -2.74448 0
M  V30 8303 H 775.046 0.562305 -1.35928 0
M  V30 8304 H 777.004 3.57071 -2.15768 0
M  V30 8305 H 775.634 3.01124 -1.16294 0
M  V30 8306 H 774.686 1.88432 -3.3045 0
M  V30 8307 H 775.998 2.65902 -4.22016 0
M  V30 8308 H 775.152 4.91814 -3.55251 0
M  V30 8309 H 773.891 4.16652 -2.53481 0
M  V30 8310 H 772.896 3.06911 -4.56164 0
M  V30 8311 H 774.121 3.85263 -5.5924 0
M  V30 8312 H 772.067 5.29464 -3.87303 0
M  V30 8313 H 771.984 5.08779 -5.59178 0
M  V30 8314 H 773.252 6.05846 -4.9048 0
M  V30 8315 N 777.481 1.45874 0.596531 0
M  V30 8316 C 778.897 1.30524 0.918459 0
M  V30 8317 C 779.097 0.266429 1.99731 0
M  V30 8318 O 778.153 -0.335809 2.50257 0
M  V30 8319 C 779.466 2.68747 1.3489 0
M  V30 8320 C 781.014 2.7673 1.46251 0
M  V30 8321 C 781.489 4.15504 1.92667 0
M  V30 8322 N 782.98 4.17853 1.99883 0
M  V30 8323 C 783.715 5.22109 2.37044 0
M  V30 8324 N 783.211 6.36704 2.73094 0
M  V30 8325 N 785.004 5.09471 2.37479 0
M  V30 8326 H 777.155 2.12081 -0.116368 0
M  V30 8327 H 779.418 0.947941 0.0106033 0
M  V30 8328 H 779.124 3.46006 0.630288 0
M  V30 8329 H 778.998 2.97942 2.31323 0
M  V30 8330 H 781.385 1.99768 2.17202 0
M  V30 8331 H 781.466 2.51236 0.481054 0
M  V30 8332 H 781.11 4.92956 1.223 0
M  V30 8333 H 781.04 4.38396 2.91747 0
M  V30 8334 H 783.531 3.35163 1.74568 0
M  V30 8335 H 783.844 7.12041 3.00362 0
M  V30 8336 H 782.189 6.40087 2.70764 0
M  V30 8337 H 785.38 4.18987 2.08728 0
M  V30 8338 H 785.553 5.90837 2.66112 0
M  V30 8339 N 778.959 -0.83999 1.33349 0
M  V30 8340 C 780.207 -1.59202 1.24496 0
M  V30 8341 C 780.528 -1.94077 -0.189499 0
M  V30 8342 O 779.798 -1.60868 -1.11796 0
M  V30 8343 H 778.378 -0.590276 0.457802 0
M  V30 8344 H 781.04 -1.00394 1.67054 0
M  V30 8345 H 780.136 -2.52247 1.83788 0
M  V30 8346 N 780.437 -1.16799 -1.0581 0
M  V30 8347 C 781.683 -0.953935 -1.78963 0
M  V30 8348 C 782.016 0.516638 -1.87202 0
M  V30 8349 O 781.291 1.38338 -1.36721 0
M  V30 8350 C 781.574 -1.58808 -3.23191 0
M  V30 8351 C 781.427 -3.13032 -3.23003 0
M  V30 8352 C 782.746 -1.2868 -4.20867 0
M  V30 8353 H 779.865 -0.347972 -0.64968 0
M  V30 8354 H 782.507 -1.44204 -1.23715 0
M  V30 8355 H 780.657 -1.17303 -3.70368 0
M  V30 8356 H 782.329 -3.63553 -2.83949 0
M  V30 8357 H 780.572 -3.46108 -2.61518 0
M  V30 8358 H 781.243 -3.52527 -4.24769 0
M  V30 8359 H 783.719 -1.6461 -3.82155 0
M  V30 8360 H 782.595 -1.75645 -5.20038 0
M  V30 8361 H 782.856 -0.206491 -4.41618 0
M  V30 8362 N 781.915 1.24427 -0.967243 0
M  V30 8363 C 783.162 1.92487 -0.62888 0
M  V30 8364 C 783.49 1.75623 0.835871 0
M  V30 8365 O 782.745 1.1027 1.61675 0
M  V30 8366 C 783.044 3.44568 -0.949096 0
M  V30 8367 C 782.71 3.816 -2.40192 0
M  V30 8368 C 781.372 3.9142 -2.799 0
M  V30 8369 C 783.724 3.99715 -3.34481 0
M  V30 8370 C 781.052 4.16771 -4.12939 0
M  V30 8371 C 783.404 4.26562 -4.67148 0
M  V30 8372 C 782.068 4.34601 -5.06634 0
M  V30 8373 H 781.338 0.704361 -0.230124 0
M  V30 8374 H 783.985 1.4772 -1.21864 0
M  V30 8375 H 782.29 3.90819 -0.277085 0
M  V30 8376 H 783.987 3.95436 -0.665692 0
M  V30 8377 H 780.577 3.74522 -2.08402 0
M  V30 8378 H 784.761 3.91531 -3.04987 0
M  V30 8379 H 780.017 4.21214 -4.43158 0
M  V30 8380 H 784.191 4.39523 -5.40178 0
M  V30 8381 H 781.818 4.53998 -6.09746 0
M  V30 8382 N 783.393 0.737304 1.3929 0
M  V30 8383 C 784.639 0.286681 2.00763 0
M  V30 8384 C 784.972 -1.12388 1.58375 0
M  V30 8385 O 784.247 -1.76661 0.813699 0
M  V30 8386 C 784.53 0.391147 3.57969 0
M  V30 8387 C 784.383 1.84165 4.1037 0
M  V30 8388 C 785.702 -0.225072 4.39524 0
M  V30 8389 H 782.821 0.105642 0.729389 0
M  V30 8390 H 785.463 0.933892 1.65464 0
M  V30 8391 H 783.613 -0.159875 3.88171 0
M  V30 8392 H 785.285 2.44972 3.90879 0
M  V30 8393 H 783.528 2.3622 3.63844 0
M  V30 8394 H 784.199 1.866 5.19504 0
M  V30 8395 H 786.675 0.244677 4.1538 0
M  V30 8396 H 785.551 -0.121646 5.48765 0
M  V30 8397 H 785.812 -1.31141 4.22202 0
M  V30 8398 N 784.871 -1.49948 0.485112 0
M  V30 8399 C 785.801 -2.31675 -0.291364 0
M  V30 8400 C 786.782 -1.39216 -0.977383 0
M  V30 8401 O 787.967 -1.68133 -0.971855 0
M  V30 8402 C 785.097 -3.19326 -1.36558 0
M  V30 8403 C 784.051 -4.2045 -0.800359 0
M  V30 8404 C 783.377 -4.96931 -1.97391 0
M  V30 8405 C 784.677 -5.21925 0.197867 0
M  V30 8406 H 786.371 -2.96839 0.390775 0
M  V30 8407 H 783.917 -1.42749 0.189375 0
M  V30 8408 H 785.87 -3.75304 -1.91638 0
M  V30 8409 H 784.594 -2.52074 -2.07668 0
M  V30 8410 H 783.253 -3.65594 -0.271428 0
M  V30 8411 H 782.901 -4.26141 -2.67232 0
M  V30 8412 H 782.601 -5.65344 -1.60187 0
M  V30 8413 H 784.125 -5.55749 -2.52935 0
M  V30 8414 H 785.539 -5.72691 -0.264239 0
M  V30 8415 H 783.936 -5.98138 0.484908 0
M  V30 8416 H 785.006 -4.71809 1.11912 0
M  V30 8417 N 786.349 -0.21828 -1.56081 0
M  V30 8418 C 787.597 0.413488 -1.97825 0
M  V30 8419 C 787.918 1.60527 -1.10707 0
M  V30 8420 O 787.188 1.9504 -0.183378 0
M  V30 8421 H 785.768 0.155757 -0.730581 0
M  V30 8422 H 788.43 -0.310413 -1.92412 0
M  V30 8423 H 787.526 0.742024 -3.03151 0
M  V30 8424 N 787.827 1.57504 0.0551401 0
M  V30 8425 C 789.074 1.88055 0.751104 0
M  V30 8426 C 789.402 0.812231 1.76729 0
M  V30 8427 O 788.657 -0.189918 1.94776 0
M  V30 8428 C 788.956 3.25311 1.48013 0
M  V30 8429 C 788.622 4.46858 0.602375 0
M  V30 8430 C 787.284 4.79847 0.360536 0
M  V30 8431 C 789.636 5.212 -0.00524047 0
M  V30 8432 C 786.964 5.84582 -0.498127 0
M  V30 8433 C 789.316 6.26844 -0.851453 0
M  V30 8434 C 787.98 6.58324 -1.103 0
M  V30 8435 H 787.25 0.688142 0.274848 0
M  V30 8436 H 789.897 1.91497 0.0114795 0
M  V30 8437 H 788.202 3.17737 2.29239 0
M  V30 8438 H 789.899 3.46189 2.02371 0
M  V30 8439 H 786.489 4.21049 0.801007 0
M  V30 8440 H 790.673 4.96013 0.168682 0
M  V30 8441 H 785.929 6.07361 -0.701594 0
M  V30 8442 H 790.103 6.83603 -1.32893 0
M  V30 8443 H 787.73 7.39304 -1.77011 0
M  V30 8444 N 789.305 -0.326896 1.54172 0
M  V30 8445 C 790.235 -1.40741 1.86317 0
M  V30 8446 C 791.216 -1.54125 0.719684 0
M  V30 8447 O 792.401 -1.6806 0.973117 0
M  V30 8448 C 789.531 -2.77557 2.08757 0
M  V30 8449 C 788.485 -2.78965 3.24596 0
M  V30 8450 C 787.811 -4.18824 3.32401 0
M  V30 8451 C 789.111 -2.4301 4.62324 0
M  V30 8452 H 790.805 -1.14088 2.76811 0
M  V30 8453 H 788.351 -0.547389 1.3319 0
M  V30 8454 H 790.304 -3.53209 2.29829 0
M  V30 8455 H 789.028 -3.0568 1.15009 0
M  V30 8456 H 787.687 -2.05767 3.03406 0
M  V30 8457 H 787.335 -4.44083 2.36218 0
M  V30 8458 H 787.035 -4.20673 4.10253 0
M  V30 8459 H 788.559 -4.96294 3.55703 0
M  V30 8460 H 789.973 -3.08375 4.83299 0
M  V30 8461 H 788.37 -2.56116 5.42701 0
M  V30 8462 H 789.44 -1.38165 4.64799 0
M  V30 8463 N 790.784 -1.46188 -0.588786 0
M  V30 8464 C 792.032 -1.50885 -1.34455 0
M  V30 8465 C 792.353 -0.159555 -1.94346 0
M  V30 8466 O 791.623 0.813239 -1.78222 0
M  V30 8467 H 790.203 -0.555707 -0.499198 0
M  V30 8468 H 792.865 -1.82277 -0.690014 0
M  V30 8469 H 791.961 -2.25816 -2.15438 0
M  V30 8470 N 792.262 0.832906 -1.33792 0
M  V30 8471 C 793.509 1.58853 -1.25586 0
M  V30 8472 C 793.837 1.93695 0.176807 0
M  V30 8473 O 793.092 1.59386 1.13554 0
M  V30 8474 C 793.391 2.9047 -2.08235 0
M  V30 8475 C 793.057 2.74965 -3.57358 0
M  V30 8476 C 791.719 2.70444 -3.98012 0
M  V30 8477 C 794.071 2.59347 -4.52093 0
M  V30 8478 C 791.399 2.48212 -5.31608 0
M  V30 8479 C 793.751 2.38649 -5.85858 0
M  V30 8480 C 792.415 2.32533 -6.25687 0
M  V30 8481 H 791.685 0.581285 -0.459553 0
M  V30 8482 H 794.332 0.964501 -1.65438 0
M  V30 8483 H 792.637 3.57111 -1.6118 0
M  V30 8484 H 794.334 3.48001 -1.99239 0
M  V30 8485 H 790.924 2.79319 -3.25083 0
M  V30 8486 H 795.108 2.6187 -4.2159 0
M  V30 8487 H 790.364 2.41929 -5.61498 0
M  V30 8488 H 794.538 2.25549 -6.58863 0
M  V30 8489 H 792.165 2.15067 -7.29143 0
M  V30 8490 N 793.74 1.17359 1.05189 0
M  V30 8491 C 794.67 0.91365 2.14883 0
M  V30 8492 C 795.651 -0.144365 1.69486 0
M  V30 8493 O 796.836 0.00587861 1.94199 0
M  V30 8494 C 793.966 0.426196 3.44675 0
M  V30 8495 C 792.92 1.4234 4.03638 0
M  V30 8496 C 792.246 0.793902 5.28773 0
M  V30 8497 C 793.546 2.7966 4.41121 0
M  V30 8498 H 795.24 1.831 2.36885 0
M  V30 8499 H 792.786 0.881781 1.13845 0
M  V30 8500 H 794.739 0.231767 4.20762 0
M  V30 8501 H 793.463 -0.526693 3.22325 0
M  V30 8502 H 792.122 1.60457 3.2962 0
M  V30 8503 H 791.77 -0.165824 5.02727 0
M  V30 8504 H 791.47 1.45959 5.69183 0
M  V30 8505 H 792.994 0.609747 6.07548 0
M  V30 8506 H 794.408 2.6526 5.08242 0
M  V30 8507 H 792.805 3.42807 4.92548 0
M  V30 8508 H 793.875 3.34068 3.51464 0
M  V30 8509 N 795.218 -1.23913 0.973828 0
M  V30 8510 C 796.181 -2.23367 0.51378 0
M  V30 8511 C 797.181 -1.55923 -0.39302 0
M  V30 8512 O 798.371 -1.73187 -0.187626 0
M  V30 8513 C 795.503 -3.39944 -0.255152 0
M  V30 8514 H 796.696 -2.65581 1.39307 0
M  V30 8515 H 794.249 -1.36632 0.759039 0
M  V30 8516 H 794.984 -3.03177 -1.15127 0
M  V30 8517 H 794.769 -3.90098 0.395673 0
M  V30 8518 H 796.259 -4.13749 -0.565842 0
M  V30 8519 N 796.696 -0.74468 -1.38897 0
M  V30 8520 C 797.924 -0.307428 -2.04603 0
M  V30 8521 C 798.339 1.06115 -1.56157 0
M  V30 8522 O 797.696 1.67233 -0.730701 0
M  V30 8523 C 797.747 -0.31101 -3.6016 0
M  V30 8524 O 797.468 -1.62557 -4.06825 0
M  V30 8525 C 798.969 0.141213 -4.43075 0
M  V30 8526 H 796.189 -0.132741 -0.657739 0
M  V30 8527 H 798.733 -1.01104 -1.77759 0
M  V30 8528 H 796.888 0.343792 -3.85872 0
M  V30 8529 H 797.302 -1.54569 -5.01207 0
M  V30 8530 H 798.776 0.0875449 -5.51931 0
M  V30 8531 H 799.253 1.18782 -4.22833 0
M  V30 8532 H 799.859 -0.484383 -4.22533 0
M  V30 8533 N 798.174 1.49689 -0.493057 0
M  V30 8534 C 799.137 2.27502 0.278485 0
M  V30 8535 C 800.137 1.33184 0.901037 0
M  V30 8536 O 801.327 1.56415 0.766801 0
M  V30 8537 C 798.459 3.10881 1.39878 0
M  V30 8538 H 799.652 2.97163 -0.404219 0
M  V30 8539 H 797.205 1.54324 -0.247774 0
M  V30 8540 H 797.94 2.45767 2.11587 0
M  V30 8541 H 797.725 3.80219 0.957924 0
M  V30 8542 H 799.215 3.69673 1.94247 0
M  V30 8543 N 799.652 0.226554 1.55963 0
M  V30 8544 C 800.9 -0.402991 1.98041 0
M  V30 8545 C 801.221 -1.59938 1.11557 0
M  V30 8546 O 800.491 -1.9494 0.193719 0
M  V30 8547 H 799.071 -0.15188 0.731397 0
M  V30 8548 H 801.733 0.320613 1.92245 0
M  V30 8549 H 800.829 -0.725937 3.0354 0
M  V30 8550 N 801.13 -1.57531 -0.0467866 0
M  V30 8551 C 802.355 -1.93087 -0.757123 0
M  V30 8552 C 802.78 -0.825116 -1.69037 0
M  V30 8553 O 802.138 0.220449 -1.79955 0
M  V30 8554 C 802.186 -3.27669 -1.5055 0
M  V30 8555 O 801.29 -3.18667 -2.61773 0
M  V30 8556 H 800.631 -0.631597 -0.204892 0
M  V30 8557 H 803.161 -2.04599 -0.00755232 0
M  V30 8558 H 803.171 -3.6214 -1.87932 0
M  V30 8559 H 801.846 -4.07717 -0.820931 0
M  V30 8560 H 800.423 -2.95798 -2.27064 0
M  V30 8561 N 802.608 0.318715 -1.54344 0
M  V30 8562 C 803.571 1.37545 -1.83342 0
M  V30 8563 C 804.571 1.445 -0.705444 0
M  V30 8564 O 805.761 1.44443 -0.973752 0
M  V30 8565 C 802.893 2.76225 -1.99781 0
M  V30 8566 H 804.086 1.13084 -2.77762 0
M  V30 8567 H 801.639 0.554457 -1.46135 0
M  V30 8568 H 802.374 3.05934 -1.07588 0
M  V30 8569 H 802.159 2.7257 -2.81865 0
M  V30 8570 H 803.649 3.52664 -2.23647 0
M  V30 8571 N 804.086 1.46499 0.581025 0
M  V30 8572 C 805.019 1.51706 1.70472 0
M  V30 8573 C 805.997 0.371036 1.5831 0
M  V30 8574 O 807.181 0.575426 1.79502 0
M  V30 8575 C 804.308 1.3972 3.08538 0
M  V30 8576 C 803.354 2.58525 3.39215 0
M  V30 8577 S 804.187 4.20872 3.311 0
M  V30 8578 C 805.343 4.11398 4.71702 0
M  V30 8579 H 805.576 2.46777 1.65796 0
M  V30 8580 H 803.109 1.34405 0.759908 0
M  V30 8581 H 805.067 1.33492 3.88188 0
M  V30 8582 H 803.728 0.460742 3.10702 0
M  V30 8583 H 802.921 2.46137 4.3981 0
M  V30 8584 H 802.523 2.61752 2.67136 0
M  V30 8585 H 804.815 3.78182 5.62125 0
M  V30 8586 H 805.758 5.11997 4.89147 0
M  V30 8587 H 806.166 3.42624 4.48631 0
M  V30 8588 N 805.565 -0.825799 1.34232 0
M  V30 8589 C 806.813 -1.57873 1.26177 0
M  V30 8590 C 807.134 -1.94267 -0.168904 0
M  V30 8591 O 806.404 -1.62045 -1.10084 0
M  V30 8592 H 804.984 -0.585388 0.464037 0
M  V30 8593 H 807.646 -0.986163 1.6811 0
M  V30 8594 H 806.742 -2.50283 1.86453 0
M  V30 8595 N 807.043 -1.17915 -1.04565 0
M  V30 8596 C 808.006 -0.903787 -2.10628 0
M  V30 8597 C 809.006 0.10873 -1.60432 0
M  V30 8598 O 810.196 -0.124152 -1.73757 0
M  V30 8599 C 807.328 -0.355017 -3.39046 0
M  V30 8600 H 808.521 -1.84425 -2.3649 0
M  V30 8601 H 806.074 -0.990477 -1.2091 0
M  V30 8602 H 806.809 0.592297 -3.18845 0
M  V30 8603 H 806.594 -1.08484 -3.76794 0
M  V30 8604 H 808.084 -0.180891 -4.17208 0
M  V30 8605 N 808.521 1.23394 -0.980386 0
M  V30 8606 C 809.484 2.23092 -0.525619 0
M  V30 8607 C 810.484 1.56129 0.384745 0
M  V30 8608 O 811.674 1.73284 0.178439 0
M  V30 8609 C 808.806 3.40074 0.23712 0
M  V30 8610 H 809.999 2.64839 -1.40714 0
M  V30 8611 H 807.552 1.36227 -0.766275 0
M  V30 8612 H 808.287 3.03783 1.13518 0
M  V30 8613 H 808.072 3.89883 -0.416356 0
M  V30 8614 H 809.562 4.14043 0.543892 0
M  V30 8615 N 809.999 0.752036 1.385 0
M  V30 8616 C 811.224 0.316993 2.04963 0
M  V30 8617 C 811.649 -1.04582 1.56346 0
M  V30 8618 O 811.007 -1.66616 0.714755 0
M  V30 8619 C 811.055 0.347235 3.58924 0
M  V30 8620 O 810.159 -0.659296 4.07096 0
M  V30 8621 H 809.5 0.140652 0.648932 0
M  V30 8622 H 812.03 1.02272 1.77205 0
M  V30 8623 H 812.04 0.19757 4.07521 0
M  V30 8624 H 810.715 1.34157 3.93668 0
M  V30 8625 H 809.292 -0.474371 3.6987 0
M  V30 8626 N 811.477 -1.49425 0.500989 0
M  V30 8627 C 812.724 -2.02453 -0.0435355 0
M  V30 8628 C 813.052 -1.38067 -1.36995 0
M  V30 8629 O 812.307 -0.505557 -1.89057 0
M  V30 8630 C 812.606 -3.56562 -0.24463 0
M  V30 8631 C 812.272 -4.39585 1.00379 0
M  V30 8632 C 810.934 -4.61992 1.346 0
M  V30 8633 C 813.286 -4.87881 1.83361 0
M  V30 8634 C 810.614 -5.2994 2.51755 0
M  V30 8635 C 812.966 -5.57119 2.99669 0
M  V30 8636 C 811.63 -5.77771 3.3427 0
M  V30 8637 H 810.9 -0.740829 -0.0159308 0
M  V30 8638 H 813.547 -1.79725 0.661143 0
M  V30 8639 H 811.852 -3.77969 -1.03183 0
M  V30 8640 H 813.549 -3.95185 -0.6804 0
M  V30 8641 H 810.139 -4.22385 0.727225 0
M  V30 8642 H 814.323 -4.70398 1.58237 0
M  V30 8643 H 809.579 -5.44133 2.788 0
M  V30 8644 H 813.753 -5.93516 3.64296 0
M  V30 8645 H 811.38 -6.30197 4.25154 0
M  V30 8646 N 812.955 -0.234822 -1.55841 0
M  V30 8647 C 814.371 0.120295 -1.59146 0
M  V30 8648 C 814.571 1.57896 -1.25184 0
M  V30 8649 O 813.627 2.32138 -0.993393 0
M  V30 8650 C 814.94 -0.217984 -2.99909 0
M  V30 8651 C 816.488 -0.161298 -3.12584 0
M  V30 8652 C 816.963 -0.473438 -4.55546 0
M  V30 8653 N 818.454 -0.423494 -4.6126 0
M  V30 8654 C 819.189 -0.638334 -5.69836 0
M  V30 8655 N 818.685 -0.915659 -6.86722 0
M  V30 8656 N 820.478 -0.569864 -5.59204 0
M  V30 8657 H 812.629 -1.18622 -1.76189 0
M  V30 8658 H 814.892 -0.476426 -0.819587 0
M  V30 8659 H 814.598 -1.2309 -3.29457 0
M  V30 8660 H 814.472 0.460707 -3.74376 0
M  V30 8661 H 816.859 0.842274 -2.82825 0
M  V30 8662 H 816.94 -0.873661 -2.40418 0
M  V30 8663 H 816.584 -1.47451 -4.86025 0
M  V30 8664 H 816.514 0.260268 -5.25956 0
M  V30 8665 H 819.005 -0.217383 -3.77274 0
M  V30 8666 H 819.318 -1.06734 -7.65394 0
M  V30 8667 H 817.663 -0.953 -6.88435 0
M  V30 8668 H 820.854 -0.35334 -4.66765 0
M  V30 8669 H 821.027 -0.740698 -6.43753 0
M  V30 8670 N 814.433 1.57553 0.0384317 0
M  V30 8671 C 815.363 2.0898 1.04161 0
M  V30 8672 C 816.344 0.99029 1.38301 0
M  V30 8673 O 817.529 1.26499 1.47349 0
M  V30 8674 C 814.659 2.56145 2.34536 0
M  V30 8675 C 813.613 3.70275 2.14663 0
M  V30 8676 C 812.939 4.03612 3.50715 0
M  V30 8677 C 814.239 4.99067 1.54045 0
M  V30 8678 H 815.933 2.93046 0.613548 0
M  V30 8679 H 813.479 1.40973 0.293684 0
M  V30 8680 H 815.432 2.90741 3.05037 0
M  V30 8681 H 814.156 1.6915 2.79385 0
M  V30 8682 H 812.815 3.36013 1.46597 0
M  V30 8683 H 812.463 3.13698 3.93195 0
M  V30 8684 H 812.163 4.80482 3.38247 0
M  V30 8685 H 813.687 4.40735 4.22593 0
M  V30 8686 H 815.101 5.3168 2.14451 0
M  V30 8687 H 813.498 5.80484 1.52178 0
M  V30 8688 H 814.568 4.8226 0.505259 0
M  V30 8689 N 815.911 -0.310526 1.54511 0
M  V30 8690 C 817.139 -1.06611 1.77318 0
M  V30 8691 C 817.554 -1.81265 0.528043 0
M  V30 8692 O 816.911 -1.75466 -0.50178 0
M  V30 8693 C 816.962 -2.05409 2.97472 0
M  V30 8694 O 816.683 -1.33785 4.17173 0
M  V30 8695 C 818.184 -2.93082 3.32593 0
M  V30 8696 H 815.404 -0.316578 0.591624 0
M  V30 8697 H 817.948 -0.352691 2.01436 0
M  V30 8698 H 816.103 -2.72266 2.7559 0
M  V30 8699 H 816.517 -2.00055 4.84849 0
M  V30 8700 H 817.991 -3.58274 4.19933 0
M  V30 8701 H 818.468 -3.60877 2.50329 0
M  V30 8702 H 819.074 -2.31768 3.566 0
M  V30 8703 N 817.389 -1.46805 -0.573248 0
M  V30 8704 C 818.352 -1.57655 -1.66366 0
M  V30 8705 C 819.352 -0.452905 -1.5429 0
M  V30 8706 O 820.542 -0.717502 -1.58737 0
M  V30 8707 C 817.674 -1.50584 -3.05839 0
M  V30 8708 H 818.867 -2.54842 -1.581 0
M  V30 8709 H 816.42 -1.34756 -0.791868 0
M  V30 8710 H 817.155 -0.547127 -3.19651 0
M  V30 8711 H 816.94 -2.32118 -3.16012 0
M  V30 8712 H 818.43 -1.61282 -3.85199 0
M  V30 8713 N 818.867 0.818669 -1.34668 0
M  V30 8714 C 819.799 1.93754 -1.22442 0
M  V30 8715 C 820.812 1.62103 -0.150501 0
M  V30 8716 O 822.001 1.73898 -0.402728 0
M  V30 8717 C 819.101 3.27806 -0.860031 0
M  V30 8718 C 818.274 3.8745 -2.02981 0
M  V30 8719 C 817.333 4.99887 -1.64314 0
M  V30 8720 O 816.359 5.17957 -2.36029 0
M  V30 8721 N 817.561 5.77795 -0.55976 0
M  V30 8722 H 820.326 2.04773 -2.18833 0
M  V30 8723 H 817.887 0.995472 -1.27679 0
M  V30 8724 H 819.879 4.00478 -0.583068 0
M  V30 8725 H 818.449 3.12597 0.0138253 0
M  V30 8726 H 817.669 3.07119 -2.47127 0
M  V30 8727 H 818.957 4.2403 -2.81204 0
M  V30 8728 H 818.355 5.65688 0.0363329 0
M  V30 8729 H 816.912 6.50899 -0.342541 0
M  V30 8730 N 820.346 1.18468 1.03938 0
M  V30 8731 C 821.571 1.00638 1.81347 0
M  V30 8732 C 821.996 -0.440477 1.8287 0
M  V30 8733 O 821.354 -1.31609 1.24695 0
M  V30 8734 C 821.402 1.5673 3.24759 0
M  V30 8735 O 820.506 0.789517 4.04772 0
M  V30 8736 H 819.847 0.356432 0.560225 0
M  V30 8737 H 822.377 1.57253 1.30891 0
M  V30 8738 H 822.387 1.59496 3.75533 0
M  V30 8739 H 821.062 2.62043 3.22965 0
M  V30 8740 H 819.639 0.834267 3.63448 0
M  V30 8741 N 821.824 -1.22873 0.986916 0
M  V30 8742 C 823.24 -1.43594 0.696633 0
M  V30 8743 C 823.44 -1.87622 -0.734869 0
M  V30 8744 O 822.496 -2.02633 -1.50652 0
M  V30 8745 C 823.809 -2.48231 1.69711 0
M  V30 8746 C 825.357 -2.62037 1.71188 0
M  V30 8747 C 825.832 -3.6989 2.70084 0
M  V30 8748 N 827.323 -3.77341 2.68641 0
M  V30 8749 C 828.058 -4.6037 3.41829 0
M  V30 8750 N 827.554 -5.47438 4.24598 0
M  V30 8751 N 829.347 -4.54626 3.30563 0
M  V30 8752 H 821.498 -0.925982 1.91153 0
M  V30 8753 H 823.761 -0.46866 0.824052 0
M  V30 8754 H 823.467 -2.22812 2.72117 0
M  V30 8755 H 823.341 -3.46731 1.48516 0
M  V30 8756 H 825.728 -2.86803 0.694837 0
M  V30 8757 H 825.809 -1.63831 1.96451 0
M  V30 8758 H 825.453 -3.45872 3.71934 0
M  V30 8759 H 825.383 -4.67652 2.42093 0
M  V30 8760 H 827.874 -3.15124 2.08578 0
M  V30 8761 H 828.187 -6.078 4.77283 0
M  V30 8762 H 826.532 -5.4704 4.28687 0
M  V30 8763 H 829.723 -3.85627 2.65347 0
M  V30 8764 H 829.896 -5.19103 3.8786 0
M  V30 8765 N 823.302 -0.75937 -1.38099 0
M  V30 8766 C 824.53 -0.329111 -2.04266 0
M  V30 8767 C 824.945 1.04453 -1.57274 0
M  V30 8768 O 824.302 1.66449 -0.748397 0
M  V30 8769 C 824.353 -0.349192 -3.5981 0
M  V30 8770 O 824.074 -1.66863 -4.05078 0
M  V30 8771 C 825.575 0.0942106 -4.432 0
M  V30 8772 H 822.795 -0.13971 -0.656294 0
M  V30 8773 H 825.339 -1.02984 -1.76677 0
M  V30 8774 H 823.494 0.302846 -3.86214 0
M  V30 8775 H 823.908 -1.59877 -4.9954 0
M  V30 8776 H 825.382 0.0290004 -5.51992 0
M  V30 8777 H 825.859 1.1429 -4.24069 0
M  V30 8778 H 826.465 -0.529171 -4.21995 0
M  V30 8779 N 824.78 1.49157 -0.508906 0
M  V30 8780 C 825.71 2.32109 0.254469 0
M  V30 8781 C 826.691 1.40754 0.955111 0
M  V30 8782 O 827.876 1.69658 0.944983 0
M  V30 8783 C 825.006 3.21458 1.3146 0
M  V30 8784 C 823.96 4.2167 0.733368 0
M  V30 8785 C 823.286 5.00009 1.8946 0
M  V30 8786 C 824.586 5.21544 -0.280875 0
M  V30 8787 H 826.28 2.9618 -0.43795 0
M  V30 8788 H 823.826 1.4243 -0.212062 0
M  V30 8789 H 825.779 3.78305 1.85643 0
M  V30 8790 H 824.503 2.55346 2.03632 0
M  V30 8791 H 823.162 3.65979 0.213231 0
M  V30 8792 H 822.81 4.30338 2.60419 0
M  V30 8793 H 822.51 5.67821 1.51173 0
M  V30 8794 H 824.034 5.59702 2.44061 0
M  V30 8795 H 825.448 5.73039 0.173095 0
M  V30 8796 H 823.845 5.97291 -0.580006 0
M  V30 8797 H 824.915 4.69969 -1.19404 0
M  V30 8798 N 826.258 0.243083 1.55714 0
M  V30 8799 C 827.188 -0.652336 2.24203 0
M  V30 8800 C 828.169 -1.1843 1.221 0
M  V30 8801 O 829.354 -1.22435 1.50743 0
M  V30 8802 C 826.484 -1.85111 2.93856 0
M  V30 8803 C 825.438 -1.45208 4.02615 0
M  V30 8804 C 824.764 -2.73137 4.59674 0
M  V30 8805 C 826.064 -0.625988 5.18535 0
M  V30 8806 H 827.758 -0.0812504 2.9929 0
M  V30 8807 H 825.304 -0.0376388 1.43951 0
M  V30 8808 H 827.257 -2.48314 3.40468 0
M  V30 8809 H 825.981 -2.44751 2.16251 0
M  V30 8810 H 824.64 -0.843406 3.56766 0
M  V30 8811 H 824.288 -3.30967 3.78774 0
M  V30 8812 H 823.988 -2.47163 5.33089 0
M  V30 8813 H 825.512 -3.37245 5.09017 0
M  V30 8814 H 826.926 -1.16223 5.61396 0
M  V30 8815 H 825.323 -0.462465 5.98315 0
M  V30 8816 H 826.393 0.362652 4.83542 0
M  V30 8817 N 827.736 -1.57571 -0.0300757 0
M  V30 8818 C 828.699 -2.05468 -1.01565 0
M  V30 8819 C 829.699 -0.958628 -1.29101 0
M  V30 8820 O 830.889 -1.22228 -1.24121 0
M  V30 8821 C 828.021 -2.47077 -2.34874 0
M  V30 8822 H 829.214 -2.93797 -0.601936 0
M  V30 8823 H 826.767 -1.53828 -0.276878 0
M  V30 8824 H 827.502 -1.61901 -2.80996 0
M  V30 8825 H 827.287 -3.27097 -2.16218 0
M  V30 8826 H 828.777 -2.84564 -3.05635 0
M  V30 8827 N 829.214 0.302327 -1.54673 0
M  V30 8828 C 830.462 1.03565 -1.73547 0
M  V30 8829 C 830.783 1.87843 -0.523448 0
M  V30 8830 O 830.053 1.90367 0.462295 0
M  V30 8831 H 828.633 0.385358 -0.639928 0
M  V30 8832 H 831.295 0.333632 -1.92023 0
M  V30 8833 H 830.391 1.68952 -2.62415 0
M  V30 8834 N 830.692 1.47107 0.565454 0
M  V30 8835 C 831.941 1.5257 1.31929 0
M  V30 8836 C 832.254 0.189092 1.94684 0
M  V30 8837 O 833.46 0.121657 2.71227 0
M  V30 8838 C 831.916 2.68914 2.39193 0
M  V30 8839 C 831.524 4.09069 1.82665 0
M  V30 8840 C 833.268 2.83663 3.1581 0
M  V30 8841 C 831.175 5.16726 2.87661 0
M  V30 8842 H 830.105 0.567869 0.496025 0
M  V30 8843 H 832.756 1.73361 0.60151 0
M  V30 8844 H 831.138 2.41486 3.13848 0
M  V30 8845 H 832.312 4.46364 1.14438 0
M  V30 8846 H 830.627 3.99135 1.1866 0
M  V30 8847 H 833.224 3.61261 3.94201 0
M  V30 8848 H 833.567 1.91804 3.69482 0
M  V30 8849 H 834.1 3.10821 2.48265 0
M  V30 8850 H 830.839 6.10433 2.38854 0
M  V30 8851 H 830.359 4.83957 3.54324 0
M  V30 8852 H 832.038 5.43319 3.51303 0
M  V30 8853 N 832.17 -0.811516 1.35101 0
M  V30 8854 C 833.416 -1.57068 1.28287 0
M  V30 8855 C 833.749 -1.93667 -0.143808 0
M  V30 8856 O 833.024 -1.60953 -1.09199 0
M  V30 8857 C 833.307 -2.86259 2.18466 0
M  V30 8858 C 833.16 -2.56168 3.69727 0
M  V30 8859 C 834.479 -3.87924 2.07852 0
M  V30 8860 H 831.598 -0.569869 0.467353 0
M  V30 8861 H 834.24 -0.934023 1.65457 0
M  V30 8862 H 832.39 -3.4059 1.86898 0
M  V30 8863 H 834.062 -2.08059 4.11715 0
M  V30 8864 H 832.305 -1.89436 3.90252 0
M  V30 8865 H 832.976 -3.48344 4.28206 0
M  V30 8866 H 835.452 -3.4298 2.35593 0
M  V30 8867 H 834.328 -4.76106 2.73157 0
M  V30 8868 H 834.589 -4.2923 1.05896 0
M  V30 8869 N 833.648 -1.19017 -1.03309 0
M  V30 8870 C 834.58 -0.881847 -2.11556 0
M  V30 8871 C 835.593 0.123711 -1.62329 0
M  V30 8872 O 836.782 -0.105141 -1.7819 0
M  V30 8873 C 833.882 -0.297634 -3.37591 0
M  V30 8874 C 833.055 -1.35072 -4.16022 0
M  V30 8875 C 832.114 -0.780812 -5.20375 0
M  V30 8876 O 831.14 -1.45745 -5.50224 0
M  V30 8877 N 832.342 0.417964 -5.78993 0
M  V30 8878 H 835.107 -1.81359 -2.38598 0
M  V30 8879 H 832.668 -1.0916 -1.19565 0
M  V30 8880 H 834.66 0.097374 -4.04583 0
M  V30 8881 H 833.23 0.538299 -3.0793 0
M  V30 8882 H 832.45 -1.92074 -3.4424 0
M  V30 8883 H 833.738 -2.06044 -4.65213 0
M  V30 8884 H 833.136 0.985281 -5.57054 0
M  V30 8885 H 831.693 0.754802 -6.47415 0
M  V30 8886 N 835.127 1.22348 -0.993418 0
M  V30 8887 C 836.059 2.23626 -0.502404 0
M  V30 8888 C 837.072 1.57739 0.402784 0
M  V30 8889 O 838.261 1.77321 0.204835 0
M  V30 8890 C 835.361 3.37647 0.291118 0
M  V30 8891 C 834.534 4.33121 -0.610332 0
M  V30 8892 C 833.593 5.26035 0.131572 0
M  V30 8893 O 832.619 5.67145 -0.483199 0
M  V30 8894 N 833.821 5.63023 1.41371 0
M  V30 8895 H 836.586 2.66385 -1.37329 0
M  V30 8896 H 834.147 1.36653 -0.868196 0
M  V30 8897 H 836.139 3.96792 0.796107 0
M  V30 8898 H 834.709 2.93967 1.0631 0
M  V30 8899 H 833.929 3.72287 -1.29598 0
M  V30 8900 H 835.217 4.93853 -1.22422 0
M  V30 8901 H 834.615 5.31596 1.93449 0
M  V30 8902 H 833.172 6.24582 1.86388 0
M  V30 8903 N 836.605 0.766683 1.37694 0
M  V30 8904 C 837.537 0.107798 2.28946 0
M  V30 8905 C 838.55 -0.669701 1.48387 0
M  V30 8906 O 839.739 -0.508629 1.711 0
M  V30 8907 C 836.839 -0.871084 3.27514 0
M  V30 8908 C 836.012 -0.148471 4.37148 0
M  V30 8909 C 835.071 -1.03998 5.1582 0
M  V30 8910 O 834.097 -0.505639 5.6695 0
M  V30 8911 N 835.299 -2.36679 5.3006 0
M  V30 8912 H 838.064 0.89154 2.86132 0
M  V30 8913 H 835.625 0.618593 1.49616 0
M  V30 8914 H 837.617 -1.47081 3.77027 0
M  V30 8915 H 836.187 -1.55582 2.71133 0
M  V30 8916 H 835.407 0.632117 3.89099 0
M  V30 8917 H 836.695 0.351045 5.07588 0
M  V30 8918 H 836.093 -2.82532 4.90094 0
M  V30 8919 H 834.65 -2.9167 5.82899 0
M  V30 8920 N 838.083 -1.48885 0.516809 0
M  V30 8921 C 839.015 -2.27357 -0.290061 0
M  V30 8922 C 840.028 -1.34558 -0.916406 0
M  V30 8923 O 841.217 -1.59715 -0.797073 0
M  V30 8924 C 838.317 -3.07496 -1.42476 0
M  V30 8925 C 837.49 -4.27982 -0.902793 0
M  V30 8926 C 836.549 -4.90038 -1.91701 0
M  V30 8927 O 835.575 -5.49643 -1.47922 0
M  V30 8928 N 836.777 -4.811 -3.24843 0
M  V30 8929 H 839.542 -2.97244 0.382884 0
M  V30 8930 H 837.103 -1.58064 0.35032 0
M  V30 8931 H 839.095 -3.45882 -2.10113 0
M  V30 8932 H 837.665 -2.40115 -2.00159 0
M  V30 8933 H 836.885 -3.94167 -0.0508272 0
M  V30 8934 H 838.173 -5.06003 -0.532723 0
M  V30 8935 H 837.571 -4.33801 -3.63088 0
M  V30 8936 H 836.128 -5.23625 -3.8815 0
M  V30 8937 N 839.561 -0.251338 -1.55583 0
M  V30 8938 C 840.493 0.679167 -2.18906 0
M  V30 8939 C 841.506 1.13545 -1.16667 0
M  V30 8940 O 842.695 1.06146 -1.4351 0
M  V30 8941 C 839.795 1.93544 -2.78198 0
M  V30 8942 C 838.968 1.62987 -4.05899 0
M  V30 8943 C 838.027 2.73618 -4.49466 0
M  V30 8944 O 837.053 2.40815 -5.15749 0
M  V30 8945 N 838.255 4.03204 -4.1762 0
M  V30 8946 H 841.02 0.137328 -2.99385 0
M  V30 8947 H 838.581 -0.0714754 -1.61742 0
M  V30 8948 H 840.573 2.66804 -3.04299 0
M  V30 8949 H 839.143 2.38695 -2.0185 0
M  V30 8950 H 838.363 0.732237 -3.8734 0
M  V30 8951 H 839.651 1.40041 -4.89148 0
M  V30 8952 H 839.049 4.32686 -3.64416 0
M  V30 8953 H 837.606 4.72916 -4.48547 0
M  V30 8954 N 841.039 1.57585 0.0217189 0
M  V30 8955 C 841.969 2.10073 1.01939 0
M  V30 8956 C 842.95 1.0049 1.37243 0
M  V30 8957 O 844.135 1.28055 1.45999 0
M  V30 8958 C 841.265 2.58618 2.31806 0
M  V30 8959 C 840.219 3.72531 2.10724 0
M  V30 8960 C 839.545 4.07309 3.46415 0
M  V30 8961 C 840.845 5.00672 1.48743 0
M  V30 8962 H 842.539 2.9368 0.582432 0
M  V30 8963 H 840.085 1.41277 0.278715 0
M  V30 8964 H 842.038 2.9396 3.01936 0
M  V30 8965 H 840.762 1.72104 2.77575 0
M  V30 8966 H 839.421 3.37549 1.43025 0
M  V30 8967 H 839.069 3.17851 3.89846 0
M  V30 8968 H 838.769 4.84042 3.33132 0
M  V30 8969 H 840.293 4.45192 4.17895 0
M  V30 8970 H 841.707 5.33925 2.088 0
M  V30 8971 H 840.104 5.82065 1.46013 0
M  V30 8972 H 841.174 4.82769 0.45408 0
M  V30 8973 N 842.517 -0.29412 1.54831 0
M  V30 8974 C 843.447 -1.36757 1.89261 0
M  V30 8975 C 844.428 -1.52564 0.752214 0
M  V30 8976 O 845.613 -1.65958 1.00855 0
M  V30 8977 C 842.743 -2.73066 2.14597 0
M  V30 8978 C 841.697 -2.72017 3.3044 0
M  V30 8979 C 841.023 -4.11679 3.4121 0
M  V30 8980 C 842.323 -2.33149 4.67375 0
M  V30 8981 H 844.017 -1.08191 2.79169 0
M  V30 8982 H 841.563 -0.519014 1.34321 0
M  V30 8983 H 843.516 -3.48255 2.37269 0
M  V30 8984 H 842.24 -3.03172 1.21467 0
M  V30 8985 H 840.899 -1.99285 3.07703 0
M  V30 8986 H 840.547 -4.38973 2.45584 0
M  V30 8987 H 840.247 -4.11877 4.19084 0
M  V30 8988 H 841.771 -4.88637 3.6615 0
M  V30 8989 H 843.185 -2.98054 4.89731 0
M  V30 8990 H 841.582 -2.44546 5.48012 0
M  V30 8991 H 842.652 -1.28275 4.67626 0
M  V30 8992 N 843.995 -1.47404 -0.557645 0
M  V30 8993 C 845.243 -1.53703 -1.31224 0
M  V30 8994 C 845.564 -0.200742 -1.93964 0
M  V30 8995 O 844.834 0.775253 -1.79907 0
M  V30 8996 H 843.414 -0.566171 -0.487299 0
M  V30 8997 H 846.076 -1.83699 -0.651195 0
M  V30 8998 H 845.172 -2.30335 -2.10599 0
M  V30 8999 N 845.473 0.80434 -1.35529 0
M  V30 9000 C 846.719 1.56385 -1.29118 0
M  V30 9001 C 847.052 1.9374 0.133536 0
M  V30 9002 O 846.327 1.6153 1.08344 0
M  V30 9003 C 846.61 2.85097 -2.19981 0
M  V30 9004 C 846.463 2.54204 -3.7108 0
M  V30 9005 C 847.782 3.86817 -2.09907 0
M  V30 9006 H 844.901 0.567382 -0.470368 0
M  V30 9007 H 847.543 0.925235 -1.6595 0
M  V30 9008 H 845.693 3.39594 -1.88701 0
M  V30 9009 H 847.365 2.05872 -4.12813 0
M  V30 9010 H 845.608 1.87364 -3.91251 0
M  V30 9011 H 846.279 3.46068 -4.30048 0
M  V30 9012 H 848.755 3.41725 -2.37409 0
M  V30 9013 H 847.631 4.7465 -2.75678 0
M  V30 9014 H 847.892 4.28663 -1.08171 0
M  V30 9015 N 846.951 1.19563 1.02676 0
M  V30 9016 C 848.197 1.00105 1.76371 0
M  V30 9017 C 848.53 -0.466823 1.88506 0
M  V30 9018 O 847.805 -1.34665 1.40341 0
M  V30 9019 C 848.088 1.67321 3.18866 0
M  V30 9020 C 847.941 3.21486 3.1459 0
M  V30 9021 C 849.26 1.39794 4.17308 0
M  V30 9022 H 846.379 0.365075 0.640226 0
M  V30 9023 H 849.021 1.47433 1.19848 0
M  V30 9024 H 847.171 1.27081 3.67128 0
M  V30 9025 H 848.843 3.70953 2.7421 0
M  V30 9026 H 847.086 3.5292 2.52249 0
M  V30 9027 H 847.757 3.63665 4.15273 0
M  V30 9028 H 850.233 1.74685 3.77657 0
M  V30 9029 H 849.109 1.89371 5.15199 0
M  V30 9030 H 849.37 0.323505 4.40915 0
M  V30 9031 N 848.429 -1.21819 0.999893 0
M  V30 9032 C 849.376 -2.24003 0.556005 0
M  V30 9033 C 850.346 -1.60825 -0.415287 0
M  V30 9034 O 851.531 -1.88123 -0.318481 0
M  V30 9035 C 848.671 -3.44904 -0.116289 0
M  V30 9036 C 847.784 -4.22573 0.897574 0
M  V30 9037 C 846.919 -5.30831 0.198073 0
M  V30 9038 C 845.958 -6.00225 1.19983 0
M  V30 9039 N 845.095 -7.00111 0.528157 0
M  V30 9040 H 849.935 -2.61334 1.43208 0
M  V30 9041 H 847.472 -1.28431 0.717205 0
M  V30 9042 H 849.43 -4.13908 -0.523055 0
M  V30 9043 H 848.06 -3.08315 -0.956108 0
M  V30 9044 H 847.112 -3.52797 1.42262 0
M  V30 9045 H 848.424 -4.70363 1.66013 0
M  V30 9046 H 847.578 -6.06121 -0.265065 0
M  V30 9047 H 846.317 -4.84033 -0.596924 0
M  V30 9048 H 845.322 -5.23711 1.67353 0
M  V30 9049 H 846.547 -6.4911 1.99582 0
M  V30 9050 H 844.493 -6.55534 -0.247276 0
M  V30 9051 H 844.41 -7.45943 1.22904 0
M  V30 9052 H 845.678 -7.7945 0.0880543 0
M  V30 9053 N 849.908 -0.773975 -1.37286 0
M  V30 9054 C 851.324 -0.45386 -1.53011 0
M  V30 9055 C 851.524 1.03018 -1.73175 0
M  V30 9056 O 850.58 1.81597 -1.75438 0
M  V30 9057 C 851.893 -1.27087 -2.72524 0
M  V30 9058 C 853.441 -1.26299 -2.86387 0
M  V30 9059 C 853.916 -2.0634 -4.08886 0
M  V30 9060 N 855.407 -2.03706 -4.16003 0
M  V30 9061 C 856.142 -2.62418 -5.09828 0
M  V30 9062 N 855.638 -3.29926 -6.09197 0
M  V30 9063 N 857.431 -2.52236 -5.02328 0
M  V30 9064 H 849.582 -1.73551 -1.22449 0
M  V30 9065 H 851.845 -0.736874 -0.596423 0
M  V30 9066 H 851.551 -2.32263 -2.64096 0
M  V30 9067 H 851.425 -0.90157 -3.66267 0
M  V30 9068 H 853.812 -0.219213 -2.94285 0
M  V30 9069 H 853.893 -1.67195 -1.93596 0
M  V30 9070 H 853.537 -3.10741 -4.01749 0
M  V30 9071 H 853.467 -1.62825 -5.00795 0
M  V30 9072 H 855.958 -1.54559 -3.44848 0
M  V30 9073 H 856.271 -3.72095 -6.77322 0
M  V30 9074 H 854.616 -3.34026 -6.09469 0
M  V30 9075 H 857.807 -1.99108 -4.23643 0
M  V30 9076 H 857.98 -2.98286 -5.75265 0
M  V30 9077 N 851.386 1.48609 -0.524698 0
M  V30 9078 C 852.318 2.27508 0.278 0
M  V30 9079 C 853.331 1.35042 0.909258 0
M  V30 9080 O 854.52 1.60136 0.788592 0
M  V30 9081 C 851.62 3.08247 1.40843 0
M  V30 9082 C 850.793 4.28455 0.880083 0
M  V30 9083 C 849.852 4.91048 1.891 0
M  V30 9084 O 848.878 5.5042 1.45005 0
M  V30 9085 N 850.08 4.82816 3.22288 0
M  V30 9086 H 852.845 2.97037 -0.398642 0
M  V30 9087 H 850.406 1.57876 -0.358698 0
M  V30 9088 H 852.398 3.46992 2.08276 0
M  V30 9089 H 850.968 2.41173 1.98883 0
M  V30 9090 H 850.188 3.94189 0.0299228 0
M  V30 9091 H 851.476 5.06279 0.505881 0
M  V30 9092 H 850.874 4.3572 3.60783 0
M  V30 9093 H 849.431 5.25676 3.85368 0
M  V30 9094 N 852.864 0.259585 1.55447 0
M  V30 9095 C 853.796 -0.667548 2.19263 0
M  V30 9096 C 854.809 -1.12925 1.17268 0
M  V30 9097 O 855.998 -1.05384 1.44071 0
M  V30 9098 C 853.098 -1.92066 2.7922 0
M  V30 9099 C 852.271 -1.60832 4.06758 0
M  V30 9100 C 851.33 -2.71231 4.50911 0
M  V30 9101 O 850.356 -2.38077 5.17019 0
M  V30 9102 N 851.558 -4.00984 4.19752 0
M  V30 9103 H 854.323 -0.121449 2.99454 0
M  V30 9104 H 851.884 0.0800519 1.61702 0
M  V30 9105 H 853.876 -2.65186 3.0571 0
M  V30 9106 H 852.446 -2.37621 2.03113 0
M  V30 9107 H 851.666 -0.711685 3.87722 0
M  V30 9108 H 852.954 -1.37445 4.89884 0
M  V30 9109 H 852.352 -4.30748 3.66706 0
M  V30 9110 H 850.909 -4.7053 4.51048 0
M  V30 9111 N 854.342 -1.57594 -0.0133615 0
M  V30 9112 C 855.252 -2.10991 -1.02566 0
M  V30 9113 C 856.268 -1.05208 -1.3859 0
M  V30 9114 O 857.444 -1.37034 -1.47593 0
M  V30 9115 C 854.509 -2.59165 -2.30292 0
M  V30 9116 C 853.57 -3.79495 -2.00704 0
M  V30 9117 C 852.803 -4.25361 -3.22341 0
M  V30 9118 O 853.026 -3.70645 -4.33565 0
M  V30 9119 O 851.96 -5.17649 -3.07121 0
M  V30 9120 H 855.786 -2.97678 -0.601806 0
M  V30 9121 H 853.371 -1.47598 -0.23135 0
M  V30 9122 H 855.253 -2.90409 -3.05354 0
M  V30 9123 H 853.928 -1.75582 -2.71942 0
M  V30 9124 H 852.835 -3.53245 -1.23161 0
M  V30 9125 H 854.168 -4.64109 -1.639 0
M  V30 9126 N 855.82 0.285905 -1.54985 0
M  V30 9127 C 856.75 1.35752 -1.89983 0
M  V30 9128 C 857.731 1.52163 -0.760295 0
M  V30 9129 O 858.916 1.65421 -1.01733 0
M  V30 9130 C 856.046 2.71925 -2.16042 0
M  V30 9131 C 855 2.70261 -3.31878 0
M  V30 9132 C 854.326 4.09864 -3.43388 0
M  V30 9133 C 855.626 2.30667 -4.68604 0
M  V30 9134 H 857.32 1.06709 -2.79738 0
M  V30 9135 H 854.866 0.511884 -1.34595 0
M  V30 9136 H 856.819 3.46992 -2.39113 0
M  V30 9137 H 855.543 3.02523 -1.23074 0
M  V30 9138 H 854.202 1.97651 -3.08755 0
M  V30 9139 H 853.85 4.37664 -2.47909 0
M  V30 9140 H 853.55 4.09648 -4.21262 0
M  V30 9141 H 855.074 4.86689 -3.68736 0
M  V30 9142 H 856.488 2.95453 -4.91305 0
M  V30 9143 H 854.885 2.41637 -5.49301 0
M  V30 9144 H 855.955 1.25793 -4.68299 0
M  V30 9145 N 857.298 1.47698 0.54982 0
M  V30 9146 C 858.228 1.63622 1.66583 0
M  V30 9147 C 859.209 0.485477 1.63025 0
M  V30 9148 O 860.394 0.715692 1.80531 0
M  V30 9149 C 857.524 1.65721 3.05211 0
M  V30 9150 C 856.478 2.80097 3.2362 0
M  V30 9151 C 855.804 2.67272 4.63109 0
M  V30 9152 C 857.104 4.21612 3.08286 0
M  V30 9153 H 858.798 2.57049 1.53512 0
M  V30 9154 H 856.344 1.23705 0.737099 0
M  V30 9155 H 858.297 1.75451 3.83138 0
M  V30 9156 H 857.021 0.688593 3.19258 0
M  V30 9157 H 855.68 2.69889 2.48104 0
M  V30 9158 H 855.328 1.68422 4.73965 0
M  V30 9159 H 855.028 3.44008 4.76374 0
M  V30 9160 H 856.552 2.78942 5.43161 0
M  V30 9161 H 857.966 4.32758 3.76024 0
M  V30 9162 H 856.363 4.99193 3.33057 0
M  V30 9163 H 857.433 4.39462 2.04942 0
M  V30 9164 N 858.776 -0.797141 1.35954 0
M  V30 9165 C 860.192 -1.09408 1.16198 0
M  V30 9166 C 860.392 -2.01491 -0.0191682 0
M  V30 9167 O 859.448 -2.42977 -0.686902 0
M  V30 9168 C 860.761 -1.71597 2.46931 0
M  V30 9169 C 862.309 -1.83974 2.53224 0
M  V30 9170 C 862.784 -2.49579 3.84024 0
M  V30 9171 N 864.275 -2.57055 3.85327 0
M  V30 9172 C 865.01 -3.08608 4.83268 0
M  V30 9173 N 864.506 -3.60527 5.91601 0
M  V30 9174 N 866.299 -3.07249 4.70696 0
M  V30 9175 H 858.45 -0.185209 2.11591 0
M  V30 9176 H 860.713 -0.144768 0.936881 0
M  V30 9177 H 860.419 -1.11404 3.3359 0
M  V30 9178 H 860.293 -2.71193 2.62172 0
M  V30 9179 H 862.68 -2.43308 1.66988 0
M  V30 9180 H 862.761 -0.83207 2.41889 0
M  V30 9181 H 862.405 -1.90892 4.70662 0
M  V30 9182 H 862.335 -3.50902 3.92651 0
M  V30 9183 H 864.826 -2.20283 3.07057 0
M  V30 9184 H 865.139 -3.98192 6.62317 0
M  V30 9185 H 863.484 -3.587 5.95281 0
M  V30 9186 H 866.675 -2.65972 3.85197 0
M  V30 9187 H 866.848 -3.47119 5.47186 0
M  V30 9188 N 860.254 -1.20106 -1.0204 0
M  V30 9189 C 861.184 -0.970301 -2.12385 0
M  V30 9190 C 862.165 0.099378 -1.69809 0
M  V30 9191 O 863.35 -0.057365 -1.94115 0
M  V30 9192 C 860.48 -0.517431 -3.43424 0
M  V30 9193 C 859.434 -1.52992 -3.99722 0
M  V30 9194 C 858.76 -0.933817 -5.26483 0
M  V30 9195 C 860.06 -2.91257 -4.33551 0
M  V30 9196 H 861.754 -1.89316 -2.31948 0
M  V30 9197 H 859.3 -0.911655 -1.11467 0
M  V30 9198 H 861.253 -0.343243 -4.2 0
M  V30 9199 H 859.977 0.441049 -3.23608 0
M  V30 9200 H 858.636 -1.6914 -3.2525 0
M  V30 9201 H 858.284 0.0324763 -5.0299 0
M  V30 9202 H 857.984 -1.60999 -5.65113 0
M  V30 9203 H 859.508 -0.770614 -6.05718 0
M  V30 9204 H 860.922 -2.78642 -5.0103 0
M  V30 9205 H 859.319 -3.55745 -4.83286 0
M  V30 9206 H 860.389 -3.43269 -3.42483 0
M  V30 9207 N 861.732 1.21287 -1.00634 0
M  V30 9208 C 862.96 1.94385 -0.708678 0
M  V30 9209 C 863.375 1.7416 0.728957 0
M  V30 9210 O 862.732 1.04906 1.49335 0
M  V30 9211 C 862.783 3.46755 -1.02193 0
M  V30 9212 O 862.504 3.6631 -2.40309 0
M  V30 9213 C 864.005 4.37014 -0.743867 0
M  V30 9214 H 861.225 0.618136 -0.261052 0
M  V30 9215 H 863.769 1.54067 -1.34475 0
M  V30 9216 H 861.924 3.8499 -0.431441 0
M  V30 9217 H 862.338 4.60393 -2.51274 0
M  V30 9218 H 863.812 5.42621 -1.01321 0
M  V30 9219 H 864.289 4.38017 0.322084 0
M  V30 9220 H 864.895 4.04426 -1.31603 0
M  V30 9221 N 863.21 0.781244 1.36873 0
M  V30 9222 C 864.456 0.350407 1.9975 0
M  V30 9223 C 864.789 -1.07293 1.6187 0
M  V30 9224 O 864.064 -1.73983 0.869491 0
M  V30 9225 C 864.347 0.504834 3.56544 0
M  V30 9226 C 864.2 1.97127 4.04303 0
M  V30 9227 C 865.519 -0.0851272 4.40018 0
M  V30 9228 H 862.638 0.128794 0.725659 0
M  V30 9229 H 865.28 0.98606 1.6241 0
M  V30 9230 H 863.43 -0.0363006 3.88483 0
M  V30 9231 H 865.102 2.57284 3.82887 0
M  V30 9232 H 863.345 2.47676 3.56145 0
M  V30 9233 H 864.016 2.03033 5.13305 0
M  V30 9234 H 866.492 0.376704 4.14391 0
M  V30 9235 H 865.368 0.0530015 5.48874 0
M  V30 9236 H 865.629 -1.17642 4.2616 0
M  V30 9237 N 864.689 -1.48329 0.532571 0
M  V30 9238 C 865.935 -2.03399 0.00755104 0
M  V30 9239 C 866.29 -1.40213 -1.3175 0
M  V30 9240 O 865.583 -0.539633 -1.83844 0
M  V30 9241 C 865.777 -3.57 -0.168943 0
M  V30 9242 C 865.606 -4.35077 1.13745 0
M  V30 9243 C 864.376 -4.75915 1.69803 0
M  V30 9244 C 866.574 -4.71734 2.04869 0
M  V30 9245 N 864.556 -5.38538 2.94703 0
M  V30 9246 C 865.927 -5.34403 3.14346 0
M  V30 9247 C 867.982 -4.53665 2.05164 0
M  V30 9248 C 866.685 -5.80912 4.24186 0
M  V30 9249 C 868.711 -5.01157 3.13999 0
M  V30 9250 C 868.073 -5.63853 4.22195 0
M  V30 9251 H 864.172 -0.780743 0.0443253 0
M  V30 9252 H 866.756 -1.81119 0.714423 0
M  V30 9253 H 864.927 -3.79099 -0.844903 0
M  V30 9254 H 866.659 -3.98708 -0.693804 0
M  V30 9255 H 863.414 -4.57103 1.23909 0
M  V30 9256 H 863.838 -5.74413 3.583 0
M  V30 9257 H 868.48 -4.04571 1.22808 0
M  V30 9258 H 866.198 -6.2901 5.07318 0
M  V30 9259 H 869.784 -4.88965 3.15285 0
M  V30 9260 H 868.664 -5.99935 5.05023 0
M  V30 9261 N 866.167 -0.267825 -1.55308 0
M  V30 9262 C 867.415 0.350343 -1.9904 0
M  V30 9263 C 867.736 1.56924 -1.15758 0
M  V30 9264 O 867.006 1.94358 -0.245336 0
M  V30 9265 H 865.586 0.132435 -0.735167 0
M  V30 9266 H 868.248 -0.371471 -1.91327 0
M  V30 9267 H 867.344 0.645203 -3.05358 0
M  V30 9268 N 867.645 1.57599 0.00500368 0
M  V30 9269 C 868.873 1.94626 0.702016 0
M  V30 9270 C 869.288 0.86953 1.67585 0
M  V30 9271 O 868.645 -0.15199 1.81866 0
M  V30 9272 C 868.696 3.31658 1.43824 0
M  V30 9273 O 868.417 4.35197 0.503467 0
M  V30 9274 C 869.918 3.83114 2.23021 0
M  V30 9275 H 867.138 0.641785 0.195841 0
M  V30 9276 H 869.682 2.04451 -0.0446287 0
M  V30 9277 H 867.837 3.23156 2.13655 0
M  V30 9278 H 868.251 5.1444 1.02235 0
M  V30 9279 H 869.725 4.81438 2.7004 0
M  V30 9280 H 870.202 3.15559 3.05482 0
M  V30 9281 H 870.808 3.94775 1.58216 0
M  V30 9282 N 869.123 -0.277682 1.55134 0
M  V30 9283 C 870.07 -1.34313 1.87693 0
M  V30 9284 C 871.04 -1.49298 0.727973 0
M  V30 9285 O 872.225 -1.6378 0.978807 0
M  V30 9286 C 869.365 -2.69922 2.15026 0
M  V30 9287 C 868.478 -2.63197 3.42565 0
M  V30 9288 C 867.613 -3.90955 3.59622 0
M  V30 9289 C 866.652 -3.78722 4.8087 0
M  V30 9290 N 865.789 -4.98303 4.94609 0
M  V30 9291 H 870.629 -1.05847 2.78569 0
M  V30 9292 H 868.166 -0.511469 1.37922 0
M  V30 9293 H 870.124 -3.48817 2.28872 0
M  V30 9294 H 868.754 -2.966 1.2739 0
M  V30 9295 H 867.806 -1.76038 3.37216 0
M  V30 9296 H 869.118 -2.50056 4.31594 0
M  V30 9297 H 868.272 -4.78291 3.7326 0
M  V30 9298 H 867.011 -4.06957 2.6877 0
M  V30 9299 H 866.016 -2.89769 4.67241 0
M  V30 9300 H 867.241 -3.64242 5.73153 0
M  V30 9301 H 865.187 -5.14725 4.06687 0
M  V30 9302 H 865.104 -4.87675 5.77676 0
M  V30 9303 H 866.372 -5.87225 5.12628 0
M  V30 9304 N 870.601 -1.47988 -0.541979 0
M  V30 9305 C 871.549 -1.62044 -1.66867 0
M  V30 9306 C 872.543 -0.487217 -1.62242 0
M  V30 9307 O 873.749 -0.66554 -1.67244 0
M  V30 9308 H 870.124 -0.51024 -0.552412 0
M  V30 9309 H 872.095 -2.56695 -1.52153 0
M  V30 9310 C 870.844 -1.66615 -3.0518 0
M  V30 9311 H 870.167 -2.5317 -3.09427 0
M  V30 9312 H 871.607 -1.80496 -3.83663 0
M  V30 9313 C 870.066 -0.402421 -3.34488 0
M  V30 9314 O 870.596 0.48992 -3.98701 0
M  V30 9315 N 868.802 -0.277778 -2.89269 0
M  V30 9316 H 868.349 -1.00488 -2.37192 0
M  V30 9317 H 868.307 0.566784 -3.09249 0
M  V30 9318 N 872.079 0.78992 -1.36375 0
M  V30 9319 C 873.009 1.91683 -1.33341 0
M  V30 9320 C 873.99 1.68861 -0.204965 0
M  V30 9321 O 875.175 1.89982 -0.402531 0
M  V30 9322 C 872.305 3.28696 -1.12143 0
M  V30 9323 C 871.259 3.66041 -2.21806 0
M  V30 9324 C 870.585 5.01399 -1.85751 0
M  V30 9325 C 871.885 3.74677 -3.63888 0
M  V30 9326 H 873.579 1.94478 -2.27637 0
M  V30 9327 H 871.125 0.934271 -1.09578 0
M  V30 9328 H 873.078 4.07151 -1.08656 0
M  V30 9329 H 871.802 3.26287 -0.142974 0
M  V30 9330 H 870.461 2.89883 -2.24418 0
M  V30 9331 H 870.109 4.9551 -0.864817 0
M  V30 9332 H 869.809 5.27355 -2.59173 0
M  V30 9333 H 871.333 5.82274 -1.83819 0
M  V30 9334 H 872.747 4.43324 -3.63506 0
M  V30 9335 H 871.144 4.12118 -4.3621 0
M  V30 9336 H 872.214 2.75795 -3.9883 0
M  V30 9337 N 873.557 1.20646 1.01402 0
M  V30 9338 C 874.489 0.915392 2.10127 0
M  V30 9339 C 875.502 -0.0978705 1.62506 0
M  V30 9340 O 876.691 0.133477 1.78 0
M  V30 9341 C 873.791 0.351304 3.37074 0
M  V30 9342 C 872.964 1.41673 4.13821 0
M  V30 9343 C 872.023 0.8635 5.19067 0
M  V30 9344 O 871.049 1.54481 5.47836 0
M  V30 9345 N 872.251 -0.325799 5.79585 0
M  V30 9346 H 875.016 1.85132 2.35682 0
M  V30 9347 H 872.577 1.11048 1.17813 0
M  V30 9348 H 874.569 -0.032996 4.04687 0
M  V30 9349 H 873.139 -0.489242 3.08748 0
M  V30 9350 H 872.359 1.97526 3.41141 0
M  V30 9351 H 873.647 2.1342 4.61876 0
M  V30 9352 H 873.045 -0.896534 5.58551 0
M  V30 9353 H 871.602 -0.651708 6.48534 0
M  V30 9354 N 875.035 -1.20752 1.01276 0
M  V30 9355 C 876.263 -1.94006 0.718976 0
M  V30 9356 C 876.678 -1.74544 -0.719711 0
M  V30 9357 O 876.035 -1.05697 -1.48776 0
M  V30 9358 C 876.086 -3.46208 1.04031 0
M  V30 9359 O 875.807 -3.65031 2.42248 0
M  V30 9360 C 877.308 -4.36614 0.767032 0
M  V30 9361 H 874.528 -0.616743 0.264327 0
M  V30 9362 H 877.072 -1.53352 1.3529 0
M  V30 9363 H 875.227 -3.84756 0.451852 0
M  V30 9364 H 875.641 -4.59054 2.53712 0
M  V30 9365 H 877.115 -5.42076 1.04198 0
M  V30 9366 H 877.592 -4.38182 -0.298851 0
M  V30 9367 H 878.198 -4.03723 1.33746 0
M  V30 9368 N 876.513 -0.788492 -1.36457 0
M  V30 9369 C 877.929 -0.470063 -1.52521 0
M  V30 9370 C 878.129 1.01176 -1.74258 0
M  V30 9371 O 877.185 1.79726 -1.77355 0
M  V30 9372 C 878.498 -1.2997 -2.71161 0
M  V30 9373 C 880.046 -1.2933 -2.85031 0
M  V30 9374 C 880.521 -2.10665 -4.06674 0
M  V30 9375 N 882.012 -2.08107 -4.13819 0
M  V30 9376 C 882.747 -2.6781 -5.07016 0
M  V30 9377 N 882.243 -3.36369 -6.05663 0
M  V30 9378 N 884.036 -2.57549 -4.99625 0
M  V30 9379 H 876.187 -1.7484 -1.20602 0
M  V30 9380 H 878.45 -0.743159 -0.588574 0
M  V30 9381 H 878.156 -2.35051 -2.61618 0
M  V30 9382 H 878.03 -0.940367 -3.6529 0
M  V30 9383 H 880.417 -0.250414 -2.94036 0
M  V30 9384 H 880.498 -1.69239 -1.91812 0
M  V30 9385 H 880.142 -3.14984 -3.98431 0
M  V30 9386 H 880.072 -1.68128 -4.9904 0
M  V30 9387 H 882.563 -1.58208 -3.43189 0
M  V30 9388 H 882.876 -3.79258 -6.73338 0
M  V30 9389 H 881.221 -3.40471 -6.05891 0
M  V30 9390 H 884.412 -2.0359 -4.21508 0
M  V30 9391 H 884.585 -3.0437 -5.72069 0
M  V30 9392 N 877.991 1.48044 -0.54043 0
M  V30 9393 C 879.237 2.02797 -0.0101718 0
M  V30 9394 C 879.57 1.41565 1.32939 0
M  V30 9395 O 878.845 0.565139 1.86109 0
M  V30 9396 C 879.128 3.59959 0.100758 0
M  V30 9397 C 878.981 4.31654 -1.26471 0
M  V30 9398 C 880.3 4.32347 0.822455 0
M  V30 9399 H 877.419 0.736982 -0.00517052 0
M  V30 9400 H 880.061 1.76656 -0.69948 0
M  V30 9401 H 878.211 3.82363 0.687824 0
M  V30 9402 H 879.883 4.20639 -1.89369 0
M  V30 9403 H 878.126 3.92663 -1.84386 0
M  V30 9404 H 878.797 5.401 -1.13998 0
M  V30 9405 H 881.273 4.14835 0.324164 0
M  V30 9406 H 880.149 5.41978 0.868993 0
M  V30 9407 H 880.41 4.00369 1.87501 0
M  V30 9408 N 879.47 0.276058 1.55163 0
M  V30 9409 C 880.698 -0.343772 2.04024 0
M  V30 9410 C 881.113 -1.49397 1.15438 0
M  V30 9411 O 880.47 -1.81662 0.174692 0
M  V30 9412 C 880.521 -0.823885 3.51986 0
M  V30 9413 O 880.242 0.280507 4.37201 0
M  V30 9414 C 881.743 -1.51143 4.16738 0
M  V30 9415 H 878.963 -0.07828 0.666418 0
M  V30 9416 H 881.507 0.408427 2.0038 0
M  V30 9417 H 879.662 -1.52617 3.56071 0
M  V30 9418 H 880.076 -0.0887831 5.24425 0
M  V30 9419 H 881.55 -1.79878 5.2187 0
M  V30 9420 H 882.027 -2.44327 3.64967 0
M  V30 9421 H 882.633 -0.852975 4.16659 0
M  V30 9422 N 880.948 -1.576 0.00335426 0
M  V30 9423 C 881.911 -2.07576 -0.971838 0
M  V30 9424 C 882.911 -0.985796 -1.27038 0
M  V30 9425 O 884.101 -1.24833 -1.21501 0
M  V30 9426 C 881.233 -2.52003 -2.29581 0
M  V30 9427 H 882.426 -2.95008 -0.539481 0
M  V30 9428 H 879.979 -1.54381 -0.244186 0
M  V30 9429 H 880.714 -1.67825 -2.77498 0
M  V30 9430 H 880.499 -3.31609 -2.09231 0
M  V30 9431 H 881.989 -2.90983 -2.99531 0
M  V30 9432 N 882.426 0.269451 -1.5528 0
M  V30 9433 C 883.675 0.998381 -1.75258 0
M  V30 9434 C 883.988 1.87321 -0.563034 0
M  V30 9435 O 885.194 2.63719 -0.645313 0
M  V30 9436 C 883.65 1.82505 -3.10193 0
M  V30 9437 C 883.258 0.99871 -4.36726 0
M  V30 9438 C 885.002 2.54807 -3.3952 0
M  V30 9439 C 882.909 1.81997 -5.627 0
M  V30 9440 H 881.839 0.376488 -0.653278 0
M  V30 9441 H 884.49 0.253909 -1.81735 0
M  V30 9442 H 882.872 2.61061 -2.97763 0
M  V30 9443 H 884.046 0.257064 -4.60082 0
M  V30 9444 H 882.361 0.390074 -4.14569 0
M  V30 9445 H 884.958 3.16662 -4.30847 0
M  V30 9446 H 885.301 3.25273 -2.59813 0
M  V30 9447 H 885.834 1.83278 -3.53064 0
M  V30 9448 H 882.573 1.15945 -6.45164 0
M  V30 9449 H 882.093 2.53749 -5.43481 0
M  V30 9450 H 883.772 2.39274 -6.0113 0
M  V30 9451 N 883.904 1.48273 0.534124 0
M  V30 9452 C 884.814 1.65162 1.66609 0
M  V30 9453 C 885.83 0.534177 1.65598 0
M  V30 9454 O 887.006 0.804715 1.84625 0
M  V30 9455 C 884.071 1.68354 3.03081 0
M  V30 9456 C 883.132 2.91696 3.1498 0
M  V30 9457 C 882.365 2.94725 4.44941 0
M  V30 9458 O 882.588 2.06285 5.31792 0
M  V30 9459 O 881.522 3.8685 4.61119 0
M  V30 9460 H 885.348 2.60991 1.55298 0
M  V30 9461 H 882.933 1.31626 0.706749 0
M  V30 9462 H 884.815 1.72998 3.84252 0
M  V30 9463 H 883.49 0.756978 3.14725 0
M  V30 9464 H 882.397 2.92586 2.33119 0
M  V30 9465 H 883.73 3.83722 3.0825 0
M  V30 9466 N 885.382 -0.782676 1.36792 0
M  V30 9467 C 886.329 -1.89558 1.31667 0
M  V30 9468 C 887.299 -1.65076 0.184147 0
M  V30 9469 O 888.484 -1.87143 0.371753 0
M  V30 9470 C 885.624 -3.26469 1.11858 0
M  V30 9471 C 884.737 -3.62978 2.34245 0
M  V30 9472 C 883.872 -4.89041 2.07394 0
M  V30 9473 C 882.911 -5.18249 3.25706 0
M  V30 9474 N 882.048 -6.35497 2.98476 0
M  V30 9475 H 886.888 -1.93274 2.26824 0
M  V30 9476 H 884.425 -0.945057 1.12726 0
M  V30 9477 H 886.383 -4.05431 0.983968 0
M  V30 9478 H 885.013 -3.22158 0.203531 0
M  V30 9479 H 884.065 -2.79087 2.58485 0
M  V30 9480 H 885.377 -3.80507 3.22514 0
M  V30 9481 H 884.531 -5.75883 1.90901 0
M  V30 9482 H 883.27 -4.73594 1.16446 0
M  V30 9483 H 882.275 -4.29887 3.4275 0
M  V30 9484 H 883.5 -5.35611 4.1749 0
M  V30 9485 H 881.446 -6.21429 2.10146 0
M  V30 9486 H 881.363 -6.5339 3.80286 0
M  V30 9487 H 882.631 -7.25304 2.85577 0
M  V30 9488 N 886.86 -1.21182 -1.00761 0
M  V30 9489 C 888.09 -1.05182 -1.77821 0
M  V30 9490 C 888.498 0.401527 -1.8489 0
M  V30 9491 O 887.841 1.29042 -1.30743 0
M  V30 9492 C 887.903 -1.57066 -3.23374 0
M  V30 9493 C 887.567 -3.05491 -3.39889 0
M  V30 9494 C 888.564 -4.03065 -3.28381 0
M  V30 9495 C 886.249 -3.44641 -3.65415 0
M  V30 9496 C 888.243 -5.37778 -3.4216 0
M  V30 9497 C 885.93 -4.79507 -3.78836 0
M  V30 9498 C 886.928 -5.75884 -3.67214 0
M  V30 9499 O 886.616 -7.08304 -3.80212 0
M  V30 9500 H 886.348 -0.369983 -0.565763 0
M  V30 9501 H 888.902 -1.60914 -1.27655 0
M  V30 9502 H 887.132 -0.957273 -3.74664 0
M  V30 9503 H 888.821 -1.36949 -3.82099 0
M  V30 9504 H 889.587 -3.74163 -3.08588 0
M  V30 9505 H 885.466 -2.7016 -3.73544 0
M  V30 9506 H 889.01 -6.12987 -3.33005 0
M  V30 9507 H 884.907 -5.08096 -3.98132 0
M  V30 9508 H 885.675 -7.15677 -3.97175 0
M  V30 9509 N 888.338 1.20213 -1.01915 0
M  V30 9510 C 889.268 2.25336 -0.612023 0
M  V30 9511 C 890.249 1.65933 0.374186 0
M  V30 9512 O 891.434 1.92464 0.259053 0
M  V30 9513 C 888.564 3.47267 0.047904 0
M  V30 9514 C 887.518 4.1928 -0.859557 0
M  V30 9515 C 886.844 5.3466 -0.0652655 0
M  V30 9516 C 888.144 4.75143 -2.1688 0
M  V30 9517 H 889.838 2.59645 -1.49079 0
M  V30 9518 H 887.384 1.24808 -0.718263 0
M  V30 9519 H 889.337 4.19991 0.344294 0
M  V30 9520 H 888.061 3.12129 0.961404 0
M  V30 9521 H 886.72 3.48425 -1.13999 0
M  V30 9522 H 886.368 4.95767 0.849964 0
M  V30 9523 H 886.068 5.83772 -0.669618 0
M  V30 9524 H 887.592 6.10187 0.224612 0
M  V30 9525 H 889.006 5.39672 -1.9346 0
M  V30 9526 H 887.403 5.34702 -2.72422 0
M  V30 9527 H 888.473 3.93744 -2.83008 0
M  V30 9528 N 889.816 0.795718 1.36037 0
M  V30 9529 C 890.726 0.199784 2.33748 0
M  V30 9530 C 891.742 -0.651436 1.61345 0
M  V30 9531 O 892.918 -0.565743 1.93291 0
M  V30 9532 C 889.983 -0.650475 3.40543 0
M  V30 9533 C 889.044 0.219974 4.28736 0
M  V30 9534 C 888.277 -0.589798 5.30431 0
M  V30 9535 O 888.5 -1.82532 5.40406 0
M  V30 9536 O 887.434 0.0136187 6.01898 0
M  V30 9537 H 891.26 1.00782 2.8649 0
M  V30 9538 H 888.845 0.557293 1.38617 0
M  V30 9539 H 890.727 -1.13512 4.05824 0
M  V30 9540 H 889.402 -1.4363 2.9009 0
M  V30 9541 H 888.309 0.751516 3.66474 0
M  V30 9542 H 889.642 0.969468 4.82558 0
M  V30 9543 N 891.294 -1.47756 0.548274 0
M  V30 9544 C 892.571 -1.9555 -0.0443603 0
M  V30 9545 C 892.951 -1.49079 -1.49462 0
M  V30 9546 O 892.299 -0.725538 -2.16675 0
M  V30 9547 C 892.509 -3.48879 0.0918425 0
M  V30 9548 C 893.857 -4.2456 -0.0580879 0
M  V30 9549 O 894.881 -3.56195 0.018946 0
M  V30 9550 O 893.74 -5.46048 -0.222261 0
M  V30 9551 H 890.834 -0.824106 -0.0691235 0
M  V30 9552 H 893.38 -1.58196 0.614166 0
M  V30 9553 H 892.152 -3.7548 1.10137 0
M  V30 9554 H 891.775 -3.92975 -0.604704 0
M  V30 9555 N 892.772 -0.284283 -1.55015 0
M  V30 9556 C 893.704 0.63258 -2.20298 0
M  V30 9557 C 894.717 1.11045 -1.1905 0
M  V30 9558 O 895.906 1.03078 -1.4573 0
M  V30 9559 C 893.006 1.87599 -2.82241 0
M  V30 9560 C 892.179 1.5434 -4.09265 0
M  V30 9561 C 891.238 2.64023 -4.55169 0
M  V30 9562 O 890.264 2.29821 -5.20741 0
M  V30 9563 N 891.466 3.94255 -4.26079 0
M  V30 9564 H 894.231 0.0737928 -2.99609 0
M  V30 9565 H 891.792 -0.105767 -1.61554 0
M  V30 9566 H 893.784 2.60289 -3.0989 0
M  V30 9567 H 892.354 2.3436 -2.06868 0
M  V30 9568 H 891.574 0.649912 -3.88806 0
M  V30 9569 H 892.862 1.29634 -4.92009 0
M  V30 9570 H 892.26 4.24859 -3.73512 0
M  V30 9571 H 890.817 4.63295 -4.58477 0
M  V30 9572 N 894.251 1.57596 -0.0117121 0
M  V30 9573 C 895.214 2.08089 0.960816 0
M  V30 9574 C 896.214 0.992519 1.26514 0
M  V30 9575 O 897.404 1.25475 1.20837 0
M  V30 9576 C 894.536 2.53217 2.28241 0
M  V30 9577 H 895.729 2.9529 0.523829 0
M  V30 9578 H 893.282 1.54508 0.235995 0
M  V30 9579 H 894.017 1.69294 2.76604 0
M  V30 9580 H 893.802 3.32714 2.0747 0
M  V30 9581 H 895.292 2.92568 2.97983 0
M  V30 9582 N 895.729 -0.261212 1.5542 0
M  V30 9583 C 896.661 -1.34571 1.85535 0
M  V30 9584 C 897.674 -1.44979 0.740612 0
M  V30 9585 O 898.863 -1.46584 1.01859 0
M  V30 9586 C 895.963 -2.7258 2.01378 0
M  V30 9587 C 895.136 -2.84618 3.32131 0
M  V30 9588 C 894.195 -4.03379 3.37893 0
M  V30 9589 O 893.221 -3.93581 4.11197 0
M  V30 9590 N 894.423 -5.15893 2.66148 0
M  V30 9591 H 897.188 -1.09078 2.79145 0
M  V30 9592 H 894.749 -0.451327 1.55482 0
M  V30 9593 H 896.741 -3.50342 2.0259 0
M  V30 9594 H 895.311 -2.90844 1.14579 0
M  V30 9595 H 894.531 -1.93647 3.43358 0
M  V30 9596 H 895.819 -2.896 4.18341 0
M  V30 9597 H 895.217 -5.26743 2.06297 0
M  V30 9598 H 893.774 -5.91842 2.73069 0
M  V30 9599 N 897.207 -1.48554 -0.526253 0
M  V30 9600 C 898.137 -1.66252 -1.63959 0
M  V30 9601 C 899.118 -0.511351 -1.62232 0
M  V30 9602 O 900.303 -0.744322 -1.7937 0
M  V30 9603 C 897.433 -1.70556 -3.02536 0
M  V30 9604 C 896.387 -2.8521 -3.19123 0
M  V30 9605 C 895.713 -2.74606 -4.58798 0
M  V30 9606 C 897.013 -4.26463 -3.0154 0
M  V30 9607 H 898.707 -2.59459 -1.49404 0
M  V30 9608 H 896.253 -1.24862 -0.717326 0
M  V30 9609 H 898.206 -1.81524 -3.80298 0
M  V30 9610 H 896.93 -0.739297 -3.18123 0
M  V30 9611 H 895.589 -2.73802 -2.43779 0
M  V30 9612 H 895.237 -1.75941 -4.71226 0
M  V30 9613 H 894.937 -3.51544 -4.70841 0
M  V30 9614 H 896.461 -2.87548 -5.38655 0
M  V30 9615 H 897.875 -4.38685 -3.69091 0
M  V30 9616 H 896.272 -5.04428 -3.25073 0
M  V30 9617 H 897.342 -4.42667 -1.97925 0
M  V30 9618 N 898.685 0.775411 -1.37205 0
M  V30 9619 C 899.633 1.90996 -1.32752 0
M  V30 9620 C 900.627 1.68006 -0.216907 0
M  V30 9621 O 901.833 1.7584 -0.384723 0
M  V30 9622 H 898.208 0.62803 -0.413621 0
M  V30 9623 H 900.179 1.91869 -2.28536 0
M  V30 9624 C 898.928 3.28211 -1.14772 0
M  V30 9625 H 898.251 3.46477 -1.99484 0
M  V30 9626 H 899.691 4.07907 -1.15706 0
M  V30 9627 C 898.15 3.3658 0.146852 0
M  V30 9628 O 898.68 3.85428 1.13173 0
M  V30 9629 N 896.886 2.89936 0.196305 0
M  V30 9630 H 896.433 2.50375 -0.605807 0
M  V30 9631 H 896.391 2.95916 1.06212 0
M  V30 9632 N 900.163 1.21714 1.00117 0
M  V30 9633 C 901.126 0.981338 2.07129 0
M  V30 9634 C 902.126 -0.0491116 1.60725 0
M  V30 9635 O 903.316 0.188555 1.73177 0
M  V30 9636 C 900.448 0.480608 3.37495 0
M  V30 9637 H 901.641 1.93075 2.29482 0
M  V30 9638 H 899.194 1.03467 1.17151 0
M  V30 9639 H 899.929 -0.473552 3.20824 0
M  V30 9640 H 899.714 1.22393 3.72508 0
M  V30 9641 H 901.204 0.33561 4.16249 0
M  V30 9642 N 901.641 -1.19671 1.02551 0
M  V30 9643 C 902.887 -1.89818 0.730801 0
M  V30 9644 C 903.242 -1.77917 -0.732355 0
M  V30 9645 O 902.535 -1.15848 -1.5261 0
M  V30 9646 C 902.729 -3.39647 1.11241 0
M  V30 9647 C 902.558 -3.66129 2.61112 0
M  V30 9648 C 901.328 -3.84348 3.28032 0
M  V30 9649 C 903.526 -3.67963 3.59316 0
M  V30 9650 N 901.508 -3.98429 4.67041 0
M  V30 9651 C 902.879 -3.87575 4.83927 0
M  V30 9652 C 904.934 -3.50971 3.53162 0
M  V30 9653 C 903.637 -3.91957 6.03127 0
M  V30 9654 C 905.663 -3.56629 4.71773 0
M  V30 9655 C 905.025 -3.76722 5.95197 0
M  V30 9656 H 901.124 -0.713873 0.319232 0
M  V30 9657 H 903.708 -1.43844 1.31213 0
M  V30 9658 H 901.879 -3.84352 0.559324 0
M  V30 9659 H 903.611 -3.97301 0.77031 0
M  V30 9660 H 900.366 -3.83097 2.78448 0
M  V30 9661 H 900.79 -4.09327 5.39241 0
M  V30 9662 H 905.432 -3.34395 2.58728 0
M  V30 9663 H 903.15 -4.07326 6.97933 0
M  V30 9664 H 906.736 -3.44777 4.68637 0
M  V30 9665 H 905.616 -3.8097 6.85442 0
M  V30 9666 N 903.119 -0.802921 -1.35613 0
M  V30 9667 C 904.367 -0.380822 -1.9848 0
M  V30 9668 C 904.688 1.05464 -1.6402 0
M  V30 9669 O 903.958 1.72908 -0.920854 0
M  V30 9670 H 902.538 -0.137824 -0.734176 0
M  V30 9671 H 905.2 -1.02795 -1.65587 0
M  V30 9672 H 904.296 -0.483565 -3.08331 0
M  V30 9673 N 904.597 1.47463 -0.556102 0
M  V30 9674 C 905.837 2.04372 -0.0339743 0
M  V30 9675 C 906.201 1.42125 1.29091 0
M  V30 9676 O 907.402 1.90074 1.90066 0
M  V30 9677 C 905.673 3.57352 0.0585316 0
M  V30 9678 S 907.232 4.35625 0.526943 0
M  V30 9679 H 904.05 0.710574 -0.0246115 0
M  V30 9680 H 906.652 1.80848 -0.742585 0
M  V30 9681 H 905.356 4.00181 -0.910116 0
M  V30 9682 H 904.887 3.85371 0.790731 0
M  V30 9683 H 906.902 4.62911 1.78683 0
M  V30 9684 N 906.075 0.2925 1.54862 0
M  V30 9685 C 907.038 -0.574423 2.21885 0
M  V30 9686 C 908.038 -1.06791 1.20218 0
M  V30 9687 O 909.228 -0.9653 1.45009 0
M  V30 9688 C 906.36 -1.79438 2.89853 0
M  V30 9689 H 907.553 0.0110319 2.99898 0
M  V30 9690 H 905.106 0.043256 1.5624 0
M  V30 9691 H 905.841 -2.4199 2.15897 0
M  V30 9692 H 905.626 -1.44827 3.64373 0
M  V30 9693 H 907.116 -2.41048 3.41007 0
M  V30 9694 N 907.553 -1.57587 0.0200696 0
M  V30 9695 C 908.8 -1.91424 -0.660525 0
M  V30 9696 C 909.128 -0.895626 -1.72652 0
M  V30 9697 O 908.383 0.096771 -1.95461 0
M  V30 9698 C 908.682 -3.32002 -1.32323 0
M  V30 9699 C 908.348 -4.49223 -0.388487 0
M  V30 9700 C 907.01 -4.81021 -0.131184 0
M  V30 9701 C 909.362 -5.20581 0.253906 0
M  V30 9702 C 906.69 -5.81539 0.776471 0
M  V30 9703 C 909.042 -6.22067 1.14956 0
M  V30 9704 C 907.706 -6.52311 1.41584 0
M  V30 9705 H 906.976 -0.700472 -0.241703 0
M  V30 9706 H 909.623 -1.91333 0.0798991 0
M  V30 9707 H 907.928 -3.28312 -2.13819 0
M  V30 9708 H 909.625 -3.5545 -1.85623 0
M  V30 9709 H 906.215 -4.24391 -0.599207 0
M  V30 9710 H 910.399 -4.96253 0.068164 0
M  V30 9711 H 905.655 -6.03322 0.990575 0
M  V30 9712 H 909.829 -6.76484 1.65357 0
M  V30 9713 H 907.456 -7.30017 2.12083 0
M  V30 9714 N 909.032 0.252966 -1.55557 0
M  V30 9715 C 910.448 0.60118 -1.47844 0
M  V30 9716 C 910.648 1.88612 -0.709055 0
M  V30 9717 O 909.704 2.51395 -0.235964 0
M  V30 9718 C 911.017 0.709539 -2.92209 0
M  V30 9719 C 912.565 0.802269 -3.02544 0
M  V30 9720 C 913.04 0.94224 -4.48203 0
M  V30 9721 N 914.531 1.00726 -4.52116 0
M  V30 9722 C 915.266 1.13472 -5.6206 0
M  V30 9723 N 914.762 1.22811 -6.81828 0
M  V30 9724 N 916.555 1.1674 -5.49844 0
M  V30 9725 H 908.706 -0.590635 -2.04023 0
M  V30 9726 H 910.969 -0.202986 -0.926013 0
M  V30 9727 H 910.675 -0.164505 -3.51315 0
M  V30 9728 H 910.549 1.58343 -3.42356 0
M  V30 9729 H 912.936 1.66677 -2.43522 0
M  V30 9730 H 913.017 -0.0966469 -2.55617 0
M  V30 9731 H 912.661 0.0823209 -5.07833 0
M  V30 9732 H 912.591 1.85611 -4.92805 0
M  V30 9733 H 915.082 0.946684 -3.6585 0
M  V30 9734 H 915.395 1.32426 -7.61369 0
M  V30 9735 H 913.74 1.19779 -6.84601 0
M  V30 9736 H 916.931 1.09089 -4.55211 0
M  V30 9737 H 917.104 1.26329 -6.35567 0
M  V30 9738 N 910.51 1.48831 0.518367 0
M  V30 9739 C 911.442 1.60317 1.63802 0
M  V30 9740 C 912.455 0.486771 1.55352 0
M  V30 9741 O 913.644 0.758111 1.61601 0
M  V30 9742 C 910.744 1.52771 3.02513 0
M  V30 9743 C 909.917 2.79649 3.36326 0
M  V30 9744 C 908.976 2.65396 4.54369 0
M  V30 9745 O 908.002 3.39304 4.57013 0
M  V30 9746 N 909.204 1.75784 5.53245 0
M  V30 9747 H 911.969 2.56878 1.54383 0
M  V30 9748 H 909.53 1.45701 0.705889 0
M  V30 9749 H 911.522 1.40914 3.79375 0
M  V30 9750 H 910.092 0.641381 3.05949 0
M  V30 9751 H 909.312 3.05985 2.48529 0
M  V30 9752 H 910.6 3.63799 3.55707 0
M  V30 9753 H 909.998 1.14961 5.53896 0
M  V30 9754 H 908.555 1.69859 6.29278 0
M  V30 9755 N 911.988 -0.768124 1.37614 0
M  V30 9756 C 913.234 -1.52907 1.33219 0
M  V30 9757 C 913.567 -1.94026 -0.0821218 0
M  V30 9758 O 912.842 -1.64345 -1.04023 0
M  V30 9759 C 913.125 -2.79164 2.27463 0
M  V30 9760 C 912.978 -2.44276 3.7769 0
M  V30 9761 C 914.297 -3.81115 2.20089 0
M  V30 9762 H 911.416 -0.554712 0.485246 0
M  V30 9763 H 914.058 -0.880911 1.68345 0
M  V30 9764 H 912.208 -3.34472 1.97639 0
M  V30 9765 H 913.88 -1.94855 4.18126 0
M  V30 9766 H 912.123 -1.76925 3.96081 0
M  V30 9767 H 912.794 -3.34544 4.39072 0
M  V30 9768 H 915.27 -3.35311 2.46386 0
M  V30 9769 H 914.146 -4.67174 2.88166 0
M  V30 9770 H 914.407 -4.25644 1.19498 0
M  V30 9771 N 913.466 -1.22244 -0.994698 0
M  V30 9772 C 914.706 -1.05747 -1.7492 0
M  V30 9773 C 915.07 0.4007 -1.87772 0
M  V30 9774 O 916.271 0.686469 -2.59887 0
M  V30 9775 C 914.542 -1.7471 -3.11787 0
M  V30 9776 S 916.101 -1.73604 -4.02998 0
M  V30 9777 H 912.919 -0.378731 -0.601734 0
M  V30 9778 H 915.521 -1.55155 -1.18942 0
M  V30 9779 H 914.225 -2.79972 -3.00073 0
M  V30 9780 H 913.756 -1.25525 -3.72836 0
M  V30 9781 H 915.771 -0.784445 -4.8996 0
M  V30 9782 N 914.944 1.19125 -1.03184 0
M  V30 9783 C 915.894 2.20348 -0.585731 0
M  V30 9784 C 916.878 1.56656 0.367109 0
M  V30 9785 O 918.07 1.76003 0.187598 0
M  V30 9786 C 915.199 3.43249 0.0590006 0
M  V30 9787 C 914.285 4.1408 -0.916457 0
M  V30 9788 N 914.676 4.61051 -2.08005 0
M  V30 9789 C 912.974 4.39809 -0.74054 0
M  V30 9790 C 913.675 5.15477 -2.69552 0
M  V30 9791 N 912.651 5.06456 -1.97493 0
M  V30 9792 H 916.453 2.54346 -1.47259 0
M  V30 9793 H 913.967 1.35232 -0.899225 0
M  V30 9794 H 915.964 4.15013 0.396236 0
M  V30 9795 H 914.624 3.1075 0.941507 0
M  V30 9796 H 915.635 4.55782 -2.45934 0
M  V30 9797 H 912.312 4.17397 0.0926238 0
M  V30 9798 H 913.702 5.62088 -3.68112 0
M  V30 9799 N 916.422 0.810101 1.35185 0
M  V30 9800 C 917.65 0.404696 2.02903 0
M  V30 9801 C 918.065 -0.985434 1.61042 0
M  V30 9802 O 917.422 -1.63557 0.809658 0
M  V30 9803 C 917.473 0.482493 3.58266 0
M  V30 9804 O 917.194 1.81782 3.98606 0
M  V30 9805 C 918.695 0.070345 4.43244 0
M  V30 9806 H 915.915 0.163972 0.650657 0
M  V30 9807 H 918.459 1.0947 1.72733 0
M  V30 9808 H 916.614 -0.159296 3.87072 0
M  V30 9809 H 917.028 1.78306 4.93262 0
M  V30 9810 H 918.502 0.175888 5.5172 0
M  V30 9811 H 918.979 -0.984724 4.28018 0
M  V30 9812 H 919.585 0.685427 4.1974 0
M  V30 9813 N 917.9 -1.47166 0.563914 0
M  V30 9814 C 919.128 -2.06846 0.0474287 0
M  V30 9815 C 919.543 -1.41557 -1.24928 0
M  V30 9816 O 918.9 -0.514376 -1.75101 0
M  V30 9817 C 918.951 -3.6121 -0.144831 0
M  V30 9818 O 918.672 -4.24052 1.10053 0
M  V30 9819 C 920.173 -4.37773 -0.69783 0
M  V30 9820 H 917.393 -0.669217 0.0488896 0
M  V30 9821 H 919.937 -1.89072 0.779235 0
M  V30 9822 H 918.092 -3.78474 -0.82679 0
M  V30 9823 H 918.506 -5.16677 0.902481 0
M  V30 9824 H 919.98 -5.46438 -0.781616 0
M  V30 9825 H 920.457 -4.04517 -1.71063 0
M  V30 9826 H 921.063 -4.25269 -0.0513516 0
M  V30 9827 N 919.378 -0.300708 -1.54705 0
M  V30 9828 C 920.624 0.309111 -2.0043 0
M  V30 9829 C 920.957 1.53562 -1.1888 0
M  V30 9830 O 920.232 1.92683 -0.265205 0
M  V30 9831 C 920.515 0.665995 -3.53888 0
M  V30 9832 C 920.368 -0.56963 -4.46178 0
M  V30 9833 C 921.687 1.49262 -4.14016 0
M  V30 9834 H 918.806 0.110878 -0.728612 0
M  V30 9835 H 921.448 -0.412748 -1.85463 0
M  V30 9836 H 919.598 1.281 -3.66773 0
M  V30 9837 H 921.27 -1.20811 -4.45199 0
M  V30 9838 H 919.513 -1.20292 -4.16788 0
M  V30 9839 H 920.184 -0.275785 -5.51311 0
M  V30 9840 H 922.66 0.972979 -4.04564 0
M  V30 9841 H 921.536 1.71111 -5.21548 0
M  V30 9842 H 921.797 2.48174 -3.65872 0
M  V30 9843 N 920.856 1.57574 -0.0284266 0
M  V30 9844 C 922.267 1.79585 0.510502 0
M  V30 9845 C 922.618 0.938625 1.72291 0
M  V30 9846 O 921.743 0.14884 2.15888 0
M  V30 9847 C 922.338 3.25703 0.932912 0
M  V30 9848 C 920.897 3.48711 1.41696 0
M  V30 9849 C 920.044 2.74665 0.381356 0
M  V30 9850 H 922.995 1.56647 -0.254464 0
M  V30 9851 H 923.016 3.35376 1.79731 0
M  V30 9852 H 922.528 3.88067 0.0503036 0
M  V30 9853 H 920.629 2.91597 2.31952 0
M  V30 9854 H 920.742 4.57423 1.42481 0
M  V30 9855 H 919.106 2.40123 0.8493 0
M  V30 9856 H 919.889 3.39745 -0.492775 0
M  V30 9857 N 922.334 -0.244713 1.55689 0
M  V30 9858 C 923.58 -0.969623 1.78801 0
M  V30 9859 C 923.935 -1.8288 0.597716 0
M  V30 9860 O 923.228 -1.87184 -0.408978 0
M  V30 9861 C 923.422 -1.8617 3.05083 0
M  V30 9862 C 923.251 -1.09036 4.36281 0
M  V30 9863 C 922.021 -0.794585 4.99013 0
M  V30 9864 C 924.219 -0.466883 5.12176 0
M  V30 9865 N 922.201 0.000579944 6.139 0
M  V30 9866 C 923.572 0.192755 6.197 0
M  V30 9867 C 925.627 -0.377571 4.96466 0
M  V30 9868 C 924.33 0.933132 7.13222 0
M  V30 9869 C 926.356 0.349281 5.90368 0
M  V30 9870 C 925.718 0.997549 6.97301 0
M  V30 9871 H 921.817 -0.335845 0.70621 0
M  V30 9872 H 924.401 -0.242559 1.93183 0
M  V30 9873 H 922.572 -2.56077 2.92026 0
M  V30 9874 H 924.304 -2.52234 3.16481 0
M  V30 9875 H 921.059 -1.10691 4.60483 0
M  V30 9876 H 921.483 0.38632 6.75897 0
M  V30 9877 H 926.125 -0.86443 4.13869 0
M  V30 9878 H 923.843 1.43159 7.95318 0
M  V30 9879 H 927.429 0.419082 5.80289 0
M  V30 9880 H 926.309 1.551 7.68709 0
M  V30 9881 N 923.813 -1.49104 -0.510467 0
M  V30 9882 C 925.224 -1.51423 -1.09215 0
M  V30 9883 C 925.575 -0.295035 -1.93969 0
M  V30 9884 O 924.7 0.596064 -2.08029 0
M  V30 9885 C 925.295 -2.74387 -1.98739 0
M  V30 9886 C 923.854 -2.79515 -2.52088 0
M  V30 9887 C 923.001 -2.4521 -1.29488 0
M  V30 9888 H 925.952 -1.55938 -0.294807 0
M  V30 9889 H 925.973 -2.54012 -2.83298 0
M  V30 9890 H 925.485 -3.63105 -1.37026 0
M  V30 9891 H 923.586 -1.95054 -3.17466 0
M  V30 9892 H 923.699 -3.81447 -2.89887 0
M  V30 9893 H 922.063 -1.96785 -1.61703 0
M  V30 9894 H 922.846 -3.36192 -0.694978 0
M  V30 9895 N 925.291 0.760815 -1.38019 0
M  V30 9896 C 926.239 1.89578 -1.34771 0
M  V30 9897 C 927.233 1.67766 -0.234714 0
M  V30 9898 O 928.439 1.75423 -0.403352 0
M  V30 9899 H 924.814 0.623608 -0.420258 0
M  V30 9900 H 926.785 1.89434 -2.30558 0
M  V30 9901 C 925.534 3.26976 -1.18246 0
M  V30 9902 H 924.857 3.44342 -2.03147 0
M  V30 9903 H 926.297 4.06657 -1.20026 0
M  V30 9904 C 924.756 3.36717 0.111145 0
M  V30 9905 O 925.286 3.86607 1.09079 0
M  V30 9906 N 923.492 2.90128 0.165542 0
M  V30 9907 H 923.039 2.49719 -0.632328 0
M  V30 9908 H 922.997 2.97026 1.03067 0
M  V30 9909 N 926.769 1.22769 0.988202 0
M  V30 9910 C 927.732 1.00325 2.06076 0
M  V30 9911 C 928.732 -0.0320618 1.60768 0
M  V30 9912 O 929.922 0.206912 1.72967 0
M  V30 9913 C 927.054 0.516376 3.36966 0
M  V30 9914 H 928.247 1.95499 2.27421 0
M  V30 9915 H 925.8 1.04704 1.16047 0
M  V30 9916 H 926.535 -0.439498 3.21308 0
M  V30 9917 H 926.32 1.26337 3.71189 0
M  V30 9918 H 927.81 0.37974 4.1587 0
M  V30 9919 N 928.247 -1.18576 1.03814 0
M  V30 9920 C 929.472 -1.92978 0.759873 0
M  V30 9921 C 929.897 -1.75514 -0.676486 0
M  V30 9922 O 929.255 -1.06359 -1.46824 0
M  V30 9923 C 929.303 -3.42507 1.12788 0
M  V30 9924 O 928.407 -4.1163 0.251886 0
M  V30 9925 H 927.748 -0.602129 0.279886 0
M  V30 9926 H 930.278 -1.50383 1.3873 0
M  V30 9927 H 930.288 -3.93206 1.08872 0
M  V30 9928 H 928.963 -3.5454 2.17427 0
M  V30 9929 H 927.54 -3.7125 0.350441 0
M  V30 9930 N 929.725 -0.817259 -1.34754 0
M  V30 9931 C 930.655 -0.249769 -2.3216 0
M  V30 9932 C 931.636 0.630663 -1.57977 0
M  V30 9933 O 932.821 0.558719 -1.85989 0
M  V30 9934 C 929.951 0.593825 -3.42186 0
M  V30 9935 C 928.905 -0.188997 -4.27583 0
M  V30 9936 C 928.231 0.776979 -5.29025 0
M  V30 9937 C 929.531 -1.39401 -5.03354 0
M  V30 9938 H 931.225 -1.06359 -2.79872 0
M  V30 9939 H 928.771 -0.512894 -1.34556 0
M  V30 9940 H 930.724 1.00097 -4.09339 0
M  V30 9941 H 929.448 1.44064 -2.93109 0
M  V30 9942 H 928.107 -0.577445 -3.62024 0
M  V30 9943 H 927.755 1.61959 -4.76212 0
M  V30 9944 H 927.455 0.257448 -5.87036 0
M  V30 9945 H 928.979 1.18211 -5.99048 0
M  V30 9946 H 930.393 -1.06117 -5.63393 0
M  V30 9947 H 928.79 -1.84878 -5.70912 0
M  V30 9948 H 929.86 -2.17515 -4.33377 0
M  V30 9949 N 931.203 1.46865 -0.571711 0
M  V30 9950 C 932.431 2.06818 -0.0583975 0
M  V30 9951 C 932.846 1.42218 1.24175 0
M  V30 9952 O 932.203 0.523655 1.74826 0
M  V30 9953 C 932.254 3.61281 0.125673 0
M  V30 9954 O 931.975 4.23462 -1.123 0
M  V30 9955 C 933.476 4.38137 0.674604 0
M  V30 9956 H 930.696 0.668948 -0.052438 0
M  V30 9957 H 933.24 1.88656 -0.789251 0
M  V30 9958 H 931.395 3.78908 0.806707 0
M  V30 9959 H 931.809 5.16192 -0.929869 0
M  V30 9960 H 933.283 5.46845 0.752626 0
M  V30 9961 H 933.76 4.05419 1.68915 0
M  V30 9962 H 934.366 4.2529 0.0287979 0
M  V30 9963 N 932.681 0.308908 1.54543 0
M  V30 9964 C 934.092 -0.182144 1.85809 0
M  V30 9965 C 934.443 -1.52796 1.23076 0
M  V30 9966 O 933.568 -2.09775 0.531358 0
M  V30 9967 C 934.163 -0.337275 3.37117 0
M  V30 9968 C 932.722 -0.772545 3.68387 0
M  V30 9969 C 931.869 0.114451 2.77064 0
M  V30 9970 H 934.82 0.529671 1.496 0
M  V30 9971 H 934.841 -1.17058 3.62046 0
M  V30 9972 H 934.353 0.642382 3.82747 0
M  V30 9973 H 932.454 -1.76247 3.2828 0
M  V30 9974 H 932.567 -0.586453 4.75497 0
M  V30 9975 H 930.931 -0.407581 2.51418 0
M  V30 9976 H 931.714 1.09061 3.25516 0
M  V30 9977 N 934.159 -1.57557 0.0367827 0
M  V30 9978 C 935.436 -1.83427 -0.679261 0
M  V30 9979 C 935.816 -0.922274 -1.89888 0
M  V30 9980 O 935.164 0.02025 -2.28491 0
M  V30 9981 C 935.374 -3.32823 -1.05022 0
M  V30 9982 C 936.722 -3.99486 -1.43861 0
M  V30 9983 O 937.746 -3.37364 -1.14297 0
M  V30 9984 O 936.605 -5.0899 -1.98977 0
M  V30 9985 H 933.699 -0.756581 -0.333936 0
M  V30 9986 H 936.245 -1.69575 0.0650494 0
M  V30 9987 H 935.017 -3.90874 -0.182509 0
M  V30 9988 H 934.64 -3.5181 -1.85244 0
M  V30 9989 N 935.637 0.236453 -1.55816 0
M  V30 9990 C 936.883 0.960127 -1.79313 0
M  V30 9991 C 937.238 1.8256 -0.607406 0
M  V30 9992 O 936.531 1.87398 0.399046 0
M  V30 9993 C 936.725 1.84549 -3.06066 0
M  V30 9994 C 936.554 1.06721 -4.36853 0
M  V30 9995 C 935.324 0.76811 -4.99428 0
M  V30 9996 C 937.522 0.439715 -5.12417 0
M  V30 9997 N 935.504 -0.0331365 -6.13891 0
M  V30 9998 C 936.875 -0.225616 -6.19589 0
M  V30 9999 C 938.93 0.351237 -4.9666 0
M  V30 10000 C 937.633 -0.970943 -7.12717 0
M  V30 10001 C 939.659 -0.380585 -5.90174 0
M  V30 10002 C 939.021 -1.03451 -6.96762 0
M  V30 10003 H 935.12 0.332095 -0.707981 0
M  V30 10004 H 937.704 0.232311 -1.93309 0
M  V30 10005 H 935.875 2.54525 -2.93379 0
M  V30 10006 H 937.607 2.50552 -3.17814 0
M  V30 10007 H 934.362 1.08248 -4.61063 0
M  V30 10008 H 934.786 -0.422159 -6.75682 0
M  V30 10009 H 939.428 0.842469 -4.14321 0
M  V30 10010 H 937.146 -1.47374 -7.94548 0
M  V30 10011 H 940.732 -0.449851 -5.80058 0
M  V30 10012 H 939.612 -1.59175 -7.67876 0
M  V30 10013 N 937.115 1.49373 0.502552 0
M  V30 10014 C 938.063 1.66411 1.62512 0
M  V30 10015 C 939.057 0.530062 1.60893 0
M  V30 10016 O 940.263 0.709648 1.65421 0
M  V30 10017 H 936.638 0.524707 0.538689 0
M  V30 10018 H 938.609 2.60639 1.45293 0
M  V30 10019 C 937.358 1.74648 3.00655 0
M  V30 10020 H 936.681 2.61285 3.02606 0
M  V30 10021 H 938.121 1.90605 3.78742 0
M  V30 10022 C 936.58 0.490963 3.33303 0
M  V30 10023 O 937.11 -0.384039 3.9986 0
M  V30 10024 N 935.316 0.354375 2.88431 0
M  V30 10025 H 934.863 1.06742 2.34444 0
M  V30 10026 H 934.821 -0.484593 3.10643 0
M  V30 10027 N 938.594 -0.753485 1.38421 0
M  V30 10028 C 939.542 -1.8886 1.35774 0
M  V30 10029 C 940.536 -1.67639 0.243608 0
M  V30 10030 O 941.742 -1.75206 0.412649 0
M  V30 10031 H 938.117 -0.62137 0.42356 0
M  V30 10032 H 940.088 -1.88209 2.3156 0
M  V30 10033 C 938.837 -3.26344 1.19979 0
M  V30 10034 H 938.16 -3.43259 2.04971 0
M  V30 10035 H 939.6 -4.06015 1.22181 0
M  V30 10036 C 938.059 -3.36771 -0.0932867 0
M  V30 10037 O 938.589 -3.8718 -1.07027 0
M  V30 10038 N 936.795 -2.90212 -0.150154 0
M  V30 10039 H 936.342 -2.4938 0.645562 0
M  V30 10040 H 936.3 -2.97569 -1.0149 0
M  V30 10041 N 940.072 -1.23292 -0.981677 0
M  V30 10042 C 941.349 -0.972514 -1.6971 0
M  V30 10043 C 941.729 0.509244 -2.04866 0
M  V30 10044 O 941.077 1.48013 -1.74082 0
M  V30 10045 C 941.287 -1.88144 -2.93943 0
M  V30 10046 C 942.635 -2.14416 -3.66485 0
M  V30 10047 O 943.659 -1.85684 -3.03974 0
M  V30 10048 O 942.518 -2.63139 -4.78978 0
M  V30 10049 H 939.612 -0.366673 -0.741269 0
M  V30 10050 H 942.158 -1.34328 -1.03701 0
M  V30 10051 H 940.93 -2.8832 -2.64551 0
M  V30 10052 H 940.553 -1.51296 -3.67689 0
M  V30 10053 N 941.55 1.18024 -1.04442 0
M  V30 10054 C 942.778 1.92032 -0.770161 0
M  V30 10055 C 943.193 1.76391 0.673181 0
M  V30 10056 O 942.55 1.09604 1.45922 0
M  V30 10057 C 942.601 3.43328 -1.13173 0
M  V30 10058 O 942.322 3.5848 -2.51841 0
M  V30 10059 C 943.823 4.34427 -0.882523 0
M  V30 10060 H 941.043 0.609518 -0.280586 0
M  V30 10061 H 943.587 1.49711 -1.39308 0
M  V30 10062 H 941.742 3.83423 -0.553704 0
M  V30 10063 H 942.156 4.52166 -2.65794 0
M  V30 10064 H 943.63 5.39123 -1.18533 0
M  V30 10065 H 944.107 4.3882 0.18257 0
M  V30 10066 H 944.713 4.00035 -1.44403 0
M  V30 10067 N 943.028 0.824394 1.34319 0
M  V30 10068 C 944.274 0.422964 1.98954 0
M  V30 10069 C 944.629 -1.00323 1.64174 0
M  V30 10070 O 943.922 -1.6894 0.903869 0
M  V30 10071 C 944.116 0.564024 3.52921 0
M  V30 10072 C 943.945 2.00238 4.0266 0
M  V30 10073 C 942.715 2.63457 4.31183 0
M  V30 10074 C 944.913 2.9693 4.19925 0
M  V30 10075 N 942.895 3.98518 4.66966 0
M  V30 10076 C 944.266 4.16901 4.58904 0
M  V30 10077 C 946.321 2.93527 4.02177 0
M  V30 10078 C 945.024 5.33926 4.81991 0
M  V30 10079 C 947.05 4.09769 4.26431 0
M  V30 10080 C 946.412 5.28493 4.65698 0
M  V30 10081 H 942.511 0.202907 0.755217 0
M  V30 10082 H 945.095 1.0694 1.62702 0
M  V30 10083 H 943.266 -0.0525268 3.88364 0
M  V30 10084 H 944.998 0.135451 4.04473 0
M  V30 10085 H 941.753 2.14688 4.22145 0
M  V30 10086 H 942.177 4.68103 4.8909 0
M  V30 10087 H 946.819 2.02878 3.70945 0
M  V30 10088 H 944.537 6.25132 5.12089 0
M  V30 10089 H 948.123 4.08537 4.14233 0
M  V30 10090 H 947.003 6.16945 4.84096 0
M  V30 10091 N 944.506 -1.46559 0.579492 0
M  V30 10092 C 945.438 -2.28383 -0.19337 0
M  V30 10093 C 946.451 -1.38324 -0.858511 0
M  V30 10094 O 947.64 -1.62952 -0.728615 0
M  V30 10095 C 944.74 -3.13262 -1.29306 0
M  V30 10096 C 943.913 -4.31426 -0.720459 0
M  V30 10097 C 942.972 -4.97728 -1.70744 0
M  V30 10098 O 941.998 -5.55423 -1.24476 0
M  V30 10099 N 943.2 -4.94445 -3.04146 0
M  V30 10100 H 945.965 -2.95353 0.508611 0
M  V30 10101 H 943.526 -1.56436 0.417046 0
M  V30 10102 H 945.518 -3.54483 -1.95254 0
M  V30 10103 H 944.088 -2.48388 -1.89795 0
M  V30 10104 H 943.308 -3.94028 0.116398 0
M  V30 10105 H 944.596 -5.07808 -0.31763 0
M  V30 10106 H 943.994 -4.4881 -3.44363 0
M  V30 10107 H 942.551 -5.39616 -3.65592 0
M  V30 10108 N 945.984 -0.3171 -1.54377 0
M  V30 10109 C 946.894 0.560867 -2.27797 0
M  V30 10110 C 947.91 1.13473 -1.31908 0
M  V30 10111 O 949.086 1.15608 -1.64914 0
M  V30 10112 C 946.151 1.70886 -3.0166 0
M  V30 10113 C 945.212 1.16745 -4.13121 0
M  V30 10114 C 944.445 2.26073 -4.83453 0
M  V30 10115 O 944.668 3.46292 -4.53252 0
M  V30 10116 O 943.602 1.91856 -5.70504 0
M  V30 10117 H 947.428 -0.035193 -3.0368 0
M  V30 10118 H 945.013 -0.0830062 -1.49169 0
M  V30 10119 H 946.895 2.37736 -3.47936 0
M  V30 10120 H 945.57 2.29122 -2.28658 0
M  V30 10121 H 944.477 0.464224 -3.71209 0
M  V30 10122 H 945.81 0.630307 -4.88147 0
M  V30 10123 N 947.462 1.57535 -0.0451378 0
M  V30 10124 C 948.708 1.93558 0.62505 0
M  V30 10125 C 949.063 0.923159 1.68806 0
M  V30 10126 O 948.356 -0.0585419 1.91511 0
M  V30 10127 C 948.55 3.34065 1.27024 0
M  V30 10128 C 948.379 4.48881 0.271253 0
M  V30 10129 C 947.149 5.05121 -0.13462 0
M  V30 10130 C 949.347 5.12047 -0.480911 0
M  V30 10131 N 947.329 6.03465 -1.1271 0
M  V30 10132 C 948.7 6.0564 -1.32666 0
M  V30 10133 C 950.755 4.94964 -0.539878 0
M  V30 10134 C 949.458 6.83987 -2.22608 0
M  V30 10135 C 951.484 5.73933 -1.4267 0
M  V30 10136 C 950.846 6.67154 -2.26019 0
M  V30 10137 H 946.945 0.755846 0.20055 0
M  V30 10138 H 949.529 1.94354 -0.116059 0
M  V30 10139 H 947.7 3.34058 1.98141 0
M  V30 10140 H 949.432 3.57393 1.89875 0
M  V30 10141 H 946.187 4.72976 0.243112 0
M  V30 10142 H 946.611 6.5733 -1.62006 0
M  V30 10143 H 951.253 4.22704 0.0902834 0
M  V30 10144 H 948.971 7.55543 -2.86672 0
M  V30 10145 H 952.557 5.62744 -1.47682 0
M  V30 10146 H 951.437 7.27194 -2.93528 0
M  V30 10147 N 948.94 -0.228186 1.55939 0
M  V30 10148 C 949.85 -1.30386 1.9503 0
M  V30 10149 C 950.866 -1.51645 0.853218 0
M  V30 10150 O 952.042 -1.64904 1.15623 0
M  V30 10151 C 949.107 -2.63489 2.25332 0
M  V30 10152 C 948.168 -2.5059 3.48573 0
M  V30 10153 C 947.401 -3.77345 3.7742 0
M  V30 10154 O 947.624 -4.80067 3.08045 0
M  V30 10155 O 946.558 -3.74855 4.70922 0
M  V30 10156 H 950.384 -1.0022 2.86687 0
M  V30 10157 H 947.969 -0.430503 1.43063 0
M  V30 10158 H 949.851 -3.4211 2.46046 0
M  V30 10159 H 948.526 -2.93349 1.3685 0
M  V30 10160 H 947.433 -1.70191 3.33145 0
M  V30 10161 H 948.766 -2.2567 4.37417 0
M  V30 10162 N 950.418 -1.49637 -0.494624 0
M  V30 10163 C 951.834 -1.36541 -0.826361 0
M  V30 10164 C 952.034 -0.403386 -1.97421 0
M  V30 10165 O 951.09 0.162614 -2.51976 0
M  V30 10166 C 952.403 -2.77401 -1.16057 0
M  V30 10167 C 953.951 -2.86148 -1.26841 0
M  V30 10168 C 954.426 -4.27789 -1.63587 0
M  V30 10169 N 955.917 -4.3063 -1.70624 0
M  V30 10170 C 956.652 -5.37198 -2.00514 0
M  V30 10171 N 956.148 -6.54004 -2.28584 0
M  V30 10172 N 957.941 -5.2462 -2.01818 0
M  V30 10173 H 950.092 -2.10776 0.26219 0
M  V30 10174 H 952.355 -0.946419 0.0547235 0
M  V30 10175 H 952.061 -3.49526 -0.390434 0
M  V30 10176 H 951.935 -3.1317 -2.10249 0
M  V30 10177 H 954.322 -2.14256 -2.02925 0
M  V30 10178 H 954.403 -2.53953 -0.30684 0
M  V30 10179 H 954.047 -5.00209 -0.880507 0
M  V30 10180 H 953.977 -4.57453 -2.60854 0
M  V30 10181 H 956.468 -3.46393 -1.51065 0
M  V30 10182 H 956.781 -7.31041 -2.50598 0
M  V30 10183 H 955.126 -6.57219 -2.26027 0
M  V30 10184 H 958.317 -4.32371 -1.79369 0
M  V30 10185 H 958.49 -6.07765 -2.24778 0
M  V30 10186 N 951.896 0.746133 -1.38819 0
M  V30 10187 C 952.843 1.86001 -1.36647 0
M  V30 10188 C 953.813 1.6453 -0.227849 0
M  V30 10189 O 954.998 1.86092 -0.421241 0
M  V30 10190 C 952.138 3.23388 -1.20474 0
M  V30 10191 C 951.251 3.5664 -2.43786 0
M  V30 10192 C 950.386 4.8337 -2.20287 0
M  V30 10193 C 949.425 5.09431 -3.39332 0
M  V30 10194 N 948.562 6.2736 -3.1522 0
M  V30 10195 H 953.402 1.87192 -2.31869 0
M  V30 10196 H 950.939 0.914838 -1.15192 0
M  V30 10197 H 952.897 4.02679 -1.09112 0
M  V30 10198 H 951.527 3.21505 -0.288874 0
M  V30 10199 H 950.579 2.72135 -2.65794 0
M  V30 10200 H 951.891 3.71823 -3.3249 0
M  V30 10201 H 951.045 5.70619 -2.06103 0
M  V30 10202 H 949.784 4.70341 -1.28961 0
M  V30 10203 H 948.789 4.20648 -3.54027 0
M  V30 10204 H 950.014 5.24354 -4.31544 0
M  V30 10205 H 947.96 6.15639 -2.26549 0
M  V30 10206 H 947.877 6.43078 -3.97476 0
M  V30 10207 H 949.145 7.17477 -3.04707 0
M  V30 10208 N 953.375 1.23811 0.975125 0
M  V30 10209 C 954.621 1.07495 1.71967 0
M  V30 10210 C 954.954 -0.386451 1.90316 0
M  V30 10211 O 954.229 -1.28591 1.45927 0
M  V30 10212 C 954.512 1.80694 3.11483 0
M  V30 10213 C 954.365 3.3454 3.00671 0
M  V30 10214 C 955.684 1.57367 4.11003 0
M  V30 10215 H 952.803 0.3919 0.624166 0
M  V30 10216 H 955.445 1.52383 1.13487 0
M  V30 10217 H 953.595 1.42538 3.61407 0
M  V30 10218 H 955.267 3.8225 2.5823 0
M  V30 10219 H 953.51 3.63301 2.37054 0
M  V30 10220 H 954.181 3.80951 3.99475 0
M  V30 10221 H 956.657 1.90545 3.69908 0
M  V30 10222 H 955.533 2.11052 5.06703 0
M  V30 10223 H 955.794 0.510221 4.39146 0
M  V30 10224 N 954.853 -1.17469 1.05066 0
M  V30 10225 C 956.13 -1.83625 0.673872 0
M  V30 10226 C 956.51 -1.93412 -0.845871 0
M  V30 10227 O 955.858 -1.4677 -1.75131 0
M  V30 10228 C 956.068 -3.21352 1.36139 0
M  V30 10229 C 957.416 -3.97274 1.49863 0
M  V30 10230 O 958.44 -3.30827 1.3203 0
M  V30 10231 O 957.299 -5.16349 1.79013 0
M  V30 10232 H 954.393 -0.792297 0.237055 0
M  V30 10233 H 956.939 -1.24776 1.15017 0
M  V30 10234 H 955.711 -3.0919 2.39827 0
M  V30 10235 H 955.334 -3.87867 0.874364 0
M  V30 10236 N 956.331 -0.831506 -1.3388 0
M  V30 10237 C 957.578 -0.423674 -1.98018 0
M  V30 10238 C 957.906 1.01533 -1.65895 0
M  V30 10239 O 957.161 1.72342 -0.927183 0
M  V30 10240 C 957.46 -0.582733 -3.52617 0
M  V30 10241 C 957.126 -1.98874 -4.04673 0
M  V30 10242 C 955.788 -2.37334 -4.186 0
M  V30 10243 C 958.14 -2.90745 -4.3257 0
M  V30 10244 C 955.468 -3.66984 -4.57755 0
M  V30 10245 C 957.82 -4.19868 -4.73174 0
M  V30 10246 C 956.484 -4.58294 -4.85307 0
M  V30 10247 H 955.754 -0.155033 -0.7246 0
M  V30 10248 H 958.401 -1.05711 -1.59679 0
M  V30 10249 H 956.706 0.134052 -3.91571 0
M  V30 10250 H 958.403 -0.247576 -4.00235 0
M  V30 10251 H 954.993 -1.68001 -3.94301 0
M  V30 10252 H 959.177 -2.62272 -4.2134 0
M  V30 10253 H 954.433 -3.9657 -4.65341 0
M  V30 10254 H 958.607 -4.91138 -4.93717 0
M  V30 10255 H 956.234 -5.58805 -5.15404 0
M  V30 10256 N 957.809 1.4625 -0.587256 0
M  V30 10257 C 958.739 2.33132 0.131076 0
M  V30 10258 C 959.72 1.45619 0.879158 0
M  V30 10259 O 960.905 1.74428 0.853723 0
M  V30 10260 C 958.035 3.27975 1.14236 0
M  V30 10261 C 956.989 4.24965 0.508819 0
M  V30 10262 C 956.315 5.09349 1.62689 0
M  V30 10263 C 957.615 5.19322 -0.55694 0
M  V30 10264 H 959.309 2.93442 -0.594333 0
M  V30 10265 H 956.855 1.41106 -0.287263 0
M  V30 10266 H 958.808 3.87614 1.65328 0
M  V30 10267 H 957.532 2.65781 1.8981 0
M  V30 10268 H 956.191 3.66595 0.0189337 0
M  V30 10269 H 955.839 4.43537 2.37242 0
M  V30 10270 H 955.539 5.75036 1.20861 0
M  V30 10271 H 957.063 5.71852 2.14049 0
M  V30 10272 H 958.477 5.73151 -0.130903 0
M  V30 10273 H 956.874 5.93376 -0.895801 0
M  V30 10274 H 957.944 4.62979 -1.44148 0
M  V30 10275 N 959.287 0.325282 1.54207 0
M  V30 10276 C 960.197 -0.548778 2.28091 0
M  V30 10277 C 961.213 -1.12772 1.32508 0
M  V30 10278 O 962.389 -1.14732 1.65525 0
M  V30 10279 C 959.454 -1.69284 3.02562 0
M  V30 10280 C 958.515 -1.14553 4.13734 0
M  V30 10281 C 957.748 -2.23506 4.84645 0
M  V30 10282 O 957.971 -3.43884 4.55082 0
M  V30 10283 O 956.905 -1.88828 5.71513 0
M  V30 10284 H 960.731 0.0512974 3.03657 0
M  V30 10285 H 958.316 0.0909159 1.49123 0
M  V30 10286 H 960.198 -2.35887 3.49192 0
M  V30 10287 H 958.873 -2.27906 2.2987 0
M  V30 10288 H 957.78 -0.444532 3.71449 0
M  V30 10289 H 959.113 -0.60441 4.88475 0
M  V30 10290 N 960.765 -1.57509 0.0534917 0
M  V30 10291 C 961.675 -2.15152 -0.935249 0
M  V30 10292 C 962.691 -1.10991 -1.34003 0
M  V30 10293 O 963.867 -1.43171 -1.41648 0
M  V30 10294 C 960.932 -2.68699 -2.19093 0
M  V30 10295 C 959.993 -3.87666 -1.84428 0
M  V30 10296 C 959.226 -4.3865 -3.0401 0
M  V30 10297 O 959.449 -3.887 -4.17455 0
M  V30 10298 O 958.383 -5.30209 -2.84889 0
M  V30 10299 H 962.209 -2.99962 -0.475009 0
M  V30 10300 H 959.794 -1.48446 -0.16854 0
M  V30 10301 H 961.676 -3.03098 -2.92762 0
M  V30 10302 H 960.351 -1.86958 -2.6425 0
M  V30 10303 H 959.258 -3.58151 -1.08068 0
M  V30 10304 H 960.591 -4.70643 -1.44068 0
M  V30 10305 N 962.243 0.219913 -1.56058 0
M  V30 10306 C 963.191 1.29215 -1.93407 0
M  V30 10307 C 964.185 1.48434 -0.816307 0
M  V30 10308 O 965.391 1.49589 -1.00115 0
M  V30 10309 H 961.766 0.433256 -0.614649 0
M  V30 10310 H 963.737 0.949977 -2.82875 0
M  V30 10311 C 962.486 2.63501 -2.26854 0
M  V30 10312 H 961.809 2.4952 -3.12377 0
M  V30 10313 H 963.249 3.37334 -2.56869 0
M  V30 10314 C 961.708 3.18634 -1.09425 0
M  V30 10315 O 962.238 4.00117 -0.356243 0
M  V30 10316 N 960.444 2.7703 -0.877642 0
M  V30 10317 H 959.991 2.10875 -1.47951 0
M  V30 10318 H 959.949 3.1426 -0.0936792 0
M  V30 10319 N 963.721 1.49897 0.486681 0
M  V30 10320 C 964.97 1.59349 1.23656 0
M  V30 10321 C 965.283 0.292024 1.93408 0
M  V30 10322 O 966.489 0.265258 2.70201 0
M  V30 10323 C 964.945 2.81215 2.24602 0
M  V30 10324 C 964.553 4.18177 1.60725 0
M  V30 10325 C 966.297 3.00004 3.00329 0
M  V30 10326 C 964.204 5.31247 2.59866 0
M  V30 10327 H 963.134 0.593363 0.465227 0
M  V30 10328 H 965.785 1.76306 0.508769 0
M  V30 10329 H 964.167 2.57783 3.00606 0
M  V30 10330 H 965.341 4.51802 0.90616 0
M  V30 10331 H 963.656 4.04864 0.973362 0
M  V30 10332 H 966.253 3.81649 3.74497 0
M  V30 10333 H 966.596 2.1112 3.58795 0
M  V30 10334 H 967.129 3.23544 2.3144 0
M  V30 10335 H 963.868 6.22236 2.06161 0
M  V30 10336 H 963.388 5.02059 3.28172 0
M  V30 10337 H 965.067 5.61177 3.22009 0
M  V30 10338 N 965.199 -0.738761 1.39212 0
M  V30 10339 C 966.427 -1.52801 1.39497 0
M  V30 10340 C 966.842 -1.88797 -0.0114917 0
M  V30 10341 O 966.199 -1.53835 -0.981887 0
M  V30 10342 C 966.25 -2.81793 2.2644 0
M  V30 10343 O 965.971 -2.47328 3.61608 0
M  V30 10344 C 967.472 -3.75844 2.35067 0
M  V30 10345 H 964.692 -0.472322 0.476606 0
M  V30 10346 H 967.236 -0.913153 1.8298 0
M  V30 10347 H 965.391 -3.3962 1.8638 0
M  V30 10348 H 965.805 -3.30162 4.07545 0
M  V30 10349 H 967.279 -4.6326 3.00157 0
M  V30 10350 H 967.756 -4.17329 1.3687 0
M  V30 10351 H 968.362 -3.23937 2.75581 0
M  V30 10352 N 966.677 -1.24326 -0.968545 0
M  V30 10353 C 967.64 -1.03591 -2.04454 0
M  V30 10354 C 968.64 0.0064809 -1.60799 0
M  V30 10355 O 969.83 -0.234404 -1.72616 0
M  V30 10356 C 966.962 -0.56992 -3.36102 0
M  V30 10357 H 968.155 -1.99092 -2.24282 0
M  V30 10358 H 965.708 -1.06537 -1.14366 0
M  V30 10359 H 966.443 0.388325 -3.21967 0
M  V30 10360 H 966.228 -1.32227 -3.69132 0
M  V30 10361 H 967.718 -0.445854 -4.15213 0
M  V30 10362 N 968.156 1.1691 -1.05688 0
M  V30 10363 C 969.086 2.23275 -0.683402 0
M  V30 10364 C 970.067 1.6704 0.321206 0
M  V30 10365 O 971.252 1.93191 0.197691 0
M  V30 10366 C 968.382 3.47244 -0.0626006 0
M  V30 10367 C 967.336 4.16333 -0.992513 0
M  V30 10368 C 966.662 5.34182 -0.23533 0
M  V30 10369 C 967.962 4.68002 -2.31886 0
M  V30 10370 H 969.656 2.54771 -1.57264 0
M  V30 10371 H 967.202 1.2246 -0.757606 0
M  V30 10372 H 969.155 4.20874 0.210503 0
M  V30 10373 H 967.879 3.1503 0.861616 0
M  V30 10374 H 966.538 3.44622 -1.25026 0
M  V30 10375 H 966.186 4.9822 0.69181 0
M  V30 10376 H 965.886 5.81346 -0.855002 0
M  V30 10377 H 967.41 6.10592 0.0303717 0
M  V30 10378 H 968.824 5.33244 -2.10531 0
M  V30 10379 H 967.221 5.25764 -2.89296 0
M  V30 10380 H 968.291 3.84541 -2.95391 0
M  V30 10381 N 969.634 0.838594 1.33437 0
M  V30 10382 C 970.564 0.286672 2.31734 0
M  V30 10383 C 971.545 -0.605451 1.5896 0
M  V30 10384 O 972.73 -0.529059 1.86854 0
M  V30 10385 C 969.86 -0.539311 3.43087 0
M  V30 10386 C 968.814 0.256997 4.27228 0
M  V30 10387 C 968.14 -0.692718 5.30194 0
M  V30 10388 C 969.44 1.47391 5.01072 0
M  V30 10389 H 971.134 1.10798 2.78144 0
M  V30 10390 H 968.68 0.534235 1.33723 0
M  V30 10391 H 970.633 -0.935724 4.1088 0
M  V30 10392 H 969.357 -1.39383 2.95364 0
M  V30 10393 H 968.016 0.634967 3.61059 0
M  V30 10394 H 967.664 -1.54363 4.78729 0
M  V30 10395 H 967.364 -0.164023 5.87371 0
M  V30 10396 H 968.888 -1.08665 6.00853 0
M  V30 10397 H 970.302 1.15067 5.61634 0
M  V30 10398 H 968.699 1.93937 5.67898 0
M  V30 10399 H 969.769 2.24382 4.29861 0
M  V30 10400 N 971.112 -1.45937 0.595003 0
M  V30 10401 C 972.022 -2.34221 -0.133325 0
M  V30 10402 C 973.038 -1.50491 -0.873407 0
M  V30 10403 O 974.214 -1.83328 -0.833828 0
M  V30 10404 C 971.279 -3.27896 -1.12628 0
M  V30 10405 C 970.34 -4.27529 -0.389532 0
M  V30 10406 C 969.573 -5.16729 -1.33519 0
M  V30 10407 O 969.796 -5.09102 -2.57238 0
M  V30 10408 O 968.73 -5.96023 -0.839084 0
M  V30 10409 H 972.556 -2.97877 0.591861 0
M  V30 10410 H 970.141 -1.45113 0.355329 0
M  V30 10411 H 972.023 -3.85654 -1.69851 0
M  V30 10412 H 970.698 -2.6682 -1.83272 0
M  V30 10413 H 969.605 -3.73424 0.224843 0
M  V30 10414 H 970.938 -4.91425 0.276169 0
M  V30 10415 N 972.59 -0.333456 -1.54032 0
M  V30 10416 C 973.5 0.536674 -2.28379 0
M  V30 10417 C 974.516 1.12068 -1.33104 0
M  V30 10418 O 975.692 1.13853 -1.66131 0
M  V30 10419 C 972.757 1.67677 -3.03456 0
M  V30 10420 C 971.818 1.12357 -4.14336 0
M  V30 10421 C 971.051 2.20933 -4.85823 0
M  V30 10422 O 971.274 3.41466 -4.569 0
M  V30 10423 O 970.208 1.85795 -5.72507 0
M  V30 10424 H 974.034 -0.0674003 -3.03625 0
M  V30 10425 H 971.619 -0.098823 -1.49073 0
M  V30 10426 H 973.501 2.34032 -3.50438 0
M  V30 10427 H 972.176 2.26684 -2.31076 0
M  V30 10428 H 971.083 0.424827 -3.7168 0
M  V30 10429 H 972.416 0.578497 -4.88789 0
M  V30 10430 N 974.068 1.57479 -0.061844 0
M  V30 10431 C 975.031 2.1104 0.894127 0
M  V30 10432 C 976.031 1.03227 1.23292 0
M  V30 10433 O 977.221 1.29256 1.16784 0
M  V30 10434 C 974.353 2.6035 2.20069 0
M  V30 10435 H 975.546 2.96807 0.429619 0
M  V30 10436 H 973.099 1.55181 0.18672 0
M  V30 10437 H 973.834 1.78008 2.71079 0
M  V30 10438 H 973.619 3.39146 1.9678 0
M  V30 10439 H 975.109 3.019 2.88525 0
M  V30 10440 N 975.546 -0.211634 1.56173 0
M  V30 10441 C 976.478 -1.286 1.89723 0
M  V30 10442 C 977.491 -1.42549 0.786361 0
M  V30 10443 O 978.68 -1.4327 1.06471 0
M  V30 10444 C 975.78 -2.66036 2.09948 0
M  V30 10445 C 974.953 -2.73908 3.41018 0
M  V30 10446 C 974.012 -3.92425 3.50555 0
M  V30 10447 O 973.038 -3.803 4.2351 0
M  V30 10448 N 974.24 -5.07165 2.82426 0
M  V30 10449 H 977.005 -1.00142 2.82474 0
M  V30 10450 H 974.566 -0.401633 1.56839 0
M  V30 10451 H 976.558 -3.43719 2.13634 0
M  V30 10452 H 975.128 -2.87052 1.23774 0
M  V30 10453 H 974.348 -1.82625 3.49345 0
M  V30 10454 H 975.636 -2.76145 4.27342 0
M  V30 10455 H 975.034 -5.19913 2.2295 0
M  V30 10456 H 973.591 -5.82855 2.9176 0
M  V30 10457 N 977.024 -1.50153 -0.478725 0
M  V30 10458 C 978.273 -1.60002 -1.22809 0
M  V30 10459 C 978.586 -0.302277 -1.9325 0
M  V30 10460 O 979.792 -0.279583 -2.70057 0
M  V30 10461 C 978.248 -2.82402 -2.23108 0
M  V30 10462 C 977.856 -4.19023 -1.58505 0
M  V30 10463 C 979.6 -3.01593 -2.98734 0
M  V30 10464 C 977.507 -5.32618 -2.57045 0
M  V30 10465 H 976.437 -0.595822 -0.462073 0
M  V30 10466 H 979.088 -1.76573 -0.499412 0
M  V30 10467 H 977.47 -2.59373 -2.99235 0
M  V30 10468 H 978.644 -4.52277 -0.882187 0
M  V30 10469 H 976.959 -4.05374 -0.951877 0
M  V30 10470 H 979.556 -3.8363 -3.72468 0
M  V30 10471 H 979.899 -2.1302 -3.57671 0
M  V30 10472 H 980.432 -3.24766 -2.29721 0
M  V30 10473 H 977.171 -6.23321 -2.02858 0
M  V30 10474 H 976.691 -5.03792 -3.25505 0
M  V30 10475 H 978.37 -5.62877 -3.19028 0
M  V30 10476 N 978.502 0.731368 -1.39602 0
M  V30 10477 C 979.434 1.85575 -1.34516 0
M  V30 10478 C 980.447 1.60818 -0.253287 0
M  V30 10479 O 981.636 1.70984 -0.512505 0
M  V30 10480 C 978.736 3.21673 -1.06676 0
M  V30 10481 C 977.909 3.73757 -2.27211 0
M  V30 10482 C 976.968 4.88426 -1.95773 0
M  V30 10483 O 975.994 5.01898 -2.68491 0
M  V30 10484 N 977.196 5.73065 -0.926083 0
M  V30 10485 H 979.961 1.90442 -2.31413 0
M  V30 10486 H 977.522 0.912258 -1.33752 0
M  V30 10487 H 979.514 3.95959 -0.836577 0
M  V30 10488 H 978.084 3.12052 -0.185003 0
M  V30 10489 H 977.304 2.90781 -2.66158 0
M  V30 10490 H 978.592 4.05289 -3.07601 0
M  V30 10491 H 977.99 5.64774 -0.323497 0
M  V30 10492 H 976.547 6.47403 -0.755795 0
M  V30 10493 N 979.98 1.24838 0.961938 0
M  V30 10494 C 980.912 1.00369 2.06055 0
M  V30 10495 C 981.925 -0.0288583 1.62774 0
M  V30 10496 O 983.114 0.208853 1.77274 0
M  V30 10497 C 980.214 0.493953 3.35281 0
M  V30 10498 C 979.387 1.59097 4.07439 0
M  V30 10499 C 978.446 1.08288 5.14937 0
M  V30 10500 O 977.472 1.77577 5.40791 0
M  V30 10501 N 978.674 -0.0796836 5.80445 0
M  V30 10502 H 981.439 1.94962 2.27618 0
M  V30 10503 H 979 1.15945 1.12997 0
M  V30 10504 H 980.992 0.138675 4.04462 0
M  V30 10505 H 979.562 -0.357851 3.10545 0
M  V30 10506 H 978.782 2.11817 3.32456 0
M  V30 10507 H 980.07 2.32817 4.52409 0
M  V30 10508 H 979.468 -0.658827 5.6185 0
M  V30 10509 H 978.025 -0.376057 6.50714 0
M  V30 10510 N 981.458 -1.16348 1.06306 0
M  V30 10511 C 982.368 -2.24375 0.685059 0
M  V30 10512 C 983.384 -1.71413 -0.298956 0
M  V30 10513 O 984.56 -2.00854 -0.148239 0
M  V30 10514 C 981.625 -3.46614 0.0774088 0
M  V30 10515 C 980.686 -4.14613 1.11331 0
M  V30 10516 C 979.919 -5.31016 0.534559 0
M  V30 10517 O 980.142 -5.66654 -0.65265 0
M  V30 10518 O 979.076 -5.88256 1.27431 0
M  V30 10519 H 982.902 -2.59018 1.58566 0
M  V30 10520 H 980.487 -1.23865 0.835332 0
M  V30 10521 H 982.369 -4.20599 -0.259716 0
M  V30 10522 H 981.044 -3.13743 -0.796677 0
M  V30 10523 H 979.951 -3.42597 1.50261 0
M  V30 10524 H 981.284 -4.51538 1.95893 0
M  V30 10525 N 982.937 -0.845659 -1.3299 0
M  V30 10526 C 983.884 -0.281761 -2.29074 0
M  V30 10527 C 984.854 0.606237 -1.54641 0
M  V30 10528 O 986.039 0.543063 -1.82908 0
M  V30 10529 C 983.179 0.531451 -3.40983 0
M  V30 10530 C 982.292 -0.381328 -4.30314 0
M  V30 10531 C 981.427 0.443643 -5.29344 0
M  V30 10532 C 980.466 -0.467101 -6.10315 0
M  V30 10533 N 979.603 0.320148 -7.0137 0
M  V30 10534 H 984.443 -1.10641 -2.76699 0
M  V30 10535 H 981.98 -0.55706 -1.36144 0
M  V30 10536 H 983.938 1.01848 -4.04577 0
M  V30 10537 H 982.568 1.32101 -2.94532 0
M  V30 10538 H 981.62 -0.986701 -3.6738 0
M  V30 10539 H 982.932 -1.08067 -4.86953 0
M  V30 10540 H 982.086 0.994212 -5.98498 0
M  V30 10541 H 980.825 1.17639 -4.73299 0
M  V30 10542 H 979.83 -1.02963 -5.40073 0
M  V30 10543 H 981.055 -1.19832 -6.68444 0
M  V30 10544 H 979.001 1.03615 -6.47765 0
M  V30 10545 H 978.918 -0.320338 -7.55321 0
M  V30 10546 H 980.186 0.852735 -7.74822 0
M  V30 10547 N 984.415 1.45619 -0.602734 0
M  V30 10548 C 985.363 2.32228 0.131484 0
M  V30 10549 C 986.357 1.45681 0.864484 0
M  V30 10550 O 987.563 1.62193 0.7806 0
M  V30 10551 H 983.938 0.7495 0.0612638 0
M  V30 10552 H 985.909 2.91941 -0.617496 0
M  V30 10553 C 984.658 3.29213 1.11866 0
M  V30 10554 H 983.981 3.95801 0.564061 0
M  V30 10555 H 985.421 3.92554 1.60242 0
M  V30 10556 C 983.88 2.56028 2.18978 0
M  V30 10557 O 984.41 2.33806 3.26646 0
M  V30 10558 N 982.616 2.16245 1.94129 0
M  V30 10559 H 982.163 2.34518 1.06579 0
M  V30 10560 H 982.121 1.67601 2.66003 0
M  V30 10561 N 985.893 0.34162 1.53853 0
M  V30 10562 C 986.826 -0.559051 2.21246 0
M  V30 10563 C 987.804 -1.10179 1.1958 0
M  V30 10564 O 988.988 -1.16242 1.48392 0
M  V30 10565 C 986.115 -1.7689 2.88838 0
M  V30 10566 C 985.161 -1.3558 4.04377 0
M  V30 10567 S 985.994 -0.377225 5.3417 0
M  V30 10568 C 987.15 -1.59395 6.05264 0
M  V30 10569 H 987.383 0.013373 2.97297 0
M  V30 10570 H 984.916 0.125694 1.53888 0
M  V30 10571 H 986.874 -2.463 3.284 0
M  V30 10572 H 985.535 -2.31254 2.12557 0
M  V30 10573 H 984.728 -2.25781 4.50599 0
M  V30 10574 H 984.33 -0.741197 3.66582 0
M  V30 10575 H 986.622 -2.52872 6.2854 0
M  V30 10576 H 987.565 -1.17356 6.98307 0
M  V30 10577 H 987.973 -1.78913 5.35397 0
M  V30 10578 N 987.371 -1.57444 0.0701946 0
M  V30 10579 C 988.601 -1.97467 -0.607476 0
M  V30 10580 C 989.009 -0.947232 -1.63781 0
M  V30 10581 O 988.352 0.074652 -1.83548 0
M  V30 10582 C 988.414 -3.33795 -1.33495 0
M  V30 10583 C 988.078 -4.54697 -0.458265 0
M  V30 10584 C 989.075 -5.19127 0.283488 0
M  V30 10585 C 986.76 -5.00833 -0.383612 0
M  V30 10586 C 988.754 -6.28043 1.08813 0
M  V30 10587 C 986.441 -6.09622 0.424705 0
M  V30 10588 C 987.439 -6.7309 1.15925 0
M  V30 10589 O 987.127 -7.79785 1.95423 0
M  V30 10590 H 986.859 -0.654405 -0.169501 0
M  V30 10591 H 989.413 -2.04931 0.138651 0
M  V30 10592 H 987.643 -3.22941 -2.12711 0
M  V30 10593 H 989.332 -3.58435 -1.9047 0
M  V30 10594 H 990.098 -4.84428 0.235397 0
M  V30 10595 H 985.977 -4.51211 -0.944968 0
M  V30 10596 H 989.521 -6.77513 1.66197 0
M  V30 10597 H 985.418 -6.43755 0.474366 0
M  V30 10598 H 986.186 -7.96655 1.87838 0
M  V30 10599 N 988.849 0.203349 -1.56283 0
M  V30 10600 C 989.759 1.27266 -1.9708 0
M  V30 10601 C 990.775 1.50268 -0.877236 0
M  V30 10602 O 991.951 1.63044 -1.18231 0
M  V30 10603 C 989.016 2.59871 -2.29495 0
M  V30 10604 C 988.077 2.45012 -3.52516 0
M  V30 10605 C 987.31 3.71293 -3.83376 0
M  V30 10606 O 987.533 4.75106 -3.15643 0
M  V30 10607 O 986.467 3.67316 -4.76826 0
M  V30 10608 H 990.293 0.956461 -2.88246 0
M  V30 10609 H 987.878 0.407688 -1.4373 0
M  V30 10610 H 989.76 3.38152 -2.51458 0
M  V30 10611 H 988.435 2.91135 -1.415 0
M  V30 10612 H 987.342 1.6487 -3.35811 0
M  V30 10613 H 988.675 2.18683 -4.40952 0
M  V30 10614 N 990.327 1.50405 0.470755 0
M  V30 10615 C 991.257 1.72222 1.57676 0
M  V30 10616 C 992.238 0.57121 1.60222 0
M  V30 10617 O 993.423 0.810381 1.76484 0
M  V30 10618 C 990.553 1.81666 2.95998 0
M  V30 10619 C 989.507 2.96857 3.08318 0
M  V30 10620 C 988.833 2.91445 4.4829 0
M  V30 10621 C 990.133 4.37361 2.85504 0
M  V30 10622 H 991.827 2.64825 1.39671 0
M  V30 10623 H 989.373 1.27438 0.67049 0
M  V30 10624 H 991.326 1.95514 3.73299 0
M  V30 10625 H 990.05 0.856856 3.1516 0
M  V30 10626 H 988.709 2.82661 2.33449 0
M  V30 10627 H 988.357 1.93309 4.64371 0
M  V30 10628 H 988.057 3.68776 4.57469 0
M  V30 10629 H 989.581 3.07341 5.27611 0
M  V30 10630 H 990.995 4.52081 3.52555 0
M  V30 10631 H 989.392 5.16145 3.06127 0
M  V30 10632 H 990.462 4.49708 1.81359 0
M  V30 10633 N 991.805 -0.723954 1.39988 0
M  V30 10634 C 992.737 -1.84859 1.35498 0
M  V30 10635 C 993.75 -1.60681 0.261812 0
M  V30 10636 O 994.939 -1.7071 0.521566 0
M  V30 10637 C 992.039 -3.21103 1.08381 0
M  V30 10638 C 991.212 -3.72546 2.2919 0
M  V30 10639 C 990.271 -4.8738 1.9836 0
M  V30 10640 O 989.297 -5.00467 2.71149 0
M  V30 10641 N 990.499 -5.72566 0.956461 0
M  V30 10642 H 993.264 -1.89212 2.3242 0
M  V30 10643 H 990.825 -0.905152 1.34233 0
M  V30 10644 H 992.817 -3.9551 0.857564 0
M  V30 10645 H 991.387 -3.1195 0.201549 0
M  V30 10646 H 990.607 -2.89365 2.67697 0
M  V30 10647 H 991.895 -4.03652 3.09746 0
M  V30 10648 H 991.293 -5.64595 0.353444 0
M  V30 10649 H 989.85 -6.46993 0.790118 0
M  V30 10650 N 993.283 -1.25346 -0.955304 0
M  V30 10651 C 994.23 -1.05672 -2.05188 0
M  V30 10652 C 995.2 0.0339217 -1.66065 0
M  V30 10653 O 996.385 -0.123126 -1.90402 0
M  V30 10654 C 993.525 -0.680791 -3.38318 0
M  V30 10655 C 992.638 -1.84622 -3.90562 0
M  V30 10656 C 991.773 -1.41471 -5.12015 0
M  V30 10657 C 990.812 -2.54931 -5.56486 0
M  V30 10658 N 989.949 -2.1256 -6.69151 0
M  V30 10659 H 994.789 -1.9952 -2.2135 0
M  V30 10660 H 992.326 -0.993588 -1.08472 0
M  V30 10661 H 994.284 -0.443794 -4.14833 0
M  V30 10662 H 992.914 0.2207 -3.22045 0
M  V30 10663 H 991.966 -2.19654 -3.10574 0
M  V30 10664 H 993.278 -2.6983 -4.19515 0
M  V30 10665 H 992.432 -1.13732 -5.95945 0
M  V30 10666 H 991.171 -0.533334 -4.84775 0
M  V30 10667 H 990.176 -2.83415 -4.71122 0
M  V30 10668 H 991.401 -3.43645 -5.85734 0
M  V30 10669 H 989.347 -1.26838 -6.43621 0
M  V30 10670 H 989.264 -2.91317 -6.97618 0
M  V30 10671 H 990.532 -1.87996 -7.5649 0
M  V30 10672 N 994.761 1.15782 -1.06922 0
M  V30 10673 C 995.691 2.22538 -0.707045 0
M  V30 10674 C 996.672 1.67371 0.303471 0
M  V30 10675 O 997.857 1.9339 0.177189 0
M  V30 10676 C 994.987 3.47158 -0.0994269 0
M  V30 10677 C 993.941 4.15257 -1.03661 0
M  V30 10678 C 993.267 5.33902 -0.291974 0
M  V30 10679 C 994.567 4.65516 -2.36837 0
M  V30 10680 H 996.261 2.53089 -1.59958 0
M  V30 10681 H 993.807 1.21649 -0.770552 0
M  V30 10682 H 995.76 4.21073 0.165852 0
M  V30 10683 H 994.484 3.15926 0.828155 0
M  V30 10684 H 993.143 3.43276 -1.28674 0
M  V30 10685 H 992.791 4.98926 0.638928 0
M  V30 10686 H 992.491 5.80407 -0.916613 0
M  V30 10687 H 994.015 6.1059 -0.0343915 0
M  V30 10688 H 995.429 5.30981 -2.16175 0
M  V30 10689 H 993.826 5.22666 -2.94856 0
M  V30 10690 H 994.896 3.81387 -2.99453 0
M  V30 10691 N 996.239 0.8527 1.3254 0
M  V30 10692 C 997.187 0.284659 2.30852 0
M  V30 10693 C 998.181 -0.5909 1.5876 0
M  V30 10694 O 999.387 -0.478922 1.73512 0
M  V30 10695 H 995.762 0.0733452 0.748415 0
M  V30 10696 H 997.733 1.1281 2.76254 0
M  V30 10697 C 996.482 -0.51379 3.43883 0
M  V30 10698 H 995.805 0.150644 3.99516 0
M  V30 10699 H 997.245 -0.876866 4.14834 0
M  V30 10700 C 995.704 -1.69823 2.90967 0
M  V30 10701 O 996.234 -2.79727 2.88298 0
M  V30 10702 N 994.44 -1.52465 2.47392 0
M  V30 10703 H 993.987 -0.630599 2.49762 0
M  V30 10704 H 993.945 -2.31859 2.12341 0
M  V30 10705 N 997.718 -1.45297 0.610449 0
M  V30 10706 C 998.943 -2.07101 0.111414 0
M  V30 10707 C 999.368 -1.45161 -1.19625 0
M  V30 10708 O 998.726 -0.545368 -1.72903 0
M  V30 10709 C 998.774 -3.60598 -0.0117372 0
M  V30 10710 O 997.878 -3.98512 -1.06122 0
M  V30 10711 H 997.219 -0.659709 0.075364 0
M  V30 10712 H 999.749 -1.86504 0.841269 0
M  V30 10713 H 999.759 -4.07464 -0.209028 0
M  V30 10714 H 998.434 -4.05067 0.943076 0
M  V30 10715 H 997.011 -3.63312 -0.840158 0
M  V30 10716 N 999.196 -0.349774 -1.5367 0
M  V30 10717 C 1000.44 0.237837 -2.02005 0
M  V30 10718 C 1000.8 1.477 -1.23298 0
M  V30 10719 O 1000.09 1.8901 -0.313947 0
M  V30 10720 C 1000.28 0.598311 -3.52356 0
M  V30 10721 C 1000.11 -0.604368 -4.4562 0
M  V30 10722 C 998.883 -1.1116 -4.92922 0
M  V30 10723 C 1001.08 -1.46474 -4.93001 0
M  V30 10724 N 999.063 -2.27595 -5.70152 0
M  V30 10725 C 1000.43 -2.47593 -5.68417 0
M  V30 10726 C 1002.49 -1.48947 -4.75099 0
M  V30 10727 C 1001.19 -3.51021 -6.27835 0
M  V30 10728 C 1003.22 -2.51259 -5.35372 0
M  V30 10729 C 1002.58 -3.51103 -6.1066 0
M  V30 10730 H 998.679 0.0501688 -0.780389 0
M  V30 10731 H 1001.26 -0.490748 -1.88414 0
M  V30 10732 H 999.434 1.29599 -3.6614 0
M  V30 10733 H 1001.17 1.16965 -3.87429 0
M  V30 10734 H 997.921 -0.678699 -4.68712 0
M  V30 10735 H 998.345 -2.864 -6.13436 0
M  V30 10736 H 1002.99 -0.731138 -4.1643 0
M  V30 10737 H 1000.7 -4.27745 -6.85609 0
M  V30 10738 H 1004.29 -2.54006 -5.23423 0
M  V30 10739 H 1003.17 -4.28974 -6.56469 0
M  V30 10740 N 1000.67 1.57404 -0.0785433 0
M  V30 10741 C 1001.95 1.85163 0.630389 0
M  V30 10742 C 1002.33 0.972295 1.87376 0
M  V30 10743 O 1001.68 0.0403375 2.28464 0
M  V30 10744 C 1001.89 3.35491 0.961604 0
M  V30 10745 C 1003.24 4.0316 1.33219 0
M  V30 10746 O 1004.26 3.40276 1.05313 0
M  V30 10747 O 1003.12 5.14086 1.85412 0
M  V30 10748 H 1000.21 0.765169 0.31376 0
M  V30 10749 H 1002.76 1.69343 -0.109986 0
M  V30 10750 H 1001.53 3.91221 0.0788113 0
M  V30 10751 H 1001.15 3.56598 1.75852 0
M  V30 10752 N 1002.15 -0.195058 1.56388 0
M  V30 10753 C 1003.4 -0.9168 1.80894 0
M  V30 10754 C 1003.73 -1.82907 0.652592 0
M  V30 10755 O 1003.01 -1.91382 -0.346853 0
M  V30 10756 C 1003.29 -1.733 3.15657 0
M  V30 10757 C 1003.14 -0.845449 4.41783 0
M  V30 10758 C 1004.46 -2.70557 3.47112 0
M  V30 10759 H 1001.58 -0.331861 0.658056 0
M  V30 10760 H 1004.22 -0.184174 1.89105 0
M  V30 10761 H 1002.37 -2.3576 3.08787 0
M  V30 10762 H 1004.04 -0.235557 4.60698 0
M  V30 10763 H 1002.29 -0.152172 4.33533 0
M  V30 10764 H 1002.96 -1.45152 5.32574 0
M  V30 10765 H 1005.43 -2.1823 3.54281 0
M  V30 10766 H 1004.31 -3.24749 4.42526 0
M  V30 10767 H 1004.57 -3.49605 2.70608 0
M  V30 10768 N 1003.63 -1.50653 -0.462772 0
M  V30 10769 C 1004.88 -1.62057 -1.21424 0
M  V30 10770 C 1005.2 -0.324778 -1.91769 0
M  V30 10771 O 1004.46 0.689828 -1.83139 0
M  V30 10772 C 1004.76 -2.75637 -2.27507 0
M  V30 10773 C 1004.42 -4.15826 -1.74354 0
M  V30 10774 C 1003.09 -4.53969 -1.5958 0
M  V30 10775 C 1005.44 -5.03409 -1.35012 0
M  V30 10776 C 1002.77 -5.77427 -1.03899 0
M  V30 10777 C 1005.12 -6.27422 -0.807704 0
M  V30 10778 C 1003.78 -6.6436 -0.646657 0
M  V30 10779 H 1003.05 -0.59301 -0.44432 0
M  V30 10780 H 1005.7 -1.84612 -0.508999 0
M  V30 10781 H 1004 -2.47203 -3.0397 0
M  V30 10782 H 1005.7 -2.81663 -2.85424 0
M  V30 10783 H 1002.29 -3.85739 -1.86823 0
M  V30 10784 H 1006.48 -4.74567 -1.45258 0
M  V30 10785 H 1001.73 -6.04713 -0.901751 0
M  V30 10786 H 1005.91 -6.94644 -0.494234 0
M  V30 10787 H 1003.53 -7.59901 -0.213053 0
M  V30 10788 N 1005.11 0.71652 -1.4037 0
M  V30 10789 C 1006.36 1.47347 -1.38324 0
M  V30 10790 C 1006.68 1.94995 0.0139949 0
M  V30 10791 O 1005.95 1.7028 0.968585 0
M  V30 10792 H 1004.53 0.546662 -0.509087 0
M  V30 10793 H 1007.19 0.849455 -1.75415 0
M  V30 10794 H 1006.29 2.34675 -2.05752 0
M  V30 10795 N 1006.59 1.25851 0.948643 0
M  V30 10796 C 1007.53 1.06559 2.06756 0
M  V30 10797 C 1008.53 -0.00528632 1.69399 0
M  V30 10798 O 1009.73 0.150806 1.79367 0
M  V30 10799 H 1006.11 0.327689 0.676848 0
M  V30 10800 H 1008.08 2.01401 2.20182 0
M  V30 10801 C 1006.83 0.707392 3.40428 0
M  V30 10802 H 1006.15 1.52324 3.69645 0
M  V30 10803 H 1007.59 0.612142 4.19558 0
M  V30 10804 C 1006.05 -0.58697 3.31747 0
M  V30 10805 O 1006.58 -1.62741 3.67258 0
M  V30 10806 N 1004.79 -0.574828 2.84858 0
M  V30 10807 H 1004.33 0.272236 2.56157 0
M  V30 10808 H 1004.29 -1.441 2.79432 0
M  V30 10809 N 1008.06 -1.15214 1.07534 0
M  V30 10810 C 1009.31 -1.86548 0.810651 0
M  V30 10811 C 1009.67 -1.80863 -0.656236 0
M  V30 10812 O 1008.96 -1.22216 -1.47559 0
M  V30 10813 C 1009.15 -3.34623 1.25547 0
M  V30 10814 C 1008.98 -3.54725 2.76406 0
M  V30 10815 C 1007.75 -3.70089 3.44038 0
M  V30 10816 C 1009.95 -3.52392 3.74599 0
M  V30 10817 N 1007.93 -3.78262 4.8352 0
M  V30 10818 C 1009.3 -3.66701 4.9993 0
M  V30 10819 C 1011.36 -3.35677 3.6773 0
M  V30 10820 C 1010.06 -3.66023 6.19209 0
M  V30 10821 C 1012.09 -3.36298 4.86475 0
M  V30 10822 C 1011.45 -3.51139 6.1064 0
M  V30 10823 H 1007.55 -0.699691 0.349223 0
M  V30 10824 H 1010.13 -1.3815 1.37196 0
M  V30 10825 H 1008.3 -3.81633 0.721837 0
M  V30 10826 H 1010.03 -3.93677 0.938126 0
M  V30 10827 H 1006.79 -3.70943 2.94446 0
M  V30 10828 H 1007.21 -3.86087 5.56117 0
M  V30 10829 H 1011.86 -3.2312 2.72678 0
M  V30 10830 H 1009.57 -3.77358 7.14581 0
M  V30 10831 H 1013.16 -3.2459 4.82838 0
M  V30 10832 H 1012.04 -3.51555 7.00984 0
M  V30 10833 N 1009.54 -0.859717 -1.32086 0
M  V30 10834 C 1010.79 -0.465581 -1.97075 0
M  V30 10835 C 1011.12 0.979917 -1.68012 0
M  V30 10836 O 1010.37 1.70337 -0.96353 0
M  V30 10837 C 1010.67 -0.657397 -3.51302 0
M  V30 10838 C 1010.34 -2.07413 -4.00363 0
M  V30 10839 C 1009 -2.4616 -4.13472 0
M  V30 10840 C 1011.35 -2.99855 -4.26305 0
M  V30 10841 C 1008.68 -3.76611 -4.49868 0
M  V30 10842 C 1011.03 -4.2981 -4.64161 0
M  V30 10843 C 1009.7 -4.68485 -4.75476 0
M  V30 10844 H 1008.97 -0.170368 -0.721149 0
M  V30 10845 H 1011.61 -1.09074 -1.57401 0
M  V30 10846 H 1009.92 0.0509638 -3.91767 0
M  V30 10847 H 1011.61 -0.332416 -3.9962 0
M  V30 10848 H 1008.2 -1.76327 -3.90649 0
M  V30 10849 H 1012.39 -2.7115 -4.15682 0
M  V30 10850 H 1007.64 -4.06352 -4.56824 0
M  V30 10851 H 1011.82 -5.015 -4.83188 0
M  V30 10852 H 1009.45 -5.69612 -5.03435 0
M  V30 10853 N 1011.02 1.44971 -0.618145 0
M  V30 10854 C 1012.3 1.95539 -0.0489895 0
M  V30 10855 C 1012.68 1.5604 1.42179 0
M  V30 10856 O 1012.03 0.82809 2.12967 0
M  V30 10857 C 1012.24 3.48044 -0.258193 0
M  V30 10858 C 1013.58 4.24354 -0.144541 0
M  V30 10859 O 1014.61 3.55699 -0.18887 0
M  V30 10860 O 1013.47 5.46486 -0.038519 0
M  V30 10861 H 1010.56 0.826466 0.0297256 0
M  V30 10862 H 1013.11 1.55086 -0.688944 0
M  V30 10863 H 1011.88 3.69798 -1.27926 0
M  V30 10864 H 1011.5 3.95412 0.416522 0
M  V30 10865 N 1012.5 0.357919 1.53482 0
M  V30 10866 C 1013.43 -0.484231 2.28424 0
M  V30 10867 C 1014.41 -1.09046 1.30548 0
M  V30 10868 O 1015.59 -1.10916 1.59409 0
M  V30 10869 C 1012.72 -1.62803 3.06778 0
M  V30 10870 C 1011.68 -1.14943 4.12277 0
M  V30 10871 C 1011 -2.38287 4.78669 0
M  V30 10872 C 1012.3 -0.239627 5.2175 0
M  V30 10873 H 1014 0.140979 2.99068 0
M  V30 10874 H 1011.54 0.069244 1.43833 0
M  V30 10875 H 1013.5 -2.22374 3.57949 0
M  V30 10876 H 1012.22 -2.28036 2.3381 0
M  V30 10877 H 1010.88 -0.576442 3.6204 0
M  V30 10878 H 1010.53 -3.01959 4.02281 0
M  V30 10879 H 1010.23 -2.06939 5.49955 0
M  V30 10880 H 1011.75 -2.98558 5.32631 0
M  V30 10881 H 1013.17 -0.742597 5.6847 0
M  V30 10882 H 1011.56 -0.0173747 6.00097 0
M  V30 10883 H 1012.63 0.720333 4.7952 0
M  V30 10884 N 1013.98 -1.5736 0.0868897 0
M  V30 10885 C 1014.94 -2.12436 -0.860439 0
M  V30 10886 C 1015.94 -1.05175 -1.21634 0
M  V30 10887 O 1017.13 -1.31098 -1.14713 0
M  V30 10888 C 1014.26 -2.63818 -2.159 0
M  V30 10889 H 1015.45 -2.97453 -0.382346 0
M  V30 10890 H 1013.01 -1.55458 -0.162009 0
M  V30 10891 H 1013.74 -1.82298 -2.68212 0
M  V30 10892 H 1013.53 -3.42234 -1.91359 0
M  V30 10893 H 1015.02 -3.06452 -2.83685 0
M  V30 10894 N 1015.45 0.186762 -1.56489 0
M  V30 10895 C 1016.68 0.925916 -1.85584 0
M  V30 10896 C 1017.1 1.75708 -0.671446 0
M  V30 10897 O 1016.46 1.7728 0.379687 0
M  V30 10898 C 1016.51 1.79107 -3.12975 0
M  V30 10899 O 1015.61 2.89088 -2.94112 0
M  V30 10900 H 1014.96 0.260275 -0.610863 0
M  V30 10901 H 1017.49 0.189561 -2.0372 0
M  V30 10902 H 1017.5 2.19408 -3.43983 0
M  V30 10903 H 1016.17 1.18044 -3.98796 0
M  V30 10904 H 1014.75 2.52482 -2.74422 0
M  V30 10905 N 1016.93 1.50896 0.454776 0
M  V30 10906 C 1018.18 1.63905 1.20444 0
M  V30 10907 C 1018.53 0.342692 1.89323 0
M  V30 10908 O 1017.83 -0.660465 1.79857 0
M  V30 10909 C 1018.02 2.76839 2.26042 0
M  V30 10910 C 1017.85 4.17332 1.67524 0
M  V30 10911 C 1016.62 4.83512 1.46779 0
M  V30 10912 C 1018.82 5.01022 1.1611 0
M  V30 10913 N 1016.8 6.08171 0.83675 0
M  V30 10914 C 1018.17 6.16538 0.654283 0
M  V30 10915 C 1020.23 4.86677 1.05119 0
M  V30 10916 C 1018.93 7.19284 0.0483821 0
M  V30 10917 C 1020.95 5.89614 0.459211 0
M  V30 10918 C 1020.32 7.0439 -0.0371476 0
M  V30 10919 H 1016.42 0.653802 0.42903 0
M  V30 10920 H 1019 1.88069 0.503783 0
M  V30 10921 H 1017.17 2.54369 2.93515 0
M  V30 10922 H 1018.9 2.7912 2.93043 0
M  V30 10923 H 1015.66 4.41082 1.72464 0
M  V30 10924 H 1016.08 6.7485 0.539176 0
M  V30 10925 H 1020.72 3.98211 1.42085 0
M  V30 10926 H 1018.44 8.07412 -0.333438 0
M  V30 10927 H 1022.03 5.80582 0.376315 0
M  V30 10928 H 1020.91 7.8268 -0.488035 0
M  V30 10929 N 1018.41 -0.709066 1.40748 0
M  V30 10930 C 1019.66 -1.4646 1.38681 0
M  V30 10931 C 1019.97 -1.95599 -0.0056209 0
M  V30 10932 O 1021.18 -2.71091 -0.148907 0
M  V30 10933 C 1019.63 -2.64771 2.43771 0
M  V30 10934 C 1019.24 -2.22474 3.88856 0
M  V30 10935 C 1020.99 -3.42475 2.50821 0
M  V30 10936 C 1018.89 -3.37663 4.85528 0
M  V30 10937 H 1017.82 -0.550084 0.515678 0
M  V30 10938 H 1020.47 -0.771074 1.66513 0
M  V30 10939 H 1018.86 -3.36325 2.09048 0
M  V30 10940 H 1020.03 -1.58297 4.32757 0
M  V30 10941 H 1018.35 -1.57798 3.85342 0
M  V30 10942 H 1020.94 -4.28201 3.20232 0
M  V30 10943 H 1021.29 -3.86738 1.54076 0
M  V30 10944 H 1021.82 -2.77969 2.84567 0
M  V30 10945 H 1018.56 -2.98426 5.83628 0
M  V30 10946 H 1018.08 -4.00734 4.46287 0
M  V30 10947 H 1019.76 -4.03636 5.05655 0
M  V30 10948 N 1019.89 -1.26353 -0.941956 0
M  V30 10949 C 1020.84 -1.07842 -2.04056 0
M  V30 10950 C 1021.81 0.0163064 -1.66092 0
M  V30 10951 O 1022.99 -0.143313 -1.90261 0
M  V30 10952 C 1020.13 -0.716636 -3.37577 0
M  V30 10953 C 1019.24 -1.88754 -3.88582 0
M  V30 10954 C 1018.38 -1.46893 -5.10486 0
M  V30 10955 C 1017.42 -2.60819 -5.53751 0
M  V30 10956 N 1016.56 -2.19646 -6.66858 0
M  V30 10957 H 1021.4 -2.01856 -2.19221 0
M  V30 10958 H 1018.93 -1.00504 -1.07412 0
M  V30 10959 H 1020.89 -0.487768 -4.14339 0
M  V30 10960 H 1019.52 0.18653 -3.22261 0
M  V30 10961 H 1018.57 -2.22936 -3.08227 0
M  V30 10962 H 1019.88 -2.74264 -4.1663 0
M  V30 10963 H 1019.04 -1.20047 -5.94705 0
M  V30 10964 H 1017.78 -0.584721 -4.84182 0
M  V30 10965 H 1016.78 -2.88396 -4.6809 0
M  V30 10966 H 1018.01 -3.49838 -5.82057 0
M  V30 10967 H 1015.95 -1.33657 -6.4224 0
M  V30 10968 H 1015.87 -2.987 -6.94489 0
M  V30 10969 H 1017.14 -1.96009 -7.54454 0
M  V30 10970 N 1021.37 1.14642 -1.08144 0
M  V30 10971 C 1022.6 1.89209 -0.82966 0
M  V30 10972 C 1023.01 1.78697 0.621604 0
M  V30 10973 O 1022.35 1.14224 1.4387 0
M  V30 10974 C 1022.41 3.39958 -1.16915 0
M  V30 10975 C 1022.07 3.74254 -2.62264 0
M  V30 10976 C 1023.07 3.746 -3.60514 0
M  V30 10977 C 1020.76 4.04316 -2.9805 0
M  V30 10978 C 1022.75 4.04527 -4.92582 0
M  V30 10979 C 1020.44 4.33906 -4.30312 0
M  V30 10980 C 1021.44 4.33995 -5.27388 0
M  V30 10981 O 1021.12 4.62869 -6.57273 0
M  V30 10982 H 1020.86 0.606259 -0.299042 0
M  V30 10983 H 1023.41 1.46132 -1.44342 0
M  V30 10984 H 1021.64 3.83475 -0.498377 0
M  V30 10985 H 1023.33 3.95828 -0.89862 0
M  V30 10986 H 1024.09 3.51466 -3.34211 0
M  V30 10987 H 1019.97 4.03402 -2.23132 0
M  V30 10988 H 1023.52 4.04511 -5.68346 0
M  V30 10989 H 1019.41 4.5651 -4.56365 0
M  V30 10990 H 1020.18 4.80598 -6.62546 0
M  V30 10991 N 1022.85 0.866709 1.31628 0
M  V30 10992 C 1024.09 0.472185 1.96095 0
M  V30 10993 C 1024.41 -0.979873 1.69286 0
M  V30 10994 O 1025.61 -1.48039 2.27589 0
M  V30 10995 C 1024.07 0.793468 3.51044 0
M  V30 10996 C 1023.68 2.26206 3.86697 0
M  V30 10997 C 1025.42 0.467255 4.21921 0
M  V30 10998 C 1023.33 2.52593 5.34743 0
M  V30 10999 H 1022.26 0.172846 0.733921 0
M  V30 11000 H 1024.91 1.05916 1.49847 0
M  V30 11001 H 1023.29 0.135783 3.95767 0
M  V30 11002 H 1024.47 2.96254 3.52945 0
M  V30 11003 H 1022.78 2.55399 3.28877 0
M  V30 11004 H 1025.38 0.641669 5.30836 0
M  V30 11005 H 1025.72 -0.592065 4.12068 0
M  V30 11006 H 1026.25 1.08134 3.82821 0
M  V30 11007 H 1022.99 3.57196 5.49628 0
M  V30 11008 H 1022.51 1.87136 5.6986 0
M  V30 11009 H 1024.19 2.37156 6.01968 0
M  V30 11010 N 1024.32 -1.44642 0.625825 0
M  V30 11011 C 1025.26 -2.28882 -0.120614 0
M  V30 11012 C 1026.27 -1.40985 -0.81407 0
M  V30 11013 O 1027.46 -1.65188 -0.676404 0
M  V30 11014 C 1024.56 -3.17217 -1.19274 0
M  V30 11015 C 1023.73 -4.33499 -0.582839 0
M  V30 11016 C 1022.79 -5.02908 -1.54823 0
M  V30 11017 O 1021.82 -5.59102 -1.06743 0
M  V30 11018 N 1023.02 -5.0387 -2.88262 0
M  V30 11019 H 1025.78 -2.93585 0.602318 0
M  V30 11020 H 1023.34 -1.5503 0.466604 0
M  V30 11021 H 1025.34 -3.60515 -1.83878 0
M  V30 11022 H 1023.91 -2.54301 -1.81797 0
M  V30 11023 H 1023.13 -3.93458 0.241696 0
M  V30 11024 H 1024.41 -5.08561 -0.155914 0
M  V30 11025 H 1023.81 -4.59539 -3.2991 0
M  V30 11026 H 1022.37 -5.50974 -3.4824 0
M  V30 11027 N 1025.8 -0.366053 -1.5329 0
M  V30 11028 C 1027.03 0.22391 -2.05383 0
M  V30 11029 C 1027.44 1.42962 -1.23929 0
M  V30 11030 O 1026.78 1.81659 -0.273072 0
M  V30 11031 C 1026.84 0.681038 -3.5299 0
M  V30 11032 C 1026.51 -0.40805 -4.55175 0
M  V30 11033 C 1027.51 -1.25806 -5.04449 0
M  V30 11034 C 1025.19 -0.568428 -4.99073 0
M  V30 11035 C 1027.18 -2.25379 -5.96224 0
M  V30 11036 C 1024.87 -1.56752 -5.90654 0
M  V30 11037 C 1025.87 -2.40864 -6.39119 0
M  V30 11038 O 1025.56 -3.39069 -7.28895 0
M  V30 11039 H 1025.29 0.0429593 -0.674634 0
M  V30 11040 H 1027.84 -0.522897 -1.98633 0
M  V30 11041 H 1026.07 1.47945 -3.5728 0
M  V30 11042 H 1027.76 1.19406 -3.8794 0
M  V30 11043 H 1028.53 -1.14536 -4.71282 0
M  V30 11044 H 1024.41 0.0764858 -4.60937 0
M  V30 11045 H 1027.95 -2.91068 -6.33976 0
M  V30 11046 H 1023.85 -1.6807 -6.23236 0
M  V30 11047 H 1024.62 -3.34804 -7.46893 0
M  V30 11048 N 1027.28 1.57312 -0.0952337 0
M  V30 11049 C 1028.53 1.93974 0.567319 0
M  V30 11050 C 1028.85 0.977805 1.68713 0
M  V30 11051 O 1028.12 0.0298944 1.95877 0
M  V30 11052 H 1026.7 0.71612 0.212558 0
M  V30 11053 H 1029.36 1.94254 -0.158598 0
M  V30 11054 H 1028.46 2.964 0.977423 0
M  V30 11055 N 1028.76 -0.17846 1.56586 0
M  V30 11056 C 1030.01 -0.894502 1.8078 0
M  V30 11057 C 1030.32 -1.8372 0.67129 0
M  V30 11058 O 1031.53 -2.59509 0.797971 0
M  V30 11059 C 1029.98 -1.64109 3.20306 0
M  V30 11060 C 1029.59 -0.742387 4.41806 0
M  V30 11061 C 1031.33 -2.34578 3.53798 0
M  V30 11062 C 1029.24 -1.4888 5.72354 0
M  V30 11063 H 1028.17 -0.33776 0.674117 0
M  V30 11064 H 1030.82 -0.14752 1.82906 0
M  V30 11065 H 1029.2 -2.43257 3.12477 0
M  V30 11066 H 1030.38 0.011615 4.60799 0
M  V30 11067 H 1028.69 -0.147705 4.16138 0
M  V30 11068 H 1031.29 -2.91004 4.48577 0
M  V30 11069 H 1031.63 -3.09572 2.78336 0
M  V30 11070 H 1032.17 -1.62381 3.63149 0
M  V30 11071 H 1028.9 -0.781325 6.50827 0
M  V30 11072 H 1028.42 -2.21631 5.57351 0
M  V30 11073 H 1030.1 -2.03819 6.14058 0
M  V30 11074 N 1030.24 -1.51135 -0.446768 0
M  V30 11075 C 1031.47 -1.66887 -1.21788 0
M  V30 11076 C 1031.87 -0.361729 -1.8571 0
M  V30 11077 O 1031.22 0.668784 -1.71093 0
M  V30 11078 C 1031.28 -2.72062 -2.34994 0
M  V30 11079 C 1030.94 -4.14935 -1.91516 0
M  V30 11080 C 1031.94 -5.00021 -1.42389 0
M  V30 11081 C 1029.62 -4.60985 -1.99495 0
M  V30 11082 C 1031.62 -6.29216 -1.01816 0
M  V30 11083 C 1029.31 -5.90179 -1.58532 0
M  V30 11084 C 1030.3 -6.74121 -1.09774 0
M  V30 11085 O 1029.99 -8.009 -0.69389 0
M  V30 11086 H 1029.72 -0.563431 -0.373525 0
M  V30 11087 H 1032.28 -1.98261 -0.536818 0
M  V30 11088 H 1030.51 -2.35983 -3.06348 0
M  V30 11089 H 1032.2 -2.76788 -2.96889 0
M  V30 11090 H 1032.96 -4.6565 -1.35627 0
M  V30 11091 H 1028.84 -3.95777 -2.36393 0
M  V30 11092 H 1032.39 -6.94687 -0.636879 0
M  V30 11093 H 1028.28 -6.24066 -1.64962 0
M  V30 11094 H 1029.05 -8.14376 -0.820582 0
M  V30 11095 N 1031.71 0.701592 -1.41122 0
M  V30 11096 C 1032.96 1.46376 -1.40363 0
M  V30 11097 C 1033.29 1.94197 -0.0105442 0
M  V30 11098 O 1032.57 1.69121 0.960637 0
M  V30 11099 C 1032.85 2.67994 -2.40523 0
M  V30 11100 C 1032.7 2.25977 -3.88914 0
M  V30 11101 C 1034.02 3.70181 -2.38022 0
M  V30 11102 H 1031.14 0.530929 -0.511159 0
M  V30 11103 H 1033.78 0.799588 -1.72356 0
M  V30 11104 H 1031.93 3.24661 -2.13372 0
M  V30 11105 H 1033.61 1.74684 -4.26946 0
M  V30 11106 H 1031.85 1.57826 -4.04071 0
M  V30 11107 H 1032.52 3.13215 -4.54533 0
M  V30 11108 H 1035 3.23174 -2.62103 0
M  V30 11109 H 1033.87 4.52894 -3.10127 0
M  V30 11110 H 1034.13 4.19458 -1.3967 0
M  V30 11111 N 1033.19 1.2685 0.935242 0
M  V30 11112 C 1034.44 1.12912 1.6846 0
M  V30 11113 C 1034.77 -0.325708 1.91449 0
M  V30 11114 O 1034.05 -1.23884 1.49944 0
M  V30 11115 C 1034.33 1.90513 3.05576 0
M  V30 11116 C 1034.18 3.43936 2.89876 0
M  V30 11117 C 1035.5 1.70363 4.05789 0
M  V30 11118 H 1032.62 0.411559 0.611382 0
M  V30 11119 H 1035.26 1.55917 1.08582 0
M  V30 11120 H 1033.41 1.53963 3.5669 0
M  V30 11121 H 1035.08 3.90272 2.45939 0
M  V30 11122 H 1033.33 3.70659 2.25376 0
M  V30 11123 H 1034 3.93467 3.87153 0
M  V30 11124 H 1036.47 2.02217 3.63659 0
M  V30 11125 H 1035.35 2.27066 4.99732 0
M  V30 11126 H 1035.61 0.649674 4.373 0
M  V30 11127 N 1034.67 -1.14067 1.0875 0
M  V30 11128 C 1035.92 -1.85459 0.82053 0
M  V30 11129 C 1036.25 -1.82923 -0.65213 0
M  V30 11130 O 1035.52 -1.26241 -1.47965 0
M  V30 11131 C 1035.81 -3.33937 1.34752 0
M  V30 11132 C 1035.66 -3.45026 2.88578 0
M  V30 11133 C 1036.98 -4.2915 0.975636 0
M  V30 11134 H 1034.1 -0.673384 0.299538 0
M  V30 11135 H 1036.74 -1.33927 1.34772 0
M  V30 11136 H 1034.89 -3.77953 0.899086 0
M  V30 11137 H 1036.56 -3.09771 3.41818 0
M  V30 11138 H 1034.81 -2.86124 3.26061 0
M  V30 11139 H 1035.48 -4.49408 3.20526 0
M  V30 11140 H 1037.95 -3.93168 1.36228 0
M  V30 11141 H 1036.83 -5.31489 1.37152 0
M  V30 11142 H 1037.09 -4.41945 -0.116956 0
M  V30 11143 N 1036.15 -0.873678 -1.31166 0
M  V30 11144 C 1037.4 -0.485497 -1.96182 0
M  V30 11145 C 1037.72 0.96621 -1.69379 0
M  V30 11146 O 1036.99 1.67783 -1.01121 0
M  V30 11147 H 1035.57 -0.176547 -0.725838 0
M  V30 11148 H 1038.23 -1.11428 -1.59906 0
M  V30 11149 H 1037.33 -0.646325 -3.05334 0
M  V30 11150 N 1037.63 1.44308 -0.633487 0
M  V30 11151 C 1038.87 2.02322 -0.139123 0
M  V30 11152 C 1039.21 1.49733 1.23667 0
M  V30 11153 O 1038.48 0.682353 1.82138 0
M  V30 11154 C 1038.76 3.59871 -0.128366 0
M  V30 11155 C 1038.62 4.22737 -1.53667 0
M  V30 11156 C 1039.94 4.36702 0.545834 0
M  V30 11157 H 1037.05 0.735161 -0.0520293 0
M  V30 11158 H 1039.7 1.7185 -0.810411 0
M  V30 11159 H 1037.85 3.85963 0.443263 0
M  V30 11160 H 1039.52 4.07744 -2.15737 0
M  V30 11161 H 1037.76 3.80142 -2.08985 0
M  V30 11162 H 1038.43 5.31757 -1.48116 0
M  V30 11163 H 1040.91 4.16057 0.0596879 0
M  V30 11164 H 1039.78 5.46407 0.522557 0
M  V30 11165 H 1040.05 4.11483 1.6166 0
M  V30 11166 N 1039.1 0.374177 1.53094 0
M  V30 11167 C 1040.35 -0.213981 2.00562 0
M  V30 11168 C 1040.67 -1.4916 1.26533 0
M  V30 11169 O 1041.87 -2.15889 1.64634 0
M  V30 11170 C 1040.33 -0.431876 3.57299 0
M  V30 11171 C 1039.94 0.831615 4.40214 0
M  V30 11172 C 1041.68 -0.977222 4.13099 0
M  V30 11173 C 1039.59 0.582831 5.88521 0
M  V30 11174 H 1038.52 -0.0837386 0.749336 0
M  V30 11175 H 1041.17 0.494245 1.76719 0
M  V30 11176 H 1039.55 -1.20158 3.7733 0
M  V30 11177 H 1040.72 1.60477 4.31953 0
M  V30 11178 H 1039.04 1.30081 3.9556 0
M  V30 11179 H 1041.64 -1.17881 5.21544 0
M  V30 11180 H 1041.98 -1.94189 3.68234 0
M  V30 11181 H 1042.51 -0.267473 3.969 0
M  V30 11182 H 1039.25 1.51807 6.37679 0
M  V30 11183 H 1038.77 -0.151666 5.99608 0
M  V30 11184 H 1040.45 0.211604 6.46654 0
M  V30 11185 N 1040.58 -1.57259 0.103575 0
M  V30 11186 C 1041.51 -2.17509 -0.84923 0
M  V30 11187 C 1042.49 -1.11079 -1.28824 0
M  V30 11188 O 1043.68 -1.39252 -1.35361 0
M  V30 11189 C 1040.81 -2.76221 -2.10522 0
M  V30 11190 C 1039.76 -3.88098 -1.80454 0
M  V30 11191 C 1039.09 -4.33549 -3.12952 0
M  V30 11192 C 1040.39 -5.10909 -1.08486 0
M  V30 11193 H 1042.08 -2.9738 -0.347217 0
M  V30 11194 H 1039.63 -1.43045 -0.165568 0
M  V30 11195 H 1041.58 -3.17024 -2.77621 0
M  V30 11196 H 1040.31 -1.93617 -2.63021 0
M  V30 11197 H 1038.96 -3.47847 -1.15749 0
M  V30 11198 H 1038.61 -3.47825 -3.63355 0
M  V30 11199 H 1038.31 -5.08984 -2.93614 0
M  V30 11200 H 1039.84 -4.76992 -3.81196 0
M  V30 11201 H 1041.25 -5.48828 -1.65711 0
M  V30 11202 H 1039.65 -5.91828 -0.992973 0
M  V30 11203 H 1040.72 -4.84851 -0.0690108 0
M  V30 11204 N 1042.06 0.170153 -1.56679 0
M  V30 11205 C 1042.99 1.21285 -1.9953 0
M  V30 11206 C 1043.97 1.46104 -0.871071 0
M  V30 11207 O 1045.16 1.57419 -1.13724 0
M  V30 11208 C 1042.29 2.5515 -2.35618 0
M  V30 11209 C 1041.24 2.44898 -3.51011 0
M  V30 11210 C 1040.57 3.83263 -3.72845 0
M  V30 11211 C 1041.87 1.95271 -4.84424 0
M  V30 11212 H 1043.56 0.856646 -2.86883 0
M  V30 11213 H 1041.11 0.410634 -1.38021 0
M  V30 11214 H 1043.06 3.28299 -2.64193 0
M  V30 11215 H 1041.78 2.92561 -1.45175 0
M  V30 11216 H 1040.44 1.74203 -3.22566 0
M  V30 11217 H 1040.09 4.18069 -2.79691 0
M  V30 11218 H 1039.79 3.77272 -4.50488 0
M  V30 11219 H 1041.31 4.57996 -4.03822 0
M  V30 11220 H 1042.73 2.58195 -5.11867 0
M  V30 11221 H 1041.13 2.00225 -5.65712 0
M  V30 11222 H 1042.2 0.90709 -4.7634 0
M  V30 11223 N 1043.54 1.5137 0.438746 0
M  V30 11224 C 1044.95 1.39514 0.775116 0
M  V30 11225 C 1045.15 0.47638 1.95788 0
M  V30 11226 O 1044.21 -0.0689832 2.52406 0
M  V30 11227 C 1045.52 2.81517 1.05681 0
M  V30 11228 C 1047.07 2.90658 1.16133 0
M  V30 11229 C 1047.55 4.33566 1.47597 0
M  V30 11230 N 1049.04 4.36665 1.54524 0
M  V30 11231 C 1049.77 5.4427 1.80438 0
M  V30 11232 N 1049.27 6.62037 2.04154 0
M  V30 11233 N 1051.06 5.31749 1.82208 0
M  V30 11234 H 1043.21 2.09657 -0.340237 0
M  V30 11235 H 1045.48 0.943736 -0.0898115 0
M  V30 11236 H 1045.18 3.50734 0.260441 0
M  V30 11237 H 1045.06 3.20757 1.98481 0
M  V30 11238 H 1047.44 2.2164 1.94833 0
M  V30 11239 H 1047.52 2.54917 0.212376 0
M  V30 11240 H 1047.17 5.03133 0.694251 0
M  V30 11241 H 1047.1 4.66819 2.43696 0
M  V30 11242 H 1049.59 3.51761 1.38105 0
M  V30 11243 H 1049.9 7.39838 2.23293 0
M  V30 11244 H 1048.25 6.65155 2.01479 0
M  V30 11245 H 1051.44 4.3873 1.63198 0
M  V30 11246 H 1051.61 6.15689 2.02067 0
M  V30 11247 N 1045.02 -0.694098 1.41492 0
M  V30 11248 C 1046.27 -1.4498 1.40227 0
M  V30 11249 C 1046.58 -1.95594 0.0151253 0
M  V30 11250 O 1047.78 -2.71234 -0.120146 0
M  V30 11251 C 1046.24 -2.62171 2.46565 0
M  V30 11252 C 1045.85 -2.18337 3.91194 0
M  V30 11253 C 1047.59 -3.39796 2.54439 0
M  V30 11254 C 1045.5 -3.32495 4.89082 0
M  V30 11255 H 1044.43 -0.544584 0.521483 0
M  V30 11256 H 1047.08 -0.75337 1.67322 0
M  V30 11257 H 1045.46 -3.34089 2.12604 0
M  V30 11258 H 1046.64 -1.53698 4.34412 0
M  V30 11259 H 1044.95 -1.53702 3.86994 0
M  V30 11260 H 1047.55 -4.2478 3.24755 0
M  V30 11261 H 1047.89 -3.85082 1.5817 0
M  V30 11262 H 1048.42 -2.74935 2.87499 0
M  V30 11263 H 1045.16 -2.92219 5.86761 0
M  V30 11264 H 1044.68 -3.95978 4.50512 0
M  V30 11265 H 1046.36 -3.98251 5.09907 0
M  V30 11266 N 1046.49 -1.27344 -0.928501 0
M  V30 11267 C 1047.74 -1.13804 -1.67859 0
M  V30 11268 C 1048.07 0.31555 -1.91619 0
M  V30 11269 O 1047.35 1.23087 -1.50599 0
M  V30 11270 C 1047.63 -1.9213 -3.04562 0
M  V30 11271 C 1047.48 -3.45468 -2.88048 0
M  V30 11272 C 1048.8 -1.72513 -4.04879 0
M  V30 11273 H 1045.92 -0.414796 -0.609191 0
M  V30 11274 H 1048.56 -1.5649 -1.07753 0
M  V30 11275 H 1046.71 -1.55853 -3.55868 0
M  V30 11276 H 1048.39 -3.9157 -2.43865 0
M  V30 11277 H 1046.63 -3.71849 -2.23407 0
M  V30 11278 H 1047.3 -3.95515 -3.85061 0
M  V30 11279 H 1049.78 -2.04143 -3.62581 0
M  V30 11280 H 1048.65 -2.29713 -4.98521 0
M  V30 11281 H 1048.91 -0.672856 -4.3695 0
M  V30 11282 N 1047.97 1.13488 -1.09353 0
M  V30 11283 C 1049.22 1.841 -0.82401 0
M  V30 11284 C 1049.53 1.84393 0.652586 0
M  V30 11285 O 1050.74 2.5089 1.03762 0
M  V30 11286 C 1049.2 3.30523 -1.42418 0
M  V30 11287 C 1048.8 3.38621 -2.93326 0
M  V30 11288 C 1050.55 4.06182 -1.23356 0
M  V30 11289 C 1048.46 4.79311 -3.46432 0
M  V30 11290 H 1047.39 0.68974 -0.304589 0
M  V30 11291 H 1050.04 1.27866 -1.31615 0
M  V30 11292 H 1048.42 3.86555 -0.859727 0
M  V30 11293 H 1049.59 2.92587 -3.5599 0
M  V30 11294 H 1047.91 2.76426 -3.11412 0
M  V30 11295 H 1050.5 5.10047 -1.60488 0
M  V30 11296 H 1050.85 4.15936 -0.174152 0
M  V30 11297 H 1051.38 3.56477 -1.76547 0
M  V30 11298 H 1048.12 4.74748 -4.5199 0
M  V30 11299 H 1047.64 5.25842 -2.8853 0
M  V30 11300 H 1049.32 5.48227 -3.43593 0
M  V30 11301 N 1049.45 0.880621 1.30701 0
M  V30 11302 C 1050.68 0.51094 2.00182 0
M  V30 11303 C 1051.09 -0.903914 1.66211 0
M  V30 11304 O 1050.43 -1.60529 0.893089 0
M  V30 11305 C 1050.49 0.600775 3.54445 0
M  V30 11306 C 1050.16 1.97915 4.1192 0
M  V30 11307 C 1051.16 2.94802 4.28238 0
M  V30 11308 C 1048.84 2.28336 4.47401 0
M  V30 11309 C 1050.83 4.20245 4.79242 0
M  V30 11310 C 1048.52 3.54026 4.98105 0
M  V30 11311 C 1049.52 4.49796 5.13978 0
M  V30 11312 O 1049.21 5.73256 5.63589 0
M  V30 11313 H 1048.94 0.196477 0.646818 0
M  V30 11314 H 1051.49 1.18659 1.67658 0
M  V30 11315 H 1049.72 -0.131832 3.86475 0
M  V30 11316 H 1051.41 0.242996 4.05172 0
M  V30 11317 H 1052.18 2.7261 4.01134 0
M  V30 11318 H 1048.06 1.54564 4.34317 0
M  V30 11319 H 1051.6 4.95003 4.91546 0
M  V30 11320 H 1047.5 3.76057 5.24644 0
M  V30 11321 H 1048.27 5.75577 5.81939 0
M  V30 11322 N 1050.93 -1.4397 0.641131 0
M  V30 11323 C 1052.18 -2.01163 0.147026 0
M  V30 11324 C 1052.49 -1.51099 -1.24211 0
M  V30 11325 O 1053.7 -2.00487 -1.83078 0
M  V30 11326 C 1052.15 -3.59275 0.212068 0
M  V30 11327 C 1051.76 -4.18334 1.60314 0
M  V30 11328 C 1053.51 -4.23903 -0.225057 0
M  V30 11329 C 1051.41 -5.68701 1.62276 0
M  V30 11330 H 1050.34 -0.75226 0.051201 0
M  V30 11331 H 1052.99 -1.65075 0.801396 0
M  V30 11332 H 1051.38 -3.92708 -0.509589 0
M  V30 11333 H 1052.55 -3.96422 2.34918 0
M  V30 11334 H 1050.86 -3.66031 1.9852 0
M  V30 11335 H 1053.46 -5.34205 -0.230074 0
M  V30 11336 H 1053.8 -3.96956 -1.25426 0
M  V30 11337 H 1054.34 -3.95309 0.44444 0
M  V30 11338 H 1051.08 -6.00397 2.63066 0
M  V30 11339 H 1050.6 -5.92705 0.919797 0
M  V30 11340 H 1052.28 -6.32521 1.36112 0
M  V30 11341 N 1052.41 -0.382291 -1.52893 0
M  V30 11342 C 1053.65 0.202433 -2.01787 0
M  V30 11343 C 1053.99 1.47044 -1.26853 0
M  V30 11344 O 1053.26 1.91007 -0.366969 0
M  V30 11345 C 1053.54 0.477471 -3.5692 0
M  V30 11346 C 1053.4 -0.805339 -4.42532 0
M  V30 11347 C 1054.72 1.27106 -4.21346 0
M  V30 11348 H 1051.84 0.0720998 -0.733465 0
M  V30 11349 H 1054.48 -0.510478 -1.83014 0
M  V30 11350 H 1052.63 1.08478 -3.73048 0
M  V30 11351 H 1054.3 -1.4424 -4.3817 0
M  V30 11352 H 1052.54 -1.42216 -4.09826 0
M  V30 11353 H 1053.21 -0.567635 -5.49074 0
M  V30 11354 H 1055.69 0.757161 -4.09153 0
M  V30 11355 H 1054.57 1.43225 -5.29885 0
M  V30 11356 H 1054.83 2.28431 -3.78513 0
M  V30 11357 N 1053.89 1.57202 -0.111913 0
M  V30 11358 C 1054.82 2.11995 0.871242 0
M  V30 11359 C 1055.83 1.06102 1.23475 0
M  V30 11360 O 1057.02 1.33497 1.18494 0
M  V30 11361 C 1054.12 2.59874 2.17528 0
M  V30 11362 C 1053.29 3.89788 1.98455 0
M  V30 11363 C 1052.35 4.23339 3.12523 0
M  V30 11364 O 1051.38 4.92277 2.85748 0
M  V30 11365 N 1052.58 3.80089 4.38762 0
M  V30 11366 H 1055.34 2.96976 0.403157 0
M  V30 11367 H 1052.91 1.61737 0.0727159 0
M  V30 11368 H 1054.9 2.79354 2.9282 0
M  V30 11369 H 1053.47 1.79812 2.55707 0
M  V30 11370 H 1052.69 3.79288 1.07396 0
M  V30 11371 H 1053.98 4.74748 1.83007 0
M  V30 11372 H 1053.37 3.24473 4.63394 0
M  V30 11373 H 1051.93 4.04691 5.10949 0
M  V30 11374 N 1055.36 -0.161842 1.56767 0
M  V30 11375 C 1056.3 -1.22927 1.9226 0
M  V30 11376 C 1057.27 -1.42309 0.786562 0
M  V30 11377 O 1058.46 -1.57163 1.04078 0
M  V30 11378 C 1055.59 -2.59069 2.18177 0
M  V30 11379 C 1054.63 -2.56368 3.40849 0
M  V30 11380 S 1055.46 -2.04518 4.94907 0
M  V30 11381 C 1056.62 -3.42418 5.23928 0
M  V30 11382 H 1056.85 -0.926377 2.82499 0
M  V30 11383 H 1054.39 -0.366822 1.49979 0
M  V30 11384 H 1056.34 -3.37421 2.33789 0
M  V30 11385 H 1055.01 -2.86554 1.28629 0
M  V30 11386 H 1054.2 -3.56551 3.56213 0
M  V30 11387 H 1053.8 -1.86116 3.24402 0
M  V30 11388 H 1056.09 -4.38461 5.16486 0
M  V30 11389 H 1057.04 -3.3192 6.25487 0
M  V30 11390 H 1057.44 -3.38868 4.51474 0
M  V30 11391 N 1056.84 -1.516 -0.430713 0
M  V30 11392 C 1057.77 -1.76342 -1.53054 0
M  V30 11393 C 1058.75 -0.61349 -1.58652 0
M  V30 11394 O 1059.94 -0.856888 -1.74273 0
M  V30 11395 C 1057.07 -1.8945 -2.91077 0
M  V30 11396 C 1056.02 -3.04928 -3.00339 0
M  V30 11397 C 1055.35 -3.03228 -4.40405 0
M  V30 11398 C 1056.65 -4.44777 -2.73808 0
M  V30 11399 H 1058.34 -2.68435 -1.326 0
M  V30 11400 H 1055.89 -1.29171 -0.636466 0
M  V30 11401 H 1057.84 -2.05343 -3.67984 0
M  V30 11402 H 1056.56 -0.940114 -3.12777 0
M  V30 11403 H 1055.22 -2.88751 -2.25872 0
M  V30 11404 H 1054.87 -2.05553 -4.59083 0
M  V30 11405 H 1054.57 -3.80776 -4.47531 0
M  V30 11406 H 1056.1 -3.21222 -5.19277 0
M  V30 11407 H 1057.51 -4.6127 -3.40445 0
M  V30 11408 H 1055.91 -5.2408 -2.92335 0
M  V30 11409 H 1056.98 -4.54358 -1.69372 0
M  V30 11410 N 1058.32 0.686584 -1.41858 0
M  V30 11411 C 1059.28 1.78214 -1.44126 0
M  V30 11412 C 1060.28 1.57366 -0.330541 0
M  V30 11413 O 1061.47 1.63874 -0.590837 0
M  V30 11414 C 1058.6 3.16704 -1.26142 0
M  V30 11415 H 1059.8 1.77594 -2.41661 0
M  V30 11416 H 1057.35 0.895085 -1.28132 0
M  V30 11417 H 1058.09 3.22957 -0.294823 0
M  V30 11418 H 1057.87 3.33238 -2.06627 0
M  V30 11419 H 1059.36 3.96658 -1.30584 0
M  V30 11420 N 1059.8 1.27835 0.921735 0
M  V30 11421 C 1060.74 1.11075 2.02314 0
M  V30 11422 C 1061.71 0.0101195 1.66097 0
M  V30 11423 O 1062.9 0.173564 1.90009 0
M  V30 11424 C 1060.04 0.770251 3.36394 0
M  V30 11425 C 1059.15 1.94912 3.8553 0
M  V30 11426 C 1058.29 1.54996 5.08084 0
M  V30 11427 C 1057.33 2.69595 5.49531 0
M  V30 11428 N 1056.46 2.30227 6.6328 0
M  V30 11429 H 1061.3 2.05319 2.15982 0
M  V30 11430 H 1058.84 1.022 1.058 0
M  V30 11431 H 1060.8 0.553624 4.1351 0
M  V30 11432 H 1059.43 -0.135238 3.22517 0
M  V30 11433 H 1058.48 2.27811 3.04641 0
M  V30 11434 H 1059.79 2.80858 4.12214 0
M  V30 11435 H 1058.95 1.29493 5.9272 0
M  V30 11436 H 1057.69 0.661676 4.83191 0
M  V30 11437 H 1056.69 2.95806 4.63442 0
M  V30 11438 H 1057.92 3.59054 5.76417 0
M  V30 11439 H 1055.86 1.43858 6.40032 0
M  V30 11440 H 1055.78 3.09711 6.89649 0
M  V30 11441 H 1057.05 2.07987 7.5124 0
M  V30 11442 N 1061.28 -1.12907 1.09954 0
M  V30 11443 C 1062.21 -2.20585 0.765799 0
M  V30 11444 C 1063.19 -1.68117 -0.258989 0
M  V30 11445 O 1064.37 -1.93792 -0.125853 0
M  V30 11446 C 1061.5 -3.46772 0.191435 0
M  V30 11447 C 1060.46 -4.12363 1.14635 0
M  V30 11448 C 1059.78 -5.3294 0.433426 0
M  V30 11449 C 1061.08 -4.59073 2.49096 0
M  V30 11450 H 1062.78 -2.48759 1.66612 0
M  V30 11451 H 1060.32 -1.19563 0.802534 0
M  V30 11452 H 1062.27 -4.21365 -0.0541535 0
M  V30 11453 H 1061 -3.18011 -0.744101 0
M  V30 11454 H 1059.66 -3.39744 1.37731 0
M  V30 11455 H 1059.31 -5.00444 -0.506422 0
M  V30 11456 H 1059.01 -5.77772 1.07018 0
M  V30 11457 H 1060.53 -6.10284 0.196267 0
M  V30 11458 H 1061.94 -5.25063 2.30177 0
M  V30 11459 H 1060.34 -5.14665 3.0861 0
M  V30 11460 H 1061.41 -3.73313 3.0946 0
M  V30 11461 N 1062.75 -0.88754 -1.30232 0
M  V30 11462 C 1064.17 -0.581904 -1.48614 0
M  V30 11463 C 1064.37 0.879711 -1.81282 0
M  V30 11464 O 1063.43 1.66076 -1.90198 0
M  V30 11465 C 1064.74 -1.49726 -2.60773 0
M  V30 11466 C 1066.29 -1.50117 -2.74653 0
M  V30 11467 C 1066.76 -2.40251 -3.89927 0
M  V30 11468 N 1068.25 -2.38229 -3.97242 0
M  V30 11469 C 1068.99 -3.04682 -4.85754 0
M  V30 11470 N 1068.48 -3.80369 -5.79043 0
M  V30 11471 N 1070.28 -2.93901 -4.79144 0
M  V30 11472 H 1062.43 -1.83304 -1.073 0
M  V30 11473 H 1064.69 -0.78477 -0.531826 0
M  V30 11474 H 1064.4 -2.5381 -2.43462 0
M  V30 11475 H 1064.27 -1.20874 -3.57308 0
M  V30 11476 H 1066.66 -0.467832 -2.91368 0
M  V30 11477 H 1066.74 -1.83001 -1.7873 0
M  V30 11478 H 1066.38 -3.43671 -3.73969 0
M  V30 11479 H 1066.31 -2.04682 -4.85194 0
M  V30 11480 H 1068.8 -1.83229 -3.30508 0
M  V30 11481 H 1069.12 -4.28159 -6.4335 0
M  V30 11482 H 1067.46 -3.84477 -5.78967 0
M  V30 11483 H 1070.65 -2.34296 -4.05245 0
M  V30 11484 H 1070.83 -3.45967 -5.47915 0
M  V30 11485 N 1064.23 1.43628 -0.648757 0
M  V30 11486 C 1065.16 2.29045 0.0841858 0
M  V30 11487 C 1066.18 1.42262 0.791537 0
M  V30 11488 O 1067.37 1.66243 0.650039 0
M  V30 11489 C 1064.47 3.19075 1.14212 0
M  V30 11490 C 1063.64 4.34372 0.513799 0
M  V30 11491 C 1062.7 5.05307 1.46803 0
M  V30 11492 O 1061.72 5.60729 0.978346 0
M  V30 11493 N 1062.93 5.08393 2.80209 0
M  V30 11494 H 1065.69 2.9259 -0.648948 0
M  V30 11495 H 1063.25 1.54268 -0.491209 0
M  V30 11496 H 1065.24 3.63395 1.78119 0
M  V30 11497 H 1063.81 2.57161 1.77728 0
M  V30 11498 H 1063.03 3.93024 -0.304262 0
M  V30 11499 H 1064.32 5.08745 0.0749871 0
M  V30 11500 H 1063.72 4.64729 3.22557 0
M  V30 11501 H 1062.28 5.56445 3.3943 0
M  V30 11502 N 1065.71 0.390394 1.52688 0
M  V30 11503 C 1066.96 -0.191067 2.01195 0
M  V30 11504 C 1067.28 -1.47229 1.27862 0
M  V30 11505 O 1066.55 -1.91793 0.399007 0
M  V30 11506 H 1065.13 -0.073596 0.743366 0
M  V30 11507 H 1067.79 0.522334 1.8777 0
M  V30 11508 H 1066.89 -0.40051 3.0952 0
M  V30 11509 N 1067.19 -1.57141 0.120249 0
M  V30 11510 C 1068.42 -1.993 -0.544346 0
M  V30 11511 C 1068.83 -0.998858 -1.60684 0
M  V30 11512 O 1068.17 0.0162197 -1.83693 0
M  V30 11513 C 1068.23 -3.37874 -1.22808 0
M  V30 11514 C 1067.9 -4.55924 -0.313374 0
M  V30 11515 C 1068.89 -5.17962 0.448501 0
M  V30 11516 C 1066.58 -5.018 -0.224082 0
M  V30 11517 C 1068.57 -6.24264 1.28739 0
M  V30 11518 C 1066.26 -6.07963 0.618437 0
M  V30 11519 C 1067.26 -6.69061 1.3728 0
M  V30 11520 O 1066.94 -7.73173 2.20133 0
M  V30 11521 H 1066.68 -0.659466 -0.148596 0
M  V30 11522 H 1069.23 -2.04387 0.203779 0
M  V30 11523 H 1067.46 -3.29545 -2.02329 0
M  V30 11524 H 1069.15 -3.64314 -1.7897 0
M  V30 11525 H 1069.92 -4.83434 0.389395 0
M  V30 11526 H 1065.79 -4.53989 -0.80094 0
M  V30 11527 H 1069.34 -6.71883 1.87667 0
M  V30 11528 H 1065.24 -6.4192 0.678932 0
M  V30 11529 H 1066 -7.90276 2.13088 0
M  V30 11530 N 1068.67 0.153526 -1.5685 0
M  V30 11531 C 1070.08 0.505939 -1.51368 0
M  V30 11532 C 1070.28 1.83721 -0.82757 0
M  V30 11533 O 1069.34 2.49385 -0.395364 0
M  V30 11534 C 1070.65 0.522269 -2.9613 0
M  V30 11535 C 1072.2 0.608238 -3.07033 0
M  V30 11536 C 1072.67 0.655292 -4.53288 0
M  V30 11537 N 1074.17 0.717695 -4.57606 0
M  V30 11538 C 1074.9 0.774977 -5.68139 0
M  V30 11539 N 1074.4 0.792003 -6.88258 0
M  V30 11540 N 1076.19 0.81536 -5.56155 0
M  V30 11541 H 1068.34 -0.71919 -1.99853 0
M  V30 11542 H 1070.6 -0.261466 -0.91123 0
M  V30 11543 H 1070.31 -0.387595 -3.49558 0
M  V30 11544 H 1070.18 1.3625 -3.51733 0
M  V30 11545 H 1072.57 1.50852 -2.53629 0
M  V30 11546 H 1072.65 -0.259014 -2.54485 0
M  V30 11547 H 1072.3 -0.240809 -5.07329 0
M  V30 11548 H 1072.23 1.53894 -5.03611 0
M  V30 11549 H 1074.72 0.7121 -3.7113 0
M  V30 11550 H 1075.03 0.837378 -7.6825 0
M  V30 11551 H 1073.37 0.759986 -6.90832 0
M  V30 11552 H 1076.57 0.799183 -4.61227 0
M  V30 11553 H 1076.74 0.856537 -6.42314 0
M  V30 11554 N 1070.14 1.51827 0.422667 0
M  V30 11555 C 1071.56 1.57533 1.00201 0
M  V30 11556 C 1071.91 0.407623 1.91919 0
M  V30 11557 O 1071.03 -0.473763 2.1115 0
M  V30 11558 C 1071.63 2.85508 1.82403 0
M  V30 11559 C 1070.19 2.93737 2.35362 0
M  V30 11560 C 1069.33 2.52343 1.14971 0
M  V30 11561 H 1072.28 1.57391 0.20339 0
M  V30 11562 H 1072.3 2.70097 2.68007 0
M  V30 11563 H 1071.82 3.70477 1.15623 0
M  V30 11564 H 1069.92 2.13231 3.05554 0
M  V30 11565 H 1070.03 3.977 2.67155 0
M  V30 11566 H 1068.39 2.05878 1.49955 0
M  V30 11567 H 1069.18 3.39672 0.497786 0
M  V30 11568 N 1071.62 -0.679052 1.4222 0
M  V30 11569 C 1072.87 -1.44125 1.42674 0
M  V30 11570 C 1073.2 -1.94156 0.041438 0
M  V30 11571 O 1072.48 -1.70628 -0.93361 0
M  V30 11572 C 1072.76 -2.64133 2.44756 0
M  V30 11573 C 1072.61 -2.19761 3.9246 0
M  V30 11574 C 1073.93 -3.66347 2.43881 0
M  V30 11575 H 1071.05 -0.522729 0.519541 0
M  V30 11576 H 1073.69 -0.772067 1.73606 0
M  V30 11577 H 1071.84 -3.21225 2.1851 0
M  V30 11578 H 1073.51 -1.67869 4.29671 0
M  V30 11579 H 1071.76 -1.51377 4.06531 0
M  V30 11580 H 1072.43 -3.05944 4.59459 0
M  V30 11581 H 1074.9 -3.18963 2.67211 0
M  V30 11582 H 1073.78 -4.47902 3.17293 0
M  V30 11583 H 1074.04 -4.17183 1.46325 0
M  V30 11584 N 1073.1 -1.28322 -0.914942 0
M  V30 11585 C 1074.35 -1.15407 -1.66396 0
M  V30 11586 C 1074.68 0.297587 -1.9221 0
M  V30 11587 O 1073.93 1.23299 -1.51973 0
M  V30 11588 C 1074.23 -1.89663 -3.02924 0
M  V30 11589 C 1073.9 -3.39464 -2.96774 0
M  V30 11590 C 1072.56 -3.80321 -2.94804 0
M  V30 11591 C 1074.91 -4.3499 -2.87111 0
M  V30 11592 C 1072.24 -5.15046 -2.8097 0
M  V30 11593 C 1074.59 -5.69788 -2.74818 0
M  V30 11594 C 1073.25 -6.09921 -2.71205 0
M  V30 11595 H 1072.52 -0.422303 -0.608885 0
M  V30 11596 H 1075.17 -1.59082 -1.06607 0
M  V30 11597 H 1073.48 -1.38533 -3.66491 0
M  V30 11598 H 1075.17 -1.77087 -3.59779 0
M  V30 11599 H 1071.76 -3.06979 -2.99101 0
M  V30 11600 H 1075.95 -4.04389 -2.87721 0
M  V30 11601 H 1071.2 -5.45271 -2.76568 0
M  V30 11602 H 1075.38 -6.43469 -2.66309 0
M  V30 11603 H 1073 -7.14267 -2.60243 0
M  V30 11604 N 1074.58 1.12322 -1.10551 0
M  V30 11605 C 1075.8 1.8822 -0.871093 0
M  V30 11606 C 1076.23 1.7916 0.573005 0
M  V30 11607 O 1075.59 1.14738 1.40374 0
M  V30 11608 C 1075.63 3.35349 -1.32565 0
M  V30 11609 O 1074.74 4.09461 -0.49145 0
M  V30 11610 H 1074.08 0.584787 -0.314516 0
M  V30 11611 H 1076.61 1.42039 -1.47262 0
M  V30 11612 H 1076.62 3.86189 -1.31612 0
M  V30 11613 H 1075.29 3.4126 -2.37728 0
M  V30 11614 H 1073.87 3.68575 -0.566294 0
M  V30 11615 N 1076.06 0.894434 1.2976 0
M  V30 11616 C 1077.28 0.5322 2.00455 0
M  V30 11617 C 1077.71 -0.874427 1.66539 0
M  V30 11618 O 1077.06 -1.58113 0.887129 0
M  V30 11619 C 1077.11 0.725264 3.53231 0
M  V30 11620 O 1076.22 -0.224612 4.11788 0
M  V30 11621 H 1075.56 0.208562 0.630395 0
M  V30 11622 H 1078.09 1.20458 1.65382 0
M  V30 11623 H 1078.1 0.627889 4.0314 0
M  V30 11624 H 1076.77 1.75079 3.77253 0
M  V30 11625 H 1075.35 -0.0801361 3.72814 0
M  V30 11626 N 1077.53 -1.43282 0.656365 0
M  V30 11627 C 1078.95 -1.85012 0.250475 0
M  V30 11628 C 1079.3 -1.54944 -1.20361 0
M  V30 11629 O 1078.42 -0.999983 -1.9191 0
M  V30 11630 C 1079.02 -3.35827 0.447815 0
M  V30 11631 C 1077.58 -3.76277 0.0962151 0
M  V30 11632 C 1076.72 -2.66988 0.749168 0
M  V30 11633 H 1079.67 -1.3339 0.85982 0
M  V30 11634 H 1079.69 -3.7927 -0.305726 0
M  V30 11635 H 1079.21 -3.5768 1.5062 0
M  V30 11636 H 1077.31 -3.60035 -0.959449 0
M  V30 11637 H 1077.42 -4.76227 0.523875 0
M  V30 11638 H 1075.78 -2.54048 0.18212 0
M  V30 11639 H 1076.57 -2.91669 1.81064 0
M  V30 11640 N 1079.01 -0.398486 -1.52479 0
M  V30 11641 C 1080.42 0.0735015 -1.86555 0
M  V30 11642 C 1080.78 1.45361 -1.31775 0
M  V30 11643 O 1079.9 2.0632 -0.652759 0
M  V30 11644 C 1080.5 0.140152 -3.3851 0
M  V30 11645 C 1079.05 0.556451 -3.72264 0
M  V30 11646 C 1078.2 -0.275792 -2.75925 0
M  V30 11647 H 1081.15 -0.615991 -1.46257 0
M  V30 11648 H 1081.17 0.957507 -3.68255 0
M  V30 11649 H 1080.69 -0.864442 -3.7835 0
M  V30 11650 H 1078.79 1.56808 -3.37997 0
M  V30 11651 H 1078.9 0.308227 -4.78107 0
M  V30 11652 H 1077.26 0.260304 -2.53366 0
M  V30 11653 H 1078.05 -1.27854 -3.18604 0
M  V30 11654 N 1080.49 1.57075 -0.12858 0
M  V30 11655 C 1081.72 2.00305 0.537839 0
M  V30 11656 C 1082.14 1.00787 1.58819 0
M  V30 11657 O 1081.5 -0.0190839 1.8129 0
M  V30 11658 C 1081.55 3.42371 1.13201 0
M  V30 11659 O 1080.65 3.45786 2.24735 0
M  V30 11660 H 1079.99 0.650456 0.133428 0
M  V30 11661 H 1082.52 2.03415 -0.219882 0
M  V30 11662 H 1082.53 3.80783 1.4652 0
M  V30 11663 H 1081.21 4.14315 0.362713 0
M  V30 11664 H 1079.78 3.19201 1.92783 0
M  V30 11665 N 1081.97 -0.145205 1.5693 0
M  V30 11666 C 1083.2 -0.871133 1.87336 0
M  V30 11667 C 1083.61 -1.7517 0.714992 0
M  V30 11668 O 1082.95 -1.80815 -0.324304 0
M  V30 11669 C 1083.01 -1.77775 3.12468 0
M  V30 11670 C 1082.68 -1.07416 4.44197 0
M  V30 11671 C 1083.67 -0.42722 5.18142 0
M  V30 11672 C 1081.36 -1.06313 4.9092 0
M  V30 11673 C 1083.35 0.221348 6.37016 0
M  V30 11674 C 1081.04 -0.410755 6.09718 0
M  V30 11675 C 1082.04 0.230357 6.82611 0
M  V30 11676 O 1081.73 0.872389 7.99152 0
M  V30 11677 H 1081.46 -0.257174 0.62517 0
M  V30 11678 H 1084.01 -0.142159 2.04907 0
M  V30 11679 H 1082.24 -2.54771 2.9091 0
M  V30 11680 H 1083.93 -2.37579 3.29107 0
M  V30 11681 H 1084.7 -0.427536 4.83112 0
M  V30 11682 H 1080.58 -1.55156 4.34105 0
M  V30 11683 H 1084.12 0.722349 6.9385 0
M  V30 11684 H 1080.02 -0.408112 6.44209 0
M  V30 11685 H 1080.78 0.774236 8.1483 0
M  V30 11686 N 1083.45 -1.52049 -0.414609 0
M  V30 11687 C 1084.69 -1.65838 -1.16206 0
M  V30 11688 C 1085.02 -0.385623 -1.90639 0
M  V30 11689 O 1084.28 0.631214 -1.85241 0
M  V30 11690 C 1084.58 -2.82735 -2.18622 0
M  V30 11691 C 1084.24 -4.21163 -1.61037 0
M  V30 11692 C 1082.9 -4.58816 -1.45056 0
M  V30 11693 C 1085.26 -5.0745 -1.18928 0
M  V30 11694 C 1082.58 -5.8044 -0.854761 0
M  V30 11695 C 1084.94 -6.29674 -0.607686 0
M  V30 11696 C 1083.6 -6.66081 -0.434968 0
M  V30 11697 H 1082.87 -0.606845 -0.425229 0
M  V30 11698 H 1085.52 -1.86137 -0.450009 0
M  V30 11699 H 1083.82 -2.56749 -2.95952 0
M  V30 11700 H 1085.52 -2.90601 -2.76319 0
M  V30 11701 H 1082.11 -3.91488 -1.74457 0
M  V30 11702 H 1086.29 -4.78948 -1.30086 0
M  V30 11703 H 1081.55 -6.07276 -0.70891 0
M  V30 11704 H 1085.72 -6.95865 -0.272988 0
M  V30 11705 H 1083.35 -7.60195 0.0288116 0
M  V30 11706 N 1084.93 0.6715 -1.42579 0
M  V30 11707 C 1085.86 1.79703 -1.42266 0
M  V30 11708 C 1086.87 1.59599 -0.321268 0
M  V30 11709 O 1088.06 1.68657 -0.584564 0
M  V30 11710 C 1085.16 3.16859 -1.20224 0
M  V30 11711 C 1084.33 3.63783 -2.42859 0
M  V30 11712 C 1083.39 4.79683 -2.16312 0
M  V30 11713 O 1082.42 4.90058 -2.89537 0
M  V30 11714 N 1083.62 5.68622 -1.16831 0
M  V30 11715 H 1086.38 1.80455 -2.39282 0
M  V30 11716 H 1083.95 0.854708 -1.375 0
M  V30 11717 H 1085.94 3.92054 -1.00376 0
M  V30 11718 H 1084.51 3.10987 -0.317188 0
M  V30 11719 H 1083.73 2.7923 -2.78252 0
M  V30 11720 H 1085.02 3.91877 -3.24514 0
M  V30 11721 H 1084.41 5.62894 -0.562746 0
M  V30 11722 H 1082.97 6.43615 -1.0297 0
M  V30 11723 N 1086.4 1.28806 0.908124 0
M  V30 11724 C 1087.37 1.13228 1.99279 0
M  V30 11725 C 1088.37 0.0702456 1.60646 0
M  V30 11726 O 1089.56 0.316494 1.71301 0
M  V30 11727 N 1087.88 -1.11734 1.11145 0
M  V30 11728 C 1089.11 -1.87215 0.880811 0
M  V30 11729 C 1089.52 -1.80016 -0.569195 0
M  V30 11730 O 1088.88 -1.17926 -1.39283 0
M  V30 11731 C 1088.93 -3.36146 1.32998 0
M  V30 11732 O 1088.65 -3.43187 2.72313 0
M  V30 11733 C 1090.15 -4.28542 1.1343 0
M  V30 11734 H 1087.37 -0.592123 0.315645 0
M  V30 11735 H 1089.92 -1.41335 1.478 0
M  V30 11736 H 1088.07 -3.79542 0.776308 0
M  V30 11737 H 1088.49 -4.359 2.91705 0
M  V30 11738 H 1089.96 -5.31295 1.49764 0
M  V30 11739 H 1090.44 -4.39138 0.0735859 0
M  V30 11740 H 1091.04 -3.90935 1.67481 0
M  V30 11741 N 1089.36 -0.901303 -1.29284 0
M  V30 11742 C 1090.31 -0.351562 -2.25273 0
M  V30 11743 C 1091.29 0.529276 -1.51946 0
M  V30 11744 O 1092.49 0.371031 -1.73068 0
M  V30 11745 C 1089.61 0.41843 -3.4074 0
M  V30 11746 C 1088.7 -0.47742 -4.21404 0
M  V30 11747 N 1089.09 -1.58537 -4.80312 0
M  V30 11748 C 1087.39 -0.275504 -4.45148 0
M  V30 11749 C 1088.09 -2.14041 -5.40889 0
M  V30 11750 N 1087.07 -1.43324 -5.24365 0
M  V30 11751 H 1090.87 -1.1979 -2.68379 0
M  V30 11752 H 1088.38 -0.752538 -1.43912 0
M  V30 11753 H 1090.38 0.829022 -4.08574 0
M  V30 11754 H 1089.04 1.26201 -2.99171 0
M  V30 11755 H 1090.05 -1.96809 -4.79047 0
M  V30 11756 H 1086.73 0.529581 -4.14128 0
M  V30 11757 H 1088.12 -3.07173 -5.97574 0
M  V30 11758 N 1090.84 1.42931 -0.663954 0
M  V30 11759 C 1092.07 2.06028 -0.189808 0
M  V30 11760 C 1092.48 1.49827 1.14879 0
M  V30 11761 O 1091.84 0.633778 1.71142 0
M  V30 11762 C 1091.89 3.61349 -0.104343 0
M  V30 11763 O 1091.61 4.15463 -1.39004 0
M  V30 11764 C 1093.11 4.4154 0.394599 0
M  V30 11765 H 1090.33 0.664259 -0.0948744 0
M  V30 11766 H 1092.87 1.83255 -0.907632 0
M  V30 11767 H 1091.03 3.83271 0.564103 0
M  V30 11768 H 1091.44 5.09233 -1.25626 0
M  V30 11769 H 1092.92 5.50525 0.403329 0
M  V30 11770 H 1093.39 4.1534 1.4279 0
M  V30 11771 H 1094 4.24612 -0.241729 0
M  V30 11772 N 1092.32 0.406567 1.52266 0
M  V30 11773 C 1093.25 -0.45552 2.24628 0
M  V30 11774 C 1094.26 -1.01234 1.27497 0
M  V30 11775 O 1095.45 -0.911718 1.5346 0
M  V30 11776 C 1092.55 -1.64578 2.96256 0
M  V30 11777 C 1091.72 -1.2133 4.20235 0
M  V30 11778 C 1090.78 -2.27018 4.7471 0
M  V30 11779 O 1089.81 -1.87714 5.37357 0
M  V30 11780 N 1091.01 -3.5915 4.56061 0
M  V30 11781 H 1093.77 0.164525 2.99248 0
M  V30 11782 H 1091.34 0.233812 1.60203 0
M  V30 11783 H 1093.33 -2.3484 3.29594 0
M  V30 11784 H 1091.9 -2.1718 2.24837 0
M  V30 11785 H 1091.12 -0.338892 3.92741 0
M  V30 11786 H 1092.41 -0.901268 5.00754 0
M  V30 11787 H 1091.8 -3.93834 4.06092 0
M  V30 11788 H 1090.36 -4.25397 4.93843 0
M  V30 11789 N 1093.79 -1.57004 0.136909 0
M  V30 11790 C 1094.73 -2.13355 -0.837405 0
M  V30 11791 C 1095.74 -1.08053 -1.21772 0
M  V30 11792 O 1096.93 -1.35365 -1.16355 0
M  V30 11793 C 1094.03 -2.63302 -2.13366 0
M  V30 11794 C 1093.2 -3.92896 -1.92228 0
M  V30 11795 C 1092.26 -4.28257 -3.05749 0
M  V30 11796 O 1091.29 -4.96761 -2.7788 0
M  V30 11797 N 1092.49 -3.87021 -4.3266 0
M  V30 11798 H 1095.25 -2.9758 -0.35586 0
M  V30 11799 H 1092.81 -1.61832 -0.0469758 0
M  V30 11800 H 1094.81 -2.83977 -2.88339 0
M  V30 11801 H 1093.38 -1.83858 -2.52814 0
M  V30 11802 H 1092.6 -3.80949 -1.01349 0
M  V30 11803 H 1093.88 -4.776 -1.75431 0
M  V30 11804 H 1093.28 -3.31804 -4.58173 0
M  V30 11805 H 1091.84 -4.12768 -5.04446 0
M  V30 11806 N 1095.27 0.136881 -1.57004 0
M  V30 11807 C 1096.55 0.87705 -1.74835 0
M  V30 11808 C 1096.93 1.98886 -0.707639 0
M  V30 11809 O 1096.28 2.26879 0.271652 0
M  V30 11810 C 1096.49 1.41021 -3.1924 0
M  V30 11811 C 1097.84 1.86963 -3.81222 0
M  V30 11812 O 1098.86 1.5074 -3.22732 0
M  V30 11813 O 1097.72 2.53798 -4.83993 0
M  V30 11814 H 1094.81 0.415192 -0.715223 0
M  V30 11815 H 1097.36 0.122016 -1.69261 0
M  V30 11816 H 1096.13 0.611677 -3.8649 0
M  V30 11817 H 1095.75 2.22846 -3.2928 0
M  V30 11818 N 1096.75 1.52266 0.40654 0
M  V30 11819 C 1098.16 1.58587 0.985241 0
M  V30 11820 C 1098.51 0.427955 1.91476 0
M  V30 11821 O 1097.64 -0.451341 2.11641 0
M  V30 11822 C 1098.23 2.87426 1.79365 0
M  V30 11823 C 1096.79 2.96217 2.32233 0
M  V30 11824 C 1095.94 2.53548 1.12288 0
M  V30 11825 H 1098.89 1.57598 0.186685 0
M  V30 11826 H 1098.91 2.72925 2.65127 0
M  V30 11827 H 1098.42 3.71682 1.11687 0
M  V30 11828 H 1096.52 2.1646 3.03275 0
M  V30 11829 H 1096.64 4.00511 2.62922 0
M  V30 11830 H 1095 2.07457 1.47763 0
M  V30 11831 H 1095.78 3.40181 0.461731 0
M  V30 11832 N 1098.23 -0.663929 1.42933 0
M  V30 11833 C 1099.19 -1.75899 1.46943 0
M  V30 11834 C 1100.19 -1.5682 0.355535 0
M  V30 11835 O 1101.38 -1.62914 0.616833 0
M  V30 11836 C 1098.51 -3.14657 1.31164 0
M  V30 11837 H 1099.71 -1.73727 2.44456 0
M  V30 11838 H 1097.26 -0.874587 1.2954 0
M  V30 11839 H 1097.99 -3.22447 0.346165 0
M  V30 11840 H 1097.78 -3.29909 2.11902 0
M  V30 11841 H 1099.27 -3.9453 1.36878 0
M  V30 11842 N 1099.71 -1.29285 -0.901281 0
M  V30 11843 C 1100.64 -1.16832 -2.0217 0
M  V30 11844 C 1101.62 -0.0629265 -1.69984 0
M  V30 11845 O 1102.8 -0.242123 -1.92685 0
M  V30 11846 C 1099.93 -0.842406 -3.36929 0
M  V30 11847 C 1098.89 -1.90394 -3.8332 0
M  V30 11848 C 1098.21 -1.43138 -5.15185 0
M  V30 11849 C 1099.51 -3.31254 -4.03817 0
M  V30 11850 H 1101.21 -2.10562 -2.12847 0
M  V30 11851 H 1098.75 -1.01375 -1.0227 0
M  V30 11852 H 1100.71 -0.741999 -4.14816 0
M  V30 11853 H 1099.43 0.130598 -3.26339 0
M  V30 11854 H 1098.09 -1.99371 -3.07647 0
M  V30 11855 H 1097.74 -0.447091 -5.01009 0
M  V30 11856 H 1097.44 -2.14129 -5.47195 0
M  V30 11857 H 1098.96 -1.34444 -5.95615 0
M  V30 11858 H 1100.37 -3.25129 -4.72191 0
M  V30 11859 H 1098.77 -4.00189 -4.47178 0
M  V30 11860 H 1099.84 -3.74349 -3.08206 0
M  V30 11861 N 1101.18 1.11143 -1.11736 0
M  V30 11862 C 1102.6 1.64462 -0.883693 0
M  V30 11863 C 1102.95 1.87324 0.583448 0
M  V30 11864 O 1102.07 1.60975 1.44623 0
M  V30 11865 C 1102.67 2.98765 -1.59764 0
M  V30 11866 C 1101.23 3.4898 -1.41032 0
M  V30 11867 C 1100.37 2.23729 -1.63831 0
M  V30 11868 H 1103.32 0.947415 -1.27317 0
M  V30 11869 H 1103.34 3.65885 -1.04443 0
M  V30 11870 H 1102.86 2.82094 -2.66542 0
M  V30 11871 H 1100.96 3.7081 -0.364781 0
M  V30 11872 H 1101.07 4.27571 -2.16148 0
M  V30 11873 H 1099.43 2.31507 -1.06191 0
M  V30 11874 H 1100.22 2.09597 -2.7189 0
M  V30 11875 N 1102.66 0.908147 1.28804 0
M  V30 11876 C 1103.89 0.55409 1.99343 0
M  V30 11877 C 1104.31 -0.863262 1.67908 0
M  V30 11878 O 1103.66 -1.571 0.92875 0
M  V30 11879 C 1103.71 0.746916 3.537 0
M  V30 11880 O 1103.43 2.10849 3.84024 0
M  V30 11881 C 1104.94 0.398939 4.41501 0
M  V30 11882 H 1102.16 0.211784 0.636701 0
M  V30 11883 H 1104.7 1.21981 1.64137 0
M  V30 11884 H 1102.85 0.128264 3.87188 0
M  V30 11885 H 1103.27 2.14404 4.78676 0
M  V30 11886 H 1104.74 0.584656 5.48895 0
M  V30 11887 H 1105.22 -0.664517 4.34144 0
M  V30 11888 H 1105.83 0.994892 4.135 0
M  V30 11889 N 1104.14 -1.42577 0.671525 0
M  V30 11890 C 1105.56 -1.5592 0.340769 0
M  V30 11891 C 1105.76 -1.65179 -1.15405 0
M  V30 11892 O 1104.81 -1.61691 -1.93939 0
M  V30 11893 C 1106.13 -2.81087 1.06821 0
M  V30 11894 C 1107.67 -2.94855 1.05022 0
M  V30 11895 C 1108.15 -4.22878 1.75892 0
M  V30 11896 N 1109.64 -4.29783 1.72744 0
M  V30 11897 C 1110.37 -5.2765 2.24439 0
M  V30 11898 N 1109.87 -6.31689 2.84501 0
M  V30 11899 N 1111.66 -5.19426 2.14832 0
M  V30 11900 H 1103.81 -1.34811 1.64133 0
M  V30 11901 H 1106.08 -0.648704 0.691294 0
M  V30 11902 H 1105.78 -2.80371 2.12332 0
M  V30 11903 H 1105.66 -3.71879 0.631356 0
M  V30 11904 H 1108.04 -2.951 0.00345633 0
M  V30 11905 H 1108.13 -2.05303 1.52592 0
M  V30 11906 H 1107.77 -4.23394 2.80535 0
M  V30 11907 H 1107.7 -5.1136 1.25773 0
M  V30 11908 H 1110.19 -3.55225 1.28932 0
M  V30 11909 H 1110.5 -7.02715 3.21575 0
M  V30 11910 H 1108.85 -6.3226 2.88569 0
M  V30 11911 H 1112.04 -4.37067 1.676 0
M  V30 11912 H 1112.21 -5.95535 2.55426 0
M  V30 11913 N 1105.62 -0.414636 -1.52048 0
M  V30 11914 C 1106.53 0.414861 -2.30903 0
M  V30 11915 C 1107.54 1.04855 -1.38858 0
M  V30 11916 O 1108.72 1.04886 -1.71933 0
M  V30 11917 C 1105.79 1.51356 -3.11917 0
M  V30 11918 C 1104.85 0.902359 -4.19709 0
M  V30 11919 C 1104.08 1.9487 -4.96852 0
M  V30 11920 O 1104.3 3.16766 -4.74358 0
M  V30 11921 O 1103.24 1.55186 -5.8155 0
M  V30 11922 H 1107.06 -0.228251 -3.02841 0
M  V30 11923 H 1104.65 -0.177704 -1.48339 0
M  V30 11924 H 1106.53 2.15127 -3.62351 0
M  V30 11925 H 1105.2 2.14117 -2.42767 0
M  V30 11926 H 1104.11 0.22721 -3.73409 0
M  V30 11927 H 1105.44 0.318587 -4.91168 0
M  V30 11928 N 1107.1 1.56929 -0.145233 0
M  V30 11929 C 1108.34 1.95681 0.50532 0
M  V30 11930 C 1108.67 1.03098 1.65516 0
M  V30 11931 O 1107.94 0.0921961 1.95683 0
M  V30 11932 H 1106.52 0.72252 0.189668 0
M  V30 11933 H 1109.18 1.93651 -0.220318 0
M  V30 11934 H 1108.27 2.99359 0.882631 0
M  V30 11935 N 1108.58 -0.128553 1.57075 0
M  V30 11936 C 1109.52 -1.15812 1.9964 0
M  V30 11937 C 1110.49 -1.41679 0.86696 0
M  V30 11938 O 1111.68 -1.53705 1.13046 0
M  V30 11939 C 1108.82 -2.48198 2.39774 0
M  V30 11940 C 1107.93 -2.29348 3.66092 0
M  V30 11941 C 1107.07 -3.54898 3.95248 0
M  V30 11942 C 1106.1 -3.31164 5.14779 0
M  V30 11943 N 1105.24 -4.48891 5.39853 0
M  V30 11944 H 1110.08 -0.788136 2.87389 0
M  V30 11945 H 1107.62 -0.377682 1.42169 0
M  V30 11946 H 1109.58 -3.25414 2.61077 0
M  V30 11947 H 1108.21 -2.83108 1.5508 0
M  V30 11948 H 1107.26 -1.43095 3.5246 0
M  V30 11949 H 1108.57 -2.07781 4.53463 0
M  V30 11950 H 1107.72 -4.40536 4.17148 0
M  V30 11951 H 1106.46 -3.79487 3.06335 0
M  V30 11952 H 1105.47 -2.43915 4.92733 0
M  V30 11953 H 1106.69 -3.07954 6.05261 0
M  V30 11954 H 1104.64 -4.73619 4.53895 0
M  V30 11955 H 1104.56 -4.30394 6.21528 0
M  V30 11956 H 1105.82 -5.35691 5.66265 0
M  V30 11957 N 1110.05 -1.5248 -0.398459 0
M  V30 11958 C 1110.96 -1.79492 -1.51062 0
M  V30 11959 C 1111.98 -0.681101 -1.60116 0
M  V30 11960 O 1113.16 -0.967671 -1.7663 0
M  V30 11961 C 1110.22 -1.94958 -2.86692 0
M  V30 11962 C 1109.28 -3.1887 -2.87438 0
M  V30 11963 C 1108.51 -3.33588 -4.16599 0
M  V30 11964 O 1108.74 -2.53327 -5.11059 0
M  V30 11965 O 1107.67 -4.26795 -4.24416 0
M  V30 11966 H 1111.5 -2.73913 -1.31169 0
M  V30 11967 H 1109.08 -1.37455 -0.585372 0
M  V30 11968 H 1110.96 -2.06891 -3.67116 0
M  V30 11969 H 1109.64 -1.03726 -3.06631 0
M  V30 11970 H 1108.55 -3.12386 -2.0583 0
M  V30 11971 H 1109.88 -4.09917 -2.7245 0
M  V30 11972 N 1111.53 0.65634 -1.43283 0
M  V30 11973 C 1112.78 1.41347 -1.44449 0
M  V30 11974 C 1113.1 1.94879 -0.0687217 0
M  V30 11975 O 1112.37 1.74235 0.895492 0
M  V30 11976 H 1110.95 0.524578 -0.531815 0
M  V30 11977 H 1113.61 0.774292 -1.7886 0
M  V30 11978 H 1112.71 2.25737 -2.15521 0
M  V30 11979 N 1113.01 1.29761 0.894412 0
M  V30 11980 C 1114.29 1.08711 1.62608 0
M  V30 11981 C 1114.67 -0.366907 2.07887 0
M  V30 11982 O 1114.01 -1.35669 1.83865 0
M  V30 11983 C 1114.22 2.07947 2.80284 0
M  V30 11984 C 1115.57 2.39153 3.50843 0
M  V30 11985 O 1116.6 2.06183 2.9046 0
M  V30 11986 O 1115.46 2.95509 4.59713 0
M  V30 11987 H 1112.55 0.416866 0.714249 0
M  V30 11988 H 1115.1 1.41153 0.942015 0
M  V30 11989 H 1113.87 3.05859 2.44061 0
M  V30 11990 H 1113.49 1.76266 3.56393 0
M  V30 11991 N 1114.49 -1.10549 1.12324 0
M  V30 11992 C 1115.74 -1.82124 0.876083 0
M  V30 11993 C 1116.06 -1.85547 -0.599761 0
M  V30 11994 O 1115.33 -1.33269 -1.43584 0
M  V30 11995 H 1113.91 -0.674455 0.321122 0
M  V30 11996 H 1116.57 -1.33766 1.41748 0
M  V30 11997 H 1115.66 -2.85688 1.25653 0
M  V30 11998 N 1115.97 -0.914965 -1.28321 0
M  V30 11999 C 1117.21 -0.547665 -1.94538 0
M  V30 12000 C 1117.53 0.911834 -1.72368 0
M  V30 12001 O 1116.8 1.64481 -1.06408 0
M  V30 12002 H 1115.38 -0.199549 -0.719853 0
M  V30 12003 H 1118.05 -1.16459 -1.5628 0
M  V30 12004 H 1117.14 -0.743138 -3.03124 0
M  V30 12005 N 1117.44 1.42219 -0.679077 0
M  V30 12006 C 1118.35 2.346 -0.00345919 0
M  V30 12007 C 1119.37 1.55327 0.784181 0
M  V30 12008 O 1120.55 1.87878 0.725524 0
M  V30 12009 C 1117.61 3.33905 0.933194 0
M  V30 12010 C 1116.67 4.29073 0.139607 0
M  V30 12011 C 1115.9 5.23634 1.03165 0
M  V30 12012 O 1116.13 5.23234 2.27119 0
M  V30 12013 O 1115.06 5.99901 0.490159 0
M  V30 12014 H 1118.89 2.9392 -0.764525 0
M  V30 12015 H 1116.47 1.42794 -0.439329 0
M  V30 12016 H 1118.35 3.949 1.47077 0
M  V30 12017 H 1117.03 2.77052 1.67404 0
M  V30 12018 H 1115.94 3.71478 -0.442177 0
M  V30 12019 H 1117.27 4.88979 -0.562214 0
M  V30 12020 N 1118.92 0.422693 1.51826 0
M  V30 12021 C 1120.17 -0.148348 2.01555 0
M  V30 12022 C 1120.49 -1.44483 1.30956 0
M  V30 12023 O 1119.76 -1.90904 0.439599 0
M  V30 12024 H 1118.34 -0.0578116 0.74476 0
M  V30 12025 H 1121 0.562046 1.8662 0
M  V30 12026 H 1120.1 -0.334766 3.10299 0
M  V30 12027 N 1120.4 -1.5685 0.153553 0
M  V30 12028 C 1121.65 -1.95946 -0.494936 0
M  V30 12029 C 1121.97 -1.03975 -1.64967 0
M  V30 12030 O 1121.24 -0.102572 -1.95631 0
M  V30 12031 H 1119.82 -0.723516 -0.185833 0
M  V30 12032 H 1122.48 -1.93531 0.230585 0
M  V30 12033 H 1121.58 -2.99823 -0.866743 0
M  V30 12034 N 1121.88 0.120221 -1.57141 0
M  V30 12035 C 1123.13 0.826586 -1.84423 0
M  V30 12036 C 1123.45 1.80473 -0.738553 0
M  V30 12037 O 1122.72 1.94454 0.23755 0
M  V30 12038 H 1121.3 0.308246 -0.680436 0
M  V30 12039 H 1123.96 0.107835 -1.94601 0
M  V30 12040 H 1123.05 1.37256 -2.80298 0
M  V30 12041 N 1123.36 1.52689 0.390367 0
M  V30 12042 C 1124.3 1.78007 1.4972 0
M  V30 12043 C 1125.3 0.647948 1.56518 0
M  V30 12044 O 1126.5 0.830398 1.59701 0
M  V30 12045 H 1122.88 0.56322 0.498284 0
M  V30 12046 H 1124.85 2.70698 1.25559 0
M  V30 12047 C 1123.6 1.96469 2.86872 0
M  V30 12048 H 1122.92 2.83012 2.82391 0
M  V30 12049 H 1124.36 2.18174 3.6356 0
M  V30 12050 C 1122.82 0.736847 3.28743 0
M  V30 12051 O 1123.35 -0.0863743 4.01607 0
M  V30 12052 N 1121.56 0.56735 2.85008 0
M  V30 12053 H 1121.1 1.23838 2.2588 0
M  V30 12054 H 1121.06 -0.252831 3.13382 0
M  V30 12055 N 1124.83 -0.648732 1.43629 0
M  V30 12056 C 1126.06 -1.44117 1.49148 0
M  V30 12057 C 1126.48 -1.87767 0.111952 0
M  V30 12058 O 1125.84 -1.57655 -0.895249 0
M  V30 12059 C 1125.89 -2.64938 2.44623 0
M  V30 12060 O 1124.99 -3.64155 1.93559 0
M  V30 12061 H 1124.34 -0.431933 0.504312 0
M  V30 12062 H 1126.87 -0.793439 1.88589 0
M  V30 12063 H 1126.88 -3.12698 2.62076 0
M  V30 12064 H 1125.55 -2.3251 3.44836 0
M  V30 12065 H 1124.13 -3.23322 1.85789 0
M  V30 12066 N 1126.31 -1.30234 -0.887518 0
M  V30 12067 C 1127.54 -1.21955 -1.67755 0
M  V30 12068 C 1127.96 0.214701 -1.86871 0
M  V30 12069 O 1127.32 1.15459 -1.39782 0
M  V30 12070 C 1127.37 -1.95079 -3.03276 0
M  V30 12071 O 1126.47 -1.27615 -3.92158 0
M  V30 12072 H 1125.81 -0.421948 -0.512695 0
M  V30 12073 H 1128.34 -1.72011 -1.10785 0
M  V30 12074 H 1128.35 -2.04004 -3.53336 0
M  V30 12075 H 1127.03 -2.99392 -2.88682 0
M  V30 12076 H 1125.61 -1.27029 -3.50597 0
M  V30 12077 N 1127.79 1.09952 -1.12909 0
M  V30 12078 C 1129.04 1.82467 -0.898733 0
M  V30 12079 C 1129.39 1.83788 0.569196 0
M  V30 12080 O 1128.68 1.29117 1.4156 0
M  V30 12081 C 1128.88 3.28252 -1.41369 0
M  V30 12082 C 1128.71 3.41133 -2.93015 0
M  V30 12083 C 1127.48 3.53253 -3.61304 0
M  V30 12084 C 1129.68 3.34118 -3.90986 0
M  V30 12085 N 1127.66 3.54762 -5.01016 0
M  V30 12086 C 1129.03 3.42431 -5.16857 0
M  V30 12087 C 1131.08 3.1775 -3.83327 0
M  V30 12088 C 1129.79 3.36063 -6.35967 0
M  V30 12089 C 1131.81 3.12705 -5.01966 0
M  V30 12090 C 1131.17 3.21605 -6.26697 0
M  V30 12091 H 1127.27 0.682232 -0.382208 0
M  V30 12092 H 1129.86 1.31446 -1.43631 0
M  V30 12093 H 1128.03 3.77755 -0.903097 0
M  V30 12094 H 1129.76 3.88752 -1.12489 0
M  V30 12095 H 1126.52 3.56472 -3.11809 0
M  V30 12096 H 1126.94 3.59115 -5.73904 0
M  V30 12097 H 1131.58 3.09742 -2.87784 0
M  V30 12098 H 1129.3 3.42835 -7.31772 0
M  V30 12099 H 1132.89 3.01183 -4.97775 0
M  V30 12100 H 1131.77 3.1771 -7.16959 0
M  V30 12101 N 1129.27 0.921757 1.27833 0
M  V30 12102 C 1130.68 0.604496 1.76643 0
M  V30 12103 C 1131.03 -0.880294 1.75343 0
M  V30 12104 O 1130.16 -1.68875 1.35315 0
M  V30 12105 C 1130.75 1.09055 3.20768 0
M  V30 12106 C 1129.31 0.824066 3.67268 0
M  V30 12107 C 1128.46 1.25269 2.47392 0
M  V30 12108 H 1131.41 1.10217 1.14184 0
M  V30 12109 H 1131.43 0.435558 3.77999 0
M  V30 12110 H 1130.94 2.17122 3.21682 0
M  V30 12111 H 1129.04 -0.243055 3.71806 0
M  V30 12112 H 1129.15 1.43743 4.57028 0
M  V30 12113 H 1127.52 0.671313 2.45694 0
M  V30 12114 H 1128.3 2.34188 2.5102 0
M  V30 12115 N 1130.75 -1.41857 0.686609 0
M  V30 12116 C 1131.99 -2.02176 0.22284 0
M  V30 12117 C 1132.35 -1.53373 -1.16165 0
M  V30 12118 O 1131.64 -0.73123 -1.77098 0
M  V30 12119 C 1131.83 -3.56783 0.209951 0
M  V30 12120 C 1131.66 -4.20591 1.59166 0
M  V30 12121 C 1130.43 -4.55264 2.19232 0
M  V30 12122 C 1132.63 -4.47394 2.53659 0
M  V30 12123 N 1130.61 -5.04313 3.5006 0
M  V30 12124 C 1131.98 -4.98121 3.69155 0
M  V30 12125 C 1134.04 -4.29396 2.52039 0
M  V30 12126 C 1132.74 -5.32741 4.83301 0
M  V30 12127 C 1134.77 -4.65099 3.65291 0
M  V30 12128 C 1134.13 -5.15988 4.79516 0
M  V30 12129 H 1130.23 -0.771663 0.126731 0
M  V30 12130 H 1132.81 -1.72538 0.902153 0
M  V30 12131 H 1130.98 -3.85913 -0.438816 0
M  V30 12132 H 1132.72 -4.03813 -0.267806 0
M  V30 12133 H 1129.47 -4.41417 1.71604 0
M  V30 12134 H 1129.9 -5.33253 4.17098 0
M  V30 12135 H 1134.54 -3.89296 1.64949 0
M  V30 12136 H 1132.26 -5.71767 5.71058 0
M  V30 12137 H 1135.84 -4.52839 3.65279 0
M  V30 12138 H 1134.72 -5.43098 5.65698 0
M  V30 12139 N 1132.22 -0.430739 -1.51599 0
M  V30 12140 C 1133.16 0.419726 -2.25324 0
M  V30 12141 C 1134.17 0.991925 -1.29092 0
M  V30 12142 O 1135.36 0.887188 -1.54891 0
M  V30 12143 C 1132.46 1.59844 -2.98836 0
M  V30 12144 C 1131.63 1.14629 -4.22112 0
M  V30 12145 C 1130.69 2.19437 -4.78261 0
M  V30 12146 O 1129.72 1.79141 -5.40275 0
M  V30 12147 N 1130.92 3.51849 -4.61717 0
M  V30 12148 H 1133.68 -0.212112 -2.98948 0
M  V30 12149 H 1131.24 -0.259269 -1.59811 0
M  V30 12150 H 1133.24 2.29567 -3.33288 0
M  V30 12151 H 1131.81 2.13575 -2.28264 0
M  V30 12152 H 1131.03 0.276367 -3.9323 0
M  V30 12153 H 1132.31 0.821488 -5.02124 0
M  V30 12154 H 1131.71 3.87324 -4.12306 0
M  V30 12155 H 1130.27 4.17486 -5.00548 0
M  V30 12156 N 1133.7 1.56767 -0.161869 0
M  V30 12157 C 1134.95 1.95769 0.485536 0
M  V30 12158 C 1135.26 1.05006 1.65025 0
M  V30 12159 O 1136.47 1.33649 2.36326 0
M  V30 12160 C 1134.93 3.4807 0.915176 0
M  V30 12161 C 1134.53 4.47443 -0.223416 0
M  V30 12162 C 1136.28 3.95909 1.53153 0
M  V30 12163 C 1134.19 5.90971 0.225325 0
M  V30 12164 H 1133.12 0.730911 0.185161 0
M  V30 12165 H 1135.77 1.81808 -0.248592 0
M  V30 12166 H 1134.15 3.57415 1.705 0
M  V30 12167 H 1135.32 4.49805 -1.00061 0
M  V30 12168 H 1133.64 4.09606 -0.749127 0
M  V30 12169 H 1136.23 5.00592 1.87915 0
M  V30 12170 H 1136.58 3.38307 2.42599 0
M  V30 12171 H 1137.11 3.89542 0.806322 0
M  V30 12172 H 1133.85 6.52426 -0.634124 0
M  V30 12173 H 1133.37 5.91936 0.96808 0
M  V30 12174 H 1135.05 6.43497 0.672373 0
M  V30 12175 N 1135.18 -0.111886 1.57202 0
M  V30 12176 C 1136.09 -1.1556 2.04165 0
M  V30 12177 C 1137.11 -1.44898 0.963354 0
M  V30 12178 O 1138.28 -1.55873 1.27536 0
M  V30 12179 C 1135.35 -2.46048 2.44256 0
M  V30 12180 C 1134.41 -2.24043 3.66201 0
M  V30 12181 C 1133.64 -3.4831 4.04371 0
M  V30 12182 O 1133.86 -4.55895 3.42806 0
M  V30 12183 O 1132.8 -3.38891 4.9743 0
M  V30 12184 H 1136.62 -0.786778 2.93332 0
M  V30 12185 H 1134.21 -0.323196 1.45862 0
M  V30 12186 H 1136.09 -3.22916 2.70745 0
M  V30 12187 H 1134.77 -2.8239 1.58233 0
M  V30 12188 H 1133.67 -1.4501 3.44852 0
M  V30 12189 H 1135.01 -1.92602 4.52952 0
M  V30 12190 N 1136.66 -1.52894 -0.382264 0
M  V30 12191 C 1137.89 -1.71902 -1.146 0
M  V30 12192 C 1138.3 -0.44017 -1.84009 0
M  V30 12193 O 1137.64 0.595616 -1.73776 0
M  V30 12194 C 1137.7 -2.81785 -2.23244 0
M  V30 12195 C 1137.37 -4.22684 -1.73745 0
M  V30 12196 C 1138.36 -5.05611 -1.21054 0
M  V30 12197 C 1136.05 -4.69031 -1.79763 0
M  V30 12198 C 1138.04 -6.32968 -0.750368 0
M  V30 12199 C 1135.73 -5.96371 -1.33358 0
M  V30 12200 C 1136.73 -6.7817 -0.810832 0
M  V30 12201 O 1136.41 -8.03122 -0.353577 0
M  V30 12202 H 1136.15 -0.578767 -0.349292 0
M  V30 12203 H 1138.7 -2.00359 -0.452246 0
M  V30 12204 H 1136.93 -2.48764 -2.96063 0
M  V30 12205 H 1138.62 -2.89131 -2.84883 0
M  V30 12206 H 1139.39 -4.70984 -1.15755 0
M  V30 12207 H 1135.26 -4.05447 -2.19394 0
M  V30 12208 H 1138.81 -6.96763 -0.341666 0
M  V30 12209 H 1134.71 -6.30501 -1.38344 0
M  V30 12210 H 1135.47 -8.17124 -0.474439 0
M  V30 12211 N 1138.14 0.641106 -1.43971 0
M  V30 12212 C 1139.39 1.39676 -1.45511 0
M  V30 12213 C 1139.7 1.95403 -0.0877084 0
M  V30 12214 O 1140.91 2.71493 0.0193965 0
M  V30 12215 C 1139.36 2.52839 -2.56126 0
M  V30 12216 C 1138.97 2.03668 -3.99028 0
M  V30 12217 C 1140.71 3.30118 -2.66875 0
M  V30 12218 C 1138.62 3.14114 -5.01085 0
M  V30 12219 H 1137.55 0.524854 -0.541336 0
M  V30 12220 H 1140.2 0.69075 -1.70003 0
M  V30 12221 H 1138.58 3.25968 -2.24857 0
M  V30 12222 H 1139.76 1.3747 -4.39817 0
M  V30 12223 H 1138.07 1.39233 -3.92432 0
M  V30 12224 H 1140.67 4.12434 -3.40297 0
M  V30 12225 H 1141.01 3.78946 -1.72353 0
M  V30 12226 H 1141.55 2.64075 -2.97505 0
M  V30 12227 H 1138.28 2.70241 -5.97202 0
M  V30 12228 H 1137.8 3.78985 -4.64898 0
M  V30 12229 H 1139.48 3.79051 -5.24337 0
M  V30 12230 N 1139.62 1.30703 0.880598 0
M  V30 12231 C 1140.57 1.14062 1.97418 0
M  V30 12232 C 1141.55 0.0545541 1.60807 0
M  V30 12233 O 1142.74 0.278344 1.74798 0
M  V30 12234 C 1139.87 0.839062 3.32888 0
M  V30 12235 C 1138.96 1.96559 3.75799 0
M  V30 12236 N 1139.35 3.21145 3.90768 0
M  V30 12237 C 1137.65 1.86294 4.05229 0
M  V30 12238 C 1138.35 3.94766 4.27241 0
M  V30 12239 N 1137.32 3.2285 4.37343 0
M  V30 12240 H 1141.12 2.08548 2.07087 0
M  V30 12241 H 1138.64 1.22106 1.0707 0
M  V30 12242 H 1140.64 0.700851 4.10967 0
M  V30 12243 H 1139.3 -0.0976808 3.24553 0
M  V30 12244 H 1140.31 3.56384 3.75781 0
M  V30 12245 H 1136.98 1.00016 4.05343 0
M  V30 12246 H 1138.37 5.02076 4.46508 0
M  V30 12247 N 1141.09 -1.09351 1.1349 0
M  V30 12248 C 1142.34 -1.81543 0.897123 0
M  V30 12249 C 1142.67 -1.85754 -0.576703 0
M  V30 12250 O 1141.92 -1.32213 -1.44285 0
M  V30 12251 C 1142.22 -3.27498 1.43108 0
M  V30 12252 C 1141.89 -3.4342 2.92188 0
M  V30 12253 C 1140.55 -3.47473 3.32891 0
M  V30 12254 C 1142.9 -3.47894 3.88097 0
M  V30 12255 C 1140.23 -3.5358 4.68186 0
M  V30 12256 C 1142.58 -3.55535 5.23238 0
M  V30 12257 C 1141.25 -3.57857 5.63467 0
M  V30 12258 H 1140.52 -0.664314 0.32828 0
M  V30 12259 H 1143.16 -1.28819 1.41697 0
M  V30 12260 H 1141.47 -3.82865 0.831946 0
M  V30 12261 H 1143.17 -3.8189 1.22316 0
M  V30 12262 H 1139.76 -3.4095 2.59713 0
M  V30 12263 H 1143.94 -3.44002 3.57737 0
M  V30 12264 H 1139.2 -3.53665 4.9873 0
M  V30 12265 H 1143.37 -3.57942 5.9737 0
M  V30 12266 H 1141 -3.62341 6.68291 0
M  V30 12267 N 1142.57 -0.928524 -1.27343 0
M  V30 12268 C 1143.5 -0.445627 -2.29208 0
M  V30 12269 C 1144.48 0.494508 -1.62753 0
M  V30 12270 O 1145.67 0.399082 -1.90055 0
M  V30 12271 C 1142.8 0.301684 -3.45987 0
M  V30 12272 C 1141.75 -0.550695 -4.24442 0
M  V30 12273 C 1141.08 0.325833 -5.33706 0
M  V30 12274 C 1142.38 -1.81559 -4.89728 0
M  V30 12275 H 1144.07 -1.29696 -2.69851 0
M  V30 12276 H 1141.62 -0.625085 -1.29725 0
M  V30 12277 H 1143.57 0.650455 -4.1635 0
M  V30 12278 H 1142.29 1.18705 -3.04264 0
M  V30 12279 H 1140.95 -0.882185 -3.55827 0
M  V30 12280 H 1140.6 1.21018 -4.88225 0
M  V30 12281 H 1140.3 -0.240994 -5.87106 0
M  V30 12282 H 1141.83 0.670156 -6.06911 0
M  V30 12283 H 1143.24 -1.53483 -5.52373 0
M  V30 12284 H 1141.64 -2.32598 -5.53189 0
M  V30 12285 H 1142.71 -2.53461 -4.13383 0
M  V30 12286 N 1144.05 1.41491 -0.694123 0
M  V30 12287 C 1145.3 2.00479 -0.221585 0
M  V30 12288 C 1145.61 1.55605 1.18518 0
M  V30 12289 O 1146.82 2.07143 1.7551 0
M  V30 12290 C 1145.27 3.5824 -0.345264 0
M  V30 12291 C 1144.88 4.12096 -1.7573 0
M  V30 12292 C 1146.63 4.24446 0.0675731 0
M  V30 12293 C 1144.53 5.62286 -1.83271 0
M  V30 12294 H 1143.46 0.749841 -0.0790854 0
M  V30 12295 H 1146.11 1.61987 -0.86211 0
M  V30 12296 H 1144.5 3.94328 0.363487 0
M  V30 12297 H 1145.67 3.8743 -2.49469 0
M  V30 12298 H 1143.98 3.58411 -2.11969 0
M  V30 12299 H 1146.58 5.34691 0.0316485 0
M  V30 12300 H 1146.92 4.01338 1.10606 0
M  V30 12301 H 1147.46 3.93388 -0.59085 0
M  V30 12302 H 1144.2 5.9022 -2.85168 0
M  V30 12303 H 1143.72 5.88883 -1.13914 0
M  V30 12304 H 1145.4 6.27033 -1.59494 0
M  V30 12305 N 1145.53 0.438773 1.51369 0
M  V30 12306 C 1146.94 0.0911416 1.5934 0
M  V30 12307 C 1147.14 -1.39962 1.44958 0
M  V30 12308 O 1146.2 -2.16968 1.29155 0
M  V30 12309 C 1147.51 0.612531 2.94395 0
M  V30 12310 C 1149.06 0.573098 3.07709 0
M  V30 12311 C 1149.54 1.07149 4.4529 0
M  V30 12312 N 1151.03 1.02953 4.51614 0
M  V30 12313 C 1151.76 1.38602 5.56397 0
M  V30 12314 N 1151.26 1.81543 6.68591 0
M  V30 12315 N 1153.05 1.30409 5.46763 0
M  V30 12316 H 1145.2 1.40872 1.58962 0
M  V30 12317 H 1147.46 0.580589 0.749414 0
M  V30 12318 H 1147.17 1.65562 3.10294 0
M  V30 12319 H 1147.04 0.0382375 3.77181 0
M  V30 12320 H 1149.43 -0.461006 2.91477 0
M  V30 12321 H 1149.51 1.18381 2.26759 0
M  V30 12322 H 1149.16 2.10406 4.62268 0
M  V30 12323 H 1149.09 0.437297 5.24781 0
M  V30 12324 H 1151.58 0.714208 3.7109 0
M  V30 12325 H 1151.89 2.06977 7.44567 0
M  V30 12326 H 1150.24 1.8547 6.69795 0
M  V30 12327 H 1153.43 0.967272 4.57997 0
M  V30 12328 H 1153.6 1.5852 6.28312 0
M  V30 12329 N 1147.01 -1.56678 0.170181 0
M  V30 12330 C 1147.94 -2.15083 -0.791961 0
M  V30 12331 C 1148.95 -1.10612 -1.19452 0
M  V30 12332 O 1150.14 -1.37803 -1.13457 0
M  V30 12333 C 1147.24 -2.67769 -2.07733 0
M  V30 12334 C 1146.41 -3.96885 -1.83851 0
M  V30 12335 C 1145.47 -4.34646 -2.96596 0
M  V30 12336 O 1144.5 -5.02543 -2.67281 0
M  V30 12337 N 1145.7 -3.96112 -4.24353 0
M  V30 12338 H 1148.46 -2.98268 -0.292658 0
M  V30 12339 H 1146.03 -1.61895 -0.0126383 0
M  V30 12340 H 1148.02 -2.90029 -2.8225 0
M  V30 12341 H 1146.59 -1.89179 -2.48858 0
M  V30 12342 H 1145.81 -3.83013 -0.932452 0
M  V30 12343 H 1147.1 -4.81213 -1.65261 0
M  V30 12344 H 1146.49 -3.41448 -4.51032 0
M  V30 12345 H 1145.05 -4.23375 -4.95577 0
M  V30 12346 N 1148.48 0.103547 -1.57259 0
M  V30 12347 C 1149.41 1.12714 -2.04494 0
M  V30 12348 C 1150.39 1.42278 -0.932255 0
M  V30 12349 O 1151.58 1.52453 -1.20298 0
M  V30 12350 C 1148.71 2.44927 -2.46228 0
M  V30 12351 C 1147.66 2.2979 -3.61082 0
M  V30 12352 C 1146.99 3.67105 -3.88765 0
M  V30 12353 C 1148.29 1.7455 -4.9227 0
M  V30 12354 H 1149.98 0.734198 -2.90258 0
M  V30 12355 H 1147.53 0.351725 -1.39638 0
M  V30 12356 H 1149.48 3.16798 -2.77879 0
M  V30 12357 H 1148.21 2.8614 -1.57453 0
M  V30 12358 H 1146.87 1.60366 -3.29664 0
M  V30 12359 H 1146.51 4.05831 -2.97171 0
M  V30 12360 H 1146.21 3.57825 -4.66084 0
M  V30 12361 H 1147.74 4.40456 -4.22884 0
M  V30 12362 H 1149.15 2.36253 -5.22358 0
M  V30 12363 H 1147.55 1.76051 -5.73695 0
M  V30 12364 H 1148.62 0.704242 -4.79759 0
M  V30 12365 N 1149.96 1.53094 0.37415 0
M  V30 12366 C 1151.21 1.68082 1.11495 0
M  V30 12367 C 1151.52 0.434685 1.90709 0
M  V30 12368 O 1152.73 0.464956 2.67489 0
M  V30 12369 C 1151.19 2.97101 2.03124 0
M  V30 12370 C 1150.79 4.28947 1.29262 0
M  V30 12371 C 1152.54 3.21456 2.77248 0
M  V30 12372 C 1150.44 5.4906 2.19743 0
M  V30 12373 H 1149.37 0.626238 0.419931 0
M  V30 12374 H 1152.03 1.79594 0.376588 0
M  V30 12375 H 1150.41 2.79371 2.80656 0
M  V30 12376 H 1151.58 4.57279 0.568528 0
M  V30 12377 H 1149.9 4.10968 0.670362 0
M  V30 12378 H 1152.49 4.08377 3.45155 0
M  V30 12379 H 1152.84 2.37153 3.42146 0
M  V30 12380 H 1153.37 3.3982 2.06803 0
M  V30 12381 H 1150.11 6.35815 1.59437 0
M  V30 12382 H 1149.63 5.25019 2.90027 0
M  V30 12383 H 1151.31 5.83517 2.79495 0
M  V30 12384 N 1151.44 -0.633461 1.44309 0
M  V30 12385 C 1152.86 -0.951379 1.28144 0
M  V30 12386 C 1153.06 -2.00344 0.215512 0
M  V30 12387 O 1152.11 -2.49321 -0.399389 0
M  V30 12388 C 1153.42 -1.41686 2.65227 0
M  V30 12389 C 1154.97 -1.53247 2.72918 0
M  V30 12390 C 1155.45 -2.03179 4.10466 0
M  V30 12391 N 1156.94 -2.10453 4.1263 0
M  V30 12392 C 1157.67 -2.50254 5.15907 0
M  V30 12393 N 1157.17 -2.89209 6.29547 0
M  V30 12394 N 1158.96 -2.50368 5.03262 0
M  V30 12395 H 1151.11 0.0623574 2.12308 0
M  V30 12396 H 1153.38 -0.0347244 0.947364 0
M  V30 12397 H 1153.08 -0.71814 3.4429 0
M  V30 12398 H 1152.96 -2.3883 2.91959 0
M  V30 12399 H 1155.34 -2.22216 1.94176 0
M  V30 12400 H 1155.42 -0.544836 2.4993 0
M  V30 12401 H 1155.07 -1.34806 4.89683 0
M  V30 12402 H 1155 -3.02809 4.3083 0
M  V30 12403 H 1157.49 -1.83042 3.30612 0
M  V30 12404 H 1157.8 -3.18386 7.04166 0
M  V30 12405 H 1156.15 -2.86966 6.32989 0
M  V30 12406 H 1159.34 -2.19324 4.13539 0
M  V30 12407 H 1159.51 -2.81062 5.83873 0
M  V30 12408 N 1152.92 -1.31168 -0.873655 0
M  V30 12409 C 1153.85 -1.21094 -1.99646 0
M  V30 12410 C 1154.83 -0.0989684 -1.69812 0
M  V30 12411 O 1156.01 -0.282939 -1.92128 0
M  V30 12412 C 1153.14 -0.913684 -3.35066 0
M  V30 12413 C 1152.1 -1.98482 -3.79195 0
M  V30 12414 C 1151.42 -1.54033 -5.12033 0
M  V30 12415 C 1152.72 -3.39745 -3.96699 0
M  V30 12416 H 1154.42 -2.1503 -2.08333 0
M  V30 12417 H 1151.96 -1.03521 -1.00097 0
M  V30 12418 H 1153.92 -0.829821 -4.13149 0
M  V30 12419 H 1152.64 0.0613471 -3.26542 0
M  V30 12420 H 1151.3 -2.05851 -3.03349 0
M  V30 12421 H 1150.95 -0.553261 -4.99948 0
M  V30 12422 H 1150.65 -2.25688 -5.4253 0
M  V30 12423 H 1152.17 -1.47047 -5.92629 0
M  V30 12424 H 1153.59 -3.35071 -4.65188 0
M  V30 12425 H 1151.98 -4.09585 -4.38589 0
M  V30 12426 H 1153.05 -3.80802 -3.00196 0
M  V30 12427 N 1154.4 1.08748 -1.14068 0
M  V30 12428 C 1155.33 2.17591 -0.84714 0
M  V30 12429 C 1156.31 1.68962 0.196415 0
M  V30 12430 O 1157.49 1.94125 0.0538415 0
M  V30 12431 C 1154.62 3.45823 -0.320005 0
M  V30 12432 C 1153.58 4.07824 -1.2986 0
M  V30 12433 C 1152.9 5.30965 -0.630925 0
M  V30 12434 C 1154.2 4.49512 -2.65963 0
M  V30 12435 H 1155.9 2.42404 -1.75729 0
M  V30 12436 H 1153.44 1.16502 -0.846356 0
M  V30 12437 H 1155.4 4.21276 -0.102271 0
M  V30 12438 H 1154.12 3.20553 0.625561 0
M  V30 12439 H 1152.78 3.34398 -1.50245 0
M  V30 12440 H 1152.43 5.01979 0.320337 0
M  V30 12441 H 1152.13 5.73402 -1.28388 0
M  V30 12442 H 1153.65 6.09136 -0.422635 0
M  V30 12443 H 1155.06 5.16159 -2.49506 0
M  V30 12444 H 1153.46 5.02857 -3.27498 0
M  V30 12445 H 1154.53 3.6157 -3.23102 0
M  V30 12446 N 1155.87 0.935264 1.26849 0
M  V30 12447 C 1157.1 0.596249 1.98122 0
M  V30 12448 C 1157.52 -0.827452 1.69702 0
M  V30 12449 O 1156.87 -1.55095 0.961864 0
M  V30 12450 C 1156.93 0.821773 3.52036 0
M  V30 12451 O 1156.65 2.18947 3.79465 0
M  V30 12452 C 1158.15 0.492498 4.40556 0
M  V30 12453 H 1155.37 0.225242 0.632066 0
M  V30 12454 H 1157.91 1.25435 1.61512 0
M  V30 12455 H 1156.07 0.210363 3.86828 0
M  V30 12456 H 1156.48 2.24509 4.74021 0
M  V30 12457 H 1157.95 0.700953 5.47531 0
M  V30 12458 H 1158.43 -0.57228 4.35456 0
M  V30 12459 H 1159.04 1.08238 4.11296 0
M  V30 12460 N 1157.35 -1.41121 0.701616 0
M  V30 12461 C 1158.6 -2.01928 0.244271 0
M  V30 12462 C 1158.95 -1.54597 -1.14532 0
M  V30 12463 O 1158.25 -0.749972 -1.76312 0
M  V30 12464 C 1158.44 -3.5654 0.247781 0
M  V30 12465 C 1158.27 -4.18879 1.63618 0
M  V30 12466 C 1157.04 -4.52913 2.24048 0
M  V30 12467 C 1159.24 -4.44679 2.5839 0
M  V30 12468 N 1157.22 -5.00571 3.55389 0
M  V30 12469 C 1158.59 -4.94178 3.74418 0
M  V30 12470 C 1160.65 -4.26698 2.56579 0
M  V30 12471 C 1159.35 -5.27584 4.88924 0
M  V30 12472 C 1161.37 -4.61198 3.70203 0
M  V30 12473 C 1160.74 -5.10873 4.84962 0
M  V30 12474 H 1156.84 -0.770275 0.134908 0
M  V30 12475 H 1159.42 -1.71571 0.920402 0
M  V30 12476 H 1157.59 -3.86357 -0.39786 0
M  V30 12477 H 1159.32 -4.04074 -0.224961 0
M  V30 12478 H 1156.08 -4.39572 1.76277 0
M  V30 12479 H 1156.5 -5.28799 4.2273 0
M  V30 12480 H 1161.14 -3.87525 1.69069 0
M  V30 12481 H 1158.86 -5.65678 5.77091 0
M  V30 12482 H 1162.45 -4.48939 3.70061 0
M  V30 12483 H 1161.33 -5.37067 5.71426 0
M  V30 12484 N 1158.83 -0.446794 -1.51134 0
M  V30 12485 C 1159.76 0.350229 -2.30858 0
M  V30 12486 C 1160.74 1.0125 -1.36684 0
M  V30 12487 O 1161.93 1.01433 -1.65605 0
M  V30 12488 C 1159.06 1.4464 -3.15748 0
M  V30 12489 C 1158.01 0.907102 -4.18277 0
M  V30 12490 C 1157.34 2.09974 -4.91747 0
M  V30 12491 C 1158.64 -0.0649758 -5.2226 0
M  V30 12492 H 1160.33 -0.315105 -2.97737 0
M  V30 12493 H 1157.88 -0.152985 -1.43185 0
M  V30 12494 H 1159.83 2.01127 -3.70305 0
M  V30 12495 H 1158.55 2.14016 -2.46708 0
M  V30 12496 H 1157.21 0.364382 -3.64785 0
M  V30 12497 H 1156.86 2.77991 -4.19202 0
M  V30 12498 H 1156.56 1.74523 -5.61084 0
M  V30 12499 H 1158.08 2.66996 -5.49131 0
M  V30 12500 H 1159.5 0.4099 -5.71833 0
M  V30 12501 H 1157.9 -0.332529 -5.99178 0
M  V30 12502 H 1158.97 -0.998681 -4.74504 0
M  V30 12503 N 1160.31 1.56586 -0.178487 0
M  V30 12504 C 1161.56 1.97098 0.464617 0
M  V30 12505 C 1161.88 1.06476 1.62767 0
M  V30 12506 O 1161.14 0.100337 1.95443 0
M  V30 12507 C 1161.44 3.43629 0.982552 0
M  V30 12508 C 1161.1 4.50853 -0.0653645 0
M  V30 12509 C 1159.77 4.79901 -0.353349 0
M  V30 12510 C 1162.12 5.15387 -0.776279 0
M  V30 12511 C 1159.45 5.70779 -1.35751 0
M  V30 12512 C 1161.8 6.07349 -1.76948 0
M  V30 12513 C 1160.46 6.34761 -2.06483 0
M  V30 12514 H 1159.73 0.721232 0.170016 0
M  V30 12515 H 1162.38 1.89559 -0.271959 0
M  V30 12516 H 1160.68 3.48155 1.79709 0
M  V30 12517 H 1162.38 3.7232 1.48926 0
M  V30 12518 H 1158.97 4.28266 0.169266 0
M  V30 12519 H 1163.15 4.9305 -0.567008 0
M  V30 12520 H 1158.41 5.90298 -1.59244 0
M  V30 12521 H 1162.58 6.56419 -2.32567 0
M  V30 12522 H 1160.21 7.0498 -2.84441 0
M  V30 12523 N 1161.79 -0.095206 1.57312 0
M  V30 12524 C 1163.01 -0.81614 1.90667 0
M  V30 12525 C 1163.44 -1.71494 0.772746 0
M  V30 12526 O 1162.79 -1.79192 -0.275682 0
M  V30 12527 C 1162.84 -1.60555 3.22885 0
M  V30 12528 O 1161.95 -2.71448 3.10467 0
M  V30 12529 H 1161.29 -0.224217 0.624998 0
M  V30 12530 H 1163.82 -0.070464 2.04479 0
M  V30 12531 H 1163.83 -1.98979 3.5619 0
M  V30 12532 H 1162.5 -0.945918 4.05 0
M  V30 12533 H 1161.08 -2.36053 2.88675 0
M  V30 12534 N 1163.26 -1.53291 -0.366026 0
M  V30 12535 C 1164.21 -1.80367 -1.4687 0
M  V30 12536 C 1165.21 -0.672767 -1.55468 0
M  V30 12537 O 1166.41 -0.8557 -1.5836 0
M  V30 12538 H 1162.79 -0.571076 -0.48926 0
M  V30 12539 H 1164.76 -2.72661 -1.21237 0
M  V30 12540 C 1163.51 -2.01008 -2.8371 0
M  V30 12541 H 1162.83 -2.87468 -2.77853 0
M  V30 12542 H 1164.27 -2.2393 -3.60043 0
M  V30 12543 C 1162.73 -0.789054 -3.27529 0
M  V30 12544 O 1163.26 0.0224712 -4.01694 0
M  V30 12545 N 1161.47 -0.612621 -2.84069 0
M  V30 12546 H 1161.01 -1.27416 -2.23881 0
M  V30 12547 H 1160.97 0.202943 -3.13744 0
M  V30 12548 N 1164.74 0.6258 -1.44643 0
M  V30 12549 C 1165.98 1.39676 -1.49232 0
M  V30 12550 C 1166.35 1.91601 -0.123682 0
M  V30 12551 O 1167.55 2.68764 -0.0442486 0
M  V30 12552 C 1165.82 2.52704 -2.52736 0
M  V30 12553 S 1167.38 3.40795 -2.76413 0
M  V30 12554 H 1164.2 0.476436 -0.527759 0
M  V30 12555 H 1166.8 0.72394 -1.81602 0
M  V30 12556 H 1165.5 2.12876 -3.50873 0
M  V30 12557 H 1165.03 3.24806 -2.21956 0
M  V30 12558 H 1167.05 4.5031 -2.08412 0
M  V30 12559 N 1166.22 1.31629 0.866686 0
M  V30 12560 C 1167.64 1.10358 1.15296 0
M  V30 12561 C 1167.84 -0.123807 2.01119 0
M  V30 12562 O 1166.89 -0.81219 2.39081 0
M  V30 12563 C 1168.21 2.37684 1.84193 0
M  V30 12564 C 1169.75 2.43326 1.9688 0
M  V30 12565 C 1170.23 3.70541 2.69191 0
M  V30 12566 N 1171.72 3.71454 2.76724 0
M  V30 12567 C 1172.45 4.66585 3.33295 0
M  V30 12568 N 1171.95 5.72075 3.90771 0
M  V30 12569 N 1173.74 4.541 3.31284 0
M  V30 12570 H 1165.89 2.10343 0.29487 0
M  V30 12571 H 1168.16 0.928096 0.193239 0
M  V30 12572 H 1167.86 3.27352 1.28582 0
M  V30 12573 H 1167.74 2.47731 2.84445 0
M  V30 12574 H 1170.12 1.54124 2.51654 0
M  V30 12575 H 1170.21 2.3724 0.956596 0
M  V30 12576 H 1169.85 4.60111 2.15083 0
M  V30 12577 H 1169.78 3.73894 3.70825 0
M  V30 12578 H 1172.27 2.952 2.35936 0
M  V30 12579 H 1172.58 6.40738 4.32058 0
M  V30 12580 H 1170.93 5.75844 3.89138 0
M  V30 12581 H 1174.12 3.70861 2.85622 0
M  V30 12582 H 1174.29 5.28416 3.75074 0
M  V30 12583 N 1167.7 -1.08142 1.14644 0
M  V30 12584 C 1168.93 -1.84318 0.939926 0
M  V30 12585 C 1169.34 -1.81735 -0.511636 0
M  V30 12586 O 1168.7 -1.22297 -1.35461 0
M  V30 12587 C 1168.75 -3.31744 1.43625 0
M  V30 12588 O 1168.47 -3.3435 2.83094 0
M  V30 12589 C 1169.97 -4.24717 1.27007 0
M  V30 12590 H 1167.19 -0.581781 0.334323 0
M  V30 12591 H 1169.74 -1.36561 1.52221 0
M  V30 12592 H 1167.89 -3.7688 0.896664 0
M  V30 12593 H 1168.31 -4.26399 3.05425 0
M  V30 12594 H 1169.78 -5.26262 1.66591 0
M  V30 12595 H 1170.26 -4.38682 0.213257 0
M  V30 12596 H 1170.86 -3.85409 1.79833 0
M  V30 12597 N 1169.18 -0.941978 -1.26351 0
M  V30 12598 C 1170.11 -0.469913 -2.28723 0
M  V30 12599 C 1171.09 0.477218 -1.63269 0
M  V30 12600 O 1172.27 0.378902 -1.90468 0
M  V30 12601 C 1169.4 0.264971 -3.46288 0
M  V30 12602 C 1168.36 -0.595682 -4.23834 0
M  V30 12603 C 1167.68 0.269208 -5.34022 0
M  V30 12604 C 1168.98 -1.86743 -4.87775 0
M  V30 12605 H 1170.68 -1.32551 -2.6846 0
M  V30 12606 H 1168.22 -0.638809 -1.29055 0
M  V30 12607 H 1170.18 0.606259 -4.17016 0
M  V30 12608 H 1168.9 1.15471 -3.05506 0
M  V30 12609 H 1167.56 -0.919875 -3.54872 0
M  V30 12610 H 1167.21 1.15832 -4.89481 0
M  V30 12611 H 1166.91 -0.30325 -5.86817 0
M  V30 12612 H 1168.43 0.605748 -6.07588 0
M  V30 12613 H 1169.85 -1.59333 -5.50714 0
M  V30 12614 H 1168.24 -2.38452 -5.50691 0
M  V30 12615 H 1169.31 -2.57831 -4.10671 0
M  V30 12616 N 1170.66 1.40747 -0.709091 0
M  V30 12617 C 1171.59 2.33404 -0.0669763 0
M  V30 12618 C 1172.57 1.52546 0.752582 0
M  V30 12619 O 1173.75 1.81036 0.702823 0
M  V30 12620 C 1170.88 3.36476 0.860285 0
M  V30 12621 C 1169.84 4.27748 0.146828 0
M  V30 12622 C 1169.16 5.21304 1.18937 0
M  V30 12623 C 1170.46 5.12734 -0.995064 0
M  V30 12624 H 1172.16 2.87349 -0.840888 0
M  V30 12625 H 1169.7 1.38163 -0.405817 0
M  V30 12626 H 1171.65 4.00231 1.31883 0
M  V30 12627 H 1170.38 2.80912 1.66602 0
M  V30 12628 H 1169.04 3.65437 -0.291826 0
M  V30 12629 H 1168.69 4.62048 1.98798 0
M  V30 12630 H 1168.39 5.8321 0.716917 0
M  V30 12631 H 1169.91 5.87936 1.64815 0
M  V30 12632 H 1171.32 5.69979 -0.61618 0
M  V30 12633 H 1169.72 5.83649 -1.39547 0
M  V30 12634 H 1170.79 4.49097 -1.82867 0
M  V30 12635 N 1172.13 0.454803 1.50895 0
M  V30 12636 C 1173.36 -0.106259 2.07128 0
M  V30 12637 C 1173.78 -1.3418 1.31823 0
M  V30 12638 O 1173.14 -1.77667 0.361147 0
M  V30 12639 C 1173.19 -0.389609 3.58489 0
M  V30 12640 O 1172.29 -1.47305 3.85195 0
M  V30 12641 H 1171.63 0.00580588 0.663975 0
M  V30 12642 H 1174.16 0.641163 1.94294 0
M  V30 12643 H 1174.17 -0.634934 4.03029 0
M  V30 12644 H 1172.85 0.513338 4.1272 0
M  V30 12645 H 1171.43 -1.21631 3.52506 0
M  V30 12646 N 1173.61 -1.56489 0.186789 0
M  V30 12647 C 1175.03 -1.58701 -0.169176 0
M  V30 12648 C 1175.23 -1.2027 -1.61671 0
M  V30 12649 O 1174.28 -0.92154 -2.35083 0
M  V30 12650 C 1175.6 -3.00437 0.125657 0
M  V30 12651 C 1177.14 -3.12932 0.0651 0
M  V30 12652 C 1177.62 -4.56787 0.333131 0
M  V30 12653 N 1179.11 -4.62344 0.281453 0
M  V30 12654 C 1179.85 -5.71529 0.462805 0
M  V30 12655 N 1179.34 -6.89213 0.704054 0
M  V30 12656 N 1181.13 -5.60692 0.397636 0
M  V30 12657 H 1173.29 -1.79754 1.13148 0
M  V30 12658 H 1175.55 -0.83385 0.450997 0
M  V30 12659 H 1175.25 -3.33086 1.12901 0
M  V30 12660 H 1175.13 -3.72782 -0.575612 0
M  V30 12661 H 1177.52 -2.80101 -0.928845 0
M  V30 12662 H 1177.6 -2.42991 0.799318 0
M  V30 12663 H 1177.24 -4.9033 1.32436 0
M  V30 12664 H 1177.17 -5.24907 -0.421879 0
M  V30 12665 H 1179.66 -3.77764 0.101266 0
M  V30 12666 H 1179.97 -7.68314 0.831468 0
M  V30 12667 H 1178.32 -6.9104 0.740851 0
M  V30 12668 H 1181.51 -4.6763 0.20964 0
M  V30 12669 H 1181.68 -6.45726 0.54239 0
M  V30 12670 N 1175.09 0.086862 -1.5736 0
M  V30 12671 C 1176.05 1.08906 -2.01673 0
M  V30 12672 C 1177.05 1.32473 -0.911463 0
M  V30 12673 O 1178.24 1.28447 -1.17673 0
M  V30 12674 C 1175.37 2.43629 -2.38449 0
M  V30 12675 H 1176.57 0.707461 -2.91436 0
M  V30 12676 H 1174.12 0.332154 -1.5273 0
M  V30 12677 H 1174.86 2.8665 -1.51665 0
M  V30 12678 H 1174.64 2.2787 -3.19089 0
M  V30 12679 H 1176.13 3.15695 -2.73361 0
M  V30 12680 N 1176.57 1.53483 0.357892 0
M  V30 12681 C 1177.8 1.73704 1.11851 0
M  V30 12682 C 1178.21 0.469388 1.83285 0
M  V30 12683 O 1177.55 -0.567894 1.74702 0
M  V30 12684 C 1177.61 2.85301 2.18732 0
M  V30 12685 C 1177.27 4.25395 1.66998 0
M  V30 12686 C 1178.27 5.07472 1.12994 0
M  V30 12687 C 1175.96 4.71832 1.72279 0
M  V30 12688 C 1177.95 6.34081 0.649574 0
M  V30 12689 C 1175.64 5.98417 1.23854 0
M  V30 12690 C 1176.64 6.79374 0.702839 0
M  V30 12691 O 1176.32 8.03583 0.225763 0
M  V30 12692 H 1176.06 0.584251 0.34004 0
M  V30 12693 H 1178.61 2.01054 0.420313 0
M  V30 12694 H 1176.84 2.53442 2.92068 0
M  V30 12695 H 1178.53 2.93627 2.80247 0
M  V30 12696 H 1179.29 4.72766 1.08248 0
M  V30 12697 H 1175.17 4.08886 2.12916 0
M  V30 12698 H 1178.72 6.97218 0.230774 0
M  V30 12699 H 1174.61 6.32622 1.28296 0
M  V30 12700 H 1175.38 8.17775 0.344381 0
M  V30 12701 N 1178.05 -0.61812 1.44973 0
M  V30 12702 C 1178.98 -1.74299 1.48837 0
M  V30 12703 C 1179.99 -1.58296 0.38028 0
M  V30 12704 O 1181.18 -1.66371 0.646757 0
M  V30 12705 C 1178.28 -3.12179 1.31901 0
M  V30 12706 C 1177.45 -3.54519 2.56193 0
M  V30 12707 C 1176.51 -4.71324 2.33966 0
M  V30 12708 O 1175.54 -4.78975 3.07525 0
M  V30 12709 N 1176.74 -5.63894 1.37854 0
M  V30 12710 H 1179.5 -1.7145 2.45815 0
M  V30 12711 H 1177.07 -0.803087 1.40578 0
M  V30 12712 H 1179.06 -3.88059 1.14858 0
M  V30 12713 H 1177.63 -3.09595 0.43239 0
M  V30 12714 H 1176.85 -2.68711 2.88423 0
M  V30 12715 H 1178.14 -3.79563 3.38835 0
M  V30 12716 H 1177.53 -5.60418 0.771273 0
M  V30 12717 H 1176.09 -6.3935 1.26787 0
M  V30 12718 N 1179.52 -1.32087 -0.859693 0
M  V30 12719 C 1180.77 -1.21716 -1.60836 0
M  V30 12720 C 1181.09 0.220904 -1.94349 0
M  V30 12721 O 1182.29 0.446422 -2.67805 0
M  V30 12722 C 1180.75 -2.13143 -2.89997 0
M  V30 12723 C 1180.36 -3.62003 -2.63928 0
M  V30 12724 C 1182.1 -2.11596 -3.68004 0
M  V30 12725 C 1180.01 -4.45407 -3.89059 0
M  V30 12726 H 1178.94 -0.45199 -0.603507 0
M  V30 12727 H 1181.59 -1.57013 -0.949687 0
M  V30 12728 H 1179.97 -1.70755 -3.57294 0
M  V30 12729 H 1181.14 -4.12701 -2.04974 0
M  V30 12730 H 1179.46 -3.6563 -1.99258 0
M  V30 12731 H 1182.06 -2.71149 -4.6085 0
M  V30 12732 H 1182.4 -1.10568 -4.01348 0
M  V30 12733 H 1182.93 -2.52238 -3.07605 0
M  V30 12734 H 1179.67 -5.4723 -3.60859 0
M  V30 12735 H 1179.19 -3.99462 -4.47427 0
M  V30 12736 H 1180.87 -4.58149 -4.56846 0
M  V30 12737 N 1181 1.07532 -1.15215 0
M  V30 12738 C 1181.93 2.1668 -0.870171 0
M  V30 12739 C 1182.91 1.69161 0.178483 0
M  V30 12740 O 1184.1 1.94172 0.0332489 0
M  V30 12741 C 1181.23 3.45464 -0.356666 0
M  V30 12742 C 1180.18 4.06424 -1.34179 0
M  V30 12743 C 1179.51 5.30266 -0.687206 0
M  V30 12744 C 1180.81 4.46666 -2.70715 0
M  V30 12745 H 1182.5 2.40526 -1.7829 0
M  V30 12746 H 1180.05 1.15598 -0.858665 0
M  V30 12747 H 1182 4.21144 -0.146947 0
M  V30 12748 H 1180.72 3.21199 0.591527 0
M  V30 12749 H 1179.38 3.32786 -1.53783 0
M  V30 12750 H 1179.03 5.0229 0.267077 0
M  V30 12751 H 1178.73 5.72009 -1.34462 0
M  V30 12752 H 1180.26 6.08653 -0.487218 0
M  V30 12753 H 1181.67 5.13483 -2.54966 0
M  V30 12754 H 1180.07 4.99355 -3.32813 0
M  V30 12755 H 1181.14 3.58123 -3.26919 0
M  V30 12756 N 1182.48 0.948665 1.2585 0
M  V30 12757 C 1183.41 0.421458 2.25292 0
M  V30 12758 C 1184.43 -0.459389 1.56184 0
M  V30 12759 O 1185.61 -0.268627 1.76467 0
M  V30 12760 C 1182.71 -0.412653 3.36378 0
M  V30 12761 C 1181.89 0.453792 4.3504 0
M  V30 12762 C 1180.95 -0.321127 5.25219 0
M  V30 12763 O 1179.97 0.278424 5.68519 0
M  V30 12764 N 1181.17 -1.61576 5.5756 0
M  V30 12765 H 1183.94 1.27636 2.71162 0
M  V30 12766 H 1181.5 0.818367 1.39694 0
M  V30 12767 H 1183.49 -0.938637 3.93664 0
M  V30 12768 H 1182.06 -1.16839 2.89944 0
M  V30 12769 H 1181.28 1.16093 3.76718 0
M  V30 12770 H 1182.57 1.04538 4.97945 0
M  V30 12771 H 1181.97 -2.12488 5.24276 0
M  V30 12772 H 1180.53 -2.08783 6.17457 0
M  V30 12773 N 1183.96 -1.40369 0.716545 0
M  V30 12774 C 1185.37 -1.83783 0.328719 0
M  V30 12775 C 1185.72 -1.5991 -1.13681 0
M  V30 12776 O 1184.85 -1.08048 -1.87496 0
M  V30 12777 C 1185.44 -3.33626 0.589848 0
M  V30 12778 C 1184 -3.7553 0.25572 0
M  V30 12779 C 1183.15 -2.63571 0.861733 0
M  V30 12780 H 1186.1 -1.29623 0.915621 0
M  V30 12781 H 1186.12 -3.80225 -0.14459 0
M  V30 12782 H 1185.63 -3.5097 1.65655 0
M  V30 12783 H 1183.73 -3.63781 -0.805883 0
M  V30 12784 H 1183.84 -4.73577 0.725388 0
M  V30 12785 H 1182.21 -2.53047 0.289706 0
M  V30 12786 H 1182.99 -2.83727 1.93272 0
M  V30 12787 N 1185.44 -0.462799 -1.50652 0
M  V30 12788 C 1186.69 0.0966838 -2.01468 0
M  V30 12789 C 1187 1.41529 -1.35014 0
M  V30 12790 O 1188.2 2.05923 -1.76941 0
M  V30 12791 C 1186.66 0.222826 -3.5921 0
M  V30 12792 C 1186.27 -1.08686 -4.34616 0
M  V30 12793 C 1188.01 0.734711 -4.18094 0
M  V30 12794 C 1185.92 -0.924964 -5.84122 0
M  V30 12795 H 1184.85 0.0399078 -0.752943 0
M  V30 12796 H 1187.5 -0.596437 -1.73536 0
M  V30 12797 H 1185.88 0.979539 -3.83694 0
M  V30 12798 H 1187.06 -1.85388 -4.21862 0
M  V30 12799 H 1185.37 -1.52922 -3.87303 0
M  V30 12800 H 1187.97 0.872734 -5.2753 0
M  V30 12801 H 1188.31 1.72389 -3.7893 0
M  V30 12802 H 1188.84 0.0356139 -3.97784 0
M  V30 12803 H 1185.58 -1.88727 -6.27744 0
M  V30 12804 H 1185.1 -0.198181 -5.99473 0
M  V30 12805 H 1186.78 -0.588262 -6.4432 0
M  V30 12806 N 1186.91 1.56388 -0.195085 0
M  V30 12807 C 1187.84 2.22091 0.720971 0
M  V30 12808 C 1188.83 1.184 1.22128 0
M  V30 12809 O 1190.01 1.46907 1.27012 0
M  V30 12810 C 1187.14 2.88025 1.94059 0
M  V30 12811 C 1186.09 3.97959 1.5752 0
M  V30 12812 C 1185.42 4.51058 2.87143 0
M  V30 12813 C 1186.72 5.16365 0.785145 0
M  V30 12814 H 1188.41 2.98898 0.173245 0
M  V30 12815 H 1185.96 1.43767 0.0818868 0
M  V30 12816 H 1187.91 3.32671 2.58666 0
M  V30 12817 H 1186.64 2.08623 2.51285 0
M  V30 12818 H 1185.3 3.54004 0.952715 0
M  V30 12819 H 1184.94 3.68418 3.42458 0
M  V30 12820 H 1184.64 5.25237 2.63439 0
M  V30 12821 H 1186.17 4.98406 3.52738 0
M  V30 12822 H 1187.58 5.57556 1.33431 0
M  V30 12823 H 1185.98 5.9661 0.646231 0
M  V30 12824 H 1187.05 4.84428 -0.213789 0
M  V30 12825 N 1188.39 -0.0785156 1.57404 0
M  V30 12826 C 1189.32 -1.12058 1.99939 0
M  V30 12827 C 1190.34 -1.35372 0.904343 0
M  V30 12828 O 1191.53 -1.33731 1.1823 0
M  V30 12829 C 1188.63 -2.47285 2.31739 0
M  V30 12830 C 1187.8 -2.44021 3.63005 0
M  V30 12831 C 1186.86 -3.61303 3.82552 0
M  V30 12832 O 1185.88 -3.43039 4.54217 0
M  V30 12833 N 1187.09 -4.81404 3.24392 0
M  V30 12834 H 1189.85 -0.758416 2.89945 0
M  V30 12835 H 1187.41 -0.267266 1.59679 0
M  V30 12836 H 1189.4 -3.24377 2.41995 0
M  V30 12837 H 1187.97 -2.75529 1.47657 0
M  V30 12838 H 1187.19 -1.52361 3.63565 0
M  V30 12839 H 1188.48 -2.38934 4.49208 0
M  V30 12840 H 1187.88 -4.99147 2.66211 0
M  V30 12841 H 1186.44 -5.56031 3.40107 0
M  V30 12842 N 1189.87 -1.5367 -0.349747 0
M  V30 12843 C 1191.29 -1.43796 -0.692457 0
M  V30 12844 C 1191.49 -0.58972 -1.92677 0
M  V30 12845 O 1190.54 -0.078294 -2.52379 0
M  V30 12846 C 1191.86 -2.872 -0.890881 0
M  V30 12847 C 1193.4 -2.96935 -0.989892 0
M  V30 12848 C 1193.88 -4.41433 -1.22068 0
M  V30 12849 N 1195.37 -4.44932 -1.28802 0
M  V30 12850 C 1196.1 -5.53864 -1.48398 0
M  V30 12851 N 1195.6 -6.72814 -1.65208 0
M  V30 12852 N 1197.39 -5.41467 -1.50896 0
M  V30 12853 H 1189.54 -2.07317 0.461895 0
M  V30 12854 H 1191.81 -0.936895 0.144681 0
M  V30 12855 H 1191.51 -3.51656 -0.0555095 0
M  V30 12856 H 1191.39 -3.31784 -1.79442 0
M  V30 12857 H 1193.77 -2.32622 -1.81579 0
M  V30 12858 H 1193.86 -2.55721 -0.0633906 0
M  V30 12859 H 1193.5 -5.06325 -0.399729 0
M  V30 12860 H 1193.43 -4.80233 -2.16064 0
M  V30 12861 H 1195.92 -3.59214 -1.17361 0
M  V30 12862 H 1196.23 -7.51598 -1.79779 0
M  V30 12863 H 1194.58 -6.7577 -1.62356 0
M  V30 12864 H 1197.77 -4.47498 -1.37342 0
M  V30 12865 H 1197.94 -6.26423 -1.65826 0
M  V30 12866 N 1191.35 0.610423 -1.45298 0
M  V30 12867 C 1192.28 1.73207 -1.56594 0
M  V30 12868 C 1193.26 1.64893 -0.417651 0
M  V30 12869 O 1194.44 1.83336 -0.64043 0
M  V30 12870 C 1191.57 3.11803 -1.52959 0
M  V30 12871 C 1190.53 3.34925 -2.66475 0
M  V30 12872 C 1189.85 4.73764 -2.47894 0
M  V30 12873 C 1191.15 3.25456 -4.08504 0
M  V30 12874 H 1192.85 1.6401 -2.50482 0
M  V30 12875 H 1190.39 0.787621 -1.20551 0
M  V30 12876 H 1192.35 3.90065 -1.59458 0
M  V30 12877 H 1191.07 3.21833 -0.55599 0
M  V30 12878 H 1189.73 2.59051 -2.59399 0
M  V30 12879 H 1189.38 4.80524 -1.4868 0
M  V30 12880 H 1189.08 4.90191 -3.24016 0
M  V30 12881 H 1190.6 5.54231 -2.56243 0
M  V30 12882 H 1192.02 3.93597 -4.16839 0
M  V30 12883 H 1190.41 3.53414 -4.84994 0
M  V30 12884 H 1191.48 2.22939 -4.30612 0
M  V30 12885 N 1192.83 1.32541 0.852676 0
M  V30 12886 C 1194.05 1.2636 1.64462 0
M  V30 12887 C 1194.48 -0.16508 1.87374 0
M  V30 12888 O 1193.83 -1.11712 1.42794 0
M  V30 12889 C 1193.88 2.03052 2.97997 0
M  V30 12890 O 1192.99 1.37967 3.88637 0
M  V30 12891 H 1192.33 0.435393 0.501327 0
M  V30 12892 H 1194.86 1.74888 1.06186 0
M  V30 12893 H 1194.87 2.133 3.47803 0
M  V30 12894 H 1193.54 3.06941 2.80642 0
M  V30 12895 H 1192.12 1.36279 3.47106 0
M  V30 12896 N 1194.3 -1.0692 1.15784 0
M  V30 12897 C 1195.27 -2.12407 0.861167 0
M  V30 12898 C 1196.27 -1.6018 -0.141031 0
M  V30 12899 O 1197.46 -1.73972 0.0891192 0
M  V30 12900 C 1194.59 -3.39693 0.286636 0
M  V30 12901 H 1195.78 -2.40157 1.79623 0
M  V30 12902 H 1193.34 -1.22881 0.965916 0
M  V30 12903 H 1194.07 -3.17587 -0.656417 0
M  V30 12904 H 1193.86 -3.78903 1.0087 0
M  V30 12905 H 1195.35 -4.17488 0.0967971 0
M  V30 12906 N 1195.78 -0.955326 -1.25345 0
M  V30 12907 C 1197.01 -0.627693 -1.97149 0
M  V30 12908 C 1197.43 0.800349 -1.70997 0
M  V30 12909 O 1196.78 1.53545 -0.986417 0
M  V30 12910 C 1196.83 -0.877675 -3.50684 0
M  V30 12911 O 1196.55 -2.24957 -3.75934 0
M  V30 12912 C 1198.06 -0.562524 -4.39716 0
M  V30 12913 H 1195.28 -0.235269 -0.628402 0
M  V30 12914 H 1197.82 -1.27989 -1.59496 0
M  V30 12915 H 1195.97 -0.271878 -3.86445 0
M  V30 12916 H 1196.39 -2.32022 -4.70389 0
M  V30 12917 H 1197.86 -0.787972 -5.46347 0
M  V30 12918 H 1198.34 0.50293 -4.36311 0
M  V30 12919 H 1198.95 -1.14767 -4.09522 0
M  V30 12920 N 1197.26 1.39987 -0.723979 0
M  V30 12921 C 1198.19 2.3332 -0.0917282 0
M  V30 12922 C 1199.17 1.53335 0.736361 0
M  V30 12923 O 1200.36 1.81771 0.683582 0
M  V30 12924 C 1197.49 3.3737 0.824549 0
M  V30 12925 C 1196.44 4.2788 0.101452 0
M  V30 12926 C 1195.77 5.22536 1.13401 0
M  V30 12927 C 1197.07 5.11649 -1.04939 0
M  V30 12928 H 1198.76 2.86441 -0.871318 0
M  V30 12929 H 1196.31 1.37725 -0.420448 0
M  V30 12930 H 1198.26 4.01607 1.27631 0
M  V30 12931 H 1196.98 2.82663 1.63613 0
M  V30 12932 H 1195.64 3.65107 -0.330569 0
M  V30 12933 H 1195.29 4.64131 1.93886 0
M  V30 12934 H 1194.99 5.83938 0.65502 0
M  V30 12935 H 1196.52 5.89651 1.58569 0
M  V30 12936 H 1197.93 5.69293 -0.6766 0
M  V30 12937 H 1196.33 5.82137 -1.45729 0
M  V30 12938 H 1197.4 4.47132 -1.8762 0
M  V30 12939 N 1198.74 0.470782 1.50404 0
M  V30 12940 C 1200.16 0.124919 1.5911 0
M  V30 12941 C 1200.36 -1.36855 1.47895 0
M  V30 12942 O 1199.41 -2.1418 1.33728 0
M  V30 12943 C 1200.72 0.674839 2.9303 0
M  V30 12944 C 1202.27 0.638239 3.06424 0
M  V30 12945 C 1202.75 1.1657 4.42917 0
M  V30 12946 N 1204.24 1.1251 4.49328 0
M  V30 12947 C 1204.97 1.50373 5.53331 0
M  V30 12948 N 1204.47 1.95684 6.6459 0
M  V30 12949 N 1206.26 1.41978 5.43874 0
M  V30 12950 H 1198.41 1.44212 1.55938 0
M  V30 12951 H 1200.68 0.596354 0.73693 0
M  V30 12952 H 1200.38 1.72106 3.06712 0
M  V30 12953 H 1200.26 0.118234 3.77015 0
M  V30 12954 H 1202.64 -0.399075 2.92389 0
M  V30 12955 H 1202.72 1.23164 2.24197 0
M  V30 12956 H 1202.37 2.20164 4.57701 0
M  V30 12957 H 1202.3 0.548513 5.23736 0
M  V30 12958 H 1204.79 0.79276 3.69491 0
M  V30 12959 H 1205.1 2.22724 7.40009 0
M  V30 12960 H 1203.45 1.99636 6.65711 0
M  V30 12961 H 1206.64 1.0642 4.55842 0
M  V30 12962 H 1206.81 1.71812 6.24808 0
M  V30 12963 N 1200.22 -1.56282 0.203376 0
M  V30 12964 C 1201.63 -1.58871 -0.152335 0
M  V30 12965 C 1201.83 -1.21978 -1.60386 0
M  V30 12966 O 1200.89 -0.946422 -2.34092 0
M  V30 12967 C 1202.2 -3.00287 0.157515 0
M  V30 12968 C 1203.75 -3.12846 0.098287 0
M  V30 12969 C 1204.23 -4.56408 0.38156 0
M  V30 12970 N 1205.72 -4.6202 0.330475 0
M  V30 12971 C 1206.45 -5.71006 0.523397 0
M  V30 12972 N 1205.95 -6.88428 0.777115 0
M  V30 12973 N 1207.74 -5.60238 0.457082 0
M  V30 12974 H 1199.89 -1.78543 1.15048 0
M  V30 12975 H 1202.15 -0.829019 0.459816 0
M  V30 12976 H 1201.86 -3.3187 1.16427 0
M  V30 12977 H 1201.73 -3.73372 -0.536041 0
M  V30 12978 H 1204.12 -2.8107 -0.899085 0
M  V30 12979 H 1204.2 -2.42129 0.825045 0
M  V30 12980 H 1203.85 -4.88897 1.37629 0
M  V30 12981 H 1203.78 -5.25325 -0.366182 0
M  V30 12982 H 1206.27 -3.77636 0.141327 0
M  V30 12983 H 1206.58 -7.67389 0.912911 0
M  V30 12984 H 1204.93 -6.90215 0.814104 0
M  V30 12985 H 1208.12 -4.67382 0.259226 0
M  V30 12986 H 1208.29 -6.45114 0.610848 0
M  V30 12987 N 1201.7 0.070167 -1.57444 0
M  V30 12988 C 1202.94 0.767842 -1.86513 0
M  V30 12989 C 1203.26 1.78659 -0.796257 0
M  V30 12990 O 1204.46 2.53395 -0.974845 0
M  V30 12991 C 1202.92 1.41654 -3.30851 0
M  V30 12992 C 1202.53 0.436273 -4.45871 0
M  V30 12993 C 1204.27 2.09649 -3.69117 0
M  V30 12994 C 1202.18 1.09098 -5.8125 0
M  V30 12995 H 1201.11 0.290519 -0.695784 0
M  V30 12996 H 1203.76 0.0211697 -1.83488 0
M  V30 12997 H 1202.14 2.21153 -3.28493 0
M  V30 12998 H 1203.32 -0.329022 -4.59624 0
M  V30 12999 H 1201.63 -0.139314 -4.16167 0
M  V30 13000 H 1204.23 2.59411 -4.67558 0
M  V30 13001 H 1204.57 2.89663 -2.99 0
M  V30 13002 H 1205.1 1.36979 -3.73472 0
M  V30 13003 H 1201.84 0.331128 -6.54663 0
M  V30 13004 H 1201.36 1.8271 -5.71294 0
M  V30 13005 H 1203.04 1.61034 -6.2664 0
M  V30 13006 N 1203.17 1.53854 0.341593 0
M  V30 13007 C 1204.59 1.44161 0.684821 0
M  V30 13008 C 1204.79 0.599929 1.92362 0
M  V30 13009 O 1203.85 0.0916771 2.52334 0
M  V30 13010 C 1205.16 2.87668 0.875637 0
M  V30 13011 C 1206.71 2.97455 0.974131 0
M  V30 13012 C 1207.18 4.42075 1.19725 0
M  V30 13013 N 1208.67 4.45609 1.2644 0
M  V30 13014 C 1209.41 5.54643 1.45459 0
M  V30 13015 N 1208.9 6.7368 1.61637 0
M  V30 13016 N 1210.7 5.4226 1.48022 0
M  V30 13017 H 1202.85 2.07069 -0.472883 0
M  V30 13018 H 1205.11 0.936114 -0.149648 0
M  V30 13019 H 1204.82 3.51681 0.0368595 0
M  V30 13020 H 1204.69 3.32731 1.7768 0
M  V30 13021 H 1207.08 2.33582 1.80343 0
M  V30 13022 H 1207.16 2.55751 0.0498282 0
M  V30 13023 H 1206.8 5.06529 0.372872 0
M  V30 13024 H 1206.73 4.81372 2.13515 0
M  V30 13025 H 1209.22 3.59831 1.15455 0
M  V30 13026 H 1209.54 7.52541 1.7579 0
M  V30 13027 H 1207.88 6.76622 1.5877 0
M  V30 13028 H 1211.07 4.48221 1.34966 0
M  V30 13029 H 1211.25 6.27293 1.62502 0
M  V30 13030 N 1204.65 -0.602709 1.4562 0
M  V30 13031 C 1205.56 -1.74132 1.5721 0
M  V30 13032 C 1206.58 -1.67909 0.456347 0
M  V30 13033 O 1207.75 -1.88178 0.717714 0
M  V30 13034 C 1204.82 -3.10604 1.54032 0
M  V30 13035 C 1203.88 -3.28244 2.76685 0
M  V30 13036 C 1203.11 -4.58205 2.73649 0
M  V30 13037 O 1203.34 -5.40836 1.81254 0
M  V30 13038 O 1202.27 -4.78663 3.64919 0
M  V30 13039 H 1206.1 -1.67304 2.53462 0
M  V30 13040 H 1203.68 -0.767381 1.28186 0
M  V30 13041 H 1205.56 -3.91904 1.54885 0
M  V30 13042 H 1204.24 -3.17913 0.60934 0
M  V30 13043 H 1203.14 -2.46514 2.81393 0
M  V30 13044 H 1204.48 -3.25814 3.68925 0
M  V30 13045 N 1206.13 -1.32992 -0.845635 0
M  V30 13046 C 1207.38 -1.24249 -1.60281 0
M  V30 13047 C 1207.71 0.193049 -1.93238 0
M  V30 13048 O 1206.98 1.1326 -1.58122 0
M  V30 13049 C 1207.27 -2.1111 -2.91727 0
M  V30 13050 C 1207.12 -3.63088 -2.65494 0
M  V30 13051 C 1208.44 -1.97913 -3.93089 0
M  V30 13052 H 1205.56 -0.452698 -0.581578 0
M  V30 13053 H 1208.2 -1.63026 -0.975828 0
M  V30 13054 H 1206.35 -1.78169 -3.45236 0
M  V30 13055 H 1208.02 -4.06287 -2.18469 0
M  V30 13056 H 1206.26 -3.85304 -1.99306 0
M  V30 13057 H 1206.94 -4.19202 -3.59129 0
M  V30 13058 H 1209.41 -2.26788 -3.48864 0
M  V30 13059 H 1208.29 -2.60952 -4.82903 0
M  V30 13060 H 1208.55 -0.949378 -4.31786 0
M  V30 13061 N 1207.61 1.06304 -1.1635 0
M  V30 13062 C 1208.54 2.15745 -0.893103 0
M  V30 13063 C 1209.52 1.69341 0.160531 0
M  V30 13064 O 1210.7 1.94196 0.0126526 0
M  V30 13065 C 1207.83 3.45066 -0.393287 0
M  V30 13066 C 1206.79 4.04978 -1.38482 0
M  V30 13067 C 1206.11 5.29507 -0.743409 0
M  V30 13068 C 1207.41 4.4377 -2.75438 0
M  V30 13069 H 1209.11 2.38622 -1.80831 0
M  V30 13070 H 1206.65 1.14681 -0.870878 0
M  V30 13071 H 1208.61 4.20964 -0.191607 0
M  V30 13072 H 1207.33 3.21808 0.557426 0
M  V30 13073 H 1205.99 3.31136 -1.57304 0
M  V30 13074 H 1205.64 5.02545 0.213787 0
M  V30 13075 H 1205.34 5.7055 -1.40521 0
M  V30 13076 H 1206.86 6.08102 -0.551746 0
M  V30 13077 H 1208.28 5.1075 -2.60398 0
M  V30 13078 H 1206.67 4.95797 -3.38091 0
M  V30 13079 H 1207.74 3.54636 -3.30699 0
M  V30 13080 N 1209.09 0.96196 1.24836 0
M  V30 13081 C 1210.5 0.667561 1.44968 0
M  V30 13082 C 1210.7 -0.772521 1.86103 0
M  V30 13083 O 1209.76 -1.54704 1.99557 0
M  V30 13084 C 1211.07 1.64675 2.516 0
M  V30 13085 C 1212.62 1.65874 2.65433 0
M  V30 13086 C 1213.09 2.62576 3.75257 0
M  V30 13087 N 1214.58 2.60984 3.82677 0
M  V30 13088 C 1215.32 3.32484 4.67163 0
M  V30 13089 N 1214.82 4.13482 5.55882 0
M  V30 13090 N 1216.61 3.21336 4.61193 0
M  V30 13091 H 1208.76 1.89248 0.964307 0
M  V30 13092 H 1211.02 0.814443 0.485167 0
M  V30 13093 H 1210.73 2.67572 2.2825 0
M  V30 13094 H 1210.6 1.415 3.49653 0
M  V30 13095 H 1212.99 0.636912 2.88145 0
M  V30 13096 H 1213.07 1.9311 1.67756 0
M  V30 13097 H 1212.71 3.6489 3.53295 0
M  V30 13098 H 1212.64 2.32622 4.72435 0
M  V30 13099 H 1215.14 2.02187 3.19263 0
M  V30 13100 H 1215.45 4.6494 6.17293 0
M  V30 13101 H 1213.79 4.17578 5.55566 0
M  V30 13102 H 1216.98 2.57524 3.90895 0
M  V30 13103 H 1217.16 3.77323 5.26812 0
M  V30 13104 N 1210.56 -1.39601 0.731392 0
M  V30 13105 C 1211.79 -2.04887 0.28789 0
M  V30 13106 C 1212.21 -1.55138 -1.076 0
M  V30 13107 O 1211.56 -0.71471 -1.67923 0
M  V30 13108 C 1211.61 -3.6044 0.276629 0
M  V30 13109 O 1211.34 -4.08358 1.58668 0
M  V30 13110 C 1212.84 -4.4292 -0.183485 0
M  V30 13111 H 1210.06 -0.658976 0.126459 0
M  V30 13112 H 1212.6 -1.78716 0.994031 0
M  V30 13113 H 1210.76 -3.85526 -0.380597 0
M  V30 13114 H 1211.17 -5.02659 1.4978 0
M  V30 13115 H 1212.64 -5.51822 -0.140207 0
M  V30 13116 H 1213.12 -4.2168 -1.22811 0
M  V30 13117 H 1213.73 -4.22976 0.444042 0
M  V30 13118 N 1212.04 -0.478751 -1.50152 0
M  V30 13119 C 1212.95 0.316554 -2.32455 0
M  V30 13120 C 1213.97 0.98871 -1.4318 0
M  V30 13121 O 1215.14 0.974998 -1.76226 0
M  V30 13122 C 1212.21 1.3799 -3.18056 0
M  V30 13123 C 1211.27 0.723534 -4.23159 0
M  V30 13124 C 1210.5 1.73621 -5.0467 0
M  V30 13125 O 1210.73 2.96362 -4.87366 0
M  V30 13126 O 1209.66 1.30381 -5.87609 0
M  V30 13127 H 1213.49 -0.356491 -3.016 0
M  V30 13128 H 1211.07 -0.24046 -1.47452 0
M  V30 13129 H 1212.95 1.99565 -3.71149 0
M  V30 13130 H 1211.63 2.03627 -2.5163 0
M  V30 13131 H 1210.54 0.0686296 -3.74037 0
M  V30 13132 H 1211.87 0.109979 -4.92077 0
M  V30 13133 N 1213.52 1.56172 -0.211661 0
M  V30 13134 C 1214.45 2.22843 0.697375 0
M  V30 13135 C 1215.43 1.19689 1.20866 0
M  V30 13136 O 1216.62 1.48245 1.25447 0
M  V30 13137 C 1213.75 2.90067 1.90993 0
M  V30 13138 C 1212.7 3.99608 1.5329 0
M  V30 13139 C 1212.03 4.54078 2.82343 0
M  V30 13140 C 1213.33 5.17169 0.730333 0
M  V30 13141 H 1215.02 2.99065 0.141533 0
M  V30 13142 H 1212.57 1.43846 0.0666337 0
M  V30 13143 H 1214.52 3.35396 2.55123 0
M  V30 13144 H 1213.24 2.11276 2.49058 0
M  V30 13145 H 1211.9 3.54995 0.915115 0
M  V30 13146 H 1211.55 3.72029 3.38531 0
M  V30 13147 H 1211.25 5.28001 2.57853 0
M  V30 13148 H 1212.77 5.02119 3.47432 0
M  V30 13149 H 1214.19 5.5894 1.2751 0
M  V30 13150 H 1212.59 5.97262 0.582916 0
M  V30 13151 H 1213.66 4.84174 -0.265157 0
M  V30 13152 N 1215 -0.0618163 1.57479 0
M  V30 13153 C 1216.23 -0.771724 1.91969 0
M  V30 13154 C 1216.64 -1.7061 0.808549 0
M  V30 13155 O 1216 -1.812 -0.217455 0
M  V30 13156 C 1216.05 -1.55687 3.26257 0
M  V30 13157 O 1215.77 -0.660032 4.331 0
M  V30 13158 C 1217.27 -2.36688 3.74825 0
M  V30 13159 H 1214.49 -0.21885 0.634307 0
M  V30 13160 H 1217.04 -0.0291068 2.04479 0
M  V30 13161 H 1215.19 -2.25167 3.15244 0
M  V30 13162 H 1215.6 -1.20715 5.1042 0
M  V30 13163 H 1217.08 -2.8722 4.7139 0
M  V30 13164 H 1217.56 -3.1666 3.0434 0
M  V30 13165 H 1218.16 -1.72346 3.88815 0
M  V30 13166 N 1216.48 -1.54033 -0.333429 0
M  V30 13167 C 1217.71 -1.75461 -1.09073 0
M  V30 13168 C 1218.11 -0.498488 -1.82515 0
M  V30 13169 O 1217.46 0.540029 -1.75583 0
M  V30 13170 C 1217.52 -2.88744 -2.14166 0
M  V30 13171 C 1217.18 -4.27998 -1.60209 0
M  V30 13172 C 1218.18 -5.09206 -1.04907 0
M  V30 13173 C 1215.87 -4.74513 -1.6475 0
M  V30 13174 C 1217.86 -6.35035 -0.548615 0
M  V30 13175 C 1215.55 -6.00312 -1.14318 0
M  V30 13176 C 1216.54 -6.80406 -0.594667 0
M  V30 13177 O 1216.23 -8.0384 -0.097891 0
M  V30 13178 H 1215.96 -0.589586 -0.330702 0
M  V30 13179 H 1218.52 -2.01697 -0.388274 0
M  V30 13180 H 1216.75 -2.58057 -2.87999 0
M  V30 13181 H 1218.44 -2.98048 -2.7554 0
M  V30 13182 H 1219.2 -4.74428 -1.00713 0
M  V30 13183 H 1215.08 -4.12222 -2.06384 0
M  V30 13184 H 1218.63 -6.97497 -0.119823 0
M  V30 13185 H 1214.52 -6.34583 -1.18215 0
M  V30 13186 H 1215.29 -8.1822 -0.214237 0
M  V30 13187 N 1217.95 0.594978 -1.45938 0
M  V30 13188 C 1218.88 1.71536 -1.58422 0
M  V30 13189 C 1219.87 1.64441 -0.435116 0
M  V30 13190 O 1221.05 1.82647 -0.659839 0
M  V30 13191 C 1218.18 3.10163 -1.56257 0
M  V30 13192 C 1217.13 3.3208 -2.70013 0
M  V30 13193 C 1216.46 4.71108 -2.52905 0
M  V30 13194 C 1217.76 3.21105 -4.11933 0
M  V30 13195 H 1219.45 1.61344 -2.52207 0
M  V30 13196 H 1217 0.774791 -1.2138 0
M  V30 13197 H 1218.95 3.88352 -1.63587 0
M  V30 13198 H 1217.68 3.21225 -0.590093 0
M  V30 13199 H 1216.34 2.56286 -2.62132 0
M  V30 13200 H 1215.98 4.7892 -1.53768 0
M  V30 13201 H 1215.68 4.86727 -3.29197 0
M  V30 13202 H 1217.21 5.51482 -2.62107 0
M  V30 13203 H 1218.62 3.89153 -4.2099 0
M  V30 13204 H 1217.02 3.4825 -4.88715 0
M  V30 13205 H 1218.09 2.18359 -4.32952 0
M  V30 13206 N 1219.43 1.33438 0.838571 0
M  V30 13207 C 1220.36 1.19552 1.9555 0
M  V30 13208 C 1221.38 0.12642 1.62308 0
M  V30 13209 O 1222.57 0.376868 1.74476 0
M  V30 13210 C 1219.67 0.811273 3.29046 0
M  V30 13211 C 1218.84 1.97207 3.9042 0
M  V30 13212 C 1217.9 1.56875 5.02271 0
M  V30 13213 O 1216.92 2.28314 5.21403 0
M  V30 13214 N 1218.13 0.473924 5.78562 0
M  V30 13215 H 1220.89 2.15769 2.07999 0
M  V30 13216 H 1218.45 1.26187 1.01432 0
M  V30 13217 H 1220.44 0.523553 4.01299 0
M  V30 13218 H 1219.01 -0.0602291 3.12542 0
M  V30 13219 H 1218.23 2.4254 3.10754 0
M  V30 13220 H 1219.52 2.74878 4.28158 0
M  V30 13221 H 1218.92 -0.120306 5.65572 0
M  V30 13222 H 1217.48 0.245877 6.51336 0
M  V30 13223 N 1220.91 -1.05686 1.16912 0
M  V30 13224 C 1222.14 -1.82018 0.977392 0
M  V30 13225 C 1222.55 -1.83072 -0.477636 0
M  V30 13226 O 1221.89 -1.25296 -1.34338 0
M  V30 13227 C 1221.95 -3.29592 1.4356 0
M  V30 13228 C 1221.62 -3.5223 2.91175 0
M  V30 13229 C 1222.61 -3.44767 3.89142 0
M  V30 13230 C 1220.3 -3.79353 3.29236 0
M  V30 13231 C 1222.29 -3.64104 5.2317 0
M  V30 13232 C 1219.98 -3.98339 4.63432 0
M  V30 13233 C 1220.98 -3.90713 5.60207 0
M  V30 13234 O 1220.67 -4.09175 6.91976 0
M  V30 13235 H 1220.4 -0.580578 0.346273 0
M  V30 13236 H 1222.95 -1.34199 1.55498 0
M  V30 13237 H 1221.18 -3.78302 0.80153 0
M  V30 13238 H 1222.87 -3.87435 1.21032 0
M  V30 13239 H 1223.64 -3.23796 3.61083 0
M  V30 13240 H 1219.52 -3.84395 2.54482 0
M  V30 13241 H 1223.06 -3.58068 5.98693 0
M  V30 13242 H 1218.96 -4.18801 4.91198 0
M  V30 13243 H 1219.73 -4.26429 6.98642 0
M  V30 13244 N 1222.39 -0.968567 -1.24324 0
M  V30 13245 C 1223.64 -0.629682 -1.9204 0
M  V30 13246 C 1223.96 0.837906 -1.7608 0
M  V30 13247 O 1223.23 1.5982 -1.13289 0
M  V30 13248 H 1221.81 -0.229901 -0.710742 0
M  V30 13249 H 1224.47 -1.22982 -1.512 0
M  V30 13250 H 1223.57 -0.871034 -2.99699 0
M  V30 13251 N 1223.87 1.39211 -0.738786 0
M  V30 13252 C 1225.11 2.01209 -0.297722 0
M  V30 13253 C 1225.47 1.57579 1.10393 0
M  V30 13254 O 1224.76 0.796454 1.74262 0
M  V30 13255 C 1224.95 3.55758 -0.342224 0
M  V30 13256 C 1224.78 4.14393 -1.74666 0
M  V30 13257 C 1223.55 4.46814 -2.35978 0
M  V30 13258 C 1225.75 4.37672 -2.70089 0
M  V30 13259 N 1223.73 4.90973 -3.68536 0
M  V30 13260 C 1225.1 4.84077 -3.87388 0
M  V30 13261 C 1227.16 4.19746 -2.67802 0
M  V30 13262 C 1225.86 5.14436 -5.02741 0
M  V30 13263 C 1227.89 4.51221 -3.82301 0
M  V30 13264 C 1227.25 4.97836 -4.98336 0
M  V30 13265 H 1223.35 0.766427 -0.155283 0
M  V30 13266 H 1225.93 1.69071 -0.965568 0
M  V30 13267 H 1224.1 3.87276 0.295285 0
M  V30 13268 H 1225.84 4.04529 0.117748 0
M  V30 13269 H 1222.59 4.34744 -1.87869 0
M  V30 13270 H 1223.02 5.17405 -4.36602 0
M  V30 13271 H 1227.66 3.82906 -1.79284 0
M  V30 13272 H 1225.38 5.50179 -5.91886 0
M  V30 13273 H 1228.96 4.3897 -3.81834 0
M  V30 13274 H 1227.84 5.21728 -5.85465 0
M  V30 13275 N 1225.34 0.486708 1.49896 0
M  V30 13276 C 1226.57 -0.0622999 2.07306 0
M  V30 13277 C 1226.99 -1.31353 1.3464 0
M  V30 13278 O 1226.35 -1.76861 0.398752 0
M  V30 13279 C 1226.4 -0.313481 3.59235 0
M  V30 13280 O 1225.5 -1.39101 3.88233 0
M  V30 13281 H 1224.85 0.0198885 0.663702 0
M  V30 13282 H 1227.38 0.682232 1.92891 0
M  V30 13283 H 1227.39 -0.549302 4.04285 0
M  V30 13284 H 1226.06 0.600767 4.11538 0
M  V30 13285 H 1224.64 -1.14127 3.55006 0
M  V30 13286 N 1226.82 -1.56058 0.219941 0
M  V30 13287 C 1228.05 -2.02358 -0.416497 0
M  V30 13288 C 1228.46 -1.09903 -1.54007 0
M  V30 13289 O 1227.8 -0.100635 -1.83424 0
M  V30 13290 C 1227.87 -3.45 -1.01072 0
M  V30 13291 C 1227.53 -4.56994 -0.0227891 0
M  V30 13292 C 1228.53 -5.14061 0.776997 0
M  V30 13293 C 1226.21 -5.02209 0.0954981 0
M  V30 13294 C 1228.21 -6.14813 1.68179 0
M  V30 13295 C 1225.89 -6.02799 1.00383 0
M  V30 13296 C 1226.89 -6.58977 1.79552 0
M  V30 13297 O 1226.58 -7.57608 2.68858 0
M  V30 13298 H 1226.31 -0.667581 -0.106355 0
M  V30 13299 H 1228.87 -2.02677 0.333348 0
M  V30 13300 H 1227.1 -3.41745 -1.80962 0
M  V30 13301 H 1228.78 -3.74958 -1.55439 0
M  V30 13302 H 1229.55 -4.79979 0.696053 0
M  V30 13303 H 1225.43 -4.58164 -0.510599 0
M  V30 13304 H 1228.97 -6.58588 2.30017 0
M  V30 13305 H 1224.87 -6.36302 1.08579 0
M  V30 13306 H 1225.64 -7.75124 2.62915 0
M  V30 13307 N 1228.3 0.053464 -1.57509 0
M  V30 13308 C 1229.55 0.749102 -1.88135 0
M  V30 13309 C 1229.88 1.76642 -0.814111 0
M  V30 13310 O 1229.13 1.94796 0.187845 0
M  V30 13311 C 1229.43 1.47666 -3.25468 0
M  V30 13312 C 1229.1 0.597619 -4.46922 0
M  V30 13313 C 1227.76 0.355429 -4.79886 0
M  V30 13314 C 1230.11 -0.0107869 -5.21199 0
M  V30 13315 C 1227.44 -0.504347 -5.84528 0
M  V30 13316 C 1229.79 -0.858123 -6.26753 0
M  V30 13317 C 1228.45 -1.11001 -6.58206 0
M  V30 13318 H 1227.72 0.274116 -0.688434 0
M  V30 13319 H 1230.37 0.00944162 -1.91498 0
M  V30 13320 H 1228.68 2.28901 -3.1798 0
M  V30 13321 H 1230.37 2.02002 -3.46404 0
M  V30 13322 H 1226.96 0.796526 -4.21134 0
M  V30 13323 H 1231.15 0.163404 -4.96031 0
M  V30 13324 H 1226.4 -0.708057 -6.07286 0
M  V30 13325 H 1230.58 -1.3362 -6.83461 0
M  V30 13326 H 1228.2 -1.77798 -7.39116 0
M  V30 13327 N 1229.78 1.54207 0.325255 0
M  V30 13328 C 1230.73 1.79856 1.40128 0
M  V30 13329 C 1231.71 0.654503 1.46987 0
M  V30 13330 O 1232.91 0.914453 1.51548 0
M  V30 13331 C 1230.03 2.02786 2.77007 0
M  V30 13332 C 1229.12 3.23309 2.74467 0
M  V30 13333 N 1229.51 4.44396 2.41549 0
M  V30 13334 C 1227.81 3.24848 3.05598 0
M  V30 13335 C 1228.51 5.26325 2.47703 0
M  V30 13336 N 1227.49 4.63468 2.84074 0
M  V30 13337 H 1231.29 2.71056 1.13603 0
M  V30 13338 H 1228.8 1.53379 0.533728 0
M  V30 13339 H 1230.8 2.19301 3.5456 0
M  V30 13340 H 1229.46 1.12839 3.04463 0
M  V30 13341 H 1230.47 4.71426 2.14425 0
M  V30 13342 H 1227.15 2.44929 3.38107 0
M  V30 13343 H 1228.54 6.33016 2.25257 0
M  V30 13344 N 1231.26 -0.58723 1.46251 0
M  V30 13345 C 1232.17 -1.72455 1.59048 0
M  V30 13346 C 1233.18 -1.67416 0.47413 0
M  V30 13347 O 1234.36 -1.87406 0.737633 0
M  V30 13348 C 1231.42 -3.08953 1.57318 0
M  V30 13349 C 1230.49 -3.25291 2.80151 0
M  V30 13350 C 1229.72 -4.55277 2.78493 0
M  V30 13351 O 1229.94 -5.38883 1.8698 0
M  V30 13352 O 1228.88 -4.74765 3.69975 0
M  V30 13353 H 1232.7 -1.64606 2.55223 0
M  V30 13354 H 1230.29 -0.753742 1.28993 0
M  V30 13355 H 1232.17 -3.90239 1.59033 0
M  V30 13356 H 1230.84 -3.17249 0.643025 0
M  V30 13357 H 1229.75 -2.43515 2.83991 0
M  V30 13358 H 1231.08 -3.21883 3.7236 0
M  V30 13359 N 1232.74 -1.33881 -0.831482 0
M  V30 13360 C 1233.7 -1.24654 -1.92339 0
M  V30 13361 C 1234.7 -0.163788 -1.59964 0
M  V30 13362 O 1235.89 -0.415829 -1.69164 0
M  V30 13363 C 1233.02 -0.922537 -3.2818 0
M  V30 13364 H 1234.21 -2.21717 -2.01944 0
M  V30 13365 H 1231.77 -1.18046 -1.02445 0
M  V30 13366 H 1232.5 0.0452872 -3.24268 0
M  V30 13367 H 1232.29 -1.70562 -3.53059 0
M  V30 13368 H 1233.78 -0.88292 -4.0816 0
M  V30 13369 N 1234.21 1.05064 -1.1747 0
M  V30 13370 C 1235.46 1.78352 -0.965311 0
M  V30 13371 C 1235.79 1.87527 0.504707 0
M  V30 13372 O 1235.07 1.376 1.37465 0
M  V30 13373 C 1235.35 3.22173 -1.60862 0
M  V30 13374 C 1235.2 3.21003 -3.15083 0
M  V30 13375 C 1236.52 4.2004 -1.31358 0
M  V30 13376 H 1233.64 0.647452 -0.352101 0
M  V30 13377 H 1236.28 1.22794 -1.44988 0
M  V30 13378 H 1234.43 3.69613 -1.19658 0
M  V30 13379 H 1236.11 2.81629 -3.65353 0
M  V30 13380 H 1234.35 2.59309 -3.47766 0
M  V30 13381 H 1235.02 4.22516 -3.55224 0
M  V30 13382 H 1237.5 3.81099 -1.6704 0
M  V30 13383 H 1236.37 5.1891 -1.78953 0
M  V30 13384 H 1236.63 4.41477 -0.234606 0
M  V30 13385 N 1235.69 0.975146 1.23809 0
M  V30 13386 C 1236.62 0.469151 2.24347 0
M  V30 13387 C 1237.64 -0.426156 1.57123 0
M  V30 13388 O 1238.83 -0.231136 1.76997 0
M  V30 13389 C 1235.93 -0.34121 3.37178 0
M  V30 13390 C 1235.1 0.545968 4.33979 0
M  V30 13391 C 1234.16 -0.209648 5.25782 0
M  V30 13392 O 1233.18 0.398953 5.678 0
M  V30 13393 N 1234.39 -1.49713 5.60862 0
M  V30 13394 H 1237.15 1.33359 2.68394 0
M  V30 13395 H 1234.71 0.847814 1.37927 0
M  V30 13396 H 1236.7 -0.854924 3.95567 0
M  V30 13397 H 1235.27 -1.10663 2.92357 0
M  V30 13398 H 1234.49 1.24057 3.7417 0
M  V30 13399 H 1235.78 1.15077 4.95615 0
M  V30 13400 H 1235.18 -2.0132 5.28665 0
M  V30 13401 H 1233.74 -1.95639 6.21746 0
M  V30 13402 N 1237.17 -1.38817 0.746158 0
M  V30 13403 C 1238.13 -2.28876 0.121886 0
M  V30 13404 C 1239.13 -1.46838 -0.655379 0
M  V30 13405 O 1240.32 -1.67377 -0.482744 0
M  V30 13406 C 1237.45 -3.30487 -0.836118 0
M  V30 13407 H 1238.65 -2.85586 0.915453 0
M  V30 13408 H 1236.2 -1.47652 0.512691 0
M  V30 13409 H 1236.94 -2.78853 -1.65563 0
M  V30 13410 H 1236.72 -3.9109 -0.281271 0
M  V30 13411 H 1238.21 -3.97848 -1.26914 0
M  V30 13412 N 1238.65 -0.49465 -1.49636 0
M  V30 13413 C 1239.9 0.0520143 -2.02033 0
M  V30 13414 C 1240.22 1.38071 -1.37701 0
M  V30 13415 O 1239.49 1.88589 -0.530181 0
M  V30 13416 H 1238.07 0.0222123 -0.74667 0
M  V30 13417 H 1240.73 -0.650445 -1.83726 0
M  V30 13418 H 1239.82 0.186337 -3.11543 0
M  V30 13419 N 1240.13 1.55939 -0.228214 0
M  V30 13420 C 1241.37 1.99518 0.395485 0
M  V30 13421 C 1241.73 1.11339 1.56912 0
M  V30 13422 O 1241.02 0.164788 1.9089 0
M  V30 13423 C 1241.21 3.46581 0.872732 0
M  V30 13424 C 1241.04 4.48987 -0.253122 0
M  V30 13425 C 1239.81 5.0012 -0.721702 0
M  V30 13426 C 1242.01 5.02967 -1.0737 0
M  V30 13427 N 1239.99 5.86242 -1.82192 0
M  V30 13428 C 1241.36 5.86079 -2.02265 0
M  V30 13429 C 1243.42 4.85315 -1.11238 0
M  V30 13430 C 1242.12 6.53424 -3.00716 0
M  V30 13431 C 1244.15 5.53423 -2.0851 0
M  V30 13432 C 1243.51 6.36308 -3.02144 0
M  V30 13433 H 1239.61 0.774053 0.1112 0
M  V30 13434 H 1242.19 1.91681 -0.341512 0
M  V30 13435 H 1240.36 3.54852 1.57907 0
M  V30 13436 H 1242.1 3.77066 1.46981 0
M  V30 13437 H 1238.85 4.7259 -0.309119 0
M  V30 13438 H 1239.27 6.34003 -2.37423 0
M  V30 13439 H 1243.92 4.20881 -0.402389 0
M  V30 13440 H 1241.63 7.17035 -3.72674 0
M  V30 13441 H 1245.22 5.41727 -2.12186 0
M  V30 13442 H 1244.1 6.88081 -3.76183 0
M  V30 13443 N 1241.6 -0.0451101 1.57535 0
M  V30 13444 C 1243.02 -0.400463 1.54494 0
M  V30 13445 C 1243.22 -1.77584 0.952166 0
M  V30 13446 O 1242.28 -2.46069 0.566221 0
M  V30 13447 C 1243.59 -0.31703 2.99024 0
M  V30 13448 C 1245.14 -0.395284 3.10494 0
M  V30 13449 C 1245.61 -0.341475 4.56725 0
M  V30 13450 N 1247.1 -0.400755 4.61463 0
M  V30 13451 C 1247.84 -0.381757 5.72128 0
M  V30 13452 N 1247.33 -0.315995 6.92079 0
M  V30 13453 N 1249.13 -0.4303 5.60451 0
M  V30 13454 H 1241.28 0.855156 1.94424 0
M  V30 13455 H 1243.54 0.323618 0.891053 0
M  V30 13456 H 1243.25 0.627477 3.46057 0
M  V30 13457 H 1243.12 -1.11696 3.60283 0
M  V30 13458 H 1245.51 -1.33022 2.63418 0
M  V30 13459 H 1245.59 0.433709 2.52096 0
M  V30 13460 H 1245.23 0.589725 5.04465 0
M  V30 13461 H 1245.16 -1.18836 5.13016 0
M  V30 13462 H 1247.65 -0.454745 3.75154 0
M  V30 13463 H 1247.97 -0.306158 7.72193 0
M  V30 13464 H 1246.31 -0.282281 6.94427 0
M  V30 13465 H 1249.5 -0.479555 4.65637 0
M  V30 13466 H 1249.68 -0.412025 6.46689 0
M  V30 13467 N 1243.08 -1.54377 -0.317073 0
M  V30 13468 C 1244.31 -1.77184 -1.07798 0
M  V30 13469 C 1244.73 -0.52204 -1.80711 0
M  V30 13470 O 1244.09 0.52672 -1.7348 0
M  V30 13471 C 1244.14 -2.96887 -2.04671 0
M  V30 13472 O 1243.24 -2.68887 -3.12688 0
M  V30 13473 H 1242.58 -0.586937 -0.310485 0
M  V30 13474 H 1245.11 -2.01419 -0.35939 0
M  V30 13475 H 1245.12 -3.24414 -2.47426 0
M  V30 13476 H 1243.8 -3.87518 -1.51005 0
M  V30 13477 H 1242.38 -2.52329 -2.74562 0
M  V30 13478 N 1244.56 0.579466 -1.4656 0
M  V30 13479 C 1245.52 1.67033 -1.56948 0
M  V30 13480 C 1246.52 1.54481 -0.446361 0
M  V30 13481 O 1247.71 1.5904 -0.710767 0
M  V30 13482 C 1244.85 3.06474 -1.49286 0
M  V30 13483 H 1246.04 1.59179 -2.54169 0
M  V30 13484 H 1243.59 0.797573 -1.34419 0
M  V30 13485 H 1244.33 3.1988 -0.533572 0
M  V30 13486 H 1244.11 3.16993 -2.30776 0
M  V30 13487 H 1245.6 3.85879 -1.59648 0
M  V30 13488 N 1246.04 1.3432 0.824371 0
M  V30 13489 C 1247.27 1.29669 1.61226 0
M  V30 13490 C 1247.68 -0.129532 1.88355 0
M  V30 13491 O 1247.04 -1.07616 1.47394 0
M  V30 13492 C 1247.09 2.08375 2.95402 0
M  V30 13493 O 1246.81 3.45434 2.69456 0
M  V30 13494 C 1248.31 2.11103 3.89808 0
M  V30 13495 H 1245.53 0.446137 0.501201 0
M  V30 13496 H 1248.08 1.76912 1.02579 0
M  V30 13497 H 1246.23 1.64777 3.5061 0
M  V30 13498 H 1246.64 3.86101 3.55001 0
M  V30 13499 H 1248.12 2.706 4.81124 0
M  V30 13500 H 1248.6 1.10505 4.25071 0
M  V30 13501 H 1249.2 2.54784 3.40537 0
M  V30 13502 N 1247.52 -1.0444 1.18026 0
M  V30 13503 C 1248.43 -2.15862 0.918747 0
M  V30 13504 C 1249.44 -1.73614 -0.115808 0
M  V30 13505 O 1250.62 -2.01294 0.0652312 0
M  V30 13506 C 1247.68 -3.43846 0.443922 0
M  V30 13507 C 1246.74 -4.00497 1.54599 0
M  V30 13508 C 1245.98 -5.22373 1.09372 0
M  V30 13509 O 1246.2 -5.70379 -0.049085 0
M  V30 13510 O 1245.13 -5.71459 1.88992 0
M  V30 13511 H 1248.96 -2.40776 1.85097 0
M  V30 13512 H 1246.55 -1.14326 0.961769 0
M  V30 13513 H 1248.43 -4.20985 0.187017 0
M  V30 13514 H 1247.1 -3.20414 -0.460051 0
M  V30 13515 H 1246.01 -3.24764 1.85686 0
M  V30 13516 H 1247.34 -4.28262 2.42595 0
M  V30 13517 N 1248.99 -0.981699 -1.2329 0
M  V30 13518 C 1250.22 -0.66937 -1.95773 0
M  V30 13519 C 1250.64 0.763898 -1.72656 0
M  V30 13520 O 1249.99 1.51418 -1.01876 0
M  V30 13521 C 1250.05 -0.951863 -3.48743 0
M  V30 13522 O 1249.77 -2.3288 -3.71078 0
M  V30 13523 C 1251.27 -0.655668 -4.38424 0
M  V30 13524 H 1248.49 -0.248545 -0.623271 0
M  V30 13525 H 1251.03 -1.31343 -1.56746 0
M  V30 13526 H 1249.19 -0.353787 -3.85781 0
M  V30 13527 H 1249.6 -2.41948 -4.65362 0
M  V30 13528 H 1251.07 -0.903683 -5.44553 0
M  V30 13529 H 1251.55 0.410269 -4.3728 0
M  V30 13530 H 1252.16 -1.23428 -4.06996 0
M  V30 13531 N 1250.47 1.3842 -0.753509 0
M  V30 13532 C 1251.4 2.33073 -0.141198 0
M  V30 13533 C 1252.38 1.54863 0.70367 0
M  V30 13534 O 1253.57 1.8318 0.644872 0
M  V30 13535 C 1250.7 3.39043 0.752802 0
M  V30 13536 C 1249.65 4.27999 0.0106692 0
M  V30 13537 C 1248.98 5.24824 1.02291 0
M  V30 13538 C 1250.28 5.09308 -1.15768 0
M  V30 13539 H 1251.97 2.84528 -0.93188 0
M  V30 13540 H 1249.52 1.36802 -0.449567 0
M  V30 13541 H 1251.47 4.04224 1.19083 0
M  V30 13542 H 1250.2 2.8607 1.57581 0
M  V30 13543 H 1248.85 3.64323 -0.407939 0
M  V30 13544 H 1248.5 4.68139 1.83998 0
M  V30 13545 H 1248.2 5.85196 0.53101 0
M  V30 13546 H 1249.73 5.92882 1.46026 0
M  V30 13547 H 1251.14 5.6773 -0.797203 0
M  V30 13548 H 1249.54 5.78914 -1.58044 0
M  V30 13549 H 1250.61 4.43051 -1.97062 0
M  V30 13550 N 1251.95 0.502579 1.49372 0
M  V30 13551 C 1252.91 -0.263993 2.27675 0
M  V30 13552 C 1253.91 -0.892538 1.33755 0
M  V30 13553 O 1255.1 -0.756826 1.56901 0
M  V30 13554 C 1252.24 -1.37895 3.11765 0
M  V30 13555 H 1253.43 0.423132 2.969 0
M  V30 13556 H 1250.98 0.257595 1.54163 0
M  V30 13557 H 1251.72 -2.10018 2.47109 0
M  V30 13558 H 1251.5 -0.933694 3.80821 0
M  V30 13559 H 1252.99 -1.91889 3.70902 0
M  V30 13560 N 1253.43 -1.55816 0.23648 0
M  V30 13561 C 1254.68 -1.98294 -0.390373 0
M  V30 13562 C 1255 -1.12573 -1.59224 0
M  V30 13563 O 1254.27 -0.206128 -1.94813 0
M  V30 13564 H 1252.85 -0.732349 -0.14722 0
M  V30 13565 H 1255.51 -1.92037 0.332848 0
M  V30 13566 H 1254.61 -3.03996 -0.706595 0
M  V30 13567 N 1254.91 0.036755 -1.57557 0
M  V30 13568 C 1255.87 1.02435 -2.05036 0
M  V30 13569 C 1256.87 1.29506 -0.953146 0
M  V30 13570 O 1258.06 1.24638 -1.217 0
M  V30 13571 C 1255.19 2.3592 -2.46079 0
M  V30 13572 H 1256.38 0.614384 -2.93539 0
M  V30 13573 H 1253.94 0.283396 -1.53709 0
M  V30 13574 H 1254.67 2.8168 -1.60708 0
M  V30 13575 H 1254.46 2.17603 -3.26177 0
M  V30 13576 H 1255.95 3.06839 -2.83266 0
M  V30 13577 N 1256.39 1.54543 0.308881 0
M  V30 13578 C 1257.63 1.74639 1.04273 0
M  V30 13579 C 1257.99 0.521584 1.85195 0
M  V30 13580 O 1257.28 -0.486029 1.85333 0
M  V30 13581 C 1257.47 2.97124 1.98626 0
M  V30 13582 C 1257.3 4.31399 1.26983 0
M  V30 13583 C 1256.07 4.95301 1.00025 0
M  V30 13584 C 1258.27 5.09808 0.67827 0
M  V30 13585 N 1256.25 6.13377 0.253269 0
M  V30 13586 C 1257.62 6.19967 0.0636574 0
M  V30 13587 C 1259.68 4.9448 0.582538 0
M  V30 13588 C 1258.38 7.1647 -0.637416 0
M  V30 13589 C 1260.41 5.91307 -0.104864 0
M  V30 13590 C 1259.77 7.00829 -0.70836 0
M  V30 13591 H 1255.87 0.691718 0.36476 0
M  V30 13592 H 1258.45 1.92015 0.322233 0
M  V30 13593 H 1256.62 2.81187 2.67934 0
M  V30 13594 H 1258.36 3.05781 2.65104 0
M  V30 13595 H 1255.11 4.55512 1.29638 0
M  V30 13596 H 1255.53 6.76916 -0.106505 0
M  V30 13597 H 1260.18 4.0994 1.03483 0
M  V30 13598 H 1257.89 8.00558 -1.1015 0
M  V30 13599 H 1261.48 5.81525 -0.178774 0
M  V30 13600 H 1260.36 7.74465 -1.23182 0
M  V30 13601 N 1257.86 -0.571685 1.46866 0
M  V30 13602 C 1259.11 -1.32685 1.52444 0
M  V30 13603 C 1259.43 -1.94147 0.182225 0
M  V30 13604 O 1258.7 -1.79159 -0.792385 0
M  V30 13605 H 1257.28 -0.492679 0.561495 0
M  V30 13606 H 1259.94 -0.668694 1.8307 0
M  V30 13607 H 1259.04 -2.12788 2.28315 0
M  V30 13608 N 1259.34 -1.34755 -0.817236 0
M  V30 13609 C 1260.62 -1.18007 -1.55993 0
M  V30 13610 C 1261 0.245079 -2.09673 0
M  V30 13611 O 1260.35 1.24718 -1.91462 0
M  V30 13612 C 1260.56 -2.23934 -2.67684 0
M  V30 13613 C 1261.9 -2.59201 -3.36303 0
M  V30 13614 O 1262.93 -2.22767 -2.77945 0
M  V30 13615 O 1261.79 -3.21809 -4.41702 0
M  V30 13616 H 1258.88 -0.4578 -0.688729 0
M  V30 13617 H 1261.43 -1.46405 -0.858117 0
M  V30 13618 H 1260.2 -3.19568 -2.25813 0
M  V30 13619 H 1259.82 -1.96745 -3.4551 0
M  V30 13620 N 1260.82 1.03812 -1.18578 0
M  V30 13621 C 1261.75 2.13802 -0.938665 0
M  V30 13622 C 1262.73 1.69643 0.124575 0
M  V30 13623 O 1263.92 1.94179 -0.0285421 0
M  V30 13624 C 1261.05 3.44154 -0.466392 0
M  V30 13625 C 1260 4.01949 -1.47041 0
M  V30 13626 C 1259.33 5.27811 -0.855558 0
M  V30 13627 C 1260.63 4.37827 -2.84789 0
M  V30 13628 H 1262.32 2.34732 -1.85852 0
M  V30 13629 H 1259.87 1.12808 -0.895007 0
M  V30 13630 H 1261.82 4.20463 -0.280856 0
M  V30 13631 H 1260.54 3.22918 0.489041 0
M  V30 13632 H 1259.2 3.27725 -1.64293 0
M  V30 13633 H 1258.85 5.02886 0.107142 0
M  V30 13634 H 1258.55 5.67441 -1.52592 0
M  V30 13635 H 1260.07 6.06795 -0.680609 0
M  V30 13636 H 1261.49 5.05112 -2.71173 0
M  V30 13637 H 1259.88 4.88514 -3.48532 0
M  V30 13638 H 1260.95 3.47541 -3.38147 0
M  V30 13639 N 1262.3 0.988223 1.22768 0
M  V30 13640 C 1263.54 0.672085 1.91975 0
M  V30 13641 C 1263.9 -0.786719 1.7558 0
M  V30 13642 O 1263.19 -1.561 1.111 0
M  V30 13643 C 1263.39 1.00744 3.42907 0
M  V30 13644 C 1263.21 2.4973 3.73985 0
M  V30 13645 C 1261.98 3.16058 3.94253 0
M  V30 13646 C 1264.18 3.47831 3.78838 0
M  V30 13647 N 1262.16 4.54568 4.12603 0
M  V30 13648 C 1263.54 4.7178 4.02273 0
M  V30 13649 C 1265.59 3.42203 3.61665 0
M  V30 13650 C 1264.29 5.90789 4.10318 0
M  V30 13651 C 1266.32 4.60584 3.70967 0
M  V30 13652 C 1265.68 5.83331 3.94847 0
M  V30 13653 H 1261.78 0.297129 0.723352 0
M  V30 13654 H 1264.36 1.26728 1.47811 0
M  V30 13655 H 1262.54 0.440869 3.8589 0
M  V30 13656 H 1264.27 0.647774 3.99482 0
M  V30 13657 H 1261.02 2.66536 3.91479 0
M  V30 13658 H 1261.45 5.26399 4.25715 0
M  V30 13659 H 1266.09 2.48323 3.42193 0
M  V30 13660 H 1263.81 6.85078 4.28596 0
M  V30 13661 H 1267.39 4.57813 3.59024 0
M  V30 13662 H 1266.27 6.73403 4.01868 0
M  V30 13663 N 1263.78 -1.38018 0.760839 0
M  V30 13664 C 1264.69 -2.34181 0.140232 0
M  V30 13665 C 1265.7 -1.59635 -0.692287 0
M  V30 13666 O 1266.88 -1.91788 -0.614752 0
M  V30 13667 C 1263.94 -3.38778 -0.73693 0
M  V30 13668 C 1263 -4.29157 0.110792 0
M  V30 13669 C 1262.24 -5.28758 -0.724599 0
M  V30 13670 O 1262.46 -5.35585 -1.96226 0
M  V30 13671 O 1261.39 -6.01738 -0.139565 0
M  V30 13672 H 1265.22 -2.88962 0.934588 0
M  V30 13673 H 1262.8 -1.3999 0.521835 0
M  V30 13674 H 1264.69 -4.02804 -1.23803 0
M  V30 13675 H 1263.36 -2.86341 -1.50966 0
M  V30 13676 H 1262.27 -3.68268 0.658007 0
M  V30 13677 H 1263.6 -4.84869 0.846346 0
M  V30 13678 N 1265.25 -0.510493 -1.49103 0
M  V30 13679 C 1266.48 0.0271718 -2.06882 0
M  V30 13680 C 1266.9 1.2995 -1.36962 0
M  V30 13681 O 1266.25 1.76842 -0.450916 0
M  V30 13682 C 1266.3 0.274956 -3.60453 0
M  V30 13683 O 1266.03 -0.946941 -4.27744 0
M  V30 13684 C 1267.53 0.855197 -4.34973 0
M  V30 13685 H 1264.75 -0.024732 -0.670544 0
M  V30 13686 H 1267.29 -0.710567 -1.91758 0
M  V30 13687 H 1265.45 0.962696 -3.75248 0
M  V30 13688 H 1265.86 -0.715627 -5.19595 0
M  V30 13689 H 1267.33 0.978103 -5.43265 0
M  V30 13690 H 1267.81 1.85535 -3.98087 0
M  V30 13691 H 1268.42 0.204632 -4.24807 0
M  V30 13692 N 1266.73 1.55688 -0.24474 0
M  V30 13693 C 1267.66 2.24272 0.64995 0
M  V30 13694 C 1268.64 1.22226 1.183 0
M  V30 13695 O 1269.83 1.50873 1.22274 0
M  V30 13696 C 1266.96 2.94053 1.84798 0
M  V30 13697 C 1265.91 4.02769 1.44779 0
M  V30 13698 C 1265.24 4.59965 2.72647 0
M  V30 13699 C 1266.54 5.18601 0.62047 0
M  V30 13700 H 1268.23 2.99298 0.0780654 0
M  V30 13701 H 1265.78 1.43955 0.0361069 0
M  V30 13702 H 1267.73 3.40732 2.47951 0
M  V30 13703 H 1266.45 2.16511 2.44521 0
M  V30 13704 H 1265.11 3.56856 0.839609 0
M  V30 13705 H 1264.76 3.79126 3.30564 0
M  V30 13706 H 1264.46 5.33352 2.46596 0
M  V30 13707 H 1265.99 5.09376 3.36703 0
M  V30 13708 H 1267.4 5.61519 1.15625 0
M  V30 13709 H 1265.8 5.98364 0.456097 0
M  V30 13710 H 1266.87 4.83503 -0.367798 0
M  V30 13711 N 1268.21 -0.0283989 1.57574 0
M  V30 13712 C 1269.63 -0.384054 1.5491 0
M  V30 13713 C 1269.83 -1.76564 0.970947 0
M  V30 13714 O 1268.88 -2.45455 0.592288 0
M  V30 13715 C 1270.19 -0.285297 2.99344 0
M  V30 13716 C 1271.74 -0.36233 3.10896 0
M  V30 13717 C 1272.22 -0.293014 4.57062 0
M  V30 13718 N 1273.71 -0.351788 4.61862 0
M  V30 13719 C 1274.44 -0.321054 5.725 0
M  V30 13720 N 1273.94 -0.242573 6.92375 0
M  V30 13721 N 1275.73 -0.370832 5.60875 0
M  V30 13722 H 1267.88 0.87573 1.93506 0
M  V30 13723 H 1270.15 0.33305 0.887571 0
M  V30 13724 H 1269.85 0.664146 3.45372 0
M  V30 13725 H 1269.73 -1.07869 3.61447 0
M  V30 13726 H 1272.11 -1.30221 2.64814 0
M  V30 13727 H 1272.19 0.460422 2.51622 0
M  V30 13728 H 1271.84 0.643197 5.03811 0
M  V30 13729 H 1271.77 -1.13388 5.14248 0
M  V30 13730 H 1274.26 -0.414929 3.75615 0
M  V30 13731 H 1274.57 -0.224239 7.72475 0
M  V30 13732 H 1272.92 -0.208612 6.94687 0
M  V30 13733 H 1276.11 -0.430141 4.6612 0
M  V30 13734 H 1276.28 -0.343412 6.47089 0
M  V30 13735 N 1269.69 -1.54705 -0.300681 0
M  V30 13736 C 1271.1 -1.45926 -0.646359 0
M  V30 13737 C 1271.3 -0.65072 -1.90704 0
M  V30 13738 O 1270.36 -0.158547 -2.52002 0
M  V30 13739 C 1271.67 -2.89889 -0.799059 0
M  V30 13740 C 1273.22 -2.99934 -0.894923 0
M  V30 13741 C 1273.7 -4.45093 -1.07962 0
M  V30 13742 N 1275.19 -4.48804 -1.14581 0
M  V30 13743 C 1275.92 -5.58305 -1.30702 0
M  V30 13744 N 1275.42 -6.77729 -1.43719 0
M  V30 13745 N 1277.21 -5.45994 -1.33593 0
M  V30 13746 H 1269.36 -2.05742 0.527617 0
M  V30 13747 H 1271.62 -0.931817 0.174415 0
M  V30 13748 H 1271.33 -3.51655 0.0563954 0
M  V30 13749 H 1271.2 -3.37325 -1.68796 0
M  V30 13750 H 1273.59 -2.38281 -1.74086 0
M  V30 13751 H 1273.67 -2.55794 0.0179973 0
M  V30 13752 H 1273.32 -5.0734 -0.238444 0
M  V30 13753 H 1273.25 -4.86864 -2.00677 0
M  V30 13754 H 1275.74 -3.62766 -1.05874 0
M  V30 13755 H 1276.05 -7.56937 -1.55776 0
M  V30 13756 H 1274.4 -6.80594 -1.40774 0
M  V30 13757 H 1277.59 -4.51641 -1.23035 0
M  V30 13758 H 1277.76 -6.31381 -1.45813 0
M  V30 13759 N 1271.17 0.563888 -1.47167 0
M  V30 13760 C 1272.41 1.31875 -1.53145 0
M  V30 13761 C 1272.74 1.94047 -0.192518 0
M  V30 13762 O 1272.01 1.79577 0.782872 0
M  V30 13763 H 1270.59 0.489694 -0.5641 0
M  V30 13764 H 1273.25 0.658976 -1.83422 0
M  V30 13765 H 1272.34 2.11574 -2.2944 0
M  V30 13766 N 1272.64 1.35187 0.810078 0
M  V30 13767 C 1273.89 1.28011 1.56389 0
M  V30 13768 C 1274.21 -0.14622 1.94451 0
M  V30 13769 O 1273.48 -1.08185 1.63318 0
M  V30 13770 H 1272.06 0.470837 0.579932 0
M  V30 13771 H 1274.73 1.69249 0.966476 0
M  V30 13772 H 1273.82 1.89362 2.4809 0
M  V30 13773 N 1274.12 -1.03182 1.19127 0
M  V30 13774 C 1275.54 -1.28773 0.942854 0
M  V30 13775 C 1275.74 -1.97759 -0.386483 0
M  V30 13776 O 1274.79 -2.26365 -1.1187 0
M  V30 13777 C 1276.11 -2.13771 2.11476 0
M  V30 13778 C 1277.66 -2.27089 2.15406 0
M  V30 13779 C 1278.13 -3.15458 3.32039 0
M  V30 13780 N 1279.62 -3.23046 3.31957 0
M  V30 13781 C 1280.36 -3.91604 4.18848 0
M  V30 13782 N 1279.85 -4.62418 5.15889 0
M  V30 13783 N 1281.65 -3.87974 4.06734 0
M  V30 13784 H 1273.8 -0.568165 2.0466 0
M  V30 13785 H 1276.06 -0.31328 0.89474 0
M  V30 13786 H 1275.77 -1.704 3.07663 0
M  V30 13787 H 1275.64 -3.14476 2.0829 0
M  V30 13788 H 1278.03 -2.69693 1.19791 0
M  V30 13789 H 1278.11 -1.25945 2.22647 0
M  V30 13790 H 1277.75 -2.73564 4.27931 0
M  V30 13791 H 1277.68 -4.16654 3.22035 0
M  V30 13792 H 1280.17 -2.7261 2.6171 0
M  V30 13793 H 1280.49 -5.12353 5.78545 0
M  V30 13794 H 1278.83 -4.61293 5.1984 0
M  V30 13795 H 1282.02 -3.31789 3.30202 0
M  V30 13796 H 1282.19 -4.4113 4.74666 0
M  V30 13797 N 1275.6 -0.99472 -1.22242 0
M  V30 13798 C 1276.85 -0.682256 -1.91616 0
M  V30 13799 C 1277.2 0.777397 -1.75995 0
M  V30 13800 O 1276.49 1.55509 -1.11926 0
M  V30 13801 C 1276.69 -1.02561 -3.42368 0
M  V30 13802 C 1276.52 -2.5171 -3.72656 0
M  V30 13803 C 1275.29 -3.18144 -3.92571 0
M  V30 13804 C 1277.49 -3.49835 -3.76988 0
M  V30 13805 N 1275.47 -4.5675 -4.10186 0
M  V30 13806 C 1276.84 -4.73907 -3.99765 0
M  V30 13807 C 1278.89 -3.44116 -3.59845 0
M  V30 13808 C 1277.6 -5.92957 -4.07179 0
M  V30 13809 C 1279.62 -4.62545 -3.68519 0
M  V30 13810 C 1278.98 -5.85417 -3.91748 0
M  V30 13811 H 1275.08 -0.300961 -0.721766 0
M  V30 13812 H 1277.67 -1.2751 -1.47137 0
M  V30 13813 H 1275.84 -0.461327 -3.85651 0
M  V30 13814 H 1277.57 -0.66895 -3.99133 0
M  V30 13815 H 1274.33 -2.68608 -3.9006 0
M  V30 13816 H 1274.75 -5.28649 -4.22917 0
M  V30 13817 H 1279.39 -2.50134 -3.40871 0
M  V30 13818 H 1277.11 -6.87341 -4.24956 0
M  V30 13819 H 1280.7 -4.59711 -3.56591 0
M  V30 13820 H 1279.58 -6.75525 -3.98291 0
M  V30 13821 N 1277.08 1.37613 -0.768148 0
M  V30 13822 C 1278.33 1.99023 -0.327543 0
M  V30 13823 C 1278.64 1.61669 1.10103 0
M  V30 13824 O 1279.85 2.16155 1.64284 0
M  V30 13825 C 1278.3 3.55906 -0.534674 0
M  V30 13826 C 1277.91 4.02201 -1.97327 0
M  V30 13827 C 1279.65 4.24208 -0.157512 0
M  V30 13828 C 1277.56 5.51781 -2.12819 0
M  V30 13829 H 1276.49 0.744595 -0.118722 0
M  V30 13830 H 1279.14 1.5719 -0.946764 0
M  V30 13831 H 1277.52 3.95701 0.153951 0
M  V30 13832 H 1278.7 3.73661 -2.69655 0
M  V30 13833 H 1277.01 3.46671 -2.30669 0
M  V30 13834 H 1279.61 5.34107 -0.251824 0
M  V30 13835 H 1279.95 4.06636 0.89177 0
M  V30 13836 H 1280.49 3.89703 -0.798546 0
M  V30 13837 H 1277.23 5.74274 -3.16053 0
M  V30 13838 H 1276.75 5.82017 -1.4497 0
M  V30 13839 H 1278.42 6.17697 -1.92508 0
M  V30 13840 N 1278.56 0.518393 1.4883 0
M  V30 13841 C 1279.49 -0.239685 2.32267 0
M  V30 13842 C 1280.47 -0.94613 1.41359 0
M  V30 13843 O 1281.65 -0.934162 1.70256 0
M  V30 13844 C 1278.78 -1.29411 3.22289 0
M  V30 13845 C 1277.74 -0.706504 4.22129 0
M  V30 13846 C 1277.06 -1.86273 5.01205 0
M  V30 13847 C 1278.36 0.314079 5.21355 0
M  V30 13848 H 1280.06 0.4568 2.95895 0
M  V30 13849 H 1277.6 0.221126 1.42292 0
M  V30 13850 H 1279.56 -1.8323 3.7948 0
M  V30 13851 H 1278.28 -2.02001 2.56638 0
M  V30 13852 H 1276.94 -0.189924 3.66108 0
M  V30 13853 H 1276.59 -2.57674 4.31988 0
M  V30 13854 H 1276.29 -1.47554 5.68772 0
M  V30 13855 H 1277.81 -2.40492 5.61245 0
M  V30 13856 H 1279.22 -0.136604 5.73137 0
M  V30 13857 H 1277.62 0.618026 5.96909 0
M  V30 13858 H 1278.69 1.22394 4.69199 0
M  V30 13859 N 1280.03 -1.55556 0.252993 0
M  V30 13860 C 1281 -2.20351 -0.630705 0
M  V30 13861 C 1282 -1.17461 -1.09816 0
M  V30 13862 O 1283.19 -1.42505 -1.00189 0
M  V30 13863 C 1280.32 -2.85192 -1.86757 0
M  V30 13864 H 1281.51 -2.99829 -0.0652939 0
M  V30 13865 H 1279.07 -1.563 0.00347982 0
M  V30 13866 H 1279.8 -2.09669 -2.47406 0
M  V30 13867 H 1279.59 -3.60569 -1.54053 0
M  V30 13868 H 1281.08 -3.34762 -2.49648 0
M  V30 13869 N 1281.51 0.0200419 -1.57587 0
M  V30 13870 C 1282.76 0.708115 -1.88861 0
M  V30 13871 C 1283.07 1.76036 -0.852693 0
M  V30 13872 O 1284.28 2.50165 -1.05497 0
M  V30 13873 C 1282.74 1.31057 -3.3519 0
M  V30 13874 C 1282.34 0.294202 -4.47033 0
M  V30 13875 C 1284.09 1.97799 -3.756 0
M  V30 13876 C 1282 0.905508 -5.84427 0
M  V30 13877 H 1280.93 0.268236 -0.704674 0
M  V30 13878 H 1283.58 -0.0372162 -1.83462 0
M  V30 13879 H 1281.96 2.1059 -3.35362 0
M  V30 13880 H 1283.13 -0.475081 -4.58344 0
M  V30 13881 H 1281.45 -0.271644 -4.15513 0
M  V30 13882 H 1284.04 2.44404 -4.75574 0
M  V30 13883 H 1284.39 2.80004 -3.08064 0
M  V30 13884 H 1284.92 1.25028 -3.77641 0
M  V30 13885 H 1281.66 0.122685 -6.55385 0
M  V30 13886 H 1281.18 1.64442 -5.76818 0
M  V30 13887 H 1282.86 1.41016 -6.31446 0
M  V30 13888 N 1282.99 1.54862 0.292472 0
M  V30 13889 C 1284.4 1.65459 0.864891 0
M  V30 13890 C 1284.75 0.568808 1.87774 0
M  V30 13891 O 1283.88 -0.293107 2.14406 0
M  V30 13892 C 1284.47 2.99939 1.5755 0
M  V30 13893 C 1283.03 3.12628 2.09621 0
M  V30 13894 C 1282.18 2.61179 0.931713 0
M  V30 13895 H 1285.13 1.58549 0.0692679 0
M  V30 13896 H 1285.15 2.91839 2.44152 0
M  V30 13897 H 1284.66 3.78943 0.838088 0
M  V30 13898 H 1282.76 2.3836 2.86383 0
M  V30 13899 H 1282.88 4.18911 2.32488 0
M  V30 13900 H 1281.24 2.17846 1.31967 0
M  V30 13901 H 1282.02 3.42669 0.208121 0
M  V30 13902 N 1284.47 -0.556076 1.47464 0
M  V30 13903 C 1285.88 -0.882115 1.33007 0
M  V30 13904 C 1286.08 -1.9892 0.321407 0
M  V30 13905 O 1285.14 -2.51088 -0.266668 0
M  V30 13906 C 1286.45 -1.27428 2.72365 0
M  V30 13907 C 1288 -1.38564 2.80658 0
M  V30 13908 C 1288.48 -1.81136 4.20659 0
M  V30 13909 N 1289.97 -1.88284 4.23206 0
M  V30 13910 C 1290.7 -2.22555 5.28447 0
M  V30 13911 N 1290.2 -2.55432 6.43993 0
M  V30 13912 N 1291.99 -2.23339 5.15826 0
M  V30 13913 H 1284.14 0.17481 2.11679 0
M  V30 13914 H 1286.41 0.0155421 0.947873 0
M  V30 13915 H 1286.11 -0.53463 3.47613 0
M  V30 13916 H 1285.99 -2.23019 3.04208 0
M  V30 13917 H 1288.37 -2.1161 2.05682 0
M  V30 13918 H 1288.45 -0.411588 2.52467 0
M  V30 13919 H 1288.1 -1.08659 4.96141 0
M  V30 13920 H 1288.03 -2.79546 4.46275 0
M  V30 13921 H 1290.52 -1.65259 3.3985 0
M  V30 13922 H 1290.83 -2.80612 7.20053 0
M  V30 13923 H 1289.18 -2.5301 6.47311 0
M  V30 13924 H 1292.37 -1.97094 4.24584 0
M  V30 13925 H 1292.54 -2.49717 5.97951 0
M  V30 13926 N 1285.95 -1.35615 -0.802897 0
M  V30 13927 C 1287.36 -1.15733 -1.099 0
M  V30 13928 C 1287.56 0.0277094 -2.01481 0
M  V30 13929 O 1286.62 0.697196 -2.42684 0
M  V30 13930 C 1287.93 -2.46201 -1.72643 0
M  V30 13931 C 1289.48 -2.52442 -1.85046 0
M  V30 13932 C 1289.96 -3.82962 -2.51205 0
M  V30 13933 N 1291.45 -3.84234 -2.58686 0
M  V30 13934 C 1292.18 -4.81956 -3.10654 0
M  V30 13935 N 1291.68 -5.90068 -3.63032 0
M  V30 13936 N 1293.47 -4.69389 -3.09241 0
M  V30 13937 H 1285.62 -2.11511 -0.194177 0
M  V30 13938 H 1287.88 -0.936259 -0.148739 0
M  V30 13939 H 1287.59 -3.33114 -1.12817 0
M  V30 13940 H 1287.46 -2.6102 -2.72302 0
M  V30 13941 H 1289.85 -1.65955 -2.44014 0
M  V30 13942 H 1289.93 -2.41534 -0.842316 0
M  V30 13943 H 1289.58 -4.69848 -1.92885 0
M  V30 13944 H 1289.51 -3.9116 -3.52564 0
M  V30 13945 H 1292 -3.0612 -2.21582 0
M  V30 13946 H 1292.31 -6.60623 -4.00996 0
M  V30 13947 H 1290.66 -5.93755 -3.6122 0
M  V30 13948 H 1293.85 -3.84066 -2.67602 0
M  V30 13949 H 1294.02 -5.4571 -3.49435 0
M  V30 13950 N 1287.43 1.02549 -1.19673 0
M  V30 13951 C 1288.67 1.75408 -0.995732 0
M  V30 13952 C 1288.99 1.89773 0.473863 0
M  V30 13953 O 1290.19 2.59638 0.793762 0
M  V30 13954 C 1288.65 3.15444 -1.73273 0
M  V30 13955 C 1288.26 3.09121 -3.24266 0
M  V30 13956 C 1290 3.92575 -1.61509 0
M  V30 13957 C 1287.91 4.44109 -3.9054 0
M  V30 13958 H 1286.84 0.657569 -0.368944 0
M  V30 13959 H 1289.49 1.14739 -1.43203 0
M  V30 13960 H 1287.87 3.76601 -1.22425 0
M  V30 13961 H 1289.05 2.57325 -3.82257 0
M  V30 13962 H 1287.36 2.45485 -3.36342 0
M  V30 13963 H 1289.96 4.92428 -2.08372 0
M  V30 13964 H 1290.3 4.12382 -0.569804 0
M  V30 13965 H 1290.83 3.38027 -2.09721 0
M  V30 13966 H 1287.57 4.29506 -4.95182 0
M  V30 13967 H 1287.09 4.95947 -3.37337 0
M  V30 13968 H 1288.77 5.12982 -3.94282 0
M  V30 13969 N 1288.9 1.00119 1.21713 0
M  V30 13970 C 1290.32 0.713343 1.42771 0
M  V30 13971 C 1290.52 -0.712923 1.88467 0
M  V30 13972 O 1289.58 -1.48277 2.04378 0
M  V30 13973 C 1290.89 1.72596 2.46234 0
M  V30 13974 C 1292.44 1.74235 2.60022 0
M  V30 13975 C 1292.91 2.74382 3.66713 0
M  V30 13976 N 1294.4 2.73027 3.7418 0
M  V30 13977 C 1295.14 3.47178 4.56349 0
M  V30 13978 N 1294.63 4.30958 5.42446 0
M  V30 13979 N 1296.43 3.35846 4.50737 0
M  V30 13980 H 1288.58 1.9222 0.903611 0
M  V30 13981 H 1290.84 0.829466 0.459011 0
M  V30 13982 H 1290.55 2.74699 2.19621 0
M  V30 13983 H 1290.42 1.52553 3.44975 0
M  V30 13984 H 1292.81 0.728261 2.85973 0
M  V30 13985 H 1292.89 1.98349 1.61528 0
M  V30 13986 H 1292.53 3.75945 3.41508 0
M  V30 13987 H 1292.46 2.47534 4.64795 0
M  V30 13988 H 1294.95 2.12242 3.12669 0
M  V30 13989 H 1295.27 4.84344 6.02189 0
M  V30 13990 H 1293.61 4.35042 5.42 0
M  V30 13991 H 1296.8 2.6983 3.82504 0
M  V30 13992 H 1296.98 3.93892 5.14541 0
M  V30 13993 N 1290.38 -1.37203 0.775435 0
M  V30 13994 C 1291.31 -2.28873 0.122374 0
M  V30 13995 C 1292.33 -1.48811 -0.660239 0
M  V30 13996 O 1293.52 -1.7142 -0.497724 0
M  V30 13997 C 1290.62 -3.28062 -0.850212 0
M  V30 13998 C 1289.79 -4.37234 -0.120633 0
M  V30 13999 C 1288.85 -5.16472 -1.00712 0
M  V30 14000 O 1287.87 -5.6726 -0.469528 0
M  V30 14001 N 1289.08 -5.31556 -2.33299 0
M  V30 14002 H 1291.84 -2.85559 0.909741 0
M  V30 14003 H 1289.4 -1.49219 0.628107 0
M  V30 14004 H 1291.39 -3.77956 -1.44678 0
M  V30 14005 H 1289.96 -2.72118 -1.53853 0
M  V30 14006 H 1289.18 -3.88688 0.656879 0
M  V30 14007 H 1290.47 -5.07354 0.383358 0
M  V30 14008 H 1289.87 -4.91883 -2.79406 0
M  V30 14009 H 1288.43 -5.84745 -2.87953 0
M  V30 14010 N 1291.86 -0.526279 -1.48553 0
M  V30 14011 C 1293.11 0.00914839 -2.02098 0
M  V30 14012 C 1293.43 1.35119 -1.40598 0
M  V30 14013 O 1292.7 1.87422 -0.570065 0
M  V30 14014 H 1291.28 0.00636935 -0.746973 0
M  V30 14015 H 1293.94 -0.689269 -1.82305 0
M  V30 14016 H 1293.04 0.120212 -3.11868 0
M  V30 14017 N 1293.34 1.5542 -0.261239 0
M  V30 14018 C 1294.27 2.24949 0.626126 0
M  V30 14019 C 1295.25 1.23474 1.16997 0
M  V30 14020 O 1296.43 1.52161 1.20667 0
M  V30 14021 C 1293.56 2.95996 1.81669 0
M  V30 14022 C 1292.52 4.04282 1.40499 0
M  V30 14023 C 1291.84 4.62831 2.67753 0
M  V30 14024 C 1293.14 5.1923 0.56543 0
M  V30 14025 H 1294.84 2.99364 0.0463164 0
M  V30 14026 H 1292.38 1.43985 0.0208366 0
M  V30 14027 H 1294.34 3.43343 2.44323 0
M  V30 14028 H 1293.06 2.19093 2.42211 0
M  V30 14029 H 1291.72 3.57726 0.801712 0
M  V30 14030 H 1291.37 3.82611 3.26524 0
M  V30 14031 H 1291.07 5.35938 2.40925 0
M  V30 14032 H 1292.59 5.12918 3.31281 0
M  V30 14033 H 1294.01 5.62714 1.09663 0
M  V30 14034 H 1292.4 5.98814 0.392607 0
M  V30 14035 H 1293.47 4.83086 -0.419059 0
M  V30 14036 N 1294.82 -0.0116844 1.57596 0
M  V30 14037 C 1295.73 -1.02342 2.111 0
M  V30 14038 C 1296.74 -1.38478 1.05355 0
M  V30 14039 O 1297.92 -1.47447 1.37191 0
M  V30 14040 C 1294.98 -2.30016 2.5941 0
M  V30 14041 C 1294.04 -2.003 3.79708 0
M  V30 14042 C 1293.28 -3.21888 4.25704 0
M  V30 14043 O 1293.5 -4.33171 3.71106 0
M  V30 14044 O 1292.43 -3.0657 5.17975 0
M  V30 14045 H 1296.26 -0.598637 2.97742 0
M  V30 14046 H 1293.84 -0.229779 1.47622 0
M  V30 14047 H 1295.73 -3.05044 2.90733 0
M  V30 14048 H 1294.4 -2.71755 1.75871 0
M  V30 14049 H 1293.31 -1.22785 3.53376 0
M  V30 14050 H 1294.64 -1.63406 4.64284 0
M  V30 14051 N 1296.29 -1.55015 -0.284256 0
M  V30 14052 C 1297.22 -1.90128 -1.3555 0
M  V30 14053 C 1298.2 -0.761914 -1.52082 0
M  V30 14054 O 1299.39 -1.01909 -1.65312 0
M  V30 14055 C 1296.52 -2.16332 -2.71695 0
M  V30 14056 C 1295.47 -3.32166 -2.69907 0
M  V30 14057 C 1294.8 -3.43824 -4.09498 0
M  V30 14058 C 1296.1 -4.6885 -2.30168 0
M  V30 14059 H 1297.79 -2.79852 -1.06411 0
M  V30 14060 H 1295.34 -1.34649 -0.510451 0
M  V30 14061 H 1297.29 -2.39482 -3.46737 0
M  V30 14062 H 1296.02 -1.23395 -3.02392 0
M  V30 14063 H 1294.68 -3.08965 -1.97322 0
M  V30 14064 H 1294.32 -2.48375 -4.374 0
M  V30 14065 H 1294.02 -4.21698 -4.092 0
M  V30 14066 H 1295.55 -3.69254 -4.86296 0
M  V30 14067 H 1296.96 -4.91619 -2.9493 0
M  V30 14068 H 1295.36 -5.49558 -2.41052 0
M  V30 14069 H 1296.43 -4.68433 -1.25294 0
M  V30 14070 N 1297.77 0.548248 -1.47757 0
M  V30 14071 C 1299 1.3302 -1.58472 0
M  V30 14072 C 1299.41 1.87292 -0.238186 0
M  V30 14073 O 1298.77 1.65465 0.76991 0
M  V30 14074 C 1298.82 2.49386 -2.61704 0
M  V30 14075 O 1298.54 1.97355 -3.9113 0
M  V30 14076 C 1300.04 3.41471 -2.82688 0
M  V30 14077 H 1297.26 0.405172 -0.534861 0
M  V30 14078 H 1299.81 0.663251 -1.93446 0
M  V30 14079 H 1297.96 3.12001 -2.29639 0
M  V30 14080 H 1298.38 2.7339 -4.47614 0
M  V30 14081 H 1299.85 4.19516 -3.58762 0
M  V30 14082 H 1300.33 3.95573 -1.90837 0
M  V30 14083 H 1300.93 2.84664 -3.15985 0
M  V30 14084 N 1299.25 1.36039 0.795694 0
M  V30 14085 C 1300.18 1.32528 1.92246 0
M  V30 14086 C 1301.16 0.197805 1.68946 0
M  V30 14087 O 1302.35 0.394474 1.90151 0
M  V30 14088 C 1299.48 1.10748 3.29169 0
M  V30 14089 C 1298.43 2.20253 3.66978 0
M  V30 14090 C 1297.76 1.83624 5.02181 0
M  V30 14091 C 1299.06 3.62296 3.76216 0
M  V30 14092 H 1300.75 2.2681 1.95442 0
M  V30 14093 H 1298.3 1.09181 0.938908 0
M  V30 14094 H 1300.25 1.06929 4.07608 0
M  V30 14095 H 1298.97 0.129141 3.26345 0
M  V30 14096 H 1297.63 2.23187 2.90832 0
M  V30 14097 H 1297.28 0.843804 4.95872 0
M  V30 14098 H 1296.98 2.56935 5.28449 0
M  V30 14099 H 1298.5 1.81349 5.83048 0
M  V30 14100 H 1299.92 3.61623 4.44861 0
M  V30 14101 H 1298.31 4.34459 4.13963 0
M  V30 14102 H 1299.38 3.97657 2.77483 0
M  V30 14103 N 1300.73 -1.01913 1.20215 0
M  V30 14104 C 1301.66 -2.12282 0.97256 0
M  V30 14105 C 1302.64 -1.6982 -0.0975709 0
M  V30 14106 O 1303.82 -1.94109 0.0594307 0
M  V30 14107 C 1300.95 -3.43369 0.521085 0
M  V30 14108 C 1299.91 -3.99559 1.53417 0
M  V30 14109 C 1299.23 -5.26383 0.93942 0
M  V30 14110 C 1300.53 -4.33241 2.91718 0
M  V30 14111 H 1302.23 -2.31746 1.89563 0
M  V30 14112 H 1299.77 -1.1137 0.912841 0
M  V30 14113 H 1301.73 -4.19963 0.347713 0
M  V30 14114 H 1300.45 -3.23655 -0.437605 0
M  V30 14115 H 1299.11 -3.25069 1.69486 0
M  V30 14116 H 1298.76 -5.02993 -0.0271236 0
M  V30 14117 H 1298.46 -5.64942 1.616 0
M  V30 14118 H 1299.98 -6.05635 0.777059 0
M  V30 14119 H 1301.4 -5.00734 2.79175 0
M  V30 14120 H 1299.79 -4.82907 3.56259 0
M  V30 14121 H 1300.86 -3.42118 3.43633 0
M  V30 14122 O 1302.25 -1.13511 -1.1488 0
M  V30 14123 H 1302.94 -0.851941 -1.73959 0
M  V30 END ATOM
M  V30 BEGIN BOND
M  V30 END BOND
M  V30 END CTAB
M  END
$$$$
