drugbank_target|P06025 Nucleoprotein (DB11603)
 OpenBabel12092121203D

  0  0  0     0  0            999 V3000
M  V30 BEGIN CTAB
M  V30 COUNTS 7054 7137 0 0 0
M  V30 BEGIN ATOM
M  V30 1 H -0.908 1.98254 -0.117106 0
M  V30 2 N 0 1.576 0 0
M  V30 3 C 0.933 2.03868 1.02534 0
M  V30 4 C 1.911 0.928543 1.3348 0
M  V30 5 O 3.095 1.19667 1.45644 0
M  V30 6 C 0.222 2.43627 2.35294 0
M  V30 7 C -0.732 3.65373 2.2001 0
M  V30 8 S 0.101 5.13292 1.52614 0
M  V30 9 C 1.257 5.56322 2.86805 0
M  V30 10 H 1.49 2.90518 0.631377 0
M  V30 11 H -0.977 1.52953 0.210867 0
M  V30 12 H 0.981 2.67203 3.11629 0
M  V30 13 H -0.358 1.57376 2.7183 0
M  V30 14 H -1.165 3.90944 3.18086 0
M  V30 15 H -1.563 3.418 1.51819 0
M  V30 16 H 0.729 5.58782 3.83104 0
M  V30 17 H 1.672 6.56266 2.65933 0
M  V30 18 H 2.08 4.83886 2.90714 0
M  V30 19 N 1.4781 -0.272755 1.55222 0
M  V30 20 C 2.7551 -1.02562 1.66555 0
M  V30 21 C 3.1351 -2.04282 0.532189 0
M  V30 22 O 2.4831 -2.23662 -0.467717 0
M  V30 23 C 2.6931 -1.6822 3.05782 0
M  V30 24 C 4.0411 -2.19373 3.63539 0
M  V30 25 O 5.0651 -1.78206 3.08417 0
M  V30 26 O 3.9241 -2.94883 4.60115 0
M  V30 27 H 1.0181 -0.475755 0.676451 0
M  V30 28 H 3.5641 -0.268593 1.67561 0
M  V30 29 H 2.3361 -0.945112 3.79715 0
M  V30 30 H 1.9591 -2.50609 3.08676 0
M  V30 31 N 2.9562 -1.48159 -0.537278 0
M  V30 32 C 3.9192 -1.61665 -1.62472 0
M  V30 33 C 4.9192 -0.490395 -1.5314 0
M  V30 34 O 6.1092 -0.755998 -1.5694 0
M  V30 35 C 3.2412 -1.57997 -3.02076 0
M  V30 36 H 4.4342 -2.58621 -1.51839 0
M  V30 37 H 1.9872 -1.36647 -0.758771 0
M  V30 38 H 2.7222 -0.624913 -3.18222 0
M  V30 39 H 2.5072 -2.39755 -3.10258 0
M  V30 40 H 3.9972 -1.70627 -3.81151 0
M  V30 41 N 4.4343 0.785586 -1.36625 0
M  V30 42 C 5.7113 1.53198 -1.21613 0
M  V30 43 C 6.0913 2.10187 0.196113 0
M  V30 44 O 5.4393 1.94318 1.20219 0
M  V30 45 C 5.6493 2.62388 -2.30116 0
M  V30 46 C 6.9973 3.30167 -2.66974 0
M  V30 47 O 8.0213 2.72674 -2.29188 0
M  V30 48 O 6.8803 4.34077 -3.32023 0
M  V30 49 H 3.9743 0.677865 -0.473738 0
M  V30 50 H 6.5203 0.823739 -1.48367 0
M  V30 51 H 5.2923 2.18299 -3.24748 0
M  V30 52 H 4.9153 3.40827 -2.0475 0
M  V30 53 N 5.9124 1.20967 1.01018 0
M  V30 54 C 6.8594 0.964281 2.09691 0
M  V30 55 C 7.8294 -0.107853 1.65749 0
M  V30 56 O 9.0144 0.0381987 1.90762 0
M  V30 57 C 6.1544 0.52943 3.41015 0
M  V30 58 C 5.2674 1.67043 3.98398 0
M  V30 59 C 4.4024 1.18525 5.17808 0
M  V30 60 C 3.4414 2.29892 5.67288 0
M  V30 61 N 2.5784 1.82546 6.77954 0
M  V30 62 H 7.4184 1.89463 2.30017 0
M  V30 63 H 4.9554 0.944289 1.1279 0
M  V30 64 H 6.9134 0.258588 4.16398 0
M  V30 65 H 5.5434 -0.363919 3.20742 0
M  V30 66 H 4.5954 2.05603 3.20049 0
M  V30 67 H 5.9074 2.50877 4.31117 0
M  V30 68 H 5.0614 0.870762 6.00419 0
M  V30 69 H 3.8004 0.316887 4.86669 0
M  V30 70 H 2.8054 2.6215 4.83278 0
M  V30 71 H 4.0304 3.17216 6.00459 0
M  V30 72 H 1.9764 0.980454 6.48632 0
M  V30 73 H 1.8934 2.59956 7.09901 0
M  V30 74 H 3.1614 1.54115 7.64113 0
M  V30 75 N 7.3905 -1.2043 1.01659 0
M  V30 76 C 8.6395 -1.89118 0.701237 0
M  V30 77 C 8.9525 -1.79705 -0.772358 0
M  V30 78 O 10.1585 -2.43528 -1.20026 0
M  V30 79 C 8.6145 -3.39168 1.20388 0
M  V30 80 C 8.2225 -3.57166 2.70438 0
M  V30 81 C 9.9665 -4.1341 0.963953 0
M  V30 82 C 7.8735 -5.01042 3.14183 0
M  V30 83 H 6.8035 -0.708267 0.2586 0
M  V30 84 H 9.4545 -1.36239 1.22927 0
M  V30 85 H 7.8365 -3.91369 0.603824 0
M  V30 86 H 9.0105 -3.15351 3.35992 0
M  V30 87 H 7.3255 -2.96294 2.92572 0
M  V30 88 H 9.9225 -5.19491 1.26621 0
M  V30 89 H 10.2655 -4.16181 -0.099578 0
M  V30 90 H 10.7985 -3.67309 1.52738 0
M  V30 91 H 7.5375 -5.03426 4.19812 0
M  V30 92 H 7.0575 -5.43668 2.53348 0
M  V30 93 H 8.7365 -5.69623 3.0682 0
M  V30 94 N 8.8686 -0.792821 -1.36206 0
M  V30 95 C 10.1146 -0.36733 -1.99446 0
M  V30 96 C 10.4476 1.05917 -1.62774 0
M  V30 97 O 9.7226 1.7324 -0.88421 0
M  V30 98 C 10.0056 -0.535044 -3.56103 0
M  V30 99 C 9.8586 -2.00548 -4.02617 0
M  V30 100 C 11.1776 0.0478191 -4.40074 0
M  V30 101 H 8.2966 -0.134941 -0.724541 0
M  V30 102 H 10.9386 -0.999794 -1.61568 0
M  V30 103 H 9.0886 0.00336329 -3.885 0
M  V30 104 H 10.7606 -2.60521 -3.80692 0
M  V30 105 H 9.0036 -2.50686 -3.54032 0
M  V30 106 H 9.6746 -2.07377 -5.11565 0
M  V30 107 H 12.1506 -0.411822 -4.14057 0
M  V30 108 H 11.0266 -0.0995336 -5.4881 0
M  V30 109 H 11.2876 1.14025 -4.27142 0
M  V30 110 N 10.3467 1.47872 -0.545128 0
M  V30 111 C 11.5937 2.02493 -0.0165858 0
M  V30 112 C 11.9217 1.42073 1.32836 0
M  V30 113 O 11.1767 0.561459 1.87473 0
M  V30 114 C 11.4757 3.57131 0.13867 0
M  V30 115 C 11.1417 4.36411 -1.13384 0
M  V30 116 C 9.8037 4.57792 -1.48256 0
M  V30 117 C 12.1557 4.82223 -1.97764 0
M  V30 118 C 9.4837 5.22233 -2.67376 0
M  V30 119 C 11.8357 5.47977 -3.16076 0
M  V30 120 C 10.4997 5.67593 -3.51275 0
M  V30 121 H 9.7697 0.740975 -0.00606918 0
M  V30 122 H 12.4167 1.77683 -0.714207 0
M  V30 123 H 10.7217 3.80865 0.919172 0
M  V30 124 H 12.4187 3.97031 0.562782 0
M  V30 125 H 9.0087 4.2004 -0.852297 0
M  V30 126 H 13.1927 4.65493 -1.72132 0
M  V30 127 H 8.4487 5.35616 -2.94831 0
M  V30 128 H 12.6227 5.8244 -3.81755 0
M  V30 129 H 10.2497 6.17298 -4.43675 0
M  V30 130 N 11.8248 0.280983 1.55075 0
M  V30 131 C 12.7718 -0.603937 2.22758 0
M  V30 132 C 13.7418 -1.1452 1.20309 0
M  V30 133 O 14.9268 -1.19343 1.48869 0
M  V30 134 C 12.0668 -1.77947 2.95684 0
M  V30 135 C 11.1798 -1.2715 4.12864 0
M  V30 136 C 10.3148 -2.4093 4.7342 0
M  V30 137 C 9.3538 -1.87165 5.82783 0
M  V30 138 N 8.4908 -2.94441 6.37377 0
M  V30 139 H 13.3308 -0.020124 2.97993 0
M  V30 140 H 10.8678 0.00183425 1.471 0
M  V30 141 H 12.8258 -2.47055 3.36184 0
M  V30 142 H 11.4558 -2.33522 2.22861 0
M  V30 143 H 10.5078 -0.473331 3.77444 0
M  V30 144 H 11.8198 -0.837751 4.91715 0
M  V30 145 H 10.9738 -3.18021 5.1667 0
M  V30 146 H 9.7128 -2.87623 3.93859 0
M  V30 147 H 8.7178 -1.08556 5.38976 0
M  V30 148 H 9.9428 -1.41401 6.64216 0
M  V30 149 H 7.8888 -3.40505 5.60707 0
M  V30 150 H 7.8058 -2.55501 7.11516 0
M  V30 151 H 9.0738 -3.71489 6.85285 0
M  V30 152 N 13.3029 -1.57598 0.00835791 0
M  V30 153 C 14.5489 -1.91211 -0.675732 0
M  V30 154 C 14.8819 -0.883139 -1.72958 0
M  V30 155 O 14.1569 0.097016 -1.94258 0
M  V30 156 C 14.4399 -3.35379 -1.31123 0
M  V30 157 C 14.2929 -4.48999 -0.268356 0
M  V30 158 C 15.6119 -3.7912 -2.23508 0
M  V30 159 H 12.7309 -0.695374 -0.244179 0
M  V30 160 H 15.3729 -1.89901 0.0613655 0
M  V30 161 H 13.5229 -3.36626 -1.93946 0
M  V30 162 H 15.1949 -4.59887 0.360844 0
M  V30 163 H 13.4379 -4.31873 0.408482 0
M  V30 164 H 14.1089 -5.46851 -0.752218 0
M  V30 165 H 16.5849 -3.79477 -1.70693 0
M  V30 166 H 15.4609 -4.80729 -2.64936 0
M  V30 167 H 15.7219 -3.13455 -3.11766 0
M  V30 168 N 14.781 0.264519 -1.55364 0
M  V30 169 C 15.729 1.34702 -1.89626 0
M  V30 170 C 16.723 1.50712 -0.773459 0
M  V30 171 O 17.929 1.52395 -0.957897 0
M  V30 172 H 14.304 0.450682 -0.601988 0
M  V30 173 H 16.275 1.0306 -2.80038 0
M  V30 174 C 15.024 2.6989 -2.19214 0
M  V30 175 H 14.347 2.58365 -3.05103 0
M  V30 176 H 15.787 3.44553 -2.47102 0
M  V30 177 C 14.246 3.21637 -1.00254 0
M  V30 178 O 14.776 4.00973 -0.241501 0
M  V30 179 N 12.982 2.7943 -0.797938 0
M  V30 180 H 12.529 2.15026 -1.4185 0
M  V30 181 H 12.487 3.144 -0.00363422 0
M  V30 182 N 16.2591 1.48442 0.529413 0
M  V30 183 C 17.2071 1.63452 1.65487 0
M  V30 184 C 18.2011 0.500955 1.61823 0
M  V30 185 O 19.4071 0.679695 1.66674 0
M  V30 186 H 15.7821 0.514905 0.548066 0
M  V30 187 H 17.7531 2.57975 1.49971 0
M  V30 188 C 16.5021 1.69196 3.03756 0
M  V30 189 H 15.8251 2.55784 3.07269 0
M  V30 190 H 17.2651 1.83743 3.82119 0
M  V30 191 C 15.7241 0.430765 3.34135 0
M  V30 192 O 16.2541 -0.4561 3.99102 0
M  V30 193 N 14.4601 0.302293 2.89023 0
M  V30 194 H 14.0071 1.02496 2.36331 0
M  V30 195 H 13.9651 -0.540546 3.09718 0
M  V30 196 N 17.7372 -0.778329 1.37039 0
M  V30 197 C 18.6692 -1.90034 1.2814 0
M  V30 198 C 19.6822 -1.61585 0.198558 0
M  V30 199 O 20.8712 -1.72625 0.454175 0
M  V30 200 C 17.9712 -3.25108 0.956968 0
M  V30 201 C 17.1442 -3.81253 2.14394 0
M  V30 202 C 16.2032 -4.94789 1.79082 0
M  V30 203 O 15.2292 -5.10721 2.51301 0
M  V30 204 N 16.4312 -5.75878 0.731043 0
M  V30 205 H 19.1962 -1.98186 2.24816 0
M  V30 206 H 16.7572 -0.957129 1.30578 0
M  V30 207 H 18.7492 -3.9857 0.701701 0
M  V30 208 H 17.3192 -3.125 0.0789812 0
M  V30 209 H 16.5392 -2.99647 2.56135 0
M  V30 210 H 17.8272 -4.15495 2.93668 0
M  V30 211 H 17.2252 -5.65547 0.131618 0
M  V30 212 H 15.7822 -6.49596 0.535622 0
M  V30 213 N 19.2153 -1.21501 -1.00376 0
M  V30 214 C 20.4613 -1.03452 -1.74429 0
M  V30 215 C 20.7943 0.430764 -1.89362 0
M  V30 216 O 20.0693 1.31962 -1.42886 0
M  V30 217 C 20.3523 -1.73375 -3.15615 0
M  V30 218 C 20.2053 -3.27431 -3.08397 0
M  V30 219 C 21.5243 -1.47732 -4.14564 0
M  V30 220 H 18.6433 -0.377226 -0.633143 0
M  V30 221 H 21.2853 -1.49693 -1.17013 0
M  V30 222 H 19.4353 -1.34064 -3.64636 0
M  V30 223 H 21.1073 -3.76119 -2.67081 0
M  V30 224 H 19.3503 -3.5767 -2.45468 0
M  V30 225 H 20.0213 -3.71524 -4.08258 0
M  V30 226 H 22.4973 -1.8186 -3.74254 0
M  V30 227 H 21.3733 -1.99169 -5.11491 0
M  V30 228 H 21.6343 -0.407589 -4.40217 0
M  V30 229 N 20.6934 1.19889 -1.02296 0
M  V30 230 C 21.9394 1.89701 -0.717033 0
M  V30 231 C 22.2724 1.7905 0.751989 0
M  V30 232 O 21.5474 1.17891 1.547 0
M  V30 233 C 21.8304 3.40858 -1.16136 0
M  V30 234 C 21.6834 3.60411 -2.69117 0
M  V30 235 C 23.0024 4.33876 -0.737549 0
M  V30 236 H 20.1214 0.688874 -0.261957 0
M  V30 237 H 22.7634 1.41154 -1.27183 0
M  V30 238 H 20.9134 3.82335 -0.689342 0
M  V30 239 H 22.5854 3.28145 -3.2422 0
M  V30 240 H 20.8284 3.03665 -3.0979 0
M  V30 241 H 21.4994 4.66396 -2.95261 0
M  V30 242 H 23.9754 4.00081 -1.14344 0
M  V30 243 H 22.8514 5.38242 -1.0764 0
M  V30 244 H 23.1124 4.40628 0.360436 0
M  V30 245 N 22.1715 0.800033 1.35784 0
M  V30 246 C 23.3965 0.388511 2.03729 0
M  V30 247 C 23.8215 -0.990481 1.5991 0
M  V30 248 O 23.1795 -1.64013 0.772612 0
M  V30 249 C 23.2275 0.4726 3.5749 0
M  V30 250 O 22.3315 -0.51646 4.09153 0
M  V30 251 H 21.6725 0.163271 0.643614 0
M  V30 252 H 24.2025 1.0841 1.73518 0
M  V30 253 H 24.2125 0.34003 4.06581 0
M  V30 254 H 22.8875 1.47848 3.88734 0
M  V30 255 H 21.4645 -0.344673 3.71304 0
M  V30 256 N 23.6496 -1.47581 0.552962 0
M  V30 257 C 24.5796 -2.32762 -0.185451 0
M  V30 258 C 25.5606 -1.43527 -0.912905 0
M  V30 259 O 26.7456 -1.72388 -0.894201 0
M  V30 260 C 23.8756 -3.25219 -1.21859 0
M  V30 261 C 22.8296 -4.23661 -0.607864 0
M  V30 262 C 22.1556 -5.05413 -1.74533 0
M  V30 263 C 23.4556 -5.20481 0.435582 0
M  V30 264 H 25.1496 -2.94749 0.525684 0
M  V30 265 H 22.6956 -1.41738 0.254251 0
M  V30 266 H 24.6486 -3.8365 -1.7433 0
M  V30 267 H 23.3726 -2.61279 -1.95961 0
M  V30 268 H 22.0316 -3.66451 -0.104489 0
M  V30 269 H 21.6796 -4.3788 -2.47529 0
M  V30 270 H 21.3796 -5.72059 -1.34249 0
M  V30 271 H 22.9036 -5.66701 -2.27338 0
M  V30 272 H 24.3176 -5.733 -0.00290157 0
M  V30 273 H 22.7146 -5.95305 0.757067 0
M  V30 274 H 23.7846 -4.66217 1.33303 0
M  V30 275 N 25.1277 -0.289203 -1.54924 0
M  V30 276 C 26.0747 0.592115 -2.23075 0
M  V30 277 C 27.0447 1.13881 -1.20915 0
M  V30 278 O 28.2297 1.18551 -1.495 0
M  V30 279 C 25.3697 1.76376 -2.96623 0
M  V30 280 C 24.4827 1.24959 -4.13533 0
M  V30 281 C 23.6177 2.38416 -4.74691 0
M  V30 282 C 22.6567 1.84072 -5.83767 0
M  V30 283 N 21.7937 2.91057 -6.38929 0
M  V30 284 H 26.6337 0.00432038 -2.98 0
M  V30 285 H 24.1707 -0.00963529 -1.47097 0
M  V30 286 H 26.1287 2.45268 -3.3749 0
M  V30 287 H 24.7587 2.32337 -2.24097 0
M  V30 288 H 23.8107 0.453307 -3.77689 0
M  V30 289 H 25.1227 0.811662 -4.92152 0
M  V30 290 H 24.2767 3.15276 -5.18349 0
M  V30 291 H 23.0157 2.8553 -3.95378 0
M  V30 292 H 22.0207 1.05697 -5.39545 0
M  V30 293 H 23.2457 1.37877 -6.64956 0
M  V30 294 H 21.1917 3.37526 -5.62505 0
M  V30 295 H 21.1087 2.51724 -7.12861 0
M  V30 296 H 22.3767 3.6785 -6.87246 0
M  V30 297 N 26.6058 1.57591 -0.0167156 0
M  V30 298 C 28.0168 1.79201 0.523834 0
M  V30 299 C 28.3678 0.925796 1.72984 0
M  V30 300 O 27.4928 0.132792 2.15992 0
M  V30 301 C 28.0878 3.25 0.957091 0
M  V30 302 C 26.6468 3.47648 1.44283 0
M  V30 303 C 25.7938 2.74374 0.401757 0
M  V30 304 H 28.7448 1.56831 -0.242816 0
M  V30 305 H 28.7658 3.34031 1.82219 0
M  V30 306 H 28.2778 3.88019 0.0791415 0
M  V30 307 H 26.3788 2.89866 2.34113 0
M  V30 308 H 26.4918 4.56352 1.45877 0
M  V30 309 H 24.8558 2.39485 0.867121 0
M  V30 310 H 25.6388 3.40102 -0.467513 0
M  V30 311 N 28.0839 -0.256276 1.55502 0
M  V30 312 C 28.9939 -1.33882 1.92647 0
M  V30 313 C 30.0099 -1.53159 0.825727 0
M  V30 314 O 31.1859 -1.66963 1.12629 0
M  V30 315 C 28.2509 -2.6751 2.20543 0
M  V30 316 C 27.3119 -2.56836 3.43997 0
M  V30 317 C 26.5449 -3.84092 3.70553 0
M  V30 318 O 26.7679 -4.85545 2.99336 0
M  V30 319 O 25.7019 -3.83288 4.64084 0
M  V30 320 H 29.5279 -1.05374 2.84833 0
M  V30 321 H 27.1129 -0.456237 1.42263 0
M  V30 322 H 28.9949 -3.46492 2.39835 0
M  V30 323 H 27.6699 -2.9577 1.31536 0
M  V30 324 H 26.5769 -1.76172 3.30021 0
M  V30 325 H 27.9099 -2.33523 4.33275 0
M  V30 326 N 29.562 -1.4872 -0.521534 0
M  V30 327 C 30.811 -1.56419 -1.27341 0
M  V30 328 C 31.124 -0.246805 -1.94037 0
M  V30 329 O 32.33 -0.202122 -2.70747 0
M  V30 330 C 30.786 -2.75896 -2.31105 0
M  V30 331 C 30.394 -4.14311 -1.70441 0
M  V30 332 C 32.138 -2.92913 -3.07249 0
M  V30 333 C 30.045 -5.25038 -2.72194 0
M  V30 334 H 28.975 -0.582344 -0.478949 0
M  V30 335 H 31.626 -1.75071 -0.549779 0
M  V30 336 H 30.008 -2.50697 -3.06541 0
M  V30 337 H 31.182 -4.49564 -1.01136 0
M  V30 338 H 29.497 -4.02482 -1.06759 0
M  V30 339 H 32.094 -3.72805 -3.83302 0
M  V30 340 H 32.437 -2.02689 -3.63625 0
M  V30 341 H 32.97 -3.18054 -2.38928 0
M  V30 342 H 29.709 -6.17255 -2.20627 0
M  V30 343 H 29.229 -4.94263 -3.39801 0
M  V30 344 H 30.908 -5.53508 -3.35019 0
M  V30 345 N 31.0401 0.771051 -1.3745 0
M  V30 346 C 32.2891 1.52491 -1.3202 0
M  V30 347 C 32.6021 1.9538 0.0927347 0
M  V30 348 O 33.8081 2.70159 0.269503 0
M  V30 349 C 32.2641 2.75366 -2.31736 0
M  V30 350 C 31.8721 2.39573 -3.78562 0
M  V30 351 C 33.6161 3.53307 -2.35318 0
M  V30 352 C 31.5231 3.58954 -4.70007 0
M  V30 353 H 30.4531 0.572506 -0.490666 0
M  V30 354 H 33.1041 0.844474 -1.62914 0
M  V30 355 H 31.4861 3.45303 -1.93861 0
M  V30 356 H 32.6601 1.77415 -4.25277 0
M  V30 357 H 30.9751 1.74805 -3.77932 0
M  V30 358 H 33.5721 4.42039 -3.00842 0
M  V30 359 H 33.9151 3.93217 -1.36698 0
M  V30 360 H 34.4481 2.90367 -2.71904 0
M  V30 361 H 31.1871 3.24125 -5.69757 0
M  V30 362 H 30.7071 4.20214 -4.27996 0
M  V30 363 H 32.3861 4.25758 -4.87175 0
M  V30 364 N 32.5182 1.22032 0.997298 0
M  V30 365 C 33.7642 1.04376 1.73878 0
M  V30 366 C 34.0972 -0.420716 1.89588 0
M  V30 367 O 33.3722 -1.31202 1.43583 0
M  V30 368 C 33.6552 1.75047 3.14691 0
M  V30 369 C 33.5082 3.29062 3.06656 0
M  V30 370 C 34.8272 1.49928 4.13775 0
M  V30 371 H 31.9462 0.380578 0.631133 0
M  V30 372 H 34.5882 1.50312 1.16217 0
M  V30 373 H 32.7382 1.35996 3.63919 0
M  V30 374 H 34.4102 3.7753 2.65083 0
M  V30 375 H 32.6532 3.58967 2.43568 0
M  V30 376 H 33.3242 3.73683 4.06282 0
M  V30 377 H 35.8002 1.83842 3.73285 0
M  V30 378 H 34.6762 2.01878 5.10428 0
M  V30 379 H 34.9372 0.430929 4.39995 0
M  V30 380 N 33.9963 -1.19345 1.0293 0
M  V30 381 C 35.2733 -1.84811 0.640642 0
M  V30 382 C 35.6533 -1.91855 -0.88062 0
M  V30 383 O 35.0013 -1.43587 -1.7775 0
M  V30 384 C 35.2113 -3.23755 1.30321 0
M  V30 385 C 36.5593 -3.99912 1.42673 0
M  V30 386 O 37.5833 -3.33155 1.26041 0
M  V30 387 O 36.4423 -5.19494 1.6967 0
M  V30 388 H 33.5363 -0.796443 0.222726 0
M  V30 389 H 36.0823 -1.26831 1.12748 0
M  V30 390 H 34.8543 -3.13466 2.34211 0
M  V30 391 H 34.4773 -3.89381 0.804261 0
M  V30 392 N 35.4744 -0.807222 -1.35358 0
M  V30 393 C 36.4064 -0.175717 -2.28525 0
M  V30 394 C 37.4194 0.625354 -1.5031 0
M  V30 395 O 38.6084 0.457611 -1.72535 0
M  V30 396 C 35.7084 0.773471 -3.29956 0
M  V30 397 C 34.8814 0.0186296 -4.37396 0
M  V30 398 C 33.9404 0.886395 -5.18681 0
M  V30 399 O 32.9664 0.337106 -5.68201 0
M  V30 400 N 34.1684 2.20839 -5.36852 0
M  V30 401 H 36.9334 -0.976091 -2.83359 0
M  V30 402 H 34.4944 -0.662737 -1.47714 0
M  V30 403 H 36.4864 1.35824 -3.81227 0
M  V30 404 H 35.0564 1.47465 -2.75632 0
M  V30 405 H 34.2764 -0.747349 -3.87051 0
M  V30 406 H 35.5644 -0.501577 -5.06322 0
M  V30 407 H 34.9624 2.67858 -4.98265 0
M  V30 408 H 33.5194 2.74237 -5.91301 0
M  V30 409 N 36.9525 1.47285 -0.560781 0
M  V30 410 C 38.1825 2.06555 -0.0429638 0
M  V30 411 C 38.5905 1.41339 1.25777 0
M  V30 412 O 37.9335 0.505182 1.76617 0
M  V30 413 C 37.9955 3.58827 0.219887 0
M  V30 414 C 37.6595 4.46105 -0.991944 0
M  V30 415 C 38.6565 4.84 -1.89843 0
M  V30 416 C 36.3415 4.87567 -1.20762 0
M  V30 417 C 38.3355 5.6216 -3.00425 0
M  V30 418 C 36.0225 5.65491 -2.31653 0
M  V30 419 C 37.0205 6.02699 -3.21315 0
M  V30 420 O 36.7085 6.79052 -4.30283 0
M  V30 421 H 36.4405 0.674537 -0.0444468 0
M  V30 422 H 38.9945 1.90225 -0.774818 0
M  V30 423 H 37.2245 3.73383 1.00609 0
M  V30 424 H 38.9135 4.00103 0.683522 0
M  V30 425 H 39.6795 4.52564 -1.74387 0
M  V30 426 H 35.5585 4.5807 -0.518893 0
M  V30 427 H 39.1025 5.9112 -3.70436 0
M  V30 428 H 34.9995 5.9634 -2.47081 0
M  V30 429 H 35.7675 6.9745 -4.28376 0
M  V30 430 N 38.4306 0.297415 1.54768 0
M  V30 431 C 39.3406 -0.58983 2.27064 0
M  V30 432 C 40.3566 -1.15144 1.30453 0
M  V30 433 O 41.5326 -1.17699 1.63428 0
M  V30 434 C 38.5976 -1.74714 2.9946 0
M  V30 435 C 37.6586 -1.21997 4.11601 0
M  V30 436 C 36.8916 -2.32212 4.80535 0
M  V30 437 O 37.1146 -3.52036 4.48806 0
M  V30 438 O 36.0486 -1.99106 5.68014 0
M  V30 439 H 39.8746 -0.00348199 3.037 0
M  V30 440 H 37.4596 0.0640035 1.49263 0
M  V30 441 H 39.3416 -2.42147 3.44881 0
M  V30 442 H 38.0166 -2.32016 2.25722 0
M  V30 443 H 36.9236 -0.511458 3.70587 0
M  V30 444 H 38.2566 -0.692419 4.87305 0
M  V30 445 N 39.9087 -1.5758 0.0250728 0
M  V30 446 C 41.1387 -1.95646 -0.663783 0
M  V30 447 C 41.5467 -0.899935 -1.66427 0
M  V30 448 O 40.8897 0.127191 -1.83259 0
M  V30 449 C 40.9517 -3.29835 -1.43 0
M  V30 450 C 40.6157 -4.53197 -0.588305 0
M  V30 451 C 41.6127 -5.19726 0.13469 0
M  V30 452 C 39.2977 -4.99529 -0.526897 0
M  V30 453 C 41.2917 -6.30902 0.90781 0
M  V30 454 C 38.9787 -6.10589 0.24993 0
M  V30 455 C 39.9767 -6.76134 0.965994 0
M  V30 456 O 39.6647 -7.85062 1.7301 0
M  V30 457 H 39.3967 -0.649282 -0.188174 0
M  V30 458 H 41.9507 -2.05245 0.0799006 0
M  V30 459 H 40.1807 -3.16716 -2.21873 0
M  V30 460 H 41.8697 -3.52833 -2.00658 0
M  V30 461 H 42.6357 -4.84904 0.0965562 0
M  V30 462 H 38.5147 -4.48319 -1.07381 0
M  V30 463 H 42.0587 -6.81995 1.46724 0
M  V30 464 H 37.9557 -6.44849 0.289795 0
M  V30 465 H 38.7237 -8.01708 1.64944 0
M  V30 466 N 41.3868 0.248026 -1.55636 0
M  V30 467 C 42.3338 1.30707 -1.90222 0
M  V30 468 C 43.3038 1.47881 -0.756332 0
M  V30 469 O 44.4888 1.61883 -1.00988 0
M  V30 470 C 41.6288 2.65769 -2.20138 0
M  V30 471 C 40.7418 2.56612 -3.47526 0
M  V30 472 C 39.8768 3.8402 -3.67017 0
M  V30 473 C 38.9158 3.69476 -4.8801 0
M  V30 474 N 38.0528 4.88774 -5.04029 0
M  V30 475 H 42.8928 1.00512 -2.80538 0
M  V30 476 H 40.4298 0.485055 -1.38873 0
M  V30 477 H 42.3878 3.44386 -2.35487 0
M  V30 478 H 41.0178 2.94115 -1.33027 0
M  V30 479 H 40.0698 1.69571 -3.40514 0
M  V30 480 H 41.3818 2.41774 -4.36287 0
M  V30 481 H 40.5358 4.7108 -3.8232 0
M  V30 482 H 39.2748 4.01754 -2.76487 0
M  V30 483 H 38.2798 2.80799 -4.72686 0
M  V30 484 H 39.5048 3.53238 -5.8 0
M  V30 485 H 37.4508 5.0687 -4.16435 0
M  V30 486 H 37.3678 4.76562 -5.86877 0
M  V30 487 H 38.6358 5.77335 -5.23741 0
M  V30 488 N 42.8649 1.48995 0.513639 0
M  V30 489 C 44.0949 1.61297 1.291 0
M  V30 490 C 44.5029 0.278656 1.87137 0
M  V30 491 O 43.8459 -0.744325 1.67945 0
M  V30 492 C 43.9079 2.61326 2.46879 0
M  V30 493 C 43.5719 4.05993 2.09807 0
M  V30 494 C 44.5689 4.93183 1.64519 0
M  V30 495 C 42.2539 4.51642 2.19829 0
M  V30 496 C 44.2479 6.24056 1.2974 0
M  V30 497 C 41.9349 5.82532 1.84662 0
M  V30 498 C 42.9329 6.68562 1.3969 0
M  V30 499 O 42.6209 7.97014 1.04992 0
M  V30 500 H 42.3529 0.546236 0.39825 0
M  V30 501 H 44.9069 1.95673 0.62459 0
M  V30 502 H 43.1369 2.22104 3.16554 0
M  V30 503 H 44.8259 2.6329 3.08923 0
M  V30 504 H 45.5919 4.59147 1.56233 0
M  V30 505 H 41.4709 3.84855 2.53786 0
M  V30 506 H 45.0149 6.91161 0.945659 0
M  V30 507 H 40.9119 6.16099 1.92594 0
M  V30 508 H 41.6799 8.09913 1.18249 0
M  V30 509 N 44.343 -0.763751 1.37857 0
M  V30 510 C 45.754 -1.3405 1.29952 0
M  V30 511 C 46.105 -1.96138 -0.0492898 0
M  V30 512 O 45.23 -1.94372 -0.951239 0
M  V30 513 C 45.825 -2.43729 2.35333 0
M  V30 514 C 44.384 -2.97151 2.31037 0
M  V30 515 C 43.531 -1.70438 2.18738 0
M  V30 516 H 46.482 -0.563396 1.48363 0
M  V30 517 H 46.503 -3.23412 2.00462 0
M  V30 518 H 46.015 -1.9851 3.33489 0
M  V30 519 H 44.116 -3.46724 1.3643 0
M  V30 520 H 44.229 -3.52221 3.24772 0
M  V30 521 H 42.593 -1.93673 1.65418 0
M  V30 522 H 43.376 -1.27312 3.18821 0
M  V30 523 N 45.8211 -1.22559 -0.990812 0
M  V30 524 C 46.7841 -0.998863 -2.0629 0
M  V30 525 C 47.7841 0.0354834 -1.60761 0
M  V30 526 O 48.9741 -0.203231 -1.7301 0
M  V30 527 C 46.1061 -0.509203 -3.37076 0
M  V30 528 H 47.2991 -1.95014 -2.27837 0
M  V30 529 H 44.8521 -1.04456 -1.16269 0
M  V30 530 H 45.5871 0.446335 -3.21214 0
M  V30 531 H 45.3721 -1.25547 -3.71457 0
M  V30 532 H 46.8621 -0.370888 -4.1595 0
M  V30 533 N 47.2992 1.18797 -1.03562 0
M  V30 534 C 48.5482 1.87978 -0.731235 0
M  V30 535 C 48.8612 1.80911 0.743671 0
M  V30 536 O 50.0672 2.45407 1.16137 0
M  V30 537 C 48.5232 3.3721 -1.25768 0
M  V30 538 C 48.1312 3.52818 -2.76085 0
M  V30 539 C 49.8752 4.11825 -1.0296 0
M  V30 540 C 47.7822 4.9598 -3.22114 0
M  V30 541 H 46.7122 0.704063 -0.269835 0
M  V30 542 H 49.3632 1.34266 -1.25079 0
M  V30 543 H 47.7452 3.90359 -0.666011 0
M  V30 544 H 48.9192 3.09965 -3.40966 0
M  V30 545 H 47.2342 2.91602 -2.97249 0
M  V30 546 H 49.8312 5.17411 -1.34869 0
M  V30 547 H 50.1742 4.16287 0.0333546 0
M  V30 548 H 50.7072 3.64833 -1.58562 0
M  V30 549 H 47.4462 4.96684 -4.27768 0
M  V30 550 H 46.9662 5.39569 -2.61965 0
M  V30 551 H 48.6452 5.6467 -3.15844 0
M  V30 552 N 48.7773 0.814389 1.34928 0
M  V30 553 C 49.7243 0.22822 2.29669 0
M  V30 554 C 50.6943 -0.642164 1.53184 0
M  V30 555 O 51.8793 -0.585605 1.81591 0
M  V30 556 C 49.0193 -0.61089 3.3965 0
M  V30 557 C 48.1323 0.280792 4.31086 0
M  V30 558 C 47.2673 -0.567067 5.28165 0
M  V30 559 C 46.3063 0.324531 6.11239 0
M  V30 560 N 45.4433 -0.483756 7.00431 0
M  V30 561 H 50.2833 1.04153 2.79206 0
M  V30 562 H 47.8203 0.525133 1.37407 0
M  V30 563 H 49.7783 -1.11263 4.0209 0
M  V30 564 H 48.4083 -1.38939 2.91369 0
M  V30 565 H 47.4603 0.900688 3.69583 0
M  V30 566 H 48.7723 0.966723 4.89342 0
M  V30 567 H 47.9263 -1.13363 5.96015 0
M  V30 568 H 46.6653 -1.28654 4.70425 0
M  V30 569 H 45.6703 0.903298 5.42329 0
M  V30 570 H 46.8953 1.04198 6.71059 0
M  V30 571 H 44.8413 -1.18706 6.45171 0
M  V30 572 H 44.7583 0.143965 7.55863 0
M  V30 573 H 46.0263 -1.03334 7.7262 0
M  V30 574 N 50.2554 -1.46986 0.568584 0
M  V30 575 C 51.5324 -1.95592 -0.0174074 0
M  V30 576 C 51.9124 -1.51124 -1.47393 0
M  V30 577 O 51.2604 -0.755329 -2.15655 0
M  V30 578 C 51.4704 -3.48719 0.139913 0
M  V30 579 C 52.8184 -4.246 0.000426376 0
M  V30 580 O 53.8424 -3.56135 0.0680316 0
M  V30 581 O 52.7014 -5.46302 -0.146988 0
M  V30 582 H 49.7954 -0.82498 -0.0577599 0
M  V30 583 H 52.3414 -1.57335 0.635909 0
M  V30 584 H 51.1134 -3.73927 1.15301 0
M  V30 585 H 50.7364 -3.93771 -0.550491 0
M  V30 586 N 51.7335 -0.305618 -1.54608 0
M  V30 587 C 52.6635 0.561482 -2.26649 0
M  V30 588 C 53.6445 1.13415 -1.26772 0
M  V30 589 O 54.8295 1.16262 -1.55553 0
M  V30 590 C 51.9595 1.73122 -3.01075 0
M  V30 591 C 50.9135 1.2887 -4.08138 0
M  V30 592 C 50.2395 2.54396 -4.70305 0
M  V30 593 C 51.5395 0.416578 -5.20636 0
M  V30 594 H 53.2335 -0.0393902 -2.99374 0
M  V30 595 H 50.7795 -0.020385 -1.43986 0
M  V30 596 H 52.7325 2.34396 -3.50195 0
M  V30 597 H 51.4565 2.3584 -2.25936 0
M  V30 598 H 50.1155 0.698991 -3.59875 0
M  V30 599 H 49.7635 3.15439 -3.918 0
M  V30 600 H 49.4635 2.25486 -5.42614 0
M  V30 601 H 50.9875 3.16464 -5.2219 0
M  V30 602 H 52.4015 0.935116 -5.65622 0
M  V30 603 H 50.7985 0.221046 -5.99693 0
M  V30 604 H 51.8685 -0.557162 -4.81688 0
M  V30 605 N 53.2116 1.57565 -0.0334293 0
M  V30 606 C 54.1586 2.10478 0.946981 0
M  V30 607 C 55.1286 1.00787 1.32027 0
M  V30 608 O 56.3136 1.28232 1.41284 0
M  V30 609 C 53.4536 2.63994 2.22263 0
M  V30 610 C 52.5666 3.87709 1.90541 0
M  V30 611 C 51.7016 4.29604 3.12433 0
M  V30 612 C 50.7406 5.46065 2.76549 0
M  V30 613 N 49.8776 5.83096 3.9108 0
M  V30 614 H 54.7176 2.93963 0.488846 0
M  V30 615 H 52.2546 1.45296 0.22969 0
M  V30 616 H 54.2126 2.93114 2.96884 0
M  V30 617 H 52.8426 1.83333 2.65685 0
M  V30 618 H 51.8946 3.65291 1.06144 0
M  V30 619 H 53.2066 4.72403 1.60116 0
M  V30 620 H 52.3606 4.60182 3.9537 0
M  V30 621 H 51.0996 3.43685 3.46023 0
M  V30 622 H 50.1046 5.15176 1.92026 0
M  V30 623 H 51.3296 6.33685 2.44171 0
M  V30 624 H 49.2756 5.00132 4.24504 0
M  V30 625 H 49.1926 6.6244 3.64293 0
M  V30 626 H 50.4606 6.18282 4.74708 0
M  V30 627 N 54.6897 -0.239769 1.55765 0
M  V30 628 C 55.6367 -1.29696 1.90913 0
M  V30 629 C 56.6067 -1.47478 0.764164 0
M  V30 630 O 57.7917 -1.61345 1.01845 0
M  V30 631 C 54.9317 -2.64598 2.21544 0
M  V30 632 C 54.0447 -2.54765 3.48882 0
M  V30 633 C 53.1797 -3.82069 3.69049 0
M  V30 634 C 52.2187 -3.66883 4.89963 0
M  V30 635 N 51.3557 -4.86094 5.06614 0
M  V30 636 H 56.1957 -0.990224 2.81067 0
M  V30 637 H 53.7327 -0.477684 1.39128 0
M  V30 638 H 55.6907 -3.43132 2.3731 0
M  V30 639 H 54.3207 -2.93405 1.34585 0
M  V30 640 H 53.3727 -1.67763 3.41409 0
M  V30 641 H 54.6847 -2.39457 4.37563 0
M  V30 642 H 53.8387 -4.69046 3.84812 0
M  V30 643 H 52.5777 -4.00282 2.78614 0
M  V30 644 H 51.5827 -2.78289 4.74168 0
M  V30 645 H 52.8077 -3.50157 5.81865 0
M  V30 646 H 50.7537 -5.04655 4.19117 0
M  V30 647 H 50.6707 -4.73443 5.89396 0
M  V30 648 H 51.9387 -5.74549 5.26795 0
M  V30 649 N 56.1678 -1.49265 -0.50573 0
M  V30 650 C 57.5788 -1.51769 -1.08734 0
M  V30 651 C 57.9298 -0.301192 -1.93874 0
M  V30 652 O 57.0548 0.589456 -2.08217 0
M  V30 653 C 57.6498 -2.75017 -1.97867 0
M  V30 654 C 56.2088 -2.80314 -2.51199 0
M  V30 655 C 55.3558 -2.4562 -1.28709 0
M  V30 656 H 58.3068 -1.56031 -0.289855 0
M  V30 657 H 58.3278 -2.5491 -2.82491 0
M  V30 658 H 57.8398 -3.63539 -1.35873 0
M  V30 659 H 55.9408 -1.96061 -3.16845 0
M  V30 660 H 56.0538 -3.82366 -2.88675 0
M  V30 661 H 54.4178 -1.97297 -1.61078 0
M  V30 662 H 55.2008 -3.36411 -0.6843 0
M  V30 663 N 57.6459 0.756429 -1.3826 0
M  V30 664 C 58.8859 1.52833 -1.35725 0
M  V30 665 C 59.2499 1.91926 0.0534106 0
M  V30 666 O 60.4509 2.68028 0.203613 0
M  V30 667 C 58.7219 2.74919 -2.28373 0
M  V30 668 S 60.2809 3.64817 -2.43832 0
M  V30 669 H 57.0989 0.523043 -0.481608 0
M  V30 670 H 59.7009 0.888212 -1.74158 0
M  V30 671 H 58.4049 2.44304 -3.29763 0
M  V30 672 H 57.9359 3.43878 -1.91079 0
M  V30 673 H 59.9509 4.676 -1.66027 0
M  V30 674 N 59.124 1.23083 0.984299 0
M  V30 675 C 60.373 1.05466 1.71929 0
M  V30 676 C 60.686 -0.409211 1.91272 0
M  V30 677 O 61.892 -0.705226 2.62181 0
M  V30 678 C 60.348 1.83874 3.09384 0
M  V30 679 C 59.956 3.34566 2.97943 0
M  V30 680 C 61.7 1.74734 3.8687 0
M  V30 681 C 59.607 4.05381 4.30605 0
M  V30 682 H 58.537 0.391039 0.644674 0
M  V30 683 H 61.188 1.47013 1.09815 0
M  V30 684 H 59.57 1.35131 3.72231 0
M  V30 685 H 60.744 3.90767 2.44209 0
M  V30 686 H 59.059 3.44476 2.33934 0
M  V30 687 H 61.656 2.24957 4.85076 0
M  V30 688 H 61.999 0.709372 4.10212 0
M  V30 689 H 62.532 2.21067 3.30717 0
M  V30 690 H 59.271 5.09467 4.1246 0
M  V30 691 H 58.791 3.53967 4.84218 0
M  V30 692 H 60.47 4.11458 4.99311 0
M  V30 693 N 60.6021 -1.18246 1.0419 0
M  V30 694 C 61.8301 -1.92195 0.766072 0
M  V30 695 C 62.2451 -1.76247 -0.676933 0
M  V30 696 O 61.6021 -1.09293 -1.46155 0
M  V30 697 C 61.6531 -3.43568 1.12442 0
M  V30 698 O 61.3741 -3.59015 2.51078 0
M  V30 699 C 62.8751 -4.34613 0.873275 0
M  V30 700 H 60.0951 -0.610114 0.279288 0
M  V30 701 H 62.6391 -1.50007 1.38989 0
M  V30 702 H 60.7941 -3.8354 0.545542 0
M  V30 703 H 61.2081 -4.5273 2.64831 0
M  V30 704 H 62.6821 -5.39374 1.17385 0
M  V30 705 H 63.1591 -4.38781 -0.191909 0
M  V30 706 H 63.7651 -4.00341 1.43551 0
M  V30 707 N 62.0802 -0.821533 -1.34494 0
M  V30 708 C 63.0102 -0.257138 -2.3208 0
M  V30 709 C 63.9912 0.625645 -1.58176 0
M  V30 710 O 65.1762 0.552811 -1.86166 0
M  V30 711 C 62.3062 0.582958 -3.42372 0
M  V30 712 C 61.2602 -0.202571 -4.2752 0
M  V30 713 C 60.5862 0.760179 -5.29269 0
M  V30 714 C 61.8862 -1.40998 -5.02908 0
M  V30 715 H 63.5802 -1.07247 -2.79532 0
M  V30 716 H 61.1262 -0.517163 -1.34393 0
M  V30 717 H 63.0792 0.987972 -4.09655 0
M  V30 718 H 61.8032 1.43133 -2.93565 0
M  V30 719 H 60.4622 -0.588936 -3.61838 0
M  V30 720 H 60.1102 1.60447 -4.76724 0
M  V30 721 H 59.8102 0.238809 -5.87115 0
M  V30 722 H 61.3342 1.16308 -5.9942 0
M  V30 723 H 62.7482 -1.07905 -5.63054 0
M  V30 724 H 61.1452 -1.86689 -5.70322 0
M  V30 725 H 62.2152 -2.1889 -4.32684 0
M  V30 726 N 63.5583 1.46682 -0.576371 0
M  V30 727 C 64.8063 2.02013 -0.0594163 0
M  V30 728 C 65.1273 1.45101 1.30271 0
M  V30 729 O 64.3973 0.633317 1.8538 0
M  V30 730 H 62.9773 0.746759 -0.0189745 0
M  V30 731 H 65.6393 1.79862 -0.750717 0
M  V30 732 H 64.7353 3.12097 0.014345 0
M  V30 733 N 65.0364 0.313813 1.54444 0
M  V30 734 C 65.9834 -0.55655 2.23989 0
M  V30 735 C 66.9534 -1.11943 1.22711 0
M  V30 736 O 68.1384 -1.16158 1.51367 0
M  V30 737 C 65.2784 -1.71635 2.99392 0
M  V30 738 C 64.3914 -1.18364 4.15468 0
M  V30 739 C 63.5264 -2.30834 4.78424 0
M  V30 740 C 62.5654 -1.74762 5.86622 0
M  V30 741 N 61.7024 -2.80855 6.43479 0
M  V30 742 H 66.5424 0.0430893 2.97969 0
M  V30 743 H 64.0794 0.0330359 1.47063 0
M  V30 744 H 66.0374 -2.39868 3.41349 0
M  V30 745 H 64.6674 -2.28742 2.27765 0
M  V30 746 H 63.7194 -0.393163 3.78363 0
M  V30 747 H 65.0314 -0.733262 4.93381 0
M  V30 748 H 64.1854 -3.0699 5.23299 0
M  V30 749 H 62.9244 -2.79204 3.99871 0
M  V30 750 H 61.9294 -0.970995 5.41158 0
M  V30 751 H 63.1544 -1.2728 6.67066 0
M  V30 752 H 61.1004 -3.28535 5.67804 0
M  V30 753 H 61.0174 -2.40351 7.16776 0
M  V30 754 H 62.2854 -3.5687 6.93011 0
M  V30 755 N 66.5145 -1.57545 0.0417849 0
M  V30 756 C 67.4775 -2.09885 -0.92093 0
M  V30 757 C 68.4775 -1.01648 -1.24596 0
M  V30 758 O 69.6675 -1.27759 -1.1842 0
M  V30 759 C 66.7995 -2.57527 -2.23367 0
M  V30 760 H 67.9925 -2.96236 -0.467382 0
M  V30 761 H 65.5455 -1.5493 -0.206467 0
M  V30 762 H 66.2805 -1.74542 -2.73323 0
M  V30 763 H 66.0655 -3.36613 -2.01083 0
M  V30 764 H 67.5555 -2.98201 -2.92346 0
M  V30 765 N 67.9926 0.231505 -1.5589 0
M  V30 766 C 69.4036 0.799327 -1.68724 0
M  V30 767 C 69.7546 1.85398 -0.642022 0
M  V30 768 O 68.8796 2.1539 0.208784 0
M  V30 769 C 69.4746 1.45664 -3.05888 0
M  V30 770 C 68.0336 1.97197 -3.20609 0
M  V30 771 C 67.1806 0.828552 -2.64632 0
M  V30 772 H 70.1316 0.00702616 -1.58698 0
M  V30 773 H 70.1526 2.32517 -3.01191 0
M  V30 774 H 69.6646 0.688808 -3.81939 0
M  V30 775 H 67.7656 2.76813 -2.4941 0
M  V30 776 H 67.8786 2.15878 -4.27707 0
M  V30 777 H 66.2426 1.23321 -2.22854 0
M  V30 778 H 67.0256 0.0735544 -3.43221 0
M  V30 779 N 69.4707 1.49531 0.497807 0
M  V30 780 C 70.7477 1.49682 1.25915 0
M  V30 781 C 71.1277 0.226339 2.09883 0
M  V30 782 O 70.4757 -0.791189 2.14365 0
M  V30 783 C 70.6857 2.77755 2.11313 0
M  V30 784 C 72.0337 3.27371 2.70395 0
M  V30 785 O 73.0577 2.78894 2.21578 0
M  V30 786 O 71.9167 4.11808 3.59272 0
M  V30 787 H 69.0107 0.599228 0.56996 0
M  V30 788 H 71.5567 1.61798 0.511816 0
M  V30 789 H 70.3287 3.61713 1.49264 0
M  V30 790 H 69.9517 2.68515 2.93233 0
M  V30 791 N 70.9488 -0.749086 1.3866 0
M  V30 792 C 71.8788 -1.8764 1.38973 0
M  V30 793 C 72.8598 -1.68178 0.255004 0
M  V30 794 O 74.0448 -1.88704 0.458754 0
M  V30 795 C 71.1748 -3.25222 1.21851 0
M  V30 796 C 70.1288 -3.59295 2.32575 0
M  V30 797 C 69.4548 -4.95663 2.00555 0
M  V30 798 C 70.7548 -3.63709 3.7485 0
M  V30 799 H 72.4488 -1.87635 2.3331 0
M  V30 800 H 69.9948 -0.901329 1.12303 0
M  V30 801 H 71.9478 -4.03746 1.20695 0
M  V30 802 H 70.6718 -3.25719 0.239775 0
M  V30 803 H 69.3308 -2.83093 2.32925 0
M  V30 804 H 68.9788 -4.92724 1.01154 0
M  V30 805 H 68.6788 -5.19429 2.74714 0
M  V30 806 H 70.2028 -5.7656 2.01024 0
M  V30 807 H 71.6168 -4.32338 3.76506 0
M  V30 808 H 70.0138 -3.98986 4.48252 0
M  V30 809 H 71.0838 -2.63834 4.06841 0
M  V30 810 N 72.4269 -1.23603 -0.977757 0
M  V30 811 C 73.3749 -1.01704 -2.09187 0
M  V30 812 C 74.3689 0.0448214 -1.69341 0
M  V30 813 O 75.5749 -0.108902 -1.7967 0
M  V30 814 H 71.9499 -0.311803 -0.684312 0
M  V30 815 H 73.9209 -1.96207 -2.24823 0
M  V30 816 C 72.6699 -0.627746 -3.41986 0
M  V30 817 H 71.9929 -1.43656 -3.73099 0
M  V30 818 H 73.4329 -0.514053 -4.20872 0
M  V30 819 C 71.8919 0.664238 -3.30287 0
M  V30 820 O 72.4219 1.71268 -3.6336 0
M  V30 821 N 70.6279 0.641156 -2.83439 0
M  V30 822 H 70.1749 -0.212376 -2.56723 0
M  V30 823 H 70.1329 1.50583 -2.75993 0
M  V30 824 N 73.905 1.17692 -1.04816 0
M  V30 825 C 74.852 2.21581 -0.645797 0
M  V30 826 C 75.822 1.62367 0.350159 0
M  V30 827 O 77.007 1.89254 0.242433 0
M  V30 828 C 74.147 3.45092 -0.0227568 0
M  V30 829 C 73.26 4.18613 -1.06709 0
M  V30 830 C 72.395 5.29602 -0.411767 0
M  V30 831 C 71.434 5.94904 -1.44067 0
M  V30 832 N 70.571 6.97414 -0.809781 0
M  V30 833 H 75.411 2.55353 -1.5362 0
M  V30 834 H 72.948 1.25438 -0.768364 0
M  V30 835 H 74.906 4.15679 0.35588 0
M  V30 836 H 73.536 3.11917 0.831122 0
M  V30 837 H 72.588 3.46779 -1.5636 0
M  V30 838 H 73.9 4.63293 -1.84827 0
M  V30 839 H 73.054 6.06696 0.0206623 0
M  V30 840 H 71.793 4.86045 0.401438 0
M  V30 841 H 70.798 5.16544 -1.88316 0
M  V30 842 H 72.023 6.40542 -2.25571 0
M  V30 843 H 69.969 6.55998 -0.0170186 0
M  V30 844 H 69.886 7.40386 -1.52856 0
M  V30 845 H 71.154 7.78463 -0.401999 0
M  V30 846 N 75.3831 0.828654 1.34056 0
M  V30 847 C 76.3461 0.259927 2.27721 0
M  V30 848 C 77.3461 -0.565478 1.50529 0
M  V30 849 O 78.5361 -0.38075 1.69988 0
M  V30 850 C 75.6681 -0.634944 3.34935 0
M  V30 851 H 76.8611 1.0863 2.79534 0
M  V30 852 H 74.4141 0.600951 1.44285 0
M  V30 853 H 75.1491 -1.48416 2.88346 0
M  V30 854 H 74.9341 -0.0444999 3.92075 0
M  V30 855 H 76.4241 -1.02648 4.04788 0
M  V30 856 N 76.8612 -1.46375 0.584142 0
M  V30 857 C 78.0912 -2.06461 0.0758195 0
M  V30 858 C 78.4992 -1.43322 -1.23512 0
M  V30 859 O 77.8422 -0.533216 -1.75791 0
M  V30 860 C 77.9042 -3.59131 -0.162773 0
M  V30 861 C 77.5682 -4.4447 1.06279 0
M  V30 862 C 78.5652 -4.80918 1.97519 0
M  V30 863 C 76.2502 -4.85584 1.28504 0
M  V30 864 C 78.2442 -5.57309 3.09331 0
M  V30 865 C 75.9312 -5.61734 2.4062 0
M  V30 866 C 76.9292 -5.9751 3.30863 0
M  V30 867 O 76.6172 -6.72121 4.41032 0
M  V30 868 H 76.3492 -0.673745 0.0551725 0
M  V30 869 H 78.9032 -1.88969 0.804984 0
M  V30 870 H 77.1332 -3.74936 -0.946565 0
M  V30 871 H 78.8222 -4.0114 -0.619782 0
M  V30 872 H 79.5882 -4.49732 1.81565 0
M  V30 873 H 75.4672 -4.57187 0.591702 0
M  V30 874 H 79.0112 -5.85152 3.79793 0
M  V30 875 H 74.9082 -5.92334 2.56537 0
M  V30 876 H 75.6762 -6.90547 4.39417 0
M  V30 877 N 78.3393 -0.321999 -1.54275 0
M  V30 878 C 79.2863 0.544664 -2.24281 0
M  V30 879 C 80.2563 1.1129 -1.23303 0
M  V30 880 O 81.4413 1.15354 -1.51981 0
M  V30 881 C 78.5813 1.70045 -3.00298 0
M  V30 882 C 77.6943 1.16159 -4.1609 0
M  V30 883 C 76.8293 2.28293 -4.79641 0
M  V30 884 C 75.8683 1.71648 -5.8754 0
M  V30 885 N 75.0053 2.77438 -6.44959 0
M  V30 886 H 79.8453 -0.0588907 -2.97942 0
M  V30 887 H 77.3823 -0.0408345 -1.47043 0
M  V30 888 H 79.3403 2.38054 -3.42616 0
M  V30 889 H 77.9703 2.27531 -2.28975 0
M  V30 890 H 77.0223 0.373092 -3.78566 0
M  V30 891 H 78.3343 0.707087 -4.93763 0
M  V30 892 H 77.4883 3.0421 -5.2492 0
M  V30 893 H 76.2273 2.77079 -4.01346 0
M  V30 894 H 75.2323 0.942282 -5.41665 0
M  V30 895 H 76.4573 1.23741 -6.67731 0
M  V30 896 H 74.4033 3.25519 -5.69538 0
M  V30 897 H 74.3203 2.36547 -7.1804 0
M  V30 898 H 75.5883 3.53189 -6.94894 0
M  V30 899 N 79.8174 1.5752 -0.0501392 0
M  V30 900 C 81.0424 1.97376 0.636997 0
M  V30 901 C 81.4674 0.927466 1.63645 0
M  V30 902 O 80.8254 -0.10941 1.8097 0
M  V30 903 C 80.8734 3.36304 1.30123 0
M  V30 904 O 79.9774 3.34156 2.41689 0
M  V30 905 H 79.3184 0.642998 0.165679 0
M  V30 906 H 81.8484 2.04258 -0.118233 0
M  V30 907 H 81.8584 3.73008 1.65315 0
M  V30 908 H 80.5334 4.11993 0.568746 0
M  V30 909 H 79.1104 3.09196 2.08451 0
M  V30 910 N 81.2955 -0.223234 1.56011 0
M  V30 911 C 82.5415 -0.949279 1.79211 0
M  V30 912 C 82.8745 -1.84054 0.619494 0
M  V30 913 O 82.1495 -1.90726 -0.381317 0
M  V30 914 C 82.4325 -1.78965 3.12479 0
M  V30 915 C 82.2855 -0.924997 4.40186 0
M  V30 916 C 83.6045 -2.76774 3.42175 0
M  V30 917 H 80.7235 -0.343676 0.651963 0
M  V30 918 H 83.3655 -0.218253 1.88742 0
M  V30 919 H 81.5155 -2.41291 3.04485 0
M  V30 920 H 83.1875 -0.318615 4.60198 0
M  V30 921 H 81.4305 -0.230344 4.33188 0
M  V30 922 H 82.1015 -1.54735 5.29869 0
M  V30 923 H 84.5775 -2.24584 3.50287 0
M  V30 924 H 83.4535 -3.32678 4.36597 0
M  V30 925 H 83.7145 -3.54429 2.64258 0
M  V30 926 N 82.7736 -1.49793 -0.48987 0
M  V30 927 C 83.7036 -1.70201 -1.59856 0
M  V30 928 C 84.6846 -0.55076 -1.60937 0
M  V30 929 O 85.8696 -0.787841 -1.77501 0
M  V30 930 C 82.9996 -1.77882 -2.98287 0
M  V30 931 C 81.9536 -2.92907 -3.12073 0
M  V30 932 C 81.2796 -2.85712 -4.51965 0
M  V30 933 C 82.5796 -4.3369 -2.91051 0
M  V30 934 H 84.2736 -2.63025 -1.43032 0
M  V30 935 H 81.8196 -1.26574 -0.686664 0
M  V30 936 H 83.7726 -1.90744 -3.75759 0
M  V30 937 H 82.4966 -0.816653 -3.16225 0
M  V30 938 H 81.1556 -2.79665 -2.37029 0
M  V30 939 H 80.8036 -1.8738 -4.66795 0
M  V30 940 H 80.5036 -3.62921 -4.62128 0
M  V30 941 H 82.0276 -3.00598 -5.31482 0
M  V30 942 H 83.4416 -4.47555 -3.58284 0
M  V30 943 H 81.8386 -5.12205 -3.12675 0
M  V30 944 H 82.9086 -4.47362 -1.87071 0
M  V30 945 N 84.2517 0.741722 -1.39055 0
M  V30 946 C 85.4767 1.53607 -1.39354 0
M  V30 947 C 85.9017 1.88096 0.0116905 0
M  V30 948 O 85.2597 1.5143 0.996924 0
M  V30 949 C 85.3077 2.80441 -2.26682 0
M  V30 950 O 84.4117 3.76088 -1.69208 0
M  V30 951 H 83.7527 0.464142 -0.474835 0
M  V30 952 H 86.2827 0.915665 -1.82967 0
M  V30 953 H 86.2927 3.29246 -2.40959 0
M  V30 954 H 84.9677 2.5467 -3.2881 0
M  V30 955 H 83.5447 3.34833 -1.64138 0
M  V30 956 N 85.7298 1.2412 0.971189 0
M  V30 957 C 86.9698 1.09066 1.7287 0
M  V30 958 C 87.3338 -0.364794 1.88503 0
M  V30 959 O 88.5348 -0.636748 2.61149 0
M  V30 960 C 86.8058 1.80629 3.08396 0
M  V30 961 S 88.3648 1.81263 3.99611 0
M  V30 962 H 85.1828 0.390145 0.594397 0
M  V30 963 H 87.7848 1.57397 1.15959 0
M  V30 964 H 86.4888 2.85647 2.94676 0
M  V30 965 H 86.0198 1.32617 3.70373 0
M  V30 966 H 88.0348 0.877804 4.88374 0
M  V30 967 N 87.2079 -1.17134 1.05439 0
M  V30 968 C 88.1409 -2.2012 0.601855 0
M  V30 969 C 89.1189 -1.58314 -0.370854 0
M  V30 970 O 90.3029 -1.8638 -0.281882 0
M  V30 971 C 87.4299 -3.38491 -0.118868 0
M  V30 972 C 86.4759 -4.18752 0.809242 0
M  V30 973 S 87.3089 -4.83602 2.29977 0
M  V30 974 C 88.4649 -6.0536 1.59029 0
M  V30 975 H 88.6979 -2.58165 1.47438 0
M  V30 976 H 86.2309 -1.27788 0.866573 0
M  V30 977 H 88.1889 -4.07084 -0.528495 0
M  V30 978 H 86.8499 -2.98829 -0.967465 0
M  V30 979 H 86.0429 -5.03373 0.251379 0
M  V30 980 H 85.6449 -3.5561 1.15835 0
M  V30 981 H 87.9369 -6.71615 0.891017 0
M  V30 982 H 88.8799 -6.65679 2.41407 0
M  V30 983 H 89.2879 -5.54138 1.07663 0
M  V30 984 N 88.686 -0.835752 -1.33615 0
M  V30 985 C 89.911 -0.442389 -2.02627 0
M  V30 986 C 90.336 0.947735 -1.62479 0
M  V30 987 O 89.694 1.61907 -0.815826 0
M  V30 988 C 89.742 -0.567216 -3.56111 0
M  V30 989 O 88.846 0.407799 -4.10379 0
M  V30 990 H 88.187 -0.180278 -0.639059 0
M  V30 991 H 90.717 -1.12972 -1.70583 0
M  V30 992 H 90.727 -0.447708 -4.05536 0
M  V30 993 H 89.402 -1.58103 -3.84677 0
M  V30 994 H 87.979 0.246107 -3.72087 0
M  V30 995 N 90.1641 1.46063 -0.591896 0
M  V30 996 C 91.1271 2.28854 0.125973 0
M  V30 997 C 92.1271 1.38903 0.810107 0
M  V30 998 O 93.3171 1.61186 0.66066 0
M  V30 999 C 90.4491 3.19526 1.1881 0
M  V30 1000 H 91.6421 2.93802 -0.601717 0
M  V30 1001 H 89.1951 1.52325 -0.350254 0
M  V30 1002 H 89.9301 2.59345 1.94707 0
M  V30 1003 H 89.7151 3.85766 0.701936 0
M  V30 1004 H 91.2051 3.81817 1.69132 0
M  V30 1005 N 91.6422 0.330177 1.54103 0
M  V30 1006 C 92.6052 -0.520144 2.2322 0
M  V30 1007 C 93.6052 -1.03828 1.22786 0
M  V30 1008 O 94.7952 -0.929652 1.4732 0
M  V30 1009 C 91.9272 -1.72317 2.94142 0
M  V30 1010 H 93.1202 0.0841605 2.99782 0
M  V30 1011 H 90.6732 0.0813433 1.56088 0
M  V30 1012 H 91.4082 -2.36653 2.21734 0
M  V30 1013 H 91.1932 -1.35898 3.67796 0
M  V30 1014 H 92.6832 -2.3266 3.46784 0
M  V30 1015 N 93.1203 -1.57491 0.0584922 0
M  V30 1016 C 94.0673 -2.11958 -0.913376 0
M  V30 1017 C 95.0373 -1.02875 -1.30407 0
M  V30 1018 O 96.2223 -1.30464 -1.39226 0
M  V30 1019 C 93.3623 -2.67497 -2.18035 0
M  V30 1020 C 92.4753 -3.90691 -1.84349 0
M  V30 1021 C 91.6103 -4.3452 -3.05559 0
M  V30 1022 C 90.6493 -5.50395 -2.67827 0
M  V30 1023 N 89.7863 -5.89244 -3.81754 0
M  V30 1024 H 94.6263 -2.94704 -0.442017 0
M  V30 1025 H 92.1633 -1.45643 -0.206545 0
M  V30 1026 H 94.1213 -2.978 -2.92183 0
M  V30 1027 H 92.7513 -1.87537 -2.62735 0
M  V30 1028 H 91.8033 -3.66934 -1.00319 0
M  V30 1029 H 93.1153 -4.7489 -1.5258 0
M  V30 1030 H 92.2693 -4.66414 -3.87998 0
M  V30 1031 H 91.0083 -3.49147 -3.40511 0
M  V30 1032 H 90.0133 -5.18165 -1.83806 0
M  V30 1033 H 91.2383 -6.3749 -2.34059 0
M  V30 1034 H 89.1843 -5.06823 -4.16493 0
M  V30 1035 H 89.1013 -6.68151 -3.53708 0
M  V30 1036 H 90.3693 -6.25756 -4.64811 0
M  V30 1037 N 94.5984 0.214957 -1.56127 0
M  V30 1038 C 95.5284 1.2695 -1.95974 0
M  V30 1039 C 96.5094 1.48539 -0.828868 0
M  V30 1040 O 97.6944 1.60611 -1.09168 0
M  V30 1041 C 94.8244 2.61794 -2.28214 0
M  V30 1042 C 93.7784 2.54851 -3.43853 0
M  V30 1043 C 93.1044 3.93785 -3.61715 0
M  V30 1044 C 94.4044 2.09065 -4.78632 0
M  V30 1045 H 96.0984 0.93846 -2.84312 0
M  V30 1046 H 93.6444 0.449996 -1.36788 0
M  V30 1047 H 95.5974 3.35731 -2.54682 0
M  V30 1048 H 94.3214 2.96599 -1.36736 0
M  V30 1049 H 92.9804 1.8337 -3.17444 0
M  V30 1050 H 92.6284 4.25908 -2.67602 0
M  V30 1051 H 92.3284 3.90019 -4.39498 0
M  V30 1052 H 93.8524 4.69374 -3.90539 0
M  V30 1053 H 95.2664 2.7275 -5.04262 0
M  V30 1054 H 93.6634 2.16346 -5.59745 0
M  V30 1055 H 94.7334 1.04315 -4.73547 0
M  V30 1056 N 96.0765 1.50051 0.48192 0
M  V30 1057 C 97.3535 1.51009 1.2432 0
M  V30 1058 C 97.7335 0.248587 2.09631 0
M  V30 1059 O 97.0815 -0.768409 2.15192 0
M  V30 1060 C 97.2915 2.79981 2.08355 0
M  V30 1061 C 98.6395 3.3022 2.66908 0
M  V30 1062 O 99.6635 2.81228 2.18607 0
M  V30 1063 O 98.5225 4.15595 3.54884 0
M  V30 1064 H 95.6165 0.605239 0.563573 0
M  V30 1065 H 98.1625 1.62332 0.494627 0
M  V30 1066 H 96.9345 3.63275 1.45419 0
M  V30 1067 H 96.5575 2.7161 2.90368 0
M  V30 1068 N 97.5546 -0.734337 1.39446 0
M  V30 1069 C 98.9656 -1.31264 1.32766 0
M  V30 1070 C 99.3166 -1.96198 -0.00767497 0
M  V30 1071 O 98.4416 -1.96346 -0.909796 0
M  V30 1072 C 99.0366 -2.38682 2.4045 0
M  V30 1073 C 97.5956 -2.92184 2.37288 0
M  V30 1074 C 96.7426 -1.6576 2.22304 0
M  V30 1075 H 99.6936 -0.531799 1.49525 0
M  V30 1076 H 99.7146 -3.19087 2.07276 0
M  V30 1077 H 99.2266 -1.91392 3.37625 0
M  V30 1078 H 97.3276 -3.43752 1.43754 0
M  V30 1079 H 97.4406 -3.45253 3.3217 0
M  V30 1080 H 95.8046 -1.9012 1.69489 0
M  V30 1081 H 96.5876 -1.20521 3.21449 0
M  V30 1082 N 99.0327 -1.24633 -0.964593 0
M  V30 1083 C 100.31 -0.995809 -1.68354 0
M  V30 1084 C 100.69 0.480964 -2.05548 0
M  V30 1085 O 100.038 1.45599 -1.76105 0
M  V30 1086 C 100.248 -1.92177 -2.91323 0
M  V30 1087 C 101.596 -2.19446 -3.63495 0
M  V30 1088 O 102.62 -1.89855 -3.01386 0
M  V30 1089 O 101.479 -2.69714 -4.75307 0
M  V30 1090 H 98.5727 -0.376854 -0.736146 0
M  V30 1091 H 101.119 -1.35745 -1.0184 0
M  V30 1092 H 99.8907 -2.91938 -2.60553 0
M  V30 1093 H 99.5137 -1.56349 -3.65569 0
M  V30 1094 N 100.511 1.16574 -1.06058 0
M  V30 1095 C 101.788 1.83048 -0.689416 0
M  V30 1096 C 102.168 1.94122 0.829443 0
M  V30 1097 O 101.516 1.48249 1.7388 0
M  V30 1098 C 101.726 3.20186 -1.38859 0
M  V30 1099 C 103.074 3.95989 -1.53226 0
M  V30 1100 O 104.098 3.29696 -1.3483 0
M  V30 1101 O 102.957 5.14813 -1.83384 0
M  V30 1102 H 100.051 0.790258 -0.243764 0
M  V30 1103 H 102.597 1.23797 -1.16071 0
M  V30 1104 H 101.369 3.07146 -2.4244 0
M  V30 1105 H 100.992 3.87112 -0.907216 0
M  V30 1106 N 101.989 0.842826 1.3317 0
M  V30 1107 C 103.235 0.441099 1.97945 0
M  V30 1108 C 103.568 -0.998024 1.66593 0
M  V30 1109 O 102.843 -1.69839 0.947898 0
M  V30 1110 C 103.126 0.666841 3.53872 0
M  V30 1111 C 102.979 2.15352 3.94897 0
M  V30 1112 C 104.298 0.115544 4.39948 0
M  V30 1113 H 101.417 0.161739 0.719034 0
M  V30 1114 H 104.059 1.05907 1.57746 0
M  V30 1115 H 102.209 0.140828 3.88245 0
M  V30 1116 H 103.881 2.7447 3.70761 0
M  V30 1117 H 102.124 2.63653 3.44484 0
M  V30 1118 H 102.795 2.26221 5.03516 0
M  V30 1119 H 105.271 0.565213 4.12243 0
M  V30 1120 H 104.147 0.303152 5.48062 0
M  V30 1121 H 104.408 -0.980935 4.3108 0
M  V30 1122 N 103.467 -1.45747 0.599634 0
M  V30 1123 C 104.707 -2.04181 0.0946309 0
M  V30 1124 C 105.071 -1.45895 -1.24815 0
M  V30 1125 O 106.272 -1.95633 -1.8434 0
M  V30 1126 C 104.543 -3.57368 0.047581 0
M  V30 1127 S 106.102 -4.36997 -0.397387 0
M  V30 1128 H 102.92 -0.70953 0.0456954 0
M  V30 1129 H 105.522 -1.78564 0.795946 0
M  V30 1130 H 104.226 -3.97303 1.02852 0
M  V30 1131 H 103.757 -3.87549 -0.675977 0
M  V30 1132 H 105.772 -4.68012 -1.64862 0
M  V30 1133 N 104.945 -0.338344 -1.53925 0
M  V30 1134 C 106.17 0.263987 -2.05713 0
M  V30 1135 C 106.595 1.43847 -1.21201 0
M  V30 1136 O 105.953 1.79904 -0.224535 0
M  V30 1137 C 106.001 0.662 -3.54471 0
M  V30 1138 O 105.105 1.76265 -3.72833 0
M  V30 1139 H 104.446 0.0448722 -0.662482 0
M  V30 1140 H 106.976 -0.491048 -1.9862 0
M  V30 1141 H 106.986 0.940594 -3.9701 0
M  V30 1142 H 105.661 -0.196937 -4.15433 0
M  V30 1143 H 104.238 1.48173 -3.42198 0
M  V30 1144 N 106.423 1.57458 -0.0668435 0
M  V30 1145 C 107.653 1.97337 0.611677 0
M  V30 1146 C 108.061 0.943744 1.63982 0
M  V30 1147 O 107.404 -0.0785584 1.83532 0
M  V30 1148 C 107.466 3.33511 1.34205 0
M  V30 1149 C 107.13 4.54598 0.467941 0
M  V30 1150 C 108.127 5.19186 -0.272439 0
M  V30 1151 C 105.812 5.0075 0.39427 0
M  V30 1152 C 107.806 6.28274 -1.07476 0
M  V30 1153 C 105.493 6.09711 -0.411729 0
M  V30 1154 C 106.491 6.73335 -1.14492 0
M  V30 1155 O 106.179 7.80199 -1.93763 0
M  V30 1156 H 105.911 0.654042 0.170893 0
M  V30 1157 H 108.465 2.04961 -0.134289 0
M  V30 1158 H 106.695 3.22487 2.13398 0
M  V30 1159 H 108.384 3.58029 1.91233 0
M  V30 1160 H 109.15 4.84477 -0.225086 0
M  V30 1161 H 105.029 4.51009 0.954569 0
M  V30 1162 H 108.573 6.77866 -1.64755 0
M  V30 1163 H 104.47 6.43854 -0.460664 0
M  V30 1164 H 105.238 7.97053 -1.86142 0
M  V30 1165 N 107.901 -0.206675 1.56239 0
M  V30 1166 C 108.831 -1.25909 1.96645 0
M  V30 1167 C 109.812 -1.48097 0.836734 0
M  V30 1168 O 110.997 -1.6003 1.10019 0
M  V30 1169 C 108.127 -2.6058 2.29599 0
M  V30 1170 C 107.081 -2.53024 3.452 0
M  V30 1171 C 106.407 -3.91861 3.63798 0
M  V30 1172 C 107.707 -2.06524 4.79734 0
M  V30 1173 H 109.401 -0.923369 2.84806 0
M  V30 1174 H 106.947 -0.442735 1.37025 0
M  V30 1175 H 108.9 -3.34375 2.56459 0
M  V30 1176 H 107.624 -2.95869 1.38307 0
M  V30 1177 H 106.283 -1.81684 3.18412 0
M  V30 1178 H 105.931 -4.24483 2.69857 0
M  V30 1179 H 105.631 -3.87683 4.4156 0
M  V30 1180 H 107.155 -4.67296 3.93022 0
M  V30 1181 H 108.569 -2.70072 5.05702 0
M  V30 1182 H 106.966 -2.13374 5.60885 0
M  V30 1183 H 108.036 -1.01802 4.74093 0
M  V30 1184 N 109.379 -1.50304 -0.473955 0
M  V30 1185 C 110.342 -1.6841 -1.55469 0
M  V30 1186 C 111.342 -0.554905 -1.50922 0
M  V30 1187 O 112.532 -0.821882 -1.53593 0
M  V30 1188 C 109.664 -1.70667 -2.95102 0
M  V30 1189 H 110.857 -2.64828 -1.40733 0
M  V30 1190 H 108.41 -1.39742 -0.700132 0
M  V30 1191 H 109.145 -0.75932 -3.15285 0
M  V30 1192 H 108.93 -2.52698 -2.9981 0
M  V30 1193 H 110.42 -1.8664 -3.73571 0
M  V30 1194 N 110.857 0.726932 -1.39834 0
M  V30 1195 C 111.82 1.82269 -1.38962 0
M  V30 1196 C 112.82 1.58248 -0.285334 0
M  V30 1197 O 114.01 1.65499 -0.54366 0
M  V30 1198 C 111.142 3.20186 -1.17019 0
M  V30 1199 H 112.335 1.84443 -2.36476 0
M  V30 1200 H 109.888 0.931416 -1.25516 0
M  V30 1201 H 110.623 3.23669 -0.202204 0
M  V30 1202 H 110.408 3.3902 -1.96998 0
M  V30 1203 H 111.898 4.00235 -1.1917 0
M  V30 1204 N 112.336 1.25143 0.95797 0
M  V30 1205 C 113.299 1.05321 2.03569 0
M  V30 1206 C 114.299 0.007152 1.60798 0
M  V30 1207 O 115.489 0.24903 1.72411 0
M  V30 1208 C 112.621 0.598394 3.35607 0
M  V30 1209 H 113.814 2.00986 2.22586 0
M  V30 1210 H 111.367 1.07502 1.13459 0
M  V30 1211 H 112.102 -0.361014 3.22284 0
M  V30 1212 H 111.887 1.35351 3.67998 0
M  V30 1213 H 113.377 0.48104 4.1482 0
M  V30 1214 N 113.814 -1.1601 1.06675 0
M  V30 1215 C 114.747 -2.1947 0.625168 0
M  V30 1216 C 115.725 -1.58699 -0.354041 0
M  V30 1217 O 116.909 -1.86669 -0.262098 0
M  V30 1218 C 114.036 -3.38598 -0.0829593 0
M  V30 1219 C 113.082 -4.1787 0.853611 0
M  V30 1220 S 113.915 -4.81135 2.35094 0
M  V30 1221 C 115.071 -6.03639 1.65441 0
M  V30 1222 H 115.304 -2.56587 1.50168 0
M  V30 1223 H 112.837 -1.26862 0.880078 0
M  V30 1224 H 114.795 -4.07621 -0.485288 0
M  V30 1225 H 113.456 -2.99839 -0.935716 0
M  V30 1226 H 112.649 -5.03078 0.304755 0
M  V30 1227 H 112.251 -3.54361 1.196 0
M  V30 1228 H 114.543 -6.70632 0.962201 0
M  V30 1229 H 115.486 -6.63081 2.48454 0
M  V30 1230 H 115.894 -5.52965 1.13534 0
M  V30 1231 N 115.292 -0.849877 -1.32721 0
M  V30 1232 C 116.224 -0.248332 -2.27851 0
M  V30 1233 C 117.237 0.577218 -1.52224 0
M  V30 1234 O 118.426 0.402489 -1.73903 0
M  V30 1235 C 115.526 0.668107 -3.32249 0
M  V30 1236 C 114.699 -0.120534 -4.37234 0
M  V30 1237 C 113.758 0.720932 -5.21238 0
M  V30 1238 O 112.784 0.156166 -5.68986 0
M  V30 1239 N 113.986 2.03647 -5.43607 0
M  V30 1240 H 116.751 -1.06575 -2.80111 0
M  V30 1241 H 114.312 -0.709395 -1.45531 0
M  V30 1242 H 116.304 1.23627 -3.85355 0
M  V30 1243 H 114.874 1.38621 -2.80184 0
M  V30 1244 H 114.094 -0.870108 -3.84477 0
M  V30 1245 H 115.382 -0.662406 -5.0447 0
M  V30 1246 H 114.78 2.51871 -5.06535 0
M  V30 1247 H 113.337 2.55287 -5.99727 0
M  V30 1248 N 116.77 1.45427 -0.607355 0
M  V30 1249 C 118.017 2.02241 -0.102455 0
M  V30 1250 C 118.345 1.4758 1.26691 0
M  V30 1251 O 117.6 0.640468 1.84923 0
M  V30 1252 C 117.899 3.57398 -0.0129263 0
M  V30 1253 C 117.565 4.3121 -1.31792 0
M  V30 1254 C 116.227 4.51092 -1.67539 0
M  V30 1255 C 118.579 4.73401 -2.18039 0
M  V30 1256 C 115.907 5.10422 -2.89285 0
M  V30 1257 C 118.259 5.34078 -3.39034 0
M  V30 1258 C 116.923 5.52184 -3.75033 0
M  V30 1259 H 116.193 0.740051 -0.037491 0
M  V30 1260 H 118.84 1.74494 -0.788926 0
M  V30 1261 H 117.145 3.84421 0.756806 0
M  V30 1262 H 118.842 3.99061 0.393881 0
M  V30 1263 H 115.432 4.16047 -1.02968 0
M  V30 1264 H 119.616 4.57774 -1.91721 0
M  V30 1265 H 114.872 5.22629 -3.17283 0
M  V30 1266 H 119.046 5.65724 -4.06115 0
M  V30 1267 H 116.673 5.97925 -4.69457 0
M  V30 1268 N 118.248 0.346503 1.53744 0
M  V30 1269 C 119.495 -0.249104 2.00962 0
M  V30 1270 C 119.823 -1.5032 1.23426 0
M  V30 1271 O 119.078 -1.93217 0.310761 0
M  V30 1272 C 119.377 -0.605809 3.52228 0
M  V30 1273 C 119.043 0.551747 4.47512 0
M  V30 1274 C 117.705 0.86941 4.73281 0
M  V30 1275 C 120.057 1.32818 5.03993 0
M  V30 1276 C 117.385 1.96582 5.52786 0
M  V30 1277 C 119.737 2.41486 5.84694 0
M  V30 1278 C 118.401 2.73808 6.08757 0
M  V30 1279 H 117.671 -0.0911538 0.735372 0
M  V30 1280 H 120.318 0.475027 1.85515 0
M  V30 1281 H 118.623 -1.4107 3.65522 0
M  V30 1282 H 120.32 -1.07858 3.86222 0
M  V30 1283 H 116.91 0.294102 4.2759 0
M  V30 1284 H 121.094 1.09602 4.84047 0
M  V30 1285 H 116.35 2.22045 5.69654 0
M  V30 1286 H 120.524 3.02078 6.27473 0
M  V30 1287 H 118.151 3.58892 6.7015 0
M  V30 1288 N 119.726 -1.57421 0.075193 0
M  V30 1289 C 120.636 -2.1642 -0.905511 0
M  V30 1290 C 121.652 -1.12828 -1.32461 0
M  V30 1291 O 122.828 -1.45109 -1.39661 0
M  V30 1292 C 119.893 -2.71693 -2.15369 0
M  V30 1293 C 118.954 -3.90171 -1.79068 0
M  V30 1294 C 118.187 -4.42798 -2.97936 0
M  V30 1295 O 118.41 -3.94416 -4.12058 0
M  V30 1296 O 117.344 -5.34085 -2.77555 0
M  V30 1297 H 121.17 -3.00588 -0.433626 0
M  V30 1298 H 118.755 -1.48664 -0.148067 0
M  V30 1299 H 120.637 -3.07104 -2.88557 0
M  V30 1300 H 119.312 -1.90582 -2.61649 0
M  V30 1301 H 118.219 -3.59606 -1.03122 0
M  V30 1302 H 119.552 -4.72584 -1.37569 0
M  V30 1303 N 121.204 0.198386 -1.56346 0
M  V30 1304 C 122.452 0.91747 -1.80075 0
M  V30 1305 C 122.773 1.83929 -0.647692 0
M  V30 1306 O 122.043 1.93029 0.334166 0
M  V30 1307 H 120.623 0.341774 -0.664228 0
M  V30 1308 H 123.285 0.204684 -1.93822 0
M  V30 1309 H 122.381 1.51055 -2.7311 0
M  V30 1310 N 122.682 1.50554 0.465978 0
M  V30 1311 C 123.91 1.65563 1.24083 0
M  V30 1312 C 124.325 0.341051 1.85694 0
M  V30 1313 O 123.682 -0.677543 1.69457 0
M  V30 1314 C 123.733 2.75051 2.34583 0
M  V30 1315 O 123.454 4.01413 1.75497 0
M  V30 1316 C 124.955 3.01078 3.25372 0
M  V30 1317 H 122.175 0.55638 0.375077 0
M  V30 1318 H 124.719 1.96807 0.555624 0
M  V30 1319 H 122.874 2.46486 2.9887 0
M  V30 1320 H 123.288 4.62002 2.48303 0
M  V30 1321 H 124.762 3.81339 3.99105 0
M  V30 1322 H 125.239 2.12349 3.84453 0
M  V30 1323 H 125.845 3.31194 2.66816 0
M  V30 1324 N 124.16 -0.719506 1.40217 0
M  V30 1325 C 125.4 -1.49181 1.39729 0
M  V30 1326 C 125.764 -1.92 -0.00250614 0
M  V30 1327 O 126.965 -2.68473 -0.132479 0
M  V30 1328 C 125.236 -2.68767 2.35582 0
M  V30 1329 S 126.795 -3.58224 2.53418 0
M  V30 1330 H 123.613 -0.510091 0.495307 0
M  V30 1331 H 126.215 -0.841724 1.76452 0
M  V30 1332 H 124.919 -2.35475 3.36124 0
M  V30 1333 H 124.45 -3.38691 2.0013 0
M  V30 1334 H 126.465 -4.63033 1.78367 0
M  V30 1335 N 125.638 -1.25649 -0.95132 0
M  V30 1336 C 127.049 -1.09654 -1.51106 0
M  V30 1337 C 127.4 0.326615 -1.93462 0
M  V30 1338 O 126.525 1.21697 -1.78938 0
M  V30 1339 C 127.12 -1.98437 -2.74605 0
M  V30 1340 C 125.679 -1.86618 -3.2688 0
M  V30 1341 C 124.826 -1.9239 -1.99703 0
M  V30 1342 H 127.777 -1.38887 -0.767865 0
M  V30 1343 H 127.798 -1.5263 -3.48546 0
M  V30 1344 H 127.31 -3.02009 -2.43746 0
M  V30 1345 H 125.411 -0.859421 -3.62553 0
M  V30 1346 H 125.524 -2.71607 -3.94673 0
M  V30 1347 H 123.888 -1.36317 -2.15151 0
M  V30 1348 H 124.671 -2.97573 -1.71188 0
M  V30 1349 N 127.117 1.15442 -1.07289 0
M  V30 1350 C 128.027 2.23786 -0.704057 0
M  V30 1351 C 129.043 1.7166 0.284413 0
M  V30 1352 O 130.219 2.00972 0.131205 0
M  V30 1353 C 127.284 3.46535 -0.106792 0
M  V30 1354 C 126.345 4.13654 -1.14842 0
M  V30 1355 C 125.578 5.30544 -0.57956 0
M  V30 1356 O 125.801 5.67187 0.604585 0
M  V30 1357 O 124.735 5.87154 -1.32414 0
M  V30 1358 H 128.561 2.57664 -1.60757 0
M  V30 1359 H 126.146 1.23152 -0.845803 0
M  V30 1360 H 128.028 4.20804 0.224048 0
M  V30 1361 H 126.703 3.14407 0.770049 0
M  V30 1362 H 125.61 3.4131 -1.5316 0
M  V30 1363 H 126.943 4.49861 -1.99714 0
M  V30 1364 N 128.595 0.856903 1.32268 0
M  V30 1365 C 129.872 0.382583 1.91822 0
M  V30 1366 C 130.252 -1.13407 1.78051 0
M  V30 1367 O 129.6 -1.95673 1.18001 0
M  V30 1368 C 129.81 0.849446 3.38505 0
M  V30 1369 C 131.158 0.867936 4.15634 0
M  V30 1370 O 132.182 0.794232 3.47232 0
M  V30 1371 O 131.041 0.972286 5.37781 0
M  V30 1372 H 128.135 0.112014 0.819379 0
M  V30 1373 H 130.681 0.943952 1.41024 0
M  V30 1374 H 129.453 1.89267 3.42482 0
M  V30 1375 H 129.076 0.265652 3.96712 0
M  V30 1376 N 130.073 -1.45103 0.615059 0
M  V30 1377 C 131.319 -2.03035 0.121804 0
M  V30 1378 C 131.674 -1.47393 -1.23665 0
M  V30 1379 O 130.967 -0.642061 -1.80522 0
M  V30 1380 C 131.161 -3.57386 0.0318797 0
M  V30 1381 C 130.99 -4.28 1.38007 0
M  V30 1382 C 129.76 -4.65624 1.9627 0
M  V30 1383 C 131.958 -4.5948 2.31047 0
M  V30 1384 N 129.94 -5.21132 3.24492 0
M  V30 1385 C 131.311 -5.159 3.43872 0
M  V30 1386 C 133.366 -4.41423 2.30326 0
M  V30 1387 C 132.069 -5.56165 4.5615 0
M  V30 1388 C 134.095 -4.82726 3.41658 0
M  V30 1389 C 133.457 -5.39245 4.53205 0
M  V30 1390 H 129.556 -0.77702 0.0881159 0
M  V30 1391 H 132.14 -1.76819 0.815044 0
M  V30 1392 H 130.311 -3.83247 -0.630599 0
M  V30 1393 H 132.043 -4.01976 -0.468721 0
M  V30 1394 H 128.798 -4.49421 1.49392 0
M  V30 1395 H 129.222 -5.53377 3.90004 0
M  V30 1396 H 133.864 -3.97033 1.45343 0
M  V30 1397 H 131.582 -5.99517 5.41854 0
M  V30 1398 H 135.168 -4.7048 3.42257 0
M  V30 1399 H 134.048 -5.70616 5.37929 0
M  V30 1400 N 131.551 -0.354651 -1.53558 0
M  V30 1401 C 132.779 0.239515 -2.05509 0
M  V30 1402 C 133.194 1.4333 -1.2289 0
M  V30 1403 O 132.551 1.80538 -0.266899 0
M  V30 1404 C 132.602 0.643719 -3.55723 0
M  V30 1405 O 132.323 -0.502602 -4.35207 0
M  V30 1406 C 133.824 1.29743 -4.23889 0
M  V30 1407 H 131.044 0.0442697 -0.669538 0
M  V30 1408 H 133.588 -0.509856 -1.98042 0
M  V30 1409 H 131.743 1.34302 -3.63376 0
M  V30 1410 H 132.157 -0.178172 -5.24197 0
M  V30 1411 H 133.631 1.53091 -5.30346 0
M  V30 1412 H 134.108 2.25441 -3.76926 0
M  V30 1413 H 134.714 0.639865 -4.20459 0
M  V30 1414 N 133.029 1.57378 -0.0835403 0
M  V30 1415 C 134.254 1.98682 0.594987 0
M  V30 1416 C 134.679 0.961969 1.61641 0
M  V30 1417 O 134.037 -0.0709989 1.81161 0
M  V30 1418 C 134.085 3.38988 1.2296 0
M  V30 1419 O 133.189 3.39208 2.34546 0
M  V30 1420 H 132.53 0.646368 0.152002 0
M  V30 1421 H 135.06 2.03961 -0.161533 0
M  V30 1422 H 135.07 3.76431 1.57366 0
M  V30 1423 H 133.745 4.13107 0.481228 0
M  V30 1424 H 132.322 3.13548 2.01846 0
M  V30 1425 N 134.507 -0.190092 1.56449 0
M  V30 1426 C 135.737 -0.92443 1.84764 0
M  V30 1427 C 136.145 -1.77146 0.664529 0
M  V30 1428 O 135.488 -1.79812 -0.375957 0
M  V30 1429 C 135.55 -1.86651 3.07248 0
M  V30 1430 C 135.214 -1.20094 4.40938 0
M  V30 1431 C 136.211 -0.575445 5.16706 0
M  V30 1432 C 133.896 -1.2033 4.87674 0
M  V30 1433 C 135.89 0.0388111 6.37388 0
M  V30 1434 C 133.577 -0.585214 6.08291 0
M  V30 1435 C 134.575 0.0347578 6.82991 0
M  V30 1436 O 134.263 0.643147 8.01323 0
M  V30 1437 H 133.995 -0.274974 0.617548 0
M  V30 1438 H 136.549 -0.200788 2.04416 0
M  V30 1439 H 134.779 -2.62998 2.83494 0
M  V30 1440 H 136.468 -2.46907 3.22167 0
M  V30 1441 H 137.234 -0.565728 4.81689 0
M  V30 1442 H 133.113 -1.67526 4.29484 0
M  V30 1443 H 136.657 0.523329 6.95634 0
M  V30 1444 H 132.554 -0.592451 6.42775 0
M  V30 1445 H 133.322 0.540545 8.16713 0
M  V30 1446 N 135.985 -1.50799 -0.457987 0
M  V30 1447 C 137.233 -1.62121 -1.2067 0
M  V30 1448 C 137.554 -0.329793 -1.92191 0
M  V30 1449 O 136.824 0.653409 -1.84682 0
M  V30 1450 H 135.404 -0.597441 -0.448411 0
M  V30 1451 H 138.066 -1.87637 -0.527096 0
M  V30 1452 H 137.162 -2.43882 -1.94751 0
M  V30 1453 N 137.463 0.71206 -1.40597 0
M  V30 1454 C 138.712 1.46754 -1.38369 0
M  V30 1455 C 139.025 1.95598 0.0097839 0
M  V30 1456 O 140.231 2.71059 0.154677 0
M  V30 1457 C 138.687 2.65289 -2.43207 0
M  V30 1458 C 138.295 2.23301 -3.88382 0
M  V30 1459 C 140.039 3.43008 -2.50091 0
M  V30 1460 C 137.946 3.38696 -4.84808 0
M  V30 1461 H 136.876 0.55118 -0.514506 0
M  V30 1462 H 139.527 0.774616 -1.66349 0
M  V30 1463 H 137.909 3.36769 -2.08332 0
M  V30 1464 H 139.083 1.59218 -4.32419 0
M  V30 1465 H 137.398 1.58618 -3.85006 0
M  V30 1466 H 139.995 4.28881 -3.1932 0
M  V30 1467 H 140.338 3.87065 -1.53253 0
M  V30 1468 H 140.871 2.78574 -2.83974 0
M  V30 1469 H 137.61 2.99668 -5.82992 0
M  V30 1470 H 137.13 4.01683 -4.45433 0
M  V30 1471 H 138.809 4.04712 -5.04794 0
M  V30 1472 N 138.941 1.26152 0.944643 0
M  V30 1473 C 140.187 1.11657 1.69294 0
M  V30 1474 C 140.52 -0.339926 1.91202 0
M  V30 1475 O 139.795 -1.24994 1.49019 0
M  V30 1476 C 140.078 1.88236 3.06984 0
M  V30 1477 C 139.931 3.41772 2.92424 0
M  V30 1478 C 141.25 1.67343 4.07043 0
M  V30 1479 H 138.369 0.407004 0.614424 0
M  V30 1480 H 141.011 1.55106 1.09737 0
M  V30 1481 H 139.161 1.51308 3.57824 0
M  V30 1482 H 140.833 3.88433 2.48832 0
M  V30 1483 H 139.076 3.68974 2.28124 0
M  V30 1484 H 139.747 3.90579 3.90067 0
M  V30 1485 H 142.223 1.99509 3.65151 0
M  V30 1486 H 141.099 2.23346 5.01406 0
M  V30 1487 H 141.36 0.617158 4.37771 0
M  V30 1488 N 140.419 -1.14872 1.07899 0
M  V30 1489 C 141.668 -1.85135 0.800499 0
M  V30 1490 C 141.981 -1.83547 -0.676014 0
M  V30 1491 O 143.187 -2.49548 -1.06948 0
M  V30 1492 C 141.643 -3.3231 1.38197 0
M  V30 1493 C 141.251 -3.42329 2.8899 0
M  V30 1494 C 142.995 -4.0772 1.18174 0
M  V30 1495 C 140.902 -4.83684 3.403 0
M  V30 1496 H 139.832 -0.693563 0.29578 0
M  V30 1497 H 142.483 -1.29532 1.29976 0
M  V30 1498 H 140.865 -3.87618 0.810431 0
M  V30 1499 H 142.039 -2.97097 3.52236 0
M  V30 1500 H 140.354 -2.80369 3.07867 0
M  V30 1501 H 142.951 -5.12049 1.5398 0
M  V30 1502 H 143.294 -4.16124 0.12117 0
M  V30 1503 H 143.827 -3.58696 1.71994 0
M  V30 1504 H 140.566 -4.80465 4.45907 0
M  V30 1505 H 140.086 -5.29474 2.81811 0
M  V30 1506 H 141.765 -5.52558 3.36584 0
M  V30 1507 N 141.898 -0.863906 -1.31812 0
M  V30 1508 C 142.861 -0.320212 -2.26952 0
M  V30 1509 C 143.861 0.525369 -1.51975 0
M  V30 1510 O 145.051 0.335547 -1.70938 0
M  V30 1511 C 142.183 0.545919 -3.365 0
M  V30 1512 H 143.376 -1.16004 -2.76556 0
M  V30 1513 H 140.929 -0.638995 -1.42641 0
M  V30 1514 H 141.664 1.40718 -2.92179 0
M  V30 1515 H 141.449 -0.0594674 -3.92055 0
M  V30 1516 H 142.939 0.918796 -4.07367 0
M  V30 1517 N 143.376 1.44774 -0.622745 0
M  V30 1518 C 144.792 1.56986 -0.287652 0
M  V30 1519 C 144.992 1.61167 1.20944 0
M  V30 1520 O 144.048 1.55015 1.99315 0
M  V30 1521 C 145.361 2.84551 -0.972188 0
M  V30 1522 C 146.909 2.9825 -0.949536 0
M  V30 1523 C 147.384 4.28605 -1.61437 0
M  V30 1524 N 148.875 4.35399 -1.58057 0
M  V30 1525 C 149.61 5.34964 -2.064 0
M  V30 1526 N 149.106 6.40981 -2.62897 0
M  V30 1527 N 150.899 5.26419 -1.97078 0
M  V30 1528 H 143.05 1.40304 -1.59463 0
M  V30 1529 H 145.313 0.671794 -0.668878 0
M  V30 1530 H 145.019 2.87417 -2.02693 0
M  V30 1531 H 144.893 3.73807 -0.504771 0
M  V30 1532 H 147.28 2.94941 0.0967067 0
M  V30 1533 H 147.361 2.10364 -1.45536 0
M  V30 1534 H 147.005 4.32672 -2.66002 0
M  V30 1535 H 146.935 5.15334 -1.08344 0
M  V30 1536 H 149.426 3.59397 -1.16801 0
M  V30 1537 H 149.739 7.13225 -2.97539 0
M  V30 1538 H 148.084 6.4169 -2.66943 0
M  V30 1539 H 151.275 4.42504 -1.52669 0
M  V30 1540 H 151.448 6.03861 -2.35066 0
M  V30 1541 N 144.854 0.36279 1.53368 0
M  V30 1542 C 145.801 -0.485008 2.25646 0
M  V30 1543 C 146.771 -1.07982 1.2621 0
M  V30 1544 O 147.956 -1.11284 1.54986 0
M  V30 1545 C 145.096 -1.62023 3.04701 0
M  V30 1546 C 144.209 -1.05086 4.19024 0
M  V30 1547 C 143.344 -2.15496 4.85525 0
M  V30 1548 C 142.383 -1.5601 5.91884 0
M  V30 1549 N 141.52 -2.60241 6.52088 0
M  V30 1550 H 146.36 0.137864 2.97681 0
M  V30 1551 H 143.897 0.0798061 1.46883 0
M  V30 1552 H 145.855 -2.28887 3.48807 0
M  V30 1553 H 144.485 -2.2138 2.34927 0
M  V30 1554 H 143.537 -0.27259 3.79422 0
M  V30 1555 H 144.849 -0.575926 4.95464 0
M  V30 1556 H 144.003 -2.90186 5.32801 0
M  V30 1557 H 142.742 -2.66341 4.08551 0
M  V30 1558 H 141.747 -0.798338 5.43973 0
M  V30 1559 H 142.972 -1.05994 6.70777 0
M  V30 1560 H 140.918 -3.10304 5.77968 0
M  V30 1561 H 140.835 -2.17426 7.24059 0
M  V30 1562 H 142.103 -3.34641 7.04014 0
M  V30 1563 N 146.332 -1.57332 0.0918853 0
M  V30 1564 C 147.58 -1.93853 -0.571446 0
M  V30 1565 C 147.901 -0.974212 -1.6892 0
M  V30 1566 O 147.171 -0.0257254 -1.95883 0
M  V30 1567 H 145.751 -0.715666 -0.214082 0
M  V30 1568 H 148.413 -1.94287 0.154464 0
M  V30 1569 H 147.509 -2.96191 -0.983729 0
M  V30 1570 N 147.81 0.181792 -1.56548 0
M  V30 1571 C 149.087 0.926765 -1.72251 0
M  V30 1572 C 149.467 2.00831 -0.650386 0
M  V30 1573 O 148.815 2.26008 0.336521 0
M  V30 1574 C 149.025 1.50106 -3.1507 0
M  V30 1575 C 150.373 1.97805 -3.75711 0
M  V30 1576 O 151.397 1.59922 -3.18282 0
M  V30 1577 O 150.256 2.67555 -4.76525 0
M  V30 1578 H 147.35 0.435506 -0.703039 0
M  V30 1579 H 149.896 0.170443 -1.68842 0
M  V30 1580 H 148.668 0.72212 -3.84579 0
M  V30 1581 H 148.291 2.32186 -3.22763 0
M  V30 1582 N 149.288 1.51039 0.449983 0
M  V30 1583 C 150.235 1.71439 1.54523 0
M  V30 1584 C 151.205 0.555871 1.56522 0
M  V30 1585 O 152.39 0.788871 1.73728 0
M  V30 1586 C 149.53 1.83384 2.92343 0
M  V30 1587 C 148.643 3.10873 2.9997 0
M  V30 1588 C 147.778 3.13488 4.28834 0
M  V30 1589 C 146.817 4.35343 4.30282 0
M  V30 1590 N 145.954 4.35579 5.5065 0
M  V30 1591 H 150.794 2.64934 1.36433 0
M  V30 1592 H 148.331 1.31312 0.662982 0
M  V30 1593 H 150.289 1.88291 3.72293 0
M  V30 1594 H 148.919 0.933086 3.0902 0
M  V30 1595 H 147.971 3.15336 2.12761 0
M  V30 1596 H 149.283 4.00814 2.96901 0
M  V30 1597 H 148.437 3.17241 5.17149 0
M  V30 1598 H 147.176 2.21414 4.34543 0
M  V30 1599 H 146.181 4.3178 3.40362 0
M  V30 1600 H 147.406 5.28668 4.26248 0
M  V30 1601 H 145.352 3.46369 5.57104 0
M  V30 1602 H 145.269 5.19313 5.49409 0
M  V30 1603 H 146.537 4.43507 6.41032 0
M  V30 1604 N 150.766 -0.704594 1.40972 0
M  V30 1605 C 152.015 -1.46018 1.39146 0
M  V30 1606 C 152.328 -1.956 0.000589254 0
M  V30 1607 O 153.534 -2.71137 -0.1403 0
M  V30 1608 C 151.99 -2.63996 2.4461 0
M  V30 1609 C 151.598 -2.21238 3.89561 0
M  V30 1610 C 153.342 -3.41677 2.51907 0
M  V30 1611 C 151.249 -3.3612 4.86598 0
M  V30 1612 H 150.179 -0.548444 0.517422 0
M  V30 1613 H 152.83 -0.765784 1.66757 0
M  V30 1614 H 151.212 -3.3566 2.10115 0
M  V30 1615 H 152.386 -1.56923 4.33257 0
M  V30 1616 H 150.701 -1.56574 3.85841 0
M  V30 1617 H 153.298 -4.27182 3.2159 0
M  V30 1618 H 153.641 -3.86247 1.55303 0
M  V30 1619 H 154.174 -2.77064 2.85448 0
M  V30 1620 H 150.913 -2.96572 5.84573 0
M  V30 1621 H 150.433 -3.99315 4.47557 0
M  V30 1622 H 152.112 -4.02029 5.06934 0
M  V30 1623 N 152.244 -1.26651 -0.937939 0
M  V30 1624 C 153.472 -1.15173 -1.7188 0
M  V30 1625 C 153.887 0.292668 -1.86518 0
M  V30 1626 O 153.244 1.20014 -1.37488 0
M  V30 1627 C 153.295 -1.81925 -3.12387 0
M  V30 1628 O 153.016 -3.2072 -2.98446 0
M  V30 1629 C 154.517 -1.76442 -4.06673 0
M  V30 1630 H 151.737 -0.400911 -0.538063 0
M  V30 1631 H 154.281 -1.67332 -1.1756 0
M  V30 1632 H 152.436 -1.33696 -3.63599 0
M  V30 1633 H 152.85 -3.53802 -3.872 0
M  V30 1634 H 154.324 -2.27781 -5.02812 0
M  V30 1635 H 154.801 -0.731608 -4.33064 0
M  V30 1636 H 155.407 -2.24238 -3.61382 0
M  V30 1637 N 153.722 1.14298 -1.08507 0
M  V30 1638 C 155.133 1.66926 -0.836227 0
M  V30 1639 C 155.484 1.85576 0.63686 0
M  V30 1640 O 154.609 1.56767 1.49175 0
M  V30 1641 C 155.204 3.03219 -1.51142 0
M  V30 1642 C 153.763 3.52876 -1.30979 0
M  V30 1643 C 152.91 2.2833 -1.57356 0
M  V30 1644 H 155.861 0.983491 -1.24552 0
M  V30 1645 H 155.882 3.68726 -0.939211 0
M  V30 1646 H 155.394 2.89612 -2.58353 0
M  V30 1647 H 153.495 3.71703 -0.258429 0
M  V30 1648 H 153.608 4.33586 -2.03814 0
M  V30 1649 H 151.972 2.34454 -0.995164 0
M  V30 1650 H 152.755 2.17298 -2.65775 0
M  V30 1651 N 155.201 0.870884 1.31352 0
M  V30 1652 C 156.449 0.48132 1.96285 0
M  V30 1653 C 156.77 -0.969813 1.69173 0
M  V30 1654 O 156.04 -1.67998 1.00764 0
M  V30 1655 H 154.62 0.175002 0.726212 0
M  V30 1656 H 157.282 1.11087 1.60143 0
M  V30 1657 H 156.378 0.639825 3.05471 0
M  V30 1658 N 156.679 -1.44442 0.630414 0
M  V30 1659 C 157.904 -2.06927 0.139944 0
M  V30 1660 C 158.329 -1.46795 -1.17613 0
M  V30 1661 O 157.687 -0.569144 -1.72135 0
M  V30 1662 C 157.735 -3.6058 0.0379581 0
M  V30 1663 O 156.839 -3.99937 -1.0062 0
M  V30 1664 H 156.18 -0.658608 0.0844483 0
M  V30 1665 H 158.71 -1.85327 0.866891 0
M  V30 1666 H 158.72 -4.07714 -0.152856 0
M  V30 1667 H 157.395 -4.03728 0.998809 0
M  V30 1668 H 155.972 -3.64436 -0.79001 0
M  V30 1669 N 158.157 -0.370918 -1.53173 0
M  V30 1670 C 159.087 0.464847 -2.28826 0
M  V30 1671 C 160.068 1.07936 -1.31468 0
M  V30 1672 O 161.253 1.0956 -1.60344 0
M  V30 1673 C 158.383 1.60196 -3.08147 0
M  V30 1674 C 157.337 1.11443 -4.13237 0
M  V30 1675 C 156.663 2.3422 -4.80672 0
M  V30 1676 C 157.963 0.195384 -5.21934 0
M  V30 1677 H 159.657 -0.166329 -2.98938 0
M  V30 1678 H 157.203 -0.0814359 -1.4377 0
M  V30 1679 H 159.156 2.19332 -3.59822 0
M  V30 1680 H 157.88 2.26045 -2.35735 0
M  V30 1681 H 156.539 0.545727 -3.62515 0
M  V30 1682 H 156.187 2.98537 -4.04827 0
M  V30 1683 H 155.887 2.02269 -5.51689 0
M  V30 1684 H 157.411 2.94032 -5.35143 0
M  V30 1685 H 158.825 0.694375 -5.69079 0
M  V30 1686 H 157.222 -0.0335027 -6.00091 0
M  V30 1687 H 158.292 -0.760961 -4.78892 0
M  V30 1688 N 159.635 1.57281 -0.100228 0
M  V30 1689 C 160.881 1.94826 0.563101 0
M  V30 1690 C 161.214 0.982475 1.67514 0
M  V30 1691 O 160.489 0.0164069 1.94493 0
M  V30 1692 C 160.772 3.42453 1.11346 0
M  V30 1693 C 160.625 4.498 0.00612081 0
M  V30 1694 C 161.944 3.91506 2.01024 0
M  V30 1695 H 159.063 0.708428 0.203221 0
M  V30 1696 H 161.705 1.8922 -0.171979 0
M  V30 1697 H 159.855 3.47361 1.7399 0
M  V30 1698 H 161.527 4.57 -0.628357 0
M  V30 1699 H 159.77 4.28756 -0.659581 0
M  V30 1700 H 160.441 5.50306 0.432109 0
M  V30 1701 H 162.917 3.88784 1.48278 0
M  V30 1702 H 161.793 4.95358 2.36457 0
M  V30 1703 H 162.054 3.31099 2.92961 0
M  V30 1704 N 161.113 -0.173488 1.56642 0
M  V30 1705 C 162.023 -1.23482 1.99473 0
M  V30 1706 C 163.039 -1.48567 0.905752 0
M  V30 1707 O 164.215 -1.60758 1.21321 0
M  V30 1708 C 161.28 -2.55444 2.34413 0
M  V30 1709 C 160.341 -2.38241 3.57127 0
M  V30 1710 C 159.574 -3.63909 3.90392 0
M  V30 1711 O 159.797 -4.68996 3.24653 0
M  V30 1712 O 158.731 -3.58149 4.83749 0
M  V30 1713 H 162.557 -0.901279 2.90018 0
M  V30 1714 H 160.142 -0.380185 1.44482 0
M  V30 1715 H 162.024 -3.33292 2.57865 0
M  V30 1716 H 160.699 -2.88382 1.4703 0
M  V30 1717 H 159.606 -1.58431 3.38896 0
M  V30 1718 H 160.939 -2.10228 4.45045 0
M  V30 1719 N 162.591 -1.51276 -0.441967 0
M  V30 1720 C 163.84 -1.6295 -1.18871 0
M  V30 1721 C 164.153 -0.349312 -1.92456 0
M  V30 1722 O 165.359 -0.345355 -2.69295 0
M  V30 1723 C 163.815 -2.87759 -2.16155 0
M  V30 1724 C 163.423 -4.22764 -1.48239 0
M  V30 1725 C 165.167 -3.08788 -2.91291 0
M  V30 1726 C 163.074 -5.38728 -2.4398 0
M  V30 1727 H 162.004 -0.606913 -0.447406 0
M  V30 1728 H 164.655 -1.77739 -0.456205 0
M  V30 1729 H 163.037 -2.66593 -2.92821 0
M  V30 1730 H 164.211 -4.54293 -0.771635 0
M  V30 1731 H 162.526 -4.07575 -0.852741 0
M  V30 1732 H 165.123 -3.92599 -3.63002 0
M  V30 1733 H 165.466 -2.21679 -3.5237 0
M  V30 1734 H 165.999 -3.30272 -2.21733 0
M  V30 1735 H 162.738 -6.28082 -1.87598 0
M  V30 1736 H 162.258 -5.1158 -3.13123 0
M  V30 1737 H 163.937 -5.70489 -3.05207 0
M  V30 1738 N 164.069 0.697108 -1.41344 0
M  V30 1739 C 165.016 1.81106 -1.43071 0
M  V30 1740 C 165.986 1.63632 -0.285275 0
M  V30 1741 O 167.171 1.84504 -0.486091 0
M  V30 1742 C 164.311 3.18975 -1.31715 0
M  V30 1743 C 163.424 3.47892 -2.56115 0
M  V30 1744 C 162.559 4.75367 -2.37064 0
M  V30 1745 C 161.598 4.97247 -3.56948 0
M  V30 1746 N 160.735 6.15947 -3.36977 0
M  V30 1747 H 165.575 1.78965 -2.38276 0
M  V30 1748 H 163.112 0.873975 -1.18322 0
M  V30 1749 H 165.07 3.98615 -1.23133 0
M  V30 1750 H 163.7 3.20297 -0.401183 0
M  V30 1751 H 162.752 2.62669 -2.75153 0
M  V30 1752 H 164.064 3.59962 -3.45295 0
M  V30 1753 H 163.218 5.63059 -2.25941 0
M  V30 1754 H 161.957 4.65541 -1.45338 0
M  V30 1755 H 160.962 4.08004 -3.68527 0
M  V30 1756 H 162.187 5.08934 -4.49626 0
M  V30 1757 H 160.133 6.07336 -2.47949 0
M  V30 1758 H 160.05 6.28777 -4.19732 0
M  V30 1759 H 161.318 7.06377 -3.29623 0
M  V30 1760 N 165.547 1.27147 0.931209 0
M  V30 1761 C 166.963 1.04475 1.20653 0
M  V30 1762 C 167.163 -0.223885 2.00252 0
M  V30 1763 O 166.219 -0.930332 2.34736 0
M  V30 1764 C 167.532 2.28209 1.95809 0
M  V30 1765 C 169.08 2.33211 2.08762 0
M  V30 1766 C 169.555 3.56665 2.87323 0
M  V30 1767 N 171.046 3.57201 2.94892 0
M  V30 1768 C 171.781 4.49395 3.56134 0
M  V30 1769 N 171.277 5.51889 4.18796 0
M  V30 1770 N 173.07 4.37026 3.53504 0
M  V30 1771 H 165.221 2.08612 0.399333 0
M  V30 1772 H 167.484 0.917312 0.239253 0
M  V30 1773 H 167.19 3.20538 1.44736 0
M  V30 1774 H 167.064 2.33247 2.96438 0
M  V30 1775 H 169.451 1.41391 2.59023 0
M  V30 1776 H 169.532 2.32178 1.07364 0
M  V30 1777 H 169.176 4.4882 2.37746 0
M  V30 1778 H 169.106 3.54948 3.88998 0
M  V30 1779 H 171.597 2.83074 2.50354 0
M  V30 1780 H 171.91 6.18409 4.63454 0
M  V30 1781 H 170.255 5.55735 4.17353 0
M  V30 1782 H 173.446 3.56166 3.03749 0
M  V30 1783 H 173.619 5.09067 4.00942 0
M  V30 1784 N 167.025 -1.13721 1.09112 0
M  V30 1785 C 168.253 -1.88773 0.846899 0
M  V30 1786 C 168.668 -1.7896 -0.601572 0
M  V30 1787 O 168.025 -1.15394 -1.41388 0
M  V30 1788 C 168.076 -3.3849 1.26913 0
M  V30 1789 O 167.797 -3.48043 2.66079 0
M  V30 1790 C 169.298 -4.30518 1.05682 0
M  V30 1791 H 166.518 -0.59772 0.304914 0
M  V30 1792 H 169.062 -1.43977 1.45227 0
M  V30 1793 H 167.217 -3.80881 0.707723 0
M  V30 1794 H 167.631 -4.4109 2.83795 0
M  V30 1795 H 169.105 -5.3391 1.40156 0
M  V30 1796 H 169.582 -4.392 -0.00563416 0
M  V30 1797 H 170.188 -3.93893 1.60402 0
M  V30 1798 N 168.503 -0.877838 -1.30888 0
M  V30 1799 C 169.78 -0.413052 -1.91189 0
M  V30 1800 C 170.16 1.1056 -1.79832 0
M  V30 1801 O 169.508 1.93771 -1.21099 0
M  V30 1802 C 169.718 -0.903191 -3.3711 0
M  V30 1803 C 171.066 -0.93395 -4.14201 0
M  V30 1804 O 172.09 -0.849373 -3.45925 0
M  V30 1805 O 170.949 -1.05772 -5.36167 0
M  V30 1806 H 168.043 -0.125035 -0.817493 0
M  V30 1807 H 170.589 -0.966269 -1.39504 0
M  V30 1808 H 169.361 -1.94692 -3.39427 0
M  V30 1809 H 168.984 -0.328732 -3.96239 0
M  V30 1810 N 169.982 1.44106 -0.638065 0
M  V30 1811 C 171.228 2.02277 -0.145546 0
M  V30 1812 C 171.561 1.50125 1.23191 0
M  V30 1813 O 170.836 0.688133 1.8192 0
M  V30 1814 C 171.119 3.59829 -0.139791 0
M  V30 1815 C 170.972 4.22247 -1.55008 0
M  V30 1816 C 172.291 4.36873 0.531966 0
M  V30 1817 H 169.41 0.734992 -0.0543632 0
M  V30 1818 H 172.052 1.71592 -0.815863 0
M  V30 1819 H 170.202 3.86102 0.431007 0
M  V30 1820 H 171.874 4.07057 -2.1703 0
M  V30 1821 H 170.117 3.79476 -2.10191 0
M  V30 1822 H 170.788 5.31284 -1.49804 0
M  V30 1823 H 173.264 4.16074 0.0464781 0
M  V30 1824 H 172.14 5.4657 0.505206 0
M  V30 1825 H 172.401 4.11995 1.60352 0
M  V30 1826 N 171.46 0.379036 1.52974 0
M  V30 1827 C 172.37 -0.468639 2.29872 0
M  V30 1828 C 173.386 -1.08067 1.36373 0
M  V30 1829 O 174.562 -1.08871 1.69438 0
M  V30 1830 C 171.627 -1.58594 3.083 0
M  V30 1831 C 170.688 -1.00007 4.17489 0
M  V30 1832 C 169.921 -2.06413 4.92168 0
M  V30 1833 O 170.144 -3.27751 4.66835 0
M  V30 1834 O 169.078 -1.68717 5.7777 0
M  V30 1835 H 172.904 0.157508 3.03291 0
M  V30 1836 H 170.489 0.143035 1.48714 0
M  V30 1837 H 172.371 -2.23525 3.57232 0
M  V30 1838 H 171.046 -2.19724 2.37703 0
M  V30 1839 H 169.953 -0.314299 3.72777 0
M  V30 1840 H 171.286 -0.433135 4.90291 0
M  V30 1841 N 172.938 -1.57226 0.108567 0
M  V30 1842 C 174.186 -1.94448 -0.550853 0
M  V30 1843 C 174.507 -0.992074 -1.67878 0
M  V30 1844 O 173.777 -0.0465 -1.95845 0
M  V30 1845 H 172.357 -0.717897 -0.206479 0
M  V30 1846 H 175.019 -1.94112 0.175062 0
M  V30 1847 H 174.115 -2.97218 -0.952259 0
M  V30 1848 N 174.416 0.165178 -1.56732 0
M  V30 1849 C 175.364 1.22369 -1.97809 0
M  V30 1850 C 176.358 1.45488 -0.867741 0
M  V30 1851 O 177.564 1.45995 -1.05288 0
M  V30 1852 H 173.939 0.411486 -0.629431 0
M  V30 1853 H 175.91 0.850425 -2.86025 0
M  V30 1854 C 174.659 2.55403 -2.35934 0
M  V30 1855 H 173.982 2.38438 -3.20916 0
M  V30 1856 H 175.422 3.2814 -2.68514 0
M  V30 1857 C 173.881 3.14611 -1.20506 0
M  V30 1858 O 174.411 3.98626 -0.496016 0
M  V30 1859 N 172.617 2.7379 -0.97403 0
M  V30 1860 H 172.164 2.0557 -1.55238 0
M  V30 1861 H 172.122 3.1374 -0.203573 0
M  V30 1862 N 175.894 1.51508 0.433938 0
M  V30 1863 C 177.14 1.65549 1.18173 0
M  V30 1864 C 177.495 0.368751 1.88833 0
M  V30 1865 O 176.788 -0.635616 1.8075 0
M  V30 1866 C 176.982 2.79928 2.22205 0
M  V30 1867 C 176.811 4.19601 1.61756 0
M  V30 1868 C 175.581 4.85489 1.40101 0
M  V30 1869 C 177.779 5.02574 1.09194 0
M  V30 1870 N 175.761 6.09266 0.752859 0
M  V30 1871 C 177.132 6.17381 0.569255 0
M  V30 1872 C 179.187 4.88079 0.984025 0
M  V30 1873 C 177.89 7.19282 -0.0507472 0
M  V30 1874 C 179.916 5.90191 0.377912 0
M  V30 1875 C 179.278 7.04272 -0.134216 0
M  V30 1876 H 175.377 0.659653 0.419979 0
M  V30 1877 H 177.961 1.88746 0.477818 0
M  V30 1878 H 176.132 2.5839 2.89982 0
M  V30 1879 H 177.864 2.83132 2.89168 0
M  V30 1880 H 174.619 4.43417 1.66369 0
M  V30 1881 H 175.043 6.75528 0.446123 0
M  V30 1882 H 179.685 4.00131 1.36583 0
M  V30 1883 H 177.403 8.06876 -0.444676 0
M  V30 1884 H 180.989 5.81045 0.296269 0
M  V30 1885 H 179.869 7.81933 -0.59585 0
M  V30 1886 N 177.372 -0.689602 1.41712 0
M  V30 1887 C 178.335 -1.78521 1.43746 0
M  V30 1888 C 179.335 -1.57436 0.327191 0
M  V30 1889 O 180.525 -1.64 0.587348 0
M  V30 1890 C 177.657 -3.16971 1.25467 0
M  V30 1891 H 178.85 -1.78108 2.41283 0
M  V30 1892 H 176.403 -0.89781 1.27942 0
M  V30 1893 H 177.138 -3.23019 0.287948 0
M  V30 1894 H 176.923 -3.33678 2.05917 0
M  V30 1895 H 178.413 -3.96935 1.2974 0
M  V30 1896 N 178.85 -1.27639 -0.924453 0
M  V30 1897 C 179.78 -1.13166 -2.04244 0
M  V30 1898 C 180.761 -0.032256 -1.70069 0
M  V30 1899 O 181.946 -0.207328 -1.9309 0
M  V30 1900 C 179.076 -0.781496 -3.38393 0
M  V30 1901 C 178.03 -1.83449 -3.86692 0
M  V30 1902 C 177.356 -1.33822 -5.17683 0
M  V30 1903 C 178.656 -3.23917 -4.09726 0
M  V30 1904 H 180.35 -2.06689 -2.1661 0
M  V30 1905 H 177.896 -0.995136 -1.04082 0
M  V30 1906 H 179.849 -0.667057 -4.16087 0
M  V30 1907 H 178.573 0.189439 -3.2605 0
M  V30 1908 H 177.232 -1.93789 -3.11193 0
M  V30 1909 H 176.88 -0.35665 -5.01734 0
M  V30 1910 H 176.58 -2.04224 -5.50968 0
M  V30 1911 H 178.104 -1.23679 -5.97943 0
M  V30 1912 H 179.518 -3.16559 -4.77978 0
M  V30 1913 H 177.915 -3.92059 -4.54324 0
M  V30 1914 H 178.985 -3.68729 -3.14908 0
M  V30 1915 N 180.328 1.1314 -1.09713 0
M  V30 1916 C 181.556 1.88321 -0.856898 0
M  V30 1917 C 181.971 1.79276 0.592073 0
M  V30 1918 O 181.328 1.16142 1.40774 0
M  V30 1919 C 181.379 3.37812 -1.28706 0
M  V30 1920 O 181.1 3.46627 -2.67921 0
M  V30 1921 C 182.601 4.29952 -1.07964 0
M  V30 1922 H 179.821 0.596094 -0.308079 0
M  V30 1923 H 182.365 1.43205 -1.45988 0
M  V30 1924 H 180.52 3.805 -0.727912 0
M  V30 1925 H 180.934 4.39579 -2.8613 0
M  V30 1926 H 182.408 5.33159 -1.42986 0
M  V30 1927 H 182.885 4.39196 -0.0176577 0
M  V30 1928 H 183.491 3.93036 -1.62489 0
M  V30 1929 N 181.806 0.884767 1.30421 0
M  V30 1930 C 183.054 0.502112 1.95763 0
M  V30 1931 C 183.375 -0.951815 1.70192 0
M  V30 1932 O 182.645 -1.6692 1.0254 0
M  V30 1933 H 181.225 0.182694 0.724315 0
M  V30 1934 H 183.887 1.1278 1.58955 0
M  V30 1935 H 182.983 0.672188 3.04775 0
M  V30 1936 N 183.284 -1.43765 0.645699 0
M  V30 1937 C 184.532 -2.01499 0.155731 0
M  V30 1938 C 184.853 -1.51151 -1.232 0
M  V30 1939 O 184.123 -0.721044 -1.82148 0
M  V30 1940 H 182.703 -0.745003 0.0545817 0
M  V30 1941 H 185.365 -1.76075 0.835677 0
M  V30 1942 H 184.461 -3.1181 0.134577 0
M  V30 1943 N 184.763 -0.387143 -1.52771 0
M  V30 1944 C 185.696 0.493123 -2.22808 0
M  V30 1945 C 186.674 1.0658 -1.22798 0
M  V30 1946 O 187.858 1.11785 -1.51777 0
M  V30 1947 C 184.985 1.68238 -2.93962 0
M  V30 1948 C 184.031 1.23515 -4.08223 0
M  V30 1949 S 184.864 0.21848 -5.35054 0
M  V30 1950 C 186.02 1.41357 -6.09729 0
M  V30 1951 H 186.253 -0.101625 -2.97126 0
M  V30 1952 H 183.786 -0.171323 -1.53447 0
M  V30 1953 H 185.744 2.36443 -3.35567 0
M  V30 1954 H 184.405 2.24842 -2.19328 0
M  V30 1955 H 183.598 2.12304 -4.57103 0
M  V30 1956 H 183.2 0.632044 -3.68621 0
M  V30 1957 H 185.492 2.34101 -6.3577 0
M  V30 1958 H 186.435 0.965736 -7.01484 0
M  V30 1959 H 186.843 1.6294 -5.40473 0
M  V30 1960 N 186.241 1.57166 -0.116904 0
M  V30 1961 C 187.151 2.18745 0.847812 0
M  V30 1962 C 188.167 1.163 1.29423 0
M  V30 1963 O 189.343 1.48761 1.35765 0
M  V30 1964 C 186.408 2.77307 2.0809 0
M  V30 1965 C 185.469 3.94781 1.68661 0
M  V30 1966 C 184.702 4.50541 2.86091 0
M  V30 1967 O 184.925 4.05202 4.01456 0
M  V30 1968 O 183.859 5.41256 2.63298 0
M  V30 1969 H 187.685 3.01632 0.353778 0
M  V30 1970 H 185.27 1.49005 0.108599 0
M  V30 1971 H 187.152 3.14647 2.80313 0
M  V30 1972 H 185.827 1.97452 2.56504 0
M  V30 1973 H 184.734 3.62214 0.935518 0
M  V30 1974 H 186.067 4.76065 1.24991 0
M  V30 1975 N 187.719 -0.156864 1.56817 0
M  V30 1976 C 188.649 -1.19589 2.00551 0
M  V30 1977 C 189.63 -1.4536 0.883426 0
M  V30 1978 O 190.815 -1.56449 1.15054 0
M  V30 1979 C 187.945 -2.53143 2.37773 0
M  V30 1980 C 186.899 -2.41913 3.53075 0
M  V30 1981 C 186.225 -3.80088 3.76081 0
M  V30 1982 C 187.525 -1.91157 4.86062 0
M  V30 1983 H 189.219 -0.832293 2.87599 0
M  V30 1984 H 186.765 -0.398918 1.38364 0
M  V30 1985 H 188.718 -3.26047 2.66967 0
M  V30 1986 H 187.442 -2.91319 1.4765 0
M  V30 1987 H 186.101 -1.71462 3.24031 0
M  V30 1988 H 185.749 -4.15683 2.83225 0
M  V30 1989 H 185.449 -3.73439 4.53671 0
M  V30 1990 H 186.973 -4.54556 4.0769 0
M  V30 1991 H 188.387 -2.53846 5.14038 0
M  V30 1992 H 186.784 -1.95422 5.67389 0
M  V30 1993 H 187.854 -0.866673 4.77092 0
M  V30 1994 N 189.197 -1.51736 -0.425897 0
M  V30 1995 C 190.425 -1.68794 -1.1965 0
M  V30 1996 C 190.84 -0.390164 -1.84725 0
M  V30 1997 O 190.197 0.632376 -1.71194 0
M  V30 1998 C 190.248 -2.81174 -2.27208 0
M  V30 1999 O 189.969 -4.05925 -1.64793 0
M  V30 2000 C 191.47 -3.09599 -3.17275 0
M  V30 2001 H 188.69 -0.566128 -0.360194 0
M  V30 2002 H 191.234 -1.98211 -0.503249 0
M  V30 2003 H 189.389 -2.54324 -2.9223 0
M  V30 2004 H 189.803 -4.68423 -2.35967 0
M  V30 2005 H 191.277 -3.91786 -3.88854 0
M  V30 2006 H 191.754 -2.22468 -3.78688 0
M  V30 2007 H 192.36 -3.38151 -2.57941 0
M  V30 2008 N 190.675 0.682077 -1.42076 0
M  V30 2009 C 192.091 0.994324 -1.24841 0
M  V30 2010 C 192.291 2.0096 -0.147389 0
M  V30 2011 O 191.347 2.47822 0.483782 0
M  V30 2012 C 192.66 1.50607 -2.60265 0
M  V30 2013 C 194.208 1.62421 -2.6756 0
M  V30 2014 C 194.683 2.16994 -4.03333 0
M  V30 2015 N 196.174 2.24337 -4.0525 0
M  V30 2016 C 196.909 2.67621 -5.07116 0
M  V30 2017 N 196.405 3.1041 -6.19368 0
M  V30 2018 N 198.198 2.67305 -4.94474 0
M  V30 2019 H 190.349 0.00973908 -2.12398 0
M  V30 2020 H 192.612 0.0668593 -0.945639 0
M  V30 2021 H 192.318 0.834583 -3.41654 0
M  V30 2022 H 192.192 2.48602 -2.83684 0
M  V30 2023 H 194.579 2.28678 -1.86521 0
M  V30 2024 H 194.66 0.629352 -2.47937 0
M  V30 2025 H 194.304 1.51349 -4.84826 0
M  V30 2026 H 194.234 3.17258 -4.20304 0
M  V30 2027 H 196.725 1.94158 -3.24209 0
M  V30 2028 H 197.038 3.42103 -6.92954 0
M  V30 2029 H 195.383 3.08286 -6.22884 0
M  V30 2030 H 198.574 2.33233 -4.05857 0
M  V30 2031 H 198.747 3.00718 -5.73997 0
M  V30 2032 N 192.153 1.28127 0.917671 0
M  V30 2033 C 193.43 1.05761 1.64542 0
M  V30 2034 C 193.81 -0.404344 2.07191 0
M  V30 2035 O 193.158 -1.38963 1.81388 0
M  V30 2036 C 193.368 2.02857 2.83989 0
M  V30 2037 C 194.716 2.32786 3.551 0
M  V30 2038 O 195.74 2.0091 2.94132 0
M  V30 2039 O 194.599 2.87169 4.64969 0
M  V30 2040 H 191.693 0.403916 0.721652 0
M  V30 2041 H 194.239 1.39431 0.967322 0
M  V30 2042 H 193.011 3.01407 2.49538 0
M  V30 2043 H 192.634 1.69809 3.59514 0
M  V30 2044 N 193.631 -1.12557 1.10312 0
M  V30 2045 C 195.042 -1.65574 0.862678 0
M  V30 2046 C 195.393 -1.86566 -0.607256 0
M  V30 2047 O 194.518 -1.59121 -1.46662 0
M  V30 2048 C 195.113 -3.00776 1.55947 0
M  V30 2049 C 193.672 -3.50748 1.36576 0
M  V30 2050 C 192.819 -2.25797 1.60968 0
M  V30 2051 H 195.77 -0.963552 1.26101 0
M  V30 2052 H 195.791 -3.67185 0.997753 0
M  V30 2053 H 195.303 -2.85465 2.62928 0
M  V30 2054 H 193.404 -3.71245 0.317531 0
M  V30 2055 H 193.517 -4.30289 2.10686 0
M  V30 2056 H 191.881 -2.32841 1.03234 0
M  V30 2057 H 192.664 -2.13043 2.69198 0
M  V30 2058 N 195.109 -0.891671 -1.2995 0
M  V30 2059 C 196.337 -0.52866 -2.00032 0
M  V30 2060 C 196.752 0.884574 -1.66795 0
M  V30 2061 O 196.109 1.5827 -0.908669 0
M  V30 2062 C 196.16 -0.701814 -3.54622 0
M  V30 2063 O 195.881 -2.05942 -3.86678 0
M  V30 2064 C 197.382 -0.342683 -4.41973 0
M  V30 2065 H 194.602 -0.203659 -0.639347 0
M  V30 2066 H 197.146 -1.19881 -1.65677 0
M  V30 2067 H 195.301 -0.0789468 -3.8732 0
M  V30 2068 H 195.715 -2.08291 -4.81368 0
M  V30 2069 H 197.189 -0.514709 -5.49595 0
M  V30 2070 H 197.666 0.71975 -4.33262 0
M  V30 2071 H 198.272 -0.942154 -4.14733 0
M  V30 2072 N 196.587 1.43421 -0.653314 0
M  V30 2073 C 197.833 2.02111 -0.166992 0
M  V30 2074 C 198.166 1.51423 1.21592 0
M  V30 2075 O 197.441 0.707389 1.8118 0
M  V30 2076 C 197.724 3.5966 -0.177948 0
M  V30 2077 C 197.577 4.20579 -1.59478 0
M  V30 2078 C 198.896 4.37413 0.4856 0
M  V30 2079 H 196.015 0.734374 -0.0621557 0
M  V30 2080 H 198.657 1.70717 -0.834016 0
M  V30 2081 H 196.807 3.86537 0.390032 0
M  V30 2082 H 198.479 4.04732 -2.21336 0
M  V30 2083 H 196.722 3.77226 -2.14204 0
M  V30 2084 H 197.393 5.29665 -1.5543 0
M  V30 2085 H 199.869 4.161 0.00234528 0
M  V30 2086 H 198.745 5.47075 0.447207 0
M  V30 2087 H 199.006 4.13672 1.55974 0
M  V30 2088 N 198.065 0.39524 1.52563 0
M  V30 2089 C 199.476 -0.0774719 1.86539 0
M  V30 2090 C 199.827 -1.45641 1.31466 0
M  V30 2091 O 198.952 -2.06459 0.648367 0
M  V30 2092 C 199.547 -0.147356 3.38479 0
M  V30 2093 C 198.106 -0.564373 3.72145 0
M  V30 2094 C 197.253 0.269919 2.75983 0
M  V30 2095 H 200.204 0.612876 1.46388 0
M  V30 2096 H 200.225 -0.965343 3.68051 0
M  V30 2097 H 199.737 0.856387 3.78534 0
M  V30 2098 H 197.838 -1.57527 3.37663 0
M  V30 2099 H 197.951 -0.318402 4.78041 0
M  V30 2100 H 196.315 -0.265696 2.5331 0
M  V30 2101 H 197.098 1.27175 3.18875 0
M  V30 2102 N 199.544 -1.57102 0.125237 0
M  V30 2103 C 200.454 -2.19191 -0.8362 0
M  V30 2104 C 201.47 -1.16985 -1.28805 0
M  V30 2105 O 202.646 -1.49479 -1.34974 0
M  V30 2106 C 199.711 -2.78407 -2.06617 0
M  V30 2107 C 198.772 -3.9567 -1.66565 0
M  V30 2108 C 198.005 -4.52052 -2.83698 0
M  V30 2109 O 198.228 -4.07326 -3.99302 0
M  V30 2110 O 197.162 -5.42645 -2.60423 0
M  V30 2111 H 200.988 -3.01816 -0.337776 0
M  V30 2112 H 198.573 -1.4906 -0.100695 0
M  V30 2113 H 200.455 -3.16129 -2.7864 0
M  V30 2114 H 199.13 -1.9881 -2.55453 0
M  V30 2115 H 198.037 -3.62705 -0.916296 0
M  V30 2116 H 199.37 -4.76722 -1.22464 0
M  V30 2117 N 201.022 0.148545 -1.56898 0
M  V30 2118 C 201.972 1.1886 -1.94567 0
M  V30 2119 C 202.956 1.3863 -0.816735 0
M  V30 2120 O 204.148 1.40218 -1.08018 0
M  V30 2121 C 201.277 2.52262 -2.32849 0
M  V30 2122 C 200.363 2.36092 -3.52309 0
M  V30 2123 N 200.754 1.89674 -4.6889 0
M  V30 2124 C 199.052 2.66848 -3.57363 0
M  V30 2125 C 199.753 1.86511 -5.50989 0
M  V30 2126 N 198.729 2.29766 -4.92655 0
M  V30 2127 H 202.531 0.821793 -2.82177 0
M  V30 2128 H 200.045 0.356615 -1.58436 0
M  V30 2129 H 202.042 3.27447 -2.58039 0
M  V30 2130 H 200.702 2.89727 -1.46589 0
M  V30 2131 H 201.713 1.59663 -4.92674 0
M  V30 2132 H 198.39 3.08198 -2.81639 0
M  V30 2133 H 199.78 1.52128 -6.54452 0
M  V30 2134 N 202.5 1.5196 0.417844 0
M  V30 2135 C 203.463 1.74065 1.49111 0
M  V30 2136 C 204.463 0.610537 1.48758 0
M  V30 2137 O 205.653 0.87832 1.50437 0
M  V30 2138 C 202.785 1.81502 2.88565 0
M  V30 2139 H 203.978 2.69869 1.30807 0
M  V30 2140 H 201.531 1.42244 0.647785 0
M  V30 2141 H 202.266 0.875813 3.1225 0
M  V30 2142 H 202.051 2.63651 2.90225 0
M  V30 2143 H 203.541 2.00376 3.66387 0
M  V30 2144 N 203.978 -0.674533 1.42435 0
M  V30 2145 C 205.203 -1.46784 1.46524 0
M  V30 2146 C 205.628 -1.87938 0.078066 0
M  V30 2147 O 204.986 -1.56014 -0.92354 0
M  V30 2148 C 205.034 -2.69307 2.39805 0
M  V30 2149 O 204.138 -3.67587 1.86959 0
M  V30 2150 H 203.479 -0.440959 0.496439 0
M  V30 2151 H 206.009 -0.827326 1.87127 0
M  V30 2152 H 206.019 -3.17374 2.56393 0
M  V30 2153 H 204.694 -2.38692 3.40586 0
M  V30 2154 H 203.271 -3.2662 1.79927 0
M  V30 2155 N 205.456 -1.28612 -0.910864 0
M  V30 2156 C 206.386 -1.15326 -2.03032 0
M  V30 2157 C 207.367 -0.0502924 -1.70026 0
M  V30 2158 O 208.552 -0.227797 -1.92859 0
M  V30 2159 C 205.682 -0.817343 -3.37545 0
M  V30 2160 C 204.636 -1.8754 -3.84724 0
M  V30 2161 C 203.962 -1.39305 -5.16235 0
M  V30 2162 C 205.262 -3.28244 -4.06267 0
M  V30 2163 H 206.956 -2.08975 -2.14406 0
M  V30 2164 H 204.502 -1.00612 -1.03021 0
M  V30 2165 H 206.455 -0.711151 -4.15356 0
M  V30 2166 H 205.179 0.154846 -3.26233 0
M  V30 2167 H 203.838 -1.97079 -3.09121 0
M  V30 2168 H 203.486 -0.409846 -5.01328 0
M  V30 2169 H 203.186 -2.10057 -5.48771 0
M  V30 2170 H 204.71 -1.30014 -5.96598 0
M  V30 2171 H 206.124 -3.21611 -4.74594 0
M  V30 2172 H 204.521 -3.96855 -4.5014 0
M  V30 2173 H 205.591 -3.72048 -3.10979 0
M  V30 2174 N 206.934 1.1197 -1.10907 0
M  V30 2175 C 208.18 1.8386 -0.855773 0
M  V30 2176 C 208.513 1.84134 0.617103 0
M  V30 2177 O 207.788 1.29041 1.45529 0
M  V30 2178 C 208.071 3.31305 -1.411 0
M  V30 2179 C 207.924 3.39456 -2.9511 0
M  V30 2180 C 209.243 4.2721 -1.05736 0
M  V30 2181 H 206.362 0.667545 -0.312334 0
M  V30 2182 H 209.004 1.31331 -1.37303 0
M  V30 2183 H 207.154 3.76169 -0.97105 0
M  V30 2184 H 208.826 3.03191 -3.47668 0
M  V30 2185 H 207.069 2.79849 -3.31462 0
M  V30 2186 H 207.74 4.43209 -3.29044 0
M  V30 2187 H 210.216 3.90497 -1.43706 0
M  V30 2188 H 209.092 5.28775 -1.47269 0
M  V30 2189 H 209.353 4.42088 0.0325958 0
M  V30 2190 N 208.412 0.89855 1.29475 0
M  V30 2191 C 209.66 0.522847 1.9522 0
M  V30 2192 C 209.981 -0.93371 1.71192 0
M  V30 2193 O 209.251 -1.65823 1.04305 0
M  V30 2194 H 207.831 0.190366 0.722336 0
M  V30 2195 H 210.493 1.14459 1.5775 0
M  V30 2196 H 209.589 0.704476 3.04045 0
M  V30 2197 N 209.89 -1.43072 0.660911 0
M  V30 2198 C 210.82 -2.33497 -0.0122829 0
M  V30 2199 C 211.801 -1.49903 -0.803925 0
M  V30 2200 O 212.986 -1.78546 -0.763864 0
M  V30 2201 C 210.116 -3.33363 -0.973994 0
M  V30 2202 C 209.07 -4.27003 -0.291928 0
M  V30 2203 C 208.396 -5.16967 -1.36562 0
M  V30 2204 C 209.696 -5.15816 0.820462 0
M  V30 2205 H 211.39 -2.90038 0.742873 0
M  V30 2206 H 208.936 -1.39461 0.358688 0
M  V30 2207 H 210.889 -3.95524 -1.45392 0
M  V30 2208 H 209.613 -2.75095 -1.7604 0
M  V30 2209 H 208.272 -3.66217 0.167623 0
M  V30 2210 H 207.92 -4.55034 -2.14366 0
M  V30 2211 H 207.62 -5.80441 -0.914454 0
M  V30 2212 H 209.144 -5.82003 -1.84675 0
M  V30 2213 H 210.558 -5.71742 0.422366 0
M  V30 2214 H 208.955 -5.8805 1.19656 0
M  V30 2215 H 210.025 -4.55045 1.67518 0
M  V30 2216 N 211.368 -0.403325 -1.52352 0
M  V30 2217 C 212.298 0.416205 -2.29761 0
M  V30 2218 C 213.279 1.05123 -1.33728 0
M  V30 2219 O 214.464 1.06134 -1.62632 0
M  V30 2220 C 211.594 1.53624 -3.11475 0
M  V30 2221 C 210.548 1.02653 -4.15507 0
M  V30 2222 C 209.874 2.23971 -4.85532 0
M  V30 2223 C 211.174 0.08463 -5.22231 0
M  V30 2224 H 212.868 -0.229701 -2.98518 0
M  V30 2225 H 210.414 -0.111913 -1.43564 0
M  V30 2226 H 212.367 2.1165 -3.64393 0
M  V30 2227 H 211.091 2.20994 -2.40477 0
M  V30 2228 H 209.75 0.46871 -3.63591 0
M  V30 2229 H 209.398 2.89883 -4.11068 0
M  V30 2230 H 209.098 1.90521 -5.55856 0
M  V30 2231 H 210.622 2.82614 -5.41259 0
M  V30 2232 H 212.036 0.573509 -5.70424 0
M  V30 2233 H 210.433 -0.160783 -5.99885 0
M  V30 2234 H 211.503 -0.86237 -4.7717 0
M  V30 2235 N 212.846 1.57033 -0.133567 0
M  V30 2236 C 213.776 2.1909 0.807567 0
M  V30 2237 C 214.757 1.13517 1.26681 0
M  V30 2238 O 215.942 1.41809 1.32679 0
M  V30 2239 C 213.072 2.80188 2.05212 0
M  V30 2240 C 212.026 3.91471 1.73015 0
M  V30 2241 C 211.352 4.39443 3.04622 0
M  V30 2242 C 212.652 5.12886 0.987168 0
M  V30 2243 H 214.346 2.97988 0.290403 0
M  V30 2244 H 211.892 1.43335 0.138239 0
M  V30 2245 H 213.845 3.22264 2.71521 0
M  V30 2246 H 212.569 1.98601 2.59278 0
M  V30 2247 H 211.228 3.49993 1.0909 0
M  V30 2248 H 210.876 3.54695 3.56651 0
M  V30 2249 H 210.576 5.14495 2.83847 0
M  V30 2250 H 212.1 4.8418 3.72024 0
M  V30 2251 H 213.514 5.51891 1.55208 0
M  V30 2252 H 211.911 5.93615 0.87985 0
M  V30 2253 H 212.981 4.84894 -0.0235286 0
M  V30 2254 N 214.325 -0.140222 1.56975 0
M  V30 2255 C 215.55 -0.870414 1.88251 0
M  V30 2256 C 215.975 -1.73637 0.723312 0
M  V30 2257 O 215.333 -1.78329 -0.32689 0
M  V30 2258 C 215.381 -1.69737 3.18154 0
M  V30 2259 O 214.485 -2.80229 3.02565 0
M  V30 2260 H 213.826 -0.242025 0.61832 0
M  V30 2261 H 216.356 -0.128999 2.04193 0
M  V30 2262 H 216.366 -2.09099 3.50345 0
M  V30 2263 H 215.041 -1.06152 4.02125 0
M  V30 2264 H 213.618 -2.44224 2.81796 0
M  V30 2265 N 215.803 -1.52179 -0.40978 0
M  V30 2266 C 216.733 -1.78435 -1.5061 0
M  V30 2267 C 217.714 -0.635295 -1.57791 0
M  V30 2268 O 218.899 -0.880823 -1.73076 0
M  V30 2269 C 216.029 -1.93444 -2.88439 0
M  V30 2270 C 214.983 -3.09038 -2.96108 0
M  V30 2271 C 214.309 -3.09268 -4.36185 0
M  V30 2272 C 215.609 -4.48508 -2.67652 0
M  V30 2273 H 217.303 -2.70237 -1.28889 0
M  V30 2274 H 214.849 -1.30036 -0.618605 0
M  V30 2275 H 216.802 -2.10394 -3.65119 0
M  V30 2276 H 215.526 -0.983129 -3.11452 0
M  V30 2277 H 214.185 -2.91837 -2.21872 0
M  V30 2278 H 213.833 -2.11861 -4.56206 0
M  V30 2279 H 213.533 -3.86907 -4.42241 0
M  V30 2280 H 215.057 -3.28348 -5.14801 0
M  V30 2281 H 216.471 -4.65918 -3.34056 0
M  V30 2282 H 214.868 -5.28059 -2.85085 0
M  V30 2283 H 215.938 -4.56649 -1.63095 0
M  V30 2284 N 217.281 0.66697 -1.42791 0
M  V30 2285 C 218.511 1.45294 -1.46878 0
M  V30 2286 C 218.919 1.89027 -0.0809861 0
M  V30 2287 O 218.262 1.59219 0.916246 0
M  V30 2288 C 218.324 2.72908 -2.34012 0
M  V30 2289 C 217.988 2.51203 -3.81767 0
M  V30 2290 C 218.985 2.15302 -4.73224 0
M  V30 2291 C 216.67 2.65954 -4.26115 0
M  V30 2292 C 218.664 1.94431 -6.07022 0
M  V30 2293 C 216.351 2.44699 -5.59969 0
M  V30 2294 C 217.349 2.08992 -6.5024 0
M  V30 2295 O 217.037 1.87948 -7.81621 0
M  V30 2296 H 216.769 0.453306 -0.501487 0
M  V30 2297 H 219.323 0.826232 -1.88049 0
M  V30 2298 H 217.553 3.38089 -1.87703 0
M  V30 2299 H 219.242 3.34816 -2.29462 0
M  V30 2300 H 220.008 2.03495 -4.40244 0
M  V30 2301 H 215.887 2.92724 -3.56137 0
M  V30 2302 H 219.431 1.66484 -6.77443 0
M  V30 2303 H 215.328 2.56105 -5.9252 0
M  V30 2304 H 216.096 2.02483 -7.93059 0
M  V30 2305 N 218.759 1.29093 0.90403 0
M  V30 2306 C 220.175 1.07011 1.1841 0
M  V30 2307 C 220.375 -0.181358 2.00682 0
M  V30 2308 O 219.431 -0.880331 2.36657 0
M  V30 2309 C 220.744 2.32311 1.90924 0
M  V30 2310 C 222.292 2.37587 2.03768 0
M  V30 2311 C 222.767 3.62679 2.79693 0
M  V30 2312 N 224.258 3.63376 2.87249 0
M  V30 2313 C 224.993 4.56848 3.46522 0
M  V30 2314 N 224.489 5.60648 4.06996 0
M  V30 2315 N 226.282 4.44426 3.44154 0
M  V30 2316 H 218.433 2.09412 0.354993 0
M  V30 2317 H 220.696 0.922181 0.219742 0
M  V30 2318 H 220.402 3.23536 1.37905 0
M  V30 2319 H 220.276 2.39483 2.91424 0
M  V30 2320 H 222.663 1.46853 2.55965 0
M  V30 2321 H 222.744 2.34403 1.02415 0
M  V30 2322 H 222.388 4.53762 2.28173 0
M  V30 2323 H 222.318 3.63119 3.81381 0
M  V30 2324 H 224.809 2.88321 2.44293 0
M  V30 2325 H 225.122 6.28101 4.50232 0
M  V30 2326 H 223.467 5.64463 4.05471 0
M  V30 2327 H 226.658 3.62529 2.96126 0
M  V30 2328 H 226.831 5.17457 3.90054 0
M  V30 2329 N 220.237 -1.11381 1.11499 0
M  V30 2330 C 221.167 -2.19509 0.796125 0
M  V30 2331 C 222.148 -1.68458 -0.235796 0
M  V30 2332 O 223.333 -1.93947 -0.0991344 0
M  V30 2333 C 220.463 -3.46475 0.239205 0
M  V30 2334 C 219.417 -4.10744 1.20307 0
M  V30 2335 C 218.743 -5.32293 0.50683 0
M  V30 2336 C 220.043 -4.55597 2.55399 0
M  V30 2337 H 221.737 -2.46439 1.70024 0
M  V30 2338 H 219.283 -1.18446 0.818935 0
M  V30 2339 H 221.236 -4.214 0.00392006 0
M  V30 2340 H 219.96 -3.19006 -0.700206 0
M  V30 2341 H 218.619 -3.37813 1.42399 0
M  V30 2342 H 218.267 -5.01095 -0.437408 0
M  V30 2343 H 217.967 -5.76243 1.1497 0
M  V30 2344 H 219.491 -6.09956 0.280351 0
M  V30 2345 H 220.905 -5.21841 2.37391 0
M  V30 2346 H 219.302 -5.10363 3.15673 0
M  V30 2347 H 220.372 -3.69013 3.14575 0
M  V30 2348 N 221.715 -0.905404 -1.28997 0
M  V30 2349 C 222.94 -0.549175 -1.99997 0
M  V30 2350 C 223.365 0.860276 -1.67275 0
M  V30 2351 O 222.723 1.57355 -0.900502 0
M  V30 2352 C 222.771 -0.755185 -3.52604 0
M  V30 2353 O 221.875 0.189692 -4.11964 0
M  V30 2354 H 221.216 -0.213899 -0.628604 0
M  V30 2355 H 223.746 -1.21856 -1.64354 0
M  V30 2356 H 223.756 -0.662045 -4.02593 0
M  V30 2357 H 222.431 -1.78271 -3.75755 0
M  V30 2358 H 221.008 0.0485257 -3.72868 0
M  V30 2359 N 223.193 1.4272 -0.668489 0
M  V30 2360 C 224.14 2.30796 0.0137489 0
M  V30 2361 C 225.11 1.4561 0.799177 0
M  V30 2362 O 226.295 1.74453 0.772702 0
M  V30 2363 C 223.435 3.31377 0.963507 0
M  V30 2364 C 222.548 4.31655 0.172569 0
M  V30 2365 C 221.683 5.19312 1.1175 0
M  V30 2366 C 220.722 6.11274 0.317886 0
M  V30 2367 N 219.859 6.91504 1.2152 0
M  V30 2368 H 224.699 2.88585 -0.743161 0
M  V30 2369 H 222.236 1.42154 -0.378226 0
M  V30 2370 H 224.194 3.88214 1.52792 0
M  V30 2371 H 222.824 2.75202 1.68712 0
M  V30 2372 H 221.876 3.76988 -0.508374 0
M  V30 2373 H 223.188 4.96779 -0.448527 0
M  V30 2374 H 222.342 5.80851 1.75206 0
M  V30 2375 H 221.081 4.5435 1.77249 0
M  V30 2376 H 220.086 5.48809 -0.329918 0
M  V30 2377 H 221.311 6.78283 -0.332917 0
M  V30 2378 H 219.257 6.29176 1.85671 0
M  V30 2379 H 219.174 7.53209 0.649036 0
M  V30 2380 H 220.442 7.57535 1.83742 0
M  V30 2381 N 224.671 0.411399 1.52136 0
M  V30 2382 C 225.92 -0.165009 2.01024 0
M  V30 2383 C 226.233 -1.4603 1.30133 0
M  V30 2384 O 227.439 -2.1181 1.69849 0
M  V30 2385 C 225.895 -0.344618 3.58246 0
M  V30 2386 C 225.503 0.938716 4.38055 0
M  V30 2387 C 227.247 -0.876195 4.15359 0
M  V30 2388 C 225.154 0.726172 5.86925 0
M  V30 2389 H 224.084 -0.0654407 0.751155 0
M  V30 2390 H 226.735 0.537192 1.75461 0
M  V30 2391 H 225.117 -1.10921 3.80148 0
M  V30 2392 H 226.291 1.70963 4.27912 0
M  V30 2393 H 224.606 1.39688 3.92271 0
M  V30 2394 H 227.203 -1.05128 5.24263 0
M  V30 2395 H 227.546 -1.85152 3.7286 0
M  V30 2396 H 228.079 -0.170607 3.97434 0
M  V30 2397 H 224.818 1.67312 6.33788 0
M  V30 2398 H 224.338 -0.00540283 5.998 0
M  V30 2399 H 226.017 0.369231 6.45946 0
M  V30 2400 N 226.149 -1.5696 0.141893 0
M  V30 2401 C 227.374 -2.00754 -0.520838 0
M  V30 2402 C 227.799 -1.0213 -1.57959 0
M  V30 2403 O 227.157 0.00371324 -1.813 0
M  V30 2404 C 227.205 -3.43318 -1.10294 0
M  V30 2405 O 226.309 -3.47679 -2.21795 0
M  V30 2406 H 225.65 -0.651564 -0.127908 0
M  V30 2407 H 228.18 -2.03221 0.23712 0
M  V30 2408 H 228.19 -3.82012 -1.43287 0
M  V30 2409 H 226.865 -4.14608 -0.327574 0
M  V30 2410 H 225.442 -3.20824 -1.9007 0
M  V30 2411 N 227.627 0.131896 -1.57047 0
M  V30 2412 C 228.875 0.840269 -1.83804 0
M  V30 2413 C 229.196 1.81017 -0.72512 0
M  V30 2414 O 228.466 1.94272 0.251995 0
M  V30 2415 H 227.046 0.313294 -0.678127 0
M  V30 2416 H 229.708 0.122294 -1.94516 0
M  V30 2417 H 228.804 1.39335 -2.79271 0
M  V30 2418 N 229.106 1.52395 0.401703 0
M  V30 2419 C 230.038 1.72505 1.50912 0
M  V30 2420 C 231.051 0.605468 1.51122 0
M  V30 2421 O 232.24 0.880828 1.55254 0
M  V30 2422 C 229.34 1.75711 2.89791 0
M  V30 2423 C 228.513 3.04824 3.1369 0
M  V30 2424 C 227.572 2.99743 4.32482 0
M  V30 2425 O 226.598 3.73635 4.29402 0
M  V30 2426 N 227.8 2.18047 5.37992 0
M  V30 2427 H 230.565 2.68049 1.34052 0
M  V30 2428 H 228.126 1.50724 0.591084 0
M  V30 2429 H 230.118 1.69834 3.6734 0
M  V30 2430 H 228.688 0.876092 3.00072 0
M  V30 2431 H 227.908 3.2429 2.24119 0
M  V30 2432 H 229.196 3.90221 3.26504 0
M  V30 2433 H 228.594 1.57456 5.43345 0
M  V30 2434 H 227.151 2.18021 6.14256 0
M  V30 2435 N 230.584 -0.659388 1.43143 0
M  V30 2436 C 231.809 -1.45221 1.48073 0
M  V30 2437 C 232.234 -1.87845 0.097995 0
M  V30 2438 O 231.592 -1.56985 -0.90694 0
M  V30 2439 C 231.64 -2.66748 2.42647 0
M  V30 2440 O 230.744 -3.65583 1.90848 0
M  V30 2441 H 230.085 -0.435669 0.501088 0
M  V30 2442 H 232.615 -0.807432 1.87994 0
M  V30 2443 H 232.625 -3.14637 2.59745 0
M  V30 2444 H 231.3 -2.35067 3.43098 0
M  V30 2445 H 229.877 -3.24693 1.83381 0
M  V30 2446 N 232.062 -1.29571 -0.897171 0
M  V30 2447 C 233.29 -1.20583 -1.68129 0
M  V30 2448 C 233.705 0.233181 -1.87354 0
M  V30 2449 O 233.062 1.15579 -1.41236 0
M  V30 2450 C 233.113 -1.91772 -3.06441 0
M  V30 2451 O 232.834 -3.30053 -2.88091 0
M  V30 2452 C 234.335 -1.89291 -4.00854 0
M  V30 2453 H 231.555 -0.417826 -0.525036 0
M  V30 2454 H 234.099 -1.70987 -1.12177 0
M  V30 2455 H 232.254 -1.45196 -3.59161 0
M  V30 2456 H 232.668 -3.65942 -3.75748 0
M  V30 2457 H 234.142 -2.43662 -4.95311 0
M  V30 2458 H 234.619 -0.869014 -4.30517 0
M  V30 2459 H 235.225 -2.35622 -3.54066 0
M  V30 2460 N 233.54 1.10788 -1.12088 0
M  V30 2461 C 234.788 1.8231 -0.872205 0
M  V30 2462 C 235.109 1.85419 0.603709 0
M  V30 2463 O 234.379 1.32963 1.43867 0
M  V30 2464 H 232.959 0.675137 -0.319686 0
M  V30 2465 H 235.621 1.34068 -1.41463 0
M  V30 2466 H 234.717 2.85955 -1.25045 0
M  V30 2467 N 235.018 0.912232 1.28515 0
M  V30 2468 C 235.966 0.389597 2.29314 0
M  V30 2469 C 236.96 -0.517915 1.61289 0
M  V30 2470 O 238.166 -0.399328 1.75515 0
M  V30 2471 H 234.541 0.107386 0.744293 0
M  V30 2472 H 236.512 1.25286 2.70825 0
M  V30 2473 C 235.261 -0.356496 3.45868 0
M  V30 2474 H 234.584 0.332608 3.98414 0
M  V30 2475 H 236.024 -0.686851 4.184 0
M  V30 2476 C 234.483 -1.56383 2.98406 0
M  V30 2477 O 235.013 -2.66294 3.00749 0
M  V30 2478 N 233.219 -1.41029 2.54085 0
M  V30 2479 H 232.766 -0.516089 2.52377 0
M  V30 2480 H 232.724 -2.21939 2.22689 0
M  V30 2481 N 236.496 -1.42363 0.676048 0
M  V30 2482 C 237.726 -2.05561 0.206967 0
M  V30 2483 C 238.134 -1.50887 -1.14148 0
M  V30 2484 O 237.477 -0.643933 -1.72044 0
M  V30 2485 C 237.539 -3.5944 0.0659508 0
M  V30 2486 C 237.203 -4.36812 1.34331 0
M  V30 2487 C 238.2 -4.67383 2.27704 0
M  V30 2488 C 235.885 -4.76429 1.59125 0
M  V30 2489 C 237.879 -5.36509 3.44147 0
M  V30 2490 C 235.566 -5.45294 2.75857 0
M  V30 2491 C 236.564 -5.75259 3.68193 0
M  V30 2492 O 236.252 -6.42712 4.82883 0
M  V30 2493 H 235.984 -0.668872 0.0979084 0
M  V30 2494 H 238.538 -1.83467 0.923531 0
M  V30 2495 H 236.768 -3.80197 -0.706204 0
M  V30 2496 H 238.457 -4.0427 -0.363418 0
M  V30 2497 H 239.223 -4.37275 2.09799 0
M  V30 2498 H 235.102 -4.52498 0.881258 0
M  V30 2499 H 238.646 -5.59814 4.16238 0
M  V30 2500 H 234.543 -5.7482 2.93688 0
M  V30 2501 H 235.311 -6.61204 4.82444 0
M  V30 2502 N 237.974 -0.419461 -1.51915 0
M  V30 2503 C 238.921 0.400927 -2.27291 0
M  V30 2504 C 239.891 1.03224 -1.30131 0
M  V30 2505 O 241.076 1.05455 -1.59009 0
M  V30 2506 C 238.216 1.50603 -3.10504 0
M  V30 2507 C 237.329 0.89462 -4.22635 0
M  V30 2508 C 236.464 1.97328 -4.93189 0
M  V30 2509 C 235.503 1.33935 -5.97267 0
M  V30 2510 N 234.64 2.3586 -6.61298 0
M  V30 2511 H 239.48 -0.248251 -2.96964 0
M  V30 2512 H 237.017 -0.134266 -1.46486 0
M  V30 2513 H 238.975 2.15783 -3.57062 0
M  V30 2514 H 237.605 2.12509 -2.42981 0
M  V30 2515 H 236.657 0.131583 -3.80172 0
M  V30 2516 H 237.969 0.391641 -4.9726 0
M  V30 2517 H 237.123 2.70211 -5.43204 0
M  V30 2518 H 235.862 2.50994 -4.18155 0
M  V30 2519 H 234.867 0.595896 -5.46561 0
M  V30 2520 H 236.092 0.810252 -6.74249 0
M  V30 2521 H 234.038 2.88639 -5.89087 0
M  V30 2522 H 233.955 1.90403 -7.3163 0
M  V30 2523 H 235.223 3.08282 -7.15949 0
M  V30 2524 N 239.452 1.56882 -0.150215 0
M  V30 2525 C 240.68 2.00593 0.506948 0
M  V30 2526 C 241.095 1.03033 1.58208 0
M  V30 2527 O 240.452 0.0278396 1.82479 0
M  V30 2528 C 240.503 3.44209 1.10465 0
M  V30 2529 O 240.224 4.3804 0.0724636 0
M  V30 2530 C 241.725 4.03214 1.84211 0
M  V30 2531 H 238.945 0.65795 0.13169 0
M  V30 2532 H 241.489 2.03018 -0.245743 0
M  V30 2533 H 239.644 3.42625 1.80795 0
M  V30 2534 H 240.058 5.22007 0.510793 0
M  V30 2535 H 241.532 5.0569 2.21318 0
M  V30 2536 H 242.009 3.44107 2.72923 0
M  V30 2537 H 242.615 4.08437 1.18572 0
M  V30 2538 N 240.93 -0.123565 1.57115 0
M  V30 2539 C 241.878 -1.17082 2.00984 0
M  V30 2540 C 242.872 -1.43136 0.906009 0
M  V30 2541 O 244.078 -1.43152 1.09121 0
M  V30 2542 H 240.453 -0.394653 0.64012 0
M  V30 2543 H 242.424 -0.774292 2.88179 0
M  V30 2544 C 241.173 -2.49057 2.42623 0
M  V30 2545 H 240.496 -2.29846 3.27125 0
M  V30 2546 H 241.936 -3.20906 2.7712 0
M  V30 2547 C 240.395 -3.11305 1.28805 0
M  V30 2548 O 240.925 -3.97171 0.60153 0
M  V30 2549 N 239.131 -2.71111 1.04628 0
M  V30 2550 H 238.678 -2.01382 1.60634 0
M  V30 2551 H 238.636 -3.1309 0.286685 0
M  V30 2552 N 242.408 -1.52605 -0.393616 0
M  V30 2553 C 243.657 -1.66649 -1.13627 0
M  V30 2554 C 243.97 -0.410364 -1.91247 0
M  V30 2555 O 245.176 -0.430854 -2.68059 0
M  V30 2556 C 243.632 -2.9449 -2.06891 0
M  V30 2557 C 243.24 -4.27266 -1.34714 0
M  V30 2558 C 244.984 -3.17899 -2.81319 0
M  V30 2559 C 242.891 -5.46217 -2.26717 0
M  V30 2560 H 241.821 -0.62084 -0.427871 0
M  V30 2561 H 244.472 -1.791 -0.399428 0
M  V30 2562 H 242.854 -2.75774 -2.84191 0
M  V30 2563 H 244.028 -4.56518 -0.626714 0
M  V30 2564 H 242.343 -4.10081 -0.722643 0
M  V30 2565 H 244.94 -4.03949 -3.50328 0
M  V30 2566 H 245.283 -2.32777 -3.45139 0
M  V30 2567 H 245.816 -3.37159 -2.11113 0
M  V30 2568 H 242.555 -6.33733 -1.67521 0
M  V30 2569 H 242.075 -5.21283 -2.96689 0
M  V30 2570 H 243.754 -5.7991 -2.86903 0
M  V30 2571 N 243.887 0.651787 -1.4349 0
M  V30 2572 C 244.85 1.74647 -1.48429 0
M  V30 2573 C 245.85 1.56513 -0.368817 0
M  V30 2574 O 247.04 1.62385 -0.630623 0
M  V30 2575 C 244.172 3.13533 -1.33827 0
M  V30 2576 H 245.365 1.71649 -2.4592 0
M  V30 2577 H 242.918 0.863573 -1.30277 0
M  V30 2578 H 243.653 3.22142 -0.37349 0
M  V30 2579 H 243.438 3.28101 -2.14691 0
M  V30 2580 H 244.928 3.93356 -1.40218 0
M  V30 2581 N 245.365 1.30045 0.890287 0
M  V30 2582 C 246.642 1.09227 1.62262 0
M  V30 2583 C 247.022 -0.360305 2.08002 0
M  V30 2584 O 246.37 -1.35084 1.84295 0
M  V30 2585 C 246.58 2.08835 2.79623 0
M  V30 2586 C 247.928 2.40266 3.50082 0
M  V30 2587 O 248.952 2.07104 2.89804 0
M  V30 2588 O 247.811 2.96967 4.58773 0
M  V30 2589 H 244.905 0.419132 0.712922 0
M  V30 2590 H 247.451 1.41451 0.937529 0
M  V30 2591 H 246.223 3.06633 2.43089 0
M  V30 2592 H 245.846 1.77397 3.55832 0
M  V30 2593 N 246.843 -1.10192 1.12674 0
M  V30 2594 C 248.259 -1.34235 0.863317 0
M  V30 2595 C 248.459 -1.95062 -0.505277 0
M  V30 2596 O 247.515 -2.19192 -1.25345 0
M  V30 2597 C 248.828 -2.2616 1.98172 0
M  V30 2598 C 250.376 -2.3969 2.0129 0
M  V30 2599 C 250.851 -3.34946 3.1237 0
M  V30 2600 N 252.342 -3.42515 3.11829 0
M  V30 2601 C 253.077 -4.16199 3.94419 0
M  V30 2602 N 252.573 -4.92747 4.87004 0
M  V30 2603 N 254.366 -4.11843 3.82547 0
M  V30 2604 H 246.517 -0.690798 2.00853 0
M  V30 2605 H 248.78 -0.366774 0.874174 0
M  V30 2606 H 248.486 -1.8868 2.96804 0
M  V30 2607 H 248.36 -3.26488 1.88906 0
M  V30 2608 H 250.747 -2.76438 1.03276 0
M  V30 2609 H 250.828 -1.39169 2.14629 0
M  V30 2610 H 250.472 -2.98923 4.10619 0
M  V30 2611 H 250.402 -4.35353 2.96269 0
M  V30 2612 H 252.893 -2.87926 2.44759 0
M  V30 2613 H 253.206 -5.46376 5.46528 0
M  V30 2614 H 251.551 -4.91862 4.91016 0
M  V30 2615 H 254.742 -3.51136 3.0955 0
M  V30 2616 H 254.915 -4.69007 4.47142 0
M  V30 2617 N 248.321 -0.919034 -1.28029 0
M  V30 2618 C 249.57 -0.550802 -1.94034 0
M  V30 2619 C 249.883 0.910877 -1.73096 0
M  V30 2620 O 251.089 1.3875 -2.33368 0
M  V30 2621 C 249.545 -0.934249 -3.47563 0
M  V30 2622 C 249.153 -2.41602 -3.7727 0
M  V30 2623 C 250.897 -0.636854 -4.19696 0
M  V30 2624 C 248.804 -2.73932 -5.24133 0
M  V30 2625 H 247.734 -0.202273 -0.726362 0
M  V30 2626 H 250.385 -1.11867 -1.45458 0
M  V30 2627 H 248.767 -0.295115 -3.94899 0
M  V30 2628 H 249.941 -3.10233 -3.40723 0
M  V30 2629 H 248.256 -2.68441 -3.18321 0
M  V30 2630 H 250.853 -0.855005 -5.2782 0
M  V30 2631 H 251.196 0.425575 -4.14119 0
M  V30 2632 H 251.729 -1.23469 -3.78154 0
M  V30 2633 H 248.468 -3.79049 -5.34792 0
M  V30 2634 H 247.988 -2.09942 -5.61858 0
M  V30 2635 H 249.667 -2.61215 -5.91925 0
M  V30 2636 N 249.799 1.42003 -0.683588 0
M  V30 2637 C 250.709 2.34597 -0.0109075 0
M  V30 2638 C 251.725 1.55576 0.779245 0
M  V30 2639 O 252.901 1.88107 0.719555 0
M  V30 2640 C 249.966 3.34199 0.922588 0
M  V30 2641 C 249.027 4.29115 0.125984 0
M  V30 2642 C 248.26 5.23959 1.01502 0
M  V30 2643 O 248.483 5.23952 2.25456 0
M  V30 2644 O 247.417 6.00053 0.47111 0
M  V30 2645 H 251.243 2.93675 -0.773853 0
M  V30 2646 H 248.828 1.42654 -0.443861 0
M  V30 2647 H 250.71 3.95365 1.45823 0
M  V30 2648 H 249.385 2.77582 1.66523 0
M  V30 2649 H 248.292 3.71335 -0.453969 0
M  V30 2650 H 249.625 4.88798 -0.577736 0
M  V30 2651 N 251.277 0.427512 1.51691 0
M  V30 2652 C 252.209 -0.424521 2.25234 0
M  V30 2653 C 253.222 -0.994671 1.2888 0
M  V30 2654 O 254.411 -0.890483 1.54702 0
M  V30 2655 C 251.511 -1.60479 2.98496 0
M  V30 2656 C 250.684 -1.15527 4.21868 0
M  V30 2657 C 249.743 -2.20454 4.77793 0
M  V30 2658 O 248.769 -1.8029 5.39893 0
M  V30 2659 N 249.971 -3.52831 4.60967 0
M  V30 2660 H 252.736 0.205749 2.98993 0
M  V30 2661 H 250.297 0.255867 1.59865 0
M  V30 2662 H 252.289 -2.30276 3.32799 0
M  V30 2663 H 250.859 -2.14061 2.27809 0
M  V30 2664 H 250.079 -0.284736 3.9317 0
M  V30 2665 H 251.367 -0.832173 5.01949 0
M  V30 2666 H 250.765 -3.88201 4.11481 0
M  V30 2667 H 249.322 -4.18551 4.99658 0
M  V30 2668 N 252.755 -1.56801 0.158532 0
M  V30 2669 C 254.004 -1.95665 -0.489702 0
M  V30 2670 C 254.317 -1.04654 -1.65248 0
M  V30 2671 O 255.523 -1.33146 -2.3661 0
M  V30 2672 C 253.979 -3.47874 -0.922582 0
M  V30 2673 C 253.587 -4.47489 0.213893 0
M  V30 2674 C 255.331 -3.95583 -1.53996 0
M  V30 2675 C 253.238 -5.90921 -0.237903 0
M  V30 2676 H 252.168 -0.730516 -0.186716 0
M  V30 2677 H 254.819 -1.81861 0.244722 0
M  V30 2678 H 253.201 -3.57051 -1.71261 0
M  V30 2679 H 254.375 -4.50017 0.991036 0
M  V30 2680 H 252.69 -4.09764 0.740407 0
M  V30 2681 H 255.287 -5.0019 -1.8898 0
M  V30 2682 H 255.63 -3.37789 -2.43319 0
M  V30 2683 H 256.163 -3.8937 -0.814611 0
M  V30 2684 H 252.902 -6.52559 0.620236 0
M  V30 2685 H 252.422 -5.91729 -0.980676 0
M  V30 2686 H 254.101 -6.43352 -0.686067 0
M  V30 2687 N 254.233 0.115231 -1.57178 0
M  V30 2688 C 255.48 0.822351 -1.8505 0
M  V30 2689 C 255.808 1.79701 -0.744168 0
M  V30 2690 O 255.063 1.93909 0.26414 0
M  V30 2691 C 255.362 1.60324 -3.19423 0
M  V30 2692 C 255.028 0.772536 -4.44233 0
M  V30 2693 C 253.69 0.543468 -4.78121 0
M  V30 2694 C 256.042 0.193746 -5.2084 0
M  V30 2695 C 253.37 -0.274583 -5.86057 0
M  V30 2696 C 255.722 -0.611517 -6.29637 0
M  V30 2697 C 254.386 -0.850867 -6.62055 0
M  V30 2698 H 253.656 0.30092 -0.677147 0
M  V30 2699 H 256.303 0.0845802 -1.91313 0
M  V30 2700 H 254.608 2.41203 -3.08753 0
M  V30 2701 H 256.305 2.1544 -3.38211 0
M  V30 2702 H 252.895 0.96117 -4.17683 0
M  V30 2703 H 257.079 0.357926 -4.95008 0
M  V30 2704 H 252.335 -0.469206 -6.09597 0
M  V30 2705 H 256.509 -1.06697 -6.88178 0
M  V30 2706 H 254.136 -1.48657 -7.45523 0
M  V30 2707 N 255.711 1.52812 0.385517 0
M  V30 2708 C 256.621 1.80766 1.49535 0
M  V30 2709 C 257.637 0.694651 1.59532 0
M  V30 2710 O 258.813 0.982611 1.75803 0
M  V30 2711 C 255.878 1.97381 2.85029 0
M  V30 2712 C 254.939 3.21295 2.84724 0
M  V30 2713 C 254.172 3.37108 4.13756 0
M  V30 2714 O 254.395 2.5765 5.08893 0
M  V30 2715 O 253.329 4.30378 4.20783 0
M  V30 2716 H 257.155 2.75015 1.28842 0
M  V30 2717 H 254.74 1.37946 0.573697 0
M  V30 2718 H 256.622 2.09996 3.65349 0
M  V30 2719 H 255.297 1.06322 3.05741 0
M  V30 2720 H 254.204 3.1412 2.03174 0
M  V30 2721 H 255.537 4.12212 2.68965 0
M  V30 2722 N 257.189 -0.644168 1.43834 0
M  V30 2723 C 258.417 -1.43147 1.49387 0
M  V30 2724 C 258.832 -1.88452 0.114583 0
M  V30 2725 O 258.189 -1.60047 -0.876989 0
M  V30 2726 C 258.24 -2.66046 2.44748 0
M  V30 2727 O 257.961 -2.22633 3.77314 0
M  V30 2728 C 259.462 -3.59311 2.59635 0
M  V30 2729 H 256.682 -0.439447 0.507077 0
M  V30 2730 H 259.226 -0.78895 1.88669 0
M  V30 2731 H 257.381 -3.26418 2.08638 0
M  V30 2732 H 257.795 -3.02216 4.28679 0
M  V30 2733 H 259.269 -4.42187 3.30416 0
M  V30 2734 H 259.746 -4.07259 1.64427 0
M  V30 2735 H 260.352 -3.04816 2.96593 0
M  V30 2736 N 258.668 -1.30515 -0.883378 0
M  V30 2737 C 259.631 -1.1701 -1.97082 0
M  V30 2738 C 260.631 -0.10089 -1.60483 0
M  V30 2739 O 261.821 -0.349127 -1.70666 0
M  V30 2740 C 258.953 -0.793045 -3.31547 0
M  V30 2741 H 260.146 -2.13622 -2.10489 0
M  V30 2742 H 257.699 -1.13935 -1.06998 0
M  V30 2743 H 258.434 0.172499 -3.23841 0
M  V30 2744 H 258.219 -1.56576 -3.5948 0
M  V30 2745 H 259.709 -0.722073 -4.1131 0
M  V30 2746 N 260.146 1.09593 -1.13257 0
M  V30 2747 C 261.557 1.63229 -0.906274 0
M  V30 2748 C 261.908 1.8811 0.557578 0
M  V30 2749 O 261.033 1.62953 1.42391 0
M  V30 2750 C 261.628 2.96535 -1.63867 0
M  V30 2751 C 260.187 3.47003 -1.45828 0
M  V30 2752 C 259.334 2.2145 -1.66898 0
M  V30 2753 H 262.285 0.92978 -1.28611 0
M  V30 2754 H 262.306 3.64411 -1.09476 0
M  V30 2755 H 261.818 2.78394 -2.70404 0
M  V30 2756 H 259.919 3.70272 -0.415848 0
M  V30 2757 H 260.032 4.24551 -2.2202 0
M  V30 2758 H 258.396 2.30022 -1.09371 0
M  V30 2759 H 259.179 2.0583 -2.74752 0
M  V30 2760 N 261.624 0.925811 1.2754 0
M  V30 2761 C 262.871 0.565255 1.94451 0
M  V30 2762 C 263.199 -0.89316 1.7278 0
M  V30 2763 O 262.454 -1.65213 1.04895 0
M  V30 2764 C 262.753 0.835296 3.47502 0
M  V30 2765 C 262.419 2.27515 3.89291 0
M  V30 2766 C 261.081 2.66879 4.00411 0
M  V30 2767 C 263.433 3.21158 4.10496 0
M  V30 2768 C 260.761 3.99014 4.30122 0
M  V30 2769 C 263.113 4.52871 4.4169 0
M  V30 2770 C 261.777 4.92072 4.51023 0
M  V30 2771 H 261.047 0.206841 0.711546 0
M  V30 2772 H 263.694 1.16942 1.51647 0
M  V30 2773 H 261.999 0.148442 3.91519 0
M  V30 2774 H 263.696 0.535322 3.97411 0
M  V30 2775 H 260.286 1.95976 3.81171 0
M  V30 2776 H 264.47 2.9195 4.01346 0
M  V30 2777 H 259.726 4.2907 4.35556 0
M  V30 2778 H 263.9 5.25436 4.57045 0
M  V30 2779 H 261.527 5.9449 4.738 0
M  V30 2780 N 263.102 -1.41638 0.69111 0
M  V30 2781 C 264.348 -2.01598 0.220519 0
M  V30 2782 C 264.681 -1.54594 -1.17535 0
M  V30 2783 O 263.956 -0.755177 -1.79241 0
M  V30 2784 C 264.239 -3.59062 0.273243 0
M  V30 2785 C 264.092 -4.16203 1.70573 0
M  V30 2786 C 265.411 -4.38546 -0.369457 0
M  V30 2787 H 262.53 -0.732468 0.0816045 0
M  V30 2788 H 265.172 -1.68445 0.878986 0
M  V30 2789 H 263.322 -3.87435 -0.287411 0
M  V30 2790 H 264.994 -3.98722 2.31989 0
M  V30 2791 H 263.237 -3.71414 2.2413 0
M  V30 2792 H 263.908 -5.25358 1.69419 0
M  V30 2793 H 266.384 -4.1596 0.107977 0
M  V30 2794 H 265.26 -5.48069 -0.302002 0
M  V30 2795 H 265.521 -4.17662 -1.44951 0
M  V30 2796 N 264.58 -0.43555 -1.51462 0
M  V30 2797 C 265.527 0.376797 -2.27703 0
M  V30 2798 C 266.497 1.01838 -1.31219 0
M  V30 2799 O 267.682 1.03762 -1.60119 0
M  V30 2800 C 264.822 1.47301 -3.12084 0
M  V30 2801 C 263.935 0.849744 -4.2356 0
M  V30 2802 C 263.07 1.92086 -4.95254 0
M  V30 2803 C 262.109 1.27593 -5.98654 0
M  V30 2804 N 261.246 2.28833 -6.63762 0
M  V30 2805 H 266.086 -0.279734 -2.96684 0
M  V30 2806 H 263.623 -0.149795 -1.46335 0
M  V30 2807 H 265.581 2.11984 -3.59331 0
M  V30 2808 H 264.211 2.0992 -2.45221 0
M  V30 2809 H 263.263 0.0912529 -3.80291 0
M  V30 2810 H 264.575 0.338878 -4.97648 0
M  V30 2811 H 263.729 2.64435 -5.46039 0
M  V30 2812 H 262.468 2.46545 -4.20793 0
M  V30 2813 H 261.473 0.537893 -5.47162 0
M  V30 2814 H 262.698 0.738693 -6.7507 0
M  V30 2815 H 260.644 2.82375 -5.92115 0
M  V30 2816 H 260.561 1.82632 -7.33608 0
M  V30 2817 H 261.829 3.00671 -7.19178 0
M  V30 2818 N 266.058 1.56714 -0.166846 0
M  V30 2819 C 267.307 1.95922 0.479318 0
M  V30 2820 C 267.62 1.05529 1.6469 0
M  V30 2821 O 268.826 1.34399 2.35901 0
M  V30 2822 C 267.282 3.48359 0.90412 0
M  V30 2823 C 266.89 4.47369 -0.237621 0
M  V30 2824 C 268.634 3.96394 1.51896 0
M  V30 2825 C 266.541 5.91039 0.206561 0
M  V30 2826 H 265.471 0.731495 0.18284 0
M  V30 2827 H 268.122 1.81728 -0.254363 0
M  V30 2828 H 266.504 3.57955 1.69365 0
M  V30 2829 H 267.678 4.49485 -1.01489 0
M  V30 2830 H 265.993 4.09366 -0.762128 0
M  V30 2831 H 268.59 5.01186 1.86325 0
M  V30 2832 H 268.933 3.39075 2.41524 0
M  V30 2833 H 269.466 3.89796 0.79395 0
M  V30 2834 H 266.205 6.52221 -0.654834 0
M  V30 2835 H 265.725 5.9224 0.949282 0
M  V30 2836 H 267.404 6.43707 0.651939 0
M  V30 2837 N 267.536 -0.106894 1.57237 0
M  V30 2838 C 268.782 -0.81373 1.85759 0
M  V30 2839 C 269.115 -1.78952 0.754315 0
M  V30 2840 O 268.39 -1.93029 -0.23879 0
M  V30 2841 C 268.673 -1.55293 3.24894 0
M  V30 2842 C 268.526 -0.595929 4.45835 0
M  V30 2843 C 269.845 -2.5063 3.61763 0
M  V30 2844 H 266.964 -0.294369 0.67566 0
M  V30 2845 H 269.606 -0.0776472 1.89841 0
M  V30 2846 H 267.756 -2.1804 3.21544 0
M  V30 2847 H 269.428 0.0236262 4.61294 0
M  V30 2848 H 267.671 0.0916191 4.33703 0
M  V30 2849 H 268.342 -1.15004 5.39887 0
M  V30 2850 H 270.818 -1.97982 3.65981 0
M  V30 2851 H 269.694 -2.99376 4.60071 0
M  V30 2852 H 269.955 -3.3385 2.89821 0
M  V30 2853 N 269.014 -1.53014 -0.377408 0
M  V30 2854 C 269.924 -1.81557 -1.48574 0
M  V30 2855 C 270.94 -0.703102 -1.59162 0
M  V30 2856 O 272.116 -0.99192 -1.75279 0
M  V30 2857 C 269.181 -1.9889 -2.83978 0
M  V30 2858 C 268.242 -3.22801 -2.83016 0
M  V30 2859 C 267.475 -3.39298 -4.11962 0
M  V30 2860 O 267.698 -2.60345 -5.0752 0
M  V30 2861 O 266.632 -4.32604 -4.18494 0
M  V30 2862 H 270.458 -2.75695 -1.27382 0
M  V30 2863 H 268.043 -1.38248 -0.566373 0
M  V30 2864 H 269.925 -2.11931 -3.6423 0
M  V30 2865 H 268.6 -1.07942 -3.05172 0
M  V30 2866 H 267.507 -3.15193 -2.01505 0
M  V30 2867 H 268.84 -4.13632 -2.66775 0
M  V30 2868 N 270.492 0.636531 -1.44174 0
M  V30 2869 C 271.442 1.74233 -1.47061 0
M  V30 2870 C 272.426 1.57331 -0.337034 0
M  V30 2871 O 273.618 1.67159 -0.581973 0
M  V30 2872 C 270.747 3.12897 -1.41246 0
M  V30 2873 C 269.833 3.35288 -2.59698 0
M  V30 2874 N 270.224 3.2807 -3.84972 0
M  V30 2875 C 268.522 3.66065 -2.54778 0
M  V30 2876 C 269.223 3.51001 -4.63867 0
M  V30 2877 N 268.199 3.73616 -3.94857 0
M  V30 2878 H 272.001 1.67103 -2.41773 0
M  V30 2879 H 269.515 0.838806 -1.3906 0
M  V30 2880 H 271.512 3.92189 -1.41398 0
M  V30 2881 H 270.172 3.21197 -0.47569 0
M  V30 2882 H 271.183 3.07109 -4.17019 0
M  V30 2883 H 267.86 3.81379 -1.6987 0
M  V30 2884 H 269.25 3.51059 -5.72894 0
M  V30 2885 N 271.97 1.30982 0.876444 0
M  V30 2886 C 272.92 1.14688 1.97055 0
M  V30 2887 C 273.904 0.0596593 1.60789 0
M  V30 2888 O 275.096 0.283892 1.74708 0
M  V30 2889 C 272.225 0.849627 3.3262 0
M  V30 2890 C 271.311 1.97752 3.75173 0
M  V30 2891 N 271.702 3.22384 3.89746 0
M  V30 2892 C 270 1.8758 4.04635 0
M  V30 2893 C 270.701 3.96121 4.25985 0
M  V30 2894 N 269.677 3.24237 4.36315 0
M  V30 2895 H 273.479 2.09204 2.06424 0
M  V30 2896 H 270.993 1.22445 1.06682 0
M  V30 2897 H 272.99 0.713895 4.10742 0
M  V30 2898 H 271.65 -0.087376 3.24582 0
M  V30 2899 H 272.661 3.57575 3.74647 0
M  V30 2900 H 269.338 1.01303 4.05024 0
M  V30 2901 H 270.728 5.03491 4.44911 0
M  V30 2902 N 273.449 -1.08991 1.13837 0
M  V30 2903 C 274.677 -1.85011 0.926202 0
M  V30 2904 C 275.092 -1.8135 -0.525127 0
M  V30 2905 O 274.449 -1.21287 -1.36366 0
M  V30 2906 C 274.5 -3.32802 1.41155 0
M  V30 2907 O 274.221 -3.36444 2.80601 0
M  V30 2908 C 275.722 -4.25649 1.23847 0
M  V30 2909 H 272.942 -0.584249 0.32999 0
M  V30 2910 H 275.486 -1.37688 1.51202 0
M  V30 2911 H 273.641 -3.77536 0.868631 0
M  V30 2912 H 274.055 -4.28657 3.02248 0
M  V30 2913 H 275.529 -5.27485 1.62675 0
M  V30 2914 H 276.006 -4.38828 0.18065 0
M  V30 2915 H 276.612 -3.86735 1.76964 0
M  V30 2916 N 274.927 -0.932562 -1.27047 0
M  V30 2917 C 275.857 -0.452902 -2.29066 0
M  V30 2918 C 276.838 0.489338 -1.62909 0
M  V30 2919 O 278.023 0.393046 -1.90181 0
M  V30 2920 C 275.153 0.290698 -3.46081 0
M  V30 2921 C 274.107 -0.564168 -4.24265 0
M  V30 2922 C 273.433 0.308886 -5.33807 0
M  V30 2923 C 274.733 -1.83112 -4.89149 0
M  V30 2924 H 276.427 -1.30552 -2.69437 0
M  V30 2925 H 273.973 -0.629201 -1.29526 0
M  V30 2926 H 275.926 0.637233 -4.16554 0
M  V30 2927 H 274.65 1.17738 -3.0464 0
M  V30 2928 H 273.309 -0.893477 -3.55545 0
M  V30 2929 H 272.957 1.19467 -4.88607 0
M  V30 2930 H 272.657 -0.259633 -5.87026 0
M  V30 2931 H 274.181 0.650884 -6.07121 0
M  V30 2932 H 275.595 -1.55236 -5.51883 0
M  V30 2933 H 273.992 -2.34353 -5.52448 0
M  V30 2934 H 275.062 -2.54772 -4.12576 0
M  V30 2935 N 276.405 1.4127 -0.698611 0
M  V30 2936 C 277.338 2.28195 0.0153898 0
M  V30 2937 C 278.316 1.42402 0.784883 0
M  V30 2938 O 279.5 1.71828 0.775067 0
M  V30 2939 C 276.627 3.22685 1.02918 0
M  V30 2940 C 275.673 4.25041 0.352501 0
M  V30 2941 S 276.506 5.27757 -0.907322 0
M  V30 2942 C 277.662 6.25812 0.104796 0
M  V30 2943 H 277.895 2.88403 -0.721858 0
M  V30 2944 H 275.428 1.46452 -0.488996 0
M  V30 2945 H 277.386 3.77655 1.60893 0
M  V30 2946 H 276.047 2.61566 1.73902 0
M  V30 2947 H 275.24 4.91437 1.11828 0
M  V30 2948 H 274.842 3.73682 -0.154254 0
M  V30 2949 H 277.134 6.70705 0.957103 0
M  V30 2950 H 278.077 7.06149 -0.525323 0
M  V30 2951 H 278.485 5.62615 0.460931 0
M  V30 2952 N 277.883 0.443576 1.51229 0
M  V30 2953 C 279.111 -0.11929 2.06556 0
M  V30 2954 C 279.526 -1.35921 1.31038 0
M  V30 2955 O 278.883 -1.78675 0.371704 0
M  V30 2956 C 278.934 -0.435228 3.5887 0
M  V30 2957 O 278.655 0.755486 4.31537 0
M  V30 2958 C 280.156 -1.04808 4.30732 0
M  V30 2959 H 277.376 -0.0051584 0.67098 0
M  V30 2960 H 279.92 0.624453 1.94733 0
M  V30 2961 H 278.075 -1.12887 3.70588 0
M  V30 2962 H 278.489 0.483491 5.22267 0
M  V30 2963 H 279.963 -1.2191 5.3837 0
M  V30 2964 H 280.44 -2.03081 3.89429 0
M  V30 2965 H 281.046 -0.393637 4.23474 0
M  V30 2966 N 279.361 -1.56624 0.175154 0
M  V30 2967 C 280.589 -2.01374 -0.474971 0
M  V30 2968 C 281.004 -1.05537 -1.56548 0
M  V30 2969 O 280.361 -0.0568668 -1.82411 0
M  V30 2970 C 280.412 -3.45923 -1.04975 0
M  V30 2971 O 280.133 -4.381 -0.00276605 0
M  V30 2972 C 281.634 -4.06093 -1.77773 0
M  V30 2973 H 278.854 -0.659962 -0.121206 0
M  V30 2974 H 281.398 -2.02601 0.27801 0
M  V30 2975 H 279.553 -3.45458 -1.75321 0
M  V30 2976 H 279.967 -5.22753 -0.427681 0
M  V30 2977 H 281.441 -5.09147 -2.13245 0
M  V30 2978 H 281.918 -3.48405 -2.67414 0
M  V30 2979 H 282.524 -4.10272 -1.12059 0
M  V30 2980 N 280.839 0.0985539 -1.57292 0
M  V30 2981 C 281.789 1.1261 -1.9825 0
M  V30 2982 C 282.773 1.35961 -0.860426 0
M  V30 2983 O 283.965 1.36711 -1.12424 0
M  V30 2984 C 281.094 2.44727 -2.40757 0
M  V30 2985 C 280.18 2.24764 -3.59642 0
M  V30 2986 N 280.571 1.74661 -4.74687 0
M  V30 2987 C 278.869 2.55344 -3.65672 0
M  V30 2988 C 279.57 1.68887 -5.56644 0
M  V30 2989 N 278.546 2.13976 -4.99715 0
M  V30 2990 H 282.348 0.731604 -2.84648 0
M  V30 2991 H 279.862 0.306029 -1.59491 0
M  V30 2992 H 281.859 3.19072 -2.68326 0
M  V30 2993 H 280.519 2.84917 -1.55733 0
M  V30 2994 H 281.53 1.43908 -4.97505 0
M  V30 2995 H 278.207 2.99081 -2.91302 0
M  V30 2996 H 279.597 1.3123 -6.5896 0
M  V30 2997 N 282.317 1.53212 0.369288 0
M  V30 2998 C 283.264 1.79388 1.45219 0
M  V30 2999 C 284.234 0.638059 1.53356 0
M  V30 3000 O 285.419 0.879852 1.69302 0
M  V30 3001 C 282.559 1.98623 2.82211 0
M  V30 3002 C 281.672 3.26337 2.8307 0
M  V30 3003 C 280.807 3.35779 4.11614 0
M  V30 3004 C 279.846 4.5754 4.06601 0
M  V30 3005 N 278.983 4.64155 5.26787 0
M  V30 3006 H 283.823 2.71794 1.22198 0
M  V30 3007 H 281.36 1.34642 0.592444 0
M  V30 3008 H 283.318 2.07761 3.61789 0
M  V30 3009 H 281.948 1.09558 3.03639 0
M  V30 3010 H 281 3.26171 1.95747 0
M  V30 3011 H 282.312 4.15988 2.75237 0
M  V30 3012 H 281.466 3.44208 4.99606 0
M  V30 3013 H 280.205 2.44137 4.22195 0
M  V30 3014 H 279.21 4.49215 3.16996 0
M  V30 3015 H 280.435 5.50519 3.97625 0
M  V30 3016 H 278.381 3.75413 5.3796 0
M  V30 3017 H 278.298 5.47706 5.21109 0
M  V30 3018 H 279.566 4.76863 6.16621 0
M  V30 3019 N 283.795 -0.628877 1.44509 0
M  V30 3020 C 284.728 -1.75367 1.46019 0
M  V30 3021 C 285.706 -1.59444 0.318787 0
M  V30 3022 O 286.89 -1.81297 0.516099 0
M  V30 3023 C 284.017 -3.12965 1.29501 0
M  V30 3024 C 283.063 -3.47532 2.47233 0
M  V30 3025 S 283.896 -3.44758 4.09758 0
M  V30 3026 C 285.052 -4.84973 3.95667 0
M  V30 3027 H 285.285 -1.7382 2.41193 0
M  V30 3028 H 282.818 -0.803686 1.31834 0
M  V30 3029 H 284.776 -3.92367 1.20658 0
M  V30 3030 H 283.437 -3.12049 0.358341 0
M  V30 3031 H 282.63 -4.47664 2.31544 0
M  V30 3032 H 282.232 -2.75598 2.52828 0
M  V30 3033 H 284.524 -5.74255 3.59496 0
M  V30 3034 H 285.467 -5.05716 4.95638 0
M  V30 3035 H 285.875 -4.59653 3.27688 0
M  V30 3036 N 285.273 -1.31445 -0.869486 0
M  V30 3037 C 286.513 -1.22458 -1.63656 0
M  V30 3038 C 286.877 0.213846 -1.90805 0
M  V30 3039 O 288.078 0.427212 -2.65383 0
M  V30 3040 C 286.349 -2.04564 -2.93067 0
M  V30 3041 S 287.908 -2.12445 -3.83944 0
M  V30 3042 H 284.726 -0.436145 -0.561514 0
M  V30 3043 H 287.328 -1.66114 -1.03085 0
M  V30 3044 H 286.032 -3.0816 -2.71045 0
M  V30 3045 H 285.563 -1.6163 -3.58663 0
M  V30 3046 H 287.578 -1.26312 -4.79854 0
M  V30 3047 N 286.751 1.08385 -1.14413 0
M  V30 3048 C 287.714 2.13486 -0.834048 0
M  V30 3049 C 288.714 1.59988 0.161418 0
M  V30 3050 O 289.904 1.74071 -0.0669575 0
M  V30 3051 C 287.036 3.4003 -0.243354 0
M  V30 3052 H 288.229 2.42425 -1.7655 0
M  V30 3053 H 285.782 1.24101 -0.950189 0
M  V30 3054 H 286.517 3.16726 0.696807 0
M  V30 3055 H 286.302 3.80157 -0.960367 0
M  V30 3056 H 287.792 4.17577 -0.0436242 0
M  V30 3057 N 288.23 0.939286 1.26551 0
M  V30 3058 C 289.178 0.43815 2.28436 0
M  V30 3059 C 290.172 -0.483587 1.62351 0
M  V30 3060 O 291.378 -0.362009 1.76322 0
M  V30 3061 H 287.753 0.123149 0.741848 0
M  V30 3062 H 289.724 1.31002 2.68106 0
M  V30 3063 C 288.473 -0.283052 3.46546 0
M  V30 3064 H 287.796 0.417043 3.97619 0
M  V30 3065 H 289.236 -0.597948 4.19763 0
M  V30 3066 C 287.695 -1.50018 3.01656 0
M  V30 3067 O 288.225 -2.59855 3.0633 0
M  V30 3068 N 286.431 -1.35608 2.57019 0
M  V30 3069 H 285.978 -0.46244 2.53415 0
M  V30 3070 H 285.936 -2.17165 2.27347 0
M  V30 3071 N 289.708 -1.40897 0.706093 0
M  V30 3072 C 290.954 -2.01849 0.250681 0
M  V30 3073 C 291.309 -1.5496 -1.14041 0
M  V30 3074 O 290.602 -0.755566 -1.76073 0
M  V30 3075 C 290.796 -3.5646 0.259099 0
M  V30 3076 C 290.625 -4.18357 1.64947 0
M  V30 3077 C 289.395 -4.522 2.25485 0
M  V30 3078 C 291.593 -4.43856 2.598 0
M  V30 3079 N 289.575 -4.9944 3.56977 0
M  V30 3080 C 290.946 -4.92986 3.75985 0
M  V30 3081 C 293.001 -4.25882 2.57933 0
M  V30 3082 C 291.704 -5.2603 4.90597 0
M  V30 3083 C 293.73 -4.6002 3.71665 0
M  V30 3084 C 293.092 -5.09331 4.86581 0
M  V30 3085 H 289.191 -0.769843 0.137353 0
M  V30 3086 H 291.775 -1.71278 0.925845 0
M  V30 3087 H 289.946 -3.86481 -0.385592 0
M  V30 3088 H 291.678 -4.04144 -0.21213 0
M  V30 3089 H 288.433 -4.3901 1.77671 0
M  V30 3090 H 288.857 -5.27454 4.24407 0
M  V30 3091 H 293.499 -3.86986 1.70298 0
M  V30 3092 H 291.217 -5.63843 5.78884 0
M  V30 3093 H 294.803 -4.47762 3.71484 0
M  V30 3094 H 293.683 -5.35251 5.73129 0
M  V30 3095 N 291.186 -0.45159 -1.50991 0
M  V30 3096 C 292.411 0.110667 -2.07105 0
M  V30 3097 C 292.836 1.3446 -1.31538 0
M  V30 3098 O 292.194 1.77743 -0.357365 0
M  V30 3099 C 292.242 0.397238 -3.58405 0
M  V30 3100 O 291.346 1.48124 -3.84881 0
M  V30 3101 H 290.687 -0.00439271 -0.663985 0
M  V30 3102 H 293.217 -0.637026 -1.9443 0
M  V30 3103 H 293.227 0.64351 -4.02893 0
M  V30 3104 H 291.902 -0.504553 -4.12828 0
M  V30 3105 H 290.479 1.22381 -3.52246 0
M  V30 3106 N 292.664 1.56529 -0.183458 0
M  V30 3107 C 293.892 2.01623 0.464285 0
M  V30 3108 C 294.307 1.06366 1.55986 0
M  V30 3109 O 293.664 0.0665398 1.82379 0
M  V30 3110 C 293.715 3.46475 1.03139 0
M  V30 3111 O 293.436 4.38095 -0.0204675 0
M  V30 3112 C 294.937 4.0703 1.75617 0
M  V30 3113 H 292.157 0.660596 0.117704 0
M  V30 3114 H 294.701 2.02451 -0.288751 0
M  V30 3115 H 292.856 3.46383 1.73486 0
M  V30 3116 H 293.27 5.22973 0.399952 0
M  V30 3117 H 294.744 5.10271 2.10542 0
M  V30 3118 H 295.221 3.49819 2.65563 0
M  V30 3119 H 295.827 4.1086 1.09882 0
M  V30 3120 N 294.142 -0.090211 1.57342 0
M  V30 3121 C 295.391 -0.791531 1.8552 0
M  V30 3122 C 295.704 -1.79659 0.773441 0
M  V30 3123 O 296.91 -2.54616 0.942497 0
M  V30 3124 C 295.366 -1.45856 3.2902 0
M  V30 3125 C 294.974 -0.493017 4.45279 0
M  V30 3126 C 296.718 -2.14332 3.66418 0
M  V30 3127 C 294.625 -1.16491 5.79814 0
M  V30 3128 H 293.555 -0.299356 0.692027 0
M  V30 3129 H 296.206 -0.0445343 1.83446 0
M  V30 3130 H 294.588 -2.25318 3.2565 0
M  V30 3131 H 295.762 0.270464 4.60006 0
M  V30 3132 H 294.077 0.0863061 4.16311 0
M  V30 3133 H 296.674 -2.65344 4.64216 0
M  V30 3134 H 297.017 -2.93447 2.95287 0
M  V30 3135 H 297.55 -1.41724 3.71698 0
M  V30 3136 H 294.289 -0.41447 6.54188 0
M  V30 3137 H 293.809 -1.8997 5.68921 0
M  V30 3138 H 295.488 -1.69001 6.24538 0
M  V30 3139 N 295.62 -1.53406 -0.361157 0
M  V30 3140 C 297.031 -1.61442 -0.937728 0
M  V30 3141 C 297.382 -0.48461 -1.90121 0
M  V30 3142 O 296.507 0.388312 -2.12888 0
M  V30 3143 C 297.102 -2.92624 -1.70753 0
M  V30 3144 C 295.661 -3.02981 -2.23337 0
M  V30 3145 C 294.808 -2.5677 -1.04712 0
M  V30 3146 H 297.759 -1.58083 -0.139816 0
M  V30 3147 H 297.78 -2.80675 -2.56908 0
M  V30 3148 H 297.292 -3.74834 -1.00604 0
M  V30 3149 H 295.393 -2.25368 -2.96715 0
M  V30 3150 H 295.506 -4.0814 -2.50916 0
M  V30 3151 H 293.87 -2.11752 -1.41539 0
M  V30 3152 H 294.653 -3.41402 -0.360539 0
M  V30 3153 N 297.098 0.621204 -1.44841 0
M  V30 3154 C 298.046 1.75385 -1.52784 0
M  V30 3155 C 299.04 1.64639 -0.398779 0
M  V30 3156 O 300.246 1.70598 -0.574137 0
M  V30 3157 H 296.621 0.579193 -0.479625 0
M  V30 3158 H 298.592 1.6581 -2.48092 0
M  V30 3159 C 297.341 3.13742 -1.4987 0
M  V30 3160 H 296.664 3.22663 -2.36069 0
M  V30 3161 H 298.104 3.92861 -1.59487 0
M  V30 3162 C 296.563 3.36175 -0.220973 0
M  V30 3163 O 297.093 3.95469 0.704782 0
M  V30 3164 N 295.299 2.90348 -0.120963 0
M  V30 3165 H 294.846 2.42278 -0.875162 0
M  V30 3166 H 294.804 3.05732 0.733168 0
M  V30 3167 N 298.576 1.31904 0.862503 0
M  V30 3168 C 299.823 1.22017 1.61611 0
M  V30 3169 C 300.151 -0.21991 1.93253 0
M  V30 3170 O 299.406 -1.17076 1.56817 0
M  V30 3171 C 299.705 2.01713 2.95037 0
M  V30 3172 C 299.371 3.51145 2.82857 0
M  V30 3173 C 298.033 3.91889 2.79243 0
M  V30 3174 C 300.385 4.46204 2.69353 0
M  V30 3175 C 297.713 5.25947 2.59993 0
M  V30 3176 C 300.065 5.80397 2.5164 0
M  V30 3177 C 298.729 6.20352 2.46413 0
M  V30 3178 H 297.999 0.44649 0.591378 0
M  V30 3179 H 300.646 1.63248 1.00111 0
M  V30 3180 H 298.951 1.53185 3.60613 0
M  V30 3181 H 300.648 1.91437 3.52353 0
M  V30 3182 H 297.238 3.1878 2.86491 0
M  V30 3183 H 301.422 4.15652 2.71196 0
M  V30 3184 H 296.678 5.5597 2.54376 0
M  V30 3185 H 300.852 6.53676 2.40169 0
M  V30 3186 H 298.479 7.24172 2.31256 0
M  V30 3187 N 300.054 -1.07777 1.14986 0
M  V30 3188 C 301.47 -1.32373 0.891596 0
M  V30 3189 C 301.67 -1.9609 -0.463788 0
M  V30 3190 O 300.726 -2.21801 -1.20667 0
M  V30 3191 C 302.039 -2.21905 2.02925 0
M  V30 3192 C 303.587 -2.35367 2.06329 0
M  V30 3193 C 304.062 -3.28245 3.19405 0
M  V30 3194 N 305.553 -3.35824 3.19024 0
M  V30 3195 C 306.288 -4.07739 4.03158 0
M  V30 3196 N 305.784 -4.82306 4.97346 0
M  V30 3197 N 307.577 -4.03635 3.91197 0
M  V30 3198 H 299.728 -0.648039 2.02273 0
M  V30 3199 H 301.991 -0.348149 0.881757 0
M  V30 3200 H 301.697 -1.82342 3.0074 0
M  V30 3201 H 301.571 -3.22407 1.95789 0
M  V30 3202 H 303.958 -2.74186 1.09116 0
M  V30 3203 H 304.039 -1.34585 2.17533 0
M  V30 3204 H 303.683 -2.90146 4.16867 0
M  V30 3205 H 303.613 -4.28971 3.05437 0
M  V30 3206 H 306.104 -2.8267 2.50811 0
M  V30 3207 H 306.417 -5.34661 5.57994 0
M  V30 3208 H 304.762 -4.81337 5.01338 0
M  V30 3209 H 307.953 -3.44491 3.16928 0
M  V30 3210 H 308.126 -4.59417 4.5699 0
M  V30 3211 N 301.532 -0.945985 -1.26051 0
M  V30 3212 C 302.779 -0.596118 -1.93527 0
M  V30 3213 C 303.107 0.865559 -1.74179 0
M  V30 3214 O 302.362 1.63524 -1.0751 0
M  V30 3215 C 302.661 -0.890475 -3.46129 0
M  V30 3216 C 302.327 -2.3368 -3.85622 0
M  V30 3217 C 300.989 -2.73216 -3.96114 0
M  V30 3218 C 303.341 -3.27648 -4.05334 0
M  V30 3219 C 300.669 -4.05806 -4.2372 0
M  V30 3220 C 303.021 -4.59841 -4.3443 0
M  V30 3221 C 301.685 -4.99185 -4.43137 0
M  V30 3222 H 300.955 -0.218135 -0.708165 0
M  V30 3223 H 303.602 -1.1934 -1.49768 0
M  V30 3224 H 301.907 -0.210711 -3.91233 0
M  V30 3225 H 303.604 -0.598478 -3.96509 0
M  V30 3226 H 300.194 -2.02015 -3.78005 0
M  V30 3227 H 304.378 -2.98298 -3.96651 0
M  V30 3228 H 299.634 -4.35945 -4.28675 0
M  V30 3229 H 303.808 -5.32641 -4.48628 0
M  V30 3230 H 301.435 -6.01952 -4.64282 0
M  V30 3231 N 303.011 1.40521 -0.713556 0
M  V30 3232 C 303.941 2.33381 -0.0743864 0
M  V30 3233 C 304.922 1.52784 0.747735 0
M  V30 3234 O 306.107 1.81258 0.697071 0
M  V30 3235 C 303.237 3.36748 0.849598 0
M  V30 3236 C 302.191 4.27793 0.133247 0
M  V30 3237 C 301.517 5.21679 1.17281 0
M  V30 3238 C 302.817 5.12415 -1.01134 0
M  V30 3239 H 304.511 2.87081 -0.850007 0
M  V30 3240 H 302.057 1.38034 -0.410201 0
M  V30 3241 H 304.01 4.00648 1.30612 0
M  V30 3242 H 302.734 2.81439 1.65709 0
M  V30 3243 H 301.393 3.65342 -0.303426 0
M  V30 3244 H 301.041 4.62677 1.9733 0
M  V30 3245 H 300.741 5.83435 0.698397 0
M  V30 3246 H 302.265 5.88456 1.62947 0
M  V30 3247 H 303.679 5.69781 -0.634274 0
M  V30 3248 H 302.076 5.83203 -1.41399 0
M  V30 3249 H 303.146 4.48514 -1.84292 0
M  V30 3250 N 304.489 0.459591 1.5075 0
M  V30 3251 C 305.452 -0.329093 2.26825 0
M  V30 3252 C 306.452 -0.930481 1.31144 0
M  V30 3253 O 307.642 -0.801453 1.54669 0
M  V30 3254 C 304.774 -1.46768 3.07688 0
M  V30 3255 H 305.967 0.337924 2.9799 0
M  V30 3256 H 303.52 0.213336 1.54837 0
M  V30 3257 H 304.255 -2.17009 2.40993 0
M  V30 3258 H 304.04 -1.04238 3.77991 0
M  V30 3259 H 305.53 -2.02433 3.65254 0
M  V30 3260 N 305.967 -1.56429 0.191757 0
M  V30 3261 C 307.215 -1.97095 -0.447006 0
M  V30 3262 C 307.536 -1.07967 -1.62383 0
M  V30 3263 O 306.806 -0.150248 -1.95323 0
M  V30 3264 H 305.386 -0.727832 -0.168135 0
M  V30 3265 H 308.048 -1.92911 0.27771 0
M  V30 3266 H 307.144 -3.01848 -0.793371 0
M  V30 3267 N 307.445 0.0818655 -1.57387 0
M  V30 3268 C 308.673 0.796108 -1.9097 0
M  V30 3269 C 309.088 1.71626 -0.786757 0
M  V30 3270 O 308.445 1.80908 0.240513 0
M  V30 3271 C 308.496 1.59829 -3.24248 0
M  V30 3272 O 308.217 0.715131 -4.32224 0
M  V30 3273 C 309.718 2.41442 -3.7178 0
M  V30 3274 H 306.938 0.22691 -0.631469 0
M  V30 3275 H 309.482 0.0551439 -2.04426 0
M  V30 3276 H 307.637 2.29163 -3.12351 0
M  V30 3277 H 308.051 1.27205 -5.08841 0
M  V30 3278 H 309.525 2.932 -4.67694 0
M  V30 3279 H 310.002 3.2051 -3.00283 0
M  V30 3280 H 310.608 1.77283 -3.86589 0
M  V30 3281 N 308.923 1.53595 0.353017 0
M  V30 3282 C 310.153 1.74058 1.11299 0
M  V30 3283 C 310.561 0.475205 1.83135 0
M  V30 3284 O 309.904 -0.562344 1.74881 0
M  V30 3285 C 309.966 2.85994 2.17825 0
M  V30 3286 C 309.63 4.25923 1.65647 0
M  V30 3287 C 310.627 5.07829 1.11383 0
M  V30 3288 C 308.312 4.72377 1.7078 0
M  V30 3289 C 310.306 6.34285 0.629439 0
M  V30 3290 C 307.993 5.98808 1.21953 0
M  V30 3291 C 308.991 6.79594 0.681265 0
M  V30 3292 O 308.679 8.03651 0.200248 0
M  V30 3293 H 308.411 0.585327 0.338183 0
M  V30 3294 H 310.965 2.01186 0.413927 0
M  V30 3295 H 309.195 2.54368 2.91262 0
M  V30 3296 H 310.884 2.94515 2.79313 0
M  V30 3297 H 311.65 4.73107 1.06746 0
M  V30 3298 H 307.529 4.0956 2.11617 0
M  V30 3299 H 311.073 6.97288 0.208636 0
M  V30 3300 H 306.97 6.33026 1.26287 0
M  V30 3301 H 307.738 8.1788 0.318416 0
M  V30 3302 N 310.401 -0.613514 1.45168 0
M  V30 3303 C 311.678 -1.37263 1.39349 0
M  V30 3304 C 312.058 -2.11012 0.0610848 0
M  V30 3305 O 311.406 -2.07502 -0.956825 0
M  V30 3306 C 311.616 -2.3244 2.60332 0
M  V30 3307 C 312.964 -2.9523 3.05163 0
M  V30 3308 O 313.988 -2.42762 2.60663 0
M  V30 3309 O 312.847 -3.90454 3.82372 0
M  V30 3310 H 309.941 -0.615188 0.552696 0
M  V30 3311 H 312.487 -0.637097 1.57287 0
M  V30 3312 H 311.259 -1.77164 3.48896 0
M  V30 3313 H 310.882 -3.13383 2.44698 0
M  V30 3314 N 311.879 -1.3236 -0.855495 0
M  V30 3315 C 312.812 -1.15559 -1.96777 0
M  V30 3316 C 313.79 -0.0552681 -1.62506 0
M  V30 3317 O 314.974 -0.214419 -1.87277 0
M  V30 3318 C 312.101 -0.768851 -3.29858 0
M  V30 3319 C 311.147 -1.87429 -3.83109 0
M  V30 3320 S 311.98 -3.48243 -4.06801 0
M  V30 3321 C 313.136 -3.11539 -5.42858 0
M  V30 3322 H 313.369 -2.09717 -2.10727 0
M  V30 3323 H 310.902 -1.17011 -1.00737 0
M  V30 3324 H 312.86 -0.55248 -4.06765 0
M  V30 3325 H 311.521 0.153857 -3.13723 0
M  V30 3326 H 310.714 -1.55667 -4.79358 0
M  V30 3327 H 310.316 -2.04647 -3.13042 0
M  V30 3328 H 312.608 -2.61331 -6.2507 0
M  V30 3329 H 313.551 -4.06806 -5.79582 0
M  V30 3330 H 313.959 -2.48582 -5.06821 0
M  V30 3331 N 313.357 1.07166 -1.15556 0
M  V30 3332 C 314.604 1.79798 -0.931604 0
M  V30 3333 C 314.932 1.8682 0.54115 0
M  V30 3334 O 314.187 1.34942 1.41736 0
M  V30 3335 C 314.486 3.24707 -1.49332 0
M  V30 3336 C 314.152 3.37781 -2.98688 0
M  V30 3337 C 312.814 3.41057 -3.39461 0
M  V30 3338 C 315.166 3.40424 -3.94665 0
M  V30 3339 C 312.494 3.4458 -4.74849 0
M  V30 3340 C 314.846 3.45485 -5.29927 0
M  V30 3341 C 313.51 3.47039 -5.70193 0
M  V30 3342 H 312.78 0.657928 -0.340898 0
M  V30 3343 H 315.427 1.26091 -1.44129 0
M  V30 3344 H 313.732 3.81208 -0.904859 0
M  V30 3345 H 315.429 3.79486 -1.29582 0
M  V30 3346 H 312.019 3.35932 -2.66172 0
M  V30 3347 H 316.203 3.37113 -3.64237 0
M  V30 3348 H 311.459 3.44083 -5.05388 0
M  V30 3349 H 315.633 3.46476 -6.04092 0
M  V30 3350 H 313.26 3.49522 -6.75084 0
M  V30 3351 N 314.835 0.952656 1.25548 0
M  V30 3352 C 316.082 0.606373 1.93208 0
M  V30 3353 C 316.41 -0.85631 1.74636 0
M  V30 3354 O 315.665 -1.62951 1.08376 0
M  V30 3355 C 315.964 0.908818 3.45652 0
M  V30 3356 C 315.63 2.35722 3.84378 0
M  V30 3357 C 314.292 2.75312 3.9466 0
M  V30 3358 C 316.644 3.29793 4.03591 0
M  V30 3359 C 313.972 4.08047 4.21562 0
M  V30 3360 C 316.324 4.62138 4.31985 0
M  V30 3361 C 314.988 5.01528 4.40484 0
M  V30 3362 H 314.258 0.221888 0.706998 0
M  V30 3363 H 316.905 1.20132 1.49133 0
M  V30 3364 H 315.21 0.231456 3.91116 0
M  V30 3365 H 316.907 0.619498 3.96186 0
M  V30 3366 H 313.497 2.04017 3.76928 0
M  V30 3367 H 317.681 3.00397 3.95064 0
M  V30 3368 H 312.937 4.38212 4.26357 0
M  V30 3369 H 317.111 5.35012 4.45797 0
M  V30 3370 H 314.738 6.04406 4.61083 0
M  V30 3371 N 316.313 -1.40141 0.720998 0
M  V30 3372 C 317.538 -2.05618 0.271258 0
M  V30 3373 C 317.963 -1.53978 -1.08039 0
M  V30 3374 O 317.321 -0.677463 -1.68167 0
M  V30 3375 C 317.369 -3.59609 0.267197 0
M  V30 3376 O 316.473 -4.05526 -0.749814 0
M  V30 3377 H 315.814 -0.651904 0.126162 0
M  V30 3378 H 318.344 -1.79439 0.982997 0
M  V30 3379 H 318.354 -4.0786 0.106744 0
M  V30 3380 H 317.029 -3.96559 1.25354 0
M  V30 3381 H 315.606 -3.68722 -0.556644 0
M  V30 3382 N 317.792 -0.46758 -1.50504 0
M  V30 3383 C 319.208 -0.121533 -1.59137 0
M  V30 3384 C 319.408 1.3717 -1.47603 0
M  V30 3385 O 318.464 2.14464 -1.33272 0
M  V30 3386 C 319.777 -0.6686 -2.93173 0
M  V30 3387 C 321.325 -0.631716 -3.06559 0
M  V30 3388 C 321.8 -1.15627 -4.43164 0
M  V30 3389 N 323.291 -1.11553 -4.49567 0
M  V30 3390 C 324.026 -1.49195 -5.5365 0
M  V30 3391 N 323.522 -1.94269 -6.65005 0
M  V30 3392 N 325.315 -1.4082 -5.44175 0
M  V30 3393 H 317.466 -1.4388 -1.56245 0
M  V30 3394 H 319.729 -0.594784 -0.738198 0
M  V30 3395 H 319.435 -1.71453 -3.07078 0
M  V30 3396 H 319.309 -0.11021 -3.77039 0
M  V30 3397 H 321.696 0.405297 -2.92304 0
M  V30 3398 H 321.777 -1.22687 -2.24458 0
M  V30 3399 H 321.421 -2.1919 -4.58168 0
M  V30 3400 H 321.351 -0.537365 -5.23851 0
M  V30 3401 H 323.842 -0.784895 -3.69659 0
M  V30 3402 H 324.155 -2.21148 -7.40482 0
M  V30 3403 H 322.5 -1.98219 -6.66134 0
M  V30 3404 H 325.691 -1.0545 -4.56068 0
M  V30 3405 H 325.864 -1.70481 -6.25172 0
M  V30 3406 N 319.27 1.56325 -0.20005 0
M  V30 3407 C 320.519 1.96895 0.437652 0
M  V30 3408 C 320.832 1.08999 1.62415 0
M  V30 3409 O 322.038 1.39372 2.32997 0
M  V30 3410 C 320.494 3.50198 0.830025 0
M  V30 3411 C 320.102 4.46765 -0.332461 0
M  V30 3412 C 321.846 3.99526 1.43453 0
M  V30 3413 C 319.753 5.91344 0.0811468 0
M  V30 3414 H 318.683 0.735209 0.167282 0
M  V30 3415 H 321.334 1.81148 -0.292853 0
M  V30 3416 H 319.716 3.61467 1.61734 0
M  V30 3417 H 320.89 4.47231 -1.11 0
M  V30 3418 H 319.205 4.07657 -0.848789 0
M  V30 3419 H 321.802 5.05025 1.75652 0
M  V30 3420 H 322.145 3.44122 2.34277 0
M  V30 3421 H 322.678 3.91393 0.71109 0
M  V30 3422 H 319.417 6.50685 -0.793033 0
M  V30 3423 H 318.937 5.94121 0.823445 0
M  V30 3424 H 320.616 6.44945 0.515252 0
M  V30 3425 N 320.748 -0.0735177 1.57428 0
M  V30 3426 C 321.658 -1.10547 2.06922 0
M  V30 3427 C 322.674 -1.42506 0.998402 0
M  V30 3428 O 323.85 -1.52717 1.31299 0
M  V30 3429 C 320.915 -2.40019 2.50184 0
M  V30 3430 C 319.976 -2.15046 3.71556 0
M  V30 3431 C 319.209 -3.38345 4.12745 0
M  V30 3432 O 319.432 -4.47399 3.53822 0
M  V30 3433 O 318.366 -3.2666 5.05546 0
M  V30 3434 H 322.192 -0.715013 2.95163 0
M  V30 3435 H 319.777 -0.287531 1.46607 0
M  V30 3436 H 321.659 -3.16218 2.78539 0
M  V30 3437 H 320.334 -2.78447 1.65072 0
M  V30 3438 H 319.241 -1.36558 3.48285 0
M  V30 3439 H 320.574 -1.81499 4.57514 0
M  V30 3440 N 322.226 -1.5378 -0.344866 0
M  V30 3441 C 323.176 -1.78057 -1.42407 0
M  V30 3442 C 324.16 -0.635732 -1.47808 0
M  V30 3443 O 325.352 -0.89508 -1.527 0
M  V30 3444 C 322.481 -1.99242 -2.79566 0
M  V30 3445 C 321.567 -3.19787 -2.78562 0
M  V30 3446 N 321.958 -4.41284 -2.47189 0
M  V30 3447 C 320.256 -3.2093 -3.0971 0
M  V30 3448 C 320.957 -5.23128 -2.54385 0
M  V30 3449 N 319.933 -4.59813 -2.89953 0
M  V30 3450 H 323.735 -2.69588 -1.17046 0
M  V30 3451 H 321.249 -1.52687 -0.553217 0
M  V30 3452 H 323.246 -2.14768 -3.57324 0
M  V30 3453 H 321.906 -1.08953 -3.05875 0
M  V30 3454 H 322.917 -4.68657 -2.20411 0
M  V30 3455 H 319.594 -2.40603 -3.41199 0
M  V30 3456 H 320.984 -6.30096 -2.333 0
M  V30 3457 N 323.704 0.605807 -1.45491 0
M  V30 3458 C 324.634 1.72709 -1.57143 0
M  V30 3459 C 325.615 1.6476 -0.422884 0
M  V30 3460 O 326.8 1.83132 -0.646247 0
M  V30 3461 C 323.93 3.11316 -1.53948 0
M  V30 3462 C 322.884 3.34077 -2.67537 0
M  V30 3463 C 322.21 4.72975 -2.49397 0
M  V30 3464 C 323.51 3.24158 -4.09535 0
M  V30 3465 H 325.204 1.63214 -2.51001 0
M  V30 3466 H 322.75 0.78379 -1.208 0
M  V30 3467 H 324.703 3.89557 -1.60696 0
M  V30 3468 H 323.427 3.21655 -0.566205 0
M  V30 3469 H 322.086 2.58227 -2.6022 0
M  V30 3470 H 321.734 4.8005 -1.50205 0
M  V30 3471 H 321.434 4.8916 -3.25571 0
M  V30 3472 H 322.958 5.53414 -2.58002 0
M  V30 3473 H 324.372 3.92271 -4.18086 0
M  V30 3474 H 322.769 3.51872 -4.86113 0
M  V30 3475 H 323.839 2.2157 -4.31317 0
M  V30 3476 N 325.182 1.32811 0.848464 0
M  V30 3477 C 326.412 1.26556 1.63301 0
M  V30 3478 C 326.82 -0.1676 1.88456 0
M  V30 3479 O 326.163 -1.11713 1.45828 0
M  V30 3480 C 326.225 1.96202 3.01239 0
M  V30 3481 C 325.889 3.45528 2.99098 0
M  V30 3482 C 326.886 4.40903 2.75501 0
M  V30 3483 C 324.571 3.87558 3.19537 0
M  V30 3484 C 326.565 5.76282 2.72356 0
M  V30 3485 C 324.252 5.23044 3.16019 0
M  V30 3486 C 325.25 6.17217 2.92458 0
M  V30 3487 O 324.938 7.50223 2.88825 0
M  V30 3488 H 324.67 0.43771 0.515156 0
M  V30 3489 H 327.224 1.7559 1.0657 0
M  V30 3490 H 325.454 1.41746 3.59785 0
M  V30 3491 H 327.143 1.83573 3.62016 0
M  V30 3492 H 327.909 4.09756 2.5947 0
M  V30 3493 H 323.788 3.14674 3.369 0
M  V30 3494 H 327.332 6.4976 2.53886 0
M  V30 3495 H 323.229 5.53818 3.31596 0
M  V30 3496 H 323.997 7.59657 3.04735 0
M  V30 3497 N 326.66 -1.06551 1.16123 0
M  V30 3498 C 327.885 -1.83544 0.965735 0
M  V30 3499 C 328.31 -1.81843 -0.481102 0
M  V30 3500 O 327.668 -1.21732 -1.34354 0
M  V30 3501 C 327.716 -3.28169 1.49457 0
M  V30 3502 O 326.82 -4.0643 0.699157 0
M  V30 3503 H 326.161 -0.568026 0.343864 0
M  V30 3504 H 328.691 -1.34362 1.54299 0
M  V30 3505 H 328.701 -3.78992 1.51092 0
M  V30 3506 H 327.376 -3.28722 2.54784 0
M  V30 3507 H 325.953 -3.65216 0.7531 0
M  V30 3508 N 328.138 -0.959301 -1.25041 0
M  V30 3509 C 329.101 -0.487677 -2.23952 0
M  V30 3510 C 330.101 0.41119 -1.55454 0
M  V30 3511 O 331.291 0.207825 -1.72956 0
M  V30 3512 C 328.423 0.294807 -3.39623 0
M  V30 3513 H 329.616 -1.36198 -2.67189 0
M  V30 3514 H 327.169 -0.743042 -1.37508 0
M  V30 3515 H 327.904 1.18658 -3.01813 0
M  V30 3516 H 327.689 -0.35012 -3.90534 0
M  V30 3517 H 329.179 0.614089 -4.1306 0
M  V30 3518 N 329.616 1.39756 -0.72842 0
M  V30 3519 C 330.865 1.99879 -0.270407 0
M  V30 3520 C 331.178 1.58449 1.14688 0
M  V30 3521 O 332.384 2.11362 1.70407 0
M  V30 3522 C 330.84 3.57292 -0.43252 0
M  V30 3523 C 330.448 4.07688 -1.85727 0
M  V30 3524 C 332.192 4.24485 -0.0359507 0
M  V30 3525 C 330.099 5.5765 -1.96928 0
M  V30 3526 H 329.029 0.747689 -0.0973472 0
M  V30 3527 H 331.68 1.59837 -0.901355 0
M  V30 3528 H 330.062 3.95097 0.267219 0
M  V30 3529 H 331.236 3.81231 -2.58843 0
M  V30 3530 H 329.551 3.53135 -2.20646 0
M  V30 3531 H 332.148 5.34609 -0.0987484 0
M  V30 3532 H 332.491 4.03915 1.00787 0
M  V30 3533 H 333.024 3.9183 -0.686604 0
M  V30 3534 H 329.763 5.8309 -2.99476 0
M  V30 3535 H 329.283 5.8593 -1.28241 0
M  V30 3536 H 330.962 6.22957 -1.74737 0
M  V30 3537 N 331.094 0.475555 1.50254 0
M  V30 3538 C 332.51 0.12997 1.5907 0
M  V30 3539 C 332.71 -1.36385 1.48328 0
M  V30 3540 O 331.766 -2.13754 1.34407 0
M  V30 3541 C 333.079 0.684139 2.92814 0
M  V30 3542 C 334.627 0.647965 3.0622 0
M  V30 3543 C 335.102 1.17975 4.42545 0
M  V30 3544 N 336.593 1.13936 4.48969 0
M  V30 3545 C 337.328 1.52129 5.52851 0
M  V30 3546 N 336.824 1.97793 6.63965 0
M  V30 3547 N 338.617 1.43704 5.4342 0
M  V30 3548 H 330.768 1.44706 1.55479 0
M  V30 3549 H 333.031 0.598691 0.735033 0
M  V30 3550 H 332.737 1.73079 3.06164 0
M  V30 3551 H 332.611 0.130204 3.76975 0
M  V30 3552 H 334.998 -0.38979 2.92514 0
M  V30 3553 H 335.079 1.23876 2.23805 0
M  V30 3554 H 334.723 2.21616 4.57 0
M  V30 3555 H 334.653 0.565138 5.23559 0
M  V30 3556 H 337.144 0.804488 3.69238 0
M  V30 3557 H 337.457 2.25072 7.39299 0
M  V30 3558 H 335.802 2.01749 6.65073 0
M  V30 3559 H 338.993 1.07867 4.55502 0
M  V30 3560 H 339.166 1.73794 6.24259 0
M  V30 3561 N 332.573 -1.56217 0.208337 0
M  V30 3562 C 333.819 -1.98242 -0.427552 0
M  V30 3563 C 334.152 -1.09554 -1.60348 0
M  V30 3564 O 333.427 -0.15035 -1.93918 0
M  V30 3565 C 333.71 -3.4931 -0.874907 0
M  V30 3566 C 333.563 -4.48773 0.303751 0
M  V30 3567 C 334.882 -4.04424 -1.73577 0
M  V30 3568 H 332.001 -0.720744 -0.153936 0
M  V30 3569 H 334.643 -1.87586 0.30192 0
M  V30 3570 H 332.793 -3.58522 -1.49648 0
M  V30 3571 H 334.465 -4.51586 0.941682 0
M  V30 3572 H 332.708 -4.23194 0.953375 0
M  V30 3573 H 333.379 -5.51976 -0.0519883 0
M  V30 3574 H 335.855 -3.98075 -1.21143 0
M  V30 3575 H 334.731 -5.1047 -2.01771 0
M  V30 3576 H 334.992 -3.50494 -2.69456 0
M  V30 3577 N 334.051 0.0651679 -1.57465 0
M  V30 3578 C 335.299 0.761555 -1.87202 0
M  V30 3579 C 335.62 1.77778 -0.801243 0
M  V30 3580 O 334.89 1.95166 0.16937 0
M  V30 3581 H 333.47 0.284251 -0.690804 0
M  V30 3582 H 336.132 0.0396827 -1.9486 0
M  V30 3583 H 335.228 1.27365 -2.84929 0
M  V30 3584 N 335.529 1.53961 0.336706 0
M  V30 3585 C 336.757 1.75483 1.09605 0
M  V30 3586 C 337.172 0.4972 1.82136 0
M  V30 3587 O 336.529 -0.53149 1.74589 0
M  V30 3588 C 336.58 2.93943 2.10428 0
M  V30 3589 O 336.301 4.14842 1.40846 0
M  V30 3590 C 337.802 3.27571 2.98684 0
M  V30 3591 H 335.022 0.586166 0.326574 0
M  V30 3592 H 337.566 2.00808 0.38683 0
M  V30 3593 H 335.721 2.70929 2.76905 0
M  V30 3594 H 336.135 4.81383 2.08255 0
M  V30 3595 H 337.609 4.13791 3.6535 0
M  V30 3596 H 338.086 2.44168 3.65074 0
M  V30 3597 H 338.692 3.52615 2.37787 0
M  V30 3598 N 337.007 -0.598083 1.45811 0
M  V30 3599 C 338.253 -1.35882 1.50545 0
M  V30 3600 C 338.586 -1.93616 0.150445 0
M  V30 3601 O 337.861 -1.75604 -0.83628 0
M  V30 3602 C 338.144 -2.49966 2.59208 0
M  V30 3603 C 337.997 -1.97367 4.04186 0
M  V30 3604 C 339.316 -3.52068 2.64076 0
M  V30 3605 H 336.435 -0.492717 0.548087 0
M  V30 3606 H 339.077 -0.673319 1.77669 0
M  V30 3607 H 337.227 -3.08443 2.3621 0
M  V30 3608 H 338.899 -1.43466 4.38423 0
M  V30 3609 H 337.142 -1.283 4.14393 0
M  V30 3610 H 337.813 -2.79649 4.75921 0
M  V30 3611 H 340.289 -3.03448 2.84708 0
M  V30 3612 H 339.165 -4.2937 3.41954 0
M  V30 3613 H 339.426 -4.08304 1.69531 0
M  V30 3614 N 338.485 -1.33259 -0.841409 0
M  V30 3615 C 339.731 -1.24757 -1.59886 0
M  V30 3616 C 340.064 0.186913 -1.93298 0
M  V30 3617 O 339.339 1.12757 -1.5848 0
M  V30 3618 C 339.622 -2.12036 -2.91055 0
M  V30 3619 C 339.475 -3.63929 -2.6434 0
M  V30 3620 C 340.794 -1.9916 -3.92458 0
M  V30 3621 H 337.913 -0.454542 -0.580138 0
M  V30 3622 H 340.555 -1.63335 -0.970647 0
M  V30 3623 H 338.705 -1.79265 -3.44669 0
M  V30 3624 H 340.377 -4.06978 -2.17178 0
M  V30 3625 H 338.62 -3.85935 -1.98082 0
M  V30 3626 H 339.291 -4.20341 -3.57796 0
M  V30 3627 H 341.767 -2.27895 -3.48143 0
M  V30 3628 H 340.643 -2.62484 -4.82072 0
M  V30 3629 H 340.904 -0.963082 -4.31482 0
M  V30 3630 N 339.963 1.05934 -1.16686 0
M  V30 3631 C 341.191 1.8249 -0.974929 0
M  V30 3632 C 341.606 1.82679 0.476861 0
M  V30 3633 O 340.963 1.2486 1.33103 0
M  V30 3634 C 341.014 3.28943 -1.49929 0
M  V30 3635 O 340.735 3.28886 -2.89423 0
M  V30 3636 C 342.236 4.22215 -1.35089 0
M  V30 3637 H 339.456 0.575295 -0.345365 0
M  V30 3638 H 342 1.33631 -1.548 0
M  V30 3639 H 340.155 3.751 -0.968423 0
M  V30 3640 H 340.569 4.20493 -3.13506 0
M  V30 3641 H 342.043 5.22987 -1.76603 0
M  V30 3642 H 342.52 4.38195 -0.296935 0
M  V30 3643 H 343.126 3.81907 -1.87155 0
M  V30 3644 N 341.441 0.965919 1.2453 0
M  V30 3645 C 342.404 0.499547 2.2369 0
M  V30 3646 C 343.404 -0.40294 1.5567 0
M  V30 3647 O 344.594 -0.19865 1.73064 0
M  V30 3648 C 341.726 -0.276792 3.39774 0
M  V30 3649 H 342.919 1.37613 2.66463 0
M  V30 3650 H 340.472 0.750324 1.37112 0
M  V30 3651 H 341.207 -1.17055 3.02438 0
M  V30 3652 H 340.992 0.370826 3.90343 0
M  V30 3653 H 342.482 -0.592175 4.1338 0
M  V30 3654 N 342.919 -1.39368 0.735821 0
M  V30 3655 C 344.149 -2.04498 0.293967 0
M  V30 3656 C 344.557 -1.55593 -1.07645 0
M  V30 3657 O 343.9 -0.716324 -1.69158 0
M  V30 3658 C 343.962 -3.58836 0.218342 0
M  V30 3659 C 343.626 -4.30721 1.52736 0
M  V30 3660 C 344.623 -4.57305 2.47322 0
M  V30 3661 C 342.308 -4.69251 1.79189 0
M  V30 3662 C 344.302 -5.21429 3.66593 0
M  V30 3663 C 341.989 -5.33104 2.98737 0
M  V30 3664 C 342.987 -5.59125 3.9226 0
M  V30 3665 O 342.675 -6.21653 5.09708 0
M  V30 3666 H 342.407 -0.664118 0.126189 0
M  V30 3667 H 344.961 -1.79385 1.00051 0
M  V30 3668 H 343.191 -3.8285 -0.544314 0
M  V30 3669 H 344.88 -4.05447 -0.191626 0
M  V30 3670 H 345.646 -4.27983 2.28156 0
M  V30 3671 H 341.525 -4.48354 1.07239 0
M  V30 3672 H 345.069 -5.41656 4.39607 0
M  V30 3673 H 340.966 -5.61846 3.17803 0
M  V30 3674 H 341.734 -6.40146 5.10054 0
M  V30 3675 N 344.397 -0.483516 -1.5 0
M  V30 3676 C 345.307 0.309172 -2.32554 0
M  V30 3677 C 346.323 0.984159 -1.43493 0
M  V30 3678 O 347.499 0.969399 -1.76535 0
M  V30 3679 C 344.564 1.36979 -3.18493 0
M  V30 3680 C 343.625 0.710095 -4.23387 0
M  V30 3681 C 342.858 1.72018 -5.05218 0
M  V30 3682 O 343.081 2.94813 -4.88305 0
M  V30 3683 O 342.015 1.28515 -5.8802 0
M  V30 3684 H 345.841 -0.366064 -3.01486 0
M  V30 3685 H 343.426 -0.24514 -1.47375 0
M  V30 3686 H 345.308 1.98385 -3.71781 0
M  V30 3687 H 343.983 2.02828 -2.52275 0
M  V30 3688 H 342.89 0.0567539 -3.74057 0
M  V30 3689 H 344.223 0.0943557 -4.9211 0
M  V30 3690 N 345.875 1.56104 -0.216619 0
M  V30 3691 C 347.152 1.89988 0.465165 0
M  V30 3692 C 347.532 1.13326 1.78102 0
M  V30 3693 O 346.88 0.241033 2.27225 0
M  V30 3694 C 347.09 3.42646 0.662939 0
M  V30 3695 C 348.438 4.13311 0.972602 0
M  V30 3696 O 349.462 3.48217 0.749901 0
M  V30 3697 O 348.321 5.28396 1.39499 0
M  V30 3698 H 345.415 0.78979 0.245276 0
M  V30 3699 H 347.961 1.67721 -0.258436 0
M  V30 3700 H 346.733 3.90399 -0.26543 0
M  V30 3701 H 346.356 3.70677 1.43821 0
M  V30 3702 N 347.353 -0.0568162 1.57498 0
M  V30 3703 C 348.593 -0.758273 1.89815 0
M  V30 3704 C 348.957 -1.73978 0.812132 0
M  V30 3705 O 350.158 -2.48744 1.01881 0
M  V30 3706 C 348.429 -1.43465 3.27342 0
M  V30 3707 S 349.988 -2.1691 3.81439 0
M  V30 3708 H 346.806 -0.251836 0.664906 0
M  V30 3709 H 349.408 -0.0137997 1.95495 0
M  V30 3710 H 348.112 -0.706693 4.0427 0
M  V30 3711 H 347.643 -2.21825 3.24896 0
M  V30 3712 H 349.658 -3.43658 3.5793 0
M  V30 3713 N 348.832 -1.54138 -0.328536 0
M  V30 3714 C 350.057 -1.76378 -1.09112 0
M  V30 3715 C 350.482 -0.508596 -1.81094 0
M  V30 3716 O 349.84 0.539598 -1.73084 0
M  V30 3717 C 349.888 -2.95358 -2.06872 0
M  V30 3718 O 348.992 -2.66556 -3.14677 0
M  V30 3719 H 348.333 -0.584614 -0.314838 0
M  V30 3720 H 350.863 -2.01146 -0.374348 0
M  V30 3721 H 350.873 -3.22566 -2.4983 0
M  V30 3722 H 349.548 -3.86385 -1.5388 0
M  V30 3723 H 348.125 -2.50282 -2.7643 0
M  V30 3724 N 350.31 0.590341 -1.46126 0
M  V30 3725 C 351.558 1.34616 -1.50742 0
M  V30 3726 C 351.879 1.94363 -0.157486 0
M  V30 3727 O 351.149 1.78136 0.815136 0
M  V30 3728 H 349.729 0.499789 -0.555175 0
M  V30 3729 H 352.391 0.691953 -1.82203 0
M  V30 3730 H 351.487 2.15678 -2.25587 0
M  V30 3731 N 351.788 1.33704 0.83433 0
M  V30 3732 C 352.718 1.26967 1.95963 0
M  V30 3733 C 353.699 0.149337 1.69443 0
M  V30 3734 O 354.884 0.339852 1.91203 0
M  V30 3735 C 352.014 1.01275 3.32206 0
M  V30 3736 C 350.968 2.09652 3.73136 0
M  V30 3737 C 350.294 1.69166 5.07235 0
M  V30 3738 C 351.594 3.51372 3.86439 0
M  V30 3739 H 353.288 2.2112 2.01857 0
M  V30 3740 H 350.834 1.06447 0.969793 0
M  V30 3741 H 352.787 0.952106 4.10503 0
M  V30 3742 H 351.511 0.0356203 3.26581 0
M  V30 3743 H 350.17 2.14766 2.97104 0
M  V30 3744 H 349.818 0.701437 4.98085 0
M  V30 3745 H 349.518 2.41694 5.35591 0
M  V30 3746 H 351.042 1.64576 5.88003 0
M  V30 3747 H 352.456 3.48734 4.55036 0
M  V30 3748 H 350.853 4.22425 4.26236 0
M  V30 3749 H 351.923 3.89546 2.88759 0
M  V30 3750 N 353.266 -1.05314 1.17247 0
M  V30 3751 C 354.512 -1.78557 0.961513 0
M  V30 3752 C 354.845 -1.87419 -0.508697 0
M  V30 3753 O 354.12 -1.37307 -1.37757 0
M  V30 3754 C 354.403 -3.22514 1.60176 0
M  V30 3755 C 354.256 -3.21673 3.14399 0
M  V30 3756 C 355.575 -4.20318 1.30463 0
M  V30 3757 H 352.694 -0.6482 0.350723 0
M  V30 3758 H 355.336 -1.23102 1.44727 0
M  V30 3759 H 353.486 -3.69867 1.18871 0
M  V30 3760 H 355.158 -2.82405 3.64753 0
M  V30 3761 H 353.401 -2.60048 3.47214 0
M  V30 3762 H 354.072 -4.23271 3.54324 0
M  V30 3763 H 356.548 -3.81454 1.66229 0
M  V30 3764 H 355.424 -5.19289 1.77848 0
M  V30 3765 H 355.685 -4.41526 0.22521 0
M  V30 3766 N 354.744 -0.972509 -1.24016 0
M  V30 3767 C 355.969 -0.654417 -1.96805 0
M  V30 3768 C 356.394 0.770398 -1.716 0
M  V30 3769 O 355.752 1.52361 -0.982647 0
M  V30 3770 C 355.8 -0.941031 -3.48105 0
M  V30 3771 O 354.904 -0.0289472 -4.1239 0
M  V30 3772 H 354.245 -0.24692 -0.616382 0
M  V30 3773 H 356.775 -1.30396 -1.57664 0
M  V30 3774 H 356.785 -0.87452 -3.98517 0
M  V30 3775 H 355.46 -1.97939 -3.65777 0
M  V30 3776 H 354.037 -0.149192 -3.72601 0
M  V30 3777 N 356.222 1.38976 -0.743202 0
M  V30 3778 C 357.469 2.00343 -0.294752 0
M  V30 3779 C 357.797 1.58983 1.12047 0
M  V30 3780 O 357.052 0.813809 1.77977 0
M  V30 3781 C 357.351 3.55647 -0.353517 0
M  V30 3782 C 357.017 4.16685 -1.72292 0
M  V30 3783 C 355.679 4.3307 -2.09771 0
M  V30 3784 C 358.031 4.50464 -2.62168 0
M  V30 3785 C 355.359 4.80526 -3.36618 0
M  V30 3786 C 357.711 4.99332 -3.88395 0
M  V30 3787 C 356.375 5.13924 -4.25956 0
M  V30 3788 H 355.645 0.733108 -0.107857 0
M  V30 3789 H 358.292 1.6618 -0.951651 0
M  V30 3790 H 356.597 3.89884 0.386954 0
M  V30 3791 H 358.294 4.00998 0.0117269 0
M  V30 3792 H 354.884 4.04339 -1.42155 0
M  V30 3793 H 359.068 4.37416 -2.3448 0
M  V30 3794 H 354.324 4.90008 -3.65653 0
M  V30 3795 H 358.498 5.2444 -4.58187 0
M  V30 3796 H 356.125 5.50457 -5.2431 0
M  V30 3797 N 357.7 0.491464 1.49741 0
M  V30 3798 C 358.928 -0.0535151 2.06831 0
M  V30 3799 C 359.343 -1.31683 1.35296 0
M  V30 3800 O 358.7 -1.77402 0.42836 0
M  V30 3801 C 358.751 -0.320835 3.60073 0
M  V30 3802 O 358.472 0.892394 4.28915 0
M  V30 3803 C 359.973 -0.910519 4.33848 0
M  V30 3804 H 357.193 0.0161909 0.670805 0
M  V30 3805 H 359.737 0.68609 1.92647 0
M  V30 3806 H 357.892 -1.0104 3.73991 0
M  V30 3807 H 358.306 0.649401 5.20464 0
M  V30 3808 H 359.78 -1.04721 5.41976 0
M  V30 3809 H 360.257 -1.90589 3.95692 0
M  V30 3810 H 360.863 -0.258712 4.24512 0
M  V30 3811 N 359.178 -1.55987 0.224894 0
M  V30 3812 C 360.426 -1.97998 -0.405099 0
M  V30 3813 C 360.747 -1.11387 -1.60056 0
M  V30 3814 O 360.017 -0.191645 -1.9496 0
M  V30 3815 H 358.597 -0.731235 -0.152658 0
M  V30 3816 H 361.259 -1.92279 0.318567 0
M  V30 3817 H 360.355 -3.03463 -0.729167 0
M  V30 3818 N 360.656 0.0484629 -1.57525 0
M  V30 3819 C 361.903 0.743125 -1.88372 0
M  V30 3820 C 362.231 1.76383 -0.819715 0
M  V30 3821 O 361.486 1.94855 0.181659 0
M  V30 3822 C 361.785 1.46632 -3.25935 0
M  V30 3823 C 361.451 0.583427 -4.4711 0
M  V30 3824 C 360.113 0.340191 -4.79996 0
M  V30 3825 C 362.465 -0.0273345 -5.21193 0
M  V30 3826 C 359.793 -0.522903 -5.84365 0
M  V30 3827 C 362.145 -0.878017 -6.26477 0
M  V30 3828 C 360.809 -1.1309 -6.5785 0
M  V30 3829 H 360.079 0.271929 -0.689301 0
M  V30 3830 H 362.726 0.00336166 -1.915 0
M  V30 3831 H 361.031 2.2789 -3.18706 0
M  V30 3832 H 362.728 2.00902 -3.47044 0
M  V30 3833 H 359.318 0.783151 -4.21384 0
M  V30 3834 H 363.502 0.147654 -4.9608 0
M  V30 3835 H 358.758 -0.727335 -6.07058 0
M  V30 3836 H 362.932 -1.35789 -6.83033 0
M  V30 3837 H 360.559 -1.80144 -7.38547 0
M  V30 3838 N 362.134 1.5431 0.320358 0
M  V30 3839 C 363.383 1.7188 1.05546 0
M  V30 3840 C 363.696 0.501143 1.89071 0
M  V30 3841 O 364.902 0.558258 2.65699 0
M  V30 3842 C 363.358 3.04025 1.92605 0
M  V30 3843 C 362.966 4.33207 1.14176 0
M  V30 3844 C 364.71 3.30959 2.65832 0
M  V30 3845 C 362.617 5.56412 2.00399 0
M  V30 3846 H 361.547 0.640547 0.397763 0
M  V30 3847 H 364.198 1.80802 0.313522 0
M  V30 3848 H 362.58 2.89019 2.7071 0
M  V30 3849 H 363.754 4.58989 0.40819 0
M  V30 3850 H 362.069 4.13062 0.526165 0
M  V30 3851 H 364.666 4.20203 3.30656 0
M  V30 3852 H 365.009 2.48979 3.33639 0
M  V30 3853 H 365.542 3.46847 1.94787 0
M  V30 3854 H 362.281 6.41004 1.37094 0
M  V30 3855 H 361.801 5.34844 2.7148 0
M  V30 3856 H 363.48 5.92938 2.58908 0
M  V30 3857 N 363.613 -0.582584 1.46437 0
M  V30 3858 C 364.56 -1.69164 1.5701 0
M  V30 3859 C 365.53 -1.60847 0.414403 0
M  V30 3860 O 366.715 -1.80058 0.631171 0
M  V30 3861 C 363.855 -3.075 1.56646 0
M  V30 3862 C 362.968 -3.2644 2.82951 0
M  V30 3863 C 362.103 -4.55026 2.7409 0
M  V30 3864 C 361.142 -4.6731 3.95333 0
M  V30 3865 N 360.279 -5.87221 3.84858 0
M  V30 3866 H 365.119 -1.59464 2.51744 0
M  V30 3867 H 362.656 -0.777186 1.24893 0
M  V30 3868 H 364.614 -3.8757 1.5442 0
M  V30 3869 H 363.244 -3.16096 0.654439 0
M  V30 3870 H 362.296 -2.39974 2.95155 0
M  V30 3871 H 363.608 -3.31385 3.72808 0
M  V30 3872 H 362.762 -5.43324 2.6997 0
M  V30 3873 H 361.501 -4.52519 1.81873 0
M  V30 3874 H 360.506 -3.77429 3.99784 0
M  V30 3875 H 361.731 -4.71595 4.88646 0
M  V30 3876 H 359.677 -5.85712 2.95427 0
M  V30 3877 H 359.594 -5.93435 4.6837 0
M  V30 3878 H 360.862 -6.7795 3.84713 0
M  V30 3879 N 365.091 -1.34144 -0.827227 0
M  V30 3880 C 366.023 -1.21206 -1.9453 0
M  V30 3881 C 367.036 -0.140176 -1.62195 0
M  V30 3882 O 368.225 -0.391647 -1.7415 0
M  V30 3883 C 365.325 -0.839141 -3.28347 0
M  V30 3884 C 364.498 -2.0051 -3.88734 0
M  V30 3885 C 363.557 -1.61128 -5.00923 0
M  V30 3886 O 362.583 -2.32726 -5.19449 0
M  V30 3887 N 363.785 -0.522958 -5.7814 0
M  V30 3888 H 366.55 -2.17525 -2.06162 0
M  V30 3889 H 364.111 -1.27043 -1.00358 0
M  V30 3890 H 366.103 -0.557556 -4.00841 0
M  V30 3891 H 364.673 0.0337293 -3.12582 0
M  V30 3892 H 363.893 -2.45166 -3.08686 0
M  V30 3893 H 365.181 -2.78498 -4.25812 0
M  V30 3894 H 364.579 0.0723518 -5.65654 0
M  V30 3895 H 363.136 -0.301089 -6.51104 0
M  V30 3896 N 366.569 1.04691 -1.17803 0
M  V30 3897 C 367.818 1.77176 -0.963931 0
M  V30 3898 C 368.131 1.88888 0.508015 0
M  V30 3899 O 369.337 2.58164 0.840465 0
M  V30 3900 C 367.793 3.18518 -1.67555 0
M  V30 3901 C 367.401 3.14919 -3.18637 0
M  V30 3902 C 369.145 3.95424 -1.54402 0
M  V30 3903 C 367.052 4.51081 -3.82466 0
M  V30 3904 H 365.982 0.664116 -0.357023 0
M  V30 3905 H 368.633 1.17303 -1.4111 0
M  V30 3906 H 367.015 3.78748 -1.15613 0
M  V30 3907 H 368.189 2.64178 -3.77554 0
M  V30 3908 H 366.504 2.51512 -3.31859 0
M  V30 3909 H 369.101 4.96106 -1.99456 0
M  V30 3910 H 369.444 4.13343 -0.495329 0
M  V30 3911 H 369.977 3.41754 -2.0359 0
M  V30 3912 H 366.716 4.38368 -4.87354 0
M  V30 3913 H 366.236 5.01951 -3.28337 0
M  V30 3914 H 367.915 5.2001 -3.84965 0
M  V30 3915 N 368.047 0.979072 1.23499 0
M  V30 3916 C 368.995 0.510604 2.26926 0
M  V30 3917 C 369.989 -0.431691 1.63807 0
M  V30 3918 O 371.195 -0.30573 1.77385 0
M  V30 3919 H 367.57 0.146688 0.737554 0
M  V30 3920 H 369.541 1.39466 2.63803 0
M  V30 3921 C 368.29 -0.172658 3.47271 0
M  V30 3922 H 367.613 0.543331 3.96091 0
M  V30 3923 H 369.053 -0.464101 4.21452 0
M  V30 3924 C 367.512 -1.40345 3.06276 0
M  V30 3925 O 368.042 -2.49978 3.14442 0
M  V30 3926 N 366.248 -1.27362 2.61203 0
M  V30 3927 H 365.795 -0.381584 2.54758 0
M  V30 3928 H 365.753 -2.09822 2.34141 0
M  V30 3929 N 369.525 -1.3858 0.750561 0
M  V30 3930 C 370.455 -2.33102 0.136237 0
M  V30 3931 C 371.436 -1.54713 -0.706965 0
M  V30 3932 O 372.621 -1.83043 -0.648769 0
M  V30 3933 C 369.751 -3.38882 -0.760017 0
M  V30 3934 C 368.705 -4.27995 -0.0197785 0
M  V30 3935 C 368.031 -5.24605 -1.03408 0
M  V30 3936 C 369.331 -5.09554 1.14684 0
M  V30 3937 H 371.025 -2.84726 0.925822 0
M  V30 3938 H 368.571 -1.36898 0.446654 0
M  V30 3939 H 370.524 -4.0397 -1.19943 0
M  V30 3940 H 369.248 -2.85734 -1.58189 0
M  V30 3941 H 367.907 -3.64409 0.400184 0
M  V30 3942 H 367.555 -4.67746 -1.84994 0
M  V30 3943 H 367.255 -5.85081 -0.543464 0
M  V30 3944 H 368.779 -5.9257 -1.47288 0
M  V30 3945 H 370.193 -5.67899 0.785118 0
M  V30 3946 H 368.59 -5.7925 1.56812 0
M  V30 3947 H 369.66 -4.4347 1.96118 0
M  V30 3948 N 371.003 -0.499398 -1.49478 0
M  V30 3949 C 372.231 0.0425456 -2.06856 0
M  V30 3950 C 372.646 1.30964 -1.35992 0
M  V30 3951 O 372.003 1.77172 -0.437762 0
M  V30 3952 C 372.054 0.301735 -3.60239 0
M  V30 3953 O 371.775 -0.915127 -4.28436 0
M  V30 3954 C 373.276 0.887499 -4.34325 0
M  V30 3955 H 370.496 -0.0197482 -0.670709 0
M  V30 3956 H 373.04 -0.696297 -1.92281 0
M  V30 3957 H 371.195 0.990556 -3.74522 0
M  V30 3958 H 371.609 -0.676993 -5.20113 0
M  V30 3959 H 373.083 1.01845 -5.42523 0
M  V30 3960 H 373.56 1.88488 -3.96698 0
M  V30 3961 H 374.166 0.236196 -4.24644 0
M  V30 3962 N 372.481 1.55866 -0.233164 0
M  V30 3963 C 373.444 2.1953 0.658715 0
M  V30 3964 C 374.444 1.16053 1.11303 0
M  V30 3965 O 375.634 1.41218 1.01996 0
M  V30 3966 C 372.766 2.82791 1.90373 0
M  V30 3967 H 373.959 2.99721 0.10347 0
M  V30 3968 H 371.512 1.56291 0.0164245 0
M  V30 3969 H 372.247 2.06501 2.50056 0
M  V30 3970 H 372.032 3.58578 1.58632 0
M  V30 3971 H 373.522 3.31556 2.53891 0
M  V30 3972 N 373.959 -0.0401083 1.57549 0
M  V30 3973 C 375.375 -0.395556 1.54621 0
M  V30 3974 C 375.575 -1.77281 0.957799 0
M  V30 3975 O 374.631 -2.45888 0.574031 0
M  V30 3976 C 375.944 -0.307535 2.99123 0
M  V30 3977 C 377.492 -0.385425 3.10618 0
M  V30 3978 C 377.967 -0.326973 4.56831 0
M  V30 3979 N 379.458 -0.386102 4.61588 0
M  V30 3980 C 380.193 -0.363591 5.72246 0
M  V30 3981 N 379.689 -0.29402 6.92176 0
M  V30 3982 N 381.482 -0.412503 5.60584 0
M  V30 3983 H 373.633 0.861325 1.94152 0
M  V30 3984 H 375.896 0.326445 0.890021 0
M  V30 3985 H 375.602 0.638461 3.45856 0
M  V30 3986 H 375.476 -1.10552 3.60636 0
M  V30 3987 H 377.863 -1.32185 2.63839 0
M  V30 3988 H 377.944 0.44171 2.51957 0
M  V30 3989 H 377.588 0.605738 5.04275 0
M  V30 3990 H 377.518 -1.17207 5.13391 0
M  V30 3991 H 380.009 -0.442832 3.75296 0
M  V30 3992 H 380.322 -0.28164 7.72287 0
M  V30 3993 H 378.667 -0.260232 6.94513 0
M  V30 3994 H 381.858 -0.464769 4.65787 0
M  V30 3995 H 382.031 -0.391492 6.46816 0
M  V30 3996 N 375.437 -1.54477 -0.31217 0
M  V30 3997 C 376.347 -1.87695 -1.4074 0
M  V30 3998 C 377.363 -0.769975 -1.56036 0
M  V30 3999 O 378.539 -1.06537 -1.70915 0
M  V30 4000 C 375.604 -2.10755 -2.75287 0
M  V30 4001 C 374.665 -3.34514 -2.69071 0
M  V30 4002 C 373.898 -3.56465 -3.97201 0
M  V30 4003 O 374.121 -2.81637 -4.96021 0
M  V30 4004 O 373.055 -4.49964 -3.9977 0
M  V30 4005 H 376.881 -2.80849 -1.15574 0
M  V30 4006 H 374.466 -1.40526 -0.507228 0
M  V30 4007 H 376.348 -2.27188 -3.54913 0
M  V30 4008 H 375.023 -1.20788 -3.0032 0
M  V30 4009 H 373.93 -3.23456 -1.87955 0
M  V30 4010 H 375.263 -4.24575 -2.48992 0
M  V30 4011 N 376.915 0.57481 -1.46744 0
M  V30 4012 C 377.878 1.66533 -1.57478 0
M  V30 4013 C 378.878 1.54338 -0.451263 0
M  V30 4014 O 380.068 1.58814 -0.715813 0
M  V30 4015 C 377.2 3.05999 -1.50259 0
M  V30 4016 H 378.393 1.58372 -2.54673 0
M  V30 4017 H 375.946 0.793301 -1.34672 0
M  V30 4018 H 376.681 3.19709 -0.543725 0
M  V30 4019 H 376.466 3.16259 -2.31781 0
M  V30 4020 H 377.956 3.8537 -1.60872 0
M  V30 4021 N 378.394 1.34581 0.820102 0
M  V30 4022 C 379.643 1.26437 1.57151 0
M  V30 4023 C 379.956 -0.163111 1.94919 0
M  V30 4024 O 381.162 -0.366722 2.69012 0
M  V30 4025 C 379.618 2.21658 2.83541 0
M  V30 4026 C 379.226 3.69679 2.53065 0
M  V30 4027 C 380.97 2.22428 3.61561 0
M  V30 4028 C 378.877 4.56761 3.75664 0
M  V30 4029 H 377.807 0.469707 0.589823 0
M  V30 4030 H 380.458 1.59763 0.902656 0
M  V30 4031 H 378.84 1.81287 3.52067 0
M  V30 4032 H 380.014 4.18605 1.92631 0
M  V30 4033 H 378.329 3.71384 1.88316 0
M  V30 4034 H 380.926 2.8471 4.52597 0
M  V30 4035 H 381.269 1.22434 3.97889 0
M  V30 4036 H 381.802 2.61259 2.99981 0
M  V30 4037 H 378.541 5.57702 3.44454 0
M  V30 4038 H 378.061 4.12568 4.35371 0
M  V30 4039 H 379.74 4.71509 4.43044 0
M  V30 4040 N 379.872 -1.04064 1.18357 0
M  V30 4041 C 380.802 -2.14001 0.934113 0
M  V30 4042 C 381.783 -1.69616 -0.128186 0
M  V30 4043 O 382.968 -1.94185 0.0244093 0
M  V30 4044 C 380.098 -3.44253 0.459066 0
M  V30 4045 C 379.052 -4.02261 1.46185 0
M  V30 4046 C 378.378 -5.27992 0.844322 0
M  V30 4047 C 379.678 -4.38432 2.83856 0
M  V30 4048 H 381.372 -2.35127 1.85352 0
M  V30 4049 H 378.918 -1.12998 0.892604 0
M  V30 4050 H 380.871 -4.20522 0.271907 0
M  V30 4051 H 379.595 -3.22813 -0.495912 0
M  V30 4052 H 378.254 -3.28074 1.63595 0
M  V30 4053 H 377.902 -5.02862 -0.117845 0
M  V30 4054 H 377.602 -5.67765 1.51384 0
M  V30 4055 H 379.126 -6.06938 0.667693 0
M  V30 4056 H 380.54 -5.05688 2.70098 0
M  V30 4057 H 378.937 -4.89254 3.47491 0
M  V30 4058 H 380.007 -3.4826 3.37406 0
M  V30 4059 N 381.35 -0.985608 -1.22978 0
M  V30 4060 C 382.58 -0.674603 -1.95276 0
M  V30 4061 C 382.988 0.763483 -1.73111 0
M  V30 4062 O 382.331 1.52601 -1.02268 0
M  V30 4063 C 382.393 -0.891597 -3.48268 0
M  V30 4064 C 382.057 -2.31275 -3.94158 0
M  V30 4065 C 383.054 -3.29179 -4.02415 0
M  V30 4066 C 380.739 -2.64524 -4.27004 0
M  V30 4067 C 382.733 -4.58407 -4.42879 0
M  V30 4068 C 380.42 -3.93974 -4.67149 0
M  V30 4069 C 381.418 -4.90727 -4.75053 0
M  V30 4070 O 381.106 -6.17865 -5.14294 0
M  V30 4071 H 380.838 -0.249251 -0.628371 0
M  V30 4072 H 383.392 -1.32106 -1.5728 0
M  V30 4073 H 381.622 -0.187962 -3.86243 0
M  V30 4074 H 383.311 -0.576957 -4.01779 0
M  V30 4075 H 384.077 -3.04823 -3.77237 0
M  V30 4076 H 379.956 -1.89923 -4.2006 0
M  V30 4077 H 383.5 -5.33926 -4.48964 0
M  V30 4078 H 379.397 -4.18122 -4.91777 0
M  V30 4079 H 380.165 -6.21694 -5.32389 0
M  V30 4080 N 382.828 1.3818 -0.7579 0
M  V30 4081 C 384.075 2.00019 -0.315985 0
M  V30 4082 C 384.403 1.60163 1.10355 0
M  V30 4083 O 383.658 0.83264 1.77103 0
M  V30 4084 C 383.957 3.55252 -0.391218 0
M  V30 4085 C 383.623 4.14834 -1.76702 0
M  V30 4086 C 382.285 4.30821 -2.14353 0
M  V30 4087 C 384.637 4.47658 -2.66931 0
M  V30 4088 C 381.965 4.76928 -3.41696 0
M  V30 4089 C 384.317 4.95184 -3.93669 0
M  V30 4090 C 382.981 5.09377 -4.31383 0
M  V30 4091 H 382.251 0.731923 -0.115627 0
M  V30 4092 H 384.898 1.65161 -0.969223 0
M  V30 4093 H 383.203 3.90273 0.34558 0
M  V30 4094 H 384.9 4.00988 -0.030805 0
M  V30 4095 H 381.49 4.02808 -1.46435 0
M  V30 4096 H 385.674 4.34904 -2.39106 0
M  V30 4097 H 380.93 4.86103 -3.70829 0
M  V30 4098 H 385.104 5.19551 -4.63724 0
M  V30 4099 H 382.731 5.44865 -5.30119 0
M  V30 4100 N 384.306 0.507319 1.49211 0
M  V30 4101 C 385.553 -0.0349529 2.0247 0
M  V30 4102 C 385.881 -1.36409 1.38647 0
M  V30 4103 O 385.136 -1.88841 0.513566 0
M  V30 4104 C 385.435 -0.229513 3.56662 0
M  V30 4105 C 385.101 1.02241 4.39156 0
M  V30 4106 C 383.763 1.36557 4.61417 0
M  V30 4107 C 386.115 1.85428 4.871 0
M  V30 4108 C 383.443 2.53999 5.28868 0
M  V30 4109 C 385.795 3.02028 5.55843 0
M  V30 4110 C 384.459 3.36717 5.76349 0
M  V30 4111 H 383.729 -0.0127902 0.74089 0
M  V30 4112 H 386.376 0.668756 1.79443 0
M  V30 4113 H 384.681 -1.0158 3.78403 0
M  V30 4114 H 386.378 -0.663641 3.9547 0
M  V30 4115 H 382.968 0.745124 4.22073 0
M  V30 4116 H 387.152 1.6023 4.69723 0
M  V30 4117 H 382.408 2.81105 5.42946 0
M  V30 4118 H 386.582 3.66808 5.91967 0
M  V30 4119 H 384.209 4.27821 6.28389 0
M  V30 4120 N 385.784 -1.5574 0.241426 0
M  V30 4121 C 386.734 -2.17803 -0.674233 0
M  V30 4122 C 387.718 -1.13225 -1.14319 0
M  V30 4123 O 388.91 -1.39153 -1.09387 0
M  V30 4124 C 386.039 -2.87682 -1.87333 0
M  V30 4125 C 385.125 -3.99509 -1.42313 0
M  V30 4126 N 385.516 -5.01115 -0.686798 0
M  V30 4127 C 383.814 -4.11964 -1.70885 0
M  V30 4128 C 384.515 -5.79922 -0.454456 0
M  V30 4129 N 383.491 -5.34001 -1.01705 0
M  V30 4130 H 387.293 -2.93718 -0.103447 0
M  V30 4131 H 384.807 -1.62342 0.0435095 0
M  V30 4132 H 386.804 -3.3057 -2.54026 0
M  V30 4133 H 385.464 -2.13269 -2.4484 0
M  V30 4134 H 386.475 -5.16799 -0.337459 0
M  V30 4135 H 383.152 -3.48718 -2.2957 0
M  V30 4136 H 384.542 -6.71768 0.132992 0
M  V30 4137 N 387.262 0.0317525 -1.57568 0
M  V30 4138 C 388.209 1.0332 -2.06382 0
M  V30 4139 C 389.179 1.36082 -0.952414 0
M  V30 4140 O 390.364 1.46466 -1.2228 0
M  V30 4141 C 387.504 2.32989 -2.54578 0
M  V30 4142 C 386.617 2.0641 -3.79498 0
M  V30 4143 C 385.752 3.2993 -4.16317 0
M  V30 4144 C 384.791 2.98893 -5.34162 0
M  V30 4145 N 383.928 4.14857 -5.66426 0
M  V30 4146 H 388.768 0.609982 -2.9169 0
M  V30 4147 H 386.305 0.289573 -1.44222 0
M  V30 4148 H 388.263 3.0875 -2.80587 0
M  V30 4149 H 386.893 2.73039 -1.7219 0
M  V30 4150 H 385.945 1.21158 -3.6059 0
M  V30 4151 H 387.257 1.79513 -4.65378 0
M  V30 4152 H 386.411 4.1406 -4.4344 0
M  V30 4153 H 385.15 3.59938 -3.29083 0
M  V30 4154 H 384.155 2.13164 -5.06795 0
M  V30 4155 H 385.38 2.70165 -6.23047 0
M  V30 4156 H 383.326 4.44821 -4.82151 0
M  V30 4157 H 383.243 3.91374 -6.4681 0
M  V30 4158 H 384.511 4.99868 -5.98124 0
M  V30 4159 N 388.74 1.54641 0.303973 0
M  V30 4160 C 389.688 1.86137 1.39484 0
M  V30 4161 C 390.682 0.734854 1.52631 0
M  V30 4162 O 391.888 0.918803 1.54784 0
M  V30 4163 H 388.263 0.590324 0.465856 0
M  V30 4164 H 390.234 2.77324 1.10154 0
M  V30 4165 C 388.983 2.12274 2.75382 0
M  V30 4166 H 388.306 2.98429 2.66046 0
M  V30 4167 H 389.746 2.38254 3.5073 0
M  V30 4168 C 388.205 0.920365 3.24085 0
M  V30 4169 O 388.735 0.139377 4.01458 0
M  V30 4170 N 386.941 0.726566 2.81371 0
M  V30 4171 H 386.488 1.36332 2.18567 0
M  V30 4172 H 386.446 -0.0763799 3.14307 0
M  V30 4173 N 390.218 -0.567019 1.47046 0
M  V30 4174 C 391.465 -1.32462 1.53167 0
M  V30 4175 C 391.793 -1.93571 0.189841 0
M  V30 4176 O 391.048 -1.77865 -0.816243 0
M  V30 4177 C 391.347 -2.4623 2.59047 0
M  V30 4178 C 391.013 -2.03014 4.02612 0
M  V30 4179 C 389.675 -1.90944 4.41694 0
M  V30 4180 C 392.027 -1.69895 4.92732 0
M  V30 4181 C 389.355 -1.44035 5.68745 0
M  V30 4182 C 391.707 -1.2446 6.20236 0
M  V30 4183 C 390.371 -1.10979 6.5821 0
M  V30 4184 H 389.641 -0.484713 0.560477 0
M  V30 4185 H 392.288 -0.636888 1.80599 0
M  V30 4186 H 390.593 -3.20517 2.25335 0
M  V30 4187 H 392.29 -3.04427 2.61008 0
M  V30 4188 H 388.88 -2.13348 3.71726 0
M  V30 4189 H 393.064 -1.78098 4.63244 0
M  V30 4190 H 388.32 -1.32254 5.96925 0
M  V30 4191 H 392.494 -0.978924 6.89485 0
M  V30 4192 H 390.121 -0.744078 7.5655 0
M  V30 4193 N 391.696 -1.35014 -0.812953 0
M  V30 4194 C 392.606 -1.2951 -1.95613 0
M  V30 4195 C 393.622 -0.20107 -1.72834 0
M  V30 4196 O 394.798 -0.42932 -1.96771 0
M  V30 4197 C 391.863 -1.06033 -3.30088 0
M  V30 4198 C 390.924 -2.24688 -3.65805 0
M  V30 4199 C 390.157 -2.02322 -4.93864 0
M  V30 4200 O 390.38 -0.986464 -5.61805 0
M  V30 4201 O 389.314 -2.89525 -5.27692 0
M  V30 4202 H 393.14 -2.25705 -2.03202 0
M  V30 4203 H 390.725 -1.15321 -0.949811 0
M  V30 4204 H 392.607 -0.94763 -4.10607 0
M  V30 4205 H 391.282 -0.128852 -3.23443 0
M  V30 4206 H 390.189 -2.41521 -2.85689 0
M  V30 4207 H 391.522 -3.16261 -3.77147 0
M  V30 4208 N 393.175 1.03435 -1.18907 0
M  V30 4209 C 394.085 2.15075 -0.937015 0
M  V30 4210 C 395.101 1.73706 0.101085 0
M  V30 4211 O 396.277 2.01232 -0.0822948 0
M  V30 4212 C 393.342 3.43458 -0.473057 0
M  V30 4213 C 392.403 3.99172 -1.57989 0
M  V30 4214 C 391.636 5.21427 -1.13797 0
M  V30 4215 O 391.859 5.704 0.000725941 0
M  V30 4216 O 390.793 5.69837 -1.9383 0
M  V30 4217 H 394.619 2.39198 -1.87131 0
M  V30 4218 H 392.204 1.13506 -0.971427 0
M  V30 4219 H 394.086 4.20811 -0.222702 0
M  V30 4220 H 392.761 3.20793 0.432869 0
M  V30 4221 H 391.668 3.23178 -1.88433 0
M  V30 4222 H 393.001 4.2619 -2.46217 0
M  V30 4223 N 394.653 0.992116 1.22453 0
M  V30 4224 C 395.563 0.55065 2.28046 0
M  V30 4225 C 396.579 -0.400189 1.69335 0
M  V30 4226 O 397.755 -0.267215 1.99619 0
M  V30 4227 C 394.82 -0.128496 3.46462 0
M  V30 4228 C 393.881 0.865208 4.20491 0
M  V30 4229 C 393.114 0.218377 5.33253 0
M  V30 4230 O 393.337 -0.987894 5.6178 0
M  V30 4231 O 392.271 0.922845 5.94783 0
M  V30 4232 H 396.097 1.4291 2.67975 0
M  V30 4233 H 393.682 0.760326 1.28606 0
M  V30 4234 H 395.564 -0.508947 4.18315 0
M  V30 4235 H 394.239 -0.981526 3.0846 0
M  V30 4236 H 393.146 1.29658 3.50913 0
M  V30 4237 H 394.479 1.68741 4.62371 0
M  V30 4238 N 396.131 -1.37776 0.765217 0
M  V30 4239 C 397.38 -1.99092 0.323307 0
M  V30 4240 C 397.693 -1.61434 -1.10446 0
M  V30 4241 O 398.899 -2.15805 -1.64743 0
M  V30 4242 C 397.355 -3.56019 0.527098 0
M  V30 4243 C 396.963 -4.0262 1.96471 0
M  V30 4244 C 398.707 -4.2424 0.148483 0
M  V30 4245 C 396.614 -5.52233 2.11644 0
M  V30 4246 H 395.544 -0.744846 0.117137 0
M  V30 4247 H 398.195 -1.57391 0.943417 0
M  V30 4248 H 396.577 -3.95667 -0.162372 0
M  V30 4249 H 397.751 -3.74234 2.68859 0
M  V30 4250 H 396.066 -3.47161 2.29931 0
M  V30 4251 H 398.663 -5.34159 0.240456 0
M  V30 4252 H 399.006 -4.06446 -0.900422 0
M  V30 4253 H 399.539 -3.89872 0.79025 0
M  V30 4254 H 396.278 -5.74945 3.1483 0
M  V30 4255 H 395.798 -5.82324 1.4373 0
M  V30 4256 H 397.477 -6.18106 1.91193 0
M  V30 4257 N 397.609 -0.515225 -1.4894 0
M  V30 4258 C 399.025 -0.172099 -1.58669 0
M  V30 4259 C 399.225 1.32405 -1.51892 0
M  V30 4260 O 398.281 2.10116 -1.40027 0
M  V30 4261 C 399.594 -0.761533 -2.90897 0
M  V30 4262 C 401.142 -0.728926 -3.04394 0
M  V30 4263 C 401.617 -1.29667 -4.39261 0
M  V30 4264 N 403.108 -1.25799 -4.4579 0
M  V30 4265 C 403.843 -1.66733 -5.48623 0
M  V30 4266 N 403.339 -2.15327 -6.58488 0
M  V30 4267 N 405.132 -1.58061 -5.39419 0
M  V30 4268 H 397.283 -1.48778 -1.51588 0
M  V30 4269 H 399.546 -0.617968 -0.718901 0
M  V30 4270 H 399.252 -1.81136 -3.01468 0
M  V30 4271 H 399.126 -0.230106 -3.76497 0
M  V30 4272 H 401.513 0.312098 -2.93445 0
M  V30 4273 H 401.594 -1.29766 -2.20442 0
M  V30 4274 H 401.238 -2.33655 -4.50963 0
M  V30 4275 H 401.168 -0.703752 -5.21876 0
M  V30 4276 H 403.659 -0.902102 -3.66975 0
M  V30 4277 H 403.972 -2.44594 -7.33071 0
M  V30 4278 H 402.317 -2.19311 -6.59491 0
M  V30 4279 H 405.508 -1.19906 -4.52482 0
M  V30 4280 H 405.681 -1.90284 -6.19432 0
M  V30 4281 N 399.087 1.5561 -0.249682 0
M  V30 4282 C 400.503 1.59254 0.105103 0
M  V30 4283 C 400.703 1.26685 1.56694 0
M  V30 4284 O 399.759 1.0155 2.31179 0
M  V30 4285 C 401.072 2.99687 -0.246592 0
M  V30 4286 C 402.62 3.12416 -0.191118 0
M  V30 4287 C 403.095 4.55074 -0.516885 0
M  V30 4288 N 404.586 4.60835 -0.467489 0
M  V30 4289 C 405.321 5.69201 -0.69268 0
M  V30 4290 N 404.817 6.85817 -0.981146 0
M  V30 4291 N 406.61 5.58635 -0.623198 0
M  V30 4292 H 398.761 1.75049 -1.20298 0
M  V30 4293 H 401.024 0.815003 -0.484225 0
M  V30 4294 H 400.73 3.28267 -1.26228 0
M  V30 4295 H 400.604 3.74798 0.424962 0
M  V30 4296 H 402.991 2.83615 0.815247 0
M  V30 4297 H 403.072 2.39573 -0.896563 0
M  V30 4298 H 402.716 4.84596 -1.52082 0
M  V30 4299 H 402.646 5.26181 0.210068 0
M  V30 4300 H 405.137 3.7705 -0.253373 0
M  V30 4301 H 405.45 7.64341 -1.14032 0
M  V30 4302 H 403.795 6.87494 -1.01865 0
M  V30 4303 H 406.986 4.66406 -0.397863 0
M  V30 4304 H 407.159 6.43017 -0.802093 0
M  V30 4305 N 400.565 -0.0233959 1.57583 0
M  V30 4306 C 401.498 -1.05549 2.02323 0
M  V30 4307 C 402.476 -1.34843 0.908626 0
M  V30 4308 O 403.66 -1.47404 1.17491 0
M  V30 4309 C 400.787 -2.38885 2.40108 0
M  V30 4310 C 399.833 -2.2541 3.62067 0
M  V30 4311 S 400.666 -1.60217 5.1097 0
M  V30 4312 C 401.822 -2.95032 5.52003 0
M  V30 4313 H 402.055 -0.674435 2.89549 0
M  V30 4314 H 399.588 -0.23355 1.52623 0
M  V30 4315 H 401.546 -3.15562 2.62547 0
M  V30 4316 H 400.207 -2.74137 1.53323 0
M  V30 4317 H 399.4 -3.23854 3.86179 0
M  V30 4318 H 399.002 -1.56876 3.39508 0
M  V30 4319 H 401.294 -3.91357 5.53033 0
M  V30 4320 H 402.237 -2.75646 6.52246 0
M  V30 4321 H 402.645 -2.97865 4.79517 0
M  V30 4322 N 402.043 -1.548 -0.295768 0
M  V30 4323 C 403.29 -1.74329 -1.03032 0
M  V30 4324 C 403.618 -0.531915 -1.87085 0
M  V30 4325 O 402.873 0.486052 -1.89568 0
M  V30 4326 C 403.172 -2.98797 -1.961 0
M  V30 4327 C 402.838 -4.32356 -1.2798 0
M  V30 4328 C 401.5 -4.68661 -1.09135 0
M  V30 4329 C 403.852 -5.15128 -0.793243 0
M  V30 4330 C 401.18 -5.85312 -0.403269 0
M  V30 4331 C 403.532 -6.32488 -0.118854 0
M  V30 4332 C 402.196 -6.6745 0.0815043 0
M  V30 4333 H 401.466 -0.637916 -0.37702 0
M  V30 4334 H 404.113 -1.8906 -0.304696 0
M  V30 4335 H 402.418 -2.78869 -2.75207 0
M  V30 4336 H 404.115 -3.11102 -2.53015 0
M  V30 4337 H 400.705 -4.03808 -1.43655 0
M  V30 4338 H 404.889 -4.87575 -0.92653 0
M  V30 4339 H 400.145 -6.1094 -0.237098 0
M  V30 4340 H 404.319 -6.95892 0.266035 0
M  V30 4341 H 401.946 -7.57695 0.616685 0
M  V30 4342 N 403.521 0.559213 -1.47345 0
M  V30 4343 C 404.431 1.69388 -1.62311 0
M  V30 4344 C 405.447 1.6648 -0.505993 0
M  V30 4345 O 406.623 1.85964 -0.773262 0
M  V30 4346 C 403.688 3.05894 -1.63185 0
M  V30 4347 C 402.749 3.19885 -2.86307 0
M  V30 4348 C 401.982 4.49879 -2.87131 0
M  V30 4349 O 402.205 5.35217 -1.97229 0
M  V30 4350 O 401.139 4.67618 -3.78968 0
M  V30 4351 H 404.965 1.59706 -2.58317 0
M  V30 4352 H 402.55 0.728989 -1.30407 0
M  V30 4353 H 404.432 3.87133 -1.66451 0
M  V30 4354 H 403.107 3.15964 -0.70345 0
M  V30 4355 H 402.014 2.38052 -2.88587 0
M  V30 4356 H 403.347 3.14718 -3.78435 0
M  V30 4357 N 404.999 1.35443 0.805782 0
M  V30 4358 C 406.41 1.25768 1.37983 0
M  V30 4359 C 406.761 -0.10958 1.95894 0
M  V30 4360 O 405.886 -1.01056 1.91355 0
M  V30 4361 C 406.481 2.27727 2.5085 0
M  V30 4362 C 405.04 2.2179 3.04115 0
M  V30 4363 C 404.187 2.13393 1.77084 0
M  V30 4364 H 407.138 1.4656 0.608752 0
M  V30 4365 H 407.159 1.90422 3.29424 0
M  V30 4366 H 406.671 3.27227 2.08671 0
M  V30 4367 H 404.772 1.25703 3.50756 0
M  V30 4368 H 404.885 3.13788 3.62042 0
M  V30 4369 H 403.249 1.59384 1.98668 0
M  V30 4370 H 404.032 3.14755 1.37056 0
M  V30 4371 N 406.477 -1.02803 1.19454 0
M  V30 4372 C 407.725 -1.75869 0.995722 0
M  V30 4373 C 408.046 -1.89138 -0.474543 0
M  V30 4374 O 407.316 -1.42558 -1.34366 0
M  V30 4375 H 405.896 -0.651511 0.365435 0
M  V30 4376 H 408.558 -1.24004 1.50363 0
M  V30 4377 H 407.654 -2.76661 1.44447 0
M  V30 4378 N 407.956 -0.998596 -1.21925 0
M  V30 4379 C 408.888 -0.511879 -2.23411 0
M  V30 4380 C 409.901 0.396094 -1.57908 0
M  V30 4381 O 411.09 0.197316 -1.77406 0
M  V30 4382 C 408.19 0.276802 -3.37768 0
M  V30 4383 C 407.363 -0.628687 -4.32858 0
M  V30 4384 C 406.422 0.109272 -5.26087 0
M  V30 4385 O 405.448 -0.507237 -5.66935 0
M  V30 4386 N 406.65 1.38983 -5.63617 0
M  V30 4387 H 409.415 -1.38457 -2.658 0
M  V30 4388 H 406.976 -0.873981 -1.36283 0
M  V30 4389 H 408.968 0.77928 -3.97126 0
M  V30 4390 H 407.538 1.05063 -2.94415 0
M  V30 4391 H 406.758 -1.31175 -3.71735 0
M  V30 4392 H 408.046 -1.24514 -4.93329 0
M  V30 4393 H 407.444 1.91194 -5.32411 0
M  V30 4394 H 406.001 1.83739 -6.25367 0
M  V30 4395 N 409.434 1.37368 -0.772513 0
M  V30 4396 C 410.344 2.34053 -0.160081 0
M  V30 4397 C 411.36 1.60216 0.678728 0
M  V30 4398 O 412.536 1.92303 0.59847 0
M  V30 4399 C 409.601 3.3939 0.708182 0
M  V30 4400 C 408.662 4.29048 -0.147172 0
M  V30 4401 C 407.895 5.29354 0.679744 0
M  V30 4402 O 408.118 5.3723 1.91678 0
M  V30 4403 O 407.052 6.01835 0.0885444 0
M  V30 4404 H 410.878 2.88159 -0.959053 0
M  V30 4405 H 408.463 1.39543 -0.533685 0
M  V30 4406 H 410.345 4.03839 1.20384 0
M  V30 4407 H 409.02 2.8761 1.48533 0
M  V30 4408 H 407.927 3.67697 -0.689205 0
M  V30 4409 H 409.26 4.84134 -0.887423 0
M  V30 4410 N 410.912 0.523116 1.48665 0
M  V30 4411 C 412.14 -0.0096312 2.06898 0
M  V30 4412 C 412.555 -1.28784 1.38059 0
M  V30 4413 O 411.912 -1.76453 0.465893 0
M  V30 4414 C 411.963 -0.244386 3.60673 0
M  V30 4415 O 411.684 0.983172 4.26925 0
M  V30 4416 C 413.185 -0.818289 4.35682 0
M  V30 4417 H 410.405 0.0304161 0.67031 0
M  V30 4418 H 412.949 0.726799 1.91149 0
M  V30 4419 H 411.104 -0.930847 3.76051 0
M  V30 4420 H 411.518 0.759653 5.1897 0
M  V30 4421 H 412.992 -0.93201 5.44075 0
M  V30 4422 H 413.469 -1.82153 3.99646 0
M  V30 4423 H 414.075 -0.168609 4.24966 0
M  V30 4424 N 412.39 -1.55475 0.257931 0
M  V30 4425 C 413.353 -2.20551 -0.623706 0
M  V30 4426 C 414.353 -1.17809 -1.09443 0
M  V30 4427 O 415.543 -1.42823 -0.997362 0
M  V30 4428 C 412.675 -2.85784 -1.8585 0
M  V30 4429 H 413.868 -2.99848 -0.0557743 0
M  V30 4430 H 411.421 -1.56298 0.0084422 0
M  V30 4431 H 412.156 -2.10453 -2.46739 0
M  V30 4432 H 411.941 -3.61057 -1.52907 0
M  V30 4433 H 413.431 -3.35553 -2.48584 0
M  V30 4434 N 413.868 0.0150385 -1.57593 0
M  V30 4435 C 415.114 0.704043 -1.90187 0
M  V30 4436 C 415.447 1.74249 -0.857366 0
M  V30 4437 O 414.722 1.94092 0.125843 0
M  V30 4438 C 415.005 1.36087 -3.33395 0
M  V30 4439 C 414.858 0.334981 -4.48551 0
M  V30 4440 C 416.177 2.29112 -3.7576 0
M  V30 4441 H 413.296 0.254475 -0.691673 0
M  V30 4442 H 415.938 -0.0331678 -1.89971 0
M  V30 4443 H 414.088 1.98922 -3.3371 0
M  V30 4444 H 415.76 -0.292534 -4.60372 0
M  V30 4445 H 414.003 -0.344325 -4.32431 0
M  V30 4446 H 414.674 0.833316 -5.45674 0
M  V30 4447 H 417.15 1.76308 -3.76902 0
M  V30 4448 H 416.026 2.72043 -4.76743 0
M  V30 4449 H 416.287 3.16385 -3.08793 0
M  V30 4450 N 415.346 1.54954 0.287554 0
M  V30 4451 C 416.757 1.65732 0.859634 0
M  V30 4452 C 417.108 0.574767 1.87592 0
M  V30 4453 O 416.233 -0.286299 2.14498 0
M  V30 4454 C 416.828 3.00438 1.56597 0
M  V30 4455 C 415.387 3.13292 2.08627 0
M  V30 4456 C 414.534 2.61473 0.923416 0
M  V30 4457 H 417.485 1.5857 0.0642338 0
M  V30 4458 H 417.506 2.92613 2.43224 0
M  V30 4459 H 417.018 3.79207 0.826053 0
M  V30 4460 H 415.119 2.39268 2.85625 0
M  V30 4461 H 415.232 4.19647 2.31157 0
M  V30 4462 H 413.596 2.18264 1.31275 0
M  V30 4463 H 414.379 3.42733 0.197241 0
M  V30 4464 N 416.824 -0.551391 1.4764 0
M  V30 4465 C 417.774 -1.65362 1.56969 0
M  V30 4466 C 418.758 -1.55098 0.428189 0
M  V30 4467 O 419.95 -1.63481 0.678441 0
M  V30 4468 C 417.079 -3.04129 1.59249 0
M  V30 4469 C 416.165 -3.19576 2.78804 0
M  V30 4470 N 416.556 -3.05067 4.03445 0
M  V30 4471 C 414.854 -3.50588 2.75688 0
M  V30 4472 C 415.555 -3.2336 4.83543 0
M  V30 4473 N 414.531 -3.4996 4.15968 0
M  V30 4474 H 418.333 -1.52722 2.51104 0
M  V30 4475 H 415.847 -0.756303 1.43714 0
M  V30 4476 H 417.844 -3.83278 1.64024 0
M  V30 4477 H 416.504 -3.17877 0.662148 0
M  V30 4478 H 417.515 -2.82273 4.34215 0
M  V30 4479 H 414.192 -3.70827 1.91817 0
M  V30 4480 H 415.582 -3.17061 5.92387 0
M  V30 4481 N 418.302 -1.35869 -0.798587 0
M  V30 4482 C 419.527 -1.32883 -1.59238 0
M  V30 4483 C 419.952 0.0894587 -1.87887 0
M  V30 4484 O 419.31 1.05869 -1.47178 0
M  V30 4485 C 419.358 -2.14892 -2.89575 0
M  V30 4486 O 418.462 -1.53512 -3.82763 0
M  V30 4487 H 417.803 -0.455236 -0.48338 0
M  V30 4488 H 420.333 -1.79024 -0.990539 0
M  V30 4489 H 420.343 -2.27139 -3.38928 0
M  V30 4490 H 419.018 -3.17998 -2.68049 0
M  V30 4491 H 417.595 -1.50153 -3.41334 0
M  V30 4492 N 419.78 1.02168 -1.19998 0
M  V30 4493 C 421.01 1.79036 -1.031 0
M  V30 4494 C 421.418 1.84409 0.423078 0
M  V30 4495 O 420.761 1.29228 1.30559 0
M  V30 4496 C 420.823 3.25185 -1.53281 0
M  V30 4497 C 420.487 3.43431 -3.01503 0
M  V30 4498 C 421.484 3.33063 -3.99206 0
M  V30 4499 C 419.169 3.69412 -3.40353 0
M  V30 4500 C 421.163 3.48413 -5.33748 0
M  V30 4501 C 418.85 3.84406 -4.75053 0
M  V30 4502 C 419.848 3.7391 -5.71559 0
M  V30 4503 O 419.536 3.88452 -7.03818 0
M  V30 4504 H 419.268 0.570043 -0.363355 0
M  V30 4505 H 421.822 1.29524 -1.59414 0
M  V30 4506 H 420.052 3.75756 -0.913483 0
M  V30 4507 H 421.741 3.83671 -1.32481 0
M  V30 4508 H 422.507 3.12934 -3.70537 0
M  V30 4509 H 418.386 3.76671 -2.65782 0
M  V30 4510 H 421.93 3.40137 -6.09059 0
M  V30 4511 H 417.827 4.04035 -5.03415 0
M  V30 4512 H 418.595 4.055 -7.10993 0
M  V30 4513 N 421.258 1.00505 1.21394 0
M  V30 4514 C 422.505 0.687774 1.90462 0
M  V30 4515 C 422.833 -0.78147 1.7811 0
M  V30 4516 O 422.088 -1.58208 1.1519 0
M  V30 4517 C 422.387 1.0546 3.41486 0
M  V30 4518 C 422.053 2.51812 3.74034 0
M  V30 4519 C 420.715 2.91804 3.82628 0
M  V30 4520 C 423.067 3.46614 3.8924 0
M  V30 4521 C 420.395 4.2556 4.03876 0
M  V30 4522 C 422.747 4.80044 4.11995 0
M  V30 4523 C 421.411 5.19759 4.18816 0
M  V30 4524 H 420.681 0.251674 0.696951 0
M  V30 4525 H 423.328 1.26349 1.43903 0
M  V30 4526 H 421.633 0.397133 3.89782 0
M  V30 4527 H 423.33 0.786976 3.93202 0
M  V30 4528 H 419.92 2.1982 3.67936 0
M  V30 4529 H 424.104 3.16883 3.81967 0
M  V30 4530 H 419.36 4.55901 4.07387 0
M  V30 4531 H 423.534 5.53439 4.22704 0
M  V30 4532 H 421.161 6.23418 4.35033 0
M  V30 4533 N 422.737 -1.36956 0.779787 0
M  V30 4534 C 423.986 -1.98738 0.344405 0
M  V30 4535 C 424.299 -1.62596 -1.08728 0
M  V30 4536 O 425.505 -2.1754 -1.62445 0
M  V30 4537 C 423.961 -3.5544 0.564829 0
M  V30 4538 C 423.569 -4.00514 2.0073 0
M  V30 4539 C 425.313 -4.24059 0.193471 0
M  V30 4540 C 423.22 -5.49957 2.17489 0
M  V30 4541 H 422.15 -0.743561 0.12503 0
M  V30 4542 H 424.801 -1.56381 0.960057 0
M  V30 4543 H 423.183 -3.95817 -0.120397 0
M  V30 4544 H 424.357 -3.71362 2.72814 0
M  V30 4545 H 422.672 -3.44703 2.336 0
M  V30 4546 H 425.269 -5.33874 0.297097 0
M  V30 4547 H 425.612 -4.07378 -0.857263 0
M  V30 4548 H 426.145 -3.89012 0.831556 0
M  V30 4549 H 422.884 -5.71574 3.2091 0
M  V30 4550 H 422.404 -5.80767 1.49899 0
M  V30 4551 H 424.083 -6.16043 1.97738 0
M  V30 4552 N 424.215 -0.530993 -1.48385 0
M  V30 4553 C 425.165 0.251092 -2.26613 0
M  V30 4554 C 426.149 0.908977 -1.32765 0
M  V30 4555 O 427.341 0.811616 -1.57295 0
M  V30 4556 C 424.47 1.29677 -3.17866 0
M  V30 4557 C 423.556 0.643627 -4.19188 0
M  V30 4558 N 423.947 -0.271223 -5.05072 0
M  V30 4559 C 422.245 0.900711 -4.3681 0
M  V30 4560 C 422.946 -0.648109 -5.78078 0
M  V30 4561 N 421.922 -0.00895987 -5.43599 0
M  V30 4562 H 425.724 -0.452702 -2.90393 0
M  V30 4563 H 423.238 -0.349091 -1.58604 0
M  V30 4564 H 425.235 1.87079 -3.72568 0
M  V30 4565 H 423.895 2.00193 -2.55642 0
M  V30 4566 H 424.906 -0.643883 -5.13882 0
M  V30 4567 H 421.583 1.59636 -3.85775 0
M  V30 4568 H 422.973 -1.39833 -6.57188 0
M  V30 4569 N 425.693 1.55336 -0.266172 0
M  V30 4570 C 426.94 1.99397 0.353158 0
M  V30 4571 C 427.268 1.15451 1.56529 0
M  V30 4572 O 426.523 0.209974 1.9457 0
M  V30 4573 C 426.822 3.48606 0.787957 0
M  V30 4574 C 426.488 4.49773 -0.318541 0
M  V30 4575 C 425.15 4.77158 -0.62239 0
M  V30 4576 C 427.502 5.10212 -1.06459 0
M  V30 4577 C 424.83 5.62251 -1.67602 0
M  V30 4578 C 427.182 5.96449 -2.10788 0
M  V30 4579 C 425.846 6.22158 -2.41817 0
M  V30 4580 H 425.116 0.729644 0.12923 0
M  V30 4581 H 427.763 1.87732 -0.37802 0
M  V30 4582 H 426.068 3.57701 1.59866 0
M  V30 4583 H 427.765 3.80098 1.27775 0
M  V30 4584 H 424.355 4.2854 -0.0715925 0
M  V30 4585 H 428.539 4.89086 -0.843098 0
M  V30 4586 H 423.795 5.80419 -1.92155 0
M  V30 4587 H 427.969 6.42317 -2.69076 0
M  V30 4588 H 425.596 6.87888 -3.23596 0
M  V30 4589 N 427.171 -0.0066808 1.57599 0
M  V30 4590 C 428.587 -0.36267 1.55425 0
M  V30 4591 C 428.787 -1.75209 0.995187 0
M  V30 4592 O 427.843 -2.44616 0.626058 0
M  V30 4593 C 429.156 -0.244017 2.99708 0
M  V30 4594 C 430.704 -0.319451 3.11366 0
M  V30 4595 C 431.179 -0.229998 4.57422 0
M  V30 4596 N 432.67 -0.288105 4.62303 0
M  V30 4597 C 433.405 -0.242127 5.72889 0
M  V30 4598 N 432.901 -0.147133 6.92644 0
M  V30 4599 N 434.694 -0.293502 5.61333 0
M  V30 4600 H 426.845 0.902314 1.92281 0
M  V30 4601 H 429.108 0.34525 0.882896 0
M  V30 4602 H 428.814 0.711678 3.44424 0
M  V30 4603 H 428.688 -1.02877 3.629 0
M  V30 4604 H 431.075 -1.26559 2.66584 0
M  V30 4605 H 431.156 0.495055 2.50964 0
M  V30 4606 H 430.8 0.712566 5.02877 0
M  V30 4607 H 430.73 -1.0629 5.15761 0
M  V30 4608 H 433.221 -0.363126 3.76151 0
M  V30 4609 H 433.534 -0.117763 7.7271 0
M  V30 4610 H 431.879 -0.112857 6.94908 0
M  V30 4611 H 435.07 -0.365864 4.66668 0
M  V30 4612 H 435.243 -0.254204 6.47501 0
M  V30 4613 N 428.649 -1.55105 -0.279332 0
M  V30 4614 C 429.874 -1.7976 -1.03446 0
M  V30 4615 C 430.299 -0.565952 -1.79384 0
M  V30 4616 O 429.657 0.484259 -1.74713 0
M  V30 4617 C 429.705 -3.0179 -1.97371 0
M  V30 4618 O 428.809 -2.76432 -3.06038 0
M  V30 4619 H 428.15 -0.594334 -0.29608 0
M  V30 4620 H 430.68 -2.02235 -0.310165 0
M  V30 4621 H 430.69 -3.30351 -2.39441 0
M  V30 4622 H 429.365 -3.91085 -1.4151 0
M  V30 4623 H 427.942 -2.58949 -2.68328 0
M  V30 4624 N 430.127 0.543554 -1.4793 0
M  V30 4625 C 431.057 1.65888 -1.64327 0
M  V30 4626 C 432.038 1.62818 -0.492383 0
M  V30 4627 O 433.223 1.80226 -0.723338 0
M  V30 4628 C 430.353 3.04506 -1.67013 0
M  V30 4629 C 429.307 3.2243 -2.81466 0
M  V30 4630 C 428.633 4.61972 -2.69233 0
M  V30 4631 C 429.933 3.06496 -4.22915 0
M  V30 4632 H 431.627 1.52421 -2.57698 0
M  V30 4633 H 429.173 0.731849 -1.24016 0
M  V30 4634 H 431.126 3.82391 -1.77074 0
M  V30 4635 H 429.85 3.18964 -0.70212 0
M  V30 4636 H 428.509 2.46957 -2.70938 0
M  V30 4637 H 428.157 4.73247 -1.7043 0
M  V30 4638 H 427.857 4.74911 -3.46025 0
M  V30 4639 H 429.381 5.41974 -2.81242 0
M  V30 4640 H 430.795 3.74186 -4.34348 0
M  V30 4641 H 429.192 3.30938 -5.006 0
M  V30 4642 H 430.262 2.03077 -4.40327 0
M  V30 4643 N 431.605 1.3629 0.791371 0
M  V30 4644 C 432.853 1.30154 1.5461 0
M  V30 4645 C 433.174 -0.119409 1.94634 0
M  V30 4646 O 432.444 -1.05924 1.64794 0
M  V30 4647 H 431.024 0.478784 0.573389 0
M  V30 4648 H 433.686 1.70565 0.94306 0
M  V30 4649 H 432.782 1.92762 2.45457 0
M  V30 4650 N 433.083 -1.0153 1.20538 0
M  V30 4651 C 434.013 -2.11972 0.979295 0
M  V30 4652 C 434.994 -1.6985 -0.0921787 0
M  V30 4653 O 436.179 -1.94089 0.0655932 0
M  V30 4654 C 433.309 -3.43201 0.531984 0
M  V30 4655 C 432.263 -3.9907 1.54685 0
M  V30 4656 C 431.589 -5.26082 0.956127 0
M  V30 4657 C 432.889 -4.32313 2.93092 0
M  V30 4658 H 434.583 -2.31143 1.90298 0
M  V30 4659 H 432.129 -1.11079 0.916372 0
M  V30 4660 H 434.082 -4.1985 0.361044 0
M  V30 4661 H 432.806 -3.23792 -0.427327 0
M  V30 4662 H 431.465 -3.2453 1.70517 0
M  V30 4663 H 431.113 -5.02999 -0.0111538 0
M  V30 4664 H 430.813 -5.64426 1.63393 0
M  V30 4665 H 432.337 -6.05386 0.796284 0
M  V30 4666 H 433.751 -4.99845 2.80763 0
M  V30 4667 H 432.148 -4.81774 3.57791 0
M  V30 4668 H 433.218 -3.41025 3.44717 0
M  V30 4669 N 434.561 -1.01147 -1.20859 0
M  V30 4670 C 435.786 -0.716698 -1.94623 0
M  V30 4671 C 436.211 0.715415 -1.73964 0
M  V30 4672 O 435.569 1.49157 -1.03062 0
M  V30 4673 C 435.617 -1.0513 -3.44935 0
M  V30 4674 O 434.721 -0.160131 -4.12089 0
M  V30 4675 H 434.062 -0.266404 -0.608214 0
M  V30 4676 H 436.592 -1.35346 -1.53436 0
M  V30 4677 H 436.602 -1.00086 -3.95533 0
M  V30 4678 H 435.277 -2.09475 -3.59295 0
M  V30 4679 H 433.854 -0.267657 -3.71938 0
M  V30 4680 N 436.039 1.36541 -0.78704 0
M  V30 4681 C 437.287 1.98911 -0.357633 0
M  V30 4682 C 437.608 1.62778 1.07371 0
M  V30 4683 O 436.878 0.900612 1.73971 0
M  V30 4684 H 435.458 0.735734 -0.129246 0
M  V30 4685 H 438.12 1.66776 -1.00855 0
M  V30 4686 H 437.216 3.08874 -0.447549 0
M  V30 4687 N 437.518 0.538854 1.48102 0
M  V30 4688 C 438.465 -0.219042 2.29758 0
M  V30 4689 C 439.435 -0.925562 1.37922 0
M  V30 4690 O 440.62 -0.924855 1.66886 0
M  V30 4691 C 437.76 -1.25452 3.2149 0
M  V30 4692 C 436.873 -0.555943 4.28408 0
M  V30 4693 C 436.008 -1.57512 5.0731 0
M  V30 4694 C 435.047 -0.860498 6.06021 0
M  V30 4695 N 434.184 -1.82564 6.77949 0
M  V30 4696 H 439.024 0.483449 2.94052 0
M  V30 4697 H 436.561 0.250247 1.44956 0
M  V30 4698 H 438.519 -1.86727 3.7308 0
M  V30 4699 H 437.149 -1.92528 2.591 0
M  V30 4700 H 436.201 0.170938 3.80016 0
M  V30 4701 H 437.513 0.00474616 4.988 0
M  V30 4702 H 436.667 -2.26191 5.62959 0
M  V30 4703 H 435.406 -2.16972 4.36778 0
M  V30 4704 H 434.411 -0.159686 5.49568 0
M  V30 4705 H 435.636 -0.271897 6.78555 0
M  V30 4706 H 433.582 -2.40915 6.10161 0
M  V30 4707 H 433.499 -1.31662 7.44447 0
M  V30 4708 H 434.767 -2.50414 7.38182 0
M  V30 4709 N 438.996 -1.55193 0.274407 0
M  V30 4710 C 440.221 -2.04446 -0.348824 0
M  V30 4711 C 440.646 -1.15149 -1.48735 0
M  V30 4712 O 440.004 -0.149952 -1.80679 0
M  V30 4713 C 440.052 -3.51431 -0.808009 0
M  V30 4714 O 439.156 -3.65225 -1.91531 0
M  V30 4715 H 438.497 -0.66006 -0.0722276 0
M  V30 4716 H 441.027 -2.00481 0.408498 0
M  V30 4717 H 441.037 -3.92781 -1.10395 0
M  V30 4718 H 439.712 -4.15892 0.0249865 0
M  V30 4719 H 438.289 -3.35778 -1.62196 0
M  V30 4720 N 440.474 -0.00167713 -1.576 0
M  V30 4721 C 441.885 0.54091 -1.78693 0
M  V30 4722 C 442.236 1.7386 -0.909247 0
M  V30 4723 O 441.361 2.16109 -0.112176 0
M  V30 4724 C 441.956 0.98806 -3.24072 0
M  V30 4725 C 440.515 1.47594 -3.46256 0
M  V30 4726 C 439.662 0.42792 -2.73978 0
M  V30 4727 H 442.613 -0.22784 -1.57056 0
M  V30 4728 H 442.634 1.85398 -3.32277 0
M  V30 4729 H 442.146 0.116164 -3.87926 0
M  V30 4730 H 440.247 2.36868 -2.87618 0
M  V30 4731 H 440.36 1.50225 -4.54939 0
M  V30 4732 H 438.724 0.889934 -2.38647 0
M  V30 4733 H 439.507 -0.435038 -3.40532 0
M  V30 4734 N 441.952 1.55251 0.271103 0
M  V30 4735 C 443.182 1.79713 1.01916 0
M  V30 4736 C 443.59 0.571613 1.80359 0
M  V30 4737 O 442.933 -0.468853 1.77616 0
M  V30 4738 C 442.995 2.97138 2.02359 0
M  V30 4739 C 442.659 4.34104 1.42837 0
M  V30 4740 C 443.656 5.13019 0.843071 0
M  V30 4741 C 441.341 4.80765 1.455 0
M  V30 4742 C 443.335 6.36729 0.292333 0
M  V30 4743 C 441.022 6.0443 0.900402 0
M  V30 4744 C 442.02 6.8225 0.32007 0
M  V30 4745 O 441.708 8.03582 -0.226031 0
M  V30 4746 H 441.44 0.602431 0.306681 0
M  V30 4747 H 443.994 2.03097 0.306701 0
M  V30 4748 H 442.224 2.6945 2.77369 0
M  V30 4749 H 443.913 3.08907 2.63309 0
M  V30 4750 H 444.679 4.781 0.815178 0
M  V30 4751 H 440.558 4.20202 1.89609 0
M  V30 4752 H 444.102 6.97414 -0.161274 0
M  V30 4753 H 439.999 6.3883 0.925541 0
M  V30 4754 H 440.767 8.18418 -0.115572 0
M  V30 4755 N 443.43 -0.535701 1.48216 0
M  V30 4756 C 444.655 -1.32149 1.59848 0
M  V30 4757 C 445.08 -1.86338 0.256842 0
M  V30 4758 O 444.438 -1.64107 -0.770632 0
M  V30 4759 C 444.486 -2.45224 2.64381 0
M  V30 4760 O 443.59 -3.48093 2.21144 0
M  V30 4761 H 442.931 -0.391634 0.536208 0
M  V30 4762 H 445.461 -0.645202 1.94161 0
M  V30 4763 H 445.471 -2.91491 2.85476 0
M  V30 4764 H 444.146 -2.05143 3.61786 0
M  V30 4765 H 442.723 -3.07984 2.10239 0
M  V30 4766 N 444.908 -1.36708 -0.784132 0
M  V30 4767 C 446.133 -1.34565 -1.5782 0
M  V30 4768 C 446.558 0.0695257 -1.87971 0
M  V30 4769 O 445.916 1.04302 -1.48293 0
M  V30 4770 C 445.964 -2.17952 -2.87279 0
M  V30 4771 O 445.068 -1.57563 -3.81114 0
M  V30 4772 H 444.409 -0.460337 -0.478524 0
M  V30 4773 H 446.939 -1.80064 -0.971495 0
M  V30 4774 H 446.949 -2.30721 -3.365 0
M  V30 4775 H 445.624 -3.20823 -2.64661 0
M  V30 4776 H 444.201 -1.53764 -3.39722 0
M  V30 4777 N 446.386 1.0089 -1.21074 0
M  V30 4778 C 447.334 2.11707 -0.963476 0
M  V30 4779 C 448.328 1.69172 0.0879032 0
M  V30 4780 O 449.534 1.79889 -0.0631415 0
M  V30 4781 H 445.909 0.692026 -0.294287 0
M  V30 4782 H 447.88 2.29743 -1.90422 0
M  V30 4783 C 446.629 3.43473 -0.540509 0
M  V30 4784 H 445.952 3.76634 -1.34114 0
M  V30 4785 H 447.392 4.22044 -0.406777 0
M  V30 4786 C 445.851 3.2849 0.748079 0
M  V30 4787 O 446.381 3.58883 1.8046 0
M  V30 4788 N 444.587 2.81715 0.713081 0
M  V30 4789 H 444.134 2.5718 -0.146973 0
M  V30 4790 H 444.092 2.72071 1.57558 0
M  V30 4791 N 447.864 1.01787 1.20321 0
M  V30 4792 C 448.827 0.593972 2.2137 0
M  V30 4793 C 449.827 -0.336553 1.57239 0
M  V30 4794 O 451.017 -0.125069 1.7375 0
M  V30 4795 C 448.149 -0.132433 3.40643 0
M  V30 4796 H 449.342 1.48791 2.60387 0
M  V30 4797 H 446.895 0.807803 1.33807 0
M  V30 4798 H 447.63 -1.04123 3.0713 0
M  V30 4799 H 447.415 0.53605 3.88418 0
M  V30 4800 H 448.905 -0.416314 4.1552 0
M  V30 4801 N 449.342 -1.36122 0.79427 0
M  V30 4802 C 450.588 -1.99406 0.369452 0
M  V30 4803 C 450.921 -1.62886 -1.05743 0
M  V30 4804 O 450.196 -0.886053 -1.73145 0
M  V30 4805 C 450.479 -3.56046 0.538833 0
M  V30 4806 C 450.332 -4.02404 2.00976 0
M  V30 4807 C 451.651 -4.40079 -0.0431359 0
M  V30 4808 H 448.77 -0.724397 0.135712 0
M  V30 4809 H 451.412 -1.61461 1.00151 0
M  V30 4810 H 449.562 -3.885 0.000771004 0
M  V30 4811 H 451.234 -3.80415 2.60926 0
M  V30 4812 H 449.477 -3.53765 2.51063 0
M  V30 4813 H 450.148 -5.11344 2.07922 0
M  V30 4814 H 452.624 -4.14013 0.416228 0
M  V30 4815 H 451.5 -5.48799 0.105374 0
M  V30 4816 H 451.761 -4.27264 -1.13571 0
M  V30 4817 N 450.82 -0.546701 -1.47814 0
M  V30 4818 C 452.068 -0.0187037 -2.02091 0
M  V30 4819 C 452.389 1.33168 -1.42447 0
M  V30 4820 O 451.659 1.86619 -0.595839 0
M  V30 4821 H 450.239 -0.00392531 -0.74699 0
M  V30 4822 H 452.901 -0.714327 -1.81338 0
M  V30 4823 H 451.997 0.0772219 -3.12004 0
M  V30 4824 N 452.299 1.55045 -0.282633 0
M  V30 4825 C 453.249 2.19514 0.616249 0
M  V30 4826 C 454.233 1.16216 1.11277 0
M  V30 4827 O 455.425 1.42004 1.05659 0
M  V30 4828 C 452.554 2.92548 1.7964 0
M  V30 4829 C 451.64 4.03142 1.31671 0
M  V30 4830 N 452.031 5.0276 0.553695 0
M  V30 4831 C 450.329 4.1635 1.59903 0
M  V30 4832 C 451.03 5.80923 0.30054 0
M  V30 4833 N 450.006 5.3651 0.875116 0
M  V30 4834 H 453.808 2.93889 0.0255363 0
M  V30 4835 H 451.322 1.62169 -0.0865362 0
M  V30 4836 H 453.319 3.37188 2.45173 0
M  V30 4837 H 451.979 2.19685 2.39099 0
M  V30 4838 H 452.99 5.17512 0.20032 0
M  V30 4839 H 449.667 3.54682 2.20243 0
M  V30 4840 H 451.057 6.7118 -0.311053 0
M  V30 4841 N 453.777 0.010035 1.57597 0
M  V30 4842 C 455.023 -0.673697 1.91283 0
M  V30 4843 C 455.356 -1.72863 0.884979 0
M  V30 4844 O 454.631 -1.94268 -0.0949487 0
M  V30 4845 C 454.914 -1.30766 3.35518 0
M  V30 4846 C 454.767 -0.263578 4.49027 0
M  V30 4847 C 456.086 -2.23105 3.79358 0
M  V30 4848 H 453.205 -0.243439 0.695634 0
M  V30 4849 H 455.847 0.0633864 1.89894 0
M  V30 4850 H 453.997 -1.93588 3.36832 0
M  V30 4851 H 455.669 0.365738 4.59848 0
M  V30 4852 H 453.912 0.413077 4.31829 0
M  V30 4853 H 454.583 -0.746398 5.4693 0
M  V30 4854 H 457.059 -1.70289 3.79659 0
M  V30 4855 H 455.935 -2.64424 4.81011 0
M  V30 4856 H 456.196 -3.11433 3.13787 0
M  V30 4857 N 455.255 -1.55392 -0.262866 0
M  V30 4858 C 456.502 -1.76476 -0.993109 0
M  V30 4859 C 456.83 -0.571479 -1.85915 0
M  V30 4860 O 456.085 0.445733 -1.90556 0
M  V30 4861 C 456.384 -3.02889 -1.89718 0
M  V30 4862 C 456.05 -4.34974 -1.18781 0
M  V30 4863 C 454.712 -4.7087 -0.991699 0
M  V30 4864 C 457.064 -5.16695 -0.683798 0
M  V30 4865 C 454.392 -5.86036 -0.279024 0
M  V30 4866 C 456.744 -6.32598 0.0153327 0
M  V30 4867 C 455.408 -6.67127 0.223062 0
M  V30 4868 H 454.678 -0.64577 -0.363404 0
M  V30 4869 H 457.325 -1.89664 -0.264525 0
M  V30 4870 H 455.63 -2.84644 -2.6923 0
M  V30 4871 H 457.327 -3.16399 -2.46359 0
M  V30 4872 H 453.917 -4.06765 -1.35058 0
M  V30 4873 H 458.101 -4.8943 -0.8229 0
M  V30 4874 H 453.357 -6.11306 -0.107456 0
M  V30 4875 H 457.531 -6.95171 0.413584 0
M  V30 4876 H 455.158 -7.56216 0.777265 0
M  V30 4877 N 456.733 0.527833 -1.48498 0
M  V30 4878 C 457.681 1.65313 -1.63628 0
M  V30 4879 C 458.675 1.6177 -0.502676 0
M  V30 4880 O 459.881 1.66601 -0.681469 0
M  V30 4881 H 456.256 0.547518 -0.515488 0
M  V30 4882 H 458.227 1.49696 -2.58135 0
M  V30 4883 C 456.976 3.03576 -1.6952 0
M  V30 4884 H 456.299 3.06997 -2.56111 0
M  V30 4885 H 457.739 3.81923 -1.84149 0
M  V30 4886 C 456.198 3.34089 -0.43432 0
M  V30 4887 O 456.728 3.99151 0.451852 0
M  V30 4888 N 454.934 2.88991 -0.305368 0
M  V30 4889 H 454.481 2.36222 -1.02747 0
M  V30 4890 H 454.439 3.09776 0.537249 0
M  V30 4891 N 458.211 1.37122 0.776871 0
M  V30 4892 C 459.141 1.35164 1.90402 0
M  V30 4893 C 460.122 0.221069 1.68657 0
M  V30 4894 O 461.307 0.420642 1.8959 0
M  V30 4895 C 458.437 1.15274 3.27611 0
M  V30 4896 C 457.391 2.25289 3.63908 0
M  V30 4897 C 456.717 1.90527 4.99603 0
M  V30 4898 C 458.017 3.67446 3.71188 0
M  V30 4899 H 459.711 2.29482 1.92297 0
M  V30 4900 H 457.257 1.10465 0.923773 0
M  V30 4901 H 459.21 1.12536 4.06096 0
M  V30 4902 H 457.934 0.174102 3.26136 0
M  V30 4903 H 456.593 2.27174 2.87728 0
M  V30 4904 H 456.241 0.91206 4.94662 0
M  V30 4905 H 455.941 2.64193 5.24858 0
M  V30 4906 H 457.465 1.89367 5.80493 0
M  V30 4907 H 458.879 3.67719 4.39836 0
M  V30 4908 H 457.276 4.40123 4.07936 0
M  V30 4909 H 458.346 4.01443 2.71977 0
M  V30 4910 N 459.689 -1.00246 1.21608 0
M  V30 4911 C 460.938 -1.73476 1.02902 0
M  V30 4912 C 461.251 -1.90643 -0.437561 0
M  V30 4913 O 462.457 -2.61105 -0.74407 0
M  V30 4914 C 460.913 -3.12079 1.79261 0
M  V30 4915 C 460.521 -3.02877 3.30106 0
M  V30 4916 C 462.265 -3.89421 1.68972 0
M  V30 4917 C 460.172 -4.36575 3.98944 0
M  V30 4918 H 459.102 -0.650408 0.381425 0
M  V30 4919 H 461.753 -1.11985 1.45367 0
M  V30 4920 H 460.135 -3.74196 1.2959 0
M  V30 4921 H 461.309 -2.49983 3.87098 0
M  V30 4922 H 459.624 -2.39022 3.40965 0
M  V30 4923 H 462.221 -4.88362 2.17731 0
M  V30 4924 H 462.564 -4.1122 0.648397 0
M  V30 4925 H 463.097 -3.33963 2.16133 0
M  V30 4926 H 459.836 -4.19978 5.03288 0
M  V30 4927 H 459.356 -4.8942 3.4674 0
M  V30 4928 H 461.035 -5.05364 4.04 0
M  V30 4929 N 461.167 -1.02423 -1.1978 0
M  V30 4930 C 462.117 -0.571689 -2.20716 0
M  V30 4931 C 463.101 0.377077 -1.56419 0
M  V30 4932 O 464.293 0.198801 -1.7588 0
M  V30 4933 C 461.422 0.0808555 -3.43205 0
M  V30 4934 C 460.508 -0.890073 -4.14655 0
M  V30 4935 N 460.899 -2.05065 -4.62366 0
M  V30 4936 C 459.197 -0.71252 -4.40272 0
M  V30 4937 C 459.898 -2.66264 -5.17183 0
M  V30 4938 N 458.874 -1.94264 -5.07703 0
M  V30 4939 H 462.676 -1.45636 -2.55279 0
M  V30 4940 H 460.19 -0.890596 -1.35802 0
M  V30 4941 H 462.187 0.422654 -4.14752 0
M  V30 4942 H 460.847 0.961274 -3.10144 0
M  V30 4943 H 461.858 -2.43026 -4.57339 0
M  V30 4944 H 458.535 0.119199 -4.1733 0
M  V30 4945 H 459.925 -3.64526 -5.64421 0
M  V30 4946 N 462.645 1.35699 -0.801477 0
M  V30 4947 C 463.892 1.98913 -0.379459 0
M  V30 4948 C 464.22 1.63592 1.05204 0
M  V30 4949 O 463.475 0.888563 1.74365 0
M  V30 4950 C 463.774 3.53828 -0.504041 0
M  V30 4951 C 463.44 4.09002 -1.8981 0
M  V30 4952 C 462.102 4.23783 -2.27951 0
M  V30 4953 C 464.454 4.38939 -2.81038 0
M  V30 4954 C 461.782 4.65816 -3.56696 0
M  V30 4955 C 464.134 4.82409 -4.09224 0
M  V30 4956 C 462.798 4.95395 -4.4737 0
M  V30 4957 H 462.068 0.727874 -0.138854 0
M  V30 4958 H 464.715 1.61994 -1.02128 0
M  V30 4959 H 463.02 3.91175 0.221242 0
M  V30 4960 H 464.717 4.00687 -0.158361 0
M  V30 4961 H 461.307 3.97946 -1.59176 0
M  V30 4962 H 465.491 4.27077 -2.52821 0
M  V30 4963 H 460.747 4.74059 -3.86106 0
M  V30 4964 H 464.921 5.04535 -4.80018 0
M  V30 4965 H 462.548 5.27724 -5.47185 0
M  V30 4966 N 464.123 0.554532 1.47522 0
M  V30 4967 C 465.369 0.0295227 2.02779 0
M  V30 4968 C 465.702 -1.31582 1.42828 0
M  V30 4969 O 464.977 -1.85561 0.582872 0
M  V30 4970 C 465.26 -0.0664057 3.60039 0
M  V30 4971 C 465.113 1.30585 4.30427 0
M  V30 4972 C 466.432 -0.781162 4.33112 0
M  V30 4973 H 463.551 0.0122027 0.736899 0
M  V30 4974 H 466.193 0.716305 1.7598 0
M  V30 4975 H 464.343 -0.651307 3.83002 0
M  V30 4976 H 466.015 1.93374 4.18813 0
M  V30 4977 H 464.258 1.88125 3.90886 0
M  V30 4978 H 464.929 1.19147 5.38988 0
M  V30 4979 H 467.405 -0.284565 4.15126 0
M  V30 4980 H 466.281 -0.817237 5.42782 0
M  V30 4981 H 466.542 -1.83672 4.0214 0
M  V30 4982 N 465.601 -1.54893 0.290851 0
M  V30 4983 C 466.849 -1.99538 -0.320756 0
M  V30 4984 C 467.17 -1.18075 -1.55188 0
M  V30 4985 O 466.44 -0.274162 -1.93972 0
M  V30 4986 H 465.02 -0.737052 -0.121507 0
M  V30 4987 H 467.682 -1.90755 0.399832 0
M  V30 4988 H 466.778 -3.06282 -0.599802 0
M  V30 4989 N 467.08 -0.0183926 -1.57589 0
M  V30 4990 C 468.32 0.666846 -1.93216 0
M  V30 4991 C 468.684 1.69905 -0.894215 0
M  V30 4992 O 469.885 2.436 -1.13633 0
M  V30 4993 C 468.156 1.27684 -3.33814 0
M  V30 4994 S 469.715 1.98464 -3.91353 0
M  V30 4995 H 466.533 0.219826 -0.676164 0
M  V30 4996 H 469.135 -0.0794893 -1.95338 0
M  V30 4997 H 467.839 0.513006 -4.07181 0
M  V30 4998 H 467.37 2.06071 -3.3511 0
M  V30 4999 H 469.385 3.26189 -3.73918 0
M  V30 5000 N 468.558 1.5553 0.254621 0
M  V30 5001 C 469.788 1.80784 1.00004 0
M  V30 5002 C 470.196 0.59071 1.79742 0
M  V30 5003 O 469.539 -0.449988 1.78103 0
M  V30 5004 C 469.601 2.99268 1.99196 0
M  V30 5005 C 469.265 4.35595 1.38224 0
M  V30 5006 C 470.262 5.13884 0.788611 0
M  V30 5007 C 467.947 4.82281 1.40393 0
M  V30 5008 C 469.941 6.37004 0.224783 0
M  V30 5009 C 467.628 6.05351 0.836243 0
M  V30 5010 C 468.626 6.82551 0.24769 0
M  V30 5011 O 468.314 8.03297 -0.311249 0
M  V30 5012 H 468.046 0.60565 0.300274 0
M  V30 5013 H 470.6 2.03411 0.285143 0
M  V30 5014 H 468.83 2.72377 2.74496 0
M  V30 5015 H 470.519 3.11682 2.60018 0
M  V30 5016 H 471.285 4.78938 0.764423 0
M  V30 5017 H 467.164 4.22189 1.85142 0
M  V30 5018 H 470.708 6.97203 -0.235235 0
M  V30 5019 H 466.605 6.39776 0.857733 0
M  V30 5020 H 467.373 8.1825 -0.20237 0
M  V30 5021 N 470.036 -0.519951 1.48776 0
M  V30 5022 C 470.969 -1.64053 1.58625 0
M  V30 5023 C 471.947 -1.5664 0.43618 0
M  V30 5024 O 473.131 -1.76969 0.649159 0
M  V30 5025 C 470.258 -3.02497 1.52359 0
M  V30 5026 C 469.304 -3.28235 2.72331 0
M  V30 5027 S 470.137 -3.13414 4.34203 0
M  V30 5028 C 471.293 -4.54287 4.30551 0
M  V30 5029 H 471.526 -1.5545 2.53422 0
M  V30 5030 H 469.059 -0.703681 1.37433 0
M  V30 5031 H 471.017 -3.82336 1.4943 0
M  V30 5032 H 469.678 -3.08531 0.588824 0
M  V30 5033 H 468.871 -4.29256 2.64113 0
M  V30 5034 H 468.473 -2.56085 2.72574 0
M  V30 5035 H 470.765 -5.46006 4.01103 0
M  V30 5036 H 471.708 -4.67558 5.31785 0
M  V30 5037 H 472.116 -4.34079 3.60881 0
M  V30 5038 N 471.514 -1.37532 -0.769588 0
M  V30 5039 C 472.762 -1.32597 -1.5252 0
M  V30 5040 C 473.083 0.0884294 -1.94799 0
M  V30 5041 O 472.353 1.03289 -1.66458 0
M  V30 5042 H 470.933 -0.487846 -0.565699 0
M  V30 5043 H 473.595 -1.72044 -0.915806 0
M  V30 5044 H 472.691 -1.96643 -2.42359 0
M  V30 5045 N 472.992 0.995999 -1.22138 0
M  V30 5046 C 473.924 2.08745 -0.946485 0
M  V30 5047 C 474.937 1.62633 0.0737356 0
M  V30 5048 O 476.126 1.77782 -0.159886 0
M  V30 5049 C 473.226 3.36516 -0.401305 0
M  V30 5050 C 472.399 4.11672 -1.47801 0
M  V30 5051 C 471.458 5.17728 -0.940461 0
M  V30 5052 O 470.484 5.45482 -1.62596 0
M  V30 5053 N 471.686 5.80005 0.239723 0
M  V30 5054 H 474.451 2.32908 -1.88611 0
M  V30 5055 H 472.012 1.16152 -1.12785 0
M  V30 5056 H 474.004 4.04691 -0.0270837 0
M  V30 5057 H 472.574 3.0944 0.443354 0
M  V30 5058 H 471.794 3.38171 -2.02568 0
M  V30 5059 H 473.082 4.58657 -2.20253 0
M  V30 5060 H 472.48 5.5982 0.813518 0
M  V30 5061 H 471.037 6.4943 0.555361 0
M  V30 5062 N 474.47 1.03057 1.19235 0
M  V30 5063 C 475.716 0.729098 1.89241 0
M  V30 5064 C 476.049 -0.740573 1.79525 0
M  V30 5065 O 475.324 -1.53946 1.18874 0
M  V30 5066 C 475.607 1.18304 3.40112 0
M  V30 5067 C 475.46 2.71406 3.5869 0
M  V30 5068 C 476.779 0.765161 4.33397 0
M  V30 5069 H 473.898 0.266338 0.687192 0
M  V30 5070 H 476.54 1.28079 1.40341 0
M  V30 5071 H 474.69 0.713672 3.81889 0
M  V30 5072 H 476.362 3.26303 3.26074 0
M  V30 5073 H 474.605 3.11717 3.01687 0
M  V30 5074 H 475.276 2.98225 4.64506 0
M  V30 5075 H 477.752 1.16889 3.99345 0
M  V30 5076 H 476.628 1.11065 5.37546 0
M  V30 5077 H 476.889 -0.332372 4.40849 0
M  V30 5078 N 475.948 -1.35272 0.808662 0
M  V30 5079 C 477.364 -1.51806 0.492653 0
M  V30 5080 C 477.564 -1.7574 -0.985778 0
M  V30 5081 O 476.62 -1.80003 -1.77074 0
M  V30 5082 C 477.933 -2.69202 1.33981 0
M  V30 5083 C 479.481 -2.8308 1.33547 0
M  V30 5084 C 479.956 -4.03502 2.16679 0
M  V30 5085 N 481.447 -4.10684 2.14227 0
M  V30 5086 C 482.182 -5.02984 2.75308 0
M  V30 5087 N 481.678 -6.00603 3.45323 0
M  V30 5088 N 483.471 -4.95746 2.64938 0
M  V30 5089 H 475.622 -1.17993 1.76611 0
M  V30 5090 H 477.885 -0.577476 0.751814 0
M  V30 5091 H 477.591 -2.581 2.38909 0
M  V30 5092 H 477.465 -3.63854 0.994491 0
M  V30 5093 H 479.852 -2.93631 0.294036 0
M  V30 5094 H 479.933 -1.89278 1.72068 0
M  V30 5095 H 479.577 -3.93711 3.20864 0
M  V30 5096 H 479.507 -4.96489 1.75517 0
M  V30 5097 H 481.998 -3.40802 1.63285 0
M  V30 5098 H 482.311 -6.67633 3.89212 0
M  V30 5099 H 480.656 -6.0077 3.49428 0
M  V30 5100 H 483.847 -4.18439 2.09825 0
M  V30 5101 H 484.02 -5.67487 3.12829 0
M  V30 5102 N 477.426 -0.562348 -1.47226 0
M  V30 5103 C 478.651 -0.0432632 -2.07355 0
M  V30 5104 C 479.076 1.24332 -1.41149 0
M  V30 5105 O 478.434 1.74603 -0.488226 0
M  V30 5106 C 478.482 0.130288 -3.60365 0
M  V30 5107 O 477.586 1.19166 -3.94808 0
M  V30 5108 H 476.927 -0.0536334 -0.66183 0
M  V30 5109 H 479.457 -0.779495 -1.89169 0
M  V30 5110 H 479.467 0.342881 -4.06557 0
M  V30 5111 H 478.142 -0.809389 -4.07948 0
M  V30 5112 H 476.719 0.959153 -3.60354 0
M  V30 5113 N 478.904 1.54736 -0.299062 0
M  V30 5114 C 479.834 2.26409 0.571085 0
M  V30 5115 C 480.815 1.2629 1.13951 0
M  V30 5116 O 482 1.55059 1.16921 0
M  V30 5117 C 479.13 3.00338 1.74396 0
M  V30 5118 C 478.084 4.07588 1.30599 0
M  V30 5119 C 477.41 4.69222 2.56387 0
M  V30 5120 C 478.71 5.20455 0.438645 0
M  V30 5121 H 480.404 2.99388 -0.0266991 0
M  V30 5122 H 477.95 1.43993 -0.0142812 0
M  V30 5123 H 479.903 3.49198 2.35878 0
M  V30 5124 H 478.627 2.24934 2.36796 0
M  V30 5125 H 477.286 3.59575 0.71424 0
M  V30 5126 H 476.934 3.9046 3.17097 0
M  V30 5127 H 476.634 5.41653 2.27784 0
M  V30 5128 H 478.158 5.20844 3.18675 0
M  V30 5129 H 479.572 5.65221 0.959085 0
M  V30 5130 H 477.969 5.99594 0.246466 0
M  V30 5131 H 479.039 4.8192 -0.536738 0
M  V30 5132 N 480.382 0.0267497 1.57577 0
M  V30 5133 C 481.33 -0.973923 2.11229 0
M  V30 5134 C 482.324 -1.33849 1.03831 0
M  V30 5135 O 483.53 -1.321 1.22269 0
M  V30 5136 H 479.905 -0.331844 0.674821 0
M  V30 5137 H 481.876 -0.496092 2.94247 0
M  V30 5138 C 480.625 -2.24798 2.65257 0
M  V30 5139 H 479.948 -1.9762 3.47543 0
M  V30 5140 H 481.388 -2.93031 3.06445 0
M  V30 5141 C 479.847 -2.97611 1.57891 0
M  V30 5142 O 480.377 -3.89629 0.97735 0
M  V30 5143 N 478.583 -2.59905 1.29992 0
M  V30 5144 H 478.13 -1.85154 1.79097 0
M  V30 5145 H 478.088 -3.08932 0.583798 0
M  V30 5146 N 481.861 -1.55662 -0.24637 0
M  V30 5147 C 482.824 -1.89558 -1.28842 0
M  V30 5148 C 483.824 -0.772082 -1.41052 0
M  V30 5149 O 485.014 -1.04007 -1.39743 0
M  V30 5150 C 482.146 -2.12449 -2.66605 0
M  V30 5151 H 483.339 -2.82735 -1.00004 0
M  V30 5152 H 480.892 -1.48562 -0.485684 0
M  V30 5153 H 481.627 -1.21742 -3.00582 0
M  V30 5154 H 481.412 -2.94273 -2.59125 0
M  V30 5155 H 482.902 -2.39854 -3.41847 0
M  V30 5156 N 483.339 0.512053 -1.4905 0
M  V30 5157 C 484.567 1.29116 -1.61669 0
M  V30 5158 C 484.982 1.86655 -0.283787 0
M  V30 5159 O 484.339 1.67293 0.729331 0
M  V30 5160 C 484.39 2.4293 -2.67707 0
M  V30 5161 O 484.111 1.87758 -3.95826 0
M  V30 5162 C 485.612 3.34476 -2.90931 0
M  V30 5163 H 482.832 0.392009 -0.544583 0
M  V30 5164 H 485.376 0.615881 -1.95006 0
M  V30 5165 H 483.531 3.06308 -2.37179 0
M  V30 5166 H 483.945 2.62393 -4.54148 0
M  V30 5167 H 485.419 4.10642 -3.68886 0
M  V30 5168 H 485.896 3.90801 -2.00427 0
M  V30 5169 H 486.502 2.76874 -3.22832 0
M  V30 5170 N 484.817 1.37938 0.762283 0
M  V30 5171 C 486.063 1.33866 1.52341 0
M  V30 5172 C 486.396 -0.0738961 1.94059 0
M  V30 5173 O 485.671 -1.03326 1.64785 0
M  V30 5174 C 485.954 2.28644 2.78197 0
M  V30 5175 C 485.807 3.78722 2.42672 0
M  V30 5176 C 487.126 2.21702 3.80179 0
M  V30 5177 H 484.245 0.487593 0.55265 0
M  V30 5178 H 486.887 1.68717 0.873767 0
M  V30 5179 H 485.037 1.99055 3.33631 0
M  V30 5180 H 486.709 4.18948 1.93081 0
M  V30 5181 H 484.952 3.96827 1.75244 0
M  V30 5182 H 485.623 4.40486 3.3268 0
M  V30 5183 H 488.099 2.47805 3.34263 0
M  V30 5184 H 486.975 2.90143 4.65949 0
M  V30 5185 H 487.236 1.21301 4.25133 0
M  V30 5186 N 486.295 -0.989507 1.22664 0
M  V30 5187 C 487.544 -1.72375 1.04737 0
M  V30 5188 C 487.857 -1.91096 -0.417316 0
M  V30 5189 O 489.063 -2.6188 -0.716334 0
M  V30 5190 C 487.519 -3.10161 1.82561 0
M  V30 5191 C 487.127 -2.99358 3.333 0
M  V30 5192 C 488.871 -3.87607 1.73093 0
M  V30 5193 C 486.778 -4.32319 4.03552 0
M  V30 5194 H 485.708 -0.646326 0.388302 0
M  V30 5195 H 488.359 -1.10437 1.46546 0
M  V30 5196 H 486.741 -3.728 1.33552 0
M  V30 5197 H 487.915 -2.45863 3.89728 0
M  V30 5198 H 486.23 -2.35392 3.43481 0
M  V30 5199 H 488.827 -4.86025 2.22899 0
M  V30 5200 H 489.17 -4.10509 0.691976 0
M  V30 5201 H 489.703 -3.31652 2.19663 0
M  V30 5202 H 486.442 -4.14616 5.07714 0
M  V30 5203 H 485.962 -4.85714 3.51911 0
M  V30 5204 H 487.641 -5.01051 4.09337 0
M  V30 5205 N 487.773 -1.03688 -1.18687 0
M  V30 5206 C 488.736 -0.629115 -2.20397 0
M  V30 5207 C 489.736 0.311495 -1.57754 0
M  V30 5208 O 490.926 0.0974107 -1.73927 0
M  V30 5209 C 488.058 0.0782231 -3.4081 0
M  V30 5210 H 489.251 -1.52915 -2.57987 0
M  V30 5211 H 486.804 -0.828988 -1.32505 0
M  V30 5212 H 487.539 0.992233 -3.08748 0
M  V30 5213 H 487.324 -0.597776 -3.87517 0
M  V30 5214 H 488.814 0.350156 -4.16129 0
M  V30 5215 N 489.251 1.34841 -0.815825 0
M  V30 5216 C 490.214 2.27959 -0.238185 0
M  V30 5217 C 491.214 1.49983 0.579816 0
M  V30 5218 O 492.404 1.69617 0.396953 0
M  V30 5219 C 489.536 3.34314 0.666876 0
M  V30 5220 H 490.729 2.80558 -1.05958 0
M  V30 5221 H 488.282 1.44852 -0.587156 0
M  V30 5222 H 489.017 2.86916 1.5116 0
M  V30 5223 H 488.802 3.92014 0.0819106 0
M  V30 5224 H 490.292 4.0379 1.06506 0
M  V30 5225 N 490.729 0.570148 1.46925 0
M  V30 5226 C 491.969 0.0534743 2.0433 0
M  V30 5227 C 492.333 -1.27729 1.4335 0
M  V30 5228 O 493.534 -1.88244 1.91879 0
M  V30 5229 C 491.805 -0.0244296 3.57392 0
M  V30 5230 S 493.364 -0.485351 4.36108 0
M  V30 5231 H 490.182 0.0313908 0.710307 0
M  V30 5232 H 492.784 0.759808 1.80131 0
M  V30 5233 H 491.488 0.948261 3.99295 0
M  V30 5234 H 491.019 -0.753922 3.86108 0
M  V30 5235 H 493.034 -1.74258 4.64595 0
M  V30 5236 N 492.207 -1.54576 0.307264 0
M  V30 5237 C 493.17 -2.22423 -0.553224 0
M  V30 5238 C 494.17 -1.21231 -1.05639 0
M  V30 5239 O 495.36 -1.45923 -0.951419 0
M  V30 5240 C 492.492 -2.91552 -1.76664 0
M  V30 5241 H 493.685 -2.99874 0.0396484 0
M  V30 5242 H 491.238 -1.56192 0.0581629 0
M  V30 5243 H 491.973 -2.18196 -2.39918 0
M  V30 5244 H 491.758 -3.65738 -1.41343 0
M  V30 5245 H 493.248 -3.43292 -2.37783 0
M  V30 5246 N 493.685 -0.035106 -1.57561 0
M  V30 5247 C 495.096 0.502885 -1.798 0
M  V30 5248 C 495.447 1.71892 -0.945921 0
M  V30 5249 O 494.572 2.15822 -0.157991 0
M  V30 5250 C 495.167 0.919097 -3.26095 0
M  V30 5251 C 493.726 1.40216 -3.49308 0
M  V30 5252 C 492.873 0.369709 -2.74824 0
M  V30 5253 H 495.824 -0.261102 -1.56537 0
M  V30 5254 H 495.845 1.78308 -3.36135 0
M  V30 5255 H 495.357 0.0338526 -3.88085 0
M  V30 5256 H 493.458 2.30714 -2.92578 0
M  V30 5257 H 493.571 1.40541 -4.58023 0
M  V30 5258 H 491.935 0.839113 -2.40481 0
M  V30 5259 H 492.718 -0.507173 -3.39533 0
M  V30 5260 N 495.163 1.55791 0.238111 0
M  V30 5261 C 496.113 1.87444 1.29803 0
M  V30 5262 C 497.097 0.736043 1.43078 0
M  V30 5263 O 498.289 0.998146 1.46171 0
M  V30 5264 C 495.418 2.18028 2.65177 0
M  V30 5265 C 494.504 3.38217 2.55871 0
M  V30 5266 N 494.895 4.57264 2.16202 0
M  V30 5267 C 493.193 3.41502 2.86866 0
M  V30 5268 C 493.894 5.3941 2.17744 0
M  V30 5269 N 492.87 4.78695 2.57589 0
M  V30 5270 H 496.672 2.7701 0.981965 0
M  V30 5271 H 494.186 1.56135 0.44672 0
M  V30 5272 H 496.183 2.38873 3.4168 0
M  V30 5273 H 494.843 1.29765 2.97643 0
M  V30 5274 H 495.854 4.82727 1.87602 0
M  V30 5275 H 492.531 2.63536 3.23813 0
M  V30 5276 H 493.921 6.44671 1.89339 0
M  V30 5277 N 496.642 -0.504142 1.49319 0
M  V30 5278 C 497.552 -1.63248 1.68486 0
M  V30 5279 C 498.568 -1.64488 0.567432 0
M  V30 5280 O 499.744 -1.82966 0.841749 0
M  V30 5281 C 496.809 -2.99627 1.74426 0
M  V30 5282 C 495.87 -3.09039 2.97982 0
M  V30 5283 C 495.103 -4.38913 3.0363 0
M  V30 5284 O 495.326 -5.27528 2.16958 0
M  V30 5285 O 494.26 -4.53231 3.96062 0
M  V30 5286 H 498.086 -1.50008 2.64067 0
M  V30 5287 H 495.671 -0.680086 1.33023 0
M  V30 5288 H 497.553 -3.80689 1.80705 0
M  V30 5289 H 496.228 -3.13136 0.820233 0
M  V30 5290 H 495.135 -2.27177 2.97223 0
M  V30 5291 H 496.468 -3.00456 3.89855 0
M  V30 5292 N 498.12 -1.38341 -0.754957 0
M  V30 5293 C 499.053 -1.29837 -1.87663 0
M  V30 5294 C 500.031 -0.175659 -1.61648 0
M  V30 5295 O 501.215 -0.352745 -1.8517 0
M  V30 5296 C 498.342 -1.01141 -3.23246 0
M  V30 5297 C 497.388 -2.15331 -3.6815 0
M  V30 5298 S 498.221 -3.77459 -3.79849 0
M  V30 5299 C 499.377 -3.50948 -5.18253 0
M  V30 5300 H 499.61 -2.24771 -1.9459 0
M  V30 5301 H 497.143 -1.24161 -0.917796 0
M  V30 5302 H 499.101 -0.852687 -4.01546 0
M  V30 5303 H 497.762 -0.0792784 -3.14 0
M  V30 5304 H 496.955 -1.90795 -4.6649 0
M  V30 5305 H 496.557 -2.27304 -2.97 0
M  V30 5306 H 498.849 -3.06977 -6.03963 0
M  V30 5307 H 499.792 -4.48677 -5.47809 0
M  V30 5308 H 500.2 -2.85492 -4.86985 0
M  V30 5309 N 499.598 0.982988 -1.23187 0
M  V30 5310 C 500.823 1.76455 -1.08988 0
M  V30 5311 C 501.248 1.84726 0.354691 0
M  V30 5312 O 500.606 1.30699 1.25649 0
M  V30 5313 C 500.654 3.17094 -1.71708 0
M  V30 5314 O 499.758 4.00648 -0.977477 0
M  V30 5315 H 499.099 0.542988 -0.382177 0
M  V30 5316 H 501.629 1.23413 -1.63188 0
M  V30 5317 H 501.639 3.67684 -1.76841 0
M  V30 5318 H 500.314 3.10389 -2.76823 0
M  V30 5319 H 498.891 3.59161 -1.0029 0
M  V30 5320 N 501.076 1.04316 1.18135 0
M  V30 5321 C 502.322 0.749128 1.88457 0
M  V30 5322 C 502.655 -0.72149 1.803 0
M  V30 5323 O 501.93 -1.52676 1.205 0
M  V30 5324 C 502.213 1.21905 3.38838 0
M  V30 5325 C 502.066 2.75195 3.55792 0
M  V30 5326 C 503.385 0.811085 4.32561 0
M  V30 5327 H 500.504 0.273611 0.684329 0
M  V30 5328 H 503.146 1.29561 1.38975 0
M  V30 5329 H 501.296 0.754137 3.8111 0
M  V30 5330 H 502.968 3.29743 3.22595 0
M  V30 5331 H 501.211 3.14899 2.98364 0
M  V30 5332 H 501.882 3.03135 4.61317 0
M  V30 5333 H 504.358 1.21118 3.98082 0
M  V30 5334 H 503.234 1.16761 5.36338 0
M  V30 5335 H 503.495 -0.285596 4.41177 0
M  V30 5336 N 502.554 -1.34406 0.822964 0
M  V30 5337 C 503.484 -2.32052 0.259608 0
M  V30 5338 C 504.465 -1.58243 -0.623961 0
M  V30 5339 O 505.65 -1.86224 -0.55083 0
M  V30 5340 C 502.78 -3.42434 -0.579314 0
M  V30 5341 C 501.734 -4.27499 0.20712 0
M  V30 5342 C 501.06 -5.29349 -0.754547 0
M  V30 5343 C 502.36 -5.02758 1.41533 0
M  V30 5344 H 504.054 -2.79418 1.07545 0
M  V30 5345 H 501.6 -1.34338 0.518593 0
M  V30 5346 H 503.553 -4.0976 -0.983612 0
M  V30 5347 H 502.277 -2.93717 -1.4282 0
M  V30 5348 H 500.936 -3.61776 0.592787 0
M  V30 5349 H 500.584 -4.76895 -1.59939 0
M  V30 5350 H 500.284 -5.8714 -0.232561 0
M  V30 5351 H 501.808 -5.99544 -1.1567 0
M  V30 5352 H 503.222 -5.62938 1.08504 0
M  V30 5353 H 501.619 -5.70123 1.87296 0
M  V30 5354 H 502.689 -4.32451 2.1935 0
M  V30 5355 N 504.032 -0.577932 -1.46621 0
M  V30 5356 C 505.28 -0.061566 -2.02006 0
M  V30 5357 C 505.601 1.30117 -1.4524 0
M  V30 5358 O 504.871 1.85313 -0.63529 0
M  V30 5359 H 503.451 -0.0197692 -0.746738 0
M  V30 5360 H 506.113 -0.752631 -1.79782 0
M  V30 5361 H 505.209 0.0110238 -3.12098 0
M  V30 5362 N 505.51 1.54411 -0.315457 0
M  V30 5363 C 506.758 2.00023 0.288971 0
M  V30 5364 C 507.079 1.20529 1.5329 0
M  V30 5365 O 506.349 0.304986 1.93511 0
M  V30 5366 H 504.929 0.738891 0.109766 0
M  V30 5367 H 507.591 1.90094 -0.430129 0
M  V30 5368 H 506.687 3.07198 0.550999 0
M  V30 5369 N 506.988 0.0434614 1.5754 0
M  V30 5370 C 508.218 -0.640905 1.96408 0
M  V30 5371 C 508.626 -1.65365 0.919297 0
M  V30 5372 O 507.969 -1.83395 -0.105795 0
M  V30 5373 C 508.031 -1.39141 3.31482 0
M  V30 5374 C 507.695 -0.535375 4.53853 0
M  V30 5375 C 508.692 0.195335 5.19533 0
M  V30 5376 C 506.377 -0.468564 5.0011 0
M  V30 5377 C 508.371 0.981377 6.298 0
M  V30 5378 C 506.058 0.321171 6.10255 0
M  V30 5379 C 507.056 1.04484 6.74961 0
M  V30 5380 O 506.744 1.8216 7.8299 0
M  V30 5381 H 506.476 -0.180584 0.651433 0
M  V30 5382 H 509.03 0.103848 2.05137 0
M  V30 5383 H 507.26 -2.18162 3.19284 0
M  V30 5384 H 508.949 -1.96526 3.55151 0
M  V30 5385 H 509.715 0.15314 4.84758 0
M  V30 5386 H 505.594 -1.02142 4.49542 0
M  V30 5387 H 509.138 1.54674 6.80237 0
M  V30 5388 H 505.035 0.365032 6.44467 0
M  V30 5389 H 505.803 1.74289 7.99728 0
M  V30 5390 N 508.466 -1.55915 -0.229846 0
M  V30 5391 C 509.396 -1.94754 -1.28815 0
M  V30 5392 C 510.377 -0.814657 -1.49323 0
M  V30 5393 O 511.562 -1.07631 -1.61645 0
M  V30 5394 C 508.692 -2.25705 -2.63959 0
M  V30 5395 C 507.646 -3.41406 -2.5812 0
M  V30 5396 C 506.972 -3.57941 -3.97218 0
M  V30 5397 C 508.272 -4.76616 -2.13623 0
M  V30 5398 H 509.966 -2.83404 -0.965547 0
M  V30 5399 H 507.512 -1.36353 -0.463028 0
M  V30 5400 H 509.465 -2.51467 -3.38146 0
M  V30 5401 H 508.189 -1.339 -2.9789 0
M  V30 5402 H 506.848 -3.1568 -1.86391 0
M  V30 5403 H 506.496 -2.63526 -4.28443 0
M  V30 5404 H 506.196 -4.35757 -3.94195 0
M  V30 5405 H 507.72 -3.86042 -4.73079 0
M  V30 5406 H 509.134 -5.01637 -2.77549 0
M  V30 5407 H 507.531 -5.57655 -2.21677 0
M  V30 5408 H 508.601 -4.7253 -1.08829 0
M  V30 5409 N 509.944 0.496216 -1.49584 0
M  V30 5410 C 511.192 1.24756 -1.58998 0
M  V30 5411 C 511.513 1.92968 -0.280775 0
M  V30 5412 O 510.783 1.82959 0.700198 0
M  V30 5413 H 509.363 0.463471 -0.585836 0
M  V30 5414 H 512.025 0.574678 -1.86235 0
M  V30 5415 H 511.121 2.00895 -2.38847 0
M  V30 5416 N 511.423 1.38739 0.74761 0
M  V30 5417 C 512.333 1.38696 1.89211 0
M  V30 5418 C 513.349 0.283303 1.71678 0
M  V30 5419 O 514.525 0.522713 1.94498 0
M  V30 5420 C 511.59 1.21662 3.24653 0
M  V30 5421 C 510.651 2.41886 3.54669 0
M  V30 5422 C 509.884 2.25655 4.83648 0
M  V30 5423 O 510.107 1.25339 5.56459 0
M  V30 5424 O 509.041 3.14372 5.13277 0
M  V30 5425 H 512.867 2.35143 1.92202 0
M  V30 5426 H 510.452 1.19721 0.893708 0
M  V30 5427 H 512.334 1.14246 4.05618 0
M  V30 5428 H 511.009 0.283024 3.2246 0
M  V30 5429 H 509.916 2.54877 2.73841 0
M  V30 5430 H 511.249 3.33895 3.61628 0
M  V30 5431 N 512.901 -0.976442 1.23707 0
M  V30 5432 C 513.811 -2.10359 1.03856 0
M  V30 5433 C 514.827 -1.73991 -0.0180919 0
M  V30 5434 O 516.003 -2.0061 0.178211 0
M  V30 5435 C 513.068 -3.40809 0.636387 0
M  V30 5436 C 512.129 -3.91179 1.76854 0
M  V30 5437 C 511.362 -5.15404 1.38546 0
M  V30 5438 O 511.585 -5.69754 0.27142 0
M  V30 5439 O 510.519 -5.5994 2.20797 0
M  V30 5440 H 514.345 -2.29997 1.98331 0
M  V30 5441 H 511.93 -1.08742 1.02448 0
M  V30 5442 H 513.812 -4.19269 0.423223 0
M  V30 5443 H 512.487 -3.22493 -0.279322 0
M  V30 5444 H 511.394 -3.13819 2.03638 0
M  V30 5445 H 512.727 -4.13958 2.6627 0
M  V30 5446 N 514.379 -1.04941 -1.1758 0
M  V30 5447 C 515.626 -0.757989 -1.87779 0
M  V30 5448 C 515.954 0.714827 -1.80888 0
M  V30 5449 O 515.209 1.53824 -1.20982 0
M  V30 5450 C 515.508 -1.18062 -3.37337 0
M  V30 5451 C 515.174 -2.65521 -3.6443 0
M  V30 5452 C 513.836 -3.05804 -3.71534 0
M  V30 5453 C 516.188 -3.60822 -3.76108 0
M  V30 5454 C 513.516 -4.40256 -3.87803 0
M  V30 5455 C 515.868 -4.95005 -3.93895 0
M  V30 5456 C 514.532 -5.34945 -3.99237 0
M  V30 5457 H 513.802 -0.277368 -0.68713 0
M  V30 5458 H 516.449 -1.31603 -1.39115 0
M  V30 5459 H 514.754 -0.541525 -3.8804 0
M  V30 5460 H 516.451 -0.932368 -3.9001 0
M  V30 5461 H 513.041 -2.33324 -3.59524 0
M  V30 5462 H 517.225 -3.30841 -3.69943 0
M  V30 5463 H 512.481 -4.70707 -3.90186 0
M  V30 5464 H 516.655 -5.68746 -4.01872 0
M  V30 5465 H 514.282 -6.39135 -4.11596 0
M  V30 5466 N 515.857 1.33968 -0.830081 0
M  V30 5467 C 517.104 1.98063 -0.421566 0
M  V30 5468 C 517.432 1.65787 1.0171 0
M  V30 5469 O 516.687 0.925348 1.72441 0
M  V30 5470 C 516.986 3.52679 -0.57898 0
M  V30 5471 C 516.652 4.04884 -1.98443 0
M  V30 5472 C 515.314 4.18852 -2.36888 0
M  V30 5473 C 517.666 4.32879 -2.90285 0
M  V30 5474 C 514.994 4.58145 -3.66497 0
M  V30 5475 C 517.346 4.7362 -4.19364 0
M  V30 5476 C 516.01 4.85794 -4.57778 0
M  V30 5477 H 515.28 0.724765 -0.154262 0
M  V30 5478 H 517.927 1.59792 -1.05541 0
M  V30 5479 H 516.232 3.91556 0.138219 0
M  V30 5480 H 517.929 4.00261 -0.243317 0
M  V30 5481 H 514.519 3.9448 -1.67581 0
M  V30 5482 H 518.703 4.21619 -2.61823 0
M  V30 5483 H 513.959 4.65762 -3.96075 0
M  V30 5484 H 518.133 4.9424 -4.90612 0
M  V30 5485 H 515.76 5.15998 -5.58256 0
M  V30 5486 N 517.335 0.585699 1.46312 0
M  V30 5487 C 518.583 0.072278 2.01971 0
M  V30 5488 C 518.904 -1.29345 1.45928 0
M  V30 5489 O 518.174 -1.84973 0.645109 0
M  V30 5490 H 516.754 0.023729 0.746623 0
M  V30 5491 H 519.416 0.762155 1.7938 0
M  V30 5492 H 518.512 0.00552767 3.121 0
M  V30 5493 N 518.813 -1.54241 0.323641 0
M  V30 5494 C 519.76 -2.24339 -0.542277 0
M  V30 5495 C 520.73 -1.23421 -1.11159 0
M  V30 5496 O 521.915 -1.52104 -1.15192 0
M  V30 5497 C 519.055 -3.00479 -1.69725 0
M  V30 5498 C 518.168 -4.16214 -1.15716 0
M  V30 5499 C 517.303 -4.79884 -2.27783 0
M  V30 5500 C 516.342 -5.87722 -1.71023 0
M  V30 5501 N 515.479 -6.45254 -2.76752 0
M  V30 5502 H 520.319 -2.97935 0.0620613 0
M  V30 5503 H 517.856 -1.47039 0.0423993 0
M  V30 5504 H 519.814 -3.42869 -2.3769 0
M  V30 5505 H 518.444 -2.29217 -2.27288 0
M  V30 5506 H 517.496 -3.78605 -0.369063 0
M  V30 5507 H 518.808 -4.93838 -0.701832 0
M  V30 5508 H 517.962 -5.25243 -3.03651 0
M  V30 5509 H 516.701 -4.01641 -2.76652 0
M  V30 5510 H 515.706 -5.41765 -0.936518 0
M  V30 5511 H 516.931 -6.67863 -1.2303 0
M  V30 5512 H 514.877 -5.69884 -3.24912 0
M  V30 5513 H 514.794 -7.18292 -2.35782 0
M  V30 5514 H 516.062 -6.95269 -3.5245 0
M  V30 5515 N 520.291 -0.0518155 -1.57515 0
M  V30 5516 C 521.539 0.620595 -1.92336 0
M  V30 5517 C 521.86 1.71345 -0.930907 0
M  V30 5518 O 521.13 1.95885 0.0241341 0
M  V30 5519 H 519.71 0.232226 -0.709986 0
M  V30 5520 H 522.372 -0.104969 -1.94617 0
M  V30 5521 H 521.468 1.05879 -2.93592 0
M  V30 5522 N 521.769 1.56035 0.221574 0
M  V30 5523 C 522.997 1.8313 0.962864 0
M  V30 5524 C 523.412 0.630934 1.77946 0
M  V30 5525 O 522.769 -0.400519 1.78051 0
M  V30 5526 C 522.82 3.08742 1.88045 0
M  V30 5527 O 522.541 4.24147 1.09686 0
M  V30 5528 C 524.042 3.48824 2.73563 0
M  V30 5529 H 521.262 0.608775 0.282194 0
M  V30 5530 H 523.806 2.03124 0.23681 0
M  V30 5531 H 521.961 2.90723 2.56045 0
M  V30 5532 H 522.375 4.95505 1.71974 0
M  V30 5533 H 523.849 4.39752 3.3365 0
M  V30 5534 H 524.326 2.70575 3.45956 0
M  V30 5535 H 524.932 3.69282 2.10976 0
M  V30 5536 N 523.247 -0.488276 1.49845 0
M  V30 5537 C 524.494 -1.24157 1.59973 0
M  V30 5538 C 524.822 -1.92293 0.292182 0
M  V30 5539 O 524.077 -1.81942 -0.720813 0
M  V30 5540 C 524.376 -2.32152 2.71735 0
M  V30 5541 C 524.042 -1.81387 4.12807 0
M  V30 5542 C 522.704 -1.67262 4.51195 0
M  V30 5543 C 525.056 -1.43537 5.01045 0
M  V30 5544 C 522.384 -1.13685 5.7558 0
M  V30 5545 C 524.736 -0.914081 6.25961 0
M  V30 5546 C 523.4 -0.759327 6.63167 0
M  V30 5547 H 522.67 -0.454322 0.585383 0
M  V30 5548 H 525.317 -0.540261 1.83721 0
M  V30 5549 H 523.622 -3.08122 2.42008 0
M  V30 5550 H 525.319 -2.90164 2.76778 0
M  V30 5551 H 521.909 -1.93344 3.82513 0
M  V30 5552 H 526.093 -1.53292 4.72033 0
M  V30 5553 H 521.349 -1.00426 6.03096 0
M  V30 5554 H 525.523 -0.612066 6.93705 0
M  V30 5555 H 523.15 -0.342002 7.5943 0
M  V30 5556 N 524.725 -1.39134 -0.740242 0
M  V30 5557 C 525.635 -1.39697 -1.88473 0
M  V30 5558 C 526.651 -0.292403 -1.71526 0
M  V30 5559 O 527.827 -0.533021 -1.94219 0
M  V30 5560 C 524.892 -1.23382 -3.24003 0
M  V30 5561 C 523.953 -2.43763 -3.53381 0
M  V30 5562 C 523.186 -2.28216 -4.82445 0
M  V30 5563 O 523.409 -1.28288 -5.55786 0
M  V30 5564 O 522.343 -3.1709 -5.11603 0
M  V30 5565 H 526.169 -2.36159 -1.90952 0
M  V30 5566 H 523.754 -1.20194 -0.887346 0
M  V30 5567 H 525.636 -1.16395 -4.05006 0
M  V30 5568 H 524.311 -0.300121 -3.22306 0
M  V30 5569 H 523.218 -2.56325 -2.72485 0
M  V30 5570 H 524.551 -3.35808 -3.59852 0
M  V30 5571 N 526.204 0.969867 -1.24223 0
M  V30 5572 C 527.62 1.23809 -1.00716 0
M  V30 5573 C 527.82 1.99469 0.285358 0
M  V30 5574 O 526.876 2.31764 1.00207 0
M  V30 5575 C 528.189 2.02734 -2.2208 0
M  V30 5576 C 529.737 2.15834 -2.26681 0
M  V30 5577 C 530.212 2.98154 -3.47661 0
M  V30 5578 N 531.703 3.05737 -3.47964 0
M  V30 5579 C 532.438 3.69785 -4.38231 0
M  V30 5580 N 531.934 4.35569 -5.3875 0
M  V30 5581 N 533.727 3.66775 -4.25949 0
M  V30 5582 H 525.878 0.463294 -2.07286 0
M  V30 5583 H 528.141 0.267348 -0.909521 0
M  V30 5584 H 527.847 1.54524 -3.15935 0
M  V30 5585 H 527.721 3.0347 -2.24021 0
M  V30 5586 H 530.108 2.63248 -1.33359 0
M  V30 5587 H 530.189 1.14453 -2.28767 0
M  V30 5588 H 529.833 2.51435 -4.41297 0
M  V30 5589 H 529.763 3.99729 -3.42818 0
M  V30 5590 H 532.254 2.58941 -2.75242 0
M  V30 5591 H 532.567 4.82251 -6.03866 0
M  V30 5592 H 530.912 4.34244 -5.42639 0
M  V30 5593 H 534.103 3.14558 -3.46657 0
M  V30 5594 H 534.276 4.16407 -4.96497 0
M  V30 5595 N 527.682 1.05563 1.17022 0
M  V30 5596 C 529.098 0.777684 1.39371 0
M  V30 5597 C 529.298 -0.626269 1.91521 0
M  V30 5598 O 528.354 -1.38806 2.10924 0
M  V30 5599 C 529.667 1.83642 2.3811 0
M  V30 5600 C 531.215 1.85907 2.51809 0
M  V30 5601 C 531.69 2.90813 3.53824 0
M  V30 5602 N 533.181 2.898 3.61345 0
M  V30 5603 C 533.916 3.6762 4.40049 0
M  V30 5604 N 533.412 4.55237 5.22237 0
M  V30 5605 N 535.205 3.56044 4.34959 0
M  V30 5606 H 527.356 1.9614 0.815047 0
M  V30 5607 H 529.619 0.849527 0.420722 0
M  V30 5608 H 529.325 2.84425 2.06871 0
M  V30 5609 H 529.199 1.6812 3.37662 0
M  V30 5610 H 531.586 0.857865 2.82356 0
M  V30 5611 H 531.667 2.05506 1.52318 0
M  V30 5612 H 531.311 3.91122 3.24015 0
M  V30 5613 H 531.241 2.68465 4.53028 0
M  V30 5614 H 533.732 2.26274 3.02669 0
M  V30 5615 H 534.045 5.11291 5.79484 0
M  V30 5616 H 532.39 4.59296 5.21605 0
M  V30 5617 H 535.581 2.86986 3.69806 0
M  V30 5618 H 535.754 4.16938 4.96051 0
M  V30 5619 N 529.16 -1.33526 0.837174 0
M  V30 5620 C 530.407 -1.97837 0.432064 0
M  V30 5621 C 530.735 -1.66324 -1.00829 0
M  V30 5622 O 529.99 -0.93448 -1.71948 0
M  V30 5623 C 530.289 -3.52367 0.597675 0
M  V30 5624 C 529.955 -4.03826 2.00587 0
M  V30 5625 C 528.617 -4.1759 2.39106 0
M  V30 5626 C 530.969 -4.31333 2.92576 0
M  V30 5627 C 528.297 -4.56195 3.68921 0
M  V30 5628 C 530.649 -4.7139 4.2187 0
M  V30 5629 C 529.313 -4.8336 4.60347 0
M  V30 5630 H 528.583 -0.723937 0.158104 0
M  V30 5631 H 531.23 -1.5923 1.06387 0
M  V30 5632 H 529.535 -3.91624 -0.117452 0
M  V30 5633 H 531.232 -4.00126 0.26454 0
M  V30 5634 H 527.822 -3.93586 1.69671 0
M  V30 5635 H 532.006 -4.20224 2.64056 0
M  V30 5636 H 527.262 -4.63655 3.9854 0
M  V30 5637 H 531.436 -4.91631 4.93226 0
M  V30 5638 H 529.063 -5.1303 5.60985 0
M  V30 5639 N 530.638 -0.59345 -1.46 0
M  V30 5640 C 531.885 -0.0831523 -2.02329 0
M  V30 5641 C 532.213 1.28093 -1.46364 0
M  V30 5642 O 531.468 1.85526 -0.622793 0
M  V30 5643 C 531.767 0.021178 -3.57394 0
M  V30 5644 C 531.433 -1.27671 -4.32448 0
M  V30 5645 C 530.095 -1.63227 -4.5267 0
M  V30 5646 C 532.447 -2.13511 -4.7546 0
M  V30 5647 C 529.775 -2.84401 -5.1316 0
M  V30 5648 C 532.127 -3.33922 -5.37289 0
M  V30 5649 C 530.791 -3.69747 -5.55737 0
M  V30 5650 H 530.061 -0.0304276 -0.740375 0
M  V30 5651 H 532.708 -0.772239 -1.75239 0
M  V30 5652 H 531.013 0.793454 -3.83682 0
M  V30 5653 H 532.71 0.431942 -3.98667 0
M  V30 5654 H 529.3 -0.989937 -4.17011 0
M  V30 5655 H 533.484 -1.87344 -4.59582 0
M  V30 5656 H 528.74 -3.12282 -5.25633 0
M  V30 5657 H 532.914 -4.00698 -5.69574 0
M  V30 5658 H 530.541 -4.6373 -6.02377 0
M  V30 5659 N 532.116 1.54067 -0.331816 0
M  V30 5660 C 533.532 1.59587 0.0205388 0
M  V30 5661 C 533.732 1.34813 1.49759 0
M  V30 5662 O 532.788 1.13661 2.25471 0
M  V30 5663 C 534.101 2.97959 -0.405103 0
M  V30 5664 C 535.649 3.10964 -0.356454 0
M  V30 5665 C 536.124 4.51694 -0.757384 0
M  V30 5666 N 537.615 4.57709 -0.71111 0
M  V30 5667 C 538.35 5.64729 -0.993427 0
M  V30 5668 N 537.846 6.79652 -1.3433 0
M  V30 5669 N 539.639 5.54546 -0.918442 0
M  V30 5670 H 531.79 1.68426 -1.29407 0
M  V30 5671 H 534.053 0.78819 -0.526745 0
M  V30 5672 H 533.759 3.21115 -1.43451 0
M  V30 5673 H 533.633 3.76524 0.225692 0
M  V30 5674 H 536.02 2.87538 0.663763 0
M  V30 5675 H 536.101 2.34484 -1.02229 0
M  V30 5676 H 535.745 4.75853 -1.77555 0
M  V30 5677 H 535.675 5.26555 -0.0691444 0
M  V30 5678 H 538.166 3.75176 -0.452883 0
M  V30 5679 H 538.479 7.57221 -1.54388 0
M  V30 5680 H 536.824 6.81128 -1.38164 0
M  V30 5681 H 540.015 4.63641 -0.644536 0
M  V30 5682 H 540.188 6.37861 -1.14181 0
M  V30 5683 N 533.594 0.0601682 1.57485 0
M  V30 5684 C 534.871 -0.651956 1.84415 0
M  V30 5685 C 535.251 -1.88498 0.950361 0
M  V30 5686 O 534.599 -2.28496 0.0136719 0
M  V30 5687 C 534.809 -1.00069 3.34346 0
M  V30 5688 C 536.157 -1.37915 4.01578 0
M  V30 5689 O 537.181 -1.09277 3.39024 0
M  V30 5690 O 536.04 -1.91399 5.11887 0
M  V30 5691 H 533.134 -0.322668 0.761455 0
M  V30 5692 H 535.68 0.0902159 1.6946 0
M  V30 5693 H 534.452 -0.124463 3.91102 0
M  V30 5694 H 534.075 -1.80001 3.54521 0
M  V30 5695 N 535.072 -1.5615 -0.213296 0
M  V30 5696 C 535.982 -1.96265 -1.28519 0
M  V30 5697 C 536.998 -0.86765 -1.50824 0
M  V30 5698 O 538.174 -1.17191 -1.63793 0
M  V30 5699 C 535.239 -2.27836 -2.61327 0
M  V30 5700 C 534.3 -3.50949 -2.47252 0
M  V30 5701 C 533.533 -3.81004 -3.73727 0
M  V30 5702 O 533.756 -3.12612 -4.77106 0
M  V30 5703 O 532.69 -4.74477 -3.70344 0
M  V30 5704 H 536.516 -2.87631 -0.974795 0
M  V30 5705 H 534.101 -1.43467 -0.416832 0
M  V30 5706 H 535.983 -2.49299 -3.39747 0
M  V30 5707 H 534.658 -1.39643 -2.9203 0
M  V30 5708 H 533.565 -3.34754 -1.67004 0
M  V30 5709 H 534.898 -4.39551 -2.21486 0
M  V30 5710 N 536.55 0.480323 -1.50102 0
M  V30 5711 C 537.497 1.57946 -1.6829 0
M  V30 5712 C 538.467 1.57611 -0.524223 0
M  V30 5713 O 539.652 1.75282 -0.753709 0
M  V30 5714 C 536.792 2.95978 -1.77457 0
M  V30 5715 C 535.905 3.06173 -3.04766 0
M  V30 5716 C 535.04 4.35063 -3.04784 0
M  V30 5717 C 534.079 4.38966 -4.26586 0
M  V30 5718 N 533.216 5.59314 -4.24396 0
M  V30 5719 H 538.056 1.41743 -2.62131 0
M  V30 5720 H 535.593 0.689304 -1.2995 0
M  V30 5721 H 537.551 3.76011 -1.80752 0
M  V30 5722 H 536.181 3.10837 -0.870637 0
M  V30 5723 H 535.233 2.19071 -3.10986 0
M  V30 5724 H 536.545 3.04916 -3.9475 0
M  V30 5725 H 535.699 5.23436 -3.06757 0
M  V30 5726 H 534.438 4.38915 -2.12614 0
M  V30 5727 H 533.443 3.48992 -4.24835 0
M  V30 5728 H 534.668 4.36813 -5.19972 0
M  V30 5729 H 532.614 5.63969 -3.35074 0
M  V30 5730 H 532.531 5.5976 -5.08138 0
M  V30 5731 H 533.799 6.49837 -4.30502 0
M  V30 5732 N 538.028 1.39524 0.732853 0
M  V30 5733 C 538.938 1.40695 1.87729 0
M  V30 5734 C 539.954 0.301496 1.71368 0
M  V30 5735 O 541.13 0.543313 1.93933 0
M  V30 5736 C 538.195 1.25098 3.23344 0
M  V30 5737 C 537.256 2.45634 3.52083 0
M  V30 5738 C 536.489 2.30772 4.81228 0
M  V30 5739 O 536.712 1.31233 5.55098 0
M  V30 5740 O 535.646 3.19799 5.09914 0
M  V30 5741 H 539.472 2.37168 1.89697 0
M  V30 5742 H 537.057 1.20663 0.880959 0
M  V30 5743 H 538.939 1.18541 4.04383 0
M  V30 5744 H 537.614 0.317209 3.22142 0
M  V30 5745 H 536.521 2.57767 2.71122 0
M  V30 5746 H 537.854 3.37712 3.58066 0
M  V30 5747 N 539.506 -0.963266 1.24736 0
M  V30 5748 C 540.436 -2.07628 1.06832 0
M  V30 5749 C 541.417 -1.70088 -0.0200566 0
M  V30 5750 O 542.602 -1.93636 0.147854 0
M  V30 5751 C 539.732 -3.40636 0.677069 0
M  V30 5752 C 538.686 -3.9215 1.71471 0
M  V30 5753 C 538.012 -5.21553 1.1784 0
M  V30 5754 C 539.312 -4.19493 3.11164 0
M  V30 5755 H 541.006 -2.22864 1.9993 0
M  V30 5756 H 538.552 -1.07093 0.96266 0
M  V30 5757 H 540.505 -4.17941 0.538792 0
M  V30 5758 H 539.229 -3.25313 -0.289612 0
M  V30 5759 H 537.888 -3.17005 1.84128 0
M  V30 5760 H 537.536 -5.02593 0.202195 0
M  V30 5761 H 537.236 -5.56988 1.87185 0
M  V30 5762 H 538.76 -6.01463 1.05233 0
M  V30 5763 H 540.174 -4.87487 3.01711 0
M  V30 5764 H 538.571 -4.66165 3.77902 0
M  V30 5765 H 539.641 -3.26097 3.58871 0
M  V30 5766 N 540.985 -1.06182 -1.16461 0
M  V30 5767 C 541.917 -0.629584 -2.20383 0
M  V30 5768 C 542.93 0.311834 -1.59786 0
M  V30 5769 O 544.119 0.103 -1.78203 0
M  V30 5770 C 541.219 0.0973695 -3.3876 0
M  V30 5771 C 540.392 -0.857252 -4.28917 0
M  V30 5772 C 539.451 -0.169749 -5.25926 0
M  V30 5773 O 538.477 -0.807044 -5.6345 0
M  V30 5774 N 539.679 1.08911 -5.70192 0
M  V30 5775 H 542.444 -1.52352 -2.58087 0
M  V30 5776 H 540.005 -0.944993 -1.31459 0
M  V30 5777 H 541.997 0.567676 -4.00699 0
M  V30 5778 H 540.567 0.893093 -2.99571 0
M  V30 5779 H 539.787 -1.50696 -3.64259 0
M  V30 5780 H 541.075 -1.50489 -4.86035 0
M  V30 5781 H 540.473 1.62703 -5.41797 0
M  V30 5782 H 539.03 1.50331 -6.34227 0
M  V30 5783 N 542.463 1.3308 -0.844243 0
M  V30 5784 C 543.373 2.32876 -0.283922 0
M  V30 5785 C 544.389 1.63589 0.592846 0
M  V30 5786 O 545.565 1.95205 0.495693 0
M  V30 5787 C 542.63 3.42667 0.527283 0
M  V30 5788 C 541.691 4.27664 -0.374394 0
M  V30 5789 C 540.924 5.32212 0.39819 0
M  V30 5790 O 541.147 5.46635 1.62932 0
M  V30 5791 O 540.081 6.01458 -0.2306 0
M  V30 5792 H 543.907 2.82671 -1.11045 0
M  V30 5793 H 541.492 1.36518 -0.606903 0
M  V30 5794 H 543.374 4.09652 0.988078 0
M  V30 5795 H 542.049 2.95079 1.33078 0
M  V30 5796 H 540.956 3.63526 -0.883144 0
M  V30 5797 H 542.289 4.78749 -1.1428 0
M  V30 5798 N 543.941 0.601185 1.45683 0
M  V30 5799 C 545.171 0.0999093 2.06358 0
M  V30 5800 C 545.579 -1.21831 1.44754 0
M  V30 5801 O 544.922 -1.75157 0.553695 0
M  V30 5802 C 544.984 -0.12085 3.59297 0
M  V30 5803 C 544.648 1.11459 4.432 0
M  V30 5804 C 545.645 2.03118 4.7858 0
M  V30 5805 C 543.33 1.34162 4.84051 0
M  V30 5806 C 545.324 3.15814 5.53661 0
M  V30 5807 C 543.011 2.4716 5.58888 0
M  V30 5808 C 544.009 3.37814 5.93608 0
M  V30 5809 O 543.697 4.48846 6.66928 0
M  V30 5810 H 543.429 0.0630316 0.673055 0
M  V30 5811 H 545.983 0.826982 1.88016 0
M  V30 5812 H 544.213 -0.902744 3.76015 0
M  V30 5813 H 545.902 -0.572925 4.01836 0
M  V30 5814 H 546.668 1.86801 4.47583 0
M  V30 5815 H 542.547 0.645018 4.56465 0
M  V30 5816 H 546.091 3.86596 5.8068 0
M  V30 5817 H 541.988 2.63432 5.89299 0
M  V30 5818 H 542.756 4.47446 6.85371 0
M  V30 5819 N 545.419 -1.53889 0.339982 0
M  V30 5820 C 546.329 -2.28604 -0.526988 0
M  V30 5821 C 547.345 -1.33578 -1.11503 0
M  V30 5822 O 548.521 -1.66612 -1.13148 0
M  V30 5823 C 545.586 -3.04164 -1.66389 0
M  V30 5824 C 544.647 -4.14809 -1.10599 0
M  V30 5825 C 543.88 -4.86756 -2.18871 0
M  V30 5826 O 544.103 -4.58343 -3.39526 0
M  V30 5827 O 543.037 -5.73289 -1.83366 0
M  V30 5828 H 546.863 -3.03594 0.0802707 0
M  V30 5829 H 544.448 -1.4903 0.105141 0
M  V30 5830 H 546.33 -3.51427 -2.32544 0
M  V30 5831 H 545.005 -2.32035 -2.25703 0
M  V30 5832 H 543.912 -3.71857 -0.409067 0
M  V30 5833 H 545.245 -4.89029 -0.557771 0
M  V30 5834 N 546.897 -0.0685191 -1.57451 0
M  V30 5835 C 547.86 0.885173 -2.11417 0
M  V30 5836 C 548.86 1.22853 -1.03748 0
M  V30 5837 O 550.05 1.16235 -1.2975 0
M  V30 5838 C 547.182 2.18964 -2.61281 0
M  V30 5839 H 548.375 0.417034 -2.96986 0
M  V30 5840 H 545.928 0.18014 -1.55258 0
M  V30 5841 H 546.663 2.70321 -1.79156 0
M  V30 5842 H 546.448 1.9534 -3.39977 0
M  V30 5843 H 547.938 2.87242 -3.0312 0
M  V30 5844 N 548.375 1.56261 0.205012 0
M  V30 5845 C 549.338 1.92908 1.23771 0
M  V30 5846 C 550.338 0.809208 1.38955 0
M  V30 5847 O 551.528 1.07676 1.36936 0
M  V30 5848 C 548.66 2.19442 2.60879 0
M  V30 5849 H 549.853 2.85287 0.924728 0
M  V30 5850 H 547.406 1.49798 0.446125 0
M  V30 5851 H 548.141 1.29668 2.97248 0
M  V30 5852 H 547.926 3.0104 2.51232 0
M  V30 5853 H 549.416 2.48833 3.35368 0
M  V30 5854 N 549.853 -0.472356 1.50355 0
M  V30 5855 C 550.763 -1.59637 1.7191 0
M  V30 5856 C 551.779 -1.63247 0.602195 0
M  V30 5857 O 552.955 -1.81139 0.880369 0
M  V30 5858 C 550.02 -2.9586 1.80742 0
M  V30 5859 C 549.081 -3.02649 3.04471 0
M  V30 5860 C 548.314 -4.32374 3.12872 0
M  V30 5861 O 548.537 -5.22807 2.28099 0
M  V30 5862 O 547.471 -4.44728 4.05587 0
M  V30 5863 H 551.297 -1.44373 2.67189 0
M  V30 5864 H 548.882 -0.651717 1.34436 0
M  V30 5865 H 550.764 -3.7677 1.88739 0
M  V30 5866 H 549.439 -3.11325 0.88647 0
M  V30 5867 H 548.346 -2.20821 3.01975 0
M  V30 5868 H 549.679 -2.92119 3.9614 0
M  V30 5869 N 551.331 -1.39911 -0.725443 0
M  V30 5870 C 552.261 -1.42138 -1.85254 0
M  V30 5871 C 553.242 -0.283513 -1.67721 0
M  V30 5872 O 554.427 -0.490717 -1.87898 0
M  V30 5873 C 551.557 -1.27354 -3.23107 0
M  V30 5874 C 550.511 -2.3864 -3.55296 0
M  V30 5875 C 549.837 -2.08939 -4.92188 0
M  V30 5876 C 551.137 -3.8097 -3.57295 0
M  V30 5877 H 552.831 -2.36461 -1.83648 0
M  V30 5878 H 550.377 -1.13817 -0.882138 0
M  V30 5879 H 552.33 -1.2753 -4.01639 0
M  V30 5880 H 551.054 -0.295025 -3.25265 0
M  V30 5881 H 549.713 -2.37696 -2.79099 0
M  V30 5882 H 549.361 -1.09502 -4.90936 0
M  V30 5883 H 549.061 -2.83491 -5.14691 0
M  V30 5884 H 550.585 -2.10781 -5.73065 0
M  V30 5885 H 551.999 -3.8379 -4.25885 0
M  V30 5886 H 550.396 -4.5496 -3.9132 0
M  V30 5887 H 551.466 -4.11261 -2.5689 0
M  V30 5888 N 552.809 0.956637 -1.25245 0
M  V30 5889 C 554.037 1.73571 -1.12608 0
M  V30 5890 C 554.452 1.86063 0.320324 0
M  V30 5891 O 553.809 1.35691 1.22042 0
M  V30 5892 C 553.86 3.15053 -1.77268 0
M  V30 5893 O 553.581 3.03174 -3.16255 0
M  V30 5894 C 555.082 4.09248 -1.70386 0
M  V30 5895 H 552.302 0.543955 -0.392879 0
M  V30 5896 H 554.846 1.20031 -1.65568 0
M  V30 5897 H 553.001 3.65543 -1.28284 0
M  V30 5898 H 553.415 3.9241 -3.48015 0
M  V30 5899 H 554.889 5.06138 -2.20291 0
M  V30 5900 H 555.366 4.34102 -0.667239 0
M  V30 5901 H 555.972 3.64672 -2.18849 0
M  V30 5902 N 554.287 1.06798 1.15896 0
M  V30 5903 C 555.234 0.683314 2.20453 0
M  V30 5904 C 556.204 -0.32255 1.62938 0
M  V30 5905 O 557.389 -0.210276 1.89638 0
M  V30 5906 C 554.529 0.0813266 3.45004 0
M  V30 5907 C 553.642 1.13799 4.16742 0
M  V30 5908 C 552.777 0.501598 5.28826 0
M  V30 5909 C 551.816 1.54144 5.92373 0
M  V30 5910 N 550.953 0.928038 6.9594 0
M  V30 5911 H 555.793 1.57932 2.52708 0
M  V30 5912 H 553.33 0.789544 1.24115 0
M  V30 5913 H 555.288 -0.285274 4.16224 0
M  V30 5914 H 553.918 -0.77806 3.13283 0
M  V30 5915 H 552.97 1.62223 3.44075 0
M  V30 5916 H 554.282 1.92664 4.60089 0
M  V30 5917 H 553.436 0.0823162 6.06644 0
M  V30 5918 H 552.175 -0.318883 4.86656 0
M  V30 5919 H 551.18 1.97056 5.13273 0
M  V30 5920 H 552.405 2.3641 6.36621 0
M  V30 5921 H 550.351 0.12836 6.55874 0
M  V30 5922 H 550.268 1.65401 7.37685 0
M  V30 5923 H 551.536 0.534071 7.77668 0
M  V30 5924 N 555.766 -1.3263 0.851289 0
M  V30 5925 C 556.994 -2.01563 0.466899 0
M  V30 5926 C 557.409 -1.63996 -0.935447 0
M  V30 5927 O 556.766 -0.85957 -1.6099 0
M  V30 5928 C 556.817 -3.56613 0.592433 0
M  V30 5929 O 556.538 -3.92828 1.93954 0
M  V30 5930 C 558.039 -4.42818 0.206612 0
M  V30 5931 H 555.259 -0.645307 0.183902 0
M  V30 5932 H 557.803 -1.69285 1.1473 0
M  V30 5933 H 555.958 -3.87379 -0.0401936 0
M  V30 5934 H 556.372 -4.87545 1.9339 0
M  V30 5935 H 557.846 -5.50918 0.345462 0
M  V30 5936 H 558.323 -4.30844 -0.85264 0
M  V30 5937 H 558.929 -4.17434 0.814176 0
M  V30 5938 N 557.244 -0.608902 -1.45362 0
M  V30 5939 C 558.521 -0.0365378 -1.95566 0
M  V30 5940 C 558.901 1.43169 -1.55131 0
M  V30 5941 O 558.249 2.1349 -0.814513 0
M  V30 5942 C 558.459 -0.236026 -3.48201 0
M  V30 5943 C 559.807 -0.117518 -4.24437 0
M  V30 5944 O 560.831 -0.166217 -3.55812 0
M  V30 5945 O 559.69 -0.00372127 -5.465 0
M  V30 5946 H 556.784 0.0349874 -0.82626 0
M  V30 5947 H 559.33 -0.679055 -1.55521 0
M  V30 5948 H 558.102 -1.25569 -3.70605 0
M  V30 5949 H 557.725 0.441691 -3.95139 0
M  V30 5950 N 558.722 1.53707 -0.348139 0
M  V30 5951 C 559.968 2.01286 0.247332 0
M  V30 5952 C 560.301 1.23546 1.49834 0
M  V30 5953 O 559.576 0.324331 1.91777 0
M  V30 5954 C 559.859 3.55768 0.556858 0
M  V30 5955 C 559.712 4.44216 -0.706564 0
M  V30 5956 C 561.031 4.1841 1.3646 0
M  V30 5957 H 558.15 0.731677 0.0884201 0
M  V30 5958 H 560.792 1.84106 -0.469584 0
M  V30 5959 H 558.942 3.70539 1.16761 0
M  V30 5960 H 560.614 4.41274 -1.34444 0
M  V30 5961 H 558.857 4.12892 -1.33052 0
M  V30 5962 H 559.528 5.50202 -0.445186 0
M  V30 5963 H 562.004 4.07365 0.848113 0
M  V30 5964 H 560.88 5.26563 1.54992 0
M  V30 5965 H 561.141 3.7333 2.36805 0
M  V30 5966 N 560.2 0.0768682 1.57412 0
M  V30 5967 C 561.163 -0.873949 2.11884 0
M  V30 5968 C 562.163 -1.22301 1.04398 0
M  V30 5969 O 563.353 -1.15545 1.30365 0
M  V30 5970 C 560.485 -2.17575 2.62438 0
M  V30 5971 H 561.678 -0.401278 2.97203 0
M  V30 5972 H 559.231 -0.171904 1.55352 0
M  V30 5973 H 559.966 -2.69368 1.80587 0
M  V30 5974 H 559.751 -1.93534 3.41009 0
M  V30 5975 H 561.241 -2.85631 3.04639 0
M  V30 5976 N 561.678 -1.56367 -0.196722 0
M  V30 5977 C 562.608 -1.97442 -1.24655 0
M  V30 5978 C 563.589 -0.846147 -1.47561 0
M  V30 5979 O 564.774 -1.11035 -1.59326 0
M  V30 5980 C 561.904 -2.31253 -2.59112 0
M  V30 5981 C 560.858 -3.46804 -2.50821 0
M  V30 5982 C 560.184 -3.66286 -3.89536 0
M  V30 5983 C 561.484 -4.8104 -2.03465 0
M  V30 5984 H 563.178 -2.85388 -0.905216 0
M  V30 5985 H 560.724 -1.37304 -0.434002 0
M  V30 5986 H 562.677 -2.58583 -3.32736 0
M  V30 5987 H 561.401 -1.40188 -2.94983 0
M  V30 5988 H 560.06 -3.19563 -1.79653 0
M  V30 5989 H 559.708 -2.72555 -4.22756 0
M  V30 5990 H 559.408 -4.4402 -3.84864 0
M  V30 5991 H 560.932 -3.9599 -4.64784 0
M  V30 5992 H 562.346 -5.07411 -2.66846 0
M  V30 5993 H 560.743 -5.62232 -2.09798 0
M  V30 5994 H 561.813 -4.74732 -0.98781 0
M  V30 5995 N 563.156 0.464375 -1.50603 0
M  V30 5996 C 564.119 1.54393 -1.69397 0
M  V30 5997 C 565.119 1.50566 -0.564504 0
M  V30 5998 O 566.309 1.53066 -0.831645 0
M  V30 5999 C 563.441 2.9401 -1.72543 0
M  V30 6000 H 564.634 1.39044 -2.65719 0
M  V30 6001 H 562.187 0.69122 -1.40185 0
M  V30 6002 H 562.922 3.14795 -0.77938 0
M  V30 6003 H 562.707 2.98195 -2.54602 0
M  V30 6004 H 564.197 3.72375 -1.89015 0
M  V30 6005 N 564.634 1.40294 0.718013 0
M  V30 6006 C 565.911 1.2894 1.47084 0
M  V30 6007 C 566.291 -0.0933625 2.10893 0
M  V30 6008 O 565.639 -1.10598 1.99951 0
M  V30 6009 C 565.849 2.4264 2.50852 0
M  V30 6010 C 567.197 2.8276 3.16752 0
M  V30 6011 O 568.221 2.42215 2.61171 0
M  V30 6012 O 567.08 3.528 4.17366 0
M  V30 6013 H 564.174 0.506236 0.653952 0
M  V30 6014 H 566.72 1.52208 0.750394 0
M  V30 6015 H 565.492 3.35009 2.022 0
M  V30 6016 H 565.115 2.21129 3.30435 0
M  V30 6017 N 566.112 -0.949982 1.2575 0
M  V30 6018 C 567.389 -1.6718 1.01539 0
M  V30 6019 C 567.769 -2.06095 -0.456942 0
M  V30 6020 O 567.117 -1.77792 -1.43534 0
M  V30 6021 C 567.327 -2.8906 1.95564 0
M  V30 6022 C 568.675 -3.60909 2.23673 0
M  V30 6023 O 569.699 -2.9915 1.9336 0
M  V30 6024 O 568.558 -4.72127 2.75243 0
M  V30 6025 H 565.652 -0.731697 0.385419 0
M  V30 6026 H 568.198 -1.00249 1.36924 0
M  V30 6027 H 566.97 -2.57128 2.94959 0
M  V30 6028 H 566.593 -3.63719 1.60605 0
M  V30 6029 N 567.59 -1.07411 -1.15328 0
M  V30 6030 C 568.838 -0.796073 -1.85761 0
M  V30 6031 C 569.159 0.679864 -1.82764 0
M  V30 6032 O 568.429 1.49242 -1.269 0
M  V30 6033 H 567.009 -0.291495 -0.687779 0
M  V30 6034 H 569.671 -1.35799 -1.39802 0
M  V30 6035 H 568.767 -1.13114 -2.90881 0
M  V30 6036 N 569.068 1.32177 -0.85831 0
M  V30 6037 C 570.296 2.01313 -0.477582 0
M  V30 6038 C 570.711 1.6449 0.926736 0
M  V30 6039 O 570.068 0.868096 1.60531 0
M  V30 6040 C 570.119 3.56293 -0.611337 0
M  V30 6041 O 569.84 3.91794 -1.96034 0
M  V30 6042 C 571.341 4.42702 -0.230093 0
M  V30 6043 H 568.561 0.644323 -0.187322 0
M  V30 6044 H 571.105 1.68674 -1.15626 0
M  V30 6045 H 569.26 3.87395 0.0196494 0
M  V30 6046 H 569.674 4.86513 -1.95973 0
M  V30 6047 H 571.148 5.50727 -0.374674 0
M  V30 6048 H 571.625 4.3129 0.829779 0
M  V30 6049 H 572.231 4.16997 -0.836302 0
M  V30 6050 N 570.547 0.616602 1.45037 0
M  V30 6051 C 571.793 0.115501 2.02471 0
M  V30 6052 C 572.126 -1.25406 1.4828 0
M  V30 6053 O 571.401 -1.82922 0.661051 0
M  V30 6054 C 571.684 0.0863588 3.59996 0
M  V30 6055 C 571.537 1.48723 4.24501 0
M  V30 6056 C 572.856 -0.596762 4.36035 0
M  V30 6057 H 569.975 0.0434461 0.735718 0
M  V30 6058 H 572.617 0.7903 1.72784 0
M  V30 6059 H 570.767 -0.488277 3.85419 0
M  V30 6060 H 572.439 2.10964 4.10234 0
M  V30 6061 H 570.682 2.04534 3.82555 0
M  V30 6062 H 571.353 1.419 5.3345 0
M  V30 6063 H 573.829 -0.10824 4.15959 0
M  V30 6064 H 572.705 -0.586289 5.4576 0
M  V30 6065 H 572.966 -1.66451 4.09569 0
M  V30 6066 N 572.025 -1.5352 0.356285 0
M  V30 6067 C 572.973 -2.26945 -0.50978 0
M  V30 6068 C 573.967 -1.29569 -1.09125 0
M  V30 6069 O 575.173 -1.47231 -1.03552 0
M  V30 6070 H 571.548 -0.729368 -0.183102 0
M  V30 6071 H 573.519 -2.98111 0.131374 0
M  V30 6072 C 572.268 -3.06466 -1.64237 0
M  V30 6073 H 571.591 -3.81233 -1.20423 0
M  V30 6074 H 573.031 -3.61035 -2.22327 0
M  V30 6075 C 571.49 -2.16737 -2.57928 0
M  V30 6076 O 572.02 -1.77195 -3.60507 0
M  V30 6077 N 570.226 -1.81558 -2.26903 0
M  V30 6078 H 569.773 -2.13913 -1.43524 0
M  V30 6079 H 569.731 -1.21806 -2.89846 0
M  V30 6080 N 573.503 -0.0852151 -1.57369 0
M  V30 6081 C 574.728 0.592872 -1.98746 0
M  V30 6082 C 575.153 1.61538 -0.963689 0
M  V30 6083 O 574.511 1.81168 0.069071 0
M  V30 6084 C 574.559 1.22599 -3.39119 0
M  V30 6085 O 573.663 2.34185 -3.39457 0
M  V30 6086 H 573.004 0.151314 -0.646529 0
M  V30 6087 H 575.534 -0.163703 -2.03944 0
M  V30 6088 H 575.544 1.56965 -3.76598 0
M  V30 6089 H 574.219 0.476831 -4.13158 0
M  V30 6090 H 572.796 2.01512 -3.13763 0
M  V30 6091 N 574.981 1.5647 0.188427 0
M  V30 6092 C 576.258 1.71857 0.934058 0
M  V30 6093 C 576.638 0.641867 2.01105 0
M  V30 6094 O 575.986 -0.346098 2.25864 0
M  V30 6095 C 576.196 3.14431 1.5144 0
M  V30 6096 C 577.544 3.74869 1.99396 0
M  V30 6097 O 578.568 3.17601 1.61269 0
M  V30 6098 O 577.427 4.75387 2.69573 0
M  V30 6099 H 574.521 0.701186 0.438483 0
M  V30 6100 H 577.067 1.68768 0.177599 0
M  V30 6101 H 575.839 3.8427 0.738416 0
M  V30 6102 H 575.462 3.21775 2.33552 0
M  V30 6103 N 576.459 -0.456382 1.50847 0
M  V30 6104 C 577.736 -1.21739 1.53098 0
M  V30 6105 C 578.116 -2.09179 0.284132 0
M  V30 6106 O 577.464 -2.16466 -0.731773 0
M  V30 6107 C 577.674 -2.03573 2.83477 0
M  V30 6108 C 579.022 -2.61264 3.34703 0
M  V30 6109 O 580.046 -2.13802 2.84898 0
M  V30 6110 O 578.905 -3.47779 4.21559 0
M  V30 6111 H 575.999 -0.553219 0.614718 0
M  V30 6112 H 578.545 -0.467003 1.63148 0
M  V30 6113 H 577.317 -1.39232 3.65691 0
M  V30 6114 H 576.94 -2.85716 2.76499 0
M  V30 6115 N 577.937 -1.40673 -0.710563 0
M  V30 6116 C 578.847 -1.43663 -1.85467 0
M  V30 6117 C 579.863 -0.328721 -1.70867 0
M  V30 6118 O 581.039 -0.574098 -1.93044 0
M  V30 6119 C 578.104 -1.30226 -3.21313 0
M  V30 6120 C 577.165 -2.51204 -3.48131 0
M  V30 6121 C 576.398 -2.38398 -4.77495 0
M  V30 6122 O 576.621 -1.40048 -5.5294 0
M  V30 6123 O 575.555 -3.2787 -5.04762 0
M  V30 6124 H 579.381 -2.40156 -1.859 0
M  V30 6125 H 576.966 -1.22049 -0.861652 0
M  V30 6126 H 578.848 -1.2496 -4.02446 0
M  V30 6127 H 577.523 -0.368419 -3.21597 0
M  V30 6128 H 576.43 -2.62048 -2.66987 0
M  V30 6129 H 577.763 -3.43366 -3.52648 0
M  V30 6130 N 579.415 0.9433 -1.26252 0
M  V30 6131 C 580.692 1.66639 -1.02424 0
M  V30 6132 C 581.072 2.06335 0.446006 0
M  V30 6133 O 580.42 1.78551 1.42589 0
M  V30 6134 C 580.63 2.88019 -1.97094 0
M  V30 6135 C 581.978 3.59718 -2.25584 0
M  V30 6136 O 583.002 2.9812 -1.94943 0
M  V30 6137 O 581.861 4.7066 -2.77743 0
M  V30 6138 H 578.955 0.729643 -0.389294 0
M  V30 6139 H 581.501 0.995218 -1.37454 0
M  V30 6140 H 580.273 2.5556 -2.96319 0
M  V30 6141 H 579.896 3.62863 -1.62532 0
M  V30 6142 N 580.893 1.08022 1.14757 0
M  V30 6143 C 582.123 0.827646 1.89298 0
M  V30 6144 C 582.531 -0.623506 1.78631 0
M  V30 6145 O 581.874 -1.43991 1.14071 0
M  V30 6146 C 581.936 1.16553 3.40082 0
M  V30 6147 C 581.6 2.61866 3.74533 0
M  V30 6148 C 582.597 3.60116 3.74984 0
M  V30 6149 C 580.282 2.97619 4.04633 0
M  V30 6150 C 582.276 4.92151 4.05051 0
M  V30 6151 C 579.963 4.2985 4.34364 0
M  V30 6152 C 580.961 5.26926 4.34555 0
M  V30 6153 O 580.649 6.5678 4.63568 0
M  V30 6154 H 580.381 0.298396 0.606577 0
M  V30 6155 H 582.935 1.44187 1.46285 0
M  V30 6156 H 581.165 0.494296 3.83528 0
M  V30 6157 H 582.854 0.894407 3.95923 0
M  V30 6158 H 583.62 3.33837 3.51821 0
M  V30 6159 H 579.499 2.22702 4.03639 0
M  V30 6160 H 583.043 5.67915 4.05115 0
M  V30 6161 H 578.94 4.55879 4.56995 0
M  V30 6162 H 579.708 6.62035 4.81303 0
M  V30 6163 N 582.371 -1.3172 0.865308 0
M  V30 6164 C 583.618 -1.96876 0.473931 0
M  V30 6165 C 583.946 -1.68425 -0.972786 0
M  V30 6166 O 583.201 -0.970742 -1.69927 0
M  V30 6167 C 583.5 -3.5102 0.672283 0
M  V30 6168 C 583.166 -3.9948 2.09108 0
M  V30 6169 C 581.828 -4.12425 2.4791 0
M  V30 6170 C 584.18 -4.2503 3.0166 0
M  V30 6171 C 581.508 -4.48267 3.78515 0
M  V30 6172 C 583.86 -4.62335 4.31774 0
M  V30 6173 C 582.524 -4.73486 4.70497 0
M  V30 6174 H 581.794 -0.72042 0.173424 0
M  V30 6175 H 584.441 -1.56937 1.0974 0
M  V30 6176 H 582.746 -3.91785 -0.034356 0
M  V30 6177 H 584.443 -3.99475 0.349353 0
M  V30 6178 H 581.033 -3.89898 1.77981 0
M  V30 6179 H 585.217 -4.14529 2.7291 0
M  V30 6180 H 580.473 -4.55097 4.08285 0
M  V30 6181 H 584.647 -4.81058 5.03543 0
M  V30 6182 H 582.274 -5.01016 5.71741 0
M  V30 6183 N 583.85 -0.624285 -1.44708 0
M  V30 6184 C 585.075 -0.131171 -2.06985 0
M  V30 6185 C 585.5 1.18234 -1.46295 0
M  V30 6186 O 584.858 1.72375 -0.561842 0
M  V30 6187 C 584.906 -0.0226724 -3.60593 0
M  V30 6188 O 584.01 1.02314 -3.99507 0
M  V30 6189 H 583.351 -0.0816556 -0.65896 0
M  V30 6190 H 585.88 -0.859027 -1.85693 0
M  V30 6191 H 585.891 0.170138 -4.07645 0
M  V30 6192 H 584.566 -0.981685 -4.04148 0
M  V30 6193 H 583.143 0.805452 -3.64097 0
M  V30 6194 N 585.328 1.53329 -0.364422 0
M  V30 6195 C 586.576 2.00842 0.225189 0
M  V30 6196 C 586.897 1.25345 1.49378 0
M  V30 6197 O 586.167 0.366396 1.92443 0
M  V30 6198 H 584.747 0.742009 0.0862027 0
M  V30 6199 H 587.409 1.8863 -0.490389 0
M  V30 6200 H 586.505 3.08795 0.452987 0
M  V30 6201 N 586.806 0.0935595 1.57322 0
M  V30 6202 C 587.716 -0.880192 2.17462 0
M  V30 6203 C 588.732 -1.31135 1.14366 0
M  V30 6204 O 589.908 -1.37958 1.46729 0
M  V30 6205 C 586.973 -2.12184 2.74188 0
M  V30 6206 C 586.034 -1.74503 3.92234 0
M  V30 6207 C 585.267 -2.92748 4.46245 0
M  V30 6208 O 585.49 -4.07427 3.99198 0
M  V30 6209 O 584.424 -2.71303 5.37288 0
M  V30 6210 H 588.25 -0.398516 3.01074 0
M  V30 6211 H 585.835 -0.130707 1.48827 0
M  V30 6212 H 587.717 -2.84953 3.10451 0
M  V30 6213 H 586.392 -2.59407 1.93623 0
M  V30 6214 H 585.299 -0.989186 3.60785 0
M  V30 6215 H 586.632 -1.32044 4.74157 0
M  V30 6216 N 588.284 -1.56567 -0.180126 0
M  V30 6217 C 589.512 -1.85618 -0.913972 0
M  V30 6218 C 589.927 -0.677892 -1.7621 0
M  V30 6219 O 589.284 0.353171 -1.7905 0
M  V30 6220 C 589.335 -3.13619 -1.79793 0
M  V30 6221 O 589.056 -4.26906 -0.98402 0
M  V30 6222 C 590.557 -3.55954 -2.64219 0
M  V30 6223 H 587.777 -0.616043 -0.265954 0
M  V30 6224 H 590.321 -2.03681 -0.182872 0
M  V30 6225 H 588.476 -2.97409 -2.48247 0
M  V30 6226 H 588.89 -4.9989 -1.58776 0
M  V30 6227 H 590.364 -4.48444 -3.21873 0
M  V30 6228 H 590.841 -2.79653 -3.38661 0
M  V30 6229 H 591.447 -3.74746 -2.01111 0
M  V30 6230 N 589.762 0.448376 -1.51087 0
M  V30 6231 C 591.178 0.783984 -1.39017 0
M  V30 6232 C 591.378 1.96087 -0.463904 0
M  V30 6233 O 590.434 2.52357 0.0850534 0
M  V30 6234 C 591.747 1.07471 -2.80839 0
M  V30 6235 C 593.295 1.17981 -2.89913 0
M  V30 6236 C 593.77 1.50354 -4.32617 0
M  V30 6237 N 595.261 1.57301 -4.35673 0
M  V30 6238 C 595.996 1.839 -5.4311 0
M  V30 6239 N 595.492 2.08365 -6.60724 0
M  V30 6240 N 597.285 1.8559 -5.30578 0
M  V30 6241 H 589.436 -0.326881 -2.0987 0
M  V30 6242 H 591.699 -0.0838006 -0.944289 0
M  V30 6243 H 591.405 0.282768 -3.50561 0
M  V30 6244 H 591.279 2.00519 -3.19487 0
M  V30 6245 H 593.666 1.9624 -2.20395 0
M  V30 6246 H 593.747 0.228603 -2.54776 0
M  V30 6247 H 593.391 0.726273 -5.0268 0
M  V30 6248 H 593.321 2.46663 -4.65258 0
M  V30 6249 H 595.812 1.40342 -3.50874 0
M  V30 6250 H 596.125 2.27999 -7.38401 0
M  V30 6251 H 594.47 2.0571 -6.63859 0
M  V30 6252 H 597.661 1.65989 -4.37682 0
M  V30 6253 H 597.834 2.05983 -6.1439 0
M  V30 6254 N 591.24 1.41047 0.703093 0
M  V30 6255 C 592.465 1.43537 1.49706 0
M  V30 6256 C 592.89 0.0401853 1.88057 0
M  V30 6257 O 592.248 -0.954785 1.54122 0
M  V30 6258 C 592.296 2.3433 2.74084 0
M  V30 6259 O 591.4 1.79515 3.71279 0
M  V30 6260 H 590.741 0.487454 0.450871 0
M  V30 6261 H 593.271 1.85422 0.86486 0
M  V30 6262 H 593.281 2.49947 3.22476 0
M  V30 6263 H 591.956 3.35708 2.45506 0
M  V30 6264 H 590.533 1.7331 3.30179 0
M  V30 6265 N 592.718 -0.936591 1.26751 0
M  V30 6266 C 594.129 -1.49816 1.1141 0
M  V30 6267 C 594.48 -1.9383 -0.304015 0
M  V30 6268 O 593.605 -1.80346 -1.196 0
M  V30 6269 C 594.2 -2.72271 2.01629 0
M  V30 6270 C 592.759 -3.2468 1.9042 0
M  V30 6271 C 591.906 -1.97444 1.94708 0
M  V30 6272 H 594.857 -0.751604 1.39773 0
M  V30 6273 H 594.878 -3.46741 1.56688 0
M  V30 6274 H 594.39 -2.40205 3.04833 0
M  V30 6275 H 592.491 -3.61525 0.901674 0
M  V30 6276 H 592.604 -3.91476 2.76195 0
M  V30 6277 H 590.968 -2.13545 1.38818 0
M  V30 6278 H 591.751 -1.67703 2.9955 0
M  V30 6279 N 594.196 -1.08629 -1.14182 0
M  V30 6280 C 595.106 -0.730126 -2.22949 0
M  V30 6281 C 596.122 0.26436 -1.7198 0
M  V30 6282 O 597.298 0.107742 -2.01112 0
M  V30 6283 C 594.363 -0.147227 -3.46387 0
M  V30 6284 C 593.424 -1.19662 -4.12286 0
M  V30 6285 C 592.657 -0.641437 -5.29831 0
M  V30 6286 O 592.88 0.538351 -5.67854 0
M  V30 6287 O 591.814 -1.39257 -5.85569 0
M  V30 6288 H 595.64 -1.63753 -2.55771 0
M  V30 6289 H 593.225 -0.860118 -1.22157 0
M  V30 6290 H 595.107 0.174923 -4.21037 0
M  V30 6291 H 593.782 0.733304 -3.15285 0
M  V30 6292 H 592.689 -1.57133 -3.395 0
M  V30 6293 H 594.022 -2.0495 -4.475 0
M  V30 6294 N 595.674 1.31259 -0.872281 0
M  V30 6295 C 596.637 2.26744 -0.334656 0
M  V30 6296 C 597.637 1.52307 0.515681 0
M  V30 6297 O 598.827 1.71148 0.324656 0
M  V30 6298 C 595.959 3.36841 0.524482 0
M  V30 6299 H 597.152 2.75812 -1.17762 0
M  V30 6300 H 594.705 1.42232 -0.648064 0
M  V30 6301 H 595.44 2.93069 1.38855 0
M  V30 6302 H 595.225 3.92009 -0.0844299 0
M  V30 6303 H 596.715 4.07944 0.892838 0
M  V30 6304 N 597.152 0.631951 1.44375 0
M  V30 6305 C 598.398 0.13697 2.02337 0
M  V30 6306 C 598.731 -1.23826 1.49602 0
M  V30 6307 O 598.006 -1.8221 0.680415 0
M  V30 6308 C 598.289 0.124536 3.59885 0
M  V30 6309 C 598.142 1.53217 4.229 0
M  V30 6310 C 599.461 -0.550481 4.36644 0
M  V30 6311 H 596.58 0.051247 0.735216 0
M  V30 6312 H 599.222 0.808581 1.71936 0
M  V30 6313 H 597.372 -0.44737 3.85916 0
M  V30 6314 H 599.044 2.15303 4.07973 0
M  V30 6315 H 597.287 2.0858 3.80364 0
M  V30 6316 H 597.958 1.4755 5.31914 0
M  V30 6317 H 600.434 -0.0641154 4.16051 0
M  V30 6318 H 599.31 -0.528371 5.46351 0
M  V30 6319 H 599.571 -1.62097 4.11311 0
M  V30 6320 N 598.631 -1.53133 0.372548 0
M  V30 6321 C 599.861 -2.05476 -0.215202 0
M  V30 6322 C 600.269 -1.24534 -1.42436 0
M  V30 6323 O 599.612 -0.280771 -1.81542 0
M  V30 6324 C 599.674 -3.53276 -0.666068 0
M  V30 6325 C 599.338 -4.54998 0.427342 0
M  V30 6326 C 600.335 -5.03911 1.27944 0
M  V30 6327 C 598.02 -4.98828 0.589579 0
M  V30 6328 C 600.014 -5.95263 2.27905 0
M  V30 6329 C 597.701 -5.89984 1.59255 0
M  V30 6330 C 598.699 -6.38093 2.43571 0
M  V30 6331 O 598.387 -7.27451 3.42156 0
M  V30 6332 H 598.119 -0.67481 -0.040099 0
M  V30 6333 H 600.673 -1.98409 0.531312 0
M  V30 6334 H 598.903 -3.57904 -1.4643 0
M  V30 6335 H 600.592 -3.88442 -1.1776 0
M  V30 6336 H 601.358 -4.70792 1.16532 0
M  V30 6337 H 597.237 -4.60965 -0.0569456 0
M  V30 6338 H 600.781 -6.32736 2.93753 0
M  V30 6339 H 596.678 -6.22518 1.70711 0
M  V30 6340 H 597.446 -7.45467 3.37967 0
M  V30 6341 N 600.109 -0.101901 -1.5727 0
M  V30 6342 C 601.337 0.568392 -1.98939 0
M  V30 6343 C 601.752 1.61301 -0.981194 0
M  V30 6344 O 601.109 1.82478 0.0282869 0
M  V30 6345 C 601.16 1.20997 -3.40649 0
M  V30 6346 O 600.881 0.207129 -4.3761 0
M  V30 6347 C 602.382 1.96523 -3.97358 0
M  V30 6348 H 599.602 0.15186 -0.65359 0
M  V30 6349 H 602.146 -0.183198 -2.03678 0
M  V30 6350 H 600.301 1.91245 -3.36904 0
M  V30 6351 H 600.715 0.671071 -5.20189 0
M  V30 6352 H 602.189 2.36764 -4.98645 0
M  V30 6353 H 602.666 2.83376 -3.35552 0
M  V30 6354 H 603.272 1.31076 -4.04598 0
M  V30 6355 N 601.587 1.56661 0.17182 0
M  V30 6356 C 603.003 1.50768 0.52357 0
M  V30 6357 C 603.203 0.806072 1.84675 0
M  V30 6358 O 602.259 0.366233 2.4983 0
M  V30 6359 C 603.572 2.955 0.556793 0
M  V30 6360 C 605.12 3.06303 0.644029 0
M  V30 6361 C 605.595 4.52492 0.708148 0
M  V30 6362 N 607.086 4.56737 0.771051 0
M  V30 6363 C 607.821 5.67196 0.841229 0
M  V30 6364 N 607.317 6.87287 0.872272 0
M  V30 6365 N 609.11 5.55165 0.88021 0
M  V30 6366 H 601.261 2.00679 -0.695817 0
M  V30 6367 H 603.524 0.914219 -0.250814 0
M  V30 6368 H 603.23 3.49986 -0.346774 0
M  V30 6369 H 603.104 3.50119 1.40346 0
M  V30 6370 H 605.491 2.51851 1.53802 0
M  V30 6371 H 605.572 2.5477 -0.229297 0
M  V30 6372 H 605.216 5.07575 -0.181585 0
M  V30 6373 H 605.146 5.01781 1.59761 0
M  V30 6374 H 607.637 3.70274 0.755364 0
M  V30 6375 H 607.95 7.6722 0.92698 0
M  V30 6376 H 606.295 6.89898 0.840557 0
M  V30 6377 H 609.486 4.60263 0.852956 0
M  V30 6378 H 609.659 6.41271 0.931439 0
M  V30 6379 N 603.065 -0.440357 1.51323 0
M  V30 6380 C 604.314 -1.18697 1.63076 0
M  V30 6381 C 604.627 -1.92418 0.35136 0
M  V30 6382 O 605.833 -2.69258 0.348221 0
M  V30 6383 C 604.289 -2.15849 2.87988 0
M  V30 6384 C 603.897 -1.47789 4.22921 0
M  V30 6385 C 605.641 -2.90962 3.09098 0
M  V30 6386 C 603.548 -2.43407 5.38987 0
M  V30 6387 H 602.478 -0.44676 0.607389 0
M  V30 6388 H 605.129 -0.454313 1.77787 0
M  V30 6389 H 603.511 -2.92537 2.66905 0
M  V30 6390 H 604.685 -0.7668 4.54375 0
M  V30 6391 H 603 -0.848404 4.07665 0
M  V30 6392 H 605.597 -3.62584 3.92985 0
M  V30 6393 H 605.94 -3.52133 2.22053 0
M  V30 6394 H 606.473 -2.21381 3.30507 0
M  V30 6395 H 603.212 -1.86929 6.28282 0
M  V30 6396 H 602.732 -3.12579 5.11913 0
M  V30 6397 H 604.411 -3.046 5.70813 0
M  V30 6398 N 604.543 -1.41418 -0.695603 0
M  V30 6399 C 605.792 -1.40073 -1.4513 0
M  V30 6400 C 606.105 -0.0130439 -1.95596 0
M  V30 6401 O 607.311 0.123032 -2.71221 0
M  V30 6402 C 605.767 -2.46286 -2.62433 0
M  V30 6403 C 605.375 -3.90962 -2.18753 0
M  V30 6404 C 607.119 -2.54077 -3.40066 0
M  V30 6405 C 605.026 -4.88728 -3.33015 0
M  V30 6406 H 603.956 -0.520903 -0.545138 0
M  V30 6407 H 606.607 -1.67242 -0.75515 0
M  V30 6408 H 604.989 -2.12248 -3.34315 0
M  V30 6409 H 606.163 -4.34248 -1.54161 0
M  V30 6410 H 604.478 -3.86831 -1.54114 0
M  V30 6411 H 607.075 -3.24303 -4.25125 0
M  V30 6412 H 607.418 -1.5776 -3.8525 0
M  V30 6413 H 607.951 -2.87206 -2.75241 0
M  V30 6414 H 604.69 -5.86449 -2.92844 0
M  V30 6415 H 604.21 -4.50091 -3.96457 0
M  V30 6416 H 605.889 -5.09483 -3.98793 0
M  V30 6417 N 606.021 0.929856 -1.27246 0
M  V30 6418 C 606.954 2.03069 -1.04106 0
M  V30 6419 C 607.932 1.62556 0.0378417 0
M  V30 6420 O 609.116 1.88197 -0.106869 0
M  V30 6421 C 606.243 3.33718 -0.578778 0
M  V30 6422 C 605.289 3.93209 -1.65193 0
M  V30 6423 S 606.122 4.26068 -3.24386 0
M  V30 6424 C 607.278 5.598 -2.79954 0
M  V30 6425 H 607.511 2.22386 -1.97311 0
M  V30 6426 H 605.044 1.07269 -1.11053 0
M  V30 6427 H 607.002 4.09261 -0.31874 0
M  V30 6428 H 605.663 3.12328 0.333182 0
M  V30 6429 H 604.856 4.87482 -1.27973 0
M  V30 6430 H 604.458 3.24243 -1.86393 0
M  V30 6431 H 606.75 6.39004 -2.25123 0
M  V30 6432 H 607.693 6.01917 -3.72963 0
M  V30 6433 H 608.101 5.20219 -2.19164 0
M  V30 6434 N 607.499 1.09233 1.13605 0
M  V30 6435 C 608.447 0.724572 2.21027 0
M  V30 6436 C 609.441 -0.273595 1.67176 0
M  V30 6437 O 610.647 -0.135266 1.79491 0
M  V30 6438 H 607.022 0.216319 0.720215 0
M  V30 6439 H 608.993 1.63975 2.49309 0
M  V30 6440 C 607.742 0.159126 3.47336 0
M  V30 6441 H 607.065 0.918387 3.89109 0
M  V30 6442 H 608.505 -0.0602851 4.23957 0
M  V30 6443 C 606.964 -1.10514 3.18258 0
M  V30 6444 O 607.494 -2.18869 3.36837 0
M  V30 6445 N 605.7 -1.01886 2.72154 0
M  V30 6446 H 605.247 -0.137027 2.57235 0
M  V30 6447 H 605.205 -1.8655 2.53074 0
M  V30 6448 N 608.977 -1.30795 0.87923 0
M  V30 6449 C 610.225 -1.95974 0.493809 0
M  V30 6450 C 610.546 -1.69787 -0.959021 0
M  V30 6451 O 609.816 -1.01832 -1.67353 0
M  V30 6452 H 608.396 -0.725083 0.179622 0
M  V30 6453 H 611.058 -1.59432 1.12105 0
M  V30 6454 H 610.154 -3.05058 0.659263 0
M  V30 6455 N 610.455 -0.639598 -1.44038 0
M  V30 6456 C 611.703 -0.147188 -2.01563 0
M  V30 6457 C 612.024 1.2384 -1.50628 0
M  V30 6458 O 611.294 1.82452 -0.713316 0
M  V30 6459 H 609.874 -0.0514231 -0.745228 0
M  V30 6460 H 612.536 -0.828205 -1.76428 0
M  V30 6461 H 611.632 -0.121358 -3.11864 0
M  V30 6462 N 611.933 1.52934 -0.380664 0
M  V30 6463 C 613.349 1.59571 -0.0302429 0
M  V30 6464 C 613.549 1.39509 1.45394 0
M  V30 6465 O 612.605 1.20777 2.21741 0
M  V30 6466 C 613.918 2.96519 -0.499691 0
M  V30 6467 C 615.466 3.09672 -0.455204 0
M  V30 6468 C 615.941 4.49056 -0.900703 0
M  V30 6469 N 617.432 4.55215 -0.856367 0
M  V30 6470 C 618.167 5.61282 -1.17259 0
M  V30 6471 N 617.663 6.75035 -1.55885 0
M  V30 6472 N 619.456 5.51343 -1.0944 0
M  V30 6473 H 611.607 1.64224 -1.347 0
M  V30 6474 H 613.87 0.771033 -0.551554 0
M  V30 6475 H 613.576 3.16388 -1.53595 0
M  V30 6476 H 613.45 3.77052 0.105789 0
M  V30 6477 H 615.837 2.89504 0.571949 0
M  V30 6478 H 615.918 2.31113 -1.09638 0
M  V30 6479 H 615.562 4.69964 -1.92604 0
M  V30 6480 H 615.492 5.26068 -0.236629 0
M  V30 6481 H 617.983 3.73546 -0.572013 0
M  V30 6482 H 618.296 7.51926 -1.784 0
M  V30 6483 H 616.641 6.76388 -1.59764 0
M  V30 6484 H 619.832 4.61356 -0.791713 0
M  V30 6485 H 620.005 6.33905 -1.34417 0
M  V30 6486 N 613.412 0.11024 1.57214 0
M  V30 6487 C 614.342 -0.840002 2.17867 0
M  V30 6488 C 615.323 -1.28352 1.11624 0
M  V30 6489 O 616.508 -1.3477 1.39824 0
M  V30 6490 C 613.638 -2.09349 2.77111 0
M  V30 6491 C 612.592 -1.78807 3.8886 0
M  V30 6492 C 611.918 -3.11112 4.34872 0
M  V30 6493 C 613.218 -1.0632 5.11364 0
M  V30 6494 H 614.912 -0.334608 2.97524 0
M  V30 6495 H 612.458 -0.159502 1.43114 0
M  V30 6496 H 614.411 -2.76275 3.18198 0
M  V30 6497 H 613.135 -2.62198 1.9473 0
M  V30 6498 H 611.794 -1.14273 3.48335 0
M  V30 6499 H 611.442 -3.61877 3.49362 0
M  V30 6500 H 611.142 -2.91453 5.10224 0
M  V30 6501 H 612.666 -3.79171 4.78604 0
M  V30 6502 H 614.08 -1.63383 5.49526 0
M  V30 6503 H 612.477 -0.967876 5.92243 0
M  V30 6504 H 613.547 -0.0484569 4.84876 0
M  V30 6505 N 614.89 -1.56749 -0.16351 0
M  V30 6506 C 615.837 -1.97011 -1.2023 0
M  V30 6507 C 616.807 -0.835186 -1.43575 0
M  V30 6508 O 617.992 -1.09594 -1.56185 0
M  V30 6509 C 615.132 -2.34186 -2.53478 0
M  V30 6510 C 614.245 -3.60893 -2.37446 0
M  V30 6511 C 613.38 -3.87245 -3.63614 0
M  V30 6512 C 612.419 -5.07274 -3.42548 0
M  V30 6513 N 611.556 -5.29719 -4.60806 0
M  V30 6514 H 616.396 -2.85562 -0.851958 0
M  V30 6515 H 613.933 -1.41292 -0.409257 0
M  V30 6516 H 615.891 -2.53764 -3.31149 0
M  V30 6517 H 614.521 -1.48736 -2.86492 0
M  V30 6518 H 613.573 -3.49185 -1.50911 0
M  V30 6519 H 614.885 -4.48722 -2.1783 0
M  V30 6520 H 614.039 -4.07232 -4.49719 0
M  V30 6521 H 612.778 -2.97806 -3.86216 0
M  V30 6522 H 611.783 -4.87177 -2.5483 0
M  V30 6523 H 613.008 -5.98251 -3.2136 0
M  V30 6524 H 610.954 -4.43233 -4.83612 0
M  V30 6525 H 610.871 -6.11786 -4.44132 0
M  V30 6526 H 612.139 -5.54192 -5.48171 0
M  V30 6527 N 616.368 0.432326 -1.51554 0
M  V30 6528 C 617.784 0.769195 -1.39841 0
M  V30 6529 C 617.984 1.95584 -0.484675 0
M  V30 6530 O 617.04 2.52433 0.0582829 0
M  V30 6531 C 618.353 1.04487 -2.81963 0
M  V30 6532 C 619.901 1.149 -2.91148 0
M  V30 6533 C 620.376 1.45758 -4.34187 0
M  V30 6534 N 621.867 1.52671 -4.37317 0
M  V30 6535 C 622.602 1.78129 -5.4503 0
M  V30 6536 N 622.098 2.01345 -6.62897 0
M  V30 6537 N 623.891 1.79953 -5.32516 0
M  V30 6538 H 616.042 -0.349122 -2.09511 0
M  V30 6539 H 618.305 -0.0938113 -0.943347 0
M  V30 6540 H 618.011 0.24557 -3.50842 0
M  V30 6541 H 617.885 1.97119 -3.21596 0
M  V30 6542 H 620.272 1.93891 -2.22464 0
M  V30 6543 H 620.353 0.201568 -2.55005 0
M  V30 6544 H 619.997 0.672917 -5.03423 0
M  V30 6545 H 619.927 2.41715 -4.67848 0
M  V30 6546 H 622.418 1.36612 -3.52343 0
M  V30 6547 H 622.731 2.20155 -7.40778 0
M  V30 6548 H 621.076 1.98657 -6.66003 0
M  V30 6549 H 624.267 1.61337 -4.39418 0
M  V30 6550 H 624.44 1.99455 -6.1654 0
M  V30 6551 N 617.846 1.41785 0.688094 0
M  V30 6552 C 619.071 1.45117 1.48175 0
M  V30 6553 C 619.496 0.060129 1.88004 0
M  V30 6554 O 618.854 -0.938385 1.55126 0
M  V30 6555 C 618.902 2.37224 2.71583 0
M  V30 6556 O 618.006 1.83443 3.69354 0
M  V30 6557 H 617.347 0.492208 0.445676 0
M  V30 6558 H 619.877 1.86329 0.845145 0
M  V30 6559 H 619.887 2.53353 3.19806 0
M  V30 6560 H 618.562 3.38293 2.41931 0
M  V30 6561 H 617.139 1.76802 3.28322 0
M  V30 6562 N 619.324 -0.923095 1.27737 0
M  V30 6563 C 620.274 -2.01061 1.0751 0
M  V30 6564 C 621.258 -1.609 0.00165451 0
M  V30 6565 O 622.45 -1.75618 0.220724 0
M  V30 6566 C 619.579 -3.35467 0.729162 0
M  V30 6567 C 618.665 -3.82059 1.84098 0
M  V30 6568 N 619.056 -4.01115 3.08124 0
M  V30 6569 C 617.354 -4.11135 1.7287 0
M  V30 6570 C 618.055 -4.39989 3.80506 0
M  V30 6571 N 617.031 -4.47721 3.08297 0
M  V30 6572 H 620.833 -2.13832 2.01626 0
M  V30 6573 H 618.347 -1.11027 1.18519 0
M  V30 6574 H 620.344 -4.13049 0.565355 0
M  V30 6575 H 619.004 -3.24056 -0.204334 0
M  V30 6576 H 620.015 -3.87294 3.43836 0
M  V30 6577 H 616.692 -4.08412 0.866352 0
M  V30 6578 H 618.082 -4.62773 4.87125 0
M  V30 6579 N 620.802 -1.09834 -1.13024 0
M  V30 6580 C 622.051 -0.831806 -1.83749 0
M  V30 6581 C 622.364 0.644763 -1.84668 0
M  V30 6582 O 623.57 1.02697 -2.51327 0
M  V30 6583 C 622.026 -1.43817 -3.29916 0
M  V30 6584 C 621.634 -2.94759 -3.37374 0
M  V30 6585 C 623.378 -1.25077 -4.05655 0
M  V30 6586 C 621.285 -3.48461 -4.77838 0
M  V30 6587 H 620.215 -0.30751 -0.688443 0
M  V30 6588 H 622.866 -1.32156 -1.27307 0
M  V30 6589 H 621.248 -0.876106 -3.86187 0
M  V30 6590 H 622.422 -3.57228 -2.91076 0
M  V30 6591 H 620.737 -3.12581 -2.75103 0
M  V30 6592 H 623.334 -1.62649 -5.09362 0
M  V30 6593 H 623.677 -0.191782 -4.15858 0
M  V30 6594 H 624.21 -1.78057 -3.55725 0
M  V30 6595 H 620.949 -4.53998 -4.72828 0
M  V30 6596 H 620.469 -2.90757 -5.24615 0
M  V30 6597 H 622.148 -3.45914 -5.46766 0
M  V30 6598 N 622.28 1.30327 -0.886154 0
M  V30 6599 C 623.696 1.48676 -0.580323 0
M  V30 6600 C 623.896 1.81189 0.881639 0
M  V30 6601 O 622.952 1.90021 1.66278 0
M  V30 6602 C 624.265 2.60932 -1.49449 0
M  V30 6603 C 625.813 2.74812 -1.49824 0
M  V30 6604 C 626.288 3.90183 -2.39836 0
M  V30 6605 N 627.779 3.97495 -2.37806 0
M  V30 6606 C 628.514 4.86078 -3.04165 0
M  V30 6607 N 628.01 5.79448 -3.79753 0
M  V30 6608 N 629.803 4.79456 -2.93391 0
M  V30 6609 H 621.954 1.07495 -1.8319 0
M  V30 6610 H 624.217 0.532661 -0.784204 0
M  V30 6611 H 623.923 2.43731 -2.5355 0
M  V30 6612 H 623.797 3.57437 -1.20494 0
M  V30 6613 H 626.184 2.91418 -0.464731 0
M  V30 6614 H 626.265 1.78924 -1.82811 0
M  V30 6615 H 625.909 3.74334 -3.43273 0
M  V30 6616 H 625.839 4.85411 -2.04166 0
M  V30 6617 H 628.33 3.30703 -1.82877 0
M  V30 6618 H 628.643 6.43805 -4.27475 0
M  V30 6619 H 626.988 5.79376 -3.8386 0
M  V30 6620 H 630.179 4.05494 -2.33864 0
M  V30 6621 H 630.352 5.48283 -3.45383 0
M  V30 6622 N 623.758 0.647228 1.43697 0
M  V30 6623 C 625.174 0.314256 1.56476 0
M  V30 6624 C 625.374 -1.18191 1.63196 0
M  V30 6625 O 624.43 -1.96655 1.58376 0
M  V30 6626 C 625.743 1.02034 2.82859 0
M  V30 6627 C 627.291 1.00002 2.96595 0
M  V30 6628 C 627.766 1.68689 4.25803 0
M  V30 6629 N 629.257 1.65424 4.32654 0
M  V30 6630 C 629.992 2.1545 5.31384 0
M  V30 6631 N 629.488 2.73738 6.36427 0
M  V30 6632 N 631.281 2.05985 5.22998 0
M  V30 6633 H 623.432 1.61821 1.37578 0
M  V30 6634 H 625.695 0.680184 0.660344 0
M  V30 6635 H 625.401 2.07542 2.83935 0
M  V30 6636 H 625.275 0.568146 3.72897 0
M  V30 6637 H 627.662 -0.0466319 2.95063 0
M  V30 6638 H 627.743 1.49086 2.07863 0
M  V30 6639 H 627.387 2.73308 4.28095 0
M  V30 6640 H 627.317 1.17076 5.13421 0
M  V30 6641 H 629.808 1.22884 3.57363 0
M  V30 6642 H 630.121 3.09602 7.08072 0
M  V30 6643 H 628.466 2.77796 6.37067 0
M  V30 6644 H 631.657 1.60157 4.39849 0
M  V30 6645 H 631.83 2.45281 5.99784 0
M  V30 6646 N 625.236 -1.5273 0.388769 0
M  V30 6647 C 626.466 -2.05693 -0.193397 0
M  V30 6648 C 626.874 -1.26038 -1.41107 0
M  V30 6649 O 626.217 -0.30001 -1.81234 0
M  V30 6650 C 626.279 -3.53962 -0.628561 0
M  V30 6651 C 625.943 -4.54519 0.475576 0
M  V30 6652 C 626.94 -5.02526 1.33281 0
M  V30 6653 C 624.625 -4.98174 0.642453 0
M  V30 6654 C 626.619 -5.92812 2.34205 0
M  V30 6655 C 624.306 -5.88262 1.65503 0
M  V30 6656 C 625.304 -6.35473 2.50325 0
M  V30 6657 O 624.992 -7.23781 3.49852 0
M  V30 6658 H 624.724 -0.675197 -0.0329395 0
M  V30 6659 H 627.278 -1.97835 0.552326 0
M  V30 6660 H 625.508 -3.59437 -1.42625 0
M  V30 6661 H 627.197 -3.89669 -1.13633 0
M  V30 6662 H 627.963 -4.6953 1.21519 0
M  V30 6663 H 623.842 -4.60999 -0.00805093 0
M  V30 6664 H 627.386 -6.29585 3.00447 0
M  V30 6665 H 623.283 -6.20672 1.77304 0
M  V30 6666 H 624.051 -7.4184 3.45855 0
M  V30 6667 N 626.714 -0.118576 -1.57153 0
M  V30 6668 C 627.96 0.540326 -1.95469 0
M  V30 6669 C 628.293 1.66356 -1.00196 0
M  V30 6670 O 627.568 1.94461 -0.039104 0
M  V30 6671 C 627.851 1.07342 -3.43729 0
M  V30 6672 C 627.704 -0.0463732 -4.49776 0
M  V30 6673 C 629.023 1.96442 -3.93826 0
M  V30 6674 H 626.142 0.19494 -0.710751 0
M  V30 6675 H 628.784 -0.19405 -1.89006 0
M  V30 6676 H 626.934 1.69925 -3.49368 0
M  V30 6677 H 628.606 -0.681648 -4.56236 0
M  V30 6678 H 626.849 -0.709574 -4.27957 0
M  V30 6679 H 627.52 0.367856 -5.50773 0
M  V30 6680 H 629.996 1.43731 -3.90488 0
M  V30 6681 H 628.872 2.3066 -4.98084 0
M  V30 6682 H 629.133 2.89077 -3.34495 0
M  V30 6683 N 628.193 1.56834 0.155195 0
M  V30 6684 C 629.418 1.87412 0.888337 0
M  V30 6685 C 629.843 0.70671 1.74319 0
M  V30 6686 O 629.201 -0.343892 1.78009 0
M  V30 6687 C 629.249 3.1652 1.72765 0
M  V30 6688 O 628.353 2.99877 2.83103 0
M  V30 6689 H 627.694 0.615983 0.247914 0
M  V30 6690 H 630.224 2.04061 0.148478 0
M  V30 6691 H 630.234 3.48334 2.12433 0
M  V30 6692 H 628.909 4.01094 1.09985 0
M  V30 6693 H 627.486 2.79453 2.46902 0
M  V30 6694 N 629.671 -0.424282 1.51781 0
M  V30 6695 C 630.917 -1.17434 1.6534 0
M  V30 6696 C 631.25 -1.90549 0.374806 0
M  V30 6697 O 630.525 -1.84145 -0.626179 0
M  V30 6698 C 630.808 -2.18093 2.86544 0
M  V30 6699 C 630.661 -1.48975 4.24413 0
M  V30 6700 C 631.98 -3.18934 3.03264 0
M  V30 6701 H 629.099 -0.425566 0.601716 0
M  V30 6702 H 631.741 -0.461921 1.84299 0
M  V30 6703 H 629.891 -2.78849 2.7051 0
M  V30 6704 H 631.563 -0.914551 4.52143 0
M  V30 6705 H 629.806 -0.791893 4.26511 0
M  V30 6706 H 630.477 -2.22347 5.05238 0
M  V30 6707 H 632.953 -2.68243 3.18096 0
M  V30 6708 H 631.829 -3.86645 3.89611 0
M  V30 6709 H 632.09 -3.85793 2.15908 0
M  V30 6710 N 631.149 -1.42148 -0.680565 0
M  V30 6711 C 632.374 -1.45901 -1.47403 0
M  V30 6712 C 632.799 -0.0700985 -1.87969 0
M  V30 6713 O 632.157 0.930145 -1.55621 0
M  V30 6714 C 632.205 -2.38661 -2.70321 0
M  V30 6715 O 631.309 -1.85399 -3.68376 0
M  V30 6716 H 630.65 -0.494565 -0.443059 0
M  V30 6717 H 633.18 -1.86774 -0.835251 0
M  V30 6718 H 633.19 -2.55046 -3.18458 0
M  V30 6719 H 631.865 -3.39571 -2.40134 0
M  V30 6720 H 630.442 -1.78541 -3.2738 0
M  V30 6721 N 632.627 0.916307 -1.28225 0
M  V30 6722 C 633.852 1.7043 -1.18188 0
M  V30 6723 C 634.277 1.86346 0.256274 0
M  V30 6724 O 633.635 1.37175 1.18544 0
M  V30 6725 C 633.683 3.07546 -1.88275 0
M  V30 6726 O 632.787 3.94904 -1.18848 0
M  V30 6727 H 632.128 0.521967 -0.410423 0
M  V30 6728 H 634.658 1.14589 -1.69501 0
M  V30 6729 H 634.668 3.57793 -1.96082 0
M  V30 6730 H 633.343 2.95279 -2.92887 0
M  V30 6731 H 631.92 3.53339 -1.19187 0
M  V30 6732 N 634.105 1.10431 1.1244 0
M  V30 6733 C 635.053 0.747974 2.20246 0
M  V30 6734 C 636.047 -0.255848 1.67457 0
M  V30 6735 O 637.253 -0.116221 1.79624 0
M  V30 6736 H 633.628 0.223946 0.71788 0
M  V30 6737 H 635.599 1.6661 2.47556 0
M  V30 6738 C 634.348 0.195957 3.47147 0
M  V30 6739 H 633.671 0.959606 3.88113 0
M  V30 6740 H 635.111 -0.0153154 4.23997 0
M  V30 6741 C 633.57 -1.07132 3.19413 0
M  V30 6742 O 634.1 -2.15284 3.3914 0
M  V30 6743 N 632.306 -0.98994 2.73219 0
M  V30 6744 H 631.853 -0.109736 2.57366 0
M  V30 6745 H 631.811 -1.83856 2.55038 0
M  V30 6746 N 635.583 -1.29855 0.893053 0
M  V30 6747 C 636.533 -2.25493 0.337211 0
M  V30 6748 C 637.517 -1.51606 -0.53894 0
M  V30 6749 O 638.709 -1.72828 -0.382043 0
M  V30 6750 C 635.838 -3.40467 -0.440117 0
M  V30 6751 C 634.924 -4.217 0.450578 0
M  V30 6752 N 635.315 -4.81312 1.55476 0
M  V30 6753 C 633.613 -4.45315 0.247154 0
M  V30 6754 C 634.314 -5.42241 2.10593 0
M  V30 6755 N 633.29 -5.25267 1.39982 0
M  V30 6756 H 637.092 -2.69137 1.18079 0
M  V30 6757 H 634.606 -1.44388 0.743359 0
M  V30 6758 H 636.603 -4.08038 -0.855021 0
M  V30 6759 H 635.263 -2.98361 -1.28104 0
M  V30 6760 H 636.274 -4.80291 1.93755 0
M  V30 6761 H 632.951 -4.13782 -0.555939 0
M  V30 6762 H 634.341 -5.99517 3.03362 0
M  V30 6763 N 637.061 -0.65484 -1.43351 0
M  V30 6764 C 637.993 0.0744757 -2.29079 0
M  V30 6765 C 639.006 0.7855 -1.42596 0
M  V30 6766 O 640.195 0.642986 -1.66517 0
M  V30 6767 C 637.295 1.12859 -3.19556 0
M  V30 6768 C 636.468 0.495381 -4.34586 0
M  V30 6769 C 635.527 1.44659 -5.05925 0
M  V30 6770 O 634.553 0.954567 -5.61139 0
M  V30 6771 N 635.755 2.78051 -5.09576 0
M  V30 6772 H 638.52 -0.661346 -2.92312 0
M  V30 6773 H 636.081 -0.497744 -1.54059 0
M  V30 6774 H 638.073 1.76577 -3.64147 0
M  V30 6775 H 636.643 1.76636 -2.57912 0
M  V30 6776 H 635.863 -0.32092 -3.92892 0
M  V30 6777 H 637.151 0.0534203 -5.08772 0
M  V30 6778 H 636.549 3.20584 -4.66093 0
M  V30 6779 H 635.106 3.37068 -5.57878 0
M  V30 6780 N 638.539 1.52521 -0.396863 0
M  V30 6781 C 639.502 2.2527 0.422604 0
M  V30 6782 C 640.502 1.27184 0.983913 0
M  V30 6783 O 641.692 1.51222 0.864723 0
M  V30 6784 C 638.824 3.01356 1.59365 0
M  V30 6785 H 640.017 2.99133 -0.214416 0
M  V30 6786 H 637.57 1.55587 -0.149128 0
M  V30 6787 H 638.305 2.31813 2.26789 0
M  V30 6788 H 638.09 3.73357 1.19779 0
M  V30 6789 H 639.58 3.56571 2.17363 0
M  V30 6790 N 640.017 0.126909 1.57088 0
M  V30 6791 C 641.433 -0.229641 1.57939 0
M  V30 6792 C 641.633 -1.66145 1.1401 0
M  V30 6793 O 640.689 -2.3843 0.831119 0
M  V30 6794 C 642.002 0.0108648 3.00698 0
M  V30 6795 C 643.55 -0.054418 3.12953 0
M  V30 6796 C 644.025 0.158497 4.57726 0
M  V30 6797 N 645.516 0.104735 4.63082 0
M  V30 6798 C 646.251 0.24427 5.72879 0
M  V30 6799 N 645.747 0.440415 6.91399 0
M  V30 6800 N 647.54 0.183286 5.61801 0
M  V30 6801 H 639.691 1.06203 1.83942 0
M  V30 6802 H 641.954 0.418834 0.85046 0
M  V30 6803 H 641.66 1.00102 3.37154 0
M  V30 6804 H 641.534 -0.717512 3.70313 0
M  V30 6805 H 643.921 -1.0351 2.7635 0
M  V30 6806 H 644.002 0.705967 2.45865 0
M  V30 6807 H 643.646 1.13619 4.95028 0
M  V30 6808 H 643.576 -0.62197 5.22914 0
M  V30 6809 H 646.067 -0.0430298 3.77876 0
M  V30 6810 H 646.38 0.537536 7.70928 0
M  V30 6811 H 644.725 0.476488 6.93365 0
M  V30 6812 H 647.916 0.0309561 4.6809 0
M  V30 6813 H 648.089 0.295471 6.47326 0
M  V30 6814 N 641.495 -1.56914 -0.146875 0
M  V30 6815 C 642.906 -1.72799 -0.706928 0
M  V30 6816 C 643.257 -0.741329 -1.81656 0
M  V30 6817 O 642.382 0.0920162 -2.16204 0
M  V30 6818 C 642.977 -3.13317 -1.28911 0
M  V30 6819 C 641.536 -3.30803 -1.79573 0
M  V30 6820 C 640.683 -2.68725 -0.684252 0
M  V30 6821 H 643.634 -1.58504 0.0787931 0
M  V30 6822 H 643.655 -3.13323 -2.15891 0
M  V30 6823 H 643.167 -3.85104 -0.481284 0
M  V30 6824 H 641.268 -2.64012 -2.62923 0
M  V30 6825 H 641.381 -4.38754 -1.92436 0
M  V30 6826 H 639.745 -2.29196 -1.11091 0
M  V30 6827 H 640.528 -3.43117 0.112134 0
M  V30 6828 N 642.974 0.416227 -1.52004 0
M  V30 6829 C 643.922 1.5272 -1.7544 0
M  V30 6830 C 644.916 1.57596 -0.621289 0
M  V30 6831 O 646.122 1.61087 -0.803172 0
M  V30 6832 H 642.497 0.507772 -0.554682 0
M  V30 6833 H 644.468 1.30136 -2.68528 0
M  V30 6834 C 643.217 2.90165 -1.91571 0
M  V30 6835 H 642.54 2.87154 -2.78178 0
M  V30 6836 H 643.98 3.67211 -2.11972 0
M  V30 6837 C 642.439 3.29947 -0.680942 0
M  V30 6838 O 642.969 4.01403 0.154527 0
M  V30 6839 N 641.175 2.8593 -0.518894 0
M  V30 6840 H 640.722 2.2795 -1.19986 0
M  V30 6841 H 640.68 3.12907 0.305985 0
M  V30 6842 N 644.452 1.42507 0.673017 0
M  V30 6843 C 645.677 1.4668 1.46627 0
M  V30 6844 C 646.102 0.080066 1.8793 0
M  V30 6845 O 645.46 -0.921879 1.56112 0
M  V30 6846 C 645.508 2.40091 2.69051 0
M  V30 6847 O 644.612 1.8735 3.67387 0
M  V30 6848 H 643.953 0.496908 0.44043 0
M  V30 6849 H 646.483 1.87215 0.825334 0
M  V30 6850 H 646.493 2.56731 3.17101 0
M  V30 6851 H 645.168 3.4084 2.3833 0
M  V30 6852 H 643.745 1.80274 3.26429 0
M  V30 6853 N 645.93 -0.909495 1.28709 0
M  V30 6854 C 647.177 -1.65905 1.16111 0
M  V30 6855 C 647.505 -1.92334 -0.289436 0
M  V30 6856 O 646.76 -1.52495 -1.22653 0
M  V30 6857 C 647.059 -3.02117 1.90945 0
M  V30 6858 C 646.725 -2.95332 3.40719 0
M  V30 6859 C 645.387 -2.93189 3.81567 0
M  V30 6860 C 647.739 -2.85264 4.36204 0
M  V30 6861 C 645.067 -2.78784 5.16233 0
M  V30 6862 C 647.419 -2.724 5.70948 0
M  V30 6863 C 646.083 -2.68617 6.11066 0
M  V30 6864 H 645.353 -0.60709 0.42488 0
M  V30 6865 H 648 -1.05932 1.59533 0
M  V30 6866 H 646.305 -3.65901 1.40085 0
M  V30 6867 H 648.002 -3.59026 1.7861 0
M  V30 6868 H 644.592 -2.97797 3.08245 0
M  V30 6869 H 648.776 -2.86005 4.05605 0
M  V30 6870 H 644.032 -2.74254 5.46438 0
M  V30 6871 H 648.206 -2.63579 6.44592 0
M  V30 6872 H 645.833 -2.57213 7.15364 0
M  V30 6873 N 647.408 -1.11026 -1.11852 0
M  V30 6874 C 648.371 -0.768006 -2.1595 0
M  V30 6875 C 649.371 0.210538 -1.59416 0
M  V30 6876 O 650.561 -0.0133978 -1.74195 0
M  V30 6877 C 647.693 -0.138678 -3.40618 0
M  V30 6878 H 648.886 -1.69012 -2.4774 0
M  V30 6879 H 646.439 -0.911578 -1.26964 0
M  V30 6880 H 647.174 0.793872 -3.14433 0
M  V30 6881 H 646.959 -0.843012 -3.8293 0
M  V30 6882 H 648.449 0.0848039 -4.17514 0
M  V30 6883 N 648.886 1.2938 -0.899927 0
M  V30 6884 C 649.796 2.31462 -0.382437 0
M  V30 6885 C 650.812 1.65956 0.522929 0
M  V30 6886 O 651.988 1.97131 0.412454 0
M  V30 6887 C 649.053 3.44595 0.381472 0
M  V30 6888 C 648.114 4.25692 -0.555444 0
M  V30 6889 C 647.347 5.33422 0.172102 0
M  V30 6890 O 647.57 5.53053 1.396 0
M  V30 6891 O 646.504 5.99939 -0.485491 0
M  V30 6892 H 650.33 2.77706 -1.22934 0
M  V30 6893 H 647.915 1.33821 -0.664259 0
M  V30 6894 H 649.797 4.13474 0.813442 0
M  V30 6895 H 648.472 3.00458 1.20443 0
M  V30 6896 H 647.379 3.59453 -1.03653 0
M  V30 6897 H 648.712 4.73471 -1.34483 0
M  V30 6898 N 650.364 0.662433 1.43002 0
M  V30 6899 C 651.611 0.179591 2.01702 0
M  V30 6900 C 651.939 -1.20964 1.52309 0
M  V30 6901 O 651.194 -1.82343 0.7106 0
M  V30 6902 C 651.493 0.149363 3.57088 0
M  V30 6903 C 651.159 1.48158 4.25864 0
M  V30 6904 C 649.821 1.84638 4.44367 0
M  V30 6905 C 652.173 2.35953 4.64732 0
M  V30 6906 C 649.501 3.08561 4.99006 0
M  V30 6907 C 651.853 3.59176 5.20745 0
M  V30 6908 C 650.517 3.95841 5.37463 0
M  V30 6909 H 649.787 0.0657172 0.73808 0
M  V30 6910 H 652.434 0.854968 1.71355 0
M  V30 6911 H 650.739 -0.609491 3.8703 0
M  V30 6912 H 652.436 -0.241241 4.00274 0
M  V30 6913 H 649.026 1.18777 4.11813 0
M  V30 6914 H 653.21 2.09058 4.50121 0
M  V30 6915 H 648.466 3.37005 5.10135 0
M  V30 6916 H 652.64 4.27417 5.49807 0
M  V30 6917 H 650.267 4.91942 5.79566 0
M  V30 6918 N 651.842 -1.52309 0.404946 0
M  V30 6919 C 652.772 -2.29805 -0.41376 0
M  V30 6920 C 653.753 -1.3384 -1.0498 0
M  V30 6921 O 654.938 -1.62745 -1.05961 0
M  V30 6922 C 652.068 -3.11639 -1.53292 0
M  V30 6923 C 651.022 -4.15616 -1.02211 0
M  V30 6924 C 650.348 -4.8577 -2.23455 0
M  V30 6925 C 651.648 -5.2224 -0.0790725 0
M  V30 6926 H 653.342 -2.98493 0.232878 0
M  V30 6927 H 650.888 -1.43552 0.113441 0
M  V30 6928 H 652.841 -3.64618 -2.11262 0
M  V30 6929 H 651.565 -2.40712 -2.20738 0
M  V30 6930 H 650.224 -3.63641 -0.46484 0
M  V30 6931 H 649.872 -4.11376 -2.89445 0
M  V30 6932 H 649.572 -5.56058 -1.89929 0
M  V30 6933 H 651.096 -5.4156 -2.82038 0
M  V30 6934 H 652.51 -5.70485 -0.567438 0
M  V30 6935 H 650.907 -5.99867 0.167167 0
M  V30 6936 H 651.977 -4.77078 0.867447 0
M  V30 6937 N 653.32 -0.135238 -1.57019 0
M  V30 6938 C 654.268 0.826099 -2.17436 0
M  V30 6939 C 655.262 1.26378 -1.12805 0
M  V30 6940 O 656.468 1.23363 -1.31079 0
M  V30 6941 H 652.843 0.284568 -0.696078 0
M  V30 6942 H 654.814 0.292212 -2.96966 0
M  V30 6943 C 653.563 2.05991 -2.80112 0
M  V30 6944 H 652.886 1.73209 -3.60331 0
M  V30 6945 H 654.326 2.71225 -3.25903 0
M  V30 6946 C 652.785 2.86027 -1.78017 0
M  V30 6947 O 653.315 3.81971 -1.24344 0
M  V30 6948 N 651.521 2.50332 -1.47588 0
M  V30 6949 H 651.068 1.72377 -1.91426 0
M  V30 6950 H 651.026 3.04177 -0.795228 0
M  V30 6951 N 654.798 1.5699 0.138552 0
M  V30 6952 C 655.745 1.98899 1.17081 0
M  V30 6953 C 656.715 0.857922 1.42228 0
M  V30 6954 O 657.9 1.12065 1.54422 0
M  V30 6955 C 655.04 2.38189 2.4972 0
M  V30 6956 C 654.153 3.64624 2.31674 0
M  V30 6957 C 653.288 3.9298 3.57407 0
M  V30 6958 C 652.327 5.1266 3.34435 0
M  V30 6959 N 651.464 5.36983 4.5232 0
M  V30 6960 H 656.304 2.86881 0.80642 0
M  V30 6961 H 653.841 1.41925 0.386727 0
M  V30 6962 H 655.799 2.59 3.2707 0
M  V30 6963 H 654.429 1.53275 2.84089 0
M  V30 6964 H 653.481 3.51542 1.45337 0
M  V30 6965 H 654.793 4.52131 2.10664 0
M  V30 6966 H 653.947 4.14335 4.43183 0
M  V30 6967 H 652.686 3.03912 3.8143 0
M  V30 6968 H 651.691 4.9117 2.47048 0
M  V30 6969 H 652.916 6.03288 3.11802 0
M  V30 6970 H 650.862 4.50871 4.76499 0
M  V30 6971 H 650.779 6.18775 4.34343 0
M  V30 6972 H 652.047 5.62842 5.39285 0
M  V30 6973 N 656.276 -0.40816 1.52223 0
M  V30 6974 C 657.504 -1.17672 1.70179 0
M  V30 6975 C 657.919 -1.84257 0.411696 0
M  V30 6976 O 657.276 -1.7192 -0.612354 0
M  V30 6977 C 657.327 -2.23911 2.83806 0
M  V30 6978 O 657.048 -1.60044 4.0782 0
M  V30 6979 C 658.549 -3.1364 3.13281 0
M  V30 6980 H 655.769 -0.353562 0.570293 0
M  V30 6981 H 658.313 -0.480083 1.98785 0
M  V30 6982 H 656.468 -2.89242 2.57717 0
M  V30 6983 H 656.882 -2.30484 4.71145 0
M  V30 6984 H 658.356 -3.84255 3.96298 0
M  V30 6985 H 658.833 -3.76066 2.26872 0
M  V30 6986 H 659.439 -2.53977 3.41139 0
M  V30 6987 N 657.755 -1.42862 -0.66545 0
M  V30 6988 C 658.985 -1.47032 -1.45138 0
M  V30 6989 C 659.393 -0.0829977 -1.89018 0
M  V30 6990 O 658.736 0.914551 -1.59316 0
M  V30 6991 C 658.798 -2.34302 -2.72659 0
M  V30 6992 C 658.462 -3.82034 -2.50796 0
M  V30 6993 C 659.459 -4.73453 -2.14799 0
M  V30 6994 C 657.144 -4.26397 -2.655 0
M  V30 6995 C 659.138 -6.07228 -1.93785 0
M  V30 6996 C 656.825 -5.6023 -2.44103 0
M  V30 6997 C 657.823 -6.50462 -2.08299 0
M  V30 6998 O 657.511 -7.8182 -1.87116 0
M  V30 6999 H 657.243 -0.501969 -0.452772 0
M  V30 7000 H 659.797 -1.88137 -0.82423 0
M  V30 7001 H 658.027 -1.88063 -3.37889 0
M  V30 7002 H 659.716 -2.29818 -3.34572 0
M  V30 7003 H 660.482 -4.4046 -2.03026 0
M  V30 7004 H 656.361 -3.56448 -2.92345 0
M  V30 7005 H 659.905 -6.7762 -1.65763 0
M  V30 7006 H 655.802 -5.92793 -2.55475 0
M  V30 7007 H 656.57 -7.93274 -2.01639 0
M  V30 7008 N 659.233 0.902656 -1.29189 0
M  V30 7009 C 660.458 1.69167 -1.19989 0
M  V30 7010 C 660.883 1.86607 0.236495 0
M  V30 7011 O 660.241 1.38425 1.17082 0
M  V30 7012 C 660.289 3.05532 -1.91527 0
M  V30 7013 O 659.393 3.93621 -1.2303 0
M  V30 7014 H 658.734 0.517584 -0.415936 0
M  V30 7015 H 661.264 1.12785 -1.70706 0
M  V30 7016 H 661.274 3.55693 -1.99866 0
M  V30 7017 H 659.949 2.92156 -2.96003 0
M  V30 7018 H 658.526 3.52055 -1.22928 0
M  V30 7019 N 660.711 1.11618 1.11262 0
M  V30 7020 C 661.936 0.889013 1.8738 0
M  V30 7021 C 662.361 -0.555884 1.79698 0
M  V30 7022 O 661.719 -1.39272 1.16073 0
M  V30 7023 C 661.767 1.35759 3.34069 0
M  V30 7024 O 660.871 0.530499 4.08974 0
M  V30 7025 H 660.212 0.320082 0.581759 0
M  V30 7026 H 662.742 1.48611 1.40627 0
M  V30 7027 H 662.752 1.35291 3.84916 0
M  V30 7028 H 661.427 2.40973 3.38976 0
M  V30 7029 H 660.004 0.601439 3.68018 0
M  V30 7030 N 662.189 -1.289 0.906776 0
M  V30 7031 C 663.466 -1.90221 0.455537 0
M  V30 7032 C 663.846 -1.82251 -1.06527 0
M  V30 7033 O 663.194 -1.25385 -1.91026 0
M  V30 7034 C 663.404 -3.35015 0.97806 0
M  V30 7035 C 664.752 -4.12018 1.02598 0
M  V30 7036 O 665.776 -3.43947 0.926218 0
M  V30 7037 O 664.635 -5.33677 1.17689 0
M  V30 7038 H 661.729 -0.814505 0.143214 0
M  V30 7039 H 664.275 -1.37317 0.997104 0
M  V30 7040 H 663.047 -3.35006 2.02204 0
M  V30 7041 H 662.67 -3.95408 0.416914 0
M  V30 7042 N 663.667 -0.670007 -1.42649 0
M  V30 7043 C 664.892 -0.196955 -2.06463 0
M  V30 7044 C 665.317 1.1352 -1.49983 0
M  V30 7045 O 664.675 1.705 -0.616397 0
M  V30 7046 C 664.723 -0.137381 -3.60338 0
M  V30 7047 O 663.827 0.895523 -4.02559 0
M  V30 7048 H 663.168 -0.102579 -0.656029 0
M  V30 7049 H 665.698 -0.917669 -1.82866 0
M  V30 7050 H 665.708 0.0403625 -4.0798 0
M  V30 7051 H 664.383 -1.10977 -4.0082 0
M  V30 7052 H 662.96 0.689209 -3.66476 0
M  V30 7053 O 665.184 1.51659 -0.55515 0
M  V30 7054 H 665.875 1.9363 -0.0521056 0
M  V30 END ATOM
M  V30 BEGIN BOND
M  V30 END BOND
M  V30 END CTAB
M  END
$$$$
