drugbank_target|P06132 Uroporphyrinogen decarboxylase (DB03727; DB04461)
 OpenBabel12092119573D

  0  0  0     0  0            999 V3000
M  V30 BEGIN CTAB
M  V30 COUNTS 5726 5798 0 0 0
M  V30 BEGIN ATOM
M  V30 1 H -0.908 1.98254 -0.117106 0
M  V30 2 N 0 1.576 0 0
M  V30 3 C 0.933 2.03868 1.02534 0
M  V30 4 C 1.911 0.928543 1.3348 0
M  V30 5 O 3.095 1.19667 1.45644 0
M  V30 6 C 0.222 2.43627 2.35294 0
M  V30 7 C -0.732 3.65373 2.2001 0
M  V30 8 S 0.101 5.13292 1.52614 0
M  V30 9 C 1.257 5.56322 2.86805 0
M  V30 10 H 1.49 2.90518 0.631377 0
M  V30 11 H -0.977 1.52953 0.210867 0
M  V30 12 H 0.981 2.67203 3.11629 0
M  V30 13 H -0.358 1.57376 2.7183 0
M  V30 14 H -1.165 3.90944 3.18086 0
M  V30 15 H -1.563 3.418 1.51819 0
M  V30 16 H 0.729 5.58782 3.83104 0
M  V30 17 H 1.672 6.56266 2.65933 0
M  V30 18 H 2.08 4.83886 2.90714 0
M  V30 19 N 1.4781 -0.272755 1.55222 0
M  V30 20 C 2.3881 -1.35918 1.91216 0
M  V30 21 C 3.4041 -1.54026 0.809436 0
M  V30 22 O 4.5801 -1.68148 1.10852 0
M  V30 23 C 1.6451 -2.69834 2.17693 0
M  V30 24 C 0.7061 -2.6047 3.41253 0
M  V30 25 C -0.0609 -3.88 3.66458 0
M  V30 26 O 0.1621 -4.88693 2.94169 0
M  V30 27 O -0.9039 -3.88189 4.59992 0
M  V30 28 H 2.9221 -1.0839 2.83699 0
M  V30 29 H 0.5071 -0.471301 1.41771 0
M  V30 30 H 2.3891 -3.49017 2.36147 0
M  V30 31 H 1.0641 -2.97148 1.28392 0
M  V30 32 H -0.0289 -1.79663 3.28134 0
M  V30 33 H 1.3041 -2.38106 4.30774 0
M  V30 34 N 2.9562 -1.48159 -0.537278 0
M  V30 35 C 3.9192 -1.61665 -1.62472 0
M  V30 36 C 4.9192 -0.490395 -1.5314 0
M  V30 37 O 6.1092 -0.755998 -1.5694 0
M  V30 38 C 3.2412 -1.57997 -3.02076 0
M  V30 39 H 4.4342 -2.58621 -1.51839 0
M  V30 40 H 1.9872 -1.36647 -0.758771 0
M  V30 41 H 2.7222 -0.624913 -3.18222 0
M  V30 42 H 2.5072 -2.39755 -3.10258 0
M  V30 43 H 3.9972 -1.70627 -3.81151 0
M  V30 44 N 4.4343 0.785586 -1.36625 0
M  V30 45 C 5.3823 1.91978 -1.31329 0
M  V30 46 C 6.3763 1.68162 -0.204416 0
M  V30 47 O 7.5823 1.76122 -0.371645 0
M  V30 48 H 3.9573 0.631087 -0.408942 0
M  V30 49 H 5.9283 1.93562 -2.27104 0
M  V30 50 C 4.6773 3.29055 -1.12329 0
M  V30 51 H 4.0003 3.4795 -1.96903 0
M  V30 52 H 5.4403 4.08756 -1.12671 0
M  V30 53 C 3.8993 3.36461 0.171861 0
M  V30 54 O 4.4293 3.84576 1.16035 0
M  V30 55 N 2.6353 2.89782 0.217846 0
M  V30 56 H 2.1823 2.50819 -0.587183 0
M  V30 57 H 2.1403 2.95119 1.08408 0
M  V30 58 N 5.9124 1.20967 1.01018 0
M  V30 59 C 7.1604 1.02172 1.74371 0
M  V30 60 C 7.4814 -0.446414 1.89821 0
M  V30 61 O 6.7514 -1.32234 1.44537 0
M  V30 62 H 5.3314 0.375066 0.646014 0
M  V30 63 H 7.9934 1.52187 1.21758 0
M  V30 64 H 7.0894 1.48538 2.74487 0
M  V30 65 N 7.3905 -1.2043 1.01659 0
M  V30 66 C 8.3205 -2.25466 0.607226 0
M  V30 67 C 9.3015 -1.65853 -0.377716 0
M  V30 68 O 10.4865 -1.92409 -0.263149 0
M  V30 69 C 7.6165 -3.47256 -0.0552949 0
M  V30 70 C 6.5705 -4.19462 0.850632 0
M  V30 71 C 5.8965 -5.34673 0.0538859 0
M  V30 72 C 7.1965 -4.75603 2.15868 0
M  V30 73 H 8.8905 -2.59962 1.48526 0
M  V30 74 H 6.4365 -1.2496 0.715605 0
M  V30 75 H 8.3895 -4.19917 -0.353233 0
M  V30 76 H 7.1135 -3.11924 -0.968045 0
M  V30 77 H 5.7725 -3.48667 1.13257 0
M  V30 78 H 5.4205 -4.95585 -0.860514 0
M  V30 79 H 5.1205 -5.83913 0.657192 0
M  V30 80 H 6.6445 -6.10138 -0.237598 0
M  V30 81 H 8.0585 -5.40083 1.92311 0
M  V30 82 H 6.4555 -5.3528 2.71284 0
M  V30 83 H 7.5255 -3.94346 2.82169 0
M  V30 84 N 8.8686 -0.792821 -1.36206 0
M  V30 85 C 10.1166 -0.366062 -1.98757 0
M  V30 86 C 10.4376 1.0668 -1.63231 0
M  V30 87 O 9.7076 1.73587 -0.907978 0
M  V30 88 H 8.2876 -0.132364 -0.735179 0
M  V30 89 H 10.9496 -1.01562 -1.66347 0
M  V30 90 H 10.0456 -0.460638 -3.08682 0
M  V30 91 N 10.3467 1.47872 -0.545128 0
M  V30 92 C 11.7577 1.86384 -0.108581 0
M  V30 93 C 12.1087 1.45309 1.31832 0
M  V30 94 O 11.2337 0.850641 1.9898 0
M  V30 95 C 11.8287 3.38265 -0.190274 0
M  V30 96 C 10.3877 3.75914 0.191164 0
M  V30 97 C 9.5347 2.71926 -0.543273 0
M  V30 98 H 12.4857 1.39561 -0.755537 0
M  V30 99 H 12.5067 3.75831 0.594217 0
M  V30 100 H 12.0187 3.6813 -1.2289 0
M  V30 101 H 10.1197 3.51665 1.23136 0
M  V30 102 H 10.2327 4.78836 -0.158987 0
M  V30 103 H 8.5967 2.54697 0.0122495 0
M  V30 104 H 9.3797 3.04634 -1.58282 0
M  V30 105 N 11.8248 0.280983 1.55075 0
M  V30 106 C 12.7568 -0.637268 2.20163 0
M  V30 107 C 13.7698 -1.11298 1.18813 0
M  V30 108 O 14.9588 -1.03388 1.4551 0
M  V30 109 C 12.0588 -1.88199 2.81841 0
M  V30 110 C 11.2318 -1.55211 4.08936 0
M  V30 111 C 10.2908 -2.64991 4.54606 0
M  V30 112 O 9.3168 -2.30929 5.2025 0
M  V30 113 N 10.5188 -3.95161 4.25238 0
M  V30 114 H 13.2838 -0.0801694 2.99593 0
M  V30 115 H 10.8448 0.102329 1.61576 0
M  V30 116 H 12.8368 -2.60948 3.09335 0
M  V30 117 H 11.4068 -2.34799 2.06369 0
M  V30 118 H 10.6268 -0.658185 3.88666 0
M  V30 119 H 11.9148 -1.30681 4.91732 0
M  V30 120 H 11.3128 -4.25653 3.72607 0
M  V30 121 H 9.8698 -4.6427 4.5749 0
M  V30 122 N 13.3029 -1.57598 0.00835791 0
M  V30 123 C 14.5509 -1.90551 -0.6734 0
M  V30 124 C 14.8719 -0.883301 -1.73847 0
M  V30 125 O 14.1419 0.0781442 -1.95744 0
M  V30 126 H 12.7219 -0.703312 -0.251717 0
M  V30 127 H 15.3839 -1.94833 0.0512592 0
M  V30 128 H 14.4799 -2.9056 -1.13935 0
M  V30 129 N 14.781 0.264519 -1.55364 0
M  V30 130 C 16.028 0.994986 -1.7637 0
M  V30 131 C 16.356 1.85976 -0.5695 0
M  V30 132 O 15.611 1.90509 0.44776 0
M  V30 133 C 15.91 1.9004 -3.02687 0
M  V30 134 C 15.576 1.19243 -4.34847 0
M  V30 135 C 14.238 0.996709 -4.70764 0
M  V30 136 C 16.59 0.689296 -5.16622 0
M  V30 137 C 13.918 0.285261 -5.86006 0
M  V30 138 C 16.27 -0.00860079 -6.32599 0
M  V30 139 C 14.934 -0.215963 -6.67151 0
M  V30 140 H 14.204 0.364091 -0.645383 0
M  V30 141 H 16.851 0.266543 -1.89636 0
M  V30 142 H 15.156 2.69533 -2.84357 0
M  V30 143 H 16.853 2.46695 -3.16137 0
M  V30 144 H 13.443 1.3549 -4.06621 0
M  V30 145 H 17.627 0.828108 -4.89342 0
M  V30 146 H 12.883 0.113961 -6.11294 0
M  V30 147 H 17.057 -0.406186 -6.95214 0
M  V30 148 H 14.684 -0.769217 -7.56298 0
M  V30 149 N 16.2591 1.48442 0.529413 0
M  V30 150 C 17.6701 1.5002 1.11134 0
M  V30 151 C 18.0211 0.27031 1.94329 0
M  V30 152 O 17.1461 -0.622507 2.07253 0
M  V30 153 C 17.7411 2.71834 2.02217 0
M  V30 154 C 16.3001 2.76283 2.55627 0
M  V30 155 C 15.4471 2.43542 1.326 0
M  V30 156 H 18.3981 1.5555 0.314641 0
M  V30 157 H 18.4191 2.50384 2.8651 0
M  V30 158 H 17.9311 3.61331 1.41639 0
M  V30 159 H 16.0321 1.90995 3.19924 0
M  V30 160 H 16.1451 3.77725 2.94721 0
M  V30 161 H 14.5091 1.94709 1.64196 0
M  V30 162 H 15.2921 3.3528 0.737734 0
M  V30 163 N 17.7372 -0.778329 1.37039 0
M  V30 164 C 18.6472 -1.92253 1.34446 0
M  V30 165 C 19.6632 -1.72267 0.244991 0
M  V30 166 O 20.8392 -1.95615 0.479258 0
M  V30 167 C 17.9042 -3.27282 1.144 0
M  V30 168 C 16.9652 -3.59969 2.33925 0
M  V30 169 C 16.1982 -4.88555 2.14825 0
M  V30 170 O 16.4212 -5.59113 1.12912 0
M  V30 171 O 15.3552 -5.20153 3.02861 0
M  V30 172 H 19.1812 -1.97392 2.30803 0
M  V30 173 H 16.7662 -0.920154 1.17701 0
M  V30 174 H 18.6482 -4.08062 1.05182 0
M  V30 175 H 17.3232 -3.23011 0.211124 0
M  V30 176 H 16.2302 -2.7945 2.48714 0
M  V30 177 H 17.5632 -3.68976 3.25757 0
M  V30 178 N 19.2153 -1.21501 -1.00376 0
M  V30 179 C 20.1453 -0.999478 -2.11028 0
M  V30 180 C 21.1263 0.0759671 -1.6993 0
M  V30 181 O 22.3113 -0.0841106 -1.94018 0
M  V30 182 C 19.4413 -0.564709 -3.42678 0
M  V30 183 C 18.3953 -1.58486 -3.97576 0
M  V30 184 C 17.7213 -1.00628 -5.25146 0
M  V30 185 C 19.0213 -2.97204 -4.29496 0
M  V30 186 H 20.7153 -1.92495 -2.29317 0
M  V30 187 H 18.2613 -0.92693 -1.102 0
M  V30 188 H 20.2143 -0.401091 -4.19487 0
M  V30 189 H 18.9383 0.396411 -3.24185 0
M  V30 190 H 17.5973 -1.73606 -3.22888 0
M  V30 191 H 17.2453 -0.0368439 -5.02987 0
M  V30 192 H 16.9453 -1.68771 -5.62841 0
M  V30 193 H 18.4693 -0.854015 -6.04598 0
M  V30 194 H 19.8833 -2.8552 -4.97143 0
M  V30 195 H 18.2803 -3.62372 -4.78338 0
M  V30 196 H 19.3503 -3.47956 -3.3772 0
M  V30 197 N 20.6934 1.19889 -1.02296 0
M  V30 198 C 21.6404 2.22901 -0.598651 0
M  V30 199 C 22.6104 1.61588 0.384521 0
M  V30 200 O 23.7954 1.88697 0.282522 0
M  V30 201 C 20.9354 3.45063 0.0504476 0
M  V30 202 C 20.0484 4.20783 -0.978053 0
M  V30 203 C 19.1834 5.30356 -0.299338 0
M  V30 204 C 18.2224 5.97826 -1.31416 0
M  V30 205 N 17.3594 6.98975 -0.661667 0
M  V30 206 H 22.1994 2.58554 -1.48169 0
M  V30 207 H 19.7364 1.27039 -0.741584 0
M  V30 208 H 21.6944 4.14831 0.443971 0
M  V30 209 H 20.3244 3.10084 0.897097 0
M  V30 210 H 19.3764 3.50018 -1.48969 0
M  V30 211 H 20.6884 4.67109 -1.74958 0
M  V30 212 H 19.8424 6.06516 0.149347 0
M  V30 213 H 18.5814 4.85084 0.504445 0
M  V30 214 H 17.5864 5.20422 -1.77317 0
M  V30 215 H 18.8114 6.45183 -2.11933 0
M  V30 216 H 16.7574 6.55886 0.122132 0
M  V30 217 H 16.6744 7.43461 -1.37117 0
M  V30 218 H 17.9424 7.7914 -0.236785 0
M  V30 219 N 22.1715 0.800033 1.35784 0
M  V30 220 C 23.1195 0.193851 2.31791 0
M  V30 221 C 24.1135 -0.652744 1.56319 0
M  V30 222 O 25.3195 -0.546641 1.71499 0
M  V30 223 H 21.6945 0.04392 0.750716 0
M  V30 224 H 23.6655 1.01883 2.80468 0
M  V30 225 C 22.4145 -0.648338 3.41602 0
M  V30 226 H 21.7375 -0.00624665 3.998 0
M  V30 227 H 23.1775 -1.03898 4.11073 0
M  V30 228 C 21.6365 -1.8111 2.84079 0
M  V30 229 O 22.1665 -2.90825 2.77099 0
M  V30 230 N 20.3725 -1.62056 2.41218 0
M  V30 231 H 19.9195 -0.728123 2.47095 0
M  V30 232 H 19.8775 -2.40013 2.03079 0
M  V30 233 N 23.6496 -1.47581 0.552962 0
M  V30 234 C 24.9266 -1.95563 -0.0381515 0
M  V30 235 C 25.3066 -1.49552 -1.48988 0
M  V30 236 O 24.6546 -0.732414 -2.16444 0
M  V30 237 C 24.8646 -3.48848 0.102919 0
M  V30 238 C 26.2126 -4.24577 -0.0446082 0
M  V30 239 O 27.2366 -3.56187 0.0302548 0
M  V30 240 O 26.0956 -5.46116 -0.204923 0
M  V30 241 H 23.1896 -0.824321 -0.0665067 0
M  V30 242 H 25.7356 -1.58001 0.619186 0
M  V30 243 H 24.5076 -3.75129 1.11328 0
M  V30 244 H 24.1306 -3.93165 -0.592224 0
M  V30 245 N 25.1277 -0.289203 -1.54924 0
M  V30 246 C 26.3557 0.326463 -2.04308 0
M  V30 247 C 26.7707 1.48413 -1.16701 0
M  V30 248 O 26.1277 1.81507 -0.190087 0
M  V30 249 C 26.1787 0.794014 -3.52672 0
M  V30 250 O 25.8997 -0.317564 -4.36948 0
M  V30 251 C 27.4007 1.47605 -4.18004 0
M  V30 252 H 24.6207 0.0726272 -0.667058 0
M  V30 253 H 27.1647 -0.425401 -2.00026 0
M  V30 254 H 25.3197 1.49593 -3.57352 0
M  V30 255 H 25.7337 0.0443186 -5.24481 0
M  V30 256 H 27.2077 1.75447 -5.23376 0
M  V30 257 H 27.6847 2.41224 -3.67025 0
M  V30 258 H 28.2907 0.81762 -4.17367 0
M  V30 259 N 26.6058 1.57591 -0.0167156 0
M  V30 260 C 27.8528 1.91283 0.664597 0
M  V30 261 C 28.1808 0.891949 1.72842 0
M  V30 262 O 27.4358 -0.100931 1.9544 0
M  V30 263 C 27.7348 3.3172 1.33029 0
M  V30 264 C 27.4008 4.4914 0.398047 0
M  V30 265 C 26.0628 4.80992 0.141421 0
M  V30 266 C 28.4148 5.20634 -0.242825 0
M  V30 267 C 25.7428 5.81703 -0.764092 0
M  V30 268 C 28.0948 6.22311 -1.13632 0
M  V30 269 C 26.7588 6.52611 -1.40196 0
M  V30 270 H 26.0288 0.699956 0.243193 0
M  V30 271 H 28.6758 1.9135 -0.0758267 0
M  V30 272 H 26.9808 3.27856 2.14517 0
M  V30 273 H 28.6778 3.55055 1.86379 0
M  V30 274 H 25.2678 4.24262 0.608238 0
M  V30 275 H 29.4518 4.96267 -0.0576019 0
M  V30 276 H 24.7078 6.03532 -0.977732 0
M  V30 277 H 28.8818 6.76834 -1.63917 0
M  V30 278 H 26.5088 7.30467 -2.10529 0
M  V30 279 N 28.0839 -0.256276 1.55502 0
M  V30 280 C 29.0139 -1.32102 1.92539 0
M  V30 281 C 29.9949 -1.50684 0.789194 0
M  V30 282 O 31.1799 -1.63449 1.04872 0
M  V30 283 C 28.3099 -2.67752 2.21192 0
M  V30 284 C 27.2639 -2.63878 3.36975 0
M  V30 285 C 26.5899 -4.03236 3.51147 0
M  V30 286 C 27.8899 -2.21682 4.72921 0
M  V30 287 H 29.5839 -1.01351 2.81724 0
M  V30 288 H 27.1299 -0.486105 1.35547 0
M  V30 289 H 29.0829 -3.42365 2.45691 0
M  V30 290 H 27.8069 -3.0012 1.28824 0
M  V30 291 H 26.4659 -1.91722 3.12471 0
M  V30 292 H 26.1139 -4.32854 2.56216 0
M  V30 293 H 25.8139 -4.01535 4.29003 0
M  V30 294 H 27.3379 -4.79563 3.77957 0
M  V30 295 H 28.7519 -2.86023 4.96854 0
M  V30 296 H 27.1489 -2.3111 5.53812 0
M  V30 297 H 28.2189 -1.16833 4.70615 0
M  V30 298 N 29.562 -1.4872 -0.521534 0
M  V30 299 C 30.978 -1.35028 -0.850855 0
M  V30 300 C 31.178 -0.367712 -1.98116 0
M  V30 301 O 30.234 0.208037 -2.51642 0
M  V30 302 C 31.547 -2.75263 -1.21041 0
M  V30 303 C 33.095 -2.83813 -1.31981 0
M  V30 304 C 33.57 -4.24769 -1.71276 0
M  V30 305 N 35.061 -4.27482 -1.78363 0
M  V30 306 C 35.796 -5.33494 -2.1017 0
M  V30 307 N 35.292 -6.49775 -2.40343 0
M  V30 308 N 37.085 -5.20894 -2.11248 0
M  V30 309 H 29.236 -2.11214 0.22413 0
M  V30 310 H 31.499 -0.947252 0.0376439 0
M  V30 311 H 31.205 -3.48765 -0.453415 0
M  V30 312 H 31.079 -3.09327 -2.15863 0
M  V30 313 H 33.466 -2.10561 -2.06756 0
M  V30 314 H 33.547 -2.53358 -0.352596 0
M  V30 315 H 33.191 -4.9854 -0.970588 0
M  V30 316 H 33.121 -4.52673 -2.69062 0
M  V30 317 H 35.612 -3.43611 -1.57288 0
M  V30 318 H 35.925 -7.26402 -2.63743 0
M  V30 319 H 34.27 -6.53035 -2.37844 0
M  V30 320 H 37.461 -4.29065 -1.87139 0
M  V30 321 H 37.634 -6.03612 -2.35704 0
M  V30 322 N 31.0401 0.771051 -1.3745 0
M  V30 323 C 32.0031 1.86598 -1.33093 0
M  V30 324 C 33.0031 1.59076 -0.234845 0
M  V30 325 O 34.1931 1.67145 -0.490732 0
M  V30 326 C 31.3251 3.23747 -1.06773 0
M  V30 327 H 32.5181 1.91873 -2.30488 0
M  V30 328 H 30.0711 0.970876 -1.2249 0
M  V30 329 H 30.8061 3.24148 -0.099129 0
M  V30 330 H 30.5911 3.45115 -1.86112 0
M  V30 331 H 32.0811 4.03824 -1.06377 0
M  V30 332 N 32.5182 1.22032 0.997298 0
M  V30 333 C 33.4812 0.987909 2.06816 0
M  V30 334 C 34.4812 -0.0440084 1.6074 0
M  V30 335 O 35.6712 0.194053 1.73116 0
M  V30 336 C 32.8032 0.49132 3.37341 0
M  V30 337 H 33.9962 1.93803 2.28868 0
M  V30 338 H 31.5492 1.03838 1.16822 0
M  V30 339 H 32.2842 -0.463364 3.20973 0
M  V30 340 H 32.0692 1.23575 3.72118 0
M  V30 341 H 33.5592 0.348824 4.16141 0
M  V30 342 N 33.9963 -1.19345 1.0293 0
M  V30 343 C 35.2423 -1.89585 0.736824 0
M  V30 344 C 35.5973 -1.78148 -0.726703 0
M  V30 345 O 34.8903 -1.16332 -1.52242 0
M  V30 346 C 35.0843 -3.39292 1.12319 0
M  V30 347 C 34.9133 -3.65298 2.62273 0
M  V30 348 C 33.6833 -3.83304 3.29251 0
M  V30 349 C 35.8813 -3.6682 3.60482 0
M  V30 350 N 33.8633 -3.96944 4.68304 0
M  V30 351 C 35.2343 -3.86037 4.85155 0
M  V30 352 C 37.2893 -3.49848 3.54275 0
M  V30 353 C 35.9923 -3.9004 6.04369 0
M  V30 354 C 38.0183 -3.55129 4.72903 0
M  V30 355 C 37.3803 -3.74831 5.9639 0
M  V30 356 H 33.4793 -0.712856 0.321497 0
M  V30 357 H 36.0633 -1.43427 1.31669 0
M  V30 358 H 34.2343 -3.84172 0.571524 0
M  V30 359 H 35.9663 -3.97055 0.78292 0
M  V30 360 H 32.7213 -3.82211 2.79663 0
M  V30 361 H 33.1453 -4.07613 5.40538 0
M  V30 362 H 37.7873 -3.33572 2.59788 0
M  V30 363 H 35.5053 -4.05108 6.99223 0
M  V30 364 H 39.0913 -3.43287 4.69729 0
M  V30 365 H 37.9713 -3.78792 6.86649 0
M  V30 366 N 35.4744 -0.807222 -1.35358 0
M  V30 367 C 36.7224 -0.387122 -1.98358 0
M  V30 368 C 37.0434 1.04942 -1.64354 0
M  V30 369 O 36.3134 1.72615 -0.926339 0
M  V30 370 H 34.8934 -0.140154 -0.733734 0
M  V30 371 H 37.5554 -1.0332 -1.6526 0
M  V30 372 H 36.6514 -0.493352 -3.08176 0
M  V30 373 N 36.9525 1.47285 -0.560781 0
M  V30 374 C 37.8625 2.33846 0.187954 0
M  V30 375 C 38.8785 1.48412 0.908293 0
M  V30 376 O 40.0545 1.81332 0.876388 0
M  V30 377 C 37.1195 3.25178 1.2025 0
M  V30 378 C 36.1805 4.26504 0.489208 0
M  V30 379 C 35.4135 5.13472 1.45542 0
M  V30 380 O 35.6365 5.02959 2.6905 0
M  V30 381 O 34.5705 5.93902 0.977963 0
M  V30 382 H 38.3965 2.99177 -0.522177 0
M  V30 383 H 35.9815 1.45903 -0.321364 0
M  V30 384 H 37.8635 3.81584 1.78805 0
M  V30 385 H 36.5385 2.6247 1.89449 0
M  V30 386 H 35.4455 3.73847 -0.137627 0
M  V30 387 H 36.7785 4.91935 -0.161399 0
M  V30 388 N 38.4306 0.297415 1.54768 0
M  V30 389 C 39.3406 -0.58983 2.27064 0
M  V30 390 C 40.3566 -1.15144 1.30453 0
M  V30 391 O 41.5326 -1.17699 1.63428 0
M  V30 392 C 38.5976 -1.74714 2.9946 0
M  V30 393 C 37.6586 -1.21997 4.11601 0
M  V30 394 C 36.8916 -2.32212 4.80535 0
M  V30 395 O 37.1146 -3.52036 4.48806 0
M  V30 396 O 36.0486 -1.99106 5.68014 0
M  V30 397 H 39.8746 -0.00348199 3.037 0
M  V30 398 H 37.4596 0.0640035 1.49263 0
M  V30 399 H 39.3416 -2.42147 3.44881 0
M  V30 400 H 38.0166 -2.32016 2.25722 0
M  V30 401 H 36.9236 -0.511458 3.70587 0
M  V30 402 H 38.2566 -0.692419 4.87305 0
M  V30 403 N 39.9087 -1.5758 0.0250728 0
M  V30 404 C 41.1367 -1.9593 -0.664747 0
M  V30 405 C 41.5517 -0.901352 -1.65895 0
M  V30 406 O 40.9087 0.117255 -1.82123 0
M  V30 407 C 40.9597 -3.34342 -1.37468 0
M  V30 408 O 40.6807 -4.36079 -0.420324 0
M  V30 409 C 42.1817 -3.873 -2.1567 0
M  V30 410 H 39.4017 -0.645405 -0.183557 0
M  V30 411 H 41.9457 -2.04329 0.0836372 0
M  V30 412 H 40.1007 -3.27175 -2.0745 0
M  V30 413 H 40.5147 -5.16297 -0.923991 0
M  V30 414 H 41.9887 -4.86504 -2.60803 0
M  V30 415 H 42.4657 -3.21331 -2.99405 0
M  V30 416 H 43.0717 -3.97723 -1.50654 0
M  V30 417 N 41.3868 0.248026 -1.55636 0
M  V30 418 C 42.6638 0.998988 -1.68165 0
M  V30 419 C 43.0438 2.03409 -0.564621 0
M  V30 420 O 42.3918 2.24378 0.432076 0
M  V30 421 C 42.6018 1.63334 -3.0842 0
M  V30 422 C 43.9498 2.13562 -3.66983 0
M  V30 423 O 44.9738 1.73277 -3.11213 0
M  V30 424 O 43.8328 2.87526 -4.64749 0
M  V30 425 H 40.9268 0.464933 -0.683935 0
M  V30 426 H 43.4728 0.241902 -1.67967 0
M  V30 427 H 42.2448 0.884583 -3.8117 0
M  V30 428 H 41.8678 2.45666 -3.12624 0
M  V30 429 N 42.8649 1.48995 0.513639 0
M  V30 430 C 44.0949 1.61297 1.291 0
M  V30 431 C 44.5029 0.278656 1.87137 0
M  V30 432 O 43.8459 -0.744325 1.67945 0
M  V30 433 C 43.9079 2.61326 2.46879 0
M  V30 434 C 43.5719 4.05993 2.09807 0
M  V30 435 C 44.5689 4.93183 1.64519 0
M  V30 436 C 42.2539 4.51642 2.19829 0
M  V30 437 C 44.2479 6.24056 1.2974 0
M  V30 438 C 41.9349 5.82532 1.84662 0
M  V30 439 C 42.9329 6.68562 1.3969 0
M  V30 440 O 42.6209 7.97014 1.04992 0
M  V30 441 H 42.3529 0.546236 0.39825 0
M  V30 442 H 44.9069 1.95673 0.62459 0
M  V30 443 H 43.1369 2.22104 3.16554 0
M  V30 444 H 44.8259 2.6329 3.08923 0
M  V30 445 H 45.5919 4.59147 1.56233 0
M  V30 446 H 41.4709 3.84855 2.53786 0
M  V30 447 H 45.0149 6.91161 0.945659 0
M  V30 448 H 40.9119 6.16099 1.92594 0
M  V30 449 H 41.6799 8.09913 1.18249 0
M  V30 450 N 44.343 -0.763751 1.37857 0
M  V30 451 C 45.571 -1.55293 1.36718 0
M  V30 452 C 45.986 -1.88745 -0.0455434 0
M  V30 453 O 45.343 -1.52039 -1.00947 0
M  V30 454 C 45.394 -2.85831 2.2132 0
M  V30 455 O 45.115 -2.5381 3.57089 0
M  V30 456 C 46.616 -3.80023 2.28249 0
M  V30 457 H 43.836 -0.480841 0.468009 0
M  V30 458 H 46.38 -0.946009 1.81303 0
M  V30 459 H 44.535 -3.42926 1.80223 0
M  V30 460 H 44.949 -3.37459 4.01524 0
M  V30 461 H 46.423 -4.68599 2.91752 0
M  V30 462 H 46.9 -4.1973 1.2932 0
M  V30 463 H 47.506 -3.28855 2.69693 0
M  V30 464 N 45.8211 -1.22559 -0.990812 0
M  V30 465 C 47.2321 -1.04791 -1.54518 0
M  V30 466 C 47.5831 0.387998 -1.92325 0
M  V30 467 O 46.7081 1.27328 -1.74976 0
M  V30 468 C 47.3031 -1.896 -2.80779 0
M  V30 469 C 45.8621 -1.76124 -3.32652 0
M  V30 470 C 45.0091 -1.8594 -2.05722 0
M  V30 471 H 47.9601 -1.36374 -0.811662 0
M  V30 472 H 47.9811 -1.41464 -3.53225 0
M  V30 473 H 47.4931 -2.94101 -2.53231 0
M  V30 474 H 45.5941 -0.743643 -3.65104 0
M  V30 475 H 45.7071 -2.58913 -4.03114 0
M  V30 476 H 44.0711 -1.29403 -2.19379 0
M  V30 477 H 44.8541 -2.91976 -1.80568 0
M  V30 478 N 47.2992 1.18797 -1.03562 0
M  V30 479 C 48.5452 1.8893 -0.737113 0
M  V30 480 C 48.8782 1.79837 0.732956 0
M  V30 481 O 48.1532 1.19525 1.5344 0
M  V30 482 C 48.4362 3.39607 -1.19745 0
M  V30 483 C 48.2892 3.57537 -2.72924 0
M  V30 484 C 49.6082 4.33069 -0.783526 0
M  V30 485 H 46.7272 0.686057 -0.269249 0
M  V30 486 H 49.3692 1.39797 -1.28673 0
M  V30 487 H 47.5192 3.81583 -0.729855 0
M  V30 488 H 49.1912 3.24688 -3.27682 0
M  V30 489 H 47.4342 3.00363 -3.12993 0
M  V30 490 H 48.1052 4.63238 -3.00191 0
M  V30 491 H 50.5812 3.98846 -1.18581 0
M  V30 492 H 49.4572 5.3707 -1.13343 0
M  V30 493 H 49.7182 4.40986 0.313681 0
M  V30 494 N 48.7773 0.814389 1.34928 0
M  V30 495 C 50.0233 0.408167 1.99263 0
M  V30 496 C 50.3783 -1.0154 1.63424 0
M  V30 497 O 49.6713 -1.69607 0.891289 0
M  V30 498 C 49.8653 0.537781 3.53331 0
M  V30 499 C 49.6943 1.9724 4.04137 0
M  V30 500 C 48.4643 2.60245 4.33129 0
M  V30 501 C 50.6623 2.93801 4.2212 0
M  V30 502 N 48.6443 3.95036 4.69914 0
M  V30 503 C 50.0153 4.1348 4.6199 0
M  V30 504 C 52.0703 2.9053 4.04348 0
M  V30 505 C 50.7733 5.3033 4.85945 0
M  V30 506 C 52.7993 4.06589 4.29464 0
M  V30 507 C 52.1613 5.25017 4.69613 0
M  V30 508 H 48.2603 0.197289 0.756704 0
M  V30 509 H 50.8443 1.05728 1.63492 0
M  V30 510 H 49.0153 -0.0813868 3.88315 0
M  V30 511 H 50.7473 0.105389 4.04563 0
M  V30 512 H 47.5023 2.11545 4.23728 0
M  V30 513 H 47.9263 4.64455 4.92555 0
M  V30 514 H 52.5683 2.00115 3.72443 0
M  V30 515 H 50.2863 6.21309 5.16721 0
M  V30 516 H 53.8723 4.05447 4.17257 0
M  V30 517 H 52.7523 6.1333 4.88667 0
M  V30 518 N 50.2554 -1.46986 0.568584 0
M  V30 519 C 51.4954 -2.04336 0.0512999 0
M  V30 520 C 51.8594 -1.43214 -1.27881 0
M  V30 521 O 53.0604 -1.91679 -1.88448 0
M  V30 522 C 51.3314 -3.57389 -0.0282328 0
M  V30 523 S 52.8904 -4.36056 -0.489991 0
M  V30 524 H 49.7084 -0.71034 0.0306349 0
M  V30 525 H 52.3104 -1.80212 0.757891 0
M  V30 526 H 51.0144 -3.99395 0.944011 0
M  V30 527 H 50.5454 -3.86028 -0.75803 0
M  V30 528 H 52.5604 -4.6441 -1.74752 0
M  V30 529 N 51.7335 -0.305618 -1.54608 0
M  V30 530 C 52.6665 0.610536 -2.19881 0
M  V30 531 C 53.6445 1.1294 -1.16976 0
M  V30 532 O 54.8285 1.19673 -1.45638 0
M  V30 533 C 51.9555 1.83583 -2.84631 0
M  V30 534 C 51.0015 1.4498 -4.01102 0
M  V30 535 S 51.8345 0.501793 -5.33144 0
M  V30 536 C 52.9905 1.73478 -6.01379 0
M  V30 537 H 53.2235 0.0560177 -2.97247 0
M  V30 538 H 50.7565 -0.0897434 -1.54139 0
M  V30 539 H 52.7145 2.53898 -3.22562 0
M  V30 540 H 51.3755 2.36152 -2.07102 0
M  V30 541 H 50.5685 2.36236 -4.45206 0
M  V30 542 H 50.1705 0.826553 -3.64752 0
M  V30 543 H 52.4625 2.67473 -6.22467 0
M  V30 544 H 53.4055 1.33622 -6.95378 0
M  V30 545 H 53.8135 1.9136 -5.31076 0
M  V30 546 N 53.2116 1.57565 -0.0334293 0
M  V30 547 C 54.6276 1.56297 0.322997 0
M  V30 548 C 54.8276 1.03945 1.7262 0
M  V30 549 O 53.8836 0.688109 2.42943 0
M  V30 550 C 55.1966 3.00232 0.167664 0
M  V30 551 C 56.7446 3.12078 0.240107 0
M  V30 552 C 57.2196 4.57859 0.113513 0
M  V30 553 N 58.7106 4.62887 0.170359 0
M  V30 554 C 59.4456 5.73319 0.0962517 0
M  V30 555 N 58.9416 6.92794 -0.0291881 0
M  V30 556 N 60.7346 5.61898 0.150551 0
M  V30 557 H 52.8856 1.89923 -0.950956 0
M  V30 558 H 55.1486 0.873824 -0.367608 0
M  V30 559 H 54.8546 3.42501 -0.799102 0
M  V30 560 H 54.7286 3.654 0.936083 0
M  V30 561 H 57.1156 2.69718 1.19733 0
M  V30 562 H 57.1966 2.49623 -0.558763 0
M  V30 563 H 56.8406 5.009 -0.840314 0
M  V30 564 H 56.7706 5.18299 0.931302 0
M  V30 565 H 59.2616 3.76954 0.26728 0
M  V30 566 H 59.5746 7.7276 -0.0789252 0
M  V30 567 H 57.9196 6.94971 -0.0640299 0
M  V30 568 H 61.1106 4.67448 0.246981 0
M  V30 569 H 61.2836 6.47938 0.0893365 0
M  V30 570 N 54.6897 -0.239769 1.55765 0
M  V30 571 C 55.6217 -1.32001 1.87372 0
M  V30 572 C 56.6347 -1.43944 0.760522 0
M  V30 573 O 57.8237 -1.45167 1.0387 0
M  V30 574 C 54.9237 -2.69779 2.05115 0
M  V30 575 C 54.0967 -2.80014 3.36022 0
M  V30 576 C 53.1557 -3.98684 3.4342 0
M  V30 577 O 52.1817 -3.87877 4.16582 0
M  V30 578 N 53.3837 -5.12176 2.73232 0
M  V30 579 H 56.1487 -1.0522 2.80622 0
M  V30 580 H 53.7097 -0.429857 1.56089 0
M  V30 581 H 55.7017 -3.47517 2.07399 0
M  V30 582 H 54.2717 -2.89237 1.18577 0
M  V30 583 H 53.4917 -1.88896 3.45994 0
M  V30 584 H 54.7797 -2.83808 4.22292 0
M  V30 585 H 54.1777 -5.2385 2.13536 0
M  V30 586 H 52.7347 -5.88022 2.81199 0
M  V30 587 N 56.1678 -1.49265 -0.50573 0
M  V30 588 C 57.1308 -1.65075 -1.59006 0
M  V30 589 C 58.1308 -0.522768 -1.52065 0
M  V30 590 O 59.3208 -0.789117 -1.55302 0
M  V30 591 C 56.4528 -1.64369 -2.98656 0
M  V30 592 H 57.6458 -2.61784 -1.46319 0
M  V30 593 H 55.1988 -1.38226 -0.729616 0
M  V30 594 H 55.9338 -0.692272 -3.16825 0
M  V30 595 H 55.7188 -2.46282 -3.05103 0
M  V30 596 H 57.2088 -1.78674 -3.77446 0
M  V30 597 N 57.6459 0.756429 -1.3826 0
M  V30 598 C 58.8939 1.51248 -1.34047 0
M  V30 599 C 59.2149 1.94875 0.0698372 0
M  V30 600 O 58.4849 1.67436 1.01696 0
M  V30 601 H 57.0649 0.561018 -0.493222 0
M  V30 602 H 59.7269 0.899347 -1.7291 0
M  V30 603 H 58.8229 2.40472 -1.98947 0
M  V30 604 N 59.124 1.23083 0.984299 0
M  V30 605 C 60.54 0.992637 1.24975 0
M  V30 606 C 60.74 -0.308618 1.99123 0
M  V30 607 O 59.796 -1.02905 2.30579 0
M  V30 608 C 61.109 2.19698 2.05312 0
M  V30 609 C 62.657 2.24147 2.18465 0
M  V30 610 C 63.132 3.44157 3.02192 0
M  V30 611 N 64.623 3.44372 3.09777 0
M  V30 612 C 65.358 4.33886 3.74874 0
M  V30 613 N 64.854 5.3363 4.41827 0
M  V30 614 N 66.647 4.21639 3.71721 0
M  V30 615 H 58.798 2.06731 0.487453 0
M  V30 616 H 61.061 0.906339 0.277944 0
M  V30 617 H 60.767 3.1411 1.58201 0
M  V30 618 H 60.641 2.20465 3.06064 0
M  V30 619 H 63.028 1.30277 2.64786 0
M  V30 620 H 63.109 2.27415 1.17115 0
M  V30 621 H 62.753 4.38332 2.56568 0
M  V30 622 H 62.683 3.3813 4.03702 0
M  V30 623 H 65.174 2.72201 2.62135 0
M  V30 624 H 65.487 5.98196 4.89266 0
M  V30 625 H 63.832 5.37534 4.40548 0
M  V30 626 H 67.023 3.42962 3.18582 0
M  V30 627 H 67.196 4.91604 4.22173 0
M  V30 628 N 60.6021 -1.18246 1.0419 0
M  V30 629 C 61.8321 -1.91916 0.764961 0
M  V30 630 C 62.2401 -1.76485 -0.681898 0
M  V30 631 O 61.5831 -1.09275 -1.47664 0
M  V30 632 C 61.6451 -3.4373 1.05309 0
M  V30 633 C 61.3091 -3.8294 2.4941 0
M  V30 634 C 62.3061 -3.86621 3.47592 0
M  V30 635 C 59.9911 -4.142 2.84155 0
M  V30 636 C 61.9851 -4.21013 4.78568 0
M  V30 637 C 59.6721 -4.48262 4.15337 0
M  V30 638 C 60.6701 -4.51645 5.12353 0
M  V30 639 O 60.3581 -4.84911 6.41183 0
M  V30 640 H 60.0901 -0.61606 0.278292 0
M  V30 641 H 62.6441 -1.50947 1.39299 0
M  V30 642 H 60.8741 -3.84946 0.367933 0
M  V30 643 H 62.5631 -3.9865 0.763752 0
M  V30 644 H 63.3291 -3.62607 3.22089 0
M  V30 645 H 59.2081 -4.10743 2.09311 0
M  V30 646 H 62.7521 -4.23568 5.54289 0
M  V30 647 H 58.6491 -4.71737 4.40607 0
M  V30 648 H 59.4171 -5.02809 6.45852 0
M  V30 649 N 62.0802 -0.821533 -1.34494 0
M  V30 650 C 63.0102 -0.257138 -2.3208 0
M  V30 651 C 63.9912 0.625645 -1.58176 0
M  V30 652 O 65.1762 0.552811 -1.86166 0
M  V30 653 C 62.3062 0.582958 -3.42372 0
M  V30 654 C 61.2602 -0.202571 -4.2752 0
M  V30 655 C 60.5862 0.760179 -5.29269 0
M  V30 656 C 61.8862 -1.40998 -5.02908 0
M  V30 657 H 63.5802 -1.07247 -2.79532 0
M  V30 658 H 61.1262 -0.517163 -1.34393 0
M  V30 659 H 63.0792 0.987972 -4.09655 0
M  V30 660 H 61.8032 1.43133 -2.93565 0
M  V30 661 H 60.4622 -0.588936 -3.61838 0
M  V30 662 H 60.1102 1.60447 -4.76724 0
M  V30 663 H 59.8102 0.238809 -5.87115 0
M  V30 664 H 61.3342 1.16308 -5.9942 0
M  V30 665 H 62.7482 -1.07905 -5.63054 0
M  V30 666 H 61.1452 -1.86689 -5.70322 0
M  V30 667 H 62.2152 -2.1889 -4.32684 0
M  V30 668 N 63.5583 1.46682 -0.576371 0
M  V30 669 C 64.9693 1.86112 -0.148091 0
M  V30 670 C 65.3203 1.48073 1.2872 0
M  V30 671 O 64.4453 0.892656 1.97131 0
M  V30 672 C 65.0403 3.37786 -0.261982 0
M  V30 673 C 63.5993 3.76235 0.111384 0
M  V30 674 C 62.7463 2.70713 -0.60083 0
M  V30 675 H 65.6973 1.37927 -0.78497 0
M  V30 676 H 65.7183 3.77007 0.514364 0
M  V30 677 H 65.2303 3.6544 -1.30671 0
M  V30 678 H 63.3313 3.54198 1.15649 0
M  V30 679 H 63.4443 4.78391 -0.26052 0
M  V30 680 H 61.8083 2.54666 -0.0417783 0
M  V30 681 H 62.5913 3.01208 -1.64708 0
M  V30 682 N 65.0364 0.313813 1.54444 0
M  V30 683 C 65.9464 -0.565714 2.27677 0
M  V30 684 C 66.9624 -1.13754 1.31666 0
M  V30 685 O 68.1384 -1.15959 1.64668 0
M  V30 686 C 65.2034 -1.71528 3.01296 0
M  V30 687 C 64.2644 -1.17624 4.12872 0
M  V30 688 C 63.4974 -2.27102 4.8297 0
M  V30 689 O 63.7204 -3.47256 4.52514 0
M  V30 690 O 62.6544 -1.9307 5.70094 0
M  V30 691 H 66.4804 0.0287296 3.03686 0
M  V30 692 H 64.0654 0.0798312 1.49187 0
M  V30 693 H 65.9474 -2.38476 3.4743 0
M  V30 694 H 64.6224 -2.29608 2.2817 0
M  V30 695 H 63.5294 -0.472124 3.71109 0
M  V30 696 H 64.8624 -0.640695 4.88012 0
M  V30 697 N 66.5145 -1.57545 0.0417849 0
M  V30 698 C 67.7615 -1.92317 -0.634082 0
M  V30 699 C 68.0895 -0.919334 -1.71402 0
M  V30 700 O 67.3445 0.0698253 -1.95575 0
M  V30 701 C 67.6435 -3.33794 -1.27735 0
M  V30 702 C 67.3095 -4.49716 -0.326543 0
M  V30 703 C 65.9715 -4.81156 -0.0648814 0
M  V30 704 C 68.3235 -5.20182 0.325623 0
M  V30 705 C 65.6515 -5.80414 0.856539 0
M  V30 706 C 68.0035 -6.20424 1.23518 0
M  V30 707 C 66.6675 -6.50298 1.5056 0
M  V30 708 H 65.9375 -0.703736 -0.232027 0
M  V30 709 H 68.5845 -1.91205 0.106259 0
M  V30 710 H 66.8895 -3.31228 -2.09274 0
M  V30 711 H 68.5865 -3.57975 -1.80707 0
M  V30 712 H 65.1765 -4.25176 -0.540665 0
M  V30 713 H 69.3605 -4.96112 0.136546 0
M  V30 714 H 64.6165 -6.019 1.07363 0
M  V30 715 H 68.7905 -6.74141 1.74664 0
M  V30 716 H 66.4175 -7.27025 2.22123 0
M  V30 717 N 67.9926 0.231505 -1.5589 0
M  V30 718 C 69.4086 0.580748 -1.48659 0
M  V30 719 C 69.6086 1.87617 -0.73498 0
M  V30 720 O 68.6646 2.51046 -0.270586 0
M  V30 721 C 69.9776 0.669202 -2.93159 0
M  V30 722 C 71.5256 0.760499 -3.03621 0
M  V30 723 C 72.0006 0.880383 -4.49459 0
M  V30 724 N 73.4916 0.944861 -4.53461 0
M  V30 725 C 74.2266 1.05716 -5.63571 0
M  V30 726 N 73.7226 1.13403 -6.83456 0
M  V30 727 N 75.5156 1.09152 -5.514 0
M  V30 728 H 67.6666 -0.618695 -2.03189 0
M  V30 729 H 69.9296 -0.215728 -0.923128 0
M  V30 730 H 69.6356 -0.212904 -3.51055 0
M  V30 731 H 69.5096 1.5361 -3.44505 0
M  V30 732 H 71.8966 1.63305 -2.45796 0
M  V30 733 H 71.9776 -0.131864 -2.5546 0
M  V30 734 H 71.6216 0.0123284 -5.07899 0
M  V30 735 H 71.5516 1.78802 -4.95316 0
M  V30 736 H 74.0426 0.896176 -3.6712 0
M  V30 737 H 74.3556 1.21921 -7.63122 0
M  V30 738 H 72.7006 1.10333 -6.86186 0
M  V30 739 H 75.8916 1.02805 -4.56671 0
M  V30 740 H 76.0646 1.17558 -6.37247 0
M  V30 741 N 69.4707 1.49531 0.497807 0
M  V30 742 C 70.3807 1.69176 1.62532 0
M  V30 743 C 71.3967 0.5744 1.64246 0
M  V30 744 O 72.5727 0.849497 1.82608 0
M  V30 745 C 69.6377 1.75695 2.98885 0
M  V30 746 C 68.6987 2.9929 3.07773 0
M  V30 747 C 67.9317 3.05488 4.37622 0
M  V30 748 O 68.1547 2.19192 5.26603 0
M  V30 749 O 67.0887 3.9798 4.51548 0
M  V30 750 H 70.9147 2.647 1.48887 0
M  V30 751 H 68.4997 1.3331 0.674441 0
M  V30 752 H 70.3817 1.82317 3.79919 0
M  V30 753 H 69.0567 0.8335 3.12785 0
M  V30 754 H 67.9637 2.98183 2.25915 0
M  V30 755 H 69.2967 3.91125 2.98801 0
M  V30 756 N 70.9488 -0.749086 1.3866 0
M  V30 757 C 72.1768 -1.53834 1.38358 0
M  V30 758 C 72.5918 -1.88783 -0.0255219 0
M  V30 759 O 71.9488 -1.53101 -0.993292 0
M  V30 760 C 71.9998 -2.83468 2.2434 0
M  V30 761 O 71.7208 -2.50008 3.5976 0
M  V30 762 C 73.2218 -3.7758 2.32267 0
M  V30 763 H 70.4418 -0.47585 0.473083 0
M  V30 764 H 72.9858 -0.926726 1.82297 0
M  V30 765 H 71.1408 -3.40995 1.83851 0
M  V30 766 H 71.5548 -3.33182 4.05081 0
M  V30 767 H 73.0288 -4.65478 2.96706 0
M  V30 768 H 73.5058 -4.18334 1.33765 0
M  V30 769 H 74.1118 -3.25976 2.73166 0
M  V30 770 N 72.4269 -1.23603 -0.977757 0
M  V30 771 C 73.8429 -0.999251 -1.24447 0
M  V30 772 C 74.0429 0.298053 -1.99283 0
M  V30 773 O 73.0989 1.01681 -2.31122 0
M  V30 774 C 74.4119 -2.20784 -2.04144 0
M  V30 775 C 75.9599 -2.25303 -2.17273 0
M  V30 776 C 76.4349 -3.45755 -3.00362 0
M  V30 777 N 77.9259 -3.4601 -3.07947 0
M  V30 778 C 78.6609 -4.35868 -3.72568 0
M  V30 779 N 78.1569 -5.35966 -4.38991 0
M  V30 780 N 79.9499 -4.23605 -3.6948 0
M  V30 781 H 72.1009 -2.06986 -0.476483 0
M  V30 782 H 74.3639 -0.907801 -0.273134 0
M  V30 783 H 74.0699 -3.14945 -1.56533 0
M  V30 784 H 73.9439 -2.22085 -3.04891 0
M  V30 785 H 76.3309 -1.3168 -2.64092 0
M  V30 786 H 76.4119 -2.28033 -1.15907 0
M  V30 787 H 76.0559 -4.39687 -2.5424 0
M  V30 788 H 75.9859 -3.40266 -4.01904 0
M  V30 789 H 78.4769 -2.73588 -2.60688 0
M  V30 790 H 78.7899 -6.00783 -4.86086 0
M  V30 791 H 77.1349 -5.39863 -4.37691 0
M  V30 792 H 80.3259 -3.44647 -3.16759 0
M  V30 793 H 80.4989 -4.93836 -4.1956 0
M  V30 794 N 73.905 1.17692 -1.04816 0
M  V30 795 C 74.868 2.19787 -0.650117 0
M  V30 796 C 75.868 1.58044 0.296427 0
M  V30 797 O 77.058 1.74012 0.0808097 0
M  V30 798 C 74.19 3.40869 0.0456987 0
M  V30 799 H 75.383 2.56516 -1.5537 0
M  V30 800 H 72.936 1.31708 -0.841594 0
M  V30 801 H 73.671 3.09681 0.962726 0
M  V30 802 H 73.456 3.86928 -0.634727 0
M  V30 803 H 74.946 4.16445 0.310432 0
M  V30 804 N 75.3831 0.828654 1.34056 0
M  V30 805 C 76.3461 0.259927 2.27721 0
M  V30 806 C 77.3461 -0.565478 1.50529 0
M  V30 807 O 78.5361 -0.38075 1.69988 0
M  V30 808 C 75.6681 -0.634944 3.34935 0
M  V30 809 H 76.8611 1.0863 2.79534 0
M  V30 810 H 74.4141 0.600951 1.44285 0
M  V30 811 H 75.1491 -1.48416 2.88346 0
M  V30 812 H 74.9341 -0.0444999 3.92075 0
M  V30 813 H 76.4241 -1.02648 4.04788 0
M  V30 814 N 76.8612 -1.46375 0.584142 0
M  V30 815 C 77.7932 -2.28443 -0.186119 0
M  V30 816 C 78.8062 -1.38596 -0.854115 0
M  V30 817 O 79.9952 -1.63183 -0.723438 0
M  V30 818 C 77.0952 -3.13671 -1.28311 0
M  V30 819 C 76.2682 -4.31652 -0.706758 0
M  V30 820 C 75.3272 -4.98267 -1.69163 0
M  V30 821 O 74.3532 -5.55815 -1.22712 0
M  V30 822 N 75.5552 -4.95408 -3.02575 0
M  V30 823 H 78.3202 -2.9519 0.517986 0
M  V30 824 H 75.8812 -1.56303 0.42201 0
M  V30 825 H 77.8732 -3.55101 -1.94128 0
M  V30 826 H 76.4432 -2.48989 -1.89005 0
M  V30 827 H 75.6632 -3.93989 0.128908 0
M  V30 828 H 76.9512 -5.07906 -0.301506 0
M  V30 829 H 76.3492 -4.49902 -3.42936 0
M  V30 830 H 74.9062 -5.40774 -3.63877 0
M  V30 831 N 78.3393 -0.321999 -1.54275 0
M  V30 832 C 79.6163 0.335232 -1.92706 0
M  V30 833 C 79.9963 1.70006 -1.25145 0
M  V30 834 O 79.3443 2.25067 -0.394596 0
M  V30 835 C 79.5543 0.429008 -3.46353 0
M  V30 836 C 80.9023 0.690029 -4.18956 0
M  V30 837 O 81.9263 0.511992 -3.52501 0
M  V30 838 O 80.7853 1.03338 -5.36641 0
M  V30 839 H 77.8793 0.191143 -0.804608 0
M  V30 840 H 80.4253 -0.3716 -1.65581 0
M  V30 841 H 79.1973 -0.529611 -3.87699 0
M  V30 842 H 78.8203 1.18348 -3.79578 0
M  V30 843 N 79.8174 1.5752 -0.0501392 0
M  V30 844 C 81.0644 1.9265 0.623874 0
M  V30 845 C 81.3924 0.928411 1.70912 0
M  V30 846 O 80.6474 -0.0594525 1.9561 0
M  V30 847 C 80.9464 3.34467 1.25963 0
M  V30 848 C 80.6124 4.49883 0.302689 0
M  V30 849 C 79.2744 4.81184 0.0393636 0
M  V30 850 C 81.6264 5.20002 -0.353205 0
M  V30 851 C 78.9544 5.79951 -0.887308 0
M  V30 852 C 81.3064 6.1976 -1.26806 0
M  V30 853 C 79.9704 6.49491 -1.54007 0
M  V30 854 H 79.2404 0.704957 0.228292 0
M  V30 855 H 81.8874 1.91146 -0.116398 0
M  V30 856 H 80.1924 3.32333 2.07514 0
M  V30 857 H 81.8894 3.58928 1.78806 0
M  V30 858 H 78.4794 4.25457 0.518109 0
M  V30 859 H 82.6634 4.96033 -0.162854 0
M  V30 860 H 77.9194 6.01322 -1.10553 0
M  V30 861 H 82.0934 6.73205 -1.78236 0
M  V30 862 H 79.7204 7.25837 -2.25976 0
M  V30 863 N 81.2955 -0.223234 1.56011 0
M  V30 864 C 82.5425 -0.947875 1.78946 0
M  V30 865 C 82.8705 -1.844 0.618608 0
M  V30 866 O 82.1255 -1.91629 -0.397093 0
M  V30 867 C 82.4245 -1.81948 3.0762 0
M  V30 868 C 82.0905 -1.07672 4.37856 0
M  V30 869 C 80.7525 -0.871544 4.73242 0
M  V30 870 C 83.1045 -0.552081 5.18268 0
M  V30 871 C 80.4325 -0.129791 5.86556 0
M  V30 872 C 82.7845 0.17632 6.32354 0
M  V30 873 C 81.4485 0.39277 6.66343 0
M  V30 874 H 80.7185 -0.346852 0.654809 0
M  V30 875 H 83.3655 -0.216171 1.90276 0
M  V30 876 H 81.6705 -2.61899 2.91404 0
M  V30 877 H 83.3675 -2.38227 3.22566 0
M  V30 878 H 79.9575 -1.24662 4.1007 0
M  V30 879 H 84.1415 -0.698076 4.91366 0
M  V30 880 H 79.3975 0.048153 6.11381 0
M  V30 881 H 83.5715 0.590367 6.93893 0
M  V30 882 H 81.1985 0.969466 7.53993 0
M  V30 883 N 82.7736 -1.49793 -0.48987 0
M  V30 884 C 83.9986 -1.63836 -1.27172 0
M  V30 885 C 84.4236 -0.31402 -1.8546 0
M  V30 886 O 83.7816 0.719803 -1.66399 0
M  V30 887 C 83.8296 -2.71797 -2.36978 0
M  V30 888 O 82.9336 -2.31744 -3.41128 0
M  V30 889 H 82.2746 -0.547997 -0.37496 0
M  V30 890 H 84.8046 -1.96053 -0.585191 0
M  V30 891 H 84.8146 -2.94305 -2.82575 0
M  V30 892 H 83.4896 -3.67923 -1.93921 0
M  V30 893 H 82.0666 -2.1961 -3.01373 0
M  V30 894 N 84.2517 0.741722 -1.39055 0
M  V30 895 C 85.4797 1.53098 -1.39171 0
M  V30 896 C 85.8947 1.88794 0.0155099 0
M  V30 897 O 85.2517 1.53626 0.985159 0
M  V30 898 C 85.3027 2.82274 -2.2584 0
M  V30 899 O 85.0237 2.48097 -3.61081 0
M  V30 900 C 86.5247 3.76343 -2.34266 0
M  V30 901 H 83.7447 0.473335 -0.4756 0
M  V30 902 H 86.2887 0.917045 -1.82785 0
M  V30 903 H 84.4437 3.40015 -1.85656 0
M  V30 904 H 84.8577 3.31029 -4.06842 0
M  V30 905 H 86.3317 4.63898 -2.9917 0
M  V30 906 H 86.8087 4.17619 -1.35982 0
M  V30 907 H 87.4147 3.24523 -2.74891 0
M  V30 908 N 85.7298 1.2412 0.971189 0
M  V30 909 C 86.9698 1.09066 1.7287 0
M  V30 910 C 87.3338 -0.364794 1.88503 0
M  V30 911 O 88.5348 -0.636748 2.61149 0
M  V30 912 C 86.8058 1.80629 3.08396 0
M  V30 913 S 88.3648 1.81263 3.99611 0
M  V30 914 H 85.1828 0.390145 0.594397 0
M  V30 915 H 87.7848 1.57397 1.15959 0
M  V30 916 H 86.4888 2.85647 2.94676 0
M  V30 917 H 86.0198 1.32617 3.70373 0
M  V30 918 H 88.0348 0.877804 4.88374 0
M  V30 919 N 87.2079 -1.17134 1.05439 0
M  V30 920 C 88.6239 -1.39454 0.776201 0
M  V30 921 C 88.8239 -1.91454 -0.628307 0
M  V30 922 O 87.8799 -2.10777 -1.39031 0
M  V30 923 C 89.1929 -2.38305 1.83388 0
M  V30 924 C 90.7409 -2.52006 1.85639 0
M  V30 925 C 91.2159 -3.54133 2.90437 0
M  V30 926 N 92.7069 -3.61653 2.89415 0
M  V30 927 C 93.4419 -4.4044 3.67152 0
M  V30 928 N 92.9379 -5.22721 4.54681 0
M  V30 929 N 94.7309 -4.35337 3.55581 0
M  V30 930 H 86.8819 -0.817134 1.96053 0
M  V30 931 H 89.1449 -0.421626 0.849079 0
M  V30 932 H 88.8509 -2.07173 2.84204 0
M  V30 933 H 88.7249 -3.37841 1.67761 0
M  V30 934 H 91.1119 -2.82447 0.85486 0
M  V30 935 H 91.1929 -1.52537 2.05344 0
M  V30 936 H 90.8369 -3.24431 3.90777 0
M  V30 937 H 90.7669 -4.53313 2.67983 0
M  V30 938 H 93.2579 -3.02909 2.25952 0
M  V30 939 H 93.5709 -5.80027 5.10674 0
M  V30 940 H 91.9159 -5.22093 4.58741 0
M  V30 941 H 95.1069 -3.70112 2.86592 0
M  V30 942 H 95.2799 -4.96494 4.1641 0
M  V30 943 N 88.686 -0.835752 -1.33615 0
M  V30 944 C 89.911 -0.442389 -2.02627 0
M  V30 945 C 90.336 0.947735 -1.62479 0
M  V30 946 O 89.694 1.61907 -0.815826 0
M  V30 947 C 89.742 -0.567216 -3.56111 0
M  V30 948 O 88.846 0.407799 -4.10379 0
M  V30 949 H 88.187 -0.180278 -0.639059 0
M  V30 950 H 90.717 -1.12972 -1.70583 0
M  V30 951 H 90.727 -0.447708 -4.05536 0
M  V30 952 H 89.402 -1.58103 -3.84677 0
M  V30 953 H 87.979 0.246107 -3.72087 0
M  V30 954 N 90.1641 1.46063 -0.591896 0
M  V30 955 C 91.5751 1.85944 -0.167822 0
M  V30 956 C 91.9261 1.49429 1.27143 0
M  V30 957 O 91.0511 0.913515 1.96173 0
M  V30 958 C 91.6461 3.37489 -0.297794 0
M  V30 959 C 90.2051 3.76332 0.0714732 0
M  V30 960 C 89.3521 2.7006 -0.629509 0
M  V30 961 H 92.3031 1.37087 -0.799555 0
M  V30 962 H 92.3241 3.77532 0.474349 0
M  V30 963 H 91.8361 3.64034 -1.3454 0
M  V30 964 H 89.9371 3.55405 1.11886 0
M  V30 965 H 90.0501 4.78088 -0.311245 0
M  V30 966 H 88.4141 2.54607 -0.0687867 0
M  V30 967 H 89.1971 2.99444 -1.67894 0
M  V30 968 N 91.6422 0.330177 1.54103 0
M  V30 969 C 92.5522 -0.541534 2.28264 0
M  V30 970 C 93.5682 -1.12351 1.32866 0
M  V30 971 O 94.7442 -1.14206 1.65888 0
M  V30 972 C 91.8092 -1.68322 3.03098 0
M  V30 973 C 90.8702 -1.13238 4.14096 0
M  V30 974 C 90.1032 -2.21966 4.85352 0
M  V30 975 O 90.3262 -3.42437 4.56172 0
M  V30 976 O 89.2602 -1.87013 5.7211 0
M  V30 977 H 93.0862 0.060938 3.03639 0
M  V30 978 H 90.6712 0.09565 1.49093 0
M  V30 979 H 92.5532 -2.34777 3.49939 0
M  V30 980 H 91.2282 -2.27176 2.30593 0
M  V30 981 H 90.1352 -0.432736 3.71589 0
M  V30 982 H 91.4682 -0.588898 4.88664 0
M  V30 983 N 93.1203 -1.57491 0.0584922 0
M  V30 984 C 94.0833 -2.1085 -0.898617 0
M  V30 985 C 95.0833 -1.02964 -1.23511 0
M  V30 986 O 96.2733 -1.29007 -1.17059 0
M  V30 987 C 93.4053 -2.59881 -2.20623 0
M  V30 988 H 94.5983 -2.96715 -0.435936 0
M  V30 989 H 92.1513 -1.55141 -0.190023 0
M  V30 990 H 92.8863 -1.77431 -2.71457 0
M  V30 991 H 92.6713 -3.38727 -1.97501 0
M  V30 992 H 94.1613 -3.01285 -2.89166 0
M  V30 993 N 94.5984 0.214957 -1.56127 0
M  V30 994 C 95.8384 0.945364 -1.81224 0
M  V30 995 C 96.2024 1.81265 -0.633005 0
M  V30 996 O 97.4034 2.57731 -0.763423 0
M  V30 997 C 95.6744 1.75665 -3.1125 0
M  V30 998 S 97.2334 2.54179 -3.57685 0
M  V30 999 H 94.0514 0.317443 -0.6362 0
M  V30 1000 H 96.6534 0.210381 -1.94365 0
M  V30 1001 H 95.3574 1.10977 -3.9511 0
M  V30 1002 H 94.8884 2.53381 -3.00934 0
M  V30 1003 H 96.9034 3.7792 -3.21545 0
M  V30 1004 N 96.0765 1.50051 0.48192 0
M  V30 1005 C 97.3165 1.62128 1.24474 0
M  V30 1006 C 97.6805 0.309742 1.89485 0
M  V30 1007 O 98.8815 0.305854 2.67054 0
M  V30 1008 C 97.1525 2.76151 2.26882 0
M  V30 1009 S 98.7115 3.08297 3.12247 0
M  V30 1010 H 95.5295 0.571661 0.422759 0
M  V30 1011 H 98.1315 1.87791 0.54359 0
M  V30 1012 H 96.8355 3.69942 1.77683 0
M  V30 1013 H 96.3665 2.52541 3.0164 0
M  V30 1014 H 98.3815 2.51287 4.27866 0
M  V30 1015 N 97.5546 -0.734337 1.39446 0
M  V30 1016 C 98.4646 -1.87879 1.40495 0
M  V30 1017 C 99.4806 -1.714 0.299672 0
M  V30 1018 O 100.657 -1.93991 0.541249 0
M  V30 1019 C 97.7216 -3.23477 1.24754 0
M  V30 1020 C 96.7826 -3.52344 2.45259 0
M  V30 1021 C 96.0156 -4.81473 2.30259 0
M  V30 1022 O 96.2386 -5.55237 1.30643 0
M  V30 1023 O 95.1726 -5.10254 3.19256 0
M  V30 1024 H 98.9986 -1.89949 2.36966 0
M  V30 1025 H 96.5836 -0.882243 1.20569 0
M  V30 1026 H 98.4656 -4.04509 1.18111 0
M  V30 1027 H 97.1406 -3.22176 0.313781 0
M  V30 1028 H 96.0476 -2.71396 2.57478 0
M  V30 1029 H 97.3806 -3.58426 3.37331 0
M  V30 1030 N 99.0327 -1.24633 -0.964593 0
M  V30 1031 C 99.9627 -1.06611 -2.07741 0
M  V30 1032 C 100.944 0.0218666 -1.70086 0
M  V30 1033 O 102.129 -0.145793 -1.93652 0
M  V30 1034 C 99.2587 -0.673444 -3.40708 0
M  V30 1035 C 98.2127 -1.71054 -3.92332 0
M  V30 1036 C 97.5387 -1.17285 -5.21678 0
M  V30 1037 C 98.8387 -3.10718 -4.19824 0
M  V30 1038 H 100.533 -1.99693 -2.23076 0
M  V30 1039 H 98.0787 -0.96152 -1.07195 0
M  V30 1040 H 100.032 -0.534345 -4.17998 0
M  V30 1041 H 98.7557 0.293073 -3.25282 0
M  V30 1042 H 97.4147 -1.83791 -3.17201 0
M  V30 1043 H 97.0627 -0.196847 -5.02615 0
M  V30 1044 H 96.7627 -1.86592 -5.57187 0
M  V30 1045 H 98.2867 -1.04593 -6.01575 0
M  V30 1046 H 99.7007 -3.01192 -4.87808 0
M  V30 1047 H 98.0977 -3.77406 -4.66567 0
M  V30 1048 H 99.1677 -3.58524 -3.26479 0
M  V30 1049 N 100.511 1.16574 -1.06058 0
M  V30 1050 C 101.739 1.90952 -0.796552 0
M  V30 1051 C 102.154 1.77302 0.648808 0
M  V30 1052 O 101.511 1.11605 1.44397 0
M  V30 1053 C 101.562 3.41736 -1.17894 0
M  V30 1054 O 101.283 3.54975 -2.56758 0
M  V30 1055 C 102.784 4.33169 -0.942308 0
M  V30 1056 H 100.004 0.605594 -0.288959 0
M  V30 1057 H 102.548 1.47777 -1.41358 0
M  V30 1058 H 100.703 3.82623 -0.606491 0
M  V30 1059 H 101.117 4.4846 -2.72 0
M  V30 1060 H 102.591 5.37439 -1.25952 0
M  V30 1061 H 103.068 4.3903 0.122078 0
M  V30 1062 H 103.674 3.98007 -1.49902 0
M  V30 1063 N 101.989 0.842826 1.3317 0
M  V30 1064 C 102.919 0.294028 2.31641 0
M  V30 1065 C 103.9 -0.600401 1.59151 0
M  V30 1066 O 105.085 -0.523124 1.87022 0
M  V30 1067 C 102.215 -0.528416 3.43257 0
M  V30 1068 C 101.169 0.27056 4.27144 0
M  V30 1069 C 100.495 -0.675881 5.30411 0
M  V30 1070 C 101.795 1.48981 5.00602 0
M  V30 1071 H 103.489 1.11681 2.77791 0
M  V30 1072 H 101.035 0.538478 1.33553 0
M  V30 1073 H 102.988 -0.922674 4.11175 0
M  V30 1074 H 101.712 -1.38445 2.95805 0
M  V30 1075 H 100.371 0.646427 3.60856 0
M  V30 1076 H 100.019 -1.52842 4.79216 0
M  V30 1077 H 99.7189 -0.145374 5.8742 0
M  V30 1078 H 101.243 -1.06757 6.01195 0
M  V30 1079 H 102.657 1.16849 5.61266 0
M  V30 1080 H 101.054 1.95739 5.6728 0
M  V30 1081 H 102.124 2.25746 4.29147 0
M  V30 1082 N 103.467 -1.45747 0.599634 0
M  V30 1083 C 104.399 -2.28628 -0.161879 0
M  V30 1084 C 105.412 -1.39494 -0.839367 0
M  V30 1085 O 106.601 -1.63941 -0.706089 0
M  V30 1086 C 103.701 -3.15014 -1.24976 0
M  V30 1087 C 102.874 -4.32378 -0.660935 0
M  V30 1088 C 101.933 -5.00033 -1.63869 0
M  V30 1089 O 100.959 -5.57085 -1.1681 0
M  V30 1090 N 102.161 -4.98589 -2.97303 0
M  V30 1091 H 104.926 -2.94624 0.549265 0
M  V30 1092 H 102.487 -1.55847 0.438565 0
M  V30 1093 H 104.479 -3.5714 -1.9035 0
M  V30 1094 H 103.049 -2.5098 -1.86354 0
M  V30 1095 H 102.269 -3.9383 0.170688 0
M  V30 1096 H 103.557 -5.08197 -0.247619 0
M  V30 1097 H 102.955 -4.53514 -3.38145 0
M  V30 1098 H 101.512 -5.44603 -3.58121 0
M  V30 1099 N 104.945 -0.338344 -1.53925 0
M  V30 1100 C 106.356 0.146651 -1.86123 0
M  V30 1101 C 106.707 1.5042 -1.2597 0
M  V30 1102 O 105.832 2.08723 -0.571294 0
M  V30 1103 C 106.427 0.272879 -3.37699 0
M  V30 1104 C 104.986 0.702103 -3.69794 0
M  V30 1105 C 104.133 -0.167304 -2.76795 0
M  V30 1106 H 107.084 -0.558123 -1.48562 0
M  V30 1107 H 107.105 1.10128 -3.64214 0
M  V30 1108 H 106.617 -0.715307 -3.81451 0
M  V30 1109 H 104.718 1.6995 -3.31584 0
M  V30 1110 H 104.831 0.495604 -4.7653 0
M  V30 1111 H 103.195 0.359527 -2.5215 0
M  V30 1112 H 103.978 -1.15253 -3.23375 0
M  V30 1113 N 106.423 1.57458 -0.0668435 0
M  V30 1114 C 107.353 2.15468 0.899764 0
M  V30 1115 C 108.334 1.08042 1.31381 0
M  V30 1116 O 109.519 1.36054 1.38574 0
M  V30 1117 C 106.649 2.71232 2.16911 0
M  V30 1118 C 105.603 3.83781 1.89463 0
M  V30 1119 C 104.929 4.26127 3.22986 0
M  V30 1120 C 106.229 5.08238 1.20381 0
M  V30 1121 H 107.923 2.96488 0.416529 0
M  V30 1122 H 105.469 1.4262 0.198908 0
M  V30 1123 H 107.422 3.10458 2.84945 0
M  V30 1124 H 106.146 1.87426 2.67468 0
M  V30 1125 H 104.805 3.45051 1.23836 0
M  V30 1126 H 104.453 3.39249 3.71374 0
M  V30 1127 H 104.153 5.01993 3.05413 0
M  V30 1128 H 105.677 4.67966 3.92225 0
M  V30 1129 H 107.091 5.44811 1.78475 0
M  V30 1130 H 105.488 5.89349 1.13083 0
M  V30 1131 H 106.558 4.84558 0.182153 0
M  V30 1132 N 107.901 -0.206675 1.56239 0
M  V30 1133 C 109.317 -0.557025 1.49564 0
M  V30 1134 C 109.517 -1.86424 0.764735 0
M  V30 1135 O 108.573 -2.50584 0.310491 0
M  V30 1136 C 109.886 -0.622478 2.94186 0
M  V30 1137 C 111.434 -0.712099 3.04792 0
M  V30 1138 C 111.909 -0.808767 4.50803 0
M  V30 1139 N 113.4 -0.8726 4.54907 0
M  V30 1140 C 114.135 -0.967365 5.65181 0
M  V30 1141 N 113.631 -1.02515 6.85173 0
M  V30 1142 N 115.424 -1.00366 5.53067 0
M  V30 1143 H 107.575 0.650943 2.02179 0
M  V30 1144 H 109.838 0.230387 0.919579 0
M  V30 1145 H 109.544 0.268727 3.50672 0
M  V30 1146 H 109.418 -1.4811 3.46905 0
M  V30 1147 H 111.805 -1.59374 2.48363 0
M  V30 1148 H 111.886 0.172489 2.55218 0
M  V30 1149 H 111.53 0.0684754 5.07854 0
M  V30 1150 H 111.46 -1.70899 4.98098 0
M  V30 1151 H 113.951 -0.837657 3.68499 0
M  V30 1152 H 114.264 -1.09765 7.64965 0
M  V30 1153 H 112.609 -0.994026 6.87855 0
M  V30 1154 H 115.8 -0.95527 4.58249 0
M  V30 1155 H 115.973 -1.07405 6.39037 0
M  V30 1156 N 109.379 -1.50304 -0.473955 0
M  V30 1157 C 110.795 -1.37667 -0.807466 0
M  V30 1158 C 110.995 -0.430555 -1.96846 0
M  V30 1159 O 110.051 0.127874 -2.52176 0
M  V30 1160 C 111.364 -2.78974 -1.12223 0
M  V30 1161 C 112.912 -2.87868 -1.22885 0
M  V30 1162 C 113.387 -4.30003 -1.57676 0
M  V30 1163 N 114.878 -4.3294 -1.64673 0
M  V30 1164 C 115.613 -5.3991 -1.93091 0
M  V30 1165 N 115.109 -6.57092 -2.1955 0
M  V30 1166 N 116.902 -5.27351 -1.94569 0
M  V30 1167 H 109.053 -2.10394 0.291212 0
M  V30 1168 H 111.316 -0.945575 0.0677609 0
M  V30 1169 H 111.022 -3.50031 -0.342229 0
M  V30 1170 H 110.896 -3.16038 -2.05913 0
M  V30 1171 H 113.283 -2.17032 -1.99953 0
M  V30 1172 H 113.364 -2.54352 -0.271814 0
M  V30 1173 H 113.008 -5.01375 -0.81149 0
M  V30 1174 H 112.938 -4.61004 -2.54525 0
M  V30 1175 H 115.429 -3.48441 -1.46277 0
M  V30 1176 H 115.742 -7.34425 -2.405 0
M  V30 1177 H 114.087 -6.60272 -2.16948 0
M  V30 1178 H 117.278 -4.34801 -1.73394 0
M  V30 1179 H 117.451 -6.10805 -2.16381 0
M  V30 1180 N 110.857 0.726932 -1.39834 0
M  V30 1181 C 112.104 1.48664 -1.37496 0
M  V30 1182 C 112.432 1.94482 0.0264678 0
M  V30 1183 O 111.687 1.67692 1.00886 0
M  V30 1184 C 111.986 2.73495 -2.30077 0
M  V30 1185 C 111.652 2.46502 -3.77555 0
M  V30 1186 C 110.314 2.3885 -4.17737 0
M  V30 1187 C 112.666 2.23604 -4.70798 0
M  V30 1188 C 109.994 2.06352 -5.49214 0
M  V30 1189 C 112.346 1.92622 -6.02561 0
M  V30 1190 C 111.01 1.83444 -6.41798 0
M  V30 1191 H 110.28 0.544001 -0.503135 0
M  V30 1192 H 112.927 0.833657 -1.72402 0
M  V30 1193 H 111.232 3.43575 -1.88317 0
M  V30 1194 H 112.929 3.31549 -2.25558 0
M  V30 1195 H 109.519 2.5334 -3.45712 0
M  V30 1196 H 113.703 2.28479 -4.40581 0
M  V30 1197 H 108.959 1.97776 -5.78528 0
M  V30 1198 H 113.133 1.73914 -6.74334 0
M  V30 1199 H 110.76 1.58029 -7.43593 0
M  V30 1200 N 112.336 1.25143 0.95797 0
M  V30 1201 C 113.747 1.08851 1.51685 0
M  V30 1202 C 114.098 -0.33687 1.93286 0
M  V30 1203 O 113.223 -1.22644 1.7829 0
M  V30 1204 C 113.818 1.96978 2.75654 0
M  V30 1205 C 112.377 1.84881 3.27866 0
M  V30 1206 C 111.524 1.91329 2.0072 0
M  V30 1207 H 114.475 1.38478 0.77522 0
M  V30 1208 H 114.496 1.5078 3.4935 0
M  V30 1209 H 114.008 3.00712 2.45345 0
M  V30 1210 H 112.109 0.840182 3.63004 0
M  V30 1211 H 112.222 2.6951 3.96107 0
M  V30 1212 H 110.586 1.35174 2.15871 0
M  V30 1213 H 111.369 2.96661 1.72764 0
M  V30 1214 N 113.814 -1.1601 1.06675 0
M  V30 1215 C 114.744 -2.22688 0.702307 0
M  V30 1216 C 115.725 -1.67306 -0.307032 0
M  V30 1217 O 116.91 -1.93352 -0.181305 0
M  V30 1218 C 114.04 -3.47178 0.092038 0
M  V30 1219 C 112.994 -4.15477 1.02777 0
M  V30 1220 C 112.32 -5.33963 0.28061 0
M  V30 1221 C 113.62 -4.66019 2.35846 0
M  V30 1222 H 115.314 -2.53429 1.59419 0
M  V30 1223 H 112.86 -1.21813 0.767961 0
M  V30 1224 H 114.813 -4.21037 -0.174814 0
M  V30 1225 H 113.537 -3.15749 -0.834877 0
M  V30 1226 H 112.196 -3.43549 1.27944 0
M  V30 1227 H 111.844 -4.98788 -0.649545 0
M  V30 1228 H 111.544 -5.806 0.904258 0
M  V30 1229 H 113.068 -6.10596 0.021396 0
M  V30 1230 H 114.482 -5.3144 2.15045 0
M  V30 1231 H 112.879 -5.23293 2.93743 0
M  V30 1232 H 113.949 -3.82023 2.98641 0
M  V30 1233 N 115.292 -0.849877 -1.32721 0
M  V30 1234 C 116.569 -0.372405 -1.92022 0
M  V30 1235 C 116.949 1.1435 -1.77447 0
M  V30 1236 O 116.297 1.96296 -1.16962 0
M  V30 1237 C 116.507 -0.831482 -3.3895 0
M  V30 1238 C 117.855 -0.845882 -4.16089 0
M  V30 1239 O 118.879 -0.775806 -3.47649 0
M  V30 1240 O 117.738 -0.943753 -5.38289 0
M  V30 1241 H 114.832 -0.107667 -0.819961 0
M  V30 1242 H 117.378 -0.93646 -1.41522 0
M  V30 1243 H 116.15 -1.87448 -3.4348 0
M  V30 1244 H 115.773 -0.24461 -3.96847 0
M  V30 1245 N 116.77 1.45427 -0.607355 0
M  V30 1246 C 117.733 2.28974 0.101693 0
M  V30 1247 C 118.733 1.39754 0.795329 0
M  V30 1248 O 119.923 1.61878 0.643527 0
M  V30 1249 C 117.055 3.20768 1.15414 0
M  V30 1250 H 118.248 2.93147 -0.632844 0
M  V30 1251 H 115.801 1.51945 -0.366391 0
M  V30 1252 H 116.536 2.61395 1.91945 0
M  V30 1253 H 116.321 3.86489 0.66098 0
M  V30 1254 H 117.811 3.83589 1.65073 0
M  V30 1255 N 118.248 0.346503 1.53744 0
M  V30 1256 C 119.211 -0.496439 2.23759 0
M  V30 1257 C 120.211 -1.0252 1.2388 0
M  V30 1258 O 121.401 -0.913974 1.48297 0
M  V30 1259 C 118.533 -1.69187 2.95954 0
M  V30 1260 H 119.726 0.115952 2.99676 0
M  V30 1261 H 117.279 0.0978939 1.55993 0
M  V30 1262 H 118.014 -2.34288 2.24231 0
M  V30 1263 H 117.799 -1.31989 3.69217 0
M  V30 1264 H 119.289 -2.28969 3.49232 0
M  V30 1265 N 119.726 -1.57421 0.075193 0
M  V30 1266 C 120.975 -1.92794 -0.592731 0
M  V30 1267 C 121.288 -0.957478 -1.70563 0
M  V30 1268 O 122.494 -1.20417 -2.43335 0
M  V30 1269 C 120.95 -3.42495 -1.10569 0
M  V30 1270 C 120.558 -4.47994 -0.0236121 0
M  V30 1271 C 122.302 -3.86864 -1.74748 0
M  V30 1272 C 120.209 -5.88829 -0.550803 0
M  V30 1273 H 119.139 -0.719591 -0.225177 0
M  V30 1274 H 121.79 -1.82902 0.147978 0
M  V30 1275 H 120.172 -3.47471 -1.89947 0
M  V30 1276 H 121.346 -4.54637 0.751099 0
M  V30 1277 H 119.661 -4.13113 0.522159 0
M  V30 1278 H 122.258 -4.8947 -2.15229 0
M  V30 1279 H 122.601 -3.24417 -2.60882 0
M  V30 1280 H 123.134 -3.84504 -1.01986 0
M  V30 1281 H 119.873 -6.54929 0.273457 0
M  V30 1282 H 119.393 -5.85698 -1.29296 0
M  V30 1283 H 121.072 -6.38811 -1.02613 0
M  V30 1284 N 121.204 0.198386 -1.56346 0
M  V30 1285 C 122.453 0.917451 -1.79627 0
M  V30 1286 C 122.766 1.8456 -0.64784 0
M  V30 1287 O 123.972 2.60504 -0.764859 0
M  V30 1288 C 122.428 1.68175 -3.18191 0
M  V30 1289 C 122.036 0.798589 -4.40825 0
M  V30 1290 C 123.78 2.39065 -3.50782 0
M  V30 1291 C 121.687 1.56157 -5.70411 0
M  V30 1292 H 120.617 0.346317 -0.669762 0
M  V30 1293 H 123.268 0.170801 -1.82703 0
M  V30 1294 H 121.65 2.47216 -3.09354 0
M  V30 1295 H 122.824 0.0470665 -4.60776 0
M  V30 1296 H 121.139 0.200686 -4.15916 0
M  V30 1297 H 123.736 2.96692 -4.44835 0
M  V30 1298 H 124.079 3.13091 -2.74371 0
M  V30 1299 H 124.612 1.66993 -3.61052 0
M  V30 1300 H 121.351 0.864142 -6.49779 0
M  V30 1301 H 120.871 2.2871 -5.54483 0
M  V30 1302 H 122.55 2.11622 -6.11412 0
M  V30 1303 N 122.682 1.50554 0.465978 0
M  V30 1304 C 123.929 1.61798 1.21768 0
M  V30 1305 C 124.257 0.320696 1.91838 0
M  V30 1306 O 123.512 -0.693724 1.82992 0
M  V30 1307 C 123.811 2.75152 2.28093 0
M  V30 1308 C 123.477 4.15454 1.75239 0
M  V30 1309 C 122.139 4.53628 1.60546 0
M  V30 1310 C 124.491 5.03121 1.36083 0
M  V30 1311 C 121.819 5.77204 1.05128 0
M  V30 1312 C 124.171 6.27249 0.821056 0
M  V30 1313 C 122.835 6.64221 0.660795 0
M  V30 1314 H 122.105 0.592063 0.445582 0
M  V30 1315 H 124.752 1.84503 0.512927 0
M  V30 1316 H 123.057 2.46556 3.04496 0
M  V30 1317 H 124.754 2.81055 2.86023 0
M  V30 1318 H 121.344 3.85341 1.87644 0
M  V30 1319 H 125.528 4.74257 1.46267 0
M  V30 1320 H 120.784 6.0452 0.91462 0
M  V30 1321 H 124.958 6.94537 0.509018 0
M  V30 1322 H 122.585 7.59854 0.229226 0
M  V30 1323 N 124.16 -0.719506 1.40217 0
M  V30 1324 C 125.385 -1.51371 1.4178 0
M  V30 1325 C 125.81 -1.88091 0.0182355 0
M  V30 1326 O 125.168 -1.52997 -0.972707 0
M  V30 1327 C 125.216 -2.768 2.31115 0
M  V30 1328 O 124.32 -3.73349 1.7517 0
M  V30 1329 H 123.661 -0.456529 0.482159 0
M  V30 1330 H 126.191 -0.88644 1.844 0
M  V30 1331 H 126.201 -3.25371 2.46167 0
M  V30 1332 H 124.876 -2.49407 3.3282 0
M  V30 1333 H 123.453 -3.32179 1.69444 0
M  V30 1334 N 125.638 -1.25649 -0.95132 0
M  V30 1335 C 126.915 -1.01361 -1.67288 0
M  V30 1336 C 127.295 0.459135 -2.06046 0
M  V30 1337 O 126.643 1.43723 -1.7764 0
M  V30 1338 C 126.853 -1.95256 -2.89268 0
M  V30 1339 C 128.201 -2.23289 -3.61147 0
M  V30 1340 O 129.225 -1.93041 -2.99355 0
M  V30 1341 O 128.084 -2.74741 -4.72419 0
M  V30 1342 H 125.178 -0.38464 -0.732107 0
M  V30 1343 H 127.724 -1.36817 -1.00395 0
M  V30 1344 H 126.496 -2.94685 -2.57442 0
M  V30 1345 H 126.119 -1.60218 -3.6389 0
M  V30 1346 N 127.117 1.15442 -1.07289 0
M  V30 1347 C 128.366 1.85557 -0.790669 0
M  V30 1348 C 128.679 1.83186 0.685739 0
M  V30 1349 O 129.885 2.48977 1.0827 0
M  V30 1350 C 128.341 3.33038 -1.36433 0
M  V30 1351 C 127.949 3.43856 -2.8717 0
M  V30 1352 C 129.693 4.0834 -1.1601 0
M  V30 1353 C 127.6 4.85482 -3.3773 0
M  V30 1354 H 126.53 0.695122 -0.292098 0
M  V30 1355 H 129.181 1.30219 -1.29287 0
M  V30 1356 H 127.563 3.88043 -0.789864 0
M  V30 1357 H 128.737 2.98961 -3.50655 0
M  V30 1358 H 127.052 2.81998 -3.06376 0
M  V30 1359 H 129.649 5.12859 -1.51262 0
M  V30 1360 H 129.992 4.16182 -0.0991007 0
M  V30 1361 H 130.525 3.59603 -1.70089 0
M  V30 1362 H 127.264 4.82823 -4.43353 0
M  V30 1363 H 126.784 5.30961 -2.78999 0
M  V30 1364 H 128.463 5.54335 -3.33648 0
M  V30 1365 N 128.595 0.856903 1.32268 0
M  V30 1366 C 129.525 0.31858 2.31316 0
M  V30 1367 C 130.506 -0.583487 1.59779 0
M  V30 1368 O 131.691 -0.503259 1.87566 0
M  V30 1369 C 128.821 -0.491979 3.43798 0
M  V30 1370 C 127.775 0.315849 4.26833 0
M  V30 1371 C 127.101 -0.619586 5.31098 0
M  V30 1372 C 128.401 1.54282 4.98993 0
M  V30 1373 H 130.095 1.14621 2.76591 0
M  V30 1374 H 127.641 0.552613 1.32974 0
M  V30 1375 H 129.594 -0.879012 4.1213 0
M  V30 1376 H 128.318 -1.35299 2.97257 0
M  V30 1377 H 126.977 0.684664 3.6015 0
M  V30 1378 H 126.625 -1.47751 4.8081 0
M  V30 1379 H 126.325 -0.0830621 5.87541 0
M  V30 1380 H 127.849 -1.00375 6.02293 0
M  V30 1381 H 129.263 1.22796 5.59995 0
M  V30 1382 H 127.66 2.01745 5.65172 0
M  V30 1383 H 128.73 2.30285 4.26728 0
M  V30 1384 N 130.073 -1.45103 0.615059 0
M  V30 1385 C 131.319 -2.02483 0.113347 0
M  V30 1386 C 131.652 -1.48146 -1.25564 0
M  V30 1387 O 130.927 -0.659104 -1.82992 0
M  V30 1388 C 131.21 -3.60005 0.0825278 0
M  V30 1389 C 131.063 -4.2466 1.48271 0
M  V30 1390 C 132.382 -4.35972 -0.601401 0
M  V30 1391 H 129.501 -0.735764 0.0426632 0
M  V30 1392 H 132.143 -1.72868 0.788461 0
M  V30 1393 H 130.293 -3.85367 -0.492378 0
M  V30 1394 H 131.965 -4.10458 2.10527 0
M  V30 1395 H 130.208 -3.82772 2.04127 0
M  V30 1396 H 130.879 -5.336 1.41332 0
M  V30 1397 H 133.355 -4.15947 -0.112666 0
M  V30 1398 H 132.231 -5.45697 -0.592097 0
M  V30 1399 H 132.492 -4.09391 -1.66887 0
M  V30 1400 N 131.551 -0.354651 -1.53558 0
M  V30 1401 C 132.797 0.238797 -2.01389 0
M  V30 1402 C 133.13 1.49309 -1.2418 0
M  V30 1403 O 132.405 1.91638 -0.332457 0
M  V30 1404 C 132.688 0.541771 -3.56001 0
M  V30 1405 C 132.541 -0.725388 -4.43912 0
M  V30 1406 C 133.86 1.34685 -4.18984 0
M  V30 1407 H 130.979 0.0853177 -0.732045 0
M  V30 1408 H 133.621 -0.477384 -1.83905 0
M  V30 1409 H 131.771 1.15189 -3.71031 0
M  V30 1410 H 133.443 -1.36313 -4.407 0
M  V30 1411 H 131.686 -1.34801 -4.12324 0
M  V30 1412 H 132.357 -0.468505 -5.50008 0
M  V30 1413 H 134.833 0.830837 -4.07721 0
M  V30 1414 H 133.709 1.52759 -5.27215 0
M  V30 1415 H 133.97 2.35221 -3.74331 0
M  V30 1416 N 133.029 1.57378 -0.0835403 0
M  V30 1417 C 134.44 1.81261 0.447358 0
M  V30 1418 C 134.791 0.998331 1.68902 0
M  V30 1419 O 133.916 0.224282 2.15235 0
M  V30 1420 C 134.511 3.28767 0.818386 0
M  V30 1421 C 133.07 3.53455 1.29409 0
M  V30 1422 C 132.217 2.75831 0.285024 0
M  V30 1423 H 135.168 1.5566 -0.309115 0
M  V30 1424 H 135.189 3.41459 1.67887 0
M  V30 1425 H 134.701 3.88006 -0.0855019 0
M  V30 1426 H 132.802 2.99534 2.21608 0
M  V30 1427 H 132.915 4.62128 1.2639 0
M  V30 1428 H 131.279 2.42947 0.764767 0
M  V30 1429 H 132.062 3.37813 -0.611341 0
M  V30 1430 N 134.507 -0.190092 1.56449 0
M  V30 1431 C 135.439 -1.25973 1.91477 0
M  V30 1432 C 136.452 -1.41452 0.805931 0
M  V30 1433 O 137.641 -1.41789 1.08435 0
M  V30 1434 C 134.741 -2.63117 2.13594 0
M  V30 1435 C 133.914 -2.69182 3.4476 0
M  V30 1436 C 132.973 -3.87557 3.5593 0
M  V30 1437 O 131.999 -3.74427 4.28711 0
M  V30 1438 N 133.201 -5.03224 2.89388 0
M  V30 1439 H 135.966 -0.962394 2.83828 0
M  V30 1440 H 133.527 -0.379981 1.57378 0
M  V30 1441 H 135.519 -3.40742 2.1835 0
M  V30 1442 H 134.089 -2.85319 1.27719 0
M  V30 1443 H 133.309 -1.77793 3.51828 0
M  V30 1444 H 134.597 -2.70229 4.31107 0
M  V30 1445 H 133.995 -5.16791 2.30094 0
M  V30 1446 H 132.552 -5.78778 2.99764 0
M  V30 1447 N 135.985 -1.50799 -0.457987 0
M  V30 1448 C 136.948 -1.7005 -1.53674 0
M  V30 1449 C 137.948 -0.570881 -1.50325 0
M  V30 1450 O 139.138 -0.838126 -1.52712 0
M  V30 1451 C 136.27 -1.73788 -2.93276 0
M  V30 1452 H 137.463 -2.66306 -1.37917 0
M  V30 1453 H 135.016 -1.40477 -0.685271 0
M  V30 1454 H 135.751 -0.792717 -3.14462 0
M  V30 1455 H 135.536 -2.55864 -2.97113 0
M  V30 1456 H 137.026 -1.90591 -3.71571 0
M  V30 1457 N 137.463 0.71206 -1.40597 0
M  V30 1458 C 138.393 1.83889 -1.43899 0
M  V30 1459 C 139.374 1.67442 -0.299504 0
M  V30 1460 O 140.559 1.87421 -0.508624 0
M  V30 1461 C 137.689 3.21877 -1.30431 0
M  V30 1462 C 136.643 3.53002 -2.42019 0
M  V30 1463 C 135.969 4.90172 -2.13626 0
M  V30 1464 C 137.269 3.53643 -3.84362 0
M  V30 1465 H 138.963 1.81383 -2.38203 0
M  V30 1466 H 136.509 0.871237 -1.14654 0
M  V30 1467 H 138.462 4.00404 -1.31357 0
M  V30 1468 H 137.186 3.24968 -0.326049 0
M  V30 1469 H 135.845 2.76818 -2.40349 0
M  V30 1470 H 135.493 4.89869 -1.14182 0
M  V30 1471 H 135.193 5.11962 -2.88389 0
M  V30 1472 H 136.717 5.71028 -2.1624 0
M  V30 1473 H 138.131 4.22203 -3.87837 0
M  V30 1474 H 136.528 3.86961 -4.58673 0
M  V30 1475 H 137.598 2.52954 -4.13693 0
M  V30 1476 N 138.941 1.26152 0.944643 0
M  V30 1477 C 140.189 1.11271 1.6871 0
M  V30 1478 C 140.51 -0.345166 1.91921 0
M  V30 1479 O 139.78 -1.24387 1.51343 0
M  V30 1480 H 138.36 0.408783 0.625224 0
M  V30 1481 H 141.022 1.58427 1.1352 0
M  V30 1482 H 140.118 1.62879 2.66227 0
M  V30 1483 N 140.419 -1.14872 1.07899 0
M  V30 1484 C 141.352 -2.18794 0.64841 0
M  V30 1485 C 142.33 -1.59065 -0.337189 0
M  V30 1486 O 143.514 -1.86936 -0.242284 0
M  V30 1487 C 140.641 -3.38667 -0.0470417 0
M  V30 1488 C 139.687 -4.16942 0.897884 0
M  V30 1489 S 140.52 -4.78615 2.40183 0
M  V30 1490 C 141.676 -6.0185 1.71834 0
M  V30 1491 H 141.909 -2.5498 1.52881 0
M  V30 1492 H 139.442 -1.25922 0.893484 0
M  V30 1493 H 141.4 -4.08113 -0.442027 0
M  V30 1494 H 140.061 -3.00814 -0.903861 0
M  V30 1495 H 139.254 -5.02726 0.358096 0
M  V30 1496 H 138.856 -3.53073 1.23352 0
M  V30 1497 H 141.148 -6.69574 1.03328 0
M  V30 1498 H 142.091 -6.60408 2.55473 0
M  V30 1499 H 142.499 -5.5173 1.19392 0
M  V30 1500 N 141.898 -0.863906 -1.31812 0
M  V30 1501 C 142.808 -0.318461 -2.32428 0
M  V30 1502 C 143.824 0.568496 -1.64451 0
M  V30 1503 O 145 0.46666 -1.95919 0
M  V30 1504 C 142.065 0.476355 -3.43412 0
M  V30 1505 C 141.126 -0.43784 -4.27061 0
M  V30 1506 C 140.359 0.319138 -5.32745 0
M  V30 1507 O 140.582 1.54799 -5.48993 0
M  V30 1508 O 139.516 -0.319861 -6.01049 0
M  V30 1509 H 143.342 -1.15229 -2.80991 0
M  V30 1510 H 140.927 -0.627103 -1.35602 0
M  V30 1511 H 142.809 0.927156 -4.11074 0
M  V30 1512 H 141.484 1.28683 -2.97022 0
M  V30 1513 H 140.391 -0.937013 -3.62175 0
M  V30 1514 H 141.724 -1.21375 -4.77 0
M  V30 1515 N 143.376 1.44774 -0.622745 0
M  V30 1516 C 144.622 2.0242 -0.124083 0
M  V30 1517 C 144.955 1.4881 1.24777 0
M  V30 1518 O 144.23 0.668799 1.8264 0
M  V30 1519 C 144.513 3.59957 -0.101619 0
M  V30 1520 C 144.366 4.23867 -1.50521 0
M  V30 1521 C 145.685 4.36284 0.578272 0
M  V30 1522 H 142.804 0.735528 -0.0465645 0
M  V30 1523 H 145.446 1.72447 -0.797617 0
M  V30 1524 H 143.596 3.85623 0.471934 0
M  V30 1525 H 145.268 4.09336 -2.12701 0
M  V30 1526 H 143.511 3.81684 -2.06154 0
M  V30 1527 H 144.182 5.32843 -1.4416 0
M  V30 1528 H 146.658 4.16001 0.0906057 0
M  V30 1529 H 145.534 5.46004 0.563149 0
M  V30 1530 H 145.795 4.10271 1.64713 0
M  V30 1531 N 144.854 0.36279 1.53368 0
M  V30 1532 C 146.082 -0.228613 2.05633 0
M  V30 1533 C 146.497 -1.42676 1.23649 0
M  V30 1534 O 145.854 -1.80394 0.27647 0
M  V30 1535 C 145.905 -0.624845 3.56059 0
M  V30 1536 O 145.626 0.525675 4.34935 0
M  V30 1537 C 147.127 -1.27493 4.24571 0
M  V30 1538 H 144.347 -0.0407183 0.669763 0
M  V30 1539 H 146.891 0.520352 1.97769 0
M  V30 1540 H 145.046 -1.32373 3.64083 0
M  V30 1541 H 145.46 0.205969 5.24095 0
M  V30 1542 H 146.934 -1.50277 5.31151 0
M  V30 1543 H 147.411 -2.23439 3.78116 0
M  V30 1544 H 148.017 -0.617558 4.20792 0
M  V30 1545 N 146.332 -1.57332 0.0918853 0
M  V30 1546 C 147.265 -2.09499 -0.904735 0
M  V30 1547 C 148.243 -1.00479 -1.27839 0
M  V30 1548 O 149.427 -1.27954 -1.38419 0
M  V30 1549 C 146.554 -2.56931 -2.2069 0
M  V30 1550 C 145.6 -3.77579 -1.98334 0
M  V30 1551 S 146.433 -5.21317 -1.22428 0
M  V30 1552 C 147.589 -5.72097 -2.53882 0
M  V30 1553 H 147.822 -2.93705 -0.460922 0
M  V30 1554 H 145.355 -1.53923 -0.121332 0
M  V30 1555 H 147.313 -2.84917 -2.95521 0
M  V30 1556 H 145.974 -1.72956 -2.62192 0
M  V30 1557 H 145.167 -4.08824 -2.94752 0
M  V30 1558 H 144.769 -3.5007 -1.31633 0
M  V30 1559 H 147.061 -5.80168 -3.49874 0
M  V30 1560 H 148.004 -6.70654 -2.27219 0
M  V30 1561 H 148.412 -5.00012 -2.62007 0
M  V30 1562 N 147.81 0.181792 -1.56548 0
M  V30 1563 C 149.056 0.901431 -1.81665 0
M  V30 1564 C 149.389 1.82347 -0.668075 0
M  V30 1565 O 148.664 1.91669 0.330615 0
M  V30 1566 C 148.947 1.70618 -3.17115 0
M  V30 1567 C 148.8 0.807964 -4.42484 0
M  V30 1568 C 150.119 2.67605 -3.49393 0
M  V30 1569 H 147.238 0.32627 -0.660846 0
M  V30 1570 H 149.88 0.168134 -1.89255 0
M  V30 1571 H 148.03 2.33133 -3.10775 0
M  V30 1572 H 149.702 0.19649 -4.60881 0
M  V30 1573 H 147.945 0.115411 -4.33646 0
M  V30 1574 H 148.616 1.40632 -5.33785 0
M  V30 1575 H 151.092 2.15218 -3.56118 0
M  V30 1576 H 149.968 3.20985 -4.45264 0
M  V30 1577 H 150.229 3.47298 -2.73563 0
M  V30 1578 N 149.288 1.51039 0.449983 0
M  V30 1579 C 150.699 1.557 1.03026 0
M  V30 1580 C 151.05 0.372939 1.92623 0
M  V30 1581 O 150.175 -0.511771 2.10261 0
M  V30 1582 C 150.77 2.82171 1.87523 0
M  V30 1583 C 149.329 2.89444 2.40622 0
M  V30 1584 C 148.476 2.50228 1.19504 0
M  V30 1585 H 151.427 1.56999 0.231745 0
M  V30 1586 H 151.448 2.65219 2.72835 0
M  V30 1587 H 150.96 3.68331 1.22286 0
M  V30 1588 H 149.061 2.07685 3.0935 0
M  V30 1589 H 149.174 3.92816 2.74285 0
M  V30 1590 H 147.538 2.03139 1.53644 0
M  V30 1591 H 148.321 3.38719 0.558972 0
M  V30 1592 N 150.766 -0.704594 1.40972 0
M  V30 1593 C 152.014 -1.46169 1.39568 0
M  V30 1594 C 152.335 -1.95 0.00253745 0
M  V30 1595 O 151.605 -1.71095 -0.954114 0
M  V30 1596 H 150.185 -0.542326 0.513704 0
M  V30 1597 H 152.847 -0.834553 1.76128 0
M  V30 1598 H 151.943 -2.32922 2.07735 0
M  V30 1599 N 152.244 -1.26651 -0.937939 0
M  V30 1600 C 153.191 -1.0849 -2.03712 0
M  V30 1601 C 154.161 0.011033 -1.66096 0
M  V30 1602 O 155.346 -0.149353 -1.90215 0
M  V30 1603 C 152.486 -0.72735 -3.37348 0
M  V30 1604 C 151.599 -1.89986 -3.87981 0
M  V30 1605 C 150.734 -1.48513 -5.10017 0
M  V30 1606 C 149.773 -2.62575 -5.5292 0
M  V30 1607 N 148.91 -2.21762 -6.66158 0
M  V30 1608 H 153.75 -2.02551 -2.18579 0
M  V30 1609 H 151.287 -1.00844 -1.07093 0
M  V30 1610 H 153.245 -0.50092 -4.14182 0
M  V30 1611 H 151.875 0.176298 -3.22318 0
M  V30 1612 H 150.927 -2.23913 -3.07518 0
M  V30 1613 H 152.239 -2.75586 -4.15757 0
M  V30 1614 H 151.393 -1.21934 -5.94321 0
M  V30 1615 H 150.132 -0.60009 -4.83994 0
M  V30 1616 H 149.137 -2.8988 -4.67172 0
M  V30 1617 H 150.362 -3.51685 -5.80943 0
M  V30 1618 H 148.308 -1.35696 -6.41812 0
M  V30 1619 H 148.225 -3.00903 -6.93537 0
M  V30 1620 H 149.493 -1.98403 -7.53828 0
M  V30 1621 N 153.722 1.14298 -1.08507 0
M  V30 1622 C 154.97 1.84993 -0.813763 0
M  V30 1623 C 155.291 1.83405 0.662393 0
M  V30 1624 O 154.561 1.28319 1.48024 0
M  V30 1625 H 153.141 0.684966 -0.298045 0
M  V30 1626 H 155.803 1.385 -1.37126 0
M  V30 1627 H 154.899 2.89788 -1.15884 0
M  V30 1628 N 155.201 0.870884 1.31352 0
M  V30 1629 C 156.612 0.534714 1.78879 0
M  V30 1630 C 156.963 -0.948423 1.71754 0
M  V30 1631 O 156.088 -1.74055 1.28584 0
M  V30 1632 C 156.683 0.963839 3.24801 0
M  V30 1633 C 155.242 0.679311 3.70219 0
M  V30 1634 C 154.389 1.15465 2.52117 0
M  V30 1635 H 157.34 1.05651 1.18421 0
M  V30 1636 H 157.361 0.286892 3.79417 0
M  V30 1637 H 156.873 2.04332 3.29955 0
M  V30 1638 H 154.974 -0.388769 3.70566 0
M  V30 1639 H 155.087 1.25698 4.62317 0
M  V30 1640 H 153.451 0.574383 2.48139 0
M  V30 1641 H 154.234 2.24157 2.60016 0
M  V30 1642 N 156.679 -1.44442 0.630414 0
M  V30 1643 C 157.904 -2.06927 0.139944 0
M  V30 1644 C 158.329 -1.46795 -1.17613 0
M  V30 1645 O 157.687 -0.569144 -1.72135 0
M  V30 1646 C 157.735 -3.6058 0.0379581 0
M  V30 1647 O 156.839 -3.99937 -1.0062 0
M  V30 1648 H 156.18 -0.658608 0.0844483 0
M  V30 1649 H 158.71 -1.85327 0.866891 0
M  V30 1650 H 158.72 -4.07714 -0.152856 0
M  V30 1651 H 157.395 -4.03728 0.998809 0
M  V30 1652 H 155.972 -3.64436 -0.79001 0
M  V30 1653 N 158.157 -0.370918 -1.53173 0
M  V30 1654 C 159.404 0.217102 -2.01333 0
M  V30 1655 C 159.732 1.48338 -1.25802 0
M  V30 1656 O 158.987 1.92698 -0.34146 0
M  V30 1657 C 159.286 0.549696 -3.53147 0
M  V30 1658 C 158.952 -0.622872 -4.46577 0
M  V30 1659 C 157.614 -0.944595 -4.71838 0
M  V30 1660 C 159.966 -1.40819 -5.01816 0
M  V30 1661 C 157.294 -2.05351 -5.49589 0
M  V30 1662 C 159.646 -2.50757 -5.80778 0
M  V30 1663 C 158.31 -2.83458 -6.04324 0
M  V30 1664 H 157.58 0.0794431 -0.736729 0
M  V30 1665 H 160.227 -0.504481 -1.84736 0
M  V30 1666 H 158.532 1.35237 -3.6772 0
M  V30 1667 H 160.229 1.017 -3.87889 0
M  V30 1668 H 156.819 -0.36209 -4.27068 0
M  V30 1669 H 161.003 -1.17289 -4.82242 0
M  V30 1670 H 156.259 -2.3108 -5.6605 0
M  V30 1671 H 160.433 -3.12022 -6.22588 0
M  V30 1672 H 158.06 -3.69508 -6.64355 0
M  V30 1673 N 159.635 1.57281 -0.100228 0
M  V30 1674 C 161.046 1.81725 0.428107 0
M  V30 1675 C 161.397 1.01619 1.67833 0
M  V30 1676 O 160.522 0.247098 2.14985 0
M  V30 1677 C 161.117 3.29617 0.78347 0
M  V30 1678 C 159.676 3.54808 1.25653 0
M  V30 1679 C 158.823 2.76118 0.255752 0
M  V30 1680 H 161.774 1.55324 -0.325608 0
M  V30 1681 H 161.795 3.4322 1.64256 0
M  V30 1682 H 161.307 3.87893 -0.12665 0
M  V30 1683 H 159.408 3.01868 2.18418 0
M  V30 1684 H 159.521 4.63443 1.21482 0
M  V30 1685 H 157.885 2.43745 0.738956 0
M  V30 1686 H 158.668 3.37145 -0.647136 0
M  V30 1687 N 161.113 -0.173488 1.56642 0
M  V30 1688 C 162.023 -1.23482 1.99473 0
M  V30 1689 C 163.039 -1.48567 0.905752 0
M  V30 1690 O 164.215 -1.60758 1.21321 0
M  V30 1691 C 161.28 -2.55444 2.34413 0
M  V30 1692 C 160.341 -2.38241 3.57127 0
M  V30 1693 C 159.574 -3.63909 3.90392 0
M  V30 1694 O 159.797 -4.68996 3.24653 0
M  V30 1695 O 158.731 -3.58149 4.83749 0
M  V30 1696 H 162.557 -0.901279 2.90018 0
M  V30 1697 H 160.142 -0.380185 1.44482 0
M  V30 1698 H 162.024 -3.33292 2.57865 0
M  V30 1699 H 160.699 -2.88382 1.4703 0
M  V30 1700 H 159.606 -1.58431 3.38896 0
M  V30 1701 H 160.939 -2.10228 4.45045 0
M  V30 1702 N 162.591 -1.51276 -0.441967 0
M  V30 1703 C 164.002 -1.56244 -1.02199 0
M  V30 1704 C 164.353 -0.383149 -1.92422 0
M  V30 1705 O 163.478 0.500613 -2.1053 0
M  V30 1706 C 164.073 -2.83162 -1.86024 0
M  V30 1707 C 162.632 -2.90716 -2.39084 0
M  V30 1708 C 161.779 -2.50858 -1.18175 0
M  V30 1709 H 164.73 -1.5712 -0.223416 0
M  V30 1710 H 164.751 -2.66663 -2.71425 0
M  V30 1711 H 164.263 -3.68974 -1.20331 0
M  V30 1712 H 162.364 -2.09323 -3.08244 0
M  V30 1713 H 162.477 -3.94266 -2.72198 0
M  V30 1714 H 160.841 -2.03951 -1.52565 0
M  V30 1715 H 161.624 -3.3901 -0.541001 0
M  V30 1716 N 164.069 0.697108 -1.41344 0
M  V30 1717 C 164.999 1.82353 -1.45841 0
M  V30 1718 C 165.98 1.67115 -0.317247 0
M  V30 1719 O 167.165 1.86871 -0.528474 0
M  V30 1720 C 164.295 3.20476 -1.33838 0
M  V30 1721 C 163.249 3.50415 -2.4575 0
M  V30 1722 C 162.575 4.87878 -2.18813 0
M  V30 1723 C 163.875 3.49546 -3.88091 0
M  V30 1724 H 165.569 1.78846 -2.40113 0
M  V30 1725 H 163.115 0.859028 -1.15571 0
M  V30 1726 H 165.068 3.98988 -1.35596 0
M  V30 1727 H 163.792 3.24604 -0.360498 0
M  V30 1728 H 162.451 2.74253 -2.43271 0
M  V30 1729 H 162.099 4.8863 -1.19371 0
M  V30 1730 H 161.799 5.08875 -2.93803 0
M  V30 1731 H 163.323 5.68702 -2.22284 0
M  V30 1732 H 164.737 4.18066 -3.92293 0
M  V30 1733 H 163.134 3.82075 -4.62751 0
M  V30 1734 H 164.204 2.48552 -4.16353 0
M  V30 1735 N 165.547 1.27147 0.931209 0
M  V30 1736 C 166.963 1.04475 1.20653 0
M  V30 1737 C 167.163 -0.223885 2.00252 0
M  V30 1738 O 166.219 -0.930332 2.34736 0
M  V30 1739 C 167.532 2.28209 1.95809 0
M  V30 1740 C 169.08 2.33211 2.08762 0
M  V30 1741 C 169.555 3.56665 2.87323 0
M  V30 1742 N 171.046 3.57201 2.94892 0
M  V30 1743 C 171.781 4.49395 3.56134 0
M  V30 1744 N 171.277 5.51889 4.18796 0
M  V30 1745 N 173.07 4.37026 3.53504 0
M  V30 1746 H 165.221 2.08612 0.399333 0
M  V30 1747 H 167.484 0.917312 0.239253 0
M  V30 1748 H 167.19 3.20538 1.44736 0
M  V30 1749 H 167.064 2.33247 2.96438 0
M  V30 1750 H 169.451 1.41391 2.59023 0
M  V30 1751 H 169.532 2.32178 1.07364 0
M  V30 1752 H 169.176 4.4882 2.37746 0
M  V30 1753 H 169.106 3.54948 3.88998 0
M  V30 1754 H 171.597 2.83074 2.50354 0
M  V30 1755 H 171.91 6.18409 4.63454 0
M  V30 1756 H 170.255 5.55735 4.17353 0
M  V30 1757 H 173.446 3.56166 3.03749 0
M  V30 1758 H 173.619 5.09067 4.00942 0
M  V30 1759 N 167.025 -1.13721 1.09112 0
M  V30 1760 C 167.935 -2.22638 0.73957 0
M  V30 1761 C 168.951 -1.72091 -0.257068 0
M  V30 1762 O 170.127 -2.01155 -0.0992154 0
M  V30 1763 C 167.192 -3.46322 0.16191 0
M  V30 1764 C 166.253 -4.11775 1.21408 0
M  V30 1765 C 165.486 -5.29555 0.663891 0
M  V30 1766 O 165.709 -5.68077 -0.514274 0
M  V30 1767 O 164.643 -5.84973 1.41738 0
M  V30 1768 H 168.469 -2.55074 1.64836 0
M  V30 1769 H 166.054 -1.21791 0.865289 0
M  V30 1770 H 167.936 -4.21107 -0.157073 0
M  V30 1771 H 166.611 -3.15593 -0.719932 0
M  V30 1772 H 165.518 -3.3883 1.58571 0
M  V30 1773 H 166.851 -4.46627 2.06845 0
M  V30 1774 N 168.503 -0.877838 -1.30888 0
M  V30 1775 C 169.413 -0.343096 -2.32078 0
M  V30 1776 C 170.429 0.551022 -1.65045 0
M  V30 1777 O 171.605 0.445854 -1.96403 0
M  V30 1778 C 168.67 0.439905 -3.43898 0
M  V30 1779 C 167.731 -0.483111 -4.26573 0
M  V30 1780 C 166.964 0.262616 -5.33053 0
M  V30 1781 O 167.187 1.48967 -5.50604 0
M  V30 1782 O 166.121 -0.383593 -6.00676 0
M  V30 1783 H 169.947 -1.18203 -2.79753 0
M  V30 1784 H 167.532 -0.64145 -1.34929 0
M  V30 1785 H 169.414 0.883504 -4.12034 0
M  V30 1786 H 168.089 1.25526 -2.98371 0
M  V30 1787 H 166.996 -0.975374 -3.61161 0
M  V30 1788 H 168.329 -1.26427 -4.75686 0
M  V30 1789 N 169.982 1.44106 -0.638065 0
M  V30 1790 C 170.914 2.28976 0.101205 0
M  V30 1791 C 171.927 1.4167 0.802088 0
M  V30 1792 O 173.116 1.65755 0.662375 0
M  V30 1793 C 170.216 3.18217 1.16581 0
M  V30 1794 C 169.389 4.33978 0.546066 0
M  V30 1795 C 168.448 5.04202 1.50554 0
M  V30 1796 O 167.474 5.59986 1.01999 0
M  V30 1797 N 168.676 5.06296 2.8398 0
M  V30 1798 H 171.441 2.93064 -0.627186 0
M  V30 1799 H 169.002 1.54629 -0.479731 0
M  V30 1800 H 170.994 3.62061 1.80815 0
M  V30 1801 H 169.564 2.55833 1.79634 0
M  V30 1802 H 168.784 3.93239 -0.275046 0
M  V30 1803 H 170.072 5.08675 0.112793 0
M  V30 1804 H 169.47 4.62319 3.26002 0
M  V30 1805 H 168.027 5.53907 3.43556 0
M  V30 1806 N 171.46 0.379036 1.52974 0
M  V30 1807 C 172.737 -0.263479 1.93817 0
M  V30 1808 C 173.117 -1.65244 1.31368 0
M  V30 1809 O 172.465 -2.23448 0.477856 0
M  V30 1810 C 172.675 -0.300166 3.47707 0
M  V30 1811 C 174.023 -0.534061 4.21228 0
M  V30 1812 O 175.047 -0.38081 3.54159 0
M  V30 1813 O 173.906 -0.833501 5.40106 0
M  V30 1814 H 171 -0.161149 0.811147 0
M  V30 1815 H 173.546 0.432798 1.64088 0
M  V30 1816 H 172.318 0.673138 3.85467 0
M  V30 1817 H 171.941 -1.04179 3.83709 0
M  V30 1818 N 172.938 -1.57226 0.108567 0
M  V30 1819 C 173.868 -2.17778 -0.84232 0
M  V30 1820 C 174.849 -1.11487 -1.2847 0
M  V30 1821 O 176.034 -1.39681 -1.34918 0
M  V30 1822 C 173.164 -2.76888 -2.09644 0
M  V30 1823 C 172.118 -3.88669 -1.79221 0
M  V30 1824 C 171.444 -4.34541 -3.11574 0
M  V30 1825 C 172.744 -5.11251 -1.06864 0
M  V30 1826 H 174.438 -2.97489 -0.337774 0
M  V30 1827 H 171.984 -1.43097 -0.161025 0
M  V30 1828 H 173.937 -3.17904 -2.76614 0
M  V30 1829 H 172.661 -1.94451 -2.62405 0
M  V30 1830 H 171.32 -3.48213 -1.14644 0
M  V30 1831 H 170.968 -3.48977 -3.62249 0
M  V30 1832 H 170.668 -5.09914 -2.91996 0
M  V30 1833 H 172.192 -4.782 -3.7968 0
M  V30 1834 H 173.606 -5.49352 -1.63968 0
M  V30 1835 H 172.003 -5.9214 -0.974178 0
M  V30 1836 H 173.073 -4.8487 -0.0536168 0
M  V30 1837 N 174.416 0.165178 -1.56732 0
M  V30 1838 C 175.326 1.22423 -2.00125 0
M  V30 1839 C 176.342 1.48084 -0.913619 0
M  V30 1840 O 177.518 1.60112 -1.22172 0
M  V30 1841 C 174.583 2.54197 -2.35764 0
M  V30 1842 C 173.644 2.36343 -3.58386 0
M  V30 1843 C 172.877 3.61834 -3.92316 0
M  V30 1844 O 173.1 4.67267 -3.27135 0
M  V30 1845 O 172.034 3.55579 -4.85641 0
M  V30 1846 H 175.86 0.885886 -2.90492 0
M  V30 1847 H 173.445 0.372518 -1.44681 0
M  V30 1848 H 175.327 3.3192 -2.59629 0
M  V30 1849 H 174.002 2.87598 -1.48557 0
M  V30 1850 H 172.909 1.56632 -3.39731 0
M  V30 1851 H 174.242 2.07865 -4.46154 0
M  V30 1852 N 175.894 1.51508 0.433938 0
M  V30 1853 C 177.31 1.39759 0.770682 0
M  V30 1854 C 177.51 0.482594 1.95636 0
M  V30 1855 O 176.566 -0.0609691 2.52426 0
M  V30 1856 C 177.879 2.81851 1.04787 0
M  V30 1857 C 179.427 2.91025 1.1521 0
M  V30 1858 C 179.902 4.34032 1.46219 0
M  V30 1859 N 181.393 4.37154 1.53136 0
M  V30 1860 C 182.128 5.4484 1.78709 0
M  V30 1861 N 181.624 6.62682 2.02051 0
M  V30 1862 N 183.417 5.32324 1.80519 0
M  V30 1863 H 175.568 2.09548 -0.346892 0
M  V30 1864 H 177.831 0.943446 -0.0928074 0
M  V30 1865 H 177.537 3.50815 0.249304 0
M  V30 1866 H 177.411 3.21386 1.97461 0
M  V30 1867 H 179.798 2.22257 1.94128 0
M  V30 1868 H 179.879 2.54983 0.204281 0
M  V30 1869 H 179.523 5.03351 0.678274 0
M  V30 1870 H 179.453 4.6759 2.42212 0
M  V30 1871 H 181.944 3.52197 1.36987 0
M  V30 1872 H 182.257 7.40543 2.20943 0
M  V30 1873 H 180.602 6.65791 1.99366 0
M  V30 1874 H 183.793 4.39246 1.61805 0
M  V30 1875 H 183.966 6.16328 2.00111 0
M  V30 1876 N 177.372 -0.689602 1.41712 0
M  V30 1877 C 178.302 -1.81577 1.46806 0
M  V30 1878 C 179.283 -1.66945 0.326105 0
M  V30 1879 O 180.468 -1.86588 0.538377 0
M  V30 1880 C 177.598 -3.19762 1.35535 0
M  V30 1881 C 176.552 -3.49107 2.47605 0
M  V30 1882 C 175.878 -4.86711 2.21397 0
M  V30 1883 C 177.178 -3.47483 3.89939 0
M  V30 1884 H 178.872 -1.7757 2.41058 0
M  V30 1885 H 176.418 -0.852887 1.16025 0
M  V30 1886 H 178.371 -3.98263 1.3771 0
M  V30 1887 H 177.095 -3.24409 0.377708 0
M  V30 1888 H 175.754 -2.72959 2.44722 0
M  V30 1889 H 175.402 -4.8799 1.21961 0
M  V30 1890 H 175.102 -5.0731 2.96497 0
M  V30 1891 H 176.626 -5.67515 2.25297 0
M  V30 1892 H 178.04 -4.1598 3.94505 0
M  V30 1893 H 176.437 -3.79615 4.64771 0
M  V30 1894 H 177.507 -2.46341 4.17665 0
M  V30 1895 N 178.85 -1.27639 -0.924453 0
M  V30 1896 C 180.266 -1.05113 -1.20097 0
M  V30 1897 C 180.466 0.213262 -2.00368 0
M  V30 1898 O 179.522 0.91787 -2.35226 0
M  V30 1899 C 180.835 -2.29244 -1.94596 0
M  V30 1900 C 182.383 -2.34315 -2.07522 0
M  V30 1901 C 182.858 -3.58183 -2.85427 0
M  V30 1902 N 184.349 -3.5876 -2.92994 0
M  V30 1903 C 185.084 -4.51277 -3.53746 0
M  V30 1904 N 184.58 -5.54102 -4.15863 0
M  V30 1905 N 186.373 -4.38894 -3.51181 0
M  V30 1906 H 178.524 -2.08821 -0.388264 0
M  V30 1907 H 180.787 -0.918568 -0.234385 0
M  V30 1908 H 180.493 -3.21301 -1.43034 0
M  V30 1909 H 180.367 -2.34816 -2.95197 0
M  V30 1910 H 182.754 -1.42762 -2.58269 0
M  V30 1911 H 182.835 -2.32744 -1.06131 0
M  V30 1912 H 182.479 -4.50074 -2.35363 0
M  V30 1913 H 182.409 -3.57006 -3.8711 0
M  V30 1914 H 184.9 -2.84398 -2.4885 0
M  V30 1915 H 185.213 -6.20859 -4.60168 0
M  V30 1916 H 183.558 -5.57941 -4.144 0
M  V30 1917 H 186.749 -3.57772 -3.01856 0
M  V30 1918 H 186.922 -5.11186 -3.98237 0
M  V30 1919 N 180.328 1.1314 -1.09713 0
M  V30 1920 C 181.605 1.80762 -0.747302 0
M  V30 1921 C 181.985 1.96663 0.767265 0
M  V30 1922 O 181.333 1.53706 1.69076 0
M  V30 1923 C 181.543 3.15606 -1.48975 0
M  V30 1924 C 182.891 3.90914 -1.65746 0
M  V30 1925 O 183.915 3.25239 -1.45251 0
M  V30 1926 O 182.774 5.08718 -1.9967 0
M  V30 1927 H 179.868 0.782103 -0.268782 0
M  V30 1928 H 182.414 1.20041 -1.19951 0
M  V30 1929 H 181.186 2.99278 -2.52088 0
M  V30 1930 H 180.809 3.84029 -1.02991 0
M  V30 1931 N 181.806 0.884767 1.30421 0
M  V30 1932 C 183.217 0.553656 1.78302 0
M  V30 1933 C 183.568 -0.930153 1.7275 0
M  V30 1934 O 182.693 -1.72681 1.30423 0
M  V30 1935 C 183.288 0.998234 3.2376 0
M  V30 1936 C 181.847 0.71854 3.69478 0
M  V30 1937 C 180.994 1.18132 2.50879 0
M  V30 1938 H 183.945 1.06901 1.17294 0
M  V30 1939 H 183.966 0.327118 3.79091 0
M  V30 1940 H 183.478 2.0782 3.27769 0
M  V30 1941 H 181.579 -0.349444 3.70958 0
M  V30 1942 H 181.692 1.30595 4.60958 0
M  V30 1943 H 180.056 0.600669 2.47516 0
M  V30 1944 H 180.839 2.26902 2.57624 0
M  V30 1945 N 183.284 -1.43765 0.645699 0
M  V30 1946 C 184.194 -2.34544 -0.0512957 0
M  V30 1947 C 185.21 -1.53455 -0.82022 0
M  V30 1948 O 186.386 -1.86133 -0.769176 0
M  V30 1949 C 183.451 -3.31636 -1.01087 0
M  V30 1950 C 182.512 -4.2863 -0.239712 0
M  V30 1951 C 181.745 -5.21084 -1.15358 0
M  V30 1952 O 181.968 -5.1779 -2.39269 0
M  V30 1953 O 180.902 -5.98593 -0.630038 0
M  V30 1954 H 184.728 -2.95624 0.695718 0
M  V30 1955 H 182.313 -1.43781 0.405882 0
M  V30 1956 H 184.195 -3.9136 -1.56254 0
M  V30 1957 H 182.87 -2.73069 -1.73824 0
M  V30 1958 H 181.777 -3.72408 0.355356 0
M  V30 1959 H 183.11 -4.90157 0.447936 0
M  V30 1960 N 184.763 -0.387143 -1.52771 0
M  V30 1961 C 186.009 0.196025 -2.0185 0
M  V30 1962 C 186.342 1.46641 -1.27319 0
M  V30 1963 O 185.617 1.90889 -0.373032 0
M  V30 1964 C 185.9 0.466136 -3.5707 0
M  V30 1965 C 185.753 -0.819385 -4.42274 0
M  V30 1966 C 187.072 1.25768 -4.21747 0
M  V30 1967 H 184.191 0.0697708 -0.73369 0
M  V30 1968 H 186.833 -0.516286 -1.82851 0
M  V30 1969 H 184.983 1.07293 -3.7339 0
M  V30 1970 H 186.655 -1.4563 -4.37709 0
M  V30 1971 H 184.898 -1.43517 -4.09372 0
M  V30 1972 H 185.569 -0.585065 -5.48891 0
M  V30 1973 H 188.045 0.744167 -4.09391 0
M  V30 1974 H 186.921 1.41541 -5.30337 0
M  V30 1975 H 187.182 2.27228 -3.79236 0
M  V30 1976 N 186.241 1.57166 -0.116904 0
M  V30 1977 C 187.487 1.95412 0.542405 0
M  V30 1978 C 187.82 1.00019 1.66463 0
M  V30 1979 O 187.095 0.0370346 1.94465 0
M  V30 1980 C 187.378 3.43615 1.07708 0
M  V30 1981 C 187.231 4.49781 -0.0415868 0
M  V30 1982 C 188.55 3.93616 1.96861 0
M  V30 1983 H 185.669 0.710543 0.195696 0
M  V30 1984 H 188.311 1.89027 -0.192038 0
M  V30 1985 H 186.461 3.49187 1.70296 0
M  V30 1986 H 188.133 4.56308 -0.676793 0
M  V30 1987 H 186.376 4.28033 -0.705019 0
M  V30 1988 H 187.047 5.50733 0.373717 0
M  V30 1989 H 189.523 3.90335 1.44146 0
M  V30 1990 H 188.399 4.97838 2.3119 0
M  V30 1991 H 188.66 3.34188 2.89432 0
M  V30 1992 N 187.719 -0.156864 1.56817 0
M  V30 1993 C 188.682 -1.17781 1.96622 0
M  V30 1994 C 189.682 -1.36401 0.851555 0
M  V30 1995 O 190.872 -1.33561 1.11836 0
M  V30 1996 C 188.004 -2.54008 2.27361 0
M  V30 1997 H 189.197 -0.836564 2.87996 0
M  V30 1998 H 186.75 -0.39985 1.51099 0
M  V30 1999 H 187.485 -2.9312 1.38748 0
M  V30 2000 H 187.27 -2.41856 3.08623 0
M  V30 2001 H 188.76 -3.27558 2.59029 0
M  V30 2002 N 189.197 -1.51736 -0.425897 0
M  V30 2003 C 190.422 -1.69082 -1.20108 0
M  V30 2004 C 190.847 -0.392398 -1.83962 0
M  V30 2005 O 190.205 0.64858 -1.69302 0
M  V30 2006 C 190.253 -2.81604 -2.25237 0
M  V30 2007 O 189.357 -2.46004 -3.30992 0
M  V30 2008 H 188.698 -0.563408 -0.35138 0
M  V30 2009 H 191.228 -1.98358 -0.501512 0
M  V30 2010 H 191.238 -3.06025 -2.69838 0
M  V30 2011 H 189.913 -3.75817 -1.78142 0
M  V30 2012 H 188.49 -2.32195 -2.91787 0
M  V30 2013 N 190.675 0.682077 -1.42076 0
M  V30 2014 C 191.585 1.82535 -1.47371 0
M  V30 2015 C 192.601 1.7017 -0.363079 0
M  V30 2016 O 193.777 1.91848 -0.612875 0
M  V30 2017 C 190.842 3.18624 -1.36674 0
M  V30 2018 C 189.903 3.42999 -2.58167 0
M  V30 2019 C 189.136 4.72595 -2.4797 0
M  V30 2020 O 189.359 5.50006 -1.5116 0
M  V30 2021 O 188.293 4.98054 -3.37974 0
M  V30 2022 H 192.119 1.81023 -2.43853 0
M  V30 2023 H 189.704 0.836887 -1.2376 0
M  V30 2024 H 191.586 3.99847 -1.33043 0
M  V30 2025 H 190.261 3.20789 -0.433138 0
M  V30 2026 H 189.168 2.61653 -2.67373 0
M  V30 2027 H 190.501 3.45659 -3.50401 0
M  V30 2028 N 192.153 1.28127 0.917671 0
M  V30 2029 C 193.083 1.14248 2.03641 0
M  V30 2030 C 194.064 0.0412748 1.7005 0
M  V30 2031 O 195.249 0.217566 1.92977 0
M  V30 2032 C 192.379 0.799431 3.37974 0
M  V30 2033 C 191.333 1.85497 3.85713 0
M  V30 2034 C 190.659 1.36565 5.16966 0
M  V30 2035 C 191.959 3.26085 4.08002 0
M  V30 2036 H 193.653 2.07835 2.15511 0
M  V30 2037 H 191.199 1.00064 1.03553 0
M  V30 2038 H 193.152 0.689114 4.15727 0
M  V30 2039 H 191.876 -0.172145 3.26146 0
M  V30 2040 H 190.535 1.95437 3.10161 0
M  V30 2041 H 190.183 0.383253 5.01538 0
M  V30 2042 H 189.883 2.07143 5.49878 0
M  V30 2043 H 191.407 1.26848 5.97279 0
M  V30 2044 H 192.821 3.19089 4.76293 0
M  V30 2045 H 191.218 3.94462 4.52238 0
M  V30 2046 H 192.288 3.70394 3.12948 0
M  V30 2047 N 193.631 -1.12557 1.10312 0
M  V30 2048 C 194.879 -1.83675 0.843091 0
M  V30 2049 C 195.2 -1.84435 -0.633131 0
M  V30 2050 O 194.47 -1.30657 -1.45964 0
M  V30 2051 H 193.05 -0.680138 0.308904 0
M  V30 2052 H 195.712 -1.36301 1.39313 0
M  V30 2053 H 194.808 -2.87908 1.2048 0
M  V30 2054 N 195.109 -0.891671 -1.2995 0
M  V30 2055 C 196.339 -0.527893 -1.99742 0
M  V30 2056 C 196.747 0.88979 -1.66971 0
M  V30 2057 O 196.09 1.59766 -0.906667 0
M  V30 2058 C 196.152 -0.630804 -3.53922 0
M  V30 2059 C 195.816 -2.01401 -4.10228 0
M  V30 2060 C 196.813 -2.98422 -4.25724 0
M  V30 2061 C 194.498 -2.32121 -4.45449 0
M  V30 2062 C 196.492 -4.24293 -4.75662 0
M  V30 2063 C 194.179 -3.58237 -4.95086 0
M  V30 2064 C 195.177 -4.54137 -5.10146 0
M  V30 2065 O 194.865 -5.78014 -5.58708 0
M  V30 2066 H 194.597 -0.201953 -0.645129 0
M  V30 2067 H 197.151 -1.20076 -1.66646 0
M  V30 2068 H 195.381 0.0990616 -3.86573 0
M  V30 2069 H 197.07 -0.277338 -4.04951 0
M  V30 2070 H 197.836 -2.76001 -3.98809 0
M  V30 2071 H 193.715 -1.5824 -4.32991 0
M  V30 2072 H 197.259 -4.99153 -4.87332 0
M  V30 2073 H 193.156 -3.80491 -5.21437 0
M  V30 2074 H 193.924 -5.8049 -5.77039 0
M  V30 2075 N 196.587 1.43421 -0.653314 0
M  V30 2076 C 197.833 2.02111 -0.166992 0
M  V30 2077 C 198.166 1.51423 1.21592 0
M  V30 2078 O 197.441 0.707389 1.8118 0
M  V30 2079 C 197.724 3.5966 -0.177948 0
M  V30 2080 C 197.577 4.20579 -1.59478 0
M  V30 2081 C 198.896 4.37413 0.4856 0
M  V30 2082 H 196.015 0.734374 -0.0621557 0
M  V30 2083 H 198.657 1.70717 -0.834016 0
M  V30 2084 H 196.807 3.86537 0.390032 0
M  V30 2085 H 198.479 4.04732 -2.21336 0
M  V30 2086 H 196.722 3.77226 -2.14204 0
M  V30 2087 H 197.393 5.29665 -1.5543 0
M  V30 2088 H 199.869 4.161 0.00234528 0
M  V30 2089 H 198.745 5.47075 0.447207 0
M  V30 2090 H 199.006 4.13672 1.55974 0
M  V30 2091 N 198.065 0.39524 1.52563 0
M  V30 2092 C 199.312 -0.185044 2.01653 0
M  V30 2093 C 199.64 -1.46317 1.28146 0
M  V30 2094 O 198.895 -1.9213 0.372074 0
M  V30 2095 C 199.194 -0.493444 3.53977 0
M  V30 2096 C 198.86 0.69384 4.4553 0
M  V30 2097 C 197.522 1.01954 4.70275 0
M  V30 2098 C 199.874 1.48785 4.99512 0
M  V30 2099 C 197.202 2.14069 5.46252 0
M  V30 2100 C 199.554 2.59965 5.76716 0
M  V30 2101 C 198.218 2.93037 5.99738 0
M  V30 2102 H 197.488 -0.0677123 0.7379 0
M  V30 2103 H 200.135 0.533807 1.8391 0
M  V30 2104 H 198.44 -1.29369 3.69825 0
M  V30 2105 H 200.137 -0.955163 3.89458 0
M  V30 2106 H 196.727 0.429987 4.26438 0
M  V30 2107 H 200.911 1.24946 4.80315 0
M  V30 2108 H 196.167 2.40056 5.62302 0
M  V30 2109 H 200.341 3.21887 6.17545 0
M  V30 2110 H 197.968 3.8003 6.58393 0
M  V30 2111 N 199.544 -1.57102 0.125237 0
M  V30 2112 C 200.476 -2.12726 -0.853237 0
M  V30 2113 C 201.489 -1.07145 -1.22571 0
M  V30 2114 O 202.678 -1.34497 -1.17358 0
M  V30 2115 C 199.778 -2.61709 -2.15317 0
M  V30 2116 C 198.951 -3.91456 -1.95143 0
M  V30 2117 C 198.01 -4.25973 -3.08923 0
M  V30 2118 O 197.036 -4.94682 -2.81564 0
M  V30 2119 N 198.238 -3.83795 -4.35524 0
M  V30 2120 H 201.003 -2.97307 -0.377964 0
M  V30 2121 H 198.564 -1.61792 -0.0590011 0
M  V30 2122 H 200.556 -2.81826 -2.90441 0
M  V30 2123 H 199.126 -1.81974 -2.54174 0
M  V30 2124 H 198.346 -3.80185 -1.04177 0
M  V30 2125 H 199.634 -4.76283 -1.78976 0
M  V30 2126 H 199.032 -3.2839 -4.60626 0
M  V30 2127 H 197.589 -4.09008 -5.07499 0
M  V30 2128 N 201.022 0.148545 -1.56898 0
M  V30 2129 C 201.985 1.16736 -1.97244 0
M  V30 2130 C 202.985 1.35947 -0.858777 0
M  V30 2131 O 204.175 1.32966 -1.12542 0
M  V30 2132 C 201.307 2.52798 -2.28705 0
M  V30 2133 H 202.5 0.821279 -2.88435 0
M  V30 2134 H 200.053 0.391831 -1.51309 0
M  V30 2135 H 200.788 2.92381 -1.403 0
M  V30 2136 H 200.573 2.40216 -3.09901 0
M  V30 2137 H 202.063 3.26179 -2.60762 0
M  V30 2138 N 202.5 1.5196 0.417844 0
M  V30 2139 C 203.749 1.6482 1.16264 0
M  V30 2140 C 204.062 0.379886 1.91876 0
M  V30 2141 O 205.268 0.388154 2.68711 0
M  V30 2142 C 203.724 2.91161 2.1155 0
M  V30 2143 C 203.332 4.25068 1.41495 0
M  V30 2144 C 205.076 3.13383 2.86341 0
M  V30 2145 C 202.983 5.42541 2.35379 0
M  V30 2146 H 201.913 0.613954 0.437694 0
M  V30 2147 H 204.564 1.78442 0.427871 0
M  V30 2148 H 202.946 2.71218 2.88543 0
M  V30 2149 H 204.12 4.55463 0.699263 0
M  V30 2150 H 202.435 4.0888 0.787792 0
M  V30 2151 H 205.032 3.98324 3.5671 0
M  V30 2152 H 205.375 2.27256 3.48798 0
M  V30 2153 H 205.908 3.33757 2.1645 0
M  V30 2154 H 202.647 6.30987 1.77582 0
M  V30 2155 H 202.167 5.16497 3.04945 0
M  V30 2156 H 203.846 5.75272 2.96093 0
M  V30 2157 N 203.978 -0.674533 1.42435 0
M  V30 2158 C 205.206 -1.46283 1.46317 0
M  V30 2159 C 205.621 -1.88653 0.0745836 0
M  V30 2160 O 204.978 -1.58151 -0.91074 0
M  V30 2161 C 205.029 -2.71178 2.3905 0
M  V30 2162 O 204.75 -2.30586 3.72507 0
M  V30 2163 C 206.251 -3.64738 2.51955 0
M  V30 2164 H 203.471 -0.450104 0.497642 0
M  V30 2165 H 206.015 -0.828792 1.86953 0
M  V30 2166 H 204.17 -3.3077 2.01667 0
M  V30 2167 H 204.584 -3.11241 4.22172 0
M  V30 2168 H 206.058 -4.49096 3.20962 0
M  V30 2169 H 206.535 -4.10656 1.55752 0
M  V30 2170 H 207.141 -3.11038 2.90061 0
M  V30 2171 N 205.456 -1.28612 -0.910864 0
M  V30 2172 C 206.386 -1.15326 -2.03032 0
M  V30 2173 C 207.367 -0.0502924 -1.70026 0
M  V30 2174 O 208.552 -0.227797 -1.92859 0
M  V30 2175 C 205.682 -0.817343 -3.37545 0
M  V30 2176 C 204.636 -1.8754 -3.84724 0
M  V30 2177 C 203.962 -1.39305 -5.16235 0
M  V30 2178 C 205.262 -3.28244 -4.06267 0
M  V30 2179 H 206.956 -2.08975 -2.14406 0
M  V30 2180 H 204.502 -1.00612 -1.03021 0
M  V30 2181 H 206.455 -0.711151 -4.15356 0
M  V30 2182 H 205.179 0.154846 -3.26233 0
M  V30 2183 H 203.838 -1.97079 -3.09121 0
M  V30 2184 H 203.486 -0.409846 -5.01328 0
M  V30 2185 H 203.186 -2.10057 -5.48771 0
M  V30 2186 H 204.71 -1.30014 -5.96598 0
M  V30 2187 H 206.124 -3.21611 -4.74594 0
M  V30 2188 H 204.521 -3.96855 -4.5014 0
M  V30 2189 H 205.591 -3.72048 -3.10979 0
M  V30 2190 N 206.934 1.1197 -1.10907 0
M  V30 2191 C 208.162 1.87402 -0.876824 0
M  V30 2192 C 208.577 1.79894 0.573025 0
M  V30 2193 O 207.934 1.17629 1.39534 0
M  V30 2194 C 207.985 3.36428 -1.32282 0
M  V30 2195 O 207.706 3.43765 -2.71582 0
M  V30 2196 C 209.207 4.28783 -1.12518 0
M  V30 2197 H 206.427 0.592793 -0.314384 0
M  V30 2198 H 208.971 1.41649 -1.47499 0
M  V30 2199 H 207.126 3.79706 -0.768229 0
M  V30 2200 H 207.54 4.3652 -2.90776 0
M  V30 2201 H 209.014 5.31613 -1.48633 0
M  V30 2202 H 209.491 4.39153 -0.0642394 0
M  V30 2203 H 210.097 3.91291 -1.66648 0
M  V30 2204 N 208.412 0.89855 1.29475 0
M  V30 2205 C 209.828 0.594483 1.48115 0
M  V30 2206 C 210.028 -0.86431 1.82022 0
M  V30 2207 O 209.084 -1.64457 1.91599 0
M  V30 2208 C 210.397 1.51932 2.59494 0
M  V30 2209 C 211.945 1.5244 2.7337 0
M  V30 2210 C 212.42 2.43548 3.87877 0
M  V30 2211 N 213.911 2.41589 3.95208 0
M  V30 2212 C 214.646 3.08789 4.83153 0
M  V30 2213 N 214.142 3.85265 5.75798 0
M  V30 2214 N 215.935 2.97952 4.76635 0
M  V30 2215 H 208.086 1.84207 1.05742 0
M  V30 2216 H 210.349 0.789251 0.525154 0
M  V30 2217 H 210.055 2.55865 2.41301 0
M  V30 2218 H 209.929 1.23899 3.56271 0
M  V30 2219 H 212.316 0.492518 2.90961 0
M  V30 2220 H 212.397 1.8451 1.77172 0
M  V30 2221 H 212.041 3.46829 3.71041 0
M  V30 2222 H 211.971 2.08788 4.83441 0
M  V30 2223 H 214.462 1.86025 3.28943 0
M  V30 2224 H 214.775 4.33598 6.39697 0
M  V30 2225 H 213.12 3.89371 5.75687 0
M  V30 2226 H 216.311 2.37723 4.03244 0
M  V30 2227 H 216.484 3.50599 5.44962 0
M  V30 2228 N 209.89 -1.43072 0.660911 0
M  V30 2229 C 210.822 -2.29108 -0.0647641 0
M  V30 2230 C 211.835 -1.42928 -0.779448 0
M  V30 2231 O 213.024 -1.66788 -0.635921 0
M  V30 2232 C 210.124 -3.20032 -1.11503 0
M  V30 2233 C 209.297 -4.34792 -0.476955 0
M  V30 2234 C 208.356 -5.06534 -1.42513 0
M  V30 2235 O 207.382 -5.61538 -0.930771 0
M  V30 2236 N 208.584 -5.1075 -2.75889 0
M  V30 2237 H 211.349 -2.92029 0.673731 0
M  V30 2238 H 208.91 -1.53846 0.50427 0
M  V30 2239 H 210.902 -3.64892 -1.75032 0
M  V30 2240 H 209.472 -2.58658 -1.75541 0
M  V30 2241 H 208.692 -3.92752 0.337572 0
M  V30 2242 H 209.98 -5.0879 -0.0318525 0
M  V30 2243 H 209.378 -4.67447 -3.18606 0
M  V30 2244 H 207.935 -5.59302 -3.347 0
M  V30 2245 N 211.368 -0.403325 -1.52352 0
M  V30 2246 C 212.784 -0.0539281 -1.59509 0
M  V30 2247 C 212.984 1.43307 -1.41652 0
M  V30 2248 O 212.04 2.19924 -1.24056 0
M  V30 2249 C 213.353 -0.543654 -2.95745 0
M  V30 2250 C 214.901 -0.501125 -3.08962 0
M  V30 2251 C 215.376 -0.967267 -4.47669 0
M  V30 2252 N 216.867 -0.923849 -4.53893 0
M  V30 2253 C 217.602 -1.25578 -5.5948 0
M  V30 2254 N 217.098 -1.65889 -6.72646 0
M  V30 2255 N 218.891 -1.17613 -5.49658 0
M  V30 2256 H 211.042 -1.37123 -1.62206 0
M  V30 2257 H 213.305 -0.56294 -0.76276 0
M  V30 2258 H 213.011 -1.58275 -3.14073 0
M  V30 2259 H 212.885 0.0498042 -3.77167 0
M  V30 2260 H 215.272 0.528909 -2.90321 0
M  V30 2261 H 215.353 -1.13056 -2.2946 0
M  V30 2262 H 214.997 -1.9956 -4.67053 0
M  V30 2263 H 214.927 -0.314698 -5.25659 0
M  V30 2264 H 217.418 -0.627403 -3.72655 0
M  V30 2265 H 217.731 -1.89543 -7.49195 0
M  V30 2266 H 216.076 -1.69787 -6.73942 0
M  V30 2267 H 219.267 -0.860115 -4.6013 0
M  V30 2268 H 219.44 -1.43812 -6.3184 0
M  V30 2269 N 212.846 1.57033 -0.133567 0
M  V30 2270 C 213.776 2.1909 0.807567 0
M  V30 2271 C 214.757 1.13517 1.26681 0
M  V30 2272 O 215.942 1.41809 1.32679 0
M  V30 2273 C 213.072 2.80188 2.05212 0
M  V30 2274 C 212.026 3.91471 1.73015 0
M  V30 2275 C 211.352 4.39443 3.04622 0
M  V30 2276 C 212.652 5.12886 0.987168 0
M  V30 2277 H 214.346 2.97988 0.290403 0
M  V30 2278 H 211.892 1.43335 0.138239 0
M  V30 2279 H 213.845 3.22264 2.71521 0
M  V30 2280 H 212.569 1.98601 2.59278 0
M  V30 2281 H 211.228 3.49993 1.0909 0
M  V30 2282 H 210.876 3.54695 3.56651 0
M  V30 2283 H 210.576 5.14495 2.83847 0
M  V30 2284 H 212.1 4.8418 3.72024 0
M  V30 2285 H 213.514 5.51891 1.55208 0
M  V30 2286 H 211.911 5.93615 0.87985 0
M  V30 2287 H 212.981 4.84894 -0.0235286 0
M  V30 2288 N 214.325 -0.140222 1.56975 0
M  V30 2289 C 215.288 -1.15689 1.97861 0
M  V30 2290 C 216.288 -1.3549 0.865974 0
M  V30 2291 O 217.478 -1.32367 1.13246 0
M  V30 2292 C 214.61 -2.51582 2.30042 0
M  V30 2293 H 215.803 -0.805971 2.88867 0
M  V30 2294 H 213.356 -0.383801 1.51515 0
M  V30 2295 H 214.091 -2.91632 1.41849 0
M  V30 2296 H 213.876 -2.38569 3.11171 0
M  V30 2297 H 215.366 -3.24792 2.62488 0
M  V30 2298 N 215.803 -1.52179 -0.40978 0
M  V30 2299 C 217.051 -1.65878 -1.15451 0
M  V30 2300 C 217.372 -0.390771 -1.91044 0
M  V30 2301 O 216.642 0.594323 -1.86667 0
M  V30 2302 H 215.222 -0.611405 -0.429177 0
M  V30 2303 H 217.884 -1.89219 -0.467134 0
M  V30 2304 H 216.98 -2.49954 -1.86894 0
M  V30 2305 N 217.281 0.66697 -1.42791 0
M  V30 2306 C 218.697 0.981027 -1.25889 0
M  V30 2307 C 218.897 2.00793 -0.168695 0
M  V30 2308 O 217.953 2.48321 0.45747 0
M  V30 2309 C 219.266 1.47838 -2.61848 0
M  V30 2310 C 220.814 1.59575 -2.69267 0
M  V30 2311 C 221.289 2.12704 -4.05612 0
M  V30 2312 N 222.78 2.20026 -4.07606 0
M  V30 2313 C 223.515 2.62227 -5.09926 0
M  V30 2314 N 223.011 3.03824 -6.22626 0
M  V30 2315 N 224.804 2.62045 -4.97281 0
M  V30 2316 H 216.955 -0.0127891 -2.12396 0
M  V30 2317 H 219.218 0.0568258 -0.946295 0
M  V30 2318 H 218.924 0.798299 -3.4252 0
M  V30 2319 H 218.798 2.45579 -2.86305 0
M  V30 2320 H 221.185 2.26687 -1.88936 0
M  V30 2321 H 221.266 0.60302 -2.48591 0
M  V30 2322 H 220.91 1.46198 -4.86404 0
M  V30 2323 H 220.84 3.12782 -4.23645 0
M  V30 2324 H 223.331 1.90708 -3.2625 0
M  V30 2325 H 223.644 3.34734 -6.96544 0
M  V30 2326 H 221.989 3.01662 -6.26119 0
M  V30 2327 H 225.18 2.28916 -4.08308 0
M  V30 2328 H 225.353 2.94613 -5.77154 0
M  V30 2329 N 218.759 1.29093 0.90403 0
M  V30 2330 C 220.005 1.16986 1.65656 0
M  V30 2331 C 220.338 -0.278925 1.92186 0
M  V30 2332 O 219.613 -1.2019 1.5292 0
M  V30 2333 C 219.896 1.97908 3.0084 0
M  V30 2334 C 219.749 3.50903 2.81403 0
M  V30 2335 C 221.068 1.80208 4.01513 0
M  V30 2336 H 218.187 0.426346 0.601164 0
M  V30 2337 H 220.829 1.58518 1.04747 0
M  V30 2338 H 218.979 1.62616 3.52829 0
M  V30 2339 H 220.651 3.96153 2.36348 0
M  V30 2340 H 218.894 3.76045 2.1627 0
M  V30 2341 H 219.565 4.02791 3.77443 0
M  V30 2342 H 222.041 2.11025 3.58619 0
M  V30 2343 H 220.917 2.39184 4.94047 0
M  V30 2344 H 221.178 0.756119 4.35586 0
M  V30 2345 N 220.237 -1.11381 1.11499 0
M  V30 2346 C 221.648 -1.6465 0.880191 0
M  V30 2347 C 221.999 -1.87199 -0.587434 0
M  V30 2348 O 221.124 -1.60667 -1.44966 0
M  V30 2349 C 221.719 -2.99105 1.59128 0
M  V30 2350 C 220.278 -3.49279 1.40289 0
M  V30 2351 C 219.425 -2.24077 1.63354 0
M  V30 2352 H 222.376 -0.950123 1.27116 0
M  V30 2353 H 222.397 -3.66107 1.03664 0
M  V30 2354 H 221.909 -2.82661 2.65941 0
M  V30 2355 H 220.01 -3.70887 0.356888 0
M  V30 2356 H 220.123 -4.2803 2.15238 0
M  V30 2357 H 218.487 -2.31733 1.05698 0
M  V30 2358 H 219.27 -2.10175 2.71443 0
M  V30 2359 N 221.715 -0.905404 -1.28997 0
M  V30 2360 C 222.645 -0.404212 -2.29975 0
M  V30 2361 C 223.626 0.523784 -1.61835 0
M  V30 2362 O 224.811 0.433298 -1.89304 0
M  V30 2363 C 221.941 0.364042 -3.45387 0
M  V30 2364 C 220.895 -0.474048 -4.25367 0
M  V30 2365 C 220.221 0.422045 -5.33032 0
M  V30 2366 C 221.521 -1.72696 -4.92923 0
M  V30 2367 H 223.215 -1.24807 -2.72146 0
M  V30 2368 H 220.761 -0.601585 -1.30832 0
M  V30 2369 H 222.714 0.725447 -4.15109 0
M  V30 2370 H 221.438 1.24174 -3.02074 0
M  V30 2371 H 220.097 -0.81786 -3.57361 0
M  V30 2372 H 219.745 1.29804 -4.85963 0
M  V30 2373 H 219.445 -0.135057 -5.87445 0
M  V30 2374 H 220.969 0.779517 -6.05604 0
M  V30 2375 H 222.383 -1.43495 -5.55051 0
M  V30 2376 H 220.78 -2.22582 -5.57295 0
M  V30 2377 H 221.85 -2.45964 -4.17887 0
M  V30 2378 N 223.193 1.4272 -0.668489 0
M  V30 2379 C 224.442 2.00846 -0.185389 0
M  V30 2380 C 224.755 1.53442 1.21305 0
M  V30 2381 O 225.961 2.03944 1.79218 0
M  V30 2382 C 224.417 3.58805 -0.280591 0
M  V30 2383 C 224.025 4.15198 -1.68268 0
M  V30 2384 C 225.769 4.24255 0.14412 0
M  V30 2385 C 223.676 5.655 -1.73099 0
M  V30 2386 H 222.606 0.751145 -0.0655475 0
M  V30 2387 H 225.257 1.63516 -0.832752 0
M  V30 2388 H 223.639 3.93608 0.434553 0
M  V30 2389 H 224.813 3.91866 -2.42441 0
M  V30 2390 H 223.128 3.62176 -2.05469 0
M  V30 2391 H 225.725 5.34547 0.128086 0
M  V30 2392 H 226.068 3.99277 1.17827 0
M  V30 2393 H 226.601 3.94389 -0.519798 0
M  V30 2394 H 223.34 5.95268 -2.74475 0
M  V30 2395 H 222.86 5.90842 -1.03274 0
M  V30 2396 H 224.539 6.29808 -1.48158 0
M  V30 2397 N 224.671 0.411399 1.52136 0
M  V30 2398 C 225.919 -0.163322 2.01439 0
M  V30 2399 C 226.24 -1.45453 1.29879 0
M  V30 2400 O 225.51 -1.91225 0.4254 0
M  V30 2401 H 224.09 -0.0633447 0.744309 0
M  V30 2402 H 226.752 0.548161 1.87033 0
M  V30 2403 H 225.848 -0.357817 3.10042 0
M  V30 2404 N 226.149 -1.5696 0.141893 0
M  V30 2405 C 227.396 -1.9596 -0.510492 0
M  V30 2406 C 227.724 -1.02648 -1.65208 0
M  V30 2407 O 226.979 -0.0546947 -1.95624 0
M  V30 2408 C 227.278 -3.41242 -1.06249 0
M  V30 2409 C 226.944 -4.50882 -0.0398791 0
M  V30 2410 C 225.606 -4.80595 0.241247 0
M  V30 2411 C 227.958 -5.17058 0.65578 0
M  V30 2412 C 225.286 -5.73792 1.22393 0
M  V30 2413 C 227.638 -6.11313 1.62724 0
M  V30 2414 C 226.302 -6.39407 1.91612 0
M  V30 2415 H 225.572 -0.717068 -0.186802 0
M  V30 2416 H 228.219 -1.90142 0.227643 0
M  V30 2417 H 226.524 -3.43866 -1.87785 0
M  V30 2418 H 228.221 -3.68742 -1.57576 0
M  V30 2419 H 224.811 -4.27754 -0.269174 0
M  V30 2420 H 228.995 -4.94239 0.451779 0
M  V30 2421 H 224.251 -5.93853 1.45424 0
M  V30 2422 H 228.425 -6.61668 2.17183 0
M  V30 2423 H 226.052 -7.11427 2.6791 0
M  V30 2424 N 227.627 0.131896 -1.57047 0
M  V30 2425 C 228.59 1.14638 -1.98471 0
M  V30 2426 C 229.59 1.35029 -0.873148 0
M  V30 2427 O 230.78 1.31764 -1.13946 0
M  V30 2428 C 227.912 2.50358 -2.31373 0
M  V30 2429 H 229.105 0.79064 -2.8929 0
M  V30 2430 H 226.658 0.375761 -1.51716 0
M  V30 2431 H 227.393 2.90876 -1.43393 0
M  V30 2432 H 227.178 2.36915 -3.12432 0
M  V30 2433 H 228.668 3.23395 -2.64207 0
M  V30 2434 N 229.106 1.52395 0.401703 0
M  V30 2435 C 230.354 1.66488 1.14569 0
M  V30 2436 C 230.675 0.400897 1.90835 0
M  V30 2437 O 229.945 -0.584415 1.8698 0
M  V30 2438 H 228.525 0.613672 0.425929 0
M  V30 2439 H 231.187 1.89464 0.457093 0
M  V30 2440 H 230.283 2.50942 1.85566 0
M  V30 2441 N 230.584 -0.659388 1.43143 0
M  V30 2442 C 231.547 -1.75432 1.47501 0
M  V30 2443 C 232.547 -1.56707 0.360512 0
M  V30 2444 O 233.737 -1.62717 0.622002 0
M  V30 2445 C 230.869 -3.14239 1.32162 0
M  V30 2446 H 232.062 -1.7295 2.45006 0
M  V30 2447 H 229.615 -0.870469 1.29817 0
M  V30 2448 H 230.35 -3.22336 0.356401 0
M  V30 2449 H 230.135 -3.29235 2.12948 0
M  V30 2450 H 231.625 -3.94094 1.3813 0
M  V30 2451 N 232.062 -1.29571 -0.897171 0
M  V30 2452 C 233.473 -1.15964 -1.46319 0
M  V30 2453 C 233.824 0.244267 -1.94674 0
M  V30 2454 O 232.949 1.13998 -1.83939 0
M  V30 2455 C 233.544 -2.09906 -2.65942 0
M  V30 2456 C 232.103 -2.00314 -3.18671 0
M  V30 2457 C 231.25 -2.00687 -1.91363 0
M  V30 2458 H 234.201 -1.42019 -0.708268 0
M  V30 2459 H 234.222 -1.67276 -3.41759 0
M  V30 2460 H 233.734 -3.12075 -2.30718 0
M  V30 2461 H 231.835 -1.01242 -3.58582 0
M  V30 2462 H 231.948 -2.88102 -3.82798 0
M  V30 2463 H 230.312 -1.45319 -2.09175 0
M  V30 2464 H 231.095 -3.04566 -1.58413 0
M  V30 2465 N 233.54 1.10788 -1.12088 0
M  V30 2466 C 234.786 1.8313 -0.885148 0
M  V30 2467 C 235.141 1.8336 0.582839 0
M  V30 2468 O 234.434 1.28062 1.42516 0
M  V30 2469 C 234.628 3.29294 -1.38926 0
M  V30 2470 C 234.457 3.43302 -2.90472 0
M  V30 2471 C 233.227 3.55928 -3.58669 0
M  V30 2472 C 235.425 3.37014 -3.88492 0
M  V30 2473 N 233.407 3.58475 -4.98366 0
M  V30 2474 C 234.778 3.46263 -5.14298 0
M  V30 2475 C 236.833 3.20589 -3.80955 0
M  V30 2476 C 235.536 3.4078 -6.33452 0
M  V30 2477 C 237.562 3.16427 -4.99628 0
M  V30 2478 C 236.924 3.26253 -6.2429 0
M  V30 2479 H 233.023 0.685054 -0.377128 0
M  V30 2480 H 235.607 1.3251 -1.4265 0
M  V30 2481 H 233.778 3.78416 -0.874999 0
M  V30 2482 H 235.51 3.89578 -1.09596 0
M  V30 2483 H 232.265 3.58779 -3.09151 0
M  V30 2484 H 232.689 3.6337 -5.71219 0
M  V30 2485 H 237.331 3.11873 -2.85474 0
M  V30 2486 H 235.049 3.48263 -7.29204 0
M  V30 2487 H 238.635 3.04874 -4.95523 0
M  V30 2488 H 237.515 3.2303 -7.14578 0
M  V30 2489 N 235.018 0.912232 1.28515 0
M  V30 2490 C 236.246 0.560416 1.99166 0
M  V30 2491 C 236.661 -0.857927 1.68182 0
M  V30 2492 O 236.018 -1.56805 0.933733 0
M  V30 2493 C 236.069 0.758142 3.53461 0
M  V30 2494 O 235.79 2.12067 3.83352 0
M  V30 2495 C 237.291 0.412954 4.41372 0
M  V30 2496 H 234.511 0.213805 0.636026 0
M  V30 2497 H 237.055 1.22502 1.63749 0
M  V30 2498 H 235.21 0.140556 3.87145 0
M  V30 2499 H 235.624 2.15923 4.77993 0
M  V30 2500 H 237.098 0.60208 5.48707 0
M  V30 2501 H 237.575 -0.65073 4.34353 0
M  V30 2502 H 238.181 1.00802 4.13182 0
M  V30 2503 N 236.496 -1.42363 0.676048 0
M  V30 2504 C 237.426 -2.33497 0.0124832 0
M  V30 2505 C 238.407 -1.50748 -0.787981 0
M  V30 2506 O 239.592 -1.79346 -0.744884 0
M  V30 2507 C 236.722 -3.34377 -0.938582 0
M  V30 2508 C 235.676 -4.27289 -0.246622 0
M  V30 2509 C 235.002 -5.18386 -1.31071 0
M  V30 2510 C 236.302 -5.14916 0.875125 0
M  V30 2511 H 237.996 -2.89233 0.773593 0
M  V30 2512 H 235.542 -1.39073 0.37346 0
M  V30 2513 H 237.495 -3.97044 -1.41188 0
M  V30 2514 H 236.219 -2.76947 -1.73113 0
M  V30 2515 H 234.878 -3.66018 0.206456 0
M  V30 2516 H 234.526 -4.57282 -2.09528 0
M  V30 2517 H 234.226 -5.81378 -0.852839 0
M  V30 2518 H 235.75 -5.83929 -1.78492 0
M  V30 2519 H 237.164 -5.71262 0.482983 0
M  V30 2520 H 235.561 -5.86747 1.25887 0
M  V30 2521 H 236.631 -4.53242 1.72335 0
M  V30 2522 N 237.974 -0.419461 -1.51915 0
M  V30 2523 C 238.907 0.445751 -2.23804 0
M  V30 2524 C 239.885 1.03951 -1.25031 0
M  V30 2525 O 241.069 1.08541 -1.54114 0
M  V30 2526 C 238.196 1.61964 -2.97465 0
M  V30 2527 C 237.242 1.14828 -4.10751 0
M  V30 2528 S 238.075 0.104938 -5.35397 0
M  V30 2529 C 239.231 1.28391 -6.1259 0
M  V30 2530 H 239.464 -0.164627 -2.96844 0
M  V30 2531 H 236.997 -0.203833 -1.53049 0
M  V30 2532 H 238.955 2.29271 -3.40507 0
M  V30 2533 H 237.616 2.20139 -2.24048 0
M  V30 2534 H 236.809 2.02561 -4.61503 0
M  V30 2535 H 236.411 0.553712 -3.69878 0
M  V30 2536 H 238.703 2.20563 -6.40592 0
M  V30 2537 H 239.646 0.816724 -7.03374 0
M  V30 2538 H 240.054 1.51439 -5.43807 0
M  V30 2539 N 239.452 1.56882 -0.150215 0
M  V30 2540 C 240.68 2.00593 0.506948 0
M  V30 2541 C 241.095 1.03033 1.58208 0
M  V30 2542 O 240.452 0.0278396 1.82479 0
M  V30 2543 C 240.503 3.44209 1.10465 0
M  V30 2544 O 240.224 4.3804 0.0724636 0
M  V30 2545 C 241.725 4.03214 1.84211 0
M  V30 2546 H 238.945 0.65795 0.13169 0
M  V30 2547 H 241.489 2.03018 -0.245743 0
M  V30 2548 H 239.644 3.42625 1.80795 0
M  V30 2549 H 240.058 5.22007 0.510793 0
M  V30 2550 H 241.532 5.0569 2.21318 0
M  V30 2551 H 242.009 3.44107 2.72923 0
M  V30 2552 H 242.615 4.08437 1.18572 0
M  V30 2553 N 240.93 -0.123565 1.57115 0
M  V30 2554 C 242.16 -0.845233 1.88519 0
M  V30 2555 C 242.568 -1.74168 0.739064 0
M  V30 2556 O 241.911 -1.81244 -0.299355 0
M  V30 2557 C 241.973 -1.73452 3.14888 0
M  V30 2558 C 241.637 -1.01285 4.45635 0
M  V30 2559 C 242.634 -0.355774 5.18681 0
M  V30 2560 C 240.319 -0.99538 4.92339 0
M  V30 2561 C 242.313 0.309114 6.3665 0
M  V30 2562 C 240 -0.32669 6.10226 0
M  V30 2563 C 240.998 0.324406 6.82229 0
M  V30 2564 O 240.686 0.982437 7.97874 0
M  V30 2565 H 240.418 -0.248534 0.628655 0
M  V30 2566 H 242.972 -0.113907 2.05084 0
M  V30 2567 H 241.202 -2.50737 2.94394 0
M  V30 2568 H 242.891 -2.33021 3.32349 0
M  V30 2569 H 243.657 -0.360918 4.83655 0
M  V30 2570 H 239.536 -1.49159 4.36202 0
M  V30 2571 H 243.08 0.8179 6.92789 0
M  V30 2572 H 238.977 -0.319294 6.4471 0
M  V30 2573 H 239.745 0.886454 8.13686 0
M  V30 2574 N 242.408 -1.52605 -0.393616 0
M  V30 2575 C 243.341 -1.71798 -1.50202 0
M  V30 2576 C 244.319 -0.565743 -1.52441 0
M  V30 2577 O 245.503 -0.794987 -1.70916 0
M  V30 2578 C 242.63 -1.7714 -2.88685 0
M  V30 2579 C 241.676 -2.98845 -3.04292 0
M  V30 2580 S 242.509 -4.58909 -2.75976 0
M  V30 2581 C 243.665 -4.6706 -4.1666 0
M  V30 2582 H 243.898 -2.65542 -1.33696 0
M  V30 2583 H 241.431 -1.42839 -0.586195 0
M  V30 2584 H 243.389 -1.80903 -3.68489 0
M  V30 2585 H 242.05 -0.844969 -3.02521 0
M  V30 2586 H 241.243 -2.99111 -4.05646 0
M  V30 2587 H 240.845 -2.9305 -2.32374 0
M  V30 2588 H 243.137 -4.45391 -5.10523 0
M  V30 2589 H 244.08 -5.6905 -4.21412 0
M  V30 2590 H 244.488 -3.95944 -4.02354 0
M  V30 2591 N 243.887 0.651787 -1.4349 0
M  V30 2592 C 245.133 1.41376 -1.45398 0
M  V30 2593 C 245.466 1.94041 -0.0784823 0
M  V30 2594 O 244.741 1.72379 0.900878 0
M  V30 2595 C 245.024 2.59414 -2.49752 0
M  V30 2596 C 244.877 2.12232 -3.96582 0
M  V30 2597 C 246.196 3.61626 -2.50827 0
M  V30 2598 H 243.315 0.512719 -0.529422 0
M  V30 2599 H 245.957 0.738796 -1.75048 0
M  V30 2600 H 244.107 3.16997 -2.246 0
M  V30 2601 H 245.779 1.59639 -4.32797 0
M  V30 2602 H 244.022 1.43592 -4.09346 0
M  V30 2603 H 244.693 2.9712 -4.65214 0
M  V30 2604 H 247.169 3.13805 -2.7325 0
M  V30 2605 H 246.045 4.41766 -3.25783 0
M  V30 2606 H 246.306 4.14314 -1.5426 0
M  V30 2607 N 245.365 1.30045 0.890287 0
M  V30 2608 C 246.275 1.17885 2.02831 0
M  V30 2609 C 247.291 0.0999609 1.73713 0
M  V30 2610 O 248.467 0.313867 1.98939 0
M  V30 2611 C 245.532 0.866079 3.35708 0
M  V30 2612 C 244.593 2.02979 3.78283 0
M  V30 2613 C 243.826 1.73184 5.0482 0
M  V30 2614 O 244.049 0.657237 5.66601 0
M  V30 2615 O 242.983 2.58267 5.43674 0
M  V30 2616 H 246.809 2.13474 2.16015 0
M  V30 2617 H 244.394 1.09587 1.01543 0
M  V30 2618 H 246.276 0.706623 4.15433 0
M  V30 2619 H 244.951 -0.0599443 3.23644 0
M  V30 2620 H 243.858 2.24454 2.99285 0
M  V30 2621 H 245.191 2.93734 3.94944 0
M  V30 2622 N 246.843 -1.10192 1.12674 0
M  V30 2623 C 248.091 -1.81845 0.881861 0
M  V30 2624 C 248.412 -1.85737 -0.593867 0
M  V30 2625 O 247.682 -1.33724 -1.4316 0
M  V30 2626 H 246.262 -0.673432 0.323261 0
M  V30 2627 H 248.924 -1.33316 1.42172 0
M  V30 2628 H 248.02 -2.85288 1.2656 0
M  V30 2629 N 248.321 -0.919034 -1.28029 0
M  V30 2630 C 249.569 -0.553838 -1.94363 0
M  V30 2631 C 249.89 0.906357 -1.72656 0
M  V30 2632 O 249.16 1.64143 -1.0693 0
M  V30 2633 H 247.74 -0.201834 -0.719216 0
M  V30 2634 H 250.402 -1.16954 -1.55909 0
M  V30 2635 H 249.498 -0.752758 -3.02886 0
M  V30 2636 N 249.799 1.42003 -0.683588 0
M  V30 2637 C 251.047 2.01015 -0.209101 0
M  V30 2638 C 251.368 1.54365 1.19149 0
M  V30 2639 O 250.638 0.769083 1.80172 0
M  V30 2640 H 249.218 0.743294 -0.074315 0
M  V30 2641 H 251.88 1.73798 -0.882066 0
M  V30 2642 H 250.976 3.11343 -0.2172 0
M  V30 2643 N 251.277 0.427512 1.51691 0
M  V30 2644 C 252.502 -0.143601 2.06902 0
M  V30 2645 C 252.927 -1.36536 1.29382 0
M  V30 2646 O 252.285 -1.78289 0.329043 0
M  V30 2647 C 252.333 -0.454207 3.57728 0
M  V30 2648 O 251.437 -1.54228 3.82475 0
M  V30 2649 H 250.778 -0.00617128 0.663971 0
M  V30 2650 H 253.308 0.606014 1.95419 0
M  V30 2651 H 253.318 -0.707525 4.01818 0
M  V30 2652 H 251.993 0.438812 4.13579 0
M  V30 2653 H 250.57 -1.2797 3.50254 0
M  V30 2654 N 252.755 -1.56801 0.158532 0
M  V30 2655 C 253.98 -2.01295 -0.499516 0
M  V30 2656 C 254.405 -1.03799 -1.56867 0
M  V30 2657 O 253.763 -0.0155162 -1.81293 0
M  V30 2658 C 253.811 -3.44469 -1.06647 0
M  V30 2659 O 252.915 -3.50012 -2.18095 0
M  V30 2660 H 252.256 -0.652884 -0.12099 0
M  V30 2661 H 254.786 -2.02958 0.258661 0
M  V30 2662 H 254.796 -3.8351 -1.39227 0
M  V30 2663 H 253.471 -4.14932 -0.283581 0
M  V30 2664 H 252.048 -3.22822 -1.86656 0
M  V30 2665 N 254.233 0.115231 -1.57178 0
M  V30 2666 C 255.461 0.836437 -1.89239 0
M  V30 2667 C 255.876 1.73256 -0.750175 0
M  V30 2668 O 255.233 1.80357 0.278832 0
M  V30 2669 C 255.284 1.66671 -3.20785 0
M  V30 2670 O 255.005 0.806652 -4.3061 0
M  V30 2671 C 256.506 2.49274 -3.66575 0
M  V30 2672 H 253.726 0.240253 -0.626514 0
M  V30 2673 H 256.27 0.0984932 -2.04263 0
M  V30 2674 H 254.425 2.35737 -3.0742 0
M  V30 2675 H 254.839 1.37969 -5.06028 0
M  V30 2676 H 256.313 3.03055 -4.6137 0
M  V30 2677 H 256.79 3.26807 -2.93417 0
M  V30 2678 H 257.396 1.85443 -3.82741 0
M  V30 2679 N 255.711 1.52812 0.385517 0
M  V30 2680 C 256.644 1.72592 1.49289 0
M  V30 2681 C 257.622 0.573819 1.52138 0
M  V30 2682 O 258.806 0.80404 1.70492 0
M  V30 2683 C 255.933 1.78669 2.87741 0
M  V30 2684 C 254.979 3.00455 3.02703 0
M  V30 2685 S 255.812 4.60366 2.73538 0
M  V30 2686 C 256.968 4.69263 4.14177 0
M  V30 2687 H 257.201 2.66248 1.32285 0
M  V30 2688 H 254.734 1.43148 0.578611 0
M  V30 2689 H 256.692 1.82855 3.67524 0
M  V30 2690 H 255.353 0.861 3.02069 0
M  V30 2691 H 254.546 3.01258 4.04054 0
M  V30 2692 H 254.148 2.94278 2.30817 0
M  V30 2693 H 256.44 4.48092 5.08153 0
M  V30 2694 H 257.383 5.71276 4.18388 0
M  V30 2695 H 257.791 3.98072 4.00249 0
M  V30 2696 N 257.189 -0.644168 1.43834 0
M  V30 2697 C 258.152 -1.73857 1.49353 0
M  V30 2698 C 259.152 -1.56315 0.377112 0
M  V30 2699 O 260.342 -1.62048 0.639226 0
M  V30 2700 C 257.474 -3.12819 1.35488 0
M  V30 2701 H 258.667 -1.70342 2.46827 0
M  V30 2702 H 256.22 -0.856652 1.30733 0
M  V30 2703 H 256.955 -3.2194 0.390569 0
M  V30 2704 H 256.74 -3.26958 2.16428 0
M  V30 2705 H 258.23 -3.92606 1.42302 0
M  V30 2706 N 258.668 -1.30515 -0.883378 0
M  V30 2707 C 259.6 -1.12846 -1.99496 0
M  V30 2708 C 260.613 -0.0712571 -1.62644 0
M  V30 2709 O 261.802 -0.317432 -1.75655 0
M  V30 2710 C 258.902 -0.699123 -3.3161 0
M  V30 2711 C 258.075 -1.83842 -3.96889 0
M  V30 2712 C 257.134 -1.39737 -5.07307 0
M  V30 2713 O 256.16 -2.10485 -5.28852 0
M  V30 2714 N 257.362 -0.277279 -5.79837 0
M  V30 2715 H 260.127 -2.08585 -2.15203 0
M  V30 2716 H 257.688 -1.22672 -1.05656 0
M  V30 2717 H 259.68 -0.387044 -4.02845 0
M  V30 2718 H 258.25 0.166276 -3.12157 0
M  V30 2719 H 257.47 -2.31853 -3.18807 0
M  V30 2720 H 258.758 -2.60187 -4.37241 0
M  V30 2721 H 258.156 0.3122 -5.64838 0
M  V30 2722 H 256.713 -0.0246623 -6.51795 0
M  V30 2723 N 260.146 1.09593 -1.13257 0
M  V30 2724 C 261.109 2.14359 -0.811358 0
M  V30 2725 C 262.109 1.59808 0.178377 0
M  V30 2726 O 263.299 1.74132 -0.0484911 0
M  V30 2727 C 260.431 3.40269 -0.207276 0
M  V30 2728 H 261.624 2.44284 -1.73969 0
M  V30 2729 H 259.177 1.25102 -0.936973 0
M  V30 2730 H 259.912 3.15969 0.73036 0
M  V30 2731 H 259.697 3.81154 -0.919992 0
M  V30 2732 H 261.187 4.176 0.000667944 0
M  V30 2733 N 261.624 0.925811 1.2754 0
M  V30 2734 C 262.571 0.422045 2.26908 0
M  V30 2735 C 263.541 -0.510029 1.58076 0
M  V30 2736 O 264.726 -0.429599 1.85901 0
M  V30 2737 C 261.866 -0.320837 3.43605 0
M  V30 2738 C 260.979 0.64513 4.27156 0
M  V30 2739 C 260.114 -0.117405 5.3107 0
M  V30 2740 C 259.153 0.841391 6.0629 0
M  V30 2741 N 258.29 0.111604 7.02011 0
M  V30 2742 H 263.13 1.27441 2.69375 0
M  V30 2743 H 260.667 0.639697 1.32462 0
M  V30 2744 H 262.625 -0.76785 4.10073 0
M  V30 2745 H 261.255 -1.13745 3.02096 0
M  V30 2746 H 260.307 1.21067 3.6062 0
M  V30 2747 H 261.619 1.37797 4.79389 0
M  V30 2748 H 260.773 -0.624422 6.03478 0
M  V30 2749 H 259.512 -0.883219 4.79636 0
M  V30 2750 H 258.517 1.35967 5.32722 0
M  V30 2751 H 259.742 1.60696 6.59813 0
M  V30 2752 H 257.688 -0.635999 6.5291 0
M  V30 2753 H 257.605 0.784044 7.51923 0
M  V30 2754 H 258.873 -0.374823 7.78598 0
M  V30 2755 N 263.102 -1.41638 0.69111 0
M  V30 2756 C 264.518 -1.55435 0.362224 0
M  V30 2757 C 264.718 -1.66754 -1.13117 0
M  V30 2758 O 263.774 -1.64348 -1.91692 0
M  V30 2759 C 265.087 -2.79588 1.10684 0
M  V30 2760 C 266.635 -2.9338 1.09075 0
M  V30 2761 C 267.11 -4.20414 1.81703 0
M  V30 2762 N 268.601 -4.27362 1.7865 0
M  V30 2763 C 269.336 -5.24507 2.31689 0
M  V30 2764 N 268.832 -6.27708 2.93179 0
M  V30 2765 N 270.625 -5.16416 2.2197 0
M  V30 2766 H 262.776 -1.32536 1.65976 0
M  V30 2767 H 265.039 -0.639115 0.700168 0
M  V30 2768 H 264.745 -2.77419 2.16175 0
M  V30 2769 H 264.619 -3.70973 0.682545 0
M  V30 2770 H 267.006 -2.95067 0.0441238 0
M  V30 2771 H 267.087 -2.0318 1.55407 0
M  V30 2772 H 266.731 -4.19488 2.86343 0
M  V30 2773 H 266.661 -5.09578 1.32808 0
M  V30 2774 H 269.152 -3.53415 1.33815 0
M  V30 2775 H 269.465 -6.98217 3.31229 0
M  V30 2776 H 267.81 -6.28223 2.97255 0
M  V30 2777 H 271.001 -4.34716 1.73607 0
M  V30 2778 H 271.174 -5.91958 2.63609 0
M  V30 2779 N 264.58 -0.43555 -1.51462 0
M  V30 2780 C 265.826 0.123979 -2.03022 0
M  V30 2781 C 266.181 1.4054 -1.31401 0
M  V30 2782 O 265.474 1.86948 -0.419634 0
M  V30 2783 C 265.668 0.39942 -3.55161 0
M  V30 2784 C 265.497 -0.853754 -4.41521 0
M  V30 2785 C 264.267 -1.38675 -4.85898 0
M  V30 2786 C 266.465 -1.73939 -4.83994 0
M  V30 2787 N 264.447 -2.59265 -5.56466 0
M  V30 2788 C 265.818 -2.79135 -5.5361 0
M  V30 2789 C 267.873 -1.75402 -4.65981 0
M  V30 2790 C 266.576 -3.85737 -6.07124 0
M  V30 2791 C 268.602 -2.80938 -5.20411 0
M  V30 2792 C 267.964 -3.84854 -5.89972 0
M  V30 2793 H 264.063 0.00624887 -0.781975 0
M  V30 2794 H 266.647 -0.59582 -1.85359 0
M  V30 2795 H 264.818 1.08825 -3.72843 0
M  V30 2796 H 266.55 0.95015 -3.93388 0
M  V30 2797 H 263.305 -0.94094 -4.64159 0
M  V30 2798 H 263.729 -3.2041 -5.96378 0
M  V30 2799 H 268.371 -0.963926 -4.11665 0
M  V30 2800 H 266.089 -4.65586 -6.60496 0
M  V30 2801 H 269.675 -2.8301 -5.08327 0
M  V30 2802 H 268.555 -4.65176 -6.31333 0
M  V30 2803 N 266.058 1.56714 -0.166846 0
M  V30 2804 C 266.988 2.20754 0.760913 0
M  V30 2805 C 267.969 1.16178 1.24244 0
M  V30 2806 O 269.154 1.44592 1.29641 0
M  V30 2807 C 266.284 2.84478 1.99223 0
M  V30 2808 C 265.238 3.95053 1.64672 0
M  V30 2809 C 264.564 4.45805 2.95232 0
M  V30 2810 C 265.864 5.14865 0.878155 0
M  V30 2811 H 267.558 2.98537 0.22713 0
M  V30 2812 H 265.104 1.43596 0.107805 0
M  V30 2813 H 267.057 3.27951 2.64624 0
M  V30 2814 H 265.781 2.04056 2.55007 0
M  V30 2815 H 264.44 3.52228 1.01641 0
M  V30 2816 H 264.088 3.62181 3.49047 0
M  V30 2817 H 263.788 5.204 2.7287 0
M  V30 2818 H 265.312 4.91962 3.6167 0
M  V30 2819 H 266.726 5.55059 1.43466 0
M  V30 2820 H 265.123 5.95348 0.753738 0
M  V30 2821 H 266.193 4.84735 -0.126377 0
M  V30 2822 N 267.536 -0.106894 1.57237 0
M  V30 2823 C 268.766 -0.825191 1.89405 0
M  V30 2824 C 269.174 -1.73374 0.757496 0
M  V30 2825 O 268.517 -1.81552 -0.280115 0
M  V30 2826 C 268.579 -1.70102 3.1671 0
M  V30 2827 C 268.243 -0.965523 4.46684 0
M  V30 2828 C 269.24 -0.300741 5.19029 0
M  V30 2829 C 266.925 -0.943105 4.93367 0
M  V30 2830 C 268.919 0.376622 6.36286 0
M  V30 2831 C 266.606 -0.261949 6.10538 0
M  V30 2832 C 267.604 0.396748 6.81847 0
M  V30 2833 O 267.292 1.06701 7.96787 0
M  V30 2834 H 267.024 -0.241852 0.631255 0
M  V30 2835 H 269.578 -0.0921491 2.05193 0
M  V30 2836 H 267.808 -2.47601 2.97036 0
M  V30 2837 H 269.497 -2.29483 3.34802 0
M  V30 2838 H 270.263 -0.309599 4.84011 0
M  V30 2839 H 266.142 -1.44524 4.3776 0
M  V30 2840 H 269.686 0.891334 6.91882 0
M  V30 2841 H 265.583 -0.250896 6.45012 0
M  V30 2842 H 266.351 0.972707 8.127 0
M  V30 2843 N 269.014 -1.53014 -0.377408 0
M  V30 2844 C 269.946 -1.74884 -1.48149 0
M  V30 2845 C 270.959 -0.629433 -1.5014 0
M  V30 2846 O 272.148 -0.905416 -1.53833 0
M  V30 2847 C 269.248 -1.80299 -2.86959 0
M  V30 2848 C 268.421 -3.09776 -3.08801 0
M  V30 2849 C 267.48 -3.06586 -4.27658 0
M  V30 2850 O 266.506 -3.80419 -4.23403 0
M  V30 2851 N 267.708 -2.26578 -5.34455 0
M  V30 2852 H 270.473 -2.70147 -1.29771 0
M  V30 2853 H 268.034 -1.51646 -0.56703 0
M  V30 2854 H 270.026 -1.75657 -3.64591 0
M  V30 2855 H 268.596 -0.92372 -2.98641 0
M  V30 2856 H 267.816 -3.27815 -2.18931 0
M  V30 2857 H 269.104 -3.95366 -3.20255 0
M  V30 2858 H 268.502 -1.66081 -5.40771 0
M  V30 2859 H 267.059 -2.27766 -6.10709 0
M  V30 2860 N 270.492 0.636531 -1.44174 0
M  V30 2861 C 271.908 0.954104 -1.27941 0
M  V30 2862 C 272.108 2.0039 -0.211248 0
M  V30 2863 O 271.164 2.49236 0.404695 0
M  V30 2864 C 272.477 1.4225 -2.64925 0
M  V30 2865 C 274.025 1.53827 -2.72592 0
M  V30 2866 C 274.5 2.04053 -4.10032 0
M  V30 2867 N 275.991 2.11331 -4.12182 0
M  V30 2868 C 276.726 2.51352 -5.15374 0
M  V30 2869 N 276.222 2.90549 -6.2893 0
M  V30 2870 N 278.015 2.51438 -5.02728 0
M  V30 2871 H 270.166 -0.0578386 -2.12321 0
M  V30 2872 H 272.429 0.0367406 -0.947288 0
M  V30 2873 H 272.135 0.725466 -3.44136 0
M  V30 2874 H 272.009 2.39451 -2.9145 0
M  V30 2875 H 274.396 2.22628 -1.93702 0
M  V30 2876 H 274.477 0.550154 -2.49814 0
M  V30 2877 H 274.121 1.35848 -4.89395 0
M  V30 2878 H 274.051 3.03726 -4.30184 0
M  V30 2879 H 276.542 1.83745 -3.30222 0
M  V30 2880 H 276.855 3.19884 -7.03487 0
M  V30 2881 H 275.2 2.88313 -6.32377 0
M  V30 2882 H 278.391 2.20203 -4.13072 0
M  V30 2883 H 278.564 2.82304 -5.83274 0
M  V30 2884 N 271.97 1.30982 0.876444 0
M  V30 2885 C 273.381 1.18277 1.44456 0
M  V30 2886 C 273.732 -0.213265 1.95037 0
M  V30 2887 O 272.857 -1.11057 1.85729 0
M  V30 2888 C 273.452 2.1411 2.62569 0
M  V30 2889 C 272.011 2.05358 3.15444 0
M  V30 2890 C 271.158 2.03706 1.88146 0
M  V30 2891 H 274.109 1.43127 0.685584 0
M  V30 2892 H 274.13 1.72692 3.39054 0
M  V30 2893 H 273.642 3.15706 2.25724 0
M  V30 2894 H 271.743 1.06934 3.56926 0
M  V30 2895 H 271.856 2.94156 3.78166 0
M  V30 2896 H 270.22 1.48629 2.06837 0
M  V30 2897 H 271.003 3.07047 1.53547 0
M  V30 2898 N 273.449 -1.08991 1.13837 0
M  V30 2899 C 274.381 -2.15606 0.777612 0
M  V30 2900 C 275.394 -1.61533 -0.202739 0
M  V30 2901 O 276.583 -1.78491 0.0181055 0
M  V30 2902 C 273.683 -3.3864 0.132623 0
M  V30 2903 C 272.856 -4.22115 1.1462 0
M  V30 2904 C 271.915 -5.23564 0.526074 0
M  V30 2905 O 270.941 -5.56678 1.18735 0
M  V30 2906 N 272.143 -5.76266 -0.699866 0
M  V30 2907 H 274.908 -2.47159 1.69506 0
M  V30 2908 H 272.469 -1.24747 1.03198 0
M  V30 2909 H 274.461 -4.03626 -0.29459 0
M  V30 2910 H 273.031 -3.04938 -0.687849 0
M  V30 2911 H 272.251 -3.53199 1.75055 0
M  V30 2912 H 273.539 -4.74709 1.83109 0
M  V30 2913 H 272.937 -5.51585 -1.25581 0
M  V30 2914 H 271.494 -6.42963 -1.06968 0
M  V30 2915 N 274.927 -0.932562 -1.27047 0
M  V30 2916 C 275.89 -0.440064 -2.24936 0
M  V30 2917 C 276.89 0.444071 -1.54547 0
M  V30 2918 O 278.08 0.244465 -1.72476 0
M  V30 2919 C 275.212 0.36678 -3.38921 0
M  V30 2920 H 276.405 -1.305 -2.70018 0
M  V30 2921 H 273.958 -0.713707 -1.39054 0
M  V30 2922 H 274.693 1.25033 -2.99228 0
M  V30 2923 H 274.478 -0.267204 -3.91188 0
M  V30 2924 H 275.968 0.701567 -4.11665 0
M  V30 2925 N 276.405 1.4127 -0.698611 0
M  V30 2926 C 277.63 2.06024 -0.238512 0
M  V30 2927 C 278.055 1.5224 1.10475 0
M  V30 2928 O 277.413 0.650623 1.69223 0
M  V30 2929 C 277.461 3.59988 -0.209952 0
M  V30 2930 O 276.565 4.04282 0.814235 0
M  V30 2931 H 275.906 0.653829 -0.115775 0
M  V30 2932 H 278.436 1.8098 -0.954326 0
M  V30 2933 H 278.446 4.07979 -0.0418436 0
M  V30 2934 H 277.121 3.98503 -1.1903 0
M  V30 2935 H 275.698 3.6779 0.615234 0
M  V30 2936 N 277.883 0.443576 1.51229 0
M  V30 2937 C 278.833 -0.382787 2.24764 0
M  V30 2938 C 279.817 -0.984836 1.27239 0
M  V30 2939 O 281.009 -0.901943 1.52296 0
M  V30 2940 C 278.138 -1.47989 3.09765 0
M  V30 2941 C 277.224 -0.886931 4.14722 0
M  V30 2942 N 277.615 -0.0237103 5.05794 0
M  V30 2943 C 275.913 -1.15385 4.30816 0
M  V30 2944 C 276.614 0.309971 5.80874 0
M  V30 2945 N 275.59 -0.307989 5.42727 0
M  V30 2946 H 279.392 0.282624 2.92538 0
M  V30 2947 H 276.906 0.256027 1.60369 0
M  V30 2948 H 278.903 -2.08482 3.61027 0
M  V30 2949 H 277.563 -2.14758 2.43535 0
M  V30 2950 H 278.574 0.34318 5.16762 0
M  V30 2951 H 275.251 -1.81857 3.75812 0
M  V30 2952 H 276.641 1.01279 6.64223 0
M  V30 2953 N 279.361 -1.56624 0.175154 0
M  V30 2954 C 280.293 -2.15333 -0.785128 0
M  V30 2955 C 281.306 -1.1099 -1.19101 0
M  V30 2956 O 282.495 -1.38162 -1.13019 0
M  V30 2957 C 279.595 -2.68427 -2.06882 0
M  V30 2958 C 278.768 -3.97466 -1.8259 0
M  V30 2959 C 277.827 -4.35585 -2.95215 0
M  V30 2960 O 276.853 -5.03389 -2.65684 0
M  V30 2961 N 278.055 -3.97457 -4.23094 0
M  V30 2962 H 280.82 -2.98359 -0.283187 0
M  V30 2963 H 278.381 -1.61898 -0.00749817 0
M  V30 2964 H 280.373 -2.90924 -2.81328 0
M  V30 2965 H 278.943 -1.89968 -2.48256 0
M  V30 2966 H 278.163 -3.83307 -0.920287 0
M  V30 2967 H 279.451 -4.81736 -1.63733 0
M  V30 2968 H 278.849 -3.42878 -4.49945 0
M  V30 2969 H 277.406 -4.24947 -4.9423 0
M  V30 2970 N 280.839 0.0985539 -1.57292 0
M  V30 2971 C 281.769 1.12064 -2.04851 0
M  V30 2972 C 282.75 1.41981 -0.936767 0
M  V30 2973 O 283.935 1.52071 -1.20781 0
M  V30 2974 C 281.065 2.44144 -2.47004 0
M  V30 2975 C 280.019 2.28643 -3.6181 0
M  V30 2976 C 279.345 3.65869 -3.89929 0
M  V30 2977 C 280.645 1.72986 -4.92822 0
M  V30 2978 H 282.339 0.724979 -2.9049 0
M  V30 2979 H 279.885 0.34729 -1.39749 0
M  V30 2980 H 281.838 3.15914 -2.78884 0
M  V30 2981 H 280.562 2.85639 -1.5836 0
M  V30 2982 H 279.221 1.59318 -3.30172 0
M  V30 2983 H 278.869 4.04885 -2.98458 0
M  V30 2984 H 278.569 3.56344 -4.67218 0
M  V30 2985 H 280.093 4.39112 -4.2428 0
M  V30 2986 H 281.507 2.34593 -5.23105 0
M  V30 2987 H 279.904 1.74229 -5.74251 0
M  V30 2988 H 280.974 0.689007 -4.7998 0
M  V30 2989 N 282.317 1.53212 0.369288 0
M  V30 2990 C 283.247 1.82365 1.45826 0
M  V30 2991 C 284.228 0.676907 1.56051 0
M  V30 2992 O 285.413 0.926401 1.70679 0
M  V30 2993 C 282.543 2.01023 2.83208 0
M  V30 2994 C 281.497 3.1678 2.8781 0
M  V30 2995 C 280.823 3.20724 4.27832 0
M  V30 2996 C 282.123 4.55447 2.55667 0
M  V30 2997 H 283.817 2.73559 1.21678 0
M  V30 2998 H 281.363 1.3163 0.583911 0
M  V30 2999 H 283.316 2.20001 3.59413 0
M  V30 3000 H 282.04 1.06536 3.08736 0
M  V30 3001 H 280.699 2.97616 2.14056 0
M  V30 3002 H 280.347 2.23882 4.50429 0
M  V30 3003 H 280.047 3.98496 4.31827 0
M  V30 3004 H 281.571 3.41881 5.05915 0
M  V30 3005 H 282.985 4.74611 3.21586 0
M  V30 3006 H 281.382 5.35432 2.70984 0
M  V30 3007 H 282.452 4.60812 1.5093 0
M  V30 3008 N 283.795 -0.628877 1.44509 0
M  V30 3009 C 285.211 -0.947305 1.28446 0
M  V30 3010 C 285.411 -2.00275 0.221872 0
M  V30 3011 O 284.467 -2.49447 -0.391471 0
M  V30 3012 C 285.78 -1.40843 2.65676 0
M  V30 3013 C 287.328 -1.52379 2.73404 0
M  V30 3014 C 287.803 -2.01875 4.11109 0
M  V30 3015 N 289.294 -2.09142 4.13296 0
M  V30 3016 C 290.029 -2.48615 5.16699 0
M  V30 3017 N 289.525 -2.87209 6.30462 0
M  V30 3018 N 291.318 -2.48768 5.04054 0
M  V30 3019 H 283.469 0.0690977 2.12288 0
M  V30 3020 H 285.732 -0.0317164 0.947469 0
M  V30 3021 H 285.438 -0.707206 3.44516 0
M  V30 3022 H 285.312 -2.37902 2.92716 0
M  V30 3023 H 287.699 -2.21598 1.9488 0
M  V30 3024 H 287.78 -0.536898 2.50102 0
M  V30 3025 H 287.424 -1.3325 4.90109 0
M  V30 3026 H 287.354 -3.0144 4.31789 0
M  V30 3027 H 289.845 -1.81991 3.31191 0
M  V30 3028 H 290.158 -3.16149 7.05174 0
M  V30 3029 H 288.503 -2.84955 6.33897 0
M  V30 3030 H 291.694 -2.18009 4.14234 0
M  V30 3031 H 291.867 -2.79207 5.84763 0
M  V30 3032 N 285.273 -1.31445 -0.869486 0
M  V30 3033 C 286.522 -1.20517 -1.61736 0
M  V30 3034 C 286.835 0.235341 -1.94179 0
M  V30 3035 O 288.041 0.466312 -2.67465 0
M  V30 3036 C 286.497 -2.10982 -2.91573 0
M  V30 3037 C 286.105 -3.60032 -2.66611 0
M  V30 3038 C 287.849 -2.08856 -3.69567 0
M  V30 3039 C 285.756 -4.42503 -3.92358 0
M  V30 3040 H 284.686 -0.447493 -0.606849 0
M  V30 3041 H 287.337 -1.56303 -0.96133 0
M  V30 3042 H 285.719 -1.68095 -3.58553 0
M  V30 3043 H 286.893 -4.11167 -2.08035 0
M  V30 3044 H 285.208 -3.64139 -2.0197 0
M  V30 3045 H 287.805 -2.67716 -4.62852 0
M  V30 3046 H 288.148 -1.07582 -4.02159 0
M  V30 3047 H 288.681 -2.49945 -3.09471 0
M  V30 3048 H 285.42 -5.44533 -3.64916 0
M  V30 3049 H 284.94 -3.96125 -4.50383 0
M  V30 3050 H 286.619 -4.54741 -4.60238 0
M  V30 3051 N 286.751 1.08385 -1.14413 0
M  V30 3052 C 287.681 2.17321 -0.854044 0
M  V30 3053 C 288.662 1.69024 0.191049 0
M  V30 3054 O 289.847 1.94141 0.0476779 0
M  V30 3055 C 286.977 3.45719 -0.330983 0
M  V30 3056 C 285.931 4.07409 -1.31155 0
M  V30 3057 C 285.257 5.30762 -0.64778 0
M  V30 3058 C 286.557 4.48665 -2.67388 0
M  V30 3059 H 288.251 2.41845 -1.76498 0
M  V30 3060 H 285.797 1.16233 -0.850051 0
M  V30 3061 H 287.75 4.21241 -0.115645 0
M  V30 3062 H 286.474 3.2075 0.615381 0
M  V30 3063 H 285.133 3.33919 -1.51306 0
M  V30 3064 H 284.781 5.02078 0.304398 0
M  V30 3065 H 284.481 5.72992 -1.30207 0
M  V30 3066 H 286.005 6.08998 -0.441972 0
M  V30 3067 H 287.419 5.15364 -2.51143 0
M  V30 3068 H 285.816 5.01814 -3.29093 0
M  V30 3069 H 286.886 3.60543 -3.24248 0
M  V30 3070 N 288.23 0.939286 1.26551 0
M  V30 3071 C 289.458 0.602536 1.97932 0
M  V30 3072 C 289.873 -0.82206 1.69964 0
M  V30 3073 O 289.23 -1.54789 0.966784 0
M  V30 3074 C 289.281 0.832946 3.51773 0
M  V30 3075 O 289.002 2.20151 3.78768 0
M  V30 3076 C 290.503 0.506483 4.40397 0
M  V30 3077 H 287.723 0.227248 0.631347 0
M  V30 3078 H 290.267 1.25948 1.61113 0
M  V30 3079 H 288.422 0.222644 3.8676 0
M  V30 3080 H 288.836 2.26013 4.73306 0
M  V30 3081 H 290.31 0.718333 5.47306 0
M  V30 3082 H 290.787 -0.558451 4.35635 0
M  V30 3083 H 291.393 1.09543 4.10951 0
M  V30 3084 N 289.708 -1.40897 0.706093 0
M  V30 3085 C 290.985 -1.94868 0.169099 0
M  V30 3086 C 291.365 -1.64485 -1.32318 0
M  V30 3087 O 290.713 -0.95744 -2.07474 0
M  V30 3088 C 290.923 -3.45798 0.471654 0
M  V30 3089 C 292.271 -4.22663 0.405127 0
M  V30 3090 O 293.295 -3.53865 0.407168 0
M  V30 3091 O 292.154 -5.45216 0.374383 0
M  V30 3092 H 289.248 -0.82673 0.0211352 0
M  V30 3093 H 291.794 -1.50558 0.782976 0
M  V30 3094 H 290.566 -3.61235 1.50416 0
M  V30 3095 H 290.189 -3.97225 -0.172666 0
M  V30 3096 N 291.186 -0.45159 -1.50991 0
M  V30 3097 C 292.149 0.341117 -2.26647 0
M  V30 3098 C 293.149 0.937422 -1.30649 0
M  V30 3099 O 294.339 0.809644 -1.54241 0
M  V30 3100 C 291.471 1.48398 -3.06905 0
M  V30 3101 H 292.664 -0.322117 -2.98165 0
M  V30 3102 H 290.217 -0.205122 -1.54948 0
M  V30 3103 H 290.952 2.18284 -2.39838 0
M  V30 3104 H 290.737 1.06241 -3.77432 0
M  V30 3105 H 292.227 2.04367 -3.64176 0
M  V30 3106 N 292.664 1.56529 -0.183458 0
M  V30 3107 C 293.594 2.21549 0.737456 0
M  V30 3108 C 294.575 1.17489 1.23005 0
M  V30 3109 O 295.76 1.45959 1.281 0
M  V30 3110 C 292.89 2.86575 1.96194 0
M  V30 3111 C 291.844 3.96778 1.60473 0
M  V30 3112 C 291.17 4.48911 2.90487 0
M  V30 3113 C 292.47 5.15767 0.823497 0
M  V30 3114 H 294.164 2.98761 0.195453 0
M  V30 3115 H 291.71 1.43702 0.0925686 0
M  V30 3116 H 293.663 3.30739 2.61131 0
M  V30 3117 H 292.387 2.06749 2.52828 0
M  V30 3118 H 291.046 3.53286 0.978997 0
M  V30 3119 H 290.694 3.65862 3.45186 0
M  V30 3120 H 290.394 5.23265 2.67335 0
M  V30 3121 H 291.918 4.95771 3.56432 0
M  V30 3122 H 293.332 5.56549 1.37571 0
M  V30 3123 H 291.729 5.96114 0.690551 0
M  V30 3124 H 292.799 4.84574 -0.177782 0
M  V30 3125 N 294.142 -0.090211 1.57342 0
M  V30 3126 C 295.388 -0.793982 1.86611 0
M  V30 3127 C 295.721 -1.78142 0.773252 0
M  V30 3128 O 294.996 -1.93271 -0.218304 0
M  V30 3129 C 295.279 -1.51839 3.26523 0
M  V30 3130 C 295.132 -0.548609 4.46442 0
M  V30 3131 C 296.451 -2.46779 3.64401 0
M  V30 3132 H 293.57 -0.287186 0.678744 0
M  V30 3133 H 296.212 -0.0575076 1.89913 0
M  V30 3134 H 294.362 -2.14617 3.23839 0
M  V30 3135 H 296.034 0.0725513 4.61243 0
M  V30 3136 H 294.277 0.137614 4.33582 0
M  V30 3137 H 294.948 -1.09271 5.41076 0
M  V30 3138 H 297.424 -1.94089 3.68061 0
M  V30 3139 H 296.3 -2.94479 4.63221 0
M  V30 3140 H 296.561 -3.30758 2.93346 0
M  V30 3141 N 295.62 -1.53406 -0.361157 0
M  V30 3142 C 297.031 -1.61442 -0.937728 0
M  V30 3143 C 297.382 -0.48461 -1.90121 0
M  V30 3144 O 296.507 0.388312 -2.12888 0
M  V30 3145 C 297.102 -2.92624 -1.70753 0
M  V30 3146 C 295.661 -3.02981 -2.23337 0
M  V30 3147 C 294.808 -2.5677 -1.04712 0
M  V30 3148 H 297.759 -1.58083 -0.139816 0
M  V30 3149 H 297.78 -2.80675 -2.56908 0
M  V30 3150 H 297.292 -3.74834 -1.00604 0
M  V30 3151 H 295.393 -2.25368 -2.96715 0
M  V30 3152 H 295.506 -4.0814 -2.50916 0
M  V30 3153 H 293.87 -2.11752 -1.41539 0
M  V30 3154 H 294.653 -3.41402 -0.360539 0
M  V30 3155 N 297.098 0.621204 -1.44841 0
M  V30 3156 C 298.328 1.40548 -1.51426 0
M  V30 3157 C 298.736 1.88673 -0.141083 0
M  V30 3158 O 298.079 1.62053 0.865128 0
M  V30 3159 C 298.141 2.65325 -2.42576 0
M  V30 3160 C 297.805 2.3893 -3.89566 0
M  V30 3161 C 298.802 2.00138 -4.79834 0
M  V30 3162 C 296.487 2.52263 -4.3436 0
M  V30 3163 C 298.481 1.75021 -6.129 0
M  V30 3164 C 296.168 2.2676 -5.67471 0
M  V30 3165 C 297.166 1.88199 -6.56559 0
M  V30 3166 O 296.854 1.62986 -7.87204 0
M  V30 3167 H 296.586 0.437122 -0.515655 0
M  V30 3168 H 299.14 0.765987 -1.90583 0
M  V30 3169 H 297.37 3.31947 -1.98364 0
M  V30 3170 H 299.059 3.27347 -2.39998 0
M  V30 3171 H 299.825 1.89386 -4.46495 0
M  V30 3172 H 295.704 2.81246 -3.65269 0
M  V30 3173 H 299.248 1.44848 -6.82396 0
M  V30 3174 H 295.145 2.37125 -6.00368 0
M  V30 3175 H 295.913 1.7715 -7.991 0
M  V30 3176 N 298.576 1.31904 0.862503 0
M  V30 3177 C 299.506 1.22782 1.98612 0
M  V30 3178 C 300.487 0.113362 1.69722 0
M  V30 3179 O 301.672 0.299218 1.91881 0
M  V30 3180 C 298.802 0.942058 3.34279 0
M  V30 3181 C 297.756 2.0169 3.77499 0
M  V30 3182 C 297.082 1.58369 5.10709 0
M  V30 3183 C 298.382 3.43096 3.93805 0
M  V30 3184 H 300.076 2.16788 2.06502 0
M  V30 3185 H 297.622 1.04366 0.992154 0
M  V30 3186 H 299.575 0.864818 4.1243 0
M  V30 3187 H 298.299 -0.0336603 3.26583 0
M  V30 3188 H 296.958 2.08416 3.01593 0
M  V30 3189 H 296.606 0.595628 4.99461 0
M  V30 3190 H 296.306 2.30279 5.40597 0
M  V30 3191 H 297.83 1.52067 5.91361 0
M  V30 3192 H 299.244 3.39003 4.62331 0
M  V30 3193 H 297.641 4.13288 4.35101 0
M  V30 3194 H 298.711 3.83334 2.96957 0
M  V30 3195 N 300.054 -1.07777 1.14986 0
M  V30 3196 C 301.3 -1.80557 0.923422 0
M  V30 3197 C 301.633 -1.86298 -0.548337 0
M  V30 3198 O 300.908 -1.34354 -1.40639 0
M  V30 3199 C 301.191 -3.25839 1.53299 0
M  V30 3200 C 301.044 -3.28269 3.07505 0
M  V30 3201 C 302.363 -4.22991 1.21518 0
M  V30 3202 H 299.482 -0.655493 0.336894 0
M  V30 3203 H 302.124 -1.26144 1.42083 0
M  V30 3204 H 300.274 -3.72306 1.10999 0
M  V30 3205 H 301.946 -2.90079 3.58681 0
M  V30 3206 H 300.189 -2.67355 3.4162 0
M  V30 3207 H 300.86 -4.30691 3.45266 0
M  V30 3208 H 303.336 -3.84894 1.581 0
M  V30 3209 H 302.212 -5.22945 1.66793 0
M  V30 3210 H 302.473 -4.41904 0.131505 0
M  V30 3211 N 301.532 -0.945985 -1.26051 0
M  V30 3212 C 302.78 -0.594941 -1.93145 0
M  V30 3213 C 303.101 0.86953 -1.7454 0
M  V30 3214 O 302.371 1.61838 -1.10387 0
M  V30 3215 H 300.951 -0.217044 -0.714773 0
M  V30 3216 H 303.613 -1.20235 -1.53393 0
M  V30 3217 H 302.709 -0.816835 -3.01221 0
M  V30 3218 N 303.011 1.40521 -0.713556 0
M  V30 3219 C 303.943 2.29191 -0.0203126 0
M  V30 3220 C 304.956 1.45723 0.725864 0
M  V30 3221 O 306.145 1.69033 0.573581 0
M  V30 3222 C 303.245 3.2395 0.995486 0
M  V30 3223 C 302.418 4.36262 0.315256 0
M  V30 3224 C 301.477 5.11474 1.23616 0
M  V30 3225 O 300.503 5.64606 0.721719 0
M  V30 3226 N 301.705 5.20638 2.56743 0
M  V30 3227 H 304.47 2.89327 -0.781652 0
M  V30 3228 H 302.031 1.51869 -0.561022 0
M  V30 3229 H 304.023 3.71137 1.61368 0
M  V30 3230 H 302.593 2.64995 1.6582 0
M  V30 3231 H 301.813 3.91228 -0.483106 0
M  V30 3232 H 303.101 5.08558 -0.157004 0
M  V30 3233 H 302.499 4.7895 3.01037 0
M  V30 3234 H 301.056 5.71339 3.13712 0
M  V30 3235 N 304.489 0.459591 1.5075 0
M  V30 3236 C 305.735 -0.0994966 2.02556 0
M  V30 3237 C 306.068 -1.40399 1.3417 0
M  V30 3238 O 305.343 -1.88892 0.463683 0
M  V30 3239 C 305.626 -0.295242 3.58888 0
M  V30 3240 C 305.479 1.02947 4.37861 0
M  V30 3241 C 306.798 -1.05502 4.27267 0
M  V30 3242 H 303.917 -0.034686 0.736183 0
M  V30 3243 H 306.559 0.602938 1.8018 0
M  V30 3244 H 304.709 -0.893563 3.78084 0
M  V30 3245 H 306.381 1.66348 4.30263 0
M  V30 3246 H 304.624 1.62885 4.02058 0
M  V30 3247 H 305.295 0.846281 5.45474 0
M  V30 3248 H 307.771 -0.547993 4.12476 0
M  V30 3249 H 306.647 -1.16077 5.36486 0
M  V30 3250 H 306.908 -2.08875 3.89645 0
M  V30 3251 N 305.967 -1.56429 0.191757 0
M  V30 3252 C 307.213 -1.97777 -0.448554 0
M  V30 3253 C 307.546 -1.07847 -1.61501 0
M  V30 3254 O 306.821 -0.129774 -1.94067 0
M  V30 3255 C 307.104 -3.48362 -0.911906 0
M  V30 3256 C 306.957 -4.4907 0.256136 0
M  V30 3257 C 308.276 -4.02561 -1.77857 0
M  V30 3258 H 305.395 -0.719071 -0.161572 0
M  V30 3259 H 308.037 -1.87896 0.282007 0
M  V30 3260 H 306.187 -3.56914 -1.53442 0
M  V30 3261 H 307.859 -4.5256 0.893733 0
M  V30 3262 H 306.102 -4.24181 0.908436 0
M  V30 3263 H 306.773 -5.51889 -0.11053 0
M  V30 3264 H 309.249 -3.96767 -1.25359 0
M  V30 3265 H 308.125 -5.08301 -2.07174 0
M  V30 3266 H 308.386 -3.47616 -2.73158 0
M  V30 3267 N 307.445 0.0818655 -1.57387 0
M  V30 3268 C 308.408 1.08265 -2.02018 0
M  V30 3269 C 309.408 1.32183 -0.915664 0
M  V30 3270 O 310.598 1.28073 -1.18081 0
M  V30 3271 C 307.73 2.42871 -2.39221 0
M  V30 3272 H 308.923 0.698204 -2.91659 0
M  V30 3273 H 306.476 0.327303 -1.52835 0
M  V30 3274 H 307.211 2.86167 -1.52575 0
M  V30 3275 H 306.996 2.26855 -3.19811 0
M  V30 3276 H 308.486 3.14826 -2.74362 0
M  V30 3277 N 308.923 1.53595 0.353017 0
M  V30 3278 C 310.171 1.70049 1.09215 0
M  V30 3279 C 310.492 0.461406 1.89463 0
M  V30 3280 O 309.762 -0.524633 1.88744 0
M  V30 3281 H 308.342 0.626912 0.40619 0
M  V30 3282 H 311.004 1.90822 0.396585 0
M  V30 3283 H 310.1 2.56718 1.77488 0
M  V30 3284 N 310.401 -0.613514 1.45168 0
M  V30 3285 C 311.364 -1.7065 1.53007 0
M  V30 3286 C 312.364 -1.5548 0.410184 0
M  V30 3287 O 313.554 -1.60656 0.673455 0
M  V30 3288 C 310.686 -3.09875 1.42093 0
M  V30 3289 H 311.879 -1.65068 2.50385 0
M  V30 3290 H 309.432 -0.828728 1.32521 0
M  V30 3291 H 310.167 -3.21039 0.458769 0
M  V30 3292 H 309.952 -3.22293 2.23315 0
M  V30 3293 H 311.442 -3.895 1.50598 0
M  V30 3294 N 311.879 -1.3236 -0.855495 0
M  V30 3295 C 312.811 -1.17052 -1.97057 0
M  V30 3296 C 313.824 -0.10574 -1.62456 0
M  V30 3297 O 315.013 -0.354619 -1.74942 0
M  V30 3298 C 312.113 -0.769305 -3.30053 0
M  V30 3299 C 311.286 -1.9222 -3.929 0
M  V30 3300 C 310.345 -1.50466 -5.04228 0
M  V30 3301 O 309.371 -2.21655 -5.24269 0
M  V30 3302 N 310.573 -0.400209 -5.79119 0
M  V30 3303 H 313.338 -2.13103 -2.1073 0
M  V30 3304 H 310.899 -1.24885 -1.0303 0
M  V30 3305 H 312.891 -0.472407 -4.01933 0
M  V30 3306 H 311.461 0.100025 -3.1244 0
M  V30 3307 H 310.681 -2.38563 -3.13817 0
M  V30 3308 H 311.969 -2.69403 -4.31624 0
M  V30 3309 H 311.367 0.192319 -5.65373 0
M  V30 3310 H 309.924 -0.162912 -6.51596 0
M  V30 3311 N 313.357 1.07166 -1.15556 0
M  V30 3312 C 314.32 2.12589 -0.856644 0
M  V30 3313 C 315.32 1.6015 0.14444 0
M  V30 3314 O 316.51 1.7399 -0.0854163 0
M  V30 3315 C 313.642 3.39753 -0.279405 0
M  V30 3316 H 314.835 2.40539 -1.79112 0
M  V30 3317 H 312.388 1.23086 -0.963298 0
M  V30 3318 H 313.123 3.17447 0.663174 0
M  V30 3319 H 312.908 3.79117 -1.00063 0
M  V30 3320 H 314.398 4.17507 -0.0879113 0
M  V30 3321 N 314.835 0.952656 1.25548 0
M  V30 3322 C 315.765 0.489287 2.28316 0
M  V30 3323 C 316.746 -0.463359 1.63667 0
M  V30 3324 O 317.931 -0.36274 1.90782 0
M  V30 3325 C 315.061 -0.235603 3.465 0
M  V30 3326 C 314.015 0.631593 4.23314 0
M  V30 3327 C 313.341 -0.223923 5.34231 0
M  V30 3328 C 314.641 1.90871 4.86174 0
M  V30 3329 H 316.335 1.34822 2.67326 0
M  V30 3330 H 313.881 0.649728 1.28509 0
M  V30 3331 H 315.834 -0.570882 4.17515 0
M  V30 3332 H 314.558 -1.12877 3.06474 0
M  V30 3333 H 313.217 0.949929 3.54079 0
M  V30 3334 H 312.865 -1.11678 4.90446 0
M  V30 3335 H 312.565 0.35299 5.86539 0
M  V30 3336 H 314.089 -0.554214 6.0808 0
M  V30 3337 H 315.503 1.63997 5.49343 0
M  V30 3338 H 313.9 2.43112 5.4865 0
M  V30 3339 H 314.97 2.61304 4.08471 0
M  V30 3340 N 316.313 -1.40141 0.720998 0
M  V30 3341 C 317.245 -2.29177 0.0324669 0
M  V30 3342 C 318.258 -1.46105 -0.718126 0
M  V30 3343 O 319.447 -1.69335 -0.564608 0
M  V30 3344 C 316.547 -3.24473 -0.978292 0
M  V30 3345 C 315.72 -4.36423 -0.292115 0
M  V30 3346 C 314.779 -5.12122 -1.20901 0
M  V30 3347 O 313.805 -5.64981 -0.691766 0
M  V30 3348 N 315.007 -5.21992 -2.53978 0
M  V30 3349 H 317.772 -2.88909 0.796984 0
M  V30 3350 H 315.333 -1.51569 0.569068 0
M  V30 3351 H 317.325 -3.71987 -1.59398 0
M  V30 3352 H 315.895 -2.65871 -1.64413 0
M  V30 3353 H 315.115 -3.90967 0.503847 0
M  V30 3354 H 316.403 -5.08467 0.183971 0
M  V30 3355 H 315.801 -4.8054 -2.98493 0
M  V30 3356 H 314.358 -5.72995 -3.10677 0
M  V30 3357 N 317.792 -0.46758 -1.50504 0
M  V30 3358 C 318.722 0.318381 -2.31319 0
M  V30 3359 C 319.703 0.993564 -1.38066 0
M  V30 3360 O 320.888 0.991411 -1.66987 0
M  V30 3361 C 318.018 1.40275 -3.17711 0
M  V30 3362 C 316.972 0.849373 -4.19487 0
M  V30 3363 C 316.298 2.03177 -4.94594 0
M  V30 3364 C 317.598 -0.136942 -5.2212 0
M  V30 3365 H 319.292 -0.356106 -2.97275 0
M  V30 3366 H 316.838 -0.172703 -1.42961 0
M  V30 3367 H 318.791 1.96004 -3.73042 0
M  V30 3368 H 317.515 2.10596 -2.49634 0
M  V30 3369 H 316.174 0.314076 -3.65252 0
M  V30 3370 H 315.822 2.72187 -4.22993 0
M  V30 3371 H 315.522 1.66774 -5.63436 0
M  V30 3372 H 317.046 2.59403 -5.52759 0
M  V30 3373 H 318.46 0.331056 -5.72343 0
M  V30 3374 H 316.857 -0.41507 -5.98663 0
M  V30 3375 H 317.927 -1.06398 -4.73083 0
M  V30 3376 N 319.27 1.56325 -0.20005 0
M  V30 3377 C 320.517 1.97719 0.437411 0
M  V30 3378 C 320.845 1.08709 1.61284 0
M  V30 3379 O 320.1 0.127261 1.95286 0
M  V30 3380 C 320.399 3.4495 0.935103 0
M  V30 3381 C 320.065 4.5072 -0.12749 0
M  V30 3382 C 318.727 4.79368 -0.419451 0
M  V30 3383 C 321.079 5.14268 -0.847231 0
M  V30 3384 C 318.407 5.68854 -1.43604 0
M  V30 3385 C 320.759 6.04852 -1.85301 0
M  V30 3386 C 319.423 6.31855 -2.15211 0
M  V30 3387 H 318.693 0.723507 0.16006 0
M  V30 3388 H 321.34 1.89166 -0.298056 0
M  V30 3389 H 319.645 3.50599 1.74894 0
M  V30 3390 H 321.342 3.74337 1.43781 0
M  V30 3391 H 317.932 4.28458 0.11023 0
M  V30 3392 H 322.116 4.92222 -0.634901 0
M  V30 3393 H 317.372 5.88047 -1.67364 0
M  V30 3394 H 321.546 6.53152 -2.41591 0
M  V30 3395 H 319.173 7.00994 -2.94129 0
M  V30 3396 N 320.748 -0.0735177 1.57428 0
M  V30 3397 C 321.658 -1.10547 2.06922 0
M  V30 3398 C 322.674 -1.42506 0.998402 0
M  V30 3399 O 323.85 -1.52717 1.31299 0
M  V30 3400 C 320.915 -2.40019 2.50184 0
M  V30 3401 C 319.976 -2.15046 3.71556 0
M  V30 3402 C 319.209 -3.38345 4.12745 0
M  V30 3403 O 319.432 -4.47399 3.53822 0
M  V30 3404 O 318.366 -3.2666 5.05546 0
M  V30 3405 H 322.192 -0.715013 2.95163 0
M  V30 3406 H 319.777 -0.287531 1.46607 0
M  V30 3407 H 321.659 -3.16218 2.78539 0
M  V30 3408 H 320.334 -2.78447 1.65072 0
M  V30 3409 H 319.241 -1.36558 3.48285 0
M  V30 3410 H 320.574 -1.81499 4.57514 0
M  V30 3411 N 322.226 -1.5378 -0.344866 0
M  V30 3412 C 323.451 -1.75211 -1.10977 0
M  V30 3413 C 323.876 -0.48936 -1.81623 0
M  V30 3414 O 323.234 0.557925 -1.72502 0
M  V30 3415 C 323.282 -2.93147 -2.09993 0
M  V30 3416 O 322.386 -2.63203 -3.17487 0
M  V30 3417 H 321.727 -0.581241 -0.321021 0
M  V30 3418 H 324.257 -2.00738 -0.395661 0
M  V30 3419 H 324.267 -3.19898 -2.53237 0
M  V30 3420 H 322.942 -3.84731 -1.5797 0
M  V30 3421 H 321.519 -2.47336 -2.79069 0
M  V30 3422 N 323.704 0.605807 -1.45491 0
M  V30 3423 C 324.654 1.71074 -1.50724 0
M  V30 3424 C 325.638 1.5658 -0.37033 0
M  V30 3425 O 326.83 1.65887 -0.617299 0
M  V30 3426 C 323.959 3.0983 -1.47852 0
M  V30 3427 C 323.045 3.29704 -2.66751 0
M  V30 3428 N 323.436 3.19831 -3.91844 0
M  V30 3429 C 321.734 3.60579 -2.62486 0
M  V30 3430 C 322.435 3.41083 -4.71208 0
M  V30 3431 N 321.411 3.65157 -4.02693 0
M  V30 3432 H 325.213 1.61937 -2.45263 0
M  V30 3433 H 322.727 0.80912 -1.40808 0
M  V30 3434 H 324.724 3.89101 -1.49686 0
M  V30 3435 H 323.384 3.20115 -0.543714 0
M  V30 3436 H 324.395 2.98194 -4.23439 0
M  V30 3437 H 321.072 3.7769 -1.77922 0
M  V30 3438 H 322.462 3.38828 -5.80211 0
M  V30 3439 N 325.182 1.32811 0.848464 0
M  V30 3440 C 326.145 1.22194 1.9391 0
M  V30 3441 C 327.145 0.143404 1.60159 0
M  V30 3442 O 328.335 0.394253 1.6968 0
M  V30 3443 C 325.467 0.88067 3.29328 0
M  V30 3444 H 326.66 2.19127 2.04752 0
M  V30 3445 H 324.213 1.16731 1.0394 0
M  V30 3446 H 324.948 -0.0865776 3.24184 0
M  V30 3447 H 324.733 1.66052 3.55203 0
M  V30 3448 H 326.223 0.830871 4.09251 0
M  V30 3449 N 326.66 -1.06551 1.16123 0
M  V30 3450 C 327.908 -1.78947 0.939267 0
M  V30 3451 C 328.229 -1.87532 -0.534476 0
M  V30 3452 O 327.499 -1.38211 -1.38833 0
M  V30 3453 H 326.079 -0.662807 0.344523 0
M  V30 3454 H 328.741 -1.28725 1.46342 0
M  V30 3455 H 327.837 -2.81117 1.35572 0
M  V30 3456 N 328.138 -0.959301 -1.25041 0
M  V30 3457 C 329.088 -0.453888 -2.23436 0
M  V30 3458 C 330.072 0.459461 -1.542 0
M  V30 3459 O 331.264 0.291752 -1.74579 0
M  V30 3460 C 328.393 0.262667 -3.42294 0
M  V30 3461 C 327.479 -0.669022 -4.1879 0
M  V30 3462 N 327.87 -1.80267 -4.72586 0
M  V30 3463 C 326.168 -0.47814 -4.4343 0
M  V30 3464 C 326.869 -2.38475 -5.3057 0
M  V30 3465 N 325.845 -1.67078 -5.17287 0
M  V30 3466 H 329.647 -1.319 -2.6264 0
M  V30 3467 H 327.161 -0.817358 -1.40332 0
M  V30 3468 H 329.158 0.641911 -4.11929 0
M  V30 3469 H 327.818 1.12432 -3.04613 0
M  V30 3470 H 328.829 -2.18442 -4.69578 0
M  V30 3471 H 325.506 0.340249 -4.16111 0
M  V30 3472 H 326.896 -3.34094 -5.8295 0
M  V30 3473 N 329.616 1.39756 -0.72842 0
M  V30 3474 C 330.546 2.33289 -0.0991354 0
M  V30 3475 C 331.527 1.53568 0.731489 0
M  V30 3476 O 332.712 1.81987 0.677807 0
M  V30 3477 C 329.842 3.3763 0.813834 0
M  V30 3478 C 328.796 4.2791 0.0878663 0
M  V30 3479 C 328.122 5.22894 1.11741 0
M  V30 3480 C 329.422 5.11314 -1.06563 0
M  V30 3481 H 331.116 2.86163 -0.880408 0
M  V30 3482 H 328.662 1.37591 -0.424819 0
M  V30 3483 H 330.615 4.0201 1.26355 0
M  V30 3484 H 329.339 2.83181 1.62715 0
M  V30 3485 H 327.998 3.65 -0.342159 0
M  V30 3486 H 327.646 4.64744 1.92412 0
M  V30 3487 H 327.346 5.84143 0.636477 0
M  V30 3488 H 328.87 5.90151 1.56697 0
M  V30 3489 H 330.284 5.69076 -0.694671 0
M  V30 3490 H 328.681 5.81671 -1.47577 0
M  V30 3491 H 329.751 4.46534 -1.89038 0
M  V30 3492 N 331.094 0.475555 1.50254 0
M  V30 3493 C 332.342 -0.077738 2.0195 0
M  V30 3494 C 332.663 -1.39813 1.35931 0
M  V30 3495 O 331.933 -1.89249 0.506123 0
M  V30 3496 H 330.513 -0.031719 0.746326 0
M  V30 3497 H 333.175 0.626995 1.84539 0
M  V30 3498 H 332.271 -0.225995 3.11281 0
M  V30 3499 N 332.573 -1.56217 0.208337 0
M  V30 3500 C 333.984 -1.84243 -0.301904 0
M  V30 3501 C 334.335 -1.12939 -1.60434 0
M  V30 3502 O 333.46 -0.39461 -2.12772 0
M  V30 3503 C 334.055 -3.34231 -0.554543 0
M  V30 3504 C 332.614 -3.62621 -1.00912 0
M  V30 3505 C 331.761 -2.77224 -0.064933 0
M  V30 3506 H 334.712 -1.52712 0.431833 0
M  V30 3507 H 334.733 -3.5372 -1.40223 0
M  V30 3508 H 334.245 -3.86099 0.393561 0
M  V30 3509 H 332.346 -3.16197 -1.97104 0
M  V30 3510 H 332.459 -4.7071 -0.892674 0
M  V30 3511 H 330.823 -2.48256 -0.56929 0
M  V30 3512 H 331.606 -3.31887 0.877851 0
M  V30 3513 N 334.051 0.0651679 -1.57465 0
M  V30 3514 C 334.983 1.10359 -2.00882 0
M  V30 3515 C 335.996 1.346 -0.915788 0
M  V30 3516 O 337.185 1.32723 -1.1936 0
M  V30 3517 C 334.285 2.45312 -2.33828 0
M  V30 3518 C 333.458 2.40934 -3.65061 0
M  V30 3519 C 332.517 3.58047 -3.85602 0
M  V30 3520 O 331.543 3.39175 -4.57109 0
M  V30 3521 N 332.745 4.78637 -3.28462 0
M  V30 3522 H 335.51 0.733807 -2.90578 0
M  V30 3523 H 333.071 0.253719 -1.599 0
M  V30 3524 H 335.063 3.22314 -2.44737 0
M  V30 3525 H 333.633 2.74267 -1.49988 0
M  V30 3526 H 332.853 1.49273 -3.64844 0
M  V30 3527 H 334.141 2.35117 -4.51218 0
M  V30 3528 H 333.539 4.96872 -2.70433 0
M  V30 3529 H 332.096 5.53127 -3.44809 0
M  V30 3530 N 335.529 1.53961 0.336706 0
M  V30 3531 C 336.459 1.85417 1.41925 0
M  V30 3532 C 337.44 0.709856 1.5458 0
M  V30 3533 O 338.625 0.962396 1.68676 0
M  V30 3534 C 335.755 2.06985 2.78881 0
M  V30 3535 C 334.709 3.22813 2.81026 0
M  V30 3536 C 334.035 3.29727 4.20932 0
M  V30 3537 C 335.335 4.60767 2.45949 0
M  V30 3538 H 337.029 2.76079 1.15848 0
M  V30 3539 H 334.575 1.32839 0.555859 0
M  V30 3540 H 336.528 2.27575 3.54665 0
M  V30 3541 H 335.252 1.13061 3.06406 0
M  V30 3542 H 333.911 3.0209 2.07695 0
M  V30 3543 H 333.559 2.33385 4.45579 0
M  V30 3544 H 333.259 4.07566 4.23277 0
M  V30 3545 H 334.783 3.52536 4.98549 0
M  V30 3546 H 336.197 4.81325 3.11446 0
M  V30 3547 H 334.594 5.4106 2.59566 0
M  V30 3548 H 335.664 4.6391 1.41122 0
M  V30 3549 N 337.007 -0.598083 1.45811 0
M  V30 3550 C 338.254 -1.35681 1.50323 0
M  V30 3551 C 338.582 -1.9393 0.148739 0
M  V30 3552 O 337.837 -1.76094 -0.853787 0
M  V30 3553 C 338.136 -2.51669 2.53766 0
M  V30 3554 C 337.802 -2.11508 3.98215 0
M  V30 3555 C 336.464 -2.0027 4.37545 0
M  V30 3556 C 338.816 -1.80308 4.89018 0
M  V30 3557 C 336.144 -1.56067 5.65562 0
M  V30 3558 C 338.496 -1.37589 6.17456 0
M  V30 3559 C 337.16 -1.24916 6.55708 0
M  V30 3560 H 336.43 -0.496492 0.550069 0
M  V30 3561 H 339.077 -0.675052 1.79207 0
M  V30 3562 H 337.382 -3.25225 2.18486 0
M  V30 3563 H 339.079 -3.09895 2.54492 0
M  V30 3564 H 335.669 -2.21185 3.67117 0
M  V30 3565 H 339.853 -1.87884 4.59362 0
M  V30 3566 H 335.109 -1.44886 5.93985 0
M  V30 3567 H 339.283 -1.12495 6.87254 0
M  V30 3568 H 336.91 -0.904386 7.54801 0
M  V30 3569 N 338.485 -1.33259 -0.841409 0
M  V30 3570 C 339.433 -1.23279 -1.97244 0
M  V30 3571 C 340.427 -0.134706 -1.68864 0
M  V30 3572 O 341.633 -0.298501 -1.77508 0
M  V30 3573 H 338.008 -0.382497 -0.647457 0
M  V30 3574 H 339.979 -2.18906 -2.02787 0
M  V30 3575 C 338.728 -0.986268 -3.33419 0
M  V30 3576 H 338.051 -1.82347 -3.55794 0
M  V30 3577 H 339.491 -0.956728 -4.13065 0
M  V30 3578 C 337.95 0.310842 -3.35463 0
M  V30 3579 O 338.48 1.31838 -3.79449 0
M  V30 3580 N 336.686 0.337485 -2.88634 0
M  V30 3581 H 336.233 -0.482967 -2.53032 0
M  V30 3582 H 336.191 1.20518 -2.90384 0
M  V30 3583 N 339.963 1.05934 -1.16686 0
M  V30 3584 C 340.91 2.13499 -0.876748 0
M  V30 3585 C 341.88 1.65162 0.176299 0
M  V30 3586 O 343.065 1.90757 0.0407143 0
M  V30 3587 C 340.205 3.42912 -0.387967 0
M  V30 3588 C 339.318 4.04964 -1.50426 0
M  V30 3589 C 338.453 5.22266 -0.970125 0
M  V30 3590 C 337.492 5.76309 -2.06238 0
M  V30 3591 N 336.629 6.84922 -1.54356 0
M  V30 3592 H 341.469 2.37654 -1.7979 0
M  V30 3593 H 339.006 1.16598 -0.896843 0
M  V30 3594 H 340.964 4.17111 -0.086186 0
M  V30 3595 H 339.594 3.18963 0.496235 0
M  V30 3596 H 338.646 3.28277 -1.92193 0
M  V30 3597 H 339.958 4.41122 -2.32836 0
M  V30 3598 H 339.112 6.03506 -0.621743 0
M  V30 3599 H 337.851 4.87564 -0.115377 0
M  V30 3600 H 336.856 4.93704 -2.41942 0
M  V30 3601 H 338.081 6.13062 -2.92115 0
M  V30 3602 H 336.027 6.52131 -0.711406 0
M  V30 3603 H 335.944 7.20043 -2.30379 0
M  V30 3604 H 337.212 7.69832 -1.22387 0
M  V30 3605 N 341.441 0.965919 1.2453 0
M  V30 3606 C 342.688 0.626831 1.92554 0
M  V30 3607 C 343.016 -0.837739 1.75534 0
M  V30 3608 O 342.271 -1.61793 1.10098 0
M  V30 3609 C 342.57 0.945428 3.44669 0
M  V30 3610 C 342.236 2.39785 3.81856 0
M  V30 3611 C 340.898 2.79483 3.91718 0
M  V30 3612 C 343.25 3.34055 4.00071 0
M  V30 3613 C 340.578 4.12496 4.1721 0
M  V30 3614 C 342.93 4.66694 4.27059 0
M  V30 3615 C 341.594 5.06172 4.3514 0
M  V30 3616 H 340.864 0.229374 0.704605 0
M  V30 3617 H 343.511 1.21707 1.4785 0
M  V30 3618 H 341.816 0.272926 3.90848 0
M  V30 3619 H 343.513 0.661484 3.95507 0
M  V30 3620 H 340.103 2.08003 3.74743 0
M  V30 3621 H 344.287 3.04571 3.91855 0
M  V30 3622 H 339.543 4.42709 4.21685 0
M  V30 3623 H 343.717 5.3971 4.40097 0
M  V30 3624 H 341.344 6.09262 4.54646 0
M  V30 3625 N 342.919 -1.39368 0.735821 0
M  V30 3626 C 343.882 -2.2896 0.104874 0
M  V30 3627 C 344.882 -1.46347 -0.666274 0
M  V30 3628 O 346.072 -1.67014 -0.49517 0
M  V30 3629 C 343.204 -3.29857 -0.860656 0
M  V30 3630 H 344.397 -2.86259 0.894205 0
M  V30 3631 H 341.95 -1.48029 0.501704 0
M  V30 3632 H 342.685 -2.77615 -1.67631 0
M  V30 3633 H 342.47 -3.9087 -0.310327 0
M  V30 3634 H 343.96 -3.96893 -1.29867 0
M  V30 3635 N 344.397 -0.483516 -1.5 0
M  V30 3636 C 345.327 0.293829 -2.31644 0
M  V30 3637 C 346.308 0.978864 -1.39112 0
M  V30 3638 O 347.493 0.973644 -1.68029 0
M  V30 3639 C 344.623 1.36897 -3.19181 0
M  V30 3640 C 343.577 0.804833 -4.20365 0
M  V30 3641 C 342.903 1.9792 -4.96721 0
M  V30 3642 C 344.203 -0.192313 -5.21946 0
M  V30 3643 H 345.897 -0.387616 -2.9688 0
M  V30 3644 H 343.443 -0.187856 -1.42769 0
M  V30 3645 H 345.396 1.92037 -3.751 0
M  V30 3646 H 344.12 2.07936 -2.51853 0
M  V30 3647 H 342.779 0.275319 -3.65565 0
M  V30 3648 H 342.427 2.67686 -4.25856 0
M  V30 3649 H 342.127 1.60789 -5.65173 0
M  V30 3650 H 343.651 2.53526 -5.55479 0
M  V30 3651 H 345.065 0.270333 -5.72662 0
M  V30 3652 H 343.462 -0.478543 -5.98189 0
M  V30 3653 H 344.532 -1.11409 -4.71928 0
M  V30 3654 N 345.875 1.56104 -0.216619 0
M  V30 3655 C 347.286 1.844 0.292128 0
M  V30 3656 C 347.637 1.13788 1.59833 0
M  V30 3657 O 346.762 0.405888 2.12559 0
M  V30 3658 C 347.357 3.3452 0.53681 0
M  V30 3659 C 345.916 3.63151 0.989876 0
M  V30 3660 C 345.063 2.77255 0.0502302 0
M  V30 3661 H 348.014 1.52481 -0.439926 0
M  V30 3662 H 348.035 3.54459 1.38345 0
M  V30 3663 H 347.547 3.85885 -0.414031 0
M  V30 3664 H 345.648 3.17238 1.95425 0
M  V30 3665 H 345.761 4.71177 0.867698 0
M  V30 3666 H 344.125 2.48555 0.556117 0
M  V30 3667 H 344.908 3.31416 -0.89544 0
M  V30 3668 N 347.353 -0.0568162 1.57498 0
M  V30 3669 C 348.583 -0.764515 1.91934 0
M  V30 3670 C 348.991 -1.70877 0.81227 0
M  V30 3671 O 348.334 -1.82351 -0.222213 0
M  V30 3672 C 348.396 -1.5994 3.21962 0
M  V30 3673 C 348.06 -0.822925 4.4953 0
M  V30 3674 C 349.057 -0.135464 5.19723 0
M  V30 3675 C 346.742 -0.785666 4.96117 0
M  V30 3676 C 348.736 0.578861 6.34766 0
M  V30 3677 C 346.423 -0.0675784 6.11063 0
M  V30 3678 C 347.421 0.613471 6.80239 0
M  V30 3679 O 347.109 1.31996 7.92989 0
M  V30 3680 H 346.841 -0.221647 0.63863 0
M  V30 3681 H 349.395 -0.0268218 2.05382 0
M  V30 3682 H 347.625 -2.38026 3.04763 0
M  V30 3683 H 349.314 -2.18715 3.41934 0
M  V30 3684 H 350.08 -0.155458 4.84751 0
M  V30 3685 H 345.959 -1.30524 4.42136 0
M  V30 3686 H 349.503 1.111 6.88696 0
M  V30 3687 H 345.4 -0.0455636 6.45484 0
M  V30 3688 H 346.168 1.23077 8.09194 0
M  V30 3689 N 348.832 -1.54138 -0.328536 0
M  V30 3690 C 350.081 -1.71318 -1.06456 0
M  V30 3691 C 350.394 -0.491109 -1.89334 0
M  V30 3692 O 351.6 -0.54416 -2.65991 0
M  V30 3693 C 350.056 -3.03 -1.94214 0
M  V30 3694 C 349.664 -4.32595 -1.16471 0
M  V30 3695 C 351.408 -3.29544 -2.67583 0
M  V30 3696 C 349.315 -5.55341 -2.03347 0
M  V30 3697 H 348.245 -0.638429 -0.401155 0
M  V30 3698 H 350.896 -1.80633 -0.323106 0
M  V30 3699 H 349.278 -2.87579 -2.72239 0
M  V30 3700 H 350.452 -4.58766 -0.432525 0
M  V30 3701 H 348.767 -4.12777 -0.548063 0
M  V30 3702 H 351.364 -4.18444 -3.3288 0
M  V30 3703 H 351.707 -2.47206 -3.34955 0
M  V30 3704 H 352.24 -3.45809 -1.96623 0
M  V30 3705 H 348.979 -6.40268 -1.40491 0
M  V30 3706 H 348.499 -5.33397 -2.74313 0
M  V30 3707 H 350.178 -5.91557 -2.62049 0
M  V30 3708 N 350.31 0.590341 -1.46126 0
M  V30 3709 C 351.726 0.912917 -1.30912 0
M  V30 3710 C 351.926 1.99616 -0.274893 0
M  V30 3711 O 350.982 2.50397 0.325197 0
M  V30 3712 C 352.295 1.3375 -2.69317 0
M  V30 3713 C 353.843 1.45077 -2.77348 0
M  V30 3714 C 354.318 1.90904 -4.16317 0
M  V30 3715 N 355.809 1.9811 -4.18696 0
M  V30 3716 C 356.544 2.34828 -5.23109 0
M  V30 3717 N 356.04 2.70393 -6.37856 0
M  V30 3718 N 357.833 2.35317 -5.10473 0
M  V30 3719 H 349.984 -0.125358 -2.1203 0
M  V30 3720 H 352.247 0.00658481 -0.947977 0
M  V30 3721 H 351.953 0.615614 -3.4627 0
M  V30 3722 H 351.827 2.30058 -2.9892 0
M  V30 3723 H 354.214 2.16353 -2.00687 0
M  V30 3724 H 354.295 0.4704 -2.51438 0
M  V30 3725 H 353.939 1.20209 -4.9347 0
M  V30 3726 H 353.869 2.89886 -4.39629 0
M  V30 3727 H 356.36 1.73146 -3.359 0
M  V30 3728 H 356.673 2.97341 -7.13308 0
M  V30 3729 H 355.018 2.68048 -6.41229 0
M  V30 3730 H 358.209 2.0695 -4.19868 0
M  V30 3731 H 358.382 2.63605 -5.9196 0
M  V30 3732 N 351.788 1.33704 0.83433 0
M  V30 3733 C 353.065 1.16011 1.57483 0
M  V30 3734 C 353.445 -0.27176 2.09343 0
M  V30 3735 O 352.793 -1.27146 1.89858 0
M  V30 3736 C 353.003 2.20507 2.70514 0
M  V30 3737 C 354.351 2.54898 3.39577 0
M  V30 3738 O 355.375 2.19209 2.80759 0
M  V30 3739 O 354.234 3.16158 4.45765 0
M  V30 3740 H 351.328 0.448992 0.694503 0
M  V30 3741 H 353.874 1.453 0.876691 0
M  V30 3742 H 352.646 3.16667 2.29865 0
M  V30 3743 H 352.269 1.92329 3.47987 0
M  V30 3744 N 353.266 -1.05314 1.17247 0
M  V30 3745 C 354.512 -1.78557 0.961513 0
M  V30 3746 C 354.845 -1.87419 -0.508697 0
M  V30 3747 O 354.12 -1.37307 -1.37757 0
M  V30 3748 C 354.403 -3.22514 1.60176 0
M  V30 3749 C 354.256 -3.21673 3.14399 0
M  V30 3750 C 355.575 -4.20318 1.30463 0
M  V30 3751 H 352.694 -0.6482 0.350723 0
M  V30 3752 H 355.336 -1.23102 1.44727 0
M  V30 3753 H 353.486 -3.69867 1.18871 0
M  V30 3754 H 355.158 -2.82405 3.64753 0
M  V30 3755 H 353.401 -2.60048 3.47214 0
M  V30 3756 H 354.072 -4.23271 3.54324 0
M  V30 3757 H 356.548 -3.81454 1.66229 0
M  V30 3758 H 355.424 -5.19289 1.77848 0
M  V30 3759 H 355.685 -4.41526 0.22521 0
M  V30 3760 N 354.744 -0.972509 -1.24016 0
M  V30 3761 C 355.707 -0.511403 -2.23422 0
M  V30 3762 C 356.707 0.394679 -1.55881 0
M  V30 3763 O 357.897 0.189469 -1.73167 0
M  V30 3764 C 355.029 0.258769 -3.39916 0
M  V30 3765 H 356.222 -1.39024 -2.6573 0
M  V30 3766 H 353.775 -0.757585 -1.36713 0
M  V30 3767 H 354.51 1.1545 -3.03054 0
M  V30 3768 H 354.295 -0.391522 -3.9014 0
M  V30 3769 H 355.785 0.570244 -4.13688 0
M  V30 3770 N 356.222 1.38976 -0.743202 0
M  V30 3771 C 357.169 2.30544 -0.10861 0
M  V30 3772 C 358.139 1.49642 0.720869 0
M  V30 3773 O 359.324 1.78304 0.679142 0
M  V30 3774 C 356.464 3.36018 0.786496 0
M  V30 3775 C 355.577 4.31963 -0.0564849 0
M  V30 3776 C 354.712 5.24506 0.840657 0
M  V30 3777 C 353.751 6.121 -0.00658363 0
M  V30 3778 N 352.888 6.96973 0.846943 0
M  V30 3779 H 357.728 2.8424 -0.895088 0
M  V30 3780 H 355.265 1.3995 -0.453048 0
M  V30 3781 H 357.223 3.95768 1.31999 0
M  V30 3782 H 355.853 2.83758 1.53887 0
M  V30 3783 H 354.905 3.73763 -0.707492 0
M  V30 3784 H 356.217 4.93703 -0.711229 0
M  V30 3785 H 355.371 5.89322 1.4417 0
M  V30 3786 H 354.11 4.63107 1.52916 0
M  V30 3787 H 353.115 5.46289 -0.620366 0
M  V30 3788 H 354.34 6.75565 -0.691992 0
M  V30 3789 H 352.286 6.38133 1.52059 0
M  V30 3790 H 352.203 7.5559 0.248864 0
M  V30 3791 H 353.471 7.6621 1.43328 0
M  V30 3792 N 357.7 0.491464 1.49741 0
M  V30 3793 C 358.632 -0.328609 2.26832 0
M  V30 3794 C 359.645 -0.939113 1.32983 0
M  V30 3795 O 360.834 -0.824067 1.58339 0
M  V30 3796 C 357.934 -1.47675 3.05033 0
M  V30 3797 C 357.107 -0.975305 4.26388 0
M  V30 3798 C 356.166 -1.99991 4.86714 0
M  V30 3799 O 355.192 -1.57229 5.47054 0
M  V30 3800 N 356.394 -3.32962 4.75517 0
M  V30 3801 H 359.159 0.332377 2.97851 0
M  V30 3802 H 356.72 0.323441 1.58636 0
M  V30 3803 H 358.712 -2.15954 3.42266 0
M  V30 3804 H 357.282 -2.04206 2.36683 0
M  V30 3805 H 356.502 -0.117723 3.94024 0
M  V30 3806 H 357.79 -0.618531 5.05026 0
M  V30 3807 H 357.188 -3.70399 4.27576 0
M  V30 3808 H 355.745 -3.96982 5.16961 0
M  V30 3809 N 359.178 -1.55987 0.224894 0
M  V30 3810 C 360.424 -1.98684 -0.406502 0
M  V30 3811 C 360.757 -1.11248 -1.59177 0
M  V30 3812 O 360.032 -0.170909 -1.93748 0
M  V30 3813 C 360.315 -3.50218 -0.837808 0
M  V30 3814 C 360.168 -4.48426 0.351332 0
M  V30 3815 C 361.487 -4.06243 -1.69278 0
M  V30 3816 H 358.606 -0.722337 -0.146283 0
M  V30 3817 H 361.248 -1.87255 0.321799 0
M  V30 3818 H 359.398 -3.60089 -1.45837 0
M  V30 3819 H 361.07 -4.50562 0.989526 0
M  V30 3820 H 359.313 -4.22159 0.998207 0
M  V30 3821 H 359.984 -5.52 0.00655905 0
M  V30 3822 H 362.46 -3.99337 -1.16914 0
M  V30 3823 H 361.336 -5.12581 -1.96346 0
M  V30 3824 H 361.597 -3.53332 -2.65723 0
M  V30 3825 N 360.656 0.0484629 -1.57525 0
M  V30 3826 C 361.603 1.05504 -2.05275 0
M  V30 3827 C 362.573 1.37084 -0.937927 0
M  V30 3828 O 363.758 1.47754 -1.2072 0
M  V30 3829 C 360.898 2.35676 -2.52093 0
M  V30 3830 C 360.011 2.10423 -3.77288 0
M  V30 3831 C 359.146 3.34327 -4.12794 0
M  V30 3832 C 358.185 3.04542 -5.30962 0
M  V30 3833 N 357.322 4.20841 -5.61994 0
M  V30 3834 H 362.162 0.640885 -2.91027 0
M  V30 3835 H 359.699 0.304854 -1.43906 0
M  V30 3836 H 361.657 3.11709 -2.77297 0
M  V30 3837 H 360.287 2.7485 -1.69285 0
M  V30 3838 H 359.339 1.24976 -3.59284 0
M  V30 3839 H 360.651 1.84438 -4.63448 0
M  V30 3840 H 359.805 4.1874 -4.39024 0
M  V30 3841 H 358.544 3.63408 -3.25247 0
M  V30 3842 H 357.549 2.18528 -5.04505 0
M  V30 3843 H 358.774 2.76758 -6.20146 0
M  V30 3844 H 356.72 4.4991 -4.77406 0
M  V30 3845 H 356.637 3.98212 -6.42622 0
M  V30 3846 H 357.905 5.06184 -5.92789 0
M  V30 3847 N 362.134 1.5431 0.320358 0
M  V30 3848 C 363.097 1.83195 1.3774 0
M  V30 3849 C 364.097 0.703906 1.44575 0
M  V30 3850 O 365.287 0.972214 1.44546 0
M  V30 3851 C 362.419 1.99487 2.76438 0
M  V30 3852 H 363.612 2.77642 1.1338 0
M  V30 3853 H 361.165 1.46076 0.556012 0
M  V30 3854 H 361.9 1.07262 3.06048 0
M  V30 3855 H 361.685 2.81575 2.7287 0
M  V30 3856 H 363.175 2.23271 3.52902 0
M  V30 3857 N 363.613 -0.582584 1.46437 0
M  V30 3858 C 365.029 -0.905962 1.31394 0
M  V30 3859 C 365.229 -1.99468 0.285476 0
M  V30 3860 O 364.285 -2.50566 -0.311914 0
M  V30 3861 C 365.598 -1.3232 2.70022 0
M  V30 3862 C 367.146 -1.43604 2.78113 0
M  V30 3863 C 367.621 -1.88694 4.17323 0
M  V30 3864 N 369.112 -1.95887 4.19741 0
M  V30 3865 C 369.847 -2.32051 5.24347 0
M  V30 3866 N 369.343 -2.67006 6.39281 0
M  V30 3867 N 371.136 -2.32606 5.11713 0
M  V30 3868 H 363.287 0.1366 2.1196 0
M  V30 3869 H 365.55 -0.00155736 0.947999 0
M  V30 3870 H 365.256 -0.597242 3.46592 0
M  V30 3871 H 365.13 -2.28469 3.00136 0
M  V30 3872 H 367.517 -2.15286 2.01832 0
M  V30 3873 H 367.598 -0.457059 2.51684 0
M  V30 3874 H 367.242 -1.1759 4.941 0
M  V30 3875 H 367.172 -2.8755 4.4116 0
M  V30 3876 H 369.663 -1.71362 3.36814 0
M  V30 3877 H 369.976 -2.93554 7.14875 0
M  V30 3878 H 368.321 -2.64644 6.42642 0
M  V30 3879 H 371.512 -2.04721 4.2096 0
M  V30 3880 H 371.685 -2.60462 5.93349 0
M  V30 3881 N 365.091 -1.34144 -0.827227 0
M  V30 3882 C 366.021 -1.28005 -1.95287 0
M  V30 3883 C 367.002 -0.158321 -1.69362 0
M  V30 3884 O 368.187 -0.349987 -1.9102 0
M  V30 3885 C 365.317 -1.03036 -3.31664 0
M  V30 3886 C 364.271 -2.11628 -3.72019 0
M  V30 3887 C 363.597 -1.71854 -5.0633 0
M  V30 3888 C 364.897 -3.53417 -3.8457 0
M  V30 3889 H 366.591 -2.22187 -2.00682 0
M  V30 3890 H 364.137 -1.0696 -0.964135 0
M  V30 3891 H 366.09 -0.973863 -4.09993 0
M  V30 3892 H 364.814 -0.0529391 -3.26557 0
M  V30 3893 H 363.473 -2.16339 -2.95961 0
M  V30 3894 H 363.121 -0.727841 -4.97706 0
M  V30 3895 H 362.821 -2.44531 -5.34302 0
M  V30 3896 H 364.345 -1.67692 -5.87122 0
M  V30 3897 H 365.759 -3.51142 -4.5318 0
M  V30 3898 H 364.156 -4.24679 -4.2399 0
M  V30 3899 H 365.226 -3.91072 -2.86689 0
M  V30 3900 N 366.569 1.04691 -1.17803 0
M  V30 3901 C 367.985 1.29963 -0.926379 0
M  V30 3902 C 368.185 1.97251 0.411635 0
M  V30 3903 O 367.241 2.24922 1.14744 0
M  V30 3904 C 368.554 2.16447 -2.08737 0
M  V30 3905 C 370.102 2.29814 -2.12496 0
M  V30 3906 C 370.577 3.19661 -3.27995 0
M  V30 3907 N 372.068 3.27247 -3.27816 0
M  V30 3908 C 372.803 3.96906 -4.13827 0
M  V30 3909 N 372.299 4.6895 -5.09959 0
M  V30 3910 N 374.092 3.93122 -4.01761 0
M  V30 3911 H 366.243 0.594182 -2.0392 0
M  V30 3912 H 368.506 0.324649 -0.890678 0
M  V30 3913 H 368.212 1.74304 -3.05469 0
M  V30 3914 H 368.086 3.17103 -2.04268 0
M  V30 3915 H 370.473 2.71196 -1.16347 0
M  V30 3916 H 370.554 1.2877 -2.21025 0
M  V30 3917 H 370.198 2.78991 -4.24413 0
M  V30 3918 H 370.128 4.20722 -3.16703 0
M  V30 3919 H 372.619 2.75921 -2.58217 0
M  V30 3920 H 372.932 5.19679 -5.71974 0
M  V30 3921 H 371.277 4.67875 -5.13924 0
M  V30 3922 H 374.468 3.35967 -3.2595 0
M  V30 3923 H 374.641 4.47139 -4.6901 0
M  V30 3924 N 368.047 0.979072 1.23499 0
M  V30 3925 C 368.957 0.526431 2.28617 0
M  V30 3926 C 369.973 -0.418126 1.68901 0
M  V30 3927 O 371.149 -0.288372 1.99325 0
M  V30 3928 C 368.214 -0.165235 3.46306 0
M  V30 3929 C 367.275 0.82056 4.21385 0
M  V30 3930 C 366.508 0.161807 5.33455 0
M  V30 3931 O 366.731 -1.04742 5.60701 0
M  V30 3932 O 365.665 0.859708 5.95729 0
M  V30 3933 H 369.491 1.4006 2.69475 0
M  V30 3934 H 367.076 0.746643 1.29405 0
M  V30 3935 H 368.958 -0.553287 4.17752 0
M  V30 3936 H 367.633 -1.01419 3.07402 0
M  V30 3937 H 366.54 1.25929 3.52268 0
M  V30 3938 H 367.873 1.63828 4.64135 0
M  V30 3939 N 369.525 -1.3858 0.750561 0
M  V30 3940 C 370.488 -2.28836 0.129152 0
M  V30 3941 C 371.488 -1.47045 -0.650714 0
M  V30 3942 O 372.678 -1.6753 -0.477428 0
M  V30 3943 C 369.81 -3.30751 -0.825622 0
M  V30 3944 H 371.003 -2.85294 0.924516 0
M  V30 3945 H 368.556 -1.47489 0.517376 0
M  V30 3946 H 369.291 -2.79378 -1.64677 0
M  V30 3947 H 369.076 -3.91177 -0.268852 0
M  V30 3948 H 370.566 -3.98249 -1.2565 0
M  V30 3949 N 371.003 -0.499398 -1.49478 0
M  V30 3950 C 372.251 0.0455996 -2.02049 0
M  V30 3951 C 372.572 1.37633 -1.38138 0
M  V30 3952 O 371.842 1.8842 -0.536166 0
M  V30 3953 H 370.422 0.0198416 -0.746736 0
M  V30 3954 H 373.084 -0.656274 -1.83519 0
M  V30 3955 H 372.18 0.176445 -3.11601 0
M  V30 3956 N 372.481 1.55866 -0.233164 0
M  V30 3957 C 373.411 2.23783 0.666599 0
M  V30 3958 C 374.392 1.21343 1.19205 0
M  V30 3959 O 375.577 1.4996 1.23392 0
M  V30 3960 C 372.707 2.92671 1.86978 0
M  V30 3961 C 371.661 4.01682 1.47768 0
M  V30 3962 C 370.987 4.57926 2.76058 0
M  V30 3963 C 372.287 5.18126 0.658993 0
M  V30 3964 H 373.981 2.99232 0.100306 0
M  V30 3965 H 371.527 1.43924 0.046804 0
M  V30 3966 H 373.48 3.3888 2.50476 0
M  V30 3967 H 372.204 2.14688 2.46123 0
M  V30 3968 H 370.863 3.56222 0.866106 0
M  V30 3969 H 370.511 3.76659 3.33372 0
M  V30 3970 H 370.211 5.31505 2.50552 0
M  V30 3971 H 371.735 5.06859 3.40479 0
M  V30 3972 H 373.149 5.60644 1.19795 0
M  V30 3973 H 371.546 5.98009 0.500552 0
M  V30 3974 H 372.616 4.83763 -0.331856 0
M  V30 3975 N 373.959 -0.0401083 1.57549 0
M  V30 3976 C 374.922 -1.02871 2.04817 0
M  V30 3977 C 375.922 -1.29708 0.950388 0
M  V30 3978 O 377.112 -1.24897 1.21435 0
M  V30 3979 C 374.244 -2.36443 2.45576 0
M  V30 3980 H 375.437 -0.620631 2.93408 0
M  V30 3981 H 372.99 -0.286667 1.53649 0
M  V30 3982 H 373.725 -2.82021 1.60108 0
M  V30 3983 H 373.51 -2.18296 3.25713 0
M  V30 3984 H 375 -3.07441 2.82612 0
M  V30 3985 N 375.437 -1.54477 -0.31217 0
M  V30 3986 C 376.848 -1.64344 -0.885891 0
M  V30 3987 C 377.199 -0.54485 -1.88483 0
M  V30 3988 O 376.324 0.320387 -2.14015 0
M  V30 3989 C 376.919 -2.97908 -1.61357 0
M  V30 3990 C 375.478 -3.09933 -2.13585 0
M  V30 3991 C 374.625 -2.59971 -0.964897 0
M  V30 3992 H 377.576 -1.58448 -0.0894528 0
M  V30 3993 H 377.597 -2.88706 -2.47848 0
M  V30 3994 H 377.109 -3.77845 -0.886277 0
M  V30 3995 H 375.21 -2.34694 -2.89395 0
M  V30 3996 H 375.323 -4.15916 -2.37804 0
M  V30 3997 H 373.687 -2.16147 -1.34731 0
M  V30 3998 H 374.47 -3.42376 -0.251742 0
M  V30 3999 N 376.915 0.57481 -1.46744 0
M  V30 4000 C 378.161 1.3347 -1.52688 0
M  V30 4001 C 378.494 1.93353 -0.181229 0
M  V30 4002 O 377.769 1.76912 0.808237 0
M  V30 4003 C 378.052 2.45811 -2.63152 0
M  V30 4004 C 377.905 1.90912 -4.07275 0
M  V30 4005 C 379.224 3.47822 -2.69644 0
M  V30 4006 H 376.343 0.483935 -0.555856 0
M  V30 4007 H 378.985 0.644968 -1.78718 0
M  V30 4008 H 377.135 3.04646 -2.41088 0
M  V30 4009 H 378.807 1.36473 -4.4065 0
M  V30 4010 H 377.05 1.21691 -4.16382 0
M  V30 4011 H 377.721 2.72042 -4.80309 0
M  V30 4012 H 380.197 2.9888 -2.895 0
M  V30 4013 H 379.073 4.23876 -3.48742 0
M  V30 4014 H 379.334 4.05555 -1.76005 0
M  V30 4015 N 378.394 1.34581 0.820102 0
M  V30 4016 C 379.805 1.24298 1.39309 0
M  V30 4017 C 380.156 -0.130351 1.95767 0
M  V30 4018 O 379.281 -1.0308 1.90272 0
M  V30 4019 C 379.876 2.25054 2.53251 0
M  V30 4020 C 378.435 2.18552 3.0645 0
M  V30 4021 C 377.582 2.11503 1.79337 0
M  V30 4022 H 380.533 1.45906 0.624262 0
M  V30 4023 H 380.554 1.86917 3.31425 0
M  V30 4024 H 380.066 3.24996 2.1213 0
M  V30 4025 H 378.167 1.21976 3.52069 0
M  V30 4026 H 378.28 3.0993 3.65349 0
M  V30 4027 H 376.644 1.57268 2.00347 0
M  V30 4028 H 377.427 3.13284 1.40386 0
M  V30 4029 N 379.872 -1.04064 1.18357 0
M  V30 4030 C 380.805 -2.11618 0.854 0
M  V30 4031 C 381.783 -1.61555 -0.184043 0
M  V30 4032 O 382.967 -1.88395 -0.0630048 0
M  V30 4033 C 380.094 -3.37574 0.27597 0
M  V30 4034 C 379.14 -4.06485 1.2912 0
M  V30 4035 S 379.973 -4.53543 2.84709 0
M  V30 4036 C 381.129 -5.82732 2.28417 0
M  V30 4037 H 381.362 -2.39247 1.76488 0
M  V30 4038 H 378.895 -1.16832 1.00944 0
M  V30 4039 H 380.853 -4.10468 -0.051026 0
M  V30 4040 H 379.514 -3.0806 -0.613028 0
M  V30 4041 H 378.707 -4.97024 0.835633 0
M  V30 4042 H 378.309 -3.39708 1.56443 0
M  V30 4043 H 380.601 -6.56677 1.66677 0
M  V30 4044 H 381.544 -6.33052 3.17256 0
M  V30 4045 H 381.952 -5.37838 1.71436 0
M  V30 4046 N 381.35 -0.985608 -1.22978 0
M  V30 4047 C 382.599 -0.652881 -1.90841 0
M  V30 4048 C 382.912 0.817842 -1.77681 0
M  V30 4049 O 384.118 1.26185 -2.40395 0
M  V30 4050 C 382.574 -1.11717 -3.42122 0
M  V30 4051 C 382.182 -2.6126 -3.63933 0
M  V30 4052 C 383.926 -0.85843 -4.1573 0
M  V30 4053 C 381.833 -3.0133 -5.08876 0
M  V30 4054 H 380.763 -0.240491 -0.714619 0
M  V30 4055 H 383.414 -1.1942 -1.39324 0
M  V30 4056 H 381.796 -0.504027 -3.92779 0
M  V30 4057 H 382.97 -3.27858 -3.23799 0
M  V30 4058 H 381.285 -2.84937 -3.03644 0
M  V30 4059 H 383.882 -1.13359 -5.22546 0
M  V30 4060 H 384.225 0.205461 -4.15793 0
M  V30 4061 H 384.758 -1.43341 -3.71077 0
M  V30 4062 H 381.497 -4.06864 -5.13947 0
M  V30 4063 H 381.017 -2.3943 -5.49939 0
M  V30 4064 H 382.696 -2.92224 -5.77247 0
M  V30 4065 N 382.828 1.3818 -0.7579 0
M  V30 4066 C 384.077 1.99261 -0.312744 0
M  V30 4067 C 384.39 1.60846 1.11301 0
M  V30 4068 O 385.596 2.14929 1.65885 0
M  V30 4069 C 384.052 3.56294 -0.50821 0
M  V30 4070 C 383.66 4.03657 -1.94333 0
M  V30 4071 C 385.404 4.24313 -0.125982 0
M  V30 4072 C 383.311 5.53347 -2.08712 0
M  V30 4073 H 382.241 0.745456 -0.113185 0
M  V30 4074 H 384.892 1.57889 -0.935056 0
M  V30 4075 H 383.274 3.95575 0.183353 0
M  V30 4076 H 384.448 3.75655 -2.66871 0
M  V30 4077 H 382.763 3.48376 -2.28086 0
M  V30 4078 H 385.36 5.34279 -0.212125 0
M  V30 4079 H 385.703 4.05962 0.921964 0
M  V30 4080 H 386.236 3.90285 -0.769563 0
M  V30 4081 H 382.975 5.76607 -3.11777 0
M  V30 4082 H 382.495 5.83078 -1.4064 0
M  V30 4083 H 384.174 6.19111 -1.87912 0
M  V30 4084 N 384.306 0.507319 1.49211 0
M  V30 4085 C 385.553 -0.0349529 2.0247 0
M  V30 4086 C 385.881 -1.36409 1.38647 0
M  V30 4087 O 385.136 -1.88841 0.513566 0
M  V30 4088 C 385.435 -0.229513 3.56662 0
M  V30 4089 C 385.101 1.02241 4.39156 0
M  V30 4090 C 383.763 1.36557 4.61417 0
M  V30 4091 C 386.115 1.85428 4.871 0
M  V30 4092 C 383.443 2.53999 5.28868 0
M  V30 4093 C 385.795 3.02028 5.55843 0
M  V30 4094 C 384.459 3.36717 5.76349 0
M  V30 4095 H 383.729 -0.0127902 0.74089 0
M  V30 4096 H 386.376 0.668756 1.79443 0
M  V30 4097 H 384.681 -1.0158 3.78403 0
M  V30 4098 H 386.378 -0.663641 3.9547 0
M  V30 4099 H 382.968 0.745124 4.22073 0
M  V30 4100 H 387.152 1.6023 4.69723 0
M  V30 4101 H 382.408 2.81105 5.42946 0
M  V30 4102 H 386.582 3.66808 5.91967 0
M  V30 4103 H 384.209 4.27821 6.28389 0
M  V30 4104 N 385.784 -1.5574 0.241426 0
M  V30 4105 C 386.747 -2.19877 -0.647063 0
M  V30 4106 C 387.747 -1.16642 -1.10686 0
M  V30 4107 O 388.937 -1.41757 -1.01245 0
M  V30 4108 C 386.069 -2.83797 -1.88871 0
M  V30 4109 H 387.262 -2.99772 -0.087574 0
M  V30 4110 H 384.815 -1.56298 -0.00813574 0
M  V30 4111 H 385.55 -2.07824 -2.48957 0
M  V30 4112 H 385.335 -3.59414 -1.56728 0
M  V30 4113 H 386.825 -3.32898 -2.52129 0
M  V30 4114 N 387.262 0.0317525 -1.57568 0
M  V30 4115 C 388.209 1.0332 -2.06382 0
M  V30 4116 C 389.179 1.36082 -0.952414 0
M  V30 4117 O 390.364 1.46466 -1.2228 0
M  V30 4118 C 387.504 2.32989 -2.54578 0
M  V30 4119 C 386.617 2.0641 -3.79498 0
M  V30 4120 C 385.752 3.2993 -4.16317 0
M  V30 4121 C 384.791 2.98893 -5.34162 0
M  V30 4122 N 383.928 4.14857 -5.66426 0
M  V30 4123 H 388.768 0.609982 -2.9169 0
M  V30 4124 H 386.305 0.289573 -1.44222 0
M  V30 4125 H 388.263 3.0875 -2.80587 0
M  V30 4126 H 386.893 2.73039 -1.7219 0
M  V30 4127 H 385.945 1.21158 -3.6059 0
M  V30 4128 H 387.257 1.79513 -4.65378 0
M  V30 4129 H 386.411 4.1406 -4.4344 0
M  V30 4130 H 385.15 3.59938 -3.29083 0
M  V30 4131 H 384.155 2.13164 -5.06795 0
M  V30 4132 H 385.38 2.70165 -6.23047 0
M  V30 4133 H 383.326 4.44821 -4.82151 0
M  V30 4134 H 383.243 3.91374 -6.4681 0
M  V30 4135 H 384.511 4.99868 -5.98124 0
M  V30 4136 N 388.74 1.54641 0.303973 0
M  V30 4137 C 390.017 1.64455 1.05896 0
M  V30 4138 C 390.397 0.490923 2.05312 0
M  V30 4139 O 389.745 -0.512685 2.22674 0
M  V30 4140 C 389.955 3.02331 1.74347 0
M  V30 4141 C 391.303 3.59045 2.26653 0
M  V30 4142 O 392.327 3.04764 1.84384 0
M  V30 4143 O 391.186 4.54081 3.04093 0
M  V30 4144 H 388.28 0.666729 0.489287 0
M  V30 4145 H 390.826 1.66986 0.302298 0
M  V30 4146 H 389.598 3.77734 1.02142 0
M  V30 4147 H 389.221 3.03565 2.56777 0
M  V30 4148 N 390.218 -0.567019 1.47046 0
M  V30 4149 C 391.466 -1.322 1.52864 0
M  V30 4150 C 391.787 -1.94088 0.188388 0
M  V30 4151 O 391.057 -1.7941 -0.786693 0
M  V30 4152 H 389.637 -0.490894 0.563056 0
M  V30 4153 H 392.299 -0.662879 1.83281 0
M  V30 4154 H 391.395 -2.12062 2.2899 0
M  V30 4155 N 391.696 -1.35014 -0.812953 0
M  V30 4156 C 392.646 -1.23959 -1.91359 0
M  V30 4157 C 393.63 -0.136306 -1.60322 0
M  V30 4158 O 394.822 -0.366925 -1.73155 0
M  V30 4159 C 391.951 -1.00736 -3.28188 0
M  V30 4160 C 391.037 -2.15426 -3.65311 0
M  V30 4161 N 391.428 -3.40612 -3.73921 0
M  V30 4162 C 389.726 -2.06672 -3.95225 0
M  V30 4163 C 390.427 -4.15994 -4.06601 0
M  V30 4164 N 389.403 -3.44685 -4.20349 0
M  V30 4165 H 393.205 -2.18815 -1.96208 0
M  V30 4166 H 390.719 -1.27395 -1.00718 0
M  V30 4167 H 392.716 -0.909052 -4.06868 0
M  V30 4168 H 391.376 -0.067586 -3.2463 0
M  V30 4169 H 392.387 -3.75043 -3.5716 0
M  V30 4170 H 389.064 -1.20511 -3.99729 0
M  V30 4171 H 390.454 -5.24145 -4.20382 0
M  V30 4172 N 393.175 1.03435 -1.18907 0
M  V30 4173 C 394.422 1.76743 -0.988334 0
M  V30 4174 C 394.75 1.88447 0.481441 0
M  V30 4175 O 394.005 1.39383 1.37371 0
M  V30 4176 C 394.304 3.19792 -1.59586 0
M  V30 4177 C 393.97 3.28108 -3.09283 0
M  V30 4178 C 392.632 3.30084 -3.5014 0
M  V30 4179 C 394.984 3.27696 -4.05296 0
M  V30 4180 C 392.312 3.29299 -4.85571 0
M  V30 4181 C 394.664 3.28451 -5.4065 0
M  V30 4182 C 393.328 3.28723 -5.80946 0
M  V30 4183 H 392.598 0.64675 -0.361657 0
M  V30 4184 H 395.245 1.21442 -1.48068 0
M  V30 4185 H 393.55 3.78136 -1.02568 0
M  V30 4186 H 395.247 3.75171 -1.41589 0
M  V30 4187 H 391.837 3.27294 -2.76725 0
M  V30 4188 H 396.021 3.25354 -3.74778 0
M  V30 4189 H 391.277 3.2783 -5.16079 0
M  V30 4190 H 395.451 3.27082 -6.14809 0
M  V30 4191 H 393.078 3.27868 -6.85862 0
M  V30 4192 N 394.653 0.992116 1.22453 0
M  V30 4193 C 395.616 0.546883 2.2258 0
M  V30 4194 C 396.616 -0.369829 1.56489 0
M  V30 4195 O 397.806 -0.161896 1.73446 0
M  V30 4196 C 394.938 -0.204659 3.40285 0
M  V30 4197 H 396.131 1.43234 2.63484 0
M  V30 4198 H 393.684 0.779239 1.3549 0
M  V30 4199 H 394.419 -1.10614 3.04853 0
M  V30 4200 H 394.204 0.45354 3.89468 0
M  V30 4201 H 395.694 -0.504358 4.14543 0
M  V30 4202 N 396.131 -1.37776 0.765217 0
M  V30 4203 C 397.061 -2.32945 0.160953 0
M  V30 4204 C 398.042 -1.55454 -0.690516 0
M  V30 4205 O 399.227 -1.83721 -0.629318 0
M  V30 4206 C 396.357 -3.39669 -0.724031 0
M  V30 4207 C 395.311 -4.27992 0.0256173 0
M  V30 4208 C 394.637 -5.25673 -0.978383 0
M  V30 4209 C 395.937 -5.08309 1.20082 0
M  V30 4210 H 397.631 -2.83728 0.955969 0
M  V30 4211 H 395.177 -1.36416 0.461149 0
M  V30 4212 H 397.13 -4.05219 -1.15652 0
M  V30 4213 H 395.854 -2.87396 -1.5515 0
M  V30 4214 H 394.513 -3.63964 0.438812 0
M  V30 4215 H 394.161 -4.69682 -1.80022 0
M  V30 4216 H 393.861 -5.85625 -0.481378 0
M  V30 4217 H 395.385 -5.94098 -1.40995 0
M  V30 4218 H 396.799 -5.67034 0.845307 0
M  V30 4219 H 395.196 -5.77554 1.62947 0
M  V30 4220 H 396.266 -4.41365 2.00811 0
M  V30 4221 N 397.609 -0.515225 -1.4894 0
M  V30 4222 C 398.519 0.259774 -2.33157 0
M  V30 4223 C 399.535 0.953501 -1.45548 0
M  V30 4224 O 400.711 0.931735 -1.78552 0
M  V30 4225 C 397.776 1.30193 -3.21326 0
M  V30 4226 C 396.837 0.620129 -4.24797 0
M  V30 4227 C 396.07 1.61263 -5.08753 0
M  V30 4228 O 396.293 2.84389 -4.94448 0
M  V30 4229 O 395.227 1.16013 -5.90614 0
M  V30 4230 H 399.053 -0.429932 -3.00641 0
M  V30 4231 H 396.638 -0.276346 -1.46822 0
M  V30 4232 H 398.52 1.90455 -3.75905 0
M  V30 4233 H 397.195 1.97431 -2.56521 0
M  V30 4234 H 396.102 -0.0226019 -3.74093 0
M  V30 4235 H 397.435 -0.0100493 -4.92199 0
M  V30 4236 N 399.087 1.5561 -0.249682 0
M  V30 4237 C 399.997 2.25143 0.659375 0
M  V30 4238 C 401.013 1.2685 1.19101 0
M  V30 4239 O 402.189 1.59732 1.22669 0
M  V30 4240 C 399.254 2.93945 1.8384 0
M  V30 4241 C 398.315 4.07655 1.34596 0
M  V30 4242 C 397.548 4.73167 2.46878 0
M  V30 4243 O 397.771 4.37768 3.65671 0
M  V30 4244 O 396.705 5.61623 2.16478 0
M  V30 4245 H 400.531 3.03545 0.0968698 0
M  V30 4246 H 398.116 1.49389 -0.018074 0
M  V30 4247 H 399.998 3.37271 2.52638 0
M  V30 4248 H 398.673 2.18481 2.38847 0
M  V30 4249 H 397.58 3.68839 0.625174 0
M  V30 4250 H 398.913 4.84946 0.841941 0
M  V30 4251 N 400.565 -0.0233959 1.57583 0
M  V30 4252 C 401.495 -1.02162 2.09965 0
M  V30 4253 C 402.476 -1.3735 1.00344 0
M  V30 4254 O 403.661 -1.46135 1.27899 0
M  V30 4255 C 400.791 -2.32081 2.58371 0
M  V30 4256 C 399.745 -2.1112 3.72307 0
M  V30 4257 C 399.071 -3.46848 4.06941 0
M  V30 4258 C 400.371 -1.49276 5.00514 0
M  V30 4259 H 402.065 -0.585557 2.93618 0
M  V30 4260 H 399.611 -0.280218 1.41247 0
M  V30 4261 H 401.564 -3.02249 2.93639 0
M  V30 4262 H 400.288 -2.77758 1.71808 0
M  V30 4263 H 398.947 -1.43384 3.37397 0
M  V30 4264 H 398.595 -3.90184 3.17436 0
M  V30 4265 H 398.295 -3.33646 4.83688 0
M  V30 4266 H 399.819 -4.18369 4.44747 0
M  V30 4267 H 401.233 -2.09368 5.33702 0
M  V30 4268 H 399.63 -1.46632 5.8191 0
M  V30 4269 H 400.7 -0.459217 4.82721 0
M  V30 4270 N 402.043 -1.548 -0.295768 0
M  V30 4271 C 403.006 -1.85363 -1.34808 0
M  V30 4272 C 404.006 -0.726817 -1.43436 0
M  V30 4273 O 405.196 -0.995088 -1.42981 0
M  V30 4274 C 402.328 -2.03859 -2.73229 0
M  V30 4275 H 403.521 -2.7941 -1.08949 0
M  V30 4276 H 401.074 -1.46942 -0.532702 0
M  V30 4277 H 401.809 -1.12117 -3.04303 0
M  V30 4278 H 401.594 -2.8588 -2.68356 0
M  V30 4279 H 403.084 -2.28857 -3.49305 0
M  V30 4280 N 403.521 0.559213 -1.47345 0
M  V30 4281 C 404.453 1.68161 -1.55738 0
M  V30 4282 C 405.466 1.56636 -0.443744 0
M  V30 4283 O 406.655 1.6363 -0.713258 0
M  V30 4284 C 403.755 3.06611 -1.4437 0
M  V30 4285 C 402.928 3.4391 -2.70268 0
M  V30 4286 C 401.987 4.61515 -2.52765 0
M  V30 4287 O 401.013 4.66197 -3.26572 0
M  V30 4288 N 402.215 5.57883 -1.6046 0
M  V30 4289 H 404.98 1.61408 -2.52522 0
M  V30 4290 H 402.541 0.7458 -1.43699 0
M  V30 4291 H 404.533 3.83117 -1.30398 0
M  V30 4292 H 403.103 3.07602 -0.556766 0
M  V30 4293 H 402.323 2.56873 -2.99015 0
M  V30 4294 H 403.611 3.65605 -3.53851 0
M  V30 4295 H 403.009 5.56855 -0.996422 0
M  V30 4296 H 401.566 6.33723 -1.52441 0
M  V30 4297 N 404.999 1.35443 0.805782 0
M  V30 4298 C 405.962 1.28301 1.89925 0
M  V30 4299 C 406.962 0.194285 1.59622 0
M  V30 4300 O 408.152 0.448036 1.6834 0
M  V30 4301 C 405.284 0.984997 3.2636 0
M  V30 4302 H 406.477 2.2553 1.97677 0
M  V30 4303 H 404.03 1.19979 1.00173 0
M  V30 4304 H 404.765 0.016603 3.24296 0
M  V30 4305 H 404.55 1.77269 3.4974 0
M  V30 4306 H 406.04 0.960651 4.064 0
M  V30 4307 N 406.477 -1.02803 1.19454 0
M  V30 4308 C 407.725 -1.75869 0.995722 0
M  V30 4309 C 408.046 -1.89138 -0.474543 0
M  V30 4310 O 407.316 -1.42558 -1.34366 0
M  V30 4311 H 405.896 -0.651511 0.365435 0
M  V30 4312 H 408.558 -1.24004 1.50363 0
M  V30 4313 H 407.654 -2.76661 1.44447 0
M  V30 4314 N 407.956 -0.998596 -1.21925 0
M  V30 4315 C 409.186 -0.695276 -1.94549 0
M  V30 4316 C 409.594 0.745079 -1.73911 0
M  V30 4317 O 408.937 1.51507 -1.03881 0
M  V30 4318 C 408.999 -0.928485 -3.47303 0
M  V30 4319 C 408.663 -2.35443 -3.91683 0
M  V30 4320 C 409.66 -3.33428 -3.98901 0
M  V30 4321 C 407.345 -2.69038 -4.24174 0
M  V30 4322 C 409.339 -4.63079 -4.37992 0
M  V30 4323 C 407.026 -3.98906 -4.62944 0
M  V30 4324 C 408.024 -4.95738 -4.69822 0
M  V30 4325 O 407.712 -6.23285 -5.07711 0
M  V30 4326 H 407.444 -0.255902 -0.625692 0
M  V30 4327 H 409.998 -1.33767 -1.5587 0
M  V30 4328 H 408.228 -0.228917 -3.86022 0
M  V30 4329 H 409.917 -0.619539 -4.01144 0
M  V30 4330 H 410.683 -3.08807 -3.73983 0
M  V30 4331 H 406.562 -1.94367 -4.18022 0
M  V30 4332 H 410.106 -5.38658 -4.43275 0
M  V30 4333 H 406.003 -4.23314 -4.87314 0
M  V30 4334 H 406.771 -6.27306 -5.25766 0
M  V30 4335 N 409.434 1.37368 -0.772513 0
M  V30 4336 C 410.344 2.34053 -0.160081 0
M  V30 4337 C 411.36 1.60216 0.678728 0
M  V30 4338 O 412.536 1.92303 0.59847 0
M  V30 4339 C 409.601 3.3939 0.708182 0
M  V30 4340 C 408.662 4.29048 -0.147172 0
M  V30 4341 C 407.895 5.29354 0.679744 0
M  V30 4342 O 408.118 5.3723 1.91678 0
M  V30 4343 O 407.052 6.01835 0.0885444 0
M  V30 4344 H 410.878 2.88159 -0.959053 0
M  V30 4345 H 408.463 1.39543 -0.533685 0
M  V30 4346 H 410.345 4.03839 1.20384 0
M  V30 4347 H 409.02 2.8761 1.48533 0
M  V30 4348 H 407.927 3.67697 -0.689205 0
M  V30 4349 H 409.26 4.84134 -0.887423 0
M  V30 4350 N 410.912 0.523116 1.48665 0
M  V30 4351 C 412.158 -0.0134963 2.02796 0
M  V30 4352 C 412.491 -1.34582 1.40004 0
M  V30 4353 O 411.766 -1.86756 0.543381 0
M  V30 4354 C 412.049 -0.14276 3.59817 0
M  V30 4355 C 411.902 1.21425 4.331 0
M  V30 4356 C 413.221 -0.872856 4.31357 0
M  V30 4357 H 410.34 -0.00343074 0.736992 0
M  V30 4358 H 412.982 0.678816 1.7746 0
M  V30 4359 H 411.132 -0.732401 3.81534 0
M  V30 4360 H 412.804 1.84447 4.2282 0
M  V30 4361 H 411.047 1.79791 3.94788 0
M  V30 4362 H 411.718 1.07687 5.41394 0
M  V30 4363 H 414.194 -0.372555 4.14429 0
M  V30 4364 H 413.07 -0.932185 5.40927 0
M  V30 4365 H 413.331 -1.92161 3.98154 0
M  V30 4366 N 412.39 -1.55475 0.257931 0
M  V30 4367 C 413.636 -1.99502 -0.364266 0
M  V30 4368 C 413.969 -1.146 -1.56782 0
M  V30 4369 O 413.244 -0.211968 -1.93342 0
M  V30 4370 C 413.527 -3.51917 -0.763333 0
M  V30 4371 C 413.38 -4.4758 0.446371 0
M  V30 4372 C 414.699 -4.09742 -1.60623 0
M  V30 4373 H 411.818 -0.725277 -0.130929 0
M  V30 4374 H 414.46 -1.8653 0.361446 0
M  V30 4375 H 412.61 -3.63101 -1.38166 0
M  V30 4376 H 414.282 -4.48362 1.08487 0
M  V30 4377 H 412.525 -4.19947 1.08753 0
M  V30 4378 H 413.196 -5.51862 0.123645 0
M  V30 4379 H 415.672 -4.01727 -1.08418 0
M  V30 4380 H 414.548 -5.16631 -1.85429 0
M  V30 4381 H 414.809 -3.58889 -2.58169 0
M  V30 4382 N 413.868 0.0150385 -1.57593 0
M  V30 4383 C 415.116 0.701613 -1.8953 0
M  V30 4384 C 415.437 1.75139 -0.857396 0
M  V30 4385 O 414.707 1.95607 0.107194 0
M  V30 4386 H 413.287 0.26213 -0.699498 0
M  V30 4387 H 415.949 -0.0223304 -1.94887 0
M  V30 4388 H 415.045 1.18236 -2.88837 0
M  V30 4389 N 415.346 1.54954 0.287554 0
M  V30 4390 C 416.276 1.89839 1.35954 0
M  V30 4391 C 417.257 0.758675 1.52244 0
M  V30 4392 O 418.442 1.01557 1.65529 0
M  V30 4393 C 415.572 2.15753 2.72154 0
M  V30 4394 C 414.526 3.3159 2.70614 0
M  V30 4395 C 413.852 3.42952 4.10229 0
M  V30 4396 C 415.152 4.68359 2.31165 0
M  V30 4397 H 416.846 2.79625 1.07007 0
M  V30 4398 H 414.392 1.3454 0.513316 0
M  V30 4399 H 416.345 2.38743 3.47246 0
M  V30 4400 H 415.069 1.22752 3.02654 0
M  V30 4401 H 413.728 3.08545 1.97979 0
M  V30 4402 H 413.376 2.47443 4.37928 0
M  V30 4403 H 413.076 4.20826 4.10097 0
M  V30 4404 H 414.6 3.68218 4.87081 0
M  V30 4405 H 416.014 4.9099 2.95976 0
M  V30 4406 H 414.411 5.49044 2.42221 0
M  V30 4407 H 415.481 4.68165 1.26291 0
M  V30 4408 N 416.824 -0.551391 1.4764 0
M  V30 4409 C 418.101 -1.31229 1.45046 0
M  V30 4410 C 418.481 -2.10563 0.150527 0
M  V30 4411 O 417.829 -2.11374 -0.867956 0
M  V30 4412 C 418.039 -2.21189 2.69956 0
M  V30 4413 C 419.387 -2.82021 3.1741 0
M  V30 4414 O 420.411 -2.31488 2.70724 0
M  V30 4415 O 419.27 -3.73885 3.98588 0
M  V30 4416 H 416.364 -0.591193 0.578291 0
M  V30 4417 H 418.91 -0.569813 1.59847 0
M  V30 4418 H 417.682 -1.62207 3.56096 0
M  V30 4419 H 417.305 -3.02722 2.57769 0
M  V30 4420 N 418.302 -1.35869 -0.798587 0
M  V30 4421 C 419.548 -1.30788 -1.55775 0
M  V30 4422 C 419.903 0.114558 -1.92059 0
M  V30 4423 O 419.196 1.06691 -1.59147 0
M  V30 4424 C 419.39 -2.1556 -2.85077 0
M  V30 4425 C 419.219 -3.65904 -2.61428 0
M  V30 4426 C 417.989 -4.35112 -2.56915 0
M  V30 4427 C 420.187 -4.59375 -2.31255 0
M  V30 4428 N 418.169 -5.71155 -2.25068 0
M  V30 4429 C 419.54 -5.83598 -2.09316 0
M  V30 4430 C 421.595 -4.48035 -2.17185 0
M  V30 4431 C 420.298 -6.97755 -1.74731 0
M  V30 4432 C 422.324 -5.62049 -1.83998 0
M  V30 4433 C 421.686 -6.85305 -1.629 0
M  V30 4434 H 417.785 -0.533855 -0.571422 0
M  V30 4435 H 420.369 -1.7083 -0.934079 0
M  V30 4436 H 418.54 -1.77776 -3.45326 0
M  V30 4437 H 420.272 -2.01938 -3.50718 0
M  V30 4438 H 417.027 -3.87812 -2.71843 0
M  V30 4439 H 417.451 -6.42978 -2.11916 0
M  V30 4440 H 422.093 -3.53338 -2.3219 0
M  V30 4441 H 419.811 -7.92411 -1.58464 0
M  V30 4442 H 423.397 -5.55232 -1.73808 0
M  V30 4443 H 422.277 -7.72034 -1.37596 0
M  V30 4444 N 419.78 1.02168 -1.19998 0
M  V30 4445 C 421.008 1.79296 -1.03249 0
M  V30 4446 C 421.423 1.84103 0.418502 0
M  V30 4447 O 420.78 1.29031 1.29063 0
M  V30 4448 C 420.831 3.24007 -1.60319 0
M  V30 4449 O 420.552 3.19512 -2.99739 0
M  V30 4450 C 422.053 4.17704 -1.48453 0
M  V30 4451 H 419.273 0.564016 -0.363493 0
M  V30 4452 H 421.817 1.28639 -1.58973 0
M  V30 4453 H 419.972 3.7183 -1.08727 0
M  V30 4454 H 420.386 4.10306 -3.26725 0
M  V30 4455 H 421.86 5.17104 -1.93153 0
M  V30 4456 H 422.337 4.37029 -0.436193 0
M  V30 4457 H 422.943 3.7576 -1.99211 0
M  V30 4458 N 421.258 1.00505 1.21394 0
M  V30 4459 C 422.504 0.688793 1.90745 0
M  V30 4460 C 422.837 -0.778486 1.77914 0
M  V30 4461 O 422.112 -1.56433 1.15581 0
M  V30 4462 C 422.395 1.11063 3.42545 0
M  V30 4463 C 422.248 2.63737 3.64367 0
M  V30 4464 C 423.567 0.673059 4.34923 0
M  V30 4465 H 420.686 0.251702 0.692687 0
M  V30 4466 H 423.328 1.25074 1.43026 0
M  V30 4467 H 421.478 0.632508 3.83317 0
M  V30 4468 H 423.15 3.19313 3.32922 0
M  V30 4469 H 421.393 3.05248 3.08231 0
M  V30 4470 H 422.064 2.88305 4.70727 0
M  V30 4471 H 424.54 1.08392 4.01734 0
M  V30 4472 H 423.416 0.996383 5.39781 0
M  V30 4473 H 423.677 -0.425808 4.40045 0
M  V30 4474 N 422.737 -1.36956 0.779787 0
M  V30 4475 C 423.7 -2.2851 0.177662 0
M  V30 4476 C 424.7 -1.48393 -0.619377 0
M  V30 4477 O 425.89 -1.68505 -0.441785 0
M  V30 4478 C 423.022 -3.32428 -0.755279 0
M  V30 4479 H 424.215 -2.83269 0.984823 0
M  V30 4480 H 421.768 -1.46358 0.548544 0
M  V30 4481 H 422.503 -2.82808 -1.58714 0
M  V30 4482 H 422.288 -3.91659 -0.185817 0
M  V30 4483 H 423.778 -4.00824 -1.17174 0
M  V30 4484 N 424.215 -0.530993 -1.48385 0
M  V30 4485 C 425.626 -0.0907905 -1.86479 0
M  V30 4486 C 425.977 1.33213 -1.44044 0
M  V30 4487 O 425.102 1.99783 -0.831615 0
M  V30 4488 C 425.697 -0.157987 -3.38431 0
M  V30 4489 C 424.256 0.227026 -3.75715 0
M  V30 4490 C 423.403 -0.5173 -2.72432 0
M  V30 4491 H 426.354 -0.742186 -1.40276 0
M  V30 4492 H 426.375 0.630053 -3.75247 0
M  V30 4493 H 425.887 -1.19372 -3.69286 0
M  V30 4494 H 423.988 1.26486 -3.50474 0
M  V30 4495 H 424.101 -0.113288 -4.78966 0
M  V30 4496 H 422.465 0.0365527 -2.54674 0
M  V30 4497 H 423.248 -1.55368 -3.0613 0
M  V30 4498 N 425.693 1.55336 -0.266172 0
M  V30 4499 C 426.64 2.22172 0.625165 0
M  V30 4500 C 427.61 1.19211 1.15663 0
M  V30 4501 O 428.795 1.47723 1.20758 0
M  V30 4502 C 425.935 2.93972 1.8076 0
M  V30 4503 C 425.048 4.11632 1.31084 0
M  V30 4504 C 424.183 4.71099 2.45436 0
M  V30 4505 C 423.222 5.8097 1.92718 0
M  V30 4506 N 422.359 6.34538 3.00509 0
M  V30 4507 H 427.199 2.9796 0.0485582 0
M  V30 4508 H 424.736 1.47095 0.0122024 0
M  V30 4509 H 426.694 3.33811 2.50251 0
M  V30 4510 H 425.324 2.20623 2.35638 0
M  V30 4511 H 424.376 3.76975 0.509326 0
M  V30 4512 H 425.688 4.90893 0.884633 0
M  V30 4513 H 424.842 5.13612 3.22936 0
M  V30 4514 H 423.581 3.91096 2.91368 0
M  V30 4515 H 422.586 5.37916 1.13695 0
M  V30 4516 H 423.811 6.62836 1.47733 0
M  V30 4517 H 421.757 5.57433 3.45839 0
M  V30 4518 H 421.674 7.09046 2.62279 0
M  V30 4519 H 422.942 6.81709 3.78011 0
M  V30 4520 N 427.171 -0.0066808 1.57599 0
M  V30 4521 C 428.118 -1.00024 2.08 0
M  V30 4522 C 429.088 -1.34549 0.973943 0
M  V30 4523 O 430.273 -1.44502 1.24595 0
M  V30 4524 C 427.413 -2.2891 2.58252 0
M  V30 4525 C 426.526 -2.00346 3.82734 0
M  V30 4526 C 425.661 -3.23265 4.21513 0
M  V30 4527 C 424.7 -2.90357 5.3885 0
M  V30 4528 N 423.837 -4.05793 5.72954 0
M  V30 4529 H 428.677 -0.563499 2.92624 0
M  V30 4530 H 426.214 -0.266592 1.44664 0
M  V30 4531 H 428.172 -3.04247 2.85464 0
M  V30 4532 H 426.802 -2.70265 1.76512 0
M  V30 4533 H 425.854 -1.15406 3.62471 0
M  V30 4534 H 427.166 -1.72086 4.68175 0
M  V30 4535 H 426.32 -4.06953 4.49971 0
M  V30 4536 H 425.059 -3.54657 3.34768 0
M  V30 4537 H 424.064 -2.05075 5.10122 0
M  V30 4538 H 425.289 -2.60219 6.27266 0
M  V30 4539 H 423.235 -4.37094 4.89167 0
M  V30 4540 H 423.152 -3.81034 6.52954 0
M  V30 4541 H 424.42 -4.90289 6.06001 0
M  V30 4542 N 428.649 -1.55105 -0.279332 0
M  V30 4543 C 429.612 -1.86783 -1.32834 0
M  V30 4544 C 430.612 -0.74199 -1.42657 0
M  V30 4545 O 431.802 -1.0102 -1.41918 0
M  V30 4546 C 428.934 -2.06746 -2.71052 0
M  V30 4547 H 430.127 -2.8055 -1.05979 0
M  V30 4548 H 427.68 -1.47499 -0.517087 0
M  V30 4549 H 428.415 -1.15339 -3.03097 0
M  V30 4550 H 428.2 -2.88711 -2.65309 0
M  V30 4551 H 429.69 -2.32549 -3.46858 0
M  V30 4552 N 430.127 0.543554 -1.4793 0
M  V30 4553 C 431.543 0.870806 -1.3375 0
M  V30 4554 C 431.743 1.9864 -0.338261 0
M  V30 4555 O 430.799 2.51305 0.245371 0
M  V30 4556 C 432.112 1.25114 -2.73435 0
M  V30 4557 C 433.66 1.3618 -2.81823 0
M  V30 4558 C 434.135 1.77563 -4.22179 0
M  V30 4559 N 435.626 1.8469 -4.24787 0
M  V30 4560 C 436.361 2.18067 -5.30315 0
M  V30 4561 N 435.857 2.49963 -6.46135 0
M  V30 4562 N 437.65 2.18958 -5.17701 0
M  V30 4563 H 429.801 -0.19275 -2.11524 0
M  V30 4564 H 432.064 -0.0235777 -0.947707 0
M  V30 4565 H 431.77 0.50514 -3.48053 0
M  V30 4566 H 431.644 2.20431 -3.06088 0
M  V30 4567 H 434.031 2.09859 -2.07468 0
M  V30 4568 H 434.112 0.390169 -2.52807 0
M  V30 4569 H 433.756 1.04449 -4.97044 0
M  V30 4570 H 433.686 2.75753 -4.48629 0
M  V30 4571 H 436.177 1.62372 -3.41239 0
M  V30 4572 H 436.49 2.74497 -7.22406 0
M  V30 4573 H 434.835 2.47513 -6.49432 0
M  V30 4574 H 438.026 1.93488 -4.2624 0
M  V30 4575 H 438.199 2.44639 -6.00047 0
M  V30 4576 N 431.605 1.3629 0.791371 0
M  V30 4577 C 432.515 1.32606 1.93527 0
M  V30 4578 C 433.531 0.228541 1.72493 0
M  V30 4579 O 434.707 0.460571 1.96063 0
M  V30 4580 C 431.772 1.11271 3.28359 0
M  V30 4581 C 430.833 2.3048 3.62185 0
M  V30 4582 C 430.066 2.10154 4.90583 0
M  V30 4583 O 430.289 1.07572 5.60165 0
M  V30 4584 O 429.223 2.97884 5.23019 0
M  V30 4585 H 433.049 2.28909 1.99585 0
M  V30 4586 H 430.634 1.16818 0.931344 0
M  V30 4587 H 432.516 1.01283 4.09047 0
M  V30 4588 H 431.191 0.180292 3.23198 0
M  V30 4589 H 430.098 2.46036 2.81811 0
M  V30 4590 H 431.431 3.22221 3.72068 0
M  V30 4591 N 433.083 -1.0153 1.20538 0
M  V30 4592 C 434.323 -1.76689 1.02763 0
M  V30 4593 C 434.687 -1.87065 -0.432513 0
M  V30 4594 O 435.888 -2.58684 -0.730481 0
M  V30 4595 C 434.159 -3.14707 1.69393 0
M  V30 4596 S 435.718 -4.05886 1.66738 0
M  V30 4597 H 432.536 -0.608076 0.368463 0
M  V30 4598 H 435.138 -1.21558 1.53114 0
M  V30 4599 H 433.842 -3.04782 2.74838 0
M  V30 4600 H 433.373 -3.74913 1.19179 0
M  V30 4601 H 435.388 -4.91221 0.70117 0
M  V30 4602 N 434.561 -1.01147 -1.20859 0
M  V30 4603 C 435.807 -0.698899 -1.90377 0
M  V30 4604 C 436.14 0.76904 -1.78324 0
M  V30 4605 O 435.415 1.55817 -1.16409 0
M  V30 4606 C 435.698 -1.12878 -3.41951 0
M  V30 4607 C 435.551 -2.65665 -3.62963 0
M  V30 4608 C 436.87 -0.696114 -4.3456 0
M  V30 4609 H 433.989 -0.255372 -0.691342 0
M  V30 4610 H 436.631 -1.25831 -1.42361 0
M  V30 4611 H 434.781 -0.652827 -3.82976 0
M  V30 4612 H 436.453 -3.21074 -3.31224 0
M  V30 4613 H 434.696 -3.06878 -3.06608 0
M  V30 4614 H 435.367 -2.90797 -4.69192 0
M  V30 4615 H 437.843 -1.10521 -4.01154 0
M  V30 4616 H 436.719 -1.025 -5.39245 0
M  V30 4617 H 436.98 0.402465 -4.40264 0
M  V30 4618 N 436.039 1.36541 -0.78704 0
M  V30 4619 C 437.287 1.98911 -0.357633 0
M  V30 4620 C 437.608 1.62778 1.07371 0
M  V30 4621 O 436.878 0.900612 1.73971 0
M  V30 4622 H 435.458 0.735734 -0.129246 0
M  V30 4623 H 438.12 1.66776 -1.00855 0
M  V30 4624 H 437.216 3.08874 -0.447549 0
M  V30 4625 N 437.518 0.538854 1.48102 0
M  V30 4626 C 438.465 -0.219042 2.29758 0
M  V30 4627 C 439.435 -0.925562 1.37922 0
M  V30 4628 O 440.62 -0.924855 1.66886 0
M  V30 4629 C 437.76 -1.25452 3.2149 0
M  V30 4630 C 436.873 -0.555943 4.28408 0
M  V30 4631 C 436.008 -1.57512 5.0731 0
M  V30 4632 C 435.047 -0.860498 6.06021 0
M  V30 4633 N 434.184 -1.82564 6.77949 0
M  V30 4634 H 439.024 0.483449 2.94052 0
M  V30 4635 H 436.561 0.250247 1.44956 0
M  V30 4636 H 438.519 -1.86727 3.7308 0
M  V30 4637 H 437.149 -1.92528 2.591 0
M  V30 4638 H 436.201 0.170938 3.80016 0
M  V30 4639 H 437.513 0.00474616 4.988 0
M  V30 4640 H 436.667 -2.26191 5.62959 0
M  V30 4641 H 435.406 -2.16972 4.36778 0
M  V30 4642 H 434.411 -0.159686 5.49568 0
M  V30 4643 H 435.636 -0.271897 6.78555 0
M  V30 4644 H 433.582 -2.40915 6.10161 0
M  V30 4645 H 433.499 -1.31662 7.44447 0
M  V30 4646 H 434.767 -2.50414 7.38182 0
M  V30 4647 N 438.996 -1.55193 0.274407 0
M  V30 4648 C 440.224 -2.03987 -0.345943 0
M  V30 4649 C 440.639 -1.15279 -1.4952 0
M  V30 4650 O 439.996 -0.172759 -1.8168 0
M  V30 4651 C 440.047 -3.51898 -0.827631 0
M  V30 4652 O 439.768 -4.37231 0.275855 0
M  V30 4653 C 441.269 -4.16577 -1.51587 0
M  V30 4654 H 438.489 -0.666335 -0.0789892 0
M  V30 4655 H 441.033 -2.00423 0.406294 0
M  V30 4656 H 439.188 -3.55909 -1.52996 0
M  V30 4657 H 439.602 -5.24415 -0.0943638 0
M  V30 4658 H 441.076 -5.21678 -1.80433 0
M  V30 4659 H 441.553 -3.64707 -2.44716 0
M  V30 4660 H 442.159 -4.16568 -0.857409 0
M  V30 4661 N 440.474 -0.00167713 -1.576 0
M  V30 4662 C 441.72 0.683832 -1.90923 0
M  V30 4663 C 442.053 1.7333 -0.875799 0
M  V30 4664 O 441.328 1.94215 0.10525 0
M  V30 4665 C 441.611 1.32543 -3.3482 0
M  V30 4666 C 441.464 0.287387 -4.48881 0
M  V30 4667 C 442.783 2.25114 -3.78169 0
M  V30 4668 H 439.902 0.247125 -0.694333 0
M  V30 4669 H 442.544 -0.0533149 -1.89925 0
M  V30 4670 H 440.694 1.95372 -3.35801 0
M  V30 4671 H 442.366 -0.341346 -4.60035 0
M  V30 4672 H 440.609 -0.39017 -4.32042 0
M  V30 4673 H 441.28 0.775393 -5.46527 0
M  V30 4674 H 443.756 1.723 -3.7875 0
M  V30 4675 H 442.632 2.66971 -4.79602 0
M  V30 4676 H 442.893 3.13092 -3.12131 0
M  V30 4677 N 441.952 1.55251 0.271103 0
M  V30 4678 C 443.18 1.79974 1.02064 0
M  V30 4679 C 443.595 0.574003 1.79863 0
M  V30 4680 O 442.952 -0.456962 1.76686 0
M  V30 4681 C 443.003 3.02603 1.97772 0
M  V30 4682 O 442.724 4.20443 1.23124 0
M  V30 4683 C 444.225 3.39944 2.84522 0
M  V30 4684 H 441.445 0.599489 0.301419 0
M  V30 4685 H 443.989 2.02268 0.301313 0
M  V30 4686 H 442.144 2.8243 2.65165 0
M  V30 4687 H 442.558 4.89783 1.87651 0
M  V30 4688 H 444.032 4.28915 3.47471 0
M  V30 4689 H 444.509 2.59432 3.54389 0
M  V30 4690 H 445.115 3.62383 2.22618 0
M  V30 4691 N 443.43 -0.535701 1.48216 0
M  V30 4692 C 444.36 -1.65014 1.65204 0
M  V30 4693 C 445.341 -1.62554 0.501011 0
M  V30 4694 O 446.526 -1.7984 0.732886 0
M  V30 4695 C 443.656 -3.03616 1.68626 0
M  V30 4696 C 442.61 -3.20932 2.83172 0
M  V30 4697 C 441.936 -4.60537 2.71679 0
M  V30 4698 C 443.236 -3.04249 4.24535 0
M  V30 4699 H 444.93 -1.51053 2.58502 0
M  V30 4700 H 442.476 -0.725262 1.24402 0
M  V30 4701 H 444.429 -3.81446 1.79099 0
M  V30 4702 H 443.153 -3.18587 0.719026 0
M  V30 4703 H 441.812 -2.45517 2.72244 0
M  V30 4704 H 441.46 -4.72336 1.72937 0
M  V30 4705 H 441.16 -4.73069 3.48538 0
M  V30 4706 H 442.684 -5.40475 2.84112 0
M  V30 4707 H 444.098 -3.71877 4.36326 0
M  V30 4708 H 442.495 -3.28278 5.02348 0
M  V30 4709 H 443.565 -2.00739 4.41397 0
M  V30 4710 N 444.908 -1.36708 -0.784132 0
M  V30 4711 C 445.84 -1.27333 -1.90575 0
M  V30 4712 C 446.853 -0.191706 -1.61667 0
M  V30 4713 O 448.042 -0.446854 -1.72816 0
M  V30 4714 C 445.142 -0.943177 -3.25511 0
M  V30 4715 C 444.315 -2.12776 -3.82158 0
M  V30 4716 C 443.374 -1.76983 -4.95544 0
M  V30 4717 O 442.4 -2.49134 -5.11782 0
M  V30 4718 N 443.602 -0.706624 -5.76183 0
M  V30 4719 H 446.367 -2.23974 -1.99138 0
M  V30 4720 H 443.928 -1.30171 -0.962656 0
M  V30 4721 H 445.92 -0.684799 -3.98864 0
M  V30 4722 H 444.49 -0.0657333 -3.12531 0
M  V30 4723 H 443.71 -2.54863 -3.0073 0
M  V30 4724 H 444.998 -2.91904 -4.16737 0
M  V30 4725 H 444.396 -0.107643 -5.65598 0
M  V30 4726 H 442.953 -0.50808 -6.49817 0
M  V30 4727 N 446.386 1.0089 -1.21074 0
M  V30 4728 C 447.634 1.74262 -1.02358 0
M  V30 4729 C 447.955 1.89869 0.444393 0
M  V30 4730 O 447.225 1.44677 1.32081 0
M  V30 4731 H 445.805 0.645615 -0.375754 0
M  V30 4732 H 448.467 1.21596 -1.52317 0
M  V30 4733 H 447.563 2.74328 -1.4883 0
M  V30 4734 N 447.864 1.01787 1.20321 0
M  V30 4735 C 448.812 0.58254 2.25187 0
M  V30 4736 C 449.806 -0.379359 1.65098 0
M  V30 4737 O 451.012 -0.249142 1.78267 0
M  V30 4738 H 447.387 0.170078 0.732514 0
M  V30 4739 H 449.358 1.47788 2.59232 0
M  V30 4740 C 448.107 -0.0620885 3.47645 0
M  V30 4741 H 447.43 0.669069 3.94162 0
M  V30 4742 H 448.87 -0.329784 4.22716 0
M  V30 4743 C 447.329 -1.3053 3.10586 0
M  V30 4744 O 447.859 -2.39848 3.22236 0
M  V30 4745 N 446.065 -1.18988 2.65123 0
M  V30 4746 H 445.612 -0.300341 2.55843 0
M  V30 4747 H 445.57 -2.02267 2.40698 0
M  V30 4748 N 449.342 -1.36122 0.79427 0
M  V30 4749 C 450.272 -2.32551 0.210328 0
M  V30 4750 C 451.253 -1.56884 -0.657386 0
M  V30 4751 O 452.438 -1.85014 -0.590207 0
M  V30 4752 C 449.568 -3.41128 -0.651819 0
M  V30 4753 C 448.522 -4.27842 0.116395 0
M  V30 4754 C 447.848 -5.2763 -0.86666 0
M  V30 4755 C 449.148 -5.05647 1.30837 0
M  V30 4756 H 450.842 -2.81636 1.01594 0
M  V30 4757 H 448.388 -1.35407 0.489981 0
M  V30 4758 H 450.341 -4.07581 -1.07031 0
M  V30 4759 H 449.065 -2.90622 -1.49019 0
M  V30 4760 H 447.724 -3.62952 0.515915 0
M  V30 4761 H 447.372 -4.73395 -1.70019 0
M  V30 4762 H 447.072 -5.86514 -0.35705 0
M  V30 4763 H 448.596 -5.96955 -1.28361 0
M  V30 4764 H 450.01 -5.65113 0.965393 0
M  V30 4765 H 448.407 -5.73967 1.75161 0
M  V30 4766 H 449.477 -4.37006 2.10128 0
M  V30 4767 N 450.82 -0.546701 -1.47814 0
M  V30 4768 C 452.097 0.0464413 -1.95545 0
M  V30 4769 C 452.477 1.4962 -1.48919 0
M  V30 4770 O 451.825 2.16752 -0.723232 0
M  V30 4771 C 452.035 -0.0881298 -3.48889 0
M  V30 4772 C 453.383 0.0626059 -4.24554 0
M  V30 4773 O 454.407 -0.0151555 -3.56197 0
M  V30 4774 O 453.266 0.228071 -5.46024 0
M  V30 4775 H 450.36 0.0700004 -0.824032 0
M  V30 4776 H 452.906 -0.612482 -1.58262 0
M  V30 4777 H 451.678 -1.09737 -3.75597 0
M  V30 4778 H 451.301 0.608886 -3.9291 0
M  V30 4779 N 452.299 1.55045 -0.282633 0
M  V30 4780 C 453.71 1.85473 0.213655 0
M  V30 4781 C 454.061 1.20465 1.54863 0
M  V30 4782 O 453.186 0.495676 2.10647 0
M  V30 4783 C 453.781 3.36496 0.394445 0
M  V30 4784 C 452.34 3.67022 0.834961 0
M  V30 4785 C 451.487 2.77218 -0.0674081 0
M  V30 4786 H 454.438 1.50478 -0.504202 0
M  V30 4787 H 454.459 3.60007 1.23186 0
M  V30 4788 H 453.971 3.83782 -0.577326 0
M  V30 4789 H 452.072 3.25241 1.81794 0
M  V30 4790 H 452.185 4.74433 0.667075 0
M  V30 4791 H 450.549 2.5069 0.450196 0
M  V30 4792 H 451.332 3.2732 -1.0352 0
M  V30 4793 N 453.777 0.010035 1.57597 0
M  V30 4794 C 455.017 -0.677084 1.9286 0
M  V30 4795 C 455.381 -1.70377 0.885192 0
M  V30 4796 O 456.582 -2.44199 1.12339 0
M  V30 4797 C 454.853 -1.29452 3.33132 0
M  V30 4798 S 456.412 -2.00537 3.90295 0
M  V30 4799 H 453.23 -0.223409 0.674989 0
M  V30 4800 H 455.832 0.0691289 1.95378 0
M  V30 4801 H 454.536 -0.534593 4.06903 0
M  V30 4802 H 454.067 -2.07845 3.34012 0
M  V30 4803 H 456.082 -3.28168 3.72183 0
M  V30 4804 N 455.255 -1.55392 -0.262866 0
M  V30 4805 C 456.218 -1.88181 -1.30846 0
M  V30 4806 C 457.218 -0.757079 -1.41862 0
M  V30 4807 O 458.408 -1.02519 -1.40838 0
M  V30 4808 C 455.54 -2.09609 -2.68844 0
M  V30 4809 H 456.733 -2.81659 -1.02997 0
M  V30 4810 H 454.286 -1.48039 -0.501414 0
M  V30 4811 H 455.021 -1.18547 -3.01856 0
M  V30 4812 H 454.806 -2.91508 -2.62231 0
M  V30 4813 H 456.296 -2.36215 -3.44372 0
M  V30 4814 N 456.733 0.527833 -1.48498 0
M  V30 4815 C 457.663 1.64136 -1.66077 0
M  V30 4816 C 458.644 1.62286 -0.509625 0
M  V30 4817 O 459.829 1.79449 -0.742413 0
M  V30 4818 C 456.959 3.02717 -1.70234 0
M  V30 4819 C 455.913 3.19426 -2.8487 0
M  V30 4820 C 455.239 4.5909 -2.74118 0
M  V30 4821 C 456.539 3.01993 -4.26142 0
M  V30 4822 H 458.233 1.4968 -2.593 0
M  V30 4823 H 455.779 0.718654 -1.24785 0
M  V30 4824 H 457.732 3.80491 -1.8112 0
M  V30 4825 H 456.456 3.18201 -0.735911 0
M  V30 4826 H 455.115 2.4407 -2.73542 0
M  V30 4827 H 454.763 4.71413 -1.7544 0
M  V30 4828 H 454.463 4.71214 -3.51042 0
M  V30 4829 H 455.987 5.3896 -2.86974 0
M  V30 4830 H 457.401 3.69558 -4.38292 0
M  V30 4831 H 455.798 3.2561 -5.04082 0
M  V30 4832 H 456.868 1.98396 -4.42456 0
M  V30 4833 N 458.211 1.37122 0.776871 0
M  V30 4834 C 459.441 1.35034 1.56363 0
M  V30 4835 C 459.849 -0.0674681 1.8908 0
M  V30 4836 O 459.192 -1.03826 1.51545 0
M  V30 4837 C 459.254 2.11894 2.90415 0
M  V30 4838 C 458.918 3.60897 2.80362 0
M  V30 4839 C 459.915 4.54887 2.51742 0
M  V30 4840 C 457.6 4.03951 2.98545 0
M  V30 4841 C 459.594 5.89909 2.41426 0
M  V30 4842 C 457.281 5.3906 2.87849 0
M  V30 4843 C 458.279 6.31852 2.5933 0
M  V30 4844 O 457.967 7.64479 2.48651 0
M  V30 4845 H 457.699 0.464402 0.49123 0
M  V30 4846 H 460.253 1.80992 0.971127 0
M  V30 4847 H 458.483 1.60618 3.51765 0
M  V30 4848 H 460.172 2.02505 3.51776 0
M  V30 4849 H 460.938 4.22934 2.37385 0
M  V30 4850 H 456.817 3.3209 3.19746 0
M  V30 4851 H 460.361 6.62304 2.19086 0
M  V30 4852 H 456.258 5.70617 3.01773 0
M  V30 4853 H 457.026 7.74742 2.64039 0
M  V30 4854 N 459.689 -1.00246 1.21608 0
M  V30 4855 C 460.652 -2.07233 0.979133 0
M  V30 4856 C 461.652 -1.6072 -0.0508219 0
M  V30 4857 O 462.842 -1.73196 0.186712 0
M  V30 4858 C 459.974 -3.37546 0.477016 0
M  V30 4859 H 461.167 -2.29687 1.92831 0
M  V30 4860 H 458.72 -1.17261 1.03342 0
M  V30 4861 H 459.455 -3.20773 -0.476966 0
M  V30 4862 H 459.24 -3.72638 1.21997 0
M  V30 4863 H 460.73 -4.16285 0.331181 0
M  V30 4864 N 461.167 -1.02423 -1.1978 0
M  V30 4865 C 462.392 -0.7373 -1.93852 0
M  V30 4866 C 462.817 0.696923 -1.74713 0
M  V30 4867 O 462.175 1.48056 -1.04638 0
M  V30 4868 C 462.223 -1.08783 -3.438 0
M  V30 4869 O 461.327 -0.20383 -4.11896 0
M  V30 4870 H 460.668 -0.27284 -0.605355 0
M  V30 4871 H 463.198 -1.36966 -1.51992 0
M  V30 4872 H 463.208 -1.04276 -3.9445 0
M  V30 4873 H 461.883 -2.13274 -3.57053 0
M  V30 4874 H 460.46 -0.307091 -3.71633 0
M  V30 4875 N 462.645 1.35699 -0.801477 0
M  V30 4876 C 463.555 2.33661 -0.209691 0
M  V30 4877 C 464.571 1.6162 0.644591 0
M  V30 4878 O 465.747 1.93529 0.557545 0
M  V30 4879 C 462.812 3.40816 0.636033 0
M  V30 4880 C 461.873 4.28639 -0.238147 0
M  V30 4881 C 461.106 5.30676 0.567307 0
M  V30 4882 O 461.329 5.41174 1.8024 0
M  V30 4883 O 460.263 6.01887 -0.0391336 0
M  V30 4884 H 464.089 2.8606 -1.01996 0
M  V30 4885 H 461.674 1.38379 -0.563164 0
M  V30 4886 H 463.556 4.06301 1.11791 0
M  V30 4887 H 462.231 2.90696 1.42399 0
M  V30 4888 H 461.138 3.66152 -0.767044 0
M  V30 4889 H 462.471 4.82143 -0.989915 0
M  V30 4890 N 464.123 0.554532 1.47522 0
M  V30 4891 C 465.033 -0.197865 2.33764 0
M  V30 4892 C 466.049 -0.914576 1.48025 0
M  V30 4893 O 467.225 -0.884067 1.80959 0
M  V30 4894 C 464.29 -1.21628 3.24665 0
M  V30 4895 C 463.351 -0.507283 4.26292 0
M  V30 4896 C 462.584 -1.47718 5.1285 0
M  V30 4897 O 462.807 -2.7118 5.01814 0
M  V30 4898 O 461.741 -1.00313 5.93482 0
M  V30 4899 H 465.567 0.50949 2.99396 0
M  V30 4900 H 463.152 0.315176 1.46038 0
M  V30 4901 H 465.034 -1.80421 3.80823 0
M  V30 4902 H 463.709 -1.9056 2.61665 0
M  V30 4903 H 462.616 0.121778 3.73902 0
M  V30 4904 H 463.949 0.140544 4.91999 0
M  V30 4905 N 465.601 -1.54893 0.290851 0
M  V30 4906 C 466.511 -2.26812 -0.59945 0
M  V30 4907 C 467.527 -1.29963 -1.15696 0
M  V30 4908 O 468.703 -1.62928 -1.18391 0
M  V30 4909 C 465.768 -2.98716 -1.75982 0
M  V30 4910 C 464.829 -4.1108 -1.2374 0
M  V30 4911 C 464.062 -4.79546 -2.34246 0
M  V30 4912 O 464.285 -4.47309 -3.53936 0
M  V30 4913 O 463.219 -5.67165 -2.01512 0
M  V30 4914 H 467.045 -3.03696 -0.0163561 0
M  V30 4915 H 464.63 -1.49289 0.0576755 0
M  V30 4916 H 466.512 -3.43851 -2.43607 0
M  V30 4917 H 465.187 -2.24737 -2.3297 0
M  V30 4918 H 464.094 -3.70367 -0.527163 0
M  V30 4919 H 465.427 -4.87007 -0.71307 0
M  V30 4920 N 467.08 -0.0183926 -1.57589 0
M  V30 4921 C 468.329 0.66185 -1.90532 0
M  V30 4922 C 468.642 1.73904 -0.895366 0
M  V30 4923 O 469.848 2.47518 -1.11566 0
M  V30 4924 C 468.304 1.22844 -3.38286 0
M  V30 4925 C 467.912 0.185103 -4.47617 0
M  V30 4926 C 469.656 1.88581 -3.80312 0
M  V30 4927 C 467.563 0.762723 -5.86461 0
M  V30 4928 H 466.493 0.250972 -0.711006 0
M  V30 4929 H 469.144 -0.0819435 -1.83317 0
M  V30 4930 H 467.526 2.0235 -3.40398 0
M  V30 4931 H 468.7 -0.58671 -4.5705 0
M  V30 4932 H 467.015 -0.372889 -4.14727 0
M  V30 4933 H 469.612 2.32735 -4.81392 0
M  V30 4934 H 469.955 2.72408 -3.14801 0
M  V30 4935 H 470.488 1.15782 -3.80578 0
M  V30 4936 H 467.227 -0.0371713 -6.55489 0
M  V30 4937 H 466.747 1.50327 -5.80656 0
M  V30 4938 H 468.426 1.25576 -6.34697 0
M  V30 4939 N 468.558 1.5553 0.254621 0
M  V30 4940 C 469.806 1.7665 0.981793 0
M  V30 4941 C 470.127 0.580963 1.86145 0
M  V30 4942 O 469.397 -0.403537 1.91699 0
M  V30 4943 H 467.977 0.651475 0.365498 0
M  V30 4944 H 470.639 1.92958 0.274426 0
M  V30 4945 H 469.735 2.67486 1.60802 0
M  V30 4946 N 470.036 -0.519951 1.48776 0
M  V30 4947 C 470.968 -1.63973 1.60142 0
M  V30 4948 C 471.981 -1.55404 0.485117 0
M  V30 4949 O 473.17 -1.61682 0.756391 0
M  V30 4950 C 470.27 -3.02676 1.52449 0
M  V30 4951 C 469.443 -3.36624 2.79291 0
M  V30 4952 C 468.502 -4.54652 2.64912 0
M  V30 4953 O 467.528 -4.57374 3.38818 0
M  V30 4954 N 468.73 -5.53432 1.75195 0
M  V30 4955 H 471.495 -1.54656 2.56713 0
M  V30 4956 H 469.056 -0.707439 1.45626 0
M  V30 4957 H 471.048 -3.79525 1.4051 0
M  V30 4958 H 469.618 -3.06018 0.638125 0
M  V30 4959 H 468.838 -2.48855 3.0572 0
M  V30 4960 H 470.126 -3.56094 3.6342 0
M  V30 4961 H 469.524 -5.54018 1.14371 0
M  V30 4962 H 468.081 -6.29459 1.69189 0
M  V30 4963 N 471.514 -1.37532 -0.769588 0
M  V30 4964 C 472.444 -1.36172 -1.89682 0
M  V30 4965 C 473.425 -0.23001 -1.68538 0
M  V30 4966 O 474.61 -0.43069 -1.89364 0
M  V30 4967 C 471.74 -1.1701 -3.26995 0
M  V30 4968 C 470.694 -2.27216 -3.62708 0
M  V30 4969 C 470.02 -1.93174 -4.98586 0
M  V30 4970 C 471.32 -3.6941 -3.69234 0
M  V30 4971 H 473.014 -2.30499 -1.91078 0
M  V30 4972 H 470.56 -1.10953 -0.917902 0
M  V30 4973 H 472.513 -1.14688 -4.05493 0
M  V30 4974 H 471.237 -0.191395 -3.26039 0
M  V30 4975 H 469.896 -2.28697 -2.86519 0
M  V30 4976 H 469.544 -0.938281 -4.94171 0
M  V30 4977 H 469.244 -2.66973 -5.23449 0
M  V30 4978 H 470.768 -1.92443 -5.79481 0
M  V30 4979 H 472.182 -3.70047 -4.37879 0
M  V30 4980 H 470.579 -4.4228 -4.05597 0
M  V30 4981 H 471.649 -4.0288 -2.69844 0
M  V30 4982 N 472.992 0.995999 -1.22138 0
M  V30 4983 C 474.238 1.73767 -1.04561 0
M  V30 4984 C 474.571 1.89633 0.418698 0
M  V30 4985 O 473.846 1.43723 1.3105 0
M  V30 4986 C 474.129 3.14505 -1.75382 0
M  V30 4987 C 473.982 3.06306 -3.29388 0
M  V30 4988 C 475.301 4.13615 -1.50369 0
M  V30 4989 H 472.42 0.630728 -0.38125 0
M  V30 4990 H 475.062 1.16057 -1.50435 0
M  V30 4991 H 473.212 3.63775 -1.36383 0
M  V30 4992 H 474.884 2.64681 -3.77812 0
M  V30 4993 H 473.127 2.43186 -3.59226 0
M  V30 4994 H 473.798 4.05884 -3.74116 0
M  V30 4995 H 476.274 3.73089 -1.84239 0
M  V30 4996 H 475.15 5.10212 -2.02421 0
M  V30 4997 H 475.411 4.39949 -0.435611 0
M  V30 4998 N 474.47 1.03057 1.19235 0
M  V30 4999 C 475.417 0.612832 2.22515 0
M  V30 5000 C 476.387 -0.374224 1.61829 0
M  V30 5001 O 477.572 -0.270501 1.88873 0
M  V30 5002 C 474.712 -0.028475 3.45088 0
M  V30 5003 C 473.825 1.00483 4.20151 0
M  V30 5004 C 472.96 0.333102 5.30155 0
M  V30 5005 C 471.999 1.3522 5.96977 0
M  V30 5006 N 471.136 0.70616 6.9854 0
M  V30 5007 H 475.976 1.49812 2.57605 0
M  V30 5008 H 473.513 0.749658 1.26564 0
M  V30 5009 H 475.471 -0.417548 4.15105 0
M  V30 5010 H 474.101 -0.877334 3.10649 0
M  V30 5011 H 473.153 1.51194 3.49062 0
M  V30 5012 H 474.465 1.77929 4.65986 0
M  V30 5013 H 473.619 -0.110725 6.06599 0
M  V30 5014 H 472.358 -0.473547 4.85396 0
M  V30 5015 H 471.363 1.80627 5.19282 0
M  V30 5016 H 472.588 2.16037 6.4382 0
M  V30 5017 H 470.534 -0.0803667 6.55951 0
M  V30 5018 H 470.451 1.41848 7.42573 0
M  V30 5019 H 471.719 0.286391 7.78974 0
M  V30 5020 N 475.948 -1.35272 0.808662 0
M  V30 5021 C 476.88 -2.28507 0.178149 0
M  V30 5022 C 477.893 -1.50377 -0.623754 0
M  V30 5023 O 479.082 -1.72583 -0.455774 0
M  V30 5024 C 476.182 -3.30038 -0.769959 0
M  V30 5025 C 475.355 -4.37398 -0.0139749 0
M  V30 5026 C 474.414 -5.18775 -0.880875 0
M  V30 5027 O 473.44 -5.68236 -0.331059 0
M  V30 5028 N 474.642 -5.37087 -2.20267 0
M  V30 5029 H 477.407 -2.83255 0.979106 0
M  V30 5030 H 474.968 -1.47643 0.664308 0
M  V30 5031 H 476.96 -3.81371 -1.35418 0
M  V30 5032 H 475.53 -2.75789 -1.47171 0
M  V30 5033 H 474.75 -3.86971 0.751468 0
M  V30 5034 H 476.038 -5.06268 0.506965 0
M  V30 5035 H 475.436 -4.9855 -2.67328 0
M  V30 5036 H 473.993 -5.91593 -2.73608 0
M  V30 5037 N 477.426 -0.562348 -1.47226 0
M  V30 5038 C 478.359 0.230405 -2.27034 0
M  V30 5039 C 479.337 0.915609 -1.3437 0
M  V30 5040 O 480.521 0.933573 -1.63758 0
M  V30 5041 C 477.648 1.32874 -3.11548 0
M  V30 5042 C 476.694 0.751552 -4.19826 0
M  V30 5043 S 477.527 -0.405848 -5.3396 0
M  V30 5044 C 478.683 0.694186 -6.22038 0
M  V30 5045 H 478.916 -0.446811 -2.93923 0
M  V30 5046 H 476.449 -0.348781 -1.50409 0
M  V30 5047 H 478.407 1.95773 -3.60809 0
M  V30 5048 H 477.068 1.97782 -2.44011 0
M  V30 5049 H 476.261 1.57651 -4.78709 0
M  V30 5050 H 475.863 0.198645 -3.73472 0
M  V30 5051 H 478.155 1.58501 -6.58698 0
M  V30 5052 H 479.098 0.142592 -7.07956 0
M  V30 5053 H 479.506 0.989169 -5.55766 0
M  V30 5054 N 478.904 1.54736 -0.299062 0
M  V30 5055 C 479.834 2.26409 0.571085 0
M  V30 5056 C 480.815 1.2629 1.13951 0
M  V30 5057 O 482 1.55059 1.16921 0
M  V30 5058 C 479.13 3.00338 1.74396 0
M  V30 5059 C 478.084 4.07588 1.30599 0
M  V30 5060 C 477.41 4.69222 2.56387 0
M  V30 5061 C 478.71 5.20455 0.438645 0
M  V30 5062 H 480.404 2.99388 -0.0266991 0
M  V30 5063 H 477.95 1.43993 -0.0142812 0
M  V30 5064 H 479.903 3.49198 2.35878 0
M  V30 5065 H 478.627 2.24934 2.36796 0
M  V30 5066 H 477.286 3.59575 0.71424 0
M  V30 5067 H 476.934 3.9046 3.17097 0
M  V30 5068 H 476.634 5.41653 2.27784 0
M  V30 5069 H 478.158 5.20844 3.18675 0
M  V30 5070 H 479.572 5.65221 0.959085 0
M  V30 5071 H 477.969 5.99594 0.246466 0
M  V30 5072 H 479.039 4.8192 -0.536738 0
M  V30 5073 N 480.382 0.0267497 1.57577 0
M  V30 5074 C 481.659 -0.690926 1.82991 0
M  V30 5075 C 482.039 -1.90471 0.910164 0
M  V30 5076 O 481.387 -2.28474 -0.0347985 0
M  V30 5077 C 481.597 -1.07139 3.32148 0
M  V30 5078 C 482.945 -1.46402 3.98562 0
M  V30 5079 O 483.969 -1.16443 3.36629 0
M  V30 5080 O 482.828 -2.02214 5.07712 0
M  V30 5081 H 479.922 -0.338747 0.75444 0
M  V30 5082 H 482.468 0.0542506 1.69613 0
M  V30 5083 H 481.24 -0.207394 3.9075 0
M  V30 5084 H 480.863 -1.87481 3.50623 0
M  V30 5085 N 481.861 -1.55662 -0.24637 0
M  V30 5086 C 483.138 -1.68272 -0.997198 0
M  V30 5087 C 483.518 -0.566785 -2.03349 0
M  V30 5088 O 482.866 0.429688 -2.24424 0
M  V30 5089 C 483.076 -3.08594 -1.63006 0
M  V30 5090 C 484.424 -3.6721 -2.13171 0
M  V30 5091 O 485.448 -3.11397 -1.72946 0
M  V30 5092 O 484.307 -4.65054 -2.87031 0
M  V30 5093 H 481.401 -0.684429 -0.464205 0
M  V30 5094 H 483.947 -1.67993 -0.240114 0
M  V30 5095 H 482.719 -3.81264 -0.880527 0
M  V30 5096 H 482.342 -3.12886 -2.45333 0
M  V30 5097 N 483.339 0.512053 -1.4905 0
M  V30 5098 C 484.586 1.26686 -1.57978 0
M  V30 5099 C 484.914 1.92733 -0.261553 0
M  V30 5100 O 484.169 1.80772 0.749667 0
M  V30 5101 C 484.468 2.36446 -2.68008 0
M  V30 5102 C 484.134 1.87932 -4.09869 0
M  V30 5103 C 482.796 1.74419 -4.48477 0
M  V30 5104 C 485.148 1.5149 -4.98698 0
M  V30 5105 C 482.476 1.22827 -5.73699 0
M  V30 5106 C 484.828 1.01355 -6.24428 0
M  V30 5107 C 483.492 0.864735 -6.61875 0
M  V30 5108 H 482.762 0.463577 -0.578081 0
M  V30 5109 H 485.409 0.569421 -1.82838 0
M  V30 5110 H 483.714 3.11933 -2.37076 0
M  V30 5111 H 485.411 2.9453 -2.72127 0
M  V30 5112 H 482.001 1.99405 -3.79389 0
M  V30 5113 H 486.185 1.60782 -4.69535 0
M  V30 5114 H 481.441 1.10008 -6.01422 0
M  V30 5115 H 485.615 0.722351 -6.92644 0
M  V30 5116 H 483.242 0.462777 -7.5879 0
M  V30 5117 N 484.817 1.37938 0.762283 0
M  V30 5118 C 486.065 1.33404 1.51815 0
M  V30 5119 C 486.386 -0.0780975 1.94844 0
M  V30 5120 O 485.656 -1.02405 1.67003 0
M  V30 5121 H 484.236 0.490839 0.563104 0
M  V30 5122 H 486.898 1.72527 0.906669 0
M  V30 5123 H 485.994 1.97926 2.41313 0
M  V30 5124 N 486.295 -0.989507 1.22664 0
M  V30 5125 C 487.706 -1.54406 1.04955 0
M  V30 5126 C 488.057 -1.92366 -0.385951 0
M  V30 5127 O 487.182 -1.75111 -1.27142 0
M  V30 5128 C 487.777 -2.80578 1.89899 0
M  V30 5129 C 486.336 -3.32464 1.76478 0
M  V30 5130 C 485.483 -2.05524 1.86159 0
M  V30 5131 H 488.434 -0.810211 1.3646 0
M  V30 5132 H 488.455 -3.53075 1.4184 0
M  V30 5133 H 487.967 -2.52918 2.94371 0
M  V30 5134 H 486.068 -3.65024 0.747528 0
M  V30 5135 H 486.181 -4.02838 2.59342 0
M  V30 5136 H 484.545 -2.19241 1.29636 0
M  V30 5137 H 485.328 -1.80258 2.92168 0
M  V30 5138 N 487.773 -1.03688 -1.18687 0
M  V30 5139 C 488.723 -0.595067 -2.20098 0
M  V30 5140 C 489.707 0.360465 -1.5681 0
M  V30 5141 O 490.899 0.180136 -1.76081 0
M  V30 5142 C 488.028 0.0444495 -3.43271 0
M  V30 5143 C 487.114 -0.934002 -4.13687 0
M  V30 5144 N 487.505 -2.09957 -4.60165 0
M  V30 5145 C 485.803 -0.759177 -4.39491 0
M  V30 5146 C 486.504 -2.71735 -5.1433 0
M  V30 5147 N 485.48 -1.99638 -5.05614 0
M  V30 5148 H 489.282 -1.48336 -2.5372 0
M  V30 5149 H 486.796 -0.904949 -1.3485 0
M  V30 5150 H 488.793 0.37864 -4.15177 0
M  V30 5151 H 487.453 0.928325 -3.11147 0
M  V30 5152 H 488.464 -2.47863 -4.54735 0
M  V30 5153 H 485.141 0.0749292 -4.17433 0
M  V30 5154 H 486.531 -3.70492 -5.60523 0
M  V30 5155 N 489.251 1.34841 -0.815825 0
M  V30 5156 C 490.667 1.51543 -0.500697 0
M  V30 5157 C 490.867 1.76261 0.976444 0
M  V30 5158 O 489.923 1.8094 1.76117 0
M  V30 5159 C 491.236 2.68487 -1.35407 0
M  V30 5160 C 492.784 2.82368 -1.35046 0
M  V30 5161 C 493.259 4.02347 -2.18816 0
M  V30 5162 N 494.75 4.09542 -2.16402 0
M  V30 5163 C 495.485 5.01517 -2.77971 0
M  V30 5164 N 494.981 5.98763 -3.48503 0
M  V30 5165 N 496.774 4.94334 -2.67563 0
M  V30 5166 H 488.925 1.17055 -1.77234 0
M  V30 5167 H 491.188 0.573481 -0.754866 0
M  V30 5168 H 490.894 2.56829 -2.40274 0
M  V30 5169 H 490.768 3.63321 -1.01377 0
M  V30 5170 H 493.155 2.93471 -0.309604 0
M  V30 5171 H 493.236 1.88363 -1.73069 0
M  V30 5172 H 492.88 3.92004 -3.22948 0
M  V30 5173 H 492.81 4.95551 -1.78148 0
M  V30 5174 H 495.301 3.39932 -1.65091 0
M  V30 5175 H 495.614 6.6556 -3.92747 0
M  V30 5176 H 493.959 5.98909 -3.52609 0
M  V30 5177 H 497.15 4.1732 -2.12041 0
M  V30 5178 H 497.323 5.6582 -3.15834 0
M  V30 5179 N 490.729 0.570148 1.46925 0
M  V30 5180 C 491.959 0.0561151 2.06524 0
M  V30 5181 C 492.367 -1.24874 1.42137 0
M  V30 5182 O 491.71 -1.76292 0.516417 0
M  V30 5183 C 491.772 -0.197035 3.5896 0
M  V30 5184 C 491.436 1.02033 4.45464 0
M  V30 5185 C 492.433 1.92921 4.82781 0
M  V30 5186 C 490.118 1.23864 4.86788 0
M  V30 5187 C 492.112 3.03999 5.60235 0
M  V30 5188 C 489.799 2.35249 5.64004 0
M  V30 5189 C 490.797 3.25146 6.0064 0
M  V30 5190 O 490.485 4.34598 6.76299 0
M  V30 5191 H 490.217 0.0487409 0.674241 0
M  V30 5192 H 492.771 0.786915 1.89728 0
M  V30 5193 H 491.001 -0.982299 3.74016 0
M  V30 5194 H 492.69 -0.658032 4.00531 0
M  V30 5195 H 493.456 1.77265 4.51444 0
M  V30 5196 H 489.335 0.54805 4.57731 0
M  V30 5197 H 492.879 3.74192 5.8875 0
M  V30 5198 H 488.776 2.50873 5.94755 0
M  V30 5199 H 489.544 4.32808 6.94708 0
M  V30 5200 N 492.207 -1.54576 0.307264 0
M  V30 5201 C 493.456 -1.99442 -0.300976 0
M  V30 5202 C 493.769 -1.19928 -1.5452 0
M  V30 5203 O 494.975 -1.55092 -2.22842 0
M  V30 5204 C 493.431 -3.55084 -0.586809 0
M  V30 5205 C 493.039 -4.43413 0.639438 0
M  V30 5206 C 494.783 -4.0846 -1.1559 0
M  V30 5207 C 492.69 -5.90499 0.326411 0
M  V30 5208 H 491.62 -0.744986 -0.116238 0
M  V30 5209 H 494.271 -1.787 0.416947 0
M  V30 5210 H 492.653 -3.71749 -1.36449 0
M  V30 5211 H 493.827 -4.38522 1.41545 0
M  V30 5212 H 492.142 -4.00842 1.1276 0
M  V30 5213 H 494.739 -5.15926 -1.40445 0
M  V30 5214 H 495.082 -3.59443 -2.10015 0
M  V30 5215 H 495.615 -3.95362 -0.439778 0
M  V30 5216 H 492.354 -6.43676 1.23939 0
M  V30 5217 H 491.874 -5.98382 -0.412212 0
M  V30 5218 H 493.553 -6.46962 -0.0697393 0
M  V30 5219 N 493.685 -0.035106 -1.57561 0
M  V30 5220 C 494.648 0.929819 -2.09492 0
M  V30 5221 C 495.648 1.25026 -1.01119 0
M  V30 5222 O 496.838 1.18961 -1.27255 0
M  V30 5223 C 493.97 2.24457 -2.56577 0
M  V30 5224 H 495.163 0.479935 -2.96035 0
M  V30 5225 H 492.716 0.213033 -1.54841 0
M  V30 5226 H 493.451 2.74061 -1.73382 0
M  V30 5227 H 493.236 2.02508 -3.35757 0
M  V30 5228 H 494.726 2.93607 -2.96959 0
M  V30 5229 N 495.163 1.55791 0.238111 0
M  V30 5230 C 496.111 1.91885 1.31464 0
M  V30 5231 C 497.105 0.798929 1.49377 0
M  V30 5232 O 498.311 0.983626 1.50747 0
M  V30 5233 H 494.686 0.609551 0.440399 0
M  V30 5234 H 496.657 2.81747 0.982925 0
M  V30 5235 C 495.406 2.23763 2.6613 0
M  V30 5236 H 494.729 3.09444 2.53149 0
M  V30 5237 H 496.169 2.52915 3.40309 0
M  V30 5238 C 494.628 1.05699 3.1989 0
M  V30 5239 O 495.158 0.309524 4.00506 0
M  V30 5240 N 493.364 0.845251 2.78036 0
M  V30 5241 H 492.911 1.4548 2.12588 0
M  V30 5242 H 492.869 0.0569973 3.14348 0
M  V30 5243 N 496.642 -0.504142 1.49319 0
M  V30 5244 C 497.572 -1.61473 1.68667 0
M  V30 5245 C 498.553 -1.61455 0.535378 0
M  V30 5246 O 499.738 -1.78245 0.770868 0
M  V30 5247 C 496.868 -2.99971 1.75028 0
M  V30 5248 C 495.822 -3.14854 2.89916 0
M  V30 5249 C 495.148 -4.54671 2.81387 0
M  V30 5250 C 496.448 -2.95176 4.30893 0
M  V30 5251 H 498.142 -1.45535 2.61648 0
M  V30 5252 H 495.688 -0.698711 1.25913 0
M  V30 5253 H 497.641 -3.77562 1.8715 0
M  V30 5254 H 496.365 -3.1699 0.786441 0
M  V30 5255 H 495.024 -2.39687 2.77391 0
M  V30 5256 H 494.672 -4.68562 1.82917 0
M  V30 5257 H 494.372 -4.6557 3.58494 0
M  V30 5258 H 495.896 -5.34327 2.95512 0
M  V30 5259 H 497.31 -3.62538 4.44116 0
M  V30 5260 H 495.707 -3.17549 5.09198 0
M  V30 5261 H 496.777 -1.91332 4.45556 0
M  V30 5262 N 498.12 -1.38341 -0.754957 0
M  V30 5263 C 499.368 -1.34208 -1.51105 0
M  V30 5264 C 499.689 0.0677634 -1.94882 0
M  V30 5265 O 498.959 1.01517 -1.67544 0
M  V30 5266 H 497.539 -0.493819 -0.560493 0
M  V30 5267 H 500.201 -1.73005 -0.897507 0
M  V30 5268 H 499.297 -1.99203 -2.4026 0
M  V30 5269 N 499.598 0.982988 -1.23187 0
M  V30 5270 C 500.548 2.05962 -0.977942 0
M  V30 5271 C 501.532 1.60725 0.0751148 0
M  V30 5272 O 502.724 1.76471 -0.136683 0
M  V30 5273 C 499.853 3.38564 -0.568276 0
M  V30 5274 C 498.939 3.90407 -1.6566 0
M  V30 5275 N 499.33 4.15359 -2.88635 0
M  V30 5276 C 497.628 4.18915 -1.53058 0
M  V30 5277 C 498.329 4.57642 -3.5908 0
M  V30 5278 N 497.305 4.6192 -2.86584 0
M  V30 5279 H 501.107 2.23208 -1.91195 0
M  V30 5280 H 498.621 1.16555 -1.13087 0
M  V30 5281 H 500.618 4.15276 -0.36764 0
M  V30 5282 H 499.278 3.22712 0.358713 0
M  V30 5283 H 500.289 4.03258 -3.24966 0
M  V30 5284 H 496.966 4.12081 -0.670506 0
M  V30 5285 H 498.356 4.85488 -4.6449 0
M  V30 5286 N 501.076 1.04316 1.18135 0
M  V30 5287 C 502.324 0.746542 1.87806 0
M  V30 5288 C 502.645 -0.728082 1.80898 0
M  V30 5289 O 501.915 -1.52554 1.22899 0
M  V30 5290 H 500.495 0.273157 0.695265 0
M  V30 5291 H 503.157 1.32044 1.43354 0
M  V30 5292 H 502.253 1.05362 2.93778 0
M  V30 5293 N 502.554 -1.34406 0.822964 0
M  V30 5294 C 503.484 -2.32052 0.259608 0
M  V30 5295 C 504.465 -1.58243 -0.623961 0
M  V30 5296 O 505.65 -1.86224 -0.55083 0
M  V30 5297 C 502.78 -3.42434 -0.579314 0
M  V30 5298 C 501.734 -4.27499 0.20712 0
M  V30 5299 C 501.06 -5.29349 -0.754547 0
M  V30 5300 C 502.36 -5.02758 1.41533 0
M  V30 5301 H 504.054 -2.79418 1.07545 0
M  V30 5302 H 501.6 -1.34338 0.518593 0
M  V30 5303 H 503.553 -4.0976 -0.983612 0
M  V30 5304 H 502.277 -2.93717 -1.4282 0
M  V30 5305 H 500.936 -3.61776 0.592787 0
M  V30 5306 H 500.584 -4.76895 -1.59939 0
M  V30 5307 H 500.284 -5.8714 -0.232561 0
M  V30 5308 H 501.808 -5.99544 -1.1567 0
M  V30 5309 H 503.222 -5.62938 1.08504 0
M  V30 5310 H 501.619 -5.70123 1.87296 0
M  V30 5311 H 502.689 -4.32451 2.1935 0
M  V30 5312 N 504.032 -0.577932 -1.46621 0
M  V30 5313 C 505.262 -0.0670668 -2.06491 0
M  V30 5314 C 505.67 1.24119 -1.42798 0
M  V30 5315 O 505.013 1.76016 -0.525759 0
M  V30 5316 C 505.075 0.177995 -3.59059 0
M  V30 5317 C 504.739 -1.04394 -4.44917 0
M  V30 5318 C 505.736 -1.95479 -4.81751 0
M  V30 5319 C 503.421 -1.26444 -4.86125 0
M  V30 5320 C 505.415 -3.06965 -5.58615 0
M  V30 5321 C 503.102 -2.38237 -5.62749 0
M  V30 5322 C 504.1 -3.28327 -5.98908 0
M  V30 5323 O 503.788 -4.38179 -6.73984 0
M  V30 5324 H 503.52 -0.0523159 -0.673973 0
M  V30 5325 H 506.074 -0.796966 -1.89308 0
M  V30 5326 H 504.304 0.962451 -3.74531 0
M  V30 5327 H 505.993 0.636782 -4.00874 0
M  V30 5328 H 506.759 -1.79657 -4.50498 0
M  V30 5329 H 502.638 -0.572316 -4.57434 0
M  V30 5330 H 506.182 -3.77309 -5.86757 0
M  V30 5331 H 502.079 -2.54023 -5.93416 0
M  V30 5332 H 502.847 -4.36486 -6.92403 0
M  V30 5333 N 505.51 1.54411 -0.315457 0
M  V30 5334 C 506.921 1.85885 0.174265 0
M  V30 5335 C 507.272 1.23723 1.52273 0
M  V30 5336 O 506.397 0.540246 2.09548 0
M  V30 5337 C 506.992 3.37257 0.322981 0
M  V30 5338 C 505.551 3.68711 0.756922 0
M  V30 5339 C 504.698 2.77013 -0.126195 0
M  V30 5340 H 507.649 1.49374 -0.536007 0
M  V30 5341 H 507.67 3.62539 1.15522 0
M  V30 5342 H 507.182 3.82471 -0.658602 0
M  V30 5343 H 505.283 3.29024 1.74854 0
M  V30 5344 H 505.396 4.75741 0.566291 0
M  V30 5345 H 503.76 2.51588 0.39692 0
M  V30 5346 H 504.543 3.25051 -1.1044 0
M  V30 5347 N 506.988 0.0434614 1.5754 0
M  V30 5348 C 508.265 -0.671479 1.83713 0
M  V30 5349 C 508.645 -1.89495 0.930315 0
M  V30 5350 O 507.993 -2.28498 -0.0105639 0
M  V30 5351 C 508.203 -1.0361 3.33266 0
M  V30 5352 C 509.551 -1.42167 4.00092 0
M  V30 5353 O 510.575 -1.12866 3.37846 0
M  V30 5354 O 509.434 -1.96817 5.09829 0
M  V30 5355 H 506.528 -0.330726 0.75799 0
M  V30 5356 H 509.074 0.0722373 1.69546 0
M  V30 5357 H 507.846 -0.165938 3.90948 0
M  V30 5358 H 507.469 -1.83751 3.52592 0
M  V30 5359 N 508.466 -1.55915 -0.229846 0
M  V30 5360 C 509.399 -1.86734 -1.3117 0
M  V30 5361 C 510.377 -0.723947 -1.45595 0
M  V30 5362 O 511.561 -0.971462 -1.61539 0
M  V30 5363 C 508.688 -2.06707 -2.68309 0
M  V30 5364 C 507.734 -3.2938 -2.70944 0
M  V30 5365 S 508.567 -4.85547 -2.25842 0
M  V30 5366 C 509.723 -5.08546 -3.64873 0
M  V30 5367 H 509.956 -2.78204 -1.04832 0
M  V30 5368 H 507.489 -1.48243 -0.431681 0
M  V30 5369 H 509.447 -2.18898 -3.47267 0
M  V30 5370 H 508.108 -1.16049 -2.91876 0
M  V30 5371 H 507.301 -3.40374 -3.71701 0
M  V30 5372 H 506.903 -3.16004 -2.00044 0
M  V30 5373 H 509.195 -4.96935 -4.60502 0
M  V30 5374 H 510.138 -6.10465 -3.58801 0
M  V30 5375 H 510.546 -4.36314 -3.58176 0
M  V30 5376 N 509.944 0.496216 -1.49584 0
M  V30 5377 C 511.221 1.25755 -1.49816 0
M  V30 5378 C 511.601 2.09859 -0.228572 0
M  V30 5379 O 510.949 2.14449 0.788908 0
M  V30 5380 C 511.159 2.11017 -2.7798 0
M  V30 5381 C 512.507 2.70047 -3.27658 0
M  V30 5382 O 513.531 2.21281 -2.79129 0
M  V30 5383 O 512.39 3.58834 -4.1219 0
M  V30 5384 H 509.484 0.569322 -0.599834 0
M  V30 5385 H 512.03 0.510094 -1.61852 0
M  V30 5386 H 510.802 1.48879 -3.61871 0
M  V30 5387 H 510.425 2.92947 -2.68827 0
M  V30 5388 N 511.423 1.38739 0.74761 0
M  V30 5389 C 512.834 1.31507 1.32524 0
M  V30 5390 C 513.185 -0.0263963 1.96182 0
M  V30 5391 O 512.31 -0.92849 1.95469 0
M  V30 5392 C 512.905 2.38162 2.40966 0
M  V30 5393 C 511.464 2.34489 2.94434 0
M  V30 5394 C 510.611 2.20712 1.67873 0
M  V30 5395 H 513.562 1.4901 0.546043 0
M  V30 5396 H 513.583 2.04222 3.21051 0
M  V30 5397 H 513.095 3.35783 1.94605 0
M  V30 5398 H 511.196 1.40467 3.45108 0
M  V30 5399 H 511.309 3.28861 3.48407 0
M  V30 5400 H 509.673 1.67667 1.91729 0
M  V30 5401 H 510.456 3.20285 1.23582 0
M  V30 5402 N 512.901 -0.976442 1.23707 0
M  V30 5403 C 513.811 -2.10359 1.03856 0
M  V30 5404 C 514.827 -1.73991 -0.0180919 0
M  V30 5405 O 516.003 -2.0061 0.178211 0
M  V30 5406 C 513.068 -3.40809 0.636387 0
M  V30 5407 C 512.129 -3.91179 1.76854 0
M  V30 5408 C 511.362 -5.15404 1.38546 0
M  V30 5409 O 511.585 -5.69754 0.27142 0
M  V30 5410 O 510.519 -5.5994 2.20797 0
M  V30 5411 H 514.345 -2.29997 1.98331 0
M  V30 5412 H 511.93 -1.08742 1.02448 0
M  V30 5413 H 513.812 -4.19269 0.423223 0
M  V30 5414 H 512.487 -3.22493 -0.279322 0
M  V30 5415 H 511.394 -3.13819 2.03638 0
M  V30 5416 H 512.727 -4.13958 2.6627 0
M  V30 5417 N 514.379 -1.04941 -1.1758 0
M  V30 5418 C 515.329 -0.618378 -2.19454 0
M  V30 5419 C 516.313 0.343813 -1.57184 0
M  V30 5420 O 517.505 0.16145 -1.76262 0
M  V30 5421 C 514.634 0.00803847 -3.43299 0
M  V30 5422 C 513.72 -0.977827 -4.12673 0
M  V30 5423 N 514.111 -2.14826 -4.57912 0
M  V30 5424 C 512.409 -0.805748 -4.38661 0
M  V30 5425 C 513.11 -2.77174 -5.11419 0
M  V30 5426 N 512.086 -2.04989 -5.03468 0
M  V30 5427 H 515.888 -1.51018 -2.52132 0
M  V30 5428 H 513.402 -0.919201 -1.33882 0
M  V30 5429 H 515.399 0.334584 -4.15555 0
M  V30 5430 H 514.059 0.895272 -3.12114 0
M  V30 5431 H 515.07 -2.52673 -4.52081 0
M  V30 5432 H 511.747 0.0306506 -4.17489 0
M  V30 5433 H 513.137 -3.76416 -5.56562 0
M  V30 5434 N 515.857 1.33968 -0.830081 0
M  V30 5435 C 517.103 1.98357 -0.422191 0
M  V30 5436 C 517.436 1.65633 1.01387 0
M  V30 5437 O 516.711 0.931648 1.70735 0
M  V30 5438 C 516.994 3.54492 -0.633043 0
M  V30 5439 C 516.847 3.96934 -2.11574 0
M  V30 5440 C 518.166 4.40039 -0.0735584 0
M  V30 5441 H 515.285 0.720544 -0.154871 0
M  V30 5442 H 517.927 1.58749 -1.04397 0
M  V30 5443 H 516.077 3.88361 -0.103775 0
M  V30 5444 H 517.749 3.73363 -2.7092 0
M  V30 5445 H 515.992 3.46984 -2.60354 0
M  V30 5446 H 516.663 5.05651 -2.21406 0
M  V30 5447 H 519.139 4.12764 -0.52585 0
M  V30 5448 H 518.015 5.48327 -0.250841 0
M  V30 5449 H 518.276 4.30124 1.02202 0
M  V30 5450 N 517.335 0.585699 1.46312 0
M  V30 5451 C 518.583 0.072278 2.01971 0
M  V30 5452 C 518.904 -1.29345 1.45928 0
M  V30 5453 O 518.174 -1.84973 0.645109 0
M  V30 5454 H 516.754 0.023729 0.746623 0
M  V30 5455 H 519.416 0.762155 1.7938 0
M  V30 5456 H 518.512 0.00552767 3.121 0
M  V30 5457 N 518.813 -1.54241 0.323641 0
M  V30 5458 C 519.776 -2.22997 -0.529602 0
M  V30 5459 C 520.776 -1.22345 -1.04347 0
M  V30 5460 O 521.966 -1.46924 -0.935889 0
M  V30 5461 C 519.098 -2.93409 -1.73562 0
M  V30 5462 H 520.291 -2.99815 0.0714518 0
M  V30 5463 H 517.844 -1.56121 0.0747258 0
M  V30 5464 H 518.579 -2.20729 -2.37591 0
M  V30 5465 H 518.364 -3.67217 -1.37456 0
M  V30 5466 H 519.854 -3.45794 -2.34128 0
M  V30 5467 N 520.291 -0.0518155 -1.57515 0
M  V30 5468 C 521.538 0.621823 -1.92716 0
M  V30 5469 C 521.866 1.70813 -0.930229 0
M  V30 5470 O 521.121 1.95616 0.0573708 0
M  V30 5471 C 521.42 1.25607 -3.34601 0
M  V30 5472 C 521.086 0.297901 -4.49915 0
M  V30 5473 C 519.748 0.034243 -4.81188 0
M  V30 5474 C 522.1 -0.358738 -5.19964 0
M  V30 5475 C 519.428 -0.893479 -5.79857 0
M  V30 5476 C 521.78 -1.27466 -6.19625 0
M  V30 5477 C 520.444 -1.54698 -6.49326 0
M  V30 5478 H 519.714 0.227541 -0.705199 0
M  V30 5479 H 522.361 -0.118432 -1.91133 0
M  V30 5480 H 520.666 2.07161 -3.32553 0
M  V30 5481 H 522.363 1.78424 -3.59118 0
M  V30 5482 H 518.953 0.513581 -4.25512 0
M  V30 5483 H 523.137 -0.168133 -4.96015 0
M  V30 5484 H 518.393 -1.11193 -6.01204 0
M  V30 5485 H 522.567 -1.78953 -6.73015 0
M  V30 5486 H 520.194 -2.26748 -7.25596 0
M  V30 5487 N 521.769 1.56035 0.221574 0
M  V30 5488 C 523.015 1.79312 0.947372 0
M  V30 5489 C 523.348 0.621453 1.83988 0
M  V30 5490 O 522.623 -0.379287 1.90766 0
M  V30 5491 C 522.906 3.1267 1.78633 0
M  V30 5492 C 522.759 4.40284 0.920312 0
M  V30 5493 C 524.078 3.4247 2.7641 0
M  V30 5494 H 521.197 0.652328 0.342982 0
M  V30 5495 H 523.839 1.88765 0.216244 0
M  V30 5496 H 521.989 3.04741 2.40967 0
M  V30 5497 H 523.661 4.60232 0.313718 0
M  V30 5498 H 521.904 4.33212 0.225734 0
M  V30 5499 H 522.575 5.30033 1.54171 0
M  V30 5500 H 525.051 3.50526 2.24211 0
M  V30 5501 H 523.927 4.3695 3.32213 0
M  V30 5502 H 524.188 2.64635 3.54148 0
M  V30 5503 N 523.247 -0.488276 1.49845 0
M  V30 5504 C 524.524 -1.24959 1.50481 0
M  V30 5505 C 524.904 -2.09735 0.239698 0
M  V30 5506 O 524.252 -2.14865 -0.777524 0
M  V30 5507 C 524.462 -2.0954 2.79095 0
M  V30 5508 C 525.81 -2.68305 3.29086 0
M  V30 5509 O 526.834 -2.19797 2.80299 0
M  V30 5510 O 525.693 -3.56643 4.14087 0
M  V30 5511 H 522.787 -0.566133 0.602845 0
M  V30 5512 H 525.333 -0.501504 1.6212 0
M  V30 5513 H 524.105 -1.46958 3.62656 0
M  V30 5514 H 523.728 -2.91517 2.70377 0
M  V30 5515 N 524.725 -1.39134 -0.740242 0
M  V30 5516 C 525.688 -1.37217 -1.83587 0
M  V30 5517 C 526.688 -0.270221 -1.58513 0
M  V30 5518 O 527.878 -0.527843 -1.6601 0
M  V30 5519 C 525.01 -1.13959 -3.21288 0
M  V30 5520 H 526.203 -2.34705 -1.86691 0
M  V30 5521 H 523.756 -1.24622 -0.94335 0
M  V30 5522 H 524.491 -0.17131 -3.23847 0
M  V30 5523 H 524.276 -1.93754 -3.40884 0
M  V30 5524 H 525.766 -1.15346 -4.01354 0
M  V30 5525 N 526.204 0.969867 -1.24223 0
M  V30 5526 C 527.45 1.7151 -1.08223 0
M  V30 5527 C 527.783 1.90478 0.37838 0
M  V30 5528 O 527.058 1.4647 1.27971 0
M  V30 5529 C 527.341 3.10714 -1.82013 0
M  V30 5530 C 527.194 2.9925 -3.35811 0
M  V30 5531 C 528.513 4.10332 -1.59108 0
M  V30 5532 H 525.632 0.622499 -0.394543 0
M  V30 5533 H 528.274 1.1284 -1.52863 0
M  V30 5534 H 526.424 3.608 -1.44068 0
M  V30 5535 H 528.096 2.56608 -3.83341 0
M  V30 5536 H 526.339 2.35512 -3.64303 0
M  V30 5537 H 527.01 3.97857 -3.82641 0
M  V30 5538 H 529.486 3.69097 -1.92111 0
M  V30 5539 H 528.362 5.05804 -2.13198 0
M  V30 5540 H 528.623 4.38926 -0.528832 0
M  V30 5541 N 527.682 1.05563 1.17022 0
M  V30 5542 C 528.632 0.630007 2.19123 0
M  V30 5543 C 529.616 -0.335472 1.57364 0
M  V30 5544 O 530.808 -0.1521 1.76345 0
M  V30 5545 C 527.937 0.0101676 3.43298 0
M  V30 5546 C 527.023 0.999698 4.12149 0
M  V30 5547 N 527.414 2.17251 4.56766 0
M  V30 5548 C 525.712 0.829 4.38228 0
M  V30 5549 C 526.413 2.79883 5.09942 0
M  V30 5550 N 525.389 2.07656 5.02374 0
M  V30 5551 H 529.191 1.52353 2.51328 0
M  V30 5552 H 526.705 0.926288 1.33393 0
M  V30 5553 H 528.702 -0.312541 4.15727 0
M  V30 5554 H 527.362 -0.878707 3.12584 0
M  V30 5555 H 528.373 2.55067 4.50734 0
M  V30 5556 H 525.05 -0.00850974 4.17499 0
M  V30 5557 H 526.44 3.79362 5.54558 0
M  V30 5558 N 529.16 -1.33526 0.837174 0
M  V30 5559 C 530.107 -2.29248 0.267169 0
M  V30 5560 C 531.077 -1.54252 -0.616071 0
M  V30 5561 O 532.262 -1.82559 -0.554699 0
M  V30 5562 C 529.402 -3.40638 -0.553152 0
M  V30 5563 C 528.515 -4.30548 0.353921 0
M  V30 5564 C 527.65 -5.29051 -0.477339 0
M  V30 5565 C 526.689 -6.106 0.42823 0
M  V30 5566 N 525.826 -7.01152 -0.364801 0
M  V30 5567 H 530.666 -2.77398 1.08877 0
M  V30 5568 H 528.203 -1.36496 0.54838 0
M  V30 5569 H 530.161 -4.03921 -1.04422 0
M  V30 5570 H 528.791 -2.93685 -1.33973 0
M  V30 5571 H 527.843 -3.68001 0.963289 0
M  V30 5572 H 529.155 -4.87631 1.04964 0
M  V30 5573 H 528.309 -5.97853 -1.0323 0
M  V30 5574 H 527.048 -4.72541 -1.2065 0
M  V30 5575 H 526.053 -5.40718 0.995219 0
M  V30 5576 H 527.278 -6.69193 1.15573 0
M  V30 5577 H 525.224 -6.47092 -1.07738 0
M  V30 5578 H 525.141 -7.5551 0.272238 0
M  V30 5579 H 526.409 -7.74263 -0.902054 0
M  V30 5580 N 530.638 -0.59345 -1.46 0
M  V30 5581 C 531.588 0.154751 -2.27474 0
M  V30 5582 C 532.572 0.851849 -1.365 0
M  V30 5583 O 533.764 0.744171 -1.60596 0
M  V30 5584 C 530.893 1.16079 -3.2308 0
M  V30 5585 C 529.979 0.465256 -4.2154 0
M  V30 5586 N 530.37 -0.485197 -5.03467 0
M  V30 5587 C 528.668 0.714634 -4.40237 0
M  V30 5588 C 529.369 -0.892709 -5.74809 0
M  V30 5589 N 528.345 -0.239511 -5.43072 0
M  V30 5590 H 532.147 -0.57546 -2.88211 0
M  V30 5591 H 529.661 -0.416046 -1.5698 0
M  V30 5592 H 531.658 1.71108 -3.80168 0
M  V30 5593 H 530.318 1.89171 -2.63903 0
M  V30 5594 H 531.329 -0.861258 -5.10689 0
M  V30 5595 H 528.006 1.43131 -3.92199 0
M  V30 5596 H 529.396 -1.67581 -6.50666 0
M  V30 5597 N 532.116 1.54067 -0.331816 0
M  V30 5598 C 533.341 2.05599 0.272705 0
M  V30 5599 C 533.766 1.2059 1.44359 0
M  V30 5600 O 533.124 0.216907 1.79998 0
M  V30 5601 C 533.172 3.54188 0.677021 0
M  V30 5602 O 532.276 3.72082 1.77844 0
M  V30 5603 H 531.617 0.662286 0.0476801 0
M  V30 5604 H 534.147 1.98826 -0.482624 0
M  V30 5605 H 534.157 3.96608 0.957415 0
M  V30 5606 H 532.832 4.15513 -0.179325 0
M  V30 5607 H 531.409 3.41566 1.49622 0
M  V30 5608 N 533.594 0.0601682 1.57485 0
M  V30 5609 C 535.01 -0.296422 1.56823 0
M  V30 5610 C 535.21 -1.70831 1.0686 0
M  V30 5611 O 534.266 -2.4174 0.729245 0
M  V30 5612 C 535.579 -0.116681 3.00474 0
M  V30 5613 C 537.127 -0.187103 3.1244 0
M  V30 5614 C 537.602 -0.035783 4.57986 0
M  V30 5615 N 539.093 -0.0917676 4.63109 0
M  V30 5616 C 539.828 0.00107251 5.734 0
M  V30 5617 N 539.324 0.146773 6.92645 0
M  V30 5618 N 541.117 -0.0551577 5.62073 0
M  V30 5619 H 533.268 0.983055 1.88281 0
M  V30 5620 H 535.531 0.382386 0.867459 0
M  V30 5621 H 535.237 0.85712 3.41096 0
M  V30 5622 H 535.111 -0.873929 3.66936 0
M  V30 5623 H 537.498 -1.15138 2.71712 0
M  V30 5624 H 537.579 0.601052 2.48638 0
M  V30 5625 H 537.223 0.925212 4.99402 0
M  V30 5626 H 537.153 -0.843196 5.19806 0
M  V30 5627 H 539.644 -0.203261 3.77353 0
M  V30 5628 H 539.957 0.210076 7.72514 0
M  V30 5629 H 538.302 0.181979 6.94762 0
M  V30 5630 H 541.493 -0.167605 4.678 0
M  V30 5631 H 541.666 0.020652 6.47997 0
M  V30 5632 N 535.072 -1.5615 -0.213296 0
M  V30 5633 C 536.002 -1.96109 -1.26742 0
M  V30 5634 C 536.983 -0.830448 -1.48451 0
M  V30 5635 O 538.168 -1.09339 -1.60495 0
M  V30 5636 C 535.298 -2.28492 -2.61551 0
M  V30 5637 C 534.252 -3.44124 -2.54485 0
M  V30 5638 C 533.578 -3.62134 -3.93399 0
M  V30 5639 C 534.878 -4.78855 -2.08556 0
M  V30 5640 H 536.572 -2.84412 -0.935434 0
M  V30 5641 H 534.118 -1.36836 -0.44854 0
M  V30 5642 H 536.071 -2.55039 -3.3546 0
M  V30 5643 H 534.795 -1.37052 -2.96453 0
M  V30 5644 H 533.454 -3.17639 -1.83033 0
M  V30 5645 H 533.102 -2.68055 -4.25623 0
M  V30 5646 H 532.802 -4.39913 -3.89551 0
M  V30 5647 H 534.326 -3.91038 -4.68958 0
M  V30 5648 H 535.74 -5.04552 -2.72213 0
M  V30 5649 H 534.137 -5.59975 -2.1575 0
M  V30 5650 H 535.207 -4.73657 -1.03811 0
M  V30 5651 N 536.55 0.480323 -1.50102 0
M  V30 5652 C 537.48 1.58769 -1.71215 0
M  V30 5653 C 538.461 1.60583 -0.560997 0
M  V30 5654 O 539.646 1.76996 -0.799127 0
M  V30 5655 C 536.776 2.97148 -1.79778 0
M  V30 5656 C 535.73 3.10201 -2.94888 0
M  V30 5657 C 535.056 4.50137 -2.88584 0
M  V30 5658 C 536.356 2.88283 -4.35534 0
M  V30 5659 H 538.05 1.41354 -2.6393 0
M  V30 5660 H 535.596 0.678591 -1.27008 0
M  V30 5661 H 537.549 3.74536 -1.93133 0
M  V30 5662 H 536.273 3.15699 -0.836772 0
M  V30 5663 H 534.932 2.35244 -2.81169 0
M  V30 5664 H 534.58 4.65593 -1.90349 0
M  V30 5665 H 534.28 4.59808 -3.65856 0
M  V30 5666 H 535.804 5.29558 -3.03976 0
M  V30 5667 H 537.218 3.55427 -4.49827 0
M  V30 5668 H 535.615 3.09408 -5.14186 0
M  V30 5669 H 536.685 1.84219 -4.48544 0
M  V30 5670 N 538.028 1.39524 0.732853 0
M  V30 5671 C 539.444 1.21176 1.03868 0
M  V30 5672 C 539.644 0.0748448 2.01361 0
M  V30 5673 O 538.7 -0.57281 2.45917 0
M  V30 5674 C 540.013 2.54667 1.59892 0
M  V30 5675 C 541.561 2.6153 1.71962 0
M  V30 5676 C 542.036 3.95248 2.31394 0
M  V30 5677 N 543.527 3.96899 2.38801 0
M  V30 5678 C 544.262 4.97138 2.85729 0
M  V30 5679 N 543.758 6.07775 3.32537 0
M  V30 5680 N 545.551 4.84516 2.84957 0
M  V30 5681 H 537.702 2.12225 0.086304 0
M  V30 5682 H 539.965 0.942614 0.100907 0
M  V30 5683 H 539.671 3.38423 0.95721 0
M  V30 5684 H 539.545 2.74538 2.58668 0
M  V30 5685 H 541.932 1.78156 2.35254 0
M  V30 5686 H 542.013 2.45507 0.718327 0
M  V30 5687 H 541.657 4.79054 1.68729 0
M  V30 5688 H 541.587 4.08593 3.32204 0
M  V30 5689 H 544.078 3.16998 2.05719 0
M  V30 5690 H 544.391 6.8017 3.66862 0
M  V30 5691 H 542.736 6.11366 3.30541 0
M  V30 5692 H 545.927 3.97185 2.47713 0
M  V30 5693 H 546.1 5.62783 3.21215 0
M  V30 5694 N 539.506 -0.963266 1.24736 0
M  V30 5695 C 540.438 -2.06162 1.0015 0
M  V30 5696 C 541.451 -1.62771 -0.0305905 0
M  V30 5697 O 542.64 -1.77296 0.206966 0
M  V30 5698 C 539.74 -3.35333 0.490385 0
M  V30 5699 C 538.913 -4.07609 1.58663 0
M  V30 5700 C 537.972 -5.15052 1.0774 0
M  V30 5701 O 536.998 -5.4098 1.77002 0
M  V30 5702 N 538.2 -5.80436 -0.0858605 0
M  V30 5703 H 540.965 -2.27825 1.94719 0
M  V30 5704 H 538.526 -1.13121 1.15825 0
M  V30 5705 H 540.518 -4.04477 0.134371 0
M  V30 5706 H 539.088 -3.10507 -0.361155 0
M  V30 5707 H 538.308 -3.32681 2.11463 0
M  V30 5708 H 539.596 -4.52656 2.32336 0
M  V30 5709 H 538.994 -5.6178 -0.664806 0
M  V30 5710 H 537.551 -6.50674 -0.382981 0
M  V30 5711 N 540.985 -1.06182 -1.16461 0
M  V30 5712 C 541.933 -0.665716 -2.2287 0
M  V30 5713 C 542.927 0.317822 -1.66392 0
M  V30 5714 O 544.133 0.182807 -1.79069 0
M  V30 5715 H 540.508 -0.197148 -0.725697 0
M  V30 5716 H 542.479 -1.57307 -2.53569 0
M  V30 5717 C 541.228 -0.0669803 -3.47635 0
M  V30 5718 H 540.551 -0.814899 -3.91407 0
M  V30 5719 H 541.991 0.172669 -4.23648 0
M  V30 5720 C 540.45 1.18913 -3.15216 0
M  V30 5721 O 540.98 2.27723 -3.30916 0
M  V30 5722 N 539.186 1.09066 -2.69357 0
M  V30 5723 H 538.733 0.20518 -2.56782 0
M  V30 5724 H 538.691 1.93195 -2.48039 0
M  V30 5725 O 542.502 1.28464 -0.97874 0
M  V30 5726 H 543.193 1.83432 -0.622284 0
M  V30 END ATOM
M  V30 BEGIN BOND
M  V30 END BOND
M  V30 END CTAB
M  END
$$$$
