drugbank_target|P06126 T-cell surface glycoprotein CD1a (DB00098)
 OpenBabel12092119353D

  0  0  0     0  0            999 V3000
M  V30 BEGIN CTAB
M  V30 COUNTS 5171 5253 0 0 0
M  V30 BEGIN ATOM
M  V30 1 H -0.908 1.98254 -0.117106 0
M  V30 2 N 0 1.576 0 0
M  V30 3 C 0.933 2.03868 1.02534 0
M  V30 4 C 1.911 0.928543 1.3348 0
M  V30 5 O 3.095 1.19667 1.45644 0
M  V30 6 C 0.222 2.43627 2.35294 0
M  V30 7 C -0.732 3.65373 2.2001 0
M  V30 8 S 0.101 5.13292 1.52614 0
M  V30 9 C 1.257 5.56322 2.86805 0
M  V30 10 H 1.49 2.90518 0.631377 0
M  V30 11 H -0.977 1.52953 0.210867 0
M  V30 12 H 0.981 2.67203 3.11629 0
M  V30 13 H -0.358 1.57376 2.7183 0
M  V30 14 H -1.165 3.90944 3.18086 0
M  V30 15 H -1.563 3.418 1.51819 0
M  V30 16 H 0.729 5.58782 3.83104 0
M  V30 17 H 1.672 6.56266 2.65933 0
M  V30 18 H 2.08 4.83886 2.90714 0
M  V30 19 N 1.4781 -0.272755 1.55222 0
M  V30 20 C 2.4081 -1.34136 1.91127 0
M  V30 21 C 3.3891 -1.51513 0.773168 0
M  V30 22 O 4.5741 -1.64552 1.03132 0
M  V30 23 C 1.7041 -2.70083 2.1834 0
M  V30 24 C 0.6581 -2.67437 3.34158 0
M  V30 25 C -0.0159 -4.06938 3.46851 0
M  V30 26 C 1.2841 -2.26686 4.70543 0
M  V30 27 H 2.9781 -1.04333 2.80633 0
M  V30 28 H 0.5241 -0.500454 1.35024 0
M  V30 29 H 2.4771 -3.44952 2.42046 0
M  V30 30 H 1.2011 -3.01469 1.25634 0
M  V30 31 H -0.1399 -1.95026 3.1042 0
M  V30 32 H -0.4919 -4.35547 2.51611 0
M  V30 33 H -0.7919 -4.06062 4.2472 0
M  V30 34 H 0.7321 -4.83545 3.72849 0
M  V30 35 H 2.1461 -2.91277 4.93792 0
M  V30 36 H 0.5431 -2.36971 5.5133 0
M  V30 37 H 1.6131 -1.21818 4.69349 0
M  V30 38 N 2.9562 -1.48159 -0.537278 0
M  V30 39 C 4.2032 -1.55804 -1.29349 0
M  V30 40 C 4.5312 -0.228802 -1.9315 0
M  V30 41 O 3.7862 0.780242 -1.79473 0
M  V30 42 C 4.0852 -2.63956 -2.40961 0
M  V30 43 C 3.7512 -4.0662 -1.94861 0
M  V30 44 C 2.4132 -4.45452 -1.82006 0
M  V30 45 C 4.7652 -4.96055 -1.59933 0
M  V30 46 C 2.0932 -5.71531 -1.32547 0
M  V30 47 C 4.4452 -6.22617 -1.11939 0
M  V30 48 C 3.1092 -6.60312 -0.976951 0
M  V30 49 H 2.3792 -0.570129 -0.473322 0
M  V30 50 H 5.0262 -1.81845 -0.600372 0
M  V30 51 H 3.3312 -2.31747 -3.15912 0
M  V30 52 H 5.0282 -2.67089 -2.99107 0
M  V30 53 H 1.6182 -3.75949 -2.05815 0
M  V30 54 H 5.8022 -4.66738 -1.68728 0
M  V30 55 H 1.0582 -5.99468 -1.202 0
M  V30 56 H 5.2322 -6.91318 -0.839811 0
M  V30 57 H 2.8592 -7.57895 -0.591501 0
M  V30 58 N 4.4343 0.785586 -1.36625 0
M  V30 59 C 5.3643 1.91259 -1.33949 0
M  V30 60 C 6.3453 1.68795 -0.210325 0
M  V30 61 O 7.5303 1.89854 -0.408561 0
M  V30 62 C 4.6603 3.28339 -1.13186 0
M  V30 63 C 3.6143 3.65335 -2.22967 0
M  V30 64 C 2.9403 5.00806 -1.87342 0
M  V30 65 C 4.2403 3.7352 -3.65075 0
M  V30 66 H 5.9343 1.93755 -2.28253 0
M  V30 67 H 3.4803 0.930788 -1.09874 0
M  V30 68 H 5.4333 4.06804 -1.09948 0
M  V30 69 H 4.1573 3.2624 -0.153332 0
M  V30 70 H 2.8163 2.89169 -2.25337 0
M  V30 71 H 2.4643 4.95233 -0.880545 0
M  V30 72 H 2.1643 5.26529 -2.60846 0
M  V30 73 H 3.6883 5.81687 -1.85667 0
M  V30 74 H 5.1023 4.42168 -3.64911 0
M  V30 75 H 3.4993 4.10731 -4.37516 0
M  V30 76 H 4.5693 2.74527 -3.99703 0
M  V30 77 N 5.9124 1.20967 1.01018 0
M  V30 78 C 6.8424 0.988272 2.11555 0
M  V30 79 C 7.8234 -0.0849778 1.69888 0
M  V30 80 O 9.0084 0.0738202 1.9406 0
M  V30 81 C 6.1384 0.546528 3.42973 0
M  V30 82 C 5.0924 1.56375 3.9841 0
M  V30 83 C 4.4184 0.97842 5.25672 0
M  V30 84 C 5.7184 2.94922 4.31066 0
M  V30 85 H 7.4124 1.91276 2.30334 0
M  V30 86 H 4.9584 0.921073 1.1069 0
M  V30 87 H 6.9114 0.378839 4.19694 0
M  V30 88 H 5.6354 -0.413598 3.23971 0
M  V30 89 H 4.2944 1.71891 3.23804 0
M  V30 90 H 3.9424 0.0101688 5.02999 0
M  V30 91 H 3.6424 1.65784 5.63728 0
M  V30 92 H 5.1664 0.821939 6.05043 0
M  V30 93 H 6.5804 2.8288 4.9865 0
M  V30 94 H 4.9774 3.5983 4.80253 0
M  V30 95 H 6.0474 3.4616 3.39561 0
M  V30 96 N 7.3905 -1.2043 1.01659 0
M  V30 97 C 8.3205 -2.25466 0.607226 0
M  V30 98 C 9.3015 -1.65853 -0.377716 0
M  V30 99 O 10.4865 -1.92409 -0.263149 0
M  V30 100 C 7.6165 -3.47256 -0.0552949 0
M  V30 101 C 6.5705 -4.19462 0.850632 0
M  V30 102 C 5.8965 -5.34673 0.0538859 0
M  V30 103 C 7.1965 -4.75603 2.15868 0
M  V30 104 H 8.8905 -2.59962 1.48526 0
M  V30 105 H 6.4365 -1.2496 0.715605 0
M  V30 106 H 8.3895 -4.19917 -0.353233 0
M  V30 107 H 7.1135 -3.11924 -0.968045 0
M  V30 108 H 5.7725 -3.48667 1.13257 0
M  V30 109 H 5.4205 -4.95585 -0.860514 0
M  V30 110 H 5.1205 -5.83913 0.657192 0
M  V30 111 H 6.6445 -6.10138 -0.237598 0
M  V30 112 H 8.0585 -5.40083 1.92311 0
M  V30 113 H 6.4555 -5.3528 2.71284 0
M  V30 114 H 7.5255 -3.94346 2.82169 0
M  V30 115 N 8.8686 -0.792821 -1.36206 0
M  V30 116 C 10.2796 -0.429513 -1.81692 0
M  V30 117 C 10.6306 1.04695 -1.65932 0
M  V30 118 O 9.7556 1.81256 -1.18218 0
M  V30 119 C 10.3506 -0.772831 -3.29868 0
M  V30 120 C 8.9096 -0.462307 -3.7355 0
M  V30 121 C 8.0566 -1.00569 -2.5842 0
M  V30 122 H 11.0076 -0.985672 -1.24379 0
M  V30 123 H 11.0286 -0.0651928 -3.80444 0
M  V30 124 H 10.5406 -1.84747 -3.41307 0
M  V30 125 H 8.6416 0.604158 -3.67669 0
M  V30 126 H 8.7546 -0.985299 -4.68859 0
M  V30 127 H 7.1186 -0.428734 -2.51066 0
M  V30 128 H 7.9016 -2.08616 -2.72643 0
M  V30 129 N 10.3467 1.47872 -0.545128 0
M  V30 130 C 11.2767 2.32661 0.197793 0
M  V30 131 C 12.2577 1.43041 0.920504 0
M  V30 132 O 13.4427 1.71912 0.90333 0
M  V30 133 C 10.5727 3.24569 1.23582 0
M  V30 134 C 9.5267 4.23333 0.630323 0
M  V30 135 C 8.8527 5.0448 1.77211 0
M  V30 136 C 10.1527 5.20704 -0.407974 0
M  V30 137 H 11.8467 2.95024 -0.510045 0
M  V30 138 H 9.3927 1.4187 -0.246731 0
M  V30 139 H 11.3457 3.8272 1.76362 0
M  V30 140 H 10.0697 2.60236 1.97344 0
M  V30 141 H 8.7287 3.6639 0.123922 0
M  V30 142 H 8.3767 4.36561 2.49847 0
M  V30 143 H 8.0767 5.71339 1.37281 0
M  V30 144 H 9.6007 5.65487 2.3034 0
M  V30 145 H 11.0147 5.7329 0.033305 0
M  V30 146 H 9.4117 5.95699 -0.725486 0
M  V30 147 H 10.4817 4.66917 -1.30828 0
M  V30 148 N 11.8248 0.280983 1.55075 0
M  V30 149 C 12.7548 -0.597469 2.25727 0
M  V30 150 C 13.7358 -1.15417 1.24952 0
M  V30 151 O 14.9208 -1.18722 1.53684 0
M  V30 152 C 12.0508 -1.7789 2.98283 0
M  V30 153 C 11.0048 -1.35347 4.06036 0
M  V30 154 C 10.3308 -2.61846 4.66198 0
M  V30 155 C 11.6308 -0.499354 5.19907 0
M  V30 156 H 13.3248 -0.00824265 2.99399 0
M  V30 157 H 10.8708 -0.0025244 1.44 0
M  V30 158 H 12.8238 -2.39937 3.46422 0
M  V30 159 H 11.5478 -2.39405 2.22155 0
M  V30 160 H 10.2068 -0.756156 3.58717 0
M  V30 161 H 9.8548 -3.21632 3.86732 0
M  V30 162 H 9.5548 -2.3409 5.38958 0
M  V30 163 H 11.0788 -3.24732 5.1709 0
M  V30 164 H 12.4928 -1.02498 5.64063 0
M  V30 165 H 10.8898 -0.316424 5.99265 0
M  V30 166 H 11.9598 0.480459 4.82514 0
M  V30 167 N 13.3029 -1.57598 0.00835791 0
M  V30 168 C 14.2659 -2.07884 -0.965242 0
M  V30 169 C 15.2659 -0.989825 -1.26725 0
M  V30 170 O 16.4559 -1.25218 -1.21104 0
M  V30 171 C 13.5879 -2.52731 -2.28779 0
M  V30 172 H 14.7809 -2.95178 -0.530112 0
M  V30 173 H 12.3339 -1.54458 -0.239283 0
M  V30 174 H 13.0689 -1.68705 -2.76964 0
M  V30 175 H 12.8539 -3.32272 -2.08177 0
M  V30 176 H 14.3439 -2.91933 -2.98605 0
M  V30 177 N 14.781 0.264519 -1.55364 0
M  V30 178 C 16.027 0.99646 -1.76631 0
M  V30 179 C 16.36 1.85632 -0.570478 0
M  V30 180 O 15.635 1.89647 0.43175 0
M  V30 181 C 15.918 1.87187 -3.07625 0
M  V30 182 C 15.771 1.04138 -4.37579 0
M  V30 183 C 17.09 2.85749 -3.34717 0
M  V30 184 H 14.209 0.360841 -0.642622 0
M  V30 185 H 16.851 0.268218 -1.88097 0
M  V30 186 H 15.001 2.49279 -2.9798 0
M  V30 187 H 16.673 0.440517 -4.59192 0
M  V30 188 H 14.916 0.345115 -4.32425 0
M  V30 189 H 15.587 1.68729 -5.2558 0
M  V30 190 H 18.063 2.33793 -3.4421 0
M  V30 191 H 16.939 3.44136 -4.27623 0
M  V30 192 H 17.2 3.61311 -2.54768 0
M  V30 193 N 16.2591 1.48442 0.529413 0
M  V30 194 C 17.1891 1.65902 1.64313 0
M  V30 195 C 18.1701 0.507897 1.6234 0
M  V30 196 O 19.3551 0.740503 1.79528 0
M  V30 197 C 16.4851 1.69911 3.02898 0
M  V30 198 C 15.4391 2.8453 3.19729 0
M  V30 199 C 14.7651 2.73629 4.59381 0
M  V30 200 C 16.0651 4.25821 3.02447 0
M  V30 201 H 17.7591 2.5914 1.49955 0
M  V30 202 H 15.3051 1.24709 0.719982 0
M  V30 203 H 17.2581 1.80715 3.80684 0
M  V30 204 H 15.9821 0.732524 3.18279 0
M  V30 205 H 14.6411 2.73283 2.44361 0
M  V30 206 H 14.2891 1.74938 4.71599 0
M  V30 207 H 13.9891 3.50541 4.71588 0
M  V30 208 H 15.5131 2.86401 5.39265 0
M  V30 209 H 16.9271 4.37898 3.70024 0
M  V30 210 H 15.3241 5.03735 3.26146 0
M  V30 211 H 16.3941 4.42244 1.98867 0
M  V30 212 N 17.7372 -0.778329 1.37039 0
M  V30 213 C 19.1482 -1.35421 1.28523 0
M  V30 214 C 19.4992 -1.96075 -0.0700901 0
M  V30 215 O 18.6242 -1.93352 -0.971801 0
M  V30 216 C 19.2192 -2.46211 2.32735 0
M  V30 217 C 17.7782 -2.99585 2.27873 0
M  V30 218 C 16.9252 -1.72748 2.16918 0
M  V30 219 H 19.8762 -0.5791 1.47757 0
M  V30 220 H 19.8972 -3.2552 1.9702 0
M  V30 221 H 19.4092 -2.02036 3.31365 0
M  V30 222 H 17.5102 -3.48152 1.32745 0
M  V30 223 H 17.6232 -3.55646 3.21018 0
M  V30 224 H 15.9872 -1.95416 1.63354 0
M  V30 225 H 16.7702 -1.30686 3.17452 0
M  V30 226 N 19.2153 -1.21501 -1.00376 0
M  V30 227 C 20.4633 -1.03095 -1.73827 0
M  V30 228 C 20.7843 0.436341 -1.90055 0
M  V30 229 O 20.0543 1.31466 -1.45236 0
M  V30 230 H 18.6343 -0.378487 -0.644016 0
M  V30 231 H 21.2963 -1.52831 -1.20949 0
M  V30 232 H 20.3923 -1.49991 -2.73695 0
M  V30 233 N 20.6934 1.19889 -1.02296 0
M  V30 234 C 21.9704 1.85148 -0.630832 0
M  V30 235 C 22.3504 1.91385 0.890782 0
M  V30 236 O 21.6984 1.42642 1.78509 0
M  V30 237 C 21.9084 3.24442 -1.28602 0
M  V30 238 C 23.2564 4.00663 -1.4055 0
M  V30 239 O 24.2804 3.33818 -1.24273 0
M  V30 240 O 23.1394 5.20387 -1.66913 0
M  V30 241 H 20.2334 0.797613 -0.218499 0
M  V30 242 H 22.7794 1.27427 -1.12074 0
M  V30 243 H 21.5514 3.14704 -2.32545 0
M  V30 244 H 21.1744 3.89802 -0.7836 0
M  V30 245 N 22.1715 0.800033 1.35784 0
M  V30 246 C 23.4195 0.376597 1.9856 0
M  V30 247 C 23.7405 -1.05812 1.63795 0
M  V30 248 O 23.0105 -1.73103 0.917171 0
M  V30 249 H 21.5905 0.136261 0.734467 0
M  V30 250 H 24.2525 1.02442 1.65806 0
M  V30 251 H 23.3485 0.477002 3.08433 0
M  V30 252 N 23.6496 -1.47581 0.552962 0
M  V30 253 C 24.5976 -2.31648 -0.21023 0
M  V30 254 C 25.5916 -1.42663 -0.913432 0
M  V30 255 O 26.7976 -1.5945 -0.835201 0
M  V30 256 H 23.1726 -0.746989 -0.0866676 0
M  V30 257 H 25.1436 -2.93869 0.518051 0
M  V30 258 C 23.8926 -3.25226 -1.22976 0
M  V30 259 H 23.2156 -3.93658 -0.698077 0
M  V30 260 H 24.6556 -3.86889 -1.73473 0
M  V30 261 C 23.1146 -2.48448 -2.27542 0
M  V30 262 O 23.6446 -2.22585 -3.34393 0
M  V30 263 N 21.8506 -2.09532 -2.01357 0
M  V30 264 H 21.3976 -2.30765 -1.14478 0
M  V30 265 H 21.3556 -1.58476 -2.71538 0
M  V30 266 N 25.1277 -0.289203 -1.54924 0
M  V30 267 C 26.0907 0.579144 -2.21762 0
M  V30 268 C 27.0907 1.07047 -1.1999 0
M  V30 269 O 28.2807 0.968384 -1.44803 0
M  V30 270 C 25.4127 1.80055 -2.8947 0
M  V30 271 H 26.6057 -0.00464908 -2.999 0
M  V30 272 H 24.1587 -0.0399306 -1.56249 0
M  V30 273 H 24.8937 2.42449 -2.15381 0
M  V30 274 H 24.6787 1.45602 -3.64064 0
M  V30 275 H 26.1687 2.41773 -3.40493 0
M  V30 276 N 26.6058 1.57591 -0.0167156 0
M  V30 277 C 27.8828 1.82547 0.702564 0
M  V30 278 C 28.2628 0.898018 1.91047 0
M  V30 279 O 27.6108 -0.0493456 2.28447 0
M  V30 280 C 27.8208 3.31459 1.09251 0
M  V30 281 C 29.1688 3.97622 1.48937 0
M  V30 282 O 30.1928 3.35881 1.18584 0
M  V30 283 O 29.0518 5.06415 2.05442 0
M  V30 284 H 26.1458 0.752268 0.343544 0
M  V30 285 H 28.6918 1.69644 -0.0434495 0
M  V30 286 H 27.4638 3.9061 0.23227 0
M  V30 287 H 27.0868 3.49422 1.89709 0
M  V30 288 N 28.0839 -0.256276 1.55502 0
M  V30 289 C 29.3319 -0.983672 1.76545 0
M  V30 290 C 29.6529 -1.86206 0.578982 0
M  V30 291 O 28.9229 -1.91656 -0.405577 0
M  V30 292 H 27.5029 -0.366191 0.651086 0
M  V30 293 H 30.1649 -0.276479 1.92929 0
M  V30 294 H 29.2609 -1.61087 2.67315 0
M  V30 295 N 29.562 -1.4872 -0.521534 0
M  V30 296 C 30.492 -1.66771 -1.63431 0
M  V30 297 C 31.473 -0.516499 -1.62069 0
M  V30 298 O 32.658 -0.750013 -1.79132 0
M  V30 299 C 29.788 -1.71515 -3.01993 0
M  V30 300 C 28.742 -2.86222 -3.18216 0
M  V30 301 C 28.068 -2.76061 -4.57924 0
M  V30 302 C 29.368 -4.27419 -3.00184 0
M  V30 303 H 31.062 -2.59932 -1.48579 0
M  V30 304 H 28.608 -1.25089 -0.713358 0
M  V30 305 H 30.561 -1.82731 -3.7972 0
M  V30 306 H 29.285 -0.749393 -3.17886 0
M  V30 307 H 27.944 -2.74575 -2.42908 0
M  V30 308 H 27.592 -1.77437 -4.70665 0
M  V30 309 H 27.292 -3.53037 -4.69722 0
M  V30 310 H 28.816 -2.89256 -5.37739 0
M  V30 311 H 30.23 -4.39855 -3.67697 0
M  V30 312 H 28.627 -5.05458 -3.2347 0
M  V30 313 H 29.697 -4.43293 -1.96518 0
M  V30 314 N 31.0401 0.771051 -1.3745 0
M  V30 315 C 31.9871 1.88435 -1.3327 0
M  V30 316 C 32.9571 1.64914 -0.198136 0
M  V30 317 O 34.1421 1.86821 -0.387606 0
M  V30 318 C 31.2821 3.25509 -1.14622 0
M  V30 319 C 30.3951 3.60979 -2.37314 0
M  V30 320 C 29.5301 4.87265 -2.11533 0
M  V30 321 C 28.5691 5.15469 -3.30088 0
M  V30 322 N 27.7061 6.32944 -3.03853 0
M  V30 323 H 32.5461 1.91344 -2.28455 0
M  V30 324 H 30.0831 0.935466 -1.13523 0
M  V30 325 H 32.0411 4.04582 -1.01831 0
M  V30 326 H 30.6711 3.21974 -0.230837 0
M  V30 327 H 29.7231 2.76885 -2.60842 0
M  V30 328 H 31.0351 3.77759 -3.25729 0
M  V30 329 H 30.1891 5.74244 -1.95777 0
M  V30 330 H 28.9281 4.7259 -1.20457 0
M  V30 331 H 27.9331 4.26966 -3.46382 0
M  V30 332 H 29.1581 5.32052 -4.22016 0
M  V30 333 H 27.1041 6.19625 -2.15407 0
M  V30 334 H 27.0211 6.50143 -3.85812 0
M  V30 335 H 28.2891 7.22857 -2.91716 0
M  V30 336 N 32.5182 1.22032 0.997298 0
M  V30 337 C 33.4282 1.00271 2.12092 0
M  V30 338 C 34.4442 -0.047621 1.73935 0
M  V30 339 O 35.6202 0.144136 2.00884 0
M  V30 340 C 32.6852 0.578449 3.4184 0
M  V30 341 C 31.7462 1.70189 3.94125 0
M  V30 342 C 30.9792 1.29778 5.17681 0
M  V30 343 O 31.2022 0.174676 5.70132 0
M  V30 344 O 30.1362 2.11261 5.63607 0
M  V30 345 H 33.9622 1.94398 2.3333 0
M  V30 346 H 31.5472 1.00587 1.10465 0
M  V30 347 H 33.4292 0.351998 4.19927 0
M  V30 348 H 32.1042 -0.334019 3.21972 0
M  V30 349 H 31.0112 1.98282 3.1723 0
M  V30 350 H 32.3442 2.59206 4.18417 0
M  V30 351 N 33.9963 -1.19345 1.0293 0
M  V30 352 C 35.4073 -1.70725 0.755633 0
M  V30 353 C 35.7583 -1.82326 -0.724676 0
M  V30 354 O 34.8833 -1.49471 -1.56484 0
M  V30 355 C 35.4783 -3.10084 1.36503 0
M  V30 356 C 34.0373 -3.58723 1.13994 0
M  V30 357 C 33.1843 -2.35577 1.46283 0
M  V30 358 H 36.1353 -1.0418 1.19718 0
M  V30 359 H 36.1563 -3.72787 0.762217 0
M  V30 360 H 35.6683 -3.01609 2.44241 0
M  V30 361 H 33.7693 -3.72512 0.0807901 0
M  V30 362 H 33.8823 -4.42816 1.82894 0
M  V30 363 H 32.2463 -2.38935 0.88217 0
M  V30 364 H 33.0293 -2.29731 2.55105 0
M  V30 365 N 35.4744 -0.807222 -1.35358 0
M  V30 366 C 36.4044 -0.232509 -2.3234 0
M  V30 367 C 37.3854 0.642386 -1.57504 0
M  V30 368 O 38.5704 0.572526 -1.85569 0
M  V30 369 C 35.7004 0.619238 -3.41735 0
M  V30 370 C 34.6544 -0.157215 -4.27711 0
M  V30 371 C 33.9804 0.816273 -5.28433 0
M  V30 372 C 35.2804 -1.35656 -5.04376 0
M  V30 373 H 36.9744 -1.04276 -2.80654 0
M  V30 374 H 34.5204 -0.50288 -1.34934 0
M  V30 375 H 36.4734 1.03137 -4.08584 0
M  V30 376 H 35.1974 1.46239 -2.92031 0
M  V30 377 H 33.8564 -0.550525 -3.62443 0
M  V30 378 H 33.5044 1.65494 -4.74996 0
M  V30 379 H 33.2044 0.301067 -5.86828 0
M  V30 380 H 34.7284 1.22659 -5.98153 0
M  V30 381 H 36.1424 -1.01927 -5.64166 0
M  V30 382 H 34.5394 -1.8063 -5.7227 0
M  V30 383 H 35.6094 -2.14288 -4.34981 0
M  V30 384 N 36.9525 1.47285 -0.560781 0
M  V30 385 C 38.1775 2.07359 -0.0410566 0
M  V30 386 C 38.6025 1.41017 1.24483 0
M  V30 387 O 37.9605 0.486368 1.74654 0
M  V30 388 C 38.0085 3.6035 0.134123 0
M  V30 389 O 37.1125 3.94681 1.19587 0
M  V30 390 H 36.4535 0.661887 -0.0529291 0
M  V30 391 H 38.9835 1.89252 -0.777482 0
M  V30 392 H 38.9935 4.0652 0.347207 0
M  V30 393 H 37.6685 4.08034 -0.805047 0
M  V30 394 H 36.2455 3.60251 0.962987 0
M  V30 395 N 38.4306 0.297415 1.54768 0
M  V30 396 C 39.6776 -0.312913 2.00068 0
M  V30 397 C 40.0056 -1.54171 1.18582 0
M  V30 398 O 39.2606 -1.94108 0.249133 0
M  V30 399 C 39.5596 -0.717561 3.50123 0
M  V30 400 C 39.2256 0.409095 4.4904 0
M  V30 401 C 37.8876 0.718399 4.75807 0
M  V30 402 C 40.2396 1.16717 5.07963 0
M  V30 403 C 37.5676 1.78896 5.5876 0
M  V30 404 C 39.9196 2.22762 5.92081 0
M  V30 405 C 38.5836 2.54303 6.1716 0
M  V30 406 H 37.8536 -0.114503 0.7321 0
M  V30 407 H 40.5006 0.415767 1.86932 0
M  V30 408 H 38.8056 -1.52627 3.60849 0
M  V30 409 H 40.5026 -1.20091 3.82595 0
M  V30 410 H 37.0926 0.157918 4.28309 0
M  V30 411 H 41.2766 0.941466 4.87289 0
M  V30 412 H 36.5326 2.0381 5.7643 0
M  V30 413 H 40.7066 2.81962 6.36765 0
M  V30 414 H 38.3336 3.3739 6.81229 0
M  V30 415 N 39.9087 -1.5758 0.0250728 0
M  V30 416 C 40.8587 -2.06468 -0.967201 0
M  V30 417 C 41.8427 -0.964376 -1.28797 0
M  V30 418 O 43.0347 -1.22797 -1.27475 0
M  V30 419 C 40.1637 -2.59203 -2.25097 0
M  V30 420 C 39.2497 -3.76157 -1.95874 0
M  V30 421 N 39.6407 -4.86919 -1.36905 0
M  V30 422 C 37.9387 -3.84566 -2.25887 0
M  V30 423 C 38.6397 -5.68172 -1.24724 0
M  V30 424 N 37.6157 -5.14953 -1.74138 0
M  V30 425 H 41.4177 -2.89508 -0.506176 0
M  V30 426 H 38.9317 -1.61399 -0.18004 0
M  V30 427 H 40.9287 -2.92517 -2.97052 0
M  V30 428 H 39.5887 -1.77592 -2.71829 0
M  V30 429 H 40.5997 -5.07256 -1.04459 0
M  V30 430 H 37.2767 -3.13854 -2.75321 0
M  V30 431 H 38.6667 -6.67221 -0.791605 0
M  V30 432 N 41.3868 0.248026 -1.55636 0
M  V30 433 C 42.6328 0.97767 -1.77678 0
M  V30 434 C 42.9658 1.85016 -0.590135 0
M  V30 435 O 42.2408 1.90095 0.411611 0
M  V30 436 C 42.5238 1.83914 -3.09593 0
M  V30 437 C 42.3768 0.99491 -4.38659 0
M  V30 438 C 43.6958 2.82183 -3.37729 0
M  V30 439 H 40.8148 0.354005 -0.646413 0
M  V30 440 H 43.4568 0.248253 -1.88371 0
M  V30 441 H 41.6068 2.46104 -3.00608 0
M  V30 442 H 43.2788 0.391789 -4.59633 0
M  V30 443 H 41.5218 0.299231 -4.32767 0
M  V30 444 H 42.1928 1.63145 -5.2734 0
M  V30 445 H 44.6688 2.30129 -3.4667 0
M  V30 446 H 43.5448 3.39582 -4.31249 0
M  V30 447 H 43.8058 3.58588 -2.58586 0
M  V30 448 N 42.8649 1.48995 0.513639 0
M  V30 449 C 44.0929 1.61531 1.29288 0
M  V30 450 C 44.5079 0.281801 1.86685 0
M  V30 451 O 43.8649 -0.731111 1.67215 0
M  V30 452 C 43.9159 2.67449 2.43215 0
M  V30 453 O 43.6369 3.95626 1.88179 0
M  V30 454 C 45.1379 2.90575 3.34785 0
M  V30 455 H 42.3579 0.544165 0.392588 0
M  V30 456 H 44.9019 1.9494 0.617956 0
M  V30 457 H 43.0569 2.36853 3.0656 0
M  V30 458 H 43.4709 4.53868 2.62876 0
M  V30 459 H 44.9449 3.68449 4.11035 0
M  V30 460 H 45.4219 2.00011 3.91015 0
M  V30 461 H 46.0279 3.22538 2.77218 0
M  V30 462 N 44.343 -0.763751 1.37857 0
M  V30 463 C 45.589 -1.52396 1.3471 0
M  V30 464 C 45.944 -1.92288 -0.0656435 0
M  V30 465 O 45.237 -1.6181 -1.02606 0
M  V30 466 C 45.431 -2.79499 2.22745 0
M  V30 467 C 45.26 -2.52031 3.72438 0
M  V30 468 C 44.03 -2.45759 4.4151 0
M  V30 469 C 46.228 -2.19489 4.65112 0
M  V30 470 N 44.21 -2.1046 5.76697 0
M  V30 471 C 45.581 -1.94396 5.88736 0
M  V30 472 C 47.636 -2.05712 4.53417 0
M  V30 473 C 46.339 -1.56917 7.01975 0
M  V30 474 C 48.365 -1.69634 5.66549 0
M  V30 475 C 47.727 -1.45407 6.89229 0
M  V30 476 H 43.826 -0.55765 0.548225 0
M  V30 477 H 46.41 -0.890302 1.73152 0
M  V30 478 H 44.581 -3.4069 1.86507 0
M  V30 479 H 46.313 -3.45465 2.10798 0
M  V30 480 H 43.068 -2.61885 3.94605 0
M  V30 481 H 43.492 -1.95484 6.48163 0
M  V30 482 H 48.134 -2.23123 3.59133 0
M  V30 483 H 45.852 -1.38246 7.96187 0
M  V30 484 H 49.438 -1.59621 5.59475 0
M  V30 485 H 48.318 -1.17904 7.75286 0
M  V30 486 N 45.8211 -1.22559 -0.990812 0
M  V30 487 C 47.0701 -1.04553 -1.72486 0
M  V30 488 C 47.3831 0.419349 -1.91052 0
M  V30 489 O 48.5891 0.719121 -2.61803 0
M  V30 490 C 47.0451 -1.82231 -3.10355 0
M  V30 491 C 46.6531 -3.32981 -2.99713 0
M  V30 492 C 48.3971 -1.7268 -3.87791 0
M  V30 493 C 46.3041 -4.03091 -4.32748 0
M  V30 494 H 45.2341 -0.387614 -0.646739 0
M  V30 495 H 47.8851 -1.46429 -1.10593 0
M  V30 496 H 46.2671 -1.33155 -3.72942 0
M  V30 497 H 47.4411 -3.89466 -2.46278 0
M  V30 498 H 45.7561 -3.43231 -2.35758 0
M  V30 499 H 48.3531 -2.22381 -4.86262 0
M  V30 500 H 48.6961 -0.687607 -4.10582 0
M  V30 501 H 49.2291 -2.1931 -3.31885 0
M  V30 502 H 45.9681 -5.07273 -4.15156 0
M  V30 503 H 45.4881 -3.51394 -4.86089 0
M  V30 504 H 47.1671 -4.08804 -5.01486 0
M  V30 505 N 47.2992 1.18797 -1.03562 0
M  V30 506 C 48.2622 2.20464 -0.626769 0
M  V30 507 C 49.2622 1.57721 0.313173 0
M  V30 508 O 50.4522 1.73917 0.0992615 0
M  V30 509 C 47.5842 3.40802 0.0818498 0
M  V30 510 H 48.7772 2.58149 -1.5264 0
M  V30 511 H 46.3302 1.32593 -0.827578 0
M  V30 512 H 47.0652 3.08642 0.995518 0
M  V30 513 H 46.8502 3.8758 -0.593652 0
M  V30 514 H 48.3402 4.16092 0.354584 0
M  V30 515 N 48.7773 0.814389 1.34928 0
M  V30 516 C 50.0023 0.410097 2.03305 0
M  V30 517 C 50.4273 -0.973464 1.60951 0
M  V30 518 O 49.7853 -1.63185 0.789964 0
M  V30 519 C 49.8333 0.51049 3.56968 0
M  V30 520 O 48.9373 -0.473035 4.09678 0
M  V30 521 H 48.2783 0.170088 0.641846 0
M  V30 522 H 50.8083 1.10244 1.72358 0
M  V30 523 H 50.8183 0.383135 4.06197 0
M  V30 524 H 49.4933 1.51963 3.87144 0
M  V30 525 H 48.0703 -0.305272 3.71648 0
M  V30 526 N 50.2554 -1.46986 0.568584 0
M  V30 527 C 51.5024 -2.02441 0.0487986 0
M  V30 528 C 51.8304 -1.44169 -1.30559 0
M  V30 529 O 51.0854 -0.591213 -1.86556 0
M  V30 530 C 51.3844 -3.57306 -0.081836 0
M  V30 531 C 51.0504 -4.34552 1.20313 0
M  V30 532 C 49.7124 -4.55376 1.5552 0
M  V30 533 C 52.0644 -4.79016 2.05411 0
M  V30 534 C 49.3924 -5.17913 2.7565 0
M  V30 535 C 51.7444 -5.42879 3.24754 0
M  V30 536 C 50.4084 -5.61933 3.60261 0
M  V30 537 H 49.6784 -0.740785 0.0178567 0
M  V30 538 H 52.3254 -1.76525 0.742384 0
M  V30 539 H 50.6304 -3.8228 -0.858463 0
M  V30 540 H 52.3274 -3.97876 -0.499546 0
M  V30 541 H 48.9174 -4.18631 0.919014 0
M  V30 542 H 53.1014 -4.62696 1.79516 0
M  V30 543 H 48.3574 -5.30858 3.03315 0
M  V30 544 H 52.5314 -5.76293 3.90973 0
M  V30 545 H 50.1584 -6.10161 4.53439 0
M  V30 546 N 51.7335 -0.305618 -1.54608 0
M  V30 547 C 52.9635 0.304333 -2.04346 0
M  V30 548 C 53.3715 1.47715 -1.18224 0
M  V30 549 O 52.7145 1.82591 -0.201577 0
M  V30 550 C 52.7765 0.819031 -3.50046 0
M  V30 551 C 52.4405 -0.22912 -4.56425 0
M  V30 552 C 53.4375 -1.05914 -5.08997 0
M  V30 553 C 51.1225 -0.372148 -5.0092 0
M  V30 554 C 53.1165 -2.01809 -6.04609 0
M  V30 555 C 50.8035 -1.33454 -5.9635 0
M  V30 556 C 51.8015 -2.15599 -6.48079 0
M  V30 557 O 51.4895 -3.10205 -7.41639 0
M  V30 558 H 51.2215 0.0693996 -0.672428 0
M  V30 559 H 53.7755 -0.444548 -2.00532 0
M  V30 560 H 52.0055 1.61852 -3.51199 0
M  V30 561 H 53.6945 1.34537 -3.82955 0
M  V30 562 H 54.4605 -0.959538 -4.75413 0
M  V30 563 H 50.3395 0.257304 -4.60281 0
M  V30 564 H 53.8835 -2.65966 -6.44909 0
M  V30 565 H 49.7805 -1.43485 -6.29351 0
M  V30 566 H 50.5485 -3.05237 -7.59455 0
M  V30 567 N 53.2116 1.57565 -0.0334293 0
M  V30 568 C 54.1596 2.1164 0.96496 0
M  V30 569 C 55.1536 1.04398 1.33407 0
M  V30 570 O 56.3596 1.22828 1.3158 0
M  V30 571 H 52.7346 0.676222 0.32898 0
M  V30 572 H 54.7056 2.94455 0.483614 0
M  V30 573 C 53.4546 2.66207 2.23672 0
M  V30 574 H 52.7776 3.48378 1.96145 0
M  V30 575 H 54.2176 3.07685 2.9173 0
M  V30 576 C 52.6766 1.59151 2.96939 0
M  V30 577 O 53.2066 0.993858 3.89211 0
M  V30 578 N 51.4126 1.31093 2.59351 0
M  V30 579 H 50.9596 1.7988 1.84393 0
M  V30 580 H 50.9176 0.596889 3.08682 0
M  V30 581 N 54.6897 -0.239769 1.55765 0
M  V30 582 C 55.6397 -1.30002 1.87306 0
M  V30 583 C 56.6237 -1.43156 0.73452 0
M  V30 584 O 57.8157 -1.46277 0.99659 0
M  V30 585 C 54.9447 -2.65409 2.17745 0
M  V30 586 C 54.0307 -2.56231 3.37945 0
M  V30 587 N 54.4217 -2.16689 4.57033 0
M  V30 588 C 52.7197 -2.87229 3.41197 0
M  V30 589 C 53.4207 -2.18318 5.39177 0
M  V30 590 N 52.3967 -2.58098 4.78421 0
M  V30 591 H 56.1987 -0.984912 2.76906 0
M  V30 592 H 53.7127 -0.448381 1.56087 0
M  V30 593 H 55.7097 -3.41934 2.38509 0
M  V30 594 H 54.3697 -2.97781 1.29448 0
M  V30 595 H 55.3807 -1.88116 4.82528 0
M  V30 596 H 52.0577 -3.24094 2.63191 0
M  V30 597 H 53.4477 -1.90025 6.44469 0
M  V30 598 N 56.1678 -1.49265 -0.50573 0
M  V30 599 C 57.3928 -1.62478 -1.28902 0
M  V30 600 C 57.8178 -0.294332 -1.85783 0
M  V30 601 O 57.1758 0.737412 -1.65626 0
M  V30 602 C 57.2238 -2.69268 -2.39848 0
M  V30 603 O 56.3278 -2.28113 -3.43567 0
M  V30 604 H 55.6688 -0.54399 -0.380751 0
M  V30 605 H 58.1988 -1.95421 -0.605952 0
M  V30 606 H 58.2088 -2.91291 -2.85681 0
M  V30 607 H 56.8838 -3.65846 -1.97812 0
M  V30 608 H 55.4608 -2.16401 -3.03685 0
M  V30 609 N 57.6459 0.756429 -1.3826 0
M  V30 610 C 58.8919 1.5168 -1.35517 0
M  V30 611 C 59.2469 1.9232 0.0554451 0
M  V30 612 O 58.5399 1.62352 1.01746 0
M  V30 613 C 58.7339 2.78313 -2.24224 0
M  V30 614 C 58.5629 2.50053 -3.7377 0
M  V30 615 C 57.3329 2.43414 -4.42807 0
M  V30 616 C 59.5309 2.1702 -4.66269 0
M  V30 617 N 57.5129 2.07398 -5.77805 0
M  V30 618 C 58.8839 1.91271 -5.89759 0
M  V30 619 C 60.9389 2.03305 -4.54501 0
M  V30 620 C 59.6419 1.53192 -7.02798 0
M  V30 621 C 61.6679 1.66627 -5.67441 0
M  V30 622 C 61.0299 1.4175 -6.8999 0
M  V30 623 H 57.1289 0.554735 -0.551174 0
M  V30 624 H 59.7129 0.881106 -1.73622 0
M  V30 625 H 57.8839 3.39696 -1.88311 0
M  V30 626 H 59.6159 3.44343 -2.12627 0
M  V30 627 H 56.3709 2.59789 -3.95988 0
M  V30 628 H 56.7949 1.92044 -6.4919 0
M  V30 629 H 61.4369 2.21215 -3.60311 0
M  V30 630 H 59.1549 1.34022 -7.96909 0
M  V30 631 H 62.7409 1.56652 -5.60314 0
M  V30 632 H 61.6209 1.1379 -7.759 0
M  V30 633 N 59.124 1.23083 0.984299 0
M  V30 634 C 60.071 1.00854 2.07598 0
M  V30 635 C 61.041 -0.0726709 1.65941 0
M  V30 636 O 62.226 0.0786535 1.90638 0
M  V30 637 C 59.366 0.601645 3.39815 0
M  V30 638 C 58.479 1.75456 3.94765 0
M  V30 639 C 57.614 1.29482 5.15177 0
M  V30 640 C 56.653 2.41873 5.62284 0
M  V30 641 N 55.79 1.96885 6.73929 0
M  V30 642 H 60.63 1.943 2.25946 0
M  V30 643 H 58.167 0.968001 1.10762 0
M  V30 644 H 60.125 0.346854 4.15756 0
M  V30 645 H 58.755 -0.295803 3.21442 0
M  V30 646 H 57.807 2.12346 3.15616 0
M  V30 647 H 59.119 2.59965 4.25699 0
M  V30 648 H 58.273 0.997923 5.98437 0
M  V30 649 H 57.012 0.420046 4.85888 0
M  V30 650 H 56.017 2.72342 4.77608 0
M  V30 651 H 57.242 3.29881 5.93595 0
M  V30 652 H 55.188 1.11782 6.46406 0
M  V30 653 H 55.105 2.74956 7.04227 0
M  V30 654 H 56.373 1.70289 7.60672 0
M  V30 655 N 60.6021 -1.18246 1.0419 0
M  V30 656 C 61.5341 -2.2142 0.592088 0
M  V30 657 C 62.5471 -1.59233 -0.338909 0
M  V30 658 O 63.7361 -1.78002 -0.133231 0
M  V30 659 C 60.8361 -3.38546 -0.154854 0
M  V30 660 C 60.0091 -4.3031 0.784328 0
M  V30 661 C 59.0681 -5.26138 0.0804583 0
M  V30 662 O 58.0941 -5.64738 0.711292 0
M  V30 663 N 59.2961 -5.68261 -1.18574 0
M  V30 664 H 62.0611 -2.60636 1.47949 0
M  V30 665 H 59.6221 -1.33044 0.922544 0
M  V30 666 H 61.6141 -3.99678 -0.635606 0
M  V30 667 H 60.1841 -2.98012 -0.943811 0
M  V30 668 H 59.4041 -3.66764 1.44491 0
M  V30 669 H 60.6921 -4.8852 1.42218 0
M  V30 670 H 60.0901 -5.38957 -1.71876 0
M  V30 671 H 58.6471 -6.31584 -1.61074 0
M  V30 672 N 62.0802 -0.821533 -1.34494 0
M  V30 673 C 63.0282 -0.230702 -2.31453 0
M  V30 674 C 64.0222 0.627793 -1.57338 0
M  V30 675 O 65.2282 0.519288 -1.72347 0
M  V30 676 H 61.6032 -0.0558577 -0.749923 0
M  V30 677 H 63.5742 -1.06332 -2.78812 0
M  V30 678 C 62.3232 0.59391 -3.4259 0
M  V30 679 H 61.6462 -0.0573588 -3.99759 0
M  V30 680 H 63.0862 0.973446 -4.12674 0
M  V30 681 C 61.5452 1.76568 -2.86924 0
M  V30 682 O 62.0752 2.8638 -2.81691 0
M  V30 683 N 60.2812 1.58198 -2.43766 0
M  V30 684 H 59.8282 0.68872 -2.48222 0
M  V30 685 H 59.7862 2.36752 -2.06871 0
M  V30 686 N 63.5583 1.46682 -0.576371 0
M  V30 687 C 64.4883 2.33028 0.148397 0
M  V30 688 C 65.4693 1.44961 0.889956 0
M  V30 689 O 66.6543 1.73789 0.866662 0
M  V30 690 C 63.7843 3.27117 1.1667 0
M  V30 691 C 62.7383 4.24575 0.540386 0
M  V30 692 C 62.0643 5.08126 1.6647 0
M  V30 693 C 63.3643 5.19722 -0.518331 0
M  V30 694 H 65.0583 2.93875 -0.572509 0
M  V30 695 H 62.6043 1.41315 -0.276768 0
M  V30 696 H 64.5573 3.86374 1.68204 0
M  V30 697 H 63.2813 2.64364 1.9178 0
M  V30 698 H 61.9403 3.66571 0.0461769 0
M  V30 699 H 61.5883 4.41762 2.40531 0
M  V30 700 H 61.2883 5.74122 1.25131 0
M  V30 701 H 62.8123 5.70246 2.18293 0
M  V30 702 H 64.2263 5.73232 -0.0883058 0
M  V30 703 H 62.6233 5.94026 -0.851679 0
M  V30 704 H 63.6933 4.64037 -1.40703 0
M  V30 705 N 65.0364 0.313813 1.54444 0
M  V30 706 C 66.2824 -0.292108 2.00685 0
M  V30 707 C 66.6154 -1.52548 1.20177 0
M  V30 708 O 65.8904 -1.92452 0.281531 0
M  V30 709 C 66.1734 -0.635968 3.5444 0
M  V30 710 C 66.0264 0.607437 4.4568 0
M  V30 711 C 67.3454 -1.45747 4.15266 0
M  V30 712 H 64.4644 -0.104697 0.729526 0
M  V30 713 H 67.1064 0.428457 1.85106 0
M  V30 714 H 65.2564 -1.24986 3.67846 0
M  V30 715 H 66.9284 1.24581 4.44159 0
M  V30 716 H 65.1714 1.23822 4.15753 0
M  V30 717 H 65.8424 0.322515 5.51057 0
M  V30 718 H 68.3184 -0.938645 4.05375 0
M  V30 719 H 67.1944 -1.66683 5.2298 0
M  V30 720 H 67.4554 -2.45063 3.67963 0
M  V30 721 N 66.5145 -1.57545 0.0417849 0
M  V30 722 C 67.7395 -1.97035 -0.647455 0
M  V30 723 C 68.1645 -0.918775 -1.64135 0
M  V30 724 O 67.5225 0.119006 -1.80909 0
M  V30 725 C 67.5705 -3.35609 -1.31905 0
M  V30 726 O 66.6745 -3.3287 -2.43457 0
M  V30 727 H 66.0155 -0.64211 -0.169086 0
M  V30 728 H 68.5455 -2.04318 0.107399 0
M  V30 729 H 68.5555 -3.72126 -1.67291 0
M  V30 730 H 67.2305 -4.11685 -0.590586 0
M  V30 731 H 65.8075 -3.08087 -2.10088 0
M  V30 732 N 67.9926 0.231505 -1.5589 0
M  V30 733 C 69.2406 0.955461 -1.78088 0
M  V30 734 C 69.5616 1.85262 -0.608533 0
M  V30 735 O 68.8316 1.92277 0.375035 0
M  V30 736 H 67.4116 0.355787 -0.656829 0
M  V30 737 H 70.0736 0.245751 -1.93344 0
M  V30 738 H 69.1696 1.56814 -2.69844 0
M  V30 739 N 69.4707 1.49531 0.497807 0
M  V30 740 C 70.7167 1.60388 1.25089 0
M  V30 741 C 71.0717 0.288328 1.90227 0
M  V30 742 O 70.3647 -0.711706 1.77891 0
M  V30 743 C 70.5587 2.70252 2.33878 0
M  V30 744 C 70.3877 4.12363 1.79408 0
M  V30 745 C 69.1577 4.7911 1.60566 0
M  V30 746 C 71.3557 4.97491 1.30412 0
M  V30 747 N 69.3377 6.05525 1.01059 0
M  V30 748 C 70.7087 6.14411 0.830595 0
M  V30 749 C 72.7637 4.83466 1.19015 0
M  V30 750 C 71.4667 7.1885 0.254371 0
M  V30 751 C 73.4927 5.88057 0.627892 0
M  V30 752 C 72.8547 7.04208 0.16461 0
M  V30 753 H 68.9537 0.641246 0.447579 0
M  V30 754 H 71.5377 1.86549 0.557441 0
M  V30 755 H 69.7087 2.45858 3.0068 0
M  V30 756 H 71.4407 2.70613 3.00917 0
M  V30 757 H 68.1957 4.35961 1.85026 0
M  V30 758 H 68.6197 6.73028 0.732236 0
M  V30 759 H 73.2617 3.93978 1.53431 0
M  V30 760 H 70.9797 8.08036 -0.102052 0
M  V30 761 H 74.5657 5.79266 0.542444 0
M  V30 762 H 73.4457 7.83757 -0.263669 0
M  V30 763 N 70.9488 -0.749086 1.3866 0
M  V30 764 C 71.8788 -1.8764 1.38973 0
M  V30 765 C 72.8598 -1.68178 0.255004 0
M  V30 766 O 74.0448 -1.88704 0.458754 0
M  V30 767 C 71.1748 -3.25222 1.21851 0
M  V30 768 C 70.1288 -3.59295 2.32575 0
M  V30 769 C 69.4548 -4.95663 2.00555 0
M  V30 770 C 70.7548 -3.63709 3.7485 0
M  V30 771 H 72.4488 -1.87635 2.3331 0
M  V30 772 H 69.9948 -0.901329 1.12303 0
M  V30 773 H 71.9478 -4.03746 1.20695 0
M  V30 774 H 70.6718 -3.25719 0.239775 0
M  V30 775 H 69.3308 -2.83093 2.32925 0
M  V30 776 H 68.9788 -4.92724 1.01154 0
M  V30 777 H 68.6788 -5.19429 2.74714 0
M  V30 778 H 70.2028 -5.7656 2.01024 0
M  V30 779 H 71.6168 -4.32338 3.76506 0
M  V30 780 H 70.0138 -3.98986 4.48252 0
M  V30 781 H 71.0838 -2.63834 4.06841 0
M  V30 782 N 72.4269 -1.23603 -0.977757 0
M  V30 783 C 73.6519 -1.09735 -1.75991 0
M  V30 784 C 74.0769 0.346858 -1.84874 0
M  V30 785 O 73.4349 1.25093 -1.3123 0
M  V30 786 C 73.4829 -1.73051 -3.16363 0
M  V30 787 O 72.5869 -0.994452 -4.0023 0
M  V30 788 H 71.9279 -0.384476 -0.541364 0
M  V30 789 H 74.4579 -1.6371 -1.2272 0
M  V30 790 H 74.4679 -1.78398 -3.66931 0
M  V30 791 H 73.1429 -2.78137 -3.09213 0
M  V30 792 H 71.7199 -1.01812 -3.58732 0
M  V30 793 N 73.905 1.17692 -1.04816 0
M  V30 794 C 75.182 1.83768 -0.669963 0
M  V30 795 C 75.562 1.93232 0.849986 0
M  V30 796 O 74.91 1.46397 1.75443 0
M  V30 797 C 75.12 3.21641 -1.35455 0
M  V30 798 C 76.468 3.97592 -1.49017 0
M  V30 799 O 77.492 3.31107 -1.31326 0
M  V30 800 O 76.351 5.16729 -1.77914 0
M  V30 801 H 73.445 0.792799 -0.235368 0
M  V30 802 H 75.991 1.25021 -1.14751 0
M  V30 803 H 74.763 3.097 -2.39168 0
M  V30 804 H 74.386 3.88052 -0.866107 0
M  V30 805 N 75.3831 0.828654 1.34056 0
M  V30 806 C 76.3131 0.269443 2.3194 0
M  V30 807 C 77.2941 -0.617247 1.58506 0
M  V30 808 O 78.4791 -0.542931 1.86456 0
M  V30 809 C 75.6091 -0.564793 3.42677 0
M  V30 810 C 74.5631 0.225241 4.27407 0
M  V30 811 C 73.8891 -0.7321 5.29664 0
M  V30 812 C 75.1891 1.43663 5.02154 0
M  V30 813 H 76.8831 1.08728 2.7896 0
M  V30 814 H 74.4291 0.524283 1.34117 0
M  V30 815 H 76.3821 -0.966233 4.10173 0
M  V30 816 H 75.1061 -1.41574 2.9432 0
M  V30 817 H 73.7651 0.608117 3.61521 0
M  V30 818 H 73.4131 -1.57916 4.77568 0
M  V30 819 H 73.1131 -0.20767 5.87233 0
M  V30 820 H 74.6371 -1.13128 6.00029 0
M  V30 821 H 76.0511 1.1089 5.62473 0
M  V30 822 H 74.4481 1.89711 5.69324 0
M  V30 823 H 75.5181 2.21181 4.31517 0
M  V30 824 N 76.8612 -1.46375 0.584142 0
M  V30 825 C 77.7932 -2.28443 -0.186119 0
M  V30 826 C 78.8062 -1.38596 -0.854115 0
M  V30 827 O 79.9952 -1.63183 -0.723438 0
M  V30 828 C 77.0952 -3.13671 -1.28311 0
M  V30 829 C 76.2682 -4.31652 -0.706758 0
M  V30 830 C 75.3272 -4.98267 -1.69163 0
M  V30 831 O 74.3532 -5.55815 -1.22712 0
M  V30 832 N 75.5552 -4.95408 -3.02575 0
M  V30 833 H 78.3202 -2.9519 0.517986 0
M  V30 834 H 75.8812 -1.56303 0.42201 0
M  V30 835 H 77.8732 -3.55101 -1.94128 0
M  V30 836 H 76.4432 -2.48989 -1.89005 0
M  V30 837 H 75.6632 -3.93989 0.128908 0
M  V30 838 H 76.9512 -5.07906 -0.301506 0
M  V30 839 H 76.3492 -4.49902 -3.42936 0
M  V30 840 H 74.9062 -5.40774 -3.63877 0
M  V30 841 N 78.3393 -0.321999 -1.54275 0
M  V30 842 C 79.5673 0.283052 -2.04955 0
M  V30 843 C 79.9823 1.45904 -1.19823 0
M  V30 844 O 79.3393 1.81063 -0.228545 0
M  V30 845 C 79.3903 0.719028 -3.54277 0
M  V30 846 O 79.1113 -0.410175 -4.36176 0
M  V30 847 C 80.6123 1.38705 -4.21041 0
M  V30 848 H 77.8323 0.0584616 -0.668448 0
M  V30 849 H 80.3763 -0.467734 -1.99079 0
M  V30 850 H 78.5313 1.41979 -3.60445 0
M  V30 851 H 78.9453 -0.0669416 -5.24457 0
M  V30 852 H 80.4193 1.64306 -5.2698 0
M  V30 853 H 80.8963 2.33385 -3.72059 0
M  V30 854 H 81.5023 0.728906 -4.19007 0
M  V30 855 N 79.8174 1.5752 -0.0501392 0
M  V30 856 C 80.7674 2.07981 0.934231 0
M  V30 857 C 81.7514 0.984745 1.27246 0
M  V30 858 O 82.9434 1.24809 1.25506 0
M  V30 859 C 80.0724 2.62751 2.20945 0
M  V30 860 C 79.1584 3.79225 1.89865 0
M  V30 861 N 79.5494 4.89036 1.29142 0
M  V30 862 C 77.8474 3.88111 2.19741 0
M  V30 863 C 78.5484 5.70084 1.15669 0
M  V30 864 N 77.5244 5.17659 1.65923 0
M  V30 865 H 81.3264 2.90277 0.460053 0
M  V30 866 H 78.8404 1.61665 0.15434 0
M  V30 867 H 80.8374 2.97205 2.9236 0
M  V30 868 H 79.4974 1.81894 2.6897 0
M  V30 869 H 80.5084 5.08854 0.963756 0
M  V30 870 H 77.1854 3.18194 2.70293 0
M  V30 871 H 78.5754 6.68395 0.685356 0
M  V30 872 N 81.2955 -0.223234 1.56011 0
M  V30 873 C 82.5235 -0.964812 1.83027 0
M  V30 874 C 82.9385 -1.78013 0.62904 0
M  V30 875 O 82.2955 -1.78008 -0.402414 0
M  V30 876 C 82.3465 -1.88373 3.08542 0
M  V30 877 O 82.0675 -1.10137 4.2403 0
M  V30 878 C 83.5685 -2.73934 3.48533 0
M  V30 879 H 80.7885 -0.282842 0.608475 0
M  V30 880 H 83.3325 -0.238971 2.03099 0
M  V30 881 H 81.4875 -2.56354 2.9045 0
M  V30 882 H 81.9015 -1.72501 4.95322 0
M  V30 883 H 83.3755 -3.34117 4.39397 0
M  V30 884 H 83.8525 -3.46244 2.70207 0
M  V30 885 H 84.4585 -2.11369 3.69057 0
M  V30 886 N 82.7736 -1.49793 -0.48987 0
M  V30 887 C 84.0196 -1.61049 -1.24236 0
M  V30 888 C 84.3746 -0.298412 -1.90072 0
M  V30 889 O 83.6676 0.702262 -1.78266 0
M  V30 890 C 83.8616 -2.71488 -2.32441 0
M  V30 891 C 83.6906 -4.13308 -1.77218 0
M  V30 892 C 82.4606 -4.79955 -1.58023 0
M  V30 893 C 84.6586 -4.98176 -1.27772 0
M  V30 894 N 82.6406 -6.06052 -0.978465 0
M  V30 895 C 84.0116 -6.14843 -0.798 0
M  V30 896 C 86.0666 -4.84091 -1.16449 0
M  V30 897 C 84.7696 -7.18975 -0.216245 0
M  V30 898 C 86.7956 -5.88382 -0.596698 0
M  V30 899 C 86.1576 -7.04285 -0.127262 0
M  V30 900 H 82.2566 -0.643611 -0.444172 0
M  V30 901 H 84.8406 -1.86842 -0.54754 0
M  V30 902 H 83.0116 -2.47449 -2.99372 0
M  V30 903 H 84.7436 -2.72205 -2.99477 0
M  V30 904 H 81.4986 -4.36936 -1.82712 0
M  V30 905 H 81.9226 -6.73407 -0.696534 0
M  V30 906 H 86.5646 -3.94786 -1.5134 0
M  V30 907 H 84.2826 -8.0797 0.144903 0
M  V30 908 H 87.8686 -5.79545 -0.511716 0
M  V30 909 H 86.7486 -7.83606 0.30523 0
M  V30 910 N 84.2517 0.741722 -1.39055 0
M  V30 911 C 85.5287 1.49252 -1.26425 0
M  V30 912 C 85.9087 2.10705 0.129144 0
M  V30 913 O 85.2567 1.98045 1.13976 0
M  V30 914 C 85.4667 2.54934 -2.38347 0
M  V30 915 C 86.8147 3.21506 -2.77343 0
M  V30 916 O 87.8387 2.65245 -2.37747 0
M  V30 917 O 86.6977 4.23294 -3.45665 0
M  V30 918 H 83.7917 0.662451 -0.495064 0
M  V30 919 H 86.3377 0.776121 -1.50912 0
M  V30 920 H 85.1097 2.07857 -3.31529 0
M  V30 921 H 84.7327 3.34141 -2.15489 0
M  V30 922 N 85.7298 1.2412 0.971189 0
M  V30 923 C 86.9548 1.10667 1.75407 0
M  V30 924 C 87.3798 -0.337048 1.85056 0
M  V30 925 O 86.7378 -1.24396 1.31892 0
M  V30 926 C 86.7858 1.74726 3.15441 0
M  V30 927 O 85.8898 1.01566 3.99697 0
M  V30 928 H 85.2308 0.387341 0.539317 0
M  V30 929 H 87.7608 1.64358 1.2185 0
M  V30 930 H 87.7708 1.80341 3.6598 0
M  V30 931 H 86.4458 2.79773 3.07734 0
M  V30 932 H 85.0228 1.03713 3.58187 0
M  V30 933 N 87.2079 -1.17134 1.05439 0
M  V30 934 C 88.1559 -2.23289 0.651511 0
M  V30 935 C 89.1499 -1.66186 -0.328411 0
M  V30 936 O 90.3559 -1.78949 -0.194206 0
M  V30 937 H 86.7309 -0.726938 0.192523 0
M  V30 938 H 88.7019 -2.54565 1.55689 0
M  V30 939 C 87.4509 -3.47671 0.0448436 0
M  V30 940 H 86.7739 -3.91918 0.78996 0
M  V30 941 H 88.2139 -4.2353 -0.19964 0
M  V30 942 C 86.6729 -3.14453 -1.20918 0
M  V30 943 O 87.2029 -3.29459 -2.29825 0
M  V30 944 N 85.4089 -2.68657 -1.10779 0
M  V30 945 H 84.9559 -2.56646 -0.221526 0
M  V30 946 H 84.9139 -2.46804 -1.9477 0
M  V30 947 N 88.686 -0.835752 -1.33615 0
M  V30 948 C 89.911 -0.442389 -2.02627 0
M  V30 949 C 90.336 0.947735 -1.62479 0
M  V30 950 O 89.694 1.61907 -0.815826 0
M  V30 951 C 89.742 -0.567216 -3.56111 0
M  V30 952 O 88.846 0.407799 -4.10379 0
M  V30 953 H 88.187 -0.180278 -0.639059 0
M  V30 954 H 90.717 -1.12972 -1.70583 0
M  V30 955 H 90.727 -0.447708 -4.05536 0
M  V30 956 H 89.402 -1.58103 -3.84677 0
M  V30 957 H 87.979 0.246107 -3.72087 0
M  V30 958 N 90.1641 1.46063 -0.591896 0
M  V30 959 C 91.3891 2.07226 -0.0850314 0
M  V30 960 C 91.8141 1.43625 1.21463 0
M  V30 961 O 91.1721 0.523305 1.73583 0
M  V30 962 C 91.2201 3.60554 0.0576567 0
M  V30 963 O 90.3241 3.97128 1.11188 0
M  V30 964 H 89.6651 0.660615 -0.0669568 0
M  V30 965 H 92.1951 1.8756 -0.81745 0
M  V30 966 H 92.2051 4.07165 0.2609 0
M  V30 967 H 90.8801 4.06235 -0.891416 0
M  V30 968 H 89.4571 3.62213 0.886356 0
M  V30 969 N 91.6422 0.330177 1.54103 0
M  V30 970 C 92.8702 -0.272179 2.05102 0
M  V30 971 C 93.2852 -1.45267 1.20595 0
M  V30 972 O 92.6422 -1.8094 0.238144 0
M  V30 973 C 92.6932 -0.70023 3.54653 0
M  V30 974 O 92.4142 0.433301 4.35952 0
M  V30 975 C 93.9152 -1.3647 4.21771 0
M  V30 976 H 91.1352 -0.0549159 0.668749 0
M  V30 977 H 93.6792 0.478285 1.98828 0
M  V30 978 H 91.8342 -1.40066 3.61193 0
M  V30 979 H 92.2482 0.0947539 5.24414 0
M  V30 980 H 93.7222 -1.61509 5.27843 0
M  V30 981 H 94.1992 -2.31409 3.73292 0
M  V30 982 H 94.8052 -0.706675 4.19388 0
M  V30 983 N 93.1203 -1.57491 0.0584922 0
M  V30 984 C 94.3693 -1.92155 -0.613146 0
M  V30 985 C 94.6823 -0.939334 -1.71569 0
M  V30 986 O 95.8883 -1.17829 -2.44599 0
M  V30 987 C 94.3443 -3.41303 -1.14195 0
M  V30 988 C 93.9523 -4.47944 -0.0711265 0
M  V30 989 C 95.6963 -3.84988 -1.78841 0
M  V30 990 C 93.6033 -5.88212 -0.613225 0
M  V30 991 H 92.5333 -0.717162 -0.232796 0
M  V30 992 H 95.1843 -1.83049 0.12857 0
M  V30 993 H 93.5663 -3.45437 -1.93621 0
M  V30 994 H 94.7403 -4.55408 0.702836 0
M  V30 995 H 93.0553 -4.13644 0.478313 0
M  V30 996 H 95.6523 -4.87159 -2.20408 0
M  V30 997 H 95.9953 -3.21632 -2.64308 0
M  V30 998 H 96.5283 -3.83401 -1.06059 0
M  V30 999 H 93.2673 -6.55183 0.203978 0
M  V30 1000 H 92.7873 -5.84294 -1.35501 0
M  V30 1001 H 94.4663 -6.37687 -1.09383 0
M  V30 1002 N 94.5984 0.214957 -1.56127 0
M  V30 1003 C 95.8444 0.939762 -1.79712 0
M  V30 1004 C 96.1774 1.83723 -0.629247 0
M  V30 1005 O 95.4524 1.90925 0.371197 0
M  V30 1006 C 95.7354 1.77306 -3.13424 0
M  V30 1007 C 95.5884 0.90164 -4.40671 0
M  V30 1008 C 96.9074 2.74956 -3.43638 0
M  V30 1009 H 94.0264 0.340214 -0.653776 0
M  V30 1010 H 96.6684 0.20824 -1.88855 0
M  V30 1011 H 94.8184 2.39673 -3.0576 0
M  V30 1012 H 96.4904 0.294206 -4.60361 0
M  V30 1013 H 94.7334 0.207368 -4.33304 0
M  V30 1014 H 95.4044 1.51923 -5.30682 0
M  V30 1015 H 97.8804 2.22724 -3.51473 0
M  V30 1016 H 96.7564 3.30358 -4.38355 0
M  V30 1017 H 97.0174 3.53023 -2.66134 0
M  V30 1018 N 96.0765 1.50051 0.48192 0
M  V30 1019 C 97.3235 1.60498 1.23477 0
M  V30 1020 C 97.6515 0.300331 1.92167 0
M  V30 1021 O 96.9065 -0.713094 1.82246 0
M  V30 1022 C 97.2055 2.72717 2.30998 0
M  V30 1023 C 96.8715 4.13572 1.79636 0
M  V30 1024 C 95.5335 4.519 1.65348 0
M  V30 1025 C 97.8855 5.01649 1.41412 0
M  V30 1026 C 95.2135 5.76057 1.11244 0
M  V30 1027 C 97.5655 6.26343 0.887538 0
M  V30 1028 C 96.2295 6.63483 0.731207 0
M  V30 1029 H 95.4995 0.587303 0.451836 0
M  V30 1030 H 98.1465 1.83948 0.532468 0
M  V30 1031 H 96.4515 2.43312 3.07094 0
M  V30 1032 H 98.1485 2.78006 2.88988 0
M  V30 1033 H 94.7385 3.83329 1.91721 0
M  V30 1034 H 98.9225 4.72679 1.51289 0
M  V30 1035 H 94.1785 6.03516 0.978686 0
M  V30 1036 H 98.3525 6.93958 0.582654 0
M  V30 1037 H 95.9795 7.59568 0.309806 0
M  V30 1038 N 97.5546 -0.734337 1.39446 0
M  V30 1039 C 98.4846 -1.86155 1.40955 0
M  V30 1040 C 99.4656 -1.67898 0.272827 0
M  V30 1041 O 100.651 -1.88207 0.478743 0
M  V30 1042 C 97.7806 -3.23912 1.25294 0
M  V30 1043 C 96.7346 -3.56808 2.36373 0
M  V30 1044 C 96.0606 -4.93508 2.058 0
M  V30 1045 C 97.3606 -3.59713 3.78687 0
M  V30 1046 H 99.0546 -1.8515 2.35287 0
M  V30 1047 H 96.6006 -0.889367 1.13253 0
M  V30 1048 H 98.5536 -4.02443 1.2497 0
M  V30 1049 H 97.2776 -3.25446 0.274308 0
M  V30 1050 H 95.9366 -2.80606 2.35914 0
M  V30 1051 H 95.5846 -4.91623 1.06374 0
M  V30 1052 H 95.2846 -5.16486 2.80208 0
M  V30 1053 H 96.8086 -5.74396 2.07128 0
M  V30 1054 H 98.2226 -4.2832 3.81071 0
M  V30 1055 H 96.6196 -3.94209 4.52459 0
M  V30 1056 H 97.6896 -2.59504 4.09617 0
M  V30 1057 N 99.0327 -1.24633 -0.964593 0
M  V30 1058 C 100.273 -1.09981 -1.72289 0
M  V30 1059 C 100.637 0.354792 -1.88693 0
M  V30 1060 O 101.838 0.62289 -2.61483 0
M  V30 1061 C 100.109 -1.82262 -3.07434 0
M  V30 1062 S 101.668 -1.83379 -3.98645 0
M  V30 1063 H 98.4857 -0.393292 -0.59232 0
M  V30 1064 H 101.088 -1.58009 -1.15123 0
M  V30 1065 H 99.7917 -2.87206 -2.93157 0
M  V30 1066 H 99.3227 -1.3458 -3.69664 0
M  V30 1067 H 101.338 -0.903691 -4.87901 0
M  V30 1068 N 100.511 1.16574 -1.06058 0
M  V30 1069 C 101.922 1.68662 -0.800632 0
M  V30 1070 C 102.273 1.84184 0.67608 0
M  V30 1071 O 101.398 1.53568 1.52466 0
M  V30 1072 C 101.993 3.06356 -1.44676 0
M  V30 1073 C 100.552 3.55575 -1.23465 0
M  V30 1074 C 99.6988 2.31616 -1.52477 0
M  V30 1075 H 102.65 1.00969 -1.22438 0
M  V30 1076 H 102.671 3.70636 -0.860788 0
M  V30 1077 H 102.183 2.95027 -2.52152 0
M  V30 1078 H 100.284 3.72167 -0.179527 0
M  V30 1079 H 100.397 4.37812 -1.94571 0
M  V30 1080 H 98.7608 2.36512 -0.945209 0
M  V30 1081 H 99.5438 2.22887 -2.61106 0
M  V30 1082 N 101.989 0.842826 1.3317 0
M  V30 1083 C 103.235 0.450342 1.98352 0
M  V30 1084 C 103.59 -0.980508 1.65541 0
M  V30 1085 O 102.883 -1.67678 0.927065 0
M  V30 1086 C 103.077 0.612607 3.52111 0
M  V30 1087 C 102.906 2.05768 3.99862 0
M  V30 1088 C 101.676 2.69374 4.27511 0
M  V30 1089 C 103.874 3.02688 4.15794 0
M  V30 1090 N 101.856 4.04915 4.61429 0
M  V30 1091 C 103.227 4.23186 4.53115 0
M  V30 1092 C 105.282 2.99041 3.98094 0
M  V30 1093 C 103.985 5.40518 4.74587 0
M  V30 1094 C 106.011 4.15607 4.20743 0
M  V30 1095 C 105.373 5.3486 4.58371 0
M  V30 1096 H 101.472 0.213296 0.752349 0
M  V30 1097 H 104.056 1.09173 1.61212 0
M  V30 1098 H 102.227 0.000998822 3.884 0
M  V30 1099 H 103.959 0.191179 4.04248 0
M  V30 1100 H 100.714 2.20485 4.19146 0
M  V30 1101 H 101.138 4.74798 4.82593 0
M  V30 1102 H 105.78 2.0797 3.68114 0
M  V30 1103 H 103.498 6.3213 5.03425 0
M  V30 1104 H 107.084 4.14207 4.08563 0
M  V30 1105 H 105.964 6.23558 4.75547 0
M  V30 1106 N 103.467 -1.45747 0.599634 0
M  V30 1107 C 104.692 -2.07178 0.0960198 0
M  V30 1108 C 105.117 -1.44268 -1.207 0
M  V30 1109 O 104.475 -0.532503 -1.73303 0
M  V30 1110 C 104.523 -3.60579 -0.0385348 0
M  V30 1111 O 103.627 -3.97713 -1.0908 0
M  V30 1112 H 102.968 -0.660251 0.0704593 0
M  V30 1113 H 105.498 -1.87124 0.827385 0
M  V30 1114 H 105.508 -4.07298 -0.239304 0
M  V30 1115 H 104.183 -4.05756 0.912947 0
M  V30 1116 H 102.76 -3.62678 -0.867135 0
M  V30 1117 N 104.945 -0.338344 -1.53925 0
M  V30 1118 C 106.361 0.0137736 -1.59594 0
M  V30 1119 C 106.561 1.49186 -1.35447 0
M  V30 1120 O 105.617 2.24987 -1.14616 0
M  V30 1121 C 106.93 -0.41773 -2.97784 0
M  V30 1122 C 108.478 -0.369633 -3.1081 0
M  V30 1123 C 108.953 -0.776524 -4.51369 0
M  V30 1124 N 110.444 -0.730506 -4.57403 0
M  V30 1125 C 111.179 -1.01736 -5.64303 0
M  V30 1126 N 110.675 -1.3721 -6.79077 0
M  V30 1127 N 112.468 -0.941942 -5.54151 0
M  V30 1128 H 104.619 -1.3012 -1.67876 0
M  V30 1129 H 106.882 -0.530082 -0.78595 0
M  V30 1130 H 106.588 -1.44811 -3.20504 0
M  V30 1131 H 106.462 0.209729 -3.76616 0
M  V30 1132 H 108.849 0.651568 -2.87817 0
M  V30 1133 H 108.93 -1.03223 -2.34049 0
M  V30 1134 H 108.574 -1.79571 -4.75096 0
M  V30 1135 H 108.504 -0.0914649 -5.26521 0
M  V30 1136 H 110.995 -0.468783 -3.74981 0
M  V30 1137 H 111.308 -1.57597 -7.5656 0
M  V30 1138 H 109.653 -1.4105 -6.80536 0
M  V30 1139 H 112.844 -0.664184 -4.63364 0
M  V30 1140 H 113.017 -1.16884 -6.37371 0
M  V30 1141 N 106.423 1.57458 -0.0668435 0
M  V30 1142 C 107.671 1.92919 0.602214 0
M  V30 1143 C 107.992 0.947215 1.70449 0
M  V30 1144 O 107.262 -0.00544117 1.95899 0
M  V30 1145 H 105.842 0.71217 0.22544 0
M  V30 1146 H 108.504 1.94508 -0.123535 0
M  V30 1147 H 107.6 2.94589 1.03073 0
M  V30 1148 N 107.901 -0.206675 1.56239 0
M  V30 1149 C 108.849 -1.27571 1.94495 0
M  V30 1150 C 109.843 -1.47737 0.828862 0
M  V30 1151 O 111.049 -1.48735 1.0138 0
M  V30 1152 H 107.424 -0.428029 0.6183 0
M  V30 1153 H 109.395 -0.925961 2.8367 0
M  V30 1154 C 108.144 -2.61568 2.29079 0
M  V30 1155 H 107.467 -2.46863 3.14482 0
M  V30 1156 H 108.907 -3.35144 2.5972 0
M  V30 1157 C 107.366 -3.17695 1.12123 0
M  V30 1158 O 107.896 -3.99801 0.390153 0
M  V30 1159 N 106.102 -2.76276 0.901097 0
M  V30 1160 H 105.649 -2.09613 1.49733 0
M  V30 1161 H 105.607 -3.1417 0.120319 0
M  V30 1162 N 109.379 -1.50304 -0.473955 0
M  V30 1163 C 110.626 -1.6115 -1.22625 0
M  V30 1164 C 110.954 -0.310517 -1.92005 0
M  V30 1165 O 110.209 0.703419 -1.82621 0
M  V30 1166 C 110.508 -2.73938 -2.29549 0
M  V30 1167 C 110.174 -4.14519 -1.7744 0
M  V30 1168 C 108.836 -4.5277 -1.62949 0
M  V30 1169 C 111.188 -5.02392 -1.3875 0
M  V30 1170 C 108.516 -5.76639 -1.08187 0
M  V30 1171 C 110.868 -6.26805 -0.854309 0
M  V30 1172 C 109.532 -6.63861 -0.696011 0
M  V30 1173 H 108.802 -0.589691 -0.448715 0
M  V30 1174 H 111.449 -1.84228 -0.522705 0
M  V30 1175 H 109.754 -2.44937 -3.05799 0
M  V30 1176 H 111.451 -2.79534 -2.87509 0
M  V30 1177 H 108.041 -3.8434 -1.89685 0
M  V30 1178 H 112.225 -4.73474 -1.4878 0
M  V30 1179 H 107.481 -6.04027 -0.946666 0
M  V30 1180 H 111.655 -6.94258 -0.545843 0
M  V30 1181 H 109.282 -7.59722 -0.26952 0
M  V30 1182 N 110.857 0.726932 -1.39834 0
M  V30 1183 C 112.082 1.52121 -1.40976 0
M  V30 1184 C 112.507 1.88098 -0.00826029 0
M  V30 1185 O 111.865 1.52479 0.980807 0
M  V30 1186 C 111.913 2.78021 -2.29644 0
M  V30 1187 O 111.017 3.74272 -1.73188 0
M  V30 1188 H 110.358 0.45908 -0.479731 0
M  V30 1189 H 112.888 0.896207 -1.83927 0
M  V30 1190 H 112.898 3.26671 -2.44438 0
M  V30 1191 H 111.573 2.51169 -3.31492 0
M  V30 1192 H 110.15 3.33073 -1.6768 0
M  V30 1193 N 112.336 1.25143 0.95797 0
M  V30 1194 C 113.284 1.05019 2.07542 0
M  V30 1195 C 114.278 -0.0178751 1.69391 0
M  V30 1196 O 115.484 0.137472 1.79474 0
M  V30 1197 H 111.859 0.32265 0.679265 0
M  V30 1198 H 113.83 1.99759 2.21673 0
M  V30 1199 C 112.579 0.682074 3.40944 0
M  V30 1200 H 111.902 1.49573 3.70767 0
M  V30 1201 H 113.342 0.580945 4.20001 0
M  V30 1202 C 111.801 -0.611608 3.31302 0
M  V30 1203 O 112.331 -1.65465 3.66038 0
M  V30 1204 N 110.537 -0.595982 2.84423 0
M  V30 1205 H 110.084 0.253192 2.56353 0
M  V30 1206 H 110.042 -1.46173 2.78354 0
M  V30 1207 N 113.814 -1.1601 1.06675 0
M  V30 1208 C 114.724 -2.24156 0.692179 0
M  V30 1209 C 115.74 -1.71507 -0.293513 0
M  V30 1210 O 116.916 -2.009 -0.141861 0
M  V30 1211 C 113.981 -3.46587 0.0884131 0
M  V30 1212 C 113.042 -4.14257 1.12646 0
M  V30 1213 C 112.275 -5.30844 0.551416 0
M  V30 1214 O 112.498 -5.66858 -0.634656 0
M  V30 1215 O 111.432 -5.87848 1.29298 0
M  V30 1216 H 115.258 -2.58513 1.59388 0
M  V30 1217 H 112.843 -1.23599 0.83926 0
M  V30 1218 H 114.725 -4.20679 -0.246361 0
M  V30 1219 H 113.4 -3.13994 -0.786712 0
M  V30 1220 H 112.307 -3.42118 1.51348 0
M  V30 1221 H 113.64 -4.50914 1.97325 0
M  V30 1222 N 115.292 -0.849877 -1.32721 0
M  V30 1223 C 116.202 -0.293791 -2.32753 0
M  V30 1224 C 117.218 0.585906 -1.63839 0
M  V30 1225 O 118.394 0.487413 -1.95413 0
M  V30 1226 C 115.459 0.512752 -3.42887 0
M  V30 1227 C 114.52 -0.39252 -4.27502 0
M  V30 1228 C 113.753 0.375625 -5.32377 0
M  V30 1229 O 113.976 1.60613 -5.4732 0
M  V30 1230 O 112.91 -0.256094 -6.01355 0
M  V30 1231 H 116.736 -1.12242 -2.82197 0
M  V30 1232 H 114.321 -0.612685 -1.36259 0
M  V30 1233 H 116.203 0.970704 -4.10067 0
M  V30 1234 H 114.878 1.31826 -2.95641 0
M  V30 1235 H 113.785 -0.898547 -3.63149 0
M  V30 1236 H 115.118 -1.16309 -4.7826 0
M  V30 1237 N 116.77 1.45427 -0.607355 0
M  V30 1238 C 118.016 2.03097 -0.111035 0
M  V30 1239 C 118.371 1.46735 1.24445 0
M  V30 1240 O 117.664 0.632478 1.8086 0
M  V30 1241 C 117.858 3.57398 -0.0129263 0
M  V30 1242 C 117.687 4.28726 -1.35735 0
M  V30 1243 C 116.457 4.66659 -1.93798 0
M  V30 1244 C 118.655 4.60699 -2.28607 0
M  V30 1245 N 116.637 5.22845 -3.21723 0
M  V30 1246 C 118.008 5.17716 -3.41131 0
M  V30 1247 C 120.063 4.42638 -2.27982 0
M  V30 1248 C 118.766 5.58576 -4.53194 0
M  V30 1249 C 120.792 4.84531 -3.39093 0
M  V30 1250 C 120.154 5.4164 -4.50339 0
M  V30 1251 H 116.253 0.777476 -0.083994 0
M  V30 1252 H 118.837 1.77249 -0.805655 0
M  V30 1253 H 117.008 3.82907 0.650914 0
M  V30 1254 H 118.74 4.01722 0.490033 0
M  V30 1255 H 115.495 4.50207 -1.47007 0
M  V30 1256 H 115.919 5.55438 -3.87063 0
M  V30 1257 H 120.561 3.97798 -1.43235 0
M  V30 1258 H 118.279 6.02382 -5.38667 0
M  V30 1259 H 121.865 4.72289 -3.39757 0
M  V30 1260 H 120.745 5.73461 -5.34895 0
M  V30 1261 N 118.248 0.346503 1.53744 0
M  V30 1262 C 119.195 -0.508914 2.25119 0
M  V30 1263 C 120.165 -1.09315 1.25058 0
M  V30 1264 O 121.35 -1.12921 1.53797 0
M  V30 1265 C 118.49 -1.65246 3.02965 0
M  V30 1266 C 117.603 -1.09525 4.17886 0
M  V30 1267 C 116.738 -2.20634 4.83212 0
M  V30 1268 C 115.777 -1.62279 5.90196 0
M  V30 1269 N 114.914 -2.67143 6.49291 0
M  V30 1270 H 119.754 0.106283 2.9781 0
M  V30 1271 H 117.291 0.0642227 1.4696 0
M  V30 1272 H 119.249 -2.32574 3.4636 0
M  V30 1273 H 117.879 -2.2386 2.32565 0
M  V30 1274 H 116.931 -0.312818 3.79112 0
M  V30 1275 H 118.243 -0.628444 4.94825 0
M  V30 1276 H 117.397 -2.95821 5.29693 0
M  V30 1277 H 116.136 -2.70659 4.05703 0
M  V30 1278 H 115.141 -0.855989 5.43096 0
M  V30 1279 H 116.366 -1.13102 6.69615 0
M  V30 1280 H 114.312 -3.16417 5.74645 0
M  V30 1281 H 114.229 -2.25093 7.21713 0
M  V30 1282 H 115.497 -3.4209 7.00425 0
M  V30 1283 N 119.726 -1.57421 0.075193 0
M  V30 1284 C 120.636 -2.1642 -0.905511 0
M  V30 1285 C 121.652 -1.12828 -1.32461 0
M  V30 1286 O 122.828 -1.45109 -1.39661 0
M  V30 1287 C 119.893 -2.71693 -2.15369 0
M  V30 1288 C 118.954 -3.90171 -1.79068 0
M  V30 1289 C 118.187 -4.42798 -2.97936 0
M  V30 1290 O 118.41 -3.94416 -4.12058 0
M  V30 1291 O 117.344 -5.34085 -2.77555 0
M  V30 1292 H 121.17 -3.00588 -0.433626 0
M  V30 1293 H 118.755 -1.48664 -0.148067 0
M  V30 1294 H 120.637 -3.07104 -2.88557 0
M  V30 1295 H 119.312 -1.90582 -2.61649 0
M  V30 1296 H 118.219 -3.59606 -1.03122 0
M  V30 1297 H 119.552 -4.72584 -1.37569 0
M  V30 1298 N 121.204 0.198386 -1.56346 0
M  V30 1299 C 122.134 1.24865 -1.9731 0
M  V30 1300 C 123.115 1.47651 -0.844576 0
M  V30 1301 O 124.3 1.59444 -1.10866 0
M  V30 1302 C 121.43 2.59358 -2.30977 0
M  V30 1303 C 120.384 2.5119 -3.46537 0
M  V30 1304 C 119.71 3.89926 -3.65871 0
M  V30 1305 C 121.01 2.03977 -4.80823 0
M  V30 1306 H 122.704 0.908252 -2.85291 0
M  V30 1307 H 120.25 0.435462 -1.37258 0
M  V30 1308 H 122.203 3.33011 -2.58228 0
M  V30 1309 H 120.927 2.95132 -1.39874 0
M  V30 1310 H 119.586 1.79993 -3.19371 0
M  V30 1311 H 119.234 4.23046 -2.72105 0
M  V30 1312 H 118.934 3.85336 -4.4361 0
M  V30 1313 H 120.458 4.65205 -3.95495 0
M  V30 1314 H 121.872 2.67386 -5.07127 0
M  V30 1315 H 120.269 2.10397 -5.62008 0
M  V30 1316 H 121.339 0.992861 -4.74626 0
M  V30 1317 N 122.682 1.50554 0.465978 0
M  V30 1318 C 123.592 1.72585 1.58907 0
M  V30 1319 C 124.608 0.60911 1.6299 0
M  V30 1320 O 125.784 0.88804 1.80765 0
M  V30 1321 C 122.849 1.81995 2.95091 0
M  V30 1322 C 121.91 3.05751 3.01355 0
M  V30 1323 C 121.143 3.14702 4.31043 0
M  V30 1324 O 121.366 2.30313 5.21835 0
M  V30 1325 O 120.3 4.07468 4.43005 0
M  V30 1326 H 124.126 2.67799 1.43239 0
M  V30 1327 H 121.711 1.34711 0.646013 0
M  V30 1328 H 123.593 1.90335 3.75966 0
M  V30 1329 H 122.268 0.899659 3.10947 0
M  V30 1330 H 121.175 3.02908 2.19539 0
M  V30 1331 H 122.508 3.97375 2.90437 0
M  V30 1332 N 124.16 -0.719506 1.40217 0
M  V30 1333 C 125.388 -1.50864 1.41589 0
M  V30 1334 C 125.803 -1.88794 0.0145275 0
M  V30 1335 O 125.16 -1.55174 -0.960594 0
M  V30 1336 C 125.211 -2.78646 2.30302 0
M  V30 1337 O 124.932 -2.42321 3.64983 0
M  V30 1338 C 126.433 -3.72569 2.40224 0
M  V30 1339 H 123.653 -0.465709 0.48307 0
M  V30 1340 H 126.197 -0.88785 1.84221 0
M  V30 1341 H 124.352 -3.37019 1.91042 0
M  V30 1342 H 124.766 -3.24514 4.12057 0
M  V30 1343 H 126.24 -4.5908 3.06512 0
M  V30 1344 H 126.717 -4.15403 1.42608 0
M  V30 1345 H 127.323 -3.20109 2.80019 0
M  V30 1346 N 125.638 -1.25649 -0.95132 0
M  V30 1347 C 126.568 -1.08808 -2.06599 0
M  V30 1348 C 127.549 0.00382547 -1.701 0
M  V30 1349 O 128.734 -0.166325 -1.93486 0
M  V30 1350 C 125.864 -0.709542 -3.39975 0
M  V30 1351 C 124.818 -1.75206 -3.90496 0
M  V30 1352 C 124.144 -1.22811 -5.20405 0
M  V30 1353 C 125.444 -3.15153 -4.16504 0
M  V30 1354 H 127.138 -2.02048 -2.20946 0
M  V30 1355 H 124.684 -0.972835 -1.06169 0
M  V30 1356 H 126.637 -0.578649 -4.17408 0
M  V30 1357 H 125.361 0.258556 -3.25575 0
M  V30 1358 H 124.02 -1.87145 -3.15234 0
M  V30 1359 H 123.668 -0.250145 -5.02378 0
M  V30 1360 H 123.368 -1.92492 -5.55176 0
M  V30 1361 H 124.892 -1.10968 -6.00432 0
M  V30 1362 H 126.306 -3.06349 -4.84586 0
M  V30 1363 H 124.703 -3.82333 -4.62538 0
M  V30 1364 H 125.773 -3.61966 -3.22658 0
M  V30 1365 N 127.117 1.15442 -1.07289 0
M  V30 1366 C 128.364 1.86213 -0.795668 0
M  V30 1367 C 128.692 1.82291 0.678238 0
M  V30 1368 O 127.947 1.24057 1.51355 0
M  V30 1369 C 128.246 3.3489 -1.24834 0
M  V30 1370 C 127.912 3.59007 -2.72809 0
M  V30 1371 C 126.574 3.65298 -3.13227 0
M  V30 1372 C 128.926 3.68762 -3.68326 0
M  V30 1373 C 126.254 3.78854 -4.4798 0
M  V30 1374 C 128.606 3.83842 -5.0284 0
M  V30 1375 C 127.27 3.88378 -5.4288 0
M  V30 1376 H 126.54 0.681403 -0.291155 0
M  V30 1377 H 129.187 1.36435 -1.34379 0
M  V30 1378 H 127.492 3.8687 -0.619595 0
M  V30 1379 H 129.189 3.88052 -1.01076 0
M  V30 1380 H 125.779 3.5475 -2.40521 0
M  V30 1381 H 129.963 3.63202 -3.38227 0
M  V30 1382 H 125.219 3.80623 -4.78472 0
M  V30 1383 H 129.393 3.90332 -5.76727 0
M  V30 1384 H 127.02 3.98635 -6.47298 0
M  V30 1385 N 128.595 0.856903 1.32268 0
M  V30 1386 C 130.011 0.547061 1.49931 0
M  V30 1387 C 130.211 -0.921781 1.7918 0
M  V30 1388 O 129.267 -1.70469 1.8627 0
M  V30 1389 C 130.58 1.43599 2.64196 0
M  V30 1390 C 132.128 1.43665 2.78081 0
M  V30 1391 C 132.603 2.31085 3.95428 0
M  V30 1392 N 134.094 2.28893 4.02694 0
M  V30 1393 C 134.829 2.93262 4.92732 0
M  V30 1394 N 134.325 3.66751 5.87763 0
M  V30 1395 N 136.118 2.82638 4.85873 0
M  V30 1396 H 128.269 1.8075 1.11549 0
M  V30 1397 H 130.532 0.772144 0.549997 0
M  V30 1398 H 130.238 2.48058 2.49319 0
M  V30 1399 H 130.112 1.12502 3.60032 0
M  V30 1400 H 132.499 0.399701 2.92381 0
M  V30 1401 H 132.58 1.7878 1.82952 0
M  V30 1402 H 132.224 3.34849 3.81888 0
M  V30 1403 H 132.154 1.93302 4.89839 0
M  V30 1404 H 134.645 1.75466 3.34694 0
M  V30 1405 H 134.958 4.13027 6.53168 0
M  V30 1406 H 133.303 3.70859 5.87783 0
M  V30 1407 H 136.494 2.24774 4.10602 0
M  V30 1408 H 136.667 3.33084 5.55841 0
M  V30 1409 N 130.073 -1.45103 0.615059 0
M  V30 1410 C 131.322 -2.01396 0.110718 0
M  V30 1411 C 131.635 -1.48834 -1.26916 0
M  V30 1412 O 132.841 -1.97152 -1.86664 0
M  V30 1413 C 131.297 -3.59599 0.14723 0
M  V30 1414 C 130.905 -4.21158 1.52743 0
M  V30 1415 C 132.649 -4.23428 -0.30148 0
M  V30 1416 C 130.556 -5.71535 1.51992 0
M  V30 1417 H 129.486 -0.753061 0.0376241 0
M  V30 1418 H 132.137 -1.66494 0.77149 0
M  V30 1419 H 130.519 -3.91724 -0.580339 0
M  V30 1420 H 131.693 -4.00594 2.2773 0
M  V30 1421 H 130.008 -3.69552 1.91886 0
M  V30 1422 H 132.605 -5.33703 -0.326392 0
M  V30 1423 H 132.948 -3.94629 -1.32565 0
M  V30 1424 H 133.481 -3.96047 0.373065 0
M  V30 1425 H 130.22 -6.05044 2.52193 0
M  V30 1426 H 129.74 -5.94268 0.81274 0
M  V30 1427 H 131.419 -6.34873 1.24681 0
M  V30 1428 N 131.551 -0.354651 -1.53558 0
M  V30 1429 C 132.967 -0.00315426 -1.596 0
M  V30 1430 C 133.167 1.47741 -1.37021 0
M  V30 1431 O 132.223 2.23759 -1.16996 0
M  V30 1432 C 133.536 -0.44929 -2.97325 0
M  V30 1433 C 135.084 -0.402578 -3.104 0
M  V30 1434 C 135.559 -0.824355 -4.5052 0
M  V30 1435 N 137.05 -0.778979 -4.56603 0
M  V30 1436 C 137.785 -1.07715 -5.63192 0
M  V30 1437 N 137.281 -1.44405 -6.77583 0
M  V30 1438 N 139.074 -1.00066 -5.53121 0
M  V30 1439 H 131.225 -1.31893 -1.66487 0
M  V30 1440 H 133.488 -0.538388 -0.780284 0
M  V30 1441 H 133.194 -1.48202 -3.1895 0
M  V30 1442 H 133.068 0.169772 -3.76818 0
M  V30 1443 H 135.455 0.621004 -2.88492 0
M  V30 1444 H 135.536 -1.05699 -2.32941 0
M  V30 1445 H 135.18 -1.846 -4.73165 0
M  V30 1446 H 135.11 -0.147304 -5.26394 0
M  V30 1447 H 137.601 -0.508528 -3.74463 0
M  V30 1448 H 137.914 -1.65612 -7.54846 0
M  V30 1449 H 136.259 -1.4826 -6.79002 0
M  V30 1450 H 139.45 -0.713293 -4.62633 0
M  V30 1451 H 139.623 -1.23638 -6.36096 0
M  V30 1452 N 133.029 1.57378 -0.0835403 0
M  V30 1453 C 134.257 1.98263 0.59157 0
M  V30 1454 C 134.672 0.962302 1.62435 0
M  V30 1455 O 134.029 -0.049581 1.82433 0
M  V30 1456 C 134.08 3.39214 1.24965 0
M  V30 1457 O 133.801 4.37339 0.258186 0
M  V30 1458 C 135.302 3.95038 2.01147 0
M  V30 1459 H 132.522 0.651773 0.159477 0
M  V30 1460 H 135.066 2.03878 -0.159415 0
M  V30 1461 H 133.221 3.34649 1.95164 0
M  V30 1462 H 133.635 5.19371 0.731734 0
M  V30 1463 H 135.109 4.95848 2.42567 0
M  V30 1464 H 135.586 3.32222 2.87272 0
M  V30 1465 H 136.192 4.0304 1.35789 0
M  V30 1466 N 134.507 -0.190092 1.56449 0
M  V30 1467 C 135.756 -0.907912 1.80111 0
M  V30 1468 C 136.069 -1.84214 0.657619 0
M  V30 1469 O 137.275 -2.60094 0.778663 0
M  V30 1470 C 135.731 -1.66485 3.19078 0
M  V30 1471 C 135.339 -0.7752 4.41242 0
M  V30 1472 C 137.083 -2.37201 3.52045 0
M  V30 1473 C 134.99 -1.53129 5.71231 0
M  V30 1474 H 133.92 -0.34276 0.671589 0
M  V30 1475 H 136.571 -0.161109 1.82791 0
M  V30 1476 H 134.953 -2.45572 3.10661 0
M  V30 1477 H 136.127 -0.0226298 4.60794 0
M  V30 1478 H 134.442 -0.178627 4.16017 0
M  V30 1479 H 137.039 -2.94329 4.46402 0
M  V30 1480 H 137.382 -3.11632 2.76028 0
M  V30 1481 H 137.915 -1.65075 3.61932 0
M  V30 1482 H 134.654 -0.82967 6.50228 0
M  V30 1483 H 134.174 -2.25767 5.55688 0
M  V30 1484 H 135.853 -2.08377 6.12526 0
M  V30 1485 N 135.985 -1.50799 -0.457987 0
M  V30 1486 C 137.401 -1.38515 -0.792819 0
M  V30 1487 C 137.601 -0.451409 -1.96379 0
M  V30 1488 O 136.657 0.10112 -2.52297 0
M  V30 1489 C 137.97 -2.80149 -1.09258 0
M  V30 1490 C 139.518 -2.89156 -1.19825 0
M  V30 1491 C 139.993 -4.31651 -1.53106 0
M  V30 1492 N 141.484 -4.34662 -1.60072 0
M  V30 1493 C 142.219 -5.41928 -1.87354 0
M  V30 1494 N 141.715 -6.59384 -2.12568 0
M  V30 1495 N 143.508 -5.29385 -1.88965 0
M  V30 1496 H 135.659 -2.10073 0.313511 0
M  V30 1497 H 137.922 -0.944803 0.0777862 0
M  V30 1498 H 137.628 -3.50374 -0.305084 0
M  V30 1499 H 137.502 -3.18204 -2.02549 0
M  V30 1500 H 139.889 -2.19141 -1.97639 0
M  V30 1501 H 139.97 -2.54626 -0.244821 0
M  V30 1502 H 139.614 -5.02208 -0.758266 0
M  V30 1503 H 139.544 -4.63678 -2.49621 0
M  V30 1504 H 142.035 -3.49973 -1.42573 0
M  V30 1505 H 142.348 -7.36934 -2.32696 0
M  V30 1506 H 140.693 -6.62535 -2.09933 0
M  V30 1507 H 143.884 -4.36616 -1.68772 0
M  V30 1508 H 144.057 -6.13066 -2.09891 0
M  V30 1509 N 137.463 0.71206 -1.40597 0
M  V30 1510 C 138.688 1.50617 -1.42581 0
M  V30 1511 C 139.113 1.88079 -0.0282102 0
M  V30 1512 O 138.471 1.53511 0.964579 0
M  V30 1513 C 138.519 2.7557 -2.3258 0
M  V30 1514 O 137.623 3.72414 -1.77148 0
M  V30 1515 H 136.964 0.453966 -0.484573 0
M  V30 1516 H 139.494 0.876649 -1.84868 0
M  V30 1517 H 139.504 3.2406 -2.47889 0
M  V30 1518 H 138.179 2.47639 -3.34138 0
M  V30 1519 H 136.756 3.31276 -1.71204 0
M  V30 1520 N 138.941 1.26152 0.944643 0
M  V30 1521 C 140.188 1.11492 1.69044 0
M  V30 1522 C 140.516 -0.342366 1.91463 0
M  V30 1523 O 139.771 -1.26812 1.49054 0
M  V30 1524 C 140.07 1.82541 3.07268 0
M  V30 1525 C 139.736 3.32445 3.04616 0
M  V30 1526 C 138.398 3.73337 3.036 0
M  V30 1527 C 140.75 4.28171 2.97185 0
M  V30 1528 C 138.078 5.08348 2.92915 0
M  V30 1529 C 140.43 5.63218 2.88041 0
M  V30 1530 C 139.094 6.03426 2.85366 0
M  V30 1531 H 138.364 0.407977 0.618576 0
M  V30 1532 H 141.011 1.56551 1.10291 0
M  V30 1533 H 139.316 1.29941 3.69625 0
M  V30 1534 H 141.013 1.68642 3.63815 0
M  V30 1535 H 137.603 2.99915 3.06185 0
M  V30 1536 H 141.787 3.97563 2.97081 0
M  V30 1537 H 137.043 5.38667 2.89219 0
M  V30 1538 H 141.217 6.37078 2.81254 0
M  V30 1539 H 138.844 7.07999 2.76842 0
M  V30 1540 N 140.419 -1.14872 1.07899 0
M  V30 1541 C 141.329 -2.2341 0.715915 0
M  V30 1542 C 142.345 -1.71808 -0.275306 0
M  V30 1543 O 143.521 -2.01039 -0.120545 0
M  V30 1544 C 140.586 -3.46474 0.125168 0
M  V30 1545 C 139.647 -4.13039 1.17034 0
M  V30 1546 C 138.88 -5.30229 0.607688 0
M  V30 1547 O 139.103 -5.675 -0.574497 0
M  V30 1548 O 138.037 -5.86444 1.35526 0
M  V30 1549 H 141.863 -2.56808 1.62121 0
M  V30 1550 H 139.448 -1.22702 0.852322 0
M  V30 1551 H 141.33 -4.20917 -0.201729 0
M  V30 1552 H 140.005 -3.14811 -0.753364 0
M  V30 1553 H 138.912 -3.40493 1.54968 0
M  V30 1554 H 140.245 -4.48796 2.02097 0
M  V30 1555 N 141.898 -0.863906 -1.31812 0
M  V30 1556 C 143.146 -0.470904 -1.96537 0
M  V30 1557 C 143.467 0.978771 -1.68657 0
M  V30 1558 O 142.737 1.6853 -0.998717 0
M  V30 1559 H 141.317 -0.171148 -0.72713 0
M  V30 1560 H 143.979 -1.10236 -1.60729 0
M  V30 1561 H 143.075 -0.623616 -3.05806 0
M  V30 1562 N 143.376 1.44774 -0.622745 0
M  V30 1563 C 144.625 2.01334 -0.121397 0
M  V30 1564 C 144.938 1.49505 1.26125 0
M  V30 1565 O 146.144 1.98139 1.85616 0
M  V30 1566 C 144.6 3.59516 -0.166298 0
M  V30 1567 C 144.208 4.20342 -1.54974 0
M  V30 1568 C 145.952 4.23582 0.279021 0
M  V30 1569 C 143.859 5.70721 -1.55021 0
M  V30 1570 H 142.789 0.752851 -0.0416172 0
M  V30 1571 H 145.44 1.66083 -0.780309 0
M  V30 1572 H 143.822 3.92027 0.559557 0
M  V30 1573 H 144.996 3.99381 -2.29851 0
M  V30 1574 H 143.311 3.68529 -1.93843 0
M  V30 1575 H 145.908 5.33868 0.298083 0
M  V30 1576 H 146.251 3.95327 1.30471 0
M  V30 1577 H 146.784 3.95843 -0.394063 0
M  V30 1578 H 143.523 6.03698 -2.55399 0
M  V30 1579 H 143.043 5.93829 -0.844245 0
M  V30 1580 H 144.722 6.34203 -1.28047 0
M  V30 1581 N 144.854 0.36279 1.53368 0
M  V30 1582 C 146.27 0.0116182 1.59596 0
M  V30 1583 C 146.47 -1.47012 1.37803 0
M  V30 1584 O 145.526 -2.23136 1.18181 0
M  V30 1585 C 146.839 0.465052 2.97082 0
M  V30 1586 C 148.387 0.419033 3.10182 0
M  V30 1587 C 148.862 0.848235 4.50077 0
M  V30 1588 N 150.353 0.803183 4.56183 0
M  V30 1589 C 151.088 1.107 5.62613 0
M  V30 1590 N 150.584 1.47996 6.76808 0
M  V30 1591 N 152.377 1.02998 5.52583 0
M  V30 1592 H 144.528 1.32775 1.65785 0
M  V30 1593 H 146.791 0.542518 0.777417 0
M  V30 1594 H 146.497 1.49892 3.18159 0
M  V30 1595 H 146.371 -0.149786 3.76902 0
M  V30 1596 H 148.758 -0.605696 2.88817 0
M  V30 1597 H 148.839 1.06933 2.32377 0
M  V30 1598 H 148.483 1.87107 4.7218 0
M  V30 1599 H 148.413 0.175218 5.26308 0
M  V30 1600 H 150.904 0.52838 3.74188 0
M  V30 1601 H 151.217 1.69613 7.53957 0
M  V30 1602 H 149.562 1.51859 6.78206 0
M  V30 1603 H 152.753 0.737817 4.62249 0
M  V30 1604 H 152.926 1.2701 6.35431 0
M  V30 1605 N 146.332 -1.57332 0.0918853 0
M  V30 1606 C 147.748 -1.57389 -0.264766 0
M  V30 1607 C 147.948 -1.10281 -1.68643 0
M  V30 1608 O 147.004 -0.777801 -2.40222 0
M  V30 1609 C 148.317 -3.00648 -0.0561195 0
M  V30 1610 C 149.865 -3.12754 -0.124116 0
M  V30 1611 C 150.34 -4.57965 0.0564972 0
M  V30 1612 N 151.831 -4.632 0.00155611 0
M  V30 1613 C 152.566 -5.73281 0.116598 0
M  V30 1614 N 152.062 -6.92208 0.286294 0
M  V30 1615 N 153.855 -5.6207 0.0580973 0
M  V30 1616 H 146.006 -1.86262 1.02079 0
M  V30 1617 H 148.269 -0.859579 0.399786 0
M  V30 1618 H 147.975 -3.393 0.925669 0
M  V30 1619 H 147.849 -3.68623 -0.799823 0
M  V30 1620 H 150.236 -2.73976 -1.09641 0
M  V30 1621 H 150.317 -2.47377 0.651024 0
M  V30 1622 H 149.961 -4.97436 1.02564 0
M  V30 1623 H 149.891 -5.21399 -0.738297 0
M  V30 1624 H 152.382 -3.77686 -0.127192 0
M  V30 1625 H 152.695 -7.71934 0.365676 0
M  V30 1626 H 151.04 -6.94254 0.32192 0
M  V30 1627 H 154.231 -4.68043 -0.0733204 0
M  V30 1628 H 154.404 -6.47824 0.151203 0
M  V30 1629 N 147.81 0.181792 -1.56548 0
M  V30 1630 C 149.04 0.914618 -1.85252 0
M  V30 1631 C 149.448 1.76791 -0.673914 0
M  V30 1632 O 148.791 1.80009 0.366416 0
M  V30 1633 C 148.853 1.85019 -3.08234 0
M  V30 1634 C 148.517 1.17754 -4.41569 0
M  V30 1635 C 149.514 0.548035 -5.17003 0
M  V30 1636 C 147.199 1.17742 -4.88305 0
M  V30 1637 C 149.193 -0.0726128 -6.37359 0
M  V30 1638 C 146.88 0.552946 -6.08593 0
M  V30 1639 C 147.878 -0.070978 -6.82963 0
M  V30 1640 O 147.566 -0.685635 -8.00971 0
M  V30 1641 H 147.298 0.271695 -0.618998 0
M  V30 1642 H 149.852 0.189944 -2.0452 0
M  V30 1643 H 148.082 2.61491 -2.84885 0
M  V30 1644 H 149.771 2.45195 -3.23472 0
M  V30 1645 H 150.537 0.540174 -4.81982 0
M  V30 1646 H 146.416 1.65246 -4.30366 0
M  V30 1647 H 149.96 -0.560213 -6.95347 0
M  V30 1648 H 145.857 0.558354 -6.43081 0
M  V30 1649 H 146.625 -0.58385 -8.16415 0
M  V30 1650 N 149.288 1.51039 0.449983 0
M  V30 1651 C 150.251 1.70863 1.5277 0
M  V30 1652 C 151.251 0.578846 1.5002 0
M  V30 1653 O 152.441 0.846213 1.52266 0
M  V30 1654 C 149.573 1.75341 2.9235 0
M  V30 1655 H 150.766 2.67034 1.36502 0
M  V30 1656 H 148.319 1.40838 0.677812 0
M  V30 1657 H 149.054 0.809383 3.14037 0
M  V30 1658 H 148.839 2.57436 2.95752 0
M  V30 1659 H 150.329 1.92559 3.70555 0
M  V30 1660 N 150.766 -0.704594 1.40972 0
M  V30 1661 C 151.716 -1.81051 1.38581 0
M  V30 1662 C 152.7 -1.58759 0.261585 0
M  V30 1663 O 153.892 -1.69745 0.501556 0
M  V30 1664 C 151.021 -3.19279 1.26157 0
M  V30 1665 C 150.107 -3.47296 2.43405 0
M  V30 1666 N 150.498 -3.46064 3.68881 0
M  V30 1667 C 148.796 -3.77804 2.37023 0
M  V30 1668 C 149.497 -3.72733 4.46592 0
M  V30 1669 N 148.473 -3.9203 3.76581 0
M  V30 1670 H 152.275 -1.78448 2.33525 0
M  V30 1671 H 149.789 -0.904198 1.349 0
M  V30 1672 H 151.786 -3.98488 1.22526 0
M  V30 1673 H 150.446 -3.231 0.321902 0
M  V30 1674 H 151.457 -3.26656 4.01891 0
M  V30 1675 H 148.134 -3.8905 1.51481 0
M  V30 1676 H 149.524 -3.77993 5.55492 0
M  V30 1677 N 152.244 -1.26651 -0.937939 0
M  V30 1678 C 153.154 -1.10276 -2.07066 0
M  V30 1679 C 154.17 -0.0354197 -1.73964 0
M  V30 1680 O 155.346 -0.239816 -1.99967 0
M  V30 1681 C 152.411 -0.740887 -3.38691 0
M  V30 1682 C 151.472 -1.88799 -3.85556 0
M  V30 1683 C 150.705 -1.54329 -5.10899 0
M  V30 1684 O 150.928 -0.446494 -5.6865 0
M  V30 1685 O 149.862 -2.37911 -5.52885 0
M  V30 1686 H 153.688 -2.05309 -2.23789 0
M  V30 1687 H 151.273 -1.05743 -1.0554 0
M  V30 1688 H 153.155 -0.55195 -4.1777 0
M  V30 1689 H 151.83 0.180022 -3.23199 0
M  V30 1690 H 150.737 -2.13191 -3.07409 0
M  V30 1691 H 152.07 -2.78874 -4.05574 0
M  V30 1692 N 153.722 1.14298 -1.08507 0
M  V30 1693 C 154.652 2.21542 -0.737646 0
M  V30 1694 C 155.633 1.67773 0.280377 0
M  V30 1695 O 156.818 1.93616 0.150521 0
M  V30 1696 C 153.948 3.46988 -0.147259 0
M  V30 1697 C 152.902 4.13789 -1.09374 0
M  V30 1698 C 152.228 5.33449 -0.365524 0
M  V30 1699 C 153.528 4.62208 -2.4323 0
M  V30 1700 H 155.222 2.5086 -1.6343 0
M  V30 1701 H 152.768 1.20576 -0.787243 0
M  V30 1702 H 154.721 4.21262 0.107808 0
M  V30 1703 H 153.445 3.17037 0.784538 0
M  V30 1704 H 152.104 3.4147 -1.33393 0
M  V30 1705 H 151.752 4.99759 0.57011 0
M  V30 1706 H 151.452 5.79088 -0.996512 0
M  V30 1707 H 152.976 6.10485 -0.118534 0
M  V30 1708 H 154.39 5.27952 -2.23472 0
M  V30 1709 H 152.787 5.18553 -3.02031 0
M  V30 1710 H 153.857 3.77224 -3.04681 0
M  V30 1711 N 155.201 0.870884 1.31352 0
M  V30 1712 C 156.133 0.28455 2.27427 0
M  V30 1713 C 157.146 -0.552927 1.53123 0
M  V30 1714 O 158.335 -0.374771 1.74521 0
M  V30 1715 C 155.435 -0.615164 3.3327 0
M  V30 1716 C 154.608 0.190079 4.36987 0
M  V30 1717 C 153.667 -0.637917 5.22319 0
M  V30 1718 O 152.693 -0.065626 5.69162 0
M  V30 1719 N 153.895 -1.94973 5.46778 0
M  V30 1720 H 156.66 1.11017 2.7838 0
M  V30 1721 H 154.221 0.732458 1.44384 0
M  V30 1722 H 156.213 -1.1748 3.87273 0
M  V30 1723 H 154.783 -1.34146 2.82354 0
M  V30 1724 H 154.003 0.931165 3.83044 0
M  V30 1725 H 155.291 0.742579 5.03352 0
M  V30 1726 H 154.689 -2.4378 5.10478 0
M  V30 1727 H 153.246 -2.45713 6.03712 0
M  V30 1728 N 156.679 -1.44442 0.630414 0
M  V30 1729 C 157.926 -2.02052 0.134617 0
M  V30 1730 C 158.254 -1.49576 -1.24327 0
M  V30 1731 O 157.509 -0.669806 -1.83881 0
M  V30 1732 C 157.808 -3.57332 0.0697835 0
M  V30 1733 C 157.474 -4.29058 1.38635 0
M  V30 1734 C 156.136 -4.4837 1.74694 0
M  V30 1735 C 158.488 -4.69872 2.25543 0
M  V30 1736 C 155.816 -5.05756 2.97369 0
M  V30 1737 C 158.168 -5.28616 3.47487 0
M  V30 1738 C 156.832 -5.46147 3.8377 0
M  V30 1739 H 156.102 -0.739361 0.0492598 0
M  V30 1740 H 158.749 -1.73217 0.816586 0
M  V30 1741 H 157.054 -3.85577 -0.695553 0
M  V30 1742 H 158.751 -3.99637 -0.330344 0
M  V30 1743 H 155.341 -4.14357 1.09574 0
M  V30 1744 H 159.525 -4.54666 1.98979 0
M  V30 1745 H 154.781 -5.17515 3.25558 0
M  V30 1746 H 158.955 -5.59192 4.15063 0
M  V30 1747 H 156.582 -5.9038 4.7891 0
M  V30 1748 N 158.157 -0.370918 -1.53173 0
M  V30 1749 C 159.067 0.480823 -2.2962 0
M  V30 1750 C 160.083 1.08789 -1.35798 0
M  V30 1751 O 161.259 1.09768 -1.68858 0
M  V30 1752 C 158.324 1.60227 -3.07454 0
M  V30 1753 C 157.385 1.0222 -4.16953 0
M  V30 1754 C 156.618 2.0902 -4.91066 0
M  V30 1755 O 156.841 3.30222 -4.65091 0
M  V30 1756 O 155.775 1.71778 -5.76867 0
M  V30 1757 H 159.601 -0.141421 -3.03371 0
M  V30 1758 H 157.186 -0.135146 -1.48787 0
M  V30 1759 H 159.068 2.25417 -3.56041 0
M  V30 1760 H 157.743 2.20982 -2.36535 0
M  V30 1761 H 156.65 0.334064 -3.72605 0
M  V30 1762 H 157.983 0.459131 -4.90054 0
M  V30 1763 N 159.635 1.57281 -0.100228 0
M  V30 1764 C 160.865 1.98591 0.569681 0
M  V30 1765 C 161.273 0.978315 1.61943 0
M  V30 1766 O 160.616 -0.0396108 1.83657 0
M  V30 1767 C 160.678 3.36282 1.271 0
M  V30 1768 C 160.342 4.55488 0.371409 0
M  V30 1769 C 161.339 5.18491 -0.382504 0
M  V30 1770 C 159.024 5.01474 0.287965 0
M  V30 1771 C 161.018 6.25852 -1.20779 0
M  V30 1772 C 158.705 6.08701 -0.540965 0
M  V30 1773 C 159.703 6.70755 -1.28749 0
M  V30 1774 O 159.391 7.75914 -2.10269 0
M  V30 1775 H 159.123 0.65752 0.156982 0
M  V30 1776 H 161.677 2.0463 -0.177734 0
M  V30 1777 H 159.907 3.26941 2.0651 0
M  V30 1778 H 161.596 3.62005 1.83595 0
M  V30 1779 H 162.362 4.83891 -0.3278 0
M  V30 1780 H 158.241 4.52932 0.858689 0
M  V30 1781 H 161.785 6.74218 -1.79096 0
M  V30 1782 H 157.682 6.42732 -0.597131 0
M  V30 1783 H 158.45 7.92925 -2.03007 0
M  V30 1784 N 161.113 -0.173488 1.56642 0
M  V30 1785 C 162.524 -0.736155 1.71574 0
M  V30 1786 C 162.875 -1.82888 0.710389 0
M  V30 1787 O 162 -2.16017 -0.1287 0
M  V30 1788 C 162.595 -1.34211 3.11083 0
M  V30 1789 C 161.154 -1.85162 3.27707 0
M  V30 1790 C 160.301 -0.729765 2.67525 0
M  V30 1791 H 163.252 0.0518786 1.58615 0
M  V30 1792 H 163.273 -2.21178 3.09613 0
M  V30 1793 H 162.785 -0.546579 3.84232 0
M  V30 1794 H 160.886 -2.67366 2.59512 0
M  V30 1795 H 160.999 -1.99855 4.35425 0
M  V30 1796 H 159.363 -1.14965 2.27278 0
M  V30 1797 H 160.146 0.0538806 3.43258 0
M  V30 1798 N 162.591 -1.51276 -0.441967 0
M  V30 1799 C 163.838 -1.63715 -1.19179 0
M  V30 1800 C 164.166 -0.351175 -1.91303 0
M  V30 1801 O 163.421 0.664524 -1.84072 0
M  V30 1802 C 163.72 -2.78746 -2.23686 0
M  V30 1803 C 163.386 -4.18189 -1.68607 0
M  V30 1804 C 162.048 -4.56125 -1.53308 0
M  V30 1805 C 164.4 -5.05222 -1.28062 0
M  V30 1806 C 161.728 -5.78804 -0.959317 0
M  V30 1807 C 164.08 -6.28476 -0.721162 0
M  V30 1808 C 162.744 -6.65188 -0.55504 0
M  V30 1809 H 162.014 -0.599076 -0.436106 0
M  V30 1810 H 164.661 -1.85296 -0.48351 0
M  V30 1811 H 162.966 -2.51369 -3.00535 0
M  V30 1812 H 164.663 -2.8557 -2.81515 0
M  V30 1813 H 161.253 -3.88277 -1.8149 0
M  V30 1814 H 165.437 -4.76524 -1.38704 0
M  V30 1815 H 160.693 -6.05899 -0.81833 0
M  V30 1816 H 164.867 -6.95259 -0.398458 0
M  V30 1817 H 162.494 -7.60123 -0.108311 0
M  V30 1818 N 164.069 0.697108 -1.41344 0
M  V30 1819 C 164.979 1.84088 -1.45427 0
M  V30 1820 C 165.995 1.70545 -0.34501 0
M  V30 1821 O 167.171 1.92488 -0.592492 0
M  V30 1822 C 164.236 3.20056 -1.33286 0
M  V30 1823 C 163.297 3.45718 -2.54514 0
M  V30 1824 C 162.53 4.75199 -2.42944 0
M  V30 1825 O 162.753 5.51579 -1.45318 0
M  V30 1826 O 161.687 5.0161 -3.32672 0
M  V30 1827 H 165.513 1.836 -2.41919 0
M  V30 1828 H 163.098 0.849966 -1.22866 0
M  V30 1829 H 164.98 4.01236 -1.28794 0
M  V30 1830 H 163.655 3.2123 -0.39909 0
M  V30 1831 H 162.562 2.64474 -2.64583 0
M  V30 1832 H 163.895 3.49356 -3.46715 0
M  V30 1833 N 165.547 1.27147 0.931209 0
M  V30 1834 C 166.796 1.12664 1.67302 0
M  V30 1835 C 167.109 -0.327718 1.92835 0
M  V30 1836 O 168.315 -0.593392 2.64936 0
M  V30 1837 C 166.771 1.9683 3.01307 0
M  V30 1838 C 166.379 3.46901 2.83485 0
M  V30 1839 C 168.123 1.90985 3.79111 0
M  V30 1840 C 166.03 4.23279 4.13024 0
M  V30 1841 H 164.96 0.41803 0.627509 0
M  V30 1842 H 167.611 1.51539 1.03481 0
M  V30 1843 H 165.993 1.50797 3.66164 0
M  V30 1844 H 167.167 4.00773 2.27415 0
M  V30 1845 H 165.482 3.54088 2.19113 0
M  V30 1846 H 168.079 2.45328 4.75098 0
M  V30 1847 H 168.422 0.882718 4.06834 0
M  V30 1848 H 168.955 2.34895 3.21044 0
M  V30 1849 H 165.694 5.26503 3.90481 0
M  V30 1850 H 165.214 3.74186 4.6877 0
M  V30 1851 H 166.893 4.32265 4.81411 0
M  V30 1852 N 167.025 -1.13721 1.09112 0
M  V30 1853 C 167.957 -2.1871 0.685467 0
M  V30 1854 C 168.97 -1.60527 -0.271068 0
M  V30 1855 O 170.159 -1.78407 -0.0576148 0
M  V30 1856 C 167.259 -3.38898 -0.0111255 0
M  V30 1857 C 166.432 -4.26597 0.966131 0
M  V30 1858 C 165.491 -5.25324 0.303539 0
M  V30 1859 O 164.517 -5.61213 0.950177 0
M  V30 1860 N 165.719 -5.72779 -0.943651 0
M  V30 1861 H 168.484 -2.54126 1.58871 0
M  V30 1862 H 166.045 -1.29012 0.978143 0
M  V30 1863 H 168.037 -4.02014 -0.465517 0
M  V30 1864 H 166.607 -3.01747 -0.816565 0
M  V30 1865 H 165.827 -3.60306 1.59917 0
M  V30 1866 H 167.115 -4.82048 1.6281 0
M  V30 1867 H 166.513 -5.45762 -1.48862 0
M  V30 1868 H 165.07 -6.37847 -1.34142 0
M  V30 1869 N 168.503 -0.877838 -1.30888 0
M  V30 1870 C 169.749 -0.493426 -1.96706 0
M  V30 1871 C 170.082 0.953504 -1.6918 0
M  V30 1872 O 169.357 1.67266 -0.992594 0
M  V30 1873 C 169.64 -0.760429 -3.51979 0
M  V30 1874 C 169.493 -2.25747 -3.89048 0
M  V30 1875 C 170.812 -0.232148 -4.39487 0
M  V30 1876 H 167.931 -0.180746 -0.714493 0
M  V30 1877 H 170.573 -1.10052 -1.54882 0
M  V30 1878 H 168.723 -0.243715 -3.87735 0
M  V30 1879 H 170.395 -2.84204 -3.63354 0
M  V30 1880 H 168.638 -2.72694 -3.37373 0
M  V30 1881 H 169.309 -2.39491 -4.97341 0
M  V30 1882 H 171.785 -0.674314 -4.106 0
M  V30 1883 H 170.661 -0.448355 -5.47066 0
M  V30 1884 H 170.922 0.866297 -4.33529 0
M  V30 1885 N 169.982 1.44106 -0.638065 0
M  V30 1886 C 171.21 2.06336 -0.152615 0
M  V30 1887 C 171.625 1.47731 1.17563 0
M  V30 1888 O 170.982 0.602806 1.72257 0
M  V30 1889 C 171.033 3.61479 -0.0391491 0
M  V30 1890 O 170.754 4.17903 -1.31487 0
M  V30 1891 C 172.255 4.40757 0.474176 0
M  V30 1892 H 169.475 0.665862 -0.0828776 0
M  V30 1893 H 172.019 1.84862 -0.87443 0
M  V30 1894 H 170.174 3.82191 0.633142 0
M  V30 1895 H 170.588 5.11416 -1.16421 0
M  V30 1896 H 172.062 5.49707 0.502562 0
M  V30 1897 H 172.539 4.12697 1.50258 0
M  V30 1898 H 173.145 4.24979 -0.165102 0
M  V30 1899 N 171.46 0.379036 1.52974 0
M  V30 1900 C 172.708 -0.206014 2.01047 0
M  V30 1901 C 173.029 -1.48175 1.26765 0
M  V30 1902 O 172.299 -1.92085 0.384743 0
M  V30 1903 H 170.879 -0.0791184 0.742798 0
M  V30 1904 H 173.541 0.508366 1.88153 0
M  V30 1905 H 172.637 -0.423501 3.09213 0
M  V30 1906 N 172.938 -1.57226 0.108567 0
M  V30 1907 C 174.186 -1.94448 -0.550853 0
M  V30 1908 C 174.507 -0.992074 -1.67878 0
M  V30 1909 O 173.777 -0.0465 -1.95845 0
M  V30 1910 H 172.357 -0.717897 -0.206479 0
M  V30 1911 H 175.019 -1.94112 0.175062 0
M  V30 1912 H 174.115 -2.97218 -0.952259 0
M  V30 1913 N 174.416 0.165178 -1.56732 0
M  V30 1914 C 175.656 0.887231 -1.8414 0
M  V30 1915 C 176.02 1.79159 -0.690353 0
M  V30 1916 O 177.221 2.55172 -0.845032 0
M  V30 1917 C 175.492 1.65674 -3.16681 0
M  V30 1918 S 177.051 2.42671 -3.6559 0
M  V30 1919 H 173.869 0.297042 -0.645978 0
M  V30 1920 H 176.471 0.148439 -1.94936 0
M  V30 1921 H 175.175 0.983507 -3.98441 0
M  V30 1922 H 174.706 2.43679 -3.08843 0
M  V30 1923 H 176.721 3.67499 -3.33406 0
M  V30 1924 N 175.894 1.51508 0.433938 0
M  V30 1925 C 176.804 1.75917 1.5521 0
M  V30 1926 C 177.82 0.643545 1.61662 0
M  V30 1927 O 178.996 0.926183 1.7884 0
M  V30 1928 C 176.061 1.88213 2.91164 0
M  V30 1929 C 175.122 3.12074 2.94802 0
M  V30 1930 C 174.355 3.23774 4.24271 0
M  V30 1931 O 174.578 2.4133 5.16833 0
M  V30 1932 O 173.512 4.16774 4.34262 0
M  V30 1933 H 177.338 2.70777 1.37527 0
M  V30 1934 H 174.923 1.36051 0.617293 0
M  V30 1935 H 176.805 1.98267 3.71845 0
M  V30 1936 H 175.48 0.965413 3.08968 0
M  V30 1937 H 174.387 3.07497 2.13065 0
M  V30 1938 H 175.72 4.03446 2.81943 0
M  V30 1939 N 177.372 -0.689602 1.41712 0
M  V30 1940 C 178.302 -1.81577 1.46806 0
M  V30 1941 C 179.283 -1.66945 0.326105 0
M  V30 1942 O 180.468 -1.86588 0.538377 0
M  V30 1943 C 177.598 -3.19762 1.35535 0
M  V30 1944 C 176.552 -3.49107 2.47605 0
M  V30 1945 C 175.878 -4.86711 2.21397 0
M  V30 1946 C 177.178 -3.47483 3.89939 0
M  V30 1947 H 178.872 -1.7757 2.41058 0
M  V30 1948 H 176.418 -0.852887 1.16025 0
M  V30 1949 H 178.371 -3.98263 1.3771 0
M  V30 1950 H 177.095 -3.24409 0.377708 0
M  V30 1951 H 175.754 -2.72959 2.44722 0
M  V30 1952 H 175.402 -4.8799 1.21961 0
M  V30 1953 H 175.102 -5.0731 2.96497 0
M  V30 1954 H 176.626 -5.67515 2.25297 0
M  V30 1955 H 178.04 -4.1598 3.94505 0
M  V30 1956 H 176.437 -3.79615 4.64771 0
M  V30 1957 H 177.507 -2.46341 4.17665 0
M  V30 1958 N 178.85 -1.27639 -0.924453 0
M  V30 1959 C 179.8 -1.07295 -2.01176 0
M  V30 1960 C 180.784 5.77352e-05 -1.609 0
M  V30 1961 O 181.976 -0.218855 -1.75642 0
M  V30 1962 C 179.105 -0.725592 -3.35544 0
M  V30 1963 C 178.191 -1.83691 -3.82254 0
M  V30 1964 N 178.582 -3.07697 -4.01443 0
M  V30 1965 C 176.88 -1.72433 -4.11319 0
M  V30 1966 C 177.581 -3.80037 -4.40394 0
M  V30 1967 N 176.557 -3.0782 -4.48049 0
M  V30 1968 H 180.359 -2.01399 -2.14046 0
M  V30 1969 H 177.873 -1.18401 -1.11153 0
M  V30 1970 H 179.87 -0.560959 -4.13109 0
M  V30 1971 H 178.53 0.207782 -3.24034 0
M  V30 1972 H 179.541 -3.43424 -3.8766 0
M  V30 1973 H 176.218 -0.862005 -4.08504 0
M  V30 1974 H 177.608 -4.86632 -4.63291 0
M  V30 1975 N 180.328 1.1314 -1.09713 0
M  V30 1976 C 181.553 1.88862 -0.857081 0
M  V30 1977 C 181.978 1.78729 0.586304 0
M  V30 1978 O 181.336 1.13692 1.41222 0
M  V30 1979 C 181.384 3.36325 -1.30069 0
M  V30 1980 O 180.488 4.09815 -0.461007 0
M  V30 1981 H 179.829 0.587108 -0.310162 0
M  V30 1982 H 182.359 1.43129 -1.46203 0
M  V30 1983 H 182.369 3.87157 -1.28738 0
M  V30 1984 H 181.044 3.43017 -2.35185 0
M  V30 1985 H 179.621 3.68986 -0.538888 0
M  V30 1986 N 181.806 0.884767 1.30421 0
M  V30 1987 C 183.054 0.502112 1.95763 0
M  V30 1988 C 183.375 -0.951815 1.70192 0
M  V30 1989 O 182.645 -1.6692 1.0254 0
M  V30 1990 H 181.225 0.182694 0.724315 0
M  V30 1991 H 183.887 1.1278 1.58955 0
M  V30 1992 H 182.983 0.672188 3.04775 0
M  V30 1993 N 183.284 -1.43765 0.645699 0
M  V30 1994 C 184.231 -2.30745 -0.0504648 0
M  V30 1995 C 185.201 -1.4432 -0.822241 0
M  V30 1996 O 186.386 -1.73202 -0.800358 0
M  V30 1997 C 183.526 -3.29802 -1.0161 0
M  V30 1998 C 182.639 -4.31326 -0.241219 0
M  V30 1999 C 181.774 -5.17469 -1.19998 0
M  V30 2000 C 180.813 -6.10691 -0.415094 0
M  V30 2001 N 179.95 -6.89483 -1.32506 0
M  V30 2002 H 184.79 -2.8973 0.697155 0
M  V30 2003 H 182.327 -1.42738 0.355563 0
M  V30 2004 H 184.285 -3.85734 -1.58949 0
M  V30 2005 H 182.915 -2.72483 -1.73069 0
M  V30 2006 H 181.967 -3.77749 0.448334 0
M  V30 2007 H 183.279 -4.9743 0.369437 0
M  V30 2008 H 182.433 -5.7799 -1.84424 0
M  V30 2009 H 181.172 -4.51473 -1.84455 0
M  V30 2010 H 180.177 -5.49265 0.242565 0
M  V30 2011 H 181.402 -6.78727 0.224966 0
M  V30 2012 H 179.348 -6.26142 -1.95657 0
M  V30 2013 H 179.265 -7.52081 -0.768783 0
M  V30 2014 H 180.533 -7.54516 -1.9577 0
M  V30 2015 N 184.763 -0.387143 -1.52771 0
M  V30 2016 C 186.009 0.196025 -2.0185 0
M  V30 2017 C 186.342 1.46641 -1.27319 0
M  V30 2018 O 185.617 1.90889 -0.373032 0
M  V30 2019 C 185.9 0.466136 -3.5707 0
M  V30 2020 C 185.753 -0.819385 -4.42274 0
M  V30 2021 C 187.072 1.25768 -4.21747 0
M  V30 2022 H 184.191 0.0697708 -0.73369 0
M  V30 2023 H 186.833 -0.516286 -1.82851 0
M  V30 2024 H 184.983 1.07293 -3.7339 0
M  V30 2025 H 186.655 -1.4563 -4.37709 0
M  V30 2026 H 184.898 -1.43517 -4.09372 0
M  V30 2027 H 185.569 -0.585065 -5.48891 0
M  V30 2028 H 188.045 0.744167 -4.09391 0
M  V30 2029 H 186.921 1.41541 -5.30337 0
M  V30 2030 H 187.182 2.27228 -3.79236 0
M  V30 2031 N 186.241 1.57166 -0.116904 0
M  V30 2032 C 187.466 1.999 0.55271 0
M  V30 2033 C 187.891 0.996039 1.59564 0
M  V30 2034 O 187.249 -0.032556 1.81271 0
M  V30 2035 C 187.297 3.4152 1.15742 0
M  V30 2036 O 186.401 3.44106 2.27299 0
M  V30 2037 H 185.742 0.649447 0.138258 0
M  V30 2038 H 188.272 2.03573 -0.204759 0
M  V30 2039 H 188.282 3.79684 1.49346 0
M  V30 2040 H 186.957 4.14034 0.393493 0
M  V30 2041 H 185.534 3.17759 1.9515 0
M  V30 2042 N 187.719 -0.156864 1.56817 0
M  V30 2043 C 188.967 -0.869404 1.82444 0
M  V30 2044 C 189.288 -1.82147 0.69623 0
M  V30 2045 O 188.558 -1.93847 -0.28287 0
M  V30 2046 H 187.138 -0.324043 0.673056 0
M  V30 2047 H 189.8 -0.153224 1.94297 0
M  V30 2048 H 188.896 -1.43761 2.77019 0
M  V30 2049 N 189.197 -1.51736 -0.425897 0
M  V30 2050 C 190.422 -1.69082 -1.20108 0
M  V30 2051 C 190.847 -0.392398 -1.83962 0
M  V30 2052 O 190.205 0.64858 -1.69302 0
M  V30 2053 C 190.253 -2.81604 -2.25237 0
M  V30 2054 O 189.357 -2.46004 -3.30992 0
M  V30 2055 H 188.698 -0.563408 -0.35138 0
M  V30 2056 H 191.228 -1.98358 -0.501512 0
M  V30 2057 H 191.238 -3.06025 -2.69838 0
M  V30 2058 H 189.913 -3.75817 -1.78142 0
M  V30 2059 H 188.49 -2.32195 -2.91787 0
M  V30 2060 N 190.675 0.682077 -1.42076 0
M  V30 2061 C 191.922 1.44215 -1.42156 0
M  V30 2062 C 192.25 1.94468 -0.0354186 0
M  V30 2063 O 191.505 1.70816 0.955002 0
M  V30 2064 C 191.804 2.66036 -2.38662 0
M  V30 2065 C 191.47 2.34366 -3.85206 0
M  V30 2066 C 190.132 2.25439 -4.25124 0
M  V30 2067 C 192.484 2.08513 -4.77673 0
M  V30 2068 C 189.812 1.88775 -5.55501 0
M  V30 2069 C 192.164 1.73354 -6.08384 0
M  V30 2070 C 190.828 1.62933 -6.47309 0
M  V30 2071 H 190.098 0.527718 -0.520187 0
M  V30 2072 H 192.745 0.778387 -1.74967 0
M  V30 2073 H 191.05 3.3741 -1.99152 0
M  V30 2074 H 192.747 3.24205 -2.35991 0
M  V30 2075 H 189.337 2.42213 -3.53597 0
M  V30 2076 H 193.521 2.14346 -4.47626 0
M  V30 2077 H 188.777 1.7927 -5.84527 0
M  V30 2078 H 192.951 1.52373 -6.79526 0
M  V30 2079 H 190.578 1.34292 -7.48244 0
M  V30 2080 N 192.153 1.28127 0.917671 0
M  V30 2081 C 193.083 1.14248 2.03641 0
M  V30 2082 C 194.064 0.0412748 1.7005 0
M  V30 2083 O 195.249 0.217566 1.92977 0
M  V30 2084 C 192.379 0.799431 3.37974 0
M  V30 2085 C 191.333 1.85497 3.85713 0
M  V30 2086 C 190.659 1.36565 5.16966 0
M  V30 2087 C 191.959 3.26085 4.08002 0
M  V30 2088 H 193.653 2.07835 2.15511 0
M  V30 2089 H 191.199 1.00064 1.03553 0
M  V30 2090 H 193.152 0.689114 4.15727 0
M  V30 2091 H 191.876 -0.172145 3.26146 0
M  V30 2092 H 190.535 1.95437 3.10161 0
M  V30 2093 H 190.183 0.383253 5.01538 0
M  V30 2094 H 189.883 2.07143 5.49878 0
M  V30 2095 H 191.407 1.26848 5.97279 0
M  V30 2096 H 192.821 3.19089 4.76293 0
M  V30 2097 H 191.218 3.94462 4.52238 0
M  V30 2098 H 192.288 3.70394 3.12948 0
M  V30 2099 N 193.631 -1.12557 1.10312 0
M  V30 2100 C 194.563 -2.17971 0.708625 0
M  V30 2101 C 195.576 -1.60806 -0.254027 0
M  V30 2102 O 196.765 -1.78458 -0.0386891 0
M  V30 2103 C 193.865 -3.38891 0.0248198 0
M  V30 2104 C 193.038 -4.25548 1.01132 0
M  V30 2105 C 192.097 -5.24972 0.35924 0
M  V30 2106 O 191.123 -5.60174 1.00965 0
M  V30 2107 N 192.325 -5.73747 -0.882847 0
M  V30 2108 H 195.09 -2.52427 1.61557 0
M  V30 2109 H 192.651 -1.27967 0.991771 0
M  V30 2110 H 194.643 -4.02485 -0.422852 0
M  V30 2111 H 193.213 -3.02596 -0.784514 0
M  V30 2112 H 192.433 -3.58589 1.6373 0
M  V30 2113 H 193.721 -4.80294 1.67914 0
M  V30 2114 H 193.119 -5.4731 -1.43065 0
M  V30 2115 H 191.676 -6.39234 -1.27369 0
M  V30 2116 N 195.109 -0.891671 -1.2995 0
M  V30 2117 C 196.039 -0.379797 -2.30391 0
M  V30 2118 C 197.02 0.540919 -1.6127 0
M  V30 2119 O 198.205 0.453352 -1.88834 0
M  V30 2120 C 195.335 0.400654 -3.44981 0
M  V30 2121 C 194.289 -0.428905 -4.25846 0
M  V30 2122 C 193.615 0.478557 -5.32554 0
M  V30 2123 C 194.915 -1.67458 -4.94727 0
M  V30 2124 H 196.609 -1.21914 -2.73454 0
M  V30 2125 H 194.155 -0.587675 -1.31462 0
M  V30 2126 H 196.108 0.769434 -4.14316 0
M  V30 2127 H 194.832 1.27371 -3.0074 0
M  V30 2128 H 193.491 -0.779911 -3.58208 0
M  V30 2129 H 193.139 1.34951 -4.84559 0
M  V30 2130 H 192.839 -0.0727433 -5.87555 0
M  V30 2131 H 194.363 0.843705 -6.04743 0
M  V30 2132 H 195.777 -1.376 -5.56542 0
M  V30 2133 H 194.174 -2.16659 -5.59624 0
M  V30 2134 H 195.244 -2.41518 -4.20473 0
M  V30 2135 N 196.587 1.43421 -0.653314 0
M  V30 2136 C 197.55 2.29182 0.0287951 0
M  V30 2137 C 198.55 1.42213 0.750465 0
M  V30 2138 O 199.74 1.63843 0.591701 0
M  V30 2139 C 196.872 3.24278 1.05151 0
M  V30 2140 H 198.065 2.90985 -0.725786 0
M  V30 2141 H 195.618 1.50702 -0.414545 0
M  V30 2142 H 196.353 2.6737 1.83532 0
M  V30 2143 H 196.138 3.88396 0.537687 0
M  V30 2144 H 197.628 3.88647 1.52786 0
M  V30 2145 N 198.065 0.39524 1.52563 0
M  V30 2146 C 199.295 -0.184675 2.05773 0
M  V30 2147 C 199.703 -1.40571 1.26635 0
M  V30 2148 O 199.046 -1.81105 0.30769 0
M  V30 2149 C 199.108 -0.613551 3.54226 0
M  V30 2150 C 198.772 0.49484 4.54313 0
M  V30 2151 C 199.769 1.3541 5.01956 0
M  V30 2152 C 197.454 0.663565 4.97898 0
M  V30 2153 C 199.448 2.36716 5.91814 0
M  V30 2154 C 197.135 1.67996 5.87555 0
M  V30 2155 C 198.133 2.53017 6.34406 0
M  V30 2156 O 197.821 3.52917 7.22291 0
M  V30 2157 H 197.553 -0.030077 0.675331 0
M  V30 2158 H 200.107 0.560708 1.97599 0
M  V30 2159 H 198.337 -1.411 3.60038 0
M  V30 2160 H 200.026 -1.11981 3.90148 0
M  V30 2161 H 200.792 1.23509 4.6901 0
M  V30 2162 H 196.671 0.0114913 4.60999 0
M  V30 2163 H 200.215 3.03113 6.28306 0
M  V30 2164 H 196.112 1.79933 6.19915 0
M  V30 2165 H 196.88 3.48996 7.40367 0
M  V30 2166 N 199.544 -1.57102 0.125237 0
M  V30 2167 C 200.476 -2.12726 -0.853237 0
M  V30 2168 C 201.489 -1.07145 -1.22571 0
M  V30 2169 O 202.678 -1.34497 -1.17358 0
M  V30 2170 C 199.778 -2.61709 -2.15317 0
M  V30 2171 C 198.951 -3.91456 -1.95143 0
M  V30 2172 C 198.01 -4.25973 -3.08923 0
M  V30 2173 O 197.036 -4.94682 -2.81564 0
M  V30 2174 N 198.238 -3.83795 -4.35524 0
M  V30 2175 H 201.003 -2.97307 -0.377964 0
M  V30 2176 H 198.564 -1.61792 -0.0590011 0
M  V30 2177 H 200.556 -2.81826 -2.90441 0
M  V30 2178 H 199.126 -1.81974 -2.54174 0
M  V30 2179 H 198.346 -3.80185 -1.04177 0
M  V30 2180 H 199.634 -4.76283 -1.78976 0
M  V30 2181 H 199.032 -3.2839 -4.60626 0
M  V30 2182 H 197.589 -4.09008 -5.07499 0
M  V30 2183 N 201.022 0.148545 -1.56898 0
M  V30 2184 C 202.27 0.859717 -1.82902 0
M  V30 2185 C 202.591 1.81775 -0.70588 0
M  V30 2186 O 201.861 1.93994 0.272586 0
M  V30 2187 H 200.441 0.320469 -0.674766 0
M  V30 2188 H 203.103 0.142918 -1.94375 0
M  V30 2189 H 202.199 1.4229 -2.77777 0
M  V30 2190 N 202.5 1.5196 0.417844 0
M  V30 2191 C 203.725 1.69717 1.1921 0
M  V30 2192 C 204.15 0.402148 1.83751 0
M  V30 2193 O 203.508 -0.639593 1.69643 0
M  V30 2194 C 203.556 2.82794 2.2374 0
M  V30 2195 O 202.66 2.47756 3.29683 0
M  V30 2196 H 202.001 0.565263 0.348387 0
M  V30 2197 H 204.531 1.98621 0.490985 0
M  V30 2198 H 204.541 3.07452 2.68212 0
M  V30 2199 H 203.216 3.76756 1.76146 0
M  V30 2200 H 201.793 2.33739 2.90552 0
M  V30 2201 N 203.978 -0.674533 1.42435 0
M  V30 2202 C 205.255 -1.4305 1.33402 0
M  V30 2203 C 205.635 -2.11081 -0.0284674 0
M  V30 2204 O 204.983 -2.03257 -1.04397 0
M  V30 2205 C 205.193 -2.43272 2.50239 0
M  V30 2206 C 206.541 -3.07907 2.92367 0
M  V30 2207 O 207.565 -2.53599 2.50132 0
M  V30 2208 O 206.424 -4.0632 3.65467 0
M  V30 2209 H 203.518 -0.638076 0.526106 0
M  V30 2210 H 206.064 -0.703235 1.54443 0
M  V30 2211 H 204.836 -1.91803 3.41068 0
M  V30 2212 H 204.459 -3.23479 2.31186 0
M  V30 2213 N 205.456 -1.28612 -0.910864 0
M  V30 2214 C 206.703 -1.15934 -1.66029 0
M  V30 2215 C 207.031 0.291483 -1.92303 0
M  V30 2216 O 206.286 1.22816 -1.52364 0
M  V30 2217 C 206.585 -1.90624 -3.0232 0
M  V30 2218 C 206.251 -3.40405 -2.95695 0
M  V30 2219 C 204.913 -3.81255 -2.93595 0
M  V30 2220 C 207.265 -4.359 -2.85728 0
M  V30 2221 C 204.593 -5.15936 -2.79334 0
M  V30 2222 C 206.945 -5.70657 -2.73007 0
M  V30 2223 C 205.609 -6.10779 -2.69267 0
M  V30 2224 H 204.879 -0.424234 -0.607541 0
M  V30 2225 H 207.526 -1.5942 -1.06101 0
M  V30 2226 H 205.831 -1.39696 -3.6605 0
M  V30 2227 H 207.528 -1.78228 -3.59215 0
M  V30 2228 H 204.118 -3.07927 -2.98125 0
M  V30 2229 H 208.302 -4.053 -2.86436 0
M  V30 2230 H 203.558 -5.46146 -2.74835 0
M  V30 2231 H 207.732 -6.44311 -2.64264 0
M  V30 2232 H 205.359 -7.1509 -2.57974 0
M  V30 2233 N 206.934 1.1197 -1.10907 0
M  V30 2234 C 208.18 1.8386 -0.855773 0
M  V30 2235 C 208.513 1.84134 0.617103 0
M  V30 2236 O 207.788 1.29041 1.45529 0
M  V30 2237 C 208.071 3.31305 -1.411 0
M  V30 2238 C 207.924 3.39456 -2.9511 0
M  V30 2239 C 209.243 4.2721 -1.05736 0
M  V30 2240 H 206.362 0.667545 -0.312334 0
M  V30 2241 H 209.004 1.31331 -1.37303 0
M  V30 2242 H 207.154 3.76169 -0.97105 0
M  V30 2243 H 208.826 3.03191 -3.47668 0
M  V30 2244 H 207.069 2.79849 -3.31462 0
M  V30 2245 H 207.74 4.43209 -3.29044 0
M  V30 2246 H 210.216 3.90497 -1.43706 0
M  V30 2247 H 209.092 5.28775 -1.47269 0
M  V30 2248 H 209.353 4.42088 0.0325958 0
M  V30 2249 N 208.412 0.89855 1.29475 0
M  V30 2250 C 209.637 0.538561 2.00285 0
M  V30 2251 C 210.062 -0.869135 1.66816 0
M  V30 2252 O 209.42 -1.57831 0.892145 0
M  V30 2253 C 209.468 0.736475 3.52999 0
M  V30 2254 O 208.572 -0.211537 4.11857 0
M  V30 2255 H 207.913 0.210563 0.62973 0
M  V30 2256 H 210.443 1.20982 1.64998 0
M  V30 2257 H 210.453 0.640685 4.02938 0
M  V30 2258 H 209.128 1.76276 3.76696 0
M  V30 2259 H 207.705 -0.0682991 3.72837 0
M  V30 2260 N 209.89 -1.43072 0.660911 0
M  V30 2261 C 211.137 -2.01721 0.177445 0
M  V30 2262 C 211.465 -1.5218 -1.21126 0
M  V30 2263 O 210.72 -0.708659 -1.82419 0
M  V30 2264 C 211.019 -3.57103 0.145563 0
M  V30 2265 C 210.685 -4.26021 1.47705 0
M  V30 2266 C 209.347 -4.44563 1.84165 0
M  V30 2267 C 211.699 -4.64983 2.35458 0
M  V30 2268 C 209.027 -4.99334 3.0803 0
M  V30 2269 C 211.379 -5.21127 3.58622 0
M  V30 2270 C 210.043 -5.37884 3.95268 0
M  V30 2271 H 209.313 -0.73815 0.0649317 0
M  V30 2272 H 211.96 -1.71446 0.853144 0
M  V30 2273 H 210.265 -3.86965 -0.61361 0
M  V30 2274 H 211.962 -4.00248 -0.2455 0
M  V30 2275 H 208.552 -4.11939 1.18339 0
M  V30 2276 H 212.736 -4.50343 2.08579 0
M  V30 2277 H 207.992 -5.10493 3.36462 0
M  V30 2278 H 212.166 -5.50262 4.26831 0
M  V30 2279 H 209.793 -5.80089 4.91325 0
M  V30 2280 N 211.368 -0.403325 -1.52352 0
M  V30 2281 C 212.3 0.4603 -2.2453 0
M  V30 2282 C 213.313 1.01505 -1.27282 0
M  V30 2283 O 214.502 0.914982 -1.53266 0
M  V30 2284 C 211.602 1.65208 -2.95905 0
M  V30 2285 C 210.775 1.22224 -4.19976 0
M  V30 2286 C 209.834 2.28028 -4.74226 0
M  V30 2287 O 208.86 1.88857 -5.36956 0
M  V30 2288 N 210.062 3.6012 -4.55295 0
M  V30 2289 H 212.827 -0.158156 -2.99282 0
M  V30 2290 H 210.388 -0.230402 -1.60252 0
M  V30 2291 H 212.38 2.35541 -3.29093 0
M  V30 2292 H 210.95 2.17658 -2.24374 0
M  V30 2293 H 210.17 0.34725 -3.92668 0
M  V30 2294 H 211.458 0.911924 -5.00561 0
M  V30 2295 H 210.856 3.94698 -4.05253 0
M  V30 2296 H 209.413 4.26447 -4.92936 0
M  V30 2297 N 212.846 1.57033 -0.133567 0
M  V30 2298 C 213.794 2.17348 0.828412 0
M  V30 2299 C 214.788 1.12671 1.26498 0
M  V30 2300 O 215.994 1.30947 1.23502 0
M  V30 2301 H 212.369 0.695775 0.285309 0
M  V30 2302 H 214.34 2.96935 0.295372 0
M  V30 2303 C 213.089 2.79893 2.06289 0
M  V30 2304 H 212.412 3.60147 1.73592 0
M  V30 2305 H 213.852 3.25615 2.71572 0
M  V30 2306 C 212.311 1.77713 2.86216 0
M  V30 2307 O 212.841 1.23937 3.82103 0
M  V30 2308 N 211.047 1.47321 2.50489 0
M  V30 2309 H 210.594 1.91243 1.7258 0
M  V30 2310 H 210.552 0.79199 3.04261 0
M  V30 2311 N 214.325 -0.140222 1.56975 0
M  V30 2312 C 215.273 -1.19207 1.99731 0
M  V30 2313 C 216.267 -1.44089 0.890777 0
M  V30 2314 O 217.473 -1.44301 1.07597 0
M  V30 2315 H 213.848 -0.40142 0.635898 0
M  V30 2316 H 215.819 -0.804813 2.87342 0
M  V30 2317 C 214.568 -2.51617 2.39967 0
M  V30 2318 H 213.891 -2.33303 3.24669 0
M  V30 2319 H 215.331 -3.23827 2.73701 0
M  V30 2320 C 213.79 -3.12654 1.25496 0
M  V30 2321 O 214.32 -3.97786 0.559371 0
M  V30 2322 N 212.526 -2.72206 1.01746 0
M  V30 2323 H 212.073 -2.03074 1.58489 0
M  V30 2324 H 212.031 -3.13377 0.253461 0
M  V30 2325 N 215.803 -1.52179 -0.40978 0
M  V30 2326 C 217.028 -1.70347 -1.18308 0
M  V30 2327 C 217.453 -0.411887 -1.83535 0
M  V30 2328 O 216.811 0.630587 -1.6998 0
M  V30 2329 C 216.859 -2.83977 -2.22238 0
M  V30 2330 O 215.963 -2.495 -3.28365 0
M  V30 2331 H 215.304 -0.567103 -0.345384 0
M  V30 2332 H 217.834 -1.98879 -0.480445 0
M  V30 2333 H 217.844 -3.0887 -2.66577 0
M  V30 2334 H 216.519 -3.77685 -1.74146 0
M  V30 2335 H 215.096 -2.35277 -2.89308 0
M  V30 2336 N 217.281 0.66697 -1.42791 0
M  V30 2337 C 218.527 1.42754 -1.44889 0
M  V30 2338 C 218.882 1.92283 -0.0669755 0
M  V30 2339 O 218.175 1.68494 0.912154 0
M  V30 2340 C 218.369 2.6349 -2.4147 0
M  V30 2341 C 218.198 2.25776 -3.88915 0
M  V30 2342 C 216.968 2.1476 -4.57391 0
M  V30 2343 C 219.166 1.86927 -4.79127 0
M  V30 2344 N 217.148 1.70232 -5.89826 0
M  V30 2345 C 218.519 1.53378 -6.00729 0
M  V30 2346 C 220.574 1.73989 -4.66511 0
M  V30 2347 C 219.277 1.08187 -7.11117 0
M  V30 2348 C 221.303 1.30203 -5.76889 0
M  V30 2349 C 220.665 0.975818 -6.97608 0
M  V30 2350 H 216.764 0.518559 -0.585338 0
M  V30 2351 H 219.348 0.768906 -1.78874 0
M  V30 2352 H 217.519 3.27033 -2.09533 0
M  V30 2353 H 219.251 3.30123 -2.34096 0
M  V30 2354 H 216.006 2.3408 -4.11708 0
M  V30 2355 H 216.43 1.50369 -6.6009 0
M  V30 2356 H 221.072 1.97853 -3.7365 0
M  V30 2357 H 218.79 0.830701 -8.03819 0
M  V30 2358 H 222.376 1.20701 -5.69142 0
M  V30 2359 H 221.256 0.642157 -7.81566 0
M  V30 2360 N 218.759 1.29093 0.90403 0
M  V30 2361 C 219.689 1.16401 2.02418 0
M  V30 2362 C 220.67 0.0593085 1.69997 0
M  V30 2363 O 221.855 0.238021 1.92736 0
M  V30 2364 C 218.985 0.835233 3.37107 0
M  V30 2365 C 217.939 1.89578 3.83724 0
M  V30 2366 C 217.265 1.42041 5.15489 0
M  V30 2367 C 218.565 3.30394 4.04521 0
M  V30 2368 H 220.259 2.10109 2.13295 0
M  V30 2369 H 217.805 1.01157 1.02486 0
M  V30 2370 H 219.758 0.733169 4.14973 0
M  V30 2371 H 218.482 -0.137543 3.2631 0
M  V30 2372 H 217.141 1.98715 3.08071 0
M  V30 2373 H 216.789 0.436426 5.01103 0
M  V30 2374 H 216.489 2.12964 5.4765 0
M  V30 2375 H 218.013 1.33176 5.959 0
M  V30 2376 H 219.427 3.24123 4.72882 0
M  V30 2377 H 217.824 3.99237 4.48029 0
M  V30 2378 H 218.894 3.73692 3.09002 0
M  V30 2379 N 220.237 -1.11381 1.11499 0
M  V30 2380 C 221.648 -1.6465 0.880191 0
M  V30 2381 C 221.999 -1.87199 -0.587434 0
M  V30 2382 O 221.124 -1.60667 -1.44966 0
M  V30 2383 C 221.719 -2.99105 1.59128 0
M  V30 2384 C 220.278 -3.49279 1.40289 0
M  V30 2385 C 219.425 -2.24077 1.63354 0
M  V30 2386 H 222.376 -0.950123 1.27116 0
M  V30 2387 H 222.397 -3.66107 1.03664 0
M  V30 2388 H 221.909 -2.82661 2.65941 0
M  V30 2389 H 220.01 -3.70887 0.356888 0
M  V30 2390 H 220.123 -4.2803 2.15238 0
M  V30 2391 H 218.487 -2.31733 1.05698 0
M  V30 2392 H 219.27 -2.10175 2.71443 0
M  V30 2393 N 221.715 -0.905404 -1.28997 0
M  V30 2394 C 222.945 -0.549049 -1.99171 0
M  V30 2395 C 223.353 0.87203 -1.67906 0
M  V30 2396 O 222.696 1.58796 -0.923561 0
M  V30 2397 C 222.758 -0.668306 -3.53234 0
M  V30 2398 C 222.422 -2.0574 -4.08069 0
M  V30 2399 C 223.419 -3.0292 -4.22534 0
M  V30 2400 C 221.104 -2.36833 -4.42962 0
M  V30 2401 C 223.098 -4.29314 -4.71135 0
M  V30 2402 C 220.785 -3.63467 -4.91258 0
M  V30 2403 C 221.783 -4.59522 -5.053 0
M  V30 2404 O 221.471 -5.83907 -5.52546 0
M  V30 2405 H 221.203 -0.208784 -0.64295 0
M  V30 2406 H 223.757 -1.21836 -1.65363 0
M  V30 2407 H 221.987 0.0580547 -3.86656 0
M  V30 2408 H 223.676 -0.320273 -4.04634 0
M  V30 2409 H 224.442 -2.80216 -3.95859 0
M  V30 2410 H 220.321 -1.62824 -4.31288 0
M  V30 2411 H 223.865 -5.04293 -4.8201 0
M  V30 2412 H 219.762 -3.86 -5.17372 0
M  V30 2413 H 220.53 -5.86578 -5.70849 0
M  V30 2414 N 223.193 1.4272 -0.668489 0
M  V30 2415 C 224.604 1.84793 -0.266151 0
M  V30 2416 C 224.955 1.55959 1.19043 0
M  V30 2417 O 224.08 1.01622 1.91055 0
M  V30 2418 C 224.675 3.35436 -0.476271 0
M  V30 2419 C 223.234 3.76182 -0.128113 0
M  V30 2420 C 222.381 2.66344 -0.771777 0
M  V30 2421 H 225.332 1.32656 -0.871098 0
M  V30 2422 H 225.353 3.79515 0.273561 0
M  V30 2423 H 224.865 3.5639 -1.53647 0
M  V30 2424 H 222.966 3.60836 0.928891 0
M  V30 2425 H 223.079 4.75766 -0.564231 0
M  V30 2426 H 221.443 2.53885 -0.203652 0
M  V30 2427 H 222.226 2.90123 -1.83531 0
M  V30 2428 N 224.671 0.411399 1.52136 0
M  V30 2429 C 225.917 -0.163888 2.02137 0
M  V30 2430 C 226.25 -1.44597 1.29636 0
M  V30 2431 O 225.525 -1.90272 0.403353 0
M  V30 2432 C 225.808 -0.40927 3.57767 0
M  V30 2433 C 225.661 0.889643 4.40914 0
M  V30 2434 C 226.98 -1.19042 4.23694 0
M  V30 2435 H 224.099 -0.0580896 0.734707 0
M  V30 2436 H 226.741 0.54531 1.82007 0
M  V30 2437 H 224.891 -1.0134 3.7505 0
M  V30 2438 H 226.563 1.52575 4.35337 0
M  V30 2439 H 224.806 1.50011 4.07037 0
M  V30 2440 H 225.477 0.672314 5.4789 0
M  V30 2441 H 227.953 -0.678942 4.10524 0
M  V30 2442 H 226.829 -1.33086 5.32522 0
M  V30 2443 H 227.09 -2.21166 3.82803 0
M  V30 2444 N 226.149 -1.5696 0.141893 0
M  V30 2445 C 227.112 -2.15316 -0.785587 0
M  V30 2446 C 228.112 -1.09366 -1.1788 0
M  V30 2447 O 229.302 -1.35031 -1.10056 0
M  V30 2448 C 226.434 -2.71211 -2.06537 0
M  V30 2449 H 227.627 -2.98608 -0.278041 0
M  V30 2450 H 225.18 -1.5593 -0.107519 0
M  V30 2451 H 225.915 -1.91571 -2.6167 0
M  V30 2452 H 225.7 -3.4872 -1.79268 0
M  V30 2453 H 227.19 -3.16189 -2.72789 0
M  V30 2454 N 227.627 0.131896 -1.57047 0
M  V30 2455 C 228.875 0.840269 -1.83804 0
M  V30 2456 C 229.196 1.81017 -0.72512 0
M  V30 2457 O 228.466 1.94272 0.251995 0
M  V30 2458 H 227.046 0.313294 -0.678127 0
M  V30 2459 H 229.708 0.122294 -1.94516 0
M  V30 2460 H 228.804 1.39335 -2.79271 0
M  V30 2461 N 229.106 1.52395 0.401703 0
M  V30 2462 C 230.054 1.7689 1.51039 0
M  V30 2463 C 231.048 0.636298 1.56996 0
M  V30 2464 O 232.254 0.818507 1.60314 0
M  V30 2465 H 228.629 0.559502 0.502456 0
M  V30 2466 H 230.6 2.69757 1.27568 0
M  V30 2467 C 229.349 1.94331 2.88324 0
M  V30 2468 H 228.672 2.80905 2.84486 0
M  V30 2469 H 230.112 2.15466 3.65172 0
M  V30 2470 C 228.571 0.712396 3.29282 0
M  V30 2471 O 229.101 -0.116218 4.01532 0
M  V30 2472 N 227.307 0.546154 2.85422 0
M  V30 2473 H 226.854 1.22156 2.26794 0
M  V30 2474 H 226.812 -0.276113 3.13185 0
M  V30 2475 N 230.584 -0.659388 1.43143 0
M  V30 2476 C 231.517 -1.78425 1.42267 0
M  V30 2477 C 232.495 -1.60085 0.284894 0
M  V30 2478 O 233.679 -1.82351 0.477527 0
M  V30 2479 C 230.806 -3.15642 1.22833 0
M  V30 2480 C 229.852 -3.52698 2.39806 0
M  V30 2481 S 230.685 -3.53372 4.02353 0
M  V30 2482 C 231.841 -4.93256 3.85291 0
M  V30 2483 H 232.074 -1.78897 2.37452 0
M  V30 2484 H 229.607 -0.831469 1.301 0
M  V30 2485 H 231.565 -3.94838 1.12308 0
M  V30 2486 H 230.226 -3.12739 0.29207 0
M  V30 2487 H 229.419 -4.52475 2.21996 0
M  V30 2488 H 229.021 -2.80899 2.46925 0
M  V30 2489 H 231.313 -5.81751 3.47235 0
M  V30 2490 H 232.256 -5.16115 4.84799 0
M  V30 2491 H 232.664 -4.665 3.17865 0
M  V30 2492 N 232.062 -1.29571 -0.897171 0
M  V30 2493 C 233.025 -1.14913 -1.98312 0
M  V30 2494 C 234.025 -0.0838629 -1.60581 0
M  V30 2495 O 235.215 -0.331006 -1.71026 0
M  V30 2496 C 232.347 -0.757835 -3.3237 0
M  V30 2497 H 233.54 -2.11377 -2.12743 0
M  V30 2498 H 231.093 -1.12793 -1.08201 0
M  V30 2499 H 231.828 0.206837 -3.2364 0
M  V30 2500 H 231.613 -1.52755 -3.61121 0
M  V30 2501 H 233.103 -0.678408 -4.12053 0
M  V30 2502 N 233.54 1.10788 -1.12088 0
M  V30 2503 C 234.487 2.17025 -0.785407 0
M  V30 2504 C 235.457 1.64265 0.246191 0
M  V30 2505 O 236.642 1.90412 0.121584 0
M  V30 2506 C 233.782 3.44249 -0.242177 0
M  V30 2507 C 232.895 4.1098 -1.33115 0
M  V30 2508 C 232.03 5.25911 -0.747741 0
M  V30 2509 C 231.069 5.84538 -1.81609 0
M  V30 2510 N 230.206 6.90853 -1.25167 0
M  V30 2511 H 235.046 2.45066 -1.69548 0
M  V30 2512 H 232.583 1.20297 -0.846582 0
M  V30 2513 H 234.541 4.17101 0.0908026 0
M  V30 2514 H 233.171 3.16571 0.631072 0
M  V30 2515 H 232.223 3.36133 -1.78097 0
M  V30 2516 H 233.535 4.50601 -2.13917 0
M  V30 2517 H 232.689 6.056 -0.365216 0
M  V30 2518 H 231.428 4.87614 0.0915188 0
M  V30 2519 H 230.433 5.03522 -2.20785 0
M  V30 2520 H 231.658 6.249 -2.6585 0
M  V30 2521 H 229.604 6.54562 -0.434174 0
M  V30 2522 H 229.521 7.29166 -1.99633 0
M  V30 2523 H 230.789 7.7433 -0.896259 0
M  V30 2524 N 235.018 0.912232 1.28515 0
M  V30 2525 C 235.968 0.370649 2.24967 0
M  V30 2526 C 236.952 -0.516375 1.52389 0
M  V30 2527 O 238.144 -0.356345 1.73376 0
M  V30 2528 C 235.273 -0.389526 3.41083 0
M  V30 2529 C 234.359 0.51313 4.20984 0
M  V30 2530 N 234.75 1.62604 4.78951 0
M  V30 2531 C 233.048 0.313235 4.44899 0
M  V30 2532 C 233.749 2.18619 5.39055 0
M  V30 2533 N 232.725 1.47765 5.23132 0
M  V30 2534 H 236.527 1.22061 2.67354 0
M  V30 2535 H 234.041 0.764712 1.43269 0
M  V30 2536 H 236.038 -0.794353 4.09262 0
M  V30 2537 H 234.698 -1.2366 3.0023 0
M  V30 2538 H 235.709 2.00864 4.77362 0
M  V30 2539 H 232.386 -0.494452 4.14562 0
M  V30 2540 H 233.776 3.12228 5.94948 0
M  V30 2541 N 236.496 -1.42363 0.676048 0
M  V30 2542 C 237.743 -2.01522 0.19883 0
M  V30 2543 C 238.071 -1.53456 -1.19505 0
M  V30 2544 O 237.326 -0.727967 -1.81657 0
M  V30 2545 C 237.625 -3.56929 0.183431 0
M  V30 2546 C 237.291 -4.24431 1.52215 0
M  V30 2547 C 235.953 -4.42585 1.8887 0
M  V30 2548 C 238.305 -4.62459 2.40377 0
M  V30 2549 C 235.633 -4.96039 3.13309 0
M  V30 2550 C 237.985 -5.17294 3.64129 0
M  V30 2551 C 236.649 -5.33661 4.00951 0
M  V30 2552 H 235.919 -0.737419 0.0727571 0
M  V30 2553 H 238.566 -1.70531 0.871281 0
M  V30 2554 H 236.871 -3.87594 -0.572532 0
M  V30 2555 H 238.568 -4.00486 -0.203035 0
M  V30 2556 H 235.158 -4.10661 1.22701 0
M  V30 2557 H 239.342 -4.48105 2.13343 0
M  V30 2558 H 234.598 -5.06896 3.41857 0
M  V30 2559 H 238.772 -5.45704 4.32644 0
M  V30 2560 H 236.399 -5.74845 4.9745 0
M  V30 2561 N 237.974 -0.419461 -1.51915 0
M  V30 2562 C 239.214 0.152336 -2.03832 0
M  V30 2563 C 239.578 1.41501 -1.29775 0
M  V30 2564 O 240.779 2.06591 -1.7197 0
M  V30 2565 C 239.05 0.383812 -3.55333 0
M  V30 2566 S 240.609 0.921577 -4.29013 0
M  V30 2567 H 237.427 0.0402193 -0.709862 0
M  V30 2568 H 240.029 -0.574758 -1.8686 0
M  V30 2569 H 238.733 -0.541794 -4.06808 0
M  V30 2570 H 238.264 1.13849 -3.76566 0
M  V30 2571 H 240.279 2.20108 -4.4471 0
M  V30 2572 N 239.452 1.56882 -0.150215 0
M  V30 2573 C 240.399 2.16922 0.788244 0
M  V30 2574 C 241.369 1.10303 1.24187 0
M  V30 2575 O 242.554 1.38359 1.31383 0
M  V30 2576 C 239.694 2.79754 2.02068 0
M  V30 2577 C 238.807 4.00775 1.61257 0
M  V30 2578 C 237.942 4.51595 2.79705 0
M  V30 2579 C 236.981 5.65074 2.35282 0
M  V30 2580 N 236.118 6.10499 3.4675 0
M  V30 2581 H 240.958 2.96779 0.269444 0
M  V30 2582 H 238.495 1.46599 0.12128 0
M  V30 2583 H 240.453 3.14329 2.74323 0
M  V30 2584 H 239.083 2.02536 2.51354 0
M  V30 2585 H 238.135 3.72158 0.787553 0
M  V30 2586 H 239.447 4.82978 1.24633 0
M  V30 2587 H 238.601 4.88242 3.60145 0
M  V30 2588 H 237.34 3.68406 3.19576 0
M  V30 2589 H 236.345 5.28 1.53283 0
M  V30 2590 H 237.57 6.50052 1.96493 0
M  V30 2591 H 235.516 5.30243 3.86236 0
M  V30 2592 H 235.433 6.87637 3.14152 0
M  V30 2593 H 236.701 6.51791 4.27537 0
M  V30 2594 N 240.93 -0.123565 1.57115 0
M  V30 2595 C 242.176 -0.833386 1.84885 0
M  V30 2596 C 242.509 -1.79742 0.735292 0
M  V30 2597 O 241.784 -1.92764 -0.25925 0
M  V30 2598 C 242.067 -1.5873 3.23228 0
M  V30 2599 C 241.92 -0.643183 4.45178 0
M  V30 2600 C 243.239 -2.54453 3.59085 0
M  V30 2601 H 240.358 -0.301518 0.6725 0
M  V30 2602 H 243 -0.097778 1.89748 0
M  V30 2603 H 241.15 -2.21438 3.19214 0
M  V30 2604 H 242.822 -0.0253015 4.61293 0
M  V30 2605 H 241.065 0.0456139 4.33776 0
M  V30 2606 H 241.736 -1.20724 5.38637 0
M  V30 2607 H 244.212 -2.01853 3.63861 0
M  V30 2608 H 243.088 -3.04238 4.5687 0
M  V30 2609 H 243.349 -3.36906 2.86264 0
M  V30 2610 N 242.408 -1.52605 -0.393616 0
M  V30 2611 C 243.338 -1.80022 -1.48709 0
M  V30 2612 C 244.319 -0.651995 -1.57108 0
M  V30 2613 O 245.504 -0.89913 -1.72132 0
M  V30 2614 C 242.634 -1.96492 -2.86371 0
M  V30 2615 C 241.588 -3.12161 -2.92813 0
M  V30 2616 C 240.914 -3.13877 -4.3288 0
M  V30 2617 C 242.214 -4.51322 -2.6288 0
M  V30 2618 H 243.908 -2.71589 -1.26015 0
M  V30 2619 H 241.454 -1.30684 -0.604778 0
M  V30 2620 H 243.407 -2.14255 -3.62867 0
M  V30 2621 H 242.131 -1.01611 -3.10391 0
M  V30 2622 H 240.79 -2.94173 -2.18764 0
M  V30 2623 H 240.438 -2.16687 -4.53933 0
M  V30 2624 H 240.138 -3.91576 -4.38112 0
M  V30 2625 H 241.662 -3.33789 -5.1129 0
M  V30 2626 H 243.076 -4.69435 -3.29096 0
M  V30 2627 H 241.473 -5.31053 -2.79468 0
M  V30 2628 H 242.543 -4.58353 -1.58242 0
M  V30 2629 N 243.887 0.651787 -1.4349 0
M  V30 2630 C 244.835 1.78586 -1.49029 0
M  V30 2631 C 245.829 1.65448 -0.363767 0
M  V30 2632 O 247.035 1.71777 -0.537821 0
M  V30 2633 H 243.41 0.589236 -0.467231 0
M  V30 2634 H 245.381 1.71035 -2.44519 0
M  V30 2635 C 244.13 3.16851 -1.43181 0
M  V30 2636 H 243.453 3.27598 -2.29171 0
M  V30 2637 H 244.893 3.96156 -1.51118 0
M  V30 2638 C 243.352 3.36568 -0.149616 0
M  V30 2639 O 243.882 3.93885 0.788509 0
M  V30 2640 N 242.088 2.90539 -0.0593484 0
M  V30 2641 H 241.635 2.4408 -0.823575 0
M  V30 2642 H 241.593 3.04108 0.797853 0
M  V30 2643 N 245.365 1.30045 0.890287 0
M  V30 2644 C 246.297 1.11786 2.00091 0
M  V30 2645 C 247.31 0.0626307 1.62679 0
M  V30 2646 O 248.499 0.308112 1.75821 0
M  V30 2647 C 245.599 0.681527 3.31977 0
M  V30 2648 C 244.772 1.81735 3.97858 0
M  V30 2649 C 243.831 1.37045 5.08041 0
M  V30 2650 O 242.857 2.07677 5.29961 0
M  V30 2651 N 244.059 0.246525 5.79976 0
M  V30 2652 H 246.824 2.07441 2.16306 0
M  V30 2653 H 244.385 1.2211 1.06305 0
M  V30 2654 H 246.377 0.365675 4.03045 0
M  V30 2655 H 244.947 -0.182828 3.12065 0
M  V30 2656 H 244.167 2.30159 3.20032 0
M  V30 2657 H 245.455 2.57865 4.38615 0
M  V30 2658 H 244.853 -0.34215 5.64664 0
M  V30 2659 H 243.41 -0.00990438 6.51799 0
M  V30 2660 N 246.843 -1.10192 1.12674 0
M  V30 2661 C 247.791 -2.18694 0.792196 0
M  V30 2662 C 248.785 -1.67938 -0.222058 0
M  V30 2663 O 249.991 -1.79822 -0.0800074 0
M  V30 2664 H 246.366 -0.713223 0.238364 0
M  V30 2665 H 248.337 -2.44149 1.71564 0
M  V30 2666 C 247.086 -3.46682 0.265859 0
M  V30 2667 H 246.409 -3.86101 1.03761 0
M  V30 2668 H 247.849 -4.23942 0.0701128 0
M  V30 2669 C 246.308 -3.21506 -1.00675 0
M  V30 2670 O 246.838 -3.43408 -2.08408 0
M  V30 2671 N 245.044 -2.75158 -0.934692 0
M  V30 2672 H 244.591 -2.57535 -0.0578604 0
M  V30 2673 H 244.549 -2.58691 -1.7868 0
M  V30 2674 N 248.321 -0.919034 -1.28029 0
M  V30 2675 C 249.253 -0.368762 -2.26214 0
M  V30 2676 C 250.266 0.495716 -1.55069 0
M  V30 2677 O 251.455 0.30974 -1.75792 0
M  V30 2678 C 248.555 0.491049 -3.35324 0
M  V30 2679 C 247.728 -0.352133 -4.3598 0
M  V30 2680 C 246.787 0.443622 -5.24327 0
M  V30 2681 O 245.813 -0.14566 -5.69014 0
M  V30 2682 N 247.015 1.74545 -5.53637 0
M  V30 2683 H 249.78 -1.21273 -2.74068 0
M  V30 2684 H 247.341 -0.785541 -1.41566 0
M  V30 2685 H 249.333 1.03026 -3.91366 0
M  V30 2686 H 247.903 1.23574 -2.87138 0
M  V30 2687 H 247.123 -1.07269 -3.79324 0
M  V30 2688 H 248.411 -0.928883 -5.00249 0
M  V30 2689 H 247.809 2.24666 -5.19174 0
M  V30 2690 H 246.366 2.23138 -6.12416 0
M  V30 2691 N 249.799 1.42003 -0.683588 0
M  V30 2692 C 250.749 2.27997 0.0121992 0
M  V30 2693 C 251.733 1.4156 0.764822 0
M  V30 2694 O 252.925 1.64935 0.642287 0
M  V30 2695 C 250.054 3.29706 0.956482 0
M  V30 2696 C 249.14 4.23625 0.200739 0
M  V30 2697 N 249.531 4.99448 -0.799087 0
M  V30 2698 C 247.829 4.43845 0.437937 0
M  V30 2699 C 248.53 5.68102 -1.25041 0
M  V30 2700 N 247.506 5.40511 -0.578648 0
M  V30 2701 H 251.308 2.84048 -0.754564 0
M  V30 2702 H 248.822 1.54071 -0.513398 0
M  V30 2703 H 250.819 3.90124 1.47 0
M  V30 2704 H 249.479 2.75216 1.72297 0
M  V30 2705 H 250.49 5.04303 -1.17893 0
M  V30 2706 H 247.167 4.00382 1.18325 0
M  V30 2707 H 248.557 6.38913 -2.07942 0
M  V30 2708 N 251.277 0.427512 1.51691 0
M  V30 2709 C 252.187 -0.39527 2.31246 0
M  V30 2710 C 253.203 -1.03674 1.39742 0
M  V30 2711 O 254.379 -1.03425 1.72816 0
M  V30 2712 C 251.444 -1.48706 3.13189 0
M  V30 2713 C 250.505 -0.866743 4.20459 0
M  V30 2714 C 249.738 -1.90651 4.98486 0
M  V30 2715 O 249.961 -3.12733 4.77026 0
M  V30 2716 O 248.895 -1.5025 5.82845 0
M  V30 2717 H 252.721 0.253918 3.02637 0
M  V30 2718 H 250.306 0.190274 1.48183 0
M  V30 2719 H 252.188 -2.12047 3.64162 0
M  V30 2720 H 250.863 -2.12051 2.44573 0
M  V30 2721 H 249.77 -0.195544 3.73589 0
M  V30 2722 H 251.103 -0.276934 4.9142 0
M  V30 2723 N 252.755 -1.56801 0.158532 0
M  V30 2724 C 253.703 -2.18638 -0.793729 0
M  V30 2725 C 254.697 -1.14669 -1.24689 0
M  V30 2726 O 255.903 -1.32895 -1.21403 0
M  V30 2727 H 252.278 -0.700226 -0.274204 0
M  V30 2728 H 254.249 -2.97367 -0.248095 0
M  V30 2729 C 252.998 -2.83139 -2.0181 0
M  V30 2730 H 252.321 -3.62863 -1.67841 0
M  V30 2731 H 253.761 -3.29894 -2.66357 0
M  V30 2732 C 252.22 -1.82244 -2.83353 0
M  V30 2733 O 252.75 -1.3 -3.80083 0
M  V30 2734 N 250.956 -1.51288 -2.48114 0
M  V30 2735 H 250.503 -1.93964 -1.69516 0
M  V30 2736 H 250.461 -0.840296 -3.02963 0
M  V30 2737 N 254.233 0.115231 -1.57178 0
M  V30 2738 C 255.51 0.852873 -1.76027 0
M  V30 2739 C 255.89 1.97892 -0.73498 0
M  V30 2740 O 255.238 2.27232 0.24036 0
M  V30 2741 C 255.448 1.36608 -3.21153 0
M  V30 2742 C 256.796 1.81692 -3.83762 0
M  V30 2743 O 257.82 1.46278 -3.24779 0
M  V30 2744 O 256.679 2.47104 -4.87444 0
M  V30 2745 H 253.773 0.405296 -0.720877 0
M  V30 2746 H 256.319 0.0986785 -1.69413 0
M  V30 2747 H 255.091 0.558357 -3.87296 0
M  V30 2748 H 254.714 2.18287 -3.3232 0
M  V30 2749 N 255.711 1.52812 0.385517 0
M  V30 2750 C 256.96 1.67249 1.12741 0
M  V30 2751 C 257.273 0.4205 1.91027 0
M  V30 2752 O 258.479 0.445064 2.67827 0
M  V30 2753 C 256.935 2.95583 2.05326 0
M  V30 2754 C 256.543 4.27974 1.32447 0
M  V30 2755 C 258.287 3.19386 2.7963 0
M  V30 2756 C 256.194 5.47412 2.23818 0
M  V30 2757 H 255.124 0.6231 0.424573 0
M  V30 2758 H 257.775 1.79309 0.389924 0
M  V30 2759 H 256.157 2.77277 2.82725 0
M  V30 2760 H 257.331 4.56844 0.602495 0
M  V30 2761 H 255.646 4.10459 0.700885 0
M  V30 2762 H 258.243 4.05801 3.48181 0
M  V30 2763 H 258.586 2.34604 3.43899 0
M  V30 2764 H 259.119 3.38274 2.09322 0
M  V30 2765 H 255.858 6.34612 1.64157 0
M  V30 2766 H 255.378 5.22849 2.93921 0
M  V30 2767 H 257.057 5.81423 2.83824 0
M  V30 2768 N 257.189 -0.644168 1.43834 0
M  V30 2769 C 258.417 -1.43147 1.49387 0
M  V30 2770 C 258.832 -1.88452 0.114583 0
M  V30 2771 O 258.189 -1.60047 -0.876989 0
M  V30 2772 C 258.24 -2.66046 2.44748 0
M  V30 2773 O 257.961 -2.22633 3.77314 0
M  V30 2774 C 259.462 -3.59311 2.59635 0
M  V30 2775 H 256.682 -0.439447 0.507077 0
M  V30 2776 H 259.226 -0.78895 1.88669 0
M  V30 2777 H 257.381 -3.26418 2.08638 0
M  V30 2778 H 257.795 -3.02216 4.28679 0
M  V30 2779 H 259.269 -4.42187 3.30416 0
M  V30 2780 H 259.746 -4.07259 1.64427 0
M  V30 2781 H 260.352 -3.04816 2.96593 0
M  V30 2782 N 258.668 -1.30515 -0.883378 0
M  V30 2783 C 259.618 -1.13641 -1.9766 0
M  V30 2784 C 260.602 -0.0511314 -1.60819 0
M  V30 2785 O 261.794 -0.274623 -1.74857 0
M  V30 2786 C 258.923 -0.831976 -3.33066 0
M  V30 2787 C 258.009 -1.95759 -3.76217 0
M  V30 2788 N 258.4 -3.20313 -3.9145 0
M  V30 2789 C 256.698 -1.85431 -4.05625 0
M  V30 2790 C 257.399 -3.93856 -4.2808 0
M  V30 2791 N 256.375 -3.21919 -4.38029 0
M  V30 2792 H 260.177 -2.08106 -2.07531 0
M  V30 2793 H 257.691 -1.21877 -1.0733 0
M  V30 2794 H 259.688 -0.692102 -4.11115 0
M  V30 2795 H 258.348 0.104588 -3.24532 0
M  V30 2796 H 259.359 -3.55583 -3.76538 0
M  V30 2797 H 256.036 -0.991531 -4.05555 0
M  V30 2798 H 257.426 -5.01125 -4.47575 0
M  V30 2799 N 260.146 1.09593 -1.13257 0
M  V30 2800 C 261.094 2.18271 -0.803783 0
M  V30 2801 C 262.088 1.68054 0.213148 0
M  V30 2802 O 263.294 1.79862 0.0704699 0
M  V30 2803 H 259.669 0.711949 -0.242143 0
M  V30 2804 H 261.64 2.43235 -1.72856 0
M  V30 2805 C 260.389 3.46536 -0.28424 0
M  V30 2806 H 259.712 3.85545 -1.05807 0
M  V30 2807 H 261.152 4.23899 -0.0925945 0
M  V30 2808 C 259.611 3.22036 0.989684 0
M  V30 2809 O 260.141 3.44509 2.06584 0
M  V30 2810 N 258.347 2.7565 0.920086 0
M  V30 2811 H 257.894 2.57562 0.0442019 0
M  V30 2812 H 257.852 2.59635 1.77306 0
M  V30 2813 N 261.624 0.925811 1.2754 0
M  V30 2814 C 262.554 0.440748 2.29303 0
M  V30 2815 C 263.535 -0.497971 1.62648 0
M  V30 2816 O 264.72 -0.403126 1.8997 0
M  V30 2817 C 261.85 -0.309048 3.45922 0
M  V30 2818 C 260.804 0.54166 4.24559 0
M  V30 2819 C 260.13 -0.337191 5.33636 0
M  V30 2820 C 261.43 1.80516 4.90114 0
M  V30 2821 H 263.124 1.29121 2.70126 0
M  V30 2822 H 260.67 0.622323 1.29858 0
M  V30 2823 H 262.623 -0.659315 4.1621 0
M  V30 2824 H 261.347 -1.19352 3.04011 0
M  V30 2825 H 260.006 0.874609 3.56014 0
M  V30 2826 H 259.654 -1.22056 4.87966 0
M  V30 2827 H 259.354 0.228497 5.87156 0
M  V30 2828 H 260.878 -0.683072 6.06767 0
M  V30 2829 H 262.292 1.52307 5.52698 0
M  V30 2830 H 260.689 2.3142 5.53683 0
M  V30 2831 H 261.759 2.52581 4.13921 0
M  V30 2832 N 263.102 -1.41638 0.69111 0
M  V30 2833 C 264.032 -2.3347 0.037248 0
M  V30 2834 C 265.013 -1.51575 -0.771947 0
M  V30 2835 O 266.198 -1.80126 -0.72582 0
M  V30 2836 C 263.328 -3.35354 -0.903064 0
M  V30 2837 C 262.282 -4.27526 -0.201288 0
M  V30 2838 C 261.608 -5.19747 -1.25565 0
M  V30 2839 C 262.908 -5.13959 0.929689 0
M  V30 2840 H 264.602 -2.88397 0.804227 0
M  V30 2841 H 262.148 -1.38669 0.388189 0
M  V30 2842 H 264.101 -3.98519 -1.36969 0
M  V30 2843 H 262.825 -2.78767 -1.70166 0
M  V30 2844 H 261.484 -3.65779 0.245265 0
M  V30 2845 H 261.132 -4.59479 -2.04666 0
M  V30 2846 H 260.832 -5.8225 -0.791128 0
M  V30 2847 H 262.356 -5.85789 -1.72288 0
M  V30 2848 H 263.77 -5.70718 0.543546 0
M  V30 2849 H 262.167 -5.85379 1.32103 0
M  V30 2850 H 263.237 -4.51389 1.77133 0
M  V30 2851 N 264.58 -0.43555 -1.51462 0
M  V30 2852 C 265.805 0.132627 -2.06976 0
M  V30 2853 C 266.23 1.35848 -1.30104 0
M  V30 2854 O 265.588 1.78112 -0.338493 0
M  V30 2855 C 265.636 0.43523 -3.57964 0
M  V30 2856 O 264.74 1.52198 -3.83288 0
M  V30 2857 H 264.081 0.00265 -0.663995 0
M  V30 2858 H 266.611 -0.616369 -1.95095 0
M  V30 2859 H 266.621 0.686206 -4.02188 0
M  V30 2860 H 265.296 -0.460739 -4.1334 0
M  V30 2861 H 263.873 1.2611 -3.50928 0
M  V30 2862 N 266.058 1.56714 -0.166846 0
M  V30 2863 C 267.335 1.88412 0.525373 0
M  V30 2864 C 267.715 1.07602 1.81618 0
M  V30 2865 O 267.063 0.168621 2.27877 0
M  V30 2866 C 267.273 3.40363 0.771613 0
M  V30 2867 C 268.621 4.10007 1.1036 0
M  V30 2868 O 269.645 3.45655 0.860304 0
M  V30 2869 O 268.504 5.2369 1.56239 0
M  V30 2870 H 265.598 0.781587 0.270278 0
M  V30 2871 H 268.144 1.68458 -0.204946 0
M  V30 2872 H 266.916 3.91046 -0.141093 0
M  V30 2873 H 266.539 3.65914 1.55541 0
M  V30 2874 N 267.536 -0.106894 1.57237 0
M  V30 2875 C 268.764 -0.826389 1.8968 0
M  V30 2876 C 269.179 -1.72856 0.759353 0
M  V30 2877 O 268.536 -1.80503 -0.269263 0
M  V30 2878 C 268.587 -1.64967 3.21665 0
M  V30 2879 O 268.308 -0.783804 4.31031 0
M  V30 2880 C 269.809 -2.47326 3.67892 0
M  V30 2881 H 267.029 -0.236927 0.627779 0
M  V30 2882 H 269.573 -0.0876593 2.04312 0
M  V30 2883 H 267.728 -2.34103 3.08666 0
M  V30 2884 H 268.142 -1.35284 5.06753 0
M  V30 2885 H 269.616 -3.00604 4.6297 0
M  V30 2886 H 270.093 -3.25247 2.95146 0
M  V30 2887 H 270.699 -1.83411 3.83719 0
M  V30 2888 N 269.014 -1.53014 -0.377408 0
M  V30 2889 C 270.254 -1.70318 -1.1301 0
M  V30 2890 C 270.618 -0.439538 -1.86901 0
M  V30 2891 O 271.819 -0.489095 -2.64313 0
M  V30 2892 C 270.09 -2.91125 -2.07319 0
M  V30 2893 S 271.649 -3.29075 -2.90268 0
M  V30 2894 H 268.467 -0.599426 -0.382374 0
M  V30 2895 H 271.069 -1.91089 -0.412933 0
M  V30 2896 H 269.773 -3.81303 -1.51777 0
M  V30 2897 H 269.304 -2.7272 -2.83526 0
M  V30 2898 H 271.319 -2.80165 -4.09539 0
M  V30 2899 N 270.492 0.636531 -1.44174 0
M  V30 2900 C 271.903 1.21806 -1.41493 0
M  V30 2901 C 272.254 1.95785 -0.1275 0
M  V30 2902 O 271.379 2.02147 0.772376 0
M  V30 2903 C 271.974 2.21551 -2.56321 0
M  V30 2904 C 270.533 2.75143 -2.56853 0
M  V30 2905 C 269.68 1.50052 -2.33195 0
M  V30 2906 H 272.631 0.427531 -1.52833 0
M  V30 2907 H 272.652 3.0405 -2.28765 0
M  V30 2908 H 272.164 1.67679 -3.50008 0
M  V30 2909 H 270.265 3.33033 -1.67093 0
M  V30 2910 H 270.378 3.2155 -3.55165 0
M  V30 2911 H 268.742 1.77993 -1.82183 0
M  V30 2912 H 269.525 0.980903 -3.28988 0
M  V30 2913 N 271.97 1.30982 0.876444 0
M  V30 2914 C 273.386 1.09498 1.16113 0
M  V30 2915 C 273.586 -0.13875 2.01022 0
M  V30 2916 O 272.642 -0.829935 2.38471 0
M  V30 2917 C 273.955 2.36308 1.85954 0
M  V30 2918 C 275.503 2.41856 1.98683 0
M  V30 2919 C 275.978 3.6853 2.71937 0
M  V30 2920 N 277.469 3.69387 2.79477 0
M  V30 2921 C 278.204 4.64096 3.36753 0
M  V30 2922 N 277.7 5.69155 3.95012 0
M  V30 2923 N 279.493 4.51626 3.3465 0
M  V30 2924 H 271.644 2.10118 0.310494 0
M  V30 2925 H 273.907 0.926634 0.200131 0
M  V30 2926 H 273.613 3.26388 1.31011 0
M  V30 2927 H 273.487 2.4561 2.86278 0
M  V30 2928 H 275.874 1.52249 2.52793 0
M  V30 2929 H 275.955 2.36523 0.9742 0
M  V30 2930 H 275.599 4.58499 2.18496 0
M  V30 2931 H 275.529 3.71127 3.73593 0
M  V30 2932 H 278.02 2.93438 2.38123 0
M  V30 2933 H 278.333 6.3751 4.36808 0
M  V30 2934 H 276.678 5.72937 3.93406 0
M  V30 2935 H 279.869 3.68728 2.8837 0
M  V30 2936 H 280.042 5.25614 3.7899 0
M  V30 2937 N 273.449 -1.08991 1.13837 0
M  V30 2938 C 274.696 -1.81258 0.902882 0
M  V30 2939 C 275.024 -1.85936 -0.570803 0
M  V30 2940 O 274.279 -1.3267 -1.43865 0
M  V30 2941 C 274.578 -3.27042 1.44147 0
M  V30 2942 C 274.244 -3.4249 2.93276 0
M  V30 2943 C 272.906 -3.46414 3.33992 0
M  V30 2944 C 275.258 -3.4666 3.892 0
M  V30 2945 C 272.586 -3.52091 4.69307 0
M  V30 2946 C 274.938 -3.53872 5.24364 0
M  V30 2947 C 273.602 -3.56066 5.646 0
M  V30 2948 H 272.872 -0.663268 0.330388 0
M  V30 2949 H 275.519 -1.28368 1.42105 0
M  V30 2950 H 273.824 -3.82599 0.844097 0
M  V30 2951 H 275.521 -3.81499 1.23528 0
M  V30 2952 H 272.111 -3.40124 2.60794 0
M  V30 2953 H 276.295 -3.42865 3.58828 0
M  V30 2954 H 271.551 -3.52079 4.9985 0
M  V30 2955 H 275.725 -3.56043 5.98503 0
M  V30 2956 H 273.352 -3.60218 6.69438 0
M  V30 2957 N 274.927 -0.932562 -1.27047 0
M  V30 2958 C 276.176 -0.571351 -1.93439 0
M  V30 2959 C 276.489 0.892467 -1.74053 0
M  V30 2960 O 277.695 1.36267 -2.34826 0
M  V30 2961 C 276.151 -0.97106 -3.46552 0
M  V30 2962 C 275.759 -2.4559 -3.74686 0
M  V30 2963 C 277.503 -0.681333 -4.18997 0
M  V30 2964 C 275.41 -2.79475 -5.21198 0
M  V30 2965 H 274.34 -0.209966 -0.724176 0
M  V30 2966 H 276.991 -1.13403 -1.44263 0
M  V30 2967 H 275.373 -0.336983 -3.94564 0
M  V30 2968 H 276.547 -3.13829 -3.37414 0
M  V30 2969 H 274.862 -2.71802 -3.15456 0
M  V30 2970 H 277.459 -0.910939 -5.26883 0
M  V30 2971 H 277.802 0.381628 -4.14547 0
M  V30 2972 H 278.335 -1.27473 -3.76823 0
M  V30 2973 H 275.074 -3.847 -5.30741 0
M  V30 2974 H 274.594 -2.1589 -5.596 0
M  V30 2975 H 276.273 -2.67478 -5.89122 0
M  V30 2976 N 276.405 1.4127 -0.698611 0
M  V30 2977 C 277.335 2.33447 -0.049629 0
M  V30 2978 C 278.316 1.51982 0.763898 0
M  V30 2979 O 279.501 1.80509 0.716257 0
M  V30 2980 C 276.631 3.35828 0.885267 0
M  V30 2981 C 275.585 4.27627 0.178613 0
M  V30 2982 C 274.911 5.20406 1.22807 0
M  V30 2983 C 276.211 5.13459 -0.956933 0
M  V30 2984 H 277.905 2.87966 -0.81951 0
M  V30 2985 H 275.451 1.38461 -0.395538 0
M  V30 2986 H 277.404 3.9924 1.34854 0
M  V30 2987 H 276.128 2.79666 1.68685 0
M  V30 2988 H 274.787 3.65643 -0.26466 0
M  V30 2989 H 274.435 4.60558 2.02226 0
M  V30 2990 H 274.135 5.82661 0.760239 0
M  V30 2991 H 275.659 5.86695 1.69179 0
M  V30 2992 H 277.073 5.70421 -0.573805 0
M  V30 2993 H 275.47 5.8467 -1.35205 0
M  V30 2994 H 276.54 4.50443 -1.79524 0
M  V30 2995 N 277.883 0.443576 1.51229 0
M  V30 2996 C 279.131 -0.120557 2.0174 0
M  V30 2997 C 279.452 -1.42665 1.32935 0
M  V30 2998 O 278.722 -1.9028 0.465866 0
M  V30 2999 H 277.302 -0.0475426 0.745486 0
M  V30 3000 H 279.964 0.587711 1.85828 0
M  V30 3001 H 279.06 -0.291972 3.10731 0
M  V30 3002 N 279.361 -1.56624 0.175154 0
M  V30 3003 C 280.291 -2.21155 -0.749195 0
M  V30 3004 C 281.272 -1.16836 -1.23626 0
M  V30 3005 O 282.457 -1.45277 -1.28873 0
M  V30 3006 C 279.587 -2.8553 -1.97711 0
M  V30 3007 C 278.541 -3.95921 -1.62575 0
M  V30 3008 C 277.867 -4.47365 -2.92864 0
M  V30 3009 C 279.167 -5.15323 -0.850838 0
M  V30 3010 H 280.861 -2.98653 -0.211295 0
M  V30 3011 H 278.407 -1.43651 -0.100188 0
M  V30 3012 H 280.36 -3.2935 -2.62881 0
M  V30 3013 H 279.084 -2.05406 -2.53921 0
M  V30 3014 H 277.743 -3.52762 -0.997719 0
M  V30 3015 H 277.391 -3.64027 -3.47122 0
M  V30 3016 H 277.091 -5.21839 -2.70106 0
M  V30 3017 H 278.615 -4.93873 -3.59056 0
M  V30 3018 H 280.029 -5.55812 -1.40521 0
M  V30 3019 H 278.426 -5.95739 -0.722154 0
M  V30 3020 H 279.496 -4.84661 0.152082 0
M  V30 3021 N 280.839 0.0985539 -1.57292 0
M  V30 3022 C 281.769 1.12064 -2.04851 0
M  V30 3023 C 282.75 1.41981 -0.936767 0
M  V30 3024 O 283.935 1.52071 -1.20781 0
M  V30 3025 C 281.065 2.44144 -2.47004 0
M  V30 3026 C 280.019 2.28643 -3.6181 0
M  V30 3027 C 279.345 3.65869 -3.89929 0
M  V30 3028 C 280.645 1.72986 -4.92822 0
M  V30 3029 H 282.339 0.724979 -2.9049 0
M  V30 3030 H 279.885 0.34729 -1.39749 0
M  V30 3031 H 281.838 3.15914 -2.78884 0
M  V30 3032 H 280.562 2.85639 -1.5836 0
M  V30 3033 H 279.221 1.59318 -3.30172 0
M  V30 3034 H 278.869 4.04885 -2.98458 0
M  V30 3035 H 278.569 3.56344 -4.67218 0
M  V30 3036 H 280.093 4.39112 -4.2428 0
M  V30 3037 H 281.507 2.34593 -5.23105 0
M  V30 3038 H 279.904 1.74229 -5.74251 0
M  V30 3039 H 280.974 0.689007 -4.7998 0
M  V30 3040 N 282.317 1.53212 0.369288 0
M  V30 3041 C 283.594 1.59815 1.12776 0
M  V30 3042 C 283.974 0.403402 2.0721 0
M  V30 3043 O 283.322 -0.606667 2.20299 0
M  V30 3044 C 283.532 2.94664 1.87013 0
M  V30 3045 C 284.88 3.49109 2.41677 0
M  V30 3046 O 285.904 2.96669 1.97144 0
M  V30 3047 O 284.763 4.40775 3.23079 0
M  V30 3048 H 281.857 0.645376 0.517125 0
M  V30 3049 H 284.403 1.65553 0.37285 0
M  V30 3050 H 283.175 3.73061 1.18071 0
M  V30 3051 H 282.798 2.92401 2.69421 0
M  V30 3052 N 283.795 -0.628877 1.44509 0
M  V30 3053 C 284.758 -1.72263 1.51188 0
M  V30 3054 C 285.758 -1.55907 0.39367 0
M  V30 3055 O 286.948 -1.61361 0.656377 0
M  V30 3056 C 284.08 -3.11365 1.38798 0
M  V30 3057 H 285.273 -1.67714 2.4862 0
M  V30 3058 H 282.826 -0.842737 1.31634 0
M  V30 3059 H 283.561 -3.21507 0.424693 0
M  V30 3060 H 283.346 -3.24644 2.19884 0
M  V30 3061 H 284.836 -3.91075 1.46458 0
M  V30 3062 N 285.273 -1.31445 -0.869486 0
M  V30 3063 C 286.521 -1.20918 -1.61936 0
M  V30 3064 C 286.842 0.232683 -1.93607 0
M  V30 3065 O 286.112 1.15352 -1.58338 0
M  V30 3066 H 284.692 -0.44454 -0.600328 0
M  V30 3067 H 287.354 -1.64776 -1.0409 0
M  V30 3068 H 286.45 -1.78124 -2.56278 0
M  V30 3069 N 286.751 1.08385 -1.14413 0
M  V30 3070 C 287.698 2.15311 -0.831265 0
M  V30 3071 C 288.668 1.64751 0.211292 0
M  V30 3072 O 289.853 1.90627 0.0811674 0
M  V30 3073 C 286.993 3.43658 -0.315143 0
M  V30 3074 C 286.106 4.08064 -1.41802 0
M  V30 3075 C 285.241 5.24207 -0.859126 0
M  V30 3076 C 284.28 5.80554 -1.93967 0
M  V30 3077 N 283.417 6.88042 -1.39793 0
M  V30 3078 H 288.257 2.41415 -1.74708 0
M  V30 3079 H 285.794 1.18474 -0.871909 0
M  V30 3080 H 287.752 4.172 0.00230884 0
M  V30 3081 H 286.382 3.17839 0.56378 0
M  V30 3082 H 285.434 3.3228 -1.85187 0
M  V30 3083 H 286.746 4.45962 -2.23427 0
M  V30 3084 H 285.9 6.04689 -0.49359 0
M  V30 3085 H 284.639 4.87699 -0.011932 0
M  V30 3086 H 283.644 4.98725 -2.31415 0
M  V30 3087 H 284.869 6.19121 -2.79046 0
M  V30 3088 H 282.815 6.53493 -0.572919 0
M  V30 3089 H 282.732 7.24767 -2.15054 0
M  V30 3090 H 284 7.72255 -1.0603 0
M  V30 3091 N 288.23 0.939286 1.26551 0
M  V30 3092 C 289.193 0.451987 2.24699 0
M  V30 3093 C 290.193 -0.435869 1.5478 0
M  V30 3094 O 291.383 -0.235314 1.72603 0
M  V30 3095 C 288.515 -0.348801 3.39111 0
M  V30 3096 H 289.708 1.3193 2.69322 0
M  V30 3097 H 287.261 0.721072 1.38673 0
M  V30 3098 H 287.996 -1.23444 2.99887 0
M  V30 3099 H 287.781 0.287945 3.91041 0
M  V30 3100 H 289.271 -0.679726 4.12031 0
M  V30 3101 N 289.708 -1.40897 0.706093 0
M  V30 3102 C 290.658 -2.27987 0.0240746 0
M  V30 3103 C 291.642 -1.42759 -0.742204 0
M  V30 3104 O 292.834 -1.65936 -0.615966 0
M  V30 3105 C 289.963 -3.31186 -0.903907 0
M  V30 3106 C 289.049 -4.2389 -0.133318 0
M  V30 3107 N 289.44 -4.98113 0.878444 0
M  V30 3108 C 287.738 -4.44485 -0.367269 0
M  V30 3109 C 288.439 -5.6604 1.34064 0
M  V30 3110 N 287.415 -5.39522 0.664565 0
M  V30 3111 H 291.217 -2.82812 0.799658 0
M  V30 3112 H 288.731 -1.53235 0.537845 0
M  V30 3113 H 290.728 -3.92413 -1.40775 0
M  V30 3114 H 289.388 -2.77922 -1.67897 0
M  V30 3115 H 290.399 -5.02364 1.25901 0
M  V30 3116 H 287.076 -4.02213 -1.1194 0
M  V30 3117 H 288.466 -6.35524 2.1808 0
M  V30 3118 N 291.186 -0.45159 -1.50991 0
M  V30 3119 C 292.116 0.342898 -2.30969 0
M  V30 3120 C 293.097 1.00815 -1.37005 0
M  V30 3121 O 294.282 1.00907 -1.65926 0
M  V30 3122 C 291.412 1.43637 -3.16205 0
M  V30 3123 C 290.366 0.893818 -4.18563 0
M  V30 3124 C 289.692 2.08411 -4.92411 0
M  V30 3125 C 290.992 -0.0815568 -5.22236 0
M  V30 3126 H 292.686 -0.324556 -2.97636 0
M  V30 3127 H 290.232 -0.157531 -1.43136 0
M  V30 3128 H 292.185 1.9995 -3.70942 0
M  V30 3129 H 290.909 2.13232 -2.47386 0
M  V30 3130 H 289.568 0.352798 -3.64898 0
M  V30 3131 H 289.216 2.76658 -4.20082 0
M  V30 3132 H 288.916 1.72741 -5.61636 0
M  V30 3133 H 290.44 2.65251 -5.49976 0
M  V30 3134 H 291.854 0.391742 -5.7196 0
M  V30 3135 H 290.251 -0.351551 -5.99069 0
M  V30 3136 H 291.321 -1.01374 -4.74185 0
M  V30 3137 N 292.664 1.56529 -0.183458 0
M  V30 3138 C 293.596 2.15747 0.773697 0
M  V30 3139 C 294.609 1.1162 1.1851 0
M  V30 3140 O 295.798 1.3876 1.12285 0
M  V30 3141 C 292.898 2.6952 2.05456 0
M  V30 3142 C 292.071 3.98429 1.8048 0
M  V30 3143 C 291.13 4.37145 2.92901 0
M  V30 3144 O 290.156 5.04791 2.6301 0
M  V30 3145 N 291.358 3.99695 4.2098 0
M  V30 3146 H 294.123 2.98505 0.26736 0
M  V30 3147 H 291.684 1.619 -0.0010878 0
M  V30 3148 H 293.676 2.92412 2.79781 0
M  V30 3149 H 292.246 1.91282 2.47245 0
M  V30 3150 H 291.466 3.8379 0.899947 0
M  V30 3151 H 292.754 4.82597 1.61175 0
M  V30 3152 H 292.152 3.4526 4.48121 0
M  V30 3153 H 290.709 4.27562 4.9197 0
M  V30 3154 N 294.142 -0.090211 1.57342 0
M  V30 3155 C 295.558 -0.444547 1.53284 0
M  V30 3156 C 295.758 -1.80238 0.900914 0
M  V30 3157 O 294.814 -2.4759 0.495513 0
M  V30 3158 C 296.127 -0.402543 2.97993 0
M  V30 3159 C 297.675 -0.48405 3.09234 0
M  V30 3160 C 298.15 -0.472144 4.5556 0
M  V30 3161 N 299.641 -0.532757 4.60126 0
M  V30 3162 C 300.376 -0.545462 5.708 0
M  V30 3163 N 299.872 -0.514082 6.9089 0
M  V30 3164 N 301.665 -0.59064 5.58988 0
M  V30 3165 H 293.816 0.799121 1.96794 0
M  V30 3166 H 296.079 0.297965 0.899956 0
M  V30 3167 H 295.785 0.528106 3.47712 0
M  V30 3168 H 295.659 -1.21969 3.56936 0
M  V30 3169 H 298.046 -1.40512 2.595 0
M  V30 3170 H 298.127 0.361328 2.53235 0
M  V30 3171 H 297.771 0.445 5.05947 0
M  V30 3172 H 297.701 -1.3348 5.09402 0
M  V30 3173 H 300.192 -0.562006 3.73698 0
M  V30 3174 H 300.505 -0.527195 7.71 0
M  V30 3175 H 298.85 -0.481054 6.93333 0
M  V30 3176 H 302.041 -0.61272 4.64073 0
M  V30 3177 H 302.214 -0.597073 6.45243 0
M  V30 3178 N 295.62 -1.53406 -0.361157 0
M  V30 3179 C 296.552 -1.76446 -1.46286 0
M  V30 3180 C 297.565 -0.645322 -1.49464 0
M  V30 3181 O 298.754 -0.921681 -1.52864 0
M  V30 3182 C 295.854 -1.83332 -2.85031 0
M  V30 3183 C 295.027 -3.13033 -3.05498 0
M  V30 3184 C 294.086 -3.11104 -4.24383 0
M  V30 3185 O 293.112 -3.84888 -4.19344 0
M  V30 3186 N 294.314 -2.32234 -5.32022 0
M  V30 3187 H 297.079 -2.71508 -1.26899 0
M  V30 3188 H 294.64 -1.52238 -0.550915 0
M  V30 3189 H 296.632 -1.79514 -3.62708 0
M  V30 3190 H 295.202 -0.955342 -2.97644 0
M  V30 3191 H 294.422 -3.30119 -2.15442 0
M  V30 3192 H 295.71 -3.9874 -3.16044 0
M  V30 3193 H 295.108 -1.71807 -5.38979 0
M  V30 3194 H 293.665 -2.3423 -6.08259 0
M  V30 3195 N 297.098 0.621204 -1.44841 0
M  V30 3196 C 298.344 1.3826 -1.48365 0
M  V30 3197 C 298.677 1.93831 -0.119624 0
M  V30 3198 O 297.952 1.74251 0.864111 0
M  V30 3199 C 298.235 2.54058 -2.55199 0
M  V30 3200 C 298.088 2.03772 -4.00995 0
M  V30 3201 C 299.407 3.56225 -2.58442 0
M  V30 3202 H 296.526 0.501374 -0.540179 0
M  V30 3203 H 299.168 0.7015 -1.76576 0
M  V30 3204 H 297.318 3.12162 -2.31274 0
M  V30 3205 H 298.99 1.50423 -4.36086 0
M  V30 3206 H 297.233 1.34876 -4.12299 0
M  V30 3207 H 297.904 2.87185 -4.71411 0
M  V30 3208 H 300.38 3.07939 -2.79844 0
M  V30 3209 H 299.256 4.34756 -3.3508 0
M  V30 3210 H 299.517 4.10949 -1.63013 0
M  V30 3211 N 298.576 1.31904 0.862503 0
M  V30 3212 C 299.523 1.20182 1.9704 0
M  V30 3213 C 300.493 0.0858247 1.65878 0
M  V30 3214 O 301.678 0.26 1.8902 0
M  V30 3215 C 298.818 0.922797 3.32533 0
M  V30 3216 C 297.931 2.12284 3.76244 0
M  V30 3217 C 297.066 1.77996 5.00491 0
M  V30 3218 C 296.105 2.94366 5.36671 0
M  V30 3219 N 295.242 2.60223 6.52095 0
M  V30 3220 H 300.082 2.14951 2.06398 0
M  V30 3221 H 297.619 1.06917 1.01031 0
M  V30 3222 H 299.577 0.741548 4.10557 0
M  V30 3223 H 298.207 0.0119227 3.22798 0
M  V30 3224 H 297.259 2.41461 2.9394 0
M  V30 3225 H 298.571 2.99357 3.98982 0
M  V30 3226 H 297.725 1.56377 5.862 0
M  V30 3227 H 296.464 0.881252 4.79672 0
M  V30 3228 H 295.469 3.16625 4.49476 0
M  V30 3229 H 296.694 3.84957 5.59451 0
M  V30 3230 H 294.64 1.72884 6.32809 0
M  V30 3231 H 294.557 3.40827 6.74814 0
M  V30 3232 H 295.825 2.42016 7.40978 0
M  V30 3233 N 300.054 -1.07777 1.14986 0
M  V30 3234 C 301.465 -1.61766 0.932127 0
M  V30 3235 C 301.816 -1.88974 -0.527581 0
M  V30 3236 O 300.941 -1.65198 -1.39781 0
M  V30 3237 C 301.536 -2.93891 1.68563 0
M  V30 3238 C 300.095 -3.44639 1.5133 0
M  V30 3239 C 299.242 -2.18767 1.704 0
M  V30 3240 H 302.193 -0.909201 1.30074 0
M  V30 3241 H 302.214 -3.62623 1.15259 0
M  V30 3242 H 301.726 -2.74057 2.74799 0
M  V30 3243 H 299.827 -3.69564 0.474702 0
M  V30 3244 H 299.94 -4.20966 2.28746 0
M  V30 3245 H 298.304 -2.28253 1.13016 0
M  V30 3246 H 299.087 -2.01433 2.77992 0
M  V30 3247 N 301.532 -0.945985 -1.26051 0
M  V30 3248 C 302.442 -0.465633 -2.29933 0
M  V30 3249 C 303.458 0.462761 -1.67733 0
M  V30 3250 O 304.634 0.341118 -1.9849 0
M  V30 3251 C 301.699 0.256994 -3.45746 0
M  V30 3252 C 300.76 -0.708549 -4.23412 0
M  V30 3253 C 299.993 -0.0203135 -5.33696 0
M  V30 3254 O 300.216 1.19571 -5.57726 0
M  V30 3255 O 299.15 -0.701459 -5.97799 0
M  V30 3256 H 302.976 -1.32866 -2.73094 0
M  V30 3257 H 300.561 -0.712071 -1.31339 0
M  V30 3258 H 302.443 0.663852 -4.16138 0
M  V30 3259 H 301.118 1.09533 -3.04605 0
M  V30 3260 H 300.025 -1.16545 -3.55483 0
M  V30 3261 H 301.358 -1.51465 -4.68315 0
M  V30 3262 N 303.011 1.40521 -0.713556 0
M  V30 3263 C 303.974 2.29098 -0.0684347 0
M  V30 3264 C 304.974 1.45268 0.689472 0
M  V30 3265 O 306.164 1.66205 0.521677 0
M  V30 3266 C 303.296 3.28446 0.913024 0
M  V30 3267 H 304.489 2.87645 -0.84855 0
M  V30 3268 H 302.042 1.48809 -0.47809 0
M  V30 3269 H 302.777 2.74913 1.72027 0
M  V30 3270 H 302.562 3.90327 0.372472 0
M  V30 3271 H 304.052 3.94777 1.36165 0
M  V30 3272 N 304.489 0.459591 1.5075 0
M  V30 3273 C 305.735 -0.091664 2.03193 0
M  V30 3274 C 306.09 -1.38432 1.3362 0
M  V30 3275 O 305.383 -1.86257 0.449322 0
M  V30 3276 C 305.577 -0.342866 3.55752 0
M  V30 3277 C 305.406 0.923888 4.40107 0
M  V30 3278 C 304.176 1.46388 4.83631 0
M  V30 3279 C 306.374 1.81617 4.81165 0
M  V30 3280 N 304.356 2.68086 5.52271 0
M  V30 3281 C 305.727 2.87907 5.49099 0
M  V30 3282 C 307.782 1.82793 4.63132 0
M  V30 3283 C 306.485 3.95347 6.0091 0
M  V30 3284 C 308.511 2.89182 5.15876 0
M  V30 3285 C 307.873 3.94191 5.83774 0
M  V30 3286 H 303.972 0.00619247 0.781975 0
M  V30 3287 H 306.556 0.625233 1.84388 0
M  V30 3288 H 304.727 -1.0288 3.74527 0
M  V30 3289 H 306.459 -0.887445 3.9485 0
M  V30 3290 H 303.214 1.01466 4.62603 0
M  V30 3291 H 303.638 3.29857 5.91205 0
M  V30 3292 H 308.28 1.0293 4.1008 0
M  V30 3293 H 305.998 4.76035 6.53006 0
M  V30 3294 H 309.584 2.91061 5.0376 0
M  V30 3295 H 308.464 4.75161 6.23853 0
M  V30 3296 N 305.967 -1.56429 0.191757 0
M  V30 3297 C 306.897 -2.21937 -0.725696 0
M  V30 3298 C 307.878 -1.1814 -1.2238 0
M  V30 3299 O 309.063 -1.46636 -1.27325 0
M  V30 3300 C 306.193 -2.87611 -1.94672 0
M  V30 3301 C 305.147 -3.97623 -1.58366 0
M  V30 3302 C 304.473 -4.50446 -2.88102 0
M  V30 3303 C 305.773 -5.16197 -0.796133 0
M  V30 3304 H 307.467 -2.98861 -0.179606 0
M  V30 3305 H 305.013 -1.43749 -0.0849464 0
M  V30 3306 H 306.966 -3.3212 -2.59373 0
M  V30 3307 H 305.69 -2.08087 -2.51728 0
M  V30 3308 H 304.349 -3.53801 -0.960247 0
M  V30 3309 H 303.997 -3.67688 -3.43241 0
M  V30 3310 H 303.697 -5.24675 -2.64556 0
M  V30 3311 H 305.221 -4.97654 -3.53798 0
M  V30 3312 H 306.635 -5.57271 -1.34618 0
M  V30 3313 H 305.032 -5.96471 -0.658928 0
M  V30 3314 H 306.102 -4.84473 0.203478 0
M  V30 3315 N 307.445 0.0818655 -1.57387 0
M  V30 3316 C 308.67 0.799946 -1.91352 0
M  V30 3317 C 309.095 1.70833 -0.787258 0
M  V30 3318 O 308.453 1.79419 0.26048 0
M  V30 3319 C 308.501 1.57812 -3.24234 0
M  V30 3320 O 307.605 2.68806 -3.12757 0
M  V30 3321 H 306.946 0.21891 -0.626877 0
M  V30 3322 H 309.476 0.0531256 -2.04531 0
M  V30 3323 H 309.486 1.95952 -3.57864 0
M  V30 3324 H 308.161 0.911548 -4.05788 0
M  V30 3325 H 306.738 2.33597 -2.90666 0
M  V30 3326 N 308.923 1.53595 0.353017 0
M  V30 3327 C 309.873 1.77299 1.43349 0
M  V30 3328 C 310.857 0.627884 1.48143 0
M  V30 3329 O 312.049 0.88697 1.53173 0
M  V30 3330 C 309.178 1.97757 2.80619 0
M  V30 3331 C 308.264 3.18305 2.80254 0
M  V30 3332 N 308.655 4.39967 2.49526 0
M  V30 3333 C 306.953 3.19283 3.11407 0
M  V30 3334 C 307.654 5.21772 2.57156 0
M  V30 3335 N 306.63 4.58269 2.92388 0
M  V30 3336 H 310.432 2.68963 1.18474 0
M  V30 3337 H 307.946 1.52391 0.561306 0
M  V30 3338 H 309.943 2.1287 3.58458 0
M  V30 3339 H 308.603 1.07329 3.06448 0
M  V30 3340 H 309.614 4.67482 2.22893 0
M  V30 3341 H 306.291 2.3879 3.4247 0
M  V30 3342 H 307.681 6.2885 2.36638 0
M  V30 3343 N 310.401 -0.613514 1.45168 0
M  V30 3344 C 311.649 -1.36997 1.48581 0
M  V30 3345 C 311.97 -1.94589 0.126545 0
M  V30 3346 O 311.24 -1.76816 -0.843372 0
M  V30 3347 H 309.82 -0.508558 0.547154 0
M  V30 3348 H 312.482 -0.720853 1.81079 0
M  V30 3349 H 311.578 -2.1924 2.22127 0
M  V30 3350 N 311.879 -1.3236 -0.855495 0
M  V30 3351 C 313.29 -1.2056 -1.42556 0
M  V30 3352 C 313.641 0.182209 -1.95352 0
M  V30 3353 O 312.766 1.08088 -1.87472 0
M  V30 3354 C 313.361 -2.1826 -2.59129 0
M  V30 3355 C 311.92 -2.10351 -3.12137 0
M  V30 3356 C 311.067 -2.06674 -1.84882 0
M  V30 3357 H 314.018 -1.442 -0.662727 0
M  V30 3358 H 314.039 -1.78064 -3.36264 0
M  V30 3359 H 313.551 -3.19257 -2.20673 0
M  V30 3360 H 311.652 -1.12599 -3.55179 0
M  V30 3361 H 311.765 -3.00135 -3.73438 0
M  V30 3362 H 310.129 -1.51901 -2.04446 0
M  V30 3363 H 310.912 -3.09451 -1.48643 0
M  V30 3364 N 313.357 1.07166 -1.15556 0
M  V30 3365 C 314.582 1.84053 -0.955988 0
M  V30 3366 C 315.007 1.81586 0.490739 0
M  V30 3367 O 314.365 1.21018 1.34997 0
M  V30 3368 C 314.413 3.28957 -1.47714 0
M  V30 3369 O 313.517 4.06795 -0.677593 0
M  V30 3370 H 312.858 0.569842 -0.340847 0
M  V30 3371 H 315.388 1.35178 -1.53584 0
M  V30 3372 H 315.398 3.79788 -1.4908 0
M  V30 3373 H 314.073 3.30068 -2.53037 0
M  V30 3374 H 312.65 3.6561 -0.733721 0
M  V30 3375 N 314.835 0.952656 1.25548 0
M  V30 3376 C 316.246 0.647392 1.75116 0
M  V30 3377 C 316.597 -0.837274 1.77438 0
M  V30 3378 O 315.722 -1.65525 1.39393 0
M  V30 3379 C 316.317 1.16845 3.18014 0
M  V30 3380 C 314.876 0.913382 3.6515 0
M  V30 3381 C 314.023 1.31265 2.44264 0
M  V30 3382 H 316.974 1.12968 1.11462 0
M  V30 3383 H 316.995 0.527606 3.76824 0
M  V30 3384 H 316.507 2.24902 3.16292 0
M  V30 3385 H 314.608 -0.152316 3.72289 0
M  V30 3386 H 314.721 1.54845 4.53387 0
M  V30 3387 H 313.085 0.731028 2.43984 0
M  V30 3388 H 313.868 2.40239 2.45234 0
M  V30 3389 N 316.313 -1.40141 0.720998 0
M  V30 3390 C 317.561 -2.0039 0.262323 0
M  V30 3391 C 317.882 -1.57469 -1.15015 0
M  V30 3392 O 317.152 -0.816582 -1.78069 0
M  V30 3393 H 315.732 -0.741063 0.093996 0
M  V30 3394 H 318.394 -1.71398 0.927835 0
M  V30 3395 H 317.49 -3.10658 0.299671 0
M  V30 3396 N 317.792 -0.46758 -1.50504 0
M  V30 3397 C 319.203 -0.0116166 -1.86696 0
M  V30 3398 C 319.554 1.39202 -1.38265 0
M  V30 3399 O 318.679 2.0313 -0.746132 0
M  V30 3400 C 319.274 -0.0143044 -3.38797 0
M  V30 3401 C 317.833 0.386175 -3.74414 0
M  V30 3402 C 316.98 -0.401287 -2.74381 0
M  V30 3403 H 319.931 -0.682022 -1.43297 0
M  V30 3404 H 319.952 0.788641 -3.72237 0
M  V30 3405 H 319.464 -1.03602 -3.74016 0
M  V30 3406 H 317.565 1.41237 -3.44794 0
M  V30 3407 H 317.678 0.0899596 -4.79016 0
M  V30 3408 H 316.042 0.144536 -2.5429 0
M  V30 3409 H 316.825 -1.42244 -3.12444 0
M  V30 3410 N 319.27 1.56325 -0.20005 0
M  V30 3411 C 320.518 1.97329 0.436547 0
M  V30 3412 C 320.839 1.08826 1.61808 0
M  V30 3413 O 320.109 0.160604 1.95241 0
M  V30 3414 H 318.689 0.728714 0.164272 0
M  V30 3415 H 321.351 1.92761 -0.287937 0
M  V30 3416 H 320.447 3.02264 0.777353 0
M  V30 3417 N 320.748 -0.0735177 1.57428 0
M  V30 3418 C 321.698 -1.09442 2.00016 0
M  V30 3419 C 322.682 -1.34575 0.881947 0
M  V30 3420 O 323.874 -1.34905 1.14585 0
M  V30 3421 C 321.003 -2.40865 2.4462 0
M  V30 3422 C 320.089 -2.19014 3.63172 0
M  V30 3423 N 320.48 -1.67087 4.77405 0
M  V30 3424 C 318.778 -2.49494 3.69688 0
M  V30 3425 C 319.479 -1.6001 5.5926 0
M  V30 3426 N 318.455 -2.05999 5.03056 0
M  V30 3427 H 322.257 -0.686227 2.85776 0
M  V30 3428 H 319.771 -0.280617 1.59957 0
M  V30 3429 H 321.768 -3.14763 2.73368 0
M  V30 3430 H 320.428 -2.82403 1.60246 0
M  V30 3431 H 321.439 -1.35975 4.99731 0
M  V30 3432 H 318.116 -2.94409 2.96023 0
M  V30 3433 H 319.506 -1.2073 6.60964 0
M  V30 3434 N 322.226 -1.5378 -0.344866 0
M  V30 3435 C 323.156 -1.84662 -1.42906 0
M  V30 3436 C 324.137 -0.701648 -1.54955 0
M  V30 3437 O 325.322 -0.953438 -1.69184 0
M  V30 3438 C 322.452 -2.05503 -2.79974 0
M  V30 3439 C 321.406 -3.21318 -2.82734 0
M  V30 3440 C 320.732 -3.2749 -4.22675 0
M  V30 3441 C 322.032 -4.59456 -2.48389 0
M  V30 3442 H 323.726 -2.75461 -1.17311 0
M  V30 3443 H 321.272 -1.32542 -0.562896 0
M  V30 3444 H 323.225 -2.25691 -3.55867 0
M  V30 3445 H 321.949 -1.11434 -3.07002 0
M  V30 3446 H 320.608 -3.00984 -2.09294 0
M  V30 3447 H 320.256 -2.31019 -4.4681 0
M  V30 3448 H 319.956 -4.05316 -4.25433 0
M  V30 3449 H 321.48 -3.49887 -5.00412 0
M  V30 3450 H 322.894 -4.79667 -3.13995 0
M  V30 3451 H 321.291 -5.39675 -2.62432 0
M  V30 3452 H 322.361 -4.63155 -1.4358 0
M  V30 3453 N 323.704 0.605807 -1.45491 0
M  V30 3454 C 324.636 1.73031 -1.5031 0
M  V30 3455 C 325.649 1.57968 -0.393687 0
M  V30 3456 O 326.838 1.65817 -0.660839 0
M  V30 3457 C 323.938 3.11049 -1.34543 0
M  V30 3458 C 323.111 3.52334 -2.59189 0
M  V30 3459 C 322.17 4.69323 -2.37954 0
M  V30 3460 O 321.196 4.7635 -3.11575 0
M  V30 3461 N 322.398 5.62705 -1.4263 0
M  V30 3462 H 325.163 1.6936 -2.4726 0
M  V30 3463 H 322.724 0.79114 -1.41254 0
M  V30 3464 H 324.716 3.87071 -1.18144 0
M  V30 3465 H 323.286 3.09217 -0.458623 0
M  V30 3466 H 322.506 2.66256 -2.90691 0
M  V30 3467 H 323.794 3.76677 -3.42041 0
M  V30 3468 H 323.192 5.59744 -0.818758 0
M  V30 3469 H 321.749 6.38252 -1.32202 0
M  V30 3470 N 325.182 1.32811 0.848464 0
M  V30 3471 C 326.112 1.24882 1.97299 0
M  V30 3472 C 327.093 0.131357 1.69592 0
M  V30 3473 O 328.278 0.319553 1.91553 0
M  V30 3474 C 325.408 0.97746 3.33261 0
M  V30 3475 C 324.362 2.05682 3.75338 0
M  V30 3476 C 323.688 1.63777 5.09 0
M  V30 3477 C 324.988 3.47254 3.90144 0
M  V30 3478 H 326.682 2.18966 2.04191 0
M  V30 3479 H 324.228 1.05413 0.981029 0
M  V30 3480 H 326.181 0.908513 4.1149 0
M  V30 3481 H 324.905 0.000980011 3.266 0
M  V30 3482 H 323.564 2.11603 2.99366 0
M  V30 3483 H 323.212 0.648569 4.98801 0
M  V30 3484 H 322.912 2.36 5.38124 0
M  V30 3485 H 324.436 1.5833 5.89715 0
M  V30 3486 H 325.85 3.43888 4.58709 0
M  V30 3487 H 324.247 4.1788 4.30693 0
M  V30 3488 H 325.317 3.86462 2.92874 0
M  V30 3489 N 326.66 -1.06551 1.16123 0
M  V30 3490 C 327.906 -1.79567 0.94252 0
M  V30 3491 C 328.239 -1.86869 -0.528547 0
M  V30 3492 O 327.514 -1.35838 -1.39206 0
M  V30 3493 C 327.797 -3.24195 1.56747 0
M  V30 3494 C 327.65 -3.24989 3.10969 0
M  V30 3495 C 328.969 -4.21678 1.25998 0
M  V30 3496 H 326.088 -0.651883 0.343828 0
M  V30 3497 H 328.73 -1.2463 1.43413 0
M  V30 3498 H 326.88 -3.71107 1.14942 0
M  V30 3499 H 328.552 -2.86258 3.61737 0
M  V30 3500 H 326.795 -2.63716 3.44436 0
M  V30 3501 H 327.466 -4.27005 3.49815 0
M  V30 3502 H 329.942 -3.83196 1.62174 0
M  V30 3503 H 328.818 -5.21146 1.7233 0
M  V30 3504 H 329.079 -4.4174 0.178367 0
M  V30 3505 N 328.138 -0.959301 -1.25041 0
M  V30 3506 C 329.378 -0.624343 -1.94631 0
M  V30 3507 C 329.742 0.82403 -1.73418 0
M  V30 3508 O 330.943 1.26881 -2.3697 0
M  V30 3509 C 329.214 -0.978805 -3.43736 0
M  V30 3510 S 330.773 -0.757127 -4.32219 0
M  V30 3511 H 327.591 -0.229327 -0.673001 0
M  V30 3512 H 330.193 -1.23447 -1.51595 0
M  V30 3513 H 328.897 -2.02997 -3.56679 0
M  V30 3514 H 328.428 -0.359117 -3.91757 0
M  V30 3515 H 330.443 0.369759 -4.9482 0
M  V30 3516 N 329.616 1.39756 -0.72842 0
M  V30 3517 C 330.566 2.2792 -0.0603424 0
M  V30 3518 C 331.55 1.43922 0.719399 0
M  V30 3519 O 332.742 1.66895 0.589489 0
M  V30 3520 C 329.871 3.32582 0.851104 0
M  V30 3521 C 328.957 4.24049 0.0658641 0
M  V30 3522 N 329.348 4.96653 -0.957578 0
M  V30 3523 C 327.646 4.45013 0.296509 0
M  V30 3524 C 328.347 5.63836 -1.43052 0
M  V30 3525 N 327.323 5.38397 -0.750315 0
M  V30 3526 H 331.125 2.81504 -0.84455 0
M  V30 3527 H 328.639 1.5236 -0.562155 0
M  V30 3528 H 330.636 3.94603 1.34514 0
M  V30 3529 H 329.296 2.80558 1.63454 0
M  V30 3530 H 330.307 5.00297 -1.33877 0
M  V30 3531 H 326.984 4.03943 1.05527 0
M  V30 3532 H 328.374 6.31974 -2.28163 0
M  V30 3533 N 331.094 0.475555 1.50254 0
M  V30 3534 C 332.34 -0.0780073 2.0265 0
M  V30 3535 C 332.673 -1.38968 1.35652 0
M  V30 3536 O 331.948 -1.8839 0.483691 0
M  V30 3537 C 332.231 -0.257161 3.59181 0
M  V30 3538 C 332.084 1.07585 4.36744 0
M  V30 3539 C 333.403 -1.00965 4.28362 0
M  V30 3540 H 330.522 -0.0268758 0.73651 0
M  V30 3541 H 333.164 0.622015 1.7953 0
M  V30 3542 H 331.314 -0.853412 3.79011 0
M  V30 3543 H 332.986 1.70902 4.28474 0
M  V30 3544 H 331.229 1.6714 4.00308 0
M  V30 3545 H 331.9 0.904088 5.44546 0
M  V30 3546 H 334.376 -0.504214 4.13034 0
M  V30 3547 H 333.252 -1.10381 5.37687 0
M  V30 3548 H 333.513 -2.04731 3.91839 0
M  V30 3549 N 332.573 -1.56217 0.208337 0
M  V30 3550 C 333.798 -2.02782 -0.435222 0
M  V30 3551 C 334.223 -1.08738 -1.53485 0
M  V30 3552 O 333.581 -0.0731855 -1.81152 0
M  V30 3553 C 333.629 -3.47687 -0.956335 0
M  V30 3554 O 332.733 -3.56773 -2.06849 0
M  V30 3555 H 332.074 -0.656403 -0.100158 0
M  V30 3556 H 334.604 -2.02033 0.3231 0
M  V30 3557 H 334.614 -3.87745 -1.26955 0
M  V30 3558 H 333.289 -4.15624 -0.15143 0
M  V30 3559 H 331.866 -3.28597 -1.76292 0
M  V30 3560 N 334.051 0.0651679 -1.57465 0
M  V30 3561 C 335.299 0.761555 -1.87202 0
M  V30 3562 C 335.62 1.77778 -0.801243 0
M  V30 3563 O 334.89 1.95166 0.16937 0
M  V30 3564 H 333.47 0.284251 -0.690804 0
M  V30 3565 H 336.132 0.0396827 -1.9486 0
M  V30 3566 H 335.228 1.27365 -2.84929 0
M  V30 3567 N 335.529 1.53961 0.336706 0
M  V30 3568 C 336.776 1.71536 1.07618 0
M  V30 3569 C 337.104 0.482125 1.8843 0
M  V30 3570 O 336.359 -0.536142 1.88213 0
M  V30 3571 C 336.658 2.93493 2.03953 0
M  V30 3572 C 336.324 4.28811 1.39399 0
M  V30 3573 C 334.986 4.65602 1.21523 0
M  V30 3574 C 337.338 5.12844 0.929541 0
M  V30 3575 C 334.666 5.84037 0.558312 0
M  V30 3576 C 337.018 6.31951 0.286505 0
M  V30 3577 C 335.682 6.67432 0.0954869 0
M  V30 3578 H 334.952 0.627696 0.393801 0
M  V30 3579 H 337.599 1.88186 0.354715 0
M  V30 3580 H 335.904 2.71475 2.82504 0
M  V30 3581 H 337.601 3.04285 2.61174 0
M  V30 3582 H 334.191 3.99858 1.54311 0
M  V30 3583 H 338.375 4.84947 1.05548 0
M  V30 3584 H 333.631 6.10097 0.398995 0
M  V30 3585 H 337.805 6.96352 -0.0814376 0
M  V30 3586 H 335.432 7.59063 -0.415579 0
M  V30 3587 N 337.007 -0.598083 1.45811 0
M  V30 3588 C 338.237 -1.38121 1.53643 0
M  V30 3589 C 338.645 -1.88425 0.171081 0
M  V30 3590 O 337.988 -1.63409 -0.839237 0
M  V30 3591 C 338.05 -2.61432 2.46766 0
M  V30 3592 C 337.714 -2.32702 3.93318 0
M  V30 3593 C 338.711 -1.92479 4.82957 0
M  V30 3594 C 336.396 -2.45321 4.38318 0
M  V30 3595 C 338.39 -1.65248 6.15607 0
M  V30 3596 C 336.077 -2.17703 5.71007 0
M  V30 3597 C 337.075 -1.7773 6.5947 0
M  V30 3598 O 336.763 -1.50441 7.89698 0
M  V30 3599 H 336.495 -0.428863 0.522544 0
M  V30 3600 H 339.049 -0.73557 1.91777 0
M  V30 3601 H 337.279 -3.28749 2.0362 0
M  V30 3602 H 338.968 -3.23487 2.45175 0
M  V30 3603 H 339.734 -1.82258 4.49452 0
M  V30 3604 H 335.613 -2.75399 3.69697 0
M  V30 3605 H 339.157 -1.33973 6.84614 0
M  V30 3606 H 335.054 -2.27544 6.04065 0
M  V30 3607 H 335.822 -1.64415 8.01817 0
M  V30 3608 N 338.485 -1.33259 -0.841409 0
M  V30 3609 C 339.896 -1.22066 -1.41269 0
M  V30 3610 C 340.247 0.161479 -1.95534 0
M  V30 3611 O 339.372 1.06094 -1.88608 0
M  V30 3612 C 339.967 -2.20996 -2.568 0
M  V30 3613 C 338.526 -2.13649 -3.09888 0
M  V30 3614 C 337.673 -2.08623 -1.82679 0
M  V30 3615 H 340.624 -1.44895 -0.647395 0
M  V30 3616 H 340.645 -1.81621 -3.34356 0
M  V30 3617 H 340.157 -3.2158 -2.17274 0
M  V30 3618 H 338.258 -1.16359 -3.53965 0
M  V30 3619 H 338.371 -3.04079 -3.70234 0
M  V30 3620 H 336.735 -1.54061 -2.02824 0
M  V30 3621 H 337.518 -3.1101 -1.45353 0
M  V30 3622 N 339.963 1.05934 -1.16686 0
M  V30 3623 C 340.91 2.13499 -0.876748 0
M  V30 3624 C 341.88 1.65162 0.176299 0
M  V30 3625 O 343.065 1.90757 0.0407143 0
M  V30 3626 C 340.205 3.42912 -0.387967 0
M  V30 3627 C 339.318 4.04964 -1.50426 0
M  V30 3628 C 338.453 5.22266 -0.970125 0
M  V30 3629 C 337.492 5.76309 -2.06238 0
M  V30 3630 N 336.629 6.84922 -1.54356 0
M  V30 3631 H 341.469 2.37654 -1.7979 0
M  V30 3632 H 339.006 1.16598 -0.896843 0
M  V30 3633 H 340.964 4.17111 -0.086186 0
M  V30 3634 H 339.594 3.18963 0.496235 0
M  V30 3635 H 338.646 3.28277 -1.92193 0
M  V30 3636 H 339.958 4.41122 -2.32836 0
M  V30 3637 H 339.112 6.03506 -0.621743 0
M  V30 3638 H 337.851 4.87564 -0.115377 0
M  V30 3639 H 336.856 4.93704 -2.41942 0
M  V30 3640 H 338.081 6.13062 -2.92115 0
M  V30 3641 H 336.027 6.52131 -0.711406 0
M  V30 3642 H 335.944 7.20043 -2.30379 0
M  V30 3643 H 337.212 7.69832 -1.22387 0
M  V30 3644 N 341.441 0.965919 1.2453 0
M  V30 3645 C 342.852 0.665929 1.7442 0
M  V30 3646 C 343.203 -0.818407 1.78316 0
M  V30 3647 O 342.328 -1.64037 1.41141 0
M  V30 3648 C 342.923 1.20211 3.16757 0
M  V30 3649 C 341.482 0.952059 3.6416 0
M  V30 3650 C 340.629 1.33848 2.42858 0
M  V30 3651 H 343.58 1.14144 1.10258 0
M  V30 3652 H 343.601 0.567544 3.76244 0
M  V30 3653 H 343.113 2.28244 3.13889 0
M  V30 3654 H 341.214 -0.112821 3.72429 0
M  V30 3655 H 341.327 1.59645 4.51719 0
M  V30 3656 H 339.691 0.756864 2.43195 0
M  V30 3657 H 340.474 2.42827 2.42673 0
M  V30 3658 N 342.919 -1.39368 0.735821 0
M  V30 3659 C 344.165 -2.00794 0.284544 0
M  V30 3660 C 344.498 -1.58255 -1.12557 0
M  V30 3661 O 343.773 -0.811819 -1.76748 0
M  V30 3662 C 344.056 -3.58011 0.387337 0
M  V30 3663 C 343.909 -4.10566 1.83728 0
M  V30 3664 C 345.228 -4.395 -0.22975 0
M  V30 3665 H 342.347 -0.729501 0.104866 0
M  V30 3666 H 344.989 -1.65564 0.93213 0
M  V30 3667 H 343.139 -3.88154 -0.164006 0
M  V30 3668 H 344.811 -3.91139 2.44556 0
M  V30 3669 H 343.054 -3.64095 2.35833 0
M  V30 3670 H 343.725 -5.19702 1.86047 0
M  V30 3671 H 346.201 -4.15406 0.240257 0
M  V30 3672 H 345.077 -5.48752 -0.127485 0
M  V30 3673 H 345.338 -4.22062 -1.3159 0
M  V30 3674 N 344.397 -0.483516 -1.5 0
M  V30 3675 C 345.643 0.0593261 -2.03313 0
M  V30 3676 C 345.998 1.36288 -1.35806 0
M  V30 3677 O 345.291 1.85519 -0.478897 0
M  V30 3678 C 345.485 0.286226 -3.56252 0
M  V30 3679 C 345.314 -0.993788 -4.38582 0
M  V30 3680 C 344.084 -1.54064 -4.81241 0
M  V30 3681 C 346.282 -1.89249 -4.78215 0
M  V30 3682 N 344.264 -2.76838 -5.47936 0
M  V30 3683 C 345.635 -2.96606 -5.44449 0
M  V30 3684 C 347.69 -1.90138 -4.60165 0
M  V30 3685 C 346.393 -4.04857 -5.94544 0
M  V30 3686 C 348.419 -2.97353 -5.1121 0
M  V30 3687 C 347.781 -4.03429 -5.77429 0
M  V30 3688 H 343.88 -0.0186322 -0.781778 0
M  V30 3689 H 346.464 -0.654489 -1.8337 0
M  V30 3690 H 344.635 0.969086 -3.76116 0
M  V30 3691 H 346.367 0.824515 -3.96212 0
M  V30 3692 H 343.122 -1.08813 -4.6093 0
M  V30 3693 H 343.546 -3.39221 -5.85882 0
M  V30 3694 H 348.188 -1.09441 -4.0839 0
M  V30 3695 H 345.906 -4.86363 -6.4535 0
M  V30 3696 H 349.492 -2.99039 -4.99066 0
M  V30 3697 H 348.372 -4.85025 -6.16214 0
M  V30 3698 N 345.875 1.56104 -0.216619 0
M  V30 3699 C 347.121 1.98466 0.417033 0
M  V30 3700 C 347.454 1.10403 1.59765 0
M  V30 3701 O 346.729 0.160632 1.93836 0
M  V30 3702 C 347.012 3.49769 0.85637 0
M  V30 3703 C 346.865 4.48606 -0.327546 0
M  V30 3704 C 348.184 4.05339 1.7143 0
M  V30 3705 H 345.303 0.721551 0.150112 0
M  V30 3706 H 347.945 1.87423 -0.311864 0
M  V30 3707 H 346.095 3.5931 1.47745 0
M  V30 3708 H 347.767 4.5108 -0.965618 0
M  V30 3709 H 346.01 4.22682 -0.975805 0
M  V30 3710 H 346.681 5.51995 0.0227149 0
M  V30 3711 H 349.157 3.98712 1.19031 0
M  V30 3712 H 348.033 5.11533 1.99061 0
M  V30 3713 H 348.294 3.51918 2.67593 0
M  V30 3714 N 347.353 -0.0568162 1.57498 0
M  V30 3715 C 348.286 -1.09817 2.00039 0
M  V30 3716 C 349.264 -1.3674 0.879819 0
M  V30 3717 O 350.448 -1.49863 1.14338 0
M  V30 3718 C 347.575 -2.43924 2.34986 0
M  V30 3719 C 346.621 -2.33039 3.57204 0
M  V30 3720 S 347.454 -1.7102 5.07457 0
M  V30 3721 C 348.61 -3.06674 5.45621 0
M  V30 3722 H 348.843 -0.735701 2.88053 0
M  V30 3723 H 346.376 -0.265871 1.52094 0
M  V30 3724 H 348.334 -3.2106 2.55795 0
M  V30 3725 H 346.995 -2.77327 1.47474 0
M  V30 3726 H 346.188 -3.31973 3.79223 0
M  V30 3727 H 345.79 -1.64043 3.36104 0
M  V30 3728 H 348.082 -4.03 5.44608 0
M  V30 3729 H 349.025 -2.8942 6.46252 0
M  V30 3730 H 349.433 -3.07969 4.73091 0
M  V30 3731 N 348.832 -1.54138 -0.328536 0
M  V30 3732 C 350.078 -1.73297 -1.06488 0
M  V30 3733 C 350.433 -0.497958 -1.85844 0
M  V30 3734 O 349.726 0.509591 -1.84699 0
M  V30 3735 C 349.92 -2.9457 -2.02393 0
M  V30 3736 C 349.749 -4.29747 -1.32467 0
M  V30 3737 C 348.519 -4.93987 -1.06324 0
M  V30 3738 C 350.717 -5.08903 -0.743137 0
M  V30 3739 N 348.699 -6.13005 -0.331359 0
M  V30 3740 C 350.07 -6.19836 -0.142602 0
M  V30 3741 C 352.125 -4.93699 -0.64546 0
M  V30 3742 C 350.828 -7.17224 0.546125 0
M  V30 3743 C 352.854 -5.91393 0.0295558 0
M  V30 3744 C 352.216 -7.01674 0.619056 0
M  V30 3745 H 348.315 -0.687017 -0.373539 0
M  V30 3746 H 350.899 -1.91589 -0.346659 0
M  V30 3747 H 349.07 -2.77752 -2.71493 0
M  V30 3748 H 350.802 -3.0238 -2.68977 0
M  V30 3749 H 347.557 -4.53824 -1.35428 0
M  V30 3750 H 347.981 -6.76997 0.0202939 0
M  V30 3751 H 352.623 -4.08589 -1.08695 0
M  V30 3752 H 350.341 -8.01896 0.999459 0
M  V30 3753 H 353.927 -5.81706 0.104705 0
M  V30 3754 H 352.807 -7.75971 1.13309 0
M  V30 3755 N 350.31 0.590341 -1.46126 0
M  V30 3756 C 351.243 1.71434 -1.50617 0
M  V30 3757 C 352.221 1.58543 -0.360948 0
M  V30 3758 O 353.405 1.79865 -0.563985 0
M  V30 3759 C 350.532 3.09422 -1.37753 0
M  V30 3760 C 349.578 3.40854 -2.5636 0
M  V30 3761 S 350.411 3.33773 -4.18755 0
M  V30 3762 C 351.567 4.74312 -4.08386 0
M  V30 3763 H 351.8 1.67364 -2.45717 0
M  V30 3764 H 349.333 0.76845 -1.33919 0
M  V30 3765 H 351.291 3.8903 -1.31018 0
M  V30 3766 H 349.952 3.10989 -0.440949 0
M  V30 3767 H 349.145 4.41368 -2.43332 0
M  V30 3768 H 348.747 2.68798 -2.60046 0
M  V30 3769 H 351.039 5.64522 -3.74595 0
M  V30 3770 H 351.982 4.92397 -5.08872 0
M  V30 3771 H 352.39 4.50803 -3.3976 0
M  V30 3772 N 351.788 1.33704 0.83433 0
M  V30 3773 C 353.204 1.13137 1.12571 0
M  V30 3774 C 353.404 -0.0747261 2.01361 0
M  V30 3775 O 352.46 -0.753647 2.4099 0
M  V30 3776 C 353.773 2.42105 1.78342 0
M  V30 3777 C 355.321 2.48054 1.90888 0
M  V30 3778 C 355.796 3.76995 2.60075 0
M  V30 3779 N 357.287 3.78092 2.67584 0
M  V30 3780 C 358.022 4.74574 3.21818 0
M  V30 3781 N 357.518 5.81434 3.76705 0
M  V30 3782 N 359.311 4.62044 3.20112 0
M  V30 3783 H 351.462 2.11 0.243489 0
M  V30 3784 H 353.725 0.932532 0.17055 0
M  V30 3785 H 353.431 3.30391 1.20561 0
M  V30 3786 H 353.305 2.54594 2.7832 0
M  V30 3787 H 355.692 1.60215 2.47821 0
M  V30 3788 H 355.773 2.39502 0.898459 0
M  V30 3789 H 355.417 4.65219 2.03799 0
M  V30 3790 H 355.347 3.82825 3.61597 0
M  V30 3791 H 357.838 3.00865 2.28667 0
M  V30 3792 H 358.151 6.51084 4.16305 0
M  V30 3793 H 356.496 5.85163 3.7498 0
M  V30 3794 H 359.687 3.77716 2.76493 0
M  V30 3795 H 359.86 5.37406 3.62076 0
M  V30 3796 N 353.266 -1.05314 1.17247 0
M  V30 3797 C 354.514 -1.77941 0.958194 0
M  V30 3798 C 354.835 -1.88089 -0.514556 0
M  V30 3799 O 354.105 -1.39676 -1.37359 0
M  V30 3800 H 352.685 -0.659116 0.351533 0
M  V30 3801 H 355.347 -1.27166 1.47699 0
M  V30 3802 H 354.443 -2.79663 1.38546 0
M  V30 3803 N 354.744 -0.972509 -1.24016 0
M  V30 3804 C 355.654 -0.5143 -2.28893 0
M  V30 3805 C 356.67 0.427078 -1.68677 0
M  V30 3806 O 357.846 0.298939 -1.99169 0
M  V30 3807 C 354.911 0.183598 -3.46214 0
M  V30 3808 C 353.972 -0.798202 -4.21814 0
M  V30 3809 C 353.205 -0.133514 -5.33533 0
M  V30 3810 O 353.428 1.07714 -5.60137 0
M  V30 3811 O 352.362 -0.828103 -5.96176 0
M  V30 3812 H 356.188 -1.38629 -2.70214 0
M  V30 3813 H 353.773 -0.739769 -1.29799 0
M  V30 3814 H 355.655 0.575433 -4.17453 0
M  V30 3815 H 354.33 1.03048 -3.0686 0
M  V30 3816 H 353.237 -1.24059 -3.52931 0
M  V30 3817 H 354.57 -1.61364 -4.64997 0
M  V30 3818 N 356.222 1.38976 -0.743202 0
M  V30 3819 C 357.154 2.29096 -0.0689228 0
M  V30 3820 C 358.167 1.47229 0.694791 0
M  V30 3821 O 359.356 1.70212 0.537597 0
M  V30 3822 C 356.456 3.25988 0.926548 0
M  V30 3823 C 355.629 4.36833 0.222647 0
M  V30 3824 C 354.688 5.13981 1.12739 0
M  V30 3825 O 353.714 5.6601 0.601795 0
M  V30 3826 N 354.916 5.25966 2.45641 0
M  V30 3827 H 357.681 2.87604 -0.842846 0
M  V30 3828 H 355.242 1.50645 -0.593109 0
M  V30 3829 H 357.234 3.74476 1.5346 0
M  V30 3830 H 355.804 2.68453 1.60162 0
M  V30 3831 H 355.024 3.90116 -0.565983 0
M  V30 3832 H 356.312 5.0811 -0.264841 0
M  V30 3833 H 355.71 4.85228 2.9081 0
M  V30 3834 H 354.267 5.77865 3.01522 0
M  V30 3835 N 357.7 0.491464 1.49741 0
M  V30 3836 C 358.61 -0.296835 2.32715 0
M  V30 3837 C 359.626 -0.976536 1.44013 0
M  V30 3838 O 360.802 -0.960023 1.77047 0
M  V30 3839 C 357.867 -1.35288 3.19215 0
M  V30 3840 C 356.928 -0.687632 4.23757 0
M  V30 3841 C 356.161 -1.69336 5.06123 0
M  V30 3842 O 356.384 -2.92219 4.89861 0
M  V30 3843 O 355.318 -1.25394 5.88693 0
M  V30 3844 H 359.144 0.382048 3.01287 0
M  V30 3845 H 356.729 0.252953 1.47243 0
M  V30 3846 H 358.611 -1.96411 3.72828 0
M  V30 3847 H 357.286 -2.01487 2.53347 0
M  V30 3848 H 356.193 -0.0369159 3.74082 0
M  V30 3849 H 357.526 -0.0682566 4.92153 0
M  V30 3850 N 359.178 -1.55987 0.224894 0
M  V30 3851 C 360.11 -2.17722 -0.716224 0
M  V30 3852 C 361.123 -1.14723 -1.15509 0
M  V30 3853 O 362.312 -1.41688 -1.08567 0
M  V30 3854 C 359.412 -2.74873 -1.98238 0
M  V30 3855 C 358.585 -4.03074 -1.69853 0
M  V30 3856 C 357.644 -4.44757 -2.81208 0
M  V30 3857 O 356.67 -5.11587 -2.49534 0
M  V30 3858 N 357.872 -4.10716 -4.10235 0
M  V30 3859 H 360.637 -2.99109 -0.188123 0
M  V30 3860 H 358.198 -1.6184 0.0440123 0
M  V30 3861 H 360.19 -2.99727 -2.7193 0
M  V30 3862 H 358.76 -1.9777 -2.42086 0
M  V30 3863 H 357.98 -3.86041 -0.797875 0
M  V30 3864 H 359.268 -4.86701 -1.48324 0
M  V30 3865 H 358.666 -3.57019 -4.38809 0
M  V30 3866 H 357.223 -4.40455 -4.80461 0
M  V30 3867 N 360.656 0.0484629 -1.57525 0
M  V30 3868 C 361.588 1.08222 -2.02041 0
M  V30 3869 C 362.601 1.33621 -0.930012 0
M  V30 3870 O 363.79 1.3145 -1.20761 0
M  V30 3871 C 360.89 2.42818 -2.36416 0
M  V30 3872 C 360.063 2.37049 -3.67596 0
M  V30 3873 C 359.122 3.53937 -3.89378 0
M  V30 3874 O 358.148 3.34308 -4.60681 0
M  V30 3875 N 359.35 4.75126 -3.3352 0
M  V30 3876 H 362.115 0.702946 -2.9134 0
M  V30 3877 H 359.676 0.236745 -1.6016 0
M  V30 3878 H 361.668 3.197 -2.48141 0
M  V30 3879 H 360.238 2.72661 -1.52888 0
M  V30 3880 H 359.458 1.45395 -3.66407 0
M  V30 3881 H 360.746 2.30318 -4.53686 0
M  V30 3882 H 360.144 4.93976 -2.75688 0
M  V30 3883 H 358.701 5.49439 -3.50656 0
M  V30 3884 N 362.134 1.5431 0.320358 0
M  V30 3885 C 363.382 1.72327 1.05583 0
M  V30 3886 C 363.703 0.50149 1.88441 0
M  V30 3887 O 362.973 -0.48448 1.89815 0
M  V30 3888 H 361.553 0.635387 0.3928 0
M  V30 3889 H 364.215 1.91621 0.356019 0
M  V30 3890 H 363.311 2.60426 1.72003 0
M  V30 3891 N 363.613 -0.582584 1.46437 0
M  V30 3892 C 364.841 -1.36682 1.55324 0
M  V30 3893 C 365.256 -1.87796 0.194409 0
M  V30 3894 O 364.613 -1.63623 -0.808318 0
M  V30 3895 C 364.664 -2.55426 2.55812 0
M  V30 3896 O 364.385 -2.0643 3.86417 0
M  V30 3897 C 365.886 -3.47976 2.74641 0
M  V30 3898 H 363.106 -0.417545 0.525259 0
M  V30 3899 H 365.65 -0.708219 1.91845 0
M  V30 3900 H 363.805 -3.17275 2.22295 0
M  V30 3901 H 364.219 -2.83762 4.41111 0
M  V30 3902 H 365.693 -4.27775 3.48874 0
M  V30 3903 H 366.17 -3.99919 1.81553 0
M  V30 3904 H 366.776 -2.91962 3.09255 0
M  V30 3905 N 365.091 -1.34144 -0.827227 0
M  V30 3906 C 366.023 -1.21206 -1.9453 0
M  V30 3907 C 367.036 -0.140176 -1.62195 0
M  V30 3908 O 368.225 -0.391647 -1.7415 0
M  V30 3909 C 365.325 -0.839141 -3.28347 0
M  V30 3910 C 364.498 -2.0051 -3.88734 0
M  V30 3911 C 363.557 -1.61128 -5.00923 0
M  V30 3912 O 362.583 -2.32726 -5.19449 0
M  V30 3913 N 363.785 -0.522958 -5.7814 0
M  V30 3914 H 366.55 -2.17525 -2.06162 0
M  V30 3915 H 364.111 -1.27043 -1.00358 0
M  V30 3916 H 366.103 -0.557556 -4.00841 0
M  V30 3917 H 364.673 0.0337293 -3.12582 0
M  V30 3918 H 363.893 -2.45166 -3.08686 0
M  V30 3919 H 365.181 -2.78498 -4.25812 0
M  V30 3920 H 364.579 0.0723518 -5.65654 0
M  V30 3921 H 363.136 -0.301089 -6.51104 0
M  V30 3922 N 366.569 1.04691 -1.17803 0
M  V30 3923 C 367.985 1.29963 -0.926379 0
M  V30 3924 C 368.185 1.97251 0.411635 0
M  V30 3925 O 367.241 2.24922 1.14744 0
M  V30 3926 C 368.554 2.16447 -2.08737 0
M  V30 3927 C 370.102 2.29814 -2.12496 0
M  V30 3928 C 370.577 3.19661 -3.27995 0
M  V30 3929 N 372.068 3.27247 -3.27816 0
M  V30 3930 C 372.803 3.96906 -4.13827 0
M  V30 3931 N 372.299 4.6895 -5.09959 0
M  V30 3932 N 374.092 3.93122 -4.01761 0
M  V30 3933 H 366.243 0.594182 -2.0392 0
M  V30 3934 H 368.506 0.324649 -0.890678 0
M  V30 3935 H 368.212 1.74304 -3.05469 0
M  V30 3936 H 368.086 3.17103 -2.04268 0
M  V30 3937 H 370.473 2.71196 -1.16347 0
M  V30 3938 H 370.554 1.2877 -2.21025 0
M  V30 3939 H 370.198 2.78991 -4.24413 0
M  V30 3940 H 370.128 4.20722 -3.16703 0
M  V30 3941 H 372.619 2.75921 -2.58217 0
M  V30 3942 H 372.932 5.19679 -5.71974 0
M  V30 3943 H 371.277 4.67875 -5.13924 0
M  V30 3944 H 374.468 3.35967 -3.2595 0
M  V30 3945 H 374.641 4.47139 -4.6901 0
M  V30 3946 N 368.047 0.979072 1.23499 0
M  V30 3947 C 369.295 0.645941 1.91499 0
M  V30 3948 C 369.616 -0.822948 1.76784 0
M  V30 3949 O 368.886 -1.58854 1.14639 0
M  V30 3950 H 367.466 0.235919 0.708767 0
M  V30 3951 H 370.128 1.2426 1.50152 0
M  V30 3952 H 369.224 0.896411 2.9895 0
M  V30 3953 N 369.525 -1.3858 0.750561 0
M  V30 3954 C 370.802 -1.94231 0.231009 0
M  V30 3955 C 371.182 -1.68611 -1.27018 0
M  V30 3956 O 370.53 -1.02296 -2.04323 0
M  V30 3957 C 370.74 -3.44123 0.581428 0
M  V30 3958 C 372.088 -4.2116 0.539389 0
M  V30 3959 O 373.112 -3.52391 0.519541 0
M  V30 3960 O 371.971 -5.43749 0.54765 0
M  V30 3961 H 369.065 -0.825639 0.0474263 0
M  V30 3962 H 371.611 -1.4799 0.830478 0
M  V30 3963 H 370.383 -3.56267 1.61833 0
M  V30 3964 H 370.006 -3.97573 -0.0462047 0
M  V30 3965 N 371.003 -0.499398 -1.49478 0
M  V30 3966 C 372.252 0.0475259 -2.01644 0
M  V30 3967 C 372.565 1.38195 -1.38425 0
M  V30 3968 O 373.771 2.01547 -1.8191 0
M  V30 3969 C 372.227 0.135164 -3.59646 0
M  V30 3970 C 371.835 -1.19252 -4.31837 0
M  V30 3971 C 373.579 0.632538 -4.19761 0
M  V30 3972 C 371.486 -1.06713 -5.81693 0
M  V30 3973 H 370.416 0.0215349 -0.753692 0
M  V30 3974 H 373.067 -0.638577 -1.7203 0
M  V30 3975 H 371.449 0.885681 -3.85969 0
M  V30 3976 H 372.623 -1.9562 -4.17216 0
M  V30 3977 H 370.938 -1.62321 -3.83459 0
M  V30 3978 H 373.535 0.743833 -5.29501 0
M  V30 3979 H 373.878 1.63098 -3.83021 0
M  V30 3980 H 374.411 -0.0613987 -3.97753 0
M  V30 3981 H 371.15 -2.03979 -6.22955 0
M  V30 3982 H 370.67 -0.344307 -5.98811 0
M  V30 3983 H 372.349 -0.745208 -6.42694 0
M  V30 3984 N 372.481 1.55866 -0.233164 0
M  V30 3985 C 373.411 2.23783 0.666599 0
M  V30 3986 C 374.392 1.21343 1.19205 0
M  V30 3987 O 375.577 1.4996 1.23392 0
M  V30 3988 C 372.707 2.92671 1.86978 0
M  V30 3989 C 371.661 4.01682 1.47768 0
M  V30 3990 C 370.987 4.57926 2.76058 0
M  V30 3991 C 372.287 5.18126 0.658993 0
M  V30 3992 H 373.981 2.99232 0.100306 0
M  V30 3993 H 371.527 1.43924 0.046804 0
M  V30 3994 H 373.48 3.3888 2.50476 0
M  V30 3995 H 372.204 2.14688 2.46123 0
M  V30 3996 H 370.863 3.56222 0.866106 0
M  V30 3997 H 370.511 3.76659 3.33372 0
M  V30 3998 H 370.211 5.31505 2.50552 0
M  V30 3999 H 371.735 5.06859 3.40479 0
M  V30 4000 H 373.149 5.60644 1.19795 0
M  V30 4001 H 371.546 5.98009 0.500552 0
M  V30 4002 H 372.616 4.83763 -0.331856 0
M  V30 4003 N 373.959 -0.0401083 1.57549 0
M  V30 4004 C 375.37 -0.588097 1.77196 0
M  V30 4005 C 375.721 -1.76209 0.862832 0
M  V30 4006 O 374.846 -2.16331 0.0548389 0
M  V30 4007 C 375.441 -1.07363 3.21339 0
M  V30 4008 C 374 -1.56723 3.42221 0
M  V30 4009 C 373.147 -0.50041 2.72747 0
M  V30 4010 H 376.098 0.186119 1.57605 0
M  V30 4011 H 376.119 -1.94143 3.27244 0
M  V30 4012 H 375.631 -0.218975 3.87482 0
M  V30 4013 H 373.732 -2.4441 2.81237 0
M  V30 4014 H 373.845 -1.62234 4.50796 0
M  V30 4015 H 372.209 -0.952894 2.36203 0
M  V30 4016 H 372.992 0.344599 3.41566 0
M  V30 4017 N 375.437 -1.54477 -0.31217 0
M  V30 4018 C 376.662 -1.77526 -1.07235 0
M  V30 4019 C 377.087 -0.527775 -1.80544 0
M  V30 4020 O 376.445 0.52121 -1.73646 0
M  V30 4021 C 376.493 -2.97535 -2.03728 0
M  V30 4022 O 375.597 -2.69878 -3.11833 0
M  V30 4023 H 374.938 -0.58792 -0.30862 0
M  V30 4024 H 377.468 -2.01532 -0.352993 0
M  V30 4025 H 377.478 -3.25198 -2.46395 0
M  V30 4026 H 376.153 -3.87996 -1.49774 0
M  V30 4027 H 374.73 -2.53199 -2.7376 0
M  V30 4028 N 376.915 0.57481 -1.46744 0
M  V30 4029 C 377.878 1.66533 -1.57478 0
M  V30 4030 C 378.878 1.54338 -0.451263 0
M  V30 4031 O 380.068 1.58814 -0.715813 0
M  V30 4032 C 377.2 3.05999 -1.50259 0
M  V30 4033 H 378.393 1.58372 -2.54673 0
M  V30 4034 H 375.946 0.793301 -1.34672 0
M  V30 4035 H 376.681 3.19709 -0.543725 0
M  V30 4036 H 376.466 3.16259 -2.31781 0
M  V30 4037 H 377.956 3.8537 -1.60872 0
M  V30 4038 N 378.394 1.34581 0.820102 0
M  V30 4039 C 379.671 1.17675 1.56244 0
M  V30 4040 C 380.051 -0.249541 2.0962 0
M  V30 4041 O 379.399 -1.25125 1.91196 0
M  V30 4042 C 379.609 2.23364 2.6816 0
M  V30 4043 C 380.957 2.58485 3.36854 0
M  V30 4044 O 381.981 2.22175 2.78418 0
M  V30 4045 O 380.84 3.20868 4.42386 0
M  V30 4046 H 377.934 0.456333 0.689702 0
M  V30 4047 H 380.48 1.46222 0.861231 0
M  V30 4048 H 379.252 3.19087 2.26493 0
M  V30 4049 H 378.875 1.96009 3.45928 0
M  V30 4050 N 379.872 -1.04064 1.18357 0
M  V30 4051 C 381.12 -1.76915 0.977013 0
M  V30 4052 C 381.441 -1.88624 -0.494577 0
M  V30 4053 O 380.711 -1.41125 -1.3587 0
M  V30 4054 H 379.291 -0.65535 0.358504 0
M  V30 4055 H 381.953 -1.25592 1.49039 0
M  V30 4056 H 381.049 -2.78178 1.41504 0
M  V30 4057 N 381.35 -0.985608 -1.22978 0
M  V30 4058 C 382.578 -0.675582 -1.95559 0
M  V30 4059 C 382.993 0.758413 -1.72897 0
M  V30 4060 O 382.35 1.51094 -1.02357 0
M  V30 4061 C 382.401 -0.96293 -3.48439 0
M  V30 4062 O 382.122 -2.34057 -3.70336 0
M  V30 4063 C 383.623 -0.669585 -4.38214 0
M  V30 4064 H 380.843 -0.250523 -0.622478 0
M  V30 4065 H 383.387 -1.3184 -1.56328 0
M  V30 4066 H 381.542 -0.366033 -3.85667 0
M  V30 4067 H 381.956 -2.43424 -4.64591 0
M  V30 4068 H 383.43 -0.920967 -5.44263 0
M  V30 4069 H 383.907 0.396383 -4.37408 0
M  V30 4070 H 384.513 -1.2472 -4.06602 0
M  V30 4071 N 382.828 1.3818 -0.7579 0
M  V30 4072 C 384.074 2.0078 -0.325423 0
M  V30 4073 C 384.429 1.59085 1.08211 0
M  V30 4074 O 383.722 0.820394 1.73148 0
M  V30 4075 C 383.916 3.55252 -0.391218 0
M  V30 4076 C 383.745 4.11947 -1.8036 0
M  V30 4077 C 382.515 4.43519 -2.42113 0
M  V30 4078 C 384.713 4.33908 -2.76095 0
M  V30 4079 N 382.695 4.85847 -3.75267 0
M  V30 4080 C 384.066 4.78692 -3.94023 0
M  V30 4081 C 386.121 4.16015 -2.73561 0
M  V30 4082 C 384.824 5.07459 -5.09782 0
M  V30 4083 C 386.85 4.45909 -3.88483 0
M  V30 4084 C 386.212 4.90921 -5.0515 0
M  V30 4085 H 382.311 0.764215 -0.165831 0
M  V30 4086 H 384.895 1.67724 -0.988776 0
M  V30 4087 H 383.066 3.87646 0.241886 0
M  V30 4088 H 384.798 4.04653 0.061989 0
M  V30 4089 H 381.553 4.32113 -1.93842 0
M  V30 4090 H 381.977 5.11339 -4.4369 0
M  V30 4091 H 386.619 3.80399 -1.84544 0
M  V30 4092 H 384.337 5.4197 -5.99412 0
M  V30 4093 H 387.923 4.33666 -3.87847 0
M  V30 4094 H 386.803 5.1361 -5.92599 0
M  V30 4095 N 384.306 0.507319 1.49211 0
M  V30 4096 C 385.536 -0.0315292 2.06576 0
M  V30 4097 C 385.944 -1.30791 1.36713 0
M  V30 4098 O 385.287 -1.78324 0.441181 0
M  V30 4099 C 385.349 -0.349104 3.57801 0
M  V30 4100 C 385.013 0.830475 4.49391 0
M  V30 4101 C 386.01 1.72271 4.90529 0
M  V30 4102 C 383.695 1.03107 4.91604 0
M  V30 4103 C 385.689 2.79964 5.72625 0
M  V30 4104 C 383.376 2.11116 5.73475 0
M  V30 4105 C 384.374 2.99379 6.1389 0
M  V30 4106 O 384.062 4.05523 6.94123 0
M  V30 4107 H 383.794 0.0201002 0.675701 0
M  V30 4108 H 386.348 0.705737 1.92895 0
M  V30 4109 H 384.578 -1.14005 3.69513 0
M  V30 4110 H 386.267 -0.827319 3.97379 0
M  V30 4111 H 387.033 1.57958 4.58557 0
M  V30 4112 H 382.912 0.353417 4.59643 0
M  V30 4113 H 386.456 3.48884 6.04091 0
M  V30 4114 H 382.353 2.25421 6.0486 0
M  V30 4115 H 383.121 4.02953 7.1244 0
M  V30 4116 N 385.784 -1.5574 0.241426 0
M  V30 4117 C 386.714 -2.24133 -0.654722 0
M  V30 4118 C 387.695 -1.21974 -1.1856 0
M  V30 4119 O 388.88 -1.50612 -1.22595 0
M  V30 4120 C 386.01 -2.93659 -1.85423 0
M  V30 4121 C 384.964 -4.0246 -1.45636 0
M  V30 4122 C 384.29 -4.59383 -2.73626 0
M  V30 4123 C 385.59 -5.18468 -0.631506 0
M  V30 4124 H 387.284 -2.99281 -0.0844353 0
M  V30 4125 H 384.83 -1.43947 -0.0391707 0
M  V30 4126 H 386.783 -3.40203 -2.48676 0
M  V30 4127 H 385.507 -2.15991 -2.44981 0
M  V30 4128 H 384.166 -3.56676 -0.847202 0
M  V30 4129 H 383.814 -3.78422 -3.3137 0
M  V30 4130 H 383.514 -5.32826 -2.4773 0
M  V30 4131 H 385.038 -5.08658 -3.37786 0
M  V30 4132 H 386.452 -5.61272 -1.1682 0
M  V30 4133 H 384.849 -5.98266 -0.468831 0
M  V30 4134 H 385.919 -4.8358 0.357506 0
M  V30 4135 N 387.262 0.0317525 -1.57568 0
M  V30 4136 C 388.678 0.38735 -1.54828 0
M  V30 4137 C 388.878 1.7677 -0.967187 0
M  V30 4138 O 387.934 2.45581 -0.587063 0
M  V30 4139 C 389.247 0.291667 -2.99282 0
M  V30 4140 C 390.795 0.368946 -3.10818 0
M  V30 4141 C 391.27 0.302741 -4.56998 0
M  V30 4142 N 392.761 0.361617 -4.61786 0
M  V30 4143 C 393.496 0.333238 -5.72431 0
M  V30 4144 N 392.992 0.257308 -6.92322 0
M  V30 4145 N 394.785 0.382769 -5.60795 0
M  V30 4146 H 386.936 -0.871609 -1.93692 0
M  V30 4147 H 389.199 -0.331161 -0.888277 0
M  V30 4148 H 388.905 -0.656794 -3.45513 0
M  V30 4149 H 388.779 1.08638 -3.61217 0
M  V30 4150 H 391.166 1.30784 -2.64536 0
M  V30 4151 H 391.247 -0.455066 -2.5172 0
M  V30 4152 H 390.891 -0.632473 -5.03947 0
M  V30 4153 H 390.821 1.14482 -5.14005 0
M  V30 4154 H 393.312 0.422923 -3.75526 0
M  V30 4155 H 393.625 0.24068 -7.72425 0
M  V30 4156 H 391.97 0.223396 -6.94641 0
M  V30 4157 H 395.161 0.44006 -4.66027 0
M  V30 4158 H 395.334 0.357184 -6.47015 0
M  V30 4159 N 388.74 1.54641 0.303973 0
M  V30 4160 C 389.703 1.84646 1.35789 0
M  V30 4161 C 390.703 0.7192 1.4382 0
M  V30 4162 O 391.893 0.987491 1.43507 0
M  V30 4163 C 389.025 2.02407 2.74307 0
M  V30 4164 H 390.218 2.78829 1.10429 0
M  V30 4165 H 387.771 1.46658 0.540487 0
M  V30 4166 H 388.506 1.10502 3.04893 0
M  V30 4167 H 388.291 2.84453 2.69868 0
M  V30 4168 H 389.781 2.27002 3.50514 0
M  V30 4169 N 390.218 -0.567019 1.47046 0
M  V30 4170 C 391.446 -1.35027 1.56765 0
M  V30 4171 C 391.861 -1.8758 0.214316 0
M  V30 4172 O 391.218 -1.64471 -0.790919 0
M  V30 4173 C 391.269 -2.52698 2.58507 0
M  V30 4174 O 390.99 -2.0232 3.88585 0
M  V30 4175 C 392.491 -3.45043 2.78316 0
M  V30 4176 H 389.711 -0.41195 0.529658 0
M  V30 4177 H 392.255 -0.687832 1.92585 0
M  V30 4178 H 390.41 -3.149 2.25648 0
M  V30 4179 H 390.824 -2.79068 4.44096 0
M  V30 4180 H 392.298 -4.2405 3.53391 0
M  V30 4181 H 392.775 -3.97971 1.85784 0
M  V30 4182 H 393.381 -2.88665 3.12334 0
M  V30 4183 N 391.696 -1.35014 -0.812953 0
M  V30 4184 C 392.626 -1.30069 -1.93919 0
M  V30 4185 C 393.607 -0.176275 -1.69184 0
M  V30 4186 O 394.792 -0.370227 -1.90638 0
M  V30 4187 C 391.922 -1.06547 -3.30552 0
M  V30 4188 C 390.876 -2.15561 -3.69753 0
M  V30 4189 C 390.202 -1.77214 -5.04479 0
M  V30 4190 C 391.502 -3.57476 -3.808 0
M  V30 4191 H 393.196 -2.24303 -1.98314 0
M  V30 4192 H 390.742 -1.07977 -0.952736 0
M  V30 4193 H 392.695 -1.01729 -4.08937 0
M  V30 4194 H 391.419 -0.0875719 -3.26483 0
M  V30 4195 H 390.078 -2.19466 -2.9365 0
M  V30 4196 H 389.726 -0.780589 -4.96906 0
M  V30 4197 H 389.426 -2.50184 -5.31678 0
M  V30 4198 H 390.95 -1.7391 -5.8531 0
M  V30 4199 H 392.364 -3.55929 -4.4943 0
M  V30 4200 H 390.761 -4.29152 -4.19462 0
M  V30 4201 H 391.831 -3.94091 -2.82525 0
M  V30 4202 N 393.175 1.03435 -1.18907 0
M  V30 4203 C 394.085 2.15075 -0.937015 0
M  V30 4204 C 395.101 1.73706 0.101085 0
M  V30 4205 O 396.277 2.01232 -0.0822948 0
M  V30 4206 C 393.342 3.43458 -0.473057 0
M  V30 4207 C 392.403 3.99172 -1.57989 0
M  V30 4208 C 391.636 5.21427 -1.13797 0
M  V30 4209 O 391.859 5.704 0.000725941 0
M  V30 4210 O 390.793 5.69837 -1.9383 0
M  V30 4211 H 394.619 2.39198 -1.87131 0
M  V30 4212 H 392.204 1.13506 -0.971427 0
M  V30 4213 H 394.086 4.20811 -0.222702 0
M  V30 4214 H 392.761 3.20793 0.432869 0
M  V30 4215 H 391.668 3.23178 -1.88433 0
M  V30 4216 H 393.001 4.2619 -2.46217 0
M  V30 4217 N 394.653 0.992116 1.22453 0
M  V30 4218 C 395.899 0.668523 1.91464 0
M  V30 4219 C 396.232 -0.797313 1.77078 0
M  V30 4220 O 395.507 -1.5765 1.13916 0
M  V30 4221 C 395.79 1.07424 3.43703 0
M  V30 4222 C 395.643 2.59857 3.67143 0
M  V30 4223 C 396.962 0.626891 4.35612 0
M  V30 4224 H 394.081 0.244341 0.695318 0
M  V30 4225 H 396.723 1.2355 1.44345 0
M  V30 4226 H 394.873 0.591816 3.83966 0
M  V30 4227 H 396.545 3.15764 3.3629 0
M  V30 4228 H 394.788 3.01961 3.11451 0
M  V30 4229 H 395.459 2.83296 4.73759 0
M  V30 4230 H 397.935 1.04125 4.02861 0
M  V30 4231 H 396.811 0.939076 5.40807 0
M  V30 4232 H 397.072 -0.472457 4.39568 0
M  V30 4233 N 396.131 -1.37776 0.765217 0
M  V30 4234 C 397.094 -2.28686 0.153416 0
M  V30 4235 C 398.094 -1.47727 -0.635081 0
M  V30 4236 O 399.284 -1.68027 -0.459632 0
M  V30 4237 C 396.416 -3.31608 -0.790495 0
M  V30 4238 H 397.609 -2.84297 0.954723 0
M  V30 4239 H 395.162 -1.46932 0.53299 0
M  V30 4240 H 395.897 -2.81109 -1.61705 0
M  V30 4241 H 395.682 -3.9144 -0.227348 0
M  V30 4242 H 397.172 -3.99559 -1.21419 0
M  V30 4243 N 397.609 -0.515225 -1.4894 0
M  V30 4244 C 398.572 0.244681 -2.2789 0
M  V30 4245 C 399.572 0.881166 -1.34507 0
M  V30 4246 O 400.762 0.743497 -1.57537 0
M  V30 4247 C 397.894 1.35247 -3.12923 0
M  V30 4248 H 399.087 -0.448289 -2.96531 0
M  V30 4249 H 396.64 -0.270656 -1.53939 0
M  V30 4250 H 397.375 2.07916 -2.48881 0
M  V30 4251 H 397.16 0.901374 -3.81599 0
M  V30 4252 H 398.65 1.88737 -3.72516 0
M  V30 4253 N 399.087 1.5561 -0.249682 0
M  V30 4254 C 400.335 1.98618 0.373548 0
M  V30 4255 C 400.656 1.13919 1.58264 0
M  V30 4256 O 399.926 0.222637 1.94631 0
M  V30 4257 H 398.506 0.733571 0.141006 0
M  V30 4258 H 401.168 1.91748 -0.349117 0
M  V30 4259 H 400.264 3.04584 0.680796 0
M  V30 4260 N 400.565 -0.0233959 1.57583 0
M  V30 4261 C 401.475 -1.03907 2.10334 0
M  V30 4262 C 402.491 -1.39257 1.04323 0
M  V30 4263 O 403.667 -1.48462 1.36091 0
M  V30 4264 C 400.732 -2.31938 2.57693 0
M  V30 4265 C 399.793 -2.03117 3.78209 0
M  V30 4266 C 399.026 -3.25043 4.233 0
M  V30 4267 O 399.249 -4.35916 3.67876 0
M  V30 4268 O 398.183 -3.10411 5.15683 0
M  V30 4269 H 402.009 -0.620748 2.97288 0
M  V30 4270 H 399.594 -0.240743 1.47448 0
M  V30 4271 H 401.476 -3.07196 2.88458 0
M  V30 4272 H 400.151 -2.73055 1.73847 0
M  V30 4273 H 399.058 -1.25408 3.52454 0
M  V30 4274 H 400.391 -1.66852 4.63056 0
M  V30 4275 N 402.043 -1.548 -0.295768 0
M  V30 4276 C 403.006 -1.85363 -1.34808 0
M  V30 4277 C 404.006 -0.726817 -1.43436 0
M  V30 4278 O 405.196 -0.995088 -1.42981 0
M  V30 4279 C 402.328 -2.03859 -2.73229 0
M  V30 4280 H 403.521 -2.7941 -1.08949 0
M  V30 4281 H 401.074 -1.46942 -0.532702 0
M  V30 4282 H 401.809 -1.12117 -3.04303 0
M  V30 4283 H 401.594 -2.8588 -2.68356 0
M  V30 4284 H 403.084 -2.28857 -3.49305 0
M  V30 4285 N 403.521 0.559213 -1.47345 0
M  V30 4286 C 404.484 1.64854 -1.59235 0
M  V30 4287 C 405.484 1.53851 -0.467607 0
M  V30 4288 O 406.674 1.58045 -0.732617 0
M  V30 4289 C 403.806 3.04388 -1.53496 0
M  V30 4290 H 404.999 1.55662 -2.56339 0
M  V30 4291 H 402.552 0.778973 -1.35505 0
M  V30 4292 H 403.287 3.19115 -0.577604 0
M  V30 4293 H 403.072 3.13783 -2.35123 0
M  V30 4294 H 404.562 3.83642 -1.6495 0
M  V30 4295 N 404.999 1.35443 0.805782 0
M  V30 4296 C 406.276 1.19325 1.54987 0
M  V30 4297 C 406.656 -0.227294 2.09873 0
M  V30 4298 O 406.004 -1.2309 1.92512 0
M  V30 4299 C 406.214 2.26196 2.65775 0
M  V30 4300 C 407.562 2.62043 3.34094 0
M  V30 4301 O 408.586 2.25115 2.76046 0
M  V30 4302 O 407.445 3.25542 4.38958 0
M  V30 4303 H 404.539 0.463623 0.684823 0
M  V30 4304 H 407.085 1.47127 0.845674 0
M  V30 4305 H 405.857 3.21471 2.23096 0
M  V30 4306 H 405.48 1.99667 3.43829 0
M  V30 4307 N 406.477 -1.02803 1.19454 0
M  V30 4308 C 407.407 -2.12999 0.956758 0
M  V30 4309 C 408.388 -1.69743 -0.110188 0
M  V30 4310 O 409.573 -1.94148 0.0450038 0
M  V30 4311 C 406.703 -3.43746 0.495553 0
M  V30 4312 C 405.657 -4.00688 1.50443 0
M  V30 4313 C 404.983 -5.27067 0.900275 0
M  V30 4314 C 406.283 -4.35397 2.8849 0
M  V30 4315 H 407.977 -2.33148 1.87836 0
M  V30 4316 H 405.523 -1.12045 0.904539 0
M  V30 4317 H 407.476 -4.2021 0.316493 0
M  V30 4318 H 406.2 -3.23321 -0.461646 0
M  V30 4319 H 404.859 -3.2632 1.67065 0
M  V30 4320 H 404.507 -5.02959 -0.064503 0
M  V30 4321 H 404.207 -5.66127 1.57397 0
M  V30 4322 H 405.731 -6.06196 0.73203 0
M  V30 4323 H 407.145 -5.02795 2.75446 0
M  V30 4324 H 405.542 -4.85541 3.52661 0
M  V30 4325 H 406.612 -3.44662 3.41081 0
M  V30 4326 N 407.956 -0.998596 -1.21925 0
M  V30 4327 C 409.181 -0.696015 -1.95372 0
M  V30 4328 C 409.606 0.733826 -1.73195 0
M  V30 4329 O 408.964 1.50242 -1.01474 0
M  V30 4330 C 409.012 -1.01466 -3.4603 0
M  V30 4331 O 408.116 -0.116415 -4.12236 0
M  V30 4332 H 407.457 -0.259938 -0.611006 0
M  V30 4333 H 409.987 -1.33711 -1.54863 0
M  V30 4334 H 409.997 -0.958855 -3.96573 0
M  V30 4335 H 408.672 -2.05653 -3.61497 0
M  V30 4336 H 407.249 -0.228193 -3.72201 0
M  V30 4337 N 409.434 1.37368 -0.772513 0
M  V30 4338 C 410.674 2.01512 -0.342361 0
M  V30 4339 C 411.038 1.59997 1.06136 0
M  V30 4340 O 412.239 2.16609 1.59167 0
M  V30 4341 C 410.51 3.54134 -0.482048 0
M  V30 4342 S 412.069 4.38585 -0.137272 0
M  V30 4343 H 408.887 0.698699 -0.131686 0
M  V30 4344 H 411.489 1.67552 -1.0073 0
M  V30 4345 H 410.193 3.81837 -1.50428 0
M  V30 4346 H 409.724 3.92894 0.199413 0
M  V30 4347 H 411.739 4.84594 1.06692 0
M  V30 4348 N 410.912 0.523116 1.48665 0
M  V30 4349 C 412.328 0.180511 1.58576 0
M  V30 4350 C 412.528 -1.31597 1.52592 0
M  V30 4351 O 411.584 -2.0937 1.4114 0
M  V30 4352 C 412.897 0.776949 2.90489 0
M  V30 4353 C 414.445 0.745058 3.04003 0
M  V30 4354 C 414.92 1.31995 4.38567 0
M  V30 4355 N 416.411 1.28162 4.45117 0
M  V30 4356 C 417.146 1.6964 5.47731 0
M  V30 4357 N 416.642 2.18816 6.57337 0
M  V30 4358 N 418.435 1.6092 5.38573 0
M  V30 4359 H 410.586 1.4958 1.50797 0
M  V30 4360 H 412.849 0.621772 0.715614 0
M  V30 4361 H 412.555 1.82732 3.00503 0
M  V30 4362 H 412.429 0.25007 3.7637 0
M  V30 4363 H 414.816 -0.296532 2.93606 0
M  V30 4364 H 414.897 1.30933 2.1975 0
M  V30 4365 H 414.541 2.36043 4.49718 0
M  V30 4366 H 414.471 0.731418 5.21496 0
M  V30 4367 H 416.962 0.92155 3.66491 0
M  V30 4368 H 417.275 2.48478 7.31764 0
M  V30 4369 H 415.62 2.22805 6.58318 0
M  V30 4370 H 418.811 1.22304 4.5184 0
M  V30 4371 H 418.984 1.93567 6.18414 0
M  V30 4372 N 412.39 -1.55475 0.257931 0
M  V30 4373 C 413.636 -1.99502 -0.364266 0
M  V30 4374 C 413.969 -1.146 -1.56782 0
M  V30 4375 O 413.244 -0.211968 -1.93342 0
M  V30 4376 C 413.527 -3.51917 -0.763333 0
M  V30 4377 C 413.38 -4.4758 0.446371 0
M  V30 4378 C 414.699 -4.09742 -1.60623 0
M  V30 4379 H 411.818 -0.725277 -0.130929 0
M  V30 4380 H 414.46 -1.8653 0.361446 0
M  V30 4381 H 412.61 -3.63101 -1.38166 0
M  V30 4382 H 414.282 -4.48362 1.08487 0
M  V30 4383 H 412.525 -4.19947 1.08753 0
M  V30 4384 H 413.196 -5.51862 0.123645 0
M  V30 4385 H 415.672 -4.01727 -1.08418 0
M  V30 4386 H 414.548 -5.16631 -1.85429 0
M  V30 4387 H 414.809 -3.58889 -2.58169 0
M  V30 4388 N 413.868 0.0150385 -1.57593 0
M  V30 4389 C 414.815 1.01126 -2.07466 0
M  V30 4390 C 415.785 1.35064 -0.966794 0
M  V30 4391 O 416.97 1.4516 -1.23827 0
M  V30 4392 C 414.11 2.30276 -2.57035 0
M  V30 4393 C 413.223 2.02373 -3.81666 0
M  V30 4394 C 412.358 3.25496 -4.19793 0
M  V30 4395 C 411.397 2.93211 -5.37303 0
M  V30 4396 N 410.534 4.08826 -5.70794 0
M  V30 4397 H 415.374 0.57901 -2.92321 0
M  V30 4398 H 412.911 0.27426 -1.44521 0
M  V30 4399 H 414.869 3.05757 -2.83846 0
M  V30 4400 H 413.499 2.71197 -1.75077 0
M  V30 4401 H 412.551 1.17327 -3.61854 0
M  V30 4402 H 413.863 1.74567 -4.67256 0
M  V30 4403 H 413.017 4.09333 -4.47807 0
M  V30 4404 H 411.756 3.56428 -3.32882 0
M  V30 4405 H 410.761 2.07777 -5.09027 0
M  V30 4406 H 411.986 2.63542 -6.25877 0
M  V30 4407 H 409.932 4.39682 -4.86842 0
M  V30 4408 H 409.849 3.84491 -6.50924 0
M  V30 4409 H 411.117 4.93496 -6.03392 0
M  V30 4410 N 415.346 1.54954 0.287554 0
M  V30 4411 C 416.296 1.8322 1.357 0
M  V30 4412 C 417.28 0.690152 1.45347 0
M  V30 4413 O 418.472 0.951137 1.49273 0
M  V30 4414 C 415.601 2.09481 2.71979 0
M  V30 4415 C 414.687 3.29906 2.66502 0
M  V30 4416 N 415.078 4.50154 2.30641 0
M  V30 4417 C 413.376 3.32203 2.97585 0
M  V30 4418 C 414.077 5.32209 2.34794 0
M  V30 4419 N 413.053 4.70258 2.72688 0
M  V30 4420 H 416.855 2.73746 1.0696 0
M  V30 4421 H 414.369 1.54635 0.496167 0
M  V30 4422 H 416.366 2.27882 3.49107 0
M  V30 4423 H 415.026 1.2023 3.0162 0
M  V30 4424 H 416.037 4.76515 2.02865 0
M  V30 4425 H 412.714 2.53101 3.32034 0
M  V30 4426 H 414.104 6.38321 2.09753 0
M  V30 4427 N 416.824 -0.551391 1.4764 0
M  V30 4428 C 418.049 -1.33837 1.58437 0
M  V30 4429 C 418.474 -1.866 0.237063 0
M  V30 4430 O 417.832 -1.6328 -0.787994 0
M  V30 4431 C 417.88 -2.48014 2.61766 0
M  V30 4432 O 416.984 -3.50419 2.1744 0
M  V30 4433 H 416.325 -0.397299 0.532024 0
M  V30 4434 H 418.855 -0.665759 1.93465 0
M  V30 4435 H 418.865 -2.94503 2.82369 0
M  V30 4436 H 417.54 -2.08969 3.5959 0
M  V30 4437 H 416.117 -3.10196 2.06961 0
M  V30 4438 N 418.302 -1.35869 -0.798587 0
M  V30 4439 C 419.527 -1.32883 -1.59238 0
M  V30 4440 C 419.952 0.0894587 -1.87887 0
M  V30 4441 O 419.31 1.05869 -1.47178 0
M  V30 4442 C 419.358 -2.14892 -2.89575 0
M  V30 4443 O 418.462 -1.53512 -3.82763 0
M  V30 4444 H 417.803 -0.455236 -0.48338 0
M  V30 4445 H 420.333 -1.79024 -0.990539 0
M  V30 4446 H 420.343 -2.27139 -3.38928 0
M  V30 4447 H 419.018 -3.17998 -2.68049 0
M  V30 4448 H 417.595 -1.50153 -3.41334 0
M  V30 4449 N 419.78 1.02168 -1.19998 0
M  V30 4450 C 420.71 2.12488 -0.96804 0
M  V30 4451 C 421.691 1.69799 0.101185 0
M  V30 4452 O 422.876 1.94121 -0.0552993 0
M  V30 4453 C 420.006 3.43479 -0.513776 0
M  V30 4454 C 418.96 3.99884 -1.52566 0
M  V30 4455 C 418.286 5.26582 -0.928214 0
M  V30 4456 C 419.586 4.33861 -2.90795 0
M  V30 4457 H 421.28 2.32149 -1.89069 0
M  V30 4458 H 418.826 1.11564 -0.910468 0
M  V30 4459 H 420.779 4.20036 -0.338774 0
M  V30 4460 H 419.503 3.23561 0.444493 0
M  V30 4461 H 418.162 3.25429 -1.68794 0
M  V30 4462 H 417.81 5.02986 0.0378289 0
M  V30 4463 H 417.51 5.65284 -1.60397 0
M  V30 4464 H 419.034 6.05799 -0.764167 0
M  V30 4465 H 420.448 5.01327 -2.78109 0
M  V30 4466 H 418.845 4.83664 -3.55231 0
M  V30 4467 H 419.915 3.42848 -3.42904 0
M  V30 4468 N 421.258 1.00505 1.21394 0
M  V30 4469 C 422.168 0.574806 2.27449 0
M  V30 4470 C 423.184 -0.382206 1.6975 0
M  V30 4471 O 424.36 -0.246027 1.99892 0
M  V30 4472 C 421.425 -0.0917414 3.46579 0
M  V30 4473 C 420.486 0.909758 4.1955 0
M  V30 4474 C 419.719 0.274924 5.32991 0
M  V30 4475 O 419.942 -0.928254 5.62796 0
M  V30 4476 O 418.876 0.985877 5.93771 0
M  V30 4477 H 422.702 1.45744 2.66444 0
M  V30 4478 H 420.287 0.773923 1.27792 0
M  V30 4479 H 422.169 -0.464551 4.18832 0
M  V30 4480 H 420.844 -0.948755 3.09484 0
M  V30 4481 H 419.751 1.33372 3.49518 0
M  V30 4482 H 421.084 1.73636 4.60555 0
M  V30 4483 N 422.737 -1.36956 0.779787 0
M  V30 4484 C 423.985 -1.99097 0.347079 0
M  V30 4485 C 424.306 -1.62206 -1.08232 0
M  V30 4486 O 423.576 -0.891373 -1.74446 0
M  V30 4487 H 422.156 -0.736409 0.125342 0
M  V30 4488 H 424.818 -1.67308 0.999696 0
M  V30 4489 H 423.914 -3.09107 0.431162 0
M  V30 4490 N 424.215 -0.530993 -1.48385 0
M  V30 4491 C 425.147 0.268353 -2.27624 0
M  V30 4492 C 426.16 0.903525 -1.35426 0
M  V30 4493 O 427.349 0.781796 -1.60469 0
M  V30 4494 C 424.449 1.39535 -3.08842 0
M  V30 4495 C 423.622 0.861913 -4.28824 0
M  V30 4496 C 422.681 1.87016 -4.91845 0
M  V30 4497 O 421.707 1.4267 -5.5103 0
M  V30 4498 N 422.909 3.20238 -4.84178 0
M  V30 4499 H 425.674 -0.41123 -2.96865 0
M  V30 4500 H 423.235 -0.365387 -1.57723 0
M  V30 4501 H 425.227 2.06803 -3.47871 0
M  V30 4502 H 423.797 1.97859 -2.42014 0
M  V30 4503 H 423.017 0.0132126 -3.94198 0
M  V30 4504 H 424.305 0.484415 -5.06489 0
M  V30 4505 H 423.703 3.58932 -4.37246 0
M  V30 4506 H 422.26 3.83136 -5.27305 0
M  V30 4507 N 425.693 1.55336 -0.266172 0
M  V30 4508 C 426.97 1.91372 0.404486 0
M  V30 4509 C 427.35 1.18935 1.74407 0
M  V30 4510 O 426.698 0.3132 2.26343 0
M  V30 4511 C 426.908 3.44581 0.553593 0
M  V30 4512 C 428.256 4.16196 0.840618 0
M  V30 4513 O 429.28 3.50426 0.638739 0
M  V30 4514 O 428.139 5.32567 1.22618 0
M  V30 4515 H 425.233 0.797194 0.220025 0
M  V30 4516 H 427.779 1.66813 -0.311664 0
M  V30 4517 H 426.551 3.89357 -0.389498 0
M  V30 4518 H 426.174 3.75065 1.31955 0
M  V30 4519 N 427.171 -0.0066808 1.57599 0
M  V30 4520 C 428.42 -0.692078 1.89455 0
M  V30 4521 C 428.733 -1.75306 0.867586 0
M  V30 4522 O 429.939 -2.49262 1.07614 0
M  V30 4523 C 428.395 -1.2821 3.36289 0
M  V30 4524 C 428.003 -0.256291 4.47266 0
M  V30 4525 C 429.747 -1.94608 3.77264 0
M  V30 4526 C 427.654 -0.855927 5.85173 0
M  V30 4527 H 426.584 -0.262252 0.706923 0
M  V30 4528 H 429.235 0.052769 1.83424 0
M  V30 4529 H 427.617 -2.0774 3.37135 0
M  V30 4530 H 428.791 0.513923 4.57925 0
M  V30 4531 H 427.106 0.306862 4.15268 0
M  V30 4532 H 429.703 -2.40364 4.77629 0
M  V30 4533 H 430.046 -2.77382 3.10427 0
M  V30 4534 H 430.579 -1.21822 3.78688 0
M  V30 4535 H 427.318 -0.0671161 6.55466 0
M  V30 4536 H 426.838 -1.59546 5.78191 0
M  V30 4537 H 428.517 -1.35658 6.32618 0
M  V30 4538 N 428.649 -1.55105 -0.279332 0
M  V30 4539 C 429.895 -1.75672 -1.01327 0
M  V30 4540 C 430.228 -0.552739 -1.86168 0
M  V30 4541 O 429.503 0.449827 -1.89227 0
M  V30 4542 C 429.786 -3.05825 -1.90114 0
M  V30 4543 C 429.639 -4.36565 -1.08309 0
M  V30 4544 C 430.958 -3.31975 -2.8893 0
M  V30 4545 H 428.077 -0.639149 -0.366957 0
M  V30 4546 H 430.719 -1.87833 -0.286154 0
M  V30 4547 H 428.869 -2.95588 -2.52111 0
M  V30 4548 H 430.541 -4.58751 -0.484314 0
M  V30 4549 H 428.784 -4.32076 -0.386362 0
M  V30 4550 H 429.455 -5.23946 -1.73737 0
M  V30 4551 H 431.931 -3.41963 -2.37067 0
M  V30 4552 H 430.807 -4.2432 -3.48201 0
M  V30 4553 H 431.068 -2.51309 -3.63725 0
M  V30 4554 N 430.127 0.543554 -1.4793 0
M  V30 4555 C 431.057 1.65888 -1.64327 0
M  V30 4556 C 432.038 1.62818 -0.492383 0
M  V30 4557 O 433.223 1.80226 -0.723338 0
M  V30 4558 C 430.353 3.04506 -1.67013 0
M  V30 4559 C 429.307 3.2243 -2.81466 0
M  V30 4560 C 428.633 4.61972 -2.69233 0
M  V30 4561 C 429.933 3.06496 -4.22915 0
M  V30 4562 H 431.627 1.52421 -2.57698 0
M  V30 4563 H 429.173 0.731849 -1.24016 0
M  V30 4564 H 431.126 3.82391 -1.77074 0
M  V30 4565 H 429.85 3.18964 -0.70212 0
M  V30 4566 H 428.509 2.46957 -2.70938 0
M  V30 4567 H 428.157 4.73247 -1.7043 0
M  V30 4568 H 427.857 4.74911 -3.46025 0
M  V30 4569 H 429.381 5.41974 -2.81242 0
M  V30 4570 H 430.795 3.74186 -4.34348 0
M  V30 4571 H 429.192 3.30938 -5.006 0
M  V30 4572 H 430.262 2.03077 -4.40327 0
M  V30 4573 N 431.605 1.3629 0.791371 0
M  V30 4574 C 432.835 1.33368 1.57786 0
M  V30 4575 C 433.243 -0.0875188 1.88997 0
M  V30 4576 O 432.586 -1.05427 1.50435 0
M  V30 4577 C 432.648 2.08802 2.92646 0
M  V30 4578 C 432.312 3.57903 2.84174 0
M  V30 4579 C 433.309 4.52191 2.56553 0
M  V30 4580 C 430.994 4.00762 3.02812 0
M  V30 4581 C 432.988 5.87315 2.47669 0
M  V30 4582 C 430.675 5.35977 2.93551 0
M  V30 4583 C 431.673 6.29066 2.66017 0
M  V30 4584 O 431.361 7.61798 2.56746 0
M  V30 4585 H 431.093 0.459166 0.496128 0
M  V30 4586 H 433.647 1.79952 0.990269 0
M  V30 4587 H 431.877 1.56878 3.53449 0
M  V30 4588 H 433.566 1.98762 3.53904 0
M  V30 4589 H 434.332 4.20393 2.41858 0
M  V30 4590 H 430.211 3.2868 3.2325 0
M  V30 4591 H 433.755 6.59943 2.26099 0
M  V30 4592 H 429.652 5.67384 3.07808 0
M  V30 4593 H 430.42 7.71898 2.72242 0
M  V30 4594 N 433.083 -1.0153 1.20538 0
M  V30 4595 C 434.329 -1.75517 1.02787 0
M  V30 4596 C 434.684 -1.87411 -0.435289 0
M  V30 4597 O 433.977 -1.38982 -1.31889 0
M  V30 4598 C 434.171 -3.17213 1.64654 0
M  V30 4599 C 434 -3.19134 3.16834 0
M  V30 4600 C 432.77 -3.26301 3.85818 0
M  V30 4601 C 434.968 -3.05077 4.14044 0
M  V30 4602 N 432.95 -3.17739 5.25276 0
M  V30 4603 C 434.321 -3.04299 5.40187 0
M  V30 4604 C 436.376 -2.89303 4.05226 0
M  V30 4605 C 435.079 -2.89365 6.58529 0
M  V30 4606 C 437.105 -2.75723 5.23193 0
M  V30 4607 C 436.467 -2.75612 6.48242 0
M  V30 4608 H 432.566 -0.652919 0.430373 0
M  V30 4609 H 435.15 -1.20755 1.52729 0
M  V30 4610 H 433.321 -3.70266 1.17294 0
M  V30 4611 H 435.053 -3.79637 1.40208 0
M  V30 4612 H 431.808 -3.33078 3.36684 0
M  V30 4613 H 432.232 -3.16829 5.98288 0
M  V30 4614 H 436.874 -2.88201 3.09354 0
M  V30 4615 H 434.592 -2.89216 7.54573 0
M  V30 4616 H 438.178 -2.64533 5.18183 0
M  V30 4617 H 437.058 -2.65224 7.37988 0
M  V30 4618 N 434.561 -1.01147 -1.20859 0
M  V30 4619 C 435.471 -0.58686 -2.27141 0
M  V30 4620 C 436.487 0.373198 -1.69951 0
M  V30 4621 O 437.663 0.235423 -2.00019 0
M  V30 4622 C 434.728 0.0733602 -3.46622 0
M  V30 4623 C 433.789 -0.931995 -4.19061 0
M  V30 4624 C 433.022 -0.303186 -5.32838 0
M  V30 4625 O 433.245 0.898395 -5.63281 0
M  V30 4626 O 432.179 -1.01735 -5.9324 0
M  V30 4627 H 436.005 -1.47155 -2.65667 0
M  V30 4628 H 433.59 -0.780689 -1.2738 0
M  V30 4629 H 435.472 0.442333 -4.19072 0
M  V30 4630 H 434.147 0.932329 -3.09983 0
M  V30 4631 H 433.054 -1.35224 -3.48805 0
M  V30 4632 H 434.387 -1.76076 -4.59628 0
M  V30 4633 N 436.039 1.36541 -0.78704 0
M  V30 4634 C 436.989 2.27459 -0.156957 0
M  V30 4635 C 437.973 1.46843 0.657709 0
M  V30 4636 O 439.165 1.69245 0.518173 0
M  V30 4637 C 436.294 3.35893 0.709278 0
M  V30 4638 C 435.38 4.23947 -0.114049 0
M  V30 4639 N 435.771 4.92145 -1.16736 0
M  V30 4640 C 434.069 4.4587 0.107497 0
M  V30 4641 C 434.77 5.57261 -1.66837 0
M  V30 4642 N 433.746 5.3473 -0.977992 0
M  V30 4643 H 437.548 2.77669 -0.963185 0
M  V30 4644 H 435.062 1.49839 -0.62627 0
M  V30 4645 H 437.059 3.99953 1.17656 0
M  V30 4646 H 435.719 2.87238 1.51408 0
M  V30 4647 H 436.73 4.94169 -1.54976 0
M  V30 4648 H 433.407 4.08056 0.882994 0
M  V30 4649 H 434.797 6.21728 -2.54762 0
M  V30 4650 N 437.518 0.538854 1.48102 0
M  V30 4651 C 438.468 -0.23907 2.26743 0
M  V30 4652 C 439.452 -0.901923 1.33245 0
M  V30 4653 O 440.644 -0.803263 1.57723 0
M  V30 4654 C 437.773 -1.2799 3.18549 0
M  V30 4655 C 436.859 -0.621388 4.19523 0
M  V30 4656 N 437.25 0.298004 5.04921 0
M  V30 4657 C 435.548 -0.877533 4.37282 0
M  V30 4658 C 436.249 0.678757 5.77726 0
M  V30 4659 N 435.225 0.0377881 5.43587 0
M  V30 4660 H 439.027 0.468096 2.90148 0
M  V30 4661 H 436.541 0.357497 1.58416 0
M  V30 4662 H 438.538 -1.851 3.73555 0
M  V30 4663 H 437.198 -1.98835 2.567 0
M  V30 4664 H 438.209 0.671126 5.13533 0
M  V30 4665 H 434.886 -1.57588 3.86616 0
M  V30 4666 H 436.276 1.43316 6.56437 0
M  V30 4667 N 438.996 -1.55193 0.274407 0
M  V30 4668 C 440.221 -2.04446 -0.348824 0
M  V30 4669 C 440.646 -1.15149 -1.48735 0
M  V30 4670 O 440.004 -0.149952 -1.80679 0
M  V30 4671 C 440.052 -3.51431 -0.808009 0
M  V30 4672 O 439.156 -3.65225 -1.91531 0
M  V30 4673 H 438.497 -0.66006 -0.0722276 0
M  V30 4674 H 441.027 -2.00481 0.408498 0
M  V30 4675 H 441.037 -3.92781 -1.10395 0
M  V30 4676 H 439.712 -4.15892 0.0249865 0
M  V30 4677 H 438.289 -3.35778 -1.62196 0
M  V30 4678 N 440.474 -0.00167713 -1.576 0
M  V30 4679 C 441.699 0.69739 -1.95323 0
M  V30 4680 C 442.124 1.6642 -0.876706 0
M  V30 4681 O 441.482 1.80548 0.165007 0
M  V30 4682 C 441.53 1.40403 -3.32144 0
M  V30 4683 O 440.634 2.5185 -3.26566 0
M  V30 4684 H 439.975 0.185373 -0.637599 0
M  V30 4685 H 442.505 -0.0553665 -2.04525 0
M  V30 4686 H 442.515 1.76707 -3.67748 0
M  V30 4687 H 441.19 0.695167 -4.10049 0
M  V30 4688 H 439.767 2.17861 -3.0264 0
M  V30 4689 N 441.952 1.55251 0.271103 0
M  V30 4690 C 443.198 1.76207 1.00394 0
M  V30 4691 C 443.531 0.562604 1.85872 0
M  V30 4692 O 442.806 -0.439785 1.89463 0
M  V30 4693 C 443.089 3.06828 1.8849 0
M  V30 4694 C 442.942 4.37134 1.05992 0
M  V30 4695 C 444.261 3.33503 2.87165 0
M  V30 4696 H 441.38 0.641086 0.363562 0
M  V30 4697 H 444.022 1.87982 0.276189 0
M  V30 4698 H 442.172 2.96921 2.5054 0
M  V30 4699 H 443.844 4.59001 0.459978 0
M  V30 4700 H 442.087 4.32275 0.363443 0
M  V30 4701 H 442.758 5.2486 1.70955 0
M  V30 4702 H 445.234 3.43215 2.3525 0
M  V30 4703 H 444.11 4.2616 3.45946 0
M  V30 4704 H 444.371 2.53235 3.62387 0
M  V30 4705 N 443.43 -0.535701 1.48216 0
M  V30 4706 C 444.678 -1.28928 1.55634 0
M  V30 4707 C 444.999 -1.93645 0.229514 0
M  V30 4708 O 444.269 -1.81038 -0.74846 0
M  V30 4709 H 442.849 -0.47884 0.573342 0
M  V30 4710 H 445.511 -0.623853 1.84646 0
M  V30 4711 H 444.607 -2.07157 2.33436 0
M  V30 4712 N 444.908 -1.36708 -0.784132 0
M  V30 4713 C 446.155 -1.31231 -1.54222 0
M  V30 4714 C 446.483 0.106864 -1.94206 0
M  V30 4715 O 445.738 1.07734 -1.63376 0
M  V30 4716 C 446.037 -2.18571 -2.82774 0
M  V30 4717 C 445.703 -3.67039 -2.61903 0
M  V30 4718 C 444.365 -4.07503 -2.55919 0
M  V30 4719 C 446.717 -4.61149 -2.4288 0
M  V30 4720 C 444.045 -5.40211 -2.28886 0
M  V30 4721 C 446.397 -5.94081 -2.17373 0
M  V30 4722 C 445.061 -6.33664 -2.09825 0
M  V30 4723 H 444.331 -0.48021 -0.56434 0
M  V30 4724 H 446.978 -1.68807 -0.904233 0
M  V30 4725 H 445.283 -1.73949 -3.51068 0
M  V30 4726 H 446.98 -2.11655 -3.40592 0
M  V30 4727 H 443.57 -3.34941 -2.67418 0
M  V30 4728 H 447.754 -4.30756 -2.46501 0
M  V30 4729 H 443.01 -5.69855 -2.21529 0
M  V30 4730 H 447.184 -6.66566 -2.01649 0
M  V30 4731 H 444.811 -7.36423 -1.88641 0
M  V30 4732 N 446.386 1.0089 -1.21074 0
M  V30 4733 C 447.635 1.74019 -1.01981 0
M  V30 4734 C 447.948 1.90408 0.447665 0
M  V30 4735 O 449.154 2.60707 0.757906 0
M  V30 4736 C 447.61 3.13026 -1.77603 0
M  V30 4737 C 447.218 3.04623 -3.28495 0
M  V30 4738 C 448.962 3.90312 -1.66904 0
M  V30 4739 C 446.869 4.38685 -3.96623 0
M  V30 4740 H 445.799 0.652422 -0.377971 0
M  V30 4741 H 448.45 1.12755 -1.44771 0
M  V30 4742 H 446.832 3.74878 -1.27604 0
M  V30 4743 H 448.006 2.52032 -3.85767 0
M  V30 4744 H 446.321 2.40827 -3.39693 0
M  V30 4745 H 448.918 4.8951 -2.15138 0
M  V30 4746 H 449.261 4.11558 -0.62658 0
M  V30 4747 H 449.794 3.35104 -2.14359 0
M  V30 4748 H 446.533 4.22641 -5.01054 0
M  V30 4749 H 446.053 4.91252 -3.4414 0
M  V30 4750 H 447.732 5.075 -4.01314 0
M  V30 4751 N 447.864 1.01787 1.20321 0
M  V30 4752 C 449.113 0.703249 1.89043 0
M  V30 4753 C 449.426 -0.770445 1.79787 0
M  V30 4754 O 450.632 -1.19767 2.43656 0
M  V30 4755 C 449.088 1.20749 3.3904 0
M  V30 4756 C 448.696 2.70817 3.56878 0
M  V30 4757 C 450.44 0.968352 4.13308 0
M  V30 4758 C 448.347 3.14716 5.00708 0
M  V30 4759 H 447.277 0.259354 0.707991 0
M  V30 4760 H 449.928 1.23072 1.36108 0
M  V30 4761 H 448.31 0.607989 3.91305 0
M  V30 4762 H 449.484 3.36327 3.14993 0
M  V30 4763 H 447.799 2.92888 2.95983 0
M  V30 4764 H 450.396 1.27173 5.19356 0
M  V30 4765 H 450.739 -0.095149 4.16191 0
M  V30 4766 H 451.272 1.53129 3.67146 0
M  V30 4767 H 448.011 4.20347 5.02979 0
M  V30 4768 H 447.531 2.53927 5.43398 0
M  V30 4769 H 449.21 3.07426 5.69296 0
M  V30 4770 N 449.342 -1.36122 0.79427 0
M  V30 4771 C 450.272 -2.32551 0.210328 0
M  V30 4772 C 451.253 -1.56884 -0.657386 0
M  V30 4773 O 452.438 -1.85014 -0.590207 0
M  V30 4774 C 449.568 -3.41128 -0.651819 0
M  V30 4775 C 448.522 -4.27842 0.116395 0
M  V30 4776 C 447.848 -5.2763 -0.86666 0
M  V30 4777 C 449.148 -5.05647 1.30837 0
M  V30 4778 H 450.842 -2.81636 1.01594 0
M  V30 4779 H 448.388 -1.35407 0.489981 0
M  V30 4780 H 450.341 -4.07581 -1.07031 0
M  V30 4781 H 449.065 -2.90622 -1.49019 0
M  V30 4782 H 447.724 -3.62952 0.515915 0
M  V30 4783 H 447.372 -4.73395 -1.70019 0
M  V30 4784 H 447.072 -5.86514 -0.35705 0
M  V30 4785 H 448.596 -5.96955 -1.28361 0
M  V30 4786 H 450.01 -5.65113 0.965393 0
M  V30 4787 H 448.407 -5.73967 1.75161 0
M  V30 4788 H 449.477 -4.37006 2.10128 0
M  V30 4789 N 450.82 -0.546701 -1.47814 0
M  V30 4790 C 451.783 0.196287 -2.28358 0
M  V30 4791 C 452.783 0.852437 -1.36346 0
M  V30 4792 O 453.973 0.709913 -1.59078 0
M  V30 4793 C 451.105 1.28579 -3.15722 0
M  V30 4794 H 452.298 -0.511086 -2.95513 0
M  V30 4795 H 449.851 -0.303248 -1.5333 0
M  V30 4796 H 450.586 2.0259 -2.53235 0
M  V30 4797 H 450.371 0.820229 -3.83425 0
M  V30 4798 H 451.861 1.80793 -3.76435 0
M  V30 4799 N 452.299 1.55045 -0.282633 0
M  V30 4800 C 453.545 2.00056 0.332481 0
M  V30 4801 C 453.878 1.1708 1.54939 0
M  V30 4802 O 453.153 0.2427 1.9298 0
M  V30 4803 C 453.436 3.53086 0.70725 0
M  V30 4804 C 453.289 4.46813 -0.517521 0
M  V30 4805 C 454.608 4.12245 1.54084 0
M  V30 4806 H 451.727 0.727268 0.119373 0
M  V30 4807 H 454.369 1.85932 -0.391076 0
M  V30 4808 H 452.519 3.65253 1.32372 0
M  V30 4809 H 454.191 4.46579 -1.15607 0
M  V30 4810 H 452.434 4.18163 -1.1542 0
M  V30 4811 H 453.105 5.51595 -0.211426 0
M  V30 4812 H 455.581 4.03401 1.02013 0
M  V30 4813 H 454.457 5.19515 1.77186 0
M  V30 4814 H 454.718 3.62951 2.52427 0
M  V30 4815 N 453.777 0.010035 1.57597 0
M  V30 4816 C 455.026 -0.671945 1.90178 0
M  V30 4817 C 455.339 -1.74376 0.886131 0
M  V30 4818 O 456.545 -2.48107 1.10252 0
M  V30 4819 C 455.001 -1.24636 3.3763 0
M  V30 4820 C 454.609 -0.208838 4.47513 0
M  V30 4821 C 456.353 -1.90595 3.79307 0
M  V30 4822 C 454.26 -0.793814 5.86048 0
M  V30 4823 H 453.19 -0.25474 0.709665 0
M  V30 4824 H 455.841 0.0722206 1.83358 0
M  V30 4825 H 454.223 -2.04152 3.3932 0
M  V30 4826 H 455.397 0.562463 4.57354 0
M  V30 4827 H 453.712 0.350889 4.14919 0
M  V30 4828 H 456.309 -2.35284 4.80151 0
M  V30 4829 H 456.652 -2.74074 3.13352 0
M  V30 4830 H 457.185 -1.17798 3.79958 0
M  V30 4831 H 453.924 0.00240855 6.555 0
M  V30 4832 H 453.444 -1.53404 5.79851 0
M  V30 4833 H 455.123 -1.2894 6.34022 0
M  V30 4834 N 455.255 -1.55392 -0.262866 0
M  V30 4835 C 456.501 -1.76737 -0.99458 0
M  V30 4836 C 456.834 -0.572453 -1.85571 0
M  V30 4837 O 456.109 0.429732 -1.89693 0
M  V30 4838 C 456.392 -3.07824 -1.8686 0
M  V30 4839 C 456.245 -4.3769 -1.03672 0
M  V30 4840 C 457.564 -3.35021 -2.85393 0
M  V30 4841 H 454.683 -0.643005 -0.360157 0
M  V30 4842 H 457.325 -1.88126 -0.266216 0
M  V30 4843 H 455.475 -2.98245 -2.48962 0
M  V30 4844 H 457.147 -4.59238 -0.43563 0
M  V30 4845 H 455.39 -4.32461 -0.340513 0
M  V30 4846 H 456.061 -5.25759 -1.6817 0
M  V30 4847 H 458.537 -3.44458 -2.33426 0
M  V30 4848 H 457.413 -4.27989 -3.43681 0
M  V30 4849 H 457.674 -2.55153 -3.61039 0
M  V30 4850 N 456.733 0.527833 -1.48498 0
M  V30 4851 C 458.144 1.10975 -1.50138 0
M  V30 4852 C 458.495 1.943 -0.272378 0
M  V30 4853 O 457.62 2.07319 0.620301 0
M  V30 4854 C 458.215 2.01927 -2.72049 0
M  V30 4855 C 456.774 2.55332 -2.76554 0
M  V30 4856 C 455.921 1.32341 -2.43683 0
M  V30 4857 H 458.872 0.312986 -1.55583 0
M  V30 4858 H 458.893 2.86244 -2.50689 0
M  V30 4859 H 458.405 1.41254 -3.61481 0
M  V30 4860 H 456.506 3.19721 -1.91336 0
M  V30 4861 H 456.619 2.94319 -3.78038 0
M  V30 4862 H 454.983 1.63989 -1.94884 0
M  V30 4863 H 455.766 0.734165 -3.35358 0
M  V30 4864 N 458.211 1.37122 0.776871 0
M  V30 4865 C 459.141 1.35164 1.90402 0
M  V30 4866 C 460.122 0.221069 1.68657 0
M  V30 4867 O 461.307 0.420642 1.8959 0
M  V30 4868 C 458.437 1.15274 3.27611 0
M  V30 4869 C 457.391 2.25289 3.63908 0
M  V30 4870 C 456.717 1.90527 4.99603 0
M  V30 4871 C 458.017 3.67446 3.71188 0
M  V30 4872 H 459.711 2.29482 1.92297 0
M  V30 4873 H 457.257 1.10465 0.923773 0
M  V30 4874 H 459.21 1.12536 4.06096 0
M  V30 4875 H 457.934 0.174102 3.26136 0
M  V30 4876 H 456.593 2.27174 2.87728 0
M  V30 4877 H 456.241 0.91206 4.94662 0
M  V30 4878 H 455.941 2.64193 5.24858 0
M  V30 4879 H 457.465 1.89367 5.80493 0
M  V30 4880 H 458.879 3.67719 4.39836 0
M  V30 4881 H 457.276 4.40123 4.07936 0
M  V30 4882 H 458.346 4.01443 2.71977 0
M  V30 4883 N 459.689 -1.00246 1.21608 0
M  V30 4884 C 460.619 -2.10921 1.00172 0
M  V30 4885 C 461.6 -1.69938 -0.0741587 0
M  V30 4886 O 462.785 -1.94009 0.0861753 0
M  V30 4887 C 459.915 -3.42618 0.568355 0
M  V30 4888 C 458.869 -3.97407 1.58909 0
M  V30 4889 C 458.195 -5.25038 1.01187 0
M  V30 4890 C 459.495 -4.2918 2.97661 0
M  V30 4891 H 461.189 -2.29112 1.92739 0
M  V30 4892 H 458.735 -1.10101 0.928102 0
M  V30 4893 H 460.688 -4.19444 0.405555 0
M  V30 4894 H 459.412 -3.24227 -0.392961 0
M  V30 4895 H 458.071 -3.22703 1.73949 0
M  V30 4896 H 457.719 -5.02982 0.0421965 0
M  V30 4897 H 457.419 -5.62661 1.6937 0
M  V30 4898 H 458.943 -6.04507 0.860448 0
M  V30 4899 H 460.357 -4.96839 2.86049 0
M  V30 4900 H 458.754 -4.77952 3.6288 0
M  V30 4901 H 459.824 -3.3735 3.48315 0
M  V30 4902 N 461.167 -1.02423 -1.1978 0
M  V30 4903 C 462.097 -0.62157 -2.25075 0
M  V30 4904 C 463.078 0.367148 -1.6609 0
M  V30 4905 O 464.263 0.250892 -1.92573 0
M  V30 4906 C 461.393 0.0331826 -3.47284 0
M  V30 4907 C 460.347 -0.877323 -4.18912 0
M  V30 4908 C 459.673 -0.0879296 -5.34628 0
M  V30 4909 C 460.973 -2.18892 -4.74219 0
M  V30 4910 H 462.667 -1.50179 -2.59011 0
M  V30 4911 H 460.213 -0.723547 -1.24502 0
M  V30 4912 H 462.166 0.326488 -4.20133 0
M  V30 4913 H 460.89 0.948164 -3.12534 0
M  V30 4914 H 459.549 -1.15475 -3.47938 0
M  V30 4915 H 459.197 0.828941 -4.96123 0
M  V30 4916 H 458.897 -0.694359 -5.83483 0
M  V30 4917 H 460.421 0.198743 -6.10276 0
M  V30 4918 H 461.835 -1.95746 -5.38847 0
M  V30 4919 H 460.232 -2.74686 -5.33542 0
M  V30 4920 H 461.302 -2.84674 -3.92541 0
M  V30 4921 N 462.645 1.35699 -0.801477 0
M  V30 4922 C 463.575 2.32436 -0.222658 0
M  V30 4923 C 464.556 1.5723 0.649057 0
M  V30 4924 O 465.741 1.85324 0.580387 0
M  V30 4925 C 462.871 3.41469 0.633719 0
M  V30 4926 C 461.825 4.27774 -0.139083 0
M  V30 4927 C 461.151 5.28082 0.838666 0
M  V30 4928 C 462.451 5.04946 -1.33517 0
M  V30 4929 H 464.145 2.81094 -1.03086 0
M  V30 4930 H 461.691 1.35146 -0.497155 0
M  V30 4931 H 463.644 4.08143 1.04868 0
M  V30 4932 H 462.368 2.91408 1.47475 0
M  V30 4933 H 461.027 3.62673 -0.535156 0
M  V30 4934 H 460.675 4.7429 1.67506 0
M  V30 4935 H 460.375 5.86695 0.32594 0
M  V30 4936 H 461.899 5.97628 1.25194 0
M  V30 4937 H 463.313 5.64593 -0.995349 0
M  V30 4938 H 461.71 5.7303 -1.78202 0
M  V30 4939 H 462.78 4.35886 -2.12442 0
M  V30 4940 N 464.123 0.554532 1.47522 0
M  V30 4941 C 465.372 0.0273458 2.01681 0
M  V30 4942 C 465.685 -1.32962 1.43459 0
M  V30 4943 O 466.891 -1.94657 1.89265 0
M  V30 4944 C 465.347 -0.00159057 3.599 0
M  V30 4945 C 464.955 1.35197 4.27113 0
M  V30 4946 C 466.699 -0.476311 4.21819 0
M  V30 4947 C 464.606 1.28229 5.77331 0
M  V30 4948 H 463.536 0.00645269 0.753972 0
M  V30 4949 H 466.187 0.701985 1.69542 0
M  V30 4950 H 464.569 -0.741821 3.8899 0
M  V30 4951 H 465.743 2.1097 4.09668 0
M  V30 4952 H 464.058 1.76441 3.77171 0
M  V30 4953 H 466.655 -0.5468 5.31897 0
M  V30 4954 H 466.998 -1.4877 3.8881 0
M  V30 4955 H 467.531 0.20898 3.97251 0
M  V30 4956 H 464.27 2.26959 6.14955 0
M  V30 4957 H 463.79 0.566314 5.97121 0
M  V30 4958 H 465.469 0.983226 6.39485 0
M  V30 4959 N 465.601 -1.54893 0.290851 0
M  V30 4960 C 466.849 -1.99538 -0.320756 0
M  V30 4961 C 467.17 -1.18075 -1.55188 0
M  V30 4962 O 466.44 -0.274162 -1.93972 0
M  V30 4963 H 465.02 -0.737052 -0.121507 0
M  V30 4964 H 467.682 -1.90755 0.399832 0
M  V30 4965 H 466.778 -3.06282 -0.599802 0
M  V30 4966 N 467.08 -0.0183926 -1.57589 0
M  V30 4967 C 468.01 0.965596 -2.12599 0
M  V30 4968 C 468.991 1.34641 -1.0395 0
M  V30 4969 O 470.176 1.42693 -1.31729 0
M  V30 4970 C 467.306 2.25149 -2.64434 0
M  V30 4971 C 466.26 2.01175 -3.77773 0
M  V30 4972 C 465.586 3.35937 -4.15994 0
M  V30 4973 C 466.886 1.35953 -5.04296 0
M  V30 4974 H 468.58 0.507504 -2.95067 0
M  V30 4975 H 466.126 0.242671 -1.41941 0
M  V30 4976 H 468.079 2.94357 -3.01549 0
M  V30 4977 H 466.803 2.73105 -1.79112 0
M  V30 4978 H 465.462 1.34388 -3.4108 0
M  V30 4979 H 465.11 3.81631 -3.27669 0
M  V30 4980 H 464.81 3.20705 -4.92364 0
M  V30 4981 H 466.334 4.0643 -4.55683 0
M  V30 4982 H 467.748 1.95144 -5.39065 0
M  V30 4983 H 466.145 1.31152 -5.85593 0
M  V30 4984 H 467.215 0.331071 -4.83768 0
M  V30 4985 N 468.558 1.5553 0.254621 0
M  V30 4986 C 469.521 1.88872 1.29846 0
M  V30 4987 C 470.521 0.764591 1.41459 0
M  V30 4988 O 471.711 1.03265 1.40293 0
M  V30 4989 C 468.843 2.11032 2.67728 0
M  V30 4990 H 470.036 2.82201 1.01502 0
M  V30 4991 H 467.589 1.48303 0.493556 0
M  V30 4992 H 468.324 1.20146 3.01223 0
M  V30 4993 H 468.109 2.92895 2.60682 0
M  V30 4994 H 469.599 2.38038 3.43115 0
M  V30 4995 N 470.036 -0.519951 1.48776 0
M  V30 4996 C 470.966 -1.63253 1.66945 0
M  V30 4997 C 471.947 -1.62014 0.518224 0
M  V30 4998 O 473.132 -1.79053 0.751919 0
M  V30 4999 C 470.262 -3.0181 1.71836 0
M  V30 5000 C 469.216 -3.17911 2.8656 0
M  V30 5001 C 468.542 -4.5763 2.76548 0
M  V30 5002 C 469.842 -2.99729 4.27738 0
M  V30 5003 H 471.536 -1.48302 2.6009 0
M  V30 5004 H 469.082 -0.712026 1.25165 0
M  V30 5005 H 471.035 -3.79525 1.83135 0
M  V30 5006 H 469.759 -3.17806 0.752775 0
M  V30 5007 H 468.418 -2.42616 2.74833 0
M  V30 5008 H 468.066 -4.70476 1.77937 0
M  V30 5009 H 467.766 -4.69346 3.53536 0
M  V30 5010 H 469.29 -5.37431 2.89828 0
M  V30 5011 H 470.704 -3.67228 4.40246 0
M  V30 5012 H 469.101 -3.22932 5.05801 0
M  V30 5013 H 470.171 -1.96047 4.43502 0
M  V30 5014 N 471.514 -1.37532 -0.769588 0
M  V30 5015 C 472.76 -1.34063 -1.52966 0
M  V30 5016 C 473.115 0.0737942 -1.92258 0
M  V30 5017 O 472.408 1.03291 -1.61374 0
M  V30 5018 C 472.602 -2.21558 -2.8044 0
M  V30 5019 C 472.431 -3.71367 -2.53608 0
M  V30 5020 C 471.201 -4.40464 -2.47628 0
M  V30 5021 C 473.399 -4.64177 -2.21459 0
M  V30 5022 N 471.381 -5.758 -2.12902 0
M  V30 5023 C 472.752 -5.87907 -1.9689 0
M  V30 5024 C 474.807 -4.52541 -2.07633 0
M  V30 5025 C 473.51 -7.01304 -1.59892 0
M  V30 5026 C 475.536 -5.65825 -1.72034 0
M  V30 5027 C 474.898 -6.88606 -1.48327 0
M  V30 5028 H 470.997 -0.545856 -0.559969 0
M  V30 5029 H 473.581 -1.72773 -0.897634 0
M  V30 5030 H 471.752 -1.85061 -3.41478 0
M  V30 5031 H 473.484 -2.09332 -3.46356 0
M  V30 5032 H 470.239 -3.93491 -2.63556 0
M  V30 5033 H 470.663 -6.47328 -1.9823 0
M  V30 5034 H 475.305 -3.58183 -2.24643 0
M  V30 5035 H 473.023 -7.95594 -1.4162 0
M  V30 5036 H 476.609 -5.58793 -1.61991 0
M  V30 5037 H 475.489 -7.74779 -1.21189 0
M  V30 5038 N 472.992 0.995999 -1.22138 0
M  V30 5039 C 474.239 1.7351 -1.04406 0
M  V30 5040 C 474.567 1.89884 0.421244 0
M  V30 5041 O 473.822 1.43683 1.32867 0
M  V30 5042 C 474.121 3.14553 -1.6968 0
M  V30 5043 C 473.787 3.18102 -3.19565 0
M  V30 5044 C 472.449 3.18778 -3.60464 0
M  V30 5045 C 474.801 3.14636 -4.15516 0
M  V30 5046 C 472.129 3.13684 -4.95801 0
M  V30 5047 C 474.481 3.11084 -5.50826 0
M  V30 5048 C 473.145 3.10074 -5.91109 0
M  V30 5049 H 472.415 0.634916 -0.38205 0
M  V30 5050 H 475.062 1.1667 -1.51857 0
M  V30 5051 H 473.367 3.74682 -1.14546 0
M  V30 5052 H 475.064 3.70477 -1.53454 0
M  V30 5053 H 471.654 3.18324 -2.86998 0
M  V30 5054 H 475.838 3.13266 -3.84939 0
M  V30 5055 H 471.094 3.11245 -5.26247 0
M  V30 5056 H 475.268 3.07357 -6.24904 0
M  V30 5057 H 472.895 3.05882 -6.95946 0
M  V30 5058 N 474.47 1.03057 1.19235 0
M  V30 5059 C 475.886 0.747947 1.40989 0
M  V30 5060 C 476.086 -0.666752 1.90149 0
M  V30 5061 O 475.142 -1.43249 2.07933 0
M  V30 5062 C 476.455 1.7855 2.41951 0
M  V30 5063 C 478.003 1.80524 2.55695 0
M  V30 5064 C 478.478 2.83243 3.59913 0
M  V30 5065 N 479.969 2.8207 3.67411 0
M  V30 5066 C 480.704 3.58204 4.47747 0
M  V30 5067 N 480.2 4.44057 5.31775 0
M  V30 5068 N 481.993 3.46738 4.42413 0
M  V30 5069 H 474.144 1.94367 0.856468 0
M  V30 5070 H 476.407 0.840412 0.438647 0
M  V30 5071 H 476.113 2.79973 2.12857 0
M  V30 5072 H 475.987 1.6092 3.41152 0
M  V30 5073 H 478.374 0.79778 2.84112 0
M  V30 5074 H 478.455 2.02229 1.56643 0
M  V30 5075 H 478.099 3.84161 3.32239 0
M  V30 5076 H 478.029 2.58795 4.5862 0
M  V30 5077 H 480.52 2.19803 3.074 0
M  V30 5078 H 480.833 4.98884 5.90199 0
M  V30 5079 H 479.178 4.48129 5.3123 0
M  V30 5080 H 482.369 2.79077 3.75811 0
M  V30 5081 H 482.542 4.06322 5.04783 0
M  V30 5082 N 475.948 -1.35272 0.808662 0
M  V30 5083 C 476.895 -2.29764 0.218482 0
M  V30 5084 C 477.865 -1.52911 -0.648652 0
M  V30 5085 O 479.05 -1.81341 -0.593297 0
M  V30 5086 C 476.19 -3.39388 -0.625282 0
M  V30 5087 C 475.303 -4.31202 0.262516 0
M  V30 5088 C 474.438 -5.27919 -0.589451 0
M  V30 5089 C 473.477 -6.11371 0.298617 0
M  V30 5090 N 472.614 -7.0022 -0.513443 0
M  V30 5091 H 477.454 -2.79645 1.02968 0
M  V30 5092 H 474.991 -1.37629 0.519303 0
M  V30 5093 H 476.949 -4.01615 -1.12966 0
M  V30 5094 H 475.579 -2.90777 -1.40173 0
M  V30 5095 H 474.631 -3.69962 0.885013 0
M  V30 5096 H 475.943 -4.89748 0.945971 0
M  V30 5097 H 475.097 -5.95529 -1.15888 0
M  V30 5098 H 473.836 -4.69875 -1.30647 0
M  V30 5099 H 472.841 -5.42707 0.880301 0
M  V30 5100 H 474.066 -6.71494 1.01352 0
M  V30 5101 H 472.012 -6.44662 -1.21439 0
M  V30 5102 H 471.929 -7.55917 0.111922 0
M  V30 5103 H 473.197 -7.72175 -1.06608 0
M  V30 5104 N 477.426 -0.562348 -1.47226 0
M  V30 5105 C 478.842 -0.222492 -1.58042 0
M  V30 5106 C 479.042 1.27505 -1.56028 0
M  V30 5107 O 478.098 2.05555 -1.46641 0
M  V30 5108 C 479.411 -0.853694 -2.88327 0
M  V30 5109 C 480.959 -0.825397 -3.01921 0
M  V30 5110 C 481.434 -1.43576 -4.34914 0
M  V30 5111 N 482.925 -1.39918 -4.41562 0
M  V30 5112 C 483.66 -1.84103 -5.43041 0
M  V30 5113 N 483.156 -2.36167 -6.51304 0
M  V30 5114 N 484.949 -1.75142 -5.34118 0
M  V30 5115 H 477.1 -1.53525 -1.46778 0
M  V30 5116 H 479.363 -0.640527 -0.698877 0
M  V30 5117 H 479.069 -1.90635 -2.95552 0
M  V30 5118 H 478.943 -0.34977 -3.75575 0
M  V30 5119 H 481.33 0.218583 -2.94289 0
M  V30 5120 H 481.411 -1.36713 -2.16202 0
M  V30 5121 H 481.055 -2.47884 -4.43301 0
M  V30 5122 H 480.985 -0.869427 -5.19373 0
M  V30 5123 H 483.476 -1.0184 -3.63919 0
M  V30 5124 H 483.789 -2.67793 -7.24919 0
M  V30 5125 H 482.134 -2.40181 -6.52179 0
M  V30 5126 H 485.325 -1.34241 -4.48439 0
M  V30 5127 H 485.498 -2.09895 -6.13065 0
M  V30 5128 N 478.904 1.54736 -0.299062 0
M  V30 5129 C 480.144 2.0201 0.31168 0
M  V30 5130 C 480.508 1.18281 1.5124 0
M  V30 5131 O 481.709 1.55243 2.19438 0
M  V30 5132 C 479.98 3.5123 0.661227 0
M  V30 5133 S 481.539 4.20467 1.2551 0
M  V30 5134 H 478.357 0.704523 0.0957517 0
M  V30 5135 H 480.959 1.90791 -0.426482 0
M  V30 5136 H 479.663 4.09804 -0.221171 0
M  V30 5137 H 479.194 3.66481 1.43023 0
M  V30 5138 H 481.209 4.26083 2.54298 0
M  V30 5139 N 480.382 0.0267497 1.57577 0
M  V30 5140 C 481.629 -0.652404 1.91703 0
M  V30 5141 C 481.957 -1.72271 0.902936 0
M  V30 5142 O 481.212 -1.955 -0.0884843 0
M  V30 5143 C 481.511 -1.30914 3.3256 0
M  V30 5144 C 481.177 -0.369441 4.49384 0
M  V30 5145 C 479.839 -0.110791 4.81072 0
M  V30 5146 C 482.191 0.275971 5.20469 0
M  V30 5147 C 479.519 0.801116 5.81205 0
M  V30 5148 C 481.871 1.17592 6.21575 0
M  V30 5149 C 480.535 1.44348 6.51705 0
M  V30 5150 H 479.805 -0.238732 0.70149 0
M  V30 5151 H 482.452 0.0880091 1.91298 0
M  V30 5152 H 480.757 -2.12425 3.29216 0
M  V30 5153 H 482.454 -1.84115 3.56234 0
M  V30 5154 H 479.044 -0.581211 4.24641 0
M  V30 5155 H 483.228 0.0892 4.9622 0
M  V30 5156 H 478.484 1.01614 6.02897 0
M  V30 5157 H 482.658 1.68223 6.75777 0
M  V30 5158 H 480.285 2.15176 7.29111 0
M  V30 5159 N 481.861 -1.55662 -0.24637 0
M  V30 5160 C 483.101 -1.79283 -0.981685 0
M  V30 5161 C 483.465 -0.596356 -1.82504 0
M  V30 5162 O 484.666 -0.711342 -2.59217 0
M  V30 5163 C 482.937 -3.07648 -1.819 0
M  V30 5164 S 484.496 -3.52491 -2.61334 0
M  V30 5165 H 481.314 -0.629676 -0.330196 0
M  V30 5166 H 483.916 -1.93901 -0.249498 0
M  V30 5167 H 482.62 -3.92794 -1.18915 0
M  V30 5168 H 482.151 -2.95768 -2.59393 0
M  V30 5169 H 484.166 -3.13866 -3.84321 0
M  V30 5170 O 483.378 0.392 -1.5667 0
M  V30 5171 H 484.069 1.04392 -1.63163 0
M  V30 END ATOM
M  V30 BEGIN BOND
M  V30 END BOND
M  V30 END CTAB
M  END
$$$$
