drugbank_target|P06210 Genome polyprotein (DB08231)
 OpenBabel12092120493D

  0  0  0     0  0            999 V3000
M  V30 BEGIN CTAB
M  V30 COUNTS 34354 34764 0 0 0
M  V30 BEGIN ATOM
M  V30 1 H -0.908 1.98254 -0.117106 0
M  V30 2 N 0 1.576 0 0
M  V30 3 C 0.933 2.03868 1.02534 0
M  V30 4 C 1.911 0.928543 1.3348 0
M  V30 5 O 3.095 1.19667 1.45644 0
M  V30 6 C 0.222 2.43627 2.35294 0
M  V30 7 C -0.732 3.65373 2.2001 0
M  V30 8 S 0.101 5.13292 1.52614 0
M  V30 9 C 1.257 5.56322 2.86805 0
M  V30 10 H 1.49 2.90518 0.631377 0
M  V30 11 H -0.977 1.52953 0.210867 0
M  V30 12 H 0.981 2.67203 3.11629 0
M  V30 13 H -0.358 1.57376 2.7183 0
M  V30 14 H -1.165 3.90944 3.18086 0
M  V30 15 H -1.563 3.418 1.51819 0
M  V30 16 H 0.729 5.58782 3.83104 0
M  V30 17 H 1.672 6.56266 2.65933 0
M  V30 18 H 2.08 4.83886 2.90714 0
M  V30 19 N 1.4781 -0.272755 1.55222 0
M  V30 20 C 2.7261 -1.00234 1.75492 0
M  V30 21 C 3.0471 -1.8681 0.5592 0
M  V30 22 O 2.3171 -1.91215 -0.425882 0
M  V30 23 H 0.8971 -0.373076 0.647166 0
M  V30 24 H 3.5591 -0.296926 1.92625 0
M  V30 25 H 2.6551 -1.63913 2.65592 0
M  V30 26 N 2.9562 -1.48159 -0.537278 0
M  V30 27 C 3.9192 -1.61665 -1.62472 0
M  V30 28 C 4.9192 -0.490395 -1.5314 0
M  V30 29 O 6.1092 -0.755998 -1.5694 0
M  V30 30 C 3.2412 -1.57997 -3.02076 0
M  V30 31 H 4.4342 -2.58621 -1.51839 0
M  V30 32 H 1.9872 -1.36647 -0.758771 0
M  V30 33 H 2.7222 -0.624913 -3.18222 0
M  V30 34 H 2.5072 -2.39755 -3.10258 0
M  V30 35 H 3.9972 -1.70627 -3.81151 0
M  V30 36 N 4.4343 0.785586 -1.36625 0
M  V30 37 C 5.3663 1.90711 -1.2713 0
M  V30 38 C 6.3793 1.61688 -0.189986 0
M  V30 39 O 7.5683 1.72864 -0.445014 0
M  V30 40 C 4.6683 3.25611 -0.939713 0
M  V30 41 C 3.8413 3.82385 -2.12369 0
M  V30 42 C 2.9003 4.95732 -1.76456 0
M  V30 43 O 1.9263 5.12047 -2.48589 0
M  V30 44 N 3.1283 5.76258 -0.700492 0
M  V30 45 H 5.8933 1.99376 -2.23762 0
M  V30 46 H 3.4543 0.964041 -1.30069 0
M  V30 47 H 5.4463 3.98937 -0.680554 0
M  V30 48 H 4.0163 3.12538 -0.0624074 0
M  V30 49 H 3.2363 3.01001 -2.54543 0
M  V30 50 H 4.5243 4.17047 -2.9146 0
M  V30 51 H 3.9223 5.65609 -0.101624 0
M  V30 52 H 2.4793 6.4987 -0.501165 0
M  V30 53 N 5.9124 1.20967 1.01018 0
M  V30 54 C 7.1584 1.02526 1.74975 0
M  V30 55 C 7.4914 -0.4408 1.89131 0
M  V30 56 O 6.7664 -1.32718 1.42184 0
M  V30 57 C 7.0494 1.71699 3.1653 0
M  V30 58 C 6.9024 3.25791 3.10129 0
M  V30 59 C 8.2214 1.45531 4.15342 0
M  V30 60 H 5.3404 0.373863 0.635134 0
M  V30 61 H 7.9824 1.49071 1.17805 0
M  V30 62 H 6.1324 1.32128 3.65341 0
M  V30 63 H 7.8044 3.74697 2.69072 0
M  V30 64 H 6.0474 3.56363 2.47362 0
M  V30 65 H 6.7184 3.69353 4.10222 0
M  V30 66 H 9.1944 1.79872 3.75213 0
M  V30 67 H 8.0704 1.96453 5.1254 0
M  V30 68 H 8.3314 0.384237 4.40427 0
M  V30 69 N 7.3905 -1.2043 1.01659 0
M  V30 70 C 8.6155 -1.94318 0.724942 0
M  V30 71 C 9.0405 -1.74266 -0.708034 0
M  V30 72 O 8.3985 -1.03694 -1.48719 0
M  V30 73 C 8.4465 -3.44486 1.06591 0
M  V30 74 O 7.5505 -4.12017 0.177599 0
M  V30 75 H 6.8915 -0.60708 0.26898 0
M  V30 76 H 9.4215 -1.52861 1.35995 0
M  V30 77 H 9.4315 -3.95106 1.01762 0
M  V30 78 H 8.1065 -3.58404 2.10997 0
M  V30 79 H 6.6835 -3.71821 0.283421 0
M  V30 80 N 8.8686 -0.792821 -1.36206 0
M  V30 81 C 10.0936 -0.377701 -2.03932 0
M  V30 82 C 10.5186 0.998947 -1.59382 0
M  V30 83 O 9.8766 1.64421 -0.763903 0
M  V30 84 C 9.9246 -0.453635 -3.57735 0
M  V30 85 O 9.0286 0.538151 -4.08874 0
M  V30 86 H 8.3696 -0.159855 -0.644471 0
M  V30 87 H 10.8996 -1.07488 -1.7409 0
M  V30 88 H 10.9096 -0.318464 -4.06755 0
M  V30 89 H 9.5846 -1.45784 -3.89512 0
M  V30 90 H 8.1616 0.364359 -3.71116 0
M  V30 91 N 10.3467 1.47872 -0.545128 0
M  V30 92 C 11.2787 2.27869 0.246621 0
M  V30 93 C 12.2917 1.36282 0.890561 0
M  V30 94 O 13.4807 1.61207 0.766449 0
M  V30 95 C 10.5807 3.10159 1.36582 0
M  V30 96 C 9.7537 4.29627 0.820954 0
M  V30 97 C 8.8127 4.93607 1.82314 0
M  V30 98 O 7.8387 5.52366 1.37406 0
M  V30 99 N 9.0407 4.87211 3.15603 0
M  V30 100 H 11.8057 2.96459 -0.439539 0
M  V30 101 H 9.3667 1.57367 -0.380421 0
M  V30 102 H 11.3587 3.49829 2.03474 0
M  V30 103 H 9.9287 2.43891 1.9554 0
M  V30 104 H 9.1487 3.94192 -0.0244032 0
M  V30 105 H 10.4367 5.06928 0.436063 0
M  V30 106 H 9.8347 4.40651 3.54744 0
M  V30 107 H 8.3917 5.30937 3.78087 0
M  V30 108 N 11.8248 0.280983 1.55075 0
M  V30 109 C 12.7718 -0.603937 2.22758 0
M  V30 110 C 13.7418 -1.1452 1.20309 0
M  V30 111 O 14.9268 -1.19343 1.48869 0
M  V30 112 C 12.0668 -1.77947 2.95684 0
M  V30 113 C 11.1798 -1.2715 4.12864 0
M  V30 114 C 10.3148 -2.4093 4.7342 0
M  V30 115 C 9.3538 -1.87165 5.82783 0
M  V30 116 N 8.4908 -2.94441 6.37377 0
M  V30 117 H 13.3308 -0.020124 2.97993 0
M  V30 118 H 10.8678 0.00183425 1.471 0
M  V30 119 H 12.8258 -2.47055 3.36184 0
M  V30 120 H 11.4558 -2.33522 2.22861 0
M  V30 121 H 10.5078 -0.473331 3.77444 0
M  V30 122 H 11.8198 -0.837751 4.91715 0
M  V30 123 H 10.9738 -3.18021 5.1667 0
M  V30 124 H 9.7128 -2.87623 3.93859 0
M  V30 125 H 8.7178 -1.08556 5.38976 0
M  V30 126 H 9.9428 -1.41401 6.64216 0
M  V30 127 H 7.8888 -3.40505 5.60707 0
M  V30 128 H 7.8058 -2.55501 7.11516 0
M  V30 129 H 9.0738 -3.71489 6.85285 0
M  V30 130 N 13.3029 -1.57598 0.00835791 0
M  V30 131 C 14.5489 -1.91211 -0.675732 0
M  V30 132 C 14.8819 -0.883139 -1.72958 0
M  V30 133 O 14.1569 0.097016 -1.94258 0
M  V30 134 C 14.4399 -3.35379 -1.31123 0
M  V30 135 C 14.2929 -4.48999 -0.268356 0
M  V30 136 C 15.6119 -3.7912 -2.23508 0
M  V30 137 H 12.7309 -0.695374 -0.244179 0
M  V30 138 H 15.3729 -1.89901 0.0613655 0
M  V30 139 H 13.5229 -3.36626 -1.93946 0
M  V30 140 H 15.1949 -4.59887 0.360844 0
M  V30 141 H 13.4379 -4.31873 0.408482 0
M  V30 142 H 14.1089 -5.46851 -0.752218 0
M  V30 143 H 16.5849 -3.79477 -1.70693 0
M  V30 144 H 15.4609 -4.80729 -2.64936 0
M  V30 145 H 15.7219 -3.13455 -3.11766 0
M  V30 146 N 14.781 0.264519 -1.55364 0
M  V30 147 C 16.029 0.993021 -1.76021 0
M  V30 148 C 16.35 1.86511 -0.569099 0
M  V30 149 O 15.62 1.91438 0.415735 0
M  V30 150 H 14.2 0.369639 -0.649135 0
M  V30 151 H 16.862 0.286707 -1.9278 0
M  V30 152 H 15.958 1.62502 -2.66457 0
M  V30 153 N 16.2591 1.48442 0.529413 0
M  V30 154 C 17.2221 1.62524 1.61612 0
M  V30 155 C 18.2221 0.498509 1.52877 0
M  V30 156 O 19.4121 0.76431 1.56537 0
M  V30 157 C 16.5441 1.59597 3.01233 0
M  V30 158 H 17.7371 2.59423 1.50465 0
M  V30 159 H 15.2901 1.37047 0.751514 0
M  V30 160 H 16.0251 0.641781 3.17886 0
M  V30 161 H 15.8101 2.41397 3.08982 0
M  V30 162 H 17.3001 1.72646 3.80241 0
M  V30 163 N 17.7372 -0.778329 1.37039 0
M  V30 164 C 18.6872 -1.88142 1.28789 0
M  V30 165 C 19.6712 -1.59923 0.177063 0
M  V30 166 O 20.8632 -1.72165 0.410873 0
M  V30 167 C 17.9922 -3.25518 1.09055 0
M  V30 168 C 17.0782 -3.5971 2.24654 0
M  V30 169 N 17.4692 -3.65131 3.50018 0
M  V30 170 C 15.7672 -3.89837 2.16663 0
M  V30 171 C 16.4682 -3.95882 4.26207 0
M  V30 172 N 15.4442 -4.11441 3.55271 0
M  V30 173 H 19.2462 -1.90575 2.23737 0
M  V30 174 H 16.7602 -0.974435 1.29917 0
M  V30 175 H 18.7572 -4.04423 1.0123 0
M  V30 176 H 17.4172 -3.24353 0.15018 0
M  V30 177 H 18.4282 -3.475 3.84011 0
M  V30 178 H 15.1052 -3.96533 1.30645 0
M  V30 179 H 16.4952 -4.06907 5.34674 0
M  V30 180 N 19.2153 -1.21501 -1.00376 0
M  V30 181 C 20.1253 -0.991447 -2.12621 0
M  V30 182 C 21.1413 0.0568446 -1.73907 0
M  V30 183 O 22.3173 -0.13348 -2.00957 0
M  V30 184 C 19.3823 -0.560312 -3.42142 0
M  V30 185 C 18.4433 -1.68096 -3.95022 0
M  V30 186 C 17.6763 -1.2703 -5.18362 0
M  V30 187 O 17.8993 -0.144438 -5.70217 0
M  V30 188 O 16.8333 -2.08269 -5.64719 0
M  V30 189 H 20.6593 -1.93158 -2.34358 0
M  V30 190 H 18.2443 -0.999999 -1.10997 0
M  V30 191 H 20.1263 -0.329724 -4.20108 0
M  V30 192 H 18.8013 0.351089 -3.2179 0
M  V30 193 H 17.7083 -1.96597 -3.18278 0
M  V30 194 H 19.0413 -2.56983 -4.19786 0
M  V30 195 N 20.6934 1.19889 -1.02296 0
M  V30 196 C 21.6414 2.24938 -0.592081 0
M  V30 197 C 22.6354 1.65257 0.372357 0
M  V30 198 O 23.8414 1.78371 0.241583 0
M  V30 199 H 20.2164 0.731787 -0.173182 0
M  V30 200 H 22.1874 2.58603 -1.48885 0
M  V30 201 C 20.9364 3.47668 0.047351 0
M  V30 202 H 20.2594 3.93875 -0.685772 0
M  V30 203 H 21.6994 4.22852 0.311862 0
M  V30 204 C 20.1584 3.11136 1.29212 0
M  V30 205 O 20.6884 3.2325 2.38479 0
M  V30 206 N 18.8944 2.65625 1.17863 0
M  V30 207 H 18.4414 2.55968 0.289493 0
M  V30 208 H 18.3994 2.41553 2.01245 0
M  V30 209 N 22.1715 0.800033 1.35784 0
M  V30 210 C 23.3965 0.388511 2.03729 0
M  V30 211 C 23.8215 -0.990481 1.5991 0
M  V30 212 O 23.1795 -1.64013 0.772612 0
M  V30 213 C 23.2275 0.4726 3.5749 0
M  V30 214 O 22.3315 -0.51646 4.09153 0
M  V30 215 H 21.6725 0.163271 0.643614 0
M  V30 216 H 24.2025 1.0841 1.73518 0
M  V30 217 H 24.2125 0.34003 4.06581 0
M  V30 218 H 22.8875 1.47848 3.88734 0
M  V30 219 H 21.4645 -0.344673 3.71304 0
M  V30 220 N 23.6496 -1.47581 0.552962 0
M  V30 221 C 24.5976 -2.31648 -0.21023 0
M  V30 222 C 25.5916 -1.42663 -0.913432 0
M  V30 223 O 26.7976 -1.5945 -0.835201 0
M  V30 224 H 23.1726 -0.746989 -0.0866676 0
M  V30 225 H 25.1436 -2.93869 0.518051 0
M  V30 226 C 23.8926 -3.25226 -1.22976 0
M  V30 227 H 23.2156 -3.93658 -0.698077 0
M  V30 228 H 24.6556 -3.86889 -1.73473 0
M  V30 229 C 23.1146 -2.48448 -2.27542 0
M  V30 230 O 23.6446 -2.22585 -3.34393 0
M  V30 231 N 21.8506 -2.09532 -2.01357 0
M  V30 232 H 21.3976 -2.30765 -1.14478 0
M  V30 233 H 21.3556 -1.58476 -2.71538 0
M  V30 234 N 25.1277 -0.289203 -1.54924 0
M  V30 235 C 26.5437 0.0645403 -1.59469 0
M  V30 236 C 26.7437 1.53419 -1.30632 0
M  V30 237 O 25.7997 2.2852 -1.074 0
M  V30 238 C 27.1127 -0.32278 -2.98963 0
M  V30 239 C 28.6607 -0.270564 -3.11828 0
M  V30 240 C 29.1357 -0.632532 -4.53611 0
M  V30 241 N 30.6267 -0.584617 -4.59496 0
M  V30 242 C 31.3617 -0.837314 -5.67254 0
M  V30 243 N 30.8577 -1.15536 -6.83098 0
M  V30 244 N 32.6507 -0.765166 -5.56868 0
M  V30 245 H 24.8017 -1.24714 -1.71931 0
M  V30 246 H 27.0647 -0.504809 -0.802416 0
M  V30 247 H 26.7707 -1.34541 -3.24948 0
M  V30 248 H 26.6447 0.32944 -3.75759 0
M  V30 249 H 29.0317 0.742805 -2.85598 0
M  V30 250 H 29.1127 -0.957242 -2.37214 0
M  V30 251 H 28.7567 -1.64365 -4.80569 0
M  V30 252 H 28.6867 0.07609 -5.26545 0
M  V30 253 H 31.1777 -0.349248 -3.76283 0
M  V30 254 H 31.4907 -1.33447 -7.61191 0
M  V30 255 H 29.8357 -1.19328 -6.84679 0
M  V30 256 H 33.0267 -0.516432 -4.65243 0
M  V30 257 H 33.1997 -0.965477 -6.40767 0
M  V30 258 N 26.6058 1.57591 -0.0167156 0
M  V30 259 C 27.5688 2.08393 0.954204 0
M  V30 260 C 28.5688 0.996531 1.26198 0
M  V30 261 O 29.7588 1.25858 1.20438 0
M  V30 262 C 26.8908 2.5394 2.27436 0
M  V30 263 H 28.0838 2.95455 0.514451 0
M  V30 264 H 25.6368 1.54582 0.231089 0
M  V30 265 H 26.3718 1.70171 2.76066 0
M  V30 266 H 26.1568 3.33371 2.06412 0
M  V30 267 H 27.6468 2.93512 2.97053 0
M  V30 268 N 28.0839 -0.256276 1.55502 0
M  V30 269 C 29.3139 -1.00196 1.80677 0
M  V30 270 C 29.7219 -1.79805 0.588797 0
M  V30 271 O 29.0649 -1.78055 -0.451883 0
M  V30 272 C 29.1269 -1.99515 2.99055 0
M  V30 273 C 28.7909 -1.38688 4.35448 0
M  V30 274 C 29.7879 -0.794079 5.138 0
M  V30 275 C 27.4729 -1.40906 4.82132 0
M  V30 276 C 29.4669 -0.231562 6.36979 0
M  V30 277 C 27.1539 -0.842684 6.05262 0
M  V30 278 C 28.1519 -0.254953 6.82524 0
M  V30 279 O 27.8399 0.3027 8.0333 0
M  V30 280 H 27.5719 -0.300919 0.60533 0
M  V30 281 H 30.1259 -0.287307 2.03381 0
M  V30 282 H 28.3559 -2.74785 2.72084 0
M  V30 283 H 30.0449 -2.60349 3.11405 0
M  V30 284 H 30.8109 -0.769519 4.78856 0
M  V30 285 H 26.6899 -1.85591 4.21992 0
M  V30 286 H 30.2339 0.227816 6.97228 0
M  V30 287 H 26.1309 -0.86454 6.39684 0
M  V30 288 H 26.8989 0.193662 8.18271 0
M  V30 289 N 29.562 -1.4872 -0.521534 0
M  V30 290 C 30.81 -1.56857 -1.27437 0
M  V30 291 C 31.131 -0.247982 -1.93417 0
M  V30 292 O 30.401 0.731151 -1.81744 0
M  V30 293 H 28.981 -0.577885 -0.473347 0
M  V30 294 H 31.643 -1.85233 -0.606205 0
M  V30 295 H 30.739 -2.35402 -2.0492 0
M  V30 296 N 31.0401 0.771051 -1.3745 0
M  V30 297 C 32.2881 1.52661 -1.32435 0
M  V30 298 C 32.6091 1.9479 0.0905024 0
M  V30 299 O 31.8791 1.66348 1.03466 0
M  V30 300 H 30.4591 0.566218 -0.487244 0
M  V30 301 H 33.1211 0.917636 -1.71946 0
M  V30 302 H 32.2171 2.42568 -1.96385 0
M  V30 303 N 32.5182 1.22032 0.997298 0
M  V30 304 C 33.7432 1.06921 1.77715 0
M  V30 305 C 34.1682 -0.376226 1.84299 0
M  V30 306 O 33.5262 -1.27165 1.29223 0
M  V30 307 C 33.5742 1.67996 3.19076 0
M  V30 308 O 32.6782 0.930653 4.01762 0
M  V30 309 H 32.0192 0.375814 0.547412 0
M  V30 310 H 34.5492 1.61737 1.25309 0
M  V30 311 H 34.5592 1.72538 3.69723 0
M  V30 312 H 33.2342 2.73182 3.13599 0
M  V30 313 H 31.8112 0.960917 3.60307 0
M  V30 314 N 33.9963 -1.19345 1.0293 0
M  V30 315 C 35.2243 -1.92997 0.745644 0
M  V30 316 C 35.6393 -1.75519 -0.695589 0
M  V30 317 O 34.9963 -1.07737 -1.47306 0
M  V30 318 C 35.0473 -3.44741 1.08792 0
M  V30 319 O 34.7683 -3.61658 2.47256 0
M  V30 320 C 36.2693 -4.35515 0.827129 0
M  V30 321 H 33.4893 -0.613042 0.272801 0
M  V30 322 H 36.0333 -1.51473 1.3739 0
M  V30 323 H 34.1883 -3.84097 0.504832 0
M  V30 324 H 34.6023 -4.55514 2.60015 0
M  V30 325 H 36.0763 -5.40589 1.11658 0
M  V30 326 H 36.5533 -4.38552 -0.238436 0
M  V30 327 H 37.1593 -4.01841 1.39297 0
M  V30 328 N 35.4744 -0.807222 -1.35358 0
M  V30 329 C 36.7234 -0.384376 -1.98004 0
M  V30 330 C 37.0364 1.0543 -1.64754 0
M  V30 331 O 38.2424 1.58029 -2.20769 0
M  V30 332 C 36.6984 -0.636326 -3.5423 0
M  V30 333 C 36.3064 -2.08759 -3.96388 0
M  V30 334 C 38.0504 -0.278869 -4.23583 0
M  V30 335 C 35.9574 -2.28525 -5.45463 0
M  V30 336 H 34.8874 -0.139986 -0.740891 0
M  V30 337 H 37.5384 -0.991369 -1.54415 0
M  V30 338 H 35.9204 0.0406256 -3.95979 0
M  V30 339 H 37.0944 -2.8024 -3.6579 0
M  V30 340 H 35.4094 -2.40497 -3.39926 0
M  V30 341 H 38.0064 -0.404599 -5.33167 0
M  V30 342 H 38.3494 0.775012 -4.09022 0
M  V30 343 H 38.8824 -0.909764 -3.87257 0
M  V30 344 H 35.6214 -3.32361 -5.64992 0
M  V30 345 H 35.1414 -1.61569 -5.77629 0
M  V30 346 H 36.8204 -2.10109 -6.11934 0
M  V30 347 N 36.9525 1.47285 -0.560781 0
M  V30 348 C 37.9005 2.31756 0.197942 0
M  V30 349 C 38.8945 1.43146 0.905854 0
M  V30 350 O 40.1005 1.59891 0.826733 0
M  V30 351 H 36.4755 0.747438 0.0827049 0
M  V30 352 H 38.4465 2.9359 -0.533629 0
M  V30 353 C 37.1955 3.25874 1.21249 0
M  V30 354 H 36.5185 3.94023 0.67719 0
M  V30 355 H 37.9585 3.87803 1.71419 0
M  V30 356 C 36.4175 2.49651 2.26221 0
M  V30 357 O 36.9475 2.24355 3.33208 0
M  V30 358 N 35.1535 2.10597 2.00243 0
M  V30 359 H 34.7005 2.31369 1.13252 0
M  V30 360 H 34.6585 1.59913 2.70694 0
M  V30 361 N 38.4306 0.297415 1.54768 0
M  V30 362 C 39.6606 -0.315165 2.04182 0
M  V30 363 C 40.0686 -1.4834 1.17439 0
M  V30 364 O 39.4116 -1.82695 0.191891 0
M  V30 365 C 39.4736 -0.837583 3.49607 0
M  V30 366 C 39.1376 0.204912 4.5654 0
M  V30 367 C 40.1346 1.03214 5.09552 0
M  V30 368 C 37.8196 0.345578 5.0111 0
M  V30 369 C 39.8136 1.986 6.05671 0
M  V30 370 C 37.5006 1.30289 5.97049 0
M  V30 371 C 38.4986 2.12159 6.49213 0
M  V30 372 O 38.1866 3.06268 7.43273 0
M  V30 373 H 37.9186 -0.0729646 0.672051 0
M  V30 374 H 40.4726 0.433907 2.00765 0
M  V30 375 H 38.7026 -1.63712 3.50336 0
M  V30 376 H 40.3916 -1.36566 3.82236 0
M  V30 377 H 41.1576 0.934312 4.75916 0
M  V30 378 H 37.0366 -0.28171 4.60138 0
M  V30 379 H 40.5806 2.62542 6.46311 0
M  V30 380 H 36.4776 1.40145 6.30103 0
M  V30 381 H 37.2456 3.01205 7.61064 0
M  V30 382 N 39.9087 -1.5758 0.0250728 0
M  V30 383 C 41.1367 -1.9593 -0.664747 0
M  V30 384 C 41.5517 -0.901352 -1.65895 0
M  V30 385 O 40.9087 0.117255 -1.82123 0
M  V30 386 C 40.9597 -3.34342 -1.37468 0
M  V30 387 O 40.6807 -4.36079 -0.420324 0
M  V30 388 C 42.1817 -3.873 -2.1567 0
M  V30 389 H 39.4017 -0.645405 -0.183557 0
M  V30 390 H 41.9457 -2.04329 0.0836372 0
M  V30 391 H 40.1007 -3.27175 -2.0745 0
M  V30 392 H 40.5147 -5.16297 -0.923991 0
M  V30 393 H 41.9887 -4.86504 -2.60803 0
M  V30 394 H 42.4657 -3.21331 -2.99405 0
M  V30 395 H 43.0717 -3.97723 -1.50654 0
M  V30 396 N 41.3868 0.248026 -1.55636 0
M  V30 397 C 42.6148 0.993808 -1.81469 0
M  V30 398 C 43.0298 1.78991 -0.60064 0
M  V30 399 O 42.3868 1.77345 0.430682 0
M  V30 400 C 42.4378 1.93258 -3.05506 0
M  V30 401 O 42.1588 1.16869 -4.22224 0
M  V30 402 C 43.6598 2.79444 -3.4413 0
M  V30 403 H 40.8798 0.292486 -0.603898 0
M  V30 404 H 43.4238 0.271253 -2.02693 0
M  V30 405 H 41.5788 2.60943 -2.86335 0
M  V30 406 H 41.9928 1.80359 -4.92515 0
M  V30 407 H 43.4668 3.41066 -4.34026 0
M  V30 408 H 43.9438 3.50499 -2.64665 0
M  V30 409 H 44.5498 2.17214 -3.65648 0
M  V30 410 N 42.8649 1.48995 0.513639 0
M  V30 411 C 44.1139 1.57093 1.2651 0
M  V30 412 C 44.4269 0.257091 1.93903 0
M  V30 413 O 45.6329 0.216478 2.70636 0
M  V30 414 C 44.0889 2.77118 2.29638 0
M  V30 415 C 43.6969 4.15209 1.68241 0
M  V30 416 C 45.4409 2.94538 3.05692 0
M  V30 417 C 43.3479 5.26474 2.69406 0
M  V30 418 H 42.2779 0.584876 0.475854 0
M  V30 419 H 44.9289 1.7536 0.540487 0
M  V30 420 H 43.3109 2.52319 3.05207 0
M  V30 421 H 44.4849 4.50094 0.987505 0
M  V30 422 H 42.7999 4.03042 1.04623 0
M  V30 423 H 45.3969 3.74832 3.8132 0
M  V30 424 H 45.7399 2.04614 3.62545 0
M  V30 425 H 46.2729 3.19316 2.37238 0
M  V30 426 H 43.0119 6.18417 2.17351 0
M  V30 427 H 42.5319 4.96058 3.37175 0
M  V30 428 H 44.2109 5.55277 3.32078 0
M  V30 429 N 44.343 -0.763751 1.37857 0
M  V30 430 C 45.291 -1.89864 1.34367 0
M  V30 431 C 46.285 -1.67816 0.231143 0
M  V30 432 O 47.491 -1.75508 0.399617 0
M  V30 433 H 43.866 -0.624501 0.41893 0
M  V30 434 H 45.837 -1.89925 2.30155 0
M  V30 435 C 44.586 -3.27227 1.1755 0
M  V30 436 H 43.909 -3.44773 2.02414 0
M  V30 437 H 45.349 -4.06911 1.1916 0
M  V30 438 C 43.808 -3.36692 -0.118311 0
M  V30 439 O 44.338 -3.86374 -1.09902 0
M  V30 440 N 42.544 -2.90092 -0.171717 0
M  V30 441 H 42.091 -2.49853 0.627012 0
M  V30 442 H 42.049 -2.96806 -1.03699 0
M  V30 443 N 45.8211 -1.22559 -0.990812 0
M  V30 444 C 47.0511 -1.07623 -1.76355 0
M  V30 445 C 47.4591 0.37601 -1.85426 0
M  V30 446 O 46.8021 1.27228 -1.32509 0
M  V30 447 C 46.8641 -1.61507 -3.21179 0
M  V30 448 C 46.5281 -3.10146 -3.35646 0
M  V30 449 C 47.5251 -4.07553 -3.22796 0
M  V30 450 C 45.2101 -3.49644 -3.60631 0
M  V30 451 C 47.2041 -5.42442 -3.34716 0
M  V30 452 C 44.8911 -4.84682 -3.72192 0
M  V30 453 C 45.8891 -5.8089 -3.59243 0
M  V30 454 O 45.5771 -7.13476 -3.70415 0
M  V30 455 H 45.3091 -0.377745 -0.560611 0
M  V30 456 H 47.8631 -1.62658 -1.25425 0
M  V30 457 H 46.0931 -1.00881 -3.73309 0
M  V30 458 H 47.7821 -1.42202 -3.80175 0
M  V30 459 H 48.5481 -3.78381 -3.03403 0
M  V30 460 H 44.4271 -2.75282 -3.69785 0
M  V30 461 H 47.9711 -6.17518 -3.24526 0
M  V30 462 H 43.8681 -5.13534 -3.91092 0
M  V30 463 H 44.6361 -7.21083 -3.87275 0
M  V30 464 N 47.2992 1.18797 -1.03562 0
M  V30 465 C 48.5292 1.92319 -0.754773 0
M  V30 466 C 48.9372 1.7612 0.691248 0
M  V30 467 O 48.2802 1.08491 1.48241 0
M  V30 468 C 48.3422 3.44284 -1.03484 0
M  V30 469 C 48.0062 3.84258 -2.47376 0
M  V30 470 C 49.0032 3.88459 -3.45537 0
M  V30 471 C 46.6882 4.15701 -2.81954 0
M  V30 472 C 48.6822 4.23545 -4.76328 0
M  V30 473 C 46.3692 4.50458 -4.12954 0
M  V30 474 C 47.3672 4.54356 -5.09951 0
M  V30 475 O 47.0552 4.88305 -6.38603 0
M  V30 476 H 46.7872 0.617527 -0.275021 0
M  V30 477 H 49.3412 1.51683 -1.38497 0
M  V30 478 H 47.5712 3.85135 -0.347513 0
M  V30 479 H 49.2602 3.99049 -0.7426 0
M  V30 480 H 50.0262 3.6431 -3.20162 0
M  V30 481 H 45.9052 4.11847 -2.0713 0
M  V30 482 H 49.4492 4.26502 -5.52035 0
M  V30 483 H 45.3462 4.74067 -4.38099 0
M  V30 484 H 46.1142 5.06227 -6.43177 0
M  V30 485 N 48.7773 0.814389 1.34928 0
M  V30 486 C 50.1933 0.499084 1.51596 0
M  V30 487 C 50.3933 -0.978319 1.76157 0
M  V30 488 O 49.4493 -1.76309 1.80752 0
M  V30 489 C 50.7623 1.35121 2.68631 0
M  V30 490 C 52.3103 1.34746 2.82511 0
M  V30 491 C 52.7853 2.18388 4.0258 0
M  V30 492 N 54.2763 2.15966 4.09772 0
M  V30 493 C 55.0113 2.77437 5.01813 0
M  V30 494 N 54.5073 3.47866 5.99134 0
M  V30 495 N 56.3003 2.67037 4.94619 0
M  V30 496 H 48.4513 1.7711 1.17243 0
M  V30 497 H 50.7143 0.754256 0.574284 0
M  V30 498 H 50.4203 2.40001 2.57085 0
M  V30 499 H 50.2943 1.00991 3.63429 0
M  V30 500 H 52.6813 0.30648 2.93504 0
M  V30 501 H 52.7623 1.72869 1.88547 0
M  V30 502 H 52.4063 3.2253 3.92347 0
M  V30 503 H 52.3363 1.77621 4.9574 0
M  V30 504 H 54.8273 1.64729 3.40107 0
M  V30 505 H 55.1403 3.92038 6.65977 0
M  V30 506 H 53.4853 3.51972 5.99284 0
M  V30 507 H 56.6763 2.11597 4.17546 0
M  V30 508 H 56.8493 3.15232 5.66156 0
M  V30 509 N 50.2554 -1.46986 0.568584 0
M  V30 510 C 51.5324 -1.95592 -0.0174074 0
M  V30 511 C 51.9124 -1.51124 -1.47393 0
M  V30 512 O 51.2604 -0.755329 -2.15655 0
M  V30 513 C 51.4704 -3.48719 0.139913 0
M  V30 514 C 52.8184 -4.246 0.000426376 0
M  V30 515 O 53.8424 -3.56135 0.0680316 0
M  V30 516 O 52.7014 -5.46302 -0.146988 0
M  V30 517 H 49.7954 -0.82498 -0.0577599 0
M  V30 518 H 52.3414 -1.57335 0.635909 0
M  V30 519 H 51.1134 -3.73927 1.15301 0
M  V30 520 H 50.7364 -3.93771 -0.550491 0
M  V30 521 N 51.7335 -0.305618 -1.54608 0
M  V30 522 C 52.9585 0.307562 -2.05107 0
M  V30 523 C 53.3835 1.46385 -1.18123 0
M  V30 524 O 52.7415 1.8034 -0.186324 0
M  V30 525 C 52.7895 0.73704 -3.52987 0
M  V30 526 O 51.8935 1.84134 -3.6901 0
M  V30 527 H 51.2345 0.0589143 -0.661381 0
M  V30 528 H 53.7645 -0.448807 -1.99617 0
M  V30 529 H 53.7745 1.02459 -3.94925 0
M  V30 530 H 52.4495 -0.108773 -4.15758 0
M  V30 531 H 51.0265 1.55398 -3.38978 0
M  V30 532 N 53.2116 1.57565 -0.0334293 0
M  V30 533 C 54.1746 2.09393 0.932048 0
M  V30 534 C 55.1746 1.00986 1.25134 0
M  V30 535 O 56.3646 1.27129 1.19096 0
M  V30 536 C 53.4966 2.56338 2.2473 0
M  V30 537 H 54.6896 2.95984 0.483085 0
M  V30 538 H 52.2426 1.54819 0.21468 0
M  V30 539 H 52.9776 1.7309 2.74245 0
M  V30 540 H 52.7626 3.35542 2.02865 0
M  V30 541 H 54.2526 2.96646 2.93923 0
M  V30 542 N 54.6897 -0.239769 1.55765 0
M  V30 543 C 55.9147 -0.988373 1.82335 0
M  V30 544 C 56.3397 -1.77886 0.611421 0
M  V30 545 O 55.6977 -1.75889 -0.439639 0
M  V30 546 C 55.7457 -1.89627 3.06715 0
M  V30 547 O 54.8497 -2.98904 2.84131 0
M  V30 548 H 54.1907 -0.280858 0.601677 0
M  V30 549 H 56.7207 -0.258597 2.02959 0
M  V30 550 H 56.7307 -2.30957 3.36338 0
M  V30 551 H 55.4057 -1.31511 3.9456 0
M  V30 552 H 53.9827 -2.61651 2.65694 0
M  V30 553 N 56.1678 -1.49265 -0.50573 0
M  V30 554 C 57.1158 -1.66065 -1.62866 0
M  V30 555 C 58.1098 -0.526636 -1.61006 0
M  V30 556 O 59.3158 -0.706126 -1.65571 0
M  V30 557 H 55.6908 -0.52356 -0.539805 0
M  V30 558 H 57.6618 -2.60329 -1.45848 0
M  V30 559 C 56.4108 -1.74008 -3.01026 0
M  V30 560 H 55.7338 -2.6064 -3.03161 0
M  V30 561 H 57.1738 -1.89798 -3.79147 0
M  V30 562 C 55.6328 -0.483868 -3.33407 0
M  V30 563 O 56.1628 0.392548 -3.99777 0
M  V30 564 N 54.3688 -0.348236 -2.88506 0
M  V30 565 H 53.9158 -1.06242 -2.34671 0
M  V30 566 H 53.8738 0.491204 -3.10539 0
M  V30 567 N 57.6459 0.756429 -1.3826 0
M  V30 568 C 58.6089 1.85176 -1.35065 0
M  V30 569 C 59.6089 1.58818 -0.251703 0
M  V30 570 O 60.7989 1.66615 -0.508433 0
M  V30 571 C 57.9309 3.22596 -1.10201 0
M  V30 572 H 59.1239 1.89417 -2.3251 0
M  V30 573 H 56.6769 0.95783 -1.23512 0
M  V30 574 H 57.4119 3.24025 -0.133504 0
M  V30 575 H 57.1969 3.43122 -1.89762 0
M  V30 576 H 58.6869 4.02673 -1.10654 0
M  V30 577 N 59.124 1.23083 0.984299 0
M  V30 578 C 60.087 1.00979 2.05757 0
M  V30 579 C 61.087 -0.0269573 1.60777 0
M  V30 580 O 62.277 0.212403 1.729 0
M  V30 581 C 59.409 0.527072 3.36801 0
M  V30 582 H 60.602 1.9622 2.26799 0
M  V30 583 H 58.155 1.05072 1.15714 0
M  V30 584 H 58.89 -0.429294 3.21446 0
M  V30 585 H 58.675 1.27515 3.70786 0
M  V30 586 H 60.165 0.392942 4.15747 0
M  V30 587 N 60.6021 -1.18246 1.0419 0
M  V30 588 C 61.8271 -1.92736 0.765996 0
M  V30 589 C 62.2521 -1.75728 -0.67091 0
M  V30 590 O 61.6101 -1.06825 -1.46486 0
M  V30 591 C 61.6581 -3.42148 1.13875 0
M  V30 592 O 60.7621 -4.11548 0.264954 0
M  V30 593 H 60.1031 -0.601238 0.281797 0
M  V30 594 H 62.6331 -1.49942 1.39207 0
M  V30 595 H 62.6431 -3.92858 1.1012 0
M  V30 596 H 61.3181 -3.53848 2.18551 0
M  V30 597 H 59.8951 -3.71137 0.362226 0
M  V30 598 N 62.0802 -0.821533 -1.34494 0
M  V30 599 C 63.0272 -0.240397 -2.29545 0
M  V30 600 C 63.9972 0.634031 -1.53523 0
M  V30 601 O 65.1822 0.575966 -1.81899 0
M  V30 602 C 62.3222 0.592869 -3.39969 0
M  V30 603 C 61.4352 -0.30365 -4.30932 0
M  V30 604 C 60.5702 0.539049 -5.28458 0
M  V30 605 C 59.6092 -0.356942 -6.11058 0
M  V30 606 N 58.7462 0.446603 -7.00678 0
M  V30 607 H 63.5862 -1.05632 -2.7865 0
M  V30 608 H 61.1232 -0.532413 -1.37127 0
M  V30 609 H 63.0812 1.09129 -4.02675 0
M  V30 610 H 61.7112 1.37392 -2.92102 0
M  V30 611 H 60.7632 -0.920276 -3.691 0
M  V30 612 H 62.0752 -0.992661 -4.88823 0
M  V30 613 H 61.2292 1.102 -5.96608 0
M  V30 614 H 59.9682 1.26157 -4.71101 0
M  V30 615 H 58.9732 -0.932047 -5.41842 0
M  V30 616 H 60.1982 -1.07755 -6.70497 0
M  V30 617 H 58.1442 1.15282 -6.45791 0
M  V30 618 H 58.0612 -0.184048 -7.55776 0
M  V30 619 H 59.3292 0.992352 -7.73158 0
M  V30 620 N 63.5583 1.46682 -0.576371 0
M  V30 621 C 64.4903 2.28341 0.198231 0
M  V30 622 C 65.5033 1.38141 0.861453 0
M  V30 623 O 66.6923 1.62797 0.732082 0
M  V30 624 C 63.7923 3.12986 1.29972 0
M  V30 625 C 62.9653 4.31271 0.729639 0
M  V30 626 C 62.0243 4.97363 1.71803 0
M  V30 627 O 61.0503 5.55156 1.25658 0
M  V30 628 N 62.2523 4.93796 3.05198 0
M  V30 629 H 65.0173 2.9546 -0.502324 0
M  V30 630 H 62.5783 1.56525 -0.413715 0
M  V30 631 H 64.5703 3.54066 1.96008 0
M  V30 632 H 63.1403 2.47984 1.90323 0
M  V30 633 H 62.3603 3.94052 -0.108012 0
M  V30 634 H 63.6483 5.07739 0.328438 0
M  V30 635 H 63.0463 4.48077 3.45317 0
M  V30 636 H 61.6033 5.38837 3.6674 0
M  V30 637 N 65.0364 0.313813 1.54444 0
M  V30 638 C 66.3134 -0.345447 1.92525 0
M  V30 639 C 66.6934 -1.70667 1.24242 0
M  V30 640 O 66.0414 -2.25273 0.382654 0
M  V30 641 C 66.2514 -0.44737 3.46121 0
M  V30 642 C 67.5994 -0.712238 4.18584 0
M  V30 643 O 68.6234 -0.530678 3.52225 0
M  V30 644 O 67.4824 -1.06183 5.36085 0
M  V30 645 H 64.5764 -0.195407 0.803583 0
M  V30 646 H 67.1224 0.362813 1.65776 0
M  V30 647 H 65.8944 0.509043 3.87975 0
M  V30 648 H 65.5174 -1.20359 3.78945 0
M  V30 649 N 66.5145 -1.57545 0.0417849 0
M  V30 650 C 67.7615 -1.92317 -0.634082 0
M  V30 651 C 68.0895 -0.919334 -1.71402 0
M  V30 652 O 67.3445 0.0698253 -1.95575 0
M  V30 653 C 67.6435 -3.33794 -1.27735 0
M  V30 654 C 67.3095 -4.49716 -0.326543 0
M  V30 655 C 65.9715 -4.81156 -0.0648814 0
M  V30 656 C 68.3235 -5.20182 0.325623 0
M  V30 657 C 65.6515 -5.80414 0.856539 0
M  V30 658 C 68.0035 -6.20424 1.23518 0
M  V30 659 C 66.6675 -6.50298 1.5056 0
M  V30 660 H 65.9375 -0.703736 -0.232027 0
M  V30 661 H 68.5845 -1.91205 0.106259 0
M  V30 662 H 66.8895 -3.31228 -2.09274 0
M  V30 663 H 68.5865 -3.57975 -1.80707 0
M  V30 664 H 65.1765 -4.25176 -0.540665 0
M  V30 665 H 69.3605 -4.96112 0.136546 0
M  V30 666 H 64.6165 -6.019 1.07363 0
M  V30 667 H 68.7905 -6.74141 1.74664 0
M  V30 668 H 66.4175 -7.27025 2.22123 0
M  V30 669 N 67.9926 0.231505 -1.5589 0
M  V30 670 C 68.9556 1.27028 -1.90779 0
M  V30 671 C 69.9556 1.40308 -0.785507 0
M  V30 672 O 71.1456 1.38744 -1.05336 0
M  V30 673 C 68.2776 2.64566 -2.14983 0
M  V30 674 H 69.4706 0.973017 -2.83677 0
M  V30 675 H 67.0236 0.471486 -1.49019 0
M  V30 676 H 67.7586 2.99406 -1.24604 0
M  V30 677 H 67.5436 2.56305 -2.96732 0
M  V30 678 H 69.0336 3.39543 -2.43105 0
M  V30 679 N 69.4707 1.49531 0.497807 0
M  V30 680 C 70.4027 1.62559 1.61578 0
M  V30 681 C 71.4157 0.508134 1.54667 0
M  V30 682 O 72.6047 0.780309 1.60541 0
M  V30 683 C 69.7047 1.56925 3.00379 0
M  V30 684 C 68.8777 2.84257 3.3244 0
M  V30 685 C 67.9367 2.71632 4.50669 0
M  V30 686 O 66.9627 3.4557 4.52294 0
M  V30 687 N 68.1647 1.83391 5.5077 0
M  V30 688 H 70.9297 2.58981 1.50828 0
M  V30 689 H 68.4907 1.4666 0.685743 0
M  V30 690 H 70.4827 1.46129 3.77397 0
M  V30 691 H 69.0527 0.683483 3.05037 0
M  V30 692 H 68.2727 3.09381 2.44289 0
M  V30 693 H 69.5607 3.68666 3.5066 0
M  V30 694 H 68.9587 1.22583 5.52259 0
M  V30 695 H 67.5157 1.78515 6.26878 0
M  V30 696 N 70.9488 -0.749086 1.3866 0
M  V30 697 C 72.2258 -1.4992 1.25632 0
M  V30 698 C 72.6058 -2.10633 -0.140317 0
M  V30 699 O 71.9538 -1.97437 -1.15025 0
M  V30 700 C 72.1638 -2.56195 2.36992 0
M  V30 701 C 73.5118 -3.22972 2.75634 0
M  V30 702 O 74.5358 -2.66502 2.36337 0
M  V30 703 O 73.3948 -4.25122 3.43415 0
M  V30 704 H 70.4888 -0.665067 0.491544 0
M  V30 705 H 73.0348 -0.784113 1.50498 0
M  V30 706 H 71.8068 -2.09612 3.30422 0
M  V30 707 H 71.4298 -3.35279 2.13714 0
M  V30 708 N 72.4269 -1.23603 -0.977757 0
M  V30 709 C 73.8379 -1.06424 -1.53398 0
M  V30 710 C 74.1889 0.367578 -1.92726 0
M  V30 711 O 73.3139 1.25465 -1.76316 0
M  V30 712 C 73.9089 -1.92568 -2.78753 0
M  V30 713 C 72.4679 -1.79642 -3.30765 0
M  V30 714 C 71.6149 -1.88111 -2.03739 0
M  V30 715 H 74.5659 -1.37227 -0.797152 0
M  V30 716 H 74.5869 -1.45203 -3.51705 0
M  V30 717 H 74.0989 -2.96771 -2.50098 0
M  V30 718 H 72.1999 -0.782325 -3.64294 0
M  V30 719 H 72.3129 -2.63174 -4.00345 0
M  V30 720 H 70.6769 -1.31723 -2.17994 0
M  V30 721 H 71.4599 -2.93875 -1.77461 0
M  V30 722 N 73.905 1.17692 -1.04816 0
M  V30 723 C 75.13 1.92327 -0.776207 0
M  V30 724 C 75.555 1.76082 0.661581 0
M  V30 725 O 74.913 1.076 1.45917 0
M  V30 726 C 74.961 3.41539 -1.15687 0
M  V30 727 O 74.065 4.11402 -0.286775 0
M  V30 728 H 73.406 0.599735 -0.284981 0
M  V30 729 H 75.936 1.49201 -1.4 0
M  V30 730 H 75.946 3.92269 -1.12202 0
M  V30 731 H 74.621 3.52684 -2.20425 0
M  V30 732 H 73.198 3.70939 -0.381903 0
M  V30 733 N 75.3831 0.828654 1.34056 0
M  V30 734 C 76.3301 0.252567 2.29414 0
M  V30 735 C 77.3001 -0.62588 1.53857 0
M  V30 736 O 78.4851 -0.566312 1.82202 0
M  V30 737 C 75.6251 -0.574831 3.40279 0
M  V30 738 C 74.7381 0.326499 4.30764 0
M  V30 739 C 73.8731 -0.511016 5.28736 0
M  V30 740 C 72.9121 0.389342 6.1086 0
M  V30 741 N 72.0491 -0.409439 7.00905 0
M  V30 742 H 76.8891 1.07108 2.78086 0
M  V30 743 H 74.4261 0.539677 1.36843 0
M  V30 744 H 76.3841 -1.06992 4.03248 0
M  V30 745 H 75.0141 -1.35841 2.92826 0
M  V30 746 H 74.0661 0.939837 3.68607 0
M  V30 747 H 75.3781 1.01857 4.88289 0
M  V30 748 H 74.5321 -1.07035 5.97184 0
M  V30 749 H 73.2711 -1.23657 4.71763 0
M  V30 750 H 72.2761 0.960769 5.4134 0
M  V30 751 H 73.5011 1.1131 6.69916 0
M  V30 752 H 71.4471 -1.11856 6.46393 0
M  V30 753 H 71.3641 0.224126 7.55668 0
M  V30 754 H 72.6321 -0.951336 7.73673 0
M  V30 755 N 76.8612 -1.46375 0.584142 0
M  V30 756 C 78.1082 -2.02378 0.0702675 0
M  V30 757 C 78.4362 -1.45545 -1.29023 0
M  V30 758 O 77.6912 -0.610967 -1.85918 0
M  V30 759 C 77.9902 -3.57373 -0.0439342 0
M  V30 760 C 77.6562 -4.33252 1.24915 0
M  V30 761 C 76.3182 -4.53701 1.60341 0
M  V30 762 C 78.6702 -4.7681 2.1048 0
M  V30 763 C 75.9982 -5.1496 2.81128 0
M  V30 764 C 78.3502 -5.39404 3.30494 0
M  V30 765 C 77.0142 -5.5808 3.66201 0
M  V30 766 H 76.2842 -0.740554 0.0257127 0
M  V30 767 H 78.9312 -1.75727 0.761065 0
M  V30 768 H 77.2362 -3.83169 -0.817869 0
M  V30 769 H 78.9332 -3.98384 -0.457318 0
M  V30 770 H 75.5232 -4.17633 0.963364 0
M  V30 771 H 79.7072 -4.60766 1.84414 0
M  V30 772 H 74.9632 -5.27611 3.08928 0
M  V30 773 H 79.1372 -5.72114 3.97063 0
M  V30 774 H 76.7642 -6.05318 4.59885 0
M  V30 775 N 78.3393 -0.321999 -1.54275 0
M  V30 776 C 79.5673 0.283052 -2.04955 0
M  V30 777 C 79.9823 1.45904 -1.19823 0
M  V30 778 O 79.3393 1.81063 -0.228545 0
M  V30 779 C 79.3903 0.719028 -3.54277 0
M  V30 780 O 79.1113 -0.410175 -4.36176 0
M  V30 781 C 80.6123 1.38705 -4.21041 0
M  V30 782 H 77.8323 0.0584616 -0.668448 0
M  V30 783 H 80.3763 -0.467734 -1.99079 0
M  V30 784 H 78.5313 1.41979 -3.60445 0
M  V30 785 H 78.9453 -0.0669416 -5.24457 0
M  V30 786 H 80.4193 1.64306 -5.2698 0
M  V30 787 H 80.8963 2.33385 -3.72059 0
M  V30 788 H 81.5023 0.728906 -4.19007 0
M  V30 789 N 79.8174 1.5752 -0.0501392 0
M  V30 790 C 80.7274 2.14952 0.939827 0
M  V30 791 C 81.7434 1.10706 1.34239 0
M  V30 792 O 82.9194 1.42869 1.41952 0
M  V30 793 C 79.9844 2.68232 2.19665 0
M  V30 794 C 79.0454 3.87272 1.85253 0
M  V30 795 C 78.2784 4.38002 3.04943 0
M  V30 796 O 78.5014 3.87811 4.18281 0
M  V30 797 O 77.4354 5.29602 2.86017 0
M  V30 798 H 81.2614 2.9986 0.481392 0
M  V30 799 H 78.8464 1.4841 0.171699 0
M  V30 800 H 80.7284 3.02475 2.93406 0
M  V30 801 H 79.4034 1.86395 2.64648 0
M  V30 802 H 78.3104 3.5792 1.0883 0
M  V30 803 H 79.6434 4.70336 1.4507 0
M  V30 804 N 81.2955 -0.223234 1.56011 0
M  V30 805 C 82.7065 -0.790368 1.69145 0
M  V30 806 C 83.0575 -1.85055 0.651845 0
M  V30 807 O 82.1825 -2.15498 -0.197359 0
M  V30 808 C 82.7775 -1.4404 3.06656 0
M  V30 809 C 81.3365 -1.95494 3.2165 0
M  V30 810 C 80.4835 -0.814506 2.65068 0
M  V30 811 H 83.4345 0.00139011 1.587 0
M  V30 812 H 83.4555 -2.30916 3.0242 0
M  V30 813 H 82.9675 -0.668543 3.82298 0
M  V30 814 H 81.0685 -2.75487 2.50874 0
M  V30 815 H 81.1815 -2.13607 4.28846 0
M  V30 816 H 79.5455 -1.22137 2.23505 0
M  V30 817 H 80.3285 -0.0553515 3.43255 0
M  V30 818 N 82.7736 -1.49793 -0.48987 0
M  V30 819 C 84.0226 -1.59085 -1.23995 0
M  V30 820 C 84.3356 -0.287907 -1.9347 0
M  V30 821 O 85.5416 -0.259506 -2.70257 0
M  V30 822 C 83.9976 -2.80736 -2.252 0
M  V30 823 C 83.6056 -4.17833 -1.61614 0
M  V30 824 C 85.3496 -2.99364 -3.00967 0
M  V30 825 C 83.2566 -5.30693 -2.60996 0
M  V30 826 H 82.1866 -0.592372 -0.466488 0
M  V30 827 H 84.8376 -1.76197 -0.51252 0
M  V30 828 H 83.2196 -2.57142 -3.01154 0
M  V30 829 H 84.3936 -4.51608 -0.915774 0
M  V30 830 H 82.7086 -4.04656 -0.981977 0
M  V30 831 H 85.3056 -3.80851 -3.75308 0
M  V30 832 H 85.6486 -2.10356 -3.59244 0
M  V30 833 H 86.1816 -3.2305 -2.32128 0
M  V30 834 H 82.9206 -6.21796 -2.07485 0
M  V30 835 H 82.4406 -5.01359 -3.2924 0
M  V30 836 H 84.1196 -5.6049 -3.23202 0
M  V30 837 N 84.2517 0.741722 -1.39055 0
M  V30 838 C 85.1987 1.85566 -1.37237 0
M  V30 839 C 86.1687 1.64457 -0.233072 0
M  V30 840 O 87.3537 1.85957 -0.427147 0
M  V30 841 C 84.4937 3.23004 -1.215 0
M  V30 842 C 83.6067 3.55864 -2.44918 0
M  V30 843 C 82.7417 4.82669 -2.21821 0
M  V30 844 C 81.7807 5.08351 -3.40948 0
M  V30 845 N 80.9177 6.26356 -3.17211 0
M  V30 846 H 85.7577 1.86455 -2.32462 0
M  V30 847 H 83.2947 0.911176 -1.15482 0
M  V30 848 H 85.2527 4.02331 -1.10389 0
M  V30 849 H 83.8827 3.21411 -0.29908 0
M  V30 850 H 82.9347 2.7129 -2.66657 0
M  V30 851 H 84.2467 3.70765 -3.33668 0
M  V30 852 H 83.4007 5.69962 -2.07914 0
M  V30 853 H 82.1397 4.69929 -1.30454 0
M  V30 854 H 81.1447 4.19522 -3.55361 0
M  V30 855 H 82.3697 5.22981 -4.33207 0
M  V30 856 H 80.3157 6.14917 -2.28502 0
M  V30 857 H 80.2327 6.41813 -3.99515 0
M  V30 858 H 81.5007 7.16506 -3.06984 0
M  V30 859 N 85.7298 1.2412 0.971189 0
M  V30 860 C 87.0068 0.986867 1.6888 0
M  V30 861 C 87.3868 -0.491857 2.0529 0
M  V30 862 O 86.7348 -1.46531 1.75331 0
M  V30 863 C 86.9448 1.9063 2.92338 0
M  V30 864 C 88.2928 2.17515 3.64654 0
M  V30 865 O 89.3168 1.88254 3.02388 0
M  V30 866 O 88.1758 2.6719 4.7673 0
M  V30 867 H 85.2698 0.372944 0.738134 0
M  V30 868 H 87.8158 1.35203 1.02559 0
M  V30 869 H 86.5878 2.90552 2.62097 0
M  V30 870 H 86.2108 1.54408 3.66393 0
M  V30 871 N 87.2079 -1.17134 1.05439 0
M  V30 872 C 88.4539 -1.87733 0.767077 0
M  V30 873 C 88.7869 -1.8098 -0.704253 0
M  V30 874 O 88.0619 -1.21951 -1.5152 0
M  V30 875 C 88.3449 -3.37659 1.25133 0
M  V30 876 C 88.1979 -3.53149 2.78578 0
M  V30 877 C 89.5169 -4.31768 0.852324 0
M  V30 878 H 86.6359 -0.681687 0.280129 0
M  V30 879 H 89.2779 -1.37732 1.30881 0
M  V30 880 H 87.4279 -3.80373 0.790469 0
M  V30 881 H 89.0999 -3.19434 3.32806 0
M  V30 882 H 87.3429 -2.95345 3.17732 0
M  V30 883 H 88.0139 -4.58403 3.07523 0
M  V30 884 H 90.4899 -3.96909 1.24911 0
M  V30 885 H 89.3659 -5.35199 1.21873 0
M  V30 886 H 89.6269 -4.41429 -0.243485 0
M  V30 887 N 88.686 -0.835752 -1.33615 0
M  V30 888 C 89.616 -0.281739 -2.31794 0
M  V30 889 C 90.597 0.608833 -1.58831 0
M  V30 890 O 91.782 0.533035 -1.86741 0
M  V30 891 C 88.912 0.546612 -3.42971 0
M  V30 892 C 87.866 -0.247904 -4.27281 0
M  V30 893 C 87.192 0.704001 -5.30045 0
M  V30 894 C 88.492 -1.46324 -5.01385 0
M  V30 895 H 90.186 -1.10206 -2.78379 0
M  V30 896 H 87.732 -0.531388 -1.33837 0
M  V30 897 H 89.685 0.944467 -4.1068 0
M  V30 898 H 88.409 1.40011 -2.95067 0
M  V30 899 H 87.068 -0.627281 -3.61194 0
M  V30 900 H 86.716 1.55381 -4.78399 0
M  V30 901 H 86.416 0.176524 -5.87335 0
M  V30 902 H 87.94 1.09944 -6.0062 0
M  V30 903 H 89.354 -1.13871 -5.61877 0
M  V30 904 H 87.751 -1.92728 -5.6831 0
M  V30 905 H 88.821 -2.23467 -4.30338 0
M  V30 906 N 90.1641 1.46063 -0.591896 0
M  V30 907 C 91.4131 2.01547 -0.0786637 0
M  V30 908 C 91.7261 1.46796 1.29268 0
M  V30 909 O 92.9321 1.94157 1.89777 0
M  V30 910 C 91.3881 3.59787 -0.0900024 0
M  V30 911 C 90.9961 4.23534 -1.46023 0
M  V30 912 C 92.7401 4.22895 0.368806 0
M  V30 913 C 90.6471 5.73881 -1.4288 0
M  V30 914 H 89.5771 0.753564 -0.0256388 0
M  V30 915 H 92.2281 1.677 -0.744905 0
M  V30 916 H 90.6101 3.90752 0.642586 0
M  V30 917 H 91.7841 4.04167 -2.21328 0
M  V30 918 H 90.0991 3.72558 -1.85982 0
M  V30 919 H 92.6961 5.33116 0.411258 0
M  V30 920 H 93.0391 3.9247 1.38827 0
M  V30 921 H 93.5721 3.9659 -0.31001 0
M  V30 922 H 90.3111 6.0898 -2.42536 0
M  V30 923 H 89.8311 5.95486 -0.718095 0
M  V30 924 H 91.5101 6.36776 -1.14565 0
M  V30 925 N 91.6422 0.330177 1.54103 0
M  V30 926 C 92.5892 -0.532762 2.24567 0
M  V30 927 C 93.5592 -1.10635 1.23892 0
M  V30 928 O 94.7442 -1.14546 1.5259 0
M  V30 929 C 91.8842 -1.6845 3.01195 0
M  V30 930 C 90.9972 -1.13951 4.167 0
M  V30 931 C 90.1322 -2.25746 4.80845 0
M  V30 932 C 89.1712 -1.6853 5.88442 0
M  V30 933 N 88.3082 -2.74014 6.46421 0
M  V30 934 H 93.1482 0.0746905 2.97906 0
M  V30 935 H 90.6852 0.048632 1.4702 0
M  V30 936 H 92.6432 -2.36234 3.43874 0
M  V30 937 H 91.2732 -2.26314 2.30178 0
M  V30 938 H 90.3252 -0.35301 3.78758 0
M  V30 939 H 91.6372 -0.680892 4.94131 0
M  V30 940 H 90.7912 -3.01422 5.26526 0
M  V30 941 H 89.5302 -2.74947 4.0281 0
M  V30 942 H 88.5352 -0.913543 5.42157 0
M  V30 943 H 89.7602 -1.20198 6.68378 0
M  V30 944 H 87.7062 -3.22494 5.71256 0
M  V30 945 H 87.6232 -2.32735 7.19285 0
M  V30 946 H 88.8912 -3.49499 6.96757 0
M  V30 947 N 93.1203 -1.57491 0.0584922 0
M  V30 948 C 94.3483 -1.97296 -0.623037 0
M  V30 949 C 94.7633 -0.936338 -1.63946 0
M  V30 950 O 94.1203 0.0785981 -1.82331 0
M  V30 951 C 94.1713 -3.37183 -1.30345 0
M  V30 952 O 93.8923 -4.36872 -0.32773 0
M  V30 953 C 95.3933 -3.91788 -2.07406 0
M  V30 954 H 92.6133 -0.649153 -0.169826 0
M  V30 955 H 95.1573 -2.04106 0.12696 0
M  V30 956 H 93.3123 -3.31502 -2.00463 0
M  V30 957 H 93.7263 -5.18141 -0.814269 0
M  V30 958 H 95.2003 -4.91926 -2.50425 0
M  V30 959 H 95.6773 -3.27609 -2.92521 0
M  V30 960 H 96.2833 -4.00829 -1.42184 0
M  V30 961 N 94.5984 0.214957 -1.56127 0
M  V30 962 C 95.5614 1.24997 -1.92116 0
M  V30 963 C 96.5614 1.39467 -0.800344 0
M  V30 964 O 97.7514 1.37619 -1.06802 0
M  V30 965 C 94.8834 2.62271 -2.17777 0
M  V30 966 H 96.0764 0.942875 -2.84693 0
M  V30 967 H 93.6294 0.455654 -1.49511 0
M  V30 968 H 94.3644 2.98068 -1.27773 0
M  V30 969 H 94.1494 2.53143 -2.99434 0
M  V30 970 H 95.6394 3.36946 -2.46693 0
M  V30 971 N 96.0765 1.50051 0.48192 0
M  V30 972 C 97.4875 1.5348 1.06305 0
M  V30 973 C 97.8385 0.331997 1.93371 0
M  V30 974 O 96.9635 -0.556256 2.09129 0
M  V30 975 C 97.5585 2.7813 1.93466 0
M  V30 976 C 96.1175 2.84275 2.46707 0
M  V30 977 C 95.2645 2.47637 1.24785 0
M  V30 978 H 98.2155 1.56472 0.264995 0
M  V30 979 H 98.2365 2.59372 2.78399 0
M  V30 980 H 97.7485 3.65654 1.30072 0
M  V30 981 H 95.8495 2.01077 3.13686 0
M  V30 982 H 95.9625 3.8691 2.82555 0
M  V30 983 H 94.3265 1.99835 1.57918 0
M  V30 984 H 95.1095 3.37457 0.630694 0
M  V30 985 N 97.5546 -0.734337 1.39446 0
M  V30 986 C 98.7826 -1.52358 1.39981 0
M  V30 987 C 99.1976 -1.88799 -0.0054975 0
M  V30 988 O 98.5546 -1.54146 -0.976998 0
M  V30 989 C 98.6056 -2.81072 2.27333 0
M  V30 990 O 98.3266 -2.46178 3.62392 0
M  V30 991 C 99.8276 -3.75096 2.36259 0
M  V30 992 H 97.0476 -0.470806 0.478103 0
M  V30 993 H 99.5916 -0.907339 1.83269 0
M  V30 994 H 97.7466 -3.39026 1.87457 0
M  V30 995 H 98.1606 -3.28866 4.08592 0
M  V30 996 H 99.6346 -4.62305 3.01626 0
M  V30 997 H 100.112 -4.16892 1.38194 0
M  V30 998 H 100.718 -3.23061 2.76608 0
M  V30 999 N 99.0327 -1.24633 -0.964593 0
M  V30 1000 C 99.9627 -1.06611 -2.07741 0
M  V30 1001 C 100.944 0.0218666 -1.70086 0
M  V30 1002 O 102.129 -0.145793 -1.93652 0
M  V30 1003 C 99.2587 -0.673444 -3.40708 0
M  V30 1004 C 98.2127 -1.71054 -3.92332 0
M  V30 1005 C 97.5387 -1.17285 -5.21678 0
M  V30 1006 C 98.8387 -3.10718 -4.19824 0
M  V30 1007 H 100.533 -1.99693 -2.23076 0
M  V30 1008 H 98.0787 -0.96152 -1.07195 0
M  V30 1009 H 100.032 -0.534345 -4.17998 0
M  V30 1010 H 98.7557 0.293073 -3.25282 0
M  V30 1011 H 97.4147 -1.83791 -3.17201 0
M  V30 1012 H 97.0627 -0.196847 -5.02615 0
M  V30 1013 H 96.7627 -1.86592 -5.57187 0
M  V30 1014 H 98.2867 -1.04593 -6.01575 0
M  V30 1015 H 99.7007 -3.01192 -4.87808 0
M  V30 1016 H 98.0977 -3.77406 -4.66567 0
M  V30 1017 H 99.1677 -3.58524 -3.26479 0
M  V30 1018 N 100.511 1.16574 -1.06058 0
M  V30 1019 C 101.459 2.22941 -0.663343 0
M  V30 1020 C 102.453 1.66358 0.319593 0
M  V30 1021 O 103.659 1.7905 0.184713 0
M  V30 1022 H 100.034 0.725907 -0.196376 0
M  V30 1023 H 102.005 2.53736 -1.57037 0
M  V30 1024 C 100.754 3.47642 -0.0632808 0
M  V30 1025 H 100.077 3.91493 -0.810733 0
M  V30 1026 H 101.517 4.2363 0.177177 0
M  V30 1027 C 99.9758 3.1509 1.19248 0
M  V30 1028 O 100.506 3.30673 2.28075 0
M  V30 1029 N 98.7118 2.6924 1.09353 0
M  V30 1030 H 98.2588 2.5676 0.207912 0
M  V30 1031 H 98.2168 2.47833 1.93458 0
M  V30 1032 N 101.989 0.842826 1.3317 0
M  V30 1033 C 103.214 0.453129 2.02389 0
M  V30 1034 C 103.639 -0.939105 1.6298 0
M  V30 1035 O 102.997 -1.61472 0.8244 0
M  V30 1036 C 103.045 0.586094 3.55805 0
M  V30 1037 O 102.149 -0.386029 4.10589 0
M  V30 1038 H 101.49 0.183664 0.638094 0
M  V30 1039 H 104.02 1.13875 1.69981 0
M  V30 1040 H 104.03 0.469209 4.05293 0
M  V30 1041 H 102.705 1.6014 3.83833 0
M  V30 1042 H 101.282 -0.226371 3.72212 0
M  V30 1043 N 103.467 -1.45747 0.599634 0
M  V30 1044 C 104.878 -1.85853 0.177681 0
M  V30 1045 C 105.229 -1.50102 -1.26348 0
M  V30 1046 O 104.354 -0.923905 -1.95686 0
M  V30 1047 C 104.949 -3.37326 0.315688 0
M  V30 1048 C 103.508 -3.76365 -0.0515144 0
M  V30 1049 C 102.655 -2.69722 0.643822 0
M  V30 1050 H 105.606 -1.36661 0.806814 0
M  V30 1051 H 105.627 -3.77778 -0.454321 0
M  V30 1052 H 105.139 -3.63315 1.36468 0
M  V30 1053 H 103.24 -3.55993 -1.09999 0
M  V30 1054 H 103.353 -4.77916 0.336594 0
M  V30 1055 H 101.717 -2.54567 0.0822881 0
M  V30 1056 H 102.5 -2.98549 1.6948 0
M  V30 1057 N 104.945 -0.338344 -1.53925 0
M  V30 1058 C 105.893 0.536231 -2.26335 0
M  V30 1059 C 106.887 1.1063 -1.28286 0
M  V30 1060 O 108.093 1.05264 -1.46012 0
M  V30 1061 H 104.468 0.191602 -0.727181 0
M  V30 1062 H 106.439 -0.0965747 -2.98244 0
M  V30 1063 C 105.188 1.67803 -3.04528 0
M  V30 1064 H 104.511 1.24864 -3.79801 0
M  V30 1065 H 105.951 2.26526 -3.58416 0
M  V30 1066 C 104.41 2.60439 -2.13712 0
M  V30 1067 O 104.94 3.6255 -1.72975 0
M  V30 1068 N 103.146 2.29006 -1.78898 0
M  V30 1069 H 102.693 1.46011 -2.12223 0
M  V30 1070 H 102.651 2.91248 -1.18416 0
M  V30 1071 N 106.423 1.57458 -0.0668435 0
M  V30 1072 C 107.672 1.92477 0.602947 0
M  V30 1073 C 107.985 0.948419 1.71068 0
M  V30 1074 O 109.191 1.19124 2.43971 0
M  V30 1075 C 107.647 3.41903 1.12383 0
M  V30 1076 C 107.255 4.47975 0.04737 0
M  V30 1077 C 108.999 3.85931 1.76797 0
M  V30 1078 C 106.906 5.88529 0.582022 0
M  V30 1079 H 105.836 0.718387 0.22899 0
M  V30 1080 H 108.487 1.82978 -0.138276 0
M  V30 1081 H 106.869 3.46459 1.91787 0
M  V30 1082 H 108.043 4.55029 -0.726978 0
M  V30 1083 H 106.358 4.13384 -0.500243 0
M  V30 1084 H 108.955 4.88322 2.17821 0
M  V30 1085 H 109.298 3.23029 2.62599 0
M  V30 1086 H 109.831 3.83958 1.04024 0
M  V30 1087 H 106.57 6.55065 -0.238721 0
M  V30 1088 H 106.09 5.85004 1.324 0
M  V30 1089 H 107.769 6.38258 1.05999 0
M  V30 1090 N 107.901 -0.206675 1.56239 0
M  V30 1091 C 108.811 -1.27686 1.96808 0
M  V30 1092 C 109.827 -1.50455 0.874035 0
M  V30 1093 O 111.003 -1.63295 1.17884 0
M  V30 1094 C 108.068 -2.60358 2.28942 0
M  V30 1095 C 107.129 -2.45762 3.51994 0
M  V30 1096 C 106.362 -3.72108 3.82585 0
M  V30 1097 O 106.585 -4.75776 3.14631 0
M  V30 1098 O 105.519 -3.6833 4.76043 0
M  V30 1099 H 109.345 -0.962593 2.88041 0
M  V30 1100 H 106.93 -0.410746 1.43643 0
M  V30 1101 H 108.812 -3.38687 2.50737 0
M  V30 1102 H 107.487 -2.91435 1.4088 0
M  V30 1103 H 106.394 -1.65584 3.35459 0
M  V30 1104 H 107.727 -2.19621 4.40486 0
M  V30 1105 N 109.379 -1.50304 -0.473955 0
M  V30 1106 C 110.342 -1.6841 -1.55469 0
M  V30 1107 C 111.342 -0.554905 -1.50922 0
M  V30 1108 O 112.532 -0.821882 -1.53593 0
M  V30 1109 C 109.664 -1.70667 -2.95102 0
M  V30 1110 H 110.857 -2.64828 -1.40733 0
M  V30 1111 H 108.41 -1.39742 -0.700132 0
M  V30 1112 H 109.145 -0.75932 -3.15285 0
M  V30 1113 H 108.93 -2.52698 -2.9981 0
M  V30 1114 H 110.42 -1.8664 -3.73571 0
M  V30 1115 N 110.857 0.726932 -1.39834 0
M  V30 1116 C 112.097 1.4992 -1.38936 0
M  V30 1117 C 112.461 1.91996 0.0126883 0
M  V30 1118 O 113.662 2.68399 0.146715 0
M  V30 1119 C 111.933 2.70013 -2.34153 0
M  V30 1120 S 113.492 3.59563 -2.51515 0
M  V30 1121 H 110.31 0.51271 -0.492595 0
M  V30 1122 H 112.912 0.85107 -1.76003 0
M  V30 1123 H 111.616 2.37254 -3.34871 0
M  V30 1124 H 111.147 3.39748 -1.98331 0
M  V30 1125 H 113.162 4.63973 -1.75909 0
M  V30 1126 N 112.336 1.25143 0.95797 0
M  V30 1127 C 113.584 1.09476 1.69881 0
M  V30 1128 C 113.905 -0.365502 1.91544 0
M  V30 1129 O 113.175 -1.25985 1.50015 0
M  V30 1130 H 111.755 0.402128 0.629525 0
M  V30 1131 H 114.417 1.57214 1.15194 0
M  V30 1132 H 113.513 1.60046 2.6794 0
M  V30 1133 N 113.814 -1.1601 1.06675 0
M  V30 1134 C 115.044 -1.90251 0.805497 0
M  V30 1135 C 115.452 -1.77891 -0.64431 0
M  V30 1136 O 114.795 -1.12383 -1.45313 0
M  V30 1137 C 114.857 -3.41419 1.12576 0
M  V30 1138 C 114.521 -3.77564 2.57477 0
M  V30 1139 C 115.518 -3.79161 3.55715 0
M  V30 1140 C 113.203 -4.08079 2.92877 0
M  V30 1141 C 115.197 -4.10767 4.8739 0
M  V30 1142 C 112.884 -4.39351 4.24751 0
M  V30 1143 C 113.882 -4.40675 5.21818 0
M  V30 1144 O 113.57 -4.71202 6.51325 0
M  V30 1145 H 113.302 -0.610018 0.291297 0
M  V30 1146 H 115.856 -1.47958 1.4247 0
M  V30 1147 H 114.086 -3.84079 0.449503 0
M  V30 1148 H 115.775 -3.9694 0.84814 0
M  V30 1149 H 116.541 -3.55693 3.29708 0
M  V30 1150 H 112.42 -4.06211 2.17976 0
M  V30 1151 H 115.964 -4.11715 5.63148 0
M  V30 1152 H 111.861 -4.62285 4.50514 0
M  V30 1153 H 112.629 -4.88996 6.56373 0
M  V30 1154 N 115.292 -0.849877 -1.32721 0
M  V30 1155 C 116.517 -0.463856 -2.02146 0
M  V30 1156 C 116.942 0.930449 -1.63476 0
M  V30 1157 O 116.3 1.61033 -0.832952 0
M  V30 1158 C 116.348 -0.604955 -3.55489 0
M  V30 1159 O 115.452 0.36425 -4.10788 0
M  V30 1160 H 114.793 -0.187046 -0.637111 0
M  V30 1161 H 117.323 -1.14775 -1.69375 0
M  V30 1162 H 117.333 -0.490696 -4.05038 0
M  V30 1163 H 116.008 -1.62174 -3.82978 0
M  V30 1164 H 114.585 0.206628 -3.72327 0
M  V30 1165 N 116.77 1.45427 -0.607355 0
M  V30 1166 C 118.047 1.9557 -0.0344566 0
M  V30 1167 C 118.427 1.54979 1.43334 0
M  V30 1168 O 117.775 0.812241 2.13576 0
M  V30 1169 C 117.985 3.48226 -0.232321 0
M  V30 1170 C 119.333 4.2445 -0.113001 0
M  V30 1171 O 120.357 3.55829 -0.162431 0
M  V30 1172 O 119.216 5.465 0.00209442 0
M  V30 1173 H 116.31 0.826222 0.0358667 0
M  V30 1174 H 118.856 1.55594 -0.6774 0
M  V30 1175 H 117.628 3.70739 -1.25174 0
M  V30 1176 H 117.251 3.95092 0.445896 0
M  V30 1177 N 118.248 0.346503 1.53744 0
M  V30 1178 C 119.664 -0.00530975 1.59599 0
M  V30 1179 C 119.864 -1.48465 1.36236 0
M  V30 1180 O 118.92 -2.24376 1.15808 0
M  V30 1181 C 120.233 0.433516 2.97559 0
M  V30 1182 C 121.781 0.386111 3.10609 0
M  V30 1183 C 122.256 0.800451 4.50951 0
M  V30 1184 N 123.747 0.754753 4.5701 0
M  V30 1185 C 124.482 1.04727 5.63755 0
M  V30 1186 N 123.978 1.4081 6.7834 0
M  V30 1187 N 125.771 0.971316 5.53644 0
M  V30 1188 H 117.922 1.31009 1.67184 0
M  V30 1189 H 120.185 0.534242 0.783128 0
M  V30 1190 H 119.891 1.46509 3.19731 0
M  V30 1191 H 119.765 -0.189753 3.76722 0
M  V30 1192 H 122.152 -0.636295 2.88158 0
M  V30 1193 H 122.233 1.04462 2.33498 0
M  V30 1194 H 121.877 1.82088 4.74137 0
M  V30 1195 H 121.807 0.119386 5.26465 0
M  V30 1196 H 124.298 0.488662 3.74727 0
M  V30 1197 H 124.611 1.61607 7.55714 0
M  V30 1198 H 122.956 1.44657 6.79779 0
M  V30 1199 H 126.147 0.688748 4.63005 0
M  V30 1200 H 126.32 1.20263 6.36742 0
M  V30 1201 N 119.726 -1.57421 0.075193 0
M  V30 1202 C 120.972 -1.93905 -0.594025 0
M  V30 1203 C 121.305 -0.955701 -1.69056 0
M  V30 1204 O 120.58 0.0145373 -1.94495 0
M  V30 1205 C 120.863 -3.40638 -1.1678 0
M  V30 1206 C 120.716 -4.49733 -0.0776792 0
M  V30 1207 C 122.035 -3.88259 -2.07228 0
M  V30 1208 H 119.154 -0.705105 -0.214466 0
M  V30 1209 H 121.796 -1.8947 0.141854 0
M  V30 1210 H 119.946 -3.44549 -1.79494 0
M  V30 1211 H 121.618 -4.57942 0.555573 0
M  V30 1212 H 119.861 -4.29751 0.591286 0
M  V30 1213 H 120.532 -5.49549 -0.519603 0
M  V30 1214 H 123.008 -3.86376 -1.54445 0
M  V30 1215 H 121.884 -4.91533 -2.44308 0
M  V30 1216 H 122.145 -3.26396 -2.98191 0
M  V30 1217 N 121.204 0.198386 -1.56346 0
M  V30 1218 C 122.137 1.27381 -1.89339 0
M  V30 1219 C 123.115 1.44106 -0.753134 0
M  V30 1220 O 124.299 1.59549 -1.00381 0
M  V30 1221 C 121.426 2.6409 -2.12071 0
M  V30 1222 C 120.472 2.64253 -3.34772 0
M  V30 1223 S 121.305 2.16013 -4.89999 0
M  V30 1224 C 122.461 3.54553 -5.15794 0
M  V30 1225 H 122.694 0.992058 -2.8026 0
M  V30 1226 H 120.227 0.401726 -1.49082 0
M  V30 1227 H 122.185 3.42786 -2.2585 0
M  V30 1228 H 120.846 2.89478 -1.21906 0
M  V30 1229 H 120.039 3.64768 -3.47794 0
M  V30 1230 H 119.641 1.93637 -3.1997 0
M  V30 1231 H 121.933 4.50396 -5.06112 0
M  V30 1232 H 122.876 3.46428 -6.1757 0
M  V30 1233 H 123.284 3.49313 -4.43442 0
M  V30 1234 N 122.682 1.50554 0.465978 0
M  V30 1235 C 123.614 1.65949 1.58093 0
M  V30 1236 C 124.627 0.540827 1.53554 0
M  V30 1237 O 125.816 0.814187 1.5885 0
M  V30 1238 C 122.916 1.63261 2.96983 0
M  V30 1239 C 122.089 2.91245 3.26336 0
M  V30 1240 C 121.148 2.8113 4.44806 0
M  V30 1241 O 120.174 3.55086 4.44862 0
M  V30 1242 N 121.376 1.95032 5.46756 0
M  V30 1243 H 124.141 2.62122 1.45301 0
M  V30 1244 H 121.702 1.48082 0.65448 0
M  V30 1245 H 123.694 1.54101 3.74212 0
M  V30 1246 H 122.264 0.748032 3.03518 0
M  V30 1247 H 121.484 3.14493 2.37672 0
M  V30 1248 H 122.772 3.76022 3.42761 0
M  V30 1249 H 122.17 1.3427 5.49534 0
M  V30 1250 H 120.727 1.91772 6.2295 0
M  V30 1251 N 124.16 -0.719506 1.40217 0
M  V30 1252 C 125.09 -1.8465 1.42922 0
M  V30 1253 C 126.071 -1.67599 0.29062 0
M  V30 1254 O 127.256 -1.87688 0.498677 0
M  V30 1255 C 124.386 -3.22565 1.28722 0
M  V30 1256 C 123.34 -3.54281 2.40144 0
M  V30 1257 C 122.666 -4.91298 2.11023 0
M  V30 1258 C 123.966 -3.55676 3.82481 0
M  V30 1259 H 125.66 -1.82644 2.37237 0
M  V30 1260 H 123.206 -0.877305 1.1419 0
M  V30 1261 H 125.159 -4.01095 1.29232 0
M  V30 1262 H 123.883 -3.25137 0.308811 0
M  V30 1263 H 122.542 -2.78088 2.38877 0
M  V30 1264 H 122.19 -4.90468 1.11582 0
M  V30 1265 H 121.89 -5.13485 2.8567 0
M  V30 1266 H 123.414 -5.72166 2.13209 0
M  V30 1267 H 124.828 -4.24254 3.85592 0
M  V30 1268 H 123.225 -3.89388 4.56614 0
M  V30 1269 H 124.295 -2.55144 4.12346 0
M  V30 1270 N 125.638 -1.25649 -0.95132 0
M  V30 1271 C 126.866 -1.13343 -1.73092 0
M  V30 1272 C 127.281 0.312434 -1.86197 0
M  V30 1273 O 126.638 1.21465 -1.36207 0
M  V30 1274 C 126.689 -1.78602 -3.14299 0
M  V30 1275 O 126.41 -3.17537 -3.01831 0
M  V30 1276 C 127.911 -1.72119 -4.08522 0
M  V30 1277 H 125.131 -0.395181 -0.542285 0
M  V30 1278 H 127.675 -1.66076 -1.19328 0
M  V30 1279 H 125.83 -1.29832 -3.64996 0
M  V30 1280 H 126.244 -3.49676 -3.90931 0
M  V30 1281 H 127.718 -2.22435 -5.052 0
M  V30 1282 H 128.195 -0.685635 -4.33815 0
M  V30 1283 H 128.801 -2.20393 -3.63741 0
M  V30 1284 N 127.117 1.15442 -1.07289 0
M  V30 1285 C 128.047 2.22312 -0.714107 0
M  V30 1286 C 129.028 1.67467 0.298155 0
M  V30 1287 O 130.213 1.93445 0.171048 0
M  V30 1288 C 127.343 3.47124 -0.110448 0
M  V30 1289 C 126.297 4.14926 -1.04979 0
M  V30 1290 C 125.623 5.33807 -0.308924 0
M  V30 1291 C 126.923 4.64762 -2.38314 0
M  V30 1292 H 128.617 2.5258 -1.6076 0
M  V30 1293 H 126.163 1.21404 -0.77441 0
M  V30 1294 H 128.116 4.21124 0.152482 0
M  V30 1295 H 126.84 3.16187 0.81812 0
M  V30 1296 H 125.499 3.42866 -1.29764 0
M  V30 1297 H 125.147 4.99126 0.623084 0
M  V30 1298 H 124.847 5.80113 -0.935036 0
M  V30 1299 H 126.371 6.10576 -0.0537771 0
M  V30 1300 H 127.785 5.30292 -2.1786 0
M  V30 1301 H 126.182 5.21728 -2.96514 0
M  V30 1302 H 127.252 3.80434 -3.00663 0
M  V30 1303 N 128.595 0.856903 1.32268 0
M  V30 1304 C 129.843 0.460474 1.96784 0
M  V30 1305 C 130.164 -0.987701 1.68135 0
M  V30 1306 O 129.434 -1.69058 0.989765 0
M  V30 1307 H 128.014 0.167289 0.728027 0
M  V30 1308 H 130.676 1.09383 1.61312 0
M  V30 1309 H 129.772 0.60739 3.06133 0
M  V30 1310 N 130.073 -1.45103 0.615059 0
M  V30 1311 C 131.021 -2.32331 -0.111791 0
M  V30 1312 C 132.015 -1.46409 -0.852102 0
M  V30 1313 O 133.221 -1.62849 -0.766821 0
M  V30 1314 H 129.596 -0.749993 -0.0549072 0
M  V30 1315 H 131.567 -2.91407 0.642225 0
M  V30 1316 C 130.316 -3.3015 -1.09071 0
M  V30 1317 H 129.639 -3.96265 -0.530485 0
M  V30 1318 H 131.079 -3.93898 -1.56908 0
M  V30 1319 C 129.538 -2.57875 -2.168 0
M  V30 1320 O 130.068 -2.36567 -3.24652 0
M  V30 1321 N 128.274 -2.17884 -1.92289 0
M  V30 1322 H 127.821 -2.35413 -1.04587 0
M  V30 1323 H 127.779 -1.6985 -2.64572 0
M  V30 1324 N 131.551 -0.354651 -1.53558 0
M  V30 1325 C 132.776 0.242153 -2.05981 0
M  V30 1326 C 133.201 1.42553 -1.2272 0
M  V30 1327 O 132.559 1.79656 -0.243604 0
M  V30 1328 C 132.607 0.624367 -3.55154 0
M  V30 1329 O 131.711 1.72301 -3.74681 0
M  V30 1330 H 131.052 0.0378432 -0.662921 0
M  V30 1331 H 133.582 -0.512087 -1.98088 0
M  V30 1332 H 133.592 0.898433 -3.97985 0
M  V30 1333 H 132.267 -0.240989 -4.15201 0
M  V30 1334 H 130.844 1.44535 -3.4375 0
M  V30 1335 N 133.029 1.57378 -0.0835403 0
M  V30 1336 C 134.257 1.98263 0.59157 0
M  V30 1337 C 134.672 0.962302 1.62435 0
M  V30 1338 O 134.029 -0.049581 1.82433 0
M  V30 1339 C 134.08 3.39214 1.24965 0
M  V30 1340 O 133.801 4.37339 0.258186 0
M  V30 1341 C 135.302 3.95038 2.01147 0
M  V30 1342 H 132.522 0.651773 0.159477 0
M  V30 1343 H 135.066 2.03878 -0.159415 0
M  V30 1344 H 133.221 3.34649 1.95164 0
M  V30 1345 H 133.635 5.19371 0.731734 0
M  V30 1346 H 135.109 4.95848 2.42567 0
M  V30 1347 H 135.586 3.32222 2.87272 0
M  V30 1348 H 136.192 4.0304 1.35789 0
M  V30 1349 N 134.507 -0.190092 1.56449 0
M  V30 1350 C 135.756 -0.907912 1.80111 0
M  V30 1351 C 136.069 -1.84214 0.657619 0
M  V30 1352 O 137.275 -2.60094 0.778663 0
M  V30 1353 C 135.731 -1.66485 3.19078 0
M  V30 1354 C 135.339 -0.7752 4.41242 0
M  V30 1355 C 137.083 -2.37201 3.52045 0
M  V30 1356 C 134.99 -1.53129 5.71231 0
M  V30 1357 H 133.92 -0.34276 0.671589 0
M  V30 1358 H 136.571 -0.161109 1.82791 0
M  V30 1359 H 134.953 -2.45572 3.10661 0
M  V30 1360 H 136.127 -0.0226298 4.60794 0
M  V30 1361 H 134.442 -0.178627 4.16017 0
M  V30 1362 H 137.039 -2.94329 4.46402 0
M  V30 1363 H 137.382 -3.11632 2.76028 0
M  V30 1364 H 137.915 -1.65075 3.61932 0
M  V30 1365 H 134.654 -0.82967 6.50228 0
M  V30 1366 H 134.174 -2.25767 5.55688 0
M  V30 1367 H 135.853 -2.08377 6.12526 0
M  V30 1368 N 135.985 -1.50799 -0.457987 0
M  V30 1369 C 137.213 -1.66218 -1.23203 0
M  V30 1370 C 137.628 -0.350894 -1.85511 0
M  V30 1371 O 136.985 0.668546 -1.69814 0
M  V30 1372 C 137.036 -2.76291 -2.33121 0
M  V30 1373 O 136.757 -4.02338 -1.73366 0
M  V30 1374 C 138.258 -3.028 -3.2377 0
M  V30 1375 H 135.478 -0.558361 -0.372121 0
M  V30 1376 H 138.022 -1.97099 -0.545179 0
M  V30 1377 H 136.177 -2.48068 -2.97558 0
M  V30 1378 H 136.591 -4.63312 -2.4585 0
M  V30 1379 H 138.065 -3.8345 -3.97077 0
M  V30 1380 H 138.542 -2.14385 -3.83322 0
M  V30 1381 H 139.148 -3.32604 -2.65056 0
M  V30 1382 N 137.463 0.71206 -1.40597 0
M  V30 1383 C 138.691 1.50111 -1.42388 0
M  V30 1384 C 139.106 1.88784 -0.0245395 0
M  V30 1385 O 138.463 1.55681 0.952351 0
M  V30 1386 C 138.514 2.7742 -2.31776 0
M  V30 1387 O 138.235 2.40382 -3.66262 0
M  V30 1388 C 139.736 3.7129 -2.42196 0
M  V30 1389 H 136.956 0.46314 -0.485533 0
M  V30 1390 H 139.5 0.878068 -1.8469 0
M  V30 1391 H 137.655 3.36001 -1.92827 0
M  V30 1392 H 138.069 3.22324 -4.13772 0
M  V30 1393 H 139.543 4.57448 -3.08943 0
M  V30 1394 H 140.02 4.14641 -1.44809 0
M  V30 1395 H 140.626 3.18619 -2.81712 0
M  V30 1396 N 138.941 1.26152 0.944643 0
M  V30 1397 C 139.873 1.03199 2.04652 0
M  V30 1398 C 140.886 -0.00642356 1.62799 0
M  V30 1399 O 142.075 0.233263 1.76969 0
M  V30 1400 C 139.175 0.540111 3.34568 0
M  V30 1401 C 138.348 1.64697 4.05208 0
M  V30 1402 C 137.407 1.15374 5.13396 0
M  V30 1403 O 136.433 1.85013 5.38293 0
M  V30 1404 N 137.635 0.00031529 5.805 0
M  V30 1405 H 140.4 1.9808 2.2491 0
M  V30 1406 H 137.961 1.17491 1.11389 0
M  V30 1407 H 139.953 0.194401 4.04233 0
M  V30 1408 H 138.523 -0.315021 3.11009 0
M  V30 1409 H 137.743 2.16379 3.29506 0
M  V30 1410 H 139.031 2.3903 4.49157 0
M  V30 1411 H 138.429 -0.581336 5.62705 0
M  V30 1412 H 136.986 -0.286346 6.51171 0
M  V30 1413 N 140.419 -1.14872 1.07899 0
M  V30 1414 C 141.329 -2.2341 0.715915 0
M  V30 1415 C 142.345 -1.71808 -0.275306 0
M  V30 1416 O 143.521 -2.01039 -0.120545 0
M  V30 1417 C 140.586 -3.46474 0.125168 0
M  V30 1418 C 139.647 -4.13039 1.17034 0
M  V30 1419 C 138.88 -5.30229 0.607688 0
M  V30 1420 O 139.103 -5.675 -0.574497 0
M  V30 1421 O 138.037 -5.86444 1.35526 0
M  V30 1422 H 141.863 -2.56808 1.62121 0
M  V30 1423 H 139.448 -1.22702 0.852322 0
M  V30 1424 H 141.33 -4.20917 -0.201729 0
M  V30 1425 H 140.005 -3.14811 -0.753364 0
M  V30 1426 H 138.912 -3.40493 1.54968 0
M  V30 1427 H 140.245 -4.48796 2.02097 0
M  V30 1428 N 141.898 -0.863906 -1.31812 0
M  V30 1429 C 142.861 -0.320212 -2.26952 0
M  V30 1430 C 143.861 0.525369 -1.51975 0
M  V30 1431 O 145.051 0.335547 -1.70938 0
M  V30 1432 C 142.183 0.545919 -3.365 0
M  V30 1433 H 143.376 -1.16004 -2.76556 0
M  V30 1434 H 140.929 -0.638995 -1.42641 0
M  V30 1435 H 141.664 1.40718 -2.92179 0
M  V30 1436 H 141.449 -0.0594674 -3.92055 0
M  V30 1437 H 142.939 0.918796 -4.07367 0
M  V30 1438 N 143.376 1.44774 -0.622745 0
M  V30 1439 C 144.339 2.29069 0.0774015 0
M  V30 1440 C 145.339 1.4059 0.780461 0
M  V30 1441 O 146.529 1.62551 0.626322 0
M  V30 1442 C 143.661 3.21974 1.12006 0
M  V30 1443 H 144.854 2.92459 -0.663901 0
M  V30 1444 H 142.407 1.51548 -0.382486 0
M  V30 1445 H 143.142 2.63417 1.89162 0
M  V30 1446 H 142.927 3.87168 0.619951 0
M  V30 1447 H 144.417 3.85318 1.60995 0
M  V30 1448 N 144.854 0.36279 1.53368 0
M  V30 1449 C 145.802 -0.500155 2.27159 0
M  V30 1450 C 146.796 -1.08575 1.3003 0
M  V30 1451 O 148.002 -1.02927 1.47668 0
M  V30 1452 H 144.377 -0.180009 0.730138 0
M  V30 1453 H 146.348 0.14401 2.98052 0
M  V30 1454 C 145.097 -1.62937 3.07159 0
M  V30 1455 H 144.42 -1.18806 3.8174 0
M  V30 1456 H 145.86 -2.20795 3.61975 0
M  V30 1457 C 144.319 -2.57007 2.17829 0
M  V30 1458 O 144.849 -3.59752 1.78721 0
M  V30 1459 N 143.055 -2.26131 1.82518 0
M  V30 1460 H 142.602 -1.42616 2.14519 0
M  V30 1461 H 142.56 -2.89327 1.23034 0
M  V30 1462 N 146.332 -1.57332 0.0918853 0
M  V30 1463 C 147.557 -1.98995 -0.584442 0
M  V30 1464 C 147.982 -0.970528 -1.61128 0
M  V30 1465 O 147.34 0.0613904 -1.81196 0
M  V30 1466 C 147.388 -3.39636 -1.21161 0
M  V30 1467 O 146.492 -3.40447 -2.32744 0
M  V30 1468 H 145.833 -0.647165 -0.148572 0
M  V30 1469 H 148.363 -2.03873 0.172347 0
M  V30 1470 H 148.373 -3.7726 -1.55367 0
M  V30 1471 H 147.048 -4.13356 -0.459313 0
M  V30 1472 H 145.625 -3.14614 -2.0018 0
M  V30 1473 N 147.81 0.181792 -1.56548 0
M  V30 1474 C 149.056 0.901431 -1.81665 0
M  V30 1475 C 149.389 1.82347 -0.668075 0
M  V30 1476 O 148.664 1.91669 0.330615 0
M  V30 1477 C 148.947 1.70618 -3.17115 0
M  V30 1478 C 148.8 0.807964 -4.42484 0
M  V30 1479 C 150.119 2.67605 -3.49393 0
M  V30 1480 H 147.238 0.32627 -0.660846 0
M  V30 1481 H 149.88 0.168134 -1.89255 0
M  V30 1482 H 148.03 2.33133 -3.10775 0
M  V30 1483 H 149.702 0.19649 -4.60881 0
M  V30 1484 H 147.945 0.115411 -4.33646 0
M  V30 1485 H 148.616 1.40632 -5.33785 0
M  V30 1486 H 151.092 2.15218 -3.56118 0
M  V30 1487 H 149.968 3.20985 -4.45264 0
M  V30 1488 H 150.229 3.47298 -2.73563 0
M  V30 1489 N 149.288 1.51039 0.449983 0
M  V30 1490 C 150.534 1.63322 1.20223 0
M  V30 1491 C 150.867 0.34241 1.91158 0
M  V30 1492 O 150.142 -0.657344 1.83055 0
M  V30 1493 C 150.425 2.82801 2.22925 0
M  V30 1494 C 150.278 4.21823 1.56157 0
M  V30 1495 C 151.597 2.97807 3.24035 0
M  V30 1496 H 148.716 0.594407 0.435718 0
M  V30 1497 H 151.358 1.83489 0.493136 0
M  V30 1498 H 149.508 2.65738 2.834 0
M  V30 1499 H 151.18 4.50526 0.991162 0
M  V30 1500 H 149.423 4.25105 0.864172 0
M  V30 1501 H 150.094 5.01391 2.30891 0
M  V30 1502 H 152.57 3.13497 2.73603 0
M  V30 1503 H 151.446 3.82992 3.93202 0
M  V30 1504 H 151.707 2.09328 3.89402 0
M  V30 1505 N 150.766 -0.704594 1.40972 0
M  V30 1506 C 151.729 -1.80035 1.41845 0
M  V30 1507 C 152.729 -1.57774 0.310474 0
M  V30 1508 O 153.919 -1.64613 0.56992 0
M  V30 1509 C 151.051 -3.18284 1.22098 0
M  V30 1510 H 152.244 -1.80658 2.3938 0
M  V30 1511 H 149.797 -0.911329 1.26982 0
M  V30 1512 H 150.532 -3.23306 0.253672 0
M  V30 1513 H 150.317 -3.35843 2.02366 0
M  V30 1514 H 151.807 -3.98289 1.25522 0
M  V30 1515 N 152.244 -1.26651 -0.937939 0
M  V30 1516 C 153.474 -1.15006 -1.71631 0
M  V30 1517 C 153.882 0.297026 -1.86854 0
M  V30 1518 O 153.225 1.21493 -1.37786 0
M  V30 1519 C 153.287 -1.74984 -3.14039 0
M  V30 1520 C 152.951 -3.24103 -3.2219 0
M  V30 1521 C 153.948 -4.20877 -3.05219 0
M  V30 1522 C 151.633 -3.64625 -3.45476 0
M  V30 1523 C 153.627 -5.56151 -3.11408 0
M  V30 1524 C 151.314 -5.00032 -3.513 0
M  V30 1525 C 152.312 -5.95604 -3.34282 0
M  V30 1526 O 152 -7.28545 -3.3982 0
M  V30 1527 H 151.732 -0.401183 -0.544085 0
M  V30 1528 H 154.286 -1.67832 -1.18413 0
M  V30 1529 H 152.516 -1.16624 -3.68695 0
M  V30 1530 H 154.205 -1.58199 -3.73802 0
M  V30 1531 H 154.971 -3.90908 -2.87081 0
M  V30 1532 H 150.85 -2.90718 -3.57777 0
M  V30 1533 H 154.394 -6.30727 -2.98043 0
M  V30 1534 H 150.291 -5.29659 -3.68959 0
M  V30 1535 H 151.059 -7.3686 -3.56343 0
M  V30 1536 N 153.722 1.14298 -1.08507 0
M  V30 1537 C 154.97 1.84993 -0.813763 0
M  V30 1538 C 155.291 1.83405 0.662393 0
M  V30 1539 O 154.561 1.28319 1.48024 0
M  V30 1540 H 153.141 0.684966 -0.298045 0
M  V30 1541 H 155.803 1.385 -1.37126 0
M  V30 1542 H 154.899 2.89788 -1.15884 0
M  V30 1543 N 155.201 0.870884 1.31352 0
M  V30 1544 C 156.617 0.562932 1.49343 0
M  V30 1545 C 156.817 -0.902725 1.80148 0
M  V30 1546 O 155.873 -1.68484 1.88067 0
M  V30 1547 C 157.186 1.46393 2.62659 0
M  V30 1548 C 158.734 1.46607 2.76542 0
M  V30 1549 C 159.209 2.35266 3.92955 0
M  V30 1550 N 160.7 2.33151 4.00243 0
M  V30 1551 C 161.435 2.98471 4.89594 0
M  V30 1552 N 160.931 3.72964 5.8384 0
M  V30 1553 N 162.724 2.87775 4.82848 0
M  V30 1554 H 154.875 1.81923 1.09626 0
M  V30 1555 H 157.138 0.777934 0.541777 0
M  V30 1556 H 156.844 2.50689 2.46674 0
M  V30 1557 H 156.718 1.16314 3.58819 0
M  V30 1558 H 159.105 0.43069 2.9194 0
M  V30 1559 H 159.186 1.8071 1.81046 0
M  V30 1560 H 158.83 3.38881 3.78315 0
M  V30 1561 H 158.76 1.98487 4.87761 0
M  V30 1562 H 161.251 1.79006 3.32814 0
M  V30 1563 H 161.564 4.19932 6.4875 0
M  V30 1564 H 159.909 3.77073 5.83816 0
M  V30 1565 H 163.1 2.29116 4.08195 0
M  V30 1566 H 163.273 3.38961 5.52277 0
M  V30 1567 N 156.679 -1.44442 0.630414 0
M  V30 1568 C 157.925 -2.02894 0.143332 0
M  V30 1569 C 158.28 -1.48697 -1.22094 0
M  V30 1570 O 157.573 -0.661171 -1.79831 0
M  V30 1571 C 157.767 -3.57332 0.0697835 0
M  V30 1572 C 157.596 -4.26512 1.42539 0
M  V30 1573 C 156.366 -4.63516 2.01198 0
M  V30 1574 C 158.564 -4.57004 2.35907 0
M  V30 1575 N 156.546 -5.17661 3.30001 0
M  V30 1576 C 157.917 -5.12223 3.49324 0
M  V30 1577 C 159.972 -4.38955 2.34995 0
M  V30 1578 C 158.675 -5.51295 4.62024 0
M  V30 1579 C 160.701 -4.79075 3.46758 0
M  V30 1580 C 160.063 -5.34407 4.58899 0
M  V30 1581 H 156.162 -0.776041 0.0963523 0
M  V30 1582 H 158.746 -1.75945 0.833752 0
M  V30 1583 H 156.917 -3.83894 -0.589915 0
M  V30 1584 H 158.649 -4.02451 -0.42606 0
M  V30 1585 H 155.404 -4.47811 1.54151 0
M  V30 1586 H 155.828 -5.4921 3.95851 0
M  V30 1587 H 160.47 -3.95469 1.49545 0
M  V30 1588 H 158.188 -5.93736 5.48182 0
M  V30 1589 H 161.774 -4.66824 3.47227 0
M  V30 1590 H 160.654 -5.64878 5.4395 0
M  V30 1591 N 158.157 -0.370918 -1.53173 0
M  V30 1592 C 159.568 0.107139 -1.86392 0
M  V30 1593 C 159.919 1.47714 -1.29132 0
M  V30 1594 O 159.044 2.07464 -0.615439 0
M  V30 1595 C 159.639 0.201187 -3.38202 0
M  V30 1596 C 158.198 0.623507 -3.712 0
M  V30 1597 C 157.345 -0.225978 -2.76378 0
M  V30 1598 H 160.296 -0.58951 -1.47345 0
M  V30 1599 H 160.317 1.02377 -3.66468 0
M  V30 1600 H 159.829 -0.796058 -3.79848 0
M  V30 1601 H 157.93 1.62879 -3.35114 0
M  V30 1602 H 158.043 0.394414 -4.77474 0
M  V30 1603 H 156.407 0.305962 -2.52856 0
M  V30 1604 H 157.19 -1.22086 -3.20858 0
M  V30 1605 N 159.635 1.57281 -0.100228 0
M  V30 1606 C 160.545 2.17833 0.870965 0
M  V30 1607 C 161.561 1.14921 1.30649 0
M  V30 1608 O 162.737 1.47313 1.37335 0
M  V30 1609 C 159.802 2.75085 2.1102 0
M  V30 1610 C 158.863 3.9297 1.72838 0
M  V30 1611 C 158.096 4.47482 2.90854 0
M  V30 1612 O 158.319 4.00922 4.05731 0
M  V30 1613 O 157.253 5.38433 2.69023 0
M  V30 1614 H 161.079 3.0124 0.38575 0
M  V30 1615 H 158.664 1.48881 0.124397 0
M  V30 1616 H 160.546 3.11656 2.83634 0
M  V30 1617 H 159.221 1.94721 2.58584 0
M  V30 1618 H 158.128 3.61201 0.973883 0
M  V30 1619 H 159.461 4.74713 1.30033 0
M  V30 1620 N 161.113 -0.173488 1.56642 0
M  V30 1621 C 162.343 -0.904781 1.85734 0
M  V30 1622 C 162.751 -1.76431 0.68328 0
M  V30 1623 O 162.094 -1.802 -0.356865 0
M  V30 1624 C 162.156 -1.83382 3.09211 0
M  V30 1625 C 161.82 -1.15411 4.42187 0
M  V30 1626 C 162.817 -0.520609 5.17287 0
M  V30 1627 C 160.502 -1.15151 4.88923 0
M  V30 1628 C 162.496 0.106412 6.37311 0
M  V30 1629 C 160.183 -0.520664 6.08878 0
M  V30 1630 C 161.181 0.107196 6.82916 0
M  V30 1631 O 160.869 0.728102 8.00596 0
M  V30 1632 H 160.601 -0.268408 0.62043 0
M  V30 1633 H 163.155 -0.179096 2.04618 0
M  V30 1634 H 161.385 -2.59976 2.86268 0
M  V30 1635 H 163.074 -2.43476 3.24768 0
M  V30 1636 H 163.84 -0.514606 4.82262 0
M  V30 1637 H 159.719 -1.62961 4.31236 0
M  V30 1638 H 163.263 0.597081 6.9504 0
M  V30 1639 H 159.16 -0.524242 6.43368 0
M  V30 1640 H 159.928 0.627138 8.16094 0
M  V30 1641 N 162.591 -1.51276 -0.441967 0
M  V30 1642 C 163.84 -1.6295 -1.18871 0
M  V30 1643 C 164.153 -0.349312 -1.92456 0
M  V30 1644 O 165.359 -0.345355 -2.69295 0
M  V30 1645 C 163.815 -2.87759 -2.16155 0
M  V30 1646 C 163.423 -4.22764 -1.48239 0
M  V30 1647 C 165.167 -3.08788 -2.91291 0
M  V30 1648 C 163.074 -5.38728 -2.4398 0
M  V30 1649 H 162.004 -0.606913 -0.447406 0
M  V30 1650 H 164.655 -1.77739 -0.456205 0
M  V30 1651 H 163.037 -2.66593 -2.92821 0
M  V30 1652 H 164.211 -4.54293 -0.771635 0
M  V30 1653 H 162.526 -4.07575 -0.852741 0
M  V30 1654 H 165.123 -3.92599 -3.63002 0
M  V30 1655 H 165.466 -2.21679 -3.5237 0
M  V30 1656 H 165.999 -3.30272 -2.21733 0
M  V30 1657 H 162.738 -6.28082 -1.87598 0
M  V30 1658 H 162.258 -5.1158 -3.13123 0
M  V30 1659 H 163.937 -5.70489 -3.05207 0
M  V30 1660 N 164.069 0.697108 -1.41344 0
M  V30 1661 C 165.016 1.81106 -1.43071 0
M  V30 1662 C 165.986 1.63632 -0.285275 0
M  V30 1663 O 167.171 1.84504 -0.486091 0
M  V30 1664 C 164.311 3.18975 -1.31715 0
M  V30 1665 C 163.424 3.47892 -2.56115 0
M  V30 1666 C 162.559 4.75367 -2.37064 0
M  V30 1667 C 161.598 4.97247 -3.56948 0
M  V30 1668 N 160.735 6.15947 -3.36977 0
M  V30 1669 H 165.575 1.78965 -2.38276 0
M  V30 1670 H 163.112 0.873975 -1.18322 0
M  V30 1671 H 165.07 3.98615 -1.23133 0
M  V30 1672 H 163.7 3.20297 -0.401183 0
M  V30 1673 H 162.752 2.62669 -2.75153 0
M  V30 1674 H 164.064 3.59962 -3.45295 0
M  V30 1675 H 163.218 5.63059 -2.25941 0
M  V30 1676 H 161.957 4.65541 -1.45338 0
M  V30 1677 H 160.962 4.08004 -3.68527 0
M  V30 1678 H 162.187 5.08934 -4.49626 0
M  V30 1679 H 160.133 6.07336 -2.47949 0
M  V30 1680 H 160.05 6.28777 -4.19732 0
M  V30 1681 H 161.318 7.06377 -3.29623 0
M  V30 1682 N 165.547 1.27147 0.931209 0
M  V30 1683 C 166.824 1.0401 1.65654 0
M  V30 1684 C 167.204 -0.426297 2.06751 0
M  V30 1685 O 166.552 -1.40879 1.79904 0
M  V30 1686 C 166.762 1.99834 2.86125 0
M  V30 1687 C 168.11 2.29007 3.57549 0
M  V30 1688 O 169.134 1.97779 2.96246 0
M  V30 1689 O 167.993 2.82222 4.67989 0
M  V30 1690 H 165.087 0.396239 0.725895 0
M  V30 1691 H 167.633 1.38397 0.982056 0
M  V30 1692 H 166.405 2.98744 2.52721 0
M  V30 1693 H 166.028 1.65987 3.61295 0
M  V30 1694 N 167.025 -1.13721 1.09112 0
M  V30 1695 C 168.25 -1.89314 0.847053 0
M  V30 1696 C 168.675 -1.78416 -0.595774 0
M  V30 1697 O 168.033 -1.12942 -1.41823 0
M  V30 1698 C 168.081 -3.3701 1.28284 0
M  V30 1699 O 167.185 -4.10054 0.439267 0
M  V30 1700 H 166.526 -0.588745 0.307044 0
M  V30 1701 H 169.056 -1.43902 1.45442 0
M  V30 1702 H 169.066 -3.87834 1.26683 0
M  V30 1703 H 167.741 -3.4426 2.33363 0
M  V30 1704 H 166.318 -3.69266 0.519312 0
M  V30 1705 N 168.503 -0.877838 -1.30888 0
M  V30 1706 C 169.413 -0.343096 -2.32078 0
M  V30 1707 C 170.429 0.551022 -1.65045 0
M  V30 1708 O 171.605 0.445854 -1.96403 0
M  V30 1709 C 168.67 0.439905 -3.43898 0
M  V30 1710 C 167.731 -0.483111 -4.26573 0
M  V30 1711 C 166.964 0.262616 -5.33053 0
M  V30 1712 O 167.187 1.48967 -5.50604 0
M  V30 1713 O 166.121 -0.383593 -6.00676 0
M  V30 1714 H 169.947 -1.18203 -2.79753 0
M  V30 1715 H 167.532 -0.64145 -1.34929 0
M  V30 1716 H 169.414 0.883504 -4.12034 0
M  V30 1717 H 168.089 1.25526 -2.98371 0
M  V30 1718 H 166.996 -0.975374 -3.61161 0
M  V30 1719 H 168.329 -1.26427 -4.75686 0
M  V30 1720 N 169.982 1.44106 -0.638065 0
M  V30 1721 C 170.945 2.29138 0.0531013 0
M  V30 1722 C 171.945 1.41409 0.765506 0
M  V30 1723 O 173.135 1.63206 0.609046 0
M  V30 1724 C 170.267 3.23144 1.08584 0
M  V30 1725 H 171.46 2.91739 -0.694883 0
M  V30 1726 H 169.013 1.51134 -0.398538 0
M  V30 1727 H 169.748 2.65408 1.86357 0
M  V30 1728 H 169.533 3.87804 0.578852 0
M  V30 1729 H 171.023 3.87004 1.56899 0
M  V30 1730 N 171.46 0.379036 1.52974 0
M  V30 1731 C 172.408 -0.476033 2.27677 0
M  V30 1732 C 173.402 -1.0719 1.31174 0
M  V30 1733 O 174.608 -1.01355 1.48752 0
M  V30 1734 H 170.983 -0.172255 0.732006 0
M  V30 1735 H 172.954 0.175615 2.97883 0
M  V30 1736 C 171.703 -1.5967 3.0887 0
M  V30 1737 H 171.026 -1.1475 3.82978 0
M  V30 1738 H 172.466 -2.16943 3.64296 0
M  V30 1739 C 170.925 -2.54682 2.20542 0
M  V30 1740 O 171.455 -3.57836 1.82527 0
M  V30 1741 N 169.661 -2.24183 1.84907 0
M  V30 1742 H 169.208 -1.40333 2.1602 0
M  V30 1743 H 169.166 -2.88006 1.26096 0
M  V30 1744 N 172.938 -1.57226 0.108567 0
M  V30 1745 C 174.349 -1.8195 -0.418464 0
M  V30 1746 C 174.7 -1.02508 -1.67292 0
M  V30 1747 O 173.825 -0.258496 -2.14851 0
M  V30 1748 C 174.42 -3.30028 -0.765979 0
M  V30 1749 C 172.979 -3.55469 -1.23769 0
M  V30 1750 C 172.126 -2.7625 -0.241106 0
M  V30 1751 H 175.077 -1.55149 0.33384 0
M  V30 1752 H 175.098 -3.44086 -1.62434 0
M  V30 1753 H 174.61 -3.87821 0.147219 0
M  V30 1754 H 172.711 -3.03022 -2.16814 0
M  V30 1755 H 172.824 -4.6408 -1.19022 0
M  V30 1756 H 171.188 -2.44133 -0.72602 0
M  V30 1757 H 171.971 -3.36797 0.665007 0
M  V30 1758 N 174.416 0.165178 -1.56732 0
M  V30 1759 C 175.662 0.882112 -1.82611 0
M  V30 1760 C 175.995 1.81628 -0.687378 0
M  V30 1761 O 175.27 1.92009 0.310267 0
M  V30 1762 C 175.553 1.67245 -3.18906 0
M  V30 1763 C 175.406 0.760987 -4.43316 0
M  V30 1764 C 176.725 2.63884 -3.52212 0
M  V30 1765 H 173.844 0.319242 -0.664269 0
M  V30 1766 H 176.486 0.148052 -1.89422 0
M  V30 1767 H 174.636 2.29824 -3.1323 0
M  V30 1768 H 176.308 0.147596 -4.61064 0
M  V30 1769 H 174.551 0.0694102 -4.33744 0
M  V30 1770 H 175.222 1.34962 -5.35247 0
M  V30 1771 H 177.698 2.11429 -3.58381 0
M  V30 1772 H 176.574 3.16245 -4.48643 0
M  V30 1773 H 176.835 3.44377 -2.77231 0
M  V30 1774 N 175.894 1.51508 0.433938 0
M  V30 1775 C 177.171 1.54888 1.19453 0
M  V30 1776 C 177.551 0.315154 2.08734 0
M  V30 1777 O 176.899 -0.699558 2.17528 0
M  V30 1778 C 177.109 2.86467 1.99342 0
M  V30 1779 C 178.457 3.38545 2.56267 0
M  V30 1780 O 179.481 2.88041 2.0955 0
M  V30 1781 O 178.34 4.26675 3.41483 0
M  V30 1782 H 175.434 0.622863 0.544032 0
M  V30 1783 H 177.98 1.63823 0.442732 0
M  V30 1784 H 176.752 3.67718 1.33788 0
M  V30 1785 H 176.375 2.8071 2.8158 0
M  V30 1786 N 177.372 -0.689602 1.41712 0
M  V30 1787 C 178.304 -1.815 1.39966 0
M  V30 1788 C 179.317 -1.59995 0.300917 0
M  V30 1789 O 180.506 -1.69387 0.563039 0
M  V30 1790 C 177.606 -3.18364 1.16179 0
M  V30 1791 C 176.779 -3.66847 2.38206 0
M  V30 1792 C 175.838 -4.82398 2.10186 0
M  V30 1793 O 174.864 -4.93706 2.83272 0
M  V30 1794 N 176.066 -5.70064 1.0958 0
M  V30 1795 H 178.831 -1.83488 2.36965 0
M  V30 1796 H 176.392 -0.872149 1.36401 0
M  V30 1797 H 178.384 -3.93301 0.953756 0
M  V30 1798 H 176.954 -3.11365 0.27756 0
M  V30 1799 H 176.174 -2.82751 2.74673 0
M  V30 1800 H 177.462 -3.95978 3.19498 0
M  V30 1801 H 176.86 -5.63565 0.491019 0
M  V30 1802 H 175.417 -6.44874 0.947656 0
M  V30 1803 N 178.85 -1.27639 -0.924453 0
M  V30 1804 C 180.261 -1.12834 -1.48746 0
M  V30 1805 C 180.612 0.285505 -1.94112 0
M  V30 1806 O 179.737 1.17874 -1.81479 0
M  V30 1807 C 180.332 -2.04217 -2.70334 0
M  V30 1808 C 178.891 -1.93509 -3.22848 0
M  V30 1809 C 178.038 -1.96583 -1.95577 0
M  V30 1810 H 180.989 -1.40484 -0.738233 0
M  V30 1811 H 181.01 -1.59989 -3.4523 0
M  V30 1812 H 180.522 -3.07111 -2.37285 0
M  V30 1813 H 178.623 -0.936131 -3.60649 0
M  V30 1814 H 178.736 -2.79917 -3.88823 0
M  V30 1815 H 177.1 -1.4085 -2.12211 0
M  V30 1816 H 177.883 -3.01137 -1.64837 0
M  V30 1817 N 180.328 1.1314 -1.09713 0
M  V30 1818 C 181.556 1.88321 -0.856898 0
M  V30 1819 C 181.971 1.79276 0.592073 0
M  V30 1820 O 181.328 1.16142 1.40774 0
M  V30 1821 C 181.379 3.37812 -1.28706 0
M  V30 1822 O 181.1 3.46627 -2.67921 0
M  V30 1823 C 182.601 4.29952 -1.07964 0
M  V30 1824 H 179.821 0.596094 -0.308079 0
M  V30 1825 H 182.365 1.43205 -1.45988 0
M  V30 1826 H 180.52 3.805 -0.727912 0
M  V30 1827 H 180.934 4.39579 -2.8613 0
M  V30 1828 H 182.408 5.33159 -1.42986 0
M  V30 1829 H 182.885 4.39196 -0.0176577 0
M  V30 1830 H 183.491 3.93036 -1.62489 0
M  V30 1831 N 181.806 0.884767 1.30421 0
M  V30 1832 C 182.716 0.355398 2.31892 0
M  V30 1833 C 183.732 -0.542261 1.65335 0
M  V30 1834 O 184.908 -0.435432 1.96637 0
M  V30 1835 C 181.973 -0.421661 3.44126 0
M  V30 1836 C 181.034 0.505727 4.26311 0
M  V30 1837 C 180.267 -0.234343 5.33185 0
M  V30 1838 O 180.49 -1.46045 5.51386 0
M  V30 1839 O 179.424 0.415443 6.00465 0
M  V30 1840 H 183.25 1.19685 2.79122 0
M  V30 1841 H 180.835 0.648596 1.34587 0
M  V30 1842 H 182.717 -0.861641 4.12497 0
M  V30 1843 H 181.392 -1.23942 2.99032 0
M  V30 1844 H 180.299 0.994513 3.60639 0
M  V30 1845 H 181.632 1.28948 4.75009 0
M  V30 1846 N 183.284 -1.43765 0.645699 0
M  V30 1847 C 184.695 -1.85193 0.236719 0
M  V30 1848 C 185.046 -1.54045 -1.21509 0
M  V30 1849 O 184.171 -0.985694 -1.92647 0
M  V30 1850 C 184.766 -3.36151 0.422845 0
M  V30 1851 C 183.325 -3.76338 0.0682492 0
M  V30 1852 C 182.472 -2.67538 0.729306 0
M  V30 1853 H 185.423 -1.34025 0.849883 0
M  V30 1854 H 185.444 -3.79032 -0.333904 0
M  V30 1855 H 184.956 -3.5879 1.47958 0
M  V30 1856 H 183.057 -3.59312 -0.986179 0
M  V30 1857 H 183.17 -4.76603 0.488469 0
M  V30 1858 H 181.534 -2.54176 0.163235 0
M  V30 1859 H 182.317 -2.93006 1.78892 0
M  V30 1860 N 184.763 -0.387143 -1.52771 0
M  V30 1861 C 186.04 0.253197 -1.93954 0
M  V30 1862 C 186.42 1.64545 -1.32243 0
M  V30 1863 O 185.768 2.23191 -0.489699 0
M  V30 1864 C 185.978 0.281722 -3.47861 0
M  V30 1865 C 187.326 0.511715 -4.21505 0
M  V30 1866 O 188.35 0.362023 -3.54356 0
M  V30 1867 O 187.209 0.804847 -5.40541 0
M  V30 1868 H 184.303 0.156845 -0.811991 0
M  V30 1869 H 186.849 -0.441494 -1.63856 0
M  V30 1870 H 185.621 -0.693571 -3.85104 0
M  V30 1871 H 185.244 1.02142 -3.84256 0
M  V30 1872 N 186.241 1.57166 -0.116904 0
M  V30 1873 C 187.487 1.95412 0.542405 0
M  V30 1874 C 187.82 1.00019 1.66463 0
M  V30 1875 O 187.095 0.0370346 1.94465 0
M  V30 1876 C 187.378 3.43615 1.07708 0
M  V30 1877 C 187.231 4.49781 -0.0415868 0
M  V30 1878 C 188.55 3.93616 1.96861 0
M  V30 1879 H 185.669 0.710543 0.195696 0
M  V30 1880 H 188.311 1.89027 -0.192038 0
M  V30 1881 H 186.461 3.49187 1.70296 0
M  V30 1882 H 188.133 4.56308 -0.676793 0
M  V30 1883 H 186.376 4.28033 -0.705019 0
M  V30 1884 H 187.047 5.50733 0.373717 0
M  V30 1885 H 189.523 3.90335 1.44146 0
M  V30 1886 H 188.399 4.97838 2.3119 0
M  V30 1887 H 188.66 3.34188 2.89432 0
M  V30 1888 N 187.719 -0.156864 1.56817 0
M  V30 1889 C 188.682 -1.17781 1.96622 0
M  V30 1890 C 189.682 -1.36401 0.851555 0
M  V30 1891 O 190.872 -1.33561 1.11836 0
M  V30 1892 C 188.004 -2.54008 2.27361 0
M  V30 1893 H 189.197 -0.836564 2.87996 0
M  V30 1894 H 186.75 -0.39985 1.51099 0
M  V30 1895 H 187.485 -2.9312 1.38748 0
M  V30 1896 H 187.27 -2.41856 3.08623 0
M  V30 1897 H 188.76 -3.27558 2.59029 0
M  V30 1898 N 189.197 -1.51736 -0.425897 0
M  V30 1899 C 190.16 -1.73271 -1.50032 0
M  V30 1900 C 191.16 -0.602639 -1.4908 0
M  V30 1901 O 192.35 -0.87033 -1.509 0
M  V30 1902 C 189.482 -1.79969 -2.89523 0
M  V30 1903 H 190.675 -2.69172 -1.32237 0
M  V30 1904 H 188.228 -1.41899 -0.65532 0
M  V30 1905 H 188.963 -0.859241 -3.1271 0
M  V30 1906 H 188.748 -2.62109 -2.91619 0
M  V30 1907 H 190.238 -1.9843 -3.67444 0
M  V30 1908 N 190.675 0.682077 -1.42076 0
M  V30 1909 C 191.915 1.45424 -1.43636 0
M  V30 1910 C 192.279 1.91939 -0.0484001 0
M  V30 1911 O 193.48 2.6873 0.0612514 0
M  V30 1912 C 191.751 2.62427 -2.42625 0
M  V30 1913 S 193.31 3.51379 -2.62827 0
M  V30 1914 H 190.128 0.496779 -0.508657 0
M  V30 1915 H 192.73 0.794645 -1.78621 0
M  V30 1916 H 191.434 2.26481 -3.42249 0
M  V30 1917 H 190.965 3.33266 -2.09039 0
M  V30 1918 H 192.98 4.58141 -1.9058 0
M  V30 1919 N 192.153 1.28127 0.917671 0
M  V30 1920 C 193.569 1.05749 1.19538 0
M  V30 1921 C 193.769 -0.202633 2.00479 0
M  V30 1922 O 192.825 -0.905382 2.3571 0
M  V30 1923 C 194.138 2.30273 1.93378 0
M  V30 1924 C 195.686 2.35412 2.06277 0
M  V30 1925 C 196.161 3.59692 2.83524 0
M  V30 1926 N 197.652 3.60309 2.91087 0
M  V30 1927 C 198.387 4.53147 3.51348 0
M  V30 1928 N 197.883 5.563 4.12919 0
M  V30 1929 N 199.676 4.40751 3.48849 0
M  V30 1930 H 191.827 2.09024 0.377184 0
M  V30 1931 H 194.09 0.919798 0.22951 0
M  V30 1932 H 193.796 3.22055 1.41328 0
M  V30 1933 H 193.67 2.36378 2.93947 0
M  V30 1934 H 196.057 1.4413 2.57508 0
M  V30 1935 H 196.138 2.33304 1.04895 0
M  V30 1936 H 195.782 4.51316 2.32973 0
M  V30 1937 H 195.712 3.59054 3.85211 0
M  V30 1938 H 198.203 2.85714 2.47338 0
M  V30 1939 H 198.516 6.2329 4.56869 0
M  V30 1940 H 196.861 5.60131 4.11435 0
M  V30 1941 H 200.052 3.59367 2.99955 0
M  V30 1942 H 200.225 5.13291 3.9552 0
M  V30 1943 N 193.631 -1.12557 1.10312 0
M  V30 1944 C 194.878 -1.84038 0.844759 0
M  V30 1945 C 195.206 -1.84026 -0.629668 0
M  V30 1946 O 194.461 -1.28026 -1.48013 0
M  V30 1947 C 194.76 -3.31462 1.33669 0
M  V30 1948 C 194.426 -3.51647 2.82232 0
M  V30 1949 C 193.088 -3.56864 3.22802 0
M  V30 1950 C 195.44 -3.58867 3.77974 0
M  V30 1951 C 192.768 -3.66844 4.57867 0
M  V30 1952 C 195.12 -3.70375 5.1284 0
M  V30 1953 C 193.784 -3.73848 5.52986 0
M  V30 1954 H 193.054 -0.673444 0.309119 0
M  V30 1955 H 195.701 -1.32824 1.37949 0
M  V30 1956 H 194.006 -3.85091 0.721949 0
M  V30 1957 H 195.703 -3.85236 1.11329 0
M  V30 1958 H 192.293 -3.48249 2.49842 0
M  V30 1959 H 196.477 -3.54107 3.47738 0
M  V30 1960 H 191.733 -3.67804 4.88396 0
M  V30 1961 H 195.907 -3.74904 5.86873 0
M  V30 1962 H 193.534 -3.81333 6.57639 0
M  V30 1963 N 195.109 -0.891671 -1.2995 0
M  V30 1964 C 196.339 -0.527893 -1.99742 0
M  V30 1965 C 196.747 0.88979 -1.66971 0
M  V30 1966 O 196.09 1.59766 -0.906667 0
M  V30 1967 C 196.152 -0.630804 -3.53922 0
M  V30 1968 C 195.816 -2.01401 -4.10228 0
M  V30 1969 C 196.813 -2.98422 -4.25724 0
M  V30 1970 C 194.498 -2.32121 -4.45449 0
M  V30 1971 C 196.492 -4.24293 -4.75662 0
M  V30 1972 C 194.179 -3.58237 -4.95086 0
M  V30 1973 C 195.177 -4.54137 -5.10146 0
M  V30 1974 O 194.865 -5.78014 -5.58708 0
M  V30 1975 H 194.597 -0.201953 -0.645129 0
M  V30 1976 H 197.151 -1.20076 -1.66646 0
M  V30 1977 H 195.381 0.0990616 -3.86573 0
M  V30 1978 H 197.07 -0.277338 -4.04951 0
M  V30 1979 H 197.836 -2.76001 -3.98809 0
M  V30 1980 H 193.715 -1.5824 -4.32991 0
M  V30 1981 H 197.259 -4.99153 -4.87332 0
M  V30 1982 H 193.156 -3.80491 -5.21437 0
M  V30 1983 H 193.924 -5.8049 -5.77039 0
M  V30 1984 N 196.587 1.43421 -0.653314 0
M  V30 1985 C 197.815 2.06163 -0.174491 0
M  V30 1986 C 198.23 1.48969 1.1599 0
M  V30 1987 O 197.587 0.621042 1.71608 0
M  V30 1988 C 197.638 3.61417 -0.0774865 0
M  V30 1989 O 197.359 4.16485 -1.35912 0
M  V30 1990 C 198.86 4.41235 0.427402 0
M  V30 1991 H 196.08 0.664946 -0.0899353 0
M  V30 1992 H 198.624 1.83924 -0.893988 0
M  V30 1993 H 196.779 3.82841 0.59257 0
M  V30 1994 H 197.193 5.10153 -1.21839 0
M  V30 1995 H 198.667 5.5021 0.44423 0
M  V30 1996 H 199.144 4.14268 1.45873 0
M  V30 1997 H 199.75 4.2478 -0.210167 0
M  V30 1998 N 198.065 0.39524 1.52563 0
M  V30 1999 C 198.995 -0.428384 2.29537 0
M  V30 2000 C 199.976 -1.05831 1.33169 0
M  V30 2001 O 201.161 -1.06995 1.62067 0
M  V30 2002 C 198.291 -1.55274 3.10656 0
M  V30 2003 C 197.245 -1.04855 4.14957 0
M  V30 2004 C 196.571 -2.26543 4.84337 0
M  V30 2005 C 197.871 -0.112324 5.22179 0
M  V30 2006 H 199.565 0.213867 2.98635 0
M  V30 2007 H 197.111 0.104298 1.43622 0
M  V30 2008 H 199.064 -2.1358 3.63265 0
M  V30 2009 H 197.788 -2.22266 2.39302 0
M  V30 2010 H 196.447 -0.487985 3.63338 0
M  V30 2011 H 196.095 -2.92059 4.09525 0
M  V30 2012 H 195.795 -1.93466 5.54837 0
M  V30 2013 H 197.319 -2.85481 5.39753 0
M  V30 2014 H 198.733 -0.603752 5.70112 0
M  V30 2015 H 197.13 0.128968 5.99961 0
M  V30 2016 H 198.2 0.837052 4.77621 0
M  V30 2017 N 199.544 -1.57102 0.125237 0
M  V30 2018 C 200.821 -1.86953 -0.575142 0
M  V30 2019 C 201.201 -1.02749 -1.84407 0
M  V30 2020 O 200.549 -0.108144 -2.28244 0
M  V30 2021 C 200.759 -3.38198 -0.861583 0
M  V30 2022 C 202.107 -4.06937 -1.21192 0
M  V30 2023 O 203.131 -3.43252 -0.951645 0
M  V30 2024 O 201.99 -5.19364 -1.70068 0
M  V30 2025 H 199.084 -0.774147 -0.290906 0
M  V30 2026 H 201.63 -1.68942 0.160211 0
M  V30 2027 H 200.402 -3.91282 0.0373647 0
M  V30 2028 H 200.025 -3.61661 -1.65188 0
M  V30 2029 N 201.022 0.148545 -1.56898 0
M  V30 2030 C 202.25 0.876389 -1.87422 0
M  V30 2031 C 202.665 1.74809 -0.713256 0
M  V30 2032 O 202.022 1.79725 0.317025 0
M  V30 2033 C 202.073 1.73438 -3.17178 0
M  V30 2034 O 201.794 0.897809 -4.28802 0
M  V30 2035 C 203.295 2.56993 -3.61205 0
M  V30 2036 H 200.515 0.253489 -0.621277 0
M  V30 2037 H 203.059 0.141798 -2.04008 0
M  V30 2038 H 201.214 2.42205 -3.0235 0
M  V30 2039 H 201.628 1.48672 -5.02988 0
M  V30 2040 H 203.102 3.12773 -4.54838 0
M  V30 2041 H 203.579 3.32958 -2.86419 0
M  V30 2042 H 204.185 1.9352 -3.78722 0
M  V30 2043 N 202.5 1.5196 0.417844 0
M  V30 2044 C 203.746 1.65836 1.16732 0
M  V30 2045 C 204.079 0.382881 1.90388 0
M  V30 2046 O 203.354 -0.618368 1.84408 0
M  V30 2047 C 203.637 2.87466 2.16876 0
M  V30 2048 C 203.49 4.25041 1.47174 0
M  V30 2049 C 204.809 3.04613 3.17646 0
M  V30 2050 H 201.928 0.603515 0.423011 0
M  V30 2051 H 204.57 1.84494 0.454105 0
M  V30 2052 H 202.72 2.71689 2.777 0
M  V30 2053 H 204.392 4.52527 0.895376 0
M  V30 2054 H 202.635 4.26843 0.773806 0
M  V30 2055 H 203.306 5.06176 2.20204 0
M  V30 2056 H 205.782 3.1923 2.66892 0
M  V30 2057 H 204.658 3.91247 3.8499 0
M  V30 2058 H 204.919 2.17541 3.84874 0
M  V30 2059 N 203.978 -0.674533 1.42435 0
M  V30 2060 C 205.206 -1.46283 1.46317 0
M  V30 2061 C 205.621 -1.88653 0.0745836 0
M  V30 2062 O 204.978 -1.58151 -0.91074 0
M  V30 2063 C 205.029 -2.71178 2.3905 0
M  V30 2064 O 204.75 -2.30586 3.72507 0
M  V30 2065 C 206.251 -3.64738 2.51955 0
M  V30 2066 H 203.471 -0.450104 0.497642 0
M  V30 2067 H 206.015 -0.828792 1.86953 0
M  V30 2068 H 204.17 -3.3077 2.01667 0
M  V30 2069 H 204.584 -3.11241 4.22172 0
M  V30 2070 H 206.058 -4.49096 3.20962 0
M  V30 2071 H 206.535 -4.10656 1.55752 0
M  V30 2072 H 207.141 -3.11038 2.90061 0
M  V30 2073 N 205.456 -1.28612 -0.910864 0
M  V30 2074 C 206.702 -1.17116 -1.66299 0
M  V30 2075 C 207.057 0.276917 -1.90397 0
M  V30 2076 O 206.35 1.19795 -1.49532 0
M  V30 2077 C 206.544 -1.90624 -3.0232 0
M  V30 2078 C 206.373 -3.42431 -2.91498 0
M  V30 2079 C 205.143 -4.11773 -2.92867 0
M  V30 2080 C 207.341 -4.38124 -2.69355 0
M  V30 2081 N 205.323 -5.50025 -2.72664 0
M  V30 2082 C 206.694 -5.63759 -2.58023 0
M  V30 2083 C 208.749 -4.28016 -2.54375 0
M  V30 2084 C 207.452 -6.80436 -2.33238 0
M  V30 2085 C 209.478 -5.44433 -2.30969 0
M  V30 2086 C 208.84 -6.69034 -2.20394 0
M  V30 2087 H 204.939 -0.483506 -0.61461 0
M  V30 2088 H 207.523 -1.62299 -1.0755 0
M  V30 2089 H 205.694 -1.4787 -3.5915 0
M  V30 2090 H 207.426 -1.71488 -3.66571 0
M  V30 2091 H 204.181 -3.63378 -3.03732 0
M  V30 2092 H 204.605 -6.22705 -2.65646 0
M  V30 2093 H 209.247 -3.32388 -2.613 0
M  V30 2094 H 206.965 -7.7613 -2.25051 0
M  V30 2095 H 210.551 -5.38504 -2.20238 0
M  V30 2096 H 209.431 -7.57595 -2.02531 0
M  V30 2097 N 206.934 1.1197 -1.10907 0
M  V30 2098 C 208.35 1.35591 -0.841852 0
M  V30 2099 C 208.55 1.94233 0.536246 0
M  V30 2100 O 207.606 2.1717 1.28816 0
M  V30 2101 C 208.919 2.29284 -1.94549 0
M  V30 2102 C 210.467 2.42862 -1.97451 0
M  V30 2103 C 210.942 3.39873 -3.07002 0
M  V30 2104 N 212.433 3.47433 -3.06341 0
M  V30 2105 C 213.168 4.22421 -3.87748 0
M  V30 2106 N 212.664 5.00432 -4.79103 0
M  V30 2107 N 214.457 4.17876 -3.75946 0
M  V30 2108 H 206.608 0.722664 -1.99728 0
M  V30 2109 H 208.871 0.380635 -0.868229 0
M  V30 2110 H 208.577 1.93378 -2.93765 0
M  V30 2111 H 208.451 3.29452 -1.83688 0
M  V30 2112 H 210.838 2.78046 -0.988645 0
M  V30 2113 H 210.919 1.42566 -2.12388 0
M  V30 2114 H 210.563 3.05417 -4.05811 0
M  V30 2115 H 210.493 4.40011 -2.89306 0
M  V30 2116 H 212.984 2.91784 -2.40147 0
M  V30 2117 H 213.297 5.55002 -5.37766 0
M  V30 2118 H 211.642 4.99612 -4.83128 0
M  V30 2119 H 214.833 3.56016 -3.03924 0
M  V30 2120 H 215.006 4.76061 -4.39624 0
M  V30 2121 N 208.412 0.89855 1.29475 0
M  V30 2122 C 209.359 0.373819 2.27753 0
M  V30 2123 C 210.329 -0.543444 1.56958 0
M  V30 2124 O 211.514 -0.468934 1.84948 0
M  V30 2125 C 208.654 -0.393648 3.42848 0
M  V30 2126 C 207.767 0.554379 4.28428 0
M  V30 2127 C 206.902 -0.230026 5.30702 0
M  V30 2128 C 205.941 0.712599 6.07938 0
M  V30 2129 N 205.078 -0.0373283 7.0209 0
M  V30 2130 H 209.918 1.21699 2.72017 0
M  V30 2131 H 207.455 0.611456 1.33789 0
M  V30 2132 H 209.413 -0.85466 4.08352 0
M  V30 2133 H 208.043 -1.20128 2.99615 0
M  V30 2134 H 207.095 1.13391 3.63107 0
M  V30 2135 H 208.407 1.27597 4.82204 0
M  V30 2136 H 207.561 -0.752288 6.02018 0
M  V30 2137 H 206.3 -0.984758 4.77654 0
M  V30 2138 H 205.305 1.24637 5.35486 0
M  V30 2139 H 206.53 1.46664 6.63074 0
M  V30 2140 H 204.476 -0.774348 6.51414 0
M  V30 2141 H 204.393 0.624374 7.53417 0
M  V30 2142 H 205.661 -0.539891 7.77628 0
M  V30 2143 N 209.89 -1.43072 0.660911 0
M  V30 2144 C 210.8 -2.34585 -0.0264163 0
M  V30 2145 C 211.816 -1.54316 -0.803898 0
M  V30 2146 O 212.992 -1.86939 -0.749391 0
M  V30 2147 C 210.057 -3.32689 -0.975639 0
M  V30 2148 C 209.118 -4.2886 -0.194236 0
M  V30 2149 C 208.351 -5.22278 -1.09825 0
M  V30 2150 O 208.574 -5.20299 -2.33763 0
M  V30 2151 O 207.508 -5.99228 -0.566513 0
M  V30 2152 H 211.334 -2.94869 0.727034 0
M  V30 2153 H 208.919 -1.43342 0.42111 0
M  V30 2154 H 210.801 -3.92995 -1.52094 0
M  V30 2155 H 209.476 -2.74898 -1.70918 0
M  V30 2156 H 208.383 -3.72011 0.394835 0
M  V30 2157 H 209.716 -4.89655 0.499899 0
M  V30 2158 N 211.368 -0.403325 -1.52352 0
M  V30 2159 C 212.593 0.176499 -2.06648 0
M  V30 2160 C 213.018 1.38577 -1.27193 0
M  V30 2161 O 212.376 1.7879 -0.300637 0
M  V30 2162 C 212.424 0.511061 -3.5696 0
M  V30 2163 O 211.528 1.60294 -3.79973 0
M  V30 2164 H 210.869 0.0167337 -0.663789 0
M  V30 2165 H 213.399 -0.574848 -1.96359 0
M  V30 2166 H 213.409 0.771362 -4.00642 0
M  V30 2167 H 212.084 -0.37296 -4.14224 0
M  V30 2168 H 210.661 1.33526 -3.48174 0
M  V30 2169 N 212.846 1.57033 -0.133567 0
M  V30 2170 C 214.262 1.58035 0.222944 0
M  V30 2171 C 214.462 1.14713 1.6566 0
M  V30 2172 O 213.518 0.841218 2.38075 0
M  V30 2173 C 214.831 3.00691 -0.0236116 0
M  V30 2174 C 216.379 3.12973 0.0411512 0
M  V30 2175 C 216.854 4.57654 -0.177899 0
M  V30 2176 N 218.345 4.63033 -0.124365 0
M  V30 2177 C 219.08 5.72771 -0.268553 0
M  V30 2178 N 218.576 6.91206 -0.46972 0
M  V30 2179 N 220.369 5.61718 -0.2071 0
M  V30 2180 H 212.52 1.8349 -1.06981 0
M  V30 2181 H 214.783 0.848677 -0.422436 0
M  V30 2182 H 214.489 3.36726 -1.0153 0
M  V30 2183 H 214.363 3.70614 0.701808 0
M  V30 2184 H 216.75 2.76787 1.02338 0
M  V30 2185 H 216.831 2.45564 -0.716383 0
M  V30 2186 H 216.475 4.94542 -1.15717 0
M  V30 2187 H 216.405 5.23173 0.599797 0
M  V30 2188 H 218.896 3.7789 0.027011 0
M  V30 2189 H 219.209 7.70693 -0.570212 0
M  V30 2190 H 217.554 6.93156 -0.505876 0
M  V30 2191 H 220.745 4.68072 -0.0507986 0
M  V30 2192 H 220.918 6.47195 -0.322909 0
M  V30 2193 N 214.325 -0.140222 1.56975 0
M  V30 2194 C 215.573 -0.850005 1.83356 0
M  V30 2195 C 215.894 -1.81399 0.71551 0
M  V30 2196 O 215.164 -1.94136 -0.262294 0
M  V30 2197 H 213.744 -0.316886 0.676456 0
M  V30 2198 H 216.406 -0.132608 1.94448 0
M  V30 2199 H 215.502 -1.40814 2.78528 0
M  V30 2200 N 215.803 -1.52179 -0.40978 0
M  V30 2201 C 217.049 -1.67408 -1.15525 0
M  V30 2202 C 217.404 -0.398746 -1.88223 0
M  V30 2203 O 216.697 0.60678 -1.81738 0
M  V30 2204 C 216.891 -2.83428 -2.17723 0
M  V30 2205 C 216.72 -4.22121 -1.55061 0
M  V30 2206 C 215.49 -4.87657 -1.3236 0
M  V30 2207 C 217.688 -5.04248 -1.01185 0
M  V30 2208 N 215.67 -6.10387 -0.655834 0
M  V30 2209 C 217.041 -6.18209 -0.470963 0
M  V30 2210 C 219.096 -4.89583 -0.906252 0
M  V30 2211 C 217.799 -7.1911 0.165172 0
M  V30 2212 C 219.825 -5.90718 -0.28397 0
M  V30 2213 C 219.187 -7.03969 0.246243 0
M  V30 2214 H 215.286 -0.666251 -0.409431 0
M  V30 2215 H 217.87 -1.89482 -0.447729 0
M  V30 2216 H 216.041 -2.6297 -2.85834 0
M  V30 2217 H 217.773 -2.87697 -2.84627 0
M  V30 2218 H 214.528 -4.46007 -1.59294 0
M  V30 2219 H 214.952 -6.76153 -0.338596 0
M  V30 2220 H 219.594 -4.02253 -1.302 0
M  V30 2221 H 217.312 -8.06066 0.572986 0
M  V30 2222 H 220.898 -5.81443 -0.203792 0
M  V30 2223 H 219.778 -7.80886 0.720173 0
M  V30 2224 N 217.281 0.66697 -1.42791 0
M  V30 2225 C 218.527 1.42754 -1.44889 0
M  V30 2226 C 218.882 1.92283 -0.0669755 0
M  V30 2227 O 218.175 1.68494 0.912154 0
M  V30 2228 C 218.369 2.6349 -2.4147 0
M  V30 2229 C 218.198 2.25776 -3.88915 0
M  V30 2230 C 216.968 2.1476 -4.57391 0
M  V30 2231 C 219.166 1.86927 -4.79127 0
M  V30 2232 N 217.148 1.70232 -5.89826 0
M  V30 2233 C 218.519 1.53378 -6.00729 0
M  V30 2234 C 220.574 1.73989 -4.66511 0
M  V30 2235 C 219.277 1.08187 -7.11117 0
M  V30 2236 C 221.303 1.30203 -5.76889 0
M  V30 2237 C 220.665 0.975818 -6.97608 0
M  V30 2238 H 216.764 0.518559 -0.585338 0
M  V30 2239 H 219.348 0.768906 -1.78874 0
M  V30 2240 H 217.519 3.27033 -2.09533 0
M  V30 2241 H 219.251 3.30123 -2.34096 0
M  V30 2242 H 216.006 2.3408 -4.11708 0
M  V30 2243 H 216.43 1.50369 -6.6009 0
M  V30 2244 H 221.072 1.97853 -3.7365 0
M  V30 2245 H 218.79 0.830701 -8.03819 0
M  V30 2246 H 222.376 1.20701 -5.69142 0
M  V30 2247 H 221.256 0.642157 -7.81566 0
M  V30 2248 N 218.759 1.29093 0.90403 0
M  V30 2249 C 220.005 1.17996 1.65676 0
M  V30 2250 C 220.36 -0.266816 1.90541 0
M  V30 2251 O 219.653 -1.19 1.50165 0
M  V30 2252 C 219.847 1.92224 3.01305 0
M  V30 2253 C 219.676 3.43972 2.89678 0
M  V30 2254 C 218.446 4.1332 2.90679 0
M  V30 2255 C 220.644 4.39546 2.67028 0
M  V30 2256 N 218.626 5.51463 2.69743 0
M  V30 2257 C 219.997 5.65119 2.5503 0
M  V30 2258 C 222.052 4.29359 2.52101 0
M  V30 2259 C 220.755 6.81663 2.29626 0
M  V30 2260 C 222.781 5.4565 2.28079 0
M  V30 2261 C 222.143 6.70193 2.16843 0
M  V30 2262 H 218.242 0.486759 0.612037 0
M  V30 2263 H 220.826 1.62868 1.06688 0
M  V30 2264 H 218.997 1.49773 3.58361 0
M  V30 2265 H 220.729 1.73429 3.65656 0
M  V30 2266 H 217.484 3.64984 3.01801 0
M  V30 2267 H 217.908 6.24105 2.6234 0
M  V30 2268 H 222.55 3.33769 2.59534 0
M  V30 2269 H 220.268 7.77313 2.20932 0
M  V30 2270 H 223.854 5.39664 2.1738 0
M  V30 2271 H 222.734 7.58659 1.98511 0
M  V30 2272 N 220.237 -1.11381 1.11499 0
M  V30 2273 C 221.184 -2.17439 0.773887 0
M  V30 2274 C 222.154 -1.64132 -0.254899 0
M  V30 2275 O 223.339 -1.90345 -0.13168 0
M  V30 2276 C 220.479 -3.44373 0.223917 0
M  V30 2277 C 219.592 -4.1168 1.30934 0
M  V30 2278 C 218.727 -5.263 0.71984 0
M  V30 2279 C 217.766 -5.85493 1.78507 0
M  V30 2280 N 216.903 -6.91507 1.21502 0
M  V30 2281 H 221.743 -2.45962 1.68246 0
M  V30 2282 H 219.28 -1.20744 0.840191 0
M  V30 2283 H 221.238 -4.17047 -0.112921 0
M  V30 2284 H 219.868 -3.16232 -0.647851 0
M  V30 2285 H 218.92 -3.37073 1.76312 0
M  V30 2286 H 220.232 -4.51729 2.11524 0
M  V30 2287 H 219.386 -6.05785 0.333094 0
M  V30 2288 H 218.125 -4.87559 -0.117377 0
M  V30 2289 H 217.13 -5.04686 2.18111 0
M  V30 2290 H 218.355 -6.26301 2.62533 0
M  V30 2291 H 216.301 -6.54783 0.399455 0
M  V30 2292 H 216.218 -7.30214 1.95763 0
M  V30 2293 H 217.486 -7.74795 0.855181 0
M  V30 2294 N 221.715 -0.905404 -1.28997 0
M  V30 2295 C 222.645 -0.404212 -2.29975 0
M  V30 2296 C 223.626 0.523784 -1.61835 0
M  V30 2297 O 224.811 0.433298 -1.89304 0
M  V30 2298 C 221.941 0.364042 -3.45387 0
M  V30 2299 C 220.895 -0.474048 -4.25367 0
M  V30 2300 C 220.221 0.422045 -5.33032 0
M  V30 2301 C 221.521 -1.72696 -4.92923 0
M  V30 2302 H 223.215 -1.24807 -2.72146 0
M  V30 2303 H 220.761 -0.601585 -1.30832 0
M  V30 2304 H 222.714 0.725447 -4.15109 0
M  V30 2305 H 221.438 1.24174 -3.02074 0
M  V30 2306 H 220.097 -0.81786 -3.57361 0
M  V30 2307 H 219.745 1.29804 -4.85963 0
M  V30 2308 H 219.445 -0.135057 -5.87445 0
M  V30 2309 H 220.969 0.779517 -6.05604 0
M  V30 2310 H 222.383 -1.43495 -5.55051 0
M  V30 2311 H 220.78 -2.22582 -5.57295 0
M  V30 2312 H 221.85 -2.45964 -4.17887 0
M  V30 2313 N 223.193 1.4272 -0.668489 0
M  V30 2314 C 224.604 1.84793 -0.266151 0
M  V30 2315 C 224.955 1.55959 1.19043 0
M  V30 2316 O 224.08 1.01622 1.91055 0
M  V30 2317 C 224.675 3.35436 -0.476271 0
M  V30 2318 C 223.234 3.76182 -0.128113 0
M  V30 2319 C 222.381 2.66344 -0.771777 0
M  V30 2320 H 225.332 1.32656 -0.871098 0
M  V30 2321 H 225.353 3.79515 0.273561 0
M  V30 2322 H 224.865 3.5639 -1.53647 0
M  V30 2323 H 222.966 3.60836 0.928891 0
M  V30 2324 H 223.079 4.75766 -0.564231 0
M  V30 2325 H 221.443 2.53885 -0.203652 0
M  V30 2326 H 222.226 2.90123 -1.83531 0
M  V30 2327 N 224.671 0.411399 1.52136 0
M  V30 2328 C 225.948 -0.222308 1.94333 0
M  V30 2329 C 226.328 -1.6242 1.34844 0
M  V30 2330 O 225.676 -2.22384 0.525145 0
M  V30 2331 C 225.886 -0.226345 3.48265 0
M  V30 2332 C 227.234 -0.444592 4.22266 0
M  V30 2333 O 228.258 -0.305602 3.54887 0
M  V30 2334 O 227.117 -0.718749 5.41753 0
M  V30 2335 H 224.211 -0.143907 0.814383 0
M  V30 2336 H 226.757 0.467506 1.63133 0
M  V30 2337 H 225.529 0.75475 3.83952 0
M  V30 2338 H 225.152 -0.960163 3.85832 0
M  V30 2339 N 226.149 -1.5696 0.141893 0
M  V30 2340 C 227.112 -2.15316 -0.785587 0
M  V30 2341 C 228.112 -1.09366 -1.1788 0
M  V30 2342 O 229.302 -1.35031 -1.10056 0
M  V30 2343 C 226.434 -2.71211 -2.06537 0
M  V30 2344 H 227.627 -2.98608 -0.278041 0
M  V30 2345 H 225.18 -1.5593 -0.107519 0
M  V30 2346 H 225.915 -1.91571 -2.6167 0
M  V30 2347 H 225.7 -3.4872 -1.79268 0
M  V30 2348 H 227.19 -3.16189 -2.72789 0
M  V30 2349 N 227.627 0.131896 -1.57047 0
M  V30 2350 C 228.557 1.16384 -2.02428 0
M  V30 2351 C 229.538 1.43936 -0.90644 0
M  V30 2352 O 230.723 1.54599 -1.17528 0
M  V30 2353 C 227.853 2.49328 -2.4177 0
M  V30 2354 C 226.807 2.36266 -3.56879 0
M  V30 2355 C 226.133 3.74057 -3.8208 0
M  V30 2356 C 227.433 1.834 -4.89042 0
M  V30 2357 H 229.127 0.786433 -2.88887 0
M  V30 2358 H 226.673 0.376855 -1.38981 0
M  V30 2359 H 228.626 3.21759 -2.7212 0
M  V30 2360 H 227.35 2.88934 -1.52266 0
M  V30 2361 H 226.009 1.66286 -3.26718 0
M  V30 2362 H 225.657 4.11125 -2.89803 0
M  V30 2363 H 225.357 3.66174 -4.59554 0
M  V30 2364 H 226.881 4.48012 -4.1487 0
M  V30 2365 H 228.295 2.45636 -5.18011 0
M  V30 2366 H 226.692 1.8637 -5.70426 0
M  V30 2367 H 227.762 0.790662 -4.7841 0
M  V30 2368 N 229.106 1.52395 0.401703 0
M  V30 2369 C 230.053 1.76268 1.48991 0
M  V30 2370 C 231.023 0.605386 1.54675 0
M  V30 2371 O 232.208 0.843742 1.7113 0
M  V30 2372 C 229.348 1.92592 2.86361 0
M  V30 2373 C 228.461 3.20259 2.89928 0
M  V30 2374 C 227.596 3.26972 4.18644 0
M  V30 2375 C 226.635 4.48812 4.16214 0
M  V30 2376 N 225.772 4.52877 5.36514 0
M  V30 2377 H 230.612 2.6914 1.27935 0
M  V30 2378 H 228.149 1.33355 0.620871 0
M  V30 2379 H 230.107 2.0004 3.66115 0
M  V30 2380 H 228.737 1.03093 3.05895 0
M  V30 2381 H 227.789 3.21945 2.02621 0
M  V30 2382 H 229.101 4.10056 2.83999 0
M  V30 2383 H 228.255 3.33533 5.06794 0
M  V30 2384 H 226.994 2.35126 4.27278 0
M  V30 2385 H 225.999 4.4239 3.26453 0
M  V30 2386 H 227.224 5.41961 4.09213 0
M  V30 2387 H 225.17 3.63917 5.45802 0
M  V30 2388 H 225.087 5.36529 5.32609 0
M  V30 2389 H 226.355 4.63676 6.26597 0
M  V30 2390 N 230.584 -0.659388 1.43143 0
M  V30 2391 C 231.861 -1.41627 1.34912 0
M  V30 2392 C 232.241 -2.11099 -0.00607785 0
M  V30 2393 O 231.589 -2.04353 -1.02236 0
M  V30 2394 C 231.799 -2.40604 2.52805 0
M  V30 2395 C 233.147 -3.04789 2.95616 0
M  V30 2396 O 234.171 -2.50932 2.52807 0
M  V30 2397 O 233.03 -4.02421 3.69756 0
M  V30 2398 H 230.124 -0.63246 0.532844 0
M  V30 2399 H 232.67 -0.686814 1.5518 0
M  V30 2400 H 231.442 -1.88174 3.43083 0
M  V30 2401 H 231.065 -3.21009 2.34604 0
M  V30 2402 N 232.062 -1.29571 -0.897171 0
M  V30 2403 C 232.995 -1.0924 -2.00354 0
M  V30 2404 C 233.973 -0.00354011 -1.626 0
M  V30 2405 O 235.157 -0.15473 -1.87864 0
M  V30 2406 C 232.284 -0.66352 -3.32137 0
M  V30 2407 C 231.33 -1.75146 -3.88878 0
M  V30 2408 S 232.163 -3.35124 -4.17674 0
M  V30 2409 C 233.319 -2.9411 -5.52494 0
M  V30 2410 H 233.552 -2.02907 -2.17292 0
M  V30 2411 H 231.085 -1.13746 -1.04408 0
M  V30 2412 H 233.043 -0.422791 -4.08317 0
M  V30 2413 H 231.704 0.253588 -3.13075 0
M  V30 2414 H 230.897 -1.40337 -4.84068 0
M  V30 2415 H 230.499 -1.94584 -3.19395 0
M  V30 2416 H 232.791 -2.41312 -6.33068 0
M  V30 2417 H 233.734 -3.88161 -5.9223 0
M  V30 2418 H 234.142 -2.32332 -5.14473 0
M  V30 2419 N 233.54 1.10788 -1.12088 0
M  V30 2420 C 234.788 1.8231 -0.872205 0
M  V30 2421 C 235.109 1.85419 0.603709 0
M  V30 2422 O 234.379 1.32963 1.43867 0
M  V30 2423 H 232.959 0.675137 -0.319686 0
M  V30 2424 H 235.621 1.34068 -1.41463 0
M  V30 2425 H 234.717 2.85955 -1.25045 0
M  V30 2426 N 235.018 0.912232 1.28515 0
M  V30 2427 C 235.948 0.416403 2.29757 0
M  V30 2428 C 236.929 -0.515194 1.6211 0
M  V30 2429 O 238.114 -0.423253 1.89532 0
M  V30 2430 C 235.244 -0.34572 3.45575 0
M  V30 2431 C 234.198 0.496599 4.25109 0
M  V30 2432 C 233.524 -0.393771 5.33248 0
M  V30 2433 C 234.824 1.75307 4.92001 0
M  V30 2434 H 236.518 1.26249 2.7148 0
M  V30 2435 H 234.064 0.608515 1.30511 0
M  V30 2436 H 236.017 -0.703422 4.15488 0
M  V30 2437 H 234.741 -1.2257 3.02728 0
M  V30 2438 H 233.4 0.8368 3.56922 0
M  V30 2439 H 233.048 -1.27225 4.86644 0
M  V30 2440 H 232.748 0.166209 5.87365 0
M  V30 2441 H 234.272 -0.747389 6.06009 0
M  V30 2442 H 235.686 1.46437 5.54283 0
M  V30 2443 H 234.083 2.25534 5.56106 0
M  V30 2444 H 235.153 2.48176 4.16577 0
M  V30 2445 N 236.496 -1.42363 0.676048 0
M  V30 2446 C 237.743 -2.01522 0.19883 0
M  V30 2447 C 238.071 -1.53456 -1.19505 0
M  V30 2448 O 237.326 -0.727967 -1.81657 0
M  V30 2449 C 237.625 -3.56929 0.183431 0
M  V30 2450 C 237.291 -4.24431 1.52215 0
M  V30 2451 C 235.953 -4.42585 1.8887 0
M  V30 2452 C 238.305 -4.62459 2.40377 0
M  V30 2453 C 235.633 -4.96039 3.13309 0
M  V30 2454 C 237.985 -5.17294 3.64129 0
M  V30 2455 C 236.649 -5.33661 4.00951 0
M  V30 2456 H 235.919 -0.737419 0.0727571 0
M  V30 2457 H 238.566 -1.70531 0.871281 0
M  V30 2458 H 236.871 -3.87594 -0.572532 0
M  V30 2459 H 238.568 -4.00486 -0.203035 0
M  V30 2460 H 235.158 -4.10661 1.22701 0
M  V30 2461 H 239.342 -4.48105 2.13343 0
M  V30 2462 H 234.598 -5.06896 3.41857 0
M  V30 2463 H 238.772 -5.45704 4.32644 0
M  V30 2464 H 236.399 -5.74845 4.9745 0
M  V30 2465 N 237.974 -0.419461 -1.51915 0
M  V30 2466 C 239.222 0.152637 -2.01523 0
M  V30 2467 C 239.543 1.44762 -1.30649 0
M  V30 2468 O 238.813 1.90997 -0.435535 0
M  V30 2469 H 237.393 0.0593966 -0.744635 0
M  V30 2470 H 240.055 -0.558073 -1.86739 0
M  V30 2471 H 239.151 0.341369 -3.10227 0
M  V30 2472 N 239.452 1.56882 -0.150215 0
M  V30 2473 C 240.384 2.14057 0.819286 0
M  V30 2474 C 241.397 1.09082 1.20851 0
M  V30 2475 O 242.586 1.36347 1.15203 0
M  V30 2476 C 239.686 2.65102 2.11127 0
M  V30 2477 C 238.859 3.94511 1.88891 0
M  V30 2478 C 237.918 4.30834 3.02107 0
M  V30 2479 O 236.944 4.99099 2.73659 0
M  V30 2480 N 238.146 3.90676 4.29363 0
M  V30 2481 H 240.911 2.97871 0.330618 0
M  V30 2482 H 238.472 1.61866 0.0332538 0
M  V30 2483 H 240.464 2.86411 2.85921 0
M  V30 2484 H 239.034 1.85994 2.51247 0
M  V30 2485 H 238.254 3.81795 0.981152 0
M  V30 2486 H 239.542 4.7907 1.71376 0
M  V30 2487 H 238.94 3.35677 4.55343 0
M  V30 2488 H 237.497 4.1703 5.00928 0
M  V30 2489 N 240.93 -0.123565 1.57115 0
M  V30 2490 C 241.878 -1.17082 2.00984 0
M  V30 2491 C 242.872 -1.43136 0.906009 0
M  V30 2492 O 244.078 -1.43152 1.09121 0
M  V30 2493 H 240.453 -0.394653 0.64012 0
M  V30 2494 H 242.424 -0.774292 2.88179 0
M  V30 2495 C 241.173 -2.49057 2.42623 0
M  V30 2496 H 240.496 -2.29846 3.27125 0
M  V30 2497 H 241.936 -3.20906 2.7712 0
M  V30 2498 C 240.395 -3.11305 1.28805 0
M  V30 2499 O 240.925 -3.97171 0.60153 0
M  V30 2500 N 239.131 -2.71111 1.04628 0
M  V30 2501 H 238.678 -2.01382 1.60634 0
M  V30 2502 H 238.636 -3.1309 0.286685 0
M  V30 2503 N 242.408 -1.52605 -0.393616 0
M  V30 2504 C 243.341 -1.71798 -1.50202 0
M  V30 2505 C 244.319 -0.565743 -1.52441 0
M  V30 2506 O 245.503 -0.794987 -1.70916 0
M  V30 2507 C 242.63 -1.7714 -2.88685 0
M  V30 2508 C 241.676 -2.98845 -3.04292 0
M  V30 2509 S 242.509 -4.58909 -2.75976 0
M  V30 2510 C 243.665 -4.6706 -4.1666 0
M  V30 2511 H 243.898 -2.65542 -1.33696 0
M  V30 2512 H 241.431 -1.42839 -0.586195 0
M  V30 2513 H 243.389 -1.80903 -3.68489 0
M  V30 2514 H 242.05 -0.844969 -3.02521 0
M  V30 2515 H 241.243 -2.99111 -4.05646 0
M  V30 2516 H 240.845 -2.9305 -2.32374 0
M  V30 2517 H 243.137 -4.45391 -5.10523 0
M  V30 2518 H 244.08 -5.6905 -4.21412 0
M  V30 2519 H 244.488 -3.95944 -4.02354 0
M  V30 2520 N 243.887 0.651787 -1.4349 0
M  V30 2521 C 245.134 1.41167 -1.45183 0
M  V30 2522 C 245.462 1.94349 -0.0766601 0
M  V30 2523 O 244.717 1.72804 0.918555 0
M  V30 2524 C 245.016 2.60914 -2.44251 0
M  V30 2525 C 244.682 2.26142 -3.9009 0
M  V30 2526 C 243.344 2.16371 -4.2981 0
M  V30 2527 C 245.696 1.98334 -4.81989 0
M  V30 2528 C 243.024 1.7695 -5.5938 0
M  V30 2529 C 245.376 1.6041 -6.11924 0
M  V30 2530 C 244.04 1.49166 -6.5062 0
M  V30 2531 H 243.31 0.516566 -0.531263 0
M  V30 2532 H 245.957 0.741099 -1.76579 0
M  V30 2533 H 244.262 3.3311 -2.06265 0
M  V30 2534 H 245.959 3.19127 -2.42815 0
M  V30 2535 H 242.549 2.34658 -3.58655 0
M  V30 2536 H 246.733 2.04803 -4.52072 0
M  V30 2537 H 241.989 1.66831 -5.88198 0
M  V30 2538 H 246.163 1.37925 -6.82605 0
M  V30 2539 H 243.79 1.1839 -7.50925 0
M  V30 2540 N 245.365 1.30045 0.890287 0
M  V30 2541 C 246.595 1.21296 1.67245 0
M  V30 2542 C 247.003 -0.227471 1.87828 0
M  V30 2543 O 246.346 -1.16296 1.422 0
M  V30 2544 C 246.408 1.86519 3.07329 0
M  V30 2545 C 246.072 3.35837 3.09939 0
M  V30 2546 C 247.069 4.31915 2.89389 0
M  V30 2547 C 244.754 3.77196 3.31706 0
M  V30 2548 C 246.748 5.67325 2.90552 0
M  V30 2549 C 244.435 5.12725 3.32499 0
M  V30 2550 C 245.433 6.076 3.11947 0
M  V30 2551 O 245.121 7.40655 3.12547 0
M  V30 2552 H 244.853 0.4211 0.528821 0
M  V30 2553 H 247.407 1.72111 1.12103 0
M  V30 2554 H 245.637 1.30228 3.64112 0
M  V30 2555 H 247.326 1.71963 3.67673 0
M  V30 2556 H 248.092 4.01294 2.72375 0
M  V30 2557 H 243.971 3.03796 3.4674 0
M  V30 2558 H 247.515 6.41354 2.74429 0
M  V30 2559 H 243.412 5.42988 3.49047 0
M  V30 2560 H 244.18 7.49577 3.28749 0
M  V30 2561 N 246.843 -1.10192 1.12674 0
M  V30 2562 C 247.793 -2.14754 0.765801 0
M  V30 2563 C 248.777 -1.59154 -0.236409 0
M  V30 2564 O 249.969 -1.76951 -0.0415261 0
M  V30 2565 C 247.098 -3.42563 0.224827 0
M  V30 2566 C 246.184 -4.05091 1.25548 0
M  V30 2567 N 246.575 -4.42287 2.4539 0
M  V30 2568 C 244.873 -4.32186 1.10142 0
M  V30 2569 C 245.574 -4.91441 3.11224 0
M  V30 2570 N 244.55 -4.88405 2.38666 0
M  V30 2571 H 248.352 -2.41309 1.67772 0
M  V30 2572 H 245.866 -1.27339 1.00789 0
M  V30 2573 H 247.863 -4.16868 -0.0519578 0
M  V30 2574 H 246.523 -3.17467 -0.681515 0
M  V30 2575 H 247.534 -4.33902 2.82754 0
M  V30 2576 H 244.211 -4.16735 0.252587 0
M  V30 2577 H 245.601 -5.29749 4.13298 0
M  V30 2578 N 248.321 -0.919034 -1.28029 0
M  V30 2579 C 249.551 -0.570143 -1.98577 0
M  V30 2580 C 249.959 0.854172 -1.68821 0
M  V30 2581 O 249.302 1.57807 -0.940351 0
M  V30 2582 C 249.364 -0.705734 -3.52505 0
M  V30 2583 C 249.028 -2.10057 -4.05863 0
M  V30 2584 C 250.025 -3.07385 -4.19298 0
M  V30 2585 C 247.71 -2.41517 -4.40426 0
M  V30 2586 C 249.704 -4.34287 -4.66555 0
M  V30 2587 C 247.391 -3.68657 -4.87376 0
M  V30 2588 C 248.389 -4.64856 -5.00398 0
M  V30 2589 O 248.077 -5.89735 -5.46322 0
M  V30 2590 H 247.809 -0.215592 -0.6407 0
M  V30 2591 H 250.363 -1.23583 -1.64062 0
M  V30 2592 H 248.593 0.0170414 -3.86696 0
M  V30 2593 H 250.282 -0.363172 -4.04272 0
M  V30 2594 H 251.048 -2.84398 -3.92865 0
M  V30 2595 H 246.927 -1.67389 -4.29537 0
M  V30 2596 H 250.471 -5.09377 -4.76635 0
M  V30 2597 H 246.368 -3.91466 -5.13249 0
M  V30 2598 H 247.136 -5.92599 -5.64596 0
M  V30 2599 N 249.799 1.42003 -0.683588 0
M  V30 2600 C 250.729 2.33487 -0.024866 0
M  V30 2601 C 251.71 1.51163 0.779975 0
M  V30 2602 O 252.895 1.79739 0.735362 0
M  V30 2603 C 250.025 3.3487 0.920836 0
M  V30 2604 C 248.979 4.27414 0.223958 0
M  V30 2605 C 248.305 5.19074 1.2832 0
M  V30 2606 C 249.605 5.14445 -0.90242 0
M  V30 2607 H 251.299 2.88819 -0.788921 0
M  V30 2608 H 248.845 1.38873 -0.38083 0
M  V30 2609 H 250.798 3.97787 1.39081 0
M  V30 2610 H 249.522 2.77861 1.71642 0
M  V30 2611 H 248.181 3.65904 -0.225864 0
M  V30 2612 H 247.829 4.58387 2.071 0
M  V30 2613 H 247.529 5.81822 0.821995 0
M  V30 2614 H 249.053 5.84867 1.75392 0
M  V30 2615 H 250.467 5.70998 -0.513272 0
M  V30 2616 H 248.864 5.86072 -1.28997 0
M  V30 2617 H 249.934 4.52322 -1.74737 0
M  V30 2618 N 251.277 0.427512 1.51691 0
M  V30 2619 C 252.525 -0.141948 2.01601 0
M  V30 2620 C 252.846 -1.44067 1.31414 0
M  V30 2621 O 252.116 -1.90763 0.445658 0
M  V30 2622 H 250.696 -0.0554468 0.744939 0
M  V30 2623 H 253.358 0.567968 1.86441 0
M  V30 2624 H 252.454 -0.324913 3.10404 0
M  V30 2625 N 252.755 -1.56801 0.158532 0
M  V30 2626 C 254.171 -1.5837 -0.197774 0
M  V30 2627 C 254.371 -1.17334 -1.63814 0
M  V30 2628 O 253.427 -0.878988 -2.36707 0
M  V30 2629 C 254.74 -3.00615 0.0714459 0
M  V30 2630 C 256.288 -3.12999 0.00864533 0
M  V30 2631 C 256.763 -4.57313 0.250685 0
M  V30 2632 N 258.254 -4.62777 0.198014 0
M  V30 2633 C 258.989 -5.72271 0.359642 0
M  V30 2634 N 258.485 -6.90371 0.579625 0
M  V30 2635 N 260.278 -5.61318 0.296438 0
M  V30 2636 H 252.429 -1.81765 1.09887 0
M  V30 2637 H 254.692 -0.841849 0.435884 0
M  V30 2638 H 254.398 -3.35068 1.06874 0
M  V30 2639 H 254.272 -3.71683 -0.642757 0
M  V30 2640 H 256.659 -2.7838 -0.979217 0
M  V30 2641 H 256.74 -2.44393 0.755359 0
M  V30 2642 H 256.384 -4.92639 1.2357 0
M  V30 2643 H 256.314 -5.24061 -0.516489 0
M  V30 2644 H 258.805 -3.77885 0.0331115 0
M  V30 2645 H 259.118 -7.69689 0.69275 0
M  V30 2646 H 257.463 -6.92264 0.616087 0
M  V30 2647 H 260.654 -4.67932 0.125258 0
M  V30 2648 H 260.827 -6.46599 0.425831 0
M  V30 2649 N 254.233 0.115231 -1.57178 0
M  V30 2650 C 255.196 1.12526 -1.99676 0
M  V30 2651 C 256.196 1.34095 -0.88742 0
M  V30 2652 O 257.386 1.30548 -1.15337 0
M  V30 2653 C 254.518 2.4789 -2.34015 0
M  V30 2654 H 255.711 0.759912 -2.90113 0
M  V30 2655 H 253.264 0.359648 -1.52106 0
M  V30 2656 H 253.999 2.89339 -1.4647 0
M  V30 2657 H 253.784 2.33588 -3.14927 0
M  V30 2658 H 255.274 3.20575 -2.67622 0
M  V30 2659 N 255.711 1.52812 0.385517 0
M  V30 2660 C 256.959 1.67694 1.12797 0
M  V30 2661 C 257.28 0.421115 1.90399 0
M  V30 2662 O 256.55 -0.564551 1.87589 0
M  V30 2663 H 255.13 0.618155 0.419396 0
M  V30 2664 H 257.792 1.89938 0.436972 0
M  V30 2665 H 256.888 2.52896 1.82894 0
M  V30 2666 N 257.189 -0.644168 1.43834 0
M  V30 2667 C 258.419 -1.42939 1.49171 0
M  V30 2668 C 258.827 -1.88874 0.111048 0
M  V30 2669 O 258.17 -1.60656 -0.8908 0
M  V30 2670 C 258.232 -2.69151 2.38324 0
M  V30 2671 C 257.896 -2.45097 3.85715 0
M  V30 2672 C 258.893 -2.07747 4.76589 0
M  V30 2673 C 256.578 -2.59141 4.30292 0
M  V30 2674 C 258.572 -1.8475 6.10038 0
M  V30 2675 C 256.259 -2.35759 5.63792 0
M  V30 2676 C 257.257 -1.9862 6.53482 0
M  V30 2677 O 256.945 -1.75489 7.84512 0
M  V30 2678 H 256.677 -0.445271 0.508635 0
M  V30 2679 H 259.231 -0.79621 1.8934 0
M  V30 2680 H 257.461 -3.3506 1.93058 0
M  V30 2681 H 259.15 -3.31123 2.3476 0
M  V30 2682 H 259.916 -1.96465 4.43426 0
M  V30 2683 H 255.795 -2.87022 3.60749 0
M  V30 2684 H 259.339 -1.55686 6.80006 0
M  V30 2685 H 255.236 -2.46646 5.9652 0
M  V30 2686 H 256.004 -1.89841 7.9618 0
M  V30 2687 N 258.668 -1.30515 -0.883378 0
M  V30 2688 C 259.896 -1.22359 -1.66841 0
M  V30 2689 C 260.311 0.213296 -1.87591 0
M  V30 2690 O 259.668 1.14075 -1.42454 0
M  V30 2691 C 259.719 -1.95011 -3.04389 0
M  V30 2692 O 259.44 -3.3309 -2.84575 0
M  V30 2693 C 260.941 -1.93532 -3.98824 0
M  V30 2694 H 258.161 -0.423371 -0.520575 0
M  V30 2695 H 260.705 -1.72167 -1.10357 0
M  V30 2696 H 258.86 -1.48997 -3.57601 0
M  V30 2697 H 259.274 -3.69907 -3.71846 0
M  V30 2698 H 260.748 -2.48902 -4.92699 0
M  V30 2699 H 261.225 -0.914627 -4.29571 0
M  V30 2700 H 261.831 -2.39364 -3.51547 0
M  V30 2701 N 260.146 1.09593 -1.13257 0
M  V30 2702 C 261.392 1.82003 -0.89458 0
M  V30 2703 C 261.725 1.85402 0.577906 0
M  V30 2704 O 261 1.32099 1.42759 0
M  V30 2705 C 261.283 3.28237 -1.48096 0
M  V30 2706 C 261.136 3.3312 -3.02244 0
M  V30 2707 C 262.455 4.24871 -1.14774 0
M  V30 2708 H 259.574 0.66077 -0.326424 0
M  V30 2709 H 262.216 1.28389 -1.40058 0
M  V30 2710 H 260.366 3.74024 -1.05062 0
M  V30 2711 H 262.038 2.95748 -3.54021 0
M  V30 2712 H 260.281 2.72756 -3.37323 0
M  V30 2713 H 260.952 4.3613 -3.38371 0
M  V30 2714 H 263.428 3.87361 -1.51957 0
M  V30 2715 H 262.304 5.25532 -1.58452 0
M  V30 2716 H 262.565 4.42058 -0.0611849 0
M  V30 2717 N 261.624 0.925811 1.2754 0
M  V30 2718 C 262.574 0.394488 2.24561 0
M  V30 2719 C 263.558 -0.500183 1.52928 0
M  V30 2720 O 264.75 -0.337936 1.73744 0
M  V30 2721 C 261.879 -0.353328 3.41477 0
M  V30 2722 C 260.965 0.557752 4.20416 0
M  V30 2723 N 261.356 1.67674 4.77199 0
M  V30 2724 C 259.654 0.360404 4.44541 0
M  V30 2725 C 260.355 2.24324 5.36706 0
M  V30 2726 N 259.331 1.53305 5.21535 0
M  V30 2727 H 263.133 1.2489 2.66045 0
M  V30 2728 H 260.647 0.779864 1.4245 0
M  V30 2729 H 262.644 -0.7509 4.10082 0
M  V30 2730 H 261.304 -1.20469 3.01525 0
M  V30 2731 H 262.315 2.05915 4.75204 0
M  V30 2732 H 258.992 -0.450454 4.15063 0
M  V30 2733 H 260.382 3.18521 5.91603 0
M  V30 2734 N 263.102 -1.41638 0.69111 0
M  V30 2735 C 264.348 -2.01598 0.220519 0
M  V30 2736 C 264.681 -1.54594 -1.17535 0
M  V30 2737 O 263.956 -0.755177 -1.79241 0
M  V30 2738 C 264.239 -3.59062 0.273243 0
M  V30 2739 C 264.092 -4.16203 1.70573 0
M  V30 2740 C 265.411 -4.38546 -0.369457 0
M  V30 2741 H 262.53 -0.732468 0.0816045 0
M  V30 2742 H 265.172 -1.68445 0.878986 0
M  V30 2743 H 263.322 -3.87435 -0.287411 0
M  V30 2744 H 264.994 -3.98722 2.31989 0
M  V30 2745 H 263.237 -3.71414 2.2413 0
M  V30 2746 H 263.908 -5.25358 1.69419 0
M  V30 2747 H 266.384 -4.1596 0.107977 0
M  V30 2748 H 265.26 -5.48069 -0.302002 0
M  V30 2749 H 265.521 -4.17662 -1.44951 0
M  V30 2750 N 264.58 -0.43555 -1.51462 0
M  V30 2751 C 265.512 0.41257 -2.25456 0
M  V30 2752 C 266.525 0.987822 -1.29406 0
M  V30 2753 O 267.714 0.882266 -1.55172 0
M  V30 2754 C 264.814 1.58894 -2.99342 0
M  V30 2755 C 263.987 1.13288 -4.22474 0
M  V30 2756 C 263.046 2.17917 -4.78956 0
M  V30 2757 O 262.072 1.77425 -5.40841 0
M  V30 2758 N 263.274 3.50382 -4.62832 0
M  V30 2759 H 266.039 -0.221603 -2.9888 0
M  V30 2760 H 263.6 -0.264342 -1.59727 0
M  V30 2761 H 265.592 2.28508 -3.34015 0
M  V30 2762 H 264.162 2.12849 -2.28941 0
M  V30 2763 H 263.382 0.263881 -3.93316 0
M  V30 2764 H 264.67 0.805542 -5.02383 0
M  V30 2765 H 264.068 3.86013 -4.13534 0
M  V30 2766 H 262.625 4.15895 -5.01871 0
M  V30 2767 N 266.058 1.56714 -0.166846 0
M  V30 2768 C 267.298 1.98641 0.481763 0
M  V30 2769 C 267.662 1.05038 1.6072 0
M  V30 2770 O 268.863 1.36087 2.31805 0
M  V30 2771 C 267.134 3.44362 0.956517 0
M  V30 2772 S 268.693 4.08317 1.60694 0
M  V30 2773 H 265.511 0.693873 0.155116 0
M  V30 2774 H 268.113 1.93719 -0.263251 0
M  V30 2775 H 266.817 4.10204 0.126936 0
M  V30 2776 H 266.348 3.53041 1.73568 0
M  V30 2777 H 268.363 4.02999 2.89494 0
M  V30 2778 N 267.536 -0.106894 1.57237 0
M  V30 2779 C 268.484 -1.14944 2.02215 0
M  V30 2780 C 269.478 -1.42167 0.92114 0
M  V30 2781 O 270.684 -1.41987 1.10634 0
M  V30 2782 H 267.059 -0.387841 0.64427 0
M  V30 2783 H 269.03 -0.743683 2.88984 0
M  V30 2784 C 267.779 -2.4647 2.4525 0
M  V30 2785 H 267.102 -2.26363 3.29545 0
M  V30 2786 H 268.542 -3.17948 2.80508 0
M  V30 2787 C 267.001 -3.09921 1.321 0
M  V30 2788 O 267.531 -3.9651 0.643622 0
M  V30 2789 N 265.737 -2.69986 1.07497 0
M  V30 2790 H 265.284 -1.99667 1.62761 0
M  V30 2791 H 265.242 -3.12769 0.319876 0
M  V30 2792 N 269.014 -1.53014 -0.377408 0
M  V30 2793 C 269.977 -1.77957 -1.44444 0
M  V30 2794 C 270.977 -0.649763 -1.47087 0
M  V30 2795 O 272.167 -0.917897 -1.48055 0
M  V30 2796 C 269.299 -1.89089 -2.83651 0
M  V30 2797 H 270.492 -2.73243 -1.23606 0
M  V30 2798 H 268.045 -1.43912 -0.609844 0
M  V30 2799 H 268.78 -0.958293 -3.09818 0
M  V30 2800 H 268.565 -2.71254 -2.83132 0
M  V30 2801 H 270.055 -2.1002 -3.60945 0
M  V30 2802 N 270.492 0.636531 -1.44174 0
M  V30 2803 C 271.717 1.42847 -1.50364 0
M  V30 2804 C 272.142 1.87665 -0.127867 0
M  V30 2805 O 271.5 1.58408 0.88185 0
M  V30 2806 C 271.548 2.62854 -2.4686 0
M  V30 2807 O 270.652 3.62501 -1.9664 0
M  V30 2808 H 269.993 0.427642 -0.507955 0
M  V30 2809 H 272.523 0.777422 -1.89255 0
M  V30 2810 H 272.533 3.10465 -2.64718 0
M  V30 2811 H 271.208 2.29578 -3.46795 0
M  V30 2812 H 269.785 3.21735 -1.88523 0
M  V30 2813 N 271.97 1.30982 0.876444 0
M  V30 2814 C 272.917 1.18085 1.98304 0
M  V30 2815 C 273.887 0.0682263 1.6596 0
M  V30 2816 O 275.072 0.239937 1.89285 0
M  V30 2817 C 272.212 0.887475 3.33493 0
M  V30 2818 C 271.325 2.08281 3.78475 0
M  V30 2819 C 270.46 1.72678 5.0235 0
M  V30 2820 C 269.499 2.88657 5.39762 0
M  V30 2821 N 268.636 2.53292 6.54819 0
M  V30 2822 H 273.476 2.1275 2.08666 0
M  V30 2823 H 271.013 1.05839 1.02159 0
M  V30 2824 H 272.971 0.697961 4.1132 0
M  V30 2825 H 271.601 -0.022315 3.22792 0
M  V30 2826 H 270.653 2.3833 2.96484 0
M  V30 2827 H 271.965 2.95108 4.02135 0
M  V30 2828 H 271.119 1.50151 5.87826 0
M  V30 2829 H 269.858 0.830327 4.8058 0
M  V30 2830 H 268.863 3.1184 4.52809 0
M  V30 2831 H 270.088 3.79002 5.63502 0
M  V30 2832 H 268.034 1.66163 6.34607 0
M  V30 2833 H 267.951 3.3365 6.7839 0
M  V30 2834 H 269.219 2.34143 7.43503 0
M  V30 2835 N 273.449 -1.08991 1.13837 0
M  V30 2836 C 274.696 -1.81258 0.902882 0
M  V30 2837 C 275.024 -1.85936 -0.570803 0
M  V30 2838 O 274.279 -1.3267 -1.43865 0
M  V30 2839 C 274.578 -3.27042 1.44147 0
M  V30 2840 C 274.244 -3.4249 2.93276 0
M  V30 2841 C 272.906 -3.46414 3.33992 0
M  V30 2842 C 275.258 -3.4666 3.892 0
M  V30 2843 C 272.586 -3.52091 4.69307 0
M  V30 2844 C 274.938 -3.53872 5.24364 0
M  V30 2845 C 273.602 -3.56066 5.646 0
M  V30 2846 H 272.872 -0.663268 0.330388 0
M  V30 2847 H 275.519 -1.28368 1.42105 0
M  V30 2848 H 273.824 -3.82599 0.844097 0
M  V30 2849 H 275.521 -3.81499 1.23528 0
M  V30 2850 H 272.111 -3.40124 2.60794 0
M  V30 2851 H 276.295 -3.42865 3.58828 0
M  V30 2852 H 271.551 -3.52079 4.9985 0
M  V30 2853 H 275.725 -3.56043 5.98503 0
M  V30 2854 H 273.352 -3.60218 6.69438 0
M  V30 2855 N 274.927 -0.932562 -1.27047 0
M  V30 2856 C 275.877 -0.406392 -2.24349 0
M  V30 2857 C 276.861 0.492066 -1.53191 0
M  V30 2858 O 278.053 0.328717 -1.73921 0
M  V30 2859 C 275.182 0.335214 -3.41659 0
M  V30 2860 C 274.268 -0.58004 -4.20115 0
M  V30 2861 N 274.659 -1.70203 -4.76303 0
M  V30 2862 C 272.957 -0.383974 -4.44344 0
M  V30 2863 C 273.658 -2.27167 -5.35509 0
M  V30 2864 N 272.634 -1.56068 -5.20715 0
M  V30 2865 H 276.436 -1.26299 -2.65378 0
M  V30 2866 H 273.95 -0.787408 -1.42034 0
M  V30 2867 H 275.947 0.729142 -4.10474 0
M  V30 2868 H 274.607 1.18868 -3.0216 0
M  V30 2869 H 275.618 -2.08433 -4.74106 0
M  V30 2870 H 272.295 0.428436 -4.15296 0
M  V30 2871 H 273.685 -3.21654 -5.89905 0
M  V30 2872 N 276.405 1.4127 -0.698611 0
M  V30 2873 C 277.337 2.292 0.00399731 0
M  V30 2874 C 278.35 1.44944 0.741279 0
M  V30 2875 O 279.539 1.68416 0.591477 0
M  V30 2876 C 276.639 3.22875 1.02979 0
M  V30 2877 C 275.812 4.35904 0.36151 0
M  V30 2878 C 274.871 5.10134 1.29033 0
M  V30 2879 O 273.897 5.63809 0.781562 0
M  V30 2880 N 275.099 5.17885 2.6225 0
M  V30 2881 H 277.864 2.9014 -0.750921 0
M  V30 2882 H 275.425 1.52455 -0.544882 0
M  V30 2883 H 277.417 3.69404 1.65296 0
M  V30 2884 H 275.987 2.63221 1.68622 0
M  V30 2885 H 275.207 3.91719 -0.441584 0
M  V30 2886 H 276.495 5.08696 -0.103055 0
M  V30 2887 H 275.893 4.7573 3.061 0
M  V30 2888 H 274.45 5.6798 3.19754 0
M  V30 2889 N 277.883 0.443576 1.51229 0
M  V30 2890 C 279.131 -0.120557 2.0174 0
M  V30 2891 C 279.452 -1.42665 1.32935 0
M  V30 2892 O 278.722 -1.9028 0.465866 0
M  V30 2893 H 277.302 -0.0475426 0.745486 0
M  V30 2894 H 279.964 0.587711 1.85828 0
M  V30 2895 H 279.06 -0.291972 3.10731 0
M  V30 2896 N 279.361 -1.56624 0.175154 0
M  V30 2897 C 280.324 -2.16934 -0.739738 0
M  V30 2898 C 281.324 -1.11842 -1.15533 0
M  V30 2899 O 282.514 -1.37335 -1.07167 0
M  V30 2900 C 279.646 -2.75531 -2.00738 0
M  V30 2901 H 280.839 -2.99131 -0.214639 0
M  V30 2902 H 278.392 -1.56123 -0.0744197 0
M  V30 2903 H 279.127 -1.97078 -2.57548 0
M  V30 2904 H 278.912 -3.52444 -1.71831 0
M  V30 2905 H 280.402 -3.21904 -2.66021 0
M  V30 2906 N 280.839 0.0985539 -1.57292 0
M  V30 2907 C 281.769 1.12064 -2.04851 0
M  V30 2908 C 282.75 1.41981 -0.936767 0
M  V30 2909 O 283.935 1.52071 -1.20781 0
M  V30 2910 C 281.065 2.44144 -2.47004 0
M  V30 2911 C 280.019 2.28643 -3.6181 0
M  V30 2912 C 279.345 3.65869 -3.89929 0
M  V30 2913 C 280.645 1.72986 -4.92822 0
M  V30 2914 H 282.339 0.724979 -2.9049 0
M  V30 2915 H 279.885 0.34729 -1.39749 0
M  V30 2916 H 281.838 3.15914 -2.78884 0
M  V30 2917 H 280.562 2.85639 -1.5836 0
M  V30 2918 H 279.221 1.59318 -3.30172 0
M  V30 2919 H 278.869 4.04885 -2.98458 0
M  V30 2920 H 278.569 3.56344 -4.67218 0
M  V30 2921 H 280.093 4.39112 -4.2428 0
M  V30 2922 H 281.507 2.34593 -5.23105 0
M  V30 2923 H 279.904 1.74229 -5.74251 0
M  V30 2924 H 280.974 0.689007 -4.7998 0
M  V30 2925 N 282.317 1.53212 0.369288 0
M  V30 2926 C 283.565 1.68881 1.11012 0
M  V30 2927 C 283.886 0.441285 1.89941 0
M  V30 2928 O 283.156 -0.544623 1.88177 0
M  V30 2929 H 281.736 0.622569 0.412816 0
M  V30 2930 H 284.398 1.90391 0.416802 0
M  V30 2931 H 283.494 2.54822 1.80201 0
M  V30 2932 N 283.795 -0.628877 1.44509 0
M  V30 2933 C 285.041 -1.39045 1.47629 0
M  V30 2934 C 285.374 -1.93892 0.109343 0
M  V30 2935 O 284.649 -1.7379 -0.87334 0
M  V30 2936 C 284.932 -2.55408 2.53848 0
M  V30 2937 C 284.785 -2.05896 3.99909 0
M  V30 2938 C 286.104 -3.5759 2.56549 0
M  V30 2939 H 283.223 -0.504232 0.537512 0
M  V30 2940 H 285.865 -0.710854 1.76201 0
M  V30 2941 H 284.015 -3.13384 2.29615 0
M  V30 2942 H 285.687 -1.52734 4.35282 0
M  V30 2943 H 283.93 -1.37061 4.11578 0
M  V30 2944 H 284.601 -2.89681 4.69882 0
M  V30 2945 H 287.077 -3.09419 2.78207 0
M  V30 2946 H 285.953 -4.36527 3.32769 0
M  V30 2947 H 286.214 -4.11808 1.60832 0
M  V30 2948 N 285.273 -1.31445 -0.869486 0
M  V30 2949 C 286.52 -1.21158 -1.62256 0
M  V30 2950 C 286.848 0.230155 -1.93133 0
M  V30 2951 O 286.103 1.17906 -1.56194 0
M  V30 2952 C 286.402 -2.00145 -2.96102 0
M  V30 2953 C 286.068 -3.4964 -2.84715 0
M  V30 2954 C 284.73 -3.90403 -2.81317 0
M  V30 2955 C 287.082 -4.44769 -2.71716 0
M  V30 2956 C 284.41 -5.24561 -2.62778 0
M  V30 2957 C 286.762 -5.79054 -2.54714 0
M  V30 2958 C 285.426 -6.19037 -2.49699 0
M  V30 2959 H 284.696 -0.443348 -0.593737 0
M  V30 2960 H 287.343 -1.62715 -1.00976 0
M  V30 2961 H 285.648 -1.5127 -3.6142 0
M  V30 2962 H 287.345 -1.89566 -3.53363 0
M  V30 2963 H 283.935 -3.17256 -2.88178 0
M  V30 2964 H 288.119 -4.14208 -2.73397 0
M  V30 2965 H 283.375 -5.54613 -2.57321 0
M  V30 2966 H 287.549 -6.52393 -2.43632 0
M  V30 2967 H 285.176 -7.22935 -2.35093 0
M  V30 2968 N 286.751 1.08385 -1.14413 0
M  V30 2969 C 287.714 2.13486 -0.834048 0
M  V30 2970 C 288.714 1.59988 0.161418 0
M  V30 2971 O 289.904 1.74071 -0.0669575 0
M  V30 2972 C 287.036 3.4003 -0.243354 0
M  V30 2973 H 288.229 2.42425 -1.7655 0
M  V30 2974 H 285.782 1.24101 -0.950189 0
M  V30 2975 H 286.517 3.16726 0.696807 0
M  V30 2976 H 286.302 3.80157 -0.960367 0
M  V30 2977 H 287.792 4.17577 -0.0436242 0
M  V30 2978 N 288.23 0.939286 1.26551 0
M  V30 2979 C 289.476 0.586715 1.94128 0
M  V30 2980 C 289.809 -0.8717 1.73537 0
M  V30 2981 O 289.084 -1.62339 1.07127 0
M  V30 2982 C 289.367 0.927497 3.4795 0
M  V30 2983 C 289.22 2.44052 3.77834 0
M  V30 2984 C 290.539 0.441569 4.37879 0
M  V30 2985 H 287.658 0.21463 0.705055 0
M  V30 2986 H 290.3 1.17316 1.49455 0
M  V30 2987 H 288.45 0.428431 3.8613 0
M  V30 2988 H 290.122 3.01216 3.4938 0
M  V30 2989 H 288.365 2.8848 3.23978 0
M  V30 2990 H 289.036 2.62947 4.85348 0
M  V30 2991 H 291.512 0.869448 4.06915 0
M  V30 2992 H 290.388 0.708856 5.44304 0
M  V30 2993 H 290.649 -0.658467 4.37169 0
M  V30 2994 N 289.708 -1.40897 0.706093 0
M  V30 2995 C 291.119 -1.84023 0.315052 0
M  V30 2996 C 291.47 -1.5906 -1.14866 0
M  V30 2997 O 290.595 -1.06651 -1.88293 0
M  V30 2998 C 291.19 -3.34055 0.565038 0
M  V30 2999 C 289.749 -3.7571 0.227806 0
M  V30 3000 C 288.896 -2.64204 0.842122 0
M  V30 3001 H 291.847 -1.303 0.905963 0
M  V30 3002 H 291.868 -3.80107 -0.172843 0
M  V30 3003 H 291.38 -3.52192 1.63042 0
M  V30 3004 H 289.481 -3.63172 -0.832895 0
M  V30 3005 H 289.594 -4.74103 0.690174 0
M  V30 3006 H 287.958 -2.53255 0.270893 0
M  V30 3007 H 288.741 -2.85155 1.91158 0
M  V30 3008 N 291.186 -0.45159 -1.50991 0
M  V30 3009 C 292.096 0.358431 -2.31846 0
M  V30 3010 C 293.112 1.01438 -1.41373 0
M  V30 3011 O 294.288 1.00663 -1.74439 0
M  V30 3012 C 291.353 1.43704 -3.15515 0
M  V30 3013 C 290.414 0.799742 -4.21785 0
M  V30 3014 C 289.647 1.82696 -5.01456 0
M  V30 3015 O 289.87 3.05105 -4.81941 0
M  V30 3016 O 288.804 1.40958 -5.85162 0
M  V30 3017 H 292.63 -0.302032 -3.02194 0
M  V30 3018 H 290.215 -0.213825 -1.47862 0
M  V30 3019 H 292.097 2.06227 -3.67489 0
M  V30 3020 H 290.772 2.08133 -2.47916 0
M  V30 3021 H 289.679 0.136084 -3.73852 0
M  V30 3022 H 291.012 0.198718 -4.91799 0
M  V30 3023 N 292.664 1.56529 -0.183458 0
M  V30 3024 C 293.597 2.14417 0.781052 0
M  V30 3025 C 294.575 1.07761 1.21763 0
M  V30 3026 O 295.759 1.35807 1.30724 0
M  V30 3027 C 292.886 2.69361 2.05335 0
M  V30 3028 C 291.932 3.885 1.75982 0
M  V30 3029 S 292.765 5.27568 0.918256 0
M  V30 3030 C 293.921 5.85926 2.20095 0
M  V30 3031 H 294.154 2.95893 0.2889 0
M  V30 3032 H 291.687 1.54368 0.0313844 0
M  V30 3033 H 293.645 3.01662 2.78406 0
M  V30 3034 H 292.306 1.87949 2.51663 0
M  V30 3035 H 291.499 4.25314 2.70415 0
M  V30 3036 H 291.101 3.57149 1.10999 0
M  V30 3037 H 293.393 5.99579 3.15453 0
M  V30 3038 H 294.336 6.82761 1.87731 0
M  V30 3039 H 294.744 5.14438 2.32409 0
M  V30 3040 N 294.142 -0.090211 1.57342 0
M  V30 3041 C 295.382 -0.798365 1.88163 0
M  V30 3042 C 295.746 -1.75662 0.775046 0
M  V30 3043 O 296.947 -2.50849 0.965816 0
M  V30 3044 C 295.218 -1.50376 3.24225 0
M  V30 3045 S 296.777 -2.24952 3.76752 0
M  V30 3046 H 293.595 -0.265883 0.659414 0
M  V30 3047 H 296.197 -0.055264 1.95422 0
M  V30 3048 H 294.901 -0.792286 4.0268 0
M  V30 3049 H 294.432 -2.28666 3.20118 0
M  V30 3050 H 296.447 -3.51173 3.5056 0
M  V30 3051 N 295.62 -1.53406 -0.361157 0
M  V30 3052 C 296.55 -1.83136 -1.44857 0
M  V30 3053 C 297.531 -0.685174 -1.5569 0
M  V30 3054 O 298.716 -0.93544 -1.70186 0
M  V30 3055 C 295.846 -2.02522 -2.82138 0
M  V30 3056 C 294.8 -3.18302 -2.86126 0
M  V30 3057 C 294.126 -3.22989 -4.26125 0
M  V30 3058 C 295.426 -4.56796 -2.53248 0
M  V30 3059 H 297.12 -2.74201 -1.20226 0
M  V30 3060 H 294.666 -1.31938 -0.576922 0
M  V30 3061 H 296.619 -2.21904 -3.58241 0
M  V30 3062 H 295.343 -1.08172 -3.08166 0
M  V30 3063 H 294.002 -2.98747 -2.12475 0
M  V30 3064 H 293.65 -2.26267 -4.49235 0
M  V30 3065 H 293.35 -4.00781 -4.29708 0
M  V30 3066 H 294.874 -3.44559 -5.04094 0
M  V30 3067 H 296.288 -4.7631 -3.19064 0
M  V30 3068 H 294.685 -5.36862 -2.68141 0
M  V30 3069 H 295.755 -4.61606 -1.48484 0
M  V30 3070 N 297.098 0.621204 -1.44841 0
M  V30 3071 C 298.061 1.71459 -1.521 0
M  V30 3072 C 299.061 1.55696 -0.401933 0
M  V30 3073 O 300.251 1.61011 -0.664925 0
M  V30 3074 C 297.383 3.10624 -1.40447 0
M  V30 3075 H 298.576 1.66394 -2.49506 0
M  V30 3076 H 296.129 0.835745 -1.3208 0
M  V30 3077 H 296.864 3.21277 -0.441737 0
M  V30 3078 H 296.649 3.23473 -2.21602 0
M  V30 3079 H 298.139 3.90293 -1.4853 0
M  V30 3080 N 298.576 1.31904 0.862503 0
M  V30 3081 C 299.824 1.21776 1.61292 0
M  V30 3082 C 300.145 -0.222413 1.93727 0
M  V30 3083 O 299.415 -1.1451 1.58947 0
M  V30 3084 H 297.995 0.447717 0.597962 0
M  V30 3085 H 300.657 1.65326 1.03215 0
M  V30 3086 H 299.753 1.7948 2.5533 0
M  V30 3087 N 300.054 -1.07777 1.14986 0
M  V30 3088 C 301.331 -1.7699 0.832695 0
M  V30 3089 C 301.711 -2.001 -0.672561 0
M  V30 3090 O 301.059 -1.61598 -1.6155 0
M  V30 3091 C 301.269 -3.08139 1.63863 0
M  V30 3092 C 302.617 -3.8256 1.84208 0
M  V30 3093 O 303.641 -3.17939 1.60603 0
M  V30 3094 O 302.5 -4.98612 2.23714 0
M  V30 3095 H 299.594 -0.768389 0.305791 0
M  V30 3096 H 302.14 -1.14182 1.25541 0
M  V30 3097 H 300.912 -2.86909 2.6608 0
M  V30 3098 H 300.535 -3.78678 1.21197 0
M  V30 3099 N 301.532 -0.945985 -1.26051 0
M  V30 3100 C 302.757 -0.612525 -1.98149 0
M  V30 3101 C 303.182 0.806623 -1.69927 0
M  V30 3102 O 302.54 1.54411 -0.950108 0
M  V30 3103 C 302.588 -0.866981 -3.50023 0
M  V30 3104 O 301.692 0.0585333 -4.12358 0
M  V30 3105 H 301.033 -0.23379 -0.621481 0
M  V30 3106 H 303.563 -1.27023 -1.60395 0
M  V30 3107 H 303.573 -0.789792 -4.00283 0
M  V30 3108 H 302.248 -1.90135 -3.69894 0
M  V30 3109 H 300.825 -0.0701241 -3.72834 0
M  V30 3110 N 303.011 1.40521 -0.713556 0
M  V30 3111 C 304.239 2.05237 -0.261775 0
M  V30 3112 C 304.654 1.53755 1.09567 0
M  V30 3113 O 304.011 0.693268 1.6882 0
M  V30 3114 C 304.062 3.60763 -0.230706 0
M  V30 3115 O 303.783 4.10345 -1.53455 0
M  V30 3116 C 305.284 4.42651 0.239874 0
M  V30 3117 H 302.504 0.660533 -0.118057 0
M  V30 3118 H 305.048 1.79967 -0.971192 0
M  V30 3119 H 303.203 3.8501 0.429661 0
M  V30 3120 H 303.617 5.04526 -1.43366 0
M  V30 3121 H 305.091 5.51599 0.210468 0
M  V30 3122 H 305.568 4.20082 1.28171 0
M  V30 3123 H 306.174 4.23507 -0.390142 0
M  V30 3124 N 304.489 0.459591 1.5075 0
M  V30 3125 C 305.717 -0.0973749 2.06671 0
M  V30 3126 C 306.132 -1.34524 1.32472 0
M  V30 3127 O 305.489 -1.7827 0.390634 0
M  V30 3128 C 305.54 -0.39714 3.59312 0
M  V30 3129 O 305.261 0.801214 4.30711 0
M  V30 3130 C 306.762 -1.00234 4.31819 0
M  V30 3131 H 303.982 0.00195854 0.670997 0
M  V30 3132 H 306.526 0.645072 1.94059 0
M  V30 3133 H 304.681 -1.08951 3.71764 0
M  V30 3134 H 305.095 0.538857 5.21725 0
M  V30 3135 H 306.569 -1.16193 5.39632 0
M  V30 3136 H 307.046 -1.98939 3.91561 0
M  V30 3137 H 307.652 -0.348699 4.23868 0
M  V30 3138 N 305.967 -1.56429 0.191757 0
M  V30 3139 C 306.917 -2.15548 -0.743184 0
M  V30 3140 C 307.901 -1.09531 -1.17863 0
M  V30 3141 O 309.093 -1.35602 -1.13759 0
M  V30 3142 C 306.222 -2.81577 -1.96391 0
M  V30 3143 C 305.308 -3.9478 -1.54951 0
M  V30 3144 N 305.699 -4.98677 -0.845876 0
M  V30 3145 C 303.997 -4.06319 -1.83905 0
M  V30 3146 C 304.698 -5.78183 -0.638724 0
M  V30 3147 N 303.674 -5.30495 -1.18643 0
M  V30 3148 H 307.476 -2.9324 -0.196839 0
M  V30 3149 H 304.99 -1.62398 -0.0081603 0
M  V30 3150 H 306.987 -3.22321 -2.64415 0
M  V30 3151 H 305.647 -2.05371 -2.51501 0
M  V30 3152 H 306.658 -5.15464 -0.501704 0
M  V30 3153 H 303.335 -3.41238 -2.40548 0
M  V30 3154 H 304.725 -6.71851 -0.0807929 0
M  V30 3155 N 307.445 0.0818655 -1.57387 0
M  V30 3156 C 308.378 1.12986 -1.98266 0
M  V30 3157 C 309.356 1.38123 -0.857954 0
M  V30 3158 O 310.54 1.51663 -1.1194 0
M  V30 3159 C 307.667 2.47632 -2.31076 0
M  V30 3160 C 306.713 2.38693 -3.53452 0
M  V30 3161 S 307.546 1.79071 -5.04672 0
M  V30 3162 C 308.702 3.15316 -5.40673 0
M  V30 3163 H 308.935 0.781435 -2.86846 0
M  V30 3164 H 306.468 0.290034 -1.51651 0
M  V30 3165 H 308.426 3.25089 -2.50654 0
M  V30 3166 H 307.087 2.79638 -1.43043 0
M  V30 3167 H 306.28 3.37964 -3.73893 0
M  V30 3168 H 305.882 1.69369 -3.33452 0
M  V30 3169 H 308.174 4.11613 -5.38127 0
M  V30 3170 H 309.117 2.99664 -6.41566 0
M  V30 3171 H 309.525 3.15457 -4.68132 0
M  V30 3172 N 308.923 1.53595 0.353017 0
M  V30 3173 C 310.17 1.70385 1.09431 0
M  V30 3174 C 310.498 0.462113 1.88931 0
M  V30 3175 O 309.753 -0.556074 1.87633 0
M  V30 3176 C 310.052 2.91313 2.07054 0
M  V30 3177 C 309.718 4.27308 1.43939 0
M  V30 3178 C 308.38 4.64287 1.26454 0
M  V30 3179 C 310.732 5.11829 0.983883 0
M  V30 3180 C 308.06 5.83412 0.620226 0
M  V30 3181 C 310.412 6.31611 0.353516 0
M  V30 3182 C 309.076 6.67293 0.166272 0
M  V30 3183 H 308.346 0.623484 0.400436 0
M  V30 3184 H 310.993 1.87799 0.374655 0
M  V30 3185 H 309.298 2.68463 2.85368 0
M  V30 3186 H 310.995 3.01497 2.64387 0
M  V30 3187 H 307.585 3.98198 1.58543 0
M  V30 3188 H 311.769 4.838 1.10685 0
M  V30 3189 H 307.025 6.09639 0.463681 0
M  V30 3190 H 311.199 6.964 -0.00757555 0
M  V30 3191 H 308.826 7.59461 -0.335047 0
M  V30 3192 N 310.401 -0.613514 1.45168 0
M  V30 3193 C 311.629 -1.39946 1.5239 0
M  V30 3194 C 312.044 -1.88167 0.154531 0
M  V30 3195 O 311.401 -1.61872 -0.842843 0
M  V30 3196 C 311.452 -2.60795 2.50337 0
M  V30 3197 O 311.173 -2.1458 3.81952 0
M  V30 3198 C 312.674 -3.53723 2.67198 0
M  V30 3199 H 309.894 -0.428593 0.516284 0
M  V30 3200 H 312.438 -0.748753 1.903 0
M  V30 3201 H 310.593 -3.21919 2.15515 0
M  V30 3202 H 311.007 -2.93055 4.34993 0
M  V30 3203 H 312.481 -4.35079 3.39721 0
M  V30 3204 H 312.958 -4.0368 1.73029 0
M  V30 3205 H 313.564 -2.98456 3.02992 0
M  V30 3206 N 311.879 -1.3236 -0.855495 0
M  V30 3207 C 312.826 -1.21225 -1.964 0
M  V30 3208 C 313.796 -0.0946204 -1.6583 0
M  V30 3209 O 314.981 -0.27002 -1.8888 0
M  V30 3210 C 312.121 -0.940419 -3.32039 0
M  V30 3211 C 311.234 -2.14276 -3.75113 0
M  V30 3212 C 310.369 -1.80648 -4.9954 0
M  V30 3213 C 309.408 -2.97208 -5.35102 0
M  V30 3214 N 308.545 -2.63678 -6.50706 0
M  V30 3215 H 313.385 -2.16042 -2.05255 0
M  V30 3216 H 310.922 -1.07451 -1.00463 0
M  V30 3217 H 312.88 -0.763311 -4.10158 0
M  V30 3218 H 311.51 -0.0290413 -3.22787 0
M  V30 3219 H 310.562 -2.43017 -2.92655 0
M  V30 3220 H 311.874 -3.01468 -3.97389 0
M  V30 3221 H 311.028 -1.59484 -5.85363 0
M  V30 3222 H 309.767 -0.906678 -4.79198 0
M  V30 3223 H 308.772 -3.19004 -4.47791 0
M  V30 3224 H 309.997 -3.87918 -5.57401 0
M  V30 3225 H 307.943 -1.76238 -6.31883 0
M  V30 3226 H 307.86 -3.444 -6.72997 0
M  V30 3227 H 309.128 -2.45942 -7.39684 0
M  V30 3228 N 313.357 1.07166 -1.15556 0
M  V30 3229 C 314.587 1.83248 -0.954133 0
M  V30 3230 C 314.995 1.82449 0.500911 0
M  V30 3231 O 314.338 1.23575 1.35923 0
M  V30 3232 C 314.4 3.31393 -1.39351 0
M  V30 3233 C 314.064 3.5591 -2.86666 0
M  V30 3234 C 315.061 3.49695 -3.8472 0
M  V30 3235 C 312.746 3.83515 -3.24379 0
M  V30 3236 C 314.74 3.70737 -5.18491 0
M  V30 3237 C 312.427 4.04209 -4.58321 0
M  V30 3238 C 313.425 3.97815 -5.55186 0
M  V30 3239 O 313.113 4.17954 -6.86709 0
M  V30 3240 H 312.845 0.584941 -0.338851 0
M  V30 3241 H 315.399 1.36169 -1.53777 0
M  V30 3242 H 313.629 3.79292 -0.75329 0
M  V30 3243 H 315.318 3.88945 -1.16089 0
M  V30 3244 H 316.084 3.28368 -3.56931 0
M  V30 3245 H 311.963 3.87605 -2.49567 0
M  V30 3246 H 315.507 3.65663 -5.94085 0
M  V30 3247 H 311.404 4.25023 -4.85825 0
M  V30 3248 H 312.172 4.35291 -6.93155 0
M  V30 3249 N 314.835 0.952656 1.25548 0
M  V30 3250 C 315.745 0.47782 2.29682 0
M  V30 3251 C 316.761 -0.453859 1.67977 0
M  V30 3252 O 317.937 -0.330587 1.98668 0
M  V30 3253 C 315.002 -0.238655 3.45878 0
M  V30 3254 C 314.063 0.730994 4.23031 0
M  V30 3255 C 313.296 0.0486165 5.33678 0
M  V30 3256 O 313.519 -1.16612 5.58353 0
M  V30 3257 O 312.453 0.733152 5.97418 0
M  V30 3258 H 316.279 1.34312 2.72386 0
M  V30 3259 H 313.864 0.719026 1.30959 0
M  V30 3260 H 315.746 -0.641774 4.16484 0
M  V30 3261 H 314.421 -1.07916 3.05181 0
M  V30 3262 H 313.328 1.18428 3.5486 0
M  V30 3263 H 314.661 1.53946 4.67506 0
M  V30 3264 N 316.313 -1.40141 0.720998 0
M  V30 3265 C 317.261 -2.3252 0.0608547 0
M  V30 3266 C 318.255 -1.52326 -0.741152 0
M  V30 3267 O 319.461 -1.68089 -0.643911 0
M  V30 3268 H 315.836 -0.751999 0.000876664 0
M  V30 3269 H 317.807 -2.8584 0.856614 0
M  V30 3270 C 316.556 -3.37331 -0.842809 0
M  V30 3271 H 315.879 -3.99108 -0.235084 0
M  V30 3272 H 317.319 -4.04452 -1.27257 0
M  V30 3273 C 315.778 -2.73246 -1.97074 0
M  V30 3274 O 316.308 -2.59998 -3.06209 0
M  V30 3275 N 314.514 -2.31547 -1.75597 0
M  V30 3276 H 314.061 -2.42522 -0.868368 0
M  V30 3277 H 314.019 -1.89007 -2.51244 0
M  V30 3278 N 317.792 -0.46758 -1.50504 0
M  V30 3279 C 318.755 0.317059 -2.26996 0
M  V30 3280 C 319.755 0.923513 -1.31635 0
M  V30 3281 O 320.945 0.793239 -1.55091 0
M  V30 3282 C 318.077 1.45134 -3.08462 0
M  V30 3283 H 319.27 -0.353723 -2.97807 0
M  V30 3284 H 316.823 -0.221545 -1.54722 0
M  V30 3285 H 317.558 2.15728 -2.4214 0
M  V30 3286 H 317.343 1.02232 -3.78538 0
M  V30 3287 H 318.833 2.00493 -3.66323 0
M  V30 3288 N 319.27 1.56325 -0.20005 0
M  V30 3289 C 320.218 2.20666 0.735482 0
M  V30 3290 C 321.212 1.17934 1.21605 0
M  V30 3291 O 322.418 1.36068 1.17837 0
M  V30 3292 H 318.793 0.70725 0.255542 0
M  V30 3293 H 320.764 2.9792 0.169166 0
M  V30 3294 C 319.513 2.88391 1.94232 0
M  V30 3295 H 318.836 3.67185 1.58161 0
M  V30 3296 H 320.276 3.3684 2.57517 0
M  V30 3297 C 318.735 1.89692 2.78421 0
M  V30 3298 O 319.265 1.40032 3.76502 0
M  V30 3299 N 317.471 1.57813 2.44015 0
M  V30 3300 H 317.018 1.9839 1.64314 0
M  V30 3301 H 316.976 0.920325 3.00628 0
M  V30 3302 N 320.748 -0.0735177 1.57428 0
M  V30 3303 C 322.159 -0.625551 1.75908 0
M  V30 3304 C 322.51 -1.78 0.825261 0
M  V30 3305 O 321.635 -2.16398 0.00893964 0
M  V30 3306 C 322.23 -1.14155 3.18989 0
M  V30 3307 C 320.789 -1.63946 3.38819 0
M  V30 3308 C 319.936 -0.558151 2.71625 0
M  V30 3309 H 322.887 0.152647 1.57964 0
M  V30 3310 H 322.908 -2.0104 3.23053 0
M  V30 3311 H 322.42 -0.301116 3.8693 0
M  V30 3312 H 320.521 -2.50321 2.7599 0
M  V30 3313 H 320.634 -1.71759 4.47253 0
M  V30 3314 H 318.998 -1.00278 2.34129 0
M  V30 3315 H 319.781 0.272071 3.4222 0
M  V30 3316 N 322.226 -1.5378 -0.344866 0
M  V30 3317 C 323.474 -1.70625 -1.08311 0
M  V30 3318 C 323.795 -0.471447 -1.89215 0
M  V30 3319 O 323.065 0.514616 -1.8902 0
M  V30 3320 H 321.645 -0.629058 -0.402859 0
M  V30 3321 H 324.307 -1.9103 -0.386459 0
M  V30 3322 H 323.403 -2.57656 -1.76124 0
M  V30 3323 N 323.704 0.605807 -1.45491 0
M  V30 3324 C 324.614 1.74466 -1.56839 0
M  V30 3325 C 325.63 1.68006 -0.452772 0
M  V30 3326 O 326.806 1.8833 -0.713708 0
M  V30 3327 C 323.871 3.10931 -1.53371 0
M  V30 3328 C 322.932 3.28832 -2.75986 0
M  V30 3329 C 322.165 4.58787 -2.72673 0
M  V30 3330 O 322.388 5.4122 -1.80102 0
M  V30 3331 O 321.322 4.79438 -3.63899 0
M  V30 3332 H 325.148 1.67843 -2.53106 0
M  V30 3333 H 322.733 0.770108 -1.28022 0
M  V30 3334 H 324.615 3.92233 -1.54051 0
M  V30 3335 H 323.29 3.18042 -0.602572 0
M  V30 3336 H 322.197 2.47112 -2.80867 0
M  V30 3337 H 323.53 3.26599 -3.68231 0
M  V30 3338 N 325.182 1.32811 0.848464 0
M  V30 3339 C 326.129 1.22265 1.95755 0
M  V30 3340 C 327.099 0.103413 1.65778 0
M  V30 3341 O 328.284 0.280033 1.88734 0
M  V30 3342 C 325.424 0.958014 3.31536 0
M  V30 3343 C 324.537 2.16262 3.73971 0
M  V30 3344 C 323.672 1.83295 4.98575 0
M  V30 3345 C 322.711 3.00041 5.33518 0
M  V30 3346 N 321.848 2.67125 6.49299 0
M  V30 3347 H 326.688 2.17128 2.04107 0
M  V30 3348 H 324.225 1.07982 0.998913 0
M  V30 3349 H 326.183 0.785052 4.09747 0
M  V30 3350 H 324.813 0.046159 3.22767 0
M  V30 3351 H 323.865 2.44565 2.91362 0
M  V30 3352 H 325.177 3.03572 3.95785 0
M  V30 3353 H 324.331 1.62586 5.84509 0
M  V30 3354 H 323.07 0.932078 4.7871 0
M  V30 3355 H 322.075 3.21374 4.46093 0
M  V30 3356 H 323.3 3.90869 5.55336 0
M  V30 3357 H 321.246 1.79586 6.3094 0
M  V30 3358 H 321.163 3.47965 6.71161 0
M  V30 3359 H 322.431 2.49861 7.3837 0
M  V30 3360 N 326.66 -1.06551 1.16123 0
M  V30 3361 C 327.908 -1.78947 0.939267 0
M  V30 3362 C 328.229 -1.87532 -0.534476 0
M  V30 3363 O 327.499 -1.38211 -1.38833 0
M  V30 3364 H 326.079 -0.662807 0.344523 0
M  V30 3365 H 328.741 -1.28725 1.46342 0
M  V30 3366 H 327.837 -2.81117 1.35572 0
M  V30 3367 N 328.138 -0.959301 -1.25041 0
M  V30 3368 C 329.386 -0.615393 -1.92503 0
M  V30 3369 C 329.707 0.850969 -1.75452 0
M  V30 3370 O 328.977 1.60658 -1.12098 0
M  V30 3371 H 327.557 -0.224613 -0.712431 0
M  V30 3372 H 330.219 -1.21855 -1.5211 0
M  V30 3373 H 329.315 -0.848738 -3.00338 0
M  V30 3374 N 329.616 1.39756 -0.72842 0
M  V30 3375 C 330.526 2.34444 -0.0855374 0
M  V30 3376 C 331.542 1.57976 0.729356 0
M  V30 3377 O 332.718 1.90301 0.659346 0
M  V30 3378 C 329.783 3.36965 0.815798 0
M  V30 3379 C 328.844 4.29299 -0.0105996 0
M  V30 3380 C 328.077 5.26923 0.84781 0
M  V30 3381 O 328.3 5.30859 2.08673 0
M  V30 3382 O 327.234 6.01249 0.279969 0
M  V30 3383 H 331.06 2.91065 -0.866892 0
M  V30 3384 H 328.645 1.4117 -0.48902 0
M  V30 3385 H 330.527 3.99804 1.33171 0
M  V30 3386 H 329.202 2.82739 1.57608 0
M  V30 3387 H 328.109 3.69703 -0.571877 0
M  V30 3388 H 329.442 4.86712 -0.73295 0
M  V30 3389 N 331.094 0.475555 1.50254 0
M  V30 3390 C 332.341 -0.0778919 2.0235 0
M  V30 3391 C 332.669 -1.39319 1.35722 0
M  V30 3392 O 331.924 -1.89888 0.473395 0
M  V30 3393 C 332.223 -0.305114 3.56095 0
M  V30 3394 C 331.889 0.92903 4.41225 0
M  V30 3395 C 330.551 1.26739 4.6421 0
M  V30 3396 C 332.903 1.75054 4.90923 0
M  V30 3397 C 330.231 2.42724 5.34137 0
M  V30 3398 C 332.583 2.9017 5.62125 0
M  V30 3399 C 331.247 3.24416 5.83362 0
M  V30 3400 H 330.517 -0.0285027 0.740452 0
M  V30 3401 H 333.164 0.630543 1.80821 0
M  V30 3402 H 331.469 -1.09584 3.76163 0
M  V30 3403 H 333.166 -0.747377 3.93974 0
M  V30 3404 H 329.756 0.655428 4.23559 0
M  V30 3405 H 333.94 1.50231 4.73016 0
M  V30 3406 H 329.196 2.69525 5.48786 0
M  V30 3407 H 333.37 3.54169 5.99614 0
M  V30 3408 H 330.997 4.14396 6.37323 0
M  V30 3409 N 332.573 -1.56217 0.208337 0
M  V30 3410 C 333.52 -2.19699 -0.707192 0
M  V30 3411 C 334.49 -1.14836 -1.20008 0
M  V30 3412 O 335.675 -1.4314 -1.26157 0
M  V30 3413 C 332.815 -2.87061 -1.91546 0
M  V30 3414 C 331.928 -4.06483 -1.46271 0
M  V30 3415 C 331.063 -4.61665 -2.62752 0
M  V30 3416 C 330.102 -5.73417 -2.14147 0
M  V30 3417 N 329.239 -6.22948 -3.23853 0
M  V30 3418 H 334.079 -2.97575 -0.159111 0
M  V30 3419 H 331.616 -1.46948 -0.0667874 0
M  V30 3420 H 333.574 -3.24294 -2.62468 0
M  V30 3421 H 332.204 -2.11725 -2.43664 0
M  V30 3422 H 331.256 -3.74825 -0.648886 0
M  V30 3423 H 332.568 -4.87271 -1.06622 0
M  V30 3424 H 331.722 -5.01272 -3.41776 0
M  V30 3425 H 330.461 -3.80013 -3.05682 0
M  V30 3426 H 329.466 -5.33326 -1.33581 0
M  V30 3427 H 330.691 -6.56897 -1.72232 0
M  V30 3428 H 328.637 -5.44213 -3.6629 0
M  V30 3429 H 328.554 -6.98823 -2.88414 0
M  V30 3430 H 329.822 -6.6721 -4.03052 0
M  V30 3431 N 334.051 0.0651679 -1.57465 0
M  V30 3432 C 335.299 0.761555 -1.87202 0
M  V30 3433 C 335.62 1.77778 -0.801243 0
M  V30 3434 O 334.89 1.95166 0.16937 0
M  V30 3435 H 333.47 0.284251 -0.690804 0
M  V30 3436 H 336.132 0.0396827 -1.9486 0
M  V30 3437 H 335.228 1.27365 -2.84929 0
M  V30 3438 N 335.529 1.53961 0.336706 0
M  V30 3439 C 336.754 1.75797 1.10046 0
M  V30 3440 C 337.179 0.498985 1.81361 0
M  V30 3441 O 336.537 -0.548769 1.72795 0
M  V30 3442 C 336.585 2.94257 2.08436 0
M  V30 3443 O 335.689 2.64883 3.16087 0
M  V30 3444 H 335.03 0.582936 0.317934 0
M  V30 3445 H 337.56 2.00945 0.38501 0
M  V30 3446 H 337.57 3.21237 2.51537 0
M  V30 3447 H 336.245 3.85564 1.55927 0
M  V30 3448 H 334.822 2.48812 2.77753 0
M  V30 3449 N 337.007 -0.598083 1.45811 0
M  V30 3450 C 338.254 -1.35681 1.50323 0
M  V30 3451 C 338.582 -1.9393 0.148739 0
M  V30 3452 O 337.837 -1.76094 -0.853787 0
M  V30 3453 C 338.136 -2.51669 2.53766 0
M  V30 3454 C 337.802 -2.11508 3.98215 0
M  V30 3455 C 336.464 -2.0027 4.37545 0
M  V30 3456 C 338.816 -1.80308 4.89018 0
M  V30 3457 C 336.144 -1.56067 5.65562 0
M  V30 3458 C 338.496 -1.37589 6.17456 0
M  V30 3459 C 337.16 -1.24916 6.55708 0
M  V30 3460 H 336.43 -0.496492 0.550069 0
M  V30 3461 H 339.077 -0.675052 1.79207 0
M  V30 3462 H 337.382 -3.25225 2.18486 0
M  V30 3463 H 339.079 -3.09895 2.54492 0
M  V30 3464 H 335.669 -2.21185 3.67117 0
M  V30 3465 H 339.853 -1.87884 4.59362 0
M  V30 3466 H 335.109 -1.44886 5.93985 0
M  V30 3467 H 339.283 -1.12495 6.87254 0
M  V30 3468 H 336.91 -0.904386 7.54801 0
M  V30 3469 N 338.485 -1.33259 -0.841409 0
M  V30 3470 C 339.713 -1.27605 -1.62864 0
M  V30 3471 C 340.128 0.153507 -1.88175 0
M  V30 3472 O 339.485 1.09485 -1.46011 0
M  V30 3473 C 339.536 -2.04596 -2.98031 0
M  V30 3474 O 339.257 -3.41975 -2.73834 0
M  V30 3475 C 340.758 -2.06122 -3.92465 0
M  V30 3476 H 337.978 -0.439718 -0.506842 0
M  V30 3477 H 340.522 -1.75591 -1.04824 0
M  V30 3478 H 338.677 -1.60299 -3.5268 0
M  V30 3479 H 339.091 -3.81549 -3.59889 0
M  V30 3480 H 340.565 -2.64451 -4.84531 0
M  V30 3481 H 341.042 -1.05083 -4.26444 0
M  V30 3482 H 341.648 -2.50427 -3.43753 0
M  V30 3483 N 339.963 1.05934 -1.16686 0
M  V30 3484 C 340.893 2.1546 -0.899949 0
M  V30 3485 C 341.874 1.69391 0.155154 0
M  V30 3486 O 343.059 1.94199 0.00648693 0
M  V30 3487 C 340.189 3.44939 -0.404241 0
M  V30 3488 C 339.143 4.04536 -1.39767 0
M  V30 3489 C 338.469 5.29268 -0.760216 0
M  V30 3490 C 339.769 4.42893 -2.76845 0
M  V30 3491 H 341.463 2.38046 -1.81588 0
M  V30 3492 H 339.009 1.14404 -0.874514 0
M  V30 3493 H 340.962 4.20901 -0.204971 0
M  V30 3494 H 339.686 3.21983 0.547206 0
M  V30 3495 H 338.345 3.30635 -1.58355 0
M  V30 3496 H 337.993 5.02611 0.197831 0
M  V30 3497 H 337.693 5.70101 -1.42332 0
M  V30 3498 H 339.217 6.07924 -0.57105 0
M  V30 3499 H 340.631 5.09921 -2.62019 0
M  V30 3500 H 339.028 4.94721 -3.39663 0
M  V30 3501 H 340.098 3.53584 -3.31823 0
M  V30 3502 N 341.441 0.965919 1.2453 0
M  V30 3503 C 342.718 0.543777 1.87889 0
M  V30 3504 C 343.098 -0.97909 1.87021 0
M  V30 3505 O 342.446 -1.84969 1.3416 0
M  V30 3506 C 342.656 1.13327 3.30088 0
M  V30 3507 C 344.004 1.21707 4.06783 0
M  V30 3508 O 345.028 1.08566 3.39252 0
M  V30 3509 O 343.887 1.42456 5.27606 0
M  V30 3510 H 340.981 0.181054 0.806938 0
M  V30 3511 H 343.527 1.06007 1.32516 0
M  V30 3512 H 342.299 2.17612 3.25209 0
M  V30 3513 H 341.922 0.600911 3.93033 0
M  V30 3514 N 342.919 -1.39368 0.735821 0
M  V30 3515 C 344.147 -2.04795 0.294393 0
M  V30 3516 C 344.562 -1.55478 -1.07107 0
M  V30 3517 O 343.919 -0.720038 -1.67695 0
M  V30 3518 C 343.97 -3.6035 0.288071 0
M  V30 3519 O 343.691 -4.07852 1.59963 0
M  V30 3520 C 345.192 -4.42976 -0.169422 0
M  V30 3521 H 342.412 -0.658571 0.128551 0
M  V30 3522 H 344.956 -1.78399 0.999701 0
M  V30 3523 H 343.111 -3.85645 -0.368355 0
M  V30 3524 H 343.525 -5.02181 1.51375 0
M  V30 3525 H 344.999 -5.51864 -0.122687 0
M  V30 3526 H 345.476 -4.22068 -1.21472 0
M  V30 3527 H 346.082 -4.22832 0.457469 0
M  V30 3528 N 344.397 -0.483516 -1.5 0
M  V30 3529 C 345.345 0.318061 -2.30415 0
M  V30 3530 C 346.339 0.978988 -1.38247 0
M  V30 3531 O 347.545 0.908673 -1.55381 0
M  V30 3532 H 343.92 0.121419 -0.742133 0
M  V30 3533 H 345.891 -0.380403 -2.95965 0
M  V30 3534 C 344.64 1.38013 -3.19136 0
M  V30 3535 H 343.963 0.880952 -3.89973 0
M  V30 3536 H 345.403 1.91332 -3.78375 0
M  V30 3537 C 343.862 2.38884 -2.37563 0
M  V30 3538 O 344.392 3.44412 -2.06744 0
M  V30 3539 N 342.598 2.10912 -1.99911 0
M  V30 3540 H 342.145 1.25118 -2.25174 0
M  V30 3541 H 342.103 2.78635 -1.45636 0
M  V30 3542 N 345.875 1.56104 -0.216619 0
M  V30 3543 C 346.838 2.18819 0.681962 0
M  V30 3544 C 347.838 1.14866 1.12528 0
M  V30 3545 O 349.028 1.40128 1.03488 0
M  V30 3546 C 346.16 2.80756 1.93362 0
M  V30 3547 H 347.353 2.99595 0.135254 0
M  V30 3548 H 344.906 1.56265 0.0330003 0
M  V30 3549 H 345.641 2.03837 2.52232 0
M  V30 3550 H 345.426 3.56876 1.62426 0
M  V30 3551 H 346.916 3.28844 2.57393 0
M  V30 3552 N 347.353 -0.0568162 1.57498 0
M  V30 3553 C 348.581 -0.765626 1.92213 0
M  V30 3554 C 348.996 -1.70353 0.813961 0
M  V30 3555 O 348.353 -1.81268 -0.211701 0
M  V30 3556 C 348.404 -1.5465 3.2675 0
M  V30 3557 O 348.125 -0.646278 4.33307 0
M  V30 3558 C 349.626 -2.35497 3.75574 0
M  V30 3559 H 346.846 -0.216835 0.634999 0
M  V30 3560 H 349.39 -0.0226146 2.04487 0
M  V30 3561 H 347.545 -2.24165 3.15957 0
M  V30 3562 H 347.959 -1.19093 5.108 0
M  V30 3563 H 349.433 -2.85722 4.72299 0
M  V30 3564 H 349.91 -3.15692 3.05344 0
M  V30 3565 H 350.516 -1.7111 3.8936 0
M  V30 3566 N 348.832 -1.54138 -0.328536 0
M  V30 3567 C 349.78 -1.83894 -1.42428 0
M  V30 3568 C 350.774 -0.710478 -1.53781 0
M  V30 3569 O 351.98 -0.894062 -1.56226 0
M  V30 3570 H 348.355 -0.582837 -0.475189 0
M  V30 3571 H 350.326 -2.75537 -1.14552 0
M  V30 3572 C 349.075 -2.07866 -2.78724 0
M  V30 3573 H 348.398 -2.94158 -2.7076 0
M  V30 3574 H 349.838 -2.32644 -3.54476 0
M  V30 3575 C 348.297 -0.868689 -3.25508 0
M  V30 3576 O 348.827 -0.0754908 -4.01629 0
M  V30 3577 N 347.033 -0.681711 -2.82491 0
M  V30 3578 H 346.58 -1.32838 -2.20708 0
M  V30 3579 H 346.538 0.126374 -3.14146 0
M  V30 3580 N 350.31 0.590341 -1.46126 0
M  V30 3581 C 351.721 1.17243 -1.45296 0
M  V30 3582 C 352.072 1.95281 -0.189723 0
M  V30 3583 O 351.197 2.04502 0.707674 0
M  V30 3584 C 351.792 2.13284 -2.6324 0
M  V30 3585 C 350.351 2.66832 -2.65476 0
M  V30 3586 C 349.498 1.42557 -2.3785 0
M  V30 3587 H 352.449 0.378692 -1.54116 0
M  V30 3588 H 352.47 2.96619 -2.38323 0
M  V30 3589 H 351.982 1.56459 -3.55165 0
M  V30 3590 H 350.083 3.27548 -1.77603 0
M  V30 3591 H 350.196 3.10088 -3.65215 0
M  V30 3592 H 348.56 1.72107 -1.87753 0
M  V30 3593 H 349.343 0.875741 -3.31942 0
M  V30 3594 N 351.788 1.33704 0.83433 0
M  V30 3595 C 352.751 1.24244 1.92603 0
M  V30 3596 C 353.751 0.160383 1.59998 0
M  V30 3597 O 354.941 0.412228 1.69252 0
M  V30 3598 C 352.073 0.91555 3.28376 0
M  V30 3599 H 353.266 2.21287 2.02416 0
M  V30 3600 H 350.819 1.17827 1.02696 0
M  V30 3601 H 351.554 -0.0521886 3.24258 0
M  V30 3602 H 351.339 1.69811 3.53422 0
M  V30 3603 H 352.829 0.874231 4.08347 0
M  V30 3604 N 353.266 -1.05314 1.17247 0
M  V30 3605 C 354.682 -1.30452 0.919473 0
M  V30 3606 C 354.882 -1.9703 -0.42209 0
M  V30 3607 O 353.938 -2.24311 -1.15935 0
M  V30 3608 C 355.251 -2.17551 2.07586 0
M  V30 3609 C 356.799 -2.30937 2.11275 0
M  V30 3610 C 357.274 -3.21396 3.26296 0
M  V30 3611 N 358.765 -3.28981 3.26076 0
M  V30 3612 C 359.5 -3.99095 4.11716 0
M  V30 3613 N 358.996 -4.71648 5.07465 0
M  V30 3614 N 360.789 -3.95247 3.9967 0
M  V30 3615 H 352.94 -0.604988 2.03602 0
M  V30 3616 H 355.203 -0.329368 0.888944 0
M  V30 3617 H 354.909 -1.75921 3.0454 0
M  V30 3618 H 354.783 -3.18182 2.02584 0
M  V30 3619 H 357.17 -2.71809 1.14907 0
M  V30 3620 H 357.251 -1.2994 2.20339 0
M  V30 3621 H 356.895 -2.81238 4.22927 0
M  V30 3622 H 356.825 -4.22395 3.14467 0
M  V30 3623 H 359.316 -2.77286 2.5675 0
M  V30 3624 H 359.629 -5.22705 5.6921 0
M  V30 3625 H 357.974 -4.70594 5.11435 0
M  V30 3626 H 361.165 -3.37691 3.24164 0
M  V30 3627 H 361.338 -4.4962 4.66632 0
M  V30 3628 N 354.744 -0.972509 -1.24016 0
M  V30 3629 C 355.692 -0.498562 -2.27194 0
M  V30 3630 C 356.686 0.440372 -1.63576 0
M  V30 3631 O 357.892 0.315133 -1.7722 0
M  V30 3632 H 354.267 -0.142775 -0.738322 0
M  V30 3633 H 356.238 -1.38065 -2.64539 0
M  V30 3634 C 354.987 0.191072 -3.47175 0
M  V30 3635 H 354.31 -0.522318 -3.96373 0
M  V30 3636 H 355.75 0.486445 -4.212 0
M  V30 3637 C 354.209 1.41967 -3.05527 0
M  V30 3638 O 354.739 2.51642 -3.13112 0
M  V30 3639 N 352.945 1.28746 -2.60524 0
M  V30 3640 H 352.492 0.395089 -2.54552 0
M  V30 3641 H 352.45 2.11061 -2.33025 0
M  V30 3642 N 356.222 1.38976 -0.743202 0
M  V30 3643 C 357.469 2.00343 -0.294752 0
M  V30 3644 C 357.797 1.58983 1.12047 0
M  V30 3645 O 357.052 0.813809 1.77977 0
M  V30 3646 C 357.351 3.55647 -0.353517 0
M  V30 3647 C 357.017 4.16685 -1.72292 0
M  V30 3648 C 355.679 4.3307 -2.09771 0
M  V30 3649 C 358.031 4.50464 -2.62168 0
M  V30 3650 C 355.359 4.80526 -3.36618 0
M  V30 3651 C 357.711 4.99332 -3.88395 0
M  V30 3652 C 356.375 5.13924 -4.25956 0
M  V30 3653 H 355.645 0.733108 -0.107857 0
M  V30 3654 H 358.292 1.6618 -0.951651 0
M  V30 3655 H 356.597 3.89884 0.386954 0
M  V30 3656 H 358.294 4.00998 0.0117269 0
M  V30 3657 H 354.884 4.04339 -1.42155 0
M  V30 3658 H 359.068 4.37416 -2.3448 0
M  V30 3659 H 354.324 4.90008 -3.65653 0
M  V30 3660 H 358.498 5.2444 -4.58187 0
M  V30 3661 H 356.125 5.50457 -5.2431 0
M  V30 3662 N 357.7 0.491464 1.49741 0
M  V30 3663 C 358.94 -0.0549118 2.04326 0
M  V30 3664 C 359.304 -1.35148 1.36378 0
M  V30 3665 O 360.505 -1.9815 1.81631 0
M  V30 3666 C 358.776 -0.213841 3.5676 0
M  V30 3667 S 360.335 -0.715839 4.32922 0
M  V30 3668 H 357.153 -0.00630513 0.710972 0
M  V30 3669 H 359.755 0.663257 1.83905 0
M  V30 3670 H 358.459 0.73527 4.0376 0
M  V30 3671 H 357.99 -0.957529 3.81569 0
M  V30 3672 H 360.005 -1.9864 4.54705 0
M  V30 3673 N 359.178 -1.55987 0.224894 0
M  V30 3674 C 360.589 -1.84553 -0.282345 0
M  V30 3675 C 360.94 -1.14634 -1.59227 0
M  V30 3676 O 360.065 -0.417155 -2.12341 0
M  V30 3677 C 360.66 -3.348 -0.519062 0
M  V30 3678 C 359.219 -3.63671 -0.970604 0
M  V30 3679 C 358.366 -2.77277 -0.0355261 0
M  V30 3680 H 361.317 -1.52245 0.448006 0
M  V30 3681 H 361.338 -3.55187 -1.36463 0
M  V30 3682 H 360.85 -3.8566 0.43449 0
M  V30 3683 H 358.951 -3.1827 -1.9374 0
M  V30 3684 H 359.064 -4.71631 -0.842698 0
M  V30 3685 H 357.428 -2.48846 -0.542927 0
M  V30 3686 H 358.211 -3.30937 0.913003 0
M  V30 3687 N 360.656 0.0484629 -1.57525 0
M  V30 3688 C 361.902 0.744226 -1.88651 0
M  V30 3689 C 362.235 1.76029 -0.820212 0
M  V30 3690 O 361.51 1.93782 0.166985 0
M  V30 3691 C 361.793 1.43128 -3.30434 0
M  V30 3692 C 361.646 0.43005 -4.47739 0
M  V30 3693 C 362.965 2.37031 -3.70816 0
M  V30 3694 H 360.084 0.269089 -0.68612 0
M  V30 3695 H 362.726 0.00713532 -1.89999 0
M  V30 3696 H 360.876 2.05956 -3.29415 0
M  V30 3697 H 362.548 -0.194816 -4.60888 0
M  V30 3698 H 360.791 -0.252522 -4.33064 0
M  V30 3699 H 361.462 0.948874 -5.43783 0
M  V30 3700 H 363.938 1.84263 -3.73077 0
M  V30 3701 H 362.814 2.82094 -4.70865 0
M  V30 3702 H 363.075 3.22864 -3.02012 0
M  V30 3703 N 362.134 1.5431 0.320358 0
M  V30 3704 C 363.411 1.63322 1.07635 0
M  V30 3705 C 363.791 0.46912 2.05821 0
M  V30 3706 O 363.139 -0.536274 2.22118 0
M  V30 3707 C 363.349 3.00465 1.77544 0
M  V30 3708 C 364.697 3.56621 2.30449 0
M  V30 3709 O 365.721 3.02791 1.87606 0
M  V30 3710 O 364.58 4.5083 3.08892 0
M  V30 3711 H 361.674 0.661502 0.496331 0
M  V30 3712 H 364.22 1.66656 0.319992 0
M  V30 3713 H 362.992 3.76629 1.06143 0
M  V30 3714 H 362.615 3.00824 2.59982 0
M  V30 3715 N 363.613 -0.582584 1.46437 0
M  V30 3716 C 364.843 -1.36484 1.55099 0
M  V30 3717 C 365.251 -1.88233 0.191056 0
M  V30 3718 O 364.594 -1.6429 -0.821858 0
M  V30 3719 C 364.656 -2.588 2.49525 0
M  V30 3720 C 364.32 -2.28517 3.95764 0
M  V30 3721 C 365.317 -1.87346 4.84972 0
M  V30 3722 C 363.002 -2.40658 4.40896 0
M  V30 3723 C 364.996 -1.5871 6.17325 0
M  V30 3724 C 362.683 -2.11635 5.73284 0
M  V30 3725 C 363.681 -1.70725 6.61318 0
M  V30 3726 O 363.369 -1.42057 7.91249 0
M  V30 3727 H 363.101 -0.423297 0.527063 0
M  V30 3728 H 365.655 -0.715188 1.92547 0
M  V30 3729 H 363.885 -3.26571 2.07095 0
M  V30 3730 H 365.574 -3.20868 2.48593 0
M  V30 3731 H 366.34 -1.77481 4.5136 0
M  V30 3732 H 362.219 -2.71463 3.72598 0
M  V30 3733 H 365.763 -1.26704 6.85997 0
M  V30 3734 H 361.66 -2.21124 6.06444 0
M  V30 3735 H 362.428 -1.55901 8.03515 0
M  V30 3736 N 365.091 -1.34144 -0.827227 0
M  V30 3737 C 366.021 -1.28005 -1.95287 0
M  V30 3738 C 367.002 -0.158321 -1.69362 0
M  V30 3739 O 368.187 -0.349987 -1.9102 0
M  V30 3740 C 365.317 -1.03036 -3.31664 0
M  V30 3741 C 364.271 -2.11628 -3.72019 0
M  V30 3742 C 363.597 -1.71854 -5.0633 0
M  V30 3743 C 364.897 -3.53417 -3.8457 0
M  V30 3744 H 366.591 -2.22187 -2.00682 0
M  V30 3745 H 364.137 -1.0696 -0.964135 0
M  V30 3746 H 366.09 -0.973863 -4.09993 0
M  V30 3747 H 364.814 -0.0529391 -3.26557 0
M  V30 3748 H 363.473 -2.16339 -2.95961 0
M  V30 3749 H 363.121 -0.727841 -4.97706 0
M  V30 3750 H 362.821 -2.44531 -5.34302 0
M  V30 3751 H 364.345 -1.67692 -5.87122 0
M  V30 3752 H 365.759 -3.51142 -4.5318 0
M  V30 3753 H 364.156 -4.24679 -4.2399 0
M  V30 3754 H 365.226 -3.91072 -2.86689 0
M  V30 3755 N 366.569 1.04691 -1.17803 0
M  V30 3756 C 367.816 1.77782 -0.969532 0
M  V30 3757 C 368.144 1.87926 0.501401 0
M  V30 3758 O 367.399 1.37918 1.38842 0
M  V30 3759 C 367.698 3.21467 -1.56186 0
M  V30 3760 C 367.364 3.3137 -3.05786 0
M  V30 3761 C 366.026 3.3378 -3.46619 0
M  V30 3762 C 368.378 3.31976 -4.01797 0
M  V30 3763 C 365.706 3.34431 -4.82051 0
M  V30 3764 C 368.058 3.34167 -5.37136 0
M  V30 3765 C 366.722 3.34866 -5.77426 0
M  V30 3766 H 365.992 0.650549 -0.354777 0
M  V30 3767 H 368.639 1.23006 -1.46772 0
M  V30 3768 H 366.944 3.79203 -0.985515 0
M  V30 3769 H 368.641 3.76652 -1.37602 0
M  V30 3770 H 365.231 3.3021 -2.73238 0
M  V30 3771 H 369.415 3.29311 -3.71306 0
M  V30 3772 H 364.671 3.33285 -5.12573 0
M  V30 3773 H 368.845 3.33585 -6.11305 0
M  V30 3774 H 366.472 3.35124 -6.82346 0
M  V30 3775 N 368.047 0.979072 1.23499 0
M  V30 3776 C 369.295 0.645941 1.91499 0
M  V30 3777 C 369.616 -0.822948 1.76784 0
M  V30 3778 O 368.886 -1.58854 1.14639 0
M  V30 3779 H 367.466 0.235919 0.708767 0
M  V30 3780 H 370.128 1.2426 1.50152 0
M  V30 3781 H 369.224 0.896411 2.9895 0
M  V30 3782 N 369.525 -1.3858 0.750561 0
M  V30 3783 C 370.75 -2.04997 0.314812 0
M  V30 3784 C 371.175 -1.56235 -1.04749 0
M  V30 3785 O 370.533 -0.712981 -1.66692 0
M  V30 3786 C 370.581 -3.58961 0.343415 0
M  V30 3787 O 369.685 -4.07025 -0.663628 0
M  V30 3788 H 369.026 -0.649081 0.139962 0
M  V30 3789 H 371.556 -1.77313 1.02084 0
M  V30 3790 H 371.566 -4.07542 0.193233 0
M  V30 3791 H 370.241 -3.93811 1.33738 0
M  V30 3792 H 368.818 -3.6982 -0.478307 0
M  V30 3793 N 371.003 -0.499398 -1.49478 0
M  V30 3794 C 372.251 0.0455996 -2.02049 0
M  V30 3795 C 372.572 1.37633 -1.38138 0
M  V30 3796 O 371.842 1.8842 -0.536166 0
M  V30 3797 H 370.422 0.0198416 -0.746736 0
M  V30 3798 H 373.084 -0.656274 -1.83519 0
M  V30 3799 H 372.18 0.176445 -3.11601 0
M  V30 3800 N 372.481 1.55866 -0.233164 0
M  V30 3801 C 373.727 1.98897 0.395959 0
M  V30 3802 C 374.06 1.12091 1.58585 0
M  V30 3803 O 373.335 0.181182 1.93654 0
M  V30 3804 C 373.618 3.50658 0.819224 0
M  V30 3805 C 373.471 4.48233 -0.375109 0
M  V30 3806 C 374.79 4.07135 1.67121 0
M  V30 3807 H 371.909 0.723102 0.142451 0
M  V30 3808 H 374.551 1.87082 -0.331725 0
M  V30 3809 H 372.701 3.60857 1.43925 0
M  V30 3810 H 374.373 4.50031 -1.01341 0
M  V30 3811 H 372.616 4.21624 -1.02058 0
M  V30 3812 H 373.287 5.51988 -0.0358328 0
M  V30 3813 H 375.763 3.99952 1.14795 0
M  V30 3814 H 374.639 5.13615 1.93625 0
M  V30 3815 H 374.9 3.54736 2.63846 0
M  V30 3816 N 373.959 -0.0401083 1.57549 0
M  V30 3817 C 374.889 -1.04384 2.08869 0
M  V30 3818 C 375.87 -1.38407 0.988817 0
M  V30 3819 O 377.055 -1.47483 1.26342 0
M  V30 3820 C 374.185 -2.34808 2.55895 0
M  V30 3821 C 373.139 -2.15057 3.70047 0
M  V30 3822 C 372.465 -3.51145 4.03239 0
M  V30 3823 C 373.765 -1.54576 4.98902 0
M  V30 3824 H 375.459 -0.616666 2.92981 0
M  V30 3825 H 373.005 -0.295184 1.40942 0
M  V30 3826 H 374.958 -3.05346 2.90417 0
M  V30 3827 H 373.682 -2.79565 1.68853 0
M  V30 3828 H 372.341 -1.46954 3.35857 0
M  V30 3829 H 371.989 -3.93529 3.13279 0
M  V30 3830 H 371.689 -3.38758 4.80122 0
M  V30 3831 H 373.213 -4.23062 4.40285 0
M  V30 3832 H 374.627 -2.15017 5.31451 0
M  V30 3833 H 373.024 -1.52796 5.80322 0
M  V30 3834 H 374.094 -0.51039 4.82206 0
M  V30 3835 N 375.437 -1.54477 -0.31217 0
M  V30 3836 C 376.4 -1.83923 -1.36766 0
M  V30 3837 C 377.4 -0.711563 -1.44199 0
M  V30 3838 O 378.59 -0.979866 -1.44029 0
M  V30 3839 C 375.722 -2.0095 -2.75376 0
M  V30 3840 H 376.915 -2.78239 -1.11906 0
M  V30 3841 H 374.468 -1.46369 -0.548257 0
M  V30 3842 H 375.203 -1.08883 -3.05475 0
M  V30 3843 H 374.988 -2.83018 -2.71373 0
M  V30 3844 H 376.478 -2.2514 -3.51713 0
M  V30 3845 N 376.915 0.57481 -1.46744 0
M  V30 3846 C 378.163 1.33009 -1.52161 0
M  V30 3847 C 378.484 1.94185 -0.178092 0
M  V30 3848 O 377.754 1.7899 0.796196 0
M  V30 3849 H 376.334 0.493873 -0.560445 0
M  V30 3850 H 378.996 0.672589 -1.82927 0
M  V30 3851 H 378.092 2.13273 -2.27862 0
M  V30 3852 N 378.394 1.34581 0.820102 0
M  V30 3853 C 379.342 1.26401 1.95258 0
M  V30 3854 C 380.336 0.161553 1.68628 0
M  V30 3855 O 381.542 0.326703 1.7701 0
M  V30 3856 H 377.917 0.392749 0.64129 0
M  V30 3857 H 379.888 2.22105 1.99279 0
M  V30 3858 C 378.637 1.03919 3.31807 0
M  V30 3859 H 377.96 1.87984 3.52848 0
M  V30 3860 H 379.4 1.02232 4.11491 0
M  V30 3861 C 377.859 -0.257433 3.35915 0
M  V30 3862 O 378.389 -1.25784 3.81499 0
M  V30 3863 N 376.595 -0.291524 2.89134 0
M  V30 3864 H 376.142 0.523161 2.52232 0
M  V30 3865 H 376.1 -1.15883 2.92264 0
M  V30 3866 N 379.872 -1.04064 1.18357 0
M  V30 3867 C 380.835 -2.10243 0.912707 0
M  V30 3868 C 381.835 -1.60477 -0.101928 0
M  V30 3869 O 383.025 -1.73703 0.131517 0
M  V30 3870 C 380.157 -3.38893 0.369387 0
M  V30 3871 H 381.35 -2.35706 1.85426 0
M  V30 3872 H 378.903 -1.20489 0.995594 0
M  V30 3873 H 379.638 -3.19094 -0.578776 0
M  V30 3874 H 379.423 -3.76331 1.1008 0
M  V30 3875 H 380.913 -4.17128 0.198575 0
M  V30 3876 N 381.35 -0.985608 -1.22978 0
M  V30 3877 C 382.597 -0.657386 -1.91532 0
M  V30 3878 C 382.925 0.809707 -1.76845 0
M  V30 3879 O 382.18 1.60021 -1.12658 0
M  V30 3880 C 382.479 -1.00014 -3.43121 0
M  V30 3881 C 382.145 -2.4583 -3.77993 0
M  V30 3882 C 380.807 -2.85679 -3.87222 0
M  V30 3883 C 383.159 -3.40378 -3.94705 0
M  V30 3884 C 380.487 -4.19081 -4.10595 0
M  V30 3885 C 382.839 -4.73429 -4.1958 0
M  V30 3886 C 381.503 -5.1303 -4.27032 0
M  V30 3887 H 380.773 -0.240555 -0.700867 0
M  V30 3888 H 383.42 -1.24044 -1.45895 0
M  V30 3889 H 381.725 -0.335072 -3.90365 0
M  V30 3890 H 383.422 -0.724322 -3.94404 0
M  V30 3891 H 380.012 -2.13939 -3.71387 0
M  V30 3892 H 384.196 -3.10766 -3.8696 0
M  V30 3893 H 379.452 -4.49362 -4.14589 0
M  V30 3894 H 383.626 -5.46644 -4.31455 0
M  V30 3895 H 381.253 -6.16418 -4.44896 0
M  V30 3896 N 382.828 1.3818 -0.7579 0
M  V30 3897 C 384.074 2.00316 -0.316453 0
M  V30 3898 C 384.407 1.60026 1.10025 0
M  V30 3899 O 383.682 0.839835 1.75434 0
M  V30 3900 C 383.965 3.57349 -0.444245 0
M  V30 3901 C 383.818 4.07591 -1.90236 0
M  V30 3902 C 385.137 4.3981 0.1598 0
M  V30 3903 H 382.256 0.727741 -0.116459 0
M  V30 3904 H 384.898 1.6406 -0.958352 0
M  V30 3905 H 383.048 3.88365 0.102233 0
M  V30 3906 H 384.72 3.87199 -2.50748 0
M  V30 3907 H 382.963 3.60297 -2.41595 0
M  V30 3908 H 383.634 5.16677 -1.94291 0
M  V30 3909 H 386.11 4.14971 -0.306314 0
M  V30 3910 H 384.986 5.48885 0.0401675 0
M  V30 3911 H 385.247 4.24102 1.24859 0
M  V30 3912 N 384.306 0.507319 1.49211 0
M  V30 3913 C 385.536 -0.0315292 2.06576 0
M  V30 3914 C 385.944 -1.30791 1.36713 0
M  V30 3915 O 385.287 -1.78324 0.441181 0
M  V30 3916 C 385.349 -0.349104 3.57801 0
M  V30 3917 C 385.013 0.830475 4.49391 0
M  V30 3918 C 386.01 1.72271 4.90529 0
M  V30 3919 C 383.695 1.03107 4.91604 0
M  V30 3920 C 385.689 2.79964 5.72625 0
M  V30 3921 C 383.376 2.11116 5.73475 0
M  V30 3922 C 384.374 2.99379 6.1389 0
M  V30 3923 O 384.062 4.05523 6.94123 0
M  V30 3924 H 383.794 0.0201002 0.675701 0
M  V30 3925 H 386.348 0.705737 1.92895 0
M  V30 3926 H 384.578 -1.14005 3.69513 0
M  V30 3927 H 386.267 -0.827319 3.97379 0
M  V30 3928 H 387.033 1.57958 4.58557 0
M  V30 3929 H 382.912 0.353417 4.59643 0
M  V30 3930 H 386.456 3.48884 6.04091 0
M  V30 3931 H 382.353 2.25421 6.0486 0
M  V30 3932 H 383.121 4.02953 7.1244 0
M  V30 3933 N 385.784 -1.5574 0.241426 0
M  V30 3934 C 387.195 -1.84842 -0.262755 0
M  V30 3935 C 387.546 -1.16317 -1.58003 0
M  V30 3936 O 386.671 -0.439653 -2.11887 0
M  V30 3937 C 387.266 -3.35332 -0.483523 0
M  V30 3938 C 385.825 -3.6468 -0.931977 0
M  V30 3939 C 384.972 -2.77299 -0.0061151 0
M  V30 3940 H 387.923 -1.51761 0.464129 0
M  V30 3941 H 387.944 -3.56615 -1.32688 0
M  V30 3942 H 387.456 -3.85178 0.47537 0
M  V30 3943 H 385.557 -3.20307 -1.90353 0
M  V30 3944 H 385.67 -4.72498 -0.792628 0
M  V30 3945 H 384.034 -2.49408 -0.516503 0
M  V30 3946 H 384.817 -3.2995 0.948052 0
M  V30 3947 N 387.262 0.0317525 -1.57568 0
M  V30 3948 C 388.212 1.04101 -2.02847 0
M  V30 3949 C 389.196 1.3219 -0.917317 0
M  V30 3950 O 390.388 1.31819 -1.18121 0
M  V30 3951 C 387.517 2.34295 -2.5092 0
M  V30 3952 C 386.603 2.09308 -3.68851 0
M  V30 3953 N 386.994 1.5437 -4.81667 0
M  V30 3954 C 385.292 2.39604 -3.76172 0
M  V30 3955 C 385.993 1.45126 -5.63306 0
M  V30 3956 N 384.969 1.92589 -5.08341 0
M  V30 3957 H 388.771 0.610217 -2.87495 0
M  V30 3958 H 386.285 0.238108 -1.60645 0
M  V30 3959 H 388.282 3.07404 -2.81617 0
M  V30 3960 H 386.942 2.78055 -1.67677 0
M  V30 3961 H 387.953 1.22678 -5.03161 0
M  V30 3962 H 384.63 2.86457 -3.03724 0
M  V30 3963 H 386.02 1.03163 -6.63933 0
M  V30 3964 N 388.74 1.54641 0.303973 0
M  V30 3965 C 389.672 1.81754 1.39636 0
M  V30 3966 C 390.685 0.70035 1.46966 0
M  V30 3967 O 391.874 0.97778 1.49338 0
M  V30 3968 C 388.974 1.93785 2.7803 0
M  V30 3969 C 388.147 3.24156 2.93669 0
M  V30 3970 C 387.206 3.26641 4.12544 0
M  V30 3971 O 386.232 4.00187 4.04771 0
M  V30 3972 N 387.434 2.5182 5.23036 0
M  V30 3973 H 390.199 2.76031 1.16734 0
M  V30 3974 H 387.76 1.54178 0.494033 0
M  V30 3975 H 389.752 1.92852 3.55795 0
M  V30 3976 H 388.322 1.06515 2.93893 0
M  V30 3977 H 387.542 3.37887 2.03042 0
M  V30 3978 H 388.83 4.10195 3.01027 0
M  V30 3979 H 388.228 1.91692 5.32232 0
M  V30 3980 H 386.785 2.56644 5.99147 0
M  V30 3981 N 390.218 -0.567019 1.47046 0
M  V30 3982 C 391.467 -1.32091 1.5243 0
M  V30 3983 C 391.78 -1.94704 0.187021 0
M  V30 3984 O 392.986 -2.7124 0.118771 0
M  V30 3985 C 391.442 -2.39479 2.68659 0
M  V30 3986 C 391.05 -1.831 4.08874 0
M  V30 3987 C 392.794 -3.16111 2.83327 0
M  V30 3988 C 390.701 -2.8821 5.16419 0
M  V30 3989 H 389.631 -0.496629 0.56734 0
M  V30 3990 H 392.282 -0.603354 1.73297 0
M  V30 3991 H 390.664 -3.14105 2.41152 0
M  V30 3992 H 391.838 -1.14913 4.46242 0
M  V30 3993 H 390.153 -1.19085 3.99008 0
M  V30 3994 H 392.75 -3.94585 3.60842 0
M  V30 3995 H 393.093 -3.69686 1.91411 0
M  V30 3996 H 393.626 -2.48595 3.10556 0
M  V30 3997 H 390.365 -2.39504 6.10179 0
M  V30 3998 H 389.885 -3.54839 4.8358 0
M  V30 3999 H 391.564 -3.51881 5.42945 0
M  V30 4000 N 391.696 -1.35014 -0.812953 0
M  V30 4001 C 392.945 -1.27269 -1.56479 0
M  V30 4002 C 393.258 0.152771 -1.95002 0
M  V30 4003 O 394.464 0.352451 -2.69203 0
M  V30 4004 C 392.92 -2.23159 -2.82362 0
M  V30 4005 C 392.528 -3.71016 -2.511 0
M  V30 4006 C 394.272 -2.24342 -3.60376 0
M  V30 4007 C 392.179 -4.58746 -3.73237 0
M  V30 4008 H 391.109 -0.472829 -0.587324 0
M  V30 4009 H 393.76 -1.6024 -0.894171 0
M  V30 4010 H 392.142 -1.83151 -3.51101 0
M  V30 4011 H 393.316 -4.1962 -1.90409 0
M  V30 4012 H 391.631 -3.72378 -1.86343 0
M  V30 4013 H 394.228 -2.87107 -4.51081 0
M  V30 4014 H 394.571 -1.24542 -3.97234 0
M  V30 4015 H 395.104 -2.62846 -2.98591 0
M  V30 4016 H 391.843 -5.59521 -3.41492 0
M  V30 4017 H 391.363 -4.14871 -4.33176 0
M  V30 4018 H 393.042 -4.73852 -4.40537 0
M  V30 4019 N 393.175 1.03435 -1.18907 0
M  V30 4020 C 394.123 2.13703 -0.918353 0
M  V30 4021 C 395.117 1.68947 0.123767 0
M  V30 4022 O 396.323 1.79983 -0.0249701 0
M  V30 4023 H 392.698 0.698112 -0.279542 0
M  V30 4024 H 394.669 2.33731 -1.85506 0
M  V30 4025 C 393.418 3.44542 -0.467532 0
M  V30 4026 H 392.741 3.79394 -1.26095 0
M  V30 4027 H 394.181 4.22812 -0.317164 0
M  V30 4028 C 392.64 3.26829 0.817588 0
M  V30 4029 O 393.17 3.54975 1.88031 0
M  V30 4030 N 391.376 2.80139 0.772677 0
M  V30 4031 H 390.923 2.57434 -0.0923883 0
M  V30 4032 H 390.881 2.68668 1.63294 0
M  V30 4033 N 394.653 0.992116 1.22453 0
M  V30 4034 C 395.583 0.561677 2.26644 0
M  V30 4035 C 396.564 -0.411055 1.65059 0
M  V30 4036 O 397.749 -0.301861 1.9184 0
M  V30 4037 C 394.879 -0.125247 3.47074 0
M  V30 4038 C 393.833 0.765948 4.21091 0
M  V30 4039 C 393.159 -0.0538484 5.34673 0
M  V30 4040 C 394.459 2.06242 4.79856 0
M  V30 4041 H 396.153 1.43259 2.62902 0
M  V30 4042 H 393.699 0.690283 1.26377 0
M  V30 4043 H 395.652 -0.437764 4.1912 0
M  V30 4044 H 394.376 -1.03069 3.0991 0
M  V30 4045 H 393.035 1.0621 3.50878 0
M  V30 4046 H 392.683 -0.960188 4.9375 0
M  V30 4047 H 392.383 0.539415 5.85119 0
M  V30 4048 H 393.907 -0.360477 6.09535 0
M  V30 4049 H 395.321 1.8139 5.43848 0
M  V30 4050 H 393.718 2.60444 5.40638 0
M  V30 4051 H 394.788 2.74167 3.99951 0
M  V30 4052 N 396.131 -1.37776 0.765217 0
M  V30 4053 C 397.547 -1.53297 0.444108 0
M  V30 4054 C 397.747 -1.72515 -1.04119 0
M  V30 4055 O 396.803 -1.74278 -1.82711 0
M  V30 4056 C 398.116 -2.73328 1.25349 0
M  V30 4057 C 399.664 -2.87185 1.24473 0
M  V30 4058 C 400.139 -4.10191 2.03733 0
M  V30 4059 N 401.63 -4.17291 2.01053 0
M  V30 4060 C 402.365 -5.11488 2.59166 0
M  V30 4061 N 401.861 -6.11285 3.26041 0
M  V30 4062 N 403.654 -5.03924 2.49032 0
M  V30 4063 H 395.805 -1.23552 1.72768 0
M  V30 4064 H 398.068 -0.601103 0.733062 0
M  V30 4065 H 397.774 -2.6557 2.30577 0
M  V30 4066 H 397.648 -3.66834 0.87823 0
M  V30 4067 H 400.035 -2.94418 0.20047 0
M  V30 4068 H 400.116 -1.94657 1.65959 0
M  V30 4069 H 399.76 -4.0372 3.08176 0
M  V30 4070 H 399.69 -5.01821 1.59633 0
M  V30 4071 H 402.181 -3.45825 1.5236 0
M  V30 4072 H 402.494 -6.79678 3.67774 0
M  V30 4073 H 400.839 -6.11583 3.30138 0
M  V30 4074 H 404.03 -4.24902 1.96407 0
M  V30 4075 H 404.203 -5.77152 2.94617 0
M  V30 4076 N 397.609 -0.515225 -1.4894 0
M  V30 4077 C 398.837 0.0206034 -2.0689 0
M  V30 4078 C 399.252 1.29514 -1.37374 0
M  V30 4079 O 398.609 1.76698 -0.456529 0
M  V30 4080 C 398.66 0.26351 -3.60538 0
M  V30 4081 O 398.381 -0.960517 -4.27441 0
M  V30 4082 C 399.882 0.841383 -4.35242 0
M  V30 4083 H 397.102 -0.0268608 -0.670462 0
M  V30 4084 H 399.646 -0.716651 -1.91532 0
M  V30 4085 H 397.801 0.950777 -3.75552 0
M  V30 4086 H 398.215 -0.73212 -5.19365 0
M  V30 4087 H 399.689 0.96085 -5.43573 0
M  V30 4088 H 400.166 1.8427 -3.98674 0
M  V30 4089 H 400.772 0.191143 -4.2487 0
M  V30 4090 N 399.087 1.5561 -0.249682 0
M  V30 4091 C 400.035 2.22894 0.664906 0
M  V30 4092 C 401.029 1.21743 1.17792 0
M  V30 4093 O 402.235 1.39748 1.13449 0
M  V30 4094 H 398.61 0.715022 0.232912 0
M  V30 4095 H 400.581 2.98307 0.0742998 0
M  V30 4096 C 399.33 2.94424 1.84959 0
M  V30 4097 H 398.653 3.72031 1.46399 0
M  V30 4098 H 400.093 3.44862 2.4667 0
M  V30 4099 C 398.552 1.98454 2.72245 0
M  V30 4100 O 399.082 1.51939 3.71857 0
M  V30 4101 N 397.288 1.65496 2.38871 0
M  V30 4102 H 396.835 2.03517 1.57919 0
M  V30 4103 H 396.793 1.0155 2.97548 0
M  V30 4104 N 400.565 -0.0233959 1.57583 0
M  V30 4105 C 401.513 -1.04063 2.08023 0
M  V30 4106 C 402.507 -1.37084 0.995204 0
M  V30 4107 O 403.713 -1.35923 1.18004 0
M  V30 4108 H 400.088 -0.353144 0.663922 0
M  V30 4109 H 402.059 -0.589453 2.9252 0
M  V30 4110 C 400.808 -2.33123 2.57971 0
M  V30 4111 H 400.131 -2.08577 3.4108 0
M  V30 4112 H 401.571 -3.02632 2.96967 0
M  V30 4113 C 400.03 -3.02483 1.48342 0
M  V30 4114 O 400.56 -3.92541 0.852898 0
M  V30 4115 N 398.766 -2.63909 1.21658 0
M  V30 4116 H 398.313 -1.90758 1.73116 0
M  V30 4117 H 398.271 -3.10633 0.485218 0
M  V30 4118 N 402.043 -1.548 -0.295768 0
M  V30 4119 C 403.283 -1.76069 -1.03823 0
M  V30 4120 C 403.647 -0.537992 -1.84309 0
M  V30 4121 O 404.848 -0.628514 -2.61349 0
M  V30 4122 C 403.119 -3.01705 -1.91596 0
M  V30 4123 S 404.678 -3.43998 -2.72416 0
M  V30 4124 H 401.496 -0.618852 -0.350062 0
M  V30 4125 H 404.098 -1.93009 -0.31106 0
M  V30 4126 H 402.802 -3.88812 -1.31351 0
M  V30 4127 H 402.333 -2.87366 -2.68671 0
M  V30 4128 H 404.348 -3.0148 -3.94112 0
M  V30 4129 N 403.521 0.559213 -1.47345 0
M  V30 4130 C 404.484 1.64854 -1.59235 0
M  V30 4131 C 405.484 1.53851 -0.467607 0
M  V30 4132 O 406.674 1.58045 -0.732617 0
M  V30 4133 C 403.806 3.04388 -1.53496 0
M  V30 4134 H 404.999 1.55662 -2.56339 0
M  V30 4135 H 402.552 0.778973 -1.35505 0
M  V30 4136 H 403.287 3.19115 -0.577604 0
M  V30 4137 H 403.072 3.13783 -2.35123 0
M  V30 4138 H 404.562 3.83642 -1.6495 0
M  V30 4139 N 404.999 1.35443 0.805782 0
M  V30 4140 C 406.227 1.31878 1.59423 0
M  V30 4141 C 406.642 -0.103562 1.88516 0
M  V30 4142 O 405.999 -1.05575 1.48863 0
M  V30 4143 C 406.05 2.12426 2.92502 0
M  V30 4144 O 405.771 3.49115 2.6467 0
M  V30 4145 C 407.272 2.16455 3.86862 0
M  V30 4146 H 404.492 0.453002 0.495005 0
M  V30 4147 H 407.036 1.78309 1.00131 0
M  V30 4148 H 405.191 1.69593 3.48306 0
M  V30 4149 H 405.605 3.90957 3.49647 0
M  V30 4150 H 407.079 2.77204 4.77349 0
M  V30 4151 H 407.556 1.16352 4.23508 0
M  V30 4152 H 408.162 2.59453 3.36993 0
M  V30 4153 N 406.477 -1.02803 1.19454 0
M  V30 4154 C 407.407 -2.12999 0.956758 0
M  V30 4155 C 408.388 -1.69743 -0.110188 0
M  V30 4156 O 409.573 -1.94148 0.0450038 0
M  V30 4157 C 406.703 -3.43746 0.495553 0
M  V30 4158 C 405.657 -4.00688 1.50443 0
M  V30 4159 C 404.983 -5.27067 0.900275 0
M  V30 4160 C 406.283 -4.35397 2.8849 0
M  V30 4161 H 407.977 -2.33148 1.87836 0
M  V30 4162 H 405.523 -1.12045 0.904539 0
M  V30 4163 H 407.476 -4.2021 0.316493 0
M  V30 4164 H 406.2 -3.23321 -0.461646 0
M  V30 4165 H 404.859 -3.2632 1.67065 0
M  V30 4166 H 404.507 -5.02959 -0.064503 0
M  V30 4167 H 404.207 -5.66127 1.57397 0
M  V30 4168 H 405.731 -6.06196 0.73203 0
M  V30 4169 H 407.145 -5.02795 2.75446 0
M  V30 4170 H 405.542 -4.85541 3.52661 0
M  V30 4171 H 406.612 -3.44662 3.41081 0
M  V30 4172 N 407.956 -0.998596 -1.21925 0
M  V30 4173 C 409.202 -0.678667 -1.91107 0
M  V30 4174 C 409.535 0.78791 -1.77498 0
M  V30 4175 O 408.81 1.57043 -1.1475 0
M  V30 4176 C 409.093 -1.09245 -3.43129 0
M  V30 4177 C 408.946 -2.61801 -3.6576 0
M  V30 4178 C 410.265 -0.649984 -4.35274 0
M  V30 4179 H 407.384 -0.248025 -0.694012 0
M  V30 4180 H 410.026 -1.24314 -1.43688 0
M  V30 4181 H 408.176 -0.612171 -3.83647 0
M  V30 4182 H 409.848 -3.17543 -3.34611 0
M  V30 4183 H 408.091 -3.03609 -3.09845 0
M  V30 4184 H 408.762 -2.85804 -4.7225 0
M  V30 4185 H 411.238 -1.0626 -4.02303 0
M  V30 4186 H 410.114 -0.967743 -5.40302 0
M  V30 4187 H 410.375 0.449139 -4.39813 0
M  V30 4188 N 409.434 1.37368 -0.772513 0
M  V30 4189 C 410.364 2.32856 -0.173304 0
M  V30 4190 C 411.345 1.55818 0.682262 0
M  V30 4191 O 412.53 1.84052 0.619566 0
M  V30 4192 C 409.66 3.40048 0.706007 0
M  V30 4193 C 408.614 4.27973 -0.0483144 0
M  V30 4194 C 407.94 5.26184 0.950491 0
M  V30 4195 C 409.24 5.07665 -1.22776 0
M  V30 4196 H 410.934 2.83217 -0.971002 0
M  V30 4197 H 408.48 1.3617 -0.468377 0
M  V30 4198 H 410.433 4.05827 1.13501 0
M  V30 4199 H 409.157 2.88214 1.53623 0
M  V30 4200 H 407.816 3.63726 -0.458107 0
M  V30 4201 H 407.464 4.7063 1.77529 0
M  V30 4202 H 407.164 5.85872 0.450314 0
M  V30 4203 H 408.688 5.94838 1.37842 0
M  V30 4204 H 410.102 5.66578 -0.875366 0
M  V30 4205 H 408.499 5.76681 -1.66007 0
M  V30 4206 H 409.569 4.40294 -2.03149 0
M  V30 4207 N 410.912 0.523116 1.48665 0
M  V30 4208 C 412.323 0.0808997 1.86525 0
M  V30 4209 C 412.674 -1.33975 1.43336 0
M  V30 4210 O 411.799 -2.00221 0.821009 0
M  V30 4211 C 412.394 0.140037 3.3851 0
M  V30 4212 C 410.953 -0.246948 3.75589 0
M  V30 4213 C 410.1 0.502845 2.72703 0
M  V30 4214 H 413.051 0.734736 1.40667 0
M  V30 4215 H 413.072 -0.649945 3.74908 0
M  V30 4216 H 412.584 1.17412 3.69914 0
M  V30 4217 H 410.685 -1.28343 3.49798 0
M  V30 4218 H 410.798 0.0878859 4.79019 0
M  V30 4219 H 409.162 -0.0500581 2.54651 0
M  V30 4220 H 409.945 1.53743 3.0695 0
M  V30 4221 N 412.39 -1.55475 0.257931 0
M  V30 4222 C 413.62 -2.03314 -0.367026 0
M  V30 4223 C 414.028 -1.13625 -1.51281 0
M  V30 4224 O 413.371 -0.145334 -1.83124 0
M  V30 4225 C 413.433 -3.47362 -0.926284 0
M  V30 4226 C 413.097 -4.56914 0.0886584 0
M  V30 4227 C 414.094 -5.12013 0.902123 0
M  V30 4228 C 411.779 -5.01827 0.217936 0
M  V30 4229 C 413.773 -6.10529 1.83122 0
M  V30 4230 C 411.46 -6.00172 1.15052 0
M  V30 4231 C 412.458 -6.54402 1.95568 0
M  V30 4232 O 412.146 -7.50827 2.87253 0
M  V30 4233 H 411.878 -0.669976 -0.0900443 0
M  V30 4234 H 414.432 -2.01804 0.382673 0
M  V30 4235 H 412.662 -3.46056 -1.72575 0
M  V30 4236 H 414.351 -3.78637 -1.46249 0
M  V30 4237 H 415.117 -4.78139 0.812891 0
M  V30 4238 H 410.996 -4.59272 -0.398721 0
M  V30 4239 H 414.54 -6.52783 2.46008 0
M  V30 4240 H 410.437 -6.33465 1.24064 0
M  V30 4241 H 411.205 -7.68483 2.81739 0
M  V30 4242 N 413.868 0.0150385 -1.57593 0
M  V30 4243 C 415.114 0.704043 -1.90187 0
M  V30 4244 C 415.447 1.74249 -0.857366 0
M  V30 4245 O 414.722 1.94092 0.125843 0
M  V30 4246 C 415.005 1.36087 -3.33395 0
M  V30 4247 C 414.858 0.334981 -4.48551 0
M  V30 4248 C 416.177 2.29112 -3.7576 0
M  V30 4249 H 413.296 0.254475 -0.691673 0
M  V30 4250 H 415.938 -0.0331678 -1.89971 0
M  V30 4251 H 414.088 1.98922 -3.3371 0
M  V30 4252 H 415.76 -0.292534 -4.60372 0
M  V30 4253 H 414.003 -0.344325 -4.32431 0
M  V30 4254 H 414.674 0.833316 -5.45674 0
M  V30 4255 H 417.15 1.76308 -3.76902 0
M  V30 4256 H 416.026 2.72043 -4.76743 0
M  V30 4257 H 416.287 3.16385 -3.08793 0
M  V30 4258 N 415.346 1.54954 0.287554 0
M  V30 4259 C 416.294 1.87606 1.37502 0
M  V30 4260 C 417.288 0.751001 1.51843 0
M  V30 4261 O 418.494 0.935169 1.53801 0
M  V30 4262 H 414.869 0.595231 0.459569 0
M  V30 4263 H 416.84 2.78477 1.07206 0
M  V30 4264 C 415.589 2.15183 2.73115 0
M  V30 4265 H 414.912 3.01234 2.62866 0
M  V30 4266 H 416.352 2.4196 3.48183 0
M  V30 4267 C 414.811 0.954686 3.2309 0
M  V30 4268 O 415.341 0.181949 4.01288 0
M  V30 4269 N 413.547 0.756368 2.80584 0
M  V30 4270 H 413.094 1.38643 2.17108 0
M  V30 4271 H 413.052 -0.0430391 3.14371 0
M  V30 4272 N 416.824 -0.551391 1.4764 0
M  V30 4273 C 418.049 -1.33837 1.58437 0
M  V30 4274 C 418.474 -1.866 0.237063 0
M  V30 4275 O 417.832 -1.6328 -0.787994 0
M  V30 4276 C 417.88 -2.48014 2.61766 0
M  V30 4277 O 416.984 -3.50419 2.1744 0
M  V30 4278 H 416.325 -0.397299 0.532024 0
M  V30 4279 H 418.855 -0.665759 1.93465 0
M  V30 4280 H 418.865 -2.94503 2.82369 0
M  V30 4281 H 417.54 -2.08969 3.5959 0
M  V30 4282 H 416.117 -3.10196 2.06961 0
M  V30 4283 N 418.302 -1.35869 -0.798587 0
M  V30 4284 C 419.232 -1.32118 -1.92528 0
M  V30 4285 C 420.213 -0.194209 -1.68988 0
M  V30 4286 O 421.398 -0.390426 -1.90235 0
M  V30 4287 C 418.528 -1.10047 -3.29404 0
M  V30 4288 C 417.482 -2.19471 -3.67446 0
M  V30 4289 C 416.808 -1.82555 -5.02571 0
M  V30 4290 C 418.108 -3.61495 -3.76987 0
M  V30 4291 H 419.802 -2.26394 -1.95924 0
M  V30 4292 H 417.348 -1.08981 -0.94123 0
M  V30 4293 H 419.301 -1.06061 -4.07835 0
M  V30 4294 H 418.025 -0.122195 -3.26371 0
M  V30 4295 H 416.684 -2.22568 -2.91306 0
M  V30 4296 H 416.332 -0.833249 -4.9605 0
M  V30 4297 H 416.032 -2.5581 -5.28995 0
M  V30 4298 H 417.556 -1.80108 -5.83432 0
M  V30 4299 H 418.97 -3.60676 -4.4563 0
M  V30 4300 H 417.367 -4.33577 -4.14887 0
M  V30 4301 H 418.437 -3.97065 -2.78329 0
M  V30 4302 N 419.78 1.02168 -1.19998 0
M  V30 4303 C 421.005 1.79833 -1.03319 0
M  V30 4304 C 421.43 1.83504 0.413281 0
M  V30 4305 O 420.788 1.26635 1.29743 0
M  V30 4306 C 420.836 3.22396 -1.61533 0
M  V30 4307 O 419.94 4.03555 -0.849519 0
M  V30 4308 H 419.281 0.554872 -0.364709 0
M  V30 4309 H 421.811 1.28542 -1.59179 0
M  V30 4310 H 421.821 3.73124 -1.65054 0
M  V30 4311 H 420.496 3.19039 -2.66809 0
M  V30 4312 H 419.073 3.62169 -0.888129 0
M  V30 4313 N 421.258 1.00505 1.21394 0
M  V30 4314 C 422.507 0.683159 1.89778 0
M  V30 4315 C 422.82 -0.789471 1.7896 0
M  V30 4316 O 424.026 -1.22344 2.42372 0
M  V30 4317 C 422.482 1.17146 3.40301 0
M  V30 4318 C 422.09 2.67017 3.5973 0
M  V30 4319 C 423.834 0.924461 4.14311 0
M  V30 4320 C 421.741 3.09387 5.04017 0
M  V30 4321 H 420.671 0.25183 0.710702 0
M  V30 4322 H 423.322 1.21622 1.37406 0
M  V30 4323 H 421.704 0.566451 3.91928 0
M  V30 4324 H 422.878 3.32968 3.18542 0
M  V30 4325 H 421.193 2.89732 2.99073 0
M  V30 4326 H 423.79 1.21658 5.20676 0
M  V30 4327 H 424.133 -0.139286 4.16067 0
M  V30 4328 H 424.666 1.49226 3.6875 0
M  V30 4329 H 421.405 4.14989 5.07409 0
M  V30 4330 H 420.925 2.48149 5.46061 0
M  V30 4331 H 422.604 3.01371 5.72525 0
M  V30 4332 N 422.737 -1.36956 0.779787 0
M  V30 4333 C 424.014 -1.93697 0.272156 0
M  V30 4334 C 424.394 -1.71267 -1.23413 0
M  V30 4335 O 423.742 -1.06607 -2.02107 0
M  V30 4336 C 423.952 -3.42812 0.654291 0
M  V30 4337 C 425.3 -4.19921 0.628602 0
M  V30 4338 O 426.324 -3.51209 0.594172 0
M  V30 4339 O 425.183 -5.42465 0.662864 0
M  V30 4340 H 422.277 -0.824447 0.0649286 0
M  V30 4341 H 424.823 -1.46196 0.861682 0
M  V30 4342 H 423.595 -3.52754 1.69353 0
M  V30 4343 H 423.218 -3.97582 0.0381369 0
M  V30 4344 N 424.215 -0.530993 -1.48385 0
M  V30 4345 C 425.44 0.000729535 -2.074 0
M  V30 4346 C 425.865 1.27298 -1.3848 0
M  V30 4347 O 425.223 1.75599 -0.451081 0
M  V30 4348 C 425.271 0.206697 -3.60007 0
M  V30 4349 O 424.375 1.27514 -3.92191 0
M  V30 4350 H 423.716 -0.039583 -0.662819 0
M  V30 4351 H 426.246 -0.739194 -1.9078 0
M  V30 4352 H 426.256 0.42904 -4.05738 0
M  V30 4353 H 424.931 -0.722675 -4.09573 0
M  V30 4354 H 423.508 1.03537 -3.58238 0
M  V30 4355 N 425.693 1.55336 -0.266172 0
M  V30 4356 C 426.626 2.18256 0.666296 0
M  V30 4357 C 427.604 1.14064 1.1588 0
M  V30 4358 O 428.788 1.42546 1.23341 0
M  V30 4359 C 425.915 2.79867 1.90768 0
M  V30 4360 C 424.961 3.97283 1.55141 0
M  V30 4361 S 425.794 5.31694 0.637313 0
M  V30 4362 C 426.95 5.96769 1.88727 0
M  V30 4363 H 427.183 2.97008 0.131647 0
M  V30 4364 H 424.716 1.54317 -0.0504869 0
M  V30 4365 H 426.674 3.15996 2.62025 0
M  V30 4366 H 425.335 2.01025 2.41346 0
M  V30 4367 H 424.528 4.3905 2.4749 0
M  V30 4368 H 424.13 3.6253 0.919113 0
M  V30 4369 H 426.422 6.15458 2.83227 0
M  V30 4370 H 427.365 6.91752 1.51276 0
M  V30 4371 H 427.773 5.26034 2.04814 0
M  V30 4372 N 427.171 -0.0066808 1.57599 0
M  V30 4373 C 428.399 -0.704087 1.94551 0
M  V30 4374 C 428.814 -1.67677 0.867746 0
M  V30 4375 O 428.171 -1.8185 -0.153925 0
M  V30 4376 C 428.222 -1.44177 3.31505 0
M  V30 4377 O 427.943 -0.508097 4.35144 0
M  V30 4378 C 429.444 -2.23429 3.82876 0
M  V30 4379 H 426.664 -0.196523 0.641576 0
M  V30 4380 H 429.208 0.042453 2.04456 0
M  V30 4381 H 427.363 -2.13999 3.22929 0
M  V30 4382 H 427.777 -1.02782 5.14331 0
M  V30 4383 H 429.251 -2.70552 4.8115 0
M  V30 4384 H 429.728 -3.05818 3.15233 0
M  V30 4385 H 430.334 -1.58636 3.94607 0
M  V30 4386 N 428.649 -1.55105 -0.279332 0
M  V30 4387 C 429.596 -1.8755 -1.34513 0
M  V30 4388 C 430.566 -0.726384 -1.49375 0
M  V30 4389 O 431.751 -0.977063 -1.63884 0
M  V30 4390 C 428.891 -2.14738 -2.70151 0
M  V30 4391 C 428.004 -3.42285 -2.63562 0
M  V30 4392 C 427.139 -3.59206 -3.91337 0
M  V30 4393 C 426.178 -4.80467 -3.79233 0
M  V30 4394 N 425.315 -4.94079 -4.98829 0
M  V30 4395 H 430.155 -2.78456 -1.06143 0
M  V30 4396 H 427.692 -1.37867 -0.512936 0
M  V30 4397 H 429.65 -2.28501 -3.49061 0
M  V30 4398 H 428.28 -1.27075 -2.96735 0
M  V30 4399 H 427.332 -3.37029 -1.76397 0
M  V30 4400 H 428.644 -4.31328 -2.50515 0
M  V30 4401 H 427.798 -3.72751 -4.78687 0
M  V30 4402 H 426.537 -2.68337 -4.07243 0
M  V30 4403 H 425.542 -4.66932 -2.90266 0
M  V30 4404 H 426.767 -5.72765 -3.64852 0
M  V30 4405 H 424.713 -4.06139 -5.15158 0
M  V30 4406 H 424.63 -5.77156 -4.8829 0
M  V30 4407 H 425.898 -5.12003 -5.8777 0
M  V30 4408 N 430.127 0.543554 -1.4793 0
M  V30 4409 C 431.077 1.64527 -1.57844 0
M  V30 4410 C 432.061 1.54869 -0.436408 0
M  V30 4411 O 433.253 1.63119 -0.687101 0
M  V30 4412 C 430.382 3.03281 -1.6086 0
M  V30 4413 C 429.468 3.18093 -2.80495 0
M  V30 4414 N 429.859 3.02923 -4.05057 0
M  V30 4415 C 428.157 3.49121 -2.77543 0
M  V30 4416 C 428.858 3.20791 -4.85251 0
M  V30 4417 N 427.834 3.47749 -4.17818 0
M  V30 4418 H 431.636 1.51388 -2.5191 0
M  V30 4419 H 429.15 0.748671 -1.44113 0
M  V30 4420 H 431.147 3.82403 -1.66054 0
M  V30 4421 H 429.807 3.17521 -0.678996 0
M  V30 4422 H 430.818 2.79966 -4.35705 0
M  V30 4423 H 427.495 3.69804 -1.93781 0
M  V30 4424 H 428.885 3.13915 -5.9406 0
M  V30 4425 N 431.605 1.3629 0.791371 0
M  V30 4426 C 432.553 1.30514 1.92533 0
M  V30 4427 C 433.547 0.197285 1.68247 0
M  V30 4428 O 434.753 0.364176 1.76278 0
M  V30 4429 H 431.128 0.406263 0.632815 0
M  V30 4430 H 433.099 2.26282 1.94523 0
M  V30 4431 C 431.848 1.10933 3.29529 0
M  V30 4432 H 431.171 1.95427 3.48781 0
M  V30 4433 H 432.611 1.10937 4.0923 0
M  V30 4434 C 431.07 -0.186123 3.36385 0
M  V30 4435 O 431.6 -1.17664 3.84081 0
M  V30 4436 N 429.806 -0.230128 2.89687 0
M  V30 4437 H 429.353 0.576545 2.51065 0
M  V30 4438 H 429.311 -1.09658 2.94657 0
M  V30 4439 N 433.083 -1.0153 1.20538 0
M  V30 4440 C 434.031 -2.12215 0.952235 0
M  V30 4441 C 435.025 -1.69123 -0.0968735 0
M  V30 4442 O 436.231 -1.7992 0.0536006 0
M  V30 4443 H 432.606 -0.693576 0.290613 0
M  V30 4444 H 434.577 -2.3075 1.89201 0
M  V30 4445 C 433.326 -3.43755 0.522287 0
M  V30 4446 H 432.649 -3.7734 1.32115 0
M  V30 4447 H 434.089 -4.22254 0.384389 0
M  V30 4448 C 432.548 -3.28088 -0.765489 0
M  V30 4449 O 433.078 -3.57921 -1.8236 0
M  V30 4450 N 431.284 -2.81333 -0.728011 0
M  V30 4451 H 430.831 -2.57255 0.133332 0
M  V30 4452 H 430.789 -2.71232 -1.58999 0
M  V30 4453 N 434.561 -1.01147 -1.20859 0
M  V30 4454 C 435.807 -0.708598 -1.90658 0
M  V30 4455 C 436.162 0.753069 -1.7705 0
M  V30 4456 O 435.455 1.53952 -1.14059 0
M  V30 4457 C 435.649 -1.0727 -3.40922 0
M  V30 4458 C 435.478 -2.56821 -3.69152 0
M  V30 4459 C 434.248 -3.23524 -3.8815 0
M  V30 4460 C 436.446 -3.54997 -3.72131 0
M  V30 4461 N 434.428 -4.62359 -4.03853 0
M  V30 4462 C 435.799 -4.79371 -3.93196 0
M  V30 4463 C 437.854 -3.49042 -3.55069 0
M  V30 4464 C 436.557 -5.98512 -3.98969 0
M  V30 4465 C 438.583 -4.67579 -3.6211 0
M  V30 4466 C 437.945 -5.9076 -3.83643 0
M  V30 4467 H 434.044 -0.31088 -0.71755 0
M  V30 4468 H 436.628 -1.29526 -1.45366 0
M  V30 4469 H 434.799 -0.51443 -3.84978 0
M  V30 4470 H 436.531 -0.723891 -3.98173 0
M  V30 4471 H 433.286 -2.73958 -3.86321 0
M  V30 4472 H 433.71 -5.34427 -4.15592 0
M  V30 4473 H 438.352 -2.54808 -3.37391 0
M  V30 4474 H 436.07 -6.93132 -4.15444 0
M  V30 4475 H 439.656 -4.64581 -3.50222 0
M  V30 4476 H 438.536 -6.8095 -3.88944 0
M  V30 4477 N 436.039 1.36541 -0.78704 0
M  V30 4478 C 437.287 1.98911 -0.357633 0
M  V30 4479 C 437.608 1.62778 1.07371 0
M  V30 4480 O 436.878 0.900612 1.73971 0
M  V30 4481 H 435.458 0.735734 -0.129246 0
M  V30 4482 H 438.12 1.66776 -1.00855 0
M  V30 4483 H 437.216 3.08874 -0.447549 0
M  V30 4484 N 437.518 0.538854 1.48102 0
M  V30 4485 C 438.767 0.0059532 2.01699 0
M  V30 4486 C 439.08 -1.34476 1.42041 0
M  V30 4487 O 440.286 -1.96653 1.87189 0
M  V30 4488 C 438.742 -0.0397627 3.59878 0
M  V30 4489 C 438.35 1.30659 4.28523 0
M  V30 4490 C 440.094 -0.521024 4.2129 0
M  V30 4491 C 438.001 1.22098 5.78659 0
M  V30 4492 H 436.931 -0.00154456 0.753998 0
M  V30 4493 H 439.582 0.683963 1.70277 0
M  V30 4494 H 437.964 -0.783037 3.88181 0
M  V30 4495 H 439.138 2.06613 4.11883 0
M  V30 4496 H 437.453 1.7243 3.79021 0
M  V30 4497 H 440.05 -0.603184 5.31287 0
M  V30 4498 H 440.393 -1.52885 3.8721 0
M  V30 4499 H 440.926 0.166834 3.9745 0
M  V30 4500 H 437.665 2.20424 6.17328 0
M  V30 4501 H 437.185 0.50295 5.97688 0
M  V30 4502 H 438.864 0.915345 6.40492 0
M  V30 4503 N 438.996 -1.55193 0.274407 0
M  V30 4504 C 439.959 -2.212 -0.600279 0
M  V30 4505 C 440.959 -1.18963 -1.08187 0
M  V30 4506 O 442.149 -1.43873 -0.982158 0
M  V30 4507 C 439.281 -2.87739 -1.82809 0
M  V30 4508 H 440.474 -2.9989 -0.0239682 0
M  V30 4509 H 438.027 -1.5628 0.0250192 0
M  V30 4510 H 438.762 -2.13058 -2.44493 0
M  V30 4511 H 438.547 -3.62658 -1.49069 0
M  V30 4512 H 440.037 -3.38171 -2.45011 0
M  V30 4513 N 440.474 -0.00167713 -1.576 0
M  V30 4514 C 441.723 0.682021 -1.89819 0
M  V30 4515 C 442.036 1.74844 -0.876871 0
M  V30 4516 O 443.242 2.48688 -1.08934 0
M  V30 4517 C 441.698 1.26425 -3.36964 0
M  V30 4518 C 441.306 0.232568 -4.47396 0
M  V30 4519 C 443.05 1.92604 -3.78291 0
M  V30 4520 C 440.957 0.824882 -5.85619 0
M  V30 4521 H 439.887 0.258499 -0.708304 0
M  V30 4522 H 442.538 -0.0624957 -1.83394 0
M  V30 4523 H 440.92 2.05949 -3.38232 0
M  V30 4524 H 442.094 -0.5382 -4.57646 0
M  V30 4525 H 440.409 -0.32888 -4.15099 0
M  V30 4526 H 443.006 2.37827 -4.78897 0
M  V30 4527 H 443.349 2.75732 -3.11894 0
M  V30 4528 H 443.882 1.19812 -3.79328 0
M  V30 4529 H 440.621 0.0323542 -6.55492 0
M  V30 4530 H 440.141 1.56477 -5.79029 0
M  V30 4531 H 441.82 1.32301 -6.33329 0
M  V30 4532 N 441.952 1.55251 0.271103 0
M  V30 4533 C 442.882 1.9127 1.33933 0
M  V30 4534 C 443.863 0.77478 1.5143 0
M  V30 4535 O 445.048 1.03307 1.64442 0
M  V30 4536 C 442.178 2.18627 2.69851 0
M  V30 4537 C 441.132 3.34442 2.67081 0
M  V30 4538 C 440.458 3.47284 4.06569 0
M  V30 4539 C 441.758 4.70784 2.26185 0
M  V30 4540 H 443.452 2.80744 1.04035 0
M  V30 4541 H 440.998 1.35077 0.499017 0
M  V30 4542 H 442.951 2.42413 3.44694 0
M  V30 4543 H 441.675 1.25955 3.01335 0
M  V30 4544 H 440.334 3.10627 1.94695 0
M  V30 4545 H 439.982 2.52074 4.35279 0
M  V30 4546 H 439.682 4.25152 4.0561 0
M  V30 4547 H 441.206 3.73363 4.83148 0
M  V30 4548 H 442.62 4.94102 2.90751 0
M  V30 4549 H 441.017 5.51582 2.36384 0
M  V30 4550 H 442.087 4.69478 1.21319 0
M  V30 4551 N 443.43 -0.535701 1.48216 0
M  V30 4552 C 444.841 -1.11769 1.49548 0
M  V30 4553 C 445.192 -1.94442 0.26207 0
M  V30 4554 O 444.317 -2.06987 -0.631287 0
M  V30 4555 C 444.912 -2.03367 2.70975 0
M  V30 4556 C 443.471 -2.56795 2.75196 0
M  V30 4557 C 442.618 -1.33631 2.42977 0
M  V30 4558 H 445.569 -0.321232 1.55415 0
M  V30 4559 H 445.59 -2.87569 2.49167 0
M  V30 4560 H 445.102 -1.43169 3.60727 0
M  V30 4561 H 443.203 -3.20731 1.89638 0
M  V30 4562 H 443.316 -2.9632 3.76472 0
M  V30 4563 H 441.68 -1.6502 1.94012 0
M  V30 4564 H 442.463 -0.75194 3.34964 0
M  V30 4565 N 444.908 -1.36708 -0.784132 0
M  V30 4566 C 445.838 -1.34153 -1.91116 0
M  V30 4567 C 446.819 -0.212121 -1.68772 0
M  V30 4568 O 448.004 -0.410581 -1.8981 0
M  V30 4569 C 445.134 -1.13535 -3.28218 0
M  V30 4570 C 444.088 -2.23356 -3.65097 0
M  V30 4571 C 443.414 -1.87875 -5.00607 0
M  V30 4572 C 444.714 -3.65473 -3.73131 0
M  V30 4573 H 446.408 -2.28459 -1.93512 0
M  V30 4574 H 443.954 -1.09973 -0.929618 0
M  V30 4575 H 445.907 -1.10381 -4.06687 0
M  V30 4576 H 444.631 -0.156804 -3.26223 0
M  V30 4577 H 443.29 -2.25645 -2.88929 0
M  V30 4578 H 442.938 -0.885814 -4.95139 0
M  V30 4579 H 442.638 -2.61406 -5.26252 0
M  V30 4580 H 444.162 -1.86286 -5.81489 0
M  V30 4581 H 445.576 -3.65382 -4.41779 0
M  V30 4582 H 443.973 -4.37953 -4.10265 0
M  V30 4583 H 445.043 -3.99995 -2.74102 0
M  V30 4584 N 446.386 1.0089 -1.21074 0
M  V30 4585 C 447.349 2.0775 -0.968129 0
M  V30 4586 C 448.349 1.6069 0.0593445 0
M  V30 4587 O 449.539 1.73293 -0.177525 0
M  V30 4588 C 446.671 3.37794 -0.459108 0
M  V30 4589 H 447.864 2.30707 -1.9161 0
M  V30 4590 H 445.417 1.17807 -1.02719 0
M  V30 4591 H 446.152 3.20516 0.49397 0
M  V30 4592 H 445.937 3.7328 -1.20019 0
M  V30 4593 H 447.427 4.16454 -0.309099 0
M  V30 4594 N 447.864 1.01787 1.20321 0
M  V30 4595 C 449.275 0.739307 1.71438 0
M  V30 4596 C 449.626 -0.742041 1.81627 0
M  V30 4597 O 448.751 -1.57903 1.47971 0
M  V30 4598 C 449.346 1.33538 3.11373 0
M  V30 4599 C 447.905 1.10566 3.59795 0
M  V30 4600 C 447.052 1.44028 2.36962 0
M  V30 4601 H 450.003 1.18718 1.05317 0
M  V30 4602 H 450.024 0.726611 3.73498 0
M  V30 4603 H 449.536 2.41352 3.03926 0
M  V30 4604 H 447.637 0.0452405 3.72573 0
M  V30 4605 H 447.75 1.78661 4.44542 0
M  V30 4606 H 446.114 0.85933 2.39766 0
M  V30 4607 H 446.897 2.52901 2.32155 0
M  V30 4608 N 449.342 -1.36122 0.79427 0
M  V30 4609 C 450.272 -2.32551 0.210328 0
M  V30 4610 C 451.253 -1.56884 -0.657386 0
M  V30 4611 O 452.438 -1.85014 -0.590207 0
M  V30 4612 C 449.568 -3.41128 -0.651819 0
M  V30 4613 C 448.522 -4.27842 0.116395 0
M  V30 4614 C 447.848 -5.2763 -0.86666 0
M  V30 4615 C 449.148 -5.05647 1.30837 0
M  V30 4616 H 450.842 -2.81636 1.01594 0
M  V30 4617 H 448.388 -1.35407 0.489981 0
M  V30 4618 H 450.341 -4.07581 -1.07031 0
M  V30 4619 H 449.065 -2.90622 -1.49019 0
M  V30 4620 H 447.724 -3.62952 0.515915 0
M  V30 4621 H 447.372 -4.73395 -1.70019 0
M  V30 4622 H 447.072 -5.86514 -0.35705 0
M  V30 4623 H 448.596 -5.96955 -1.28361 0
M  V30 4624 H 450.01 -5.65113 0.965393 0
M  V30 4625 H 448.407 -5.73967 1.75161 0
M  V30 4626 H 449.477 -4.37006 2.10128 0
M  V30 4627 N 450.82 -0.546701 -1.47814 0
M  V30 4628 C 452.097 0.0464413 -1.95545 0
M  V30 4629 C 452.477 1.4962 -1.48919 0
M  V30 4630 O 451.825 2.16752 -0.723232 0
M  V30 4631 C 452.035 -0.0881298 -3.48889 0
M  V30 4632 C 453.383 0.0626059 -4.24554 0
M  V30 4633 O 454.407 -0.0151555 -3.56197 0
M  V30 4634 O 453.266 0.228071 -5.46024 0
M  V30 4635 H 450.36 0.0700004 -0.824032 0
M  V30 4636 H 452.906 -0.612482 -1.58262 0
M  V30 4637 H 451.678 -1.09737 -3.75597 0
M  V30 4638 H 451.301 0.608886 -3.9291 0
M  V30 4639 N 452.299 1.55045 -0.282633 0
M  V30 4640 C 453.546 1.9976 0.33199 0
M  V30 4641 C 453.874 1.17105 1.55295 0
M  V30 4642 O 453.129 0.230599 1.94337 0
M  V30 4643 C 453.428 3.49422 0.750938 0
M  V30 4644 C 453.094 4.4941 -0.366228 0
M  V30 4645 C 451.756 4.76471 -0.672964 0
M  V30 4646 C 454.108 5.09054 -1.11864 0
M  V30 4647 C 451.436 5.60442 -1.73556 0
M  V30 4648 C 453.788 5.9418 -2.17102 0
M  V30 4649 C 452.452 6.19558 -2.48402 0
M  V30 4650 H 451.722 0.730974 0.121484 0
M  V30 4651 H 454.369 1.8732 -0.39791 0
M  V30 4652 H 452.674 3.59377 1.56063 0
M  V30 4653 H 454.371 3.81432 1.23736 0
M  V30 4654 H 450.961 4.2844 -0.117041 0
M  V30 4655 H 455.145 4.88165 -0.894925 0
M  V30 4656 H 450.401 5.78349 -1.983 0
M  V30 4657 H 454.575 6.39427 -2.75873 0
M  V30 4658 H 452.202 6.84417 -3.30874 0
M  V30 4659 N 453.777 0.010035 1.57597 0
M  V30 4660 C 454.74 -0.963029 2.07986 0
M  V30 4661 C 455.74 -1.26619 0.991173 0
M  V30 4662 O 456.93 -1.2097 1.25347 0
M  V30 4663 C 454.062 -2.2851 2.52974 0
M  V30 4664 H 455.255 -0.526971 2.95234 0
M  V30 4665 H 452.808 -0.237639 1.54483 0
M  V30 4666 H 453.543 -2.76784 1.69 0
M  V30 4667 H 453.328 -2.07824 3.32493 0
M  V30 4668 H 454.818 -2.98294 2.9225 0
M  V30 4669 N 455.255 -1.55392 -0.262866 0
M  V30 4670 C 456.483 -1.80513 -1.01108 0
M  V30 4671 C 456.898 -0.583533 -1.79556 0
M  V30 4672 O 456.255 0.447585 -1.76926 0
M  V30 4673 C 456.306 -3.03648 -1.96164 0
M  V30 4674 O 456.027 -4.2109 -1.20893 0
M  V30 4675 C 457.528 -3.41448 -2.82715 0
M  V30 4676 H 454.748 -0.601079 -0.298236 0
M  V30 4677 H 457.292 -2.02425 -0.290582 0
M  V30 4678 H 455.447 -2.83832 -2.63663 0
M  V30 4679 H 455.861 -4.90771 -1.85051 0
M  V30 4680 H 457.335 -4.30751 -3.45192 0
M  V30 4681 H 457.812 -2.61308 -3.53008 0
M  V30 4682 H 458.418 -3.63559 -2.20693 0
M  V30 4683 N 456.733 0.527833 -1.48498 0
M  V30 4684 C 457.643 1.65907 -1.65867 0
M  V30 4685 C 458.659 1.6537 -0.541192 0
M  V30 4686 O 459.835 1.84282 -0.812534 0
M  V30 4687 C 456.9 3.02364 -1.69637 0
M  V30 4688 C 455.961 3.1374 -2.93028 0
M  V30 4689 C 455.194 4.43688 -2.96609 0
M  V30 4690 O 455.417 5.30913 -2.08538 0
M  V30 4691 O 454.351 4.59475 -3.88802 0
M  V30 4692 H 458.177 1.5419 -2.61647 0
M  V30 4693 H 455.762 0.701163 -1.31924 0
M  V30 4694 H 457.644 3.83515 -1.74625 0
M  V30 4695 H 456.319 3.14401 -0.770312 0
M  V30 4696 H 455.226 2.31877 -2.93571 0
M  V30 4697 H 456.559 3.06621 -3.85026 0
M  V30 4698 N 458.211 1.37122 0.776871 0
M  V30 4699 C 459.436 1.354 1.57104 0
M  V30 4700 C 459.861 -0.0595562 1.88006 0
M  V30 4701 O 459.219 -1.03514 1.48844 0
M  V30 4702 C 459.267 2.19472 2.8612 0
M  V30 4703 O 458.371 1.59582 3.80273 0
M  V30 4704 H 457.712 0.462869 0.476076 0
M  V30 4705 H 460.242 1.80577 0.961932 0
M  V30 4706 H 460.252 2.32502 3.35271 0
M  V30 4707 H 458.927 3.22222 2.62956 0
M  V30 4708 H 457.504 1.55564 3.38902 0
M  V30 4709 N 459.689 -1.00246 1.21608 0
M  V30 4710 C 460.914 -1.78167 1.06167 0
M  V30 4711 C 461.339 -1.84138 -0.384035 0
M  V30 4712 O 460.697 -1.28683 -1.27712 0
M  V30 4713 C 460.745 -3.19786 1.66642 0
M  V30 4714 O 459.849 -4.02153 0.913613 0
M  V30 4715 H 459.19 -0.549 0.37349 0
M  V30 4716 H 461.72 -1.25994 1.61204 0
M  V30 4717 H 461.73 -3.70451 1.70969 0
M  V30 4718 H 460.405 -3.14754 2.7185 0
M  V30 4719 H 458.982 -3.60711 0.945635 0
M  V30 4720 N 461.167 -1.02423 -1.1978 0
M  V30 4721 C 462.395 -0.737456 -1.93311 0
M  V30 4722 C 462.81 0.703023 -1.75223 0
M  V30 4723 O 462.167 1.47761 -1.07112 0
M  V30 4724 C 462.218 -1.0733 -3.45199 0
M  V30 4725 O 461.939 -2.4572 -3.62702 0
M  V30 4726 C 463.44 -0.80866 -4.35862 0
M  V30 4727 H 460.66 -0.2702 -0.614193 0
M  V30 4728 H 463.204 -1.36747 -1.52054 0
M  V30 4729 H 461.359 -0.488545 -3.84307 0
M  V30 4730 H 461.773 -2.58081 -4.56612 0
M  V30 4731 H 463.247 -1.09365 -5.41057 0
M  V30 4732 H 463.724 0.257025 -4.38447 0
M  V30 4733 H 464.33 -1.37592 -4.02428 0
M  V30 4734 N 462.645 1.35699 -0.801477 0
M  V30 4735 C 463.555 2.33661 -0.209691 0
M  V30 4736 C 464.571 1.6162 0.644591 0
M  V30 4737 O 465.747 1.93529 0.557545 0
M  V30 4738 C 462.812 3.40816 0.636033 0
M  V30 4739 C 461.873 4.28639 -0.238147 0
M  V30 4740 C 461.106 5.30676 0.567307 0
M  V30 4741 O 461.329 5.41174 1.8024 0
M  V30 4742 O 460.263 6.01887 -0.0391336 0
M  V30 4743 H 464.089 2.8606 -1.01996 0
M  V30 4744 H 461.674 1.38379 -0.563164 0
M  V30 4745 H 463.556 4.06301 1.11791 0
M  V30 4746 H 462.231 2.90696 1.42399 0
M  V30 4747 H 461.138 3.66152 -0.767044 0
M  V30 4748 H 462.471 4.82143 -0.989915 0
M  V30 4749 N 464.123 0.554532 1.47522 0
M  V30 4750 C 465.372 0.0273458 2.01681 0
M  V30 4751 C 465.685 -1.32962 1.43459 0
M  V30 4752 O 466.891 -1.94657 1.89265 0
M  V30 4753 C 465.347 -0.00159057 3.599 0
M  V30 4754 C 464.955 1.35197 4.27113 0
M  V30 4755 C 466.699 -0.476311 4.21819 0
M  V30 4756 C 464.606 1.28229 5.77331 0
M  V30 4757 H 463.536 0.00645269 0.753972 0
M  V30 4758 H 466.187 0.701985 1.69542 0
M  V30 4759 H 464.569 -0.741821 3.8899 0
M  V30 4760 H 465.743 2.1097 4.09668 0
M  V30 4761 H 464.058 1.76441 3.77171 0
M  V30 4762 H 466.655 -0.5468 5.31897 0
M  V30 4763 H 466.998 -1.4877 3.8881 0
M  V30 4764 H 467.531 0.20898 3.97251 0
M  V30 4765 H 464.27 2.26959 6.14955 0
M  V30 4766 H 463.79 0.566314 5.97121 0
M  V30 4767 H 465.469 0.983226 6.39485 0
M  V30 4768 N 465.601 -1.54893 0.290851 0
M  V30 4769 C 467.012 -1.85584 -0.203816 0
M  V30 4770 C 467.363 -1.21285 -1.54222 0
M  V30 4771 O 466.488 -0.506841 -2.10381 0
M  V30 4772 C 467.083 -3.367 -0.376595 0
M  V30 4773 C 465.642 -3.6746 -0.815485 0
M  V30 4774 C 464.789 -2.77178 0.0821087 0
M  V30 4775 H 467.74 -1.50208 0.512175 0
M  V30 4776 H 467.761 -3.60656 -1.21275 0
M  V30 4777 H 467.273 -3.8347 0.59767 0
M  V30 4778 H 465.374 -3.26201 -1.80066 0
M  V30 4779 H 465.487 -4.7478 -0.641905 0
M  V30 4780 H 463.851 -2.50925 -0.436895 0
M  V30 4781 H 464.634 -3.26767 1.05254 0
M  V30 4782 N 467.08 -0.0183926 -1.57589 0
M  V30 4783 C 468.329 0.66185 -1.90532 0
M  V30 4784 C 468.642 1.73904 -0.895366 0
M  V30 4785 O 469.848 2.47518 -1.11566 0
M  V30 4786 C 468.304 1.22844 -3.38286 0
M  V30 4787 C 467.912 0.185103 -4.47617 0
M  V30 4788 C 469.656 1.88581 -3.80312 0
M  V30 4789 C 467.563 0.762723 -5.86461 0
M  V30 4790 H 466.493 0.250972 -0.711006 0
M  V30 4791 H 469.144 -0.0819435 -1.83317 0
M  V30 4792 H 467.526 2.0235 -3.40398 0
M  V30 4793 H 468.7 -0.58671 -4.5705 0
M  V30 4794 H 467.015 -0.372889 -4.14727 0
M  V30 4795 H 469.612 2.32735 -4.81392 0
M  V30 4796 H 469.955 2.72408 -3.14801 0
M  V30 4797 H 470.488 1.15782 -3.80578 0
M  V30 4798 H 467.227 -0.0371713 -6.55489 0
M  V30 4799 H 466.747 1.50327 -5.80656 0
M  V30 4800 H 468.426 1.25576 -6.34697 0
M  V30 4801 N 468.558 1.5553 0.254621 0
M  V30 4802 C 469.786 1.81046 1.00149 0
M  V30 4803 C 470.201 0.593047 1.79244 0
M  V30 4804 O 469.558 -0.438196 1.77161 0
M  V30 4805 C 469.609 3.04684 1.94551 0
M  V30 4806 O 469.33 4.21725 1.18658 0
M  V30 4807 C 470.831 3.42943 2.80901 0
M  V30 4808 H 468.051 0.602653 0.295044 0
M  V30 4809 H 470.595 2.02576 0.279842 0
M  V30 4810 H 468.75 2.85226 2.62154 0
M  V30 4811 H 469.164 4.91746 1.82445 0
M  V30 4812 H 470.638 4.32576 3.42902 0
M  V30 4813 H 471.115 2.63176 3.51617 0
M  V30 4814 H 471.721 3.64724 2.18762 0
M  V30 4815 N 470.036 -0.519951 1.48776 0
M  V30 4816 C 470.966 -1.63253 1.66945 0
M  V30 4817 C 471.947 -1.62014 0.518224 0
M  V30 4818 O 473.132 -1.79053 0.751919 0
M  V30 4819 C 470.262 -3.0181 1.71836 0
M  V30 4820 C 469.216 -3.17911 2.8656 0
M  V30 4821 C 468.542 -4.5763 2.76548 0
M  V30 4822 C 469.842 -2.99729 4.27738 0
M  V30 4823 H 471.536 -1.48302 2.6009 0
M  V30 4824 H 469.082 -0.712026 1.25165 0
M  V30 4825 H 471.035 -3.79525 1.83135 0
M  V30 4826 H 469.759 -3.17806 0.752775 0
M  V30 4827 H 468.418 -2.42616 2.74833 0
M  V30 4828 H 468.066 -4.70476 1.77937 0
M  V30 4829 H 467.766 -4.69346 3.53536 0
M  V30 4830 H 469.29 -5.37431 2.89828 0
M  V30 4831 H 470.704 -3.67228 4.40246 0
M  V30 4832 H 469.101 -3.22932 5.05801 0
M  V30 4833 H 470.171 -1.96047 4.43502 0
M  V30 4834 N 471.514 -1.37532 -0.769588 0
M  V30 4835 C 472.742 -1.36059 -1.55871 0
M  V30 4836 C 473.157 0.053544 -1.88724 0
M  V30 4837 O 472.514 1.01591 -1.5161 0
M  V30 4838 C 472.565 -2.20107 -2.86767 0
M  V30 4839 O 472.286 -3.56009 -2.55321 0
M  V30 4840 C 473.787 -2.26636 -3.80987 0
M  V30 4841 H 471.007 -0.465967 -0.482821 0
M  V30 4842 H 473.551 -1.80901 -0.953686 0
M  V30 4843 H 471.706 -1.78768 -3.43687 0
M  V30 4844 H 472.12 -4.0009 -3.39158 0
M  V30 4845 H 473.594 -2.89763 -4.69831 0
M  V30 4846 H 474.071 -1.2754 -4.20274 0
M  V30 4847 H 474.677 -2.68296 -3.29996 0
M  V30 4848 N 472.992 0.995999 -1.22138 0
M  V30 4849 C 474.241 1.72928 -1.03821 0
M  V30 4850 C 474.554 1.90872 0.427444 0
M  V30 4851 O 475.76 2.61496 0.730212 0
M  V30 4852 C 474.216 3.11124 -1.80913 0
M  V30 4853 C 473.824 3.01122 -3.31707 0
M  V30 4854 C 475.568 3.8852 -1.71035 0
M  V30 4855 C 473.475 4.34453 -4.01253 0
M  V30 4856 H 472.405 0.648376 -0.384869 0
M  V30 4857 H 475.056 1.11213 -1.45959 0
M  V30 4858 H 473.438 3.73503 -1.31573 0
M  V30 4859 H 474.612 2.47926 -3.88419 0
M  V30 4860 H 472.927 2.3721 -3.42228 0
M  V30 4861 H 475.524 4.872 -2.20318 0
M  V30 4862 H 475.867 4.1087 -0.670196 0
M  V30 4863 H 476.4 3.32812 -2.17902 0
M  V30 4864 H 473.139 4.17303 -5.05508 0
M  V30 4865 H 472.659 4.87574 -3.49331 0
M  V30 4866 H 474.338 5.03215 -4.06674 0
M  V30 4867 N 474.47 1.03057 1.19235 0
M  V30 4868 C 475.433 0.617418 2.20727 0
M  V30 4869 C 476.433 -0.319856 1.57587 0
M  V30 4870 O 477.623 -0.106633 1.73873 0
M  V30 4871 C 474.755 -0.096296 3.40764 0
M  V30 4872 H 475.948 1.51544 2.58794 0
M  V30 4873 H 473.501 0.821949 1.32942 0
M  V30 4874 H 474.236 -1.00859 3.08217 0
M  V30 4875 H 474.021 0.577217 3.87828 0
M  V30 4876 H 475.511 -0.372219 4.15938 0
M  V30 4877 N 475.948 -1.35272 0.808662 0
M  V30 4878 C 477.359 -1.81179 0.450688 0
M  V30 4879 C 477.71 -1.67143 -1.02751 0
M  V30 4880 O 476.835 -1.20325 -1.79864 0
M  V30 4881 C 477.43 -3.28943 0.811275 0
M  V30 4882 C 475.989 -3.72985 0.505871 0
M  V30 4883 C 475.136 -2.57229 1.03578 0
M  V30 4884 H 478.087 -1.2322 1.00012 0
M  V30 4885 H 478.108 -3.80342 0.109588 0
M  V30 4886 H 477.62 -3.39127 1.88718 0
M  V30 4887 H 475.721 -3.68349 -0.561209 0
M  V30 4888 H 475.834 -4.67677 1.03995 0
M  V30 4889 H 474.198 -2.50548 0.458005 0
M  V30 4890 H 474.981 -2.7019 2.11784 0
M  V30 4891 N 477.426 -0.562348 -1.47226 0
M  V30 4892 C 478.359 0.230405 -2.27034 0
M  V30 4893 C 479.337 0.915609 -1.3437 0
M  V30 4894 O 480.521 0.933573 -1.63758 0
M  V30 4895 C 477.648 1.32874 -3.11548 0
M  V30 4896 C 476.694 0.751552 -4.19826 0
M  V30 4897 S 477.527 -0.405848 -5.3396 0
M  V30 4898 C 478.683 0.694186 -6.22038 0
M  V30 4899 H 478.916 -0.446811 -2.93923 0
M  V30 4900 H 476.449 -0.348781 -1.50409 0
M  V30 4901 H 478.407 1.95773 -3.60809 0
M  V30 4902 H 477.068 1.97782 -2.44011 0
M  V30 4903 H 476.261 1.57651 -4.78709 0
M  V30 4904 H 475.863 0.198645 -3.73472 0
M  V30 4905 H 478.155 1.58501 -6.58698 0
M  V30 4906 H 479.098 0.142592 -7.07956 0
M  V30 4907 H 479.506 0.989169 -5.55766 0
M  V30 4908 N 478.904 1.54736 -0.299062 0
M  V30 4909 C 480.144 2.0201 0.31168 0
M  V30 4910 C 480.508 1.18281 1.5124 0
M  V30 4911 O 481.709 1.55243 2.19438 0
M  V30 4912 C 479.98 3.5123 0.661227 0
M  V30 4913 S 481.539 4.20467 1.2551 0
M  V30 4914 H 478.357 0.704523 0.0957517 0
M  V30 4915 H 480.959 1.90791 -0.426482 0
M  V30 4916 H 479.663 4.09804 -0.221171 0
M  V30 4917 H 479.194 3.66481 1.43023 0
M  V30 4918 H 481.209 4.26083 2.54298 0
M  V30 4919 N 480.382 0.0267497 1.57577 0
M  V30 4920 C 481.622 -0.65659 1.93567 0
M  V30 4921 C 481.986 -1.69429 0.903213 0
M  V30 4922 O 483.187 -2.42994 1.14923 0
M  V30 4923 C 481.458 -1.25912 3.34486 0
M  V30 4924 S 483.017 -1.96386 3.924 0
M  V30 4925 H 479.835 -0.216237 0.67732 0
M  V30 4926 H 482.437 0.0898475 1.95293 0
M  V30 4927 H 481.141 -0.491405 4.07447 0
M  V30 4928 H 480.672 -2.04291 3.36198 0
M  V30 4929 H 482.687 -3.24202 3.75643 0
M  V30 4930 N 481.861 -1.55662 -0.24637 0
M  V30 4931 C 482.771 -1.93495 -1.32653 0
M  V30 4932 C 483.787 -0.835462 -1.5263 0
M  V30 4933 O 484.963 -1.1369 -1.66242 0
M  V30 4934 C 482.028 -2.22242 -2.66101 0
M  V30 4935 C 481.089 -3.45625 -2.54641 0
M  V30 4936 C 480.322 -3.72991 -3.81724 0
M  V30 4937 O 480.545 -3.02421 -4.8363 0
M  V30 4938 O 479.479 -4.66515 -3.80325 0
M  V30 4939 H 483.305 -2.85498 -1.03559 0
M  V30 4940 H 480.89 -1.42551 -0.44717 0
M  V30 4941 H 482.772 -2.42037 -3.44958 0
M  V30 4942 H 481.447 -1.33417 -2.94926 0
M  V30 4943 H 480.354 -3.31136 -1.74067 0
M  V30 4944 H 481.687 -4.34754 -2.3076 0
M  V30 4945 N 483.339 0.512053 -1.4905 0
M  V30 4946 C 484.586 1.26686 -1.57978 0
M  V30 4947 C 484.914 1.92733 -0.261553 0
M  V30 4948 O 484.169 1.80772 0.749667 0
M  V30 4949 C 484.468 2.36446 -2.68008 0
M  V30 4950 C 484.134 1.87932 -4.09869 0
M  V30 4951 C 482.796 1.74419 -4.48477 0
M  V30 4952 C 485.148 1.5149 -4.98698 0
M  V30 4953 C 482.476 1.22827 -5.73699 0
M  V30 4954 C 484.828 1.01355 -6.24428 0
M  V30 4955 C 483.492 0.864735 -6.61875 0
M  V30 4956 H 482.762 0.463577 -0.578081 0
M  V30 4957 H 485.409 0.569421 -1.82838 0
M  V30 4958 H 483.714 3.11933 -2.37076 0
M  V30 4959 H 485.411 2.9453 -2.72127 0
M  V30 4960 H 482.001 1.99405 -3.79389 0
M  V30 4961 H 486.185 1.60782 -4.69535 0
M  V30 4962 H 481.441 1.10008 -6.01422 0
M  V30 4963 H 485.615 0.722351 -6.92644 0
M  V30 4964 H 483.242 0.462777 -7.5879 0
M  V30 4965 N 484.817 1.37938 0.762283 0
M  V30 4966 C 485.765 1.34569 1.89721 0
M  V30 4967 C 486.759 0.232929 1.67791 0
M  V30 4968 O 487.965 0.401485 1.75465 0
M  V30 4969 H 484.34 0.419594 0.624055 0
M  V30 4970 H 486.311 2.30357 1.8968 0
M  V30 4971 C 485.06 1.17898 3.27101 0
M  V30 4972 H 484.383 2.02781 3.44558 0
M  V30 4973 H 485.823 1.19593 4.06784 0
M  V30 4974 C 484.282 -0.114728 3.36705 0
M  V30 4975 O 484.812 -1.0949 3.8649 0
M  V30 4976 N 483.018 -0.16863 2.9011 0
M  V30 4977 H 482.565 0.62967 2.49786 0
M  V30 4978 H 482.523 -1.03383 2.96916 0
M  V30 4979 N 486.295 -0.989507 1.22664 0
M  V30 4980 C 487.543 -1.72612 1.05117 0
M  V30 4981 C 487.864 -1.90552 -0.414131 0
M  V30 4982 O 487.134 -1.4676 -1.29762 0
M  V30 4983 H 485.714 -0.639555 0.385977 0
M  V30 4984 H 488.376 -1.19158 1.54232 0
M  V30 4985 H 487.472 -2.71926 1.53175 0
M  V30 4986 N 487.773 -1.03688 -1.18687 0
M  V30 4987 C 488.703 -0.645407 -2.24403 0
M  V30 4988 C 489.684 0.349511 -1.66471 0
M  V30 4989 O 490.869 0.230453 -1.92828 0
M  V30 4990 C 487.999 -0.00365337 -3.473 0
M  V30 4991 C 486.953 -0.921705 -4.17958 0
M  V30 4992 C 486.279 -0.144629 -5.34504 0
M  V30 4993 C 487.579 -2.23909 -4.71871 0
M  V30 4994 H 489.273 -1.52917 -2.57404 0
M  V30 4995 H 486.819 -0.736711 -1.23728 0
M  V30 4996 H 488.772 0.281908 -4.20456 0
M  V30 4997 H 487.496 0.914963 -3.13522 0
M  V30 4998 H 486.155 -1.19159 -3.46694 0
M  V30 4999 H 485.803 0.776274 -4.96974 0
M  V30 5000 H 485.503 -0.756206 -5.82714 0
M  V30 5001 H 487.027 0.134004 -6.10453 0
M  V30 5002 H 488.441 -2.0145 -5.36741 0
M  V30 5003 H 486.838 -2.8033 -5.30599 0
M  V30 5004 H 487.908 -2.88822 -3.895 0
M  V30 5005 N 489.251 1.34841 -0.815825 0
M  V30 5006 C 490.667 1.51543 -0.500697 0
M  V30 5007 C 490.867 1.76261 0.976444 0
M  V30 5008 O 489.923 1.8094 1.76117 0
M  V30 5009 C 491.236 2.68487 -1.35407 0
M  V30 5010 C 492.784 2.82368 -1.35046 0
M  V30 5011 C 493.259 4.02347 -2.18816 0
M  V30 5012 N 494.75 4.09542 -2.16402 0
M  V30 5013 C 495.485 5.01517 -2.77971 0
M  V30 5014 N 494.981 5.98763 -3.48503 0
M  V30 5015 N 496.774 4.94334 -2.67563 0
M  V30 5016 H 488.925 1.17055 -1.77234 0
M  V30 5017 H 491.188 0.573481 -0.754866 0
M  V30 5018 H 490.894 2.56829 -2.40274 0
M  V30 5019 H 490.768 3.63321 -1.01377 0
M  V30 5020 H 493.155 2.93471 -0.309604 0
M  V30 5021 H 493.236 1.88363 -1.73069 0
M  V30 5022 H 492.88 3.92004 -3.22948 0
M  V30 5023 H 492.81 4.95551 -1.78148 0
M  V30 5024 H 495.301 3.39932 -1.65091 0
M  V30 5025 H 495.614 6.6556 -3.92747 0
M  V30 5026 H 493.959 5.98909 -3.52609 0
M  V30 5027 H 497.15 4.1732 -2.12041 0
M  V30 5028 H 497.323 5.6582 -3.15834 0
M  V30 5029 N 490.729 0.570148 1.46925 0
M  V30 5030 C 491.677 -0.183181 2.31878 0
M  V30 5031 C 492.671 -0.896721 1.43719 0
M  V30 5032 O 493.877 -0.816536 1.60414 0
M  V30 5033 H 490.252 -0.077944 0.74795 0
M  V30 5034 H 492.223 0.552312 2.93244 0
M  V30 5035 C 490.972 -1.19172 3.2664 0
M  V30 5036 H 490.295 -0.652088 3.94446 0
M  V30 5037 H 491.735 -1.68946 3.88887 0
M  V30 5038 C 490.194 -2.24627 2.51086 0
M  V30 5039 O 490.724 -3.31773 2.26472 0
M  V30 5040 N 488.93 -1.98898 2.11867 0
M  V30 5041 H 488.477 -1.11777 2.32086 0
M  V30 5042 H 488.435 -2.6967 1.61634 0
M  V30 5043 N 492.207 -1.54576 0.307264 0
M  V30 5044 C 493.456 -1.99442 -0.300976 0
M  V30 5045 C 493.769 -1.19928 -1.5452 0
M  V30 5046 O 494.975 -1.55092 -2.22842 0
M  V30 5047 C 493.431 -3.55084 -0.586809 0
M  V30 5048 C 493.039 -4.43413 0.639438 0
M  V30 5049 C 494.783 -4.0846 -1.1559 0
M  V30 5050 C 492.69 -5.90499 0.326411 0
M  V30 5051 H 491.62 -0.744986 -0.116238 0
M  V30 5052 H 494.271 -1.787 0.416947 0
M  V30 5053 H 492.653 -3.71749 -1.36449 0
M  V30 5054 H 493.827 -4.38522 1.41545 0
M  V30 5055 H 492.142 -4.00842 1.1276 0
M  V30 5056 H 494.739 -5.15926 -1.40445 0
M  V30 5057 H 495.082 -3.59443 -2.10015 0
M  V30 5058 H 495.615 -3.95362 -0.439778 0
M  V30 5059 H 492.354 -6.43676 1.23939 0
M  V30 5060 H 491.874 -5.98382 -0.412212 0
M  V30 5061 H 493.553 -6.46962 -0.0697393 0
M  V30 5062 N 493.685 -0.035106 -1.57561 0
M  V30 5063 C 494.913 0.652258 -1.9635 0
M  V30 5064 C 495.328 1.65317 -0.911897 0
M  V30 5065 O 494.685 1.82194 0.105657 0
M  V30 5066 C 494.736 1.35337 -3.35211 0
M  V30 5067 O 494.457 0.392548 -4.36338 0
M  V30 5068 C 495.958 2.13199 -3.88666 0
M  V30 5069 H 493.178 0.179444 -0.646561 0
M  V30 5070 H 495.722 -0.0966459 -2.04271 0
M  V30 5071 H 493.877 2.05362 -3.28489 0
M  V30 5072 H 494.291 0.891097 -5.16875 0
M  V30 5073 H 495.765 2.577 -4.88154 0
M  V30 5074 H 496.242 2.97353 -3.23231 0
M  V30 5075 H 496.848 1.48118 -3.98674 0
M  V30 5076 N 495.163 1.55791 0.238111 0
M  V30 5077 C 496.409 1.78297 0.966337 0
M  V30 5078 C 496.742 0.601903 1.84637 0
M  V30 5079 O 496.017 -0.399499 1.90353 0
M  V30 5080 C 496.3 3.10758 1.81939 0
M  V30 5081 C 496.153 4.39283 0.966958 0
M  V30 5082 C 497.472 3.39519 2.80027 0
M  V30 5083 H 494.591 0.648654 0.349882 0
M  V30 5084 H 497.233 1.88525 0.236253 0
M  V30 5085 H 495.383 3.02168 2.44185 0
M  V30 5086 H 497.055 4.59873 0.362514 0
M  V30 5087 H 495.298 4.32948 0.271669 0
M  V30 5088 H 495.969 5.28368 1.59784 0
M  V30 5089 H 498.445 3.48128 2.27917 0
M  V30 5090 H 497.321 4.33402 3.36829 0
M  V30 5091 H 497.582 2.60864 3.56934 0
M  V30 5092 N 496.642 -0.504142 1.49319 0
M  V30 5093 C 498.053 -1.08572 1.51885 0
M  V30 5094 C 498.404 -1.93842 0.303255 0
M  V30 5095 O 497.529 -2.0828 -0.58724 0
M  V30 5096 C 498.124 -1.97574 2.75227 0
M  V30 5097 C 496.683 -2.509 2.80581 0
M  V30 5098 C 495.83 -1.28447 2.45757 0
M  V30 5099 H 498.781 -0.288194 1.56061 0
M  V30 5100 H 498.802 -2.82219 2.55211 0
M  V30 5101 H 498.314 -1.35486 3.63683 0
M  V30 5102 H 496.415 -3.16636 1.96398 0
M  V30 5103 H 496.528 -2.88268 3.82673 0
M  V30 5104 H 494.892 -1.60868 1.97468 0
M  V30 5105 H 495.675 -0.68072 3.36483 0
M  V30 5106 N 498.12 -1.38341 -0.754957 0
M  V30 5107 C 499.536 -1.19508 -1.05783 0
M  V30 5108 C 499.736 -0.0428005 -2.01455 0
M  V30 5109 O 498.792 0.611861 -2.44975 0
M  V30 5110 C 500.105 -2.52091 -1.63923 0
M  V30 5111 C 501.653 -2.58762 -1.76101 0
M  V30 5112 C 502.128 -3.91517 -2.37652 0
M  V30 5113 N 503.619 -3.93049 -2.45085 0
M  V30 5114 C 504.354 -4.9253 -2.93602 0
M  V30 5115 N 503.85 -6.02408 -3.42165 0
M  V30 5116 N 505.643 -4.79921 -2.92629 0
M  V30 5117 H 497.794 -2.1206 -0.120056 0
M  V30 5118 H 500.057 -0.94089 -0.11589 0
M  V30 5119 H 499.763 -3.36858 -1.01093 0
M  V30 5120 H 499.637 -2.70388 -2.63003 0
M  V30 5121 H 502.024 -1.74391 -2.38058 0
M  V30 5122 H 502.105 -2.44333 -0.757294 0
M  V30 5123 H 501.749 -4.76309 -1.76329 0
M  V30 5124 H 501.679 -4.03256 -3.38662 0
M  V30 5125 H 504.17 -3.13685 -2.10736 0
M  V30 5126 H 504.483 -6.74248 -3.77637 0
M  V30 5127 H 502.828 -6.0603 -3.40225 0
M  V30 5128 H 506.019 -3.93194 -2.54001 0
M  V30 5129 H 506.192 -5.57601 -3.30128 0
M  V30 5130 N 499.598 0.982988 -1.23187 0
M  V30 5131 C 500.826 1.75921 -1.08901 0
M  V30 5132 C 501.241 1.85341 0.359719 0
M  V30 5133 O 500.598 1.33072 1.24892 0
M  V30 5134 C 500.649 3.18742 -1.70545 0
M  V30 5135 O 500.37 3.09814 -3.09753 0
M  V30 5136 C 501.871 4.1277 -1.61667 0
M  V30 5137 H 499.091 0.552166 -0.381252 0
M  V30 5138 H 501.635 1.23516 -1.62985 0
M  V30 5139 H 499.79 3.68182 -1.20501 0
M  V30 5140 H 500.204 3.99703 -3.39614 0
M  V30 5141 H 501.678 5.10697 -2.09506 0
M  V30 5142 H 502.155 4.3542 -0.575009 0
M  V30 5143 H 502.761 3.69232 -2.11064 0
M  V30 5144 N 501.076 1.04316 1.18135 0
M  V30 5145 C 502.008 0.594444 2.21357 0
M  V30 5146 C 503.021 -0.337215 1.59269 0
M  V30 5147 O 504.21 -0.131337 1.78016 0
M  V30 5148 C 501.31 -0.151251 3.38562 0
M  V30 5149 C 500.483 0.788907 4.30227 0
M  V30 5150 C 499.542 0.0860572 5.2613 0
M  V30 5151 O 498.568 0.717302 5.64662 0
M  V30 5152 N 499.77 -1.17969 5.68387 0
M  V30 5153 H 502.535 1.48227 2.60478 0
M  V30 5154 H 500.096 0.92396 1.32946 0
M  V30 5155 H 502.088 -0.631352 3.99745 0
M  V30 5156 H 500.658 -0.940639 2.98112 0
M  V30 5157 H 499.878 1.44882 3.6661 0
M  V30 5158 H 501.166 1.42738 4.88368 0
M  V30 5159 H 500.564 -1.71302 5.3914 0
M  V30 5160 H 499.121 -1.60402 6.31755 0
M  V30 5161 N 502.554 -1.34406 0.822964 0
M  V30 5162 C 503.802 -1.97892 0.410245 0
M  V30 5163 C 504.123 -1.65567 -1.03017 0
M  V30 5164 O 503.393 -0.94642 -1.71522 0
M  V30 5165 H 501.973 -0.732049 0.148707 0
M  V30 5166 H 504.635 -1.64043 1.05242 0
M  V30 5167 H 503.731 -3.07579 0.529284 0
M  V30 5168 N 504.032 -0.577932 -1.46621 0
M  V30 5169 C 504.962 0.145917 -2.33044 0
M  V30 5170 C 505.943 0.888412 -1.45056 0
M  V30 5171 O 507.128 0.864812 -1.73881 0
M  V30 5172 C 504.258 1.16322 -3.27241 0
M  V30 5173 C 503.212 0.535868 -4.24632 0
M  V30 5174 C 502.538 1.65929 -5.08303 0
M  V30 5175 C 503.838 -0.523861 -5.19666 0
M  V30 5176 H 505.532 -0.575636 -2.93814 0
M  V30 5177 H 503.078 -0.278272 -1.41286 0
M  V30 5178 H 505.031 1.67793 -3.86553 0
M  V30 5179 H 503.755 1.91498 -2.64567 0
M  V30 5180 H 502.414 0.0422759 -3.66576 0
M  V30 5181 H 502.062 2.40061 -4.42018 0
M  V30 5182 H 501.762 1.2452 -5.74255 0
M  V30 5183 H 503.286 2.17686 -5.70478 0
M  V30 5184 H 504.7 -0.0944059 -5.73222 0
M  V30 5185 H 503.097 -0.858 -5.93935 0
M  V30 5186 H 504.167 -1.41197 -4.63887 0
M  V30 5187 N 505.51 1.54411 -0.315457 0
M  V30 5188 C 506.921 1.85885 0.174265 0
M  V30 5189 C 507.272 1.23723 1.52273 0
M  V30 5190 O 506.397 0.540246 2.09548 0
M  V30 5191 C 506.992 3.37257 0.322981 0
M  V30 5192 C 505.551 3.68711 0.756922 0
M  V30 5193 C 504.698 2.77013 -0.126195 0
M  V30 5194 H 507.649 1.49374 -0.536007 0
M  V30 5195 H 507.67 3.62539 1.15522 0
M  V30 5196 H 507.182 3.82471 -0.658602 0
M  V30 5197 H 505.283 3.29024 1.74854 0
M  V30 5198 H 505.396 4.75741 0.566291 0
M  V30 5199 H 503.76 2.51588 0.39692 0
M  V30 5200 H 504.543 3.25051 -1.1044 0
M  V30 5201 N 506.988 0.0434614 1.5754 0
M  V30 5202 C 508.234 -0.632971 1.92669 0
M  V30 5203 C 508.567 -1.70947 0.921446 0
M  V30 5204 O 507.842 -1.94426 -0.0537202 0
M  V30 5205 C 508.125 -1.23619 3.38216 0
M  V30 5206 C 507.978 -0.168274 4.49485 0
M  V30 5207 C 509.297 -2.15008 3.84005 0
M  V30 5208 H 506.416 -0.228629 0.700641 0
M  V30 5209 H 509.058 0.103651 1.89717 0
M  V30 5210 H 507.208 -1.864 3.40863 0
M  V30 5211 H 508.88 0.463196 4.58969 0
M  V30 5212 H 507.123 0.504581 4.30855 0
M  V30 5213 H 507.794 -0.630218 5.48391 0
M  V30 5214 H 510.27 -1.62198 3.83185 0
M  V30 5215 H 509.146 -2.54161 4.86511 0
M  V30 5216 H 509.407 -3.04707 3.20322 0
M  V30 5217 N 508.466 -1.55915 -0.229846 0
M  V30 5218 C 509.396 -1.94754 -1.28815 0
M  V30 5219 C 510.377 -0.814657 -1.49323 0
M  V30 5220 O 511.562 -1.07631 -1.61645 0
M  V30 5221 C 508.692 -2.25705 -2.63959 0
M  V30 5222 C 507.646 -3.41406 -2.5812 0
M  V30 5223 C 506.972 -3.57941 -3.97218 0
M  V30 5224 C 508.272 -4.76616 -2.13623 0
M  V30 5225 H 509.966 -2.83404 -0.965547 0
M  V30 5226 H 507.512 -1.36353 -0.463028 0
M  V30 5227 H 509.465 -2.51467 -3.38146 0
M  V30 5228 H 508.189 -1.339 -2.9789 0
M  V30 5229 H 506.848 -3.1568 -1.86391 0
M  V30 5230 H 506.496 -2.63526 -4.28443 0
M  V30 5231 H 506.196 -4.35757 -3.94195 0
M  V30 5232 H 507.72 -3.86042 -4.73079 0
M  V30 5233 H 509.134 -5.01637 -2.77549 0
M  V30 5234 H 507.531 -5.57655 -2.21677 0
M  V30 5235 H 508.601 -4.7253 -1.08829 0
M  V30 5236 N 509.944 0.496216 -1.49584 0
M  V30 5237 C 510.892 1.61805 -1.67098 0
M  V30 5238 C 511.886 1.60667 -0.536877 0
M  V30 5239 O 513.092 1.65118 -0.716654 0
M  V30 5240 H 509.467 0.53646 -0.526986 0
M  V30 5241 H 511.438 1.44187 -2.61252 0
M  V30 5242 C 510.187 2.99912 -1.75921 0
M  V30 5243 H 509.51 3.01496 -2.62565 0
M  V30 5244 H 510.95 3.77931 -1.92209 0
M  V30 5245 C 509.409 3.33092 -0.505088 0
M  V30 5246 O 509.939 4.00019 0.367085 0
M  V30 5247 N 508.145 2.88278 -0.366599 0
M  V30 5248 H 507.692 2.33989 -1.07735 0
M  V30 5249 H 507.65 3.10846 0.47142 0
M  V30 5250 N 511.423 1.38739 0.74761 0
M  V30 5251 C 512.651 1.38521 1.53686 0
M  V30 5252 C 513.066 -0.0235129 1.88785 0
M  V30 5253 O 512.423 -0.991662 1.53207 0
M  V30 5254 C 512.474 2.24641 2.83229 0
M  V30 5255 O 512.195 3.60026 2.49625 0
M  V30 5256 C 513.696 2.32669 3.77333 0
M  V30 5257 H 510.916 0.473589 0.475347 0
M  V30 5258 H 513.46 1.82395 0.924786 0
M  V30 5259 H 511.615 1.84213 3.40799 0
M  V30 5260 H 512.029 4.05435 3.3275 0
M  V30 5261 H 513.503 2.97201 4.65162 0
M  V30 5262 H 513.98 1.3421 4.18192 0
M  V30 5263 H 514.586 2.73512 3.25685 0
M  V30 5264 N 512.901 -0.976442 1.23707 0
M  V30 5265 C 514.312 -1.53284 1.06587 0
M  V30 5266 C 514.663 -1.92765 -0.365526 0
M  V30 5267 O 513.788 -1.7645 -1.25277 0
M  V30 5268 C 514.383 -2.78548 1.92864 0
M  V30 5269 C 512.942 -3.30574 1.79994 0
M  V30 5270 C 512.089 -2.03538 1.88328 0
M  V30 5271 H 515.04 -0.795692 1.37311 0
M  V30 5272 H 515.061 -3.5155 1.45577 0
M  V30 5273 H 514.573 -2.49782 2.97037 0
M  V30 5274 H 512.674 -3.64211 0.786202 0
M  V30 5275 H 512.787 -4.00065 2.636 0
M  V30 5276 H 511.151 -2.17853 1.31954 0
M  V30 5277 H 511.934 -1.77149 2.94063 0
M  V30 5278 N 514.379 -1.04941 -1.1758 0
M  V30 5279 C 515.627 -0.756492 -1.87408 0
M  V30 5280 C 515.948 0.718478 -1.81281 0
M  V30 5281 O 515.218 1.519 -1.23706 0
M  V30 5282 H 513.798 -0.276841 -0.693807 0
M  V30 5283 H 516.46 -1.32803 -1.42652 0
M  V30 5284 H 515.556 -1.06918 -2.93215 0
M  V30 5285 N 515.857 1.33968 -0.830081 0
M  V30 5286 C 517.082 2.02813 -0.433796 0
M  V30 5287 C 517.507 1.62076 0.954614 0
M  V30 5288 O 516.865 0.808955 1.62252 0
M  V30 5289 C 516.913 3.56348 -0.552115 0
M  V30 5290 O 516.017 4.10202 0.425191 0
M  V30 5291 H 515.358 0.639817 -0.177567 0
M  V30 5292 H 517.888 1.7106 -1.12248 0
M  V30 5293 H 517.898 4.05722 -0.430513 0
M  V30 5294 H 516.573 3.85344 -1.56471 0
M  V30 5295 H 515.15 3.71979 0.261878 0
M  V30 5296 N 517.335 0.585699 1.46312 0
M  V30 5297 C 518.283 -0.158577 2.32059 0
M  V30 5298 C 519.277 -0.881427 1.44662 0
M  V30 5299 O 520.483 -0.799476 1.61271 0
M  V30 5300 H 516.858 -0.0700066 0.748734 0
M  V30 5301 H 518.829 0.583383 2.92642 0
M  V30 5302 C 517.578 -1.15701 3.27885 0
M  V30 5303 H 516.901 -0.610215 3.95116 0
M  V30 5304 H 518.341 -1.64812 3.90657 0
M  V30 5305 C 516.8 -2.21951 2.53455 0
M  V30 5306 O 517.33 -3.29352 2.29978 0
M  V30 5307 N 515.536 -1.9664 2.13965 0
M  V30 5308 H 515.083 -1.09309 2.33258 0
M  V30 5309 H 515.041 -2.6794 1.64485 0
M  V30 5310 N 518.813 -1.54241 0.323641 0
M  V30 5311 C 519.745 -2.21836 -0.576311 0
M  V30 5312 C 520.758 -1.21837 -1.07979 0
M  V30 5313 O 521.947 -1.48306 -0.99336 0
M  V30 5314 C 519.047 -2.86923 -1.80356 0
M  V30 5315 C 518.22 -4.1306 -1.43875 0
M  V30 5316 C 517.279 -4.6174 -2.52353 0
M  V30 5317 O 516.305 -5.26421 -2.16494 0
M  V30 5318 N 517.507 -4.35974 -3.83284 0
M  V30 5319 H 520.272 -2.997 0.00247987 0
M  V30 5320 H 517.833 -1.61233 0.146848 0
M  V30 5321 H 519.825 -3.16414 -2.52318 0
M  V30 5322 H 518.395 -2.12765 -2.29019 0
M  V30 5323 H 517.615 -3.90334 -0.550752 0
M  V30 5324 H 518.903 -4.95148 -1.17071 0
M  V30 5325 H 518.301 -3.84203 -4.15216 0
M  V30 5326 H 516.858 -4.70119 -4.51477 0
M  V30 5327 N 520.291 -0.0518155 -1.57515 0
M  V30 5328 C 521.521 0.63048 -1.96745 0
M  V30 5329 C 521.929 1.64875 -0.928054 0
M  V30 5330 O 521.272 1.83449 0.0960678 0
M  V30 5331 C 521.334 1.37381 -3.32215 0
M  V30 5332 C 520.998 0.511298 -4.54131 0
M  V30 5333 C 521.995 -0.222884 -5.19422 0
M  V30 5334 C 519.68 0.442035 -5.00351 0
M  V30 5335 C 521.674 -1.01476 -6.2927 0
M  V30 5336 C 519.361 -0.35353 -6.10077 0
M  V30 5337 C 520.359 -1.08062 -6.74397 0
M  V30 5338 O 520.047 -1.8631 -7.82013 0
M  V30 5339 H 519.779 0.177126 -0.652382 0
M  V30 5340 H 522.333 -0.114726 -2.05079 0
M  V30 5341 H 520.563 2.16466 -3.20436 0
M  V30 5342 H 522.252 1.9464 -3.56188 0
M  V30 5343 H 523.018 -0.178846 -4.8467 0
M  V30 5344 H 518.897 0.997562 -4.50077 0
M  V30 5345 H 522.441 -1.58279 -6.79407 0
M  V30 5346 H 518.338 -0.399205 -6.44264 0
M  V30 5347 H 519.106 -1.78528 -7.98793 0
M  V30 5348 N 521.769 1.56035 0.221574 0
M  V30 5349 C 522.699 1.95434 1.2778 0
M  V30 5350 C 523.68 0.822564 1.48889 0
M  V30 5351 O 524.865 1.08486 1.61072 0
M  V30 5352 C 521.995 2.27102 2.62759 0
M  V30 5353 C 520.949 3.4277 2.56306 0
M  V30 5354 C 520.275 3.60043 3.95314 0
M  V30 5355 C 521.575 4.77742 2.11093 0
M  V30 5356 H 523.269 2.83912 0.950504 0
M  V30 5357 H 520.815 1.36596 0.455791 0
M  V30 5358 H 522.768 2.53256 3.36807 0
M  V30 5359 H 521.492 1.35478 2.97176 0
M  V30 5360 H 520.151 3.16664 1.84715 0
M  V30 5361 H 519.799 2.65794 4.27039 0
M  V30 5362 H 519.499 4.37841 3.91879 0
M  V30 5363 H 521.023 3.88545 4.71025 0
M  V30 5364 H 522.437 5.03102 2.74885 0
M  V30 5365 H 520.834 5.58823 2.18716 0
M  V30 5366 H 521.904 4.731 1.06321 0
M  V30 5367 N 523.247 -0.488276 1.49845 0
M  V30 5368 C 524.475 -1.26527 1.63702 0
M  V30 5369 C 524.89 -1.8618 0.313447 0
M  V30 5370 O 524.247 -1.68432 -0.702624 0
M  V30 5371 C 524.298 -2.3864 2.71538 0
M  V30 5372 O 524.019 -1.81437 3.98763 0
M  V30 5373 C 525.52 -3.29805 2.96215 0
M  V30 5374 H 522.74 -0.383295 0.55075 0
M  V30 5375 H 525.284 -0.584779 1.95961 0
M  V30 5376 H 523.439 -3.02496 2.42023 0
M  V30 5377 H 523.853 -2.55135 4.58265 0
M  V30 5378 H 525.327 -4.04722 3.75372 0
M  V30 5379 H 525.804 -3.87563 2.06619 0
M  V30 5380 H 526.41 -2.71703 3.27196 0
M  V30 5381 N 524.725 -1.39134 -0.740242 0
M  V30 5382 C 525.688 -1.37217 -1.83587 0
M  V30 5383 C 526.688 -0.270221 -1.58513 0
M  V30 5384 O 527.878 -0.527843 -1.6601 0
M  V30 5385 C 525.01 -1.13959 -3.21288 0
M  V30 5386 H 526.203 -2.34705 -1.86691 0
M  V30 5387 H 523.756 -1.24622 -0.94335 0
M  V30 5388 H 524.491 -0.17131 -3.23847 0
M  V30 5389 H 524.276 -1.93754 -3.40884 0
M  V30 5390 H 525.766 -1.15346 -4.01354 0
M  V30 5391 N 526.204 0.969867 -1.24223 0
M  V30 5392 C 527.481 1.68774 -0.988664 0
M  V30 5393 C 527.861 2.05342 0.489673 0
M  V30 5394 O 527.209 1.75486 1.46345 0
M  V30 5395 C 527.419 2.92135 -1.90941 0
M  V30 5396 C 528.767 3.64422 -2.17903 0
M  V30 5397 O 529.791 3.02188 -1.88576 0
M  V30 5398 O 528.65 4.76446 -2.67697 0
M  V30 5399 H 525.744 0.737736 -0.37373 0
M  V30 5400 H 528.29 1.02415 -1.35312 0
M  V30 5401 H 527.062 2.61788 -2.90831 0
M  V30 5402 H 526.685 3.66228 -1.54798 0
M  V30 5403 N 527.682 1.05563 1.17022 0
M  V30 5404 C 528.63 0.653887 2.2322 0
M  V30 5405 C 529.624 -0.326642 1.66221 0
M  V30 5406 O 530.83 -0.192301 1.7897 0
M  V30 5407 H 527.205 0.193297 0.726733 0
M  V30 5408 H 529.176 1.5596 2.54399 0
M  V30 5409 C 527.925 0.0485434 3.47666 0
M  V30 5410 H 527.248 0.79413 3.91834 0
M  V30 5411 H 528.688 -0.195133 4.23551 0
M  V30 5412 C 527.147 -1.20583 3.14581 0
M  V30 5413 O 527.677 -2.29475 3.29703 0
M  V30 5414 N 525.883 -1.10493 2.68774 0
M  V30 5415 H 525.43 -0.218795 2.56669 0
M  V30 5416 H 525.388 -1.94507 2.47011 0
M  V30 5417 N 529.16 -1.33526 0.837174 0
M  V30 5418 C 530.39 -2.01754 0.444848 0
M  V30 5419 C 530.798 -1.63149 -0.958072 0
M  V30 5420 O 530.141 -0.839827 -1.63379 0
M  V30 5421 C 530.203 -3.56228 0.483917 0
M  V30 5422 C 529.867 -4.18205 1.84265 0
M  V30 5423 C 530.864 -4.37699 2.80563 0
M  V30 5424 C 528.549 -4.54667 2.13503 0
M  V30 5425 C 530.543 -4.928 4.04261 0
M  V30 5426 C 528.23 -5.09475 3.37458 0
M  V30 5427 C 529.228 -5.28488 4.32654 0
M  V30 5428 O 528.916 -5.82132 5.54417 0
M  V30 5429 H 528.648 -0.652928 0.175104 0
M  V30 5430 H 531.202 -1.71469 1.13082 0
M  V30 5431 H 529.432 -3.85833 -0.258826 0
M  V30 5432 H 531.121 -4.05752 0.109653 0
M  V30 5433 H 531.887 -4.0988 2.59274 0
M  V30 5434 H 527.766 -4.39164 1.40201 0
M  V30 5435 H 531.31 -5.07555 4.78574 0
M  V30 5436 H 527.207 -5.36725 3.58604 0
M  V30 5437 H 527.975 -6.00548 5.56133 0
M  V30 5438 N 530.638 -0.59345 -1.46 0
M  V30 5439 C 531.57 0.171569 -2.28557 0
M  V30 5440 C 532.583 0.845273 -1.39137 0
M  V30 5441 O 533.772 0.713033 -1.6364 0
M  V30 5442 C 530.872 1.26311 -3.14482 0
M  V30 5443 C 530.045 0.679258 -4.32094 0
M  V30 5444 C 529.104 1.65987 -4.99334 0
M  V30 5445 O 528.13 1.19171 -5.56585 0
M  V30 5446 N 529.332 2.99414 -4.97324 0
M  V30 5447 H 532.097 -0.536771 -2.94854 0
M  V30 5448 H 529.658 -0.431954 -1.56031 0
M  V30 5449 H 531.65 1.91863 -3.5633 0
M  V30 5450 H 530.22 1.87416 -2.50188 0
M  V30 5451 H 529.44 -0.153992 -3.93899 0
M  V30 5452 H 530.728 0.26916 -5.08088 0
M  V30 5453 H 530.126 3.40064 -4.52076 0
M  V30 5454 H 528.683 3.60426 -5.4308 0
M  V30 5455 N 532.116 1.54067 -0.331816 0
M  V30 5456 C 533.341 2.05599 0.272705 0
M  V30 5457 C 533.766 1.2059 1.44359 0
M  V30 5458 O 533.124 0.216907 1.79998 0
M  V30 5459 C 533.172 3.54188 0.677021 0
M  V30 5460 O 532.276 3.72082 1.77844 0
M  V30 5461 H 531.617 0.662286 0.0476801 0
M  V30 5462 H 534.147 1.98826 -0.482624 0
M  V30 5463 H 534.157 3.96608 0.957415 0
M  V30 5464 H 532.832 4.15513 -0.179325 0
M  V30 5465 H 531.409 3.41566 1.49622 0
M  V30 5466 N 533.594 0.0601682 1.57485 0
M  V30 5467 C 535.005 -0.474217 1.80577 0
M  V30 5468 C 535.356 -1.70365 0.973147 0
M  V30 5469 O 534.481 -2.15544 0.192306 0
M  V30 5470 C 535.076 -0.867102 3.27516 0
M  V30 5471 C 533.635 -1.34642 3.51495 0
M  V30 5472 C 532.782 -0.32594 2.75378 0
M  V30 5473 H 535.733 0.285973 1.56102 0
M  V30 5474 H 535.754 -1.72938 3.38929 0
M  V30 5475 H 535.266 0.0278927 3.8809 0
M  V30 5476 H 533.367 -2.2603 2.96212 0
M  V30 5477 H 533.48 -1.33237 4.60201 0
M  V30 5478 H 531.844 -0.800749 2.41785 0
M  V30 5479 H 532.627 0.561125 3.38683 0
M  V30 5480 N 535.072 -1.5615 -0.213296 0
M  V30 5481 C 536.312 -1.81325 -0.943435 0
M  V30 5482 C 536.676 -0.634934 -1.81198 0
M  V30 5483 O 537.877 -0.766166 -2.5765 0
M  V30 5484 C 536.148 -3.11437 -1.75334 0
M  V30 5485 S 537.707 -3.57955 -2.53799 0
M  V30 5486 H 534.525 -0.636538 -0.316766 0
M  V30 5487 H 537.127 -1.94387 -0.208313 0
M  V30 5488 H 535.831 -3.95228 -1.10556 0
M  V30 5489 H 535.362 -3.01204 -2.53061 0
M  V30 5490 H 537.377 -3.21947 -3.77577 0
M  V30 5491 N 536.55 0.480323 -1.50102 0
M  V30 5492 C 537.513 1.56181 -1.6775 0
M  V30 5493 C 538.513 1.51156 -0.548503 0
M  V30 5494 O 539.703 1.5394 -0.815363 0
M  V30 5495 C 536.835 2.95823 -1.69415 0
M  V30 5496 H 538.028 1.41855 -2.6423 0
M  V30 5497 H 535.581 0.70605 -1.39444 0
M  V30 5498 H 536.316 3.15604 -0.745948 0
M  V30 5499 H 536.101 3.00878 -2.51425 0
M  V30 5500 H 537.591 3.74359 -1.85054 0
M  V30 5501 N 538.028 1.39524 0.732853 0
M  V30 5502 C 539.277 1.36175 1.48792 0
M  V30 5503 C 539.59 -0.0388195 1.95561 0
M  V30 5504 O 540.796 -0.194899 2.708 0
M  V30 5505 C 539.252 2.39242 2.68871 0
M  V30 5506 C 538.86 3.85024 2.29042 0
M  V30 5507 C 540.604 2.44972 3.46683 0
M  V30 5508 C 538.511 4.79727 3.45856 0
M  V30 5509 H 537.441 0.506267 0.558757 0
M  V30 5510 H 540.092 1.65181 0.799226 0
M  V30 5511 H 538.474 2.0331 3.39825 0
M  V30 5512 H 539.648 4.30008 1.6562 0
M  V30 5513 H 537.963 3.82609 1.64316 0
M  V30 5514 H 540.56 3.12918 4.33574 0
M  V30 5515 H 540.903 1.4749 3.89297 0
M  V30 5516 H 541.436 2.79808 2.82759 0
M  V30 5517 H 538.175 5.78479 3.08289 0
M  V30 5518 H 537.695 4.39421 4.08251 0
M  V30 5519 H 539.374 4.98731 4.12161 0
M  V30 5520 N 539.506 -0.963266 1.24736 0
M  V30 5521 C 540.917 -1.52145 1.08207 0
M  V30 5522 C 541.268 -1.93142 -0.345061 0
M  V30 5523 O 540.393 -1.77769 -1.23399 0
M  V30 5524 C 540.988 -2.76486 1.95808 0
M  V30 5525 C 539.547 -3.28646 1.8349 0
M  V30 5526 C 538.694 -2.01529 1.90476 0
M  V30 5527 H 541.645 -0.781083 1.38148 0
M  V30 5528 H 541.666 -3.49986 1.49297 0
M  V30 5529 H 541.178 -2.46617 2.99669 0
M  V30 5530 H 539.279 -3.63357 0.824787 0
M  V30 5531 H 539.392 -3.97246 2.67829 0
M  V30 5532 H 537.756 -2.16442 1.34258 0
M  V30 5533 H 538.539 -1.7402 2.95926 0
M  V30 5534 N 540.985 -1.06182 -1.16461 0
M  V30 5535 C 541.895 -0.682671 -2.24448 0
M  V30 5536 C 542.911 0.30078 -1.71381 0
M  V30 5537 O 544.087 0.150376 -2.00838 0
M  V30 5538 C 541.152 -0.0737202 -3.46622 0
M  V30 5539 C 540.213 -1.10889 -4.14731 0
M  V30 5540 C 539.446 -0.528908 -5.31073 0
M  V30 5541 O 539.669 0.65868 -5.66584 0
M  V30 5542 O 538.603 -1.26805 -5.88391 0
M  V30 5543 H 542.429 -1.58291 -2.59187 0
M  V30 5544 H 540.014 -0.834013 -1.23954 0
M  V30 5545 H 541.896 0.264192 -4.20571 0
M  V30 5546 H 540.571 0.800015 -3.13658 0
M  V30 5547 H 539.478 -1.49896 -3.42756 0
M  V30 5548 H 540.811 -1.95412 -4.51747 0
M  V30 5549 N 542.463 1.3308 -0.844243 0
M  V30 5550 C 543.71 1.97605 -0.44255 0
M  V30 5551 C 544.038 1.66856 0.999458 0
M  V30 5552 O 543.293 0.943586 1.7145 0
M  V30 5553 C 543.592 3.52045 -0.616354 0
M  V30 5554 C 543.258 4.02757 -2.02726 0
M  V30 5555 C 541.92 4.16316 -2.41317 0
M  V30 5556 C 544.272 4.29776 -2.9486 0
M  V30 5557 C 541.6 4.54232 -3.71335 0
M  V30 5558 C 543.952 4.69146 -4.24364 0
M  V30 5559 C 542.616 4.80911 -4.62904 0
M  V30 5560 H 541.886 0.723088 -0.161941 0
M  V30 5561 H 544.533 1.58663 -1.0723 0
M  V30 5562 H 542.838 3.91681 0.0966812 0
M  V30 5563 H 544.535 3.99981 -0.285756 0
M  V30 5564 H 541.125 3.9268 -1.71756 0
M  V30 5565 H 545.309 4.18818 -2.6628 0
M  V30 5566 H 540.565 4.61535 -4.00993 0
M  V30 5567 H 544.739 4.89008 -4.95827 0
M  V30 5568 H 542.366 5.10048 -5.63698 0
M  V30 5569 N 543.941 0.601185 1.45683 0
M  V30 5570 C 545.218 0.0261659 1.95582 0
M  V30 5571 C 545.598 -1.4399 1.5437 0
M  V30 5572 O 544.946 -2.13919 0.80318 0
M  V30 5573 C 545.156 0.217557 3.48321 0
M  V30 5574 C 546.504 0.0950076 4.24494 0
M  V30 5575 O 547.528 0.147345 3.55895 0
M  V30 5576 O 546.387 -0.025261 5.46494 0
M  V30 5577 H 543.481 -0.0393688 0.826062 0
M  V30 5578 H 546.027 0.670798 1.55879 0
M  V30 5579 H 544.799 1.23601 3.71266 0
M  V30 5580 H 544.422 -0.46264 3.94899 0
M  V30 5581 N 545.419 -1.53889 0.339982 0
M  V30 5582 C 546.665 -2.01152 -0.258003 0
M  V30 5583 C 546.998 -1.22749 -1.50487 0
M  V30 5584 O 546.273 -0.314156 -1.91946 0
M  V30 5585 C 546.556 -3.55468 -0.575717 0
M  V30 5586 C 546.409 -4.44584 0.682996 0
M  V30 5587 C 547.728 -4.1768 -1.38677 0
M  V30 5588 H 544.847 -0.731198 -0.0922992 0
M  V30 5589 H 547.489 -1.84352 0.459814 0
M  V30 5590 H 545.639 -3.69914 -1.18725 0
M  V30 5591 H 547.311 -4.41981 1.32102 0
M  V30 5592 H 545.554 -4.13592 1.3086 0
M  V30 5593 H 546.225 -5.5043 0.416001 0
M  V30 5594 H 548.701 -4.0691 -0.869705 0
M  V30 5595 H 547.577 -5.25734 -1.57783 0
M  V30 5596 H 547.838 -3.72069 -2.38782 0
M  V30 5597 N 546.897 -0.0685191 -1.57451 0
M  V30 5598 C 548.125 0.610462 -1.97689 0
M  V30 5599 C 548.54 1.63346 -0.946758 0
M  V30 5600 O 547.897 1.82377 0.0669868 0
M  V30 5601 C 547.948 1.28196 -3.38006 0
M  V30 5602 O 547.669 0.299906 -4.37072 0
M  V30 5603 C 549.17 2.04907 -3.931 0
M  V30 5604 H 546.39 0.165689 -0.650222 0
M  V30 5605 H 548.934 -0.139953 -2.04021 0
M  V30 5606 H 547.089 1.98348 -3.32771 0
M  V30 5607 H 547.503 0.78126 -5.18649 0
M  V30 5608 H 548.977 2.47287 -4.93511 0
M  V30 5609 H 549.454 2.9043 -3.29465 0
M  V30 5610 H 550.06 1.39629 -4.01726 0
M  V30 5611 N 548.375 1.56261 0.205012 0
M  V30 5612 C 549.786 1.70056 0.770574 0
M  V30 5613 C 550.137 0.673398 1.84282 0
M  V30 5614 O 549.262 -0.172196 2.15714 0
M  V30 5615 C 549.857 3.08316 1.40451 0
M  V30 5616 C 548.416 3.2391 1.91727 0
M  V30 5617 C 547.563 2.66001 0.783516 0
M  V30 5618 H 550.514 1.58688 -0.019911 0
M  V30 5619 H 550.535 3.05094 2.27371 0
M  V30 5620 H 550.047 3.83053 0.623882 0
M  V30 5621 H 548.148 2.54072 2.7254 0
M  V30 5622 H 548.261 4.3131 2.08588 0
M  V30 5623 H 546.625 2.24915 1.19521 0
M  V30 5624 H 547.408 3.43297 0.0152883 0
M  V30 5625 N 549.853 -0.472356 1.50355 0
M  V30 5626 C 551.264 -1.05326 1.54154 0
M  V30 5627 C 551.615 -1.93155 0.344303 0
M  V30 5628 O 550.74 -2.09479 -0.542928 0
M  V30 5629 C 551.335 -1.91691 2.79356 0
M  V30 5630 C 549.894 -2.44892 2.8584 0
M  V30 5631 C 549.041 -1.23205 2.48426 0
M  V30 5632 H 551.992 -0.255027 1.56637 0
M  V30 5633 H 552.013 -2.76742 2.6114 0
M  V30 5634 H 551.525 -1.27741 3.66475 0
M  V30 5635 H 549.626 -3.12399 2.0307 0
M  V30 5636 H 549.739 -2.80086 3.88701 0
M  V30 5637 H 548.103 -1.56643 2.00836 0
M  V30 5638 H 548.886 -0.609194 3.37852 0
M  V30 5639 N 551.331 -1.39911 -0.725443 0
M  V30 5640 C 552.58 -1.36963 -1.48068 0
M  V30 5641 C 552.893 0.0284478 -1.95579 0
M  V30 5642 O 554.099 0.180535 -2.70899 0
M  V30 5643 C 552.555 -2.40664 -2.67598 0
M  V30 5644 C 552.163 -3.86234 -2.26997 0
M  V30 5645 C 553.907 -2.46807 -3.45379 0
M  V30 5646 C 551.814 -4.81554 -3.43307 0
M  V30 5647 H 550.744 -0.509223 -0.556065 0
M  V30 5648 H 553.395 -1.65602 -0.790454 0
M  V30 5649 H 551.777 -2.05109 -3.38742 0
M  V30 5650 H 552.951 -4.3088 -1.63337 0
M  V30 5651 H 551.266 -3.83475 -1.62284 0
M  V30 5652 H 553.863 -3.15213 -4.31909 0
M  V30 5653 H 554.206 -1.49552 -3.8851 0
M  V30 5654 H 554.739 -2.81303 -2.81271 0
M  V30 5655 H 551.478 -5.80106 -3.05217 0
M  V30 5656 H 550.998 -4.4158 -4.05915 0
M  V30 5657 H 552.677 -5.0091 -4.0951 0
M  V30 5658 N 552.809 0.956637 -1.25245 0
M  V30 5659 C 554.086 1.67716 -1.00651 0
M  V30 5660 C 554.466 2.0585 0.467866 0
M  V30 5661 O 553.814 1.77029 1.44475 0
M  V30 5662 C 554.024 2.90093 -1.94028 0
M  V30 5663 C 555.372 3.6209 -2.21756 0
M  V30 5664 O 556.396 3.00171 -1.9177 0
M  V30 5665 O 555.255 4.7358 -2.72735 0
M  V30 5666 H 552.349 0.733731 -0.381533 0
M  V30 5667 H 554.895 1.00974 -1.3639 0
M  V30 5668 H 553.667 2.58689 -2.93591 0
M  V30 5669 H 553.29 3.64566 -1.58674 0
M  V30 5670 N 554.287 1.06798 1.15896 0
M  V30 5671 C 555.536 0.782796 1.8589 0
M  V30 5672 C 555.849 -0.693498 1.82893 0
M  V30 5673 O 557.055 -1.09325 2.48516 0
M  V30 5674 C 555.511 1.3502 3.33613 0
M  V30 5675 C 555.119 2.8571 3.45071 0
M  V30 5676 C 556.863 1.14278 4.08829 0
M  V30 5677 C 554.77 3.35669 4.86909 0
M  V30 5678 H 553.7 0.289149 0.696354 0
M  V30 5679 H 556.351 1.28734 1.30766 0
M  V30 5680 H 554.733 0.773407 3.88374 0
M  V30 5681 H 555.907 3.49385 3.00445 0
M  V30 5682 H 554.222 3.05178 2.83294 0
M  V30 5683 H 556.819 1.49087 5.13495 0
M  V30 5684 H 557.162 0.0814575 4.1622 0
M  V30 5685 H 557.695 1.68563 3.60321 0
M  V30 5686 H 554.434 4.41302 4.84698 0
M  V30 5687 H 553.954 2.76745 5.32139 0
M  V30 5688 H 555.633 3.31296 5.55745 0
M  V30 5689 N 555.766 -1.3263 0.851289 0
M  V30 5690 C 557.177 -1.79653 0.5081 0
M  V30 5691 C 557.528 -1.70327 -0.973815 0
M  V30 5692 O 556.653 -1.25986 -1.75944 0
M  V30 5693 C 557.248 -3.26196 0.915515 0
M  V30 5694 C 555.807 -3.71187 0.624277 0
M  V30 5695 C 554.954 -2.53804 1.11709 0
M  V30 5696 H 557.905 -1.19976 1.03882 0
M  V30 5697 H 557.926 -3.79801 0.230535 0
M  V30 5698 H 557.438 -3.32952 1.99411 0
M  V30 5699 H 555.539 -3.69948 -0.443737 0
M  V30 5700 H 555.652 -4.64132 1.18821 0
M  V30 5701 H 554.016 -2.48964 0.537484 0
M  V30 5702 H 554.799 -2.63315 2.20272 0
M  V30 5703 N 557.244 -0.608902 -1.45362 0
M  V30 5704 C 558.492 -0.104401 -2.0183 0
M  V30 5705 C 558.813 1.27007 -1.47967 0
M  V30 5706 O 558.083 1.83924 -0.674455 0
M  V30 5707 H 556.663 -0.0356042 -0.746151 0
M  V30 5708 H 559.325 -0.790596 -1.78145 0
M  V30 5709 H 558.421 -0.0551793 -3.12051 0
M  V30 5710 N 558.722 1.53707 -0.348139 0
M  V30 5711 C 559.632 2.28881 0.514857 0
M  V30 5712 C 560.648 1.34168 1.10793 0
M  V30 5713 O 561.824 1.6721 1.12262 0
M  V30 5714 C 558.889 3.05042 1.64774 0
M  V30 5715 C 557.95 4.15389 1.08398 0
M  V30 5716 C 557.183 4.87909 2.16287 0
M  V30 5717 O 557.406 4.60137 3.3709 0
M  V30 5718 O 556.34 5.74254 1.80323 0
M  V30 5719 H 560.166 3.03547 -0.0963699 0
M  V30 5720 H 557.751 1.48972 -0.113043 0
M  V30 5721 H 559.633 3.52656 2.30677 0
M  V30 5722 H 558.308 2.33228 2.24469 0
M  V30 5723 H 557.215 3.72068 0.389341 0
M  V30 5724 H 558.548 4.89318 0.531829 0
M  V30 5725 N 560.2 0.0768682 1.57412 0
M  V30 5726 C 561.446 -0.591961 1.93968 0
M  V30 5727 C 561.779 -1.68954 0.9575 0
M  V30 5728 O 561.054 -1.94496 -0.0124675 0
M  V30 5729 C 561.337 -1.16418 3.40762 0
M  V30 5730 C 561.19 -0.0728933 4.49741 0
M  V30 5731 C 562.509 -2.06814 3.88479 0
M  V30 5732 H 559.628 -0.213716 0.705333 0
M  V30 5733 H 562.27 0.14387 1.89455 0
M  V30 5734 H 560.42 -1.79128 3.4474 0
M  V30 5735 H 562.092 0.560446 4.57883 0
M  V30 5736 H 560.335 0.595859 4.29688 0
M  V30 5737 H 561.006 -0.513755 5.49604 0
M  V30 5738 H 563.482 -1.54033 3.8654 0
M  V30 5739 H 562.358 -2.43785 4.91793 0
M  V30 5740 H 562.619 -2.97844 3.26713 0
M  V30 5741 N 561.678 -1.56367 -0.196722 0
M  V30 5742 C 563.094 -1.49916 -0.54749 0
M  V30 5743 C 563.294 -0.77659 -1.85934 0
M  V30 5744 O 562.35 -0.32644 -2.50381 0
M  V30 5745 C 563.663 -2.94577 -0.603734 0
M  V30 5746 C 565.211 -3.05239 -0.692677 0
M  V30 5747 C 565.686 -4.51308 -0.780046 0
M  V30 5748 N 567.177 -4.55453 -0.843616 0
M  V30 5749 C 567.912 -5.65786 -0.931358 0
M  V30 5750 N 567.408 -6.85812 -0.981503 0
M  V30 5751 N 569.201 -5.53695 -0.968421 0
M  V30 5752 H 561.352 -2.01761 0.663803 0
M  V30 5753 H 563.615 -0.918094 0.236238 0
M  V30 5754 H 563.321 -3.50494 0.29105 0
M  V30 5755 H 563.195 -3.47841 -1.45898 0
M  V30 5756 H 565.582 -2.49372 -1.57789 0
M  V30 5757 H 565.663 -2.55103 0.188736 0
M  V30 5758 H 565.307 -5.078 0.100811 0
M  V30 5759 H 565.237 -4.99176 -1.67724 0
M  V30 5760 H 567.728 -3.69025 -0.814176 0
M  V30 5761 H 568.041 -7.65648 -1.04892 0
M  V30 5762 H 566.386 -6.88474 -0.950208 0
M  V30 5763 H 569.577 -4.58848 -0.926072 0
M  V30 5764 H 569.75 -6.39708 -1.03334 0
M  V30 5765 N 563.156 0.464375 -1.50603 0
M  V30 5766 C 564.104 1.58224 -1.70493 0
M  V30 5767 C 565.098 1.59492 -0.570836 0
M  V30 5768 O 566.304 1.63561 -0.751517 0
M  V30 5769 H 562.679 0.525161 -0.538247 0
M  V30 5770 H 564.65 1.38613 -2.64252 0
M  V30 5771 C 563.399 2.96113 -1.82243 0
M  V30 5772 H 562.722 2.95858 -2.68901 0
M  V30 5773 H 564.162 3.73769 -2.00182 0
M  V30 5774 C 562.621 3.31946 -0.575628 0
M  V30 5775 O 563.151 4.00708 0.282152 0
M  V30 5776 N 561.357 2.87436 -0.427665 0
M  V30 5777 H 560.904 2.31652 -1.12674 0
M  V30 5778 H 560.862 3.11776 0.405379 0
M  V30 5779 N 564.634 1.40294 0.718013 0
M  V30 5780 C 565.567 1.34767 1.84155 0
M  V30 5781 C 566.545 0.218455 1.61126 0
M  V30 5782 O 567.729 0.401716 1.8417 0
M  V30 5783 C 564.856 1.09676 3.20451 0
M  V30 5784 C 563.902 2.25016 3.62312 0
M  V30 5785 S 564.735 3.87397 3.69707 0
M  V30 5786 C 565.891 3.64565 5.08766 0
M  V30 5787 H 566.124 2.29851 1.88562 0
M  V30 5788 H 563.657 1.2655 0.884555 0
M  V30 5789 H 565.615 0.95885 3.99144 0
M  V30 5790 H 564.276 0.162502 3.13679 0
M  V30 5791 H 563.469 2.03097 4.61268 0
M  V30 5792 H 563.071 2.35098 2.90869 0
M  V30 5793 H 565.363 3.22882 5.95612 0
M  V30 5794 H 566.306 4.63043 5.35721 0
M  V30 5795 H 566.714 2.98303 4.79245 0
M  V30 5796 N 566.112 -0.949982 1.2575 0
M  V30 5797 C 567.045 -2.047 1.00862 0
M  V30 5798 C 568.023 -1.62475 -0.0636982 0
M  V30 5799 O 569.207 -1.88343 0.0769153 0
M  V30 5800 C 566.334 -3.34597 0.525613 0
M  V30 5801 C 565.38 -3.95788 1.58916 0
M  V30 5802 S 566.213 -4.31175 3.17567 0
M  V30 5803 C 567.369 -5.64183 2.71013 0
M  V30 5804 H 567.602 -2.25497 1.93749 0
M  V30 5805 H 565.135 -1.09022 1.09332 0
M  V30 5806 H 567.093 -4.09716 0.25359 0
M  V30 5807 H 565.754 -3.11758 -0.382828 0
M  V30 5808 H 564.947 -4.89457 1.20201 0
M  V30 5809 H 564.549 -3.27168 1.81211 0
M  V30 5810 H 566.841 -6.42504 2.14928 0
M  V30 5811 H 567.784 -6.07774 3.6334 0
M  V30 5812 H 568.192 -5.2364 2.1086 0
M  V30 5813 N 567.59 -1.07411 -1.15328 0
M  V30 5814 C 568.5 -0.706438 -2.23711 0
M  V30 5815 C 569.516 0.282586 -1.7169 0
M  V30 5816 O 570.692 0.129066 -2.00986 0
M  V30 5817 C 567.757 -0.11048 -3.46524 0
M  V30 5818 C 566.818 -1.15282 -4.13532 0
M  V30 5819 C 566.051 -0.585205 -5.30482 0
M  V30 5820 O 566.274 0.598549 -5.67251 0
M  V30 5821 O 565.208 -1.33039 -5.87013 0
M  V30 5822 H 569.034 -1.61031 -2.57493 0
M  V30 5823 H 566.619 -0.847113 -1.23062 0
M  V30 5824 H 568.501 0.21957 -4.20828 0
M  V30 5825 H 567.176 0.766703 -3.14489 0
M  V30 5826 H 566.083 -1.53523 -3.41147 0
M  V30 5827 H 567.416 -2.00192 -4.49649 0
M  V30 5828 N 569.068 1.32177 -0.85831 0
M  V30 5829 C 569.998 2.31282 -0.321041 0
M  V30 5830 C 570.979 1.59841 0.581786 0
M  V30 5831 O 572.164 1.87619 0.501262 0
M  V30 5832 C 569.294 3.4385 0.48832 0
M  V30 5833 C 568.248 4.26799 -0.320391 0
M  V30 5834 C 567.574 5.31164 0.613934 0
M  V30 5835 C 568.874 4.98829 -1.54813 0
M  V30 5836 H 570.568 2.76469 -1.14915 0
M  V30 5837 H 568.114 1.32916 -0.554028 0
M  V30 5838 H 570.067 4.12224 0.874626 0
M  V30 5839 H 568.791 2.97401 1.34983 0
M  V30 5840 H 567.45 3.60077 -0.688497 0
M  V30 5841 H 567.098 4.80967 1.47239 0
M  V30 5842 H 566.798 5.8755 0.0768097 0
M  V30 5843 H 568.322 6.024 0.997336 0
M  V30 5844 H 569.736 5.59864 -1.23392 0
M  V30 5845 H 568.133 5.64957 -2.02346 0
M  V30 5846 H 569.203 4.26483 -2.30739 0
M  V30 5847 N 570.547 0.616602 1.45037 0
M  V30 5848 C 571.51 -0.0871112 2.29034 0
M  V30 5849 C 572.51 -0.786414 1.40258 0
M  V30 5850 O 573.7 -0.633207 1.62284 0
M  V30 5851 C 570.832 -1.13369 3.21497 0
M  V30 5852 H 572.025 0.651497 2.92738 0
M  V30 5853 H 569.578 0.376058 1.51709 0
M  V30 5854 H 570.313 -1.90277 2.62612 0
M  V30 5855 H 570.098 -0.636358 3.86902 0
M  V30 5856 H 571.588 -1.62627 3.84633 0
M  V30 5857 N 572.025 -1.5352 0.356285 0
M  V30 5858 C 572.935 -2.29151 -0.502712 0
M  V30 5859 C 573.951 -1.34753 -1.1008 0
M  V30 5860 O 575.127 -1.67803 -1.11374 0
M  V30 5861 C 572.192 -3.05911 -1.63154 0
M  V30 5862 C 571.253 -4.15958 -1.06194 0
M  V30 5863 C 570.486 -4.8905 -2.13696 0
M  V30 5864 O 570.709 -4.61919 -3.34645 0
M  V30 5865 O 569.643 -5.75202 -1.77275 0
M  V30 5866 H 573.469 -3.03492 0.112466 0
M  V30 5867 H 571.054 -1.4891 0.120942 0
M  V30 5868 H 572.936 -3.53874 -2.28804 0
M  V30 5869 H 571.611 -2.34415 -2.23229 0
M  V30 5870 H 570.518 -3.7227 -0.369603 0
M  V30 5871 H 571.851 -4.89593 -0.505872 0
M  V30 5872 N 573.503 -0.0852151 -1.57369 0
M  V30 5873 C 574.752 0.580443 -1.93168 0
M  V30 5874 C 575.065 1.6995 -0.968319 0
M  V30 5875 O 576.271 2.42564 -1.21963 0
M  V30 5876 C 574.727 1.08386 -3.43192 0
M  V30 5877 C 574.335 -0.00491388 -4.48 0
M  V30 5878 C 576.079 1.72281 -3.87968 0
M  V30 5879 C 573.986 0.513299 -5.89168 0
M  V30 5880 H 572.916 0.22059 -0.72101 0
M  V30 5881 H 575.567 -0.159621 -1.82804 0
M  V30 5882 H 573.949 1.8773 -3.48674 0
M  V30 5883 H 575.123 -0.780032 -4.5415 0
M  V30 5884 H 573.438 -0.548453 -4.12772 0
M  V30 5885 H 576.035 2.12108 -4.9083 0
M  V30 5886 H 576.378 2.58811 -3.26071 0
M  V30 5887 H 576.911 0.995359 -3.85146 0
M  V30 5888 H 573.65 -0.315153 -6.54742 0
M  V30 5889 H 573.17 1.25564 -5.8651 0
M  V30 5890 H 574.849 0.985433 -6.39451 0
M  V30 5891 N 574.981 1.5647 0.188427 0
M  V30 5892 C 576.258 1.71857 0.934058 0
M  V30 5893 C 576.638 0.641867 2.01105 0
M  V30 5894 O 575.986 -0.346098 2.25864 0
M  V30 5895 C 576.196 3.14431 1.5144 0
M  V30 5896 C 577.544 3.74869 1.99396 0
M  V30 5897 O 578.568 3.17601 1.61269 0
M  V30 5898 O 577.427 4.75387 2.69573 0
M  V30 5899 H 574.521 0.701186 0.438483 0
M  V30 5900 H 577.067 1.68768 0.177599 0
M  V30 5901 H 575.839 3.8427 0.738416 0
M  V30 5902 H 575.462 3.21775 2.33552 0
M  V30 5903 N 576.459 -0.456382 1.50847 0
M  V30 5904 C 577.687 -1.23026 1.66349 0
M  V30 5905 C 578.102 -1.85473 0.352868 0
M  V30 5906 O 577.459 -1.69885 -0.666739 0
M  V30 5907 C 577.51 -2.32827 2.76539 0
M  V30 5908 O 577.231 -1.72938 4.02522 0
M  V30 5909 C 578.732 -3.23448 3.03144 0
M  V30 5910 H 575.952 -0.371527 0.558756 0
M  V30 5911 H 578.496 -0.543082 1.97157 0
M  V30 5912 H 576.651 -2.97294 2.48384 0
M  V30 5913 H 577.065 -2.45357 4.63573 0
M  V30 5914 H 578.539 -3.96669 3.83872 0
M  V30 5915 H 579.016 -3.83094 2.14793 0
M  V30 5916 H 579.622 -2.64702 3.32886 0
M  V30 5917 N 577.937 -1.40673 -0.710563 0
M  V30 5918 C 578.87 -1.35742 -1.83438 0
M  V30 5919 C 579.848 -0.226997 -1.61008 0
M  V30 5920 O 581.032 -0.411477 -1.83954 0
M  V30 5921 C 578.159 -1.11374 -3.19865 0
M  V30 5922 C 577.205 -2.26935 -3.61113 0
M  V30 5923 S 578.038 -3.89352 -3.67648 0
M  V30 5924 C 579.194 -3.67258 -5.06826 0
M  V30 5925 H 579.427 -2.30848 -1.87341 0
M  V30 5926 H 576.96 -1.27018 -0.877831 0
M  V30 5927 H 578.918 -0.980004 -3.9863 0
M  V30 5928 H 577.579 -0.179135 -3.13589 0
M  V30 5929 H 576.772 -2.0554 -4.60184 0
M  V30 5930 H 576.374 -2.36638 -2.89618 0
M  V30 5931 H 578.666 -3.26036 -5.93891 0
M  V30 5932 H 579.609 -4.65878 -5.33257 0
M  V30 5933 H 580.017 -3.0084 -4.77656 0
M  V30 5934 N 579.415 0.9433 -1.26252 0
M  V30 5935 C 580.664 1.68369 -1.11062 0
M  V30 5936 C 580.977 1.92514 0.346104 0
M  V30 5937 O 582.183 2.64358 0.618646 0
M  V30 5938 C 580.639 3.03171 -1.93946 0
M  V30 5939 C 580.247 2.86782 -3.4418 0
M  V30 5940 C 581.991 3.80916 -1.87359 0
M  V30 5941 C 579.898 4.17044 -4.19319 0
M  V30 5942 H 578.828 0.631469 -0.412023 0
M  V30 5943 H 581.479 1.04922 -1.50544 0
M  V30 5944 H 579.861 3.67587 -1.47296 0
M  V30 5945 H 581.035 2.31229 -3.98585 0
M  V30 5946 H 579.35 2.22482 -3.51981 0
M  V30 5947 H 581.947 4.77417 -2.40784 0
M  V30 5948 H 582.29 4.07658 -0.843857 0
M  V30 5949 H 582.823 3.2327 -2.31821 0
M  V30 5950 H 579.562 3.95487 -5.22753 0
M  V30 5951 H 579.082 4.72319 -3.69696 0
M  V30 5952 H 580.761 4.85513 -4.27651 0
M  V30 5953 N 580.893 1.08022 1.14757 0
M  V30 5954 C 582.304 0.829144 1.67279 0
M  V30 5955 C 582.655 -0.644721 1.85305 0
M  V30 5956 O 581.78 -1.49838 1.56133 0
M  V30 5957 C 582.375 1.49855 3.03857 0
M  V30 5958 C 580.934 1.29482 3.53428 0
M  V30 5959 C 580.081 1.56386 2.28995 0
M  V30 5960 H 583.032 1.24134 0.988762 0
M  V30 5961 H 583.053 0.923572 3.69121 0
M  V30 5962 H 582.565 2.57123 2.90705 0
M  V30 5963 H 580.666 0.242669 3.71809 0
M  V30 5964 H 580.779 2.01974 4.34446 0
M  V30 5965 H 579.143 0.985217 2.34874 0
M  V30 5966 H 579.926 2.64851 2.18423 0
M  V30 5967 N 582.371 -1.3172 0.865308 0
M  V30 5968 C 583.301 -2.31109 0.333302 0
M  V30 5969 C 584.282 -1.60148 -0.573301 0
M  V30 5970 O 585.467 -1.87882 -0.491305 0
M  V30 5971 C 582.597 -3.44104 -0.470078 0
M  V30 5972 C 581.551 -4.26623 0.343021 0
M  V30 5973 C 580.877 -5.31482 -0.585756 0
M  V30 5974 C 582.177 -4.98001 1.57456 0
M  V30 5975 H 583.871 -2.75855 1.1638 0
M  V30 5976 H 581.417 -1.3262 0.561069 0
M  V30 5977 H 583.37 -4.12682 -0.852752 0
M  V30 5978 H 582.094 -2.98112 -1.33404 0
M  V30 5979 H 580.753 -3.59707 0.707583 0
M  V30 5980 H 580.401 -4.81741 -1.44686 0
M  V30 5981 H 580.101 -5.87582 -0.0456494 0
M  V30 5982 H 581.625 -6.0292 -0.965375 0
M  V30 5983 H 583.039 -5.59201 1.26359 0
M  V30 5984 H 581.436 -5.63876 2.05339 0
M  V30 5985 H 582.506 -4.25253 2.32997 0
M  V30 5986 N 583.85 -0.624285 -1.44708 0
M  V30 5987 C 584.798 0.0969952 -2.32398 0
M  V30 5988 C 585.792 0.842762 -1.46949 0
M  V30 5989 O 586.998 0.756436 -1.63334 0
M  V30 5990 H 583.373 0.0501306 -0.750327 0
M  V30 5991 H 585.344 -0.660767 -2.90992 0
M  V30 5992 C 584.093 1.06967 -3.30837 0
M  V30 5993 H 583.416 0.505242 -3.96595 0
M  V30 5994 H 584.856 1.54397 -3.94889 0
M  V30 5995 C 583.315 2.15153 -2.5925 0
M  V30 5996 O 583.845 3.23139 -2.3863 0
M  V30 5997 N 582.051 1.90898 -2.19103 0
M  V30 5998 H 581.598 1.03086 -2.36074 0
M  V30 5999 H 581.556 2.63485 -1.71531 0
M  V30 6000 N 585.328 1.53329 -0.364422 0
M  V30 6001 C 586.258 2.28627 0.474543 0
M  V30 6002 C 587.239 1.31009 1.08492 0
M  V30 6003 O 588.424 1.59878 1.10239 0
M  V30 6004 C 585.554 3.07465 1.61501 0
M  V30 6005 C 584.508 4.1276 1.13194 0
M  V30 6006 C 583.834 4.79674 2.36255 0
M  V30 6007 C 585.134 5.21847 0.217507 0
M  V30 6008 H 586.828 2.99005 -0.153656 0
M  V30 6009 H 584.374 1.43803 -0.0753406 0
M  V30 6010 H 586.327 3.58889 2.20855 0
M  V30 6011 H 585.051 2.34775 2.27042 0
M  V30 6012 H 583.71 3.62281 0.56109 0
M  V30 6013 H 583.358 4.03557 3.00251 0
M  V30 6014 H 583.058 5.50827 2.04606 0
M  V30 6015 H 584.582 5.33892 2.96297 0
M  V30 6016 H 585.996 5.6878 0.718493 0
M  V30 6017 H 584.393 6.00099 -0.00806408 0
M  V30 6018 H 585.463 4.7921 -0.740653 0
M  V30 6019 N 586.806 0.0935595 1.57322 0
M  V30 6020 C 588.034 -0.578934 1.98635 0
M  V30 6021 C 588.449 -1.61819 0.972626 0
M  V30 6022 O 587.806 -1.82461 -0.0379638 0
M  V30 6023 C 587.857 -1.22802 3.40003 0
M  V30 6024 O 587.578 -0.230334 4.37494 0
M  V30 6025 C 589.079 -1.98627 3.96311 0
M  V30 6026 H 586.299 -0.155324 0.652775 0
M  V30 6027 H 588.843 0.172393 2.03772 0
M  V30 6028 H 586.998 -1.93029 3.35885 0
M  V30 6029 H 587.412 -0.698649 5.19826 0
M  V30 6030 H 588.886 -2.39405 4.97382 0
M  V30 6031 H 589.363 -2.85151 3.34044 0
M  V30 6032 H 589.969 -1.3322 4.03897 0
M  V30 6033 N 588.284 -1.56567 -0.180126 0
M  V30 6034 C 589.232 -1.96632 -1.24251 0
M  V30 6035 C 590.226 -0.853818 -1.46309 0
M  V30 6036 O 591.432 -1.0389 -1.46993 0
M  V30 6037 H 587.807 -0.625476 -0.417473 0
M  V30 6038 H 589.778 -2.85201 -0.877679 0
M  V30 6039 C 588.527 -2.33486 -2.57642 0
M  V30 6040 H 587.85 -3.18626 -2.4149 0
M  V30 6041 H 589.29 -2.65371 -3.30688 0
M  V30 6042 C 587.749 -1.17499 -3.15746 0
M  V30 6043 O 588.279 -0.457956 -3.99081 0
M  V30 6044 N 586.485 -0.94786 -2.74707 0
M  V30 6045 H 586.032 -1.53269 -2.07042 0
M  V30 6046 H 585.99 -0.173626 -3.1392 0
M  V30 6047 N 589.762 0.448376 -1.51087 0
M  V30 6048 C 590.694 1.56146 -1.67783 0
M  V30 6049 C 591.707 1.52913 -0.55871 0
M  V30 6050 O 592.896 1.57889 -0.83267 0
M  V30 6051 C 589.996 2.95057 -1.66716 0
M  V30 6052 C 589.169 3.22915 -2.95033 0
M  V30 6053 C 588.228 4.41495 -2.86302 0
M  V30 6054 O 587.254 4.40688 -3.60254 0
M  V30 6055 N 588.456 5.44443 -2.014 0
M  V30 6056 H 591.221 1.42232 -2.638 0
M  V30 6057 H 588.782 0.637153 -1.48835 0
M  V30 6058 H 590.774 3.72388 -1.58458 0
M  V30 6059 H 589.344 3.02624 -0.783403 0
M  V30 6060 H 588.564 2.33985 -3.17245 0
M  V30 6061 H 589.852 3.38349 -3.79996 0
M  V30 6062 H 589.25 5.4793 -1.40674 0
M  V30 6063 H 587.807 6.2067 -1.99029 0
M  V30 6064 N 591.24 1.41047 0.703093 0
M  V30 6065 C 592.656 1.23351 1.01275 0
M  V30 6066 C 592.856 0.11754 2.01157 0
M  V30 6067 O 591.912 -0.520518 2.47077 0
M  V30 6068 C 593.225 2.58001 1.54454 0
M  V30 6069 C 594.773 2.65119 1.66376 0
M  V30 6070 C 595.248 4.00067 2.22958 0
M  V30 6071 N 596.739 4.01875 2.30328 0
M  V30 6072 C 597.474 5.03087 2.75119 0
M  V30 6073 N 596.97 6.14692 3.19571 0
M  V30 6074 N 598.763 4.90451 2.74616 0
M  V30 6075 H 590.914 2.1236 0.0412686 0
M  V30 6076 H 593.177 0.944543 0.08089 0
M  V30 6077 H 592.883 3.40378 0.88521 0
M  V30 6078 H 592.757 2.79962 2.52786 0
M  V30 6079 H 595.144 1.83106 2.31422 0
M  V30 6080 H 595.225 2.46975 0.666089 0
M  V30 6081 H 594.869 4.82526 1.58529 0
M  V30 6082 H 594.799 4.15547 3.23462 0
M  V30 6083 H 597.29 3.21291 1.98949 0
M  V30 6084 H 597.603 6.87799 3.52352 0
M  V30 6085 H 595.948 6.18239 3.17498 0
M  V30 6086 H 599.139 4.0235 2.39233 0
M  V30 6087 H 599.312 5.6947 3.09206 0
M  V30 6088 N 592.718 -0.936591 1.26751 0
M  V30 6089 C 593.665 -2.03597 1.08706 0
M  V30 6090 C 594.635 -1.66097 -0.00926542 0
M  V30 6091 O 595.82 -1.90199 0.151377 0
M  V30 6092 C 592.96 -3.3727 0.73094 0
M  V30 6093 C 592.073 -3.87778 1.90399 0
M  V30 6094 C 591.208 -5.09859 1.49056 0
M  V30 6095 C 590.247 -5.5264 2.63164 0
M  V30 6096 N 589.384 -6.65921 2.22471 0
M  V30 6097 H 594.224 -2.18364 2.02784 0
M  V30 6098 H 591.761 -1.06985 1.00958 0
M  V30 6099 H 593.719 -4.14128 0.505328 0
M  V30 6100 H 592.349 -3.22337 -0.172868 0
M  V30 6101 H 591.401 -3.07279 2.2424 0
M  V30 6102 H 592.713 -4.15464 2.76028 0
M  V30 6103 H 591.867 -5.9419 1.22567 0
M  V30 6104 H 590.606 -4.8393 0.60524 0
M  V30 6105 H 589.611 -4.66863 2.90377 0
M  V30 6106 H 590.836 -5.80568 3.52303 0
M  V30 6107 H 588.782 -6.41667 1.36379 0
M  V30 6108 H 588.699 -6.93216 3.01641 0
M  V30 6109 H 589.967 -7.53616 1.99205 0
M  V30 6110 N 594.196 -1.08629 -1.14182 0
M  V30 6111 C 595.144 -0.71284 -2.21408 0
M  V30 6112 C 596.138 0.282457 -1.67029 0
M  V30 6113 O 597.344 0.144783 -1.79417 0
M  V30 6114 H 593.719 -0.212497 -0.721352 0
M  V30 6115 H 595.69 -1.6265 -2.50175 0
M  V30 6116 C 594.439 -0.140704 -3.47415 0
M  V30 6117 H 593.762 -0.897739 -3.8959 0
M  V30 6118 H 595.202 0.0827677 -4.23919 0
M  V30 6119 C 593.661 1.122 -3.17668 0
M  V30 6120 O 594.191 2.20652 -3.35672 0
M  V30 6121 N 592.397 1.03328 -2.71609 0
M  V30 6122 H 591.944 0.150666 -2.57159 0
M  V30 6123 H 591.902 1.8789 -2.52081 0
M  V30 6124 N 595.674 1.31259 -0.872281 0
M  V30 6125 C 596.902 2.00795 -0.498907 0
M  V30 6126 C 597.317 1.65464 0.909238 0
M  V30 6127 O 596.674 0.885073 1.59602 0
M  V30 6128 C 596.725 3.55625 -0.649092 0
M  V30 6129 O 596.446 3.89692 -2.00179 0
M  V30 6130 C 597.947 4.42434 -0.277034 0
M  V30 6131 H 595.167 0.642299 -0.194145 0
M  V30 6132 H 597.711 1.67438 -1.17408 0
M  V30 6133 H 595.866 3.87394 -0.0214402 0
M  V30 6134 H 596.28 4.84407 -2.01122 0
M  V30 6135 H 597.754 5.50299 -0.433064 0
M  V30 6136 H 598.231 4.32146 0.783989 0
M  V30 6137 H 598.837 4.16086 -0.880483 0
M  V30 6138 N 597.152 0.631951 1.44375 0
M  V30 6139 C 598.085 -0.121822 2.27875 0
M  V30 6140 C 599.063 -0.850457 1.38586 0
M  V30 6141 O 600.247 -0.854378 1.68026 0
M  V30 6142 C 597.374 -1.17859 3.17533 0
M  V30 6143 C 596.42 -0.550391 4.22934 0
M  V30 6144 S 597.253 0.660145 5.31415 0
M  V30 6145 C 598.409 -0.396613 6.24642 0
M  V30 6146 H 598.642 0.586537 2.91457 0
M  V30 6147 H 596.175 0.420146 1.48574 0
M  V30 6148 H 598.133 -1.78335 3.69739 0
M  V30 6149 H 596.794 -1.85915 2.53169 0
M  V30 6150 H 595.987 -1.34631 4.85685 0
M  V30 6151 H 595.589 -0.0202306 3.73995 0
M  V30 6152 H 597.881 -1.26893 6.65511 0
M  V30 6153 H 598.824 0.195345 7.0783 0
M  V30 6154 H 599.232 -0.72288 5.59852 0
M  V30 6155 N 598.631 -1.53133 0.372548 0
M  V30 6156 C 599.908 -1.93704 -0.271693 0
M  V30 6157 C 600.288 -1.30667 -1.65799 0
M  V30 6158 O 599.636 -0.46838 -2.23648 0
M  V30 6159 C 599.846 -3.47576 -0.314903 0
M  V30 6160 C 601.194 -4.20998 -0.551912 0
M  V30 6161 O 602.218 -3.53994 -0.39582 0
M  V30 6162 O 601.077 -5.39748 -0.85639 0
M  V30 6163 H 598.171 -0.810457 -0.164586 0
M  V30 6164 H 600.717 -1.6427 0.425838 0
M  V30 6165 H 599.489 -3.85749 0.656792 0
M  V30 6166 H 599.112 -3.83264 -1.05804 0
M  V30 6167 N 600.109 -0.101901 -1.5727 0
M  V30 6168 C 601.042 0.891377 -2.10071 0
M  V30 6169 C 602.02 1.27197 -1.01291 0
M  V30 6170 O 603.204 1.37602 -1.28833 0
M  V30 6171 C 600.331 2.19049 -2.58331 0
M  V30 6172 C 599.377 1.95925 -3.78834 0
M  V30 6173 S 600.21 1.19106 -5.22086 0
M  V30 6174 C 601.366 2.50234 -5.73702 0
M  V30 6175 H 601.599 0.442212 -2.93993 0
M  V30 6176 H 599.132 0.111529 -1.53997 0
M  V30 6177 H 601.09 2.937 -2.86793 0
M  V30 6178 H 599.751 2.61086 -1.74622 0
M  V30 6179 H 598.944 2.92143 -4.10693 0
M  V30 6180 H 598.546 1.29401 -3.50901 0
M  V30 6181 H 600.838 3.46173 -5.82384 0
M  V30 6182 H 601.781 2.22944 -6.72088 0
M  V30 6183 H 602.189 2.58818 -5.01671 0
M  V30 6184 N 601.587 1.56661 0.17182 0
M  V30 6185 C 602.817 1.85831 0.902804 0
M  V30 6186 C 603.225 0.685157 1.76358 0
M  V30 6187 O 602.568 -0.354947 1.80238 0
M  V30 6188 C 602.63 3.09406 1.83053 0
M  V30 6189 C 602.294 4.4231 1.1494 0
M  V30 6190 C 603.291 5.17342 0.515104 0
M  V30 6191 C 600.976 4.89045 1.14631 0
M  V30 6192 C 602.97 6.37299 -0.113194 0
M  V30 6193 C 600.657 6.08933 0.514184 0
M  V30 6194 C 601.655 6.82904 -0.114463 0
M  V30 6195 O 601.343 8.00518 -0.736622 0
M  V30 6196 H 601.075 0.620715 0.267748 0
M  V30 6197 H 603.629 2.04637 0.176918 0
M  V30 6198 H 601.859 2.86544 2.59672 0
M  V30 6199 H 603.548 3.25027 2.4313 0
M  V30 6200 H 604.314 4.82317 0.509474 0
M  V30 6201 H 600.193 4.31409 1.62502 0
M  V30 6202 H 603.737 6.94976 -0.604477 0
M  V30 6203 H 599.634 6.43423 0.517395 0
M  V30 6204 H 600.402 8.16027 -0.635822 0
M  V30 6205 N 603.065 -0.440357 1.51323 0
M  V30 6206 C 604.481 -0.7766 1.39431 0
M  V30 6207 C 604.681 -1.95838 0.474296 0
M  V30 6208 O 603.737 -2.52398 -0.0716692 0
M  V30 6209 C 605.05 -1.05981 2.81405 0
M  V30 6210 C 606.598 -1.16442 2.90534 0
M  V30 6211 C 607.073 -1.48058 4.33408 0
M  V30 6212 N 608.564 -1.54988 4.36501 0
M  V30 6213 C 609.299 -1.81017 5.44078 0
M  V30 6214 N 608.795 -2.04858 6.61819 0
M  V30 6215 N 610.588 -1.82774 5.31554 0
M  V30 6216 H 602.739 0.338006 2.09693 0
M  V30 6217 H 605.002 0.0888072 0.943831 0
M  V30 6218 H 604.708 -0.264173 3.50706 0
M  V30 6219 H 604.582 -1.98822 3.20546 0
M  V30 6220 H 606.969 -1.95068 2.21432 0
M  V30 6221 H 607.05 -0.215088 2.54894 0
M  V30 6222 H 606.694 -0.699605 5.03059 0
M  V30 6223 H 606.624 -2.44192 4.66559 0
M  V30 6224 H 609.115 -1.38479 3.51613 0
M  V30 6225 H 609.428 -2.2408 7.396 0
M  V30 6226 H 607.773 -2.02187 6.6494 0
M  V30 6227 H 610.964 -1.63665 4.38556 0
M  V30 6228 H 611.137 -2.02722 6.15474 0
M  V30 6229 N 604.543 -1.41418 -0.695603 0
M  V30 6230 C 605.789 -1.40982 -1.4578 0
M  V30 6231 C 606.122 -0.0187763 -1.94191 0
M  V30 6232 O 605.397 0.95346 -1.69527 0
M  V30 6233 C 605.68 -2.41657 -2.66972 0
M  V30 6234 C 605.533 -3.89869 -2.24327 0
M  V30 6235 C 606.852 -2.39589 -3.69168 0
M  V30 6236 H 603.971 -0.513405 -0.528757 0
M  V30 6237 H 606.613 -1.72693 -0.792275 0
M  V30 6238 H 604.763 -2.14746 -3.23754 0
M  V30 6239 H 606.435 -4.27683 -1.72872 0
M  V30 6240 H 604.678 -4.04737 -1.56111 0
M  V30 6241 H 605.349 -4.55857 -3.11285 0
M  V30 6242 H 607.825 -2.63471 -3.2206 0
M  V30 6243 H 606.701 -3.12044 -4.51575 0
M  V30 6244 H 606.962 -1.41447 -4.18862 0
M  V30 6245 N 606.021 0.929856 -1.27246 0
M  V30 6246 C 606.931 2.0636 -1.11592 0
M  V30 6247 C 607.947 1.73938 -0.046496 0
M  V30 6248 O 609.123 1.9981 -0.252544 0
M  V30 6249 C 606.188 3.38213 -0.762437 0
M  V30 6250 C 605.249 3.84346 -1.9125 0
M  V30 6251 C 604.482 5.09906 -1.57579 0
M  V30 6252 O 604.705 5.68354 -0.482694 0
M  V30 6253 O 603.639 5.51359 -2.41426 0
M  V30 6254 H 607.465 2.22478 -2.0673 0
M  V30 6255 H 605.05 1.04865 -1.06413 0
M  V30 6256 H 606.932 4.1741 -0.57854 0
M  V30 6257 H 605.607 3.23307 0.159439 0
M  V30 6258 H 604.514 3.06045 -2.15144 0
M  V30 6259 H 605.847 4.0379 -2.81451 0
M  V30 6260 N 607.499 1.09233 1.13605 0
M  V30 6261 C 608.429 0.751738 2.21068 0
M  V30 6262 C 609.41 -0.269688 1.67948 0
M  V30 6263 O 610.595 -0.13819 1.93708 0
M  V30 6264 C 607.725 0.16935 3.46887 0
M  V30 6265 C 606.679 1.12007 4.13084 0
M  V30 6266 C 606.005 0.399483 5.33206 0
M  V30 6267 C 607.305 2.46168 4.6065 0
M  V30 6268 H 608.999 1.65024 2.49815 0
M  V30 6269 H 606.545 0.794905 1.20072 0
M  V30 6270 H 608.498 -0.0809824 4.21322 0
M  V30 6271 H 607.222 -0.764335 3.1753 0
M  V30 6272 H 605.881 1.35564 3.40614 0
M  V30 6273 H 605.529 -0.538277 5.00112 0
M  V30 6274 H 605.229 1.03337 5.78442 0
M  V30 6275 H 606.753 0.157403 6.10397 0
M  V30 6276 H 608.167 2.26829 5.26518 0
M  V30 6277 H 606.564 3.05326 5.1662 0
M  V30 6278 H 607.634 3.07076 3.75276 0
M  V30 6279 N 608.977 -1.30795 0.87923 0
M  V30 6280 C 609.925 -2.30231 0.331112 0
M  V30 6281 C 610.919 -1.59918 -0.558794 0
M  V30 6282 O 612.125 -1.74441 -0.443866 0
M  V30 6283 H 608.5 -0.746785 0.088409 0
M  V30 6284 H 610.471 -2.73925 1.18353 0
M  V30 6285 C 609.22 -3.44848 -0.444401 0
M  V30 6286 H 608.543 -3.99131 0.231106 0
M  V30 6287 H 609.983 -4.16516 -0.793109 0
M  V30 6288 C 608.442 -2.94329 -1.63926 0
M  V30 6289 O 608.972 -2.93875 -2.73862 0
M  V30 6290 N 607.178 -2.50413 -1.4745 0
M  V30 6291 H 606.725 -2.50982 -0.58015 0
M  V30 6292 H 606.683 -2.16969 -2.27534 0
M  V30 6293 N 610.455 -0.639598 -1.44038 0
M  V30 6294 C 611.732 -0.078012 -1.95444 0
M  V30 6295 C 612.112 1.39847 -1.58133 0
M  V30 6296 O 611.46 2.11714 -0.859614 0
M  V30 6297 C 611.67 -0.309832 -3.47622 0
M  V30 6298 C 613.018 -0.207521 -4.24093 0
M  V30 6299 O 614.042 -0.241653 -3.55379 0
M  V30 6300 O 612.901 -0.119641 -5.46369 0
M  V30 6301 H 609.995 0.0174534 -0.826816 0
M  V30 6302 H 612.541 -0.711891 -1.54046 0
M  V30 6303 H 611.313 -1.33401 -3.67858 0
M  V30 6304 H 610.936 0.357777 -3.95987 0
M  V30 6305 N 611.933 1.52934 -0.380664 0
M  V30 6306 C 612.896 2.24809 0.446473 0
M  V30 6307 C 613.896 1.26133 0.997347 0
M  V30 6308 O 615.086 1.50297 0.880714 0
M  V30 6309 C 612.218 2.99649 1.62553 0
M  V30 6310 H 613.411 2.99343 -0.182677 0
M  V30 6311 H 610.964 1.55736 -0.132618 0
M  V30 6312 H 611.699 2.29395 2.29235 0
M  V30 6313 H 611.484 3.72066 1.23732 0
M  V30 6314 H 612.974 3.54246 2.21133 0
M  V30 6315 N 613.412 0.11024 1.57214 0
M  V30 6316 C 614.375 -0.828808 2.1369 0
M  V30 6317 C 615.375 -1.20059 1.06969 0
M  V30 6318 O 616.565 -1.12754 1.32786 0
M  V30 6319 C 613.697 -2.11959 2.66994 0
M  V30 6320 H 614.89 -0.338146 2.97988 0
M  V30 6321 H 612.443 -0.138913 1.55681 0
M  V30 6322 H 613.178 -2.65476 1.8626 0
M  V30 6323 H 612.963 -1.86258 3.45037 0
M  V30 6324 H 614.453 -2.79105 3.10629 0
M  V30 6325 N 614.89 -1.56749 -0.16351 0
M  V30 6326 C 615.84 -1.93424 -1.20712 0
M  V30 6327 C 616.824 -0.803469 -1.39403 0
M  V30 6328 O 618.016 -1.06675 -1.41243 0
M  V30 6329 C 615.145 -2.30431 -2.54473 0
M  V30 6330 C 614.231 -3.5004 -2.39443 0
M  V30 6331 N 614.622 -4.67058 -1.9414 0
M  V30 6332 C 612.92 -3.548 -2.70246 0
M  V30 6333 C 613.621 -5.49184 -1.9176 0
M  V30 6334 N 612.597 -4.9044 -2.34457 0
M  V30 6335 H 616.399 -2.8138 -0.848681 0
M  V30 6336 H 613.913 -1.58089 -0.371717 0
M  V30 6337 H 615.91 -2.54903 -3.29894 0
M  V30 6338 H 614.57 -1.43818 -2.91112 0
M  V30 6339 H 615.581 -4.91128 -1.64357 0
M  V30 6340 H 612.258 -2.78685 -3.10871 0
M  V30 6341 H 613.648 -6.5297 -1.58366 0
M  V30 6342 N 616.368 0.432326 -1.51554 0
M  V30 6343 C 617.593 1.20824 -1.68571 0
M  V30 6344 C 618.018 1.84126 -0.384596 0
M  V30 6345 O 617.376 1.69025 0.655751 0
M  V30 6346 C 617.424 2.26429 -2.80646 0
M  V30 6347 O 616.528 3.32032 -2.44598 0
M  V30 6348 H 615.869 0.353765 -0.561913 0
M  V30 6349 H 618.399 0.509916 -1.98144 0
M  V30 6350 H 618.409 2.71133 -3.04878 0
M  V30 6351 H 617.084 1.79733 -3.75058 0
M  V30 6352 H 615.661 2.92769 -2.30956 0
M  V30 6353 N 617.846 1.41785 0.688094 0
M  V30 6354 C 619.123 1.32031 1.44316 0
M  V30 6355 C 619.503 -0.0486079 2.11044 0
M  V30 6356 O 618.851 -1.06332 2.02252 0
M  V30 6357 C 619.061 2.47906 2.45649 0
M  V30 6358 C 620.409 2.89415 3.10683 0
M  V30 6359 O 621.433 2.477 2.55975 0
M  V30 6360 O 620.292 3.61573 4.09789 0
M  V30 6361 H 617.386 0.519994 0.643067 0
M  V30 6362 H 619.932 1.53765 0.71794 0
M  V30 6363 H 618.704 3.39222 1.95048 0
M  V30 6364 H 618.327 2.28089 3.25671 0
M  V30 6365 N 619.324 -0.923095 1.27737 0
M  V30 6366 C 620.552 -1.70525 1.17171 0
M  V30 6367 C 620.967 -1.86847 -0.270881 0
M  V30 6368 O 620.324 -1.38879 -1.18401 0
M  V30 6369 C 620.375 -3.10242 1.85559 0
M  V30 6370 O 620.096 -2.94683 3.24182 0
M  V30 6371 C 621.597 -4.04586 1.81176 0
M  V30 6372 H 618.817 -0.533347 0.407163 0
M  V30 6373 H 621.361 -1.15599 1.68692 0
M  V30 6374 H 619.516 -3.62014 1.3793 0
M  V30 6375 H 619.93 -3.83045 3.58297 0
M  V30 6376 H 621.404 -5.00119 2.33633 0
M  V30 6377 H 621.881 -4.3218 0.782099 0
M  V30 6378 H 622.487 -3.58741 2.2844 0
M  V30 6379 N 620.802 -1.09834 -1.13024 0
M  V30 6380 C 622.213 -0.855651 -1.65938 0
M  V30 6381 C 622.564 0.615159 -1.86307 0
M  V30 6382 O 621.689 1.47335 -1.58497 0
M  V30 6383 C 622.284 -1.5467 -3.01434 0
M  V30 6384 C 620.843 -1.35088 -3.51323 0
M  V30 6385 C 619.99 -1.6001 -2.26478 0
M  V30 6386 H 622.941 -1.25691 -0.968889 0
M  V30 6387 H 622.962 -0.982179 -3.67605 0
M  V30 6388 H 622.474 -2.61715 -2.86578 0
M  V30 6389 H 620.575 -0.30179 -3.71376 0
M  V30 6390 H 620.688 -2.0886 -4.31178 0
M  V30 6391 H 619.052 -1.02246 -2.33276 0
M  V30 6392 H 619.835 -2.68293 -2.14182 0
M  V30 6393 N 622.28 1.30327 -0.886154 0
M  V30 6394 C 623.529 1.95373 -0.501243 0
M  V30 6395 C 623.842 1.70722 0.954634 0
M  V30 6396 O 625.048 2.29761 1.44644 0
M  V30 6397 C 623.504 3.49828 -0.845493 0
M  V30 6398 C 623.112 3.83296 -2.31922 0
M  V30 6399 C 624.856 4.2118 -0.529838 0
M  V30 6400 C 622.763 5.30935 -2.60504 0
M  V30 6401 H 621.693 0.731274 -0.183722 0
M  V30 6402 H 624.344 1.48258 -1.08129 0
M  V30 6403 H 622.726 3.95522 -0.19452 0
M  V30 6404 H 623.9 3.48508 -3.01461 0
M  V30 6405 H 622.215 3.2505 -2.60253 0
M  V30 6406 H 624.812 5.29825 -0.720401 0
M  V30 6407 H 625.155 4.12902 0.530828 0
M  V30 6408 H 625.688 3.81173 -1.13806 0
M  V30 6409 H 622.427 5.44265 -3.65316 0
M  V30 6410 H 621.947 5.67019 -1.95575 0
M  V30 6411 H 623.626 5.98381 -2.46066 0
M  V30 6412 N 623.758 0.647228 1.43697 0
M  V30 6413 C 624.688 -0.0345631 2.33474 0
M  V30 6414 C 625.669 -0.818193 1.4913 0
M  V30 6415 O 626.854 -0.780867 1.77809 0
M  V30 6416 C 623.984 -1.00576 3.32418 0
M  V30 6417 C 622.938 -0.33266 4.26705 0
M  V30 6418 C 622.264 -1.41489 5.1564 0
M  V30 6419 C 623.564 0.771204 5.16575 0
M  V30 6420 H 625.258 0.715163 2.90733 0
M  V30 6421 H 622.804 0.345364 1.39797 0
M  V30 6422 H 624.757 -1.49159 3.94119 0
M  V30 6423 H 623.481 -1.78657 2.73403 0
M  V30 6424 H 622.14 0.13267 3.6636 0
M  V30 6425 H 621.788 -2.18698 4.52968 0
M  V30 6426 H 621.488 -0.969799 5.79542 0
M  V30 6427 H 623.012 -1.9022 5.80214 0
M  V30 6428 H 624.426 0.36779 5.72119 0
M  V30 6429 H 622.823 1.1404 5.89165 0
M  V30 6430 H 623.893 1.63169 4.56622 0
M  V30 6431 N 625.236 -1.5273 0.388769 0
M  V30 6432 C 626.476 -2.03483 -0.193372 0
M  V30 6433 C 626.84 -1.26897 -1.44087 0
M  V30 6434 O 628.041 -1.67773 -2.10014 0
M  V30 6435 C 626.312 -3.54488 -0.455325 0
M  V30 6436 S 627.871 -4.27069 -1.00783 0
M  V30 6437 H 624.689 -0.708907 -0.0545131 0
M  V30 6438 H 627.291 -1.8798 0.536993 0
M  V30 6439 H 625.995 -4.07817 0.459722 0
M  V30 6440 H 625.526 -3.74196 -1.21413 0
M  V30 6441 H 627.541 -4.40185 -2.29023 0
M  V30 6442 N 626.714 -0.118576 -1.57153 0
M  V30 6443 C 627.644 0.828436 -2.1831 0
M  V30 6444 C 628.625 1.27758 -1.12303 0
M  V30 6445 O 629.81 1.34026 -1.40537 0
M  V30 6446 C 626.94 2.07876 -2.78217 0
M  V30 6447 C 625.894 1.76742 -3.89803 0
M  V30 6448 C 625.22 3.08801 -4.36516 0
M  V30 6449 C 626.52 1.03606 -5.11921 0
M  V30 6450 H 628.214 0.318824 -2.97698 0
M  V30 6451 H 625.76 0.151911 -1.43196 0
M  V30 6452 H 627.713 2.74584 -3.19659 0
M  V30 6453 H 626.437 2.61161 -1.96118 0
M  V30 6454 H 625.096 1.12424 -3.48936 0
M  V30 6455 H 624.744 3.6002 -3.51276 0
M  V30 6456 H 624.444 2.88743 -5.11763 0
M  V30 6457 H 625.968 3.76627 -4.80608 0
M  V30 6458 H 627.382 1.60467 -5.50385 0
M  V30 6459 H 625.779 0.936454 -5.92748 0
M  V30 6460 H 626.849 0.0227421 -4.84895 0
M  V30 6461 N 628.193 1.56834 0.155195 0
M  V30 6462 C 629.418 1.87412 0.888337 0
M  V30 6463 C 629.843 0.70671 1.74319 0
M  V30 6464 O 629.201 -0.343892 1.78009 0
M  V30 6465 C 629.249 3.1652 1.72765 0
M  V30 6466 O 628.353 2.99877 2.83103 0
M  V30 6467 H 627.694 0.615983 0.247914 0
M  V30 6468 H 630.224 2.04061 0.148478 0
M  V30 6469 H 630.234 3.48334 2.12433 0
M  V30 6470 H 628.909 4.01094 1.09985 0
M  V30 6471 H 627.486 2.79453 2.46902 0
M  V30 6472 N 629.671 -0.424282 1.51781 0
M  V30 6473 C 630.601 -1.52305 1.7699 0
M  V30 6474 C 631.582 -1.5839 0.620209 0
M  V30 6475 O 632.767 -1.73908 0.864268 0
M  V30 6476 C 629.897 -2.90271 1.90683 0
M  V30 6477 C 628.851 -2.99043 3.06198 0
M  V30 6478 C 628.177 -4.39116 3.05092 0
M  V30 6479 C 629.477 -2.7192 4.45934 0
M  V30 6480 H 631.171 -1.31461 2.68995 0
M  V30 6481 H 628.717 -0.630985 1.29439 0
M  V30 6482 H 630.67 -3.6711 2.06901 0
M  V30 6483 H 629.394 -3.12376 0.953365 0
M  V30 6484 H 628.053 -2.24646 2.89706 0
M  V30 6485 H 627.701 -4.58207 2.07498 0
M  V30 6486 H 627.401 -4.45912 3.82669 0
M  V30 6487 H 628.925 -5.17911 3.2342 0
M  V30 6488 H 630.339 -3.38487 4.62709 0
M  V30 6489 H 628.736 -2.90111 5.25315 0
M  V30 6490 H 629.806 -1.67445 4.55072 0
M  V30 6491 N 631.149 -1.42148 -0.680565 0
M  V30 6492 C 632.374 -1.45901 -1.47403 0
M  V30 6493 C 632.799 -0.0700985 -1.87969 0
M  V30 6494 O 632.157 0.930145 -1.55621 0
M  V30 6495 C 632.205 -2.38661 -2.70321 0
M  V30 6496 O 631.309 -1.85399 -3.68376 0
M  V30 6497 H 630.65 -0.494565 -0.443059 0
M  V30 6498 H 633.18 -1.86774 -0.835251 0
M  V30 6499 H 633.19 -2.55046 -3.18458 0
M  V30 6500 H 631.865 -3.39571 -2.40134 0
M  V30 6501 H 630.442 -1.78541 -3.2738 0
M  V30 6502 N 632.627 0.916307 -1.28225 0
M  V30 6503 C 634.038 1.48024 -1.13779 0
M  V30 6504 C 634.389 1.94289 0.273139 0
M  V30 6505 O 633.514 1.82226 1.16716 0
M  V30 6506 C 634.109 2.69029 -2.05935 0
M  V30 6507 C 632.668 3.2161 -1.95561 0
M  V30 6508 C 631.815 1.94321 -1.97825 0
M  V30 6509 H 634.766 0.729272 -1.40951 0
M  V30 6510 H 634.787 3.44204 -1.62184 0
M  V30 6511 H 634.299 2.35325 -3.08616 0
M  V30 6512 H 632.4 3.60045 -0.959076 0
M  V30 6513 H 632.513 3.87032 -2.82388 0
M  V30 6514 H 630.877 2.1131 -1.42198 0
M  V30 6515 H 631.66 1.62917 -3.0218 0
M  V30 6516 N 634.105 1.10431 1.1244 0
M  V30 6517 C 635.068 0.756542 2.16354 0
M  V30 6518 C 636.068 -0.21899 1.59302 0
M  V30 6519 O 637.258 0.00415969 1.742 0
M  V30 6520 C 634.39 0.120612 3.40687 0
M  V30 6521 H 635.583 1.67696 2.48632 0
M  V30 6522 H 633.136 0.904832 1.27446 0
M  V30 6523 H 633.871 -0.810536 3.14008 0
M  V30 6524 H 633.656 0.822693 3.83372 0
M  V30 6525 H 635.146 -0.106945 4.17463 0
M  V30 6526 N 635.583 -1.29855 0.893053 0
M  V30 6527 C 636.808 -2.00512 0.530066 0
M  V30 6528 C 637.233 -1.66446 -0.876199 0
M  V30 6529 O 636.591 -0.885446 -1.58207 0
M  V30 6530 C 636.639 -3.53308 0.721505 0
M  V30 6531 O 635.743 -4.11764 -0.228994 0
M  V30 6532 H 635.084 -0.630617 0.207891 0
M  V30 6533 H 637.614 -1.6551 1.20282 0
M  V30 6534 H 637.624 -4.03206 0.623599 0
M  V30 6535 H 636.299 -3.77439 1.74678 0
M  V30 6536 H 634.876 -3.72805 -0.0841034 0
M  V30 6537 N 637.061 -0.65484 -1.43351 0
M  V30 6538 C 638.338 -0.0987371 -1.95351 0
M  V30 6539 C 638.718 1.38161 -1.59608 0
M  V30 6540 O 638.066 2.10791 -0.882021 0
M  V30 6541 C 638.276 -0.346684 -3.47274 0
M  V30 6542 C 639.624 -0.25249 -4.23849 0
M  V30 6543 O 640.648 -0.279332 -3.55103 0
M  V30 6544 O 639.507 -0.177584 -5.46211 0
M  V30 6545 H 636.601 0.0086829 -0.826954 0
M  V30 6546 H 639.147 -0.728189 -1.53282 0
M  V30 6547 H 637.919 -1.37296 -3.66423 0
M  V30 6548 H 637.542 0.315757 -3.96344 0
M  V30 6549 N 638.539 1.52521 -0.396863 0
M  V30 6550 C 639.95 1.86547 0.0754868 0
M  V30 6551 C 640.301 1.31621 1.45501 0
M  V30 6552 O 639.426 0.650563 2.0639 0
M  V30 6553 C 640.021 3.38495 0.143754 0
M  V30 6554 C 638.58 3.72205 0.560413 0
M  V30 6555 C 637.727 2.75954 -0.272856 0
M  V30 6556 H 640.678 1.46323 -0.614434 0
M  V30 6557 H 640.699 3.68153 0.961425 0
M  V30 6558 H 640.211 3.78442 -0.860415 0
M  V30 6559 H 638.312 3.3783 1.57167 0
M  V30 6560 H 638.425 4.78074 0.313314 0
M  V30 6561 H 636.789 2.53339 0.263 0
M  V30 6562 H 637.572 3.1874 -1.27515 0
M  V30 6563 N 640.017 0.126909 1.57088 0
M  V30 6564 C 641.433 -0.229641 1.57939 0
M  V30 6565 C 641.633 -1.66145 1.1401 0
M  V30 6566 O 640.689 -2.3843 0.831119 0
M  V30 6567 C 642.002 0.0108648 3.00698 0
M  V30 6568 C 643.55 -0.054418 3.12953 0
M  V30 6569 C 644.025 0.158497 4.57726 0
M  V30 6570 N 645.516 0.104735 4.63082 0
M  V30 6571 C 646.251 0.24427 5.72879 0
M  V30 6572 N 645.747 0.440415 6.91399 0
M  V30 6573 N 647.54 0.183286 5.61801 0
M  V30 6574 H 639.691 1.06203 1.83942 0
M  V30 6575 H 641.954 0.418834 0.85046 0
M  V30 6576 H 641.66 1.00102 3.37154 0
M  V30 6577 H 641.534 -0.717512 3.70313 0
M  V30 6578 H 643.921 -1.0351 2.7635 0
M  V30 6579 H 644.002 0.705967 2.45865 0
M  V30 6580 H 643.646 1.13619 4.95028 0
M  V30 6581 H 643.576 -0.62197 5.22914 0
M  V30 6582 H 646.067 -0.0430298 3.77876 0
M  V30 6583 H 646.38 0.537536 7.70928 0
M  V30 6584 H 644.725 0.476488 6.93365 0
M  V30 6585 H 647.916 0.0309561 4.6809 0
M  V30 6586 H 648.089 0.295471 6.47326 0
M  V30 6587 N 641.495 -1.56914 -0.146875 0
M  V30 6588 C 642.425 -2.01308 -1.1831 0
M  V30 6589 C 643.406 -0.892664 -1.44795 0
M  V30 6590 O 644.591 -1.16048 -1.55713 0
M  V30 6591 C 641.721 -2.3938 -2.51624 0
M  V30 6592 C 640.675 -3.54608 -2.3966 0
M  V30 6593 C 640.001 -3.78493 -3.77686 0
M  V30 6594 C 641.301 -4.87269 -1.88058 0
M  V30 6595 H 642.995 -2.88123 -0.813964 0
M  V30 6596 H 640.541 -1.38615 -0.3901 0
M  V30 6597 H 642.494 -2.69037 -3.24341 0
M  V30 6598 H 641.218 -1.49502 -2.90373 0
M  V30 6599 H 639.877 -3.25116 -1.69396 0
M  V30 6600 H 639.525 -2.85866 -4.13871 0
M  V30 6601 H 639.225 -4.56039 -3.70543 0
M  V30 6602 H 640.749 -4.10576 -4.51951 0
M  V30 6603 H 642.163 -5.15644 -2.50568 0
M  V30 6604 H 640.56 -5.68622 -1.91805 0
M  V30 6605 H 641.63 -4.77634 -0.836277 0
M  V30 6606 N 642.974 0.416227 -1.52004 0
M  V30 6607 C 643.937 1.48926 -1.74223 0
M  V30 6608 C 644.937 1.48693 -0.612119 0
M  V30 6609 O 646.127 1.50343 -0.879921 0
M  V30 6610 C 643.259 2.88372 -1.81809 0
M  V30 6611 H 644.452 1.3052 -2.70008 0
M  V30 6612 H 642.005 0.646271 -1.42313 0
M  V30 6613 H 642.74 3.12157 -0.879135 0
M  V30 6614 H 642.525 2.89944 -2.6396 0
M  V30 6615 H 644.015 3.66173 -2.00766 0
M  V30 6616 N 644.452 1.42507 0.673017 0
M  V30 6617 C 645.402 1.4258 1.77919 0
M  V30 6618 C 646.386 0.296885 1.58137 0
M  V30 6619 O 647.578 0.539243 1.68586 0
M  V30 6620 C 644.707 1.33238 3.1639 0
M  V30 6621 C 643.793 2.51081 3.41788 0
M  V30 6622 N 644.184 3.76498 3.37761 0
M  V30 6623 C 642.482 2.4538 3.72431 0
M  V30 6624 C 643.183 4.54784 3.62693 0
M  V30 6625 N 642.159 3.8522 3.83544 0
M  V30 6626 H 645.961 2.37442 1.73201 0
M  V30 6627 H 643.475 1.36881 0.873924 0
M  V30 6628 H 645.472 1.31372 3.9566 0
M  V30 6629 H 644.132 0.393794 3.22303 0
M  V30 6630 H 645.143 4.09068 3.17622 0
M  V30 6631 H 641.82 1.60109 3.85579 0
M  V30 6632 H 643.21 5.63774 3.65525 0
M  V30 6633 N 645.93 -0.909495 1.28709 0
M  V30 6634 C 647.158 -1.69272 1.18973 0
M  V30 6635 C 647.573 -1.87123 -0.251048 0
M  V30 6636 O 646.93 -1.40127 -1.16922 0
M  V30 6637 C 646.981 -3.08257 1.88839 0
M  V30 6638 O 646.702 -2.91228 3.27289 0
M  V30 6639 C 648.203 -4.02642 1.85457 0
M  V30 6640 H 645.423 -0.528999 0.412797 0
M  V30 6641 H 647.967 -1.13803 1.69909 0
M  V30 6642 H 646.122 -3.6053 1.41762 0
M  V30 6643 H 646.536 -3.79223 3.6234 0
M  V30 6644 H 648.01 -4.97613 2.38925 0
M  V30 6645 H 648.487 -4.31327 0.827893 0
M  V30 6646 H 649.093 -3.56298 2.32233 0
M  V30 6647 N 647.408 -1.11026 -1.11852 0
M  V30 6648 C 648.341 -0.708501 -2.16923 0
M  V30 6649 C 649.319 0.293196 -1.59935 0
M  V30 6650 O 650.503 0.190641 -1.87533 0
M  V30 6651 C 647.63 -0.0463705 -3.38668 0
M  V30 6652 C 646.676 -1.01252 -4.14307 0
M  V30 6653 S 647.509 -2.53291 -4.71809 0
M  V30 6654 C 648.665 -1.88366 -5.96883 0
M  V30 6655 H 648.898 -1.59854 -2.50667 0
M  V30 6656 H 646.431 -0.927869 -1.2341 0
M  V30 6657 H 648.389 0.329314 -4.09177 0
M  V30 6658 H 647.05 0.820562 -3.03192 0
M  V30 6659 H 646.243 -0.496596 -5.01548 0
M  V30 6660 H 645.845 -1.33042 -3.49537 0
M  V30 6661 H 648.137 -1.21753 -6.6647 0
M  V30 6662 H 649.08 -2.73588 -6.53112 0
M  V30 6663 H 649.488 -1.34562 -5.48227 0
M  V30 6664 N 648.886 1.2938 -0.899927 0
M  V30 6665 C 649.816 2.30144 -0.39446 0
M  V30 6666 C 650.797 1.61611 0.530639 0
M  V30 6667 O 651.982 1.89119 0.441319 0
M  V30 6668 C 649.112 3.45229 0.37868 0
M  V30 6669 C 648.066 4.25564 -0.456012 0
M  V30 6670 C 647.392 5.32848 0.444637 0
M  V30 6671 C 648.692 4.93651 -1.70605 0
M  V30 6672 H 650.386 2.72673 -1.23653 0
M  V30 6673 H 647.932 1.31086 -0.596034 0
M  V30 6674 H 649.885 4.14797 0.743037 0
M  V30 6675 H 648.609 3.01545 1.25453 0
M  V30 6676 H 647.268 3.57704 -0.802704 0
M  V30 6677 H 646.916 4.85408 1.31863 0
M  V30 6678 H 646.616 5.87497 -0.110154 0
M  V30 6679 H 648.14 6.05268 0.805182 0
M  V30 6680 H 649.554 5.55655 -1.41141 0
M  V30 6681 H 647.951 5.58233 -2.20217 0
M  V30 6682 H 649.021 4.18926 -2.4419 0
M  V30 6683 N 650.364 0.662433 1.43002 0
M  V30 6684 C 651.612 0.179237 2.01304 0
M  V30 6685 C 651.933 -1.21428 1.52579 0
M  V30 6686 O 651.203 -1.81294 0.742252 0
M  V30 6687 H 649.783 0.0632725 0.744316 0
M  V30 6688 H 652.445 0.856169 1.75088 0
M  V30 6689 H 651.541 0.170957 3.11631 0
M  V30 6690 N 651.842 -1.52309 0.404946 0
M  V30 6691 C 652.752 -2.30634 -0.429555 0
M  V30 6692 C 653.768 -1.38187 -1.05737 0
M  V30 6693 O 654.944 -1.71261 -1.05979 0
M  V30 6694 C 652.009 -3.10947 -1.53339 0
M  V30 6695 C 651.07 -4.19126 -0.929065 0
M  V30 6696 C 650.303 -4.95601 -1.9803 0
M  V30 6697 O 650.526 -4.72331 -3.1978 0
M  V30 6698 O 649.46 -5.80551 -1.58886 0
M  V30 6699 H 653.286 -3.0298 0.208963 0
M  V30 6700 H 650.871 -1.4845 0.168255 0
M  V30 6701 H 652.753 -3.60974 -2.1743 0
M  V30 6702 H 651.428 -2.41399 -2.15658 0
M  V30 6703 H 650.335 -3.73257 -0.250982 0
M  V30 6704 H 651.668 -4.90955 -0.349855 0
M  V30 6705 N 653.32 -0.135238 -1.57019 0
M  V30 6706 C 654.569 0.518694 -1.94917 0
M  V30 6707 C 654.882 1.66783 -1.0219 0
M  V30 6708 O 656.088 2.38561 -1.29619 0
M  V30 6709 C 654.544 0.974123 -3.46466 0
M  V30 6710 C 654.152 -0.147439 -4.47757 0
M  V30 6711 C 655.896 1.59851 -3.93253 0
M  V30 6712 C 653.803 0.325599 -5.90503 0
M  V30 6713 H 652.733 0.19754 -0.727663 0
M  V30 6714 H 655.384 -0.217698 -1.82204 0
M  V30 6715 H 653.766 1.76542 -3.5447 0
M  V30 6716 H 654.94 -0.924122 -4.51438 0
M  V30 6717 H 653.255 -0.679496 -4.10818 0
M  V30 6718 H 655.852 1.96385 -4.9733 0
M  V30 6719 H 656.195 2.48306 -3.3414 0
M  V30 6720 H 656.728 0.872323 -3.88118 0
M  V30 6721 H 653.467 -0.523295 -6.53408 0
M  V30 6722 H 652.987 1.06841 -5.90208 0
M  V30 6723 H 654.666 0.781498 -6.42263 0
M  V30 6724 N 654.798 1.5699 0.138552 0
M  V30 6725 C 655.728 2.01933 1.17241 0
M  V30 6726 C 656.709 0.90033 1.44319 0
M  V30 6727 O 657.894 1.16872 1.55095 0
M  V30 6728 C 655.024 2.40711 2.50351 0
M  V30 6729 C 653.978 3.55874 2.37776 0
M  V30 6730 C 653.304 3.80491 3.75674 0
M  V30 6731 C 654.604 4.8826 1.85472 0
M  V30 6732 H 656.298 2.88551 0.798672 0
M  V30 6733 H 653.844 1.3882 0.382743 0
M  V30 6734 H 655.797 2.70754 3.22909 0
M  V30 6735 H 654.521 1.5104 2.89576 0
M  V30 6736 H 653.18 3.2601 1.67669 0
M  V30 6737 H 652.828 2.88057 4.12349 0
M  V30 6738 H 652.528 4.57998 3.68119 0
M  V30 6739 H 654.052 4.12967 4.49767 0
M  V30 6740 H 655.466 5.16965 2.4783 0
M  V30 6741 H 653.863 5.69631 1.88787 0
M  V30 6742 H 654.933 4.78071 0.810935 0
M  V30 6743 N 656.276 -0.40816 1.52223 0
M  V30 6744 C 657.224 -1.51788 1.76248 0
M  V30 6745 C 658.218 -1.57264 0.629638 0
M  V30 6746 O 659.424 -1.60659 0.811704 0
M  V30 6747 H 655.799 -0.504823 0.557367 0
M  V30 6748 H 657.77 -1.2871 2.69214 0
M  V30 6749 C 656.519 -2.89145 1.93107 0
M  V30 6750 H 655.842 -2.85674 2.79697 0
M  V30 6751 H 657.282 -3.66082 2.13916 0
M  V30 6752 C 655.741 -3.29581 0.698431 0
M  V30 6753 O 656.271 -4.01479 -0.133238 0
M  V30 6754 N 654.477 -2.85651 0.53405 0
M  V30 6755 H 654.024 -2.2731 1.21194 0
M  V30 6756 H 653.982 -3.13065 -0.289387 0
M  V30 6757 N 657.755 -1.42862 -0.66545 0
M  V30 6758 C 658.985 -1.47032 -1.45138 0
M  V30 6759 C 659.393 -0.0829977 -1.89018 0
M  V30 6760 O 658.736 0.914551 -1.59316 0
M  V30 6761 C 658.798 -2.34302 -2.72659 0
M  V30 6762 C 658.462 -3.82034 -2.50796 0
M  V30 6763 C 659.459 -4.73453 -2.14799 0
M  V30 6764 C 657.144 -4.26397 -2.655 0
M  V30 6765 C 659.138 -6.07228 -1.93785 0
M  V30 6766 C 656.825 -5.6023 -2.44103 0
M  V30 6767 C 657.823 -6.50462 -2.08299 0
M  V30 6768 O 657.511 -7.8182 -1.87116 0
M  V30 6769 H 657.243 -0.501969 -0.452772 0
M  V30 6770 H 659.797 -1.88137 -0.82423 0
M  V30 6771 H 658.027 -1.88063 -3.37889 0
M  V30 6772 H 659.716 -2.29818 -3.34572 0
M  V30 6773 H 660.482 -4.4046 -2.03026 0
M  V30 6774 H 656.361 -3.56448 -2.92345 0
M  V30 6775 H 659.905 -6.7762 -1.65763 0
M  V30 6776 H 655.802 -5.92793 -2.55475 0
M  V30 6777 H 656.57 -7.93274 -2.01639 0
M  V30 6778 N 659.233 0.902656 -1.29189 0
M  V30 6779 C 660.463 1.68394 -1.19695 0
M  V30 6780 C 660.871 1.87602 0.245384 0
M  V30 6781 O 660.214 1.41084 1.17648 0
M  V30 6782 C 660.276 3.09094 -1.83578 0
M  V30 6783 C 659.94 3.1313 -3.32864 0
M  V30 6784 C 660.937 2.93497 -4.29134 0
M  V30 6785 C 658.622 3.3529 -3.74013 0
M  V30 6786 C 660.616 2.95953 -5.64527 0
M  V30 6787 C 658.303 3.37377 -5.09529 0
M  V30 6788 C 659.301 3.1773 -6.04596 0
M  V30 6789 O 658.989 3.196 -7.37639 0
M  V30 6790 H 658.721 0.532815 -0.416034 0
M  V30 6791 H 661.275 1.1374 -1.71033 0
M  V30 6792 H 659.505 3.65338 -1.26747 0
M  V30 6793 H 661.194 3.69297 -1.68447 0
M  V30 6794 H 661.96 2.76192 -3.98677 0
M  V30 6795 H 657.839 3.49623 -3.00474 0
M  V30 6796 H 661.383 2.80536 -6.38706 0
M  V30 6797 H 657.28 3.54213 -5.39633 0
M  V30 6798 H 658.048 3.35887 -7.46406 0
M  V30 6799 N 660.711 1.11618 1.11262 0
M  V30 6800 C 661.939 0.888739 1.8684 0
M  V30 6801 C 662.354 -0.561558 1.80255 0
M  V30 6802 O 661.711 -1.38782 1.18515 0
M  V30 6803 C 661.762 1.34422 3.35579 0
M  V30 6804 O 661.483 2.73766 3.42029 0
M  V30 6805 C 662.984 1.15246 4.28058 0
M  V30 6806 H 660.204 0.318152 0.590779 0
M  V30 6807 H 662.748 1.48398 1.40707 0
M  V30 6808 H 660.903 0.79239 3.7921 0
M  V30 6809 H 661.317 2.9355 4.34659 0
M  V30 6810 H 662.791 1.52015 5.30656 0
M  V30 6811 H 663.268 0.0922007 4.39103 0
M  V30 6812 H 663.874 1.69136 3.90222 0
M  V30 6813 N 662.189 -1.289 0.906776 0
M  V30 6814 C 663.139 -2.25122 0.361109 0
M  V30 6815 C 664.123 -1.52169 -0.52283 0
M  V30 6816 O 665.315 -1.73223 -0.363691 0
M  V30 6817 C 662.444 -3.40915 -0.403982 0
M  V30 6818 C 661.53 -4.21198 0.495279 0
M  V30 6819 N 661.921 -4.79636 1.60572 0
M  V30 6820 C 660.219 -4.45027 0.294372 0
M  V30 6821 C 660.92 -5.39977 2.16332 0
M  V30 6822 N 659.896 -5.23753 1.45546 0
M  V30 6823 H 663.698 -2.67869 1.20927 0
M  V30 6824 H 661.212 -1.43592 0.758632 0
M  V30 6825 H 663.209 -4.08922 -0.811695 0
M  V30 6826 H 661.869 -2.99703 -1.24932 0
M  V30 6827 H 662.88 -4.78209 1.98838 0
M  V30 6828 H 659.557 -4.14348 -0.512021 0
M  V30 6829 H 660.947 -5.96266 3.09704 0
M  V30 6830 N 663.667 -0.670007 -1.42649 0
M  V30 6831 C 664.913 -0.19923 -2.02422 0
M  V30 6832 C 665.268 1.17947 -1.52007 0
M  V30 6833 O 664.561 1.77939 -0.710512 0
M  V30 6834 C 664.755 -0.168298 -3.57004 0
M  V30 6835 C 664.584 -1.54246 -4.22419 0
M  V30 6836 C 663.354 -2.13904 -4.57792 0
M  V30 6837 C 665.552 -2.4842 -4.50324 0
M  V30 6838 N 663.534 -3.44151 -5.08364 0
M  V30 6839 C 664.905 -3.63317 -5.02395 0
M  V30 6840 C 666.96 -2.47011 -4.32308 0
M  V30 6841 C 665.663 -4.77051 -5.38345 0
M  V30 6842 C 667.689 -3.59838 -4.6933 0
M  V30 6843 C 667.051 -4.73462 -5.21549 0
M  V30 6844 H 663.15 -0.117717 -0.773089 0
M  V30 6845 H 665.734 -0.881955 -1.73579 0
M  V30 6846 H 663.905 0.483824 -3.85375 0
M  V30 6847 H 665.637 0.314914 -4.03473 0
M  V30 6848 H 662.392 -1.66441 -4.4339 0
M  V30 6849 H 662.816 -4.10846 -5.38084 0
M  V30 6850 H 667.458 -1.60394 -3.91195 0
M  V30 6851 H 665.176 -5.64347 -5.78393 0
M  V30 6852 H 668.762 -3.59969 -4.57071 0
M  V30 6853 H 667.642 -5.59321 -5.49663 0
M  V30 6854 N 665.145 1.52092 -0.413018 0
M  V30 6855 C 666.108 2.25706 0.398687 0
M  V30 6856 C 667.108 1.28221 0.970368 0
M  V30 6857 O 668.298 1.52131 0.848635 0
M  V30 6858 C 665.43 3.03029 1.5616 0
M  V30 6859 H 666.623 2.98888 -0.246131 0
M  V30 6860 H 664.176 1.5542 -0.165622 0
M  V30 6861 H 664.911 2.34205 2.24317 0
M  V30 6862 H 664.696 3.74606 1.15812 0
M  V30 6863 H 666.186 3.58857 2.13569 0
M  V30 6864 N 666.623 0.143563 1.56945 0
M  V30 6865 C 667.871 -0.507402 1.95627 0
M  V30 6866 C 668.192 -1.65626 1.02922 0
M  V30 6867 O 667.462 -1.95693 0.0901136 0
M  V30 6868 H 666.042 -0.190436 0.722318 0
M  V30 6869 H 668.704 0.218257 1.93674 0
M  V30 6870 H 667.8 -0.885816 2.99265 0
M  V30 6871 N 668.101 -1.57061 -0.130224 0
M  V30 6872 C 669.326 -1.88802 -0.858409 0
M  V30 6873 C 669.751 -0.734353 -1.73173 0
M  V30 6874 O 669.109 0.315529 -1.78533 0
M  V30 6875 C 669.157 -3.19228 -1.67708 0
M  V30 6876 O 668.261 -3.04343 -2.78297 0
M  V30 6877 H 667.602 -0.619849 -0.238083 0
M  V30 6878 H 670.132 -2.04271 -0.115995 0
M  V30 6879 H 670.142 -3.51669 -2.06864 0
M  V30 6880 H 668.817 -4.02793 -1.0359 0
M  V30 6881 H 667.394 -2.83346 -2.42425 0
M  V30 6882 N 669.579 0.400081 -1.52437 0
M  V30 6883 C 670.509 1.4947 -1.7939 0
M  V30 6884 C 671.49 1.57383 -0.645329 0
M  V30 6885 O 672.675 1.72511 -0.891826 0
M  V30 6886 C 669.805 2.87201 -1.95276 0
M  V30 6887 C 668.759 2.94134 -3.10917 0
M  V30 6888 C 668.085 4.34207 -3.1204 0
M  V30 6889 C 669.385 2.64791 -4.50203 0
M  V30 6890 H 671.079 1.27165 -2.71052 0
M  V30 6891 H 668.625 0.610312 -1.30427 0
M  V30 6892 H 670.578 3.63772 -2.12715 0
M  V30 6893 H 669.302 3.10819 -1.00294 0
M  V30 6894 H 667.961 2.20009 -2.93243 0
M  V30 6895 H 667.609 4.54848 -2.14761 0
M  V30 6896 H 667.309 4.39768 -3.89715 0
M  V30 6897 H 668.833 5.127 -3.31619 0
M  V30 6898 H 670.247 3.31083 -4.68035 0
M  V30 6899 H 668.644 2.81717 -5.29864 0
M  V30 6900 H 669.714 1.60184 -4.57678 0
M  V30 6901 N 671.057 1.43213 0.657864 0
M  V30 6902 C 672.004 1.48011 1.77092 0
M  V30 6903 C 672.974 0.330291 1.62783 0
M  V30 6904 O 674.159 0.536787 1.83094 0
M  V30 6905 C 671.299 1.40461 3.15222 0
M  V30 6906 C 670.412 2.65612 3.40697 0
M  V30 6907 C 669.547 2.50083 4.68649 0
M  V30 6908 C 668.586 3.70525 4.87214 0
M  V30 6909 N 667.723 3.53835 6.0642 0
M  V30 6910 H 672.563 2.43121 1.72326 0
M  V30 6911 H 670.1 1.20687 0.841013 0
M  V30 6912 H 672.058 1.34079 3.95068 0
M  V30 6913 H 670.688 0.489359 3.19069 0
M  V30 6914 H 669.74 2.82292 2.54982 0
M  V30 6915 H 671.052 3.5509 3.50303 0
M  V30 6916 H 670.206 2.41383 5.56614 0
M  V30 6917 H 668.945 1.58121 4.61356 0
M  V30 6918 H 667.95 3.79639 3.97686 0
M  V30 6919 H 669.175 4.63489 4.96341 0
M  V30 6920 H 667.121 2.64604 6.00267 0
M  V30 6921 H 667.038 4.36912 6.16963 0
M  V30 6922 H 668.306 3.48978 6.97019 0
M  V30 6923 N 672.536 -0.895792 1.29666 0
M  V30 6924 C 673.783 -1.64664 1.17864 0
M  V30 6925 C 674.111 -1.92631 -0.26902 0
M  V30 6926 O 673.366 -1.53787 -1.21029 0
M  V30 6927 C 673.665 -3.00075 1.94139 0
M  V30 6928 C 673.331 -2.91702 3.43833 0
M  V30 6929 C 671.993 -2.89126 3.84656 0
M  V30 6930 C 674.345 -2.80622 4.39205 0
M  V30 6931 C 671.673 -2.73293 5.1916 0
M  V30 6932 C 674.025 -2.66329 5.73805 0
M  V30 6933 C 672.689 -2.62121 6.1388 0
M  V30 6934 H 671.959 -0.602549 0.431295 0
M  V30 6935 H 674.606 -1.04234 1.60648 0
M  V30 6936 H 672.911 -3.64394 1.43958 0
M  V30 6937 H 674.608 -3.57111 1.82408 0
M  V30 6938 H 671.198 -2.94511 3.11386 0
M  V30 6939 H 675.382 -2.81686 4.08615 0
M  V30 6940 H 670.638 -2.68443 5.49316 0
M  V30 6941 H 674.812 -2.56727 6.47352 0
M  V30 6942 H 672.439 -2.49611 7.18052 0
M  V30 6943 N 674.014 -1.12206 -1.10668 0
M  V30 6944 C 675.242 -0.898635 -1.86366 0
M  V30 6945 C 675.657 0.551991 -1.80551 0
M  V30 6946 O 675.014 1.38152 -1.19249 0
M  V30 6947 C 675.065 -1.36199 -3.34861 0
M  V30 6948 O 674.786 -2.75576 -3.40573 0
M  V30 6949 C 676.287 -1.17515 -4.2744 0
M  V30 6950 H 673.507 -0.321281 -0.589084 0
M  V30 6951 H 676.051 -1.49142 -1.39918 0
M  V30 6952 H 674.206 -0.81249 -3.78784 0
M  V30 6953 H 674.62 -2.95851 -4.33096 0
M  V30 6954 H 676.094 -1.54827 -5.29842 0
M  V30 6955 H 676.571 -0.115486 -4.39048 0
M  V30 6956 H 677.177 -1.71203 -3.89319 0
M  V30 6957 N 675.492 1.28418 -0.913599 0
M  V30 6958 C 676.739 1.94981 -0.546674 0
M  V30 6959 C 677.067 1.7192 0.909606 0
M  V30 6960 O 676.322 1.03314 1.66207 0
M  V30 6961 C 676.621 3.48283 -0.802099 0
M  V30 6962 C 676.287 3.91444 -2.2379 0
M  V30 6963 C 674.949 4.02939 -2.63046 0
M  V30 6964 C 677.301 4.13542 -3.17227 0
M  V30 6965 C 674.629 4.3391 -3.94891 0
M  V30 6966 C 676.981 4.45992 -4.48636 0
M  V30 6967 C 675.645 4.55698 -4.87746 0
M  V30 6968 H 674.915 0.713487 -0.200042 0
M  V30 6969 H 677.562 1.52756 -1.15489 0
M  V30 6970 H 675.867 3.91643 -0.111076 0
M  V30 6971 H 677.564 3.97903 -0.497375 0
M  V30 6972 H 674.154 3.83024 -1.9233 0
M  V30 6973 H 678.338 4.04114 -2.88107 0
M  V30 6974 H 673.594 4.39631 -4.24894 0
M  V30 6975 H 677.768 4.62038 -5.21051 0
M  V30 6976 H 675.395 4.79451 -5.89942 0
M  V30 6977 N 676.97 0.677563 1.42291 0
M  V30 6978 C 677.9 0.014968 2.33495 0
M  V30 6979 C 678.881 -0.786376 1.50831 0
M  V30 6980 O 680.066 -0.742975 1.79426 0
M  V30 6981 C 677.196 -0.935023 3.34477 0
M  V30 6982 C 676.15 -0.242074 4.27315 0
M  V30 6983 C 675.476 -1.30519 5.18526 0
M  V30 6984 C 676.776 0.880604 5.14823 0
M  V30 6985 H 678.47 0.776671 2.89151 0
M  V30 6986 H 676.016 0.37494 1.39033 0
M  V30 6987 H 677.969 -1.40766 3.97194 0
M  V30 6988 H 676.693 -1.72818 2.77131 0
M  V30 6989 H 675.352 0.210351 3.65996 0
M  V30 6990 H 675 -2.09041 4.57505 0
M  V30 6991 H 674.7 -0.846652 5.81468 0
M  V30 6992 H 676.224 -1.7787 5.84119 0
M  V30 6993 H 677.638 0.489062 5.7121 0
M  V30 6994 H 676.035 1.26511 5.86613 0
M  V30 6995 H 677.105 1.72818 4.53059 0
M  V30 6996 N 678.448 -1.51871 0.421078 0
M  V30 6997 C 679.695 -2.01938 -0.15079 0
M  V30 6998 C 680.023 -1.30611 -1.44121 0
M  V30 6999 O 679.278 -0.404631 -1.91471 0
M  V30 7000 C 679.577 -3.54764 -0.433292 0
M  V30 7001 C 679.243 -4.44288 0.76936 0
M  V30 7002 C 677.905 -4.68477 1.09921 0
M  V30 7003 C 680.257 -4.96915 1.57242 0
M  V30 7004 C 677.585 -5.4254 2.2331 0
M  V30 7005 C 679.937 -5.7222 2.69716 0
M  V30 7006 C 678.601 -5.94678 3.03174 0
M  V30 7007 H 677.871 -0.738943 -0.0551781 0
M  V30 7008 H 680.518 -1.82977 0.564945 0
M  V30 7009 H 678.823 -3.71968 -1.23074 0
M  V30 7010 H 680.52 -3.91023 -0.888922 0
M  V30 7011 H 677.11 -4.25646 0.502305 0
M  V30 7012 H 681.294 -4.78125 1.3308 0
M  V30 7013 H 676.55 -5.58146 2.49565 0
M  V30 7014 H 680.724 -6.11992 3.32323 0
M  V30 7015 H 678.351 -6.51848 3.9115 0
M  V30 7016 N 679.926 -0.151884 -1.56866 0
M  V30 7017 C 681.166 0.500695 -1.98173 0
M  V30 7018 C 681.53 1.61715 -1.03499 0
M  V30 7019 O 682.731 2.33093 -1.33869 0
M  V30 7020 C 681.002 0.989333 -3.43434 0
M  V30 7021 S 682.561 1.64583 -4.06765 0
M  V30 7022 H 679.379 0.16173 -0.692361 0
M  V30 7023 H 681.981 -0.244754 -1.93962 0
M  V30 7024 H 680.685 0.166072 -4.10064 0
M  V30 7025 H 680.216 1.76929 -3.51368 0
M  V30 7026 H 682.231 2.93326 -4.00218 0
M  V30 7027 N 681.404 1.57128 0.121893 0
M  V30 7028 C 682.652 1.84335 0.828548 0
M  V30 7029 C 682.973 0.736632 1.80551 0
M  V30 7030 O 682.243 -0.23962 1.94429 0
M  V30 7031 H 680.823 0.680108 0.30897 0
M  V30 7032 H 683.485 1.9459 0.109906 0
M  V30 7033 H 682.581 2.80152 1.37554 0
M  V30 7034 N 682.882 -0.391992 1.52647 0
M  V30 7035 C 684.107 -1.16312 1.71716 0
M  V30 7036 C 684.532 -1.83042 0.433279 0
M  V30 7037 O 683.89 -1.70705 -0.610707 0
M  V30 7038 C 683.938 -2.18908 2.86551 0
M  V30 7039 O 683.042 -3.2543 2.53316 0
M  V30 7040 H 682.383 -0.338743 0.571095 0
M  V30 7041 H 684.913 -0.457202 1.99426 0
M  V30 7042 H 684.923 -2.62954 3.1196 0
M  V30 7043 H 683.598 -1.69726 3.79692 0
M  V30 7044 H 682.175 -2.86543 2.38637 0
M  V30 7045 N 684.36 -1.4356 -0.65026 0
M  V30 7046 C 685.293 -1.434 -1.77515 0
M  V30 7047 C 686.271 -0.295082 -1.599 0
M  V30 7048 O 687.455 -0.489128 -1.82043 0
M  V30 7049 C 684.582 -1.2484 -3.14853 0
M  V30 7050 C 683.628 -2.42046 -3.51163 0
M  V30 7051 S 684.461 -4.04595 -3.50803 0
M  V30 7052 C 685.617 -3.88424 -4.90793 0
M  V30 7053 H 685.85 -2.38586 -1.77381 0
M  V30 7054 H 683.383 -1.30627 -0.823169 0
M  V30 7055 H 685.341 -1.14819 -3.94115 0
M  V30 7056 H 684.002 -0.311977 -3.12547 0
M  V30 7057 H 683.195 -2.24873 -4.51052 0
M  V30 7058 H 682.797 -2.48708 -2.79321 0
M  V30 7059 H 685.089 -3.50932 -5.79528 0
M  V30 7060 H 686.032 -4.88076 -5.13018 0
M  V30 7061 H 686.44 -3.20829 -4.64467 0
M  V30 7062 N 685.838 0.888903 -1.30139 0
M  V30 7063 C 686.771 1.99655 -1.10514 0
M  V30 7064 C 687.749 1.62594 -0.0138934 0
M  V30 7065 O 688.933 1.87762 -0.166689 0
M  V30 7066 C 686.06 3.31708 -0.684655 0
M  V30 7067 C 685.106 3.87755 -1.77619 0
M  V30 7068 S 685.939 4.15532 -3.37777 0
M  V30 7069 C 687.095 5.5061 -2.97622 0
M  V30 7070 H 687.328 2.15996 -2.04287 0
M  V30 7071 H 684.861 1.03682 -1.14409 0
M  V30 7072 H 686.819 4.08039 -0.448782 0
M  V30 7073 H 685.48 3.1323 0.233648 0
M  V30 7074 H 684.673 4.83164 -1.43417 0
M  V30 7075 H 684.275 3.18149 -1.96614 0
M  V30 7076 H 686.567 6.31518 -2.45338 0
M  V30 7077 H 687.51 5.89747 -3.91924 0
M  V30 7078 H 687.918 5.12983 -2.35603 0
M  V30 7079 N 687.317 1.12792 1.10072 0
M  V30 7080 C 688.28 0.802264 2.14701 0
M  V30 7081 C 689.28 -0.18515 1.59731 0
M  V30 7082 O 690.47 0.041109 1.74151 0
M  V30 7083 C 687.602 0.19285 3.40354 0
M  V30 7084 H 688.795 1.72932 2.45019 0
M  V30 7085 H 686.348 0.931662 1.25498 0
M  V30 7086 H 687.083 -0.743748 3.15656 0
M  V30 7087 H 686.868 0.903827 3.81541 0
M  V30 7088 H 688.358 -0.0183704 4.17596 0
M  V30 7089 N 688.795 -1.27931 0.920396 0
M  V30 7090 C 690.023 -1.98805 0.573087 0
M  V30 7091 C 690.438 -1.68724 -0.847201 0
M  V30 7092 O 689.795 -0.943699 -1.56207 0
M  V30 7093 C 689.846 -3.52971 0.780633 0
M  V30 7094 O 689.567 -3.81994 2.14504 0
M  V30 7095 C 691.068 -4.411 0.44105 0
M  V30 7096 H 688.288 -0.634651 0.21785 0
M  V30 7097 H 690.832 -1.62965 1.23542 0
M  V30 7098 H 688.987 -3.87048 0.165204 0
M  V30 7099 H 689.401 -4.76609 2.18962 0
M  V30 7100 H 690.875 -5.48312 0.637006 0
M  V30 7101 H 691.352 -4.34758 -0.62306 0
M  V30 7102 H 691.958 -4.12532 1.0343 0
M  V30 7103 N 690.273 -0.685099 -1.4193 0
M  V30 7104 C 691.521 -0.21124 -2.00993 0
M  V30 7105 C 691.842 1.18985 -1.54491 0
M  V30 7106 O 691.112 1.8009 -0.771 0
M  V30 7107 H 689.692 -0.0751059 -0.743215 0
M  V30 7108 H 692.354 -0.883915 -1.73704 0
M  V30 7109 H 691.45 -0.220513 -3.1132 0
M  V30 7110 N 691.751 1.51645 -0.429126 0
M  V30 7111 C 692.698 2.27542 0.386446 0
M  V30 7112 C 693.668 1.30786 1.02393 0
M  V30 7113 O 694.853 1.59678 1.0444 0
M  V30 7114 C 691.993 3.11457 1.48623 0
M  V30 7115 C 691.106 4.23196 0.867691 0
M  V30 7116 C 690.241 4.94435 1.94183 0
M  V30 7117 C 689.28 5.98108 1.30129 0
M  V30 7118 N 688.417 6.62786 2.31644 0
M  V30 7119 H 693.257 2.968 -0.267155 0
M  V30 7120 H 690.794 1.46397 -0.143591 0
M  V30 7121 H 692.752 3.58429 2.13506 0
M  V30 7122 H 691.382 2.44329 2.10957 0
M  V30 7123 H 690.434 3.80248 0.107373 0
M  V30 7124 H 691.746 4.97499 0.35997 0
M  V30 7125 H 690.9 5.44914 2.66747 0
M  V30 7126 H 689.639 4.19744 2.48326 0
M  V30 7127 H 688.644 5.4693 0.561082 0
M  V30 7128 H 689.869 6.74751 0.767303 0
M  V30 7129 H 687.815 5.90913 2.84883 0
M  V30 7130 H 687.732 7.32828 1.85741 0
M  V30 7131 H 689 7.17897 3.03717 0
M  V30 7132 N 693.229 0.160201 1.56784 0
M  V30 7133 C 694.159 -0.770264 2.2043 0
M  V30 7134 C 695.14 -1.24736 1.15651 0
M  V30 7135 O 696.325 -1.30253 1.44041 0
M  V30 7136 C 693.455 -2.00427 2.83631 0
M  V30 7137 C 692.409 -1.66345 3.94352 0
M  V30 7138 C 691.735 -2.97119 4.4455 0
M  V30 7139 C 693.035 -0.899972 5.14488 0
M  V30 7140 H 694.729 -0.239783 2.98438 0
M  V30 7141 H 692.275 -0.113891 1.43549 0
M  V30 7142 H 694.228 -2.66012 3.26827 0
M  V30 7143 H 692.952 -2.5587 2.02973 0
M  V30 7144 H 691.611 -1.03133 3.51794 0
M  V30 7145 H 691.259 -3.5058 3.60698 0
M  V30 7146 H 690.959 -2.75073 5.19238 0
M  V30 7147 H 692.483 -3.63753 4.90425 0
M  V30 7148 H 693.897 -1.45818 5.54446 0
M  V30 7149 H 692.294 -0.778968 5.95023 0
M  V30 7150 H 693.364 0.105827 4.84785 0
M  V30 7151 N 694.707 -1.5719 -0.113559 0
M  V30 7152 C 695.637 -2.03772 -1.14013 0
M  V30 7153 C 696.618 -0.923176 -1.42869 0
M  V30 7154 O 697.803 -1.19325 -1.53216 0
M  V30 7155 C 694.933 -2.44663 -2.4649 0
M  V30 7156 C 693.887 -3.59612 -2.32085 0
M  V30 7157 C 693.213 -3.8642 -3.69573 0
M  V30 7158 C 694.513 -4.91149 -1.7768 0
M  V30 7159 H 696.207 -2.89785 -0.752665 0
M  V30 7160 H 693.753 -1.39412 -0.360609 0
M  V30 7161 H 695.706 -2.75857 -3.18561 0
M  V30 7162 H 694.43 -1.55628 -2.87137 0
M  V30 7163 H 693.089 -3.28636 -1.62461 0
M  V30 7164 H 692.737 -2.94581 -4.07715 0
M  V30 7165 H 692.437 -4.63797 -3.60786 0
M  V30 7166 H 693.961 -4.2007 -4.4314 0
M  V30 7167 H 695.375 -5.20843 -2.39574 0
M  V30 7168 H 693.772 -5.72562 -1.79701 0
M  V30 7169 H 694.842 -4.79301 -0.734776 0
M  V30 7170 N 696.185 0.383891 -1.52853 0
M  V30 7171 C 697.431 1.13009 -1.68395 0
M  V30 7172 C 697.764 1.89488 -0.425195 0
M  V30 7173 O 697.039 1.8574 0.577136 0
M  V30 7174 C 697.322 2.10419 -2.92226 0
M  V30 7175 C 697.175 1.3767 -4.28214 0
M  V30 7176 C 698.494 3.10781 -3.11614 0
M  V30 7177 H 695.613 0.409463 -0.612788 0
M  V30 7178 H 698.255 0.412895 -1.85459 0
M  V30 7179 H 696.405 2.71579 -2.77808 0
M  V30 7180 H 698.077 0.794352 -4.54409 0
M  V30 7181 H 696.32 0.678533 -4.2846 0
M  V30 7182 H 696.991 2.08874 -5.10956 0
M  V30 7183 H 699.467 2.59715 -3.25096 0
M  V30 7184 H 698.343 3.76179 -3.99725 0
M  V30 7185 H 698.604 3.79933 -2.2606 0
M  V30 7186 N 697.663 1.43903 0.642637 0
M  V30 7187 C 698.888 1.49758 1.43483 0
M  V30 7188 C 699.313 0.119911 1.87717 0
M  V30 7189 O 698.671 -0.888558 1.58033 0
M  V30 7190 C 698.719 2.45744 2.63898 0
M  V30 7191 O 697.823 1.95101 3.63331 0
M  V30 7192 H 697.164 0.506138 0.429791 0
M  V30 7193 H 699.694 1.88923 0.785438 0
M  V30 7194 H 699.704 2.63399 3.11584 0
M  V30 7195 H 698.379 3.45818 2.31046 0
M  V30 7196 H 696.956 1.87158 3.22531 0
M  V30 7197 N 699.141 -0.881989 1.30609 0
M  V30 7198 C 700.371 -1.66469 1.22359 0
M  V30 7199 C 700.779 -1.87969 -0.215507 0
M  V30 7200 O 700.122 -1.42938 -1.15388 0
M  V30 7201 C 700.184 -3.06135 1.88472 0
M  V30 7202 C 699.848 -3.07795 3.37804 0
M  V30 7203 C 700.845 -2.86633 4.33749 0
M  V30 7204 C 698.53 -3.29297 3.793 0
M  V30 7205 C 700.524 -2.86934 5.69164 0
M  V30 7206 C 698.211 -3.29228 5.14832 0
M  V30 7207 C 699.209 -3.08071 6.09574 0
M  V30 7208 O 698.897 -3.07824 7.4263 0
M  V30 7209 H 698.629 -0.526129 0.424458 0
M  V30 7210 H 701.183 -1.11004 1.72821 0
M  V30 7211 H 699.413 -3.63276 1.32543 0
M  V30 7212 H 701.102 -3.66571 1.74301 0
M  V30 7213 H 701.868 -2.69814 4.0302 0
M  V30 7214 H 697.747 -3.44799 3.05998 0
M  V30 7215 H 701.291 -2.70339 6.43088 0
M  V30 7216 H 697.188 -3.45583 5.452 0
M  V30 7217 H 697.956 -3.2397 7.51656 0
M  V30 7218 N 700.619 -1.13374 -1.09472 0
M  V30 7219 C 701.582 -0.813639 -2.14272 0
M  V30 7220 C 702.582 0.176677 -1.59826 0
M  V30 7221 O 703.772 -0.0503441 -1.74127 0
M  V30 7222 C 700.904 -0.210897 -3.40247 0
M  V30 7223 H 702.097 -1.74229 -2.44099 0
M  V30 7224 H 699.65 -0.938304 -1.25002 0
M  V30 7225 H 700.385 0.726998 -3.16046 0
M  V30 7226 H 700.17 -0.924048 -3.81056 0
M  V30 7227 H 701.66 -0.00377603 -4.176 0
M  V30 7228 N 702.098 1.27442 -0.927168 0
M  V30 7229 C 703.509 1.76385 -0.611979 0
M  V30 7230 C 703.86 1.75715 0.872853 0
M  V30 7231 O 702.985 1.3603 1.683 0
M  V30 7232 C 703.58 3.20303 -1.10414 0
M  V30 7233 C 702.139 3.66916 -0.839628 0
M  V30 7234 C 701.286 2.46859 -1.26317 0
M  V30 7235 H 704.237 1.13716 -1.107 0
M  V30 7236 H 704.258 3.77811 -0.451578 0
M  V30 7237 H 703.77 3.20759 -2.18484 0
M  V30 7238 H 701.871 3.71906 0.227292 0
M  V30 7239 H 701.984 4.56415 -1.45679 0
M  V30 7240 H 700.348 2.45407 -0.681723 0
M  V30 7241 H 701.131 2.50025 -2.3525 0
M  V30 7242 N 703.576 0.692616 1.41565 0
M  V30 7243 C 704.987 0.297478 1.84315 0
M  V30 7244 C 705.338 -1.16379 1.57957 0
M  V30 7245 O 704.463 -1.89303 1.0485 0
M  V30 7246 C 705.058 0.533136 3.34579 0
M  V30 7247 C 703.617 0.191944 3.7591 0
M  V30 7248 C 702.764 0.816873 2.64995 0
M  V30 7249 H 705.715 0.893488 1.31158 0
M  V30 7250 H 705.736 -0.209105 3.79925 0
M  V30 7251 H 705.248 1.59674 3.53731 0
M  V30 7252 H 703.349 -0.867512 3.6236 0
M  V30 7253 H 703.462 0.644902 4.7474 0
M  V30 7254 H 701.826 0.246715 2.53502 0
M  V30 7255 H 702.609 1.88429 2.86966 0
M  V30 7256 N 705.054 -1.51416 0.437162 0
M  V30 7257 C 706.302 -2.01687 -0.129108 0
M  V30 7258 C 706.623 -1.32329 -1.43227 0
M  V30 7259 O 705.893 -0.457796 -1.90476 0
M  V30 7260 H 704.473 -0.745277 -0.0507023 0
M  V30 7261 H 707.135 -1.86075 0.579828 0
M  V30 7262 H 706.231 -3.10605 -0.305141 0
M  V30 7263 N 706.532 -0.168513 -1.56696 0
M  V30 7264 C 707.495 0.748928 -2.16619 0
M  V30 7265 C 708.495 1.16007 -1.11351 0
M  V30 7266 O 709.685 1.07748 -1.3688 0
M  V30 7267 C 706.817 2.01904 -2.74677 0
M  V30 7268 H 708.01 0.227317 -2.99037 0
M  V30 7269 H 705.563 0.0810372 -1.5609 0
M  V30 7270 H 706.298 2.58381 -1.95985 0
M  V30 7271 H 706.083 1.73323 -3.51712 0
M  V30 7272 H 707.573 2.67383 -3.20774 0
M  V30 7273 N 708.01 1.57248 0.105221 0
M  V30 7274 C 708.92 2.04653 1.14693 0
M  V30 7275 C 709.936 0.969488 1.44489 0
M  V30 7276 O 711.112 1.28196 1.55331 0
M  V30 7277 C 708.177 2.45297 2.45011 0
M  V30 7278 C 707.238 3.67148 2.22489 0
M  V30 7279 C 706.471 4.05844 3.46592 0
M  V30 7280 O 706.694 3.44736 4.54437 0
M  V30 7281 O 705.628 4.98862 3.36779 0
M  V30 7282 H 709.454 2.93663 0.774336 0
M  V30 7283 H 707.039 1.45998 0.31701 0
M  V30 7284 H 708.921 2.72112 3.21766 0
M  V30 7285 H 707.596 1.59429 2.81717 0
M  V30 7286 H 706.503 3.45463 1.43547 0
M  V30 7287 H 707.836 4.53764 1.9068 0
M  V30 7288 N 709.488 -0.375779 1.53054 0
M  V30 7289 C 710.451 -1.44254 1.7811 0
M  V30 7290 C 711.451 -1.47018 0.651328 0
M  V30 7291 O 712.641 -1.47957 0.919472 0
M  V30 7292 C 709.773 -2.8345 1.89391 0
M  V30 7293 H 710.966 -1.23316 2.73374 0
M  V30 7294 H 708.519 -0.608312 1.43977 0
M  V30 7295 H 709.254 -3.09716 0.961589 0
M  V30 7296 H 709.039 -2.82844 2.71555 0
M  V30 7297 H 710.529 -3.60722 2.10404 0
M  V30 7298 N 710.966 -1.44241 -0.634997 0
M  V30 7299 C 712.377 -1.41622 -1.21655 0
M  V30 7300 C 712.728 -0.129584 -1.95772 0
M  V30 7301 O 711.853 0.770225 -2.02229 0
M  V30 7302 C 712.448 -2.56557 -2.21278 0
M  V30 7303 C 711.007 -2.57145 -2.7487 0
M  V30 7304 C 710.154 -2.33354 -1.49804 0
M  V30 7305 H 713.105 -1.52878 -0.425905 0
M  V30 7306 H 713.126 -2.29089 -3.03807 0
M  V30 7307 H 712.638 -3.50186 -1.67306 0
M  V30 7308 H 710.739 -1.67447 -3.32855 0
M  V30 7309 H 710.852 -3.55507 -3.21172 0
M  V30 7310 H 709.216 -1.82372 -1.77799 0
M  V30 7311 H 709.999 -3.29092 -0.977402 0
M  V30 7312 N 712.444 0.87505 -1.31075 0
M  V30 7313 C 713.391 1.98178 -1.18296 0
M  V30 7314 C 714.361 1.65952 -0.0699923 0
M  V30 7315 O 715.546 1.8926 -0.241951 0
M  V30 7316 C 712.686 3.33399 -0.891024 0
M  V30 7317 C 711.799 3.78253 -2.08684 0
M  V30 7318 C 710.934 5.02166 -1.73212 0
M  V30 7319 C 709.973 5.39455 -2.89231 0
M  V30 7320 N 709.11 6.54549 -2.53989 0
M  V30 7321 H 713.95 2.0844 -2.12971 0
M  V30 7322 H 711.487 1.02047 -1.05948 0
M  V30 7323 H 713.445 4.11246 -0.702338 0
M  V30 7324 H 712.075 3.22794 0.0188799 0
M  V30 7325 H 711.127 2.9623 -2.38646 0
M  V30 7326 H 712.439 4.01821 -2.95536 0
M  V30 7327 H 711.593 5.87666 -1.50777 0
M  V30 7328 H 710.332 4.80491 -0.83544 0
M  V30 7329 H 709.337 4.52477 -3.12321 0
M  V30 7330 H 710.562 5.63098 -3.79601 0
M  V30 7331 H 708.508 6.3443 -1.66838 0
M  V30 7332 H 708.425 6.78035 -3.34372 0
M  V30 7333 H 709.693 7.43254 -2.34934 0
M  V30 7334 N 713.922 1.13953 1.08869 0
M  V30 7335 C 715.147 0.928559 1.85452 0
M  V30 7336 C 715.572 -0.517642 1.80837 0
M  V30 7337 O 714.93 -1.36779 1.19001 0
M  V30 7338 C 714.978 1.42814 3.31114 0
M  V30 7339 O 714.082 0.617129 4.07756 0
M  V30 7340 H 713.423 0.33235 0.574839 0
M  V30 7341 H 715.953 1.5156 1.37443 0
M  V30 7342 H 715.963 1.43425 3.8196 0
M  V30 7343 H 714.638 2.48109 3.33788 0
M  V30 7344 H 713.215 0.679365 3.66659 0
M  V30 7345 N 715.4 -1.26948 0.933913 0
M  V30 7346 C 716.816 -1.46419 0.635103 0
M  V30 7347 C 717.016 -1.84336 -0.813785 0
M  V30 7348 O 716.072 -1.96061 -1.59111 0
M  V30 7349 C 717.385 -2.55206 1.5903 0
M  V30 7350 C 718.933 -2.69062 1.5992 0
M  V30 7351 C 719.408 -3.81013 2.54152 0
M  V30 7352 N 720.899 -3.88395 2.52395 0
M  V30 7353 C 721.634 -4.74454 3.21996 0
M  V30 7354 N 721.13 -5.64954 4.00997 0
M  V30 7355 N 722.923 -4.68237 3.10983 0
M  V30 7356 H 715.074 -1.00622 1.87053 0
M  V30 7357 H 717.337 -0.503189 0.803433 0
M  V30 7358 H 717.043 -2.34153 2.62422 0
M  V30 7359 H 716.917 -3.52719 1.33677 0
M  V30 7360 H 719.304 -2.89492 0.572569 0
M  V30 7361 H 719.385 -1.72016 1.89325 0
M  V30 7362 H 719.029 -3.61336 3.5693 0
M  V30 7363 H 718.959 -4.77499 2.22041 0
M  V30 7364 H 721.45 -3.23687 1.95025 0
M  V30 7365 H 721.763 -6.27496 4.51074 0
M  V30 7366 H 720.108 -5.6473 4.05099 0
M  V30 7367 H 723.299 -3.96535 2.48753 0
M  V30 7368 H 723.472 -5.35087 3.65494 0
M  V30 7369 N 716.879 -0.700114 -1.41195 0
M  V30 7370 C 717.826 -0.0376652 -2.30769 0
M  V30 7371 C 718.796 0.766544 -1.47354 0
M  V30 7372 O 719.981 0.73365 -1.76131 0
M  V30 7373 C 717.121 0.889452 -3.33441 0
M  V30 7374 C 716.234 0.076373 -4.31932 0
M  V30 7375 C 715.369 1.00155 -5.21673 0
M  V30 7376 C 714.408 0.181644 -6.1183 0
M  V30 7377 N 713.545 1.06087 -6.94039 0
M  V30 7378 H 718.385 -0.80726 -2.86858 0
M  V30 7379 H 715.922 -0.409798 -1.41277 0
M  V30 7380 H 717.88 1.44107 -3.91522 0
M  V30 7381 H 716.51 1.6254 -2.78892 0
M  V30 7382 H 715.562 -0.592223 -3.75762 0
M  V30 7383 H 716.874 -0.559076 -4.95657 0
M  V30 7384 H 716.028 1.62223 -5.8461 0
M  V30 7385 H 714.767 1.67085 -4.58186 0
M  V30 7386 H 713.772 -0.452085 -5.47938 0
M  V30 7387 H 714.997 -0.483925 -6.77374 0
M  V30 7388 H 712.943 1.7161 -6.33156 0
M  V30 7389 H 712.86 0.481094 -7.54468 0
M  V30 7390 H 714.128 1.66822 -7.6144 0
M  V30 7391 N 718.357 1.51182 -0.445186 0
M  V30 7392 C 719.267 2.31692 0.368255 0
M  V30 7393 C 720.283 1.40942 1.02036 0
M  V30 7394 O 721.459 1.74011 1.01401 0
M  V30 7395 C 718.524 3.14903 1.45041 0
M  V30 7396 C 717.585 4.21442 0.817615 0
M  V30 7397 C 716.818 5.00677 1.8482 0
M  V30 7398 O 717.041 4.80644 3.07145 0
M  V30 7399 O 715.975 5.84559 1.43438 0
M  V30 7400 H 719.801 3.0232 -0.289219 0
M  V30 7401 H 717.386 1.47951 -0.207555 0
M  V30 7402 H 719.268 3.66612 2.07783 0
M  V30 7403 H 717.943 2.47031 2.09182 0
M  V30 7404 H 716.85 3.73791 0.151931 0
M  V30 7405 H 718.183 4.9171 0.219564 0
M  V30 7406 N 719.835 0.176821 1.56605 0
M  V30 7407 C 720.798 -0.737429 2.17013 0
M  V30 7408 C 721.798 -1.15414 1.11965 0
M  V30 7409 O 722.988 -1.0702 1.37449 0
M  V30 7410 C 720.12 -2.00445 2.75744 0
M  V30 7411 H 721.313 -0.211455 2.99154 0
M  V30 7412 H 718.866 -0.0727582 1.56131 0
M  V30 7413 H 719.601 -2.57338 1.97352 0
M  V30 7414 H 719.386 -1.71456 3.52626 0
M  V30 7415 H 720.876 -2.65679 3.22187 0
M  V30 7416 N 721.313 -1.57302 -0.09688 0
M  V30 7417 C 722.246 -1.97179 -1.14872 0
M  V30 7418 C 723.224 -0.844734 -1.38935 0
M  V30 7419 O 724.408 -1.10487 -1.52725 0
M  V30 7420 C 721.535 -2.28703 -2.49826 0
M  V30 7421 C 720.581 -3.51158 -2.42054 0
M  V30 7422 S 721.414 -5.0294 -1.83879 0
M  V30 7423 C 722.57 -5.37639 -3.2046 0
M  V30 7424 H 722.803 -2.86088 -0.808771 0
M  V30 7425 H 720.336 -1.51368 -0.304492 0
M  V30 7426 H 722.294 -2.47541 -3.27466 0
M  V30 7427 H 720.955 -1.40368 -2.8099 0
M  V30 7428 H 720.148 -3.70651 -3.41517 0
M  V30 7429 H 719.75 -3.31821 -1.72543 0
M  V30 7430 H 722.042 -5.34175 -4.16729 0
M  V30 7431 H 722.985 -6.38677 -3.05773 0
M  V30 7432 H 723.393 -4.651 -3.19909 0
M  V30 7433 N 722.791 0.367657 -1.53252 0
M  V30 7434 C 723.721 1.45632 -1.8252 0
M  V30 7435 C 724.702 1.55979 -0.678568 0
M  V30 7436 O 725.887 1.70581 -0.928217 0
M  V30 7437 C 723.017 2.82994 -2.01325 0
M  V30 7438 C 721.971 2.87473 -3.17086 0
M  V30 7439 C 721.297 4.2749 -3.21179 0
M  V30 7440 C 722.597 2.55182 -4.55719 0
M  V30 7441 H 724.291 1.21387 -2.73689 0
M  V30 7442 H 721.837 0.58251 -1.31692 0
M  V30 7443 H 723.79 3.59179 -2.20383 0
M  V30 7444 H 722.514 3.08622 -1.06864 0
M  V30 7445 H 721.173 2.13739 -2.97844 0
M  V30 7446 H 720.821 4.5019 -2.24361 0
M  V30 7447 H 720.521 4.31403 -3.98955 0
M  V30 7448 H 722.045 5.0555 -3.42419 0
M  V30 7449 H 723.459 3.21081 -4.74953 0
M  V30 7450 H 721.856 2.70414 -5.3572 0
M  V30 7451 H 722.926 1.5044 -4.60973 0
M  V30 7452 N 724.269 1.44576 0.627338 0
M  V30 7453 C 725.517 1.47267 1.38408 0
M  V30 7454 C 725.838 0.107971 1.94701 0
M  V30 7455 O 725.108 -0.860206 1.76004 0
M  V30 7456 H 723.688 0.542276 0.513756 0
M  V30 7457 H 726.35 1.80383 0.738099 0
M  V30 7458 H 725.446 2.20025 2.21349 0
M  V30 7459 N 725.747 -0.868086 1.31537 0
M  V30 7460 C 726.975 -1.65402 1.24298 0
M  V30 7461 C 727.39 -1.87827 -0.191389 0
M  V30 7462 O 726.747 -1.43776 -1.12404 0
M  V30 7463 C 726.798 -3.02093 1.9855 0
M  V30 7464 O 726.519 -2.80668 3.36388 0
M  V30 7465 C 728.02 -3.96538 1.98173 0
M  V30 7466 H 725.24 -0.515598 0.429417 0
M  V30 7467 H 727.784 -1.0834 1.73444 0
M  V30 7468 H 725.939 -3.55838 1.53161 0
M  V30 7469 H 726.353 -3.67504 3.74221 0
M  V30 7470 H 727.827 -4.8976 2.54635 0
M  V30 7471 H 728.304 -4.28474 0.964697 0
M  V30 7472 H 728.91 -3.48729 2.4345 0
M  V30 7473 N 727.225 -1.14528 -1.08264 0
M  V30 7474 C 728.175 -0.802141 -2.13424 0
M  V30 7475 C 729.159 0.209362 -1.59532 0
M  V30 7476 O 730.351 0.0114859 -1.76996 0
M  V30 7477 C 727.48 -0.282938 -3.42132 0
M  V30 7478 C 726.566 -1.32405 -4.02902 0
M  V30 7479 N 726.957 -2.52861 -4.38058 0
M  V30 7480 C 725.255 -1.17462 -4.30254 0
M  V30 7481 C 725.956 -3.1952 -4.86088 0
M  V30 7482 N 724.932 -2.46921 -4.84284 0
M  V30 7483 H 728.734 -1.71843 -2.38426 0
M  V30 7484 H 726.248 -1.02936 -1.2561 0
M  V30 7485 H 728.245 -0.0188053 -4.16896 0
M  V30 7486 H 726.905 0.627533 -3.18578 0
M  V30 7487 H 727.916 -2.90078 -4.2904 0
M  V30 7488 H 724.593 -0.323283 -4.16246 0
M  V30 7489 H 725.983 -4.2223 -5.22658 0
M  V30 7490 N 728.703 1.26451 -0.940633 0
M  V30 7491 C 729.949 1.94065 -0.58878 0
M  V30 7492 C 730.282 1.7363 0.869853 0
M  V30 7493 O 729.557 1.073 1.62225 0
M  V30 7494 C 729.84 3.47852 -0.931199 0
M  V30 7495 C 729.693 3.77575 -2.44453 0
M  V30 7496 C 731.012 4.37832 -0.446229 0
M  V30 7497 H 728.131 0.704827 -0.21538 0
M  V30 7498 H 730.773 1.4933 -1.17475 0
M  V30 7499 H 728.923 3.86085 -0.432539 0
M  V30 7500 H 730.595 3.49059 -3.01588 0
M  V30 7501 H 728.838 3.23671 -2.88825 0
M  V30 7502 H 729.509 4.85068 -2.63464 0
M  V30 7503 H 731.985 4.06822 -0.873778 0
M  V30 7504 H 730.861 5.44228 -0.714648 0
M  V30 7505 H 731.122 4.37239 0.653815 0
M  V30 7506 N 730.181 0.707592 1.40822 0
M  V30 7507 C 731.43 0.240705 2.00259 0
M  V30 7508 C 731.743 -1.17027 1.56729 0
M  V30 7509 O 732.949 -1.73526 2.08809 0
M  V30 7510 C 731.405 0.379432 3.57894 0
M  V30 7511 C 731.013 1.79654 4.104 0
M  V30 7512 C 732.757 -0.0270684 4.24491 0
M  V30 7513 C 730.664 1.88628 5.60512 0
M  V30 7514 H 729.594 0.0862369 0.749052 0
M  V30 7515 H 732.245 0.877528 1.61157 0
M  V30 7516 H 730.627 -0.325842 3.94657 0
M  V30 7517 H 731.801 2.53155 3.85032 0
M  V30 7518 H 730.116 2.15379 3.56372 0
M  V30 7519 H 732.713 0.0193743 5.34696 0
M  V30 7520 H 733.056 -1.06772 4.02375 0
M  V30 7521 H 733.589 0.628361 3.92806 0
M  V30 7522 H 730.328 2.90787 5.87472 0
M  V30 7523 H 729.848 1.19528 5.8777 0
M  V30 7524 H 731.527 1.6547 6.25483 0
M  V30 7525 N 731.66 -1.50943 0.453197 0
M  V30 7526 C 732.906 -2.03153 -0.100277 0
M  V30 7527 C 733.261 -1.33032 -1.38997 0
M  V30 7528 O 732.554 -0.441423 -1.86446 0
M  V30 7529 C 732.748 -3.55603 -0.357944 0
M  V30 7530 C 732.577 -4.40495 0.905223 0
M  V30 7531 C 731.347 -4.84247 1.44337 0
M  V30 7532 C 733.545 -4.81931 1.79575 0
M  V30 7533 N 731.527 -5.53403 2.65742 0
M  V30 7534 C 732.898 -5.50314 2.85577 0
M  V30 7535 C 734.953 -4.63903 1.80828 0
M  V30 7536 C 733.656 -6.02581 3.92797 0
M  V30 7537 C 735.682 -5.17097 2.86993 0
M  V30 7538 C 735.044 -5.8544 3.91713 0
M  V30 7539 H 731.143 -0.781995 0.00287755 0
M  V30 7540 H 733.727 -1.84651 0.617411 0
M  V30 7541 H 731.898 -3.74087 -1.04467 0
M  V30 7542 H 733.63 -3.9447 -0.904175 0
M  V30 7543 H 730.385 -4.63029 0.995045 0
M  V30 7544 H 730.809 -5.92598 3.27348 0
M  V30 7545 H 735.451 -4.10512 1.0119 0
M  V30 7546 H 733.169 -6.55018 4.73262 0
M  V30 7547 H 736.755 -5.0499 2.88923 0
M  V30 7548 H 735.635 -6.25861 4.72512 0
M  V30 7549 N 733.138 -0.185124 -1.56509 0
M  V30 7550 C 734.415 0.503348 -1.89013 0
M  V30 7551 C 734.795 1.80349 -1.09715 0
M  V30 7552 O 734.143 2.27665 -0.195203 0
M  V30 7553 C 734.353 0.731839 -3.41241 0
M  V30 7554 C 735.701 1.05568 -4.11267 0
M  V30 7555 O 736.725 0.819906 -3.46635 0
M  V30 7556 O 735.584 1.50116 -5.25478 0
M  V30 7557 H 732.678 0.261139 -0.784688 0
M  V30 7558 H 735.224 -0.224592 -1.68207 0
M  V30 7559 H 733.996 -0.18672 -3.90854 0
M  V30 7560 H 733.619 1.5126 -3.67704 0
M  V30 7561 N 734.616 1.57351 0.0885366 0
M  V30 7562 C 735.865 1.85604 0.789556 0
M  V30 7563 C 736.178 0.775352 1.79576 0
M  V30 7564 O 737.384 0.945206 2.54515 0
M  V30 7565 C 735.84 3.29175 1.45506 0
M  V30 7566 C 735.448 4.45331 0.488278 0
M  V30 7567 C 737.192 3.66646 2.13942 0
M  V30 7568 C 735.099 5.79937 1.15874 0
M  V30 7569 H 734.029 0.692346 0.298619 0
M  V30 7570 H 736.68 1.83451 0.0425821 0
M  V30 7571 H 735.062 3.25889 2.24972 0
M  V30 7572 H 736.236 4.59977 -0.275359 0
M  V30 7573 H 734.551 4.16301 -0.0907363 0
M  V30 7574 H 737.148 4.64498 2.6485 0
M  V30 7575 H 737.491 2.956 2.93132 0
M  V30 7576 H 738.024 3.71848 1.41328 0
M  V30 7577 H 734.763 6.54232 0.407508 0
M  V30 7578 H 734.283 5.69123 1.89364 0
M  V30 7579 H 735.962 6.24718 1.68336 0
M  V30 7580 N 736.094 -0.359525 1.53444 0
M  V30 7581 C 737.342 -1.09935 1.69584 0
M  V30 7582 C 737.663 -1.89656 0.453371 0
M  V30 7583 O 736.933 -1.8852 -0.53263 0
M  V30 7584 H 735.513 -0.408843 0.625185 0
M  V30 7585 H 738.175 -0.40467 1.90653 0
M  V30 7586 H 737.271 -1.78575 2.55964 0
M  V30 7587 N 737.572 -1.44907 -0.619662 0
M  V30 7588 C 738.502 -1.55488 -1.742 0
M  V30 7589 C 739.483 -0.407143 -1.65156 0
M  V30 7590 O 740.668 -0.628743 -1.8374 0
M  V30 7591 C 737.798 -1.5097 -3.1277 0
M  V30 7592 C 736.752 -2.64337 -3.36615 0
M  V30 7593 C 736.078 -2.44872 -4.75333 0
M  V30 7594 C 737.378 -4.06423 -3.28051 0
M  V30 7595 H 739.072 -2.49432 -1.65602 0
M  V30 7596 H 736.618 -1.20047 -0.795281 0
M  V30 7597 H 738.571 -1.56971 -3.91073 0
M  V30 7598 H 737.295 -0.535486 -3.2218 0
M  V30 7599 H 735.954 -2.57744 -2.60698 0
M  V30 7600 H 735.602 -1.45617 -4.81461 0
M  V30 7601 H 735.302 -3.20888 -4.92244 0
M  V30 7602 H 736.826 -2.52709 -5.55851 0
M  V30 7603 H 738.24 -4.14324 -3.96243 0
M  V30 7604 H 736.637 -4.82733 -3.56495 0
M  V30 7605 H 737.707 -4.29183 -2.25676 0
M  V30 7606 N 739.05 0.861098 -1.31996 0
M  V30 7607 C 739.982 1.97551 -1.16216 0
M  V30 7608 C 740.995 1.625 -0.0988527 0
M  V30 7609 O 742.184 1.75091 -0.3472 0
M  V30 7610 C 739.284 3.30376 -0.755307 0
M  V30 7611 C 738.457 3.93711 -1.90552 0
M  V30 7612 C 737.516 5.04862 -1.48328 0
M  V30 7613 O 736.542 5.25204 -2.19431 0
M  V30 7614 N 737.744 5.79283 -0.375656 0
M  V30 7615 H 740.509 2.11632 -2.12208 0
M  V30 7616 H 738.07 1.03559 -1.24448 0
M  V30 7617 H 740.062 4.0213 -0.455364 0
M  V30 7618 H 738.632 3.12395 0.113269 0
M  V30 7619 H 737.852 3.14825 -2.37231 0
M  V30 7620 H 739.14 4.32762 -2.67571 0
M  V30 7621 H 738.538 5.65286 0.216284 0
M  V30 7622 H 737.095 6.5166 -0.135289 0
M  V30 7623 N 740.528 1.15101 1.07655 0
M  V30 7624 C 741.753 0.948177 1.84457 0
M  V30 7625 C 742.178 -0.498432 1.81376 0
M  V30 7626 O 741.536 -1.35509 1.20445 0
M  V30 7627 C 741.584 1.46318 3.29581 0
M  V30 7628 O 740.688 0.660342 4.07079 0
M  V30 7629 H 740.029 0.338428 0.571281 0
M  V30 7630 H 742.559 1.5301 1.35828 0
M  V30 7631 H 742.569 1.47468 3.80417 0
M  V30 7632 H 741.244 2.51635 3.31138 0
M  V30 7633 H 739.821 0.718216 3.65918 0
M  V30 7634 N 742.006 -1.2595 0.947325 0
M  V30 7635 C 743.231 -1.98083 0.614633 0
M  V30 7636 C 743.656 -1.70013 -0.804815 0
M  V30 7637 O 743.014 -0.95175 -1.54309 0
M  V30 7638 C 743.062 -3.4993 0.870706 0
M  V30 7639 O 742.166 -4.12364 -0.0541451 0
M  V30 7640 H 741.507 -0.621232 0.234451 0
M  V30 7641 H 744.037 -1.60259 1.27193 0
M  V30 7642 H 744.047 -4.00198 0.794051 0
M  V30 7643 H 742.722 -3.69691 1.90529 0
M  V30 7644 H 741.299 -3.72826 0.0740917 0
M  V30 7645 N 743.484 -0.715051 -1.40445 0
M  V30 7646 C 744.724 -0.258742 -2.02756 0
M  V30 7647 C 745.088 1.12661 -1.55472 0
M  V30 7648 O 746.289 1.67988 -2.09842 0
M  V30 7649 C 744.56 -0.335201 -3.55825 0
M  V30 7650 S 746.119 0.044201 -4.38778 0
M  V30 7651 H 742.937 -0.102683 -0.703546 0
M  V30 7652 H 745.539 -0.937151 -1.71574 0
M  V30 7653 H 744.243 -1.34511 -3.87731 0
M  V30 7654 H 743.774 0.361705 -3.91734 0
M  V30 7655 H 745.789 1.26639 -4.79768 0
M  V30 7656 N 744.962 1.50701 -0.461195 0
M  V30 7657 C 746.19 2.06681 0.0951756 0
M  V30 7658 C 746.605 1.32615 1.34382 0
M  V30 7659 O 745.962 0.392531 1.78229 0
M  V30 7660 C 746.013 3.59354 0.393316 0
M  V30 7661 O 745.734 4.30626 -0.805797 0
M  V30 7662 C 747.235 4.31926 0.997744 0
M  V30 7663 H 744.455 0.670995 -0.00267259 0
M  V30 7664 H 746.999 1.93991 -0.647137 0
M  V30 7665 H 745.154 3.7188 1.08555 0
M  V30 7666 H 745.568 5.21667 -0.544409 0
M  V30 7667 H 747.042 5.39756 1.15619 0
M  V30 7668 H 747.519 3.91772 1.98523 0
M  V30 7669 H 748.125 4.23905 0.344188 0
M  V30 7670 N 746.441 0.193421 1.56409 0
M  V30 7671 C 747.374 -0.767384 2.1491 0
M  V30 7672 C 748.352 -1.21075 1.08534 0
M  V30 7673 O 749.536 -1.29856 1.36637 0
M  V30 7674 C 746.663 -2.03615 2.70663 0
M  V30 7675 C 745.709 -1.73505 3.89613 0
M  V30 7676 S 746.542 -0.884645 5.28142 0
M  V30 7677 C 747.698 -2.1636 5.87315 0
M  V30 7678 H 747.931 -0.270053 2.96071 0
M  V30 7679 H 745.464 -0.0215546 1.54385 0
M  V30 7680 H 747.422 -2.7648 3.03429 0
M  V30 7681 H 746.083 -2.50461 1.89547 0
M  V30 7682 H 745.276 -2.67701 4.27027 0
M  V30 7683 H 744.878 -1.08723 3.57848 0
M  V30 7684 H 747.17 -3.11629 6.01576 0
M  V30 7685 H 748.113 -1.8338 6.83943 0
M  V30 7686 H 748.521 -2.29129 5.15907 0
M  V30 7687 N 747.919 -1.57396 -0.0801906 0
M  V30 7688 C 749.165 -1.87113 -0.782083 0
M  V30 7689 C 749.498 -0.78458 -1.77646 0
M  V30 7690 O 748.773 0.205993 -1.93406 0
M  V30 7691 C 749.056 -3.27483 -1.49756 0
M  V30 7692 C 748.909 -4.46782 -0.520171 0
M  V30 7693 C 750.228 -3.65965 -2.44454 0
M  V30 7694 H 747.347 -0.680559 -0.282858 0
M  V30 7695 H 749.989 -1.89946 -0.0454139 0
M  V30 7696 H 748.139 -3.25199 -2.12551 0
M  V30 7697 H 749.811 -4.61187 0.101919 0
M  V30 7698 H 748.054 -4.33485 0.165219 0
M  V30 7699 H 748.725 -5.41761 -1.05824 0
M  V30 7700 H 751.201 -3.69289 -1.91742 0
M  V30 7701 H 750.077 -4.65086 -2.91524 0
M  V30 7702 H 750.338 -2.95446 -3.28883 0
M  V30 7703 N 749.397 0.351382 -1.53633 0
M  V30 7704 C 750.643 1.09411 -1.70754 0
M  V30 7705 C 750.976 1.88544 -0.465293 0
M  V30 7706 O 750.251 1.86923 0.537608 0
M  V30 7707 C 750.534 2.04173 -2.96623 0
M  V30 7708 C 750.387 1.28556 -4.31038 0
M  V30 7709 C 751.706 3.04102 -3.18136 0
M  V30 7710 H 748.825 0.396373 -0.621335 0
M  V30 7711 H 751.467 0.373464 -1.86293 0
M  V30 7712 H 749.617 2.65625 -2.83506 0
M  V30 7713 H 751.289 0.697786 -4.55992 0
M  V30 7714 H 749.532 0.587498 -4.29803 0
M  V30 7715 H 750.203 1.97989 -5.15271 0
M  V30 7716 H 752.679 2.5276 -3.30532 0
M  V30 7717 H 751.555 3.67616 -4.07615 0
M  V30 7718 H 751.816 3.75053 -2.34068 0
M  V30 7719 N 750.875 1.45233 0.611969 0
M  V30 7720 C 752.286 1.4354 1.19387 0
M  V30 7721 C 752.637 0.160713 1.95541 0
M  V30 7722 O 751.762 -0.737954 2.03429 0
M  V30 7723 C 752.357 2.60045 2.17169 0
M  V30 7724 C 750.916 2.61486 2.70744 0
M  V30 7725 C 750.063 2.35708 1.46072 0
M  V30 7726 H 753.014 1.53536 0.401529 0
M  V30 7727 H 753.035 2.33893 3.00124 0
M  V30 7728 H 752.547 3.52803 1.61714 0
M  V30 7729 H 750.648 1.72721 3.30149 0
M  V30 7730 H 750.761 3.60572 3.15476 0
M  V30 7731 H 749.125 1.85178 1.74875 0
M  V30 7732 H 749.908 3.30606 0.924922 0
M  V30 7733 N 752.353 -0.854086 1.3245 0
M  V30 7734 C 753.599 -1.6105 1.24235 0
M  V30 7735 C 753.954 -1.91421 -0.193877 0
M  V30 7736 O 753.247 -1.54599 -1.1318 0
M  V30 7737 C 753.441 -2.93746 2.03587 0
M  V30 7738 C 753.27 -2.76335 3.54781 0
M  V30 7739 C 752.04 -2.74687 4.24117 0
M  V30 7740 C 754.238 -2.50052 4.4942 0
M  V30 7741 N 752.22 -2.48493 5.6136 0
M  V30 7742 C 753.591 -2.33269 5.74444 0
M  V30 7743 C 755.646 -2.35525 4.38671 0
M  V30 7744 C 754.349 -2.03434 6.89933 0
M  V30 7745 C 756.375 -2.07081 5.5396 0
M  V30 7746 C 755.737 -1.91098 6.77983 0
M  V30 7747 H 751.836 -0.593008 0.50977 0
M  V30 7748 H 754.42 -1.00392 1.66822 0
M  V30 7749 H 752.591 -3.52382 1.63345 0
M  V30 7750 H 754.323 -3.58768 1.87263 0
M  V30 7751 H 751.078 -2.87647 3.7624 0
M  V30 7752 H 751.502 -2.38322 6.33665 0
M  V30 7753 H 756.144 -2.46602 3.43435 0
M  V30 7754 H 753.862 -1.91095 7.85181 0
M  V30 7755 H 757.448 -1.96618 5.4757 0
M  V30 7756 H 756.328 -1.69402 7.65684 0
M  V30 7757 N 753.831 -1.1567 -1.07043 0
M  V30 7758 C 755.08 -0.928039 -1.79082 0
M  V30 7759 C 755.393 0.545968 -1.87826 0
M  V30 7760 O 756.599 0.892308 -2.56418 0
M  V30 7761 C 755.055 -1.61103 -3.21829 0
M  V30 7762 C 754.663 -3.12228 -3.21275 0
M  V30 7763 C 756.407 -1.46404 -3.98455 0
M  V30 7764 C 754.314 -3.733 -4.58695 0
M  V30 7765 H 753.244 -0.34357 -0.671175 0
M  V30 7766 H 755.895 -1.38718 -1.20123 0
M  V30 7767 H 754.277 -1.07958 -3.81 0
M  V30 7768 H 755.451 -3.72155 -2.71731 0
M  V30 7769 H 753.766 -3.26725 -2.58147 0
M  V30 7770 H 756.363 -1.8942 -5.00024 0
M  V30 7771 H 756.706 -0.41195 -4.14257 0
M  V30 7772 H 757.239 -1.96663 -3.45787 0
M  V30 7773 H 753.978 -4.78423 -4.48098 0
M  V30 7774 H 753.498 -3.18157 -5.08465 0
M  V30 7775 H 755.177 -3.7441 -5.27661 0
M  V30 7776 N 755.309 1.25446 -0.953992 0
M  V30 7777 C 756.534 1.97755 -0.625129 0
M  V30 7778 C 756.959 1.70437 0.795787 0
M  V30 7779 O 756.317 0.95992 1.53803 0
M  V30 7780 C 756.365 3.49463 -0.889251 0
M  V30 7781 O 755.469 4.12387 0.0322757 0
M  V30 7782 H 754.81 0.61998 -0.237742 0
M  V30 7783 H 757.34 1.59582 -1.28041 0
M  V30 7784 H 757.35 3.99772 -0.815263 0
M  V30 7785 H 756.025 3.68676 -1.92487 0
M  V30 7786 H 754.602 3.72782 -0.0938625 0
M  V30 7787 N 756.787 0.722489 1.40064 0
M  V30 7788 C 757.735 0.063329 2.32514 0
M  V30 7789 C 758.729 -0.73953 1.52405 0
M  V30 7790 O 759.935 -0.642122 1.68157 0
M  V30 7791 H 756.31 0.00167692 0.751998 0
M  V30 7792 H 758.281 0.859656 2.85749 0
M  V30 7793 C 757.03 -0.839219 3.3742 0
M  V30 7794 H 756.353 -0.230836 3.99133 0
M  V30 7795 H 757.793 -1.26827 4.04587 0
M  V30 7796 C 756.252 -1.96783 2.73456 0
M  V30 7797 O 756.782 -3.05933 2.60323 0
M  V30 7798 N 754.988 -1.75351 2.31734 0
M  V30 7799 H 754.535 -0.865787 2.42615 0
M  V30 7800 H 754.493 -2.51043 1.89275 0
M  V30 7801 N 758.265 -1.50454 0.469181 0
M  V30 7802 C 759.493 -2.06729 -0.0842134 0
M  V30 7803 C 759.908 -1.33326 -1.33677 0
M  V30 7804 O 759.265 -0.401977 -1.78018 0
M  V30 7805 C 759.316 -3.59557 -0.374253 0
M  V30 7806 O 759.037 -4.30192 0.828622 0
M  V30 7807 C 760.538 -4.32449 -0.974824 0
M  V30 7808 H 757.758 -0.670971 0.006231 0
M  V30 7809 H 760.302 -1.93645 0.657415 0
M  V30 7810 H 758.457 -3.7245 -1.06581 0
M  V30 7811 H 758.871 -5.21371 0.572066 0
M  V30 7812 H 760.345 -5.40361 -1.12755 0
M  V30 7813 H 760.822 -3.92819 -1.96442 0
M  V30 7814 H 761.428 -4.24082 -0.321703 0
M  V30 7815 N 759.743 -0.201713 -1.56304 0
M  V30 7816 C 760.971 0.440723 -2.02152 0
M  V30 7817 C 761.386 1.54735 -1.08179 0
M  V30 7818 O 760.743 1.82289 -0.0878196 0
M  V30 7819 C 760.794 0.990884 -3.47655 0
M  V30 7820 O 760.515 -0.0715937 -4.38041 0
M  V30 7821 C 762.016 1.70854 -4.09052 0
M  V30 7822 H 759.236 0.109987 -0.661924 0
M  V30 7823 H 761.78 -0.312358 -2.021 0
M  V30 7824 H 759.935 1.69432 -3.48384 0
M  V30 7825 H 760.349 0.338892 -5.23404 0
M  V30 7826 H 761.823 2.04572 -5.12693 0
M  V30 7827 H 762.3 2.61462 -3.52894 0
M  V30 7828 H 762.906 1.0508 -4.12114 0
M  V30 7829 N 761.222 1.57436 0.0718424 0
M  V30 7830 C 762.452 1.91196 0.782795 0
M  V30 7831 C 762.86 0.795927 1.71644 0
M  V30 7832 O 762.203 -0.239604 1.82131 0
M  V30 7833 C 762.265 3.20421 1.63005 0
M  V30 7834 C 761.929 4.48724 0.865782 0
M  V30 7835 C 762.926 5.19571 0.185051 0
M  V30 7836 C 760.611 4.95345 0.832971 0
M  V30 7837 C 762.605 6.3529 -0.518264 0
M  V30 7838 C 760.292 6.1097 0.125884 0
M  V30 7839 C 761.29 6.80794 -0.548533 0
M  V30 7840 O 760.978 7.94213 -1.24423 0
M  V30 7841 H 760.71 0.636486 0.227731 0
M  V30 7842 H 763.264 2.05348 0.0464187 0
M  V30 7843 H 761.494 3.02478 2.40923 0
M  V30 7844 H 763.183 3.39831 2.21968 0
M  V30 7845 H 763.949 4.8458 0.201707 0
M  V30 7846 H 759.828 4.40871 1.34737 0
M  V30 7847 H 763.372 6.89725 -1.04523 0
M  V30 7848 H 759.269 6.45411 0.107155 0
M  V30 7849 H 760.037 8.10331 -1.1535 0
M  V30 7850 N 762.7 -0.34323 1.53817 0
M  V30 7851 C 764.116 -0.686355 1.44088 0
M  V30 7852 C 764.316 -1.92426 0.597882 0
M  V30 7853 O 763.372 -2.52343 0.0889918 0
M  V30 7854 C 764.685 -0.878698 2.87575 0
M  V30 7855 C 766.233 -0.977296 2.97352 0
M  V30 7856 C 766.708 -1.20195 4.41947 0
M  V30 7857 N 768.199 -1.26915 4.45474 0
M  V30 7858 C 768.934 -1.46049 5.54488 0
M  V30 7859 N 768.43 -1.62354 6.73508 0
M  V30 7860 N 770.223 -1.48599 5.42102 0
M  V30 7861 H 762.374 0.470679 2.07119 0
M  V30 7862 H 764.637 0.148652 0.936273 0
M  V30 7863 H 764.343 -0.040602 3.51677 0
M  V30 7864 H 764.217 -1.78034 3.32541 0
M  V30 7865 H 766.604 -1.80591 2.3339 0
M  V30 7866 H 766.685 -0.0525498 2.55746 0
M  V30 7867 H 766.329 -0.378262 5.06489 0
M  V30 7868 H 766.259 -2.14027 4.81145 0
M  V30 7869 H 768.75 -1.15837 3.59708 0
M  V30 7870 H 769.063 -1.76591 7.52353 0
M  V30 7871 H 767.408 -1.5949 6.76453 0
M  V30 7872 H 770.599 -1.35443 4.48077 0
M  V30 7873 H 770.772 -1.6317 6.2712 0
M  V30 7874 N 764.178 -1.45556 -0.604258 0
M  V30 7875 C 765.11 -1.50494 -1.72871 0
M  V30 7876 C 766.123 -0.395368 -1.57926 0
M  V30 7877 O 767.312 -0.662603 -1.65746 0
M  V30 7878 C 764.412 -1.34874 -3.10906 0
M  V30 7879 C 763.585 -2.59564 -3.52058 0
M  V30 7880 C 762.644 -2.38453 -4.6907 0
M  V30 7881 O 761.67 -3.12082 -4.76018 0
M  V30 7882 N 762.872 -1.43229 -5.62553 0
M  V30 7883 H 765.637 -2.4744 -1.69097 0
M  V30 7884 H 763.198 -1.41338 -0.789636 0
M  V30 7885 H 765.19 -1.18556 -3.86945 0
M  V30 7886 H 763.76 -0.461913 -3.09168 0
M  V30 7887 H 762.98 -2.90974 -2.65946 0
M  V30 7888 H 764.268 -3.42441 -3.76313 0
M  V30 7889 H 763.666 -0.824714 -5.59656 0
M  V30 7890 H 762.223 -1.32882 -6.38111 0
M  V30 7891 N 765.656 0.84705 -1.32902 0
M  V30 7892 C 766.884 1.63403 -1.26913 0
M  V30 7893 C 767.299 1.88108 0.161483 0
M  V30 7894 O 766.656 1.45546 1.10103 0
M  V30 7895 C 766.707 2.98896 -2.03331 0
M  V30 7896 O 766.428 2.75281 -3.40811 0
M  V30 7897 C 767.929 3.93335 -2.04457 0
M  V30 7898 H 765.149 0.508701 -0.437566 0
M  V30 7899 H 767.693 1.05567 -1.75145 0
M  V30 7900 H 765.848 3.53356 -1.58802 0
M  V30 7901 H 766.262 3.61504 -3.8002 0
M  V30 7902 H 767.736 4.85647 -2.62394 0
M  V30 7903 H 768.213 4.26885 -1.03274 0
M  V30 7904 H 768.819 3.44812 -2.48967 0
M  V30 7905 N 767.134 1.16236 1.06428 0
M  V30 7906 C 768.383 0.937523 1.78587 0
M  V30 7907 C 768.696 -0.536 1.88113 0
M  V30 7908 O 769.902 -0.878697 2.56887 0
M  V30 7909 C 768.358 1.62808 3.2097 0
M  V30 7910 C 767.966 3.13927 3.19615 0
M  V30 7911 C 769.71 1.48515 3.97673 0
M  V30 7912 C 767.617 3.75727 4.56709 0
M  V30 7913 H 766.547 0.347125 0.669343 0
M  V30 7914 H 769.198 1.39353 1.19385 0
M  V30 7915 H 767.58 1.09977 3.80422 0
M  V30 7916 H 768.754 3.7359 2.69753 0
M  V30 7917 H 767.069 3.28089 2.56411 0
M  V30 7918 H 769.666 1.92069 4.99013 0
M  V30 7919 H 770.009 0.433913 4.14032 0
M  V30 7920 H 770.542 1.98494 3.44739 0
M  V30 7921 H 767.281 4.80793 4.45554 0
M  V30 7922 H 766.801 3.20849 5.0677 0
M  V30 7923 H 768.48 3.77203 5.25668 0
M  V30 7924 N 768.612 -1.24939 0.960631 0
M  V30 7925 C 769.56 -2.27659 0.47686 0
M  V30 7926 C 770.554 -1.63148 -0.455961 0
M  V30 7927 O 771.76 -1.76911 -0.332029 0
M  V30 7928 H 768.135 -0.739651 0.135723 0
M  V30 7929 H 770.106 -2.65844 1.35534 0
M  V30 7930 C 768.855 -3.46976 -0.224191 0
M  V30 7931 H 768.178 -3.96854 0.484471 0
M  V30 7932 H 769.618 -4.20717 -0.526615 0
M  V30 7933 C 768.077 -3.04159 -1.44876 0
M  V30 7934 O 768.607 -3.10697 -2.54618 0
M  V30 7935 N 766.813 -2.59284 -1.31226 0
M  V30 7936 H 766.36 -2.54164 -0.419361 0
M  V30 7937 H 766.318 -2.31 -2.13275 0
M  V30 7938 N 770.09 -0.729906 -1.39679 0
M  V30 7939 C 771.367 -0.202149 -1.94553 0
M  V30 7940 C 771.747 1.29507 -1.66707 0
M  V30 7941 O 771.095 2.05819 -0.992517 0
M  V30 7942 C 771.305 -0.530279 -3.44948 0
M  V30 7943 C 772.653 -0.476808 -4.21914 0
M  V30 7944 O 773.677 -0.467171 -3.53123 0
M  V30 7945 O 772.536 -0.466869 -5.44502 0
M  V30 7946 H 769.63 -0.0351644 -0.826252 0
M  V30 7947 H 772.176 -0.808417 -1.49207 0
M  V30 7948 H 770.948 -1.56526 -3.5863 0
M  V30 7949 H 770.571 0.10522 -3.97461 0
M  V30 7950 N 771.568 1.50203 -0.477153 0
M  V30 7951 C 772.793 2.07263 0.0754986 0
M  V30 7952 C 773.218 1.33801 1.32208 0
M  V30 7953 O 772.576 0.387482 1.77111 0
M  V30 7954 C 772.624 3.59028 0.336348 0
M  V30 7955 O 771.728 3.87339 1.4157 0
M  V30 7956 H 771.069 0.663815 -0.015662 0
M  V30 7957 H 773.599 1.93321 -0.669936 0
M  V30 7958 H 773.609 4.03927 0.575034 0
M  V30 7959 H 772.284 4.11912 -0.574551 0
M  V30 7960 H 770.861 3.54272 1.16385 0
M  V30 7961 N 773.046 0.209999 1.56195 0
M  V30 7962 C 774.293 -0.424813 1.97994 0
M  V30 7963 C 774.621 -1.60589 1.09733 0
M  V30 7964 O 773.876 -1.95201 0.139693 0
M  V30 7965 C 774.175 -0.91312 3.45539 0
M  V30 7966 C 773.841 0.156187 4.50629 0
M  V30 7967 C 772.503 0.449966 4.79092 0
M  V30 7968 C 774.855 0.879959 5.13718 0
M  V30 7969 C 772.183 1.47223 5.67928 0
M  V30 7970 C 774.535 1.89148 6.0366 0
M  V30 7971 C 773.199 2.1923 6.30472 0
M  V30 7972 H 772.469 -0.15545 0.724511 0
M  V30 7973 H 775.116 0.310095 1.88973 0
M  V30 7974 H 773.421 -1.72658 3.51705 0
M  V30 7975 H 775.118 -1.41395 3.75245 0
M  V30 7976 H 771.708 -0.0829466 4.2852 0
M  V30 7977 H 775.892 0.66623 4.91808 0
M  V30 7978 H 771.148 1.71105 5.86969 0
M  V30 7979 H 775.322 2.45745 6.516 0
M  V30 7980 H 772.949 2.98587 6.99107 0
M  V30 7981 N 774.524 -1.57472 -0.0634922 0
M  V30 7982 C 775.752 -1.91887 -0.773767 0
M  V30 7983 C 776.167 -0.806733 -1.70696 0
M  V30 7984 O 775.524 0.219383 -1.81177 0
M  V30 7985 C 775.575 -3.26092 -1.56034 0
M  V30 7986 O 775.296 -4.33029 -0.66464 0
M  V30 7987 C 776.797 -3.74573 -2.37087 0
M  V30 7988 H 774.017 -0.634074 -0.219525 0
M  V30 7989 H 776.561 -2.04476 -0.0312828 0
M  V30 7990 H 774.716 -3.15004 -2.25502 0
M  V30 7991 H 775.13 -5.10291 -1.21258 0
M  V30 7992 H 776.604 -4.71084 -2.87722 0
M  V30 7993 H 777.081 -3.04003 -3.16984 0
M  V30 7994 H 777.687 -3.88631 -1.72759 0
M  V30 7995 N 776.003 0.335068 -1.53997 0
M  V30 7996 C 776.913 1.43511 -1.85585 0
M  V30 7997 C 777.929 1.57162 -0.746726 0
M  V30 7998 O 779.105 1.72477 -1.03988 0
M  V30 7999 C 776.17 2.78386 -2.06646 0
M  V30 8000 C 775.231 2.74007 -3.30483 0
M  V30 8001 C 774.464 4.02449 -3.50529 0
M  V30 8002 O 774.687 5.00147 -2.74242 0
M  V30 8003 O 773.621 4.06405 -4.4398 0
M  V30 8004 H 777.447 1.19731 -2.79102 0
M  V30 8005 H 775.032 0.528033 -1.39758 0
M  V30 8006 H 776.914 3.58247 -2.21894 0
M  V30 8007 H 775.589 3.0208 -1.16317 0
M  V30 8008 H 774.496 1.92736 -3.2063 0
M  V30 8009 H 775.829 2.55267 -4.20832 0
M  V30 8010 N 777.481 1.45874 0.596531 0
M  V30 8011 C 778.729 1.5017 1.35253 0
M  V30 8012 C 779.05 0.149246 1.94428 0
M  V30 8013 O 778.32 -0.82268 1.77789 0
M  V30 8014 H 776.9 0.553052 0.502138 0
M  V30 8015 H 779.562 1.81908 0.699671 0
M  V30 8016 H 778.658 2.24671 2.16632 0
M  V30 8017 N 778.959 -0.83999 1.33349 0
M  V30 8018 C 780.207 -1.59202 1.24496 0
M  V30 8019 C 780.528 -1.94077 -0.189499 0
M  V30 8020 O 779.798 -1.60868 -1.11796 0
M  V30 8021 H 778.378 -0.590276 0.457802 0
M  V30 8022 H 781.04 -1.00394 1.67054 0
M  V30 8023 H 780.136 -2.52247 1.83788 0
M  V30 8024 N 780.437 -1.16799 -1.0581 0
M  V30 8025 C 781.667 -0.975454 -1.82122 0
M  V30 8026 C 782.075 0.479584 -1.83021 0
M  V30 8027 O 781.418 1.34471 -1.25153 0
M  V30 8028 C 781.48 -1.43209 -3.29744 0
M  V30 8029 C 781.144 -2.908 -3.5254 0
M  V30 8030 C 782.141 -3.88775 -3.45181 0
M  V30 8031 C 779.826 -3.28832 -3.79703 0
M  V30 8032 C 781.82 -5.22782 -3.64661 0
M  V30 8033 C 779.507 -4.63007 -3.98832 0
M  V30 8034 C 780.505 -5.59791 -3.91309 0
M  V30 8035 O 780.193 -6.9154 -4.09911 0
M  V30 8036 H 779.925 -0.345655 -0.580947 0
M  V30 8037 H 782.479 -1.55355 -1.34365 0
M  V30 8038 H 780.709 -0.797504 -3.78387 0
M  V30 8039 H 782.398 -1.2062 -3.87564 0
M  V30 8040 H 783.164 -3.60738 -3.2418 0
M  V30 8041 H 779.043 -2.54073 -3.84666 0
M  V30 8042 H 782.587 -5.98312 -3.58705 0
M  V30 8043 H 778.484 -4.90752 -4.19324 0
M  V30 8044 H 779.252 -6.98188 -4.27172 0
M  V30 8045 N 781.915 1.24427 -0.967243 0
M  V30 8046 C 783.164 1.91789 -0.624478 0
M  V30 8047 C 783.477 1.76448 0.844129 0
M  V30 8048 O 784.683 2.38495 1.2974 0
M  V30 8049 C 783.139 3.43743 -1.06626 0
M  V30 8050 C 782.747 3.67771 -2.55829 0
M  V30 8051 C 784.491 4.16958 -0.79662 0
M  V30 8052 C 782.398 5.13293 -2.93742 0
M  V30 8053 H 781.328 0.71811 -0.229856 0
M  V30 8054 H 783.979 1.41081 -1.17339 0
M  V30 8055 H 782.361 3.93484 -0.445663 0
M  V30 8056 H 783.535 3.28631 -3.23015 0
M  V30 8057 H 781.85 3.07841 -2.80398 0
M  V30 8058 H 784.447 5.24171 -1.05589 0
M  V30 8059 H 784.79 4.15442 0.267163 0
M  V30 8060 H 785.323 3.73164 -1.37816 0
M  V30 8061 H 782.062 5.19931 -3.9919 0
M  V30 8062 H 781.582 5.53433 -2.3124 0
M  V30 8063 H 783.261 5.81521 -2.83623 0
M  V30 8064 N 783.393 0.737304 1.3929 0
M  V30 8065 C 784.618 0.295237 2.05288 0
M  V30 8066 C 785.043 -1.06235 1.55228 0
M  V30 8067 O 784.401 -1.67365 0.697043 0
M  V30 8068 C 784.449 0.309146 3.59272 0
M  V30 8069 O 783.553 -0.702437 4.06374 0
M  V30 8070 H 782.894 0.133762 0.650387 0
M  V30 8071 H 785.424 1.00387 1.78279 0
M  V30 8072 H 785.434 0.154336 4.07708 0
M  V30 8073 H 784.109 1.29974 3.95069 0
M  V30 8074 H 782.686 -0.513574 3.69346 0
M  V30 8075 N 784.871 -1.49948 0.485112 0
M  V30 8076 C 785.804 -2.25531 -0.348027 0
M  V30 8077 C 786.782 -1.29433 -0.984172 0
M  V30 8078 O 787.966 -1.58687 -1.01738 0
M  V30 8079 C 785.093 -3.04225 -1.48878 0
M  V30 8080 C 784.139 -4.15355 -0.968616 0
M  V30 8081 S 784.972 -5.35347 0.127934 0
M  V30 8082 C 786.128 -6.17593 -1.01637 0
M  V30 8083 H 786.361 -2.95847 0.293529 0
M  V30 8084 H 783.894 -1.52018 0.27018 0
M  V30 8085 H 785.852 -3.50153 -2.14251 0
M  V30 8086 H 784.513 -2.33407 -2.1019 0
M  V30 8087 H 783.706 -4.69873 -1.82305 0
M  V30 8088 H 783.308 -3.71936 -0.392377 0
M  V30 8089 H 785.6 -6.49576 -1.92503 0
M  V30 8090 H 786.543 -7.0626 -0.510149 0
M  V30 8091 H 786.951 -5.49877 -1.27653 0
M  V30 8092 N 786.349 -0.21828 -1.56081 0
M  V30 8093 C 787.596 0.414307 -1.98216 0
M  V30 8094 C 787.924 1.60005 -1.10584 0
M  V30 8095 O 787.179 1.95124 -0.150043 0
M  V30 8096 C 787.478 0.894782 -3.46018 0
M  V30 8097 C 787.144 -0.180083 -4.5054 0
M  V30 8098 C 785.806 -0.475367 -4.78846 0
M  V30 8099 C 788.158 -0.907191 -5.13244 0
M  V30 8100 C 785.486 -1.50233 -5.67139 0
M  V30 8101 C 787.838 -1.92347 -6.02649 0
M  V30 8102 C 786.502 -2.22571 -6.293 0
M  V30 8103 H 785.772 0.151606 -0.725325 0
M  V30 8104 H 788.419 -0.320113 -1.88806 0
M  V30 8105 H 786.724 1.7079 -3.52616 0
M  V30 8106 H 788.421 1.39403 -3.75989 0
M  V30 8107 H 785.011 0.06022 -4.28558 0
M  V30 8108 H 789.195 -0.692303 -4.91448 0
M  V30 8109 H 784.451 -1.74215 -5.86054 0
M  V30 8110 H 788.625 -2.49197 -6.50288 0
M  V30 8111 H 786.252 -3.0229 -6.97513 0
M  V30 8112 N 787.827 1.57504 0.0551401 0
M  V30 8113 C 789.057 1.92015 0.762472 0
M  V30 8114 C 789.465 0.814088 1.7079 0
M  V30 8115 O 788.808 -0.220273 1.82375 0
M  V30 8116 C 788.87 3.22132 1.59598 0
M  V30 8117 C 788.534 4.49617 0.818141 0
M  V30 8118 C 789.531 5.19738 0.129933 0
M  V30 8119 C 787.216 4.96201 0.780387 0
M  V30 8120 C 789.21 6.34704 -0.585616 0
M  V30 8121 C 786.897 6.11069 0.0610756 0
M  V30 8122 C 787.895 6.80174 -0.62071 0
M  V30 8123 O 787.583 7.92849 -1.3284 0
M  V30 8124 H 787.315 0.638866 0.220967 0
M  V30 8125 H 789.869 2.05385 0.0246362 0
M  V30 8126 H 788.099 3.05016 2.37701 0
M  V30 8127 H 789.788 3.42166 2.18351 0
M  V30 8128 H 790.554 4.84767 0.150299 0
M  V30 8129 H 786.433 4.42275 1.30054 0
M  V30 8130 H 789.977 6.88578 -1.11833 0
M  V30 8131 H 785.874 6.45488 0.0386945 0
M  V30 8132 H 786.642 8.09062 -1.23938 0
M  V30 8133 N 789.305 -0.326896 1.54172 0
M  V30 8134 C 790.237 -1.42319 1.79661 0
M  V30 8135 C 791.25 -1.47989 0.678456 0
M  V30 8136 O 792.439 -1.50773 0.955503 0
M  V30 8137 C 789.539 -2.80876 1.89636 0
M  V30 8138 C 788.712 -2.98449 3.19761 0
M  V30 8139 C 787.771 -4.17347 3.2048 0
M  V30 8140 O 786.797 -4.10667 3.94134 0
M  V30 8141 N 787.999 -5.26717 2.44027 0
M  V30 8142 H 790.764 -1.20819 2.74268 0
M  V30 8143 H 788.325 -0.516866 1.53428 0
M  V30 8144 H 790.317 -3.58619 1.87549 0
M  V30 8145 H 788.887 -2.95442 1.02141 0
M  V30 8146 H 788.107 -2.08035 3.34836 0
M  V30 8147 H 789.395 -3.07083 4.05681 0
M  V30 8148 H 788.793 -5.35019 1.8377 0
M  V30 8149 H 787.35 -6.02891 2.47721 0
M  V30 8150 N 790.784 -1.46188 -0.588786 0
M  V30 8151 C 792.012 -1.54743 -1.37339 0
M  V30 8152 C 792.427 -0.186446 -1.87877 0
M  V30 8153 O 791.784 0.815247 -1.63279 0
M  V30 8154 C 791.835 -2.54727 -2.56508 0
M  V30 8155 O 791.556 -3.85539 -2.08066 0
M  V30 8156 C 793.057 -2.73163 -3.49137 0
M  V30 8157 H 790.277 -0.523484 -0.419768 0
M  V30 8158 H 792.821 -1.91543 -0.716345 0
M  V30 8159 H 790.976 -2.20948 -3.18215 0
M  V30 8160 H 791.39 -4.39905 -2.85629 0
M  V30 8161 H 792.864 -3.47057 -4.2925 0
M  V30 8162 H 793.341 -1.79856 -4.00685 0
M  V30 8163 H 793.947 -3.08014 -2.9327 0
M  V30 8164 N 792.262 0.832906 -1.33792 0
M  V30 8165 C 793.678 1.1245 -1.13257 0
M  V30 8166 C 793.878 2.01369 0.0725832 0
M  V30 8167 O 792.934 2.41071 0.751082 0
M  V30 8168 C 794.247 1.78084 -2.42294 0
M  V30 8169 C 795.795 1.90624 -2.48257 0
M  V30 8170 C 796.27 2.59673 -3.77271 0
M  V30 8171 N 797.761 2.67181 -3.78376 0
M  V30 8172 C 798.496 3.21313 -4.74916 0
M  V30 8173 N 797.992 3.76086 -5.81835 0
M  V30 8174 N 799.785 3.19621 -4.62384 0
M  V30 8175 H 791.936 0.241244 -2.11026 0
M  V30 8176 H 794.199 0.169557 -0.932713 0
M  V30 8177 H 793.905 1.20209 -3.30519 0
M  V30 8178 H 793.779 2.78049 -2.5489 0
M  V30 8179 H 796.166 2.4765 -1.60478 0
M  V30 8180 H 796.247 0.89591 -2.39598 0
M  V30 8181 H 795.891 2.03304 -4.65435 0
M  V30 8182 H 795.821 3.61189 -3.8321 0
M  V30 8183 H 798.312 2.28346 -3.01108 0
M  V30 8184 H 798.625 4.15612 -6.51526 0
M  V30 8185 H 796.97 3.74357 -5.85561 0
M  V30 8186 H 800.161 2.76091 -3.7801 0
M  V30 8187 H 800.334 3.61504 -5.37791 0
M  V30 8188 N 793.74 1.17359 1.05189 0
M  V30 8189 C 794.986 0.963413 1.78455 0
M  V30 8190 C 795.319 -0.506703 1.87473 0
M  V30 8191 O 794.594 -1.37611 1.37453 0
M  V30 8192 C 794.877 1.60519 3.22344 0
M  V30 8193 C 794.73 3.14741 3.21338 0
M  V30 8194 C 796.049 1.3091 4.20179 0
M  V30 8195 H 793.168 0.351412 0.647826 0
M  V30 8196 H 795.81 1.44858 1.22948 0
M  V30 8197 H 793.96 1.19265 3.69741 0
M  V30 8198 H 795.632 3.65053 2.82017 0
M  V30 8199 H 793.875 3.4749 2.59679 0
M  V30 8200 H 794.546 3.54775 4.22894 0
M  V30 8201 H 797.022 1.66635 3.81277 0
M  V30 8202 H 795.898 1.784 5.191 0
M  V30 8203 H 796.159 0.229908 4.41502 0
M  V30 8204 N 795.218 -1.23913 0.973828 0
M  V30 8205 C 796.464 -1.92436 0.640026 0
M  V30 8206 C 796.797 -1.75875 -0.823512 0
M  V30 8207 O 796.072 -1.11563 -1.59323 0
M  V30 8208 C 796.355 -3.4526 1.0231 0
M  V30 8209 C 796.208 -3.70961 2.54378 0
M  V30 8210 C 797.527 -4.36495 0.562155 0
M  V30 8211 H 794.646 -0.698868 0.233992 0
M  V30 8212 H 797.288 -1.46163 1.21393 0
M  V30 8213 H 795.438 -3.84802 0.534751 0
M  V30 8214 H 797.11 -3.40941 3.10737 0
M  V30 8215 H 795.353 -3.15899 2.97305 0
M  V30 8216 H 796.024 -4.77912 2.76232 0
M  V30 8217 H 798.5 -4.04363 0.981333 0
M  V30 8218 H 797.376 -5.42142 0.858689 0
M  V30 8219 H 797.637 -4.38818 -0.537659 0
M  V30 8220 N 796.696 -0.74468 -1.38897 0
M  V30 8221 C 797.942 -0.297324 -2.00609 0
M  V30 8222 C 798.275 1.11547 -1.58968 0
M  V30 8223 O 797.55 1.76227 -0.823057 0
M  V30 8224 C 797.833 -0.410125 -3.57757 0
M  V30 8225 C 797.686 -1.86338 -4.09387 0
M  V30 8226 C 799.005 0.20176 -4.39637 0
M  V30 8227 H 796.124 -0.109509 -0.728819 0
M  V30 8228 H 798.766 -0.942653 -1.64967 0
M  V30 8229 H 796.916 0.139287 -3.8825 0
M  V30 8230 H 798.588 -2.47042 -3.89574 0
M  V30 8231 H 796.831 -2.38146 -3.62586 0
M  V30 8232 H 797.502 -1.89352 -5.18507 0
M  V30 8233 H 799.978 -0.266703 -4.15244 0
M  V30 8234 H 798.854 0.0925415 -5.48822 0
M  V30 8235 H 799.115 1.289 -4.22891 0
M  V30 8236 N 798.174 1.49689 -0.493057 0
M  V30 8237 C 799.585 1.8665 -0.0433032 0
M  V30 8238 C 799.936 1.40607 1.36836 0
M  V30 8239 O 799.061 0.780503 2.01834 0
M  V30 8240 C 799.656 3.38724 -0.0718069 0
M  V30 8241 C 798.215 3.75015 0.32257 0
M  V30 8242 C 797.362 2.7366 -0.4478 0
M  V30 8243 H 800.313 1.42119 -0.706246 0
M  V30 8244 H 800.334 3.73522 0.725347 0
M  V30 8245 H 799.846 3.72204 -1.09935 0
M  V30 8246 H 797.947 3.47142 1.35364 0
M  V30 8247 H 798.06 4.79099 0.00864259 0
M  V30 8248 H 796.424 2.54498 0.101354 0
M  V30 8249 H 797.207 3.09985 -1.47527 0
M  V30 8250 N 799.652 0.226554 1.55963 0
M  V30 8251 C 800.582 -0.676079 2.23498 0
M  V30 8252 C 801.563 -1.19718 1.20837 0
M  V30 8253 O 802.748 -1.24027 1.49436 0
M  V30 8254 C 799.878 -1.88217 2.91876 0
M  V30 8255 C 798.832 -1.4947 4.01052 0
M  V30 8256 C 798.158 -2.77997 4.56751 0
M  V30 8257 C 799.458 -0.680951 5.17842 0
M  V30 8258 H 801.152 -0.112989 2.99187 0
M  V30 8259 H 798.698 -0.0529046 1.43903 0
M  V30 8260 H 800.651 -2.51911 3.37815 0
M  V30 8261 H 799.375 -2.47031 2.13643 0
M  V30 8262 H 798.034 -0.881199 3.55852 0
M  V30 8263 H 797.682 -3.34966 3.75243 0
M  V30 8264 H 797.382 -2.52803 5.30438 0
M  V30 8265 H 798.906 -3.42625 5.05411 0
M  V30 8266 H 800.32 -1.22171 5.60131 0
M  V30 8267 H 798.717 -0.525898 5.97791 0
M  V30 8268 H 799.787 0.311346 4.83899 0
M  V30 8269 N 801.13 -1.57531 -0.0467866 0
M  V30 8270 C 802.355 -1.93087 -0.757123 0
M  V30 8271 C 802.78 -0.825116 -1.69037 0
M  V30 8272 O 802.138 0.220449 -1.79955 0
M  V30 8273 C 802.186 -3.27669 -1.5055 0
M  V30 8274 O 801.29 -3.18667 -2.61773 0
M  V30 8275 H 800.631 -0.631597 -0.204892 0
M  V30 8276 H 803.161 -2.04599 -0.00755232 0
M  V30 8277 H 803.171 -3.6214 -1.87932 0
M  V30 8278 H 801.846 -4.07717 -0.820931 0
M  V30 8279 H 800.423 -2.95798 -2.27064 0
M  V30 8280 N 802.608 0.318715 -1.54344 0
M  V30 8281 C 803.836 1.0755 -1.7675 0
M  V30 8282 C 804.251 1.81543 -0.518422 0
M  V30 8283 O 803.608 1.75198 0.511078 0
M  V30 8284 C 803.659 2.06983 -2.96378 0
M  V30 8285 O 803.38 1.35995 -4.16458 0
M  V30 8286 C 804.881 2.94841 -3.31034 0
M  V30 8287 H 802.101 0.319711 -0.589937 0
M  V30 8288 H 804.645 0.363369 -2.01246 0
M  V30 8289 H 802.8 2.73724 -2.74142 0
M  V30 8290 H 803.214 2.02623 -4.83781 0
M  V30 8291 H 804.688 3.60496 -4.18027 0
M  V30 8292 H 805.165 3.62199 -2.48412 0
M  V30 8293 H 805.771 2.33656 -3.55366 0
M  V30 8294 N 804.086 1.46499 0.581025 0
M  V30 8295 C 805.497 1.4604 1.16315 0
M  V30 8296 C 805.848 0.202154 1.95156 0
M  V30 8297 O 804.973 -0.694638 2.04948 0
M  V30 8298 C 805.568 2.64593 2.11604 0
M  V30 8299 C 804.127 2.6717 2.65136 0
M  V30 8300 C 803.274 2.38753 1.4104 0
M  V30 8301 H 806.225 1.54354 0.368871 0
M  V30 8302 H 806.246 2.40207 2.95095 0
M  V30 8303 H 805.758 3.56154 1.54194 0
M  V30 8304 H 803.859 1.79685 3.26411 0
M  V30 8305 H 803.972 3.67182 3.07757 0
M  V30 8306 H 802.336 1.88845 1.70908 0
M  V30 8307 H 803.119 3.32493 0.854588 0
M  V30 8308 N 805.565 -0.825799 1.34232 0
M  V30 8309 C 806.981 -1.11848 1.13851 0
M  V30 8310 C 807.181 -2.01405 -0.0619031 0
M  V30 8311 O 806.237 -2.41465 -0.738287 0
M  V30 8312 C 807.55 -1.76797 2.43235 0
M  V30 8313 C 809.098 -1.89304 2.49265 0
M  V30 8314 C 809.573 -2.57669 3.78643 0
M  V30 8315 N 811.064 -2.65171 3.79788 0
M  V30 8316 C 811.799 -3.1879 4.76614 0
M  V30 8317 N 811.295 -3.72995 5.83821 0
M  V30 8318 N 813.088 -3.17164 4.64073 0
M  V30 8319 H 805.239 -0.230049 2.11151 0
M  V30 8320 H 807.502 -0.164609 0.9336 0
M  V30 8321 H 807.208 -1.18455 3.31152 0
M  V30 8322 H 807.082 -2.76693 2.56361 0
M  V30 8323 H 809.469 -2.46796 1.6179 0
M  V30 8324 H 809.55 -0.883191 2.4007 0
M  V30 8325 H 809.194 -2.00833 4.66507 0
M  V30 8326 H 809.124 -3.59152 3.8512 0
M  V30 8327 H 811.615 -2.26746 3.02315 0
M  V30 8328 H 811.928 -4.12151 6.53721 0
M  V30 8329 H 810.273 -3.71246 5.87538 0
M  V30 8330 H 813.464 -2.74082 3.79469 0
M  V30 8331 H 813.637 -3.58647 5.397 0
M  V30 8332 N 807.043 -1.17915 -1.04565 0
M  V30 8333 C 807.99 -0.901605 -2.12461 0
M  V30 8334 C 808.96 0.157011 -1.65356 0
M  V30 8335 O 810.145 0.0184494 -1.90791 0
M  V30 8336 C 807.285 -0.42796 -3.42436 0
M  V30 8337 C 806.398 -1.55142 -4.03181 0
M  V30 8338 C 805.533 -1.03101 -5.21098 0
M  V30 8339 C 804.572 -2.1295 -5.73863 0
M  V30 8340 N 803.709 -1.62339 -6.83074 0
M  V30 8341 H 808.549 -1.82551 -2.3554 0
M  V30 8342 H 806.086 -0.910389 -1.15544 0
M  V30 8343 H 808.044 -0.134859 -4.16982 0
M  V30 8344 H 806.674 0.458977 -3.1952 0
M  V30 8345 H 805.726 -1.96011 -3.26012 0
M  V30 8346 H 807.038 -2.37968 -4.38375 0
M  V30 8347 H 806.192 -0.692132 -6.02739 0
M  V30 8348 H 804.931 -0.17227 -4.87396 0
M  V30 8349 H 803.936 -2.47687 -4.90847 0
M  V30 8350 H 805.161 -2.9925 -6.09611 0
M  V30 8351 H 803.107 -0.787464 -6.51256 0
M  V30 8352 H 803.024 -2.38767 -7.17305 0
M  V30 8353 H 804.292 -1.31363 -7.68351 0
M  V30 8354 N 808.521 1.23394 -0.980386 0
M  V30 8355 C 809.454 2.23404 -0.465404 0
M  V30 8356 C 810.432 1.55735 0.467471 0
M  V30 8357 O 811.616 1.84295 0.395921 0
M  V30 8358 C 808.743 3.3712 0.32672 0
M  V30 8359 C 807.789 4.22935 -0.550296 0
M  V30 8360 S 808.622 4.96824 -1.99814 0
M  V30 8361 C 809.778 6.13991 -1.21516 0
M  V30 8362 H 810.011 2.6674 -1.31289 0
M  V30 8363 H 807.544 1.32874 -0.78638 0
M  V30 8364 H 809.502 4.03065 0.777738 0
M  V30 8365 H 808.163 2.92317 1.14933 0
M  V30 8366 H 807.356 5.03966 0.0585298 0
M  V30 8367 H 806.958 3.62058 -0.937558 0
M  V30 8368 H 809.25 6.75822 -0.476476 0
M  V30 8369 H 810.193 6.7926 -2.0003 0
M  V30 8370 H 810.601 5.59708 -0.733949 0
M  V30 8371 N 809.999 0.752036 1.385 0
M  V30 8372 C 811.276 0.233075 1.94206 0
M  V30 8373 C 811.656 -1.26838 1.68746 0
M  V30 8374 O 811.004 -2.04214 1.02513 0
M  V30 8375 C 811.214 0.58509 3.44061 0
M  V30 8376 C 812.562 0.543871 4.21102 0
M  V30 8377 O 813.586 0.523291 3.52335 0
M  V30 8378 O 812.445 0.553436 5.4369 0
M  V30 8379 H 809.539 0.0483049 0.825588 0
M  V30 8380 H 812.085 0.832053 1.47902 0
M  V30 8381 H 810.857 1.62212 3.56094 0
M  V30 8382 H 810.48 -0.0419738 3.97578 0
M  V30 8383 N 811.477 -1.49425 0.500989 0
M  V30 8384 C 812.726 -2.01649 -0.04538 0
M  V30 8385 C 813.039 -1.38572 -1.38047 0
M  V30 8386 O 814.245 -1.82124 -2.01353 0
M  V30 8387 C 812.701 -3.5966 -0.131337 0
M  V30 8388 C 812.309 -4.3171 1.19711 0
M  V30 8389 C 814.053 -4.19828 -0.628071 0
M  V30 8390 C 811.96 -5.81579 1.07332 0
M  V30 8391 H 810.89 -0.753715 -0.0207329 0
M  V30 8392 H 813.541 -1.71962 0.640407 0
M  V30 8393 H 811.923 -3.86063 -0.881574 0
M  V30 8394 H 813.097 -4.17008 1.96064 0
M  V30 8395 H 811.412 -3.83286 1.62729 0
M  V30 8396 H 814.009 -5.2958 -0.738198 0
M  V30 8397 H 814.352 -3.83194 -1.6269 0
M  V30 8398 H 814.885 -3.97746 0.0656314 0
M  V30 8399 H 811.624 -6.22738 2.04642 0
M  V30 8400 H 811.144 -5.98774 0.350679 0
M  V30 8401 H 812.823 -6.42614 0.752047 0
M  V30 8402 N 812.955 -0.234822 -1.55841 0
M  V30 8403 C 813.885 0.664217 -2.23854 0
M  V30 8404 C 814.866 1.19076 -1.2147 0
M  V30 8405 O 816.051 1.23232 -1.50091 0
M  V30 8406 C 813.181 1.86666 -2.9287 0
M  V30 8407 C 812.135 1.47341 -4.01839 0
M  V30 8408 C 811.461 2.75571 -4.58219 0
M  V30 8409 C 812.761 0.653479 -5.18196 0
M  V30 8410 H 814.455 0.0971213 -2.99242 0
M  V30 8411 H 812.001 0.0452724 -1.43929 0
M  V30 8412 H 813.954 2.50116 -3.39146 0
M  V30 8413 H 812.678 2.45894 -2.1495 0
M  V30 8414 H 811.337 0.862314 -3.56314 0
M  V30 8415 H 810.985 3.32971 -3.77014 0
M  V30 8416 H 810.685 2.49987 -5.31771 0
M  V30 8417 H 812.209 3.39939 -5.07221 0
M  V30 8418 H 813.623 1.19198 -5.60771 0
M  V30 8419 H 812.02 0.494188 -5.98062 0
M  V30 8420 H 813.09 -0.337004 -4.83728 0
M  V30 8421 N 814.433 1.57553 0.0384317 0
M  V30 8422 C 815.681 1.88468 0.729672 0
M  V30 8423 C 816.002 0.831302 1.76393 0
M  V30 8424 O 815.272 -0.13622 1.95426 0
M  V30 8425 H 813.852 0.695529 0.272485 0
M  V30 8426 H 816.514 1.94899 0.0066032 0
M  V30 8427 H 815.61 2.8705 1.22511 0
M  V30 8428 N 815.911 -0.310526 1.54511 0
M  V30 8429 C 817.158 -1.04691 1.73338 0
M  V30 8430 C 817.486 -1.87584 0.514038 0
M  V30 8431 O 816.741 -1.89096 -0.504119 0
M  V30 8432 C 817.04 -1.98942 2.96912 0
M  V30 8433 C 816.706 -1.321 4.31115 0
M  V30 8434 C 815.368 -1.13603 4.67598 0
M  V30 8435 C 817.72 -0.842362 5.14348 0
M  V30 8436 C 815.048 -0.459102 5.84901 0
M  V30 8437 C 817.4 -0.179202 6.32346 0
M  V30 8438 C 816.064 0.0178111 6.67498 0
M  V30 8439 H 815.334 -0.38309 0.634289 0
M  V30 8440 H 817.981 -0.322723 1.88761 0
M  V30 8441 H 816.286 -2.77856 2.76231 0
M  V30 8442 H 817.983 -2.55972 3.08674 0
M  V30 8443 H 814.573 -1.47502 4.02419 0
M  V30 8444 H 818.757 -0.973013 4.86668 0
M  V30 8445 H 814.013 -0.295385 6.10686 0
M  V30 8446 H 818.187 0.199619 6.96114 0
M  V30 8447 H 815.814 0.544356 7.58249 0
M  V30 8448 N 817.389 -1.46805 -0.573248 0
M  V30 8449 C 818.635 -1.5283 -1.33307 0
M  V30 8450 C 818.968 -0.183287 -1.93333 0
M  V30 8451 O 818.243 0.806354 -1.76998 0
M  V30 8452 C 818.526 -2.63414 -2.45531 0
M  V30 8453 C 818.379 -4.07478 -1.90478 0
M  V30 8454 C 819.698 -2.70014 -3.47535 0
M  V30 8455 H 816.817 -0.556371 -0.483343 0
M  V30 8456 H 819.459 -1.78787 -0.643066 0
M  V30 8457 H 817.609 -2.41412 -3.04389 0
M  V30 8458 H 819.281 -4.40795 -1.36004 0
M  V30 8459 H 817.524 -4.16511 -1.21248 0
M  V30 8460 H 818.195 -4.80598 -2.71531 0
M  V30 8461 H 820.671 -2.89817 -2.98572 0
M  V30 8462 H 819.547 -3.49192 -4.23504 0
M  V30 8463 H 819.808 -1.76436 -4.05367 0
M  V30 8464 N 818.867 0.818669 -1.34668 0
M  V30 8465 C 820.092 1.61193 -1.30505 0
M  V30 8466 C 820.517 1.87734 0.117341 0
M  V30 8467 O 819.875 1.45591 1.08042 0
M  V30 8468 C 819.923 2.92733 -2.1057 0
M  V30 8469 O 819.027 3.85 -1.47813 0
M  V30 8470 H 818.368 0.490085 -0.44801 0
M  V30 8471 H 820.898 1.01701 -1.77534 0
M  V30 8472 H 820.908 3.42262 -2.22082 0
M  V30 8473 H 819.583 2.7274 -3.13984 0
M  V30 8474 H 818.16 3.43525 -1.45069 0
M  V30 8475 N 820.346 1.18468 1.03938 0
M  V30 8476 C 821.309 0.914944 2.10146 0
M  V30 8477 C 822.309 -0.10022 1.60487 0
M  V30 8478 O 823.499 0.133365 1.73689 0
M  V30 8479 C 820.631 0.372993 3.38853 0
M  V30 8480 H 821.824 1.85677 2.35508 0
M  V30 8481 H 819.377 0.996876 1.20383 0
M  V30 8482 H 820.112 -0.57538 3.19155 0
M  V30 8483 H 819.897 1.1048 3.76213 0
M  V30 8484 H 821.387 0.203014 4.17106 0
M  V30 8485 N 821.824 -1.22873 0.986916 0
M  V30 8486 C 823.064 -1.93192 0.667543 0
M  V30 8487 C 823.428 -1.7521 -0.785196 0
M  V30 8488 O 824.629 -2.39737 -1.2157 0
M  V30 8489 C 822.9 -3.4147 1.05513 0
M  V30 8490 S 824.459 -4.30425 0.853218 0
M  V30 8491 H 821.277 -0.667726 0.244261 0
M  V30 8492 H 823.879 -1.48808 1.26793 0
M  V30 8493 H 822.583 -3.52069 2.10892 0
M  V30 8494 H 822.114 -3.9086 0.446293 0
M  V30 8495 H 824.129 -4.95521 -0.259444 0
M  V30 8496 N 823.302 -0.75937 -1.38099 0
M  V30 8497 C 824.25 -0.124954 -2.32264 0
M  V30 8498 C 825.244 0.698863 -1.54312 0
M  V30 8499 O 826.45 0.597312 -1.698 0
M  V30 8500 H 822.825 -0.0216142 -0.751689 0
M  V30 8501 H 824.796 -0.935115 -2.83369 0
M  V30 8502 C 823.545 0.749463 -3.39527 0
M  V30 8503 H 822.868 0.124932 -3.99605 0
M  V30 8504 H 824.308 1.16055 -4.07808 0
M  V30 8505 C 822.767 1.89464 -2.78577 0
M  V30 8506 O 823.297 2.98923 -2.68343 0
M  V30 8507 N 821.503 1.69145 -2.36301 0
M  V30 8508 H 821.05 0.801157 -2.44825 0
M  V30 8509 H 821.008 2.45936 -1.95864 0
M  V30 8510 N 824.78 1.49157 -0.508906 0
M  V30 8511 C 826.057 1.95363 0.0961913 0
M  V30 8512 C 826.437 1.45064 1.53362 0
M  V30 8513 O 825.785 0.667835 2.18523 0
M  V30 8514 C 825.995 3.49 0.000688881 0
M  V30 8515 C 827.343 4.24257 0.170632 0
M  V30 8516 O 828.367 3.5612 0.0754994 0
M  V30 8517 O 827.226 5.45267 0.366957 0
M  V30 8518 H 824.32 0.821984 0.0909489 0
M  V30 8519 H 826.866 1.59769 -0.572007 0
M  V30 8520 H 825.638 3.78269 -1.00143 0
M  V30 8521 H 825.261 3.91233 0.708682 0
M  V30 8522 N 826.258 0.243083 1.55714 0
M  V30 8523 C 827.505 -0.38272 1.9885 0
M  V30 8524 C 827.833 -1.58225 1.13115 0
M  V30 8525 O 827.088 -1.94861 0.181067 0
M  V30 8526 C 827.387 -0.839621 3.47398 0
M  V30 8527 C 827.053 0.251737 4.50197 0
M  V30 8528 C 825.715 0.551487 4.78029 0
M  V30 8529 C 828.067 0.988728 5.11736 0
M  V30 8530 C 825.395 1.59237 5.64677 0
M  V30 8531 C 827.747 2.0191 5.99512 0
M  V30 8532 C 826.411 2.32554 6.2568 0
M  V30 8533 H 825.681 -0.140047 0.727645 0
M  V30 8534 H 828.328 0.35011 1.88272 0
M  V30 8535 H 826.633 -1.65159 3.55288 0
M  V30 8536 H 828.33 -1.33404 3.78159 0
M  V30 8537 H 824.92 0.00796741 4.28599 0
M  V30 8538 H 829.104 0.7704 4.90284 0
M  V30 8539 H 824.36 1.83517 5.83208 0
M  V30 8540 H 828.534 2.59511 6.46241 0
M  V30 8541 H 826.161 3.13349 6.92616 0
M  V30 8542 N 827.736 -1.57571 -0.0300757 0
M  V30 8543 C 828.961 -1.93879 -0.736601 0
M  V30 8544 C 829.386 -0.842998 -1.68152 0
M  V30 8545 O 828.744 0.20135 -1.80178 0
M  V30 8546 C 828.792 -3.29247 -1.47066 0
M  V30 8547 O 827.896 -3.21426 -2.58378 0
M  V30 8548 H 827.237 -0.633735 -0.198181 0
M  V30 8549 H 829.767 -2.04595 0.0141485 0
M  V30 8550 H 829.777 -3.64113 -1.84081 0
M  V30 8551 H 828.452 -4.08565 -0.77764 0
M  V30 8552 H 827.029 -2.98189 -2.23914 0
M  V30 8553 N 829.214 0.302327 -1.54673 0
M  V30 8554 C 830.46 1.03924 -1.74149 0
M  V30 8555 C 830.793 1.86968 -0.525041 0
M  V30 8556 O 830.068 1.88538 0.477868 0
M  V30 8557 C 830.351 1.94633 -3.02969 0
M  V30 8558 C 830.204 1.14778 -4.34909 0
M  V30 8559 C 831.523 2.93826 -3.27649 0
M  V30 8560 H 828.642 0.376405 -0.633631 0
M  V30 8561 H 831.284 0.314007 -1.87387 0
M  V30 8562 H 829.434 2.56471 -2.91813 0
M  V30 8563 H 831.106 0.552363 -4.57981 0
M  V30 8564 H 829.349 0.450462 -4.31455 0
M  V30 8565 H 830.02 1.81495 -5.21309 0
M  V30 8566 H 832.496 2.42117 -3.38406 0
M  V30 8567 H 831.372 3.54462 -4.19104 0
M  V30 8568 H 831.633 3.67416 -2.45882 0
M  V30 8569 N 830.692 1.47107 0.565454 0
M  V30 8570 C 832.108 1.32443 0.890566 0
M  V30 8571 C 832.308 0.308735 1.99121 0
M  V30 8572 O 831.364 -0.28265 2.50913 0
M  V30 8573 C 832.677 2.71548 1.2916 0
M  V30 8574 C 834.225 2.7977 1.40349 0
M  V30 8575 C 834.7 4.19497 1.83811 0
M  V30 8576 N 836.191 4.21998 1.90975 0
M  V30 8577 C 836.926 5.2702 2.25916 0
M  V30 8578 N 836.422 6.42353 2.59527 0
M  V30 8579 N 838.215 5.14393 2.26619 0
M  V30 8580 H 830.366 2.11786 -0.161328 0
M  V30 8581 H 832.629 0.947952 -0.00950631 0
M  V30 8582 H 832.335 3.47265 0.556753 0
M  V30 8583 H 832.209 3.02782 2.24951 0
M  V30 8584 H 834.596 2.0433 2.12916 0
M  V30 8585 H 834.677 2.522 0.427655 0
M  V30 8586 H 834.321 4.95439 1.11816 0
M  V30 8587 H 834.251 4.44486 2.82382 0
M  V30 8588 H 836.742 3.38791 1.6742 0
M  V30 8589 H 837.055 7.18252 2.85191 0
M  V30 8590 H 835.4 6.45687 2.57126 0
M  V30 8591 H 838.591 4.2332 1.99794 0
M  V30 8592 H 838.764 5.96349 2.5352 0
M  V30 8593 N 832.17 -0.811516 1.35101 0
M  V30 8594 C 833.1 -1.9378 1.30275 0
M  V30 8595 C 834.081 -1.69165 0.178075 0
M  V30 8596 O 835.266 -1.90599 0.372256 0
M  V30 8597 C 832.396 -3.30439 1.06899 0
M  V30 8598 C 831.35 -3.69523 2.15955 0
M  V30 8599 C 830.676 -5.0429 1.77751 0
M  V30 8600 C 831.976 -3.80419 3.57881 0
M  V30 8601 H 833.67 -1.98075 2.24514 0
M  V30 8602 H 831.216 -0.951586 1.08078 0
M  V30 8603 H 833.169 -4.08828 1.02164 0
M  V30 8604 H 831.893 -3.26473 0.0910462 0
M  V30 8605 H 830.552 -2.93416 2.19778 0
M  V30 8606 H 830.2 -4.96823 0.785876 0
M  V30 8607 H 829.9 -5.31411 2.5075 0
M  V30 8608 H 831.424 -5.85125 1.74533 0
M  V30 8609 H 832.838 -4.49051 3.56407 0
M  V30 8610 H 831.235 -4.19005 4.29598 0
M  V30 8611 H 832.305 -2.82105 3.94391 0
M  V30 8612 N 833.648 -1.19017 -1.03309 0
M  V30 8613 C 834.578 -0.94772 -2.13402 0
M  V30 8614 C 835.559 0.117383 -1.69694 0
M  V30 8615 O 836.744 -0.0367733 -1.94165 0
M  V30 8616 C 833.874 -0.480977 -3.43953 0
M  V30 8617 C 832.828 -1.48743 -4.01322 0
M  V30 8618 C 832.154 -0.877924 -5.27443 0
M  V30 8619 C 833.454 -2.86642 -4.36616 0
M  V30 8620 H 835.148 -1.86846 -2.33942 0
M  V30 8621 H 832.694 -0.899781 -1.12427 0
M  V30 8622 H 834.647 -0.298677 -4.2034 0
M  V30 8623 H 833.371 0.475348 -3.23122 0
M  V30 8624 H 832.03 -1.65681 -3.27025 0
M  V30 8625 H 831.678 0.0858232 -5.02927 0
M  V30 8626 H 831.378 -1.54996 -5.66789 0
M  V30 8627 H 832.902 -0.706326 -6.06501 0
M  V30 8628 H 834.316 -2.73312 -5.03958 0
M  V30 8629 H 832.713 -3.50599 -4.87032 0
M  V30 8630 H 833.783 -3.39617 -3.46105 0
M  V30 8631 N 835.127 1.22348 -0.993418 0
M  V30 8632 C 836.543 1.43222 -0.704238 0
M  V30 8633 C 836.743 1.88009 0.724909 0
M  V30 8634 O 835.799 2.03429 1.49575 0
M  V30 8635 C 837.112 2.47328 -1.71025 0
M  V30 8636 C 838.66 2.61126 -1.72576 0
M  V30 8637 C 839.135 3.68453 -2.72041 0
M  V30 8638 N 840.626 3.75911 -2.70639 0
M  V30 8639 C 841.361 4.58551 -3.44266 0
M  V30 8640 N 840.857 5.45179 -4.27495 0
M  V30 8641 N 842.65 4.52866 -3.32969 0
M  V30 8642 H 834.801 0.915832 -1.91641 0
M  V30 8643 H 837.064 0.464283 -0.826526 0
M  V30 8644 H 836.77 2.21366 -2.73295 0
M  V30 8645 H 836.644 3.45939 -1.50353 0
M  V30 8646 H 839.031 2.86431 -0.710037 0
M  V30 8647 H 839.112 1.62787 -1.97317 0
M  V30 8648 H 838.756 3.43895 -3.73763 0
M  V30 8649 H 838.686 4.66362 -2.4457 0
M  V30 8650 H 841.177 3.14014 -2.10247 0
M  V30 8651 H 841.49 6.0526 -4.80499 0
M  V30 8652 H 839.835 5.44759 -4.31582 0
M  V30 8653 H 843.026 3.84215 -2.67389 0
M  V30 8654 H 843.199 5.17039 -3.90608 0
M  V30 8655 N 836.605 0.766683 1.37694 0
M  V30 8656 C 837.882 0.25366 1.93948 0
M  V30 8657 C 838.262 -1.25041 1.70082 0
M  V30 8658 O 837.61 -2.03115 1.04674 0
M  V30 8659 C 837.82 0.621549 3.43421 0
M  V30 8660 C 839.168 0.588504 4.20502 0
M  V30 8661 O 840.192 0.560632 3.5176 0
M  V30 8662 O 839.051 0.61107 5.43073 0
M  V30 8663 H 836.145 0.0570586 0.825029 0
M  V30 8664 H 838.691 0.847693 1.47011 0
M  V30 8665 H 837.463 1.65979 3.54354 0
M  V30 8666 H 837.086 0.000197027 3.976 0
M  V30 8667 N 838.083 -1.48885 0.516809 0
M  V30 8668 C 839.311 -2.06892 -0.0184017 0
M  V30 8669 C 839.726 -1.37511 -1.29368 0
M  V30 8670 O 839.083 -0.458409 -1.76649 0
M  V30 8671 C 839.134 -3.60566 -0.259673 0
M  V30 8672 O 838.855 -4.27338 0.965065 0
M  V30 8673 C 840.356 -4.35331 -0.836751 0
M  V30 8674 H 837.576 -0.670433 0.0275743 0
M  V30 8675 H 840.12 -1.91455 0.718689 0
M  V30 8676 H 838.275 -3.75653 -0.94678 0
M  V30 8677 H 838.689 -5.19287 0.737647 0
M  V30 8678 H 840.163 -5.43675 -0.955065 0
M  V30 8679 H 840.64 -3.9887 -1.83845 0
M  V30 8680 H 841.246 -4.2489 -0.186622 0
M  V30 8681 N 839.561 -0.251338 -1.55583 0
M  V30 8682 C 840.789 0.376187 -2.03451 0
M  V30 8683 C 841.204 1.51215 -1.13047 0
M  V30 8684 O 840.561 1.81917 -0.145769 0
M  V30 8685 C 840.612 0.879779 -3.50631 0
M  V30 8686 O 840.333 -0.210917 -4.37592 0
M  V30 8687 C 841.834 1.57754 -4.14281 0
M  V30 8688 H 839.054 0.0888722 -0.665089 0
M  V30 8689 H 841.598 -0.376497 -2.01004 0
M  V30 8690 H 839.753 1.58263 -3.53598 0
M  V30 8691 H 840.167 0.172203 -5.24217 0
M  V30 8692 H 841.641 1.88158 -5.18942 0
M  V30 8693 H 842.118 2.50103 -3.61034 0
M  V30 8694 H 842.724 0.919154 -4.15249 0
M  V30 8695 N 841.039 1.57585 0.0217189 0
M  V30 8696 C 841.989 2.03506 1.02807 0
M  V30 8697 C 842.973 0.925716 1.31603 0
M  V30 8698 O 844.165 1.18958 1.31065 0
M  V30 8699 C 841.294 2.52407 2.32693 0
M  V30 8700 C 840.38 3.70176 2.06955 0
M  V30 8701 N 840.771 4.82641 1.513 0
M  V30 8702 C 839.069 3.77691 2.37204 0
M  V30 8703 C 839.77 5.64218 1.41536 0
M  V30 8704 N 838.746 5.09557 1.89348 0
M  V30 8705 H 842.548 2.87878 0.591899 0
M  V30 8706 H 840.062 1.60793 0.227875 0
M  V30 8707 H 842.059 2.83569 3.05605 0
M  V30 8708 H 840.719 1.69444 2.76982 0
M  V30 8709 H 841.73 5.03931 1.19472 0
M  V30 8710 H 838.407 3.05542 2.84517 0
M  V30 8711 H 839.797 6.64576 0.989333 0
M  V30 8712 N 842.517 -0.29412 1.54831 0
M  V30 8713 C 843.766 -1.02614 1.73647 0
M  V30 8714 C 844.079 -1.88193 0.533162 0
M  V30 8715 O 845.285 -2.64713 0.603275 0
M  V30 8716 C 843.741 -1.87417 3.07251 0
M  V30 8717 C 843.349 -1.06806 4.35082 0
M  V30 8718 C 845.093 -2.60176 3.35423 0
M  V30 8719 C 843 -1.90926 5.59733 0
M  V30 8720 H 841.93 -0.386834 0.647206 0
M  V30 8721 H 844.581 -0.282789 1.81308 0
M  V30 8722 H 842.963 -2.65765 2.93572 0
M  V30 8723 H 844.137 -0.330226 4.59615 0
M  V30 8724 H 842.452 -0.455979 4.13896 0
M  V30 8725 H 845.049 -3.23476 4.25755 0
M  V30 8726 H 845.392 -3.29365 2.54606 0
M  V30 8727 H 845.925 -1.88871 3.50103 0
M  V30 8728 H 842.664 -1.26194 6.43238 0
M  V30 8729 H 842.184 -2.62363 5.39375 0
M  V30 8730 H 843.863 -2.48807 5.97247 0
M  V30 8731 N 843.995 -1.47404 -0.557645 0
M  V30 8732 C 845.22 -1.57868 -1.34508 0
M  V30 8733 C 845.645 -0.229151 -1.86699 0
M  V30 8734 O 845.003 0.794908 -1.62944 0
M  V30 8735 C 845.051 -2.60712 -2.49122 0
M  V30 8736 O 844.155 -2.15952 -3.51338 0
M  V30 8737 H 843.496 -0.530335 -0.399551 0
M  V30 8738 H 846.026 -1.93181 -0.673954 0
M  V30 8739 H 846.036 -2.81118 -2.95697 0
M  V30 8740 H 844.711 -3.58701 -2.10491 0
M  V30 8741 H 843.288 -2.05644 -3.11071 0
M  V30 8742 N 845.473 0.80434 -1.35529 0
M  V30 8743 C 846.405 1.92445 -1.2449 0
M  V30 8744 C 847.418 1.61934 -0.167685 0
M  V30 8745 O 848.607 1.73461 -0.42115 0
M  V30 8746 C 845.707 3.26875 -0.894751 0
M  V30 8747 C 844.88 3.85275 -2.07079 0
M  V30 8748 C 843.939 4.98116 -1.69607 0
M  V30 8749 O 842.965 5.15424 -2.41509 0
M  V30 8750 N 844.167 5.77169 -0.621012 0
M  V30 8751 H 846.932 2.02441 -2.20993 0
M  V30 8752 H 844.493 0.981874 -1.28728 0
M  V30 8753 H 846.485 3.99837 -0.625511 0
M  V30 8754 H 845.055 3.12594 -0.0193306 0
M  V30 8755 H 844.275 3.0448 -2.5037 0
M  V30 8756 H 845.563 4.21024 -2.85685 0
M  V30 8757 H 844.961 5.65695 -0.0236679 0
M  V30 8758 H 843.518 6.50499 -0.411558 0
M  V30 8759 N 846.951 1.19563 1.02676 0
M  V30 8760 C 847.861 0.950691 2.14474 0
M  V30 8761 C 848.877 -0.0900219 1.73767 0
M  V30 8762 O 850.053 0.0951063 2.01175 0
M  V30 8763 C 847.118 0.494917 3.43149 0
M  V30 8764 C 846.179 1.60527 3.98158 0
M  V30 8765 C 845.412 1.17115 5.20692 0
M  V30 8766 O 845.635 0.0355937 5.70389 0
M  V30 8767 O 844.569 1.97454 5.68591 0
M  V30 8768 H 848.395 1.88651 2.38001 0
M  V30 8769 H 845.98 0.978635 1.12885 0
M  V30 8770 H 847.862 0.249492 4.20661 0
M  V30 8771 H 846.537 -0.412434 3.21062 0
M  V30 8772 H 845.444 1.90487 3.21971 0
M  V30 8773 H 846.777 2.48925 4.24614 0
M  V30 8774 N 848.429 -1.21819 0.999893 0
M  V30 8775 C 849.392 -2.22227 0.561044 0
M  V30 8776 C 850.392 -1.56722 -0.359858 0
M  V30 8777 O 851.582 -1.73546 -0.150848 0
M  V30 8778 C 848.714 -3.40409 -0.182987 0
M  V30 8779 H 849.907 -2.62567 1.44909 0
M  V30 8780 H 847.46 -1.34991 0.78785 0
M  V30 8781 H 848.195 -3.05551 -1.08671 0
M  V30 8782 H 847.98 -3.89171 0.47833 0
M  V30 8783 H 849.47 -4.14856 -0.477952 0
M  V30 8784 N 849.908 -0.773975 -1.37286 0
M  V30 8785 C 850.841 -0.108019 -2.27944 0
M  V30 8786 C 851.819 0.706737 -1.46438 0
M  V30 8787 O 853.003 0.681025 -1.75768 0
M  V30 8788 C 850.13 0.853199 -3.27778 0
M  V30 8789 C 849.176 0.122164 -4.26325 0
M  V30 8790 S 850.009 -1.19136 -5.22079 0
M  V30 8791 C 851.165 -0.233737 -6.25463 0
M  V30 8792 H 851.398 -0.876743 -2.84078 0
M  V30 8793 H 848.931 -0.567468 -1.43594 0
M  V30 8794 H 850.889 1.40238 -3.85803 0
M  V30 8795 H 849.55 1.59505 -2.70586 0
M  V30 8796 H 848.743 0.850926 -4.96765 0
M  V30 8797 H 848.345 -0.356079 -3.72301 0
M  V30 8798 H 850.637 0.59305 -6.74899 0
M  V30 8799 H 851.58 -0.906373 -7.02275 0
M  V30 8800 H 851.988 0.156048 -5.64284 0
M  V30 8801 N 851.386 1.48609 -0.524698 0
M  V30 8802 C 852.797 1.86516 -0.0828846 0
M  V30 8803 C 853.148 1.43478 1.33822 0
M  V30 8804 O 852.273 0.823139 2.00133 0
M  V30 8805 C 852.868 3.38495 -0.143639 0
M  V30 8806 C 851.427 3.75615 0.242951 0
M  V30 8807 C 850.574 2.72649 -0.505747 0
M  V30 8808 H 853.525 1.40589 -0.736233 0
M  V30 8809 H 853.546 3.74977 0.645955 0
M  V30 8810 H 853.058 3.69789 -1.17805 0
M  V30 8811 H 851.159 3.49935 1.27971 0
M  V30 8812 H 851.272 4.7901 -0.0929834 0
M  V30 8813 H 849.636 2.54656 0.0473482 0
M  V30 8814 H 850.419 3.06786 -1.54069 0
M  V30 8815 N 852.864 0.259585 1.55447 0
M  V30 8816 C 853.796 -0.667548 2.19263 0
M  V30 8817 C 854.809 -1.12925 1.17268 0
M  V30 8818 O 855.998 -1.05384 1.44071 0
M  V30 8819 C 853.098 -1.92066 2.7922 0
M  V30 8820 C 852.271 -1.60832 4.06758 0
M  V30 8821 C 851.33 -2.71231 4.50911 0
M  V30 8822 O 850.356 -2.38077 5.17019 0
M  V30 8823 N 851.558 -4.00984 4.19752 0
M  V30 8824 H 854.323 -0.121449 2.99454 0
M  V30 8825 H 851.884 0.0800519 1.61702 0
M  V30 8826 H 853.876 -2.65186 3.0571 0
M  V30 8827 H 852.446 -2.37621 2.03113 0
M  V30 8828 H 851.666 -0.711685 3.87722 0
M  V30 8829 H 852.954 -1.37445 4.89884 0
M  V30 8830 H 852.352 -4.30748 3.66706 0
M  V30 8831 H 850.909 -4.7053 4.51048 0
M  V30 8832 N 854.342 -1.57594 -0.0133615 0
M  V30 8833 C 855.59 -1.89605 -0.699596 0
M  V30 8834 C 855.911 -0.85926 -1.75048 0
M  V30 8835 O 855.181 0.105112 -1.95618 0
M  V30 8836 H 853.761 -0.699776 -0.261385 0
M  V30 8837 H 856.423 -1.94885 0.0244044 0
M  V30 8838 H 855.519 -2.88962 -1.17928 0
M  V30 8839 N 855.82 0.285905 -1.54985 0
M  V30 8840 C 856.75 1.35752 -1.89983 0
M  V30 8841 C 857.731 1.52163 -0.760295 0
M  V30 8842 O 858.916 1.65421 -1.01733 0
M  V30 8843 C 856.046 2.71925 -2.16042 0
M  V30 8844 C 855 2.70261 -3.31878 0
M  V30 8845 C 854.326 4.09864 -3.43388 0
M  V30 8846 C 855.626 2.30667 -4.68604 0
M  V30 8847 H 857.32 1.06709 -2.79738 0
M  V30 8848 H 854.866 0.511884 -1.34595 0
M  V30 8849 H 856.819 3.46992 -2.39113 0
M  V30 8850 H 855.543 3.02523 -1.23074 0
M  V30 8851 H 854.202 1.97651 -3.08755 0
M  V30 8852 H 853.85 4.37664 -2.47909 0
M  V30 8853 H 853.55 4.09648 -4.21262 0
M  V30 8854 H 855.074 4.86689 -3.68736 0
M  V30 8855 H 856.488 2.95453 -4.91305 0
M  V30 8856 H 854.885 2.41637 -5.49301 0
M  V30 8857 H 855.955 1.25793 -4.68299 0
M  V30 8858 N 857.298 1.47698 0.54982 0
M  V30 8859 C 858.546 1.54397 1.30407 0
M  V30 8860 C 858.867 0.211026 1.93855 0
M  V30 8861 O 858.137 -0.765701 1.80316 0
M  V30 8862 H 856.717 0.568747 0.484289 0
M  V30 8863 H 859.379 1.84042 0.641444 0
M  V30 8864 H 858.475 2.31449 2.09375 0
M  V30 8865 N 858.776 -0.797141 1.35954 0
M  V30 8866 C 860.053 -1.54224 1.2031 0
M  V30 8867 C 860.433 -2.10013 -0.213926 0
M  V30 8868 O 859.781 -1.93292 -1.21862 0
M  V30 8869 C 859.991 -2.6433 2.27883 0
M  V30 8870 C 861.339 -3.32418 2.64165 0
M  V30 8871 O 862.363 -2.74607 2.26868 0
M  V30 8872 O 861.222 -4.36876 3.28331 0
M  V30 8873 H 858.316 -0.681857 0.467974 0
M  V30 8874 H 860.862 -0.836288 1.47663 0
M  V30 8875 H 859.634 -2.21044 3.22885 0
M  V30 8876 H 859.257 -3.42551 2.01853 0
M  V30 8877 N 860.254 -1.20106 -1.0204 0
M  V30 8878 C 861.184 -0.970301 -2.12385 0
M  V30 8879 C 862.165 0.099378 -1.69809 0
M  V30 8880 O 863.35 -0.057365 -1.94115 0
M  V30 8881 C 860.48 -0.517431 -3.43424 0
M  V30 8882 C 859.434 -1.52992 -3.99722 0
M  V30 8883 C 858.76 -0.933817 -5.26483 0
M  V30 8884 C 860.06 -2.91257 -4.33551 0
M  V30 8885 H 861.754 -1.89316 -2.31948 0
M  V30 8886 H 859.3 -0.911655 -1.11467 0
M  V30 8887 H 861.253 -0.343243 -4.2 0
M  V30 8888 H 859.977 0.441049 -3.23608 0
M  V30 8889 H 858.636 -1.6914 -3.2525 0
M  V30 8890 H 858.284 0.0324763 -5.0299 0
M  V30 8891 H 857.984 -1.60999 -5.65113 0
M  V30 8892 H 859.508 -0.770614 -6.05718 0
M  V30 8893 H 860.922 -2.78642 -5.0103 0
M  V30 8894 H 859.319 -3.55745 -4.83286 0
M  V30 8895 H 860.389 -3.43269 -3.42483 0
M  V30 8896 N 861.732 1.21287 -1.00634 0
M  V30 8897 C 862.981 1.89706 -0.685178 0
M  V30 8898 C 863.294 1.79044 0.787566 0
M  V30 8899 O 864.5 2.42502 1.22086 0
M  V30 8900 C 862.956 3.40176 -1.17508 0
M  V30 8901 C 862.564 3.59446 -2.674 0
M  V30 8902 C 864.308 4.14213 -0.928869 0
M  V30 8903 C 862.215 5.03688 -3.09923 0
M  V30 8904 H 861.145 0.710434 -0.252586 0
M  V30 8905 H 863.796 1.37277 -1.21768 0
M  V30 8906 H 862.178 3.91867 -0.570622 0
M  V30 8907 H 863.352 3.18188 -3.33306 0
M  V30 8908 H 861.667 2.98764 -2.9005 0
M  V30 8909 H 864.264 5.20546 -1.22212 0
M  V30 8910 H 864.607 4.16082 0.134859 0
M  V30 8911 H 865.14 3.68591 -1.49619 0
M  V30 8912 H 861.879 5.06968 -4.15529 0
M  V30 8913 H 861.399 5.45796 -2.4873 0
M  V30 8914 H 863.078 5.72204 -3.0198 0
M  V30 8915 N 863.21 0.781244 1.36873 0
M  V30 8916 C 864.12 0.174981 2.33947 0
M  V30 8917 C 865.136 -0.668512 1.60645 0
M  V30 8918 O 866.312 -0.586213 1.9268 0
M  V30 8919 C 863.377 -0.686557 3.39834 0
M  V30 8920 C 862.438 0.174489 4.28945 0
M  V30 8921 C 861.671 -0.646024 5.29776 0
M  V30 8922 O 861.894 -1.88254 5.38439 0
M  V30 8923 O 860.828 -0.0502214 6.01879 0
M  V30 8924 H 864.654 0.977382 2.87543 0
M  V30 8925 H 862.239 0.542559 1.392 0
M  V30 8926 H 864.121 -1.1781 4.04597 0
M  V30 8927 H 862.796 -1.46699 2.8855 0
M  V30 8928 H 861.703 0.712604 3.6725 0
M  V30 8929 H 863.036 0.918232 4.83559 0
M  V30 8930 N 864.689 -1.48329 0.532571 0
M  V30 8931 C 865.937 -2.021 -0.000581206 0
M  V30 8932 C 866.258 -1.4117 -1.34522 0
M  V30 8933 O 865.528 -0.578005 -1.87179 0
M  V30 8934 H 864.108 -0.746993 -0.00320281 0
M  V30 8935 H 866.77 -1.82011 0.696991 0
M  V30 8936 H 865.866 -3.11917 -0.106991 0
M  V30 8937 N 866.167 -0.267825 -1.55308 0
M  V30 8938 C 867.413 0.351556 -1.9973 0
M  V30 8939 C 867.746 1.56049 -1.15596 0
M  V30 8940 O 867.021 1.93203 -0.224274 0
M  V30 8941 C 867.304 0.74091 -3.52395 0
M  V30 8942 C 867.157 -0.474861 -4.47286 0
M  V30 8943 C 868.476 1.5801 -4.10756 0
M  V30 8944 H 865.595 0.126308 -0.726096 0
M  V30 8945 H 868.237 -0.373316 -1.86296 0
M  V30 8946 H 866.387 1.35851 -3.63973 0
M  V30 8947 H 868.059 -1.1134 -4.47662 0
M  V30 8948 H 866.302 -1.11425 -4.19246 0
M  V30 8949 H 866.973 -0.158782 -5.51772 0
M  V30 8950 H 869.449 1.05857 -4.0241 0
M  V30 8951 H 868.325 1.82135 -5.17801 0
M  V30 8952 H 868.586 2.55878 -3.60526 0
M  V30 8953 N 867.645 1.57599 0.00500368 0
M  V30 8954 C 868.891 1.90631 0.691919 0
M  V30 8955 C 869.224 0.868443 1.737 0
M  V30 8956 O 868.499 -0.113482 1.94169 0
M  V30 8957 C 868.782 3.34255 1.33961 0
M  V30 8958 C 868.635 4.48755 0.306413 0
M  V30 8959 C 869.954 3.77211 2.26715 0
M  V30 8960 H 867.073 0.693279 0.250066 0
M  V30 8961 H 869.715 1.89946 -0.0452634 0
M  V30 8962 H 867.865 3.3497 1.96793 0
M  V30 8963 H 869.537 4.60176 -0.321841 0
M  V30 8964 H 867.78 4.32203 -0.371852 0
M  V30 8965 H 868.451 5.46193 0.798554 0
M  V30 8966 H 870.927 3.78017 1.73904 0
M  V30 8967 H 869.803 4.78466 2.69002 0
M  V30 8968 H 870.064 3.10801 3.14413 0
M  V30 8969 N 869.123 -0.277682 1.55134 0
M  V30 8970 C 870.033 -1.36524 1.90783 0
M  V30 8971 C 871.049 -1.54283 0.804542 0
M  V30 8972 O 872.225 -1.68499 1.10318 0
M  V30 8973 C 869.29 -2.70524 2.16835 0
M  V30 8974 C 868.351 -2.61552 3.40424 0
M  V30 8975 C 867.584 -3.89162 3.65224 0
M  V30 8976 O 867.807 -4.89624 2.92616 0
M  V30 8977 O 866.741 -3.89647 4.58758 0
M  V30 8978 H 870.567 -1.0929 2.83354 0
M  V30 8979 H 868.152 -0.475799 1.41621 0
M  V30 8980 H 870.034 -3.49765 2.35038 0
M  V30 8981 H 868.709 -2.97555 1.27448 0
M  V30 8982 H 867.616 -1.80704 3.27562 0
M  V30 8983 H 868.949 -2.39472 4.30016 0
M  V30 8984 N 870.601 -1.47988 -0.541979 0
M  V30 8985 C 871.849 -1.55086 -1.29587 0
M  V30 8986 C 872.17 -0.221304 -1.9374 0
M  V30 8987 O 871.44 0.756128 -1.80719 0
M  V30 8988 H 870.02 -0.571307 -0.481266 0
M  V30 8989 H 872.682 -1.8438 -0.631675 0
M  V30 8990 H 871.778 -2.32556 -2.08144 0
M  V30 8991 N 872.079 0.78992 -1.36375 0
M  V30 8992 C 873.325 1.55007 -1.3077 0
M  V30 8993 C 873.658 1.93871 0.112979 0
M  V30 8994 O 872.933 1.6267 1.06625 0
M  V30 8995 C 873.216 2.82748 -2.22993 0
M  V30 8996 C 873.069 2.50253 -3.73756 0
M  V30 8997 C 874.388 3.84569 -2.13998 0
M  V30 8998 H 871.507 0.562362 -0.476359 0
M  V30 8999 H 874.149 0.907582 -1.66922 0
M  V30 9000 H 872.299 3.37573 -1.92292 0
M  V30 9001 H 873.971 2.01482 -4.14973 0
M  V30 9002 H 872.214 1.83203 -3.93216 0
M  V30 9003 H 872.885 3.41487 -4.33694 0
M  V30 9004 H 875.361 3.39188 -2.4102 0
M  V30 9005 H 874.237 4.717 -2.80697 0
M  V30 9006 H 874.498 4.27491 -1.12711 0
M  V30 9007 N 873.557 1.20646 1.01402 0
M  V30 9008 C 874.785 1.04389 1.78635 0
M  V30 9009 C 875.2 -0.406771 1.84366 0
M  V30 9010 O 874.557 -1.28239 1.2985 0
M  V30 9011 C 874.608 1.62378 3.22979 0
M  V30 9012 O 874.329 3.01768 3.17597 0
M  V30 9013 C 875.83 1.5111 4.1675 0
M  V30 9014 H 873.05 0.367077 0.56169 0
M  V30 9015 H 875.594 1.59789 1.27624 0
M  V30 9016 H 873.749 1.11092 3.7113 0
M  V30 9017 H 874.163 3.29331 4.08217 0
M  V30 9018 H 875.637 1.96441 5.15863 0
M  V30 9019 H 876.114 0.464011 4.36742 0
M  V30 9020 H 876.72 2.01599 3.74483 0
M  V30 9021 N 875.035 -1.20752 1.01276 0
M  V30 9022 C 876.451 -1.42084 0.726934 0
M  V30 9023 C 876.651 -1.89138 -0.694907 0
M  V30 9024 O 875.707 -2.05783 -1.4632 0
M  V30 9025 C 877.02 -2.44575 1.74938 0
M  V30 9026 C 878.568 -2.58347 1.76708 0
M  V30 9027 C 879.043 -3.64078 2.77869 0
M  V30 9028 N 880.534 -3.71558 2.76585 0
M  V30 9029 C 881.269 -4.53016 3.51517 0
M  V30 9030 N 880.765 -5.38309 4.36114 0
M  V30 9031 N 882.558 -4.47512 3.40132 0
M  V30 9032 H 874.709 -0.885228 1.93074 0
M  V30 9033 H 876.972 -0.451075 0.833808 0
M  V30 9034 H 876.678 -2.1699 2.76782 0
M  V30 9035 H 876.552 -3.43503 1.55838 0
M  V30 9036 H 878.939 -2.85265 0.755516 0
M  V30 9037 H 879.02 -1.59628 1.99882 0
M  V30 9038 H 878.664 -3.37905 3.79187 0
M  V30 9039 H 878.594 -4.62412 2.51958 0
M  V30 9040 H 881.085 -3.10629 2.15216 0
M  V30 9041 H 881.398 -5.9754 4.90068 0
M  V30 9042 H 879.743 -5.37824 4.40194 0
M  V30 9043 H 882.934 -3.79912 2.73467 0
M  V30 9044 H 883.107 -5.10759 3.98784 0
M  V30 9045 N 876.513 -0.788492 -1.36457 0
M  V30 9046 C 877.461 -0.174192 -2.31947 0
M  V30 9047 C 878.455 0.665974 -1.5576 0
M  V30 9048 O 879.661 0.561161 -1.71029 0
M  V30 9049 H 876.036 -0.0375538 -0.751062 0
M  V30 9050 H 878.007 -0.995011 -2.81322 0
M  V30 9051 C 876.756 0.677276 -3.4104 0
M  V30 9052 H 876.079 0.0401418 -3.9978 0
M  V30 9053 H 877.519 1.07379 -4.10178 0
M  V30 9054 C 875.978 1.83512 -2.82533 0
M  V30 9055 O 876.508 2.93164 -2.74623 0
M  V30 9056 N 874.714 1.64095 -2.39836 0
M  V30 9057 H 874.261 0.749046 -2.46469 0
M  V30 9058 H 874.219 2.41726 -2.01037 0
M  V30 9059 N 877.991 1.48044 -0.54043 0
M  V30 9060 C 878.954 2.28273 0.205966 0
M  V30 9061 C 879.954 1.35983 0.858209 0
M  V30 9062 O 881.144 1.58776 0.716651 0
M  V30 9063 C 878.276 3.15174 1.29917 0
M  V30 9064 H 879.469 2.95727 -0.498555 0
M  V30 9065 H 877.022 1.53457 -0.296745 0
M  V30 9066 H 877.757 2.52374 2.03661 0
M  V30 9067 H 877.542 3.83074 0.836475 0
M  V30 9068 H 879.032 3.75666 1.82387 0
M  V30 9069 N 879.47 0.276058 1.55163 0
M  V30 9070 C 880.4 -0.604633 2.25536 0
M  V30 9071 C 881.381 -1.15813 1.24585 0
M  V30 9072 O 882.566 -1.1921 1.53306 0
M  V30 9073 C 879.696 -1.78836 2.97716 0
M  V30 9074 C 878.65 -1.36635 4.05604 0
M  V30 9075 C 877.976 -2.63325 4.65364 0
M  V30 9076 C 879.276 -0.515858 5.19746 0
M  V30 9077 H 880.97 -0.0177483 2.99395 0
M  V30 9078 H 878.516 -0.00709627 1.43998 0
M  V30 9079 H 880.469 -2.41036 3.45658 0
M  V30 9080 H 879.193 -2.40109 2.21394 0
M  V30 9081 H 877.852 -0.767541 3.58475 0
M  V30 9082 H 877.5 -3.22858 3.85709 0
M  V30 9083 H 877.2 -2.358 5.38212 0
M  V30 9084 H 878.724 -3.26372 5.16056 0
M  V30 9085 H 880.138 -1.04289 5.63735 0
M  V30 9086 H 878.535 -0.335449 5.99162 0
M  V30 9087 H 879.605 0.465137 4.82664 0
M  V30 9088 N 880.948 -1.576 0.00335426 0
M  V30 9089 C 882.176 -1.94996 -0.691685 0
M  V30 9090 C 882.591 -0.878405 -1.67121 0
M  V30 9091 O 881.948 0.142343 -1.81944 0
M  V30 9092 C 881.999 -3.32416 -1.42063 0
M  V30 9093 O 881.72 -4.35458 -0.48038 0
M  V30 9094 C 883.221 -3.84291 -2.20987 0
M  V30 9095 H 880.441 -0.642814 -0.192434 0
M  V30 9096 H 882.985 -2.04425 0.0554706 0
M  V30 9097 H 881.14 -3.24285 -2.11939 0
M  V30 9098 H 881.554 -5.14975 -0.995054 0
M  V30 9099 H 883.028 -4.82863 -2.67483 0
M  V30 9100 H 883.505 -3.17174 -3.03805 0
M  V30 9101 H 884.111 -3.95609 -1.56121 0
M  V30 9102 N 882.426 0.269451 -1.5528 0
M  V30 9103 C 883.837 0.840233 -1.66724 0
M  V30 9104 C 884.188 1.86909 -0.596621 0
M  V30 9105 O 883.313 2.14817 0.261246 0
M  V30 9106 C 883.908 1.5308 -3.02245 0
M  V30 9107 C 882.467 2.04957 -3.15705 0
M  V30 9108 C 881.614 0.892838 -2.62533 0
M  V30 9109 H 884.565 0.0457236 -1.58634 0
M  V30 9110 H 884.586 2.39792 -2.95432 0
M  V30 9111 H 884.098 0.781741 -3.80145 0
M  V30 9112 H 882.199 2.82813 -2.42585 0
M  V30 9113 H 882.312 2.26244 -4.22316 0
M  V30 9114 H 880.676 1.28719 -2.19781 0
M  V30 9115 H 881.459 0.157229 -3.4294 0
M  V30 9116 N 883.904 1.48273 0.534124 0
M  V30 9117 C 884.834 1.6538 1.64839 0
M  V30 9118 C 885.815 0.502741 1.62501 0
M  V30 9119 O 887 0.734799 1.79762 0
M  V30 9120 C 884.13 1.68949 3.03436 0
M  V30 9121 C 883.084 2.83513 3.20631 0
M  V30 9122 C 882.41 2.72169 4.60248 0
M  V30 9123 C 883.71 4.24858 3.03797 0
M  V30 9124 H 885.404 2.58663 1.50777 0
M  V30 9125 H 882.95 1.24479 0.723937 0
M  V30 9126 H 884.903 1.79505 3.81256 0
M  V30 9127 H 883.627 0.722415 3.1851 0
M  V30 9128 H 882.286 2.72505 2.45227 0
M  V30 9129 H 881.934 1.7344 4.72152 0
M  V30 9130 H 881.634 3.49042 4.72698 0
M  V30 9131 H 883.158 2.84687 5.40172 0
M  V30 9132 H 884.572 4.36721 3.71413 0
M  V30 9133 H 882.969 5.02697 3.27743 0
M  V30 9134 H 884.039 4.41611 2.0027 0
M  V30 9135 N 885.382 -0.782676 1.36792 0
M  V30 9136 C 886.61 -1.57162 1.34565 0
M  V30 9137 C 887.025 -1.88664 -0.0715501 0
M  V30 9138 O 886.382 -1.50633 -1.03033 0
M  V30 9139 C 886.433 -2.88854 2.1736 0
M  V30 9140 O 886.154 -2.58707 3.53557 0
M  V30 9141 C 887.655 -3.83132 2.2299 0
M  V30 9142 H 884.875 -0.487245 0.461338 0
M  V30 9143 H 887.419 -0.970905 1.79982 0
M  V30 9144 H 885.574 -3.45377 1.7548 0
M  V30 9145 H 885.988 -3.42961 3.96835 0
M  V30 9146 H 887.462 -4.72575 2.85266 0
M  V30 9147 H 887.939 -4.21472 1.23524 0
M  V30 9148 H 888.545 -3.32541 2.65135 0
M  V30 9149 N 886.86 -1.21182 -1.00761 0
M  V30 9150 C 888.271 -1.02652 -1.55947 0
M  V30 9151 C 888.622 0.414466 -1.91772 0
M  V30 9152 O 887.747 1.29727 -1.73204 0
M  V30 9153 C 888.342 -1.85713 -2.83366 0
M  V30 9154 C 886.901 -1.71523 -3.35048 0
M  V30 9155 C 886.048 -1.83087 -2.08265 0
M  V30 9156 H 888.999 -1.35242 -0.830379 0
M  V30 9157 H 889.02 -1.36583 -3.55141 0
M  V30 9158 H 888.532 -2.90584 -2.5726 0
M  V30 9159 H 886.633 -0.693257 -3.66094 0
M  V30 9160 H 886.746 -2.53333 -4.06644 0
M  V30 9161 H 885.11 -1.26367 -2.21141 0
M  V30 9162 H 885.893 -2.8946 -1.84575 0
M  V30 9163 N 888.338 1.20213 -1.01915 0
M  V30 9164 C 889.301 2.21307 -0.596327 0
M  V30 9165 C 890.301 1.57274 0.334879 0
M  V30 9166 O 891.491 1.73764 0.12322 0
M  V30 9167 C 888.623 3.40657 0.128808 0
M  V30 9168 H 889.816 2.60228 -1.49068 0
M  V30 9169 H 887.369 1.33721 -0.809226 0
M  V30 9170 H 888.104 3.07241 1.03796 0
M  V30 9171 H 887.889 3.88361 -0.540183 0
M  V30 9172 H 889.379 4.15564 0.411892 0
M  V30 9173 N 889.816 0.795718 1.36037 0
M  V30 9174 C 890.764 0.18649 2.31851 0
M  V30 9175 C 891.758 -0.657704 1.56111 0
M  V30 9176 O 892.964 -0.552083 1.71324 0
M  V30 9177 H 889.339 0.0415363 0.750852 0
M  V30 9178 H 891.31 1.00992 2.8079 0
M  V30 9179 C 890.059 -0.65918 3.41394 0
M  V30 9180 H 889.382 -0.01894 3.99796 0
M  V30 9181 H 890.822 -1.05202 4.10741 0
M  V30 9182 C 889.281 -1.82011 2.83502 0
M  V30 9183 O 889.811 -2.91703 2.76174 0
M  V30 9184 N 888.017 -1.62821 2.40703 0
M  V30 9185 H 887.564 -0.735965 2.46863 0
M  V30 9186 H 887.522 -2.40657 2.02316 0
M  V30 9187 N 891.294 -1.47756 0.548274 0
M  V30 9188 C 892.242 -2.3158 -0.217584 0
M  V30 9189 C 893.236 -1.42372 -0.917957 0
M  V30 9190 O 894.442 -1.59184 -0.840259 0
M  V30 9191 H 890.817 -0.74671 -0.0890388 0
M  V30 9192 H 892.788 -2.94032 0.508719 0
M  V30 9193 C 891.537 -3.24834 -1.24008 0
M  V30 9194 H 890.86 -3.93435 -0.710572 0
M  V30 9195 H 892.3 -3.86336 -1.74701 0
M  V30 9196 C 890.759 -2.47724 -2.2833 0
M  V30 9197 O 891.289 -2.21522 -3.35098 0
M  V30 9198 N 889.495 -2.08891 -2.02022 0
M  V30 9199 H 889.042 -2.30401 -1.1521 0
M  V30 9200 H 889 -1.57613 -2.7204 0
M  V30 9201 N 892.772 -0.284283 -1.55015 0
M  V30 9202 C 893.702 0.592663 -2.25853 0
M  V30 9203 C 894.683 1.15151 -1.25197 0
M  V30 9204 O 895.868 1.18395 -1.53936 0
M  V30 9205 C 892.998 1.77254 -2.98661 0
M  V30 9206 C 891.952 1.34482 -4.06323 0
M  V30 9207 C 891.278 2.60853 -4.66754 0
M  V30 9208 C 892.578 0.488288 -5.20013 0
M  V30 9209 H 894.272 0.00187041 -2.994 0
M  V30 9210 H 891.818 -0.000540402 -1.44 0
M  V30 9211 H 893.771 2.39199 -3.46932 0
M  V30 9212 H 892.495 2.38931 -2.22664 0
M  V30 9213 H 891.154 0.748519 -3.58877 0
M  V30 9214 H 890.802 3.20808 -3.87416 0
M  V30 9215 H 890.502 2.32942 -5.39455 0
M  V30 9216 H 892.026 3.23631 -5.1778 0
M  V30 9217 H 893.44 1.01298 -5.6428 0
M  V30 9218 H 891.837 0.303669 -5.99331 0
M  V30 9219 H 892.907 -0.490727 -4.8241 0
M  V30 9220 N 894.251 1.57596 -0.0117121 0
M  V30 9221 C 895.662 1.79033 0.529521 0
M  V30 9222 C 896.013 0.920299 1.73277 0
M  V30 9223 O 895.138 0.125934 2.16033 0
M  V30 9224 C 895.733 3.24695 0.967405 0
M  V30 9225 C 894.292 3.47188 1.45387 0
M  V30 9226 C 893.439 2.74245 0.410466 0
M  V30 9227 H 896.39 1.56908 -0.237836 0
M  V30 9228 H 896.411 3.33451 1.83278 0
M  V30 9229 H 895.923 3.87992 0.0914605 0
M  V30 9230 H 894.024 2.89121 2.35032 0
M  V30 9231 H 894.137 4.55886 1.47325 0
M  V30 9232 H 892.501 2.39209 0.874721 0
M  V30 9233 H 893.284 3.40248 -0.456713 0
M  V30 9234 N 895.729 -0.261212 1.5542 0
M  V30 9235 C 897.006 -1.01321 1.67312 0
M  V30 9236 C 897.386 -2.0388 0.547356 0
M  V30 9237 O 896.734 -2.24003 -0.451083 0
M  V30 9238 C 896.944 -1.65943 3.07024 0
M  V30 9239 C 898.292 -2.16666 3.65159 0
M  V30 9240 O 899.316 -1.75909 3.09733 0
M  V30 9241 O 898.175 -2.91455 4.62294 0
M  V30 9242 H 895.269 -0.470714 0.679968 0
M  V30 9243 H 897.815 -0.256133 1.67756 0
M  V30 9244 H 896.587 -0.916868 3.80407 0
M  V30 9245 H 896.21 -2.48308 3.1053 0
M  V30 9246 N 897.207 -1.48554 -0.526253 0
M  V30 9247 C 898.435 -1.60429 -1.30652 0
M  V30 9248 C 898.85 -0.265963 -1.86917 0
M  V30 9249 O 898.207 0.745262 -1.6659 0
M  V30 9250 C 898.258 -2.65377 -2.45473 0
M  V30 9251 O 897.979 -3.94017 -1.91527 0
M  V30 9252 C 899.48 -2.87726 -3.37237 0
M  V30 9253 H 896.7 -0.540817 -0.397187 0
M  V30 9254 H 899.244 -1.94409 -0.634461 0
M  V30 9255 H 897.399 -2.34246 -3.08557 0
M  V30 9256 H 897.813 -4.51623 -2.66715 0
M  V30 9257 H 899.287 -3.64951 -4.14144 0
M  V30 9258 H 899.764 -1.96688 -3.92696 0
M  V30 9259 H 900.37 -3.20176 -2.79942 0
M  V30 9260 N 898.685 0.775411 -1.37205 0
M  V30 9261 C 899.617 1.89761 -1.28544 0
M  V30 9262 C 900.63 1.61542 -0.201996 0
M  V30 9263 O 901.819 1.72528 -0.457848 0
M  V30 9264 C 898.919 3.24904 -0.963885 0
M  V30 9265 C 898.092 3.80796 -2.15205 0
M  V30 9266 C 897.151 4.94407 -1.80135 0
M  V30 9267 O 896.177 5.10185 -2.52388 0
M  V30 9268 N 897.379 5.75722 -0.743298 0
M  V30 9269 H 900.144 1.97708 -2.25237 0
M  V30 9270 H 897.705 0.954348 -1.30782 0
M  V30 9271 H 899.697 3.9842 -0.710182 0
M  V30 9272 H 898.267 3.12483 -0.085632 0
M  V30 9273 H 897.487 2.99101 -2.56773 0
M  V30 9274 H 898.775 4.1487 -2.94552 0
M  V30 9275 H 898.173 5.65518 -0.143655 0
M  V30 9276 H 896.73 6.4948 -0.549446 0
M  V30 9277 N 900.163 1.21714 1.00117 0
M  V30 9278 C 901.388 1.06357 1.78054 0
M  V30 9279 C 901.813 -0.382075 1.84179 0
M  V30 9280 O 901.171 -1.27575 1.28819 0
M  V30 9281 C 901.219 1.66982 3.19608 0
M  V30 9282 O 900.323 0.917892 4.02055 0
M  V30 9283 H 899.664 0.374074 0.548602 0
M  V30 9284 H 902.194 1.61338 1.25822 0
M  V30 9285 H 902.204 1.71363 3.70268 0
M  V30 9286 H 900.879 2.72185 3.14465 0
M  V30 9287 H 899.456 0.949473 3.6061 0
M  V30 9288 N 901.641 -1.19671 1.02551 0
M  V30 9289 C 902.866 -1.93774 0.739363 0
M  V30 9290 C 903.291 -1.74787 -0.695064 0
M  V30 9291 O 902.649 -1.04796 -1.47944 0
M  V30 9292 C 902.697 -3.43684 1.09149 0
M  V30 9293 O 901.801 -4.11874 0.208213 0
M  V30 9294 H 901.142 -0.605064 0.273484 0
M  V30 9295 H 903.672 -1.51846 1.37128 0
M  V30 9296 H 903.682 -3.94339 1.04695 0
M  V30 9297 H 902.357 -3.56826 2.13654 0
M  V30 9298 H 900.934 -3.716 0.311045 0
M  V30 9299 N 903.119 -0.802921 -1.35613 0
M  V30 9300 C 904.367 -0.380822 -1.9848 0
M  V30 9301 C 904.688 1.05464 -1.6402 0
M  V30 9302 O 903.958 1.72908 -0.920854 0
M  V30 9303 H 902.538 -0.137824 -0.734176 0
M  V30 9304 H 905.2 -1.02795 -1.65587 0
M  V30 9305 H 904.296 -0.483565 -3.08331 0
M  V30 9306 N 904.597 1.47463 -0.556102 0
M  V30 9307 C 906.008 1.86298 -0.122429 0
M  V30 9308 C 906.359 1.46285 1.30749 0
M  V30 9309 O 905.484 0.865405 1.98342 0
M  V30 9310 C 906.079 3.38115 -0.215407 0
M  V30 9311 C 904.638 3.76046 0.163223 0
M  V30 9312 C 903.785 2.71515 -0.563466 0
M  V30 9313 H 906.736 1.38996 -0.765888 0
M  V30 9314 H 906.757 3.76263 0.566271 0
M  V30 9315 H 906.269 3.67207 -1.25622 0
M  V30 9316 H 904.37 3.5257 1.20519 0
M  V30 9317 H 904.483 4.78705 -0.194568 0
M  V30 9318 H 902.847 2.54699 -0.00667879 0
M  V30 9319 H 903.63 3.03449 -1.60542 0
M  V30 9320 N 906.075 0.2925 1.54862 0
M  V30 9321 C 907.038 -0.574423 2.21885 0
M  V30 9322 C 908.038 -1.06791 1.20218 0
M  V30 9323 O 909.228 -0.9653 1.45009 0
M  V30 9324 C 906.36 -1.79438 2.89853 0
M  V30 9325 H 907.553 0.0110319 2.99898 0
M  V30 9326 H 905.106 0.043256 1.5624 0
M  V30 9327 H 905.841 -2.4199 2.15897 0
M  V30 9328 H 905.626 -1.44827 3.64373 0
M  V30 9329 H 907.116 -2.41048 3.41007 0
M  V30 9330 N 907.553 -1.57587 0.0200696 0
M  V30 9331 C 908.503 -2.0616 -0.973751 0
M  V30 9332 C 909.487 -0.960282 -1.29102 0
M  V30 9333 O 910.679 -1.22391 -1.27865 0
M  V30 9334 C 907.808 -2.58487 -2.25919 0
M  V30 9335 C 906.894 -3.75533 -1.97068 0
M  V30 9336 N 907.285 -4.86482 -1.38451 0
M  V30 9337 C 905.583 -3.83847 -2.27107 0
M  V30 9338 C 906.284 -5.67773 -1.26527 0
M  V30 9339 N 905.26 -5.14398 -1.75772 0
M  V30 9340 H 909.062 -2.89346 -0.515365 0
M  V30 9341 H 906.576 -1.61341 -0.185163 0
M  V30 9342 H 908.573 -2.91572 -2.97979 0
M  V30 9343 H 907.233 -1.76728 -2.72392 0
M  V30 9344 H 908.244 -5.06922 -1.06069 0
M  V30 9345 H 904.921 -3.12978 -2.76316 0
M  V30 9346 H 906.311 -6.66966 -0.812785 0
M  V30 9347 N 909.032 0.252966 -1.55557 0
M  V30 9348 C 910.257 1.0038 -1.8149 0
M  V30 9349 C 910.682 1.78397 -0.596318 0
M  V30 9350 O 910.04 1.7551 0.454535 0
M  V30 9351 C 910.088 1.9222 -3.05096 0
M  V30 9352 O 909.192 3.01302 -2.81587 0
M  V30 9353 H 908.533 0.285949 -0.599274 0
M  V30 9354 H 911.063 0.275795 -2.02733 0
M  V30 9355 H 911.073 2.338 -3.34368 0
M  V30 9356 H 909.748 1.34852 -3.93431 0
M  V30 9357 H 908.325 2.63894 -2.63466 0
M  V30 9358 N 910.51 1.48831 0.518367 0
M  V30 9359 C 911.457 1.64216 1.62178 0
M  V30 9360 C 912.427 0.483942 1.58894 0
M  V30 9361 O 913.612 0.708857 1.77144 0
M  V30 9362 C 910.752 1.69867 3.00399 0
M  V30 9363 C 909.865 2.96875 3.1383 0
M  V30 9364 C 909 2.93613 4.42679 0
M  V30 9365 C 908.039 4.15276 4.4968 0
M  V30 9366 N 907.176 4.10024 5.69934 0
M  V30 9367 H 912.016 2.58439 1.48368 0
M  V30 9368 H 909.553 1.28154 0.722152 0
M  V30 9369 H 911.511 1.71124 3.8049 0
M  V30 9370 H 910.141 0.791249 3.12952 0
M  V30 9371 H 909.193 3.0531 2.26914 0
M  V30 9372 H 910.505 3.86863 3.14863 0
M  V30 9373 H 909.659 2.93337 5.31073 0
M  V30 9374 H 908.398 2.01375 4.44184 0
M  V30 9375 H 907.403 4.15816 3.59691 0
M  V30 9376 H 908.628 5.08687 4.49904 0
M  V30 9377 H 906.574 3.20613 5.72314 0
M  V30 9378 H 906.491 4.93728 5.72511 0
M  V30 9379 H 907.759 4.13824 6.60583 0
M  V30 9380 N 911.988 -0.768124 1.37614 0
M  V30 9381 C 912.898 -1.91249 1.35871 0
M  V30 9382 C 913.914 -1.7208 0.257786 0
M  V30 9383 O 915.09 -1.95253 0.493782 0
M  V30 9384 C 912.155 -3.26423 1.16829 0
M  V30 9385 C 911.216 -3.5822 2.36594 0
M  V30 9386 C 910.449 -4.86945 2.1845 0
M  V30 9387 O 910.672 -5.58258 1.17064 0
M  V30 9388 O 909.606 -5.17888 3.06718 0
M  V30 9389 H 913.432 -1.95671 2.32264 0
M  V30 9390 H 911.017 -0.911382 1.18382 0
M  V30 9391 H 912.899 -4.07269 1.08212 0
M  V30 9392 H 911.574 -3.22845 0.235123 0
M  V30 9393 H 910.481 -2.77594 2.50783 0
M  V30 9394 H 911.814 -3.66545 3.2849 0
M  V30 9395 N 913.466 -1.22244 -0.994698 0
M  V30 9396 C 914.694 -1.07218 -1.76952 0
M  V30 9397 C 915.109 0.377388 -1.8499 0
M  V30 9398 O 914.466 1.26157 -1.31874 0
M  V30 9399 C 914.517 -1.67496 -3.20355 0
M  V30 9400 O 914.238 -3.06782 -3.12756 0
M  V30 9401 C 915.739 -1.57721 -4.14294 0
M  V30 9402 H 912.959 -0.375966 -0.555779 0
M  V30 9403 H 915.503 -1.61799 -1.25065 0
M  V30 9404 H 913.658 -1.16982 -3.69315 0
M  V30 9405 H 914.072 -3.35784 -4.02926 0
M  V30 9406 H 915.546 -2.04623 -5.12673 0
M  V30 9407 H 916.023 -0.533434 -4.35949 0
M  V30 9408 H 916.629 -2.07531 -3.71229 0
M  V30 9409 N 914.944 1.19125 -1.03184 0
M  V30 9410 C 916.355 1.70564 -0.759264 0
M  V30 9411 C 916.706 1.8248 0.720794 0
M  V30 9412 O 915.831 1.49804 1.56166 0
M  V30 9413 C 916.426 3.09793 -1.37163 0
M  V30 9414 C 914.985 3.5848 -1.14757 0
M  V30 9415 C 914.132 2.35265 -1.46784 0
M  V30 9416 H 917.083 1.03925 -1.19939 0
M  V30 9417 H 917.104 3.72624 -0.77015 0
M  V30 9418 H 916.616 3.01088 -2.44882 0
M  V30 9419 H 914.717 3.72494 -0.0887182 0
M  V30 9420 H 914.83 4.42426 -1.83836 0
M  V30 9421 H 913.194 2.38747 -0.887254 0
M  V30 9422 H 913.977 2.29188 -2.55593 0
M  V30 9423 N 916.422 0.810101 1.35185 0
M  V30 9424 C 917.385 0.22852 2.28058 0
M  V30 9425 C 918.385 -0.586168 1.49735 0
M  V30 9426 O 919.575 -0.40414 1.69447 0
M  V30 9427 C 916.707 -0.681041 3.34028 0
M  V30 9428 H 917.9 1.04768 2.81005 0
M  V30 9429 H 915.453 0.58101 1.451 0
M  V30 9430 H 916.188 -1.52375 2.86273 0
M  V30 9431 H 915.973 -0.0985276 3.91976 0
M  V30 9432 H 917.463 -1.08217 4.03335 0
M  V30 9433 N 917.9 -1.47166 0.563914 0
M  V30 9434 C 918.83 -2.32894 -0.168148 0
M  V30 9435 C 919.811 -1.44202 -0.902214 0
M  V30 9436 O 920.996 -1.73048 -0.881365 0
M  V30 9437 C 918.126 -3.26116 -1.19439 0
M  V30 9438 C 917.08 -4.24101 -0.576363 0
M  V30 9439 C 916.406 -5.06696 -1.70772 0
M  V30 9440 C 917.706 -5.20142 0.47425 0
M  V30 9441 H 919.4 -2.9435 0.547573 0
M  V30 9442 H 916.946 -1.41545 0.264778 0
M  V30 9443 H 918.899 -3.84935 -1.71474 0
M  V30 9444 H 917.623 -2.62728 -1.94014 0
M  V30 9445 H 916.282 -3.66519 -0.0772534 0
M  V30 9446 H 915.93 -4.39707 -2.44268 0
M  V30 9447 H 915.63 -5.7304 -1.29994 0
M  V30 9448 H 917.154 -5.68375 -2.2312 0
M  V30 9449 H 918.568 -5.73286 0.0397035 0
M  V30 9450 H 916.965 -5.94726 0.801287 0
M  V30 9451 H 918.035 -4.65214 1.36764 0
M  V30 9452 N 919.378 -0.300708 -1.54705 0
M  V30 9453 C 920.606 0.31127 -2.04545 0
M  V30 9454 C 921.021 1.47542 -1.178 0
M  V30 9455 O 920.378 1.81361 -0.203571 0
M  V30 9456 C 920.429 0.767783 -3.53253 0
M  V30 9457 O 920.15 -0.350027 -4.36699 0
M  V30 9458 C 921.651 1.44494 -4.1909 0
M  V30 9459 H 918.871 0.067668 -0.667579 0
M  V30 9460 H 921.415 -0.440254 -1.99705 0
M  V30 9461 H 919.57 1.46933 -3.58454 0
M  V30 9462 H 919.984 0.00534038 -5.245 0
M  V30 9463 H 921.458 1.71553 -5.24665 0
M  V30 9464 H 921.935 2.3849 -3.68808 0
M  V30 9465 H 922.541 0.786581 -4.17963 0
M  V30 9466 N 920.856 1.57574 -0.0284266 0
M  V30 9467 C 921.819 2.09096 0.938691 0
M  V30 9468 C 922.819 1.00588 1.25454 0
M  V30 9469 O 924.009 1.2675 1.19499 0
M  V30 9470 C 921.141 2.55624 2.25542 0
M  V30 9471 H 922.334 2.95829 0.49248 0
M  V30 9472 H 919.887 1.5475 0.219594 0
M  V30 9473 H 920.622 1.72218 2.74793 0
M  V30 9474 H 920.407 3.34896 2.03929 0
M  V30 9475 H 921.897 2.95712 2.94863 0
M  V30 9476 N 922.334 -0.244713 1.55689 0
M  V30 9477 C 923.58 -0.973886 1.77886 0
M  V30 9478 C 923.913 -1.8489 0.594071 0
M  V30 9479 O 923.188 -1.90182 -0.407564 0
M  V30 9480 C 923.471 -1.83255 3.09983 0
M  V30 9481 C 923.324 -0.985571 4.3887 0
M  V30 9482 C 924.643 -2.81464 3.38329 0
M  V30 9483 H 921.762 -0.352629 0.647165 0
M  V30 9484 H 924.404 -0.244243 1.88424 0
M  V30 9485 H 922.554 -2.45464 3.01131 0
M  V30 9486 H 924.226 -0.382005 4.59716 0
M  V30 9487 H 922.469 -0.29002 4.32829 0
M  V30 9488 H 923.14 -1.62022 5.27686 0
M  V30 9489 H 925.616 -2.2939 3.47159 0
M  V30 9490 H 924.492 -3.38663 4.31971 0
M  V30 9491 H 924.753 -3.58037 2.59349 0
M  V30 9492 N 923.813 -1.49104 -0.510467 0
M  V30 9493 C 924.723 -1.67792 -1.6396 0
M  V30 9494 C 925.739 -0.560454 -1.64727 0
M  V30 9495 O 926.915 -0.833985 -1.83321 0
M  V30 9496 C 923.98 -1.73154 -3.00364 0
M  V30 9497 C 923.041 -2.9667 -3.10299 0
M  V30 9498 C 922.274 -3.01767 -4.40196 0
M  V30 9499 O 922.497 -2.1472 -5.28443 0
M  V30 9500 O 921.431 -3.94137 -4.54906 0
M  V30 9501 H 925.257 -2.63428 -1.51126 0
M  V30 9502 H 922.842 -1.32734 -0.685719 0
M  V30 9503 H 924.724 -1.79089 -3.81451 0
M  V30 9504 H 923.399 -0.806952 -3.1348 0
M  V30 9505 H 922.306 -2.96257 -2.28435 0
M  V30 9506 H 923.639 -3.88578 -3.02106 0
M  V30 9507 N 925.291 0.760815 -1.38019 0
M  V30 9508 C 926.519 1.55001 -1.37048 0
M  V30 9509 C 926.934 1.88754 0.0415261 0
M  V30 9510 O 926.291 1.52254 1.00624 0
M  V30 9511 C 926.342 2.8536 -2.21928 0
M  V30 9512 O 926.063 2.53049 -3.57628 0
M  V30 9513 C 927.564 3.79536 -2.29057 0
M  V30 9514 H 924.784 0.479844 -0.469032 0
M  V30 9515 H 927.328 0.942148 -1.81504 0
M  V30 9516 H 925.483 3.42542 -1.80953 0
M  V30 9517 H 925.897 3.36604 -4.02241 0
M  V30 9518 H 927.371 4.67977 -2.92749 0
M  V30 9519 H 927.848 4.19453 -1.30213 0
M  V30 9520 H 928.454 3.28281 -2.70392 0
M  V30 9521 N 926.769 1.22769 0.988202 0
M  V30 9522 C 928.017 1.05301 1.725 0
M  V30 9523 C 928.338 -0.412103 1.90596 0
M  V30 9524 O 927.608 -1.29606 1.46898 0
M  V30 9525 H 926.188 0.386658 0.639144 0
M  V30 9526 H 928.85 1.54359 1.18993 0
M  V30 9527 H 927.946 1.53465 2.71763 0
M  V30 9528 N 928.247 -1.18576 1.03814 0
M  V30 9529 C 929.21 -2.2033 0.63146 0
M  V30 9530 C 930.21 -1.57787 -0.309816 0
M  V30 9531 O 931.4 -1.73938 -0.0955598 0
M  V30 9532 C 928.532 -3.40818 -0.0745963 0
M  V30 9533 H 929.725 -2.57824 1.53189 0
M  V30 9534 H 927.278 -1.32416 0.830398 0
M  V30 9535 H 928.013 -3.08853 -0.988947 0
M  V30 9536 H 927.798 -3.87453 0.6019 0
M  V30 9537 H 929.288 -4.16166 -0.345727 0
M  V30 9538 N 929.725 -0.817259 -1.34754 0
M  V30 9539 C 930.953 -0.415451 -2.02686 0
M  V30 9540 C 931.368 0.97688 -1.61563 0
M  V30 9541 O 930.725 1.63125 -0.818321 0
M  V30 9542 C 930.776 -0.501486 -3.58005 0
M  V30 9543 O 930.497 -1.83893 -3.97637 0
M  V30 9544 C 931.998 -0.0938504 -4.43201 0
M  V30 9545 H 929.218 -0.16742 -0.649778 0
M  V30 9546 H 931.762 -1.10384 -1.7215 0
M  V30 9547 H 929.917 0.138766 -3.87151 0
M  V30 9548 H 930.331 -1.8092 -4.92309 0
M  V30 9549 H 931.805 -0.205145 -5.51619 0
M  V30 9550 H 932.282 0.962011 -4.28535 0
M  V30 9551 H 932.888 -0.707677 -4.19371 0
M  V30 9552 N 931.203 1.46865 -0.571711 0
M  V30 9553 C 932.151 2.31897 0.180714 0
M  V30 9554 C 933.145 1.43815 0.895191 0
M  V30 9555 O 934.351 1.60501 0.814828 0
M  V30 9556 H 930.726 0.748032 0.077148 0
M  V30 9557 H 932.697 2.93185 -0.555432 0
M  V30 9558 C 931.446 3.26766 1.18824 0
M  V30 9559 H 930.769 3.94515 0.64789 0
M  V30 9560 H 932.209 3.89067 1.68532 0
M  V30 9561 C 930.668 2.51325 2.2436 0
M  V30 9562 O 931.198 2.26825 3.31532 0
M  V30 9563 N 929.404 2.12079 1.98673 0
M  V30 9564 H 928.951 2.32204 1.1153 0
M  V30 9565 H 928.909 1.61921 2.69498 0
M  V30 9566 N 932.681 0.308908 1.54543 0
M  V30 9567 C 934.092 -0.182144 1.85809 0
M  V30 9568 C 934.443 -1.52796 1.23076 0
M  V30 9569 O 933.568 -2.09775 0.531358 0
M  V30 9570 C 934.163 -0.337275 3.37117 0
M  V30 9571 C 932.722 -0.772545 3.68387 0
M  V30 9572 C 931.869 0.114451 2.77064 0
M  V30 9573 H 934.82 0.529671 1.496 0
M  V30 9574 H 934.841 -1.17058 3.62046 0
M  V30 9575 H 934.353 0.642382 3.82747 0
M  V30 9576 H 932.454 -1.76247 3.2828 0
M  V30 9577 H 932.567 -0.586453 4.75497 0
M  V30 9578 H 930.931 -0.407581 2.51418 0
M  V30 9579 H 931.714 1.09061 3.25516 0
M  V30 9580 N 934.159 -1.57557 0.0367827 0
M  V30 9581 C 935.089 -2.13712 -0.940719 0
M  V30 9582 C 936.07 -1.05515 -1.33419 0
M  V30 9583 O 937.255 -1.33385 -1.41146 0
M  V30 9584 C 934.385 -2.67043 -2.22048 0
M  V30 9585 C 933.339 -3.80096 -1.96752 0
M  V30 9586 C 932.665 -4.19886 -3.31059 0
M  V30 9587 C 933.965 -5.05848 -1.30058 0
M  V30 9588 H 935.659 -2.9564 -0.473033 0
M  V30 9589 H 933.205 -1.42214 -0.226089 0
M  V30 9590 H 935.158 -3.04964 -2.90818 0
M  V30 9591 H 933.882 -1.82287 -2.70996 0
M  V30 9592 H 932.541 -3.42625 -1.30398 0
M  V30 9593 H 932.189 -3.32101 -3.77781 0
M  V30 9594 H 931.889 -4.96073 -3.14937 0
M  V30 9595 H 933.413 -4.60395 -4.01084 0
M  V30 9596 H 934.827 -5.41306 -1.8884 0
M  V30 9597 H 933.224 -5.87084 -1.24309 0
M  V30 9598 H 934.294 -4.84122 -0.274591 0
M  V30 9599 N 935.637 0.236453 -1.55816 0
M  V30 9600 C 936.883 0.964439 -1.784 0
M  V30 9601 C 937.216 1.84573 -0.603868 0
M  V30 9602 O 936.491 1.90395 0.397473 0
M  V30 9603 C 936.774 1.81608 -3.10951 0
M  V30 9604 C 936.627 0.962283 -4.39386 0
M  V30 9605 C 937.946 2.79665 -3.39817 0
M  V30 9606 H 935.065 0.349192 -0.649026 0
M  V30 9607 H 937.707 0.234247 -1.8855 0
M  V30 9608 H 935.857 2.43864 -3.02428 0
M  V30 9609 H 937.529 0.35762 -4.59912 0
M  V30 9610 H 935.772 0.267062 -4.32977 0
M  V30 9611 H 936.443 1.59222 -5.28538 0
M  V30 9612 H 938.919 2.27546 -3.4837 0
M  V30 9613 H 937.795 3.36367 -4.33761 0
M  V30 9614 H 938.056 3.56657 -2.61244 0
M  V30 9615 N 937.115 1.49373 0.502552 0
M  V30 9616 C 938.526 1.52 1.0841 0
M  V30 9617 C 938.877 0.305317 1.9381 0
M  V30 9618 O 938.002 -0.585023 2.08342 0
M  V30 9619 C 938.597 2.75437 1.97281 0
M  V30 9620 C 937.156 2.80848 2.50602 0
M  V30 9621 C 936.303 2.45894 1.28186 0
M  V30 9622 H 939.254 1.56092 0.286533 0
M  V30 9623 H 939.275 2.55511 2.81947 0
M  V30 9624 H 938.787 3.63827 1.35098 0
M  V30 9625 H 936.888 1.96735 3.16427 0
M  V30 9626 H 937.001 3.82979 2.8786 0
M  V30 9627 H 935.365 1.97639 1.60657 0
M  V30 9628 H 936.148 3.36556 0.677139 0
M  V30 9629 N 938.594 -0.753485 1.38421 0
M  V30 9630 C 939.819 -1.54783 1.38047 0
M  V30 9631 C 940.244 -1.8808 -0.0276371 0
M  V30 9632 O 939.602 -1.5058 -1.00973 0
M  V30 9633 C 939.65 -2.82353 2.24297 0
M  V30 9634 O 938.754 -3.77509 1.66014 0
M  V30 9635 H 938.095 -0.468151 0.470883 0
M  V30 9636 H 940.625 -0.931144 1.82184 0
M  V30 9637 H 940.635 -3.31277 2.38159 0
M  V30 9638 H 939.31 -2.57449 3.26639 0
M  V30 9639 H 937.887 -3.36212 1.61294 0
M  V30 9640 N 940.072 -1.23292 -0.981677 0
M  V30 9641 C 941.349 -0.972514 -1.6971 0
M  V30 9642 C 941.729 0.509244 -2.04866 0
M  V30 9643 O 941.077 1.48013 -1.74082 0
M  V30 9644 C 941.287 -1.88144 -2.93943 0
M  V30 9645 C 942.635 -2.14416 -3.66485 0
M  V30 9646 O 943.659 -1.85684 -3.03974 0
M  V30 9647 O 942.518 -2.63139 -4.78978 0
M  V30 9648 H 939.612 -0.366673 -0.741269 0
M  V30 9649 H 942.158 -1.34328 -1.03701 0
M  V30 9650 H 940.93 -2.8832 -2.64551 0
M  V30 9651 H 940.553 -1.51296 -3.67689 0
M  V30 9652 N 941.55 1.18024 -1.04442 0
M  V30 9653 C 942.778 1.92032 -0.770161 0
M  V30 9654 C 943.193 1.76391 0.673181 0
M  V30 9655 O 942.55 1.09604 1.45922 0
M  V30 9656 C 942.601 3.43328 -1.13173 0
M  V30 9657 O 942.322 3.5848 -2.51841 0
M  V30 9658 C 943.823 4.34427 -0.882523 0
M  V30 9659 H 941.043 0.609518 -0.280586 0
M  V30 9660 H 943.587 1.49711 -1.39308 0
M  V30 9661 H 941.742 3.83423 -0.553704 0
M  V30 9662 H 942.156 4.52166 -2.65794 0
M  V30 9663 H 943.63 5.39123 -1.18533 0
M  V30 9664 H 944.107 4.3882 0.18257 0
M  V30 9665 H 944.713 4.00035 -1.44403 0
M  V30 9666 N 943.028 0.824394 1.34319 0
M  V30 9667 C 944.274 0.413779 1.98534 0
M  V30 9668 C 944.607 -1.02089 1.65201 0
M  V30 9669 O 943.882 -1.71129 0.924402 0
M  V30 9670 C 944.165 0.61801 3.54757 0
M  V30 9671 C 944.018 2.0989 3.97827 0
M  V30 9672 C 945.337 0.0549041 4.40066 0
M  V30 9673 H 942.456 0.151815 0.721194 0
M  V30 9674 H 945.098 1.03723 1.5919 0
M  V30 9675 H 943.248 0.0873107 3.88402 0
M  V30 9676 H 944.92 2.69335 3.74508 0
M  V30 9677 H 943.163 2.58881 3.48085 0
M  V30 9678 H 943.834 2.1926 5.06586 0
M  V30 9679 H 946.31 0.508348 4.12983 0
M  V30 9680 H 945.186 0.227595 5.48428 0
M  V30 9681 H 945.447 -1.04025 4.29687 0
M  V30 9682 N 944.506 -1.46559 0.579492 0
M  V30 9683 C 945.438 -2.28383 -0.19337 0
M  V30 9684 C 946.451 -1.38324 -0.858511 0
M  V30 9685 O 947.64 -1.62952 -0.728615 0
M  V30 9686 C 944.74 -3.13262 -1.29306 0
M  V30 9687 C 943.913 -4.31426 -0.720459 0
M  V30 9688 C 942.972 -4.97728 -1.70744 0
M  V30 9689 O 941.998 -5.55423 -1.24476 0
M  V30 9690 N 943.2 -4.94445 -3.04146 0
M  V30 9691 H 945.965 -2.95353 0.508611 0
M  V30 9692 H 943.526 -1.56436 0.417046 0
M  V30 9693 H 945.518 -3.54483 -1.95254 0
M  V30 9694 H 944.088 -2.48388 -1.89795 0
M  V30 9695 H 943.308 -3.94028 0.116398 0
M  V30 9696 H 944.596 -5.07808 -0.31763 0
M  V30 9697 H 943.994 -4.4881 -3.44363 0
M  V30 9698 H 942.551 -5.39616 -3.65592 0
M  V30 9699 N 945.984 -0.3171 -1.54377 0
M  V30 9700 C 947.212 0.289558 -2.04864 0
M  V30 9701 C 947.627 1.46284 -1.19359 0
M  V30 9702 O 946.984 1.81135 -0.222795 0
M  V30 9703 C 947.035 0.730273 -3.54047 0
M  V30 9704 O 946.756 -0.396325 -4.36304 0
M  V30 9705 C 948.257 1.40041 -4.20599 0
M  V30 9706 H 945.477 0.0605836 -0.668259 0
M  V30 9707 H 948.021 -0.461411 -1.99227 0
M  V30 9708 H 946.176 1.43123 -3.59992 0
M  V30 9709 H 946.59 -0.0502901 -5.24476 0
M  V30 9710 H 948.064 1.65979 -5.26455 0
M  V30 9711 H 948.541 2.34565 -3.71316 0
M  V30 9712 H 949.147 0.742206 -4.18774 0
M  V30 9713 N 947.462 1.57535 -0.0451378 0
M  V30 9714 C 948.878 1.56533 0.311373 0
M  V30 9715 C 949.078 1.05225 1.71843 0
M  V30 9716 O 948.134 0.706144 2.42425 0
M  V30 9717 C 949.447 3.00349 0.145348 0
M  V30 9718 C 950.995 3.12248 0.216908 0
M  V30 9719 C 951.47 4.57931 0.0794834 0
M  V30 9720 N 952.961 4.63 0.135954 0
M  V30 9721 C 953.696 5.73375 0.0536426 0
M  V30 9722 N 953.192 6.92753 -0.0806725 0
M  V30 9723 N 954.985 5.61995 0.108789 0
M  V30 9724 H 947.136 1.89211 -0.965044 0
M  V30 9725 H 949.399 0.871068 -0.374091 0
M  V30 9726 H 949.105 3.41898 -0.824533 0
M  V30 9727 H 948.979 3.66086 0.908903 0
M  V30 9728 H 951.366 2.70601 1.17726 0
M  V30 9729 H 951.447 2.49201 -0.577299 0
M  V30 9730 H 951.091 5.00262 -0.877516 0
M  V30 9731 H 951.021 5.18977 0.892758 0
M  V30 9732 H 953.512 3.77142 0.23926 0
M  V30 9733 H 953.825 7.7268 -0.136351 0
M  V30 9734 H 952.17 6.94904 -0.115675 0
M  V30 9735 H 955.361 4.67619 0.212235 0
M  V30 9736 H 955.534 6.47987 0.0411822 0
M  V30 9737 N 948.94 -0.228186 1.55939 0
M  V30 9738 C 949.89 -1.28607 1.88267 0
M  V30 9739 C 950.874 -1.42606 0.745139 0
M  V30 9740 O 952.066 -1.45533 1.00743 0
M  V30 9741 C 949.195 -2.63783 2.19712 0
M  V30 9742 C 948.281 -2.53712 3.3984 0
M  V30 9743 N 948.672 -2.13287 4.58631 0
M  V30 9744 C 946.97 -2.84686 3.43322 0
M  V30 9745 C 947.671 -2.14305 5.40785 0
M  V30 9746 N 946.647 -2.54536 4.80325 0
M  V30 9747 H 950.449 -0.964307 2.7763 0
M  V30 9748 H 947.963 -0.436769 1.56416 0
M  V30 9749 H 949.96 -3.40152 2.41044 0
M  V30 9750 H 948.62 -2.9681 1.31657 0
M  V30 9751 H 949.631 -1.84525 4.83912 0
M  V30 9752 H 946.308 -3.22129 2.65592 0
M  V30 9753 H 947.698 -1.85231 6.45863 0
M  V30 9754 N 950.418 -1.49637 -0.494624 0
M  V30 9755 C 951.664 -1.59681 -1.25019 0
M  V30 9756 C 951.997 -0.285511 -1.9209 0
M  V30 9757 O 951.272 0.711398 -1.81023 0
M  V30 9758 C 951.555 -2.76058 -2.31222 0
M  V30 9759 C 951.408 -4.17002 -1.68611 0
M  V30 9760 C 952.727 -2.88056 -3.32734 0
M  V30 9761 H 949.846 -0.581209 -0.453172 0
M  V30 9762 H 952.488 -1.81944 -0.547391 0
M  V30 9763 H 950.638 -2.57207 -2.91164 0
M  V30 9764 H 952.31 -4.47385 -1.12447 0
M  V30 9765 H 950.553 -4.22352 -0.989991 0
M  V30 9766 H 951.224 -4.94316 -2.45674 0
M  V30 9767 H 953.7 -3.05237 -2.82789 0
M  V30 9768 H 952.576 -3.71151 -4.04399 0
M  V30 9769 H 952.837 -1.97676 -3.95445 0
M  V30 9770 N 951.896 0.746133 -1.38819 0
M  V30 9771 C 953.145 1.50085 -1.34749 0
M  V30 9772 C 953.458 1.95516 0.0574786 0
M  V30 9773 O 954.664 2.70601 0.22073 0
M  V30 9774 C 953.12 2.71141 -2.36665 0
M  V30 9775 C 952.728 2.32706 -3.82821 0
M  V30 9776 C 954.472 3.49005 -2.41652 0
M  V30 9777 C 952.379 3.50418 -4.76405 0
M  V30 9778 H 951.309 0.563563 -0.500912 0
M  V30 9779 H 953.96 0.814951 -1.6441 0
M  V30 9780 H 952.342 3.4175 -2.00058 0
M  V30 9781 H 953.516 1.69715 -4.28408 0
M  V30 9782 H 951.831 1.67959 -3.81023 0
M  V30 9783 H 954.428 4.36541 -3.08766 0
M  V30 9784 H 954.771 3.90687 -1.43769 0
M  V30 9785 H 955.304 2.85416 -2.77097 0
M  V30 9786 H 952.043 3.13795 -5.75511 0
M  V30 9787 H 951.563 4.12426 -4.35505 0
M  V30 9788 H 953.242 4.16901 -4.94775 0
M  V30 9789 N 953.375 1.23811 0.975125 0
M  V30 9790 C 954.307 0.981779 2.07108 0
M  V30 9791 C 955.32 -0.0461211 1.62735 0
M  V30 9792 O 956.509 0.190039 1.77486 0
M  V30 9793 C 953.609 0.458364 3.35786 0
M  V30 9794 C 952.782 1.54767 4.09104 0
M  V30 9795 C 951.841 1.0282 5.16057 0
M  V30 9796 O 950.867 1.71831 5.42644 0
M  V30 9797 N 952.069 -0.141243 5.80328 0
M  V30 9798 H 954.834 1.92537 2.29673 0
M  V30 9799 H 952.395 1.1474 1.14221 0
M  V30 9800 H 954.387 0.0957686 4.04587 0
M  V30 9801 H 952.957 -0.390768 3.10148 0
M  V30 9802 H 952.177 2.08279 3.34684 0
M  V30 9803 H 953.465 2.28006 4.54853 0
M  V30 9804 H 952.863 -0.718382 5.6112 0
M  V30 9805 H 951.42 -0.445052 6.50279 0
M  V30 9806 N 954.853 -1.17469 1.05066 0
M  V30 9807 C 955.8 -2.21443 0.650512 0
M  V30 9808 C 956.77 -1.62441 -0.346702 0
M  V30 9809 O 957.955 -1.89305 -0.238404 0
M  V30 9810 C 955.095 -3.45087 0.0301014 0
M  V30 9811 C 954.208 -4.18385 1.07599 0
M  V30 9812 C 953.343 -5.29513 0.423038 0
M  V30 9813 C 952.382 -5.94596 1.45333 0
M  V30 9814 N 951.519 -6.97241 0.824623 0
M  V30 9815 H 956.359 -2.55025 1.54163 0
M  V30 9816 H 953.896 -1.25274 0.771032 0
M  V30 9817 H 955.854 -4.15754 -0.347032 0
M  V30 9818 H 954.484 -3.12093 -0.824481 0
M  V30 9819 H 953.536 -3.46446 1.57097 0
M  V30 9820 H 954.848 -4.62899 1.85813 0
M  V30 9821 H 954.002 -6.067 -0.00774975 0
M  V30 9822 H 952.741 -4.86129 -0.391092 0
M  V30 9823 H 951.746 -5.16142 1.89415 0
M  V30 9824 H 952.971 -6.40061 2.26934 0
M  V30 9825 H 950.917 -6.55993 0.0309804 0
M  V30 9826 H 950.834 -7.40059 1.54432 0
M  V30 9827 H 952.102 -7.78375 0.418567 0
M  V30 9828 N 956.331 -0.831506 -1.3388 0
M  V30 9829 C 957.747 -0.518349 -1.50948 0
M  V30 9830 C 957.947 0.955807 -1.77388 0
M  V30 9831 O 957.003 1.73993 -1.82983 0
M  V30 9832 C 958.316 -1.38531 -2.66889 0
M  V30 9833 C 959.864 -1.38332 -2.80772 0
M  V30 9834 C 960.339 -2.23497 -3.99766 0
M  V30 9835 N 961.83 -2.21167 -4.06988 0
M  V30 9836 C 962.565 -2.83805 -4.98239 0
M  V30 9837 N 962.061 -3.55468 -5.94655 0
M  V30 9838 N 963.854 -2.73314 -4.91178 0
M  V30 9839 H 956.005 -1.78588 -1.14978 0
M  V30 9840 H 958.268 -0.761508 -0.564633 0
M  V30 9841 H 957.974 -2.43255 -2.54007 0
M  V30 9842 H 957.848 -1.05611 -3.62114 0
M  V30 9843 H 960.235 -0.343832 -2.9309 0
M  V30 9844 H 960.316 -1.75256 -1.86331 0
M  V30 9845 H 959.96 -3.27501 -3.88208 0
M  V30 9846 H 959.89 -1.83919 -4.93438 0
M  V30 9847 H 962.381 -1.69046 -3.37982 0
M  V30 9848 H 962.694 -4.00487 -6.60931 0
M  V30 9849 H 961.039 -3.59575 -5.94753 0
M  V30 9850 H 964.23 -2.16897 -4.14817 0
M  V30 9851 H 964.403 -3.22416 -5.62096 0
M  V30 9852 N 957.809 1.4625 -0.587256 0
M  V30 9853 C 959.037 2.06744 -0.08033 0
M  V30 9854 C 959.452 1.43527 1.2266 0
M  V30 9855 O 958.809 0.542168 1.74261 0
M  V30 9856 C 958.86 3.61394 0.0873469 0
M  V30 9857 O 958.581 4.22247 -1.16785 0
M  V30 9858 C 960.082 4.38828 0.628095 0
M  V30 9859 H 957.302 0.668354 -0.0595301 0
M  V30 9860 H 959.846 1.87808 -0.809217 0
M  V30 9861 H 958.001 3.79742 0.766473 0
M  V30 9862 H 958.415 5.15176 -0.984565 0
M  V30 9863 H 959.889 5.47613 0.694583 0
M  V30 9864 H 960.366 4.07188 1.64606 0
M  V30 9865 H 960.972 4.25297 -0.0163115 0
M  V30 9866 N 959.287 0.325282 1.54207 0
M  V30 9867 C 960.703 -0.0273036 1.59577 0
M  V30 9868 C 960.903 -1.50329 1.34177 0
M  V30 9869 O 959.959 -2.25951 1.12705 0
M  V30 9870 C 961.272 0.392468 2.98128 0
M  V30 9871 C 962.82 0.343269 3.11112 0
M  V30 9872 C 963.295 0.738229 4.52011 0
M  V30 9873 N 964.786 0.691701 4.58006 0
M  V30 9874 C 965.521 0.969479 5.65145 0
M  V30 9875 N 965.017 1.31448 6.80216 0
M  V30 9876 N 966.81 0.894926 5.5493 0
M  V30 9877 H 958.961 1.28692 1.68974 0
M  V30 9878 H 961.224 0.523399 0.790416 0
M  V30 9879 H 960.93 1.42089 3.2172 0
M  V30 9880 H 960.804 -0.241651 3.76425 0
M  V30 9881 H 963.191 -0.675946 2.87254 0
M  V30 9882 H 963.272 1.01235 2.34915 0
M  V30 9883 H 962.916 1.75537 4.76602 0
M  V30 9884 H 962.846 0.0468226 5.26579 0
M  V30 9885 H 965.337 0.436975 3.75365 0
M  V30 9886 H 965.65 1.51177 7.57869 0
M  V30 9887 H 963.995 1.35276 6.81708 0
M  V30 9888 H 967.186 0.624876 4.6391 0
M  V30 9889 H 967.359 1.11476 6.38339 0
M  V30 9890 N 960.765 -1.57509 0.0534917 0
M  V30 9891 C 961.99 -1.97511 -0.632794 0
M  V30 9892 C 962.415 -0.930947 -1.63447 0
M  V30 9893 O 961.773 0.105558 -1.80992 0
M  V30 9894 C 961.821 -3.3658 -1.29407 0
M  V30 9895 O 960.925 -3.3467 -2.40977 0
M  V30 9896 H 960.266 -0.643349 -0.16431 0
M  V30 9897 H 962.796 -2.04232 0.12258 0
M  V30 9898 H 962.806 -3.73359 -1.64521 0
M  V30 9899 H 961.481 -4.12113 -0.559976 0
M  V30 9900 H 960.058 -3.09639 -2.07793 0
M  V30 9901 N 962.243 0.219913 -1.56058 0
M  V30 9902 C 963.153 1.29349 -1.95719 0
M  V30 9903 C 964.169 1.5119 -0.861248 0
M  V30 9904 O 965.345 1.64289 -1.16495 0
M  V30 9905 C 962.41 2.6229 -2.26726 0
M  V30 9906 C 961.471 2.48738 -3.49897 0
M  V30 9907 C 960.704 3.75339 -3.79416 0
M  V30 9908 O 960.927 4.78427 -3.10586 0
M  V30 9909 O 959.861 3.72352 -4.72903 0
M  V30 9910 H 963.687 0.986979 -2.87215 0
M  V30 9911 H 961.272 0.42291 -1.43289 0
M  V30 9912 H 963.154 3.408 -2.47857 0
M  V30 9913 H 961.829 2.92619 -1.38404 0
M  V30 9914 H 960.736 1.68422 -3.34043 0
M  V30 9915 H 962.069 2.23347 -4.38608 0
M  V30 9916 N 963.721 1.49897 0.486681 0
M  V30 9917 C 964.946 1.64106 1.26823 0
M  V30 9918 C 965.371 0.317967 1.85393 0
M  V30 9919 O 964.729 -0.71626 1.66551 0
M  V30 9920 C 964.777 2.72301 2.36399 0
M  V30 9921 O 963.881 2.32469 3.40634 0
M  V30 9922 H 963.222 0.548794 0.373793 0
M  V30 9923 H 965.752 1.96177 0.581017 0
M  V30 9924 H 965.762 2.94906 2.81948 0
M  V30 9925 H 964.437 3.68335 1.93137 0
M  V30 9926 H 963.014 2.20251 3.00905 0
M  V30 9927 N 965.199 -0.738761 1.39212 0
M  V30 9928 C 966.427 -1.52801 1.39497 0
M  V30 9929 C 966.842 -1.88797 -0.0114917 0
M  V30 9930 O 966.199 -1.53835 -0.981887 0
M  V30 9931 C 966.25 -2.81793 2.2644 0
M  V30 9932 O 965.971 -2.47328 3.61608 0
M  V30 9933 C 967.472 -3.75844 2.35067 0
M  V30 9934 H 964.692 -0.472322 0.476606 0
M  V30 9935 H 967.236 -0.913153 1.8298 0
M  V30 9936 H 965.391 -3.3962 1.8638 0
M  V30 9937 H 965.805 -3.30162 4.07545 0
M  V30 9938 H 967.279 -4.6326 3.00157 0
M  V30 9939 H 967.756 -4.17329 1.3687 0
M  V30 9940 H 968.362 -3.23937 2.75581 0
M  V30 9941 N 966.677 -1.24326 -0.968545 0
M  V30 9942 C 967.923 -1.08406 -1.71394 0
M  V30 9943 C 968.256 0.376353 -1.90518 0
M  V30 9944 O 967.531 1.27816 -1.46606 0
M  V30 9945 C 967.814 -1.82344 -3.1052 0
M  V30 9946 C 967.667 -3.3613 -2.98893 0
M  V30 9947 C 968.986 -1.59545 -4.10163 0
M  V30 9948 H 966.105 -0.395205 -0.622079 0
M  V30 9949 H 968.747 -1.52983 -1.12677 0
M  V30 9950 H 966.897 -1.44452 -3.60646 0
M  V30 9951 H 968.569 -3.83614 -2.56199 0
M  V30 9952 H 966.812 -3.64553 -2.35124 0
M  V30 9953 H 967.483 -3.83064 -3.97449 0
M  V30 9954 H 969.959 -1.92504 -3.68892 0
M  V30 9955 H 968.835 -2.13736 -5.05577 0
M  V30 9956 H 969.096 -0.533503 -4.38869 0
M  V30 9957 N 968.156 1.1691 -1.05688 0
M  V30 9958 C 969.066 2.24735 -0.67315 0
M  V30 9959 C 970.082 1.71252 0.308043 0
M  V30 9960 O 971.258 2.00772 0.158889 0
M  V30 9961 C 968.323 3.4665 -0.059026 0
M  V30 9962 C 967.384 4.15198 -1.0913 0
M  V30 9963 C 966.617 5.31292 -0.50639 0
M  V30 9964 O 966.84 5.663 0.682692 0
M  V30 9965 O 965.774 5.88923 -1.2431 0
M  V30 9966 H 969.6 2.59855 -1.57191 0
M  V30 9967 H 967.185 1.24306 -0.828751 0
M  V30 9968 H 969.067 4.20455 0.282018 0
M  V30 9969 H 967.742 3.13316 0.813304 0
M  V30 9970 H 966.649 3.43389 -1.48442 0
M  V30 9971 H 967.982 4.52571 -1.93495 0
M  V30 9972 N 969.634 0.838594 1.33437 0
M  V30 9973 C 970.859 0.446701 2.02532 0
M  V30 9974 C 971.284 -0.944275 1.62681 0
M  V30 9975 O 970.642 -1.61733 0.81927 0
M  V30 9976 C 970.69 0.574794 3.55989 0
M  V30 9977 O 969.794 -0.399063 4.10465 0
M  V30 9978 H 969.135 0.181637 0.638674 0
M  V30 9979 H 971.665 1.13335 1.70342 0
M  V30 9980 H 971.675 0.456339 4.0544 0
M  V30 9981 H 970.35 1.58921 3.8434 0
M  V30 9982 H 968.927 -0.238187 3.72139 0
M  V30 9983 N 971.112 -1.45937 0.595003 0
M  V30 9984 C 972.359 -2.0232 0.0853053 0
M  V30 9985 C 972.687 -1.465 -1.27937 0
M  V30 9986 O 971.942 -0.624767 -1.85459 0
M  V30 9987 C 972.241 -3.57396 -0.0173747 0
M  V30 9988 C 971.907 -4.32311 1.28131 0
M  V30 9989 C 970.569 -4.52496 1.63708 0
M  V30 9990 C 972.921 -4.75233 2.14017 0
M  V30 9991 C 970.249 -5.12857 2.84947 0
M  V30 9992 C 972.601 -5.36933 3.34493 0
M  V30 9993 C 971.265 -5.55343 3.70338 0
M  V30 9994 H 970.535 -0.740342 0.0312154 0
M  V30 9995 H 973.182 -1.75157 0.774103 0
M  V30 9996 H 971.487 -3.83766 -0.789371 0
M  V30 9997 H 973.184 -3.98713 -0.427699 0
M  V30 9998 H 969.774 -4.16905 0.994374 0
M  V30 9999 H 973.958 -4.59383 1.87833 0
M  V30 10000 H 969.214 -5.253 3.12841 0
M  V30 10001 H 973.388 -5.69147 4.01304 0
M  V30 10002 H 971.015 -6.01883 4.64371 0
M  V30 10003 N 972.59 -0.333456 -1.54032 0
M  V30 10004 C 973.837 0.266133 -2.00744 0
M  V30 10005 C 974.165 1.51361 -1.22148 0
M  V30 10006 O 973.42 1.93473 -0.294368 0
M  V30 10007 C 973.719 0.63565 -3.51702 0
M  V30 10008 C 973.385 -0.513786 -4.47963 0
M  V30 10009 C 972.047 -0.829253 -4.74001 0
M  V30 10010 C 974.399 -1.2854 -5.05101 0
M  V30 10011 C 971.727 -1.91888 -5.54433 0
M  V30 10012 C 974.079 -2.3652 -5.86721 0
M  V30 10013 C 972.743 -2.68637 -6.11057 0
M  V30 10014 H 972.013 0.097385 -0.734573 0
M  V30 10015 H 974.66 -0.459282 -1.85911 0
M  V30 10016 H 972.965 1.44163 -3.64313 0
M  V30 10017 H 974.662 1.11129 -3.85294 0
M  V30 10018 H 971.252 -0.25784 -4.27824 0
M  V30 10019 H 975.436 -1.05494 -4.84958 0
M  V30 10020 H 970.692 -2.17208 -5.71516 0
M  V30 10021 H 974.866 -2.96747 -6.30011 0
M  V30 10022 H 972.493 -3.53197 -6.73169 0
M  V30 10023 N 974.068 1.57479 -0.061844 0
M  V30 10024 C 975.031 2.1104 0.894127 0
M  V30 10025 C 976.031 1.03227 1.23292 0
M  V30 10026 O 977.221 1.29256 1.16784 0
M  V30 10027 C 974.353 2.6035 2.20069 0
M  V30 10028 H 975.546 2.96807 0.429619 0
M  V30 10029 H 973.099 1.55181 0.18672 0
M  V30 10030 H 973.834 1.78008 2.71079 0
M  V30 10031 H 973.619 3.39146 1.9678 0
M  V30 10032 H 975.109 3.019 2.88525 0
M  V30 10033 N 975.546 -0.211634 1.56173 0
M  V30 10034 C 976.962 -0.56177 1.49386 0
M  V30 10035 C 977.162 -1.86666 0.758813 0
M  V30 10036 O 976.218 -2.50681 0.302534 0
M  V30 10037 C 977.531 -0.631815 2.93987 0
M  V30 10038 C 979.079 -0.721773 3.04564 0
M  V30 10039 C 979.554 -0.823075 4.50544 0
M  V30 10040 N 981.045 -0.887038 4.54627 0
M  V30 10041 C 981.78 -0.985304 5.64871 0
M  V30 10042 N 981.276 -1.0469 6.84844 0
M  V30 10043 N 983.069 -1.02121 5.52746 0
M  V30 10044 H 975.22 0.64452 2.02385 0
M  V30 10045 H 977.483 0.227466 0.920306 0
M  V30 10046 H 977.189 0.257592 3.50755 0
M  V30 10047 H 977.063 -1.4921 3.46433 0
M  V30 10048 H 979.45 -1.60162 2.47855 0
M  V30 10049 H 979.531 0.164385 2.55271 0
M  V30 10050 H 979.175 0.0523511 5.07873 0
M  V30 10051 H 979.105 -1.72479 4.97552 0
M  V30 10052 H 981.596 -0.849352 3.68231 0
M  V30 10053 H 981.909 -1.12193 7.64613 0
M  V30 10054 H 980.254 -1.01586 6.87536 0
M  V30 10055 H 983.445 -0.969814 4.57943 0
M  V30 10056 H 983.618 -1.09434 6.38693 0
M  V30 10057 N 977.024 -1.50153 -0.478725 0
M  V30 10058 C 978.272 -1.60443 -1.22892 0
M  V30 10059 C 978.593 -0.303276 -1.92627 0
M  V30 10060 O 977.863 0.678798 -1.83764 0
M  V30 10061 H 976.443 -0.591205 -0.456602 0
M  V30 10062 H 979.105 -1.86893 -0.552905 0
M  V30 10063 H 978.201 -2.41175 -1.98094 0
M  V30 10064 N 978.502 0.731368 -1.39602 0
M  V30 10065 C 979.465 1.8271 -1.38383 0
M  V30 10066 C 980.465 1.58338 -0.280309 0
M  V30 10067 O 981.655 1.65671 -0.538402 0
M  V30 10068 C 978.787 3.20556 -1.16002 0
M  V30 10069 H 979.98 1.85193 -2.35889 0
M  V30 10070 H 977.533 0.935396 -1.2522 0
M  V30 10071 H 978.268 3.23732 -0.191927 0
M  V30 10072 H 978.053 3.39643 -1.9592 0
M  V30 10073 H 979.543 4.00612 -1.17899 0
M  V30 10074 N 979.98 1.24838 0.961938 0
M  V30 10075 C 981.22 1.10348 1.72054 0
M  V30 10076 C 981.584 -0.350775 1.88769 0
M  V30 10077 O 982.785 -0.617323 2.61615 0
M  V30 10078 C 981.056 1.82916 3.07045 0
M  V30 10079 S 982.615 1.84227 3.98253 0
M  V30 10080 H 979.433 0.394552 0.591481 0
M  V30 10081 H 982.035 1.58254 1.14786 0
M  V30 10082 H 980.739 2.87829 2.92545 0
M  V30 10083 H 980.27 1.35366 3.69377 0
M  V30 10084 H 982.285 0.914073 4.87708 0
M  V30 10085 N 981.458 -1.16348 1.06306 0
M  V30 10086 C 982.704 -1.87158 0.781007 0
M  V30 10087 C 983.037 -1.81499 -0.690784 0
M  V30 10088 O 982.312 -1.23074 -1.50609 0
M  V30 10089 C 982.595 -3.3672 1.27639 0
M  V30 10090 C 982.448 -3.51069 2.81194 0
M  V30 10091 C 983.767 -4.31122 0.884388 0
M  V30 10092 H 980.886 -0.679586 0.285187 0
M  V30 10093 H 983.528 -1.36756 1.31901 0
M  V30 10094 H 981.678 -3.79775 0.818715 0
M  V30 10095 H 983.35 -3.16952 3.35171 0
M  V30 10096 H 981.593 -2.92976 3.19918 0
M  V30 10097 H 982.264 -4.56105 3.10921 0
M  V30 10098 H 984.74 -3.95969 1.27858 0
M  V30 10099 H 983.616 -5.34279 1.25847 0
M  V30 10100 H 983.877 -4.41598 -0.210673 0
M  V30 10101 N 982.937 -0.845659 -1.3299 0
M  V30 10102 C 983.9 -0.288905 -2.27372 0
M  V30 10103 C 984.9 0.546263 -1.51237 0
M  V30 10104 O 986.09 0.359072 -1.70459 0
M  V30 10105 C 983.222 0.59224 -3.35716 0
M  V30 10106 H 984.415 -1.12181 -2.78128 0
M  V30 10107 H 981.968 -0.619276 -1.43508 0
M  V30 10108 H 982.703 1.44732 -2.90212 0
M  V30 10109 H 982.488 -0.00543255 -3.921 0
M  V30 10110 H 983.978 0.974848 -4.06062 0
M  V30 10111 N 984.415 1.45619 -0.602734 0
M  V30 10112 C 985.664 2.01483 -0.0936395 0
M  V30 10113 C 985.977 1.47753 1.28173 0
M  V30 10114 O 987.183 1.95562 1.88329 0
M  V30 10115 C 985.639 3.59711 -0.116738 0
M  V30 10116 C 985.247 4.22437 -1.49166 0
M  V30 10117 C 986.991 4.23157 0.337368 0
M  V30 10118 C 984.898 5.72803 -1.47141 0
M  V30 10119 H 983.828 0.753353 -0.0312382 0
M  V30 10120 H 986.479 1.67142 -0.757347 0
M  V30 10121 H 984.861 3.91218 0.613529 0
M  V30 10122 H 986.035 4.02511 -2.24325 0
M  V30 10123 H 984.35 3.71166 -1.88746 0
M  V30 10124 H 986.947 5.33407 0.371628 0
M  V30 10125 H 987.29 3.93491 1.35906 0
M  V30 10126 H 987.823 3.96349 -0.339474 0
M  V30 10127 H 984.562 6.07161 -2.47055 0
M  V30 10128 H 984.082 5.94936 -0.762329 0
M  V30 10129 H 985.761 6.35907 -1.19294 0
M  V30 10130 N 985.893 0.34162 1.53853 0
M  V30 10131 C 987.142 -0.256475 2.00063 0
M  V30 10132 C 987.455 -1.51811 1.23341 0
M  V30 10133 O 988.661 -2.19332 1.60017 0
M  V30 10134 C 987.117 -0.507567 3.56303 0
M  V30 10135 C 986.725 0.738052 4.41879 0
M  V30 10136 C 988.469 -1.06463 4.10933 0
M  V30 10137 C 986.376 0.457865 5.89625 0
M  V30 10138 H 985.306 -0.0996143 0.747391 0
M  V30 10139 H 987.957 0.456649 1.77727 0
M  V30 10140 H 986.339 -1.28134 3.74697 0
M  V30 10141 H 987.513 1.51278 4.3526 0
M  V30 10142 H 985.828 1.21661 3.98231 0
M  V30 10143 H 988.425 -1.28918 5.18926 0
M  V30 10144 H 988.768 -2.01956 3.64032 0
M  V30 10145 H 989.301 -0.351601 3.96243 0
M  V30 10146 H 986.04 1.38247 6.40756 0
M  V30 10147 H 985.56 -0.278818 5.99152 0
M  V30 10148 H 987.239 0.0743914 6.46957 0
M  V30 10149 N 987.371 -1.57444 0.0701946 0
M  V30 10150 C 988.281 -2.16132 -0.912377 0
M  V30 10151 C 989.297 -1.12406 -1.32819 0
M  V30 10152 O 990.473 -1.44665 -1.40121 0
M  V30 10153 C 987.538 -2.71008 -2.16231 0
M  V30 10154 C 986.599 -3.896 -1.80306 0
M  V30 10155 C 985.832 -4.4185 -2.9934 0
M  V30 10156 O 986.055 -3.93106 -4.13309 0
M  V30 10157 O 984.989 -5.33201 -2.7925 0
M  V30 10158 H 988.815 -3.00449 -0.443167 0
M  V30 10159 H 986.4 -1.48617 -0.152786 0
M  V30 10160 H 988.282 -3.06186 -2.8953 0
M  V30 10161 H 986.957 -1.8975 -2.62253 0
M  V30 10162 H 985.864 -3.59277 -1.04264 0
M  V30 10163 H 987.197 -4.72145 -1.39068 0
M  V30 10164 N 988.849 0.203349 -1.56283 0
M  V30 10165 C 990.095 0.926381 -1.80405 0
M  V30 10166 C 990.428 1.8325 -0.642883 0
M  V30 10167 O 989.703 1.91196 0.356998 0
M  V30 10168 C 989.986 1.74972 -3.14733 0
M  V30 10169 C 989.839 0.868866 -4.41328 0
M  V30 10170 C 991.158 2.72394 -3.45672 0
M  V30 10171 H 988.277 0.335346 -0.656286 0
M  V30 10172 H 990.919 0.1942 -1.89005 0
M  V30 10173 H 989.069 2.37394 -3.07533 0
M  V30 10174 H 990.741 0.259986 -4.60567 0
M  V30 10175 H 988.984 0.175161 -4.33446 0
M  V30 10176 H 989.655 1.47975 -5.31796 0
M  V30 10177 H 992.131 2.20105 -3.53119 0
M  V30 10178 H 991.007 3.27091 -4.40798 0
M  V30 10179 H 991.268 3.51035 -2.6875 0
M  V30 10180 N 990.327 1.50405 0.470755 0
M  V30 10181 C 991.604 1.51929 1.23195 0
M  V30 10182 C 991.984 0.264159 2.09441 0
M  V30 10183 O 991.332 -0.752395 2.15757 0
M  V30 10184 C 991.542 2.81521 2.06269 0
M  V30 10185 C 992.89 3.32195 2.64446 0
M  V30 10186 O 993.914 2.82845 2.16511 0
M  V30 10187 O 992.773 4.18221 3.51786 0
M  V30 10188 H 989.867 0.609411 0.559059 0
M  V30 10189 H 992.413 1.62695 0.482549 0
M  V30 10190 H 991.185 3.64346 1.42715 0
M  V30 10191 H 990.808 2.7376 2.88342 0
M  V30 10192 N 991.805 -0.723954 1.39988 0
M  V30 10193 C 992.753 -1.85938 1.39749 0
M  V30 10194 C 993.747 -1.67085 0.279112 0
M  V30 10195 O 994.953 -1.74291 0.44972 0
M  V30 10196 H 991.328 -0.612246 0.436644 0
M  V30 10197 H 993.299 -1.83255 2.355 0
M  V30 10198 C 992.048 -3.23726 1.26874 0
M  V30 10199 H 991.371 -3.38835 2.12206 0
M  V30 10200 H 992.811 -4.03332 1.30765 0
M  V30 10201 C 991.27 -3.36893 -0.0218317 0
M  V30 10202 O 991.8 -3.89363 -0.987905 0
M  V30 10203 N 990.006 -2.90465 -0.0885618 0
M  V30 10204 H 989.553 -2.47954 0.698314 0
M  V30 10205 H 989.511 -2.99654 -0.951557 0
M  V30 10206 N 993.283 -1.25346 -0.955304 0
M  V30 10207 C 994.56 -1.00829 -1.67609 0
M  V30 10208 C 994.94 0.465675 -2.059 0
M  V30 10209 O 994.288 1.44287 -1.77182 0
M  V30 10210 C 994.498 -1.94337 -2.89886 0
M  V30 10211 C 995.846 -2.22142 -3.61854 0
M  V30 10212 O 996.87 -1.9209 -2.99967 0
M  V30 10213 O 995.729 -2.73239 -4.73289 0
M  V30 10214 H 992.823 -0.382314 -0.733325 0
M  V30 10215 H 995.369 -1.36498 -1.00829 0
M  V30 10216 H 994.141 -2.93867 -2.58376 0
M  V30 10217 H 993.764 -1.59062 -3.64397 0
M  V30 10218 N 994.761 1.15782 -1.06922 0
M  V30 10219 C 995.724 2.18578 -0.689654 0
M  V30 10220 C 996.724 1.58553 0.267872 0
M  V30 10221 O 997.914 1.7413 0.0494097 0
M  V30 10222 C 995.046 3.40896 -0.0157919 0
M  V30 10223 H 996.239 2.53672 -1.59971 0
M  V30 10224 H 993.792 1.30168 -0.865214 0
M  V30 10225 H 994.527 3.11367 0.906712 0
M  V30 10226 H 994.312 3.85721 -0.704415 0
M  V30 10227 H 995.802 4.16937 0.235266 0
M  V30 10228 N 996.239 0.8527 1.3254 0
M  V30 10229 C 997.65 0.510012 1.79599 0
M  V30 10230 C 998.001 -0.972002 1.70431 0
M  V30 10231 O 997.126 -1.7581 1.26173 0
M  V30 10232 C 997.721 0.918986 3.26098 0
M  V30 10233 C 996.28 0.628227 3.7112 0
M  V30 10234 C 995.427 1.11979 2.53685 0
M  V30 10235 H 998.378 1.04009 1.19866 0
M  V30 10236 H 998.399 0.234577 3.79776 0
M  V30 10237 H 997.911 1.99765 3.32739 0
M  V30 10238 H 996.012 -0.4398 3.69995 0
M  V30 10239 H 996.125 1.19315 4.64005 0
M  V30 10240 H 994.489 0.540133 2.48907 0
M  V30 10241 H 995.272 2.20552 2.63081 0
M  V30 10242 N 997.718 -1.45297 0.610449 0
M  V30 10243 C 998.946 -2.0659 0.113211 0
M  V30 10244 C 999.361 -1.4546 -1.20361 0
M  V30 10245 O 998.718 -0.569823 -1.73376 0
M  V30 10246 C 998.769 -3.61488 -0.0298411 0
M  V30 10247 O 998.49 -4.20336 1.23488 0
M  V30 10248 C 999.991 -4.39772 -0.558202 0
M  V30 10249 H 997.211 -0.667322 0.0701555 0
M  V30 10250 H 999.755 -1.86497 0.838993 0
M  V30 10251 H 997.91 -3.80913 -0.705963 0
M  V30 10252 H 998.324 -5.13545 1.0664 0
M  V30 10253 H 999.798 -5.48648 -0.607375 0
M  V30 10254 H 1000.27 -4.09755 -1.58107 0
M  V30 10255 H 1000.88 -4.25217 0.0839704 0
M  V30 10256 N 999.196 -0.349774 -1.5367 0
M  V30 10257 C 1000.14 0.504121 -2.25227 0
M  V30 10258 C 1001.11 1.09048 -1.2529 0
M  V30 10259 O 1002.3 1.12594 -1.54037 0
M  V30 10260 C 999.438 1.64601 -3.03316 0
M  V30 10261 C 998.551 1.08635 -4.18118 0
M  V30 10262 C 997.686 2.19605 -4.83681 0
M  V30 10263 C 996.725 1.61023 -5.90541 0
M  V30 10264 N 995.862 2.6576 -6.49858 0
M  V30 10265 H 1000.7 -0.112621 -2.97787 0
M  V30 10266 H 998.239 -0.0673503 -1.46946 0
M  V30 10267 H 1000.2 2.31836 -3.46854 0
M  V30 10268 H 998.827 2.23364 -2.33041 0
M  V30 10269 H 997.879 0.304748 -3.79177 0
M  V30 10270 H 999.191 0.617911 -4.94958 0
M  V30 10271 H 998.345 2.94693 -5.30322 0
M  V30 10272 H 997.084 2.69795 -4.06278 0
M  V30 10273 H 996.089 0.844428 -5.43277 0
M  V30 10274 H 997.314 1.11677 -6.69855 0
M  V30 10275 H 995.26 3.15193 -5.75317 0
M  V30 10276 H 995.177 2.23557 -7.2219 0
M  V30 10277 H 996.445 3.40598 -7.01151 0
M  V30 10278 N 1000.67 1.57404 -0.0785433 0
M  V30 10279 C 1002.09 1.57158 0.2781 0
M  V30 10280 C 1002.29 1.08847 1.69572 0
M  V30 10281 O 1001.35 0.757407 2.40873 0
M  V30 10282 C 1002.66 3.00589 0.0816067 0
M  V30 10283 C 1004.21 3.12637 0.150627 0
M  V30 10284 C 1004.68 4.57997 -0.0176685 0
M  V30 10285 N 1006.17 4.63185 0.0377145 0
M  V30 10286 C 1006.91 5.7336 -0.0679907 0
M  V30 10287 N 1006.4 6.92426 -0.227598 0
M  V30 10288 N 1008.2 5.62099 -0.0104424 0
M  V30 10289 H 1000.35 1.87121 -1.00496 0
M  V30 10290 H 1002.61 0.862937 -0.392484 0
M  V30 10291 H 1002.32 3.40072 -0.896869 0
M  V30 10292 H 1002.19 3.67931 0.831046 0
M  V30 10293 H 1004.58 2.73037 1.11959 0
M  V30 10294 H 1004.66 2.4792 -0.630028 0
M  V30 10295 H 1004.3 4.98288 -0.983431 0
M  V30 10296 H 1004.23 5.20754 0.782475 0
M  V30 10297 H 1006.72 3.77564 0.159208 0
M  V30 10298 H 1007.04 7.72217 -0.300217 0
M  V30 10299 H 1005.38 6.94502 -0.263049 0
M  V30 10300 H 1008.57 4.67964 0.112999 0
M  V30 10301 H 1008.75 6.47928 -0.0962747 0
M  V30 10302 N 1002.15 -0.195058 1.56388 0
M  V30 10303 C 1003.11 -1.2254 1.93692 0
M  V30 10304 C 1004.11 -1.38437 0.81804 0
M  V30 10305 O 1005.3 -1.36248 1.08545 0
M  V30 10306 C 1002.44 -2.59476 2.21099 0
M  V30 10307 H 1003.63 -0.906544 2.8587 0
M  V30 10308 H 1001.18 -0.436577 1.50079 0
M  V30 10309 H 1001.92 -2.96417 1.31558 0
M  V30 10310 H 1001.7 -2.4931 3.02634 0
M  V30 10311 H 1003.19 -3.33777 2.50964 0
M  V30 10312 N 1003.63 -1.50653 -0.462772 0
M  V30 10313 C 1004.85 -1.66103 -1.24196 0
M  V30 10314 C 1005.28 -0.347421 -1.84864 0
M  V30 10315 O 1004.64 0.689673 -1.6767 0
M  V30 10316 C 1004.69 -2.76027 -2.32037 0
M  V30 10317 O 1003.79 -2.37859 -3.36893 0
M  V30 10318 H 1003.13 -0.554672 -0.365014 0
M  V30 10319 H 1005.66 -1.97076 -0.549734 0
M  V30 10320 H 1005.67 -2.99354 -2.77221 0
M  V30 10321 H 1004.35 -3.71361 -1.87253 0
M  V30 10322 H 1002.92 -2.2501 -2.97363 0
M  V30 10323 N 1005.11 0.71652 -1.4037 0
M  V30 10324 C 1006.06 1.8306 -1.40562 0
M  V30 10325 C 1007.03 1.64009 -0.262697 0
M  V30 10326 O 1008.21 1.85157 -0.460619 0
M  V30 10327 C 1005.35 3.2076 -1.27307 0
M  V30 10328 C 1004.46 3.51389 -2.51296 0
M  V30 10329 C 1003.6 4.78589 -2.30491 0
M  V30 10330 C 1002.64 5.02119 -3.50061 0
M  V30 10331 N 1001.77 6.20533 -3.28457 0
M  V30 10332 H 1006.61 1.82231 -2.35788 0
M  V30 10333 H 1004.15 0.890198 -1.17106 0
M  V30 10334 H 1006.11 4.00274 -1.17628 0
M  V30 10335 H 1004.74 3.2082 -0.357005 0
M  V30 10336 H 1003.79 2.66436 -2.71507 0
M  V30 10337 H 1005.1 3.64686 -3.40302 0
M  V30 10338 H 1004.26 5.66119 -2.1816 0
M  V30 10339 H 1003 4.67499 -1.38909 0
M  V30 10340 H 1002 4.13044 -3.6287 0
M  V30 10341 H 1003.23 5.15082 -4.42569 0
M  V30 10342 H 1001.17 6.10695 -2.39556 0
M  V30 10343 H 1001.09 6.34502 -4.11027 0
M  V30 10344 H 1002.36 7.10853 -3.19857 0
M  V30 10345 N 1006.59 1.25851 0.948643 0
M  V30 10346 C 1007.52 1.09248 2.06367 0
M  V30 10347 C 1008.5 -0.000205168 1.701 0
M  V30 10348 O 1009.68 0.170442 1.93451 0
M  V30 10349 C 1006.81 0.716777 3.39823 0
M  V30 10350 C 1005.77 1.76036 3.90122 0
M  V30 10351 C 1005.09 1.23918 5.20143 0
M  V30 10352 C 1006.39 3.16039 4.15833 0
M  V30 10353 H 1008.09 2.02518 2.20515 0
M  V30 10354 H 1005.63 0.975093 1.05962 0
M  V30 10355 H 1007.59 0.587531 4.17284 0
M  V30 10356 H 1006.31 -0.251626 3.25629 0
M  V30 10357 H 1004.97 1.87815 3.14835 0
M  V30 10358 H 1004.62 0.260836 5.02323 0
M  V30 10359 H 1004.32 1.93673 5.54765 0
M  V30 10360 H 1005.84 1.12245 6.00194 0
M  V30 10361 H 1007.25 3.0738 4.83933 0
M  V30 10362 H 1005.65 3.83317 4.61723 0
M  V30 10363 H 1006.72 3.62652 3.21887 0
M  V30 10364 N 1008.06 -1.15214 1.07534 0
M  V30 10365 C 1009.31 -1.86043 0.799629 0
M  V30 10366 C 1009.64 -1.82435 -0.674356 0
M  V30 10367 O 1008.89 -1.24379 -1.51091 0
M  V30 10368 C 1009.19 -3.34623 1.25547 0
M  V30 10369 C 1008.86 -3.58425 2.73573 0
M  V30 10370 C 1007.52 -3.6463 3.14004 0
M  V30 10371 C 1009.87 -3.67977 3.6911 0
M  V30 10372 C 1007.2 -3.779 4.48786 0
M  V30 10373 C 1009.55 -3.82771 5.03656 0
M  V30 10374 C 1008.22 -3.87222 5.43705 0
M  V30 10375 H 1007.49 -0.680781 0.292605 0
M  V30 10376 H 1010.13 -1.36149 1.34669 0
M  V30 10377 H 1008.44 -3.86737 0.627828 0
M  V30 10378 H 1010.14 -3.87836 1.01901 0
M  V30 10379 H 1006.73 -3.54238 2.41275 0
M  V30 10380 H 1010.91 -3.62482 3.39 0
M  V30 10381 H 1006.17 -3.79604 4.79281 0
M  V30 10382 H 1010.34 -3.89104 5.77556 0
M  V30 10383 H 1007.97 -3.97256 6.48145 0
M  V30 10384 N 1009.54 -0.859717 -1.32086 0
M  V30 10385 C 1010.77 -0.478865 -2.01796 0
M  V30 10386 C 1011.19 0.918274 -1.64163 0
M  V30 10387 O 1010.55 1.60409 -0.844896 0
M  V30 10388 C 1010.6 -0.631356 -3.5503 0
M  V30 10389 O 1009.7 0.333712 -4.11048 0
M  V30 10390 H 1009.04 -0.191775 -0.635703 0
M  V30 10391 H 1011.57 -1.16031 -1.68517 0
M  V30 10392 H 1011.58 -0.520783 -4.04663 0
M  V30 10393 H 1010.26 -1.65015 -3.81763 0
M  V30 10394 H 1008.84 0.178953 -3.7247 0
M  V30 10395 N 1011.02 1.44971 -0.618145 0
M  V30 10396 C 1012.27 2.02458 -0.117656 0
M  V30 10397 C 1012.6 1.48413 1.25248 0
M  V30 10398 O 1011.87 0.662997 1.82851 0
M  V30 10399 C 1012.16 3.59987 -0.0901897 0
M  V30 10400 C 1012.01 4.24343 -1.49175 0
M  V30 10401 C 1013.33 4.36099 0.592121 0
M  V30 10402 H 1010.45 0.735672 -0.0442291 0
M  V30 10403 H 1013.09 1.727 -0.792138 0
M  V30 10404 H 1011.24 3.85471 0.484175 0
M  V30 10405 H 1012.91 4.10009 -2.114 0
M  V30 10406 H 1011.16 3.82337 -2.04941 0
M  V30 10407 H 1011.83 5.33298 -1.42468 0
M  V30 10408 H 1014.3 4.1597 0.103813 0
M  V30 10409 H 1013.18 5.45822 0.580481 0
M  V30 10410 H 1013.44 4.09746 1.66015 0
M  V30 10411 N 1012.5 0.357919 1.53482 0
M  V30 10412 C 1013.74 -0.22712 2.02128 0
M  V30 10413 C 1014.1 -1.47044 1.2408 0
M  V30 10414 O 1013.39 -1.88841 0.323966 0
M  V30 10415 C 1013.59 -0.579617 3.52669 0
M  V30 10416 C 1013.42 0.627992 4.45294 0
M  V30 10417 C 1012.19 1.13772 4.92325 0
M  V30 10418 C 1014.38 1.49087 4.92217 0
M  V30 10419 N 1012.37 2.30615 5.68937 0
M  V30 10420 C 1013.74 2.50604 5.67096 0
M  V30 10421 C 1015.79 1.51464 4.74303 0
M  V30 10422 C 1014.49 3.54346 6.25964 0
M  V30 10423 C 1016.52 2.54095 5.34032 0
M  V30 10424 C 1015.88 3.54337 6.0879 0
M  V30 10425 H 1011.98 -0.0460295 0.780644 0
M  V30 10426 H 1014.57 0.500733 1.88151 0
M  V30 10427 H 1012.74 -1.27656 3.66822 0
M  V30 10428 H 1014.47 -1.14908 3.88044 0
M  V30 10429 H 1011.22 0.703546 4.68345 0
M  V30 10430 H 1011.65 2.8965 6.11909 0
M  V30 10431 H 1016.29 0.753213 4.16037 0
M  V30 10432 H 1014.01 4.31375 6.83331 0
M  V30 10433 H 1017.59 2.56779 5.22069 0
M  V30 10434 H 1016.47 4.32449 6.54184 0
M  V30 10435 N 1013.98 -1.5736 0.0868897 0
M  V30 10436 C 1014.92 -2.13571 -0.874996 0
M  V30 10437 C 1015.89 -1.0521 -1.2853 0
M  V30 10438 O 1017.08 -1.32954 -1.3685 0
M  V30 10439 C 1014.22 -2.71386 -2.13175 0
M  V30 10440 C 1013.33 -3.93953 -1.77272 0
M  V30 10441 C 1012.47 -4.3996 -2.97671 0
M  V30 10442 C 1011.51 -5.55137 -2.57856 0
M  V30 10443 N 1010.64 -5.96034 -3.71064 0
M  V30 10444 H 1015.48 -2.95453 -0.388789 0
M  V30 10445 H 1013.02 -1.45992 -0.180242 0
M  V30 10446 H 1014.98 -3.03022 -2.86764 0
M  V30 10447 H 1013.61 -1.92245 -2.5931 0
M  V30 10448 H 1012.66 -3.68683 -0.936845 0
M  V30 10449 H 1013.97 -4.77565 -1.43989 0
M  V30 10450 H 1013.13 -4.73337 -3.79522 0
M  V30 10451 H 1011.86 -3.55232 -3.34158 0
M  V30 10452 H 1010.87 -5.21397 -1.7443 0
M  V30 10453 H 1012.09 -6.41608 -2.22522 0
M  V30 10454 H 1010.04 -5.14253 -4.07284 0
M  V30 10455 H 1009.96 -6.74423 -3.41599 0
M  V30 10456 H 1011.23 -6.34038 -4.53449 0
M  V30 10457 N 1015.45 0.186762 -1.56489 0
M  V30 10458 C 1016.7 0.904077 -1.80303 0
M  V30 10459 C 1017.02 1.84073 -0.661538 0
M  V30 10460 O 1018.22 2.59928 -0.784197 0
M  V30 10461 C 1016.68 1.65806 -3.19432 0
M  V30 10462 C 1016.29 0.765807 -4.41406 0
M  V30 10463 C 1018.03 2.36451 -3.52549 0
M  V30 10464 C 1015.94 1.51913 -5.71556 0
M  V30 10465 H 1014.87 0.34133 -0.672317 0
M  V30 10466 H 1017.52 0.157218 -1.82825 0
M  V30 10467 H 1015.9 2.44911 -3.11183 0
M  V30 10468 H 1017.07 0.0128225 -4.60798 0
M  V30 10469 H 1015.39 0.169772 -4.16054 0
M  V30 10470 H 1017.99 2.93378 -4.47027 0
M  V30 10471 H 1018.33 3.11044 -2.7669 0
M  V30 10472 H 1018.86 1.64305 -3.62283 0
M  V30 10473 H 1015.6 0.815829 -6.50403 0
M  V30 10474 H 1015.12 2.24583 -5.56168 0
M  V30 10475 H 1016.8 2.07073 -6.12968 0
M  V30 10476 N 1016.93 1.50896 0.454776 0
M  V30 10477 C 1018.16 1.6648 1.22849 0
M  V30 10478 C 1018.58 0.354841 1.85435 0
M  V30 10479 O 1017.93 -0.664931 1.69956 0
M  V30 10480 C 1017.98 2.76787 2.32532 0
M  V30 10481 O 1017.7 4.02706 1.72509 0
M  V30 10482 C 1019.21 3.03488 3.23125 0
M  V30 10483 H 1016.43 0.559152 0.370932 0
M  V30 10484 H 1018.97 1.97215 0.540983 0
M  V30 10485 H 1017.12 2.48701 2.9703 0
M  V30 10486 H 1017.54 4.63834 2.44863 0
M  V30 10487 H 1019.01 3.84294 3.9626 0
M  V30 10488 H 1019.49 2.152 3.82865 0
M  V30 10489 H 1020.1 3.33167 2.64347 0
M  V30 10490 N 1018.41 -0.709066 1.40748 0
M  V30 10491 C 1019.64 -1.49591 1.425 0
M  V30 10492 C 1020.05 -1.89184 0.0248343 0
M  V30 10493 O 1019.39 -1.56429 -0.963109 0
M  V30 10494 C 1019.45 -2.79735 2.25807 0
M  V30 10495 C 1019.12 -2.62426 3.74141 0
M  V30 10496 C 1020.11 -2.29256 4.66624 0
M  V30 10497 C 1017.8 -2.78487 4.18032 0
M  V30 10498 C 1019.79 -2.12366 6.00982 0
M  V30 10499 C 1017.48 -2.61215 5.52458 0
M  V30 10500 C 1018.48 -2.28203 6.43749 0
M  V30 10501 O 1018.17 -2.11069 7.75697 0
M  V30 10502 H 1017.9 -0.467994 0.487809 0
M  V30 10503 H 1020.45 -0.881694 1.85514 0
M  V30 10504 H 1018.68 -3.43513 1.77584 0
M  V30 10505 H 1020.37 -3.41481 2.19421 0
M  V30 10506 H 1021.14 -2.16474 4.34009 0
M  V30 10507 H 1017.02 -3.03168 3.4729 0
M  V30 10508 H 1020.56 -1.86522 6.72202 0
M  V30 10509 H 1016.46 -2.73582 5.84656 0
M  V30 10510 H 1017.23 -2.25938 7.86698 0
M  V30 10511 N 1019.89 -1.26353 -0.941956 0
M  V30 10512 C 1020.84 -1.07842 -2.04056 0
M  V30 10513 C 1021.81 0.0163064 -1.66092 0
M  V30 10514 O 1022.99 -0.143313 -1.90261 0
M  V30 10515 C 1020.13 -0.716636 -3.37577 0
M  V30 10516 C 1019.24 -1.88754 -3.88582 0
M  V30 10517 C 1018.38 -1.46893 -5.10486 0
M  V30 10518 C 1017.42 -2.60819 -5.53751 0
M  V30 10519 N 1016.56 -2.19646 -6.66858 0
M  V30 10520 H 1021.4 -2.01856 -2.19221 0
M  V30 10521 H 1018.93 -1.00504 -1.07412 0
M  V30 10522 H 1020.89 -0.487768 -4.14339 0
M  V30 10523 H 1019.52 0.18653 -3.22261 0
M  V30 10524 H 1018.57 -2.22936 -3.08227 0
M  V30 10525 H 1019.88 -2.74264 -4.1663 0
M  V30 10526 H 1019.04 -1.20047 -5.94705 0
M  V30 10527 H 1017.78 -0.584721 -4.84182 0
M  V30 10528 H 1016.78 -2.88396 -4.6809 0
M  V30 10529 H 1018.01 -3.49838 -5.82057 0
M  V30 10530 H 1015.95 -1.33657 -6.4224 0
M  V30 10531 H 1015.87 -2.987 -6.94489 0
M  V30 10532 H 1017.14 -1.96009 -7.54454 0
M  V30 10533 N 1021.37 1.14642 -1.08144 0
M  V30 10534 C 1022.64 1.81774 -0.72232 0
M  V30 10535 C 1023.02 1.95587 0.794294 0
M  V30 10536 O 1022.37 1.51361 1.71178 0
M  V30 10537 C 1022.58 3.1763 -1.44611 0
M  V30 10538 C 1023.93 3.93161 -1.60343 0
M  V30 10539 O 1024.95 3.2721 -1.40755 0
M  V30 10540 O 1023.81 5.11422 -1.9264 0
M  V30 10541 H 1020.91 0.785733 -0.257978 0
M  V30 10542 H 1023.45 1.21683 -1.18285 0
M  V30 10543 H 1022.23 3.02723 -2.4794 0
M  V30 10544 H 1021.85 3.85412 -0.976892 0
M  V30 10545 N 1022.85 0.866709 1.31628 0
M  V30 10546 C 1024.07 0.49039 2.01004 0
M  V30 10547 C 1024.49 -0.916244 1.65077 0
M  V30 10548 O 1023.85 -1.59975 0.8783 0
M  V30 10549 C 1023.9 0.634011 3.55897 0
M  V30 10550 O 1023.62 1.98525 3.90537 0
M  V30 10551 C 1025.12 0.258277 4.42547 0
M  V30 10552 H 1022.34 0.191421 0.643117 0
M  V30 10553 H 1024.88 1.16698 1.67934 0
M  V30 10554 H 1023.04 0.00501801 3.874 0
M  V30 10555 H 1023.45 1.99067 4.85255 0
M  V30 10556 H 1024.93 0.409733 5.50477 0
M  V30 10557 H 1025.4 -0.802301 4.3181 0
M  V30 10558 H 1026.01 0.862837 4.16456 0
M  V30 10559 N 1024.32 -1.44642 0.625825 0
M  V30 10560 C 1025.57 -2.02393 0.128391 0
M  V30 10561 C 1025.9 -1.49075 -1.2446 0
M  V30 10562 O 1025.18 -0.672684 -1.82497 0
M  V30 10563 C 1025.46 -3.59934 0.109279 0
M  V30 10564 C 1025.31 -4.23546 1.51423 0
M  V30 10565 C 1026.63 -4.36406 -0.568985 0
M  V30 10566 H 1023.75 -0.735427 0.0481299 0
M  V30 10567 H 1026.39 -1.72277 0.801286 0
M  V30 10568 H 1024.54 -3.85722 -0.463726 0
M  V30 10569 H 1026.22 -4.08882 2.13572 0
M  V30 10570 H 1024.46 -3.81245 2.06966 0
M  V30 10571 H 1025.13 -5.32535 1.45294 0
M  V30 10572 H 1027.61 -4.1602 -0.0817516 0
M  V30 10573 H 1026.48 -5.46122 -0.551527 0
M  V30 10574 H 1026.74 -4.1062 -1.6384 0
M  V30 10575 N 1025.8 -0.366053 -1.5329 0
M  V30 10576 C 1026.73 0.514916 -2.23341 0
M  V30 10577 C 1027.75 1.04579 -1.24768 0
M  V30 10578 O 1028.94 0.952084 -1.50989 0
M  V30 10579 C 1026.04 1.72374 -2.91788 0
M  V30 10580 C 1025.21 1.32429 -4.16871 0
M  V30 10581 C 1024.27 2.39524 -4.68524 0
M  V30 10582 O 1023.29 2.01895 -5.32191 0
M  V30 10583 N 1024.5 3.71116 -4.46378 0
M  V30 10584 H 1027.26 -0.0851272 -2.99579 0
M  V30 10585 H 1024.82 -0.191255 -1.60766 0
M  V30 10586 H 1026.81 2.43496 -3.23252 0
M  V30 10587 H 1025.38 2.23064 -2.19 0
M  V30 10588 H 1024.6 0.442901 -3.91704 0
M  V30 10589 H 1025.89 1.03372 -4.98188 0
M  V30 10590 H 1025.29 4.04463 -3.95508 0
M  V30 10591 H 1023.85 4.38341 -4.82391 0
M  V30 10592 N 1027.28 1.57312 -0.0952337 0
M  V30 10593 C 1028.21 2.17056 0.860753 0
M  V30 10594 C 1029.19 1.10394 1.29411 0
M  V30 10595 O 1030.38 1.38532 1.36098 0
M  V30 10596 C 1027.51 2.751 2.11984 0
M  V30 10597 C 1026.46 3.87136 1.8251 0
M  V30 10598 C 1025.79 4.31883 3.15247 0
M  V30 10599 C 1027.09 5.10326 1.11194 0
M  V30 10600 H 1028.78 2.97192 0.362983 0
M  V30 10601 H 1026.33 1.42955 0.173151 0
M  V30 10602 H 1028.28 3.15547 2.79299 0
M  V30 10603 H 1027 1.92219 2.64044 0
M  V30 10604 H 1025.66 3.47229 1.17592 0
M  V30 10605 H 1025.31 3.45893 3.65195 0
M  V30 10606 H 1025.01 5.0742 2.96309 0
M  V30 10607 H 1026.53 4.74964 3.83721 0
M  V30 10608 H 1027.95 5.47942 1.6862 0
M  V30 10609 H 1026.34 5.91293 1.02435 0
M  V30 10610 H 1027.41 4.84807 0.0947227 0
M  V30 10611 N 1028.76 -0.17846 1.56586 0
M  V30 10612 C 1030.17 -0.529957 1.50544 0
M  V30 10613 C 1030.37 -1.85015 0.798237 0
M  V30 10614 O 1029.43 -2.49983 0.355639 0
M  V30 10615 C 1030.74 -0.569314 2.95261 0
M  V30 10616 C 1032.29 -0.657008 3.06027 0
M  V30 10617 C 1032.77 -0.727323 4.52188 0
M  V30 10618 N 1034.26 -0.790406 4.56406 0
M  V30 10619 C 1034.99 -0.865265 5.66834 0
M  V30 10620 N 1034.49 -0.901398 6.86911 0
M  V30 10621 N 1036.28 -0.903736 5.54787 0
M  V30 10622 H 1028.43 0.687304 2.00972 0
M  V30 10623 H 1030.69 0.246936 0.915274 0
M  V30 10624 H 1030.4 0.331934 3.5013 0
M  V30 10625 H 1030.27 -1.41828 3.4952 0
M  V30 10626 H 1032.66 -1.54868 2.51197 0
M  V30 10627 H 1032.74 0.218495 2.54865 0
M  V30 10628 H 1032.39 0.160067 5.07648 0
M  V30 10629 H 1032.32 -1.61887 5.01099 0
M  V30 10630 H 1034.81 -0.771054 3.6995 0
M  V30 10631 H 1035.12 -0.959494 7.6682 0
M  V30 10632 H 1033.47 -0.869795 6.89536 0
M  V30 10633 H 1036.66 -0.872459 4.59898 0
M  V30 10634 H 1036.83 -0.958615 6.4087 0
M  V30 10635 N 1030.24 -1.51135 -0.446768 0
M  V30 10636 C 1031.65 -1.39101 -0.782504 0
M  V30 10637 C 1031.85 -0.46599 -1.96038 0
M  V30 10638 O 1030.91 0.0823679 -2.52366 0
M  V30 10639 C 1032.22 -2.80953 -1.07173 0
M  V30 10640 C 1033.77 -2.90038 -1.17673 0
M  V30 10641 C 1034.24 -4.32777 -1.49894 0
M  V30 10642 N 1035.73 -4.3584 -1.56837 0
M  V30 10643 C 1036.47 -5.43305 -1.83322 0
M  V30 10644 N 1035.97 -6.60945 -2.07662 0
M  V30 10645 N 1037.76 -5.30775 -1.85026 0
M  V30 10646 H 1029.91 -2.09835 0.329114 0
M  V30 10647 H 1032.17 -0.944199 0.0848054 0
M  V30 10648 H 1031.88 -3.50591 -0.279037 0
M  V30 10649 H 1031.75 -3.197 -2.00179 0
M  V30 10650 H 1034.14 -2.20603 -1.96005 0
M  V30 10651 H 1034.22 -2.54801 -0.225892 0
M  V30 10652 H 1033.86 -5.02757 -0.720924 0
M  V30 10653 H 1033.79 -4.6552 -2.46168 0
M  V30 10654 H 1036.29 -3.51023 -1.39968 0
M  V30 10655 H 1036.6 -7.38643 -2.27214 0
M  V30 10656 H 1034.94 -6.64077 -2.05003 0
M  V30 10657 H 1038.13 -4.37858 -1.65523 0
M  V30 10658 H 1038.31 -6.14609 -2.05329 0
M  V30 10659 N 1031.71 0.701592 -1.41122 0
M  V30 10660 C 1032.66 1.81559 -1.42495 0
M  V30 10661 C 1033.63 1.63722 -0.280078 0
M  V30 10662 O 1034.82 1.84658 -0.480231 0
M  V30 10663 C 1031.96 3.19392 -1.30702 0
M  V30 10664 C 1031.07 3.48704 -2.55009 0
M  V30 10665 C 1030.2 4.76118 -2.35554 0
M  V30 10666 C 1029.24 4.98378 -3.55367 0
M  V30 10667 N 1028.38 6.17014 -3.3502 0
M  V30 10668 H 1033.22 1.7972 -2.37707 0
M  V30 10669 H 1030.76 0.877727 -1.18044 0
M  V30 10670 H 1032.71 3.99004 -1.21867 0
M  V30 10671 H 1031.34 3.20423 -0.391012 0
M  V30 10672 H 1030.4 2.63542 -2.74317 0
M  V30 10673 H 1031.71 3.61057 -3.44151 0
M  V30 10674 H 1030.86 5.63774 -2.24152 0
M  V30 10675 H 1029.6 4.66 -1.43859 0
M  V30 10676 H 1028.61 4.09172 -3.6723 0
M  V30 10677 H 1029.83 5.10359 -4.48007 0
M  V30 10678 H 1027.78 6.0812 -2.4602 0
M  V30 10679 H 1027.69 6.30107 -4.17733 0
M  V30 10680 H 1028.96 7.0742 -3.27379 0
M  V30 10681 N 1033.19 1.2685 0.935242 0
M  V30 10682 C 1034.12 1.1143 2.05196 0
M  V30 10683 C 1035.1 0.0178362 1.70091 0
M  V30 10684 O 1036.29 0.190951 1.93259 0
M  V30 10685 C 1033.42 0.752779 3.39044 0
M  V30 10686 C 1032.37 1.80164 3.88233 0
M  V30 10687 C 1031.7 1.29428 5.18799 0
M  V30 10688 C 1033 3.20431 4.12457 0
M  V30 10689 H 1034.69 2.04845 2.18355 0
M  V30 10690 H 1032.24 0.986276 1.04922 0
M  V30 10691 H 1034.19 0.631757 4.16637 0
M  V30 10692 H 1032.91 -0.217075 3.25878 0
M  V30 10693 H 1031.57 1.91144 3.12825 0
M  V30 10694 H 1031.22 0.3141 5.02018 0
M  V30 10695 H 1030.92 1.99546 5.5268 0
M  V30 10696 H 1032.45 1.18605 5.9897 0
M  V30 10697 H 1033.86 3.12495 4.80645 0
M  V30 10698 H 1032.26 3.88193 4.57631 0
M  V30 10699 H 1033.33 3.66046 3.18023 0
M  V30 10700 N 1034.67 -1.14067 1.0875 0
M  V30 10701 C 1035.58 -2.22871 0.732498 0
M  V30 10702 C 1036.6 -1.72008 -0.26253 0
M  V30 10703 O 1037.77 -2.01123 -0.105601 0
M  V30 10704 C 1034.84 -3.46371 0.150913 0
M  V30 10705 C 1033.9 -4.12158 1.201 0
M  V30 10706 C 1033.13 -5.29763 0.647075 0
M  V30 10707 O 1033.35 -5.67911 -0.532307 0
M  V30 10708 O 1032.29 -5.8542 1.3988 0
M  V30 10709 H 1036.11 -2.55596 1.64025 0
M  V30 10710 H 1033.7 -1.22065 0.861417 0
M  V30 10711 H 1035.58 -4.21055 -0.170442 0
M  V30 10712 H 1034.26 -3.15362 -0.729948 0
M  V30 10713 H 1033.16 -3.39332 1.57494 0
M  V30 10714 H 1034.5 -4.47282 2.05426 0
M  V30 10715 N 1036.15 -0.873678 -1.31166 0
M  V30 10716 C 1037.4 -0.486457 -1.9657 0
M  V30 10717 C 1037.72 0.962042 -1.69041 0
M  V30 10718 O 1036.98 1.69305 -0.981543 0
M  V30 10719 C 1037.28 -0.69462 -3.50585 0
M  V30 10720 C 1036.94 -2.11647 -3.98141 0
M  V30 10721 C 1035.61 -2.50531 -4.10838 0
M  V30 10722 C 1037.96 -3.0436 -4.23101 0
M  V30 10723 C 1035.29 -3.81361 -4.45848 0
M  V30 10724 C 1037.64 -4.34709 -4.59577 0
M  V30 10725 C 1036.3 -4.73502 -4.70481 0
M  V30 10726 H 1035.57 -0.178007 -0.719301 0
M  V30 10727 H 1038.22 -1.10737 -1.56235 0
M  V30 10728 H 1036.52 0.00940878 -3.91799 0
M  V30 10729 H 1038.22 -0.374782 -3.99245 0
M  V30 10730 H 1034.81 -1.8046 -3.88757 0
M  V30 10731 H 1038.99 -2.75544 -4.12782 0
M  V30 10732 H 1034.25 -4.11174 -4.52488 0
M  V30 10733 H 1038.42 -5.06596 -4.77842 0
M  V30 10734 H 1036.05 -5.74919 -4.97365 0
M  V30 10735 N 1037.63 1.44308 -0.633487 0
M  V30 10736 C 1038.87 2.02023 -0.138917 0
M  V30 10737 C 1039.2 1.49841 1.24008 0
M  V30 10738 O 1038.46 0.673718 1.83738 0
M  V30 10739 C 1038.76 3.57316 -0.0773886 0
M  V30 10740 C 1038.42 4.28762 -1.39548 0
M  V30 10741 C 1037.08 4.47997 -1.75648 0
M  V30 10742 C 1039.44 4.69391 -2.26542 0
M  V30 10743 C 1036.76 5.05121 -2.98445 0
M  V30 10744 C 1039.12 5.27876 -3.48612 0
M  V30 10745 C 1037.78 5.45329 -3.84932 0
M  V30 10746 H 1037.05 0.739254 -0.0508333 0
M  V30 10747 H 1039.7 1.73043 -0.820271 0
M  V30 10748 H 1038 3.85724 0.687345 0
M  V30 10749 H 1039.7 3.99706 0.321837 0
M  V30 10750 H 1036.29 4.14122 -1.10456 0
M  V30 10751 H 1040.47 4.54241 -1.99946 0
M  V30 10752 H 1035.73 5.16821 -3.26658 0
M  V30 10753 H 1039.9 5.58307 -4.16253 0
M  V30 10754 H 1037.53 5.8936 -4.80166 0
M  V30 10755 N 1039.1 0.374177 1.53094 0
M  V30 10756 C 1040.33 -0.213325 2.05797 0
M  V30 10757 C 1040.75 -1.41753 1.24706 0
M  V30 10758 O 1040.1 -1.80183 0.289868 0
M  V30 10759 C 1040.16 -0.598367 3.56513 0
M  V30 10760 O 1039.88 0.557983 4.34532 0
M  V30 10761 C 1041.38 -1.24334 4.25507 0
M  V30 10762 H 1038.6 -0.0357398 0.670048 0
M  V30 10763 H 1041.14 0.535035 1.97377 0
M  V30 10764 H 1039.3 -1.29663 3.65056 0
M  V30 10765 H 1039.71 0.244911 5.23928 0
M  V30 10766 H 1041.18 -1.46325 5.32253 0
M  V30 10767 H 1041.66 -2.20622 3.79766 0
M  V30 10768 H 1042.27 -0.586269 4.2124 0
M  V30 10769 N 1040.58 -1.57259 0.103575 0
M  V30 10770 C 1041.81 -1.98711 -0.565454 0
M  V30 10771 C 1042.22 -0.981759 -1.61735 0
M  V30 10772 O 1041.56 0.0357019 -1.83665 0
M  V30 10773 C 1041.63 -3.36552 -1.26384 0
M  V30 10774 C 1041.29 -4.55566 -0.361714 0
M  V30 10775 C 1042.29 -5.18408 0.393539 0
M  V30 10776 C 1039.97 -5.01534 -0.277292 0
M  V30 10777 C 1041.97 -6.25594 1.2211 0
M  V30 10778 C 1039.65 -6.08584 0.553919 0
M  V30 10779 C 1040.65 -6.7048 1.30176 0
M  V30 10780 O 1040.34 -7.75464 2.1192 0
M  V30 10781 H 1040.07 -0.657853 -0.155582 0
M  V30 10782 H 1042.62 -2.04591 0.182089 0
M  V30 10783 H 1040.85 -3.2738 -2.05813 0
M  V30 10784 H 1042.54 -3.62395 -1.82824 0
M  V30 10785 H 1043.31 -4.8382 0.338098 0
M  V30 10786 H 1039.19 -4.53114 -0.849047 0
M  V30 10787 H 1042.73 -6.73836 1.80531 0
M  V30 10788 H 1038.63 -6.42604 0.610809 0
M  V30 10789 H 1039.4 -7.92491 2.04694 0
M  V30 10790 N 1042.06 0.170153 -1.56679 0
M  V30 10791 C 1043.29 0.90618 -1.86556 0
M  V30 10792 C 1043.71 1.74986 -0.690044 0
M  V30 10793 O 1043.07 1.77672 0.360862 0
M  V30 10794 C 1043.12 1.75777 -3.14857 0
M  V30 10795 O 1042.22 2.85952 -2.97162 0
M  V30 10796 H 1041.56 0.253781 -0.613589 0
M  V30 10797 H 1044.09 0.167943 -2.0391 0
M  V30 10798 H 1044.1 2.15747 -3.46291 0
M  V30 10799 H 1042.78 1.13807 -4.00026 0
M  V30 10800 H 1041.35 2.49557 -2.77084 0
M  V30 10801 N 1043.54 1.5137 0.438746 0
M  V30 10802 C 1044.95 1.39514 0.775116 0
M  V30 10803 C 1045.15 0.47638 1.95788 0
M  V30 10804 O 1044.21 -0.0689832 2.52406 0
M  V30 10805 C 1045.52 2.81517 1.05681 0
M  V30 10806 C 1047.07 2.90658 1.16133 0
M  V30 10807 C 1047.55 4.33566 1.47597 0
M  V30 10808 N 1049.04 4.36665 1.54524 0
M  V30 10809 C 1049.77 5.4427 1.80438 0
M  V30 10810 N 1049.27 6.62037 2.04154 0
M  V30 10811 N 1051.06 5.31749 1.82208 0
M  V30 10812 H 1043.21 2.09657 -0.340237 0
M  V30 10813 H 1045.48 0.943736 -0.0898115 0
M  V30 10814 H 1045.18 3.50734 0.260441 0
M  V30 10815 H 1045.06 3.20757 1.98481 0
M  V30 10816 H 1047.44 2.2164 1.94833 0
M  V30 10817 H 1047.52 2.54917 0.212376 0
M  V30 10818 H 1047.17 5.03133 0.694251 0
M  V30 10819 H 1047.1 4.66819 2.43696 0
M  V30 10820 H 1049.59 3.51761 1.38105 0
M  V30 10821 H 1049.9 7.39838 2.23293 0
M  V30 10822 H 1048.25 6.65155 2.01479 0
M  V30 10823 H 1051.44 4.3873 1.63198 0
M  V30 10824 H 1051.61 6.15689 2.02067 0
M  V30 10825 N 1045.02 -0.694098 1.41492 0
M  V30 10826 C 1046.26 -1.45415 1.40929 0
M  V30 10827 C 1046.59 -1.94491 0.0189301 0
M  V30 10828 O 1045.85 -1.7 -0.96945 0
M  V30 10829 C 1046.15 -2.6805 2.36398 0
M  V30 10830 C 1045.81 -2.37623 3.83205 0
M  V30 10831 C 1044.47 -2.29035 4.23198 0
M  V30 10832 C 1046.83 -2.12555 4.75888 0
M  V30 10833 C 1044.15 -1.93478 5.5388 0
M  V30 10834 C 1046.51 -1.78506 6.06892 0
M  V30 10835 C 1045.17 -1.68415 6.45905 0
M  V30 10836 H 1044.44 -0.53211 0.515694 0
M  V30 10837 H 1047.09 -0.793193 1.74301 0
M  V30 10838 H 1045.39 -3.39086 1.96285 0
M  V30 10839 H 1047.09 -3.26194 2.33234 0
M  V30 10840 H 1043.68 -2.45202 3.51531 0
M  V30 10841 H 1047.86 -2.18133 4.45793 0
M  V30 10842 H 1043.12 -1.84219 5.82986 0
M  V30 10843 H 1047.29 -1.58128 6.7821 0
M  V30 10844 H 1044.92 -1.40631 7.47079 0
M  V30 10845 N 1046.49 -1.27344 -0.928501 0
M  V30 10846 C 1047.77 -1.04362 -1.65433 0
M  V30 10847 C 1048.15 0.421896 -2.06841 0
M  V30 10848 O 1047.5 1.40496 -1.80203 0
M  V30 10849 C 1047.71 -2.00442 -2.85699 0
M  V30 10850 C 1049.06 -2.29767 -3.57061 0
M  V30 10851 O 1050.08 -1.98409 -2.95825 0
M  V30 10852 O 1048.94 -2.83217 -4.67387 0
M  V30 10853 H 1046.03 -0.397783 -0.72505 0
M  V30 10854 H 1048.58 -1.38606 -0.979109 0
M  V30 10855 H 1047.35 -2.99281 -2.52085 0
M  V30 10856 H 1046.98 -1.66755 -3.60941 0
M  V30 10857 N 1047.97 1.13488 -1.09353 0
M  V30 10858 C 1048.91 2.17951 -0.67622 0
M  V30 10859 C 1049.88 1.59482 0.316906 0
M  V30 10860 O 1051.07 1.8723 0.218459 0
M  V30 10861 C 1048.19 3.387 0.00391024 0
M  V30 10862 C 1047.24 4.15764 -0.950906 0
M  V30 10863 S 1048.07 4.75517 -2.46259 0
M  V30 10864 C 1049.23 5.99613 -1.79485 0
M  V30 10865 H 1049.46 2.53012 -1.56115 0
M  V30 10866 H 1047 1.24773 -0.909447 0
M  V30 10867 H 1048.95 4.08643 0.39002 0
M  V30 10868 H 1047.61 3.01941 0.86548 0
M  V30 10869 H 1046.81 5.02229 -0.422086 0
M  V30 10870 H 1046.41 3.51473 -1.27838 0
M  V30 10871 H 1048.7 6.68204 -1.11846 0
M  V30 10872 H 1049.64 6.57102 -2.63862 0
M  V30 10873 H 1050.05 5.50165 -1.26409 0
M  V30 10874 N 1049.45 0.880621 1.30701 0
M  V30 10875 C 1050.36 0.348034 2.32004 0
M  V30 10876 C 1051.38 -0.547508 1.65162 0
M  V30 10877 O 1052.55 -0.441673 1.96497 0
M  V30 10878 C 1049.62 -0.432585 3.43991 0
M  V30 10879 C 1048.68 0.492189 4.26469 0
M  V30 10880 C 1047.91 -0.25127 5.33108 0
M  V30 10881 O 1048.14 -1.47795 5.5092 0
M  V30 10882 O 1047.07 0.396376 6.00593 0
M  V30 10883 H 1050.9 1.18798 2.79501 0
M  V30 10884 H 1048.48 0.64432 1.34792 0
M  V30 10885 H 1050.36 -0.874733 4.12221 0
M  V30 10886 H 1049.04 -1.2489 2.98637 0
M  V30 10887 H 1047.94 0.983058 3.60953 0
M  V30 10888 H 1049.28 1.27439 4.75416 0
M  V30 10889 N 1050.93 -1.4397 0.641131 0
M  V30 10890 C 1052.18 -2.01946 0.149629 0
M  V30 10891 C 1052.5 -1.50496 -1.23212 0
M  V30 10892 O 1051.76 -0.683453 -1.83378 0
M  V30 10893 C 1052.06 -3.5727 0.0963368 0
M  V30 10894 C 1051.72 -4.28016 1.4182 0
M  V30 10895 C 1050.39 -4.47059 1.78021 0
M  V30 10896 C 1052.74 -4.68183 2.29028 0
M  V30 10897 C 1050.07 -5.03532 3.01119 0
M  V30 10898 C 1052.42 -5.26019 3.51406 0
M  V30 10899 C 1051.08 -5.4328 3.87818 0
M  V30 10900 H 1050.35 -0.738974 0.0547531 0
M  V30 10901 H 1053 -1.72605 0.829436 0
M  V30 10902 H 1051.3 -3.86083 -0.666879 0
M  V30 10903 H 1053 -3.99871 -0.300635 0
M  V30 10904 H 1049.59 -4.13531 1.12651 0
M  V30 10905 H 1053.78 -4.53175 2.02353 0
M  V30 10906 H 1049.03 -5.15082 3.29395 0
M  V30 10907 H 1053.21 -5.56092 4.19208 0
M  V30 10908 H 1050.83 -5.86805 4.83284 0
M  V30 10909 N 1052.41 -0.382291 -1.52893 0
M  V30 10910 C 1053.64 0.202408 -2.05908 0
M  V30 10911 C 1054.05 1.4109 -1.25456 0
M  V30 10912 O 1053.41 1.80027 -0.29942 0
M  V30 10913 C 1053.46 0.579452 -3.56826 0
M  V30 10914 O 1053.18 -0.58102 -4.3423 0
M  V30 10915 C 1054.68 1.22076 -4.2616 0
M  V30 10916 H 1051.9 0.0321859 -0.670228 0
M  V30 10917 H 1054.44 -0.545494 -1.9709 0
M  V30 10918 H 1052.6 1.27726 -3.65739 0
M  V30 10919 H 1053.01 -0.272693 -5.23791 0
M  V30 10920 H 1054.49 1.435 -5.33021 0
M  V30 10921 H 1054.96 2.18605 -3.80931 0
M  V30 10922 H 1055.57 0.563922 -4.21545 0
M  V30 10923 N 1053.89 1.57202 -0.111913 0
M  V30 10924 C 1055.13 1.9495 0.547795 0
M  V30 10925 C 1055.46 0.994763 1.67137 0
M  V30 10926 O 1054.72 0.0173528 1.95692 0
M  V30 10927 C 1055.01 3.39152 1.12741 0
M  V30 10928 C 1054.68 4.50724 0.125916 0
M  V30 10929 C 1053.34 4.80968 -0.149489 0
M  V30 10930 C 1055.69 5.18215 -0.556987 0
M  V30 10931 C 1053.02 5.76023 -1.1142 0
M  V30 10932 C 1055.37 6.14307 -1.51029 0
M  V30 10933 C 1054.04 6.42947 -1.79375 0
M  V30 10934 H 1053.31 0.713372 0.200453 0
M  V30 10935 H 1055.96 1.90542 -0.191316 0
M  V30 10936 H 1054.26 3.4022 1.94313 0
M  V30 10937 H 1055.96 3.65668 1.64584 0
M  V30 10938 H 1052.55 4.27162 0.350756 0
M  V30 10939 H 1056.73 4.95012 -0.357378 0
M  V30 10940 H 1051.99 5.9652 -1.34064 0
M  V30 10941 H 1056.16 6.65692 -2.04516 0
M  V30 10942 H 1053.79 7.1641 -2.54284 0
M  V30 10943 N 1055.36 -0.161842 1.56767 0
M  V30 10944 C 1056.61 -0.878224 1.82798 0
M  V30 10945 C 1056.94 -1.81481 0.691242 0
M  V30 10946 O 1056.22 -1.92075 -0.30618 0
M  V30 10947 C 1056.5 -1.66565 3.19262 0
M  V30 10948 C 1056.35 -0.751551 4.43477 0
M  V30 10949 C 1057.67 -2.63134 3.52773 0
M  V30 10950 H 1054.79 -0.317828 0.664947 0
M  V30 10951 H 1057.43 -0.14402 1.89453 0
M  V30 10952 H 1055.58 -2.29157 3.13719 0
M  V30 10953 H 1057.26 -0.137783 4.61094 0
M  V30 10954 H 1055.5 -0.0601785 4.33758 0
M  V30 10955 H 1056.17 -1.33823 5.35533 0
M  V30 10956 H 1058.65 -2.10666 3.5883 0
M  V30 10957 H 1057.52 -3.15289 4.49315 0
M  V30 10958 H 1057.78 -3.43786 2.77963 0
M  V30 10959 N 1056.84 -1.516 -0.430713 0
M  V30 10960 C 1058.09 -1.6484 -1.18134 0
M  V30 10961 C 1058.42 -0.366725 -1.90706 0
M  V30 10962 O 1057.7 0.63398 -1.83878 0
M  V30 10963 C 1057.98 -2.85617 -2.19306 0
M  V30 10964 C 1057.83 -4.23778 -1.50773 0
M  V30 10965 C 1059.15 -3.01909 -3.20217 0
M  V30 10966 H 1056.27 -0.599907 -0.428113 0
M  V30 10967 H 1058.91 -1.84102 -0.46973 0
M  V30 10968 H 1057.06 -2.69325 -2.79993 0
M  V30 10969 H 1058.73 -4.51752 -0.93371 0
M  V30 10970 H 1056.98 -4.26171 -0.809966 0
M  V30 10971 H 1057.65 -5.04291 -2.24487 0
M  V30 10972 H 1060.12 -3.16956 -2.69589 0
M  V30 10973 H 1059 -3.87968 -3.88293 0
M  V30 10974 H 1059.26 -2.1427 -3.86705 0
M  V30 10975 N 1058.32 0.686584 -1.41858 0
M  V30 10976 C 1059.55 1.47519 -1.45072 0
M  V30 10977 C 1059.96 1.88709 -0.0585868 0
M  V30 10978 O 1059.32 1.57373 0.924116 0
M  V30 10979 C 1059.37 2.73195 -2.36742 0
M  V30 10980 O 1059.09 2.33736 -3.70539 0
M  V30 10981 C 1060.59 3.66861 -2.48854 0
M  V30 10982 H 1057.81 0.454307 -0.493808 0
M  V30 10983 H 1060.36 0.844612 -1.86243 0
M  V30 10984 H 1058.51 3.32468 -1.98856 0
M  V30 10985 H 1058.93 3.14809 -4.19518 0
M  V30 10986 H 1060.4 4.51801 -3.17143 0
M  V30 10987 H 1060.88 4.11961 -1.52265 0
M  V30 10988 H 1061.48 3.13486 -2.87414 0
M  V30 10989 N 1059.8 1.27835 0.921735 0
M  V30 10990 C 1061.02 1.17465 1.70929 0
M  V30 10991 C 1061.45 -0.264171 1.86236 0
M  V30 10992 O 1060.81 -1.19124 1.36671 0
M  V30 10993 C 1060.85 1.8697 3.08342 0
M  V30 10994 O 1059.96 1.17173 3.95404 0
M  V30 10995 H 1059.3 0.408206 0.523702 0
M  V30 10996 H 1061.83 1.69013 1.15307 0
M  V30 10997 H 1061.84 1.94564 3.58621 0
M  V30 10998 H 1060.51 2.91633 2.96518 0
M  V30 10999 H 1059.09 1.17688 3.53842 0
M  V30 11000 N 1061.28 -1.12907 1.09954 0
M  V30 11001 C 1062.22 -2.20561 0.73863 0
M  V30 11002 C 1063.22 -1.67347 -0.262944 0
M  V30 11003 O 1064.42 -1.79574 -0.123834 0
M  V30 11004 H 1060.8 -0.718823 0.220901 0
M  V30 11005 H 1062.77 -2.4826 1.65559 0
M  V30 11006 C 1061.52 -3.47227 0.181239 0
M  V30 11007 H 1060.84 -3.88516 0.943144 0
M  V30 11008 H 1062.28 -4.23987 -0.0332888 0
M  V30 11009 C 1060.74 -3.18956 -1.08485 0
M  V30 11010 O 1061.27 -3.38224 -2.1672 0
M  V30 11011 N 1059.48 -2.72797 -1.00151 0
M  V30 11012 H 1059.02 -2.57317 -0.120645 0
M  V30 11013 H 1058.98 -2.54256 -1.84935 0
M  V30 11014 N 1062.75 -0.88754 -1.30232 0
M  V30 11015 C 1063.98 -0.521549 -1.99909 0
M  V30 11016 C 1064.39 0.895086 -1.66688 0
M  V30 11017 O 1063.73 1.60053 -0.90159 0
M  V30 11018 C 1063.8 -0.619564 -3.54121 0
M  V30 11019 C 1063.46 -2.00097 -4.10865 0
M  V30 11020 C 1064.46 -2.97068 -4.26669 0
M  V30 11021 C 1062.14 -2.30706 -4.46184 0
M  V30 11022 C 1064.14 -4.2278 -4.77007 0
M  V30 11023 C 1061.82 -3.56663 -4.96221 0
M  V30 11024 C 1062.82 -4.52515 -5.11585 0
M  V30 11025 O 1062.51 -5.76237 -5.60541 0
M  V30 11026 H 1062.24 -0.199904 -0.645766 0
M  V30 11027 H 1064.8 -1.19546 -1.67027 0
M  V30 11028 H 1063.03 0.111334 -3.8654 0
M  V30 11029 H 1064.71 -0.26448 -4.05037 0
M  V30 11030 H 1065.48 -2.74734 -3.99683 0
M  V30 11031 H 1061.36 -1.56865 -4.33491 0
M  V30 11032 H 1064.9 -4.97603 -4.88914 0
M  V30 11033 H 1060.8 -3.78834 -5.22643 0
M  V30 11034 H 1061.57 -5.78655 -5.78879 0
M  V30 11035 N 1064.23 1.43628 -0.648757 0
M  V30 11036 C 1065.46 2.06217 -0.167945 0
M  V30 11037 C 1065.88 1.486 1.16462 0
M  V30 11038 O 1065.23 0.61559 1.71804 0
M  V30 11039 C 1065.28 3.6144 -0.0660114 0
M  V30 11040 O 1065 4.16914 -1.34589 0
M  V30 11041 C 1066.51 4.41097 0.441408 0
M  V30 11042 H 1063.73 0.665228 -0.0878237 0
M  V30 11043 H 1066.27 1.84207 -0.888144 0
M  V30 11044 H 1064.42 3.82651 0.604722 0
M  V30 11045 H 1064.84 5.10537 -1.20218 0
M  V30 11046 H 1066.31 5.50066 0.461697 0
M  V30 11047 H 1066.79 4.13803 1.47187 0
M  V30 11048 H 1067.4 4.24845 -0.19668 0
M  V30 11049 N 1065.71 0.390394 1.52688 0
M  V30 11050 C 1066.99 -0.249068 1.94008 0
M  V30 11051 C 1067.37 -1.64263 1.32593 0
M  V30 11052 O 1066.72 -2.23086 0.494448 0
M  V30 11053 C 1066.93 -0.274318 3.4792 0
M  V30 11054 C 1068.27 -0.502743 4.21613 0
M  V30 11055 O 1069.3 -0.35448 3.54432 0
M  V30 11056 O 1068.16 -0.79334 5.40711 0
M  V30 11057 H 1065.25 -0.155116 0.812323 0
M  V30 11058 H 1067.8 0.44498 1.63762 0
M  V30 11059 H 1066.57 0.701766 3.84956 0
M  V30 11060 H 1066.19 -1.01324 3.84473 0
M  V30 11061 N 1067.19 -1.57141 0.120249 0
M  V30 11062 C 1068.15 -2.14213 -0.815185 0
M  V30 11063 C 1069.15 -1.07731 -1.19376 0
M  V30 11064 O 1070.34 -1.33502 -1.11906 0
M  V30 11065 C 1067.47 -2.68339 -2.10255 0
M  V30 11066 H 1068.67 -2.98197 -0.319166 0
M  V30 11067 H 1066.22 -1.55767 -0.128997 0
M  V30 11068 H 1066.95 -1.87946 -2.64285 0
M  V30 11069 H 1066.74 -3.46216 -1.84057 0
M  V30 11070 H 1068.23 -3.124 -2.77121 0
M  V30 11071 N 1068.67 0.153526 -1.5685 0
M  V30 11072 C 1069.61 1.20896 -1.98713 0
M  V30 11073 C 1070.61 1.44839 -0.878529 0
M  V30 11074 O 1071.81 1.45208 -1.0637 0
M  V30 11075 H 1068.19 0.406797 -0.632472 0
M  V30 11076 H 1070.16 0.829145 -2.86649 0
M  V30 11077 C 1068.91 2.53642 -2.37825 0
M  V30 11078 H 1068.23 2.36047 -3.22679 0
M  V30 11079 H 1069.67 3.26136 -2.70946 0
M  V30 11080 C 1068.13 3.13706 -1.22841 0
M  V30 11081 O 1068.66 3.98246 -0.525626 0
M  V30 11082 N 1066.87 2.73059 -0.99435 0
M  V30 11083 H 1066.41 2.0441 -1.56761 0
M  V30 11084 H 1066.37 3.1358 -0.226883 0
M  V30 11085 N 1070.14 1.51827 0.422667 0
M  V30 11086 C 1071.09 1.74791 1.53463 0
M  V30 11087 C 1072.09 0.614602 1.57858 0
M  V30 11088 O 1073.29 0.796336 1.61426 0
M  V30 11089 H 1069.67 0.552524 0.510118 0
M  V30 11090 H 1071.64 2.67974 1.31273 0
M  V30 11091 C 1070.39 1.90339 2.90975 0
M  V30 11092 H 1069.71 2.76958 2.8833 0
M  V30 11093 H 1071.15 2.10413 3.68106 0
M  V30 11094 C 1069.61 0.66695 3.30232 0
M  V30 11095 O 1070.14 -0.171542 4.01334 0
M  V30 11096 N 1068.35 0.506768 2.86147 0
M  V30 11097 H 1067.89 1.19019 2.28456 0
M  V30 11098 H 1067.85 -0.319247 3.12775 0
M  V30 11099 N 1071.62 -0.679052 1.4222 0
M  V30 11100 C 1072.87 -1.43627 1.42182 0
M  V30 11101 C 1073.19 -1.94964 0.0377095 0
M  V30 11102 O 1072.46 -1.72788 -0.923098 0
M  V30 11103 H 1071.04 -0.532972 0.523402 0
M  V30 11104 H 1073.7 -0.802649 1.77605 0
M  V30 11105 H 1072.8 -2.29137 2.11902 0
M  V30 11106 N 1073.1 -1.28322 -0.914942 0
M  V30 11107 C 1074.05 -1.08788 -2.00373 0
M  V30 11108 C 1075.03 -0.0118996 -1.60896 0
M  V30 11109 O 1076.23 -0.231902 -1.75474 0
M  V30 11110 C 1073.36 -0.750508 -3.34996 0
M  V30 11111 C 1072.44 -1.86527 -3.80879 0
M  V30 11112 N 1072.83 -3.10672 -3.99145 0
M  V30 11113 C 1071.13 -1.75485 -4.10026 0
M  V30 11114 C 1071.83 -3.833 -4.37557 0
M  V30 11115 N 1070.81 -3.11141 -4.45749 0
M  V30 11116 H 1074.61 -2.02984 -2.12544 0
M  V30 11117 H 1072.12 -1.19224 -1.1027 0
M  V30 11118 H 1074.12 -0.591644 -4.1268 0
M  V30 11119 H 1072.78 0.183696 -3.2418 0
M  V30 11120 H 1073.79 -3.46295 -3.85097 0
M  V30 11121 H 1070.47 -0.89234 -4.07852 0
M  V30 11122 H 1071.86 -4.90061 -4.59662 0
M  V30 11123 N 1074.58 1.12322 -1.10551 0
M  V30 11124 C 1075.54 2.16273 -0.758844 0
M  V30 11125 C 1076.54 1.59325 0.217294 0
M  V30 11126 O 1077.73 1.74199 -0.00601346 0
M  V30 11127 C 1074.86 3.40674 -0.124238 0
M  V30 11128 H 1076.06 2.48454 -1.6796 0
M  V30 11129 H 1073.61 1.2735 -0.906188 0
M  V30 11130 H 1074.34 3.14094 0.807194 0
M  V30 11131 H 1074.13 3.83284 -0.826772 0
M  V30 11132 H 1075.62 4.17474 0.102502 0
M  V30 11133 N 1076.06 0.894434 1.2976 0
M  V30 11134 C 1076.99 0.3847 2.30309 0
M  V30 11135 C 1077.97 -0.537486 1.61385 0
M  V30 11136 O 1079.15 -0.449332 1.8893 0
M  V30 11137 C 1076.28 -0.393311 3.45066 0
M  V30 11138 C 1075.24 0.437968 4.25753 0
M  V30 11139 C 1074.56 -0.467221 5.32655 0
M  V30 11140 C 1075.86 1.6851 4.9437 0
M  V30 11141 H 1077.56 1.22496 2.73194 0
M  V30 11142 H 1075.1 0.590471 1.31337 0
M  V30 11143 H 1077.06 -0.760614 4.14479 0
M  V30 11144 H 1075.78 -1.2673 3.0101 0
M  V30 11145 H 1074.44 0.787533 3.58041 0
M  V30 11146 H 1074.09 -1.33919 4.84845 0
M  V30 11147 H 1073.79 0.0852482 5.87538 0
M  V30 11148 H 1075.31 -0.830833 6.04921 0
M  V30 11149 H 1076.72 1.38784 5.56248 0
M  V30 11150 H 1075.12 2.17849 5.59162 0
M  V30 11151 H 1076.19 2.42412 4.19958 0
M  V30 11152 N 1077.53 -1.43282 0.656365 0
M  V30 11153 C 1078.48 -2.32556 -0.0452037 0
M  V30 11154 C 1079.48 -1.48789 -0.80982 0
M  V30 11155 O 1080.68 -1.64979 -0.719865 0
M  V30 11156 H 1077.06 -0.751258 -0.0334043 0
M  V30 11157 H 1079.03 -2.89448 0.725423 0
M  V30 11158 C 1077.78 -3.33138 -0.995706 0
M  V30 11159 H 1077.1 -3.97622 -0.416774 0
M  V30 11160 H 1078.54 -3.98231 -1.45562 0
M  V30 11161 C 1077 -2.63978 -2.09325 0
M  V30 11162 O 1077.53 -2.45769 -3.17743 0
M  V30 11163 N 1075.74 -2.23301 -1.8597 0
M  V30 11164 H 1075.28 -2.38312 -0.97802 0
M  V30 11165 H 1075.24 -1.77358 -2.59599 0
M  V30 11166 N 1079.01 -0.398486 -1.52479 0
M  V30 11167 C 1079.95 0.467426 -2.24383 0
M  V30 11168 C 1080.96 1.01908 -1.26959 0
M  V30 11169 O 1082.15 0.919843 -1.52974 0
M  V30 11170 C 1079.25 1.66146 -2.95379 0
M  V30 11171 C 1078.42 1.23557 -4.19586 0
M  V30 11172 C 1077.48 2.29532 -4.73499 0
M  V30 11173 O 1076.51 1.90561 -5.36354 0
M  V30 11174 N 1077.71 3.61564 -4.5415 0
M  V30 11175 H 1080.47 -0.148653 -2.99331 0
M  V30 11176 H 1078.03 -0.225313 -1.60325 0
M  V30 11177 H 1080.03 2.36585 -3.28344 0
M  V30 11178 H 1078.6 2.18369 -2.23682 0
M  V30 11179 H 1077.82 0.359715 -3.92555 0
M  V30 11180 H 1079.1 0.927812 -5.00269 0
M  V30 11181 H 1078.5 3.95983 -4.03998 0
M  V30 11182 H 1077.06 4.2801 -4.9158 0
M  V30 11183 N 1080.49 1.57075 -0.12858 0
M  V30 11184 C 1081.74 1.9581 0.527868 0
M  V30 11185 C 1082.07 1.01253 1.65715 0
M  V30 11186 O 1081.35 0.0514853 1.94432 0
M  V30 11187 C 1081.63 3.44406 1.05151 0
M  V30 11188 C 1081.48 4.49737 -0.0750113 0
M  V30 11189 C 1082.8 3.95069 1.9393 0
M  V30 11190 H 1079.92 0.711978 0.19041 0
M  V30 11191 H 1082.56 1.88879 -0.206081 0
M  V30 11192 H 1080.71 3.50443 1.67697 0
M  V30 11193 H 1082.38 4.55793 -0.710685 0
M  V30 11194 H 1080.63 4.27497 -0.736809 0
M  V30 11195 H 1081.3 5.50996 0.332779 0
M  V30 11196 H 1083.77 3.91395 1.41241 0
M  V30 11197 H 1082.65 4.99542 2.27484 0
M  V30 11198 H 1082.91 3.36329 2.86941 0
M  V30 11199 N 1081.97 -0.145205 1.5693 0
M  V30 11200 C 1083.2 -0.871133 1.87336 0
M  V30 11201 C 1083.61 -1.7517 0.714992 0
M  V30 11202 O 1082.95 -1.80815 -0.324304 0
M  V30 11203 C 1083.01 -1.77775 3.12468 0
M  V30 11204 C 1082.68 -1.07416 4.44197 0
M  V30 11205 C 1083.67 -0.42722 5.18142 0
M  V30 11206 C 1081.36 -1.06313 4.9092 0
M  V30 11207 C 1083.35 0.221348 6.37016 0
M  V30 11208 C 1081.04 -0.410755 6.09718 0
M  V30 11209 C 1082.04 0.230357 6.82611 0
M  V30 11210 O 1081.73 0.872389 7.99152 0
M  V30 11211 H 1081.46 -0.257174 0.62517 0
M  V30 11212 H 1084.01 -0.142159 2.04907 0
M  V30 11213 H 1082.24 -2.54771 2.9091 0
M  V30 11214 H 1083.93 -2.37579 3.29107 0
M  V30 11215 H 1084.7 -0.427536 4.83112 0
M  V30 11216 H 1080.58 -1.55156 4.34105 0
M  V30 11217 H 1084.12 0.722349 6.9385 0
M  V30 11218 H 1080.02 -0.408112 6.44209 0
M  V30 11219 H 1080.78 0.774236 8.1483 0
M  V30 11220 N 1083.45 -1.52049 -0.414609 0
M  V30 11221 C 1084.38 -1.7122 -1.52369 0
M  V30 11222 C 1085.39 -0.592634 -1.5163 0
M  V30 11223 O 1086.58 -0.867634 -1.55995 0
M  V30 11224 C 1083.68 -1.73247 -2.91271 0
M  V30 11225 C 1082.85 -3.02153 -3.16263 0
M  V30 11226 C 1081.91 -2.96066 -4.35007 0
M  V30 11227 O 1080.94 -3.69981 -4.32554 0
M  V30 11228 N 1082.14 -2.13478 -5.39822 0
M  V30 11229 H 1084.91 -2.66902 -1.3632 0
M  V30 11230 H 1082.47 -1.50218 -0.603842 0
M  V30 11231 H 1084.46 -1.66714 -3.68766 0
M  V30 11232 H 1083.03 -0.85062 -3.00804 0
M  V30 11233 H 1082.25 -3.22379 -2.2686 0
M  V30 11234 H 1083.54 -3.87439 -3.29801 0
M  V30 11235 H 1082.94 -1.52844 -5.44661 0
M  V30 11236 H 1081.49 -2.12805 -6.16082 0
M  V30 11237 N 1084.93 0.6715 -1.42579 0
M  V30 11238 C 1086.17 1.42731 -1.42516 0
M  V30 11239 C 1086.49 1.95545 -0.0462407 0
M  V30 11240 O 1087.69 2.71391 0.0769798 0
M  V30 11241 C 1086.15 2.58215 -2.50705 0
M  V30 11242 C 1085.76 2.12086 -3.94618 0
M  V30 11243 C 1087.5 3.35705 -2.59813 0
M  V30 11244 C 1085.41 3.24672 -4.9431 0
M  V30 11245 H 1084.34 0.536218 -0.530081 0
M  V30 11246 H 1086.99 0.726655 -1.68499 0
M  V30 11247 H 1085.37 3.30665 -2.17892 0
M  V30 11248 H 1086.55 1.46768 -4.36802 0
M  V30 11249 H 1084.86 1.47526 -3.89391 0
M  V30 11250 H 1087.46 4.1956 -3.31472 0
M  V30 11251 H 1087.8 3.82517 -1.64276 0
M  V30 11252 H 1088.33 2.70326 -2.91836 0
M  V30 11253 H 1085.07 2.82848 -5.91335 0
M  V30 11254 H 1084.59 3.88761 -4.56755 0
M  V30 11255 H 1086.27 3.90088 -5.16179 0
M  V30 11256 N 1086.4 1.28806 0.908124 0
M  V30 11257 C 1087.34 1.07538 2.01273 0
M  V30 11258 C 1088.31 -0.0102454 1.62597 0
M  V30 11259 O 1089.5 0.138797 1.87988 0
M  V30 11260 C 1086.63 0.635337 3.32688 0
M  V30 11261 C 1085.67 1.71843 3.90349 0
M  V30 11262 S 1086.5 3.31571 4.20501 0
M  V30 11263 C 1087.66 2.89416 5.54968 0
M  V30 11264 H 1087.89 2.01058 2.19005 0
M  V30 11265 H 1085.43 1.12857 1.05369 0
M  V30 11266 H 1087.38 0.388159 4.08661 0
M  V30 11267 H 1086.05 -0.280122 3.12848 0
M  V30 11268 H 1085.24 1.36228 4.8524 0
M  V30 11269 H 1084.84 1.91869 3.21033 0
M  V30 11270 H 1087.13 2.35936 6.35091 0
M  V30 11271 H 1088.08 3.83126 5.955 0
M  V30 11272 H 1088.48 2.27962 5.16424 0
M  V30 11273 N 1087.88 -1.11734 1.11145 0
M  V30 11274 C 1089.11 -1.86943 0.879534 0
M  V30 11275 C 1089.52 -1.80283 -0.574007 0
M  V30 11276 O 1088.86 -1.17998 -1.40791 0
M  V30 11277 C 1088.92 -3.36738 1.25887 0
M  V30 11278 C 1088.59 -3.67169 2.72095 0
M  V30 11279 C 1089.59 -3.6491 3.7032 0
M  V30 11280 C 1087.27 -3.96272 3.08665 0
M  V30 11281 C 1089.26 -3.91325 5.03134 0
M  V30 11282 C 1086.95 -4.22345 4.41665 0
M  V30 11283 C 1087.95 -4.19859 5.38709 0
M  V30 11284 O 1087.64 -4.4528 6.69314 0
M  V30 11285 H 1087.37 -0.598117 0.315011 0
M  V30 11286 H 1089.92 -1.42253 1.48166 0
M  V30 11287 H 1088.15 -3.82019 0.599873 0
M  V30 11288 H 1089.84 -3.93306 1.00325 0
M  V30 11289 H 1090.61 -3.42481 3.43412 0
M  V30 11290 H 1086.49 -3.97344 2.33749 0
M  V30 11291 H 1090.03 -3.893 5.78871 0
M  V30 11292 H 1085.93 -4.4425 4.68308 0
M  V30 11293 H 1086.7 -4.62863 6.75056 0
M  V30 11294 N 1089.36 -0.901303 -1.29284 0
M  V30 11295 C 1090.61 -0.52401 -1.94774 0
M  V30 11296 C 1090.92 0.934645 -1.71825 0
M  V30 11297 O 1092.13 1.41953 -2.31434 0
M  V30 11298 C 1090.58 -0.886262 -3.48817 0
M  V30 11299 C 1090.19 -2.3638 -3.80564 0
M  V30 11300 C 1091.94 -0.578955 -4.20533 0
M  V30 11301 C 1089.84 -2.66682 -5.27858 0
M  V30 11302 H 1088.77 -0.192244 -0.72908 0
M  V30 11303 H 1091.42 -1.09852 -1.46986 0
M  V30 11304 H 1089.81 -0.240666 -3.95268 0
M  V30 11305 H 1090.98 -3.05508 -3.44966 0
M  V30 11306 H 1089.29 -2.64029 -3.2199 0
M  V30 11307 H 1091.89 -0.782185 -5.28948 0
M  V30 11308 H 1092.23 0.482605 -4.13493 0
M  V30 11309 H 1092.77 -1.18246 -3.79819 0
M  V30 11310 H 1089.51 -3.71643 -5.39965 0
M  V30 11311 H 1089.03 -2.02179 -5.64698 0
M  V30 11312 H 1090.71 -2.53033 -5.95469 0
M  V30 11313 N 1090.84 1.42931 -0.663954 0
M  V30 11314 C 1092.25 1.84877 -0.260283 0
M  V30 11315 C 1092.6 1.5558 1.19538 0
M  V30 11316 O 1091.72 1.01015 1.91377 0
M  V30 11317 C 1092.32 3.35585 -0.465618 0
M  V30 11318 C 1090.88 3.76221 -0.116169 0
M  V30 11319 C 1090.03 2.66587 -0.763317 0
M  V30 11320 H 1092.98 1.32932 -0.866882 0
M  V30 11321 H 1093 3.79427 0.285608 0
M  V30 11322 H 1092.51 3.56877 -1.52515 0
M  V30 11323 H 1090.61 3.60539 0.940342 0
M  V30 11324 H 1090.72 4.75943 -0.549123 0
M  V30 11325 H 1089.09 2.53948 -0.19559 0
M  V30 11326 H 1089.87 2.90704 -1.82609 0
M  V30 11327 N 1092.32 0.406567 1.52266 0
M  V30 11328 C 1093.73 -0.063607 1.86592 0
M  V30 11329 C 1094.08 -1.4466 1.32544 0
M  V30 11330 O 1093.2 -2.05971 0.663692 0
M  V30 11331 C 1093.8 -0.122198 3.3858 0
M  V30 11332 C 1092.36 -0.536701 3.72554 0
M  V30 11333 C 1091.5 0.290422 2.75775 0
M  V30 11334 H 1094.45 0.623738 1.45929 0
M  V30 11335 H 1094.48 -0.937964 3.68758 0
M  V30 11336 H 1093.99 0.884495 3.77887 0
M  V30 11337 H 1092.09 -1.55013 3.38824 0
M  V30 11338 H 1092.2 -0.282867 4.78264 0
M  V30 11339 H 1090.57 -0.246864 2.53501 0
M  V30 11340 H 1091.35 1.29541 3.17921 0
M  V30 11341 N 1093.79 -1.57004 0.136909 0
M  V30 11342 C 1095.04 -1.9541 -0.51569 0
M  V30 11343 C 1095.36 -1.02219 -1.66061 0
M  V30 11344 O 1094.63 -0.0818172 -1.95729 0
M  V30 11345 H 1093.21 -0.721504 -0.193497 0
M  V30 11346 H 1095.88 -1.93765 0.210046 0
M  V30 11347 H 1094.97 -2.98887 -0.898494 0
M  V30 11348 N 1095.27 0.136881 -1.57004 0
M  V30 11349 C 1096.24 1.15267 -1.98106 0
M  V30 11350 C 1097.24 1.35305 -0.868856 0
M  V30 11351 O 1098.43 1.32126 -1.13527 0
M  V30 11352 C 1095.56 2.51092 -2.30577 0
M  V30 11353 H 1096.75 0.799821 -2.89038 0
M  V30 11354 H 1094.3 0.380576 -1.51596 0
M  V30 11355 H 1095.04 2.9133 -1.42469 0
M  V30 11356 H 1094.82 2.37906 -3.11678 0
M  V30 11357 H 1096.31 3.24232 -2.63179 0
M  V30 11358 N 1096.75 1.52266 0.40654 0
M  V30 11359 C 1098.16 1.58587 0.985241 0
M  V30 11360 C 1098.51 0.427955 1.91476 0
M  V30 11361 O 1097.64 -0.451341 2.11641 0
M  V30 11362 C 1098.23 2.87426 1.79365 0
M  V30 11363 C 1096.79 2.96217 2.32233 0
M  V30 11364 C 1095.94 2.53548 1.12288 0
M  V30 11365 H 1098.89 1.57598 0.186685 0
M  V30 11366 H 1098.91 2.72925 2.65127 0
M  V30 11367 H 1098.42 3.71682 1.11687 0
M  V30 11368 H 1096.52 2.1646 3.03275 0
M  V30 11369 H 1096.64 4.00511 2.62922 0
M  V30 11370 H 1095 2.07457 1.47763 0
M  V30 11371 H 1095.78 3.40181 0.461731 0
M  V30 11372 N 1098.23 -0.663929 1.42933 0
M  V30 11373 C 1099.48 -1.41973 1.43271 0
M  V30 11374 C 1099.79 -1.95518 0.0566103 0
M  V30 11375 O 1101 -2.71428 -0.0625862 0
M  V30 11376 C 1099.45 -2.56882 2.52071 0
M  V30 11377 C 1099.06 -2.0999 3.95737 0
M  V30 11378 C 1100.8 -3.34322 2.61589 0
M  V30 11379 C 1098.71 -3.22046 4.96025 0
M  V30 11380 H 1097.64 -0.5334 0.532917 0
M  V30 11381 H 1100.29 -0.717709 1.68882 0
M  V30 11382 H 1098.67 -3.29504 2.19643 0
M  V30 11383 H 1099.85 -1.44449 4.37574 0
M  V30 11384 H 1098.16 -1.45459 3.90168 0
M  V30 11385 H 1100.76 -4.17796 3.33692 0
M  V30 11386 H 1101.1 -3.8164 1.66302 0
M  V30 11387 H 1101.64 -2.68775 2.93266 0
M  V30 11388 H 1098.38 -2.79708 5.92827 0
M  V30 11389 H 1097.9 -3.86333 4.5881 0
M  V30 11390 H 1099.57 -3.87345 5.1824 0
M  V30 11391 N 1099.71 -1.29285 -0.901281 0
M  V30 11392 C 1101.12 -1.15499 -1.46686 0
M  V30 11393 C 1101.47 0.250446 -1.94595 0
M  V30 11394 O 1100.59 1.14581 -1.83576 0
M  V30 11395 C 1101.19 -2.0906 -2.66607 0
M  V30 11396 C 1099.75 -1.99301 -3.19306 0
M  V30 11397 C 1098.89 -2.00079 -1.91999 0
M  V30 11398 H 1101.85 -1.41793 -0.712773 0
M  V30 11399 H 1101.87 -1.6619 -3.42288 0
M  V30 11400 H 1101.38 -3.11341 -2.31707 0
M  V30 11401 H 1099.48 -1.00103 -3.58901 0
M  V30 11402 H 1099.59 -2.86885 -3.8371 0
M  V30 11403 H 1097.96 -1.44655 -2.09636 0
M  V30 11404 H 1098.74 -3.04061 -1.59379 0
M  V30 11405 N 1101.18 1.11143 -1.11736 0
M  V30 11406 C 1102.43 1.82586 -0.866412 0
M  V30 11407 C 1102.75 1.85227 0.609593 0
M  V30 11408 O 1102.02 1.32505 1.44288 0
M  V30 11409 H 1100.6 0.676149 -0.31754 0
M  V30 11410 H 1103.27 1.34516 -1.41037 0
M  V30 11411 H 1102.36 2.8635 -1.24136 0
M  V30 11412 N 1102.66 0.908147 1.28804 0
M  V30 11413 C 1103.61 0.390734 2.27468 0
M  V30 11414 C 1104.58 -0.531765 1.57358 0
M  V30 11415 O 1105.76 -0.455177 1.85291 0
M  V30 11416 C 1102.9 -0.368159 3.43131 0
M  V30 11417 C 1102.02 0.586202 4.28004 0
M  V30 11418 C 1101.15 -0.190581 5.30858 0
M  V30 11419 C 1100.19 0.757758 6.07391 0
M  V30 11420 N 1099.33 0.0148488 7.02098 0
M  V30 11421 H 1104.17 1.23717 2.71105 0
M  V30 11422 H 1101.71 0.621382 1.33331 0
M  V30 11423 H 1103.66 -0.824289 4.08976 0
M  V30 11424 H 1102.29 -1.17898 3.00499 0
M  V30 11425 H 1101.35 1.16086 3.62254 0
M  V30 11426 H 1102.66 1.31177 4.81242 0
M  V30 11427 H 1101.81 -0.707528 6.0256 0
M  V30 11428 H 1100.55 -0.949234 4.78373 0
M  V30 11429 H 1099.56 1.28613 5.34545 0
M  V30 11430 H 1100.78 1.51588 6.61965 0
M  V30 11431 H 1098.73 -0.725916 6.51971 0
M  V30 11432 H 1098.64 0.680347 7.52932 0
M  V30 11433 H 1099.91 -0.482086 7.78008 0
M  V30 11434 N 1104.14 -1.42577 0.671525 0
M  V30 11435 C 1105.39 -2.02401 0.201384 0
M  V30 11436 C 1105.74 -1.52133 -1.17786 0
M  V30 11437 O 1105.03 -0.712405 -1.77863 0
M  V30 11438 C 1105.23 -3.56985 0.172097 0
M  V30 11439 C 1105.06 -4.22255 1.54696 0
M  V30 11440 C 1103.83 -4.57564 2.14391 0
M  V30 11441 C 1106.03 -4.5006 2.48899 0
M  V30 11442 N 1104.01 -5.07997 3.44692 0
M  V30 11443 C 1105.38 -5.02008 3.63851 0
M  V30 11444 C 1107.43 -4.32045 2.47471 0
M  V30 11445 C 1106.14 -5.37837 4.77624 0
M  V30 11446 C 1108.16 -4.68947 3.60337 0
M  V30 11447 C 1107.52 -5.21045 4.74016 0
M  V30 11448 H 1103.62 -0.772963 0.118539 0
M  V30 11449 H 1106.21 -1.73485 0.883802 0
M  V30 11450 H 1104.38 -3.85426 -0.479723 0
M  V30 11451 H 1106.11 -4.03506 -0.31062 0
M  V30 11452 H 1102.87 -4.43212 1.66913 0
M  V30 11453 H 1103.29 -5.37647 4.11418 0
M  V30 11454 H 1107.93 -3.91024 1.60811 0
M  V30 11455 H 1105.65 -5.77792 5.64962 0
M  V30 11456 H 1109.24 -4.56687 3.60455 0
M  V30 11457 H 1108.12 -5.49067 5.59906 0
M  V30 11458 N 1105.62 -0.414636 -1.52048 0
M  V30 11459 C 1106.57 0.422766 -2.28726 0
M  V30 11460 C 1107.56 1.04099 -1.3364 0
M  V30 11461 O 1108.77 0.978559 -1.51077 0
M  V30 11462 H 1105.14 0.155123 -0.735827 0
M  V30 11463 H 1107.11 -0.245091 -2.97392 0
M  V30 11464 C 1105.86 1.52418 -3.12513 0
M  V30 11465 H 1105.18 1.05781 -3.85552 0
M  V30 11466 H 1106.62 2.08382 -3.6926 0
M  V30 11467 C 1105.08 2.49465 -2.26426 0
M  V30 11468 O 1105.61 3.53479 -1.90829 0
M  V30 11469 N 1103.82 2.19806 -1.90088 0
M  V30 11470 H 1103.37 1.35253 -2.19236 0
M  V30 11471 H 1103.32 2.84984 -1.32783 0
M  V30 11472 N 1107.1 1.56929 -0.145233 0
M  V30 11473 C 1108.37 1.8767 0.551288 0
M  V30 11474 C 1108.75 1.05089 1.83083 0
M  V30 11475 O 1108.1 0.137201 2.28088 0
M  V30 11476 C 1108.31 3.39268 0.818445 0
M  V30 11477 C 1109.66 4.08447 1.16 0
M  V30 11478 O 1110.68 3.44436 0.907857 0
M  V30 11479 O 1109.54 5.21488 1.63441 0
M  V30 11480 H 1106.64 0.777788 0.281024 0
M  V30 11481 H 1109.18 1.68724 -0.181712 0
M  V30 11482 H 1107.95 3.91203 -0.0871897 0
M  V30 11483 H 1107.58 3.63735 1.60569 0
M  V30 11484 N 1108.58 -0.128553 1.57075 0
M  V30 11485 C 1109.81 -0.851214 1.8825 0
M  V30 11486 C 1110.21 -1.74402 0.733531 0
M  V30 11487 O 1109.56 -1.81149 -0.305108 0
M  V30 11488 C 1109.62 -1.74451 3.14336 0
M  V30 11489 C 1109.28 -1.02699 4.45311 0
M  V30 11490 C 1110.28 -0.37224 5.18566 0
M  V30 11491 C 1107.96 -1.01101 4.9202 0
M  V30 11492 C 1109.96 0.2889 6.36745 0
M  V30 11493 C 1107.65 -0.346063 6.10119 0
M  V30 11494 C 1108.64 0.302744 6.82329 0
M  V30 11495 O 1108.33 0.9571 7.98182 0
M  V30 11496 H 1108.06 -0.250529 0.627863 0
M  V30 11497 H 1110.62 -0.120418 2.05047 0
M  V30 11498 H 1108.85 -2.51671 2.93596 0
M  V30 11499 H 1110.54 -2.34075 3.31608 0
M  V30 11500 H 1111.3 -0.376271 4.83538 0
M  V30 11501 H 1107.18 -1.50543 4.35727 0
M  V30 11502 H 1110.73 0.795901 6.93045 0
M  V30 11503 H 1106.62 -0.339762 6.44605 0
M  V30 11504 H 1107.39 0.860616 8.13963 0
M  V30 11505 N 1110.05 -1.5248 -0.398459 0
M  V30 11506 C 1111.28 -1.70925 -1.16586 0
M  V30 11507 C 1111.7 -0.42342 -1.83991 0
M  V30 11508 O 1111.05 0.601395 -1.72306 0
M  V30 11509 C 1111.1 -2.85226 -2.22099 0
M  V30 11510 O 1110.83 -4.08831 -1.57444 0
M  V30 11511 C 1112.33 -3.15272 -3.11639 0
M  V30 11512 H 1109.55 -0.572533 -0.349924 0
M  V30 11513 H 1112.09 -1.99087 -0.467416 0
M  V30 11514 H 1110.25 -2.59553 -2.87595 0
M  V30 11515 H 1110.66 -4.72603 -2.2748 0
M  V30 11516 H 1112.13 -3.98737 -3.81724 0
M  V30 11517 H 1112.61 -2.29262 -3.74614 0
M  V30 11518 H 1113.22 -3.42749 -2.518 0
M  V30 11519 N 1111.53 0.65634 -1.43283 0
M  V30 11520 C 1112.78 1.41674 -1.45946 0
M  V30 11521 C 1113.13 1.92228 -0.0812633 0
M  V30 11522 O 1112.43 1.69167 0.899607 0
M  V30 11523 C 1112.62 2.61688 -2.43421 0
M  V30 11524 C 1112.45 2.2288 -3.90583 0
M  V30 11525 C 1111.22 2.11355 -4.58974 0
M  V30 11526 C 1113.42 1.83361 -4.80503 0
M  V30 11527 N 1111.4 1.65844 -5.91074 0
M  V30 11528 C 1112.77 1.48909 -6.01852 0
M  V30 11529 C 1114.82 1.70517 -4.67791 0
M  V30 11530 C 1113.53 1.02899 -7.11902 0
M  V30 11531 C 1115.55 1.25912 -5.77841 0
M  V30 11532 C 1114.92 0.923948 -6.98314 0
M  V30 11533 H 1111.01 0.514195 -0.589175 0
M  V30 11534 H 1113.6 0.755591 -1.79441 0
M  V30 11535 H 1111.77 3.25466 -2.11958 0
M  V30 11536 H 1113.5 3.28374 -2.36542 0
M  V30 11537 H 1110.26 2.31014 -4.13436 0
M  V30 11538 H 1110.68 1.45459 -6.61189 0
M  V30 11539 H 1115.32 1.9507 -3.7511 0
M  V30 11540 H 1113.04 0.770942 -8.04414 0
M  V30 11541 H 1116.63 1.16468 -5.70023 0
M  V30 11542 H 1115.51 0.584057 -7.82022 0
M  V30 11543 N 1113.01 1.29761 0.894412 0
M  V30 11544 C 1113.94 1.1115 2.00445 0
M  V30 11545 C 1114.95 0.0574655 1.62699 0
M  V30 11546 O 1116.14 0.302528 1.75918 0
M  V30 11547 C 1113.24 0.670984 3.32191 0
M  V30 11548 C 1112.42 1.80471 3.98433 0
M  V30 11549 C 1111.48 1.35431 5.08473 0
M  V30 11550 O 1110.5 2.05994 5.30618 0
M  V30 11551 N 1111.7 0.22811 5.80052 0
M  V30 11552 H 1114.47 2.06753 2.16964 0
M  V30 11553 H 1112.03 1.21772 1.06692 0
M  V30 11554 H 1114.02 0.352877 4.03159 0
M  V30 11555 H 1112.59 -0.192735 3.12005 0
M  V30 11556 H 1111.81 2.29142 3.20761 0
M  V30 11557 H 1113.1 2.56471 4.39431 0
M  V30 11558 H 1112.5 -0.360076 5.64553 0
M  V30 11559 H 1111.05 -0.0305985 6.51793 0
M  V30 11560 N 1114.49 -1.10549 1.12324 0
M  V30 11561 C 1115.72 -1.8627 0.900618 0
M  V30 11562 C 1116.13 -1.80609 -0.550069 0
M  V30 11563 O 1115.49 -1.19396 -1.38025 0
M  V30 11564 C 1115.54 -3.34716 1.36556 0
M  V30 11565 O 1115.26 -3.40279 2.75938 0
M  V30 11566 C 1116.76 -4.27315 1.17969 0
M  V30 11567 H 1113.98 -0.588741 0.321908 0
M  V30 11568 H 1116.52 -1.39759 1.49291 0
M  V30 11569 H 1114.68 -3.78697 0.81652 0
M  V30 11570 H 1115.09 -4.32781 2.96312 0
M  V30 11571 H 1116.57 -5.29677 1.55391 0
M  V30 11572 H 1117.04 -4.39036 0.120158 0
M  V30 11573 H 1117.65 -3.89137 1.71617 0
M  V30 11574 N 1115.97 -0.914965 -1.28321 0
M  V30 11575 C 1117.19 -0.564023 -1.99583 0
M  V30 11576 C 1117.62 0.847821 -1.6791 0
M  V30 11577 O 1116.97 1.56682 -0.912171 0
M  V30 11578 C 1117.02 -0.781368 -3.52033 0
M  V30 11579 O 1116.13 0.159072 -4.12093 0
M  V30 11580 H 1115.47 -0.218565 -0.626997 0
M  V30 11581 H 1118 -1.23074 -1.63444 0
M  V30 11582 H 1118.01 -0.691946 -4.0209 0
M  V30 11583 H 1116.68 -1.81059 -3.7442 0
M  V30 11584 H 1115.26 0.0208145 -3.72894 0
M  V30 11585 N 1117.44 1.42219 -0.679077 0
M  V30 11586 C 1118.67 2.06333 -0.210097 0
M  V30 11587 C 1119.09 1.50703 1.12562 0
M  V30 11588 O 1118.45 0.627241 1.70104 0
M  V30 11589 C 1118.5 3.60243 -0.160322 0
M  V30 11590 O 1117.6 4.03122 0.869872 0
M  V30 11591 H 1116.94 0.655362 -0.106754 0
M  V30 11592 H 1119.47 1.82278 -0.929294 0
M  V30 11593 H 1119.48 4.07997 0.014384 0
M  V30 11594 H 1118.16 4.00106 -1.13526 0
M  V30 11595 H 1116.74 3.66907 0.66586 0
M  V30 11596 N 1118.92 0.422693 1.51826 0
M  V30 11597 C 1119.87 -0.41063 2.28947 0
M  V30 11598 C 1120.86 -1.03389 1.34191 0
M  V30 11599 O 1122.07 -0.970533 1.51594 0
M  V30 11600 H 1118.44 -0.151219 0.736639 0
M  V30 11601 H 1120.42 0.260859 2.97258 0
M  V30 11602 C 1119.16 -1.50758 3.13317 0
M  V30 11603 H 1118.49 -1.03734 3.86108 0
M  V30 11604 H 1119.93 -2.0642 3.7036 0
M  V30 11605 C 1118.39 -2.48261 2.27746 0
M  V30 11606 O 1118.92 -3.52462 1.92701 0
M  V30 11607 N 1117.12 -2.18795 1.91251 0
M  V30 11608 H 1116.67 -1.34088 2.1995 0
M  V30 11609 H 1116.63 -2.84276 1.34293 0
M  V30 11610 N 1120.4 -1.5685 0.153553 0
M  V30 11611 C 1121.81 -1.83074 -0.36618 0
M  V30 11612 C 1122.16 -1.07257 -1.64288 0
M  V30 11613 O 1121.29 -0.319925 -2.14022 0
M  V30 11614 C 1121.88 -3.32086 -0.671142 0
M  V30 11615 C 1120.44 -3.58868 -1.13537 0
M  V30 11616 C 1119.59 -2.76827 -0.161887 0
M  V30 11617 H 1122.54 -1.54129 0.378139 0
M  V30 11618 H 1122.56 -3.48598 -1.52512 0
M  V30 11619 H 1122.07 -3.8724 0.258234 0
M  V30 11620 H 1120.17 -3.09107 -2.08047 0
M  V30 11621 H 1120.29 -4.67299 -1.05682 0
M  V30 11622 H 1118.65 -2.46112 -0.6558 0
M  V30 11623 H 1119.43 -3.34755 0.761195 0
M  V30 11624 N 1121.88 0.120221 -1.57141 0
M  V30 11625 C 1123.1 0.84637 -1.89344 0
M  V30 11626 C 1123.53 1.72702 -0.745365 0
M  V30 11627 O 1122.89 1.7873 0.304155 0
M  V30 11628 C 1122.93 1.65671 -3.20289 0
M  V30 11629 O 1122.04 2.76353 -3.06109 0
M  V30 11630 H 1121.38 0.234132 -0.621352 0
M  V30 11631 H 1123.91 0.102986 -2.04341 0
M  V30 11632 H 1123.92 2.04621 -3.52979 0
M  V30 11633 H 1122.59 1.01023 -4.03444 0
M  V30 11634 H 1121.17 2.40615 -2.84884 0
M  V30 11635 N 1123.36 1.52689 0.390367 0
M  V30 11636 C 1124.6 1.67914 1.13722 0
M  V30 11637 C 1124.94 0.417159 1.89667 0
M  V30 11638 O 1124.21 -0.585005 1.85494 0
M  V30 11639 C 1124.49 2.91331 2.11656 0
M  V30 11640 C 1124.35 4.27626 1.39484 0
M  V30 11641 C 1125.67 3.10293 3.12099 0
M  V30 11642 H 1122.78 0.611047 0.412057 0
M  V30 11643 H 1125.43 1.85283 0.420753 0
M  V30 11644 H 1123.58 2.76654 2.72754 0
M  V30 11645 H 1125.25 4.54068 0.813607 0
M  V30 11646 H 1123.49 4.28169 0.69669 0
M  V30 11647 H 1124.16 5.10066 2.11038 0
M  V30 11648 H 1126.64 3.23992 2.6109 0
M  V30 11649 H 1125.51 3.98127 3.7787 0
M  V30 11650 H 1125.78 2.24448 3.80888 0
M  V30 11651 N 1124.83 -0.648732 1.43629 0
M  V30 11652 C 1126.08 -1.40857 1.45483 0
M  V30 11653 C 1126.41 -1.94332 0.0807963 0
M  V30 11654 O 1125.66 -1.72999 -0.914875 0
M  V30 11655 C 1125.96 -2.60394 2.44806 0
M  V30 11656 C 1125.63 -2.25311 3.90571 0
M  V30 11657 C 1124.29 -2.15456 4.3027 0
M  V30 11658 C 1126.64 -1.97307 4.8241 0
M  V30 11659 C 1123.97 -1.75759 5.59755 0
M  V30 11660 C 1126.32 -1.59108 6.12264 0
M  V30 11661 C 1124.99 -1.47781 6.50936 0
M  V30 11662 H 1124.26 -0.515434 0.532362 0
M  V30 11663 H 1126.9 -0.737339 1.76736 0
M  V30 11664 H 1125.21 -3.3267 2.06973 0
M  V30 11665 H 1126.91 -3.18609 2.43494 0
M  V30 11666 H 1123.5 -2.33894 3.59154 0
M  V30 11667 H 1127.68 -2.0384 4.52507 0
M  V30 11668 H 1122.94 -1.65579 5.88552 0
M  V30 11669 H 1127.11 -1.36472 6.82897 0
M  V30 11670 H 1124.74 -1.16792 7.51175 0
M  V30 11671 N 1126.31 -1.30234 -0.887518 0
M  V30 11672 C 1127.54 -1.21652 -1.66986 0
M  V30 11673 C 1127.95 0.223473 -1.87876 0
M  V30 11674 O 1127.29 1.15993 -1.42448 0
M  V30 11675 C 1127.36 -1.87173 -3.06931 0
M  V30 11676 C 1127.02 -3.36496 -3.09224 0
M  V30 11677 C 1128.02 -4.3253 -2.88469 0
M  V30 11678 C 1125.7 -3.77901 -3.30902 0
M  V30 11679 C 1127.7 -5.67942 -2.89344 0
M  V30 11680 C 1125.38 -5.13432 -3.31407 0
M  V30 11681 C 1126.38 -6.08263 -3.10653 0
M  V30 11682 O 1126.07 -7.41318 -3.1097 0
M  V30 11683 H 1125.8 -0.422224 -0.527923 0
M  V30 11684 H 1128.35 -1.72349 -1.11736 0
M  V30 11685 H 1126.58 -1.31002 -3.63834 0
M  V30 11686 H 1128.27 -1.72745 -3.67306 0
M  V30 11687 H 1129.04 -4.01873 -2.7152 0
M  V30 11688 H 1124.92 -3.04534 -3.46093 0
M  V30 11689 H 1128.46 -6.41936 -2.73063 0
M  V30 11690 H 1124.36 -5.4373 -3.47891 0
M  V30 11691 H 1125.13 -7.50275 -3.27153 0
M  V30 11692 N 1127.79 1.09952 -1.12909 0
M  V30 11693 C 1129.02 1.8579 -0.910483 0
M  V30 11694 C 1129.43 1.80898 0.540484 0
M  V30 11695 O 1128.79 1.20126 1.3739 0
M  V30 11696 C 1128.84 3.33987 -1.38329 0
M  V30 11697 O 1128.56 3.38811 -2.77739 0
M  V30 11698 C 1130.06 4.26683 -1.20234 0
M  V30 11699 H 1127.28 0.587026 -0.325025 0
M  V30 11700 H 1129.83 1.38965 -1.5003 0
M  V30 11701 H 1127.98 3.78259 -0.836592 0
M  V30 11702 H 1128.4 4.31204 -2.98603 0
M  V30 11703 H 1129.87 5.28846 -1.58197 0
M  V30 11704 H 1130.35 4.38966 -0.14344 0
M  V30 11705 H 1130.95 3.88221 -1.73679 0
M  V30 11706 N 1129.27 0.921757 1.27833 0
M  V30 11707 C 1130.5 0.574368 1.98455 0
M  V30 11708 C 1130.91 -0.850577 1.69002 0
M  V30 11709 O 1130.25 -1.57607 0.943708 0
M  V30 11710 C 1130.31 0.713235 3.52354 0
M  V30 11711 C 1129.98 2.1092 4.05415 0
M  V30 11712 C 1130.97 3.08276 4.18643 0
M  V30 11713 C 1128.66 2.42454 4.3991 0
M  V30 11714 C 1130.65 4.35279 4.6563 0
M  V30 11715 C 1128.34 3.69694 4.8659 0
M  V30 11716 C 1129.34 4.6592 4.99407 0
M  V30 11717 O 1129.02 5.90896 5.45066 0
M  V30 11718 H 1128.76 0.216955 0.640239 0
M  V30 11719 H 1131.31 1.23932 1.63798 0
M  V30 11720 H 1129.54 -0.00881115 3.86699 0
M  V30 11721 H 1131.23 0.371776 4.04194 0
M  V30 11722 H 1132 2.85234 3.92258 0
M  V30 11723 H 1127.87 1.68303 4.2918 0
M  V30 11724 H 1131.42 5.10391 4.75549 0
M  V30 11725 H 1127.32 3.92557 5.12415 0
M  V30 11726 H 1128.08 5.938 5.63333 0
M  V30 11727 N 1130.75 -1.41857 0.686609 0
M  V30 11728 C 1131.99 -2.0097 0.213378 0
M  V30 11729 C 1132.32 -1.54618 -1.1882 0
M  V30 11730 O 1131.59 -0.772916 -1.80008 0
M  V30 11731 H 1130.17 -0.743134 0.0758968 0
M  V30 11732 H 1132.83 -1.73609 0.885763 0
M  V30 11733 H 1131.92 -3.11296 0.223826 0
M  V30 11734 N 1132.22 -0.430739 -1.51599 0
M  V30 11735 C 1133.19 0.372319 -2.26156 0
M  V30 11736 C 1134.19 0.955338 -1.29344 0
M  V30 11737 O 1135.38 0.830823 -1.53111 0
M  V30 11738 C 1132.51 1.52613 -3.04831 0
M  V30 11739 H 1133.7 -0.280996 -2.98581 0
M  V30 11740 H 1131.26 -0.183749 -1.55216 0
M  V30 11741 H 1131.99 2.21569 -2.36807 0
M  V30 11742 H 1131.78 1.11433 -3.75932 0
M  V30 11743 H 1133.27 2.09366 -3.61325 0
M  V30 11744 N 1133.7 1.56767 -0.161869 0
M  V30 11745 C 1135.11 1.83265 0.356466 0
M  V30 11746 C 1135.46 1.08127 1.63716 0
M  V30 11747 O 1134.59 0.33127 2.13849 0
M  V30 11748 C 1135.18 3.32437 0.653521 0
M  V30 11749 C 1133.74 3.59465 1.11633 0
M  V30 11750 C 1132.89 2.76909 0.147204 0
M  V30 11751 H 1135.84 1.53926 -0.386308 0
M  V30 11752 H 1135.86 3.49401 1.50662 0
M  V30 11753 H 1135.37 3.87098 -0.278766 0
M  V30 11754 H 1133.48 3.10206 2.06404 0
M  V30 11755 H 1133.59 4.67853 1.03202 0
M  V30 11756 H 1131.95 2.46457 0.642739 0
M  V30 11757 H 1132.74 3.34346 -0.778938 0
M  V30 11758 N 1135.18 -0.111886 1.57202 0
M  V30 11759 C 1136.59 -0.668261 1.74331 0
M  V30 11760 C 1136.94 -1.79959 0.781609 0
M  V30 11761 O 1136.07 -2.16356 -0.043833 0
M  V30 11762 C 1136.66 -1.219 3.1611 0
M  V30 11763 C 1135.22 -1.7216 3.34721 0
M  V30 11764 C 1134.37 -0.624223 2.70183 0
M  V30 11765 H 1137.32 0.114081 1.58289 0
M  V30 11766 H 1137.34 -2.08858 3.18054 0
M  V30 11767 H 1136.85 -0.395381 3.86081 0
M  V30 11768 H 1134.95 -2.56976 2.69803 0
M  V30 11769 H 1135.07 -1.82615 4.42932 0
M  V30 11770 H 1133.43 -1.05958 2.31614 0
M  V30 11771 H 1134.21 0.188537 3.42782 0
M  V30 11772 N 1136.66 -1.52894 -0.382264 0
M  V30 11773 C 1137.62 -1.77497 -1.45008 0
M  V30 11774 C 1138.62 -0.64509 -1.47293 0
M  V30 11775 O 1139.81 -0.913192 -1.48346 0
M  V30 11776 C 1136.94 -1.88188 -2.8425 0
M  V30 11777 H 1138.14 -2.72849 -1.24473 0
M  V30 11778 H 1135.69 -1.43717 -0.61441 0
M  V30 11779 H 1136.42 -0.948451 -3.10121 0
M  V30 11780 H 1136.21 -2.70353 -2.83992 0
M  V30 11781 H 1137.7 -2.08873 -3.6161 0
M  V30 11782 N 1138.14 0.641106 -1.43971 0
M  V30 11783 C 1139.55 0.958161 -1.27638 0
M  V30 11784 C 1139.75 2.00456 -0.204885 0
M  V30 11785 O 1138.81 2.49106 0.412606 0
M  V30 11786 C 1140.12 1.43091 -2.64472 0
M  V30 11787 C 1141.67 1.54692 -2.72102 0
M  V30 11788 C 1142.15 2.05353 -4.09382 0
M  V30 11789 N 1143.64 2.12638 -4.11509 0
M  V30 11790 C 1144.37 2.52987 -5.14573 0
M  V30 11791 N 1143.87 2.92544 -6.28005 0
M  V30 11792 N 1145.66 2.53033 -5.01927 0
M  V30 11793 H 1137.81 -0.0510973 -2.12339 0
M  V30 11794 H 1140.07 0.039748 -0.947166 0
M  V30 11795 H 1139.78 0.736389 -3.43904 0
M  V30 11796 H 1139.65 2.40375 -2.90688 0
M  V30 11797 H 1142.04 2.23242 -1.92994 0
M  V30 11798 H 1142.12 0.558083 -2.49638 0
M  V30 11799 H 1141.77 1.37401 -4.88962 0
M  V30 11800 H 1141.7 3.0509 -4.29218 0
M  V30 11801 H 1144.19 1.84792 -3.29636 0
M  V30 11802 H 1144.5 3.22116 -7.02468 0
M  V30 11803 H 1142.85 2.90319 -6.31458 0
M  V30 11804 H 1146.04 2.21514 -4.1237 0
M  V30 11805 H 1146.21 2.84155 -5.82375 0
M  V30 11806 N 1139.62 1.30703 0.880598 0
M  V30 11807 C 1140.86 1.19142 1.62752 0
M  V30 11808 C 1141.18 -0.251795 1.93973 0
M  V30 11809 O 1142.38 -0.488971 2.67061 0
M  V30 11810 C 1140.84 2.08503 2.93351 0
M  V30 11811 C 1140.45 3.57758 2.69653 0
M  V30 11812 C 1142.19 2.05715 3.71324 0
M  V30 11813 C 1140.1 4.39161 3.96096 0
M  V30 11814 H 1139.03 0.442332 0.610622 0
M  V30 11815 H 1141.68 1.55483 0.974547 0
M  V30 11816 H 1140.06 1.65049 3.59965 0
M  V30 11817 H 1141.24 4.09388 2.11513 0
M  V30 11818 H 1139.55 3.62414 2.0505 0
M  V30 11819 H 1142.15 2.63783 4.65105 0
M  V30 11820 H 1142.49 1.04168 4.03057 0
M  V30 11821 H 1143.02 2.47313 3.11579 0
M  V30 11822 H 1139.76 5.4142 3.69519 0
M  V30 11823 H 1139.28 3.92293 4.53725 0
M  V30 11824 H 1140.96 4.50823 4.64077 0
M  V30 11825 N 1141.09 -1.09351 1.1349 0
M  V30 11826 C 1142.32 -1.85844 0.92069 0
M  V30 11827 C 1142.74 -1.80616 -0.525303 0
M  V30 11828 O 1142.1 -1.1842 -1.37282 0
M  V30 11829 C 1142.15 -3.31716 1.4141 0
M  V30 11830 O 1141.25 -4.08014 0.599838 0
M  V30 11831 H 1140.59 -0.576242 0.32991 0
M  V30 11832 H 1143.12 -1.38084 1.50976 0
M  V30 11833 H 1143.13 -3.82564 1.41805 0
M  V30 11834 H 1141.81 -3.34837 2.46692 0
M  V30 11835 H 1140.39 -3.66944 0.663816 0
M  V30 11836 N 1142.57 -0.928524 -1.27343 0
M  V30 11837 C 1143.82 -0.570235 -1.94618 0
M  V30 11838 C 1144.15 0.886381 -1.72792 0
M  V30 11839 O 1143.43 1.63242 -1.05747 0
M  V30 11840 C 1143.71 -0.897964 -3.48724 0
M  V30 11841 C 1143.56 -2.40839 -3.7989 0
M  V30 11842 C 1144.88 -0.404429 -4.38238 0
M  V30 11843 H 1142 -0.208645 -0.70685 0
M  V30 11844 H 1144.64 -1.16045 -1.50444 0
M  V30 11845 H 1142.79 -0.395679 -3.8648 0
M  V30 11846 H 1144.46 -2.98243 -3.51921 0
M  V30 11847 H 1142.71 -2.85723 -3.26412 0
M  V30 11848 H 1143.38 -2.58823 -4.8756 0
M  V30 11849 H 1145.85 -0.834918 -4.07637 0
M  V30 11850 H 1144.73 -0.662684 -5.44885 0
M  V30 11851 H 1144.99 0.695507 -4.36595 0
M  V30 11852 N 1144.05 1.41491 -0.694123 0
M  V30 11853 C 1145.46 1.84283 -0.299439 0
M  V30 11854 C 1145.81 1.58081 1.16211 0
M  V30 11855 O 1144.94 1.05051 1.89191 0
M  V30 11856 C 1145.53 3.34522 -0.536696 0
M  V30 11857 C 1144.09 3.7589 -0.195944 0
M  V30 11858 C 1143.24 2.64908 -0.819692 0
M  V30 11859 H 1146.19 1.31063 -0.894884 0
M  V30 11860 H 1146.21 3.79947 0.205062 0
M  V30 11861 H 1145.72 3.53561 -1.6005 0
M  V30 11862 H 1143.82 3.62452 0.863655 0
M  V30 11863 H 1143.94 4.74671 -0.649954 0
M  V30 11864 H 1142.3 2.53476 -0.249412 0
M  V30 11865 H 1143.08 2.86765 -1.88734 0
M  V30 11866 N 1145.53 0.438773 1.51369 0
M  V30 11867 C 1146.76 -0.125665 2.06217 0
M  V30 11868 C 1147.17 -1.36887 1.30609 0
M  V30 11869 O 1146.51 -1.80149 0.359433 0
M  V30 11870 C 1146.57 -0.511846 3.55838 0
M  V30 11871 C 1146.23 0.624755 4.52709 0
M  V30 11872 C 1147.23 1.49731 4.97872 0
M  V30 11873 C 1144.92 0.805895 4.95793 0
M  V30 11874 C 1146.91 2.53569 5.84792 0
M  V30 11875 C 1144.6 1.84755 5.82502 0
M  V30 11876 C 1145.6 2.71083 6.269 0
M  V30 11877 O 1145.28 3.7346 7.11887 0
M  V30 11878 H 1145.02 -0.0107227 0.675915 0
M  V30 11879 H 1147.57 0.617071 1.95912 0
M  V30 11880 H 1145.8 -1.30731 3.63932 0
M  V30 11881 H 1147.49 -1.0076 3.93195 0
M  V30 11882 H 1148.25 1.36891 4.65281 0
M  V30 11883 H 1144.13 0.14352 4.60777 0
M  V30 11884 H 1147.68 3.20984 6.19367 0
M  V30 11885 H 1143.57 1.97614 6.14507 0
M  V30 11886 H 1144.34 3.70058 7.30068 0
M  V30 11887 N 1147.01 -1.56678 0.170181 0
M  V30 11888 C 1148.25 -1.9714 -0.475767 0
M  V30 11889 C 1148.58 -1.05611 -1.62972 0
M  V30 11890 O 1147.86 -0.103017 -1.94227 0
M  V30 11891 C 1148.14 -3.47072 -0.959828 0
M  V30 11892 C 1148 -4.4938 0.194225 0
M  V30 11893 C 1149.31 -4.00071 -1.83387 0
M  V30 11894 H 1146.43 -0.716776 -0.171466 0
M  V30 11895 H 1149.08 -1.88266 0.256086 0
M  V30 11896 H 1147.23 -3.54766 -1.58346 0
M  V30 11897 H 1148.9 -4.53748 0.83128 0
M  V30 11898 H 1147.14 -4.25393 0.849893 0
M  V30 11899 H 1147.81 -5.51685 -0.186575 0
M  V30 11900 H 1150.29 -3.95002 -1.30815 0
M  V30 11901 H 1149.16 -5.05398 -2.14159 0
M  V30 11902 H 1149.42 -3.43819 -2.77923 0
M  V30 11903 N 1148.48 0.103547 -1.57259 0
M  V30 11904 C 1149.73 0.806979 -1.8529 0
M  V30 11905 C 1150.05 1.79679 -0.757653 0
M  V30 11906 O 1149.32 1.94695 0.216913 0
M  V30 11907 H 1147.9 0.301012 -0.683667 0
M  V30 11908 H 1150.56 0.0871886 -1.94705 0
M  V30 11909 H 1149.66 1.34275 -2.81738 0
M  V30 11910 N 1149.96 1.53094 0.37415 0
M  V30 11911 C 1151.21 1.68082 1.11495 0
M  V30 11912 C 1151.52 0.434685 1.90709 0
M  V30 11913 O 1152.73 0.464956 2.67489 0
M  V30 11914 C 1151.19 2.97101 2.03124 0
M  V30 11915 C 1150.79 4.28947 1.29262 0
M  V30 11916 C 1152.54 3.21456 2.77248 0
M  V30 11917 C 1150.44 5.4906 2.19743 0
M  V30 11918 H 1149.37 0.626238 0.419931 0
M  V30 11919 H 1152.03 1.79594 0.376588 0
M  V30 11920 H 1150.41 2.79371 2.80656 0
M  V30 11921 H 1151.58 4.57279 0.568528 0
M  V30 11922 H 1149.9 4.10968 0.670362 0
M  V30 11923 H 1152.49 4.08377 3.45155 0
M  V30 11924 H 1152.84 2.37153 3.42146 0
M  V30 11925 H 1153.37 3.3982 2.06803 0
M  V30 11926 H 1150.11 6.35815 1.59437 0
M  V30 11927 H 1149.63 5.25019 2.90027 0
M  V30 11928 H 1151.31 5.83517 2.79495 0
M  V30 11929 N 1151.44 -0.633461 1.44309 0
M  V30 11930 C 1152.4 -1.72743 1.50641 0
M  V30 11931 C 1153.4 -1.56031 0.388718 0
M  V30 11932 O 1154.59 -1.61568 0.651251 0
M  V30 11933 C 1151.72 -3.11804 1.37809 0
M  V30 11934 H 1152.92 -1.68503 2.48086 0
M  V30 11935 H 1150.47 -0.846912 1.31366 0
M  V30 11936 H 1151.21 -3.2164 0.414483 0
M  V30 11937 H 1150.99 -3.2534 2.18852 0
M  V30 11938 H 1152.48 -3.91538 1.45216 0
M  V30 11939 N 1152.92 -1.31168 -0.873655 0
M  V30 11940 C 1153.87 -1.18432 -2.00191 0
M  V30 11941 C 1154.86 -0.0934873 -1.69142 0
M  V30 11942 O 1156.07 -0.255126 -1.78183 0
M  V30 11943 H 1152.44 -0.366594 -0.656592 0
M  V30 11944 H 1154.41 -2.13896 -2.08065 0
M  V30 11945 C 1153.16 -0.904668 -3.35725 0
M  V30 11946 H 1152.48 -1.73617 -3.60135 0
M  V30 11947 H 1153.92 -0.855715 -4.15275 0
M  V30 11948 C 1152.38 0.392554 -3.34605 0
M  V30 11949 O 1152.91 1.41052 -3.76121 0
M  V30 11950 N 1151.12 0.40777 -2.87725 0
M  V30 11951 H 1150.67 -0.42112 -2.54134 0
M  V30 11952 H 1150.62 1.27564 -2.87358 0
M  V30 11953 N 1154.4 1.08748 -1.14068 0
M  V30 11954 C 1155.36 2.1375 -0.827266 0
M  V30 11955 C 1156.36 1.59936 0.166496 0
M  V30 11956 O 1157.55 1.74092 -0.0614305 0
M  V30 11957 C 1154.68 3.40106 -0.232557 0
M  V30 11958 H 1155.87 2.42985 -1.7578 0
M  V30 11959 H 1153.43 1.24402 -0.946244 0
M  V30 11960 H 1154.16 3.16503 0.706859 0
M  V30 11961 H 1153.95 3.8046 -0.948293 0
M  V30 11962 H 1155.44 4.17589 -0.0303662 0
M  V30 11963 N 1155.87 0.935264 1.26849 0
M  V30 11964 C 1157.1 0.595384 1.97835 0
M  V30 11965 C 1157.51 -0.832605 1.69895 0
M  V30 11966 O 1156.86 -1.56597 0.960371 0
M  V30 11967 C 1156.92 0.750567 3.51578 0
M  V30 11968 C 1156.58 2.15208 4.03156 0
M  V30 11969 C 1157.58 3.12699 4.15349 0
M  V30 11970 C 1155.26 2.47106 4.37314 0
M  V30 11971 C 1157.26 4.40193 4.60987 0
M  V30 11972 C 1154.94 3.74834 4.82641 0
M  V30 11973 C 1155.94 4.7119 4.94438 0
M  V30 11974 O 1155.63 5.96644 5.38768 0
M  V30 11975 H 1155.36 0.223734 0.637902 0
M  V30 11976 H 1157.92 1.25663 1.62475 0
M  V30 11977 H 1156.15 0.0322039 3.86687 0
M  V30 11978 H 1157.84 0.414625 4.03777 0
M  V30 11979 H 1158.6 2.89378 3.89211 0
M  V30 11980 H 1154.48 1.72846 4.2737 0
M  V30 11981 H 1158.02 5.15406 4.70109 0
M  V30 11982 H 1153.92 3.9797 5.08222 0
M  V30 11983 H 1154.69 5.99741 5.57003 0
M  V30 11984 N 1157.35 -1.41121 0.701616 0
M  V30 11985 C 1158.58 -2.05973 0.242896 0
M  V30 11986 C 1159 -1.52474 -1.10151 0
M  V30 11987 O 1158.36 -0.654224 -1.69085 0
M  V30 11988 C 1158.41 -3.59943 0.217614 0
M  V30 11989 O 1157.51 -4.04454 -0.805629 0
M  V30 11990 H 1156.85 -0.653581 0.117166 0
M  V30 11991 H 1159.38 -1.80777 0.958175 0
M  V30 11992 H 1159.39 -4.07969 0.0505267 0
M  V30 11993 H 1158.07 -3.98249 1.19877 0
M  V30 11994 H 1156.65 -3.6792 -0.607404 0
M  V30 11995 N 1158.83 -0.446794 -1.51134 0
M  V30 11996 C 1159.78 0.378002 -2.24845 0
M  V30 11997 C 1160.76 0.982126 -1.27448 0
M  V30 11998 O 1161.96 0.8987 -1.52487 0
M  V30 11999 C 1159.09 1.4733 -3.10079 0
M  V30 12000 C 1158.17 0.878102 -4.1491 0
M  V30 12001 N 1158.56 0.0129452 -5.05798 0
M  V30 12002 C 1156.86 1.14468 -4.3106 0
M  V30 12003 C 1157.56 -0.322333 -5.80806 0
M  V30 12004 N 1156.54 0.296438 -5.42791 0
M  V30 12005 H 1160.34 -0.28885 -2.92477 0
M  V30 12006 H 1157.85 -0.259439 -1.60314 0
M  V30 12007 H 1159.85 2.07713 -3.6147 0
M  V30 12008 H 1158.51 2.14239 -2.43992 0
M  V30 12009 H 1159.52 -0.354177 -5.16688 0
M  V30 12010 H 1156.2 1.81056 -3.76198 0
M  V30 12011 H 1157.59 -1.02693 -6.64006 0
M  V30 12012 N 1160.31 1.56586 -0.178487 0
M  V30 12013 C 1161.56 1.97098 0.464617 0
M  V30 12014 C 1161.88 1.06476 1.62767 0
M  V30 12015 O 1161.14 0.100337 1.95443 0
M  V30 12016 C 1161.44 3.43629 0.982552 0
M  V30 12017 C 1161.1 4.50853 -0.0653645 0
M  V30 12018 C 1159.77 4.79901 -0.353349 0
M  V30 12019 C 1162.12 5.15387 -0.776279 0
M  V30 12020 C 1159.45 5.70779 -1.35751 0
M  V30 12021 C 1161.8 6.07349 -1.76948 0
M  V30 12022 C 1160.46 6.34761 -2.06483 0
M  V30 12023 H 1159.73 0.721232 0.170016 0
M  V30 12024 H 1162.38 1.89559 -0.271959 0
M  V30 12025 H 1160.68 3.48155 1.79709 0
M  V30 12026 H 1162.38 3.7232 1.48926 0
M  V30 12027 H 1158.97 4.28266 0.169266 0
M  V30 12028 H 1163.15 4.9305 -0.567008 0
M  V30 12029 H 1158.41 5.90298 -1.59244 0
M  V30 12030 H 1162.58 6.56419 -2.32567 0
M  V30 12031 H 1160.21 7.0498 -2.84441 0
M  V30 12032 N 1161.79 -0.095206 1.57312 0
M  V30 12033 C 1163.02 -0.811092 1.90013 0
M  V30 12034 C 1163.42 -1.72807 0.770359 0
M  V30 12035 O 1162.77 -1.81755 -0.266615 0
M  V30 12036 C 1162.83 -1.67744 3.17966 0
M  V30 12037 C 1162.49 -0.932301 4.47389 0
M  V30 12038 C 1163.49 -0.262161 5.19239 0
M  V30 12039 C 1161.18 -0.906414 4.94054 0
M  V30 12040 C 1163.17 0.423898 6.35989 0
M  V30 12041 C 1160.86 -0.216569 6.10716 0
M  V30 12042 C 1161.85 0.447408 6.81533 0
M  V30 12043 O 1161.54 1.12619 7.95972 0
M  V30 12044 H 1161.27 -0.237154 0.633035 0
M  V30 12045 H 1163.83 -0.0768976 2.05256 0
M  V30 12046 H 1162.06 -2.45387 2.98868 0
M  V30 12047 H 1163.75 -2.26988 3.36498 0
M  V30 12048 H 1164.51 -0.273621 4.84228 0
M  V30 12049 H 1160.39 -1.41267 4.38822 0
M  V30 12050 H 1163.94 0.942727 6.91201 0
M  V30 12051 H 1159.83 -0.202955 6.45181 0
M  V30 12052 H 1160.6 1.03308 8.11954 0
M  V30 12053 N 1163.26 -1.53291 -0.366026 0
M  V30 12054 C 1164.54 -1.60055 -1.12436 0
M  V30 12055 C 1164.92 -0.407811 -2.07123 0
M  V30 12056 O 1164.27 0.601977 -2.20428 0
M  V30 12057 C 1164.48 -2.95062 -1.86385 0
M  V30 12058 C 1165.83 -3.49623 -2.40934 0
M  V30 12059 O 1166.85 -2.97088 -1.96512 0
M  V30 12060 O 1165.71 -4.41461 -3.2214 0
M  V30 12061 H 1162.8 -0.646476 -0.51575 0
M  V30 12062 H 1165.35 -1.65632 -0.369326 0
M  V30 12063 H 1164.12 -3.73312 -1.17277 0
M  V30 12064 H 1163.75 -2.92973 -2.68798 0
M  V30 12065 N 1164.74 0.6258 -1.44643 0
M  V30 12066 C 1165.99 1.38251 -1.47414 0
M  V30 12067 C 1166.31 1.94689 -0.110043 0
M  V30 12068 O 1165.58 1.76095 0.858333 0
M  V30 12069 H 1164.16 0.513179 -0.542823 0
M  V30 12070 H 1166.82 0.736179 -1.80462 0
M  V30 12071 H 1165.92 2.21115 -2.2026 0
M  V30 12072 N 1166.22 1.31629 0.866686 0
M  V30 12073 C 1167.47 1.21503 1.61998 0
M  V30 12074 C 1167.8 -0.226044 1.93182 0
M  V30 12075 O 1167.05 -1.17573 1.56445 0
M  V30 12076 C 1167.35 2.00775 2.95676 0
M  V30 12077 C 1167.02 3.50245 2.83971 0
M  V30 12078 C 1165.68 3.91 2.80485 0
M  V30 12079 C 1168.03 4.45347 2.70769 0
M  V30 12080 C 1165.36 5.25119 2.61661 0
M  V30 12081 C 1167.71 5.79595 2.53481 0
M  V30 12082 C 1166.37 6.19567 2.48381 0
M  V30 12083 H 1165.64 0.44461 0.592792 0
M  V30 12084 H 1168.29 1.62929 1.00629 0
M  V30 12085 H 1166.6 1.52039 3.61097 0
M  V30 12086 H 1168.29 1.90318 3.52959 0
M  V30 12087 H 1164.88 3.17869 2.87502 0
M  V30 12088 H 1169.07 4.14789 2.72514 0
M  V30 12089 H 1164.32 5.5516 2.5614 0
M  V30 12090 H 1168.5 6.5291 2.42243 0
M  V30 12091 H 1166.12 7.23434 2.33554 0
M  V30 12092 N 1167.7 -1.08142 1.14644 0
M  V30 12093 C 1168.66 -2.13308 0.83859 0
M  V30 12094 C 1169.66 -1.60022 -0.158012 0
M  V30 12095 O 1170.85 -1.74057 0.0706621 0
M  V30 12096 C 1167.98 -3.39978 0.250591 0
M  V30 12097 H 1169.18 -2.42049 1.77066 0
M  V30 12098 H 1166.73 -1.23899 0.952828 0
M  V30 12099 H 1167.47 -3.16873 -0.690064 0
M  V30 12100 H 1167.25 -3.79952 0.968456 0
M  V30 12101 H 1168.74 -4.17567 0.0525115 0
M  V30 12102 N 1169.18 -0.941978 -1.26351 0
M  V30 12103 C 1170.12 -0.450906 -2.26353 0
M  V30 12104 C 1171.09 0.489857 -1.58712 0
M  V30 12105 O 1172.28 0.40589 -1.86433 0
M  V30 12106 C 1169.42 0.277054 -3.43986 0
M  V30 12107 C 1168.53 -0.699474 -4.263 0
M  V30 12108 C 1167.67 0.0497661 -5.31177 0
M  V30 12109 C 1166.71 -0.918531 -6.05169 0
M  V30 12110 N 1165.84 -0.200993 -7.01812 0
M  V30 12111 H 1170.68 -1.30861 -2.6773 0
M  V30 12112 H 1168.22 -0.656514 -1.31637 0
M  V30 12113 H 1170.18 0.715567 -4.11018 0
M  V30 12114 H 1168.81 1.09889 -3.0352 0
M  V30 12115 H 1167.86 -1.2565 -3.59049 0
M  V30 12116 H 1169.17 -1.4389 -4.77595 0
M  V30 12117 H 1168.33 0.547521 -6.04224 0
M  V30 12118 H 1167.07 0.822068 -4.80722 0
M  V30 12119 H 1166.07 -1.4274 -5.30947 0
M  V30 12120 H 1167.3 -1.69085 -6.57713 0
M  V30 12121 H 1165.24 0.552803 -6.53667 0
M  V30 12122 H 1165.16 -0.879735 -7.50864 0
M  V30 12123 H 1166.43 0.275642 -7.79012 0
M  V30 12124 N 1170.66 1.40747 -0.709091 0
M  V30 12125 C 1171.9 2.013 -0.246174 0
M  V30 12126 C 1172.23 1.56078 1.15556 0
M  V30 12127 O 1171.51 0.777941 1.78265 0
M  V30 12128 C 1171.79 3.58685 -0.318945 0
M  V30 12129 C 1171.65 4.13997 -1.75859 0
M  V30 12130 C 1172.96 4.38981 0.31358 0
M  V30 12131 H 1170.08 0.73137 -0.0909255 0
M  V30 12132 H 1172.73 1.67312 -0.900365 0
M  V30 12133 H 1170.88 3.8777 0.23805 0
M  V30 12134 H 1172.55 3.95735 -2.37047 0
M  V30 12135 H 1170.79 3.6853 -2.28841 0
M  V30 12136 H 1171.46 5.23158 -1.76095 0
M  V30 12137 H 1173.94 4.15789 -0.160939 0
M  V30 12138 H 1172.81 5.48409 0.232184 0
M  V30 12139 H 1173.07 4.19474 1.39621 0
M  V30 12140 N 1172.13 0.454803 1.50895 0
M  V30 12141 C 1173.54 -0.00421212 1.867 0
M  V30 12142 C 1173.9 -1.4037 1.3708 0
M  V30 12143 O 1173.02 -2.03755 0.728884 0
M  V30 12144 C 1173.62 -0.0144196 3.38797 0
M  V30 12145 C 1172.17 -0.417905 3.74073 0
M  V30 12146 C 1171.32 0.37801 2.74711 0
M  V30 12147 H 1174.27 0.669849 1.4387 0
M  V30 12148 H 1174.29 -0.820172 3.71555 0
M  V30 12149 H 1173.81 1.00427 3.74881 0
M  V30 12150 H 1171.91 -1.44155 3.43584 0
M  V30 12151 H 1172.02 -0.130568 4.78922 0
M  V30 12152 H 1170.38 -0.166089 2.54158 0
M  V30 12153 H 1171.17 1.3959 3.13639 0
M  V30 12154 N 1173.61 -1.56489 0.186789 0
M  V30 12155 C 1174.54 -2.21705 -0.732739 0
M  V30 12156 C 1175.52 -1.17751 -1.22755 0
M  V30 12157 O 1176.71 -1.46231 -1.27789 0
M  V30 12158 C 1173.84 -2.86992 -1.95584 0
M  V30 12159 C 1172.79 -3.97118 -1.59628 0
M  V30 12160 C 1172.12 -4.49529 -2.89531 0
M  V30 12161 C 1173.42 -5.15941 -0.812518 0
M  V30 12162 H 1175.11 -2.98802 -0.189094 0
M  V30 12163 H 1172.66 -1.43722 -0.0895099 0
M  V30 12164 H 1174.61 -3.31295 -2.60426 0
M  V30 12165 H 1173.33 -2.07287 -2.52388 0
M  V30 12166 H 1171.99 -3.53494 -0.971475 0
M  V30 12167 H 1171.64 -3.66596 -3.44407 0
M  V30 12168 H 1171.34 -5.23832 -2.66221 0
M  V30 12169 H 1172.87 -4.96528 -3.55376 0
M  V30 12170 H 1174.28 -5.56841 -1.36386 0
M  V30 12171 H 1172.68 -5.96259 -0.677862 0
M  V30 12172 H 1173.75 -4.84535 0.188095 0
M  V30 12173 N 1175.09 0.086862 -1.5736 0
M  V30 12174 C 1176.05 1.08906 -2.01673 0
M  V30 12175 C 1177.05 1.32473 -0.911463 0
M  V30 12176 O 1178.24 1.28447 -1.17673 0
M  V30 12177 C 1175.37 2.43629 -2.38449 0
M  V30 12178 H 1176.57 0.707461 -2.91436 0
M  V30 12179 H 1174.12 0.332154 -1.5273 0
M  V30 12180 H 1174.86 2.8665 -1.51665 0
M  V30 12181 H 1174.64 2.2787 -3.19089 0
M  V30 12182 H 1176.13 3.15695 -2.73361 0
M  V30 12183 N 1176.57 1.53483 0.357892 0
M  V30 12184 C 1177.82 1.69701 1.09754 0
M  V30 12185 C 1178.14 0.455389 1.89608 0
M  V30 12186 O 1177.41 -0.530623 1.88577 0
M  V30 12187 H 1175.99 0.62562 0.408178 0
M  V30 12188 H 1178.65 1.90696 0.402641 0
M  V30 12189 H 1177.74 2.56154 1.78302 0
M  V30 12190 N 1178.05 -0.61812 1.44973 0
M  V30 12191 C 1178.98 -1.74299 1.48837 0
M  V30 12192 C 1179.99 -1.58296 0.38028 0
M  V30 12193 O 1181.18 -1.66371 0.646757 0
M  V30 12194 C 1178.28 -3.12179 1.31901 0
M  V30 12195 C 1177.45 -3.54519 2.56193 0
M  V30 12196 C 1176.51 -4.71324 2.33966 0
M  V30 12197 O 1175.54 -4.78975 3.07525 0
M  V30 12198 N 1176.74 -5.63894 1.37854 0
M  V30 12199 H 1179.5 -1.7145 2.45815 0
M  V30 12200 H 1177.07 -0.803087 1.40578 0
M  V30 12201 H 1179.06 -3.88059 1.14858 0
M  V30 12202 H 1177.63 -3.09595 0.43239 0
M  V30 12203 H 1176.85 -2.68711 2.88423 0
M  V30 12204 H 1178.14 -3.79563 3.38835 0
M  V30 12205 H 1177.53 -5.60418 0.771273 0
M  V30 12206 H 1176.09 -6.3935 1.26787 0
M  V30 12207 N 1179.52 -1.32087 -0.859693 0
M  V30 12208 C 1180.49 -1.20546 -1.94939 0
M  V30 12209 C 1181.49 -0.12982 -1.60275 0
M  V30 12210 O 1182.68 -0.379853 -1.70008 0
M  V30 12211 C 1179.81 -0.852717 -3.30063 0
M  V30 12212 H 1181 -2.17384 -2.06602 0
M  V30 12213 H 1178.55 -1.15846 -1.04926 0
M  V30 12214 H 1179.29 0.114059 -3.24099 0
M  V30 12215 H 1179.07 -1.63035 -3.56598 0
M  V30 12216 H 1180.56 -0.796145 -4.09941 0
M  V30 12217 N 1181 1.07532 -1.15215 0
M  V30 12218 C 1182.23 1.84356 -0.950139 0
M  V30 12219 C 1182.65 1.81429 0.496502 0
M  V30 12220 O 1182.01 1.20589 1.35381 0
M  V30 12221 C 1182.06 3.29425 -1.46669 0
M  V30 12222 O 1181.16 4.07008 -0.664674 0
M  V30 12223 H 1180.5 0.570921 -0.339036 0
M  V30 12224 H 1183.03 1.35665 -1.53154 0
M  V30 12225 H 1183.04 3.8026 -1.47873 0
M  V30 12226 H 1181.72 3.3087 -2.51988 0
M  V30 12227 H 1180.29 3.65841 -0.72211 0
M  V30 12228 N 1182.48 0.948665 1.2585 0
M  V30 12229 C 1183.71 0.617229 1.97479 0
M  V30 12230 C 1184.12 -0.809406 1.7057 0
M  V30 12231 O 1183.48 -1.54066 0.97826 0
M  V30 12232 C 1183.53 0.859065 3.51144 0
M  V30 12233 O 1183.25 2.2296 3.77121 0
M  V30 12234 C 1184.75 0.539197 4.40009 0
M  V30 12235 H 1181.97 0.231933 0.629641 0
M  V30 12236 H 1184.52 1.27141 1.60173 0
M  V30 12237 H 1182.67 0.25138 3.86584 0
M  V30 12238 H 1183.09 2.29524 4.71613 0
M  V30 12239 H 1184.56 0.758986 5.46757 0
M  V30 12240 H 1185.04 -0.526062 4.36038 0
M  V30 12241 H 1185.64 1.12594 4.10125 0
M  V30 12242 N 1183.96 -1.40369 0.716545 0
M  V30 12243 C 1184.87 -2.34508 0.065658 0
M  V30 12244 C 1185.88 -1.57352 -0.742723 0
M  V30 12245 O 1187.06 -1.89735 -0.675456 0
M  V30 12246 C 1184.13 -3.36262 -0.844337 0
M  V30 12247 C 1183.19 -4.29292 -0.0257971 0
M  V30 12248 C 1182.42 -5.26185 -0.892452 0
M  V30 12249 O 1182.64 -5.29071 -2.13166 0
M  V30 12250 O 1181.58 -6.0099 -0.330933 0
M  V30 12251 H 1185.4 -2.91789 0.842184 0
M  V30 12252 H 1182.99 -1.41579 0.477034 0
M  V30 12253 H 1184.87 -3.98661 -1.36555 0
M  V30 12254 H 1183.54 -2.81393 -1.59999 0
M  V30 12255 H 1182.45 -3.70175 0.540512 0
M  V30 12256 H 1183.78 -4.87316 0.69166 0
M  V30 12257 N 1185.44 -0.462799 -1.50652 0
M  V30 12258 C 1186.68 0.0948568 -2.01877 0
M  V30 12259 C 1187.01 1.4096 -1.34741 0
M  V30 12260 O 1186.28 1.89671 -0.49006 0
M  V30 12261 H 1184.86 0.0380453 -0.746031 0
M  V30 12262 H 1187.52 -0.611327 -1.85064 0
M  V30 12263 H 1186.61 0.252378 -3.11078 0
M  V30 12264 N 1186.91 1.56388 -0.195085 0
M  V30 12265 C 1188.19 1.89329 0.491303 0
M  V30 12266 C 1188.57 1.10861 1.79647 0
M  V30 12267 O 1187.92 0.209696 2.27536 0
M  V30 12268 C 1188.13 3.417 0.710096 0
M  V30 12269 C 1189.48 4.11931 1.02947 0
M  V30 12270 O 1190.5 3.4715 0.797817 0
M  V30 12271 O 1189.36 5.26423 1.46767 0
M  V30 12272 H 1186.45 0.786335 0.256137 0
M  V30 12273 H 1189 1.68061 -0.235298 0
M  V30 12274 H 1187.77 3.90727 -0.211604 0
M  V30 12275 H 1187.4 3.6866 1.48916 0
M  V30 12276 N 1188.39 -0.0785156 1.57404 0
M  V30 12277 C 1189.62 -0.795871 1.91522 0
M  V30 12278 C 1190.04 -1.70665 0.790892 0
M  V30 12279 O 1189.4 -1.79474 -0.25666 0
M  V30 12280 C 1189.45 -1.57121 3.24569 0
M  V30 12281 O 1188.55 -2.6814 3.13328 0
M  V30 12282 H 1187.89 -0.217575 0.627341 0
M  V30 12283 H 1190.42 -0.0487724 2.04542 0
M  V30 12284 H 1190.43 -1.9519 3.5828 0
M  V30 12285 H 1189.11 -0.902909 4.05981 0
M  V30 12286 H 1187.69 -2.32978 2.91163 0
M  V30 12287 N 1189.87 -1.5367 -0.349747 0
M  V30 12288 C 1190.8 -1.84208 -1.43492 0
M  V30 12289 C 1191.78 -0.696725 -1.55177 0
M  V30 12290 O 1192.97 -0.948061 -1.69486 0
M  V30 12291 C 1190.1 -2.04613 -2.80625 0
M  V30 12292 C 1189.05 -3.20419 -2.83753 0
M  V30 12293 C 1188.38 -3.26147 -4.23713 0
M  V30 12294 C 1189.68 -4.58666 -2.49846 0
M  V30 12295 H 1191.37 -2.75087 -1.18185 0
M  V30 12296 H 1188.92 -1.32363 -0.567101 0
M  V30 12297 H 1190.87 -2.2456 -3.56582 0
M  V30 12298 H 1189.59 -1.10459 -3.07354 0
M  V30 12299 H 1188.25 -3.00318 -2.10249 0
M  V30 12300 H 1187.9 -2.29599 -4.47541 0
M  V30 12301 H 1187.6 -4.03963 -4.26717 0
M  V30 12302 H 1189.12 -3.48296 -5.0152 0
M  V30 12303 H 1190.54 -4.78668 -3.15516 0
M  V30 12304 H 1188.94 -5.3884 -2.64144 0
M  V30 12305 H 1190.01 -4.62697 -1.4505 0
M  V30 12306 N 1191.35 0.610423 -1.45298 0
M  V30 12307 C 1192.58 1.39419 -1.52466 0
M  V30 12308 C 1192.99 1.88563 -0.1551 0
M  V30 12309 O 1192.33 1.62692 0.853061 0
M  V30 12310 C 1192.39 2.63515 -2.44541 0
M  V30 12311 C 1192.06 2.36028 -3.91331 0
M  V30 12312 C 1193.05 1.96567 -4.81308 0
M  V30 12313 C 1190.74 2.49028 -4.36223 0
M  V30 12314 C 1192.73 1.70461 -6.14184 0
M  V30 12315 C 1190.42 2.22536 -5.6914 0
M  V30 12316 C 1191.42 1.83314 -6.5794 0
M  V30 12317 O 1191.1 1.57131 -7.88394 0
M  V30 12318 H 1190.84 0.433278 -0.518889 0
M  V30 12319 H 1193.39 0.751803 -1.91147 0
M  V30 12320 H 1191.62 3.30463 -2.00826 0
M  V30 12321 H 1193.31 3.25554 -2.42424 0
M  V30 12322 H 1194.08 1.86062 -4.4789 0
M  V30 12323 H 1189.95 2.78524 -3.67349 0
M  V30 12324 H 1193.5 1.39773 -6.83454 0
M  V30 12325 H 1189.4 2.32657 -6.02114 0
M  V30 12326 H 1190.16 1.71207 -8.00394 0
M  V30 12327 N 1192.83 1.32541 0.852676 0
M  V30 12328 C 1194.07 1.22971 1.60383 0
M  V30 12329 C 1194.4 -0.208009 1.93887 0
M  V30 12330 O 1193.67 -1.13326 1.59794 0
M  V30 12331 H 1192.25 0.452149 0.594618 0
M  V30 12332 H 1194.91 1.66089 1.01983 0
M  V30 12333 H 1194 1.81373 2.53989 0
M  V30 12334 N 1194.3 -1.0692 1.15784 0
M  V30 12335 C 1195.27 -2.12407 0.861167 0
M  V30 12336 C 1196.27 -1.6018 -0.141031 0
M  V30 12337 O 1197.46 -1.73972 0.0891192 0
M  V30 12338 C 1194.59 -3.39693 0.286636 0
M  V30 12339 H 1195.78 -2.40157 1.79623 0
M  V30 12340 H 1193.34 -1.22881 0.965916 0
M  V30 12341 H 1194.07 -3.17587 -0.656417 0
M  V30 12342 H 1193.86 -3.78903 1.0087 0
M  V30 12343 H 1195.35 -4.17488 0.0967971 0
M  V30 12344 N 1195.78 -0.955326 -1.25345 0
M  V30 12345 C 1196.75 -0.480564 -2.24105 0
M  V30 12346 C 1197.75 0.416123 -1.55322 0
M  V30 12347 O 1198.94 0.213315 -1.72889 0
M  V30 12348 C 1196.07 0.305589 -3.39528 0
M  V30 12349 H 1197.26 -1.35349 -2.6762 0
M  V30 12350 H 1194.81 -0.738673 -1.37744 0
M  V30 12351 H 1195.55 1.19615 -3.01434 0
M  V30 12352 H 1195.33 -0.337719 -3.90643 0
M  V30 12353 H 1196.82 0.627201 -4.12863 0
M  V30 12354 N 1197.26 1.39987 -0.723979 0
M  V30 12355 C 1198.49 2.0556 -0.275634 0
M  V30 12356 C 1198.91 1.54207 1.07711 0
M  V30 12357 O 1198.27 0.681041 1.68022 0
M  V30 12358 C 1198.32 3.59551 -0.27485 0
M  V30 12359 O 1197.42 4.05685 0.741182 0
M  V30 12360 H 1196.76 0.651634 -0.12755 0
M  V30 12361 H 1199.29 1.79229 -0.986814 0
M  V30 12362 H 1199.3 4.07837 -0.115425 0
M  V30 12363 H 1197.98 3.96291 -1.26198 0
M  V30 12364 H 1196.55 3.6884 0.548795 0
M  V30 12365 N 1198.74 0.470782 1.50404 0
M  V30 12366 C 1199.67 -0.313458 2.31386 0
M  V30 12367 C 1200.65 -0.990623 1.38278 0
M  V30 12368 O 1201.84 -0.987854 1.67198 0
M  V30 12369 C 1198.97 -1.39599 3.18009 0
M  V30 12370 C 1197.92 -0.840443 4.19667 0
M  V30 12371 C 1197.25 -2.02124 4.95025 0
M  V30 12372 C 1198.55 0.148055 5.2209 0
M  V30 12373 H 1200.24 0.362432 2.97198 0
M  V30 12374 H 1197.79 0.175745 1.42924 0
M  V30 12375 H 1199.74 -1.9521 3.73458 0
M  V30 12376 H 1198.46 -2.10064 2.50081 0
M  V30 12377 H 1197.12 -0.306302 3.65318 0
M  V30 12378 H 1196.77 -2.71286 4.23571 0
M  V30 12379 H 1196.47 -1.65574 5.6379 0
M  V30 12380 H 1197.99 -2.58226 5.5331 0
M  V30 12381 H 1199.41 -0.318874 5.72413 0
M  V30 12382 H 1197.8 0.427811 5.98573 0
M  V30 12383 H 1198.87 1.07404 4.72855 0
M  V30 12384 N 1200.22 -1.56282 0.203376 0
M  V30 12385 C 1201.17 -2.20822 -0.730784 0
M  V30 12386 C 1202.16 -1.18193 -1.21354 0
M  V30 12387 O 1203.37 -1.36318 -1.17547 0
M  V30 12388 H 1199.74 -0.707792 -0.254036 0
M  V30 12389 H 1201.71 -2.97955 -0.162825 0
M  V30 12390 C 1200.46 -2.88803 -1.93618 0
M  V30 12391 H 1199.78 -3.67521 -1.57379 0
M  V30 12392 H 1201.22 -3.37387 -2.56799 0
M  V30 12393 C 1199.68 -1.90285 -2.78017 0
M  V30 12394 O 1200.21 -1.40833 -3.76203 0
M  V30 12395 N 1198.42 -1.58332 -2.43679 0
M  V30 12396 H 1197.97 -1.9874 -1.63891 0
M  V30 12397 H 1197.92 -0.926722 -3.00432 0
M  V30 12398 N 1201.7 0.070167 -1.57444 0
M  V30 12399 C 1202.97 0.802108 -1.78397 0
M  V30 12400 C 1203.35 1.95706 -0.791356 0
M  V30 12401 O 1202.7 2.27827 0.17518 0
M  V30 12402 C 1202.91 1.27354 -3.24934 0
M  V30 12403 C 1204.26 1.70626 -3.88808 0
M  V30 12404 O 1205.28 1.36916 -3.28835 0
M  V30 12405 O 1204.14 2.33041 -4.94322 0
M  V30 12406 H 1201.24 0.384483 -0.73219 0
M  V30 12407 H 1203.78 0.0501168 -1.69626 0
M  V30 12408 H 1202.55 0.447204 -3.88736 0
M  V30 12409 H 1202.18 2.0868 -3.38435 0
M  V30 12410 N 1203.17 1.53854 0.341593 0
M  V30 12411 C 1204.42 1.71194 1.08162 0
M  V30 12412 C 1204.75 0.47614 1.88582 0
M  V30 12413 O 1204 -0.542115 1.88041 0
M  V30 12414 C 1204.3 2.92844 2.04884 0
M  V30 12415 C 1203.97 4.28366 1.40759 0
M  V30 12416 C 1202.63 4.65214 1.23 0
M  V30 12417 C 1204.98 5.12546 0.945819 0
M  V30 12418 C 1202.31 5.83857 0.576852 0
M  V30 12419 C 1204.66 6.31857 0.306568 0
M  V30 12420 C 1203.33 6.67398 0.116677 0
M  V30 12421 H 1202.6 0.626442 0.395792 0
M  V30 12422 H 1205.24 1.88073 0.360688 0
M  V30 12423 H 1203.55 2.70576 2.83365 0
M  V30 12424 H 1205.25 3.03454 2.62139 0
M  V30 12425 H 1201.84 3.99366 1.5558 0
M  V30 12426 H 1206.02 4.84609 1.07087 0
M  V30 12427 H 1201.28 6.09967 0.418363 0
M  V30 12428 H 1205.45 6.96375 -0.0593285 0
M  V30 12429 H 1203.08 7.59191 -0.391477 0
M  V30 12430 N 1204.65 -0.602709 1.4562 0
M  V30 12431 C 1205.9 -1.35889 1.49595 0
M  V30 12432 C 1206.22 -1.9449 0.141002 0
M  V30 12433 O 1205.49 -1.77438 -0.830209 0
M  V30 12434 H 1204.07 -0.504478 0.550918 0
M  V30 12435 H 1206.73 -0.707376 1.8161 0
M  V30 12436 H 1205.83 -2.17583 2.2375 0
M  V30 12437 N 1206.13 -1.32992 -0.845635 0
M  V30 12438 C 1207.35 -1.27231 -1.6379 0
M  V30 12439 C 1207.78 0.155141 -1.87459 0
M  V30 12440 O 1207.14 1.10953 -1.43384 0
M  V30 12441 C 1207.19 -2.04629 -2.96916 0
M  V30 12442 O 1206.29 -1.40027 -3.879 0
M  V30 12443 H 1205.63 -0.438045 -0.499011 0
M  V30 12444 H 1208.16 -1.75448 -1.05257 0
M  V30 12445 H 1208.17 -2.15141 -3.46667 0
M  V30 12446 H 1206.85 -3.08425 -2.79011 0
M  V30 12447 H 1205.42 -1.38118 -3.46378 0
M  V30 12448 N 1207.61 1.06304 -1.1635 0
M  V30 12449 C 1208.54 2.15745 -0.893103 0
M  V30 12450 C 1209.52 1.69341 0.160531 0
M  V30 12451 O 1210.7 1.94196 0.0126526 0
M  V30 12452 C 1207.83 3.45066 -0.393287 0
M  V30 12453 C 1206.79 4.04978 -1.38482 0
M  V30 12454 C 1206.11 5.29507 -0.743409 0
M  V30 12455 C 1207.41 4.4377 -2.75438 0
M  V30 12456 H 1209.11 2.38622 -1.80831 0
M  V30 12457 H 1206.65 1.14681 -0.870878 0
M  V30 12458 H 1208.61 4.20964 -0.191607 0
M  V30 12459 H 1207.33 3.21808 0.557426 0
M  V30 12460 H 1205.99 3.31136 -1.57304 0
M  V30 12461 H 1205.64 5.02545 0.213787 0
M  V30 12462 H 1205.34 5.7055 -1.40521 0
M  V30 12463 H 1206.86 6.08102 -0.551746 0
M  V30 12464 H 1208.28 5.1075 -2.60398 0
M  V30 12465 H 1206.67 4.95797 -3.38091 0
M  V30 12466 H 1207.74 3.54636 -3.30699 0
M  V30 12467 N 1209.09 0.96196 1.24836 0
M  V30 12468 C 1210.05 0.492443 2.23847 0
M  V30 12469 C 1211.05 -0.40788 1.55541 0
M  V30 12470 O 1212.24 -0.204143 1.73 0
M  V30 12471 C 1209.37 -0.287578 3.39685 0
M  V30 12472 H 1210.56 1.36767 2.66899 0
M  V30 12473 H 1208.12 0.745967 1.3735 0
M  V30 12474 H 1208.85 -1.18015 3.02064 0
M  V30 12475 H 1208.64 0.358431 3.90458 0
M  V30 12476 H 1210.13 -0.605297 4.1319 0
M  V30 12477 N 1210.56 -1.39601 0.731392 0
M  V30 12478 C 1211.81 -2.00883 0.278168 0
M  V30 12479 C 1212.14 -1.57897 -1.13059 0
M  V30 12480 O 1211.42 -0.806203 -1.77005 0
M  V30 12481 C 1211.7 -3.58132 0.375969 0
M  V30 12482 C 1211.55 -4.11147 1.82423 0
M  V30 12483 C 1212.87 -4.39425 -0.243702 0
M  V30 12484 H 1209.99 -0.729831 0.102549 0
M  V30 12485 H 1212.63 -1.65859 0.926869 0
M  V30 12486 H 1210.78 -3.881 -0.176329 0
M  V30 12487 H 1212.46 -3.91914 2.43313 0
M  V30 12488 H 1210.7 -3.64842 2.34675 0
M  V30 12489 H 1211.37 -5.20291 1.84396 0
M  V30 12490 H 1213.85 -4.1548 0.227067 0
M  V30 12491 H 1212.72 -5.48709 -0.144907 0
M  V30 12492 H 1212.98 -4.21642 -1.32929 0
M  V30 12493 N 1212.04 -0.478751 -1.50152 0
M  V30 12494 C 1213.46 -0.133356 -1.59042 0
M  V30 12495 C 1213.66 1.36069 -1.48618 0
M  V30 12496 O 1212.71 2.13468 -1.34862 0
M  V30 12497 C 1214.03 -0.690369 -2.92668 0
M  V30 12498 C 1215.58 -0.654481 -3.06081 0
M  V30 12499 C 1216.05 -1.18917 -4.42293 0
M  V30 12500 N 1217.54 -1.14891 -4.48725 0
M  V30 12501 C 1218.28 -1.53305 -5.52526 0
M  V30 12502 N 1217.77 -1.99205 -6.63543 0
M  V30 12503 N 1219.57 -1.4486 -5.43113 0
M  V30 12504 H 1211.72 -1.45037 -1.55171 0
M  V30 12505 H 1213.98 -0.600254 -0.733757 0
M  V30 12506 H 1213.69 -1.7373 -3.05795 0
M  V30 12507 H 1213.56 -0.138227 -3.76947 0
M  V30 12508 H 1215.95 0.383564 -2.92597 0
M  V30 12509 H 1216.03 -1.24352 -2.2354 0
M  V30 12510 H 1215.67 -2.22588 -4.56527 0
M  V30 12511 H 1215.6 -0.57628 -5.23437 0
M  V30 12512 H 1218.09 -0.812344 -3.69066 0
M  V30 12513 H 1218.41 -2.26645 -7.38818 0
M  V30 12514 H 1216.75 -2.03164 -6.64642 0
M  V30 12515 H 1219.94 -1.08836 -4.55272 0
M  V30 12516 H 1220.11 -1.75123 -6.23888 0
M  V30 12517 N 1213.52 1.56172 -0.211661 0
M  V30 12518 C 1214.77 1.98332 0.423332 0
M  V30 12519 C 1215.1 1.09895 1.60115 0
M  V30 12520 O 1214.37 0.154477 1.93886 0
M  V30 12521 C 1214.66 3.49495 0.86747 0
M  V30 12522 C 1214.51 4.48708 -0.313302 0
M  V30 12523 C 1215.83 4.04793 1.72716 0
M  V30 12524 H 1212.95 0.72107 0.152402 0
M  V30 12525 H 1215.59 1.87521 -0.305912 0
M  V30 12526 H 1213.74 3.58839 1.48885 0
M  V30 12527 H 1215.41 4.51385 -0.951291 0
M  V30 12528 H 1213.66 4.2299 -0.96238 0
M  V30 12529 H 1214.33 5.51985 0.0402402 0
M  V30 12530 H 1216.8 3.98332 1.20296 0
M  V30 12531 H 1215.68 5.10898 2.00684 0
M  V30 12532 H 1215.94 3.51067 2.68709 0
M  V30 12533 N 1215 -0.0618163 1.57479 0
M  V30 12534 C 1216.24 -0.760193 1.88013 0
M  V30 12535 C 1216.58 -1.76718 0.805258 0
M  V30 12536 O 1215.85 -1.93633 -0.183408 0
M  V30 12537 C 1216.14 -1.45924 3.29208 0
M  V30 12538 C 1215.99 -0.467994 4.47359 0
M  V30 12539 C 1217.31 -2.40166 3.68793 0
M  V30 12540 H 1214.43 -0.274896 0.683814 0
M  V30 12541 H 1217.07 -0.0232433 1.89986 0
M  V30 12542 H 1215.22 -2.08741 3.27657 0
M  V30 12543 H 1216.89 0.155735 4.61037 0
M  V30 12544 H 1215.13 0.215797 4.33263 0
M  V30 12545 H 1215.8 -0.994942 5.42959 0
M  V30 12546 H 1218.28 -1.87419 3.71501 0
M  V30 12547 H 1217.16 -2.86076 4.68457 0
M  V30 12548 H 1217.42 -3.25413 2.99264 0
M  V30 12549 N 1216.48 -1.54033 -0.333429 0
M  V30 12550 C 1217.42 -1.83441 -1.43011 0
M  V30 12551 C 1218.42 -0.705592 -1.54006 0
M  V30 12552 O 1219.62 -0.889098 -1.56509 0
M  V30 12553 H 1216 -0.581326 -0.477037 0
M  V30 12554 H 1217.97 -2.75172 -1.15426 0
M  V30 12555 C 1216.72 -2.0698 -2.79382 0
M  V30 12556 H 1216.04 -2.93297 -2.71692 0
M  V30 12557 H 1217.48 -2.31517 -3.55212 0
M  V30 12558 C 1215.94 -0.85835 -3.25782 0
M  V30 12559 O 1216.47 -0.062739 -4.01651 0
M  V30 12560 N 1214.68 -0.672738 -2.82706 0
M  V30 12561 H 1214.22 -1.32136 -2.21128 0
M  V30 12562 H 1214.18 0.136347 -3.14104 0
M  V30 12563 N 1217.95 0.594978 -1.45938 0
M  V30 12564 C 1219.23 1.35477 -1.41086 0
M  V30 12565 C 1219.61 2.10917 -0.0879512 0
M  V30 12566 O 1218.96 2.08704 0.930323 0
M  V30 12567 C 1219.17 2.29106 -2.63271 0
M  V30 12568 C 1220.52 2.9132 -3.08898 0
M  V30 12569 O 1221.54 2.39423 -2.63733 0
M  V30 12570 O 1220.4 3.85553 -3.87313 0
M  V30 12571 H 1217.49 0.6081 -0.560485 0
M  V30 12572 H 1220.04 0.617016 -1.58085 0
M  V30 12573 H 1218.81 1.72707 -3.51124 0
M  V30 12574 H 1218.44 3.10241 -2.48669 0
M  V30 12575 N 1219.43 1.33438 0.838571 0
M  V30 12576 C 1220.38 1.20285 1.93689 0
M  V30 12577 C 1221.37 0.105686 1.60553 0
M  V30 12578 O 1222.56 0.333814 1.73824 0
M  V30 12579 C 1219.69 0.944544 3.3005 0
M  V30 12580 C 1218.77 2.08416 3.69356 0
M  V30 12581 N 1219.16 3.33415 3.80353 0
M  V30 12582 C 1217.46 1.99092 3.99097 0
M  V30 12583 C 1218.16 4.08159 4.14465 0
M  V30 12584 N 1217.14 3.36601 4.2685 0
M  V30 12585 H 1220.94 2.1503 2.00348 0
M  V30 12586 H 1218.46 1.2545 1.03131 0
M  V30 12587 H 1220.45 0.831242 4.08529 0
M  V30 12588 H 1219.11 0.00562273 3.247 0
M  V30 12589 H 1220.12 3.68159 3.64252 0
M  V30 12590 H 1216.8 1.12861 4.01956 0
M  V30 12591 H 1218.19 5.16027 4.30308 0
M  V30 12592 N 1220.91 -1.05686 1.16912 0
M  V30 12593 C 1221.86 -2.15417 0.877404 0
M  V30 12594 C 1222.85 -1.6868 -0.155986 0
M  V30 12595 O 1224.06 -1.79998 -0.00938156 0
M  V30 12596 H 1220.43 -0.70332 0.266168 0
M  V30 12597 H 1222.4 -2.37228 1.81012 0
M  V30 12598 C 1221.15 -3.45372 0.401696 0
M  V30 12599 H 1220.48 -3.81732 1.18832 0
M  V30 12600 H 1221.92 -4.2334 0.236418 0
M  V30 12601 C 1220.38 -3.25209 -0.87981 0
M  V30 12602 O 1220.91 -3.51322 -1.94771 0
M  V30 12603 N 1219.11 -2.78614 -0.825997 0
M  V30 12604 H 1218.66 -2.57564 0.0432439 0
M  V30 12605 H 1218.62 -2.65503 -1.68391 0
M  V30 12606 N 1222.39 -0.968567 -1.24324 0
M  V30 12607 C 1223.8 -0.66964 -1.74278 0
M  V30 12608 C 1224.15 0.81461 -1.7849 0
M  V30 12609 O 1223.28 1.63736 -1.4149 0
M  V30 12610 C 1223.87 -1.20885 -3.165 0
M  V30 12611 C 1222.43 -0.959808 -3.63957 0
M  V30 12612 C 1221.58 -1.34365 -2.42573 0
M  V30 12613 H 1224.53 -1.14379 -1.10015 0
M  V30 12614 H 1224.55 -0.57555 -3.76122 0
M  V30 12615 H 1224.06 -2.28912 -3.13402 0
M  V30 12616 H 1222.16 0.104894 -3.72452 0
M  V30 12617 H 1222.27 -1.60606 -4.51378 0
M  V30 12618 H 1220.64 -0.762039 -2.43033 0
M  V30 12619 H 1221.42 -2.43343 -2.42155 0
M  V30 12620 N 1223.87 1.39211 -0.738786 0
M  V30 12621 C 1225.09 2.04732 -0.298751 0
M  V30 12622 C 1225.51 1.55706 1.06776 0
M  V30 12623 O 1224.87 0.723605 1.67542 0
M  V30 12624 C 1224.92 3.60288 -0.29574 0
M  V30 12625 O 1224.64 4.07511 -1.60831 0
M  V30 12626 C 1226.14 4.43011 0.159994 0
M  V30 12627 H 1223.36 0.658296 -0.129952 0
M  V30 12628 H 1225.9 1.78186 -1.0035 0
M  V30 12629 H 1224.06 3.85722 0.360146 0
M  V30 12630 H 1224.47 5.01858 -1.52443 0
M  V30 12631 H 1225.95 5.51889 0.110941 0
M  V30 12632 H 1226.42 4.22325 1.20573 0
M  V30 12633 H 1227.03 4.22734 -0.466467 0
M  V30 12634 N 1225.34 0.486708 1.49896 0
M  V30 12635 C 1226.29 -0.299294 2.28851 0
M  V30 12636 C 1227.26 -0.973251 1.346 0
M  V30 12637 O 1228.45 -0.982678 1.63548 0
M  V30 12638 C 1225.59 -1.36624 3.16904 0
M  V30 12639 C 1224.7 -0.705492 4.262 0
M  V30 12640 C 1223.83 -1.75165 5.01488 0
M  V30 12641 C 1222.87 -1.072 6.0264 0
M  V30 12642 N 1222.01 -2.06172 6.71147 0
M  V30 12643 H 1226.85 0.380272 2.95564 0
M  V30 12644 H 1224.39 0.199377 1.45743 0
M  V30 12645 H 1226.35 -1.99666 3.66319 0
M  V30 12646 H 1224.98 -2.01476 2.52205 0
M  V30 12647 H 1224.03 0.0378757 3.80381 0
M  V30 12648 H 1225.34 -0.169774 4.98511 0
M  V30 12649 H 1224.49 -2.45749 5.547 0
M  V30 12650 H 1223.23 -2.3212 4.28919 0
M  V30 12651 H 1222.24 -0.351868 5.48673 0
M  V30 12652 H 1223.46 -0.509139 6.77189 0
M  V30 12653 H 1221.41 -2.62115 6.01358 0
M  V30 12654 H 1221.33 -1.57627 7.39385 0
M  V30 12655 H 1222.59 -2.76088 7.28969 0
M  V30 12656 N 1226.82 -1.56058 0.219941 0
M  V30 12657 C 1227.75 -2.2321 -0.685547 0
M  V30 12658 C 1228.73 -1.20328 -1.20229 0
M  V30 12659 O 1229.92 -1.48909 -1.24659 0
M  V30 12660 C 1227.05 -2.91076 -1.89452 0
M  V30 12661 C 1226 -4.00415 -1.51169 0
M  V30 12662 C 1225.33 -4.55569 -2.79931 0
M  V30 12663 C 1226.63 -5.17549 -0.702896 0
M  V30 12664 H 1228.32 -2.99136 -0.125671 0
M  V30 12665 H 1225.87 -1.43879 -0.0590043 0
M  V30 12666 H 1227.82 -3.36744 -2.53341 0
M  V30 12667 H 1226.55 -2.12594 -2.47934 0
M  V30 12668 H 1225.21 -3.55475 -0.896275 0
M  V30 12669 H 1224.85 -3.73819 -3.36553 0
M  V30 12670 H 1224.55 -5.29361 -2.55049 0
M  V30 12671 H 1226.08 -5.03955 -3.44764 0
M  V30 12672 H 1227.49 -5.59608 -1.24544 0
M  V30 12673 H 1225.89 -5.97563 -0.551234 0
M  V30 12674 H 1226.96 -4.84027 0.29083 0
M  V30 12675 N 1228.3 0.053464 -1.57509 0
M  V30 12676 C 1229.53 0.761533 -1.92375 0
M  V30 12677 C 1229.94 1.70179 -0.817585 0
M  V30 12678 O 1229.3 1.81313 0.207843 0
M  V30 12679 C 1229.35 1.53954 -3.27078 0
M  V30 12680 O 1229.07 0.637054 -4.33443 0
M  V30 12681 C 1230.57 2.34697 -3.76075 0
M  V30 12682 H 1227.79 0.215483 -0.635459 0
M  V30 12683 H 1230.34 0.0182624 -2.04492 0
M  V30 12684 H 1228.49 2.23492 -3.16434 0
M  V30 12685 H 1228.91 1.18006 -5.11053 0
M  V30 12686 H 1230.38 2.84716 -4.72906 0
M  V30 12687 H 1230.86 3.15041 -3.06016 0
M  V30 12688 H 1231.46 1.70281 -3.89724 0
M  V30 12689 N 1229.78 1.54207 0.325255 0
M  V30 12690 C 1231 1.7661 1.08736 0
M  V30 12691 C 1231.43 0.512449 1.80985 0
M  V30 12692 O 1230.79 -0.535913 1.73198 0
M  V30 12693 C 1230.84 2.95797 2.06243 0
M  V30 12694 O 1229.94 2.67225 3.14109 0
M  V30 12695 H 1229.28 0.585282 0.313593 0
M  V30 12696 H 1231.81 2.01225 0.370066 0
M  V30 12697 H 1231.82 3.23097 2.49143 0
M  V30 12698 H 1230.5 3.86712 1.53058 0
M  V30 12699 H 1229.07 2.50869 2.75897 0
M  V30 12700 N 1231.26 -0.58723 1.46251 0
M  V30 12701 C 1232.2 -1.69662 1.56472 0
M  V30 12702 C 1233.17 -1.60978 0.409294 0
M  V30 12703 O 1234.36 -1.80257 0.625451 0
M  V30 12704 C 1231.5 -3.07996 1.55669 0
M  V30 12705 C 1230.61 -3.27337 2.81913 0
M  V30 12706 C 1229.75 -4.55894 2.72644 0
M  V30 12707 C 1228.79 -4.68562 3.93847 0
M  V30 12708 N 1227.92 -5.8844 3.82991 0
M  V30 12709 H 1232.76 -1.60262 2.51237 0
M  V30 12710 H 1230.3 -0.781148 1.24645 0
M  V30 12711 H 1232.26 -3.88058 1.53189 0
M  V30 12712 H 1230.89 -3.16303 0.6444 0
M  V30 12713 H 1229.94 -2.4091 2.94392 0
M  V30 12714 H 1231.25 -3.32567 3.71754 0
M  V30 12715 H 1230.41 -5.44178 2.68244 0
M  V30 12716 H 1229.15 -4.53094 1.80435 0
M  V30 12717 H 1228.15 -3.78696 3.98584 0
M  V30 12718 H 1229.38 -4.73144 4.87146 0
M  V30 12719 H 1227.32 -5.86647 2.93566 0
M  V30 12720 H 1227.24 -5.94919 4.66484 0
M  V30 12721 H 1228.51 -6.79168 3.82559 0
M  V30 12722 N 1232.74 -1.33881 -0.831482 0
M  V30 12723 C 1233.98 -1.251 -1.58218 0
M  V30 12724 C 1234.3 0.17963 -1.94773 0
M  V30 12725 O 1235.5 0.389516 -2.68691 0
M  V30 12726 C 1233.96 -2.19246 -2.8541 0
M  V30 12727 C 1233.57 -3.6752 -2.5619 0
M  V30 12728 C 1235.31 -2.19355 -3.63433 0
M  V30 12729 C 1233.22 -4.53559 -3.79523 0
M  V30 12730 H 1232.15 -0.46469 -0.593784 0
M  V30 12731 H 1234.8 -1.58992 -0.916169 0
M  V30 12732 H 1233.18 -1.78295 -3.53591 0
M  V30 12733 H 1234.36 -4.16956 -1.96173 0
M  V30 12734 H 1232.67 -3.69774 -1.91458 0
M  V30 12735 H 1235.27 -2.80863 -4.54995 0
M  V30 12736 H 1235.61 -1.19056 -3.98913 0
M  V30 12737 H 1236.14 -2.58706 -3.02185 0
M  V30 12738 H 1232.88 -5.54762 -3.4917 0
M  V30 12739 H 1232.4 -4.08862 -4.38853 0
M  V30 12740 H 1234.08 -4.67736 -4.47025 0
M  V30 12741 N 1234.21 1.05064 -1.1747 0
M  V30 12742 C 1235.63 1.30256 -0.922248 0
M  V30 12743 C 1235.83 1.97119 0.417896 0
M  V30 12744 O 1234.89 2.24557 1.15457 0
M  V30 12745 C 1236.2 2.17109 -2.08049 0
M  V30 12746 C 1237.75 2.30487 -2.11766 0
M  V30 12747 C 1238.22 3.20701 -3.26979 0
M  V30 12748 N 1239.71 3.28287 -3.26775 0
M  V30 12749 C 1240.45 3.98218 -4.12565 0
M  V30 12750 N 1239.94 4.70567 -5.08467 0
M  V30 12751 N 1241.74 3.94395 -4.00511 0
M  V30 12752 H 1233.89 0.600653 -2.0373 0
M  V30 12753 H 1236.15 0.327475 -0.889643 0
M  V30 12754 H 1235.86 1.75273 -3.04914 0
M  V30 12755 H 1235.73 3.1775 -2.03261 0
M  V30 12756 H 1238.12 2.71564 -1.15486 0
M  V30 12757 H 1238.2 1.29471 -2.20615 0
M  V30 12758 H 1237.84 2.80337 -4.23525 0
M  V30 12759 H 1237.77 4.21725 -3.15366 0
M  V30 12760 H 1240.26 2.76739 -2.5734 0
M  V30 12761 H 1240.58 5.21492 -5.70321 0
M  V30 12762 H 1238.92 4.69505 -5.12436 0
M  V30 12763 H 1242.11 3.37 -3.24882 0
M  V30 12764 H 1242.29 4.48626 -4.67588 0
M  V30 12765 N 1235.69 0.975146 1.23809 0
M  V30 12766 C 1236.94 0.642074 1.92367 0
M  V30 12767 C 1237.27 -0.82164 1.75962 0
M  V30 12768 O 1236.55 -1.59205 1.11732 0
M  V30 12769 C 1236.83 1.02677 3.45151 0
M  V30 12770 C 1236.68 2.54773 3.7069 0
M  V30 12771 C 1238 0.5668 4.36435 0
M  V30 12772 H 1235.12 0.234735 0.698619 0
M  V30 12773 H 1237.76 1.21549 1.46034 0
M  V30 12774 H 1235.91 0.538846 3.84745 0
M  V30 12775 H 1237.58 3.11099 3.4061 0
M  V30 12776 H 1235.83 2.97641 3.15583 0
M  V30 12777 H 1236.5 2.7674 4.77618 0
M  V30 12778 H 1238.97 0.985635 4.04258 0
M  V30 12779 H 1237.85 0.864458 5.4205 0
M  V30 12780 H 1238.11 -0.532989 4.38875 0
M  V30 12781 N 1237.17 -1.38817 0.746158 0
M  V30 12782 C 1238.4 -2.04274 0.309156 0
M  V30 12783 C 1238.81 -1.56389 -1.06486 0
M  V30 12784 O 1238.15 -0.728875 -1.68621 0
M  V30 12785 C 1238.21 -3.58664 0.245003 0
M  V30 12786 C 1237.88 -4.29574 1.55933 0
M  V30 12787 C 1238.87 -4.55454 2.50714 0
M  V30 12788 C 1236.56 -4.67907 1.82671 0
M  V30 12789 C 1238.55 -5.18691 3.70458 0
M  V30 12790 C 1236.24 -5.30869 3.0269 0
M  V30 12791 C 1237.24 -5.56195 3.96404 0
M  V30 12792 O 1236.93 -6.17848 5.14314 0
M  V30 12793 H 1236.66 -0.663162 0.131121 0
M  V30 12794 H 1239.21 -1.78636 1.01382 0
M  V30 12795 H 1237.44 -3.83244 -0.515847 0
M  V30 12796 H 1239.13 -4.05579 -0.16149 0
M  V30 12797 H 1239.9 -4.26276 2.3133 0
M  V30 12798 H 1235.78 -4.47544 1.10568 0
M  V30 12799 H 1239.32 -5.38375 4.4362 0
M  V30 12800 H 1235.22 -5.59469 3.2197 0
M  V30 12801 H 1235.98 -6.36338 5.14797 0
M  V30 12802 N 1238.65 -0.49465 -1.49636 0
M  V30 12803 C 1239.58 0.33366 -2.25748 0
M  V30 12804 C 1240.56 0.97591 -1.30057 0
M  V30 12805 O 1241.74 1.00725 -1.59332 0
M  V30 12806 C 1238.87 1.46938 -3.05167 0
M  V30 12807 C 1237.92 0.942149 -4.15964 0
M  V30 12808 S 1238.75 -0.162019 -5.35255 0
M  V30 12809 C 1239.9 0.977022 -6.18227 0
M  V30 12810 H 1240.14 -0.312361 -2.95655 0
M  V30 12811 H 1237.67 -0.279854 -1.51843 0
M  V30 12812 H 1239.63 2.12017 -3.5151 0
M  V30 12813 H 1238.29 2.087 -2.34741 0
M  V30 12814 H 1237.48 1.79309 -4.71025 0
M  V30 12815 H 1237.08 0.368687 -3.72178 0
M  V30 12816 H 1239.38 1.88363 -6.50788 0
M  V30 12817 H 1240.32 0.465168 -7.0657 0
M  V30 12818 H 1240.73 1.24149 -5.50679 0
M  V30 12819 N 1240.13 1.55939 -0.228214 0
M  V30 12820 C 1241.07 2.20581 0.679157 0
M  V30 12821 C 1242.04 1.16355 1.18536 0
M  V30 12822 O 1243.23 1.44735 1.24324 0
M  V30 12823 C 1240.37 2.89477 1.87875 0
M  V30 12824 C 1239.48 4.08313 1.41083 0
M  V30 12825 C 1238.62 4.64974 2.56851 0
M  V30 12826 C 1237.65 5.76098 2.06828 0
M  V30 12827 N 1236.79 6.27021 3.15894 0
M  V30 12828 H 1241.63 2.97753 0.121203 0
M  V30 12829 H 1239.17 1.47021 0.0480688 0
M  V30 12830 H 1241.13 3.2761 2.58317 0
M  V30 12831 H 1239.76 2.14811 2.40948 0
M  V30 12832 H 1238.81 3.75621 0.601102 0
M  V30 12833 H 1240.12 4.8859 1.00408 0
M  V30 12834 H 1239.27 5.05584 3.35365 0
M  V30 12835 H 1238.01 3.83875 3.00818 0
M  V30 12836 H 1237.02 5.34984 1.26778 0
M  V30 12837 H 1238.24 6.59037 1.63852 0
M  V30 12838 H 1236.19 5.48833 3.5933 0
M  V30 12839 H 1236.11 7.02439 2.79491 0
M  V30 12840 H 1237.37 6.72289 3.94523 0
M  V30 12841 N 1241.6 -0.0451101 1.57535 0
M  V30 12842 C 1243.02 -0.59372 1.77008 0
M  V30 12843 C 1243.37 -1.76482 0.857233 0
M  V30 12844 O 1242.49 -2.16347 0.0479703 0
M  V30 12845 C 1243.09 -1.08383 3.20996 0
M  V30 12846 C 1241.65 -1.57808 3.41721 0
M  V30 12847 C 1240.79 -0.509067 2.72587 0
M  V30 12848 H 1243.74 0.181114 1.57663 0
M  V30 12849 H 1243.76 -1.95181 3.26626 0
M  V30 12850 H 1243.28 -0.231276 3.8741 0
M  V30 12851 H 1241.38 -2.45302 2.8046 0
M  V30 12852 H 1241.49 -1.63664 4.50279 0
M  V30 12853 H 1239.85 -0.960389 2.359 0
M  V30 12854 H 1240.64 0.333753 3.41674 0
M  V30 12855 N 1243.08 -1.54377 -0.317073 0
M  V30 12856 C 1244.03 -1.84214 -1.39046 0
M  V30 12857 C 1245 -0.689742 -1.51102 0
M  V30 12858 O 1246.18 -0.936809 -1.66218 0
M  V30 12859 C 1243.32 -2.08087 -2.75307 0
M  V30 12860 C 1242.44 -3.35756 -2.7183 0
M  V30 12861 C 1241.57 -3.49556 -3.9998 0
M  V30 12862 C 1240.61 -4.71076 -3.90837 0
M  V30 12863 N 1239.75 -4.81767 -5.10729 0
M  V30 12864 H 1244.59 -2.75785 -1.12902 0
M  V30 12865 H 1242.13 -1.36575 -0.546404 0
M  V30 12866 H 1244.08 -2.19921 -3.54529 0
M  V30 12867 H 1242.71 -1.19801 -2.99746 0
M  V30 12868 H 1241.77 -3.32627 -1.84563 0
M  V30 12869 H 1243.08 -4.2509 -2.60959 0
M  V30 12870 H 1242.23 -3.60967 -4.87635 0
M  V30 12871 H 1240.97 -2.58326 -4.13665 0
M  V30 12872 H 1239.98 -4.59715 -3.01566 0
M  V30 12873 H 1241.2 -5.63698 -3.78711 0
M  V30 12874 H 1239.15 -3.93455 -5.24908 0
M  V30 12875 H 1239.06 -5.65077 -5.02219 0
M  V30 12876 H 1240.33 -4.97517 -6.00081 0
M  V30 12877 N 1244.56 0.579466 -1.4656 0
M  V30 12878 C 1245.51 1.68327 -1.53785 0
M  V30 12879 C 1246.49 1.55887 -0.398512 0
M  V30 12880 O 1247.69 1.64746 -0.647119 0
M  V30 12881 C 1244.82 3.07113 -1.53416 0
M  V30 12882 C 1243.9 3.24839 -2.72655 0
M  V30 12883 N 1244.29 3.12711 -3.97549 0
M  V30 12884 C 1242.59 3.55786 -2.68947 0
M  V30 12885 C 1243.29 3.32528 -4.77284 0
M  V30 12886 N 1242.27 3.57834 -4.09214 0
M  V30 12887 H 1246.07 1.57486 -2.48144 0
M  V30 12888 H 1243.58 0.783591 -1.42245 0
M  V30 12889 H 1245.58 3.86338 -1.5668 0
M  V30 12890 H 1244.24 3.19083 -0.601365 0
M  V30 12891 H 1245.25 2.90508 -4.28749 0
M  V30 12892 H 1241.93 3.7442 -1.84705 0
M  V30 12893 H 1243.32 3.28308 -5.86228 0
M  V30 12894 N 1246.04 1.3432 0.824371 0
M  V30 12895 C 1247.28 1.26783 1.58284 0
M  V30 12896 C 1247.62 -0.162282 1.93521 0
M  V30 12897 O 1246.89 -1.1073 1.59903 0
M  V30 12898 C 1247.18 2.15725 2.88331 0
M  V30 12899 C 1247.03 3.67266 2.59684 0
M  V30 12900 C 1248.35 2.04141 3.8989 0
M  V30 12901 H 1245.47 0.461893 0.574303 0
M  V30 12902 H 1248.11 1.64558 0.949769 0
M  V30 12903 H 1246.26 1.83639 3.42358 0
M  V30 12904 H 1247.93 4.09711 2.11978 0
M  V30 12905 H 1246.17 3.88426 1.93151 0
M  V30 12906 H 1246.84 4.24863 3.52414 0
M  V30 12907 H 1249.32 2.3231 3.45212 0
M  V30 12908 H 1248.2 2.68601 4.7869 0
M  V30 12909 H 1248.46 1.01795 4.30221 0
M  V30 12910 N 1247.52 -1.0444 1.18026 0
M  V30 12911 C 1248.93 -1.29766 0.929143 0
M  V30 12912 C 1249.13 -1.97338 -0.407436 0
M  V30 12913 O 1248.19 -2.25166 -1.14265 0
M  V30 12914 C 1249.5 -2.16002 2.09197 0
M  V30 12915 C 1251.05 -2.29361 2.12985 0
M  V30 12916 C 1251.52 -3.18962 3.28675 0
M  V30 12917 N 1253.02 -3.26549 3.28512 0
M  V30 12918 C 1253.75 -3.96025 4.14671 0
M  V30 12919 N 1253.25 -4.67863 5.10956 0
M  V30 12920 N 1255.04 -3.92266 4.02597 0
M  V30 12921 H 1247.19 -0.58984 2.04046 0
M  V30 12922 H 1249.45 -0.322752 0.891367 0
M  V30 12923 H 1249.16 -1.73653 3.05839 0
M  V30 12924 H 1249.03 -3.16667 2.04943 0
M  V30 12925 H 1251.42 -2.70948 1.16924 0
M  V30 12926 H 1251.5 -1.28299 2.21298 0
M  V30 12927 H 1251.15 -2.78087 4.25006 0
M  V30 12928 H 1251.08 -4.20047 3.17598 0
M  V30 12929 H 1253.57 -2.75371 2.58804 0
M  V30 12930 H 1253.88 -5.1846 5.73079 0
M  V30 12931 H 1252.22 -4.6678 5.14919 0
M  V30 12932 H 1255.42 -3.35273 3.26665 0
M  V30 12933 H 1255.59 -4.4614 4.69961 0
M  V30 12934 N 1248.99 -0.981699 -1.2329 0
M  V30 12935 C 1250.24 -0.652266 -1.92024 0
M  V30 12936 C 1250.57 0.812297 -1.76396 0
M  V30 12937 O 1249.85 1.5861 -1.12575 0
M  V30 12938 C 1250.13 -1.04506 -3.44602 0
M  V30 12939 C 1249.98 -2.56735 -3.69333 0
M  V30 12940 C 1251.3 -0.589937 -4.36128 0
M  V30 12941 H 1248.42 -0.238437 -0.697364 0
M  V30 12942 H 1251.06 -1.22322 -1.45387 0
M  V30 12943 H 1249.21 -0.559242 -3.84454 0
M  V30 12944 H 1250.89 -3.12901 -3.38955 0
M  V30 12945 H 1249.13 -2.9931 -3.14 0
M  V30 12946 H 1249.8 -2.79269 -4.76144 0
M  V30 12947 H 1252.28 -1.00706 -4.0373 0
M  V30 12948 H 1251.15 -0.893192 -5.41584 0
M  V30 12949 H 1251.41 0.509707 -4.39152 0
M  V30 12950 N 1250.47 1.3842 -0.753509 0
M  V30 12951 C 1251.72 2.00882 -0.319047 0
M  V30 12952 C 1252.07 1.58741 1.08715 0
M  V30 12953 O 1251.37 0.814892 1.73407 0
M  V30 12954 C 1251.56 3.55375 -0.379937 0
M  V30 12955 C 1251.39 4.12518 -1.79051 0
M  V30 12956 C 1250.16 4.44286 -2.40703 0
M  V30 12957 C 1252.36 4.34783 -2.74716 0
M  V30 12958 N 1250.34 4.87036 -3.73723 0
M  V30 12959 C 1251.71 4.79941 -3.92501 0
M  V30 12960 C 1253.77 4.16882 -2.72239 0
M  V30 12961 C 1252.47 5.09075 -5.08169 0
M  V30 12962 C 1254.49 4.4714 -3.87065 0
M  V30 12963 C 1253.86 4.92522 -5.03588 0
M  V30 12964 H 1249.96 0.764737 -0.163404 0
M  V30 12965 H 1252.54 1.68037 -0.983445 0
M  V30 12966 H 1250.71 3.87567 0.254192 0
M  V30 12967 H 1252.44 4.04631 0.0748361 0
M  V30 12968 H 1249.2 4.32727 -1.9247 0
M  V30 12969 H 1249.62 5.12745 -4.42065 0
M  V30 12970 H 1254.26 3.80983 -1.83335 0
M  V30 12971 H 1251.98 5.4387 -5.97688 0
M  V30 12972 H 1255.57 4.34895 -3.86468 0
M  V30 12973 H 1254.45 5.15489 -5.90966 0
M  V30 12974 N 1251.95 0.502579 1.49372 0
M  V30 12975 C 1253.19 -0.0397257 2.04361 0
M  V30 12976 C 1253.55 -1.34131 1.37379 0
M  V30 12977 O 1254.76 -1.96795 1.83099 0
M  V30 12978 C 1253.03 -0.187322 3.56909 0
M  V30 12979 S 1254.59 -0.683647 4.33442 0
M  V30 12980 H 1251.4 -0.00102134 0.710999 0
M  V30 12981 H 1254.01 0.676905 1.83407 0
M  V30 12982 H 1252.71 0.765255 4.03202 0
M  V30 12983 H 1252.24 -0.929146 3.8227 0
M  V30 12984 H 1254.26 -1.95255 4.56169 0
M  V30 12985 N 1253.43 -1.55816 0.23648 0
M  V30 12986 C 1254.84 -1.84757 -0.268622 0
M  V30 12987 C 1255.19 -1.15815 -1.58371 0
M  V30 12988 O 1254.32 -0.432923 -2.12025 0
M  V30 12989 C 1254.91 -3.35177 -0.494167 0
M  V30 12990 C 1253.47 -3.64382 -0.943551 0
M  V30 12991 C 1252.62 -2.77296 -0.0149191 0
M  V30 12992 H 1255.57 -1.51908 0.459308 0
M  V30 12993 H 1255.59 -3.56192 -1.3382 0
M  V30 12994 H 1255.1 -3.85327 0.463138 0
M  V30 12995 H 1253.2 -3.19701 -1.91369 0
M  V30 12996 H 1253.31 -4.72244 -0.807626 0
M  V30 12997 H 1251.68 -2.49243 -0.524419 0
M  V30 12998 H 1252.46 -3.30249 0.937571 0
M  V30 12999 N 1254.91 0.036755 -1.57557 0
M  V30 13000 C 1256.32 0.392264 -1.54704 0
M  V30 13001 C 1256.52 1.77076 -0.96157 0
M  V30 13002 O 1255.58 2.45766 -0.579263 0
M  V30 13003 C 1256.89 0.301168 -2.99188 0
M  V30 13004 C 1258.44 0.378813 -3.10699 0
M  V30 13005 C 1258.91 0.317249 -4.569 0
M  V30 13006 N 1260.41 0.376277 -4.61669 0
M  V30 13007 C 1261.14 0.351411 -5.72322 0
M  V30 13008 N 1260.64 0.279288 -6.92237 0
M  V30 13009 N 1262.43 0.400571 -5.60671 0
M  V30 13010 H 1254.58 -0.865455 -1.93968 0
M  V30 13011 H 1256.84 -0.328339 -0.889324 0
M  V30 13012 H 1256.55 -0.64582 -3.4572 0
M  V30 13013 H 1256.42 1.09784 -3.6087 0
M  V30 13014 H 1258.81 1.31623 -2.6412 0
M  V30 13015 H 1258.89 -0.447072 -2.51863 0
M  V30 13016 H 1258.54 -0.616469 -5.04145 0
M  V30 13017 H 1258.47 1.16114 -5.13639 0
M  V30 13018 H 1260.96 0.434843 -3.7539 0
M  V30 13019 H 1261.27 0.265202 -7.72345 0
M  V30 13020 H 1259.61 0.24545 -6.94566 0
M  V30 13021 H 1262.81 0.454854 -4.65885 0
M  V30 13022 H 1262.98 0.377724 -6.46898 0
M  V30 13023 N 1256.39 1.54543 0.308881 0
M  V30 13024 C 1257.8 1.64532 0.882392 0
M  V30 13025 C 1258.15 0.54886 1.88367 0
M  V30 13026 O 1257.27 -0.315832 2.14083 0
M  V30 13027 C 1257.87 2.98251 1.60722 0
M  V30 13028 C 1256.43 3.10387 2.12925 0
M  V30 13029 C 1255.57 2.60176 0.959362 0
M  V30 13030 H 1258.52 1.58466 0.0860803 0
M  V30 13031 H 1258.55 2.89233 2.47233 0
M  V30 13032 H 1258.06 3.78033 0.878233 0
M  V30 13033 H 1256.16 2.35309 2.88895 0
M  V30 13034 H 1256.27 4.16421 2.36918 0
M  V30 13035 H 1254.64 2.16434 1.3427 0
M  V30 13036 H 1255.42 3.42429 0.244454 0
M  V30 13037 N 1257.86 -0.571685 1.46866 0
M  V30 13038 C 1259.27 -1.15383 1.46778 0
M  V30 13039 C 1259.63 -1.95023 0.214576 0
M  V30 13040 O 1258.75 -2.05386 -0.681574 0
M  V30 13041 C 1259.35 -2.09915 2.65935 0
M  V30 13042 C 1257.9 -2.6343 2.68852 0
M  V30 13043 C 1257.05 -1.39517 2.39646 0
M  V30 13044 H 1260 -0.359036 1.54585 0
M  V30 13045 H 1260.02 -2.9356 2.42081 0
M  V30 13046 H 1259.54 -1.51923 3.57129 0
M  V30 13047 H 1257.64 -3.2526 1.8176 0
M  V30 13048 H 1257.75 -3.05412 3.69134 0
M  V30 13049 H 1256.11 -1.69702 1.8993 0
M  V30 13050 H 1256.9 -0.833399 3.33031 0
M  V30 13051 N 1259.34 -1.34755 -0.817236 0
M  V30 13052 C 1260.76 -1.14561 -1.11121 0
M  V30 13053 C 1260.96 0.0490776 -2.0144 0
M  V30 13054 O 1260.01 0.722897 -2.41931 0
M  V30 13055 C 1261.33 -2.44356 -1.75244 0
M  V30 13056 C 1262.87 -2.50465 -1.87713 0
M  V30 13057 C 1263.35 -3.80276 -2.55253 0
M  V30 13058 N 1264.84 -3.81468 -2.62747 0
M  V30 13059 C 1265.58 -4.78634 -3.15749 0
M  V30 13060 N 1265.07 -5.86184 -3.6927 0
M  V30 13061 N 1266.86 -4.66083 -3.14203 0
M  V30 13062 H 1259.02 -2.11293 -0.2166 0
M  V30 13063 H 1261.28 -0.934629 -0.158661 0
M  V30 13064 H 1260.98 -3.31899 -1.16344 0
M  V30 13065 H 1260.86 -2.58117 -2.75055 0
M  V30 13066 H 1263.25 -1.63358 -2.45761 0
M  V30 13067 H 1263.33 -2.40627 -0.867887 0
M  V30 13068 H 1262.97 -4.67776 -1.97858 0
M  V30 13069 H 1262.9 -3.87399 -3.56693 0
M  V30 13070 H 1265.39 -3.03753 -2.24817 0
M  V30 13071 H 1265.7 -6.56332 -4.0798 0
M  V30 13072 H 1264.05 -5.8989 -3.67498 0
M  V30 13073 H 1267.24 -3.81206 -2.7166 0
M  V30 13074 H 1267.41 -5.41973 -3.55203 0
M  V30 13075 N 1260.82 1.03812 -1.18578 0
M  V30 13076 C 1261.78 2.10049 -0.91718 0
M  V30 13077 C 1262.78 1.60498 0.0985122 0
M  V30 13078 O 1263.97 1.73674 -0.135213 0
M  V30 13079 C 1261.1 3.38813 -0.376599 0
M  V30 13080 H 1262.3 2.3531 -1.85927 0
M  V30 13081 H 1259.85 1.20277 -0.998156 0
M  V30 13082 H 1260.59 3.19216 0.571983 0
M  V30 13083 H 1260.37 3.76096 -1.10881 0
M  V30 13084 H 1261.86 4.17084 -0.207453 0
M  V30 13085 N 1262.3 0.988223 1.22768 0
M  V30 13086 C 1263.54 0.662441 1.91676 0
M  V30 13087 C 1263.88 -0.802931 1.76824 0
M  V30 13088 O 1263.15 -1.58011 1.13415 0
M  V30 13089 C 1263.43 1.06332 3.44043 0
M  V30 13090 C 1263.29 2.5869 3.67967 0
M  V30 13091 C 1264.61 0.613058 4.35809 0
M  V30 13092 H 1261.73 0.242132 0.69609 0
M  V30 13093 H 1264.37 1.23091 1.44736 0
M  V30 13094 H 1262.52 0.579623 3.84152 0
M  V30 13095 H 1264.19 3.14694 3.37291 0
M  V30 13096 H 1262.43 3.00971 3.12408 0
M  V30 13097 H 1263.1 2.8179 4.74656 0
M  V30 13098 H 1265.58 1.02846 4.0319 0
M  V30 13099 H 1264.46 0.921901 5.41103 0
M  V30 13100 H 1264.72 -0.48641 4.39416 0
M  V30 13101 N 1263.78 -1.38018 0.760839 0
M  V30 13102 C 1265.19 -1.82645 0.387022 0
M  V30 13103 C 1265.54 -1.63445 -1.08536 0
M  V30 13104 O 1264.66 -1.13958 -1.83963 0
M  V30 13105 C 1265.26 -3.3158 0.69569 0
M  V30 13106 C 1263.82 -3.74527 0.375063 0
M  V30 13107 C 1262.96 -2.60696 0.94515 0
M  V30 13108 H 1265.91 -1.26644 0.956396 0
M  V30 13109 H 1265.94 -3.80493 -0.0235511 0
M  V30 13110 H 1265.45 -3.45522 1.76737 0
M  V30 13111 H 1263.55 -3.6616 -0.689741 0
M  V30 13112 H 1263.66 -4.71029 0.875685 0
M  V30 13113 H 1262.03 -2.51997 0.370065 0
M  V30 13114 H 1262.81 -2.77434 2.02201 0
M  V30 13115 N 1265.25 -0.510493 -1.49103 0
M  V30 13116 C 1266.48 0.0271324 -2.06582 0
M  V30 13117 C 1266.89 1.30499 -1.36991 0
M  V30 13118 O 1266.23 1.78229 -0.444976 0
M  V30 13119 C 1266.3 0.341488 -3.57874 0
M  V30 13120 C 1265.96 -0.840037 -4.49213 0
M  V30 13121 C 1266.96 -1.73315 -4.90161 0
M  V30 13122 C 1264.64 -1.04153 -4.91383 0
M  V30 13123 C 1266.64 -2.81182 -5.72028 0
M  V30 13124 C 1264.32 -2.12336 -5.73024 0
M  V30 13125 C 1265.32 -3.00684 -6.13252 0
M  V30 13126 O 1265.01 -4.06999 -6.93258 0
M  V30 13127 H 1264.74 -0.0215383 -0.675657 0
M  V30 13128 H 1267.3 -0.709841 -1.92744 0
M  V30 13129 H 1265.53 1.13218 -3.69755 0
M  V30 13130 H 1267.21 0.818859 -3.97554 0
M  V30 13131 H 1267.98 -1.58934 -4.58219 0
M  V30 13132 H 1263.86 -0.363199 -4.59567 0
M  V30 13133 H 1267.4 -3.50169 -6.03347 0
M  V30 13134 H 1263.3 -2.26708 -6.04379 0
M  V30 13135 H 1264.07 -4.04469 -7.11581 0
M  V30 13136 N 1266.73 1.55688 -0.24474 0
M  V30 13137 C 1267.96 2.02995 0.38425 0
M  V30 13138 C 1268.37 1.12339 1.52239 0
M  V30 13139 O 1267.71 0.129803 1.83241 0
M  V30 13140 C 1267.77 3.46564 0.955701 0
M  V30 13141 C 1267.44 4.56973 -0.0499176 0
M  V30 13142 C 1268.44 5.1276 -0.858682 0
M  V30 13143 C 1266.12 5.01994 -0.175383 0
M  V30 13144 C 1268.11 6.12059 -1.77939 0
M  V30 13145 C 1265.8 6.01126 -1.0996 0
M  V30 13146 C 1266.8 6.56037 -1.90013 0
M  V30 13147 O 1266.49 7.53235 -2.80877 0
M  V30 13148 H 1266.22 0.669189 0.0957212 0
M  V30 13149 H 1268.77 2.02121 -0.36555 0
M  V30 13150 H 1267 3.44581 1.75502 0
M  V30 13151 H 1268.69 3.77383 1.49454 0
M  V30 13152 H 1269.46 4.78811 -0.772325 0
M  V30 13153 H 1265.34 4.58918 0.437644 0
M  V30 13154 H 1268.88 6.54845 -2.40465 0
M  V30 13155 H 1264.78 6.34494 -1.18689 0
M  V30 13156 H 1265.55 7.70844 -2.75214 0
M  V30 13157 N 1268.21 -0.0283989 1.57574 0
M  V30 13158 C 1269.46 -0.717656 1.88929 0
M  V30 13159 C 1269.78 -1.7586 0.842517 0
M  V30 13160 O 1269.05 -1.95509 -0.123774 0
M  V30 13161 H 1267.63 -0.268051 0.69725 0
M  V30 13162 H 1270.29 0.00580691 1.94899 0
M  V30 13163 H 1269.39 -1.2068 2.87824 0
M  V30 13164 N 1269.69 -1.54705 -0.300681 0
M  V30 13165 C 1271.1 -1.64998 -0.873654 0
M  V30 13166 C 1271.45 -0.558842 -1.88073 0
M  V30 13167 O 1270.57 0.304474 -2.14247 0
M  V30 13168 C 1271.17 -2.99099 -1.59138 0
M  V30 13169 C 1269.73 -3.11512 -2.11276 0
M  V30 13170 C 1268.88 -2.60681 -0.945551 0
M  V30 13171 H 1271.83 -1.5851 -0.0776752 0
M  V30 13172 H 1271.85 -2.9054 -2.45696 0
M  V30 13173 H 1271.36 -3.78493 -0.858172 0
M  V30 13174 H 1269.46 -2.36838 -2.87643 0
M  V30 13175 H 1269.57 -4.17672 -2.34707 0
M  V30 13176 H 1267.94 -2.17143 -1.33121 0
M  V30 13177 H 1268.72 -3.42553 -0.226291 0
M  V30 13178 N 1271.17 0.563888 -1.47167 0
M  V30 13179 C 1272.41 1.31875 -1.53145 0
M  V30 13180 C 1272.74 1.94047 -0.192518 0
M  V30 13181 O 1272.01 1.79577 0.782872 0
M  V30 13182 H 1270.59 0.489694 -0.5641 0
M  V30 13183 H 1273.25 0.658976 -1.83422 0
M  V30 13184 H 1272.34 2.11574 -2.2944 0
M  V30 13185 N 1272.64 1.35187 0.810078 0
M  V30 13186 C 1273.89 1.28454 1.56931 0
M  V30 13187 C 1274.22 -0.141747 1.93682 0
M  V30 13188 O 1273.5 -1.09028 1.61069 0
M  V30 13189 C 1273.78 2.18771 2.86027 0
M  V30 13190 C 1273.63 3.69999 2.55774 0
M  V30 13191 C 1274.95 2.08265 3.87703 0
M  V30 13192 H 1272.07 0.467959 0.569371 0
M  V30 13193 H 1274.71 1.65556 0.932262 0
M  V30 13194 H 1272.86 1.8726 3.40391 0
M  V30 13195 H 1274.54 4.11936 2.07621 0
M  V30 13196 H 1272.78 3.90453 1.89021 0
M  V30 13197 H 1273.45 4.28577 3.47888 0
M  V30 13198 H 1275.93 2.35958 3.42729 0
M  V30 13199 H 1274.8 2.73663 4.75815 0
M  V30 13200 H 1275.06 1.06352 4.29117 0
M  V30 13201 N 1274.12 -1.03182 1.19127 0
M  V30 13202 C 1275.4 -1.73586 0.901507 0
M  V30 13203 C 1275.78 -2.02585 -0.593521 0
M  V30 13204 O 1275.13 -1.67813 -1.55084 0
M  V30 13205 C 1275.34 -3.01472 1.75829 0
M  V30 13206 C 1276.69 -3.75037 1.99078 0
M  V30 13207 O 1277.71 -3.11392 1.72956 0
M  V30 13208 O 1276.57 -4.8945 2.43108 0
M  V30 13209 H 1273.66 -0.755797 0.335708 0
M  V30 13210 H 1276.21 -1.09167 1.29925 0
M  V30 13211 H 1274.98 -2.76247 2.77134 0
M  V30 13212 H 1274.6 -3.73631 1.35963 0
M  V30 13213 N 1275.6 -0.99472 -1.22242 0
M  V30 13214 C 1276.83 -0.689096 -1.94769 0
M  V30 13215 C 1277.24 0.750597 -1.73674 0
M  V30 13216 O 1276.58 1.51836 -1.03399 0
M  V30 13217 C 1276.64 -0.917454 -3.47596 0
M  V30 13218 C 1276.31 -2.34198 -3.92429 0
M  V30 13219 C 1277.3 -3.3216 -3.99957 0
M  V30 13220 C 1274.99 -2.6769 -4.25026 0
M  V30 13221 C 1276.98 -4.61686 -4.3946 0
M  V30 13222 C 1274.67 -3.97435 -4.64208 0
M  V30 13223 C 1275.67 -4.94244 -4.71394 0
M  V30 13224 O 1275.36 -6.2167 -5.09688 0
M  V30 13225 H 1275.09 -0.253914 -0.626501 0
M  V30 13226 H 1277.64 -1.33271 -1.56294 0
M  V30 13227 H 1275.87 -0.21666 -3.86093 0
M  V30 13228 H 1277.56 -0.6068 -4.01339 0
M  V30 13229 H 1278.33 -3.07619 -3.74961 0
M  V30 13230 H 1274.21 -1.93039 -4.18637 0
M  V30 13231 H 1277.75 -5.37248 -4.44983 0
M  V30 13232 H 1273.65 -4.21765 -4.88656 0
M  V30 13233 H 1274.42 -6.25634 -5.27755 0
M  V30 13234 N 1277.08 1.37613 -0.768148 0
M  V30 13235 C 1278.03 2.30311 -0.150176 0
M  V30 13236 C 1279 1.50918 0.69376 0
M  V30 13237 O 1280.18 1.795 0.64687 0
M  V30 13238 C 1277.32 3.37382 0.72576 0
M  V30 13239 C 1276.43 4.31791 -0.13439 0
M  V30 13240 C 1275.57 5.25937 0.745915 0
M  V30 13241 C 1274.61 6.11988 -0.116988 0
M  V30 13242 N 1273.74 6.98387 0.721091 0
M  V30 13243 H 1278.58 2.82579 -0.946212 0
M  V30 13244 H 1276.12 1.3911 -0.478217 0
M  V30 13245 H 1278.08 3.98084 1.24839 0
M  V30 13246 H 1276.71 2.86488 1.48743 0
M  V30 13247 H 1275.76 3.72426 -0.774793 0
M  V30 13248 H 1277.07 4.9234 -0.800163 0
M  V30 13249 H 1276.23 5.91826 1.33516 0
M  V30 13250 H 1274.97 4.6579 1.44538 0
M  V30 13251 H 1273.97 5.45081 -0.7188 0
M  V30 13252 H 1275.2 6.74207 -0.813732 0
M  V30 13253 H 1273.14 6.40772 1.40524 0
M  V30 13254 H 1273.06 7.55916 0.112536 0
M  V30 13255 H 1274.33 7.6867 1.29485 0
M  V30 13256 N 1278.56 0.518393 1.4883 0
M  V30 13257 C 1279.83 -0.0837498 1.95421 0
M  V30 13258 C 1280.21 -1.52435 1.46037 0
M  V30 13259 O 1279.56 -2.18093 0.681736 0
M  V30 13260 C 1279.77 0.0215333 3.48993 0
M  V30 13261 C 1281.12 -0.143615 4.24357 0
M  V30 13262 O 1282.14 -0.0528223 3.56161 0
M  V30 13263 O 1281 -0.332231 5.45489 0
M  V30 13264 H 1278.1 -0.0857132 0.822546 0
M  V30 13265 H 1280.64 0.582169 1.59402 0
M  V30 13266 H 1279.41 1.02549 3.77623 0
M  V30 13267 H 1279.04 -0.683756 3.91677 0
M  V30 13268 N 1280.03 -1.55556 0.252993 0
M  V30 13269 C 1281.28 -1.98697 -0.369319 0
M  V30 13270 C 1281.6 -1.14256 -1.58021 0
M  V30 13271 O 1280.87 -0.226779 -1.94583 0
M  V30 13272 H 1279.45 -0.733869 -0.139444 0
M  V30 13273 H 1282.12 -1.91673 0.353197 0
M  V30 13274 H 1281.21 -3.04728 -0.674312 0
M  V30 13275 N 1281.51 0.0200419 -1.57587 0
M  V30 13276 C 1282.44 1.01715 -2.10181 0
M  V30 13277 C 1283.42 1.37136 -1.00636 0
M  V30 13278 O 1284.61 1.45862 -1.2821 0
M  V30 13279 C 1281.74 2.31531 -2.58865 0
M  V30 13280 C 1280.69 2.10327 -3.72755 0
M  V30 13281 C 1280.02 3.45981 -4.07678 0
M  V30 13282 C 1281.32 1.4821 -5.0083 0
M  V30 13283 H 1283.01 0.579307 -2.93742 0
M  V30 13284 H 1280.56 0.277211 -1.41307 0
M  V30 13285 H 1282.51 3.01623 -2.94281 0
M  V30 13286 H 1281.24 2.77392 -1.72399 0
M  V30 13287 H 1279.89 1.42665 -3.37701 0
M  V30 13288 H 1279.54 3.89508 -3.18265 0
M  V30 13289 H 1279.24 3.32616 -4.84397 0
M  V30 13290 H 1280.77 4.17421 -4.45637 0
M  V30 13291 H 1282.18 2.08232 -5.34146 0
M  V30 13292 H 1280.58 1.45393 -5.82221 0
M  V30 13293 H 1281.65 0.448942 -4.82817 0
M  V30 13294 N 1282.99 1.54862 0.292472 0
M  V30 13295 C 1283.95 1.8565 1.34413 0
M  V30 13296 C 1284.95 0.729868 1.43281 0
M  V30 13297 O 1286.14 0.998128 1.42769 0
M  V30 13298 C 1283.28 2.0444 2.72795 0
M  V30 13299 H 1284.47 2.79642 1.08354 0
M  V30 13300 H 1282.02 1.47055 0.529574 0
M  V30 13301 H 1282.76 1.12765 3.04063 0
M  V30 13302 H 1282.54 2.86451 2.67747 0
M  V30 13303 H 1284.03 2.296 3.48817 0
M  V30 13304 N 1284.47 -0.556076 1.47464 0
M  V30 13305 C 1285.88 -1.1382 1.47993 0
M  V30 13306 C 1286.23 -1.94785 0.235249 0
M  V30 13307 O 1285.36 -2.06098 -0.659752 0
M  V30 13308 C 1285.95 -2.07082 2.68146 0
M  V30 13309 C 1284.51 -2.60564 2.71631 0
M  V30 13310 C 1283.66 -1.36967 2.41113 0
M  V30 13311 H 1286.61 -0.34262 1.54957 0
M  V30 13312 H 1286.63 -2.90975 2.45181 0
M  V30 13313 H 1286.14 -1.48127 3.5872 0
M  V30 13314 H 1284.24 -3.23314 1.852 0
M  V30 13315 H 1284.35 -3.0148 3.72353 0
M  V30 13316 H 1282.72 -1.67678 1.91719 0
M  V30 13317 H 1283.5 -0.79803 3.33896 0
M  V30 13318 N 1285.95 -1.35615 -0.802897 0
M  V30 13319 C 1286.88 -1.31506 -1.92947 0
M  V30 13320 C 1287.86 -0.188843 -1.69048 0
M  V30 13321 O 1289.04 -0.384384 -1.90358 0
M  V30 13322 C 1286.17 -1.09001 -3.29752 0
M  V30 13323 C 1285.13 -2.18303 -3.68141 0
M  V30 13324 C 1284.45 -1.80959 -5.03148 0
M  V30 13325 C 1285.75 -3.60296 -3.78132 0
M  V30 13326 H 1287.45 -2.25771 -1.96642 0
M  V30 13327 H 1284.99 -1.08682 -0.944685 0
M  V30 13328 H 1286.95 -1.04766 -4.08169 0
M  V30 13329 H 1285.67 -0.111832 -3.26408 0
M  V30 13330 H 1284.33 -2.21642 -2.92011 0
M  V30 13331 H 1283.98 -0.817495 -4.96312 0
M  V30 13332 H 1283.68 -2.54129 -5.29804 0
M  V30 13333 H 1285.2 -1.78255 -5.84001 0
M  V30 13334 H 1286.62 -3.59259 -4.46773 0
M  V30 13335 H 1285.01 -4.32258 -4.16261 0
M  V30 13336 H 1286.08 -3.9618 -2.79588 0
M  V30 13337 N 1287.43 1.02549 -1.19673 0
M  V30 13338 C 1288.84 1.57454 -1.00325 0
M  V30 13339 C 1289.19 1.91136 0.442889 0
M  V30 13340 O 1288.31 1.7126 1.32284 0
M  V30 13341 C 1288.91 2.86091 -1.81486 0
M  V30 13342 C 1287.47 3.37557 -1.6653 0
M  V30 13343 C 1286.61 2.1096 -1.79975 0
M  V30 13344 H 1289.56 0.850364 -1.33994 0
M  V30 13345 H 1289.59 3.5713 -1.31296 0
M  V30 13346 H 1289.1 2.61546 -2.86733 0
M  V30 13347 H 1287.2 3.67083 -0.638834 0
M  V30 13348 H 1287.31 4.1036 -2.47269 0
M  V30 13349 H 1285.68 2.22993 -1.23071 0
M  V30 13350 H 1286.46 1.88852 -2.86688 0
M  V30 13351 N 1288.9 1.00119 1.21713 0
M  V30 13352 C 1290.15 0.680377 1.90303 0
M  V30 13353 C 1290.47 -0.790927 1.7824 0
M  V30 13354 O 1289.74 -1.5676 1.17486 0
M  V30 13355 H 1288.32 0.248665 0.704397 0
M  V30 13356 H 1290.98 1.26948 1.47886 0
M  V30 13357 H 1290.08 0.950188 2.97284 0
M  V30 13358 N 1290.38 -1.37203 0.775435 0
M  V30 13359 C 1291.33 -2.30228 0.162388 0
M  V30 13360 C 1292.3 -1.51284 -0.685747 0
M  V30 13361 O 1293.48 -1.7984 -0.637342 0
M  V30 13362 C 1290.62 -3.37762 -0.707858 0
M  V30 13363 C 1289.74 -4.31714 0.157287 0
M  V30 13364 C 1288.87 -5.26325 -0.718012 0
M  V30 13365 C 1287.91 -6.11918 0.149442 0
M  V30 13366 N 1287.05 -6.9876 -0.684043 0
M  V30 13367 H 1291.89 -2.82073 0.961184 0
M  V30 13368 H 1289.42 -1.38854 0.485587 0
M  V30 13369 H 1291.38 -3.98741 -1.22726 0
M  V30 13370 H 1290.01 -2.87273 -1.47222 0
M  V30 13371 H 1289.06 -3.7201 0.794533 0
M  V30 13372 H 1290.38 -4.91909 0.826262 0
M  V30 13373 H 1289.53 -5.92526 -1.30376 0
M  V30 13374 H 1288.27 -4.6655 -1.42066 0
M  V30 13375 H 1287.27 -5.44692 0.747697 0
M  V30 13376 H 1288.5 -6.73766 0.849476 0
M  V30 13377 H 1286.45 -6.41508 -1.37124 0
M  V30 13378 H 1286.36 -7.55965 -0.0724464 0
M  V30 13379 H 1287.63 -7.69346 -1.25407 0
M  V30 13380 N 1291.86 -0.526279 -1.48553 0
M  V30 13381 C 1293.11 0.00914839 -2.02098 0
M  V30 13382 C 1293.43 1.35119 -1.40598 0
M  V30 13383 O 1292.7 1.87422 -0.570065 0
M  V30 13384 H 1291.28 0.00636935 -0.746973 0
M  V30 13385 H 1293.94 -0.689269 -1.82305 0
M  V30 13386 H 1293.04 0.120212 -3.11868 0
M  V30 13387 N 1293.34 1.5542 -0.261239 0
M  V30 13388 C 1294.27 2.24949 0.626126 0
M  V30 13389 C 1295.25 1.23474 1.16997 0
M  V30 13390 O 1296.43 1.52161 1.20667 0
M  V30 13391 C 1293.56 2.95996 1.81669 0
M  V30 13392 C 1292.52 4.04282 1.40499 0
M  V30 13393 C 1291.84 4.62831 2.67753 0
M  V30 13394 C 1293.14 5.1923 0.56543 0
M  V30 13395 H 1294.84 2.99364 0.0463164 0
M  V30 13396 H 1292.38 1.43985 0.0208366 0
M  V30 13397 H 1294.34 3.43343 2.44323 0
M  V30 13398 H 1293.06 2.19093 2.42211 0
M  V30 13399 H 1291.72 3.57726 0.801712 0
M  V30 13400 H 1291.37 3.82611 3.26524 0
M  V30 13401 H 1291.07 5.35938 2.40925 0
M  V30 13402 H 1292.59 5.12918 3.31281 0
M  V30 13403 H 1294.01 5.62714 1.09663 0
M  V30 13404 H 1292.4 5.98814 0.392607 0
M  V30 13405 H 1293.47 4.83086 -0.419059 0
M  V30 13406 N 1294.82 -0.0116844 1.57596 0
M  V30 13407 C 1296.04 -0.71026 1.94327 0
M  V30 13408 C 1296.46 -1.67952 0.862418 0
M  V30 13409 O 1295.82 -1.818 -0.159698 0
M  V30 13410 C 1295.87 -1.45228 3.31045 0
M  V30 13411 O 1295.59 -0.52191 4.3498 0
M  V30 13412 C 1297.09 -2.24644 3.82165 0
M  V30 13413 H 1294.31 -0.198559 0.640949 0
M  V30 13414 H 1296.85 0.0359615 2.04468 0
M  V30 13415 H 1295.01 -2.15023 3.22248 0
M  V30 13416 H 1295.42 -1.04415 5.14002 0
M  V30 13417 H 1296.9 -2.72078 4.80289 0
M  V30 13418 H 1297.37 -3.06817 3.14261 0
M  V30 13419 H 1297.98 -1.59888 3.94101 0
M  V30 13420 N 1296.29 -1.55015 -0.284256 0
M  V30 13421 C 1297.52 -1.79102 -1.03586 0
M  V30 13422 C 1297.94 -0.558733 -1.80343 0
M  V30 13423 O 1297.29 0.471925 -1.76293 0
M  V30 13424 C 1297.34 -3.00915 -2.0033 0
M  V30 13425 O 1297.07 -4.19384 -1.26685 0
M  V30 13426 C 1298.57 -3.3752 -2.87394 0
M  V30 13427 H 1295.79 -0.596912 -0.306491 0
M  V30 13428 H 1298.33 -2.02005 -0.31845 0
M  V30 13429 H 1296.49 -2.80171 -2.67549 0
M  V30 13430 H 1296.9 -4.88175 -1.91796 0
M  V30 13431 H 1298.37 -4.25953 -3.51095 0
M  V30 13432 H 1298.85 -2.56418 -3.56576 0
M  V30 13433 H 1299.46 -3.60483 -2.25682 0
M  V30 13434 N 1297.77 0.548248 -1.47757 0
M  V30 13435 C 1299 1.32827 -1.58242 0
M  V30 13436 C 1299.41 1.87736 -0.234936 0
M  V30 13437 O 1298.75 1.66163 0.78329 0
M  V30 13438 C 1298.81 2.52906 -2.55497 0
M  V30 13439 C 1298.48 2.19218 -4.00989 0
M  V30 13440 C 1299.48 1.75976 -4.89212 0
M  V30 13441 C 1297.16 2.30302 -4.46392 0
M  V30 13442 C 1299.15 1.44258 -6.20861 0
M  V30 13443 C 1296.84 1.98197 -5.78067 0
M  V30 13444 C 1297.84 1.55244 -6.65123 0
M  V30 13445 O 1297.53 1.23551 -7.94349 0
M  V30 13446 H 1297.26 0.41088 -0.536799 0
M  V30 13447 H 1299.81 0.670055 -1.94163 0
M  V30 13448 H 1298.04 3.21648 -2.14661 0
M  V30 13449 H 1299.73 3.14979 -2.56014 0
M  V30 13450 H 1300.5 1.66898 -4.55379 0
M  V30 13451 H 1296.38 2.62693 -3.78832 0
M  V30 13452 H 1299.92 1.10659 -6.88767 0
M  V30 13453 H 1295.82 2.0691 -6.1144 0
M  V30 13454 H 1296.59 1.37105 -8.06935 0
M  V30 13455 N 1299.25 1.36039 0.795694 0
M  V30 13456 C 1300.5 1.29663 1.55023 0
M  V30 13457 C 1300.82 -0.125588 1.94595 0
M  V30 13458 O 1300.09 -1.06447 1.64456 0
M  V30 13459 H 1298.67 0.476962 0.574906 0
M  V30 13460 H 1301.33 1.70265 0.948471 0
M  V30 13461 H 1300.43 1.91982 2.46068 0
M  V30 13462 N 1300.73 -1.01913 1.20215 0
M  V30 13463 C 1301.98 -1.7547 1.01076 0
M  V30 13464 C 1302.3 -1.89045 -0.457404 0
M  V30 13465 O 1301.56 -1.41121 -1.35585 0
M  V30 13466 C 1301.86 -3.17734 1.63646 0
M  V30 13467 C 1301.52 -3.24143 3.13436 0
M  V30 13468 C 1300.19 -3.25599 3.54315 0
M  V30 13469 C 1302.54 -3.22508 4.09436 0
M  V30 13470 C 1299.87 -3.23089 4.89725 0
M  V30 13471 C 1302.22 -3.21539 5.44789 0
M  V30 13472 C 1300.88 -3.21298 5.85085 0
M  V30 13473 H 1300.15 -0.642092 0.369864 0
M  V30 13474 H 1302.8 -1.19547 1.49602 0
M  V30 13475 H 1301.1 -3.76799 1.07375 0
M  V30 13476 H 1302.8 -3.73338 1.46356 0
M  V30 13477 H 1299.39 -3.23743 2.80871 0
M  V30 13478 H 1303.57 -3.20555 3.7889 0
M  V30 13479 H 1298.83 -3.21231 5.20212 0
M  V30 13480 H 1303 -3.19226 6.18924 0
M  V30 13481 H 1300.63 -3.19107 6.89982 0
M  V30 13482 N 1302.21 -1.00763 -1.2118 0
M  V30 13483 C 1303.45 -0.690459 -1.8994 0
M  V30 13484 C 1303.78 0.781464 -1.78656 0
M  V30 13485 O 1303.05 1.56135 -1.18316 0
M  V30 13486 H 1301.63 -0.252397 -0.703068 0
M  V30 13487 H 1304.29 -1.2773 -1.47211 0
M  V30 13488 H 1303.38 -0.96594 -2.96776 0
M  V30 13489 N 1303.68 1.3679 -0.7827 0
M  V30 13490 C 1304.63 2.27508 -0.149734 0
M  V30 13491 C 1305.62 1.46634 0.662368 0
M  V30 13492 O 1306.81 1.6908 0.523544 0
M  V30 13493 C 1303.94 3.35666 0.719939 0
M  V30 13494 C 1303.03 4.23981 -0.100588 0
M  V30 13495 N 1303.42 4.92513 -1.15173 0
M  V30 13496 C 1301.71 4.45834 0.121653 0
M  V30 13497 C 1302.42 5.57788 -1.65067 0
M  V30 13498 N 1301.39 5.35038 -0.96101 0
M  V30 13499 H 1305.19 2.77973 -0.954365 0
M  V30 13500 H 1302.71 1.50037 -0.62151 0
M  V30 13501 H 1304.7 3.99578 1.18926 0
M  V30 13502 H 1303.36 2.86756 1.52319 0
M  V30 13503 H 1304.38 4.94658 -1.53406 0
M  V30 13504 H 1301.05 4.07773 0.895945 0
M  V30 13505 H 1302.44 6.22534 -2.52787 0
M  V30 13506 N 1305.16 0.53415 1.48272 0
M  V30 13507 C 1306.09 -0.263508 2.2768 0
M  V30 13508 C 1307.11 -0.90064 1.35618 0
M  V30 13509 O 1308.3 -0.778379 1.60635 0
M  V30 13510 C 1305.4 -1.38878 3.09138 0
M  V30 13511 C 1304.57 -0.852784 4.29006 0
M  V30 13512 C 1303.63 -1.85969 4.92242 0
M  V30 13513 O 1302.65 -1.41497 5.51332 0
M  V30 13514 N 1303.86 -3.19207 4.84858 0
M  V30 13515 H 1306.62 0.417548 2.96777 0
M  V30 13516 H 1304.18 0.368743 1.57645 0
M  V30 13517 H 1306.17 -2.06062 3.48311 0
M  V30 13518 H 1304.74 -1.97343 2.42434 0
M  V30 13519 H 1303.96 -0.0048227 3.942 0
M  V30 13520 H 1305.25 -0.473634 5.06591 0
M  V30 13521 H 1304.65 -3.58001 4.38009 0
M  V30 13522 H 1303.21 -3.82013 5.28119 0
M  V30 13523 N 1306.64 -1.55279 0.269478 0
M  V30 13524 C 1307.59 -2.23723 -0.636468 0
M  V30 13525 C 1308.58 -1.23234 -1.16232 0
M  V30 13526 O 1309.79 -1.41181 -1.1166 0
M  V30 13527 H 1306.16 -0.71793 -0.223788 0
M  V30 13528 H 1308.13 -2.98378 -0.0363057 0
M  V30 13529 C 1306.88 -2.96755 -1.81195 0
M  V30 13530 H 1306.21 -3.73865 -1.4165 0
M  V30 13531 H 1307.65 -3.47975 -2.42258 0
M  V30 13532 C 1306.11 -2.01905 -2.69696 0
M  V30 13533 O 1306.64 -1.56662 -3.69892 0
M  V30 13534 N 1304.84 -1.68524 -2.36744 0
M  V30 13535 H 1304.39 -2.05512 -1.55314 0
M  V30 13536 H 1304.35 -1.05331 -2.96231 0
M  V30 13537 N 1308.12 0.00332656 -1.576 0
M  V30 13538 C 1309.07 0.99581 -2.08212 0
M  V30 13539 C 1310.04 1.34342 -0.976804 0
M  V30 13540 O 1311.22 1.44236 -1.24902 0
M  V30 13541 C 1308.36 2.2836 -2.58739 0
M  V30 13542 C 1307.47 1.99531 -3.8316 0
M  V30 13543 C 1306.61 3.22367 -4.222 0
M  V30 13544 C 1305.65 2.89209 -5.39467 0
M  V30 13545 N 1304.78 4.04572 -5.73817 0
M  V30 13546 H 1309.62 0.55727 -2.92743 0
M  V30 13547 H 1307.16 0.263513 -1.4472 0
M  V30 13548 H 1309.12 3.03639 -2.86111 0
M  V30 13549 H 1307.75 2.69889 -1.77087 0
M  V30 13550 H 1306.8 1.14634 -3.62716 0
M  V30 13551 H 1308.11 1.71089 -4.6854 0
M  V30 13552 H 1307.27 4.05994 -4.50837 0
M  V30 13553 H 1306.01 3.53944 -3.35522 0
M  V30 13554 H 1305.01 2.03989 -5.10557 0
M  V30 13555 H 1306.24 2.58883 -6.27819 0
M  V30 13556 H 1304.18 4.36052 -4.90096 0
M  V30 13557 H 1304.1 3.79643 -6.53764 0
M  V30 13558 H 1305.37 4.88998 -6.07043 0
M  V30 13559 N 1309.6 1.55164 0.276031 0
M  V30 13560 C 1310.56 1.87065 1.32436 0
M  V30 13561 C 1311.56 0.745024 1.42499 0
M  V30 13562 O 1312.75 1.01321 1.41702 0
M  V30 13563 C 1309.88 2.07322 2.70611 0
M  V30 13564 H 1311.07 2.80775 1.05382 0
M  V30 13565 H 1308.63 1.47609 0.513947 0
M  V30 13566 H 1309.36 1.15983 3.0285 0
M  V30 13567 H 1309.15 2.89275 2.64693 0
M  V30 13568 H 1310.64 2.33287 3.46362 0
M  V30 13569 N 1311.07 -0.540404 1.48045 0
M  V30 13570 C 1312.32 -1.2987 1.55762 0
M  V30 13571 C 1312.65 -1.92877 0.226307 0
M  V30 13572 O 1311.93 -1.7875 -0.766727 0
M  V30 13573 C 1312.21 -2.39602 2.68817 0
M  V30 13574 C 1312.06 -1.81354 4.1162 0
M  V30 13575 C 1313.38 -3.41434 2.77688 0
M  V30 13576 H 1310.5 -0.47083 0.566999 0
M  V30 13577 H 1313.14 -0.603081 1.80175 0
M  V30 13578 H 1311.29 -2.98936 2.48132 0
M  V30 13579 H 1312.97 -1.26151 4.43716 0
M  V30 13580 H 1311.21 -1.1194 4.19108 0
M  V30 13581 H 1311.88 -2.60758 4.86528 0
M  V30 13582 H 1314.36 -2.92042 2.96396 0
M  V30 13583 H 1313.23 -4.15621 3.5854 0
M  V30 13584 H 1313.49 -4.01336 1.85422 0
M  V30 13585 N 1312.55 -1.36459 -0.788468 0
M  V30 13586 C 1313.78 -1.33703 -1.57502 0
M  V30 13587 C 1314.19 0.0834961 -1.89016 0
M  V30 13588 O 1313.53 1.05107 -1.50659 0
M  V30 13589 C 1313.6 -2.09424 -2.92201 0
M  V30 13590 C 1313.26 -3.58507 -2.83411 0
M  V30 13591 C 1314.26 -4.52736 -2.5559 0
M  V30 13592 C 1311.94 -4.01405 -3.01959 0
M  V30 13593 C 1313.94 -5.87841 -2.46419 0
M  V30 13594 C 1311.62 -5.366 -2.92409 0
M  V30 13595 C 1312.62 -6.29631 -2.64677 0
M  V30 13596 O 1312.31 -7.62343 -2.55124 0
M  V30 13597 H 1312.04 -0.460221 -0.495149 0
M  V30 13598 H 1314.59 -1.80163 -0.986437 0
M  V30 13599 H 1312.82 -1.5763 -3.53114 0
M  V30 13600 H 1314.51 -1.99515 -3.53481 0
M  V30 13601 H 1315.28 -4.20906 -2.40962 0
M  V30 13602 H 1311.16 -3.29367 -3.2255 0
M  V30 13603 H 1314.7 -6.60423 -2.24694 0
M  V30 13604 H 1310.6 -5.68038 -3.066 0
M  V30 13605 H 1311.37 -7.72476 -2.70598 0
M  V30 13606 N 1314.03 1.01274 -1.20754 0
M  V30 13607 C 1315.26 1.78524 -1.04579 0
M  V30 13608 C 1315.67 1.84409 0.404809 0
M  V30 13609 O 1315.03 1.29987 1.281 0
M  V30 13610 C 1315.08 3.22806 -1.62722 0
M  V30 13611 O 1314.8 3.17276 -3.02106 0
M  V30 13612 C 1316.3 4.16589 -1.51553 0
M  V30 13613 H 1313.52 0.561299 -0.367674 0
M  V30 13614 H 1316.07 1.27454 -1.59924 0
M  V30 13615 H 1314.22 3.71011 -1.11487 0
M  V30 13616 H 1314.64 4.07866 -3.29766 0
M  V30 13617 H 1316.11 5.15654 -1.9699 0
M  V30 13618 H 1316.59 4.36692 -0.468659 0
M  V30 13619 H 1317.19 3.74269 -2.01998 0
M  V30 13620 N 1315.51 1.01404 1.20644 0
M  V30 13621 C 1316.47 0.586941 2.21557 0
M  V30 13622 C 1317.47 -0.341543 1.57131 0
M  V30 13623 O 1318.66 -0.130585 1.7371 0
M  V30 13624 C 1315.79 -0.143248 3.40599 0
M  V30 13625 H 1316.99 1.47964 2.60858 0
M  V30 13626 H 1314.54 0.803551 1.34063 0
M  V30 13627 H 1315.28 -1.05097 3.06798 0
M  V30 13628 H 1315.06 0.523716 3.88587 0
M  V30 13629 H 1316.55 -0.429504 4.15385 0
M  V30 13630 N 1316.99 -1.36373 0.789944 0
M  V30 13631 C 1318.24 -1.98834 0.361866 0
M  V30 13632 C 1318.56 -1.63006 -1.07024 0
M  V30 13633 O 1317.83 -0.904312 -1.73779 0
M  V30 13634 H 1316.41 -0.735457 0.130812 0
M  V30 13635 H 1319.07 -1.66561 1.0121 0
M  V30 13636 H 1318.16 -3.08778 0.454122 0
M  V30 13637 N 1318.47 -0.542005 -1.47987 0
M  V30 13638 C 1319.7 -0.0166928 -2.06593 0
M  V30 13639 C 1320.1 1.27564 -1.39728 0
M  V30 13640 O 1319.45 1.77245 -0.48268 0
M  V30 13641 C 1319.51 0.265501 -3.58518 0
M  V30 13642 C 1319.17 -0.935133 -4.4733 0
M  V30 13643 C 1320.17 -1.83673 -4.86375 0
M  V30 13644 C 1317.85 -1.14552 -4.89063 0
M  V30 13645 C 1319.85 -2.93252 -5.65935 0
M  V30 13646 C 1317.54 -2.24443 -5.68391 0
M  V30 13647 C 1318.53 -3.13625 -6.06736 0
M  V30 13648 O 1318.22 -4.21613 -6.84469 0
M  V30 13649 H 1317.95 -0.0358651 -0.675048 0
M  V30 13650 H 1320.51 -0.750565 -1.91195 0
M  V30 13651 H 1318.74 1.0535 -3.72073 0
M  V30 13652 H 1320.43 0.734348 -3.99202 0
M  V30 13653 H 1321.19 -1.68618 -4.54745 0
M  V30 13654 H 1317.07 -0.460598 -4.58693 0
M  V30 13655 H 1320.62 -3.62888 -5.95783 0
M  V30 13656 H 1316.51 -2.39477 -5.99434 0
M  V30 13657 H 1317.28 -4.19472 -7.02841 0
M  V30 13658 N 1319.94 1.55134 -0.277709 0
M  V30 13659 C 1320.89 2.2263 0.608637 0
M  V30 13660 C 1321.86 1.20067 1.14774 0
M  V30 13661 O 1323.05 1.48617 1.19657 0
M  V30 13662 C 1320.19 2.95308 1.78571 0
M  V30 13663 C 1319.3 4.12595 1.28021 0
M  V30 13664 C 1318.43 4.7291 2.41929 0
M  V30 13665 C 1317.47 5.82386 1.88395 0
M  V30 13666 N 1316.61 6.36754 2.95786 0
M  V30 13667 H 1321.45 2.97988 0.0264138 0
M  V30 13668 H 1318.99 1.471 0.00127068 0
M  V30 13669 H 1320.94 3.35662 2.47764 0
M  V30 13670 H 1319.57 2.22368 2.33992 0
M  V30 13671 H 1318.63 3.77343 0.481297 0
M  V30 13672 H 1319.94 4.91537 0.848128 0
M  V30 13673 H 1319.09 5.15997 3.1911 0
M  V30 13674 H 1317.83 3.93251 2.88453 0
M  V30 13675 H 1316.84 5.38746 1.09694 0
M  V30 13676 H 1318.06 6.63916 1.42803 0
M  V30 13677 H 1316.01 5.59987 3.41687 0
M  V30 13678 H 1315.92 7.10975 2.57002 0
M  V30 13679 H 1317.19 6.845 3.72935 0
M  V30 13680 N 1321.42 0.00503138 1.57599 0
M  V30 13681 C 1322.67 -0.677979 1.89964 0
M  V30 13682 C 1322.98 -1.74657 0.88059 0
M  V30 13683 O 1324.19 -2.48455 1.09463 0
M  V30 13684 C 1322.65 -1.25708 3.37232 0
M  V30 13685 C 1322.25 -0.223045 4.47444 0
M  V30 13686 C 1324 -1.91799 3.787 0
M  V30 13687 C 1321.9 -0.812416 5.85793 0
M  V30 13688 H 1320.83 -0.256991 0.708852 0
M  V30 13689 H 1323.49 0.0663988 1.8338 0
M  V30 13690 H 1321.87 -2.05228 3.3867 0
M  V30 13691 H 1323.04 0.54794 4.57531 0
M  V30 13692 H 1321.36 0.337714 4.15028 0
M  V30 13693 H 1323.95 -2.36808 4.79402 0
M  V30 13694 H 1324.3 -2.75067 3.1248 0
M  V30 13695 H 1324.83 -1.19004 3.79583 0
M  V30 13696 H 1321.57 -0.0184031 6.55497 0
M  V30 13697 H 1321.09 -1.55244 5.79361 0
M  V30 13698 H 1322.77 -1.30952 6.33609 0
M  V30 13699 N 1322.9 -1.55308 -0.267798 0
M  V30 13700 C 1324.14 -1.77913 -1.0063 0
M  V30 13701 C 1324.5 -0.571149 -1.83308 0
M  V30 13702 O 1325.7 -0.675552 -2.60173 0
M  V30 13703 C 1323.98 -3.05112 -1.86123 0
M  V30 13704 S 1325.53 -3.48856 -2.66167 0
M  V30 13705 H 1322.35 -0.625065 -0.338843 0
M  V30 13706 H 1324.95 -1.93539 -0.276196 0
M  V30 13707 H 1323.66 -3.91118 -1.24317 0
M  V30 13708 H 1323.19 -2.92165 -2.63444 0
M  V30 13709 H 1325.2 -3.0854 -3.8861 0
M  V30 13710 N 1324.38 0.532545 -1.4833 0
M  V30 13711 C 1325.33 1.65832 -1.63103 0
M  V30 13712 C 1326.32 1.61929 -0.497538 0
M  V30 13713 O 1327.53 1.66817 -0.676176 0
M  V30 13714 H 1323.9 0.549152 -0.513748 0
M  V30 13715 H 1325.87 1.50515 -2.57658 0
M  V30 13716 C 1324.62 3.04113 -1.68555 0
M  V30 13717 H 1323.94 3.07809 -2.55135 0
M  V30 13718 H 1325.38 3.82506 -1.82936 0
M  V30 13719 C 1323.84 3.34225 -0.423711 0
M  V30 13720 O 1324.37 3.99005 0.464523 0
M  V30 13721 N 1322.58 2.89087 -0.296192 0
M  V30 13722 H 1322.13 2.36547 -1.01997 0
M  V30 13723 H 1322.08 3.09604 0.547082 0
M  V30 13724 N 1325.86 1.36875 0.78122 0
M  V30 13725 C 1327.09 1.34537 1.56791 0
M  V30 13726 C 1327.49 -0.0734709 1.89057 0
M  V30 13727 O 1326.84 -1.04307 1.51215 0
M  V30 13728 C 1326.9 2.10971 2.91087 0
M  V30 13729 C 1326.56 3.60005 2.81506 0
M  V30 13730 C 1327.56 4.54085 2.53185 0
M  V30 13731 C 1325.24 4.03001 2.99826 0
M  V30 13732 C 1327.24 5.89139 2.43298 0
M  V30 13733 C 1324.93 5.38144 2.89559 0
M  V30 13734 C 1325.92 6.31026 2.61335 0
M  V30 13735 O 1325.61 7.63685 2.51077 0
M  V30 13736 H 1325.34 0.46284 0.492702 0
M  V30 13737 H 1327.9 1.80683 0.976869 0
M  V30 13738 H 1326.13 1.595 3.52274 0
M  V30 13739 H 1327.82 2.01387 3.52418 0
M  V30 13740 H 1328.58 4.22178 2.38727 0
M  V30 13741 H 1324.46 3.31073 3.20799 0
M  V30 13742 H 1328.01 6.61605 2.21188 0
M  V30 13743 H 1323.9 5.69656 3.03583 0
M  V30 13744 H 1324.67 7.739 2.66498 0
M  V30 13745 N 1327.33 -1.00632 1.21289 0
M  V30 13746 C 1328.28 -2.07791 0.938459 0
M  V30 13747 C 1329.27 -1.60552 -0.105773 0
M  V30 13748 O 1330.46 -1.767 0.102981 0
M  V30 13749 C 1327.59 -3.39587 0.503563 0
M  V30 13750 C 1326.67 -3.93497 1.58179 0
M  V30 13751 N 1327.07 -4.20792 2.80656 0
M  V30 13752 C 1325.36 -4.21759 1.45035 0
M  V30 13753 C 1326.06 -4.64411 3.50281 0
M  V30 13754 N 1325.04 -4.67305 2.77717 0
M  V30 13755 H 1328.84 -2.26816 1.869 0
M  V30 13756 H 1326.36 -1.18692 1.10842 0
M  V30 13757 H 1328.35 -4.15902 0.288323 0
M  V30 13758 H 1327.01 -3.21969 -0.420233 0
M  V30 13759 H 1328.02 -4.09386 3.17212 0
M  V30 13760 H 1324.7 -4.13285 0.591745 0
M  V30 13761 H 1326.09 -4.94263 4.55141 0
M  V30 13762 N 1328.81 -1.02043 -1.20104 0
M  V30 13763 C 1329.74 -0.614421 -2.25271 0
M  V30 13764 C 1330.72 0.37242 -1.65973 0
M  V30 13765 O 1331.91 0.257005 -1.92492 0
M  V30 13766 C 1329.04 0.0442085 -3.47272 0
M  V30 13767 C 1327.99 -0.864019 -4.19188 0
M  V30 13768 C 1327.32 -0.0709551 -5.34653 0
M  V30 13769 C 1328.62 -2.17385 -4.74912 0
M  V30 13770 H 1330.31 -1.49355 -2.59487 0
M  V30 13771 H 1327.86 -0.719591 -1.24731 0
M  V30 13772 H 1329.81 0.339825 -4.20028 0
M  V30 13773 H 1328.53 0.958082 -3.12231 0
M  V30 13774 H 1327.19 -1.1437 -3.48303 0
M  V30 13775 H 1326.84 0.844688 -4.95857 0
M  V30 13776 H 1326.54 -0.67583 -5.83701 0
M  V30 13777 H 1328.07 0.218118 -6.1021 0
M  V30 13778 H 1329.48 -1.94034 -5.39466 0
M  V30 13779 H 1327.88 -2.72991 -5.34412 0
M  V30 13780 H 1328.95 -2.83427 -3.93443 0
M  V30 13781 N 1330.29 1.35952 -0.797165 0
M  V30 13782 C 1331.25 2.28266 -0.206748 0
M  V30 13783 C 1332.25 1.49169 0.60043 0
M  V30 13784 O 1333.44 1.69054 0.42029 0
M  V30 13785 C 1330.58 3.33363 0.712884 0
M  V30 13786 H 1331.77 2.81992 -1.02082 0
M  V30 13787 H 1329.32 1.45648 -0.567138 0
M  V30 13788 H 1330.06 2.84806 1.551 0
M  V30 13789 H 1329.84 3.91864 0.135926 0
M  V30 13790 H 1331.33 4.02284 1.1206 0
M  V30 13791 N 1331.77 0.549846 1.47697 0
M  V30 13792 C 1333 0.0276889 2.06881 0
M  V30 13793 C 1333.41 -1.26273 1.40359 0
M  V30 13794 O 1332.77 -1.75584 0.497644 0
M  V30 13795 C 1332.82 -0.179291 3.61055 0
M  V30 13796 O 1332.54 1.06002 4.25083 0
M  V30 13797 C 1334.04 -0.739571 4.37087 0
M  V30 13798 H 1331.26 0.0425016 0.669653 0
M  V30 13799 H 1333.81 0.761158 1.89807 0
M  V30 13800 H 1331.96 -0.862867 3.77668 0
M  V30 13801 H 1332.37 0.853137 5.17515 0
M  V30 13802 H 1333.85 -0.833722 5.45668 0
M  V30 13803 H 1334.33 -1.74915 4.02867 0
M  V30 13804 H 1334.93 -0.0919294 4.25201 0
M  V30 13805 N 1333.25 -1.54984 0.285932 0
M  V30 13806 C 1334.18 -2.20365 -0.630236 0
M  V30 13807 C 1335.19 -1.19168 -1.10918 0
M  V30 13808 O 1336.38 -1.45839 -1.02923 0
M  V30 13809 C 1333.48 -2.8244 -1.87299 0
M  V30 13810 C 1332.65 -4.09429 -1.53905 0
M  V30 13811 C 1331.71 -4.55449 -2.63538 0
M  V30 13812 O 1330.74 -5.20985 -2.29267 0
M  V30 13813 N 1331.94 -4.26498 -3.93802 0
M  V30 13814 H 1334.71 -2.99617 -0.0706044 0
M  V30 13815 H 1332.27 -1.61543 0.107486 0
M  V30 13816 H 1334.26 -3.10167 -2.59959 0
M  V30 13817 H 1332.83 -2.07117 -2.34139 0
M  V30 13818 H 1332.05 -3.88875 -0.645774 0
M  V30 13819 H 1333.34 -4.92146 -1.29111 0
M  V30 13820 H 1332.73 -3.73964 -4.24461 0
M  V30 13821 H 1331.29 -4.5897 -4.62807 0
M  V30 13822 N 1334.72 -0.0133892 -1.57594 0
M  V30 13823 C 1335.63 0.989701 -2.12702 0
M  V30 13824 C 1336.65 1.36785 -1.07545 0
M  V30 13825 O 1337.83 1.45246 -1.39519 0
M  V30 13826 C 1334.89 2.2586 -2.63036 0
M  V30 13827 C 1333.95 1.94234 -3.82847 0
M  V30 13828 C 1333.19 3.15075 -4.30771 0
M  V30 13829 O 1333.41 4.27212 -3.7795 0
M  V30 13830 O 1332.34 2.98291 -5.22787 0
M  V30 13831 H 1336.17 0.551194 -2.98656 0
M  V30 13832 H 1333.75 0.206264 -1.47969 0
M  V30 13833 H 1335.64 3.0038 -2.9555 0
M  V30 13834 H 1334.31 2.68923 -1.80173 0
M  V30 13835 H 1333.22 1.17148 -3.55285 0
M  V30 13836 H 1334.55 1.55999 -4.66824 0
M  V30 13837 N 1336.2 1.55448 0.259558 0
M  V30 13838 C 1337.48 1.6742 1.01143 0
M  V30 13839 C 1337.86 0.549525 2.03822 0
M  V30 13840 O 1337.21 -0.448699 2.24051 0
M  V30 13841 C 1337.42 3.07201 1.65616 0
M  V30 13842 C 1338.77 3.6539 2.16277 0
M  V30 13843 O 1339.79 3.0992 1.7558 0
M  V30 13844 O 1338.65 4.62604 2.90963 0
M  V30 13845 H 1335.74 0.680469 0.469991 0
M  V30 13846 H 1338.29 1.67783 0.254348 0
M  V30 13847 H 1337.06 3.80504 0.912819 0
M  V30 13848 H 1336.68 3.10794 2.47977 0
M  V30 13849 N 1337.68 -0.524672 1.4861 0
M  V30 13850 C 1338.61 -1.63782 1.66426 0
M  V30 13851 C 1339.59 -1.62177 0.513077 0
M  V30 13852 O 1340.78 -1.7929 0.74623 0
M  V30 13853 C 1337.91 -3.02354 1.70877 0
M  V30 13854 C 1336.86 -3.18819 2.85549 0
M  V30 13855 C 1336.19 -4.58506 2.75094 0
M  V30 13856 C 1337.49 -3.01086 4.26784 0
M  V30 13857 H 1339.18 -1.49127 2.59618 0
M  V30 13858 H 1336.73 -0.715997 1.24938 0
M  V30 13859 H 1338.68 -3.80105 1.81929 0
M  V30 13860 H 1337.4 -3.18044 0.742682 0
M  V30 13861 H 1336.06 -2.43487 2.74061 0
M  V30 13862 H 1335.71 -4.71038 1.76443 0
M  V30 13863 H 1335.41 -4.70466 3.52044 0
M  V30 13864 H 1336.93 -5.38348 2.88121 0
M  V30 13865 H 1338.35 -3.68624 4.39077 0
M  V30 13866 H 1336.75 -3.24536 5.04774 0
M  V30 13867 H 1337.82 -1.97454 4.42877 0
M  V30 13868 N 1339.16 -1.37287 -0.77395 0
M  V30 13869 C 1340.09 -1.28746 -1.89624 0
M  V30 13870 C 1341.1 -0.203715 -1.6152 0
M  V30 13871 O 1342.29 -0.459684 -1.72479 0
M  V30 13872 C 1339.39 -0.967342 -3.24801 0
M  V30 13873 C 1338.57 -2.1561 -3.80567 0
M  V30 13874 C 1337.62 -1.80661 -4.94215 0
M  V30 13875 O 1336.65 -2.5293 -5.09917 0
M  V30 13876 N 1337.85 -0.749424 -5.75642 0
M  V30 13877 H 1340.62 -2.25447 -1.97468 0
M  V30 13878 H 1338.18 -1.30883 -0.952956 0
M  V30 13879 H 1340.17 -0.714421 -3.98344 0
M  V30 13880 H 1338.74 -0.0889573 -3.12473 0
M  V30 13881 H 1337.96 -2.57091 -2.98828 0
M  V30 13882 H 1339.25 -2.94993 -4.14556 0
M  V30 13883 H 1338.65 -0.149673 -5.65502 0
M  V30 13884 H 1337.2 -0.556358 -6.49421 0
M  V30 13885 N 1340.64 0.999871 -1.21821 0
M  V30 13886 C 1341.58 2.10985 -0.979183 0
M  V30 13887 C 1342.58 1.69232 0.0753287 0
M  V30 13888 O 1343.78 1.79837 -0.0765083 0
M  V30 13889 H 1340.16 0.689819 -0.299421 0
M  V30 13890 H 1342.13 2.28322 -1.92124 0
M  V30 13891 C 1340.88 3.43062 -0.56602 0
M  V30 13892 H 1340.2 3.75627 -1.36909 0
M  V30 13893 H 1341.64 4.2173 -0.43813 0
M  V30 13894 C 1340.1 3.29036 0.723647 0
M  V30 13895 O 1340.63 3.60214 1.77788 0
M  V30 13896 N 1338.84 2.82237 0.692126 0
M  V30 13897 H 1338.38 2.57064 -0.166082 0
M  V30 13898 H 1338.34 2.73235 1.55532 0
M  V30 13899 N 1342.11 1.02678 1.19562 0
M  V30 13900 C 1343.08 0.610407 2.20922 0
M  V30 13901 C 1344.08 -0.324858 1.57484 0
M  V30 13902 O 1345.27 -0.112153 1.73839 0
M  V30 13903 C 1342.4 -0.107115 3.40732 0
M  V30 13904 H 1343.59 1.50722 2.59274 0
M  V30 13905 H 1341.15 0.817725 1.33203 0
M  V30 13906 H 1341.88 -1.01837 3.07896 0
M  V30 13907 H 1341.67 0.564901 3.88009 0
M  V30 13908 H 1343.16 -0.385423 4.15818 0
M  V30 13909 N 1343.59 -1.35528 0.804364 0
M  V30 13910 C 1344.84 -1.99126 0.384261 0
M  V30 13911 C 1345.17 -1.63668 -1.0453 0
M  V30 13912 O 1344.45 -0.898896 -1.72482 0
M  V30 13913 C 1344.73 -3.55636 0.565278 0
M  V30 13914 C 1344.58 -4.00899 2.03961 0
M  V30 13915 C 1345.9 -4.40099 -0.0104301 0
M  V30 13916 H 1343.02 -0.723369 0.141092 0
M  V30 13917 H 1345.66 -1.60712 1.01348 0
M  V30 13918 H 1343.81 -3.88489 0.0296425 0
M  V30 13919 H 1345.48 -3.78465 2.63746 0
M  V30 13920 H 1343.73 -3.5189 2.53685 0
M  V30 13921 H 1344.4 -5.09785 2.11716 0
M  V30 13922 H 1346.87 -4.13692 0.446985 0
M  V30 13923 H 1345.75 -5.48705 0.146155 0
M  V30 13924 H 1346.01 -4.28096 -1.10392 0
M  V30 13925 N 1345.07 -0.557671 -1.47404 0
M  V30 13926 C 1346.02 0.202834 -2.31714 0
M  V30 13927 C 1347.01 0.908873 -1.42954 0
M  V30 13928 O 1348.22 0.830106 -1.59716 0
M  V30 13929 H 1344.59 0.0842824 -0.747262 0
M  V30 13930 H 1346.57 -0.527431 -2.93702 0
M  V30 13931 C 1345.31 1.21937 -3.25617 0
M  V30 13932 H 1344.64 0.685506 -3.93879 0
M  V30 13933 H 1346.08 1.72237 -3.87441 0
M  V30 13934 C 1344.54 2.26748 -2.49173 0
M  V30 13935 O 1345.07 3.33681 -2.23651 0
M  V30 13936 N 1343.27 2.00687 -2.10174 0
M  V30 13937 H 1342.82 1.13741 -2.3113 0
M  V30 13938 H 1342.78 2.71031 -1.59342 0
M  V30 13939 N 1346.55 1.54831 -0.294147 0
M  V30 13940 C 1347.8 1.99179 0.317874 0
M  V30 13941 C 1348.11 1.18614 1.55532 0
M  V30 13942 O 1349.32 1.53197 2.24149 0
M  V30 13943 C 1347.77 3.54574 0.616893 0
M  V30 13944 C 1347.38 4.43939 -0.601822 0
M  V30 13945 C 1349.13 4.07465 1.19049 0
M  V30 13946 C 1347.03 5.90754 -0.276336 0
M  V30 13947 H 1345.96 0.743974 0.12255 0
M  V30 13948 H 1348.61 1.79047 -0.401781 0
M  V30 13949 H 1347 3.70579 1.39596 0
M  V30 13950 H 1348.17 4.39706 -1.37822 0
M  V30 13951 H 1346.48 4.01783 -1.09357 0
M  V30 13952 H 1349.08 5.14716 1.44814 0
M  V30 13953 H 1349.42 3.5765 2.13055 0
M  V30 13954 H 1349.96 3.94975 0.473282 0
M  V30 13955 H 1346.7 6.44704 -1.18478 0
M  V30 13956 H 1346.22 5.98011 0.462928 0
M  V30 13957 H 1347.9 6.4688 0.124587 0
M  V30 13958 N 1348.03 0.0217466 1.57585 0
M  V30 13959 C 1348.96 -0.997112 2.05263 0
M  V30 13960 C 1349.94 -1.32186 0.946873 0
M  V30 13961 O 1351.12 -1.43979 1.21665 0
M  V30 13962 C 1348.25 -2.3191 2.46851 0
M  V30 13963 C 1347.3 -2.14948 3.68375 0
M  V30 13964 S 1348.13 -1.45517 5.15349 0
M  V30 13965 C 1349.28 -2.79101 5.60226 0
M  V30 13966 H 1349.52 -0.591229 2.91362 0
M  V30 13967 H 1347.05 -0.189741 1.5323 0
M  V30 13968 H 1349.01 -3.07913 2.71477 0
M  V30 13969 H 1347.67 -2.69633 1.61112 0
M  V30 13970 H 1346.86 -3.12661 3.95296 0
M  V30 13971 H 1346.46 -1.47088 3.43862 0
M  V30 13972 H 1348.76 -3.75357 5.64015 0
M  V30 13973 H 1349.7 -2.56853 6.59873 0
M  V30 13974 H 1350.11 -2.84009 4.87851 0
M  V30 13975 N 1349.51 -1.55583 -0.251311 0
M  V30 13976 C 1350.75 -1.78389 -0.977194 0
M  V30 13977 C 1351.11 -0.589958 -1.83132 0
M  V30 13978 O 1350.4 0.416909 -1.87009 0
M  V30 13979 C 1350.59 -3.04291 -1.87461 0
M  V30 13980 C 1350.42 -4.35815 -1.10885 0
M  V30 13981 C 1349.19 -4.98672 -0.815731 0
M  V30 13982 C 1351.39 -5.11974 -0.488591 0
M  V30 13983 N 1349.37 -6.13895 -0.0254438 0
M  V30 13984 C 1350.74 -6.19776 0.166483 0
M  V30 13985 C 1352.8 -4.96302 -0.398613 0
M  V30 13986 C 1351.5 -7.13611 0.90289 0
M  V30 13987 C 1353.53 -5.9051 0.324252 0
M  V30 13988 C 1352.89 -6.97717 0.96798 0
M  V30 13989 H 1348.99 -0.70478 -0.338836 0
M  V30 13990 H 1351.57 -1.93079 -0.250746 0
M  V30 13991 H 1349.74 -2.90937 -2.57313 0
M  V30 13992 H 1351.48 -3.15409 -2.53573 0
M  V30 13993 H 1348.23 -4.60009 -1.12642 0
M  V30 13994 H 1348.65 -6.76055 0.357664 0
M  V30 13995 H 1353.3 -4.13499 -0.881967 0
M  V30 13996 H 1351.01 -7.95918 1.39786 0
M  V30 13997 H 1354.6 -5.80461 0.39448 0
M  V30 13998 H 1353.48 -7.6936 1.5184 0
M  V30 13999 N 1350.98 0.516783 -1.48886 0
M  V30 14000 C 1352.23 1.26841 -1.56825 0
M  V30 14001 C 1352.55 1.93957 -0.252998 0
M  V30 14002 O 1353.75 2.70681 -0.210765 0
M  V30 14003 C 1352.21 2.30223 -2.76633 0
M  V30 14004 C 1351.82 1.69117 -4.14853 0
M  V30 14005 C 1353.56 3.06313 -2.93893 0
M  V30 14006 C 1351.47 2.70516 -5.25904 0
M  V30 14007 H 1350.4 0.477087 -0.58387 0
M  V30 14008 H 1353.05 0.544187 -1.75245 0
M  V30 14009 H 1351.43 3.05739 -2.51674 0
M  V30 14010 H 1352.6 0.997003 -4.49885 0
M  V30 14011 H 1350.92 1.05473 -4.0282 0
M  V30 14012 H 1353.52 3.8211 -3.74027 0
M  V30 14013 H 1353.86 3.62976 -2.03848 0
M  V30 14014 H 1354.39 2.37911 -3.18815 0
M  V30 14015 H 1351.13 2.18655 -6.17956 0
M  V30 14016 H 1350.65 3.38221 -4.95345 0
M  V30 14017 H 1352.33 3.3325 -5.54575 0
M  V30 14018 N 1352.46 1.37696 0.766659 0
M  V30 14019 C 1353.88 1.18607 1.06792 0
M  V30 14020 C 1354.08 0.0257195 2.01484 0
M  V30 14021 O 1353.13 -0.632608 2.44447 0
M  V30 14022 C 1354.45 2.50692 1.66054 0
M  V30 14023 C 1355.99 2.57259 1.78288 0
M  V30 14024 C 1356.47 3.89488 2.40963 0
M  V30 14025 N 1357.96 3.90957 2.48408 0
M  V30 14026 C 1358.7 4.90023 2.97767 0
M  V30 14027 N 1358.19 5.99485 3.4726 0
M  V30 14028 N 1359.98 4.77423 2.96688 0
M  V30 14029 H 1352.14 2.11951 0.138031 0
M  V30 14030 H 1354.4 0.939873 0.123863 0
M  V30 14031 H 1354.1 3.35989 1.03945 0
M  V30 14032 H 1353.98 2.68148 2.65286 0
M  V30 14033 H 1356.37 1.72366 2.39528 0
M  V30 14034 H 1356.45 2.43682 0.777981 0
M  V30 14035 H 1356.09 4.74797 1.8036 0
M  V30 14036 H 1356.02 4.0037 3.42069 0
M  V30 14037 H 1358.51 3.11888 2.13388 0
M  V30 14038 H 1358.82 6.71022 3.8334 0
M  V30 14039 H 1357.17 6.03123 3.45351 0
M  V30 14040 H 1360.36 3.91026 2.57325 0
M  V30 14041 H 1360.53 5.54783 3.34844 0
M  V30 14042 N 1353.94 -0.993397 1.22349 0
M  V30 14043 C 1355.22 -1.7063 0.956275 0
M  V30 14044 C 1355.6 -2.0437 -0.52877 0
M  V30 14045 O 1354.94 -1.72662 -1.49667 0
M  V30 14046 C 1355.15 -2.95725 1.85331 0
M  V30 14047 C 1356.5 -3.68514 2.10909 0
M  V30 14048 O 1357.53 -3.05732 1.82775 0
M  V30 14049 O 1356.39 -4.81468 2.58556 0
M  V30 14050 H 1353.48 -0.744734 0.359583 0
M  V30 14051 H 1356.03 -1.04979 1.33333 0
M  V30 14052 H 1354.8 -2.6729 2.85782 0
M  V30 14053 H 1354.42 -3.69116 1.47781 0
M  V30 14054 N 1355.42 -1.03311 -1.19015 0
M  V30 14055 C 1356.35 -0.638279 -2.24607 0
M  V30 14056 C 1357.33 0.354795 -1.66359 0
M  V30 14057 O 1358.51 0.236574 -1.92754 0
M  V30 14058 C 1355.64 0.00737316 -3.47299 0
M  V30 14059 C 1354.6 -0.908431 -4.18248 0
M  V30 14060 C 1353.92 -0.127658 -5.34548 0
M  V30 14061 C 1355.22 -2.2241 -4.72579 0
M  V30 14062 H 1356.92 -1.52099 -2.57888 0
M  V30 14063 H 1354.46 -0.732779 -1.23961 0
M  V30 14064 H 1356.42 0.295256 -4.20364 0
M  V30 14065 H 1355.14 0.924912 -3.1323 0
M  V30 14066 H 1353.8 -1.18058 -3.47071 0
M  V30 14067 H 1353.45 0.792048 -4.96725 0
M  V30 14068 H 1353.15 -0.737702 -5.82951 0
M  V30 14069 H 1354.67 0.153385 -6.10407 0
M  V30 14070 H 1356.09 -1.99745 -5.37378 0
M  V30 14071 H 1354.48 -2.78644 -5.31486 0
M  V30 14072 H 1355.55 -2.87584 -3.90415 0
M  V30 14073 N 1356.9 1.35099 -0.81154 0
M  V30 14074 C 1357.83 2.32264 -0.239925 0
M  V30 14075 C 1358.81 1.57708 0.637354 0
M  V30 14076 O 1359.99 1.85751 0.566598 0
M  V30 14077 C 1357.12 3.41931 0.608325 0
M  V30 14078 C 1356.08 4.27659 -0.170869 0
M  V30 14079 C 1355.4 5.28691 0.799398 0
M  V30 14080 C 1356.7 5.0394 -1.37266 0
M  V30 14081 H 1358.4 2.8032 -1.05172 0
M  V30 14082 H 1355.94 1.34773 -0.507185 0
M  V30 14083 H 1357.89 4.08911 1.01832 0
M  V30 14084 H 1356.62 2.92496 1.45306 0
M  V30 14085 H 1355.28 3.62265 -0.562094 0
M  V30 14086 H 1354.93 4.75521 1.63977 0
M  V30 14087 H 1354.63 5.86921 0.282331 0
M  V30 14088 H 1356.15 5.98542 1.20749 0
M  V30 14089 H 1357.56 5.63838 -1.03728 0
M  V30 14090 H 1355.96 5.7169 -1.82456 0
M  V30 14091 H 1357.03 4.34295 -2.15676 0
M  V30 14092 N 1358.37 0.56548 1.47106 0
M  V30 14093 C 1359.62 0.0445914 2.02751 0
M  V30 14094 C 1359.95 -1.30517 1.43801 0
M  V30 14095 O 1359.23 -1.85123 0.596646 0
M  V30 14096 C 1359.51 -0.0396474 3.60078 0
M  V30 14097 C 1359.36 1.3378 4.29445 0
M  V30 14098 C 1360.68 -0.748954 4.3368 0
M  V30 14099 H 1357.8 0.0176787 0.736788 0
M  V30 14100 H 1360.44 0.729363 1.75443 0
M  V30 14101 H 1358.59 -0.622826 3.83475 0
M  V30 14102 H 1360.27 1.96482 4.17364 0
M  V30 14103 H 1358.51 1.91024 3.89477 0
M  V30 14104 H 1359.18 1.23149 5.38088 0
M  V30 14105 H 1361.66 -0.253707 4.15326 0
M  V30 14106 H 1360.53 -0.776877 5.43374 0
M  V30 14107 H 1360.79 -1.80679 4.03494 0
M  V30 14108 N 1359.85 -1.54672 0.302354 0
M  V30 14109 C 1361.1 -2.00463 -0.306978 0
M  V30 14110 C 1361.43 -1.19043 -1.53435 0
M  V30 14111 O 1360.71 -0.267255 -1.92655 0
M  V30 14112 C 1360.99 -3.53958 -0.662229 0
M  V30 14113 C 1360.84 -4.46118 0.574378 0
M  V30 14114 C 1362.16 -4.14174 -1.48821 0
M  V30 14115 H 1359.28 -0.728729 -0.110102 0
M  V30 14116 H 1361.92 -1.85419 0.414722 0
M  V30 14117 H 1360.07 -3.66909 -1.2771 0
M  V30 14118 H 1361.74 -4.45071 1.21284 0
M  V30 14119 H 1359.99 -4.1666 1.20736 0
M  V30 14120 H 1360.66 -5.51281 0.281651 0
M  V30 14121 H 1363.13 -4.04668 -0.968674 0
M  V30 14122 H 1362.01 -5.2173 -1.70556 0
M  V30 14123 H 1362.27 -3.66136 -2.47784 0
M  V30 14124 N 1361.33 -0.0301034 -1.57571 0
M  V30 14125 C 1362.24 0.967086 -2.1374 0
M  V30 14126 C 1363.26 1.35636 -1.0899 0
M  V30 14127 O 1364.43 1.43758 -1.41052 0
M  V30 14128 C 1361.5 2.23058 -2.65417 0
M  V30 14129 C 1360.56 1.90163 -3.84885 0
M  V30 14130 C 1359.79 3.10488 -4.34088 0
M  V30 14131 O 1360.01 4.23179 -3.8246 0
M  V30 14132 O 1358.95 2.92729 -5.25921 0
M  V30 14133 H 1362.77 0.519486 -2.99224 0
M  V30 14134 H 1360.36 0.190559 -1.4818 0
M  V30 14135 H 1362.24 2.97229 -2.98719 0
M  V30 14136 H 1360.92 2.66997 -1.83015 0
M  V30 14137 H 1359.82 1.13373 -3.56507 0
M  V30 14138 H 1361.16 1.51039 -4.68453 0
M  V30 14139 N 1362.81 1.55714 0.243056 0
M  V30 14140 C 1364.03 1.82126 0.992219 0
M  V30 14141 C 1364.46 0.607665 1.78014 0
M  V30 14142 O 1363.82 -0.443351 1.75796 0
M  V30 14143 C 1363.86 3.06314 1.90274 0
M  V30 14144 O 1362.97 2.83499 2.99503 0
M  V30 14145 H 1362.31 0.601082 0.282128 0
M  V30 14146 H 1364.84 2.02904 0.262881 0
M  V30 14147 H 1364.85 3.35849 2.31666 0
M  V30 14148 H 1363.52 3.94282 1.32344 0
M  V30 14149 H 1362.1 2.65141 2.62211 0
M  V30 14150 N 1364.29 -0.50888 1.49158 0
M  V30 14151 C 1365.23 -1.61129 1.65246 0
M  V30 14152 C 1366.2 -1.58582 0.49405 0
M  V30 14153 O 1367.39 -1.76689 0.720122 0
M  V30 14154 C 1364.53 -2.99311 1.71776 0
M  V30 14155 C 1363.64 -3.11933 2.98868 0
M  V30 14156 C 1362.78 -4.408 2.96426 0
M  V30 14157 C 1361.82 -4.47027 4.18131 0
M  V30 14158 N 1360.95 -5.67311 4.13645 0
M  V30 14159 H 1365.79 -1.4672 2.59379 0
M  V30 14160 H 1363.33 -0.713978 1.28611 0
M  V30 14161 H 1365.29 -3.79392 1.73543 0
M  V30 14162 H 1363.92 -3.12442 0.811159 0
M  V30 14163 H 1362.97 -2.24966 3.06748 0
M  V30 14164 H 1364.28 -3.12393 3.8886 0
M  V30 14165 H 1363.44 -5.29194 2.96712 0
M  V30 14166 H 1362.17 -4.42893 2.04199 0
M  V30 14167 H 1361.18 -3.57036 4.18097 0
M  V30 14168 H 1362.4 -4.46656 5.11542 0
M  V30 14169 H 1360.35 -5.70261 3.2425 0
M  V30 14170 H 1360.27 -5.69355 4.97364 0
M  V30 14171 H 1361.54 -6.57934 4.18022 0
M  V30 14172 N 1365.76 -1.381 -0.759346 0
M  V30 14173 C 1366.73 -1.34674 -1.8546 0
M  V30 14174 C 1367.73 -0.248351 -1.58871 0
M  V30 14175 O 1368.92 -0.504915 -1.66722 0
M  V30 14176 C 1366.05 -1.0952 -3.22828 0
M  V30 14177 H 1367.24 -2.3211 -1.89908 0
M  V30 14178 H 1364.8 -1.2331 -0.960435 0
M  V30 14179 H 1365.53 -0.126664 -3.24053 0
M  V30 14180 H 1365.32 -1.89037 -3.43522 0
M  V30 14181 H 1366.81 -1.09804 -4.02906 0
M  V30 14182 N 1367.24 0.986894 -1.22875 0
M  V30 14183 C 1368.17 2.08035 -0.961971 0
M  V30 14184 C 1369.19 1.62683 0.0616475 0
M  V30 14185 O 1370.38 1.77659 -0.173094 0
M  V30 14186 C 1367.48 3.36208 -0.426302 0
M  V30 14187 C 1366.65 4.10562 -1.50856 0
M  V30 14188 C 1365.71 5.17014 -0.97891 0
M  V30 14189 O 1364.73 5.44259 -1.66645 0
M  V30 14190 N 1365.94 5.80167 0.196613 0
M  V30 14191 H 1368.7 2.315 -1.90336 0
M  V30 14192 H 1366.26 1.1531 -1.13645 0
M  V30 14193 H 1368.25 4.0466 -0.0571577 0
M  V30 14194 H 1366.82 3.09761 0.420345 0
M  V30 14195 H 1366.04 3.36656 -2.05076 0
M  V30 14196 H 1367.33 4.57007 -2.23655 0
M  V30 14197 H 1366.73 5.60409 0.771892 0
M  V30 14198 H 1365.29 6.49825 0.507083 0
M  V30 14199 N 1368.72 1.0394 1.18466 0
M  V30 14200 C 1369.97 0.740576 1.88042 0
M  V30 14201 C 1370.29 -0.733822 1.80666 0
M  V30 14202 O 1369.56 -1.52943 1.22414 0
M  V30 14203 H 1368.14 0.270949 0.696129 0
M  V30 14204 H 1370.8 1.31588 1.43772 0
M  V30 14205 H 1369.9 1.04429 2.94111 0
M  V30 14206 N 1370.2 -1.34667 0.818693 0
M  V30 14207 C 1371.45 -1.9767 0.401184 0
M  V30 14208 C 1371.76 -1.65644 -1.04027 0
M  V30 14209 O 1372.97 -2.22104 -1.56148 0
M  V30 14210 C 1371.42 -3.53677 0.666398 0
M  V30 14211 C 1371.03 -3.94601 2.12119 0
M  V30 14212 C 1372.77 -4.23331 0.314845 0
M  V30 14213 C 1370.68 -5.43502 2.33151 0
M  V30 14214 H 1369.61 -0.739675 0.146275 0
M  V30 14215 H 1372.26 -1.53568 1.00445 0
M  V30 14216 H 1370.64 -3.95999 -0.00698307 0
M  V30 14217 H 1371.82 -3.63396 2.83338 0
M  V30 14218 H 1370.13 -3.37871 2.43377 0
M  V30 14219 H 1372.73 -5.32804 0.449881 0
M  V30 14220 H 1373.07 -4.09666 -0.740235 0
M  V30 14221 H 1373.61 -3.8647 0.942631 0
M  V30 14222 H 1370.35 -5.62148 3.37149 0
M  V30 14223 H 1369.87 -5.76236 1.66471 0
M  V30 14224 H 1371.54 -6.10127 2.153 0
M  V30 14225 N 1371.68 -0.573274 -1.46804 0
M  V30 14226 C 1372.95 0.011163 -1.95597 0
M  V30 14227 C 1373.33 1.4691 -1.51594 0
M  V30 14228 O 1372.68 2.15413 -0.76221 0
M  V30 14229 C 1372.89 -0.151045 -3.48673 0
M  V30 14230 C 1374.24 -0.0139817 -4.24598 0
M  V30 14231 O 1375.26 -0.0794008 -3.56111 0
M  V30 14232 O 1374.12 0.129547 -5.46346 0
M  V30 14233 H 1371.22 0.0551258 -0.825161 0
M  V30 14234 H 1373.76 -0.640928 -1.57131 0
M  V30 14235 H 1372.53 -1.16494 -3.73557 0
M  V30 14236 H 1372.16 0.537917 -3.93944 0
M  V30 14237 N 1373.15 1.5451 -0.310553 0
M  V30 14238 C 1374.38 2.05204 0.301013 0
M  V30 14239 C 1374.8 1.1859 1.46007 0
M  V30 14240 O 1374.16 0.192081 1.8028 0
M  V30 14241 C 1374.21 3.53221 0.725767 0
M  V30 14242 O 1373.31 3.69596 1.82955 0
M  V30 14243 H 1372.66 0.661566 0.0568026 0
M  V30 14244 H 1375.19 1.99473 -0.455178 0
M  V30 14245 H 1375.2 3.9525 1.01198 0
M  V30 14246 H 1373.87 4.15721 -0.122046 0
M  V30 14247 H 1372.45 3.39472 1.54315 0
M  V30 14248 N 1374.63 0.0384594 1.57553 0
M  V30 14249 C 1375.88 -0.637533 1.91359 0
M  V30 14250 C 1376.2 -1.7275 0.91744 0
M  V30 14251 O 1377.4 -2.46078 1.14709 0
M  V30 14252 C 1375.86 -1.18526 3.39823 0
M  V30 14253 C 1375.47 -0.128086 4.47817 0
M  V30 14254 C 1377.21 -1.83723 3.82683 0
M  V30 14255 C 1375.12 -0.687978 5.87385 0
M  V30 14256 H 1374.05 -0.241898 0.714144 0
M  V30 14257 H 1376.7 0.105281 1.83198 0
M  V30 14258 H 1375.08 -1.97999 3.42947 0
M  V30 14259 H 1376.25 0.644865 4.56265 0
M  V30 14260 H 1374.57 0.425672 4.14219 0
M  V30 14261 H 1377.17 -2.26585 4.84317 0
M  V30 14262 H 1377.51 -2.68377 3.18244 0
M  V30 14263 H 1378.04 -1.10926 3.82021 0
M  V30 14264 H 1374.78 0.120642 6.55389 0
M  V30 14265 H 1374.3 -1.4292 5.82524 0
M  V30 14266 H 1375.98 -1.17483 6.36244 0
M  V30 14267 N 1376.11 -1.55841 -0.234795 0
M  V30 14268 C 1377.07 -1.9051 -1.2743 0
M  V30 14269 C 1378.07 -0.782543 -1.40474 0
M  V30 14270 O 1379.26 -1.05043 -1.38966 0
M  V30 14271 C 1376.4 -2.14424 -2.65019 0
M  V30 14272 H 1377.59 -2.83471 -0.979003 0
M  V30 14273 H 1375.14 -1.48919 -0.47463 0
M  V30 14274 H 1375.88 -1.23972 -2.99669 0
M  V30 14275 H 1375.66 -2.96191 -2.56931 0
M  V30 14276 H 1377.15 -2.42388 -3.40056 0
M  V30 14277 N 1377.59 0.500963 -1.49426 0
M  V30 14278 C 1379.01 0.832142 -1.36189 0
M  V30 14279 C 1379.21 1.9759 -0.395014 0
M  V30 14280 O 1378.26 2.51905 0.173294 0
M  V30 14281 C 1379.57 1.17232 -2.76907 0
M  V30 14282 C 1381.12 1.28052 -2.85607 0
M  V30 14283 C 1381.6 1.65399 -4.27092 0
M  V30 14284 N 1383.09 1.72448 -4.29902 0
M  V30 14285 C 1383.82 2.02789 -5.36343 0
M  V30 14286 N 1383.32 2.31354 -6.53029 0
M  V30 14287 N 1385.11 2.0404 -5.23759 0
M  V30 14288 H 1377.26 -0.253253 -2.10885 0
M  V30 14289 H 1379.53 -0.0507111 -0.946643 0
M  V30 14290 H 1379.23 0.405247 -3.49357 0
M  V30 14291 H 1379.11 2.11574 -3.12276 0
M  V30 14292 H 1381.49 2.03831 -2.13394 0
M  V30 14293 H 1381.57 0.317603 -2.53821 0
M  V30 14294 H 1381.22 0.901704 -4.99832 0
M  V30 14295 H 1381.15 2.6279 -4.56343 0
M  V30 14296 H 1383.64 1.52532 -3.45749 0
M  V30 14297 H 1383.95 2.53695 -7.29972 0
M  V30 14298 H 1382.3 2.28811 -6.56255 0
M  V30 14299 H 1385.49 1.812 -4.31606 0
M  V30 14300 H 1385.66 2.27353 -6.06807 0
M  V30 14301 N 1379.07 1.38501 0.752011 0
M  V30 14302 C 1380.31 1.36212 1.52399 0
M  V30 14303 C 1380.67 -0.0472831 1.91942 0
M  V30 14304 O 1381.87 -0.195055 2.68091 0
M  V30 14305 C 1380.14 2.2925 2.74188 0
M  V30 14306 S 1381.7 2.44995 3.64037 0
M  V30 14307 H 1378.52 0.483276 0.521503 0
M  V30 14308 H 1381.12 1.74441 0.882647 0
M  V30 14309 H 1379.83 3.30541 2.4325 0
M  V30 14310 H 1379.36 1.92176 3.43266 0
M  V30 14311 H 1381.37 1.67519 4.67067 0
M  V30 14312 N 1380.55 -0.980364 1.23396 0
M  V30 14313 C 1381.49 -2.09401 1.01262 0
M  V30 14314 C 1382.49 -1.69331 -0.0483957 0
M  V30 14315 O 1383.69 -1.79693 0.105109 0
M  V30 14316 H 1380.07 -0.684969 0.310358 0
M  V30 14317 H 1382.04 -2.25236 1.95732 0
M  V30 14318 C 1380.79 -3.42118 0.620526 0
M  V30 14319 H 1380.11 -3.73402 1.42868 0
M  V30 14320 H 1381.55 -4.2098 0.505169 0
M  V30 14321 C 1380.01 -3.30146 -0.671208 0
M  V30 14322 O 1380.54 -3.62997 -1.72034 0
M  V30 14323 N 1378.75 -2.83303 -0.647137 0
M  V30 14324 H 1378.29 -2.56767 0.206957 0
M  V30 14325 H 1378.25 -2.75675 -1.51165 0
M  V30 14326 N 1382.02 -1.04567 -1.17913 0
M  V30 14327 C 1383.26 -0.760977 -1.89706 0
M  V30 14328 C 1383.63 0.698804 -1.78832 0
M  V30 14329 O 1384.83 1.09733 -2.45382 0
M  V30 14330 C 1383.1 -1.22042 -3.35917 0
M  V30 14331 S 1384.66 -1.06214 -4.25751 0
M  V30 14332 H 1381.48 -0.276538 -0.655017 0
M  V30 14333 H 1384.08 -1.339 -1.42446 0
M  V30 14334 H 1382.78 -2.27813 -3.41364 0
M  V30 14335 H 1382.31 -0.636401 -3.88218 0
M  V30 14336 H 1384.33 0.0174486 -4.96197 0
M  V30 14337 N 1383.5 1.34231 -0.825823 0
M  V30 14338 C 1384.45 2.26916 -0.222038 0
M  V30 14339 C 1385.44 1.48667 0.615382 0
M  V30 14340 O 1386.63 1.7066 0.469487 0
M  V30 14341 C 1383.76 3.37787 0.612785 0
M  V30 14342 C 1382.84 4.23446 -0.235423 0
M  V30 14343 N 1383.23 4.88599 -1.30784 0
M  V30 14344 C 1381.53 4.45995 -0.0202477 0
M  V30 14345 C 1382.23 5.52254 -1.82729 0
M  V30 14346 N 1381.21 5.3171 -1.13074 0
M  V30 14347 H 1385.01 2.74796 -1.04232 0
M  V30 14348 H 1382.52 1.47983 -0.668928 0
M  V30 14349 H 1384.52 4.03159 1.06153 0
M  V30 14350 H 1383.18 2.91457 1.43119 0
M  V30 14351 H 1384.19 4.89528 -1.69066 0
M  V30 14352 H 1380.87 4.10417 0.765761 0
M  V30 14353 H 1382.26 6.14177 -2.72464 0
M  V30 14354 N 1384.98 0.581051 1.46498 0
M  V30 14355 C 1386.21 0.0715652 2.06776 0
M  V30 14356 C 1386.62 -1.23267 1.43006 0
M  V30 14357 O 1385.98 -1.74489 0.534776 0
M  V30 14358 C 1386.03 -0.102666 3.61354 0
M  V30 14359 O 1385.75 1.14995 4.22739 0
M  V30 14360 C 1387.25 -0.646692 4.38558 0
M  V30 14361 H 1384.47 0.0566964 0.6686 0
M  V30 14362 H 1387.02 0.801248 1.8815 0
M  V30 14363 H 1385.17 -0.782564 3.79414 0
M  V30 14364 H 1385.59 0.962718 5.15589 0
M  V30 14365 H 1387.06 -0.717791 5.47313 0
M  V30 14366 H 1387.54 -1.6633 4.06486 0
M  V30 14367 H 1388.14 -0.00171739 4.253 0
M  V30 14368 N 1386.46 -1.54343 0.318742 0
M  V30 14369 C 1387.71 -2.00084 -0.284713 0
M  V30 14370 C 1388.03 -1.20855 -1.53033 0
M  V30 14371 O 1387.3 -0.309104 -1.93446 0
M  V30 14372 H 1385.88 -0.739123 -0.108193 0
M  V30 14373 H 1388.54 -1.90002 0.434174 0
M  V30 14374 H 1387.63 -3.07314 -0.544459 0
M  V30 14375 N 1387.94 -0.0468143 -1.5753 0
M  V30 14376 C 1389.18 0.628869 -1.92803 0
M  V30 14377 C 1389.51 1.70751 -0.925083 0
M  V30 14378 O 1388.79 1.94437 0.0495821 0
M  V30 14379 C 1389.07 1.22899 -3.38479 0
M  V30 14380 C 1388.93 0.158707 -4.4952 0
M  V30 14381 C 1390.24 2.1419 -3.84461 0
M  V30 14382 H 1387.36 0.227137 -0.701126 0
M  V30 14383 H 1390.01 -0.107689 -1.89695 0
M  V30 14384 H 1388.16 1.85674 -3.41259 0
M  V30 14385 H 1389.83 -0.472963 -4.58869 0
M  V30 14386 H 1388.07 -0.51375 -4.30747 0
M  V30 14387 H 1388.74 0.618545 -5.48523 0
M  V30 14388 H 1391.22 1.61382 -3.8353 0
M  V30 14389 H 1390.09 2.53125 -4.87051 0
M  V30 14390 H 1390.35 3.04024 -3.2097 0
M  V30 14391 N 1389.41 1.55964 0.226527 0
M  V30 14392 C 1390.64 1.82558 0.967269 0
M  V30 14393 C 1391.05 0.623034 1.78647 0
M  V30 14394 O 1390.4 -0.41779 1.78886 0
M  V30 14395 C 1390.46 3.02812 1.93766 0
M  V30 14396 C 1390.12 4.38017 1.30345 0
M  V30 14397 C 1391.12 5.15223 0.695793 0
M  V30 14398 C 1388.8 4.84735 1.31671 0
M  V30 14399 C 1390.8 6.37305 0.109849 0
M  V30 14400 C 1388.48 6.06761 0.726919 0
M  V30 14401 C 1389.48 6.82886 0.124537 0
M  V30 14402 O 1389.17 8.02605 -0.45609 0
M  V30 14403 H 1388.9 0.610967 0.289301 0
M  V30 14404 H 1391.46 2.03892 0.248407 0
M  V30 14405 H 1389.69 2.77283 2.69538 0
M  V30 14406 H 1391.38 3.16321 2.54353 0
M  V30 14407 H 1392.14 4.80239 0.677912 0
M  V30 14408 H 1388.02 4.2546 1.77496 0
M  V30 14409 H 1391.56 6.96666 -0.360953 0
M  V30 14410 H 1387.46 6.41219 0.742196 0
M  V30 14411 H 1388.23 8.17752 -0.349926 0
M  V30 14412 N 1390.89 -0.493031 1.4969 0
M  V30 14413 C 1392.12 -1.26862 1.63063 0
M  V30 14414 C 1392.53 -1.86734 0.304451 0
M  V30 14415 O 1391.87 -1.68956 -0.72108 0
M  V30 14416 C 1391.94 -2.43249 2.64708 0
M  V30 14417 C 1391.6 -2.04185 4.08849 0
M  V30 14418 C 1392.6 -1.57698 4.95406 0
M  V30 14419 C 1390.28 -2.13576 4.54632 0
M  V30 14420 C 1392.28 -1.21116 6.25787 0
M  V30 14421 C 1389.96 -1.76606 5.85024 0
M  V30 14422 C 1390.96 -1.30451 6.70426 0
M  V30 14423 O 1390.65 -0.939844 7.98387 0
M  V30 14424 H 1390.38 -0.390674 0.551679 0
M  V30 14425 H 1392.93 -0.59753 1.96516 0
M  V30 14426 H 1391.16 -3.1346 2.26451 0
M  V30 14427 H 1392.85 -3.0526 2.67528 0
M  V30 14428 H 1393.62 -1.49882 4.6126 0
M  V30 14429 H 1389.5 -2.48451 3.88321 0
M  V30 14430 H 1393.04 -0.850198 6.924 0
M  V30 14431 H 1388.94 -1.84074 6.18698 0
M  V30 14432 H 1389.71 -1.07062 8.11468 0
M  V30 14433 N 1392.37 -1.38898 -0.744656 0
M  V30 14434 C 1393.61 -1.37019 -1.51675 0
M  V30 14435 C 1393.97 0.0371033 -1.91964 0
M  V30 14436 O 1395.18 0.180835 -2.68191 0
M  V30 14437 C 1393.45 -2.30701 -2.72969 0
M  V30 14438 S 1395.01 -2.46922 -3.62733 0
M  V30 14439 H 1391.82 -0.486035 -0.518933 0
M  V30 14440 H 1394.43 -1.74906 -0.873384 0
M  V30 14441 H 1393.13 -3.31827 -2.41494 0
M  V30 14442 H 1392.66 -1.93994 -3.42242 0
M  V30 14443 H 1394.68 -1.69994 -4.66172 0
M  V30 14444 N 1393.85 0.973806 -1.23914 0
M  V30 14445 C 1394.76 2.10138 -1.04304 0
M  V30 14446 C 1395.77 1.73994 0.0143888 0
M  V30 14447 O 1396.95 2.00572 -0.182481 0
M  V30 14448 C 1394.02 3.40673 -0.643639 0
M  V30 14449 C 1393.08 3.90802 -1.77686 0
M  V30 14450 C 1392.31 5.15108 -1.39642 0
M  V30 14451 O 1392.53 5.69695 -0.283546 0
M  V30 14452 O 1391.47 5.59468 -2.21988 0
M  V30 14453 H 1395.29 2.29574 -1.9882 0
M  V30 14454 H 1392.88 1.08524 -1.02679 0
M  V30 14455 H 1394.76 4.19178 -0.432145 0
M  V30 14456 H 1393.43 3.22551 0.272458 0
M  V30 14457 H 1392.34 3.13385 -2.04305 0
M  V30 14458 H 1393.67 4.1339 -2.67151 0
M  V30 14459 N 1395.33 1.05191 1.17357 0
M  V30 14460 C 1396.55 0.782343 1.92079 0
M  V30 14461 C 1396.98 -0.655957 1.76292 0
M  V30 14462 O 1396.33 -1.45573 1.08065 0
M  V30 14463 C 1396.38 1.16777 3.41168 0
M  V30 14464 O 1395.49 0.299908 4.11308 0
M  V30 14465 H 1394.83 0.286894 0.598822 0
M  V30 14466 H 1397.36 1.40476 1.48754 0
M  V30 14467 H 1397.37 1.13454 3.91909 0
M  V30 14468 H 1396.04 2.2155 3.51978 0
M  V30 14469 H 1394.62 0.393744 3.70815 0
M  V30 14470 N 1396.8 -1.33791 0.83293 0
M  V30 14471 C 1398.22 -1.50893 0.519955 0
M  V30 14472 C 1398.42 -1.7749 -0.953919 0
M  V30 14473 O 1397.48 -1.83168 -1.73798 0
M  V30 14474 C 1398.79 -2.66741 1.38815 0
M  V30 14475 C 1400.34 -2.80625 1.38631 0
M  V30 14476 C 1400.81 -3.99528 2.23922 0
M  V30 14477 N 1402.3 -4.06753 2.21599 0
M  V30 14478 C 1403.04 -4.97937 2.84335 0
M  V30 14479 N 1402.53 -5.94276 3.561 0
M  V30 14480 N 1404.33 -4.90887 2.73837 0
M  V30 14481 H 1396.48 -1.14788 1.7871 0
M  V30 14482 H 1398.74 -0.563822 0.762108 0
M  V30 14483 H 1398.45 -2.53748 2.43525 0
M  V30 14484 H 1398.32 -3.62001 1.05996 0
M  V30 14485 H 1400.71 -2.93053 0.346951 0
M  V30 14486 H 1400.79 -1.86144 1.75454 0
M  V30 14487 H 1400.43 -3.8786 3.27914 0
M  V30 14488 H 1400.36 -4.93242 1.84444 0
M  V30 14489 H 1402.85 -3.37802 1.69406 0
M  V30 14490 H 1403.17 -6.60504 4.01191 0
M  V30 14491 H 1401.51 -5.9437 3.60207 0
M  V30 14492 H 1404.7 -4.14586 2.17338 0
M  V30 14493 H 1404.88 -5.61752 3.23014 0
M  V30 14494 N 1398.28 -0.588812 -1.46187 0
M  V30 14495 C 1399.7 -0.250962 -1.57615 0
M  V30 14496 C 1399.9 1.2467 -1.58302 0
M  V30 14497 O 1398.95 2.02876 -1.50325 0
M  V30 14498 C 1400.27 -0.905561 -2.8674 0
M  V30 14499 C 1401.82 -0.879721 -3.00383 0
M  V30 14500 C 1402.29 -1.51398 -4.32253 0
M  V30 14501 N 1403.78 -1.4786 -4.38967 0
M  V30 14502 C 1404.52 -1.93868 -5.39632 0
M  V30 14503 N 1404.01 -2.47876 -6.46938 0
M  V30 14504 N 1405.81 -1.84748 -5.30872 0
M  V30 14505 H 1397.96 -1.56148 -1.43985 0
M  V30 14506 H 1400.22 -0.653028 -0.68721 0
M  V30 14507 H 1399.93 -1.95935 -2.92066 0
M  V30 14508 H 1399.8 -0.417456 -3.74883 0
M  V30 14509 H 1402.19 0.165466 -2.94636 0
M  V30 14510 H 1402.27 -1.40591 -2.137 0
M  V30 14511 H 1401.91 -2.55839 -4.38758 0
M  V30 14512 H 1401.84 -0.962965 -5.17721 0
M  V30 14513 H 1404.33 -1.08387 -3.62023 0
M  V30 14514 H 1404.65 -2.80824 -7.1997 0
M  V30 14515 H 1402.99 -2.51905 -6.47741 0
M  V30 14516 H 1406.18 -1.42307 -4.45944 0
M  V30 14517 H 1406.35 -2.20919 -6.09179 0
M  V30 14518 N 1399.76 1.54172 -0.326923 0
M  V30 14519 C 1400.71 2.24454 0.537501 0
M  V30 14520 C 1401.68 1.23658 1.10896 0
M  V30 14521 O 1402.86 1.52348 1.14868 0
M  V30 14522 C 1400 3.00839 1.69085 0
M  V30 14523 C 1399.12 4.16459 1.1483 0
M  V30 14524 C 1398.25 4.80368 2.26761 0
M  V30 14525 C 1397.29 5.88085 1.69771 0
M  V30 14526 N 1396.43 6.45842 2.75378 0
M  V30 14527 H 1401.27 2.97921 -0.0684022 0
M  V30 14528 H 1398.8 1.4703 -0.0455287 0
M  V30 14529 H 1400.76 3.43375 2.36959 0
M  V30 14530 H 1399.39 2.297 2.26799 0
M  V30 14531 H 1398.44 3.78683 0.361004 0
M  V30 14532 H 1399.76 4.93986 0.69132 0
M  V30 14533 H 1398.91 5.25889 3.02533 0
M  V30 14534 H 1397.65 4.02228 2.75796 0
M  V30 14535 H 1396.65 5.41963 0.924985 0
M  V30 14536 H 1397.88 6.68123 1.21609 0
M  V30 14537 H 1395.82 5.70574 3.23699 0
M  V30 14538 H 1395.74 7.18792 2.34253 0
M  V30 14539 H 1397.01 6.96018 3.50969 0
M  V30 14540 N 1401.24 0.0551678 1.57503 0
M  V30 14541 C 1402.47 -0.626291 1.96879 0
M  V30 14542 C 1402.88 -1.64677 0.93156 0
M  V30 14543 O 1402.22 -1.83469 -0.0921632 0
M  V30 14544 C 1402.28 -1.36674 3.32506 0
M  V30 14545 C 1401.95 -0.501632 4.54239 0
M  V30 14546 C 1402.94 0.233939 5.19373 0
M  V30 14547 C 1400.63 -0.431385 5.00444 0
M  V30 14548 C 1402.62 1.02815 6.29053 0
M  V30 14549 C 1400.31 0.366514 6.1 0
M  V30 14550 C 1401.31 1.09497 6.74166 0
M  V30 14551 O 1400.99 1.87974 7.81614 0
M  V30 14552 H 1400.73 -0.175738 0.652757 0
M  V30 14553 H 1403.28 0.11909 2.05054 0
M  V30 14554 H 1401.51 -2.15783 3.20896 0
M  V30 14555 H 1403.2 -1.93882 3.56602 0
M  V30 14556 H 1403.97 0.189161 4.84631 0
M  V30 14557 H 1399.84 -0.98798 4.50289 0
M  V30 14558 H 1403.39 1.59724 6.79068 0
M  V30 14559 H 1399.29 0.412916 6.44178 0
M  V30 14560 H 1400.05 1.80228 7.98411 0
M  V30 14561 N 1402.72 -1.56081 -0.218252 0
M  V30 14562 C 1403.95 -1.83069 -0.957574 0
M  V30 14563 C 1404.35 -0.6325 -1.78315 0
M  V30 14564 O 1403.7 0.408298 -1.79105 0
M  V30 14565 C 1403.76 -3.03835 -1.92157 0
M  V30 14566 C 1403.42 -4.38702 -1.2802 0
M  V30 14567 C 1404.42 -5.15585 -0.66846 0
M  V30 14568 C 1402.11 -4.85427 -1.29098 0
M  V30 14569 C 1404.1 -6.37355 -0.0760499 0
M  V30 14570 C 1401.79 -6.07138 -0.69473 0
M  V30 14571 C 1402.78 -6.82943 -0.0883201 0
M  V30 14572 O 1402.47 -8.02352 0.498648 0
M  V30 14573 H 1402.2 -0.612493 -0.286057 0
M  V30 14574 H 1404.76 -2.04021 -0.23759 0
M  V30 14575 H 1402.99 -2.78709 -2.68064 0
M  V30 14576 H 1404.68 -3.17666 -2.52672 0
M  V30 14577 H 1405.44 -4.80592 -0.652434 0
M  V30 14578 H 1401.32 -4.26395 -1.75238 0
M  V30 14579 H 1404.87 -6.96464 0.397893 0
M  V30 14580 H 1400.76 -6.41604 -0.70818 0
M  V30 14581 H 1401.53 -8.17555 0.393289 0
M  V30 14582 N 1404.2 0.485086 -1.49949 0
M  V30 14583 C 1405.61 1.06629 -1.53255 0
M  V30 14584 C 1405.96 1.9344 -0.327915 0
M  V30 14585 O 1405.08 2.09011 0.560669 0
M  V30 14586 C 1405.68 1.94053 -2.77721 0
M  V30 14587 C 1404.24 2.47307 -2.83754 0
M  V30 14588 C 1403.38 1.25307 -2.47373 0
M  V30 14589 H 1406.33 0.268297 -1.56416 0
M  V30 14590 H 1406.36 2.78946 -2.58784 0
M  V30 14591 H 1405.87 1.30843 -3.65379 0
M  V30 14592 H 1403.97 3.1411 -2.00414 0
M  V30 14593 H 1404.08 2.83371 -3.86313 0
M  V30 14594 H 1402.45 1.5834 -1.99501 0
M  V30 14595 H 1403.23 0.637815 -3.37323 0
M  V30 14596 N 1405.67 1.39291 0.737279 0
M  V30 14597 C 1406.92 1.36592 1.49901 0
M  V30 14598 C 1407.25 -0.0388812 1.94161 0
M  V30 14599 O 1406.53 -1.00337 1.66622 0
M  V30 14600 C 1406.81 2.33625 2.74028 0
M  V30 14601 C 1406.66 3.83037 2.35802 0
M  V30 14602 C 1407.98 2.28524 3.76118 0
M  V30 14603 H 1405.1 0.497482 0.543765 0
M  V30 14604 H 1407.74 1.70265 0.843193 0
M  V30 14605 H 1405.89 2.0504 3.29986 0
M  V30 14606 H 1407.57 4.22363 1.85493 0
M  V30 14607 H 1405.81 3.99924 1.68058 0
M  V30 14608 H 1406.48 4.46415 3.24681 0
M  V30 14609 H 1408.96 2.53794 3.29739 0
M  V30 14610 H 1407.83 2.98501 4.60639 0
M  V30 14611 H 1408.09 1.28949 4.22876 0
M  V30 14612 N 1407.15 -0.967221 1.24429 0
M  V30 14613 C 1408.38 -1.75053 1.11226 0
M  V30 14614 C 1408.8 -1.85162 -0.331139 0
M  V30 14615 O 1408.16 -1.32288 -1.23974 0
M  V30 14616 C 1408.21 -3.14882 1.75733 0
M  V30 14617 O 1407.31 -3.99371 1.02842 0
M  V30 14618 H 1406.65 -0.538078 0.389061 0
M  V30 14619 H 1409.18 -1.21325 1.64746 0
M  V30 14620 H 1409.19 -3.65402 1.81509 0
M  V30 14621 H 1407.87 -3.06839 2.80754 0
M  V30 14622 H 1406.44 -3.57854 1.04856 0
M  V30 14623 N 1408.63 -1.05812 -1.16797 0
M  V30 14624 C 1409.88 -0.771923 -1.8721 0
M  V30 14625 C 1410.2 0.701365 -1.81414 0
M  V30 14626 O 1409.46 1.5292 -1.22122 0
M  V30 14627 C 1409.76 -1.20565 -3.3645 0
M  V30 14628 C 1409.42 -2.68222 -3.62447 0
M  V30 14629 C 1408.09 -3.08556 -3.69251 0
M  V30 14630 C 1410.44 -3.63607 -3.73416 0
M  V30 14631 C 1407.77 -4.43126 -3.84521 0
M  V30 14632 C 1410.12 -4.97918 -3.90205 0
M  V30 14633 C 1408.78 -5.37897 -3.9525 0
M  V30 14634 H 1408.05 -0.282467 -0.68505 0
M  V30 14635 H 1410.7 -1.32633 -1.38133 0
M  V30 14636 H 1409 -0.570347 -3.87626 0
M  V30 14637 H 1410.7 -0.961326 -3.89306 0
M  V30 14638 H 1407.29 -2.3599 -3.5778 0
M  V30 14639 H 1411.48 -3.33581 -3.67474 0
M  V30 14640 H 1406.73 -4.73593 -3.86677 0
M  V30 14641 H 1410.91 -5.71716 -3.97635 0
M  V30 14642 H 1408.53 -6.42176 -4.06834 0
M  V30 14643 N 1410.11 1.33347 -0.840014 0
M  V30 14644 C 1411.34 2.01952 -0.449793 0
M  V30 14645 C 1411.75 1.63197 0.949317 0
M  V30 14646 O 1411.11 0.84589 1.61713 0
M  V30 14647 C 1411.16 3.57102 -0.562178 0
M  V30 14648 O 1410.88 3.94458 -1.90616 0
M  V30 14649 C 1412.38 4.42978 -0.169062 0
M  V30 14650 H 1409.6 0.646843 -0.178425 0
M  V30 14651 H 1412.14 1.70251 -1.1329 0
M  V30 14652 H 1410.3 3.87331 0.0730345 0
M  V30 14653 H 1410.71 4.89167 -1.8925 0
M  V30 14654 H 1412.19 5.51191 -0.298742 0
M  V30 14655 H 1412.66 4.30106 0.889137 0
M  V30 14656 H 1413.27 4.18109 -0.778756 0
M  V30 14657 N 1411.59 0.596556 1.45873 0
M  V30 14658 C 1412.83 0.0872856 2.01911 0
M  V30 14659 C 1413.15 -1.28257 1.46885 0
M  V30 14660 O 1412.42 -1.84489 0.658837 0
M  V30 14661 H 1411 0.0292769 0.746426 0
M  V30 14662 H 1413.67 0.775464 1.78809 0
M  V30 14663 H 1412.76 0.0287213 3.12087 0
M  V30 14664 N 1413.06 -1.53996 0.335095 0
M  V30 14665 C 1414.47 -1.86092 -0.15058 0
M  V30 14666 C 1414.83 -1.25652 -1.50685 0
M  V30 14667 O 1413.95 -0.566887 -2.08843 0
M  V30 14668 C 1414.55 -3.37641 -0.280007 0
M  V30 14669 C 1413.1 -3.69645 -0.709907 0
M  V30 14670 C 1412.25 -2.7683 0.161461 0
M  V30 14671 H 1415.2 -1.4868 0.554986 0
M  V30 14672 H 1415.22 -3.63981 -1.10896 0
M  V30 14673 H 1414.74 -3.81601 0.707254 0
M  V30 14674 H 1412.84 -3.31224 -1.7065 0
M  V30 14675 H 1412.95 -4.76424 -0.505661 0
M  V30 14676 H 1411.31 -2.52073 -0.364849 0
M  V30 14677 H 1412.1 -3.23618 1.1457 0
M  V30 14678 N 1414.54 -0.0635198 -1.57472 0
M  V30 14679 C 1415.77 0.616735 -1.97494 0
M  V30 14680 C 1416.18 1.63646 -0.941568 0
M  V30 14681 O 1415.54 1.82355 0.0727768 0
M  V30 14682 C 1415.59 1.29268 -3.37597 0
M  V30 14683 O 1415.31 0.313781 -4.36975 0
M  V30 14684 C 1416.81 2.06154 -3.92448 0
M  V30 14685 H 1414.03 0.167753 -0.649692 0
M  V30 14686 H 1416.58 -0.133475 -2.04064 0
M  V30 14687 H 1414.73 1.99404 -3.3214 0
M  V30 14688 H 1415.15 0.797723 -5.18398 0
M  V30 14689 H 1416.62 2.48853 -4.92723 0
M  V30 14690 H 1417.1 2.91474 -3.28541 0
M  V30 14691 H 1417.7 1.40903 -4.01281 0
M  V30 14692 N 1416.02 1.56195 0.209972 0
M  V30 14693 C 1417.27 1.79745 0.932638 0
M  V30 14694 C 1417.59 0.634252 1.83868 0
M  V30 14695 O 1416.85 -0.380798 1.91959 0
M  V30 14696 C 1417.15 3.09154 1.79328 0
M  V30 14697 C 1416.81 4.38754 1.03949 0
M  V30 14698 C 1415.48 4.73965 0.831308 0
M  V30 14699 C 1417.83 5.18718 0.508031 0
M  V30 14700 C 1415.16 5.86646 0.0799547 0
M  V30 14701 C 1417.51 6.32182 -0.230037 0
M  V30 14702 C 1416.17 6.65986 -0.449366 0
M  V30 14703 H 1415.44 0.657732 0.341276 0
M  V30 14704 H 1418.09 1.90453 0.199998 0
M  V30 14705 H 1416.39 2.93618 2.59414 0
M  V30 14706 H 1418.09 3.24578 2.35478 0
M  V30 14707 H 1414.68 4.11114 1.21174 0
M  V30 14708 H 1418.87 4.91941 0.656306 0
M  V30 14709 H 1414.12 6.11318 -0.100092 0
M  V30 14710 H 1418.3 6.93367 -0.649296 0
M  V30 14711 H 1415.92 7.53142 -1.03349 0
M  V30 14712 N 1417.5 -0.477127 1.50204 0
M  V30 14713 C 1418.43 -1.59319 1.64773 0
M  V30 14714 C 1419.44 -1.53951 0.529427 0
M  V30 14715 O 1420.63 -1.59449 0.802388 0
M  V30 14716 C 1417.73 -2.98185 1.61055 0
M  V30 14717 C 1416.9 -3.28486 2.88817 0
M  V30 14718 C 1415.96 -4.46878 2.77825 0
M  V30 14719 O 1414.99 -4.47483 3.51778 0
M  V30 14720 N 1416.19 -5.48187 1.90974 0
M  V30 14721 H 1418.96 -1.4724 2.61037 0
M  V30 14722 H 1416.52 -0.66544 1.47592 0
M  V30 14723 H 1418.51 -3.75345 1.51323 0
M  V30 14724 H 1417.08 -3.04064 0.725509 0
M  V30 14725 H 1416.3 -2.39997 3.12722 0
M  V30 14726 H 1417.59 -3.4554 3.7347 0
M  V30 14727 H 1416.99 -5.50515 1.30192 0
M  V30 14728 H 1415.54 -6.24355 1.87148 0
M  V30 14729 N 1418.98 -1.3968 -0.729882 0
M  V30 14730 C 1420.21 -1.40263 -1.5169 0
M  V30 14731 C 1420.61 0.00325293 -1.892 0
M  V30 14732 O 1419.96 0.986225 -1.54982 0
M  V30 14733 C 1420.02 -2.21629 -2.83056 0
M  V30 14734 C 1419.68 -3.70204 -2.67951 0
M  V30 14735 C 1420.68 -4.63169 -2.36158 0
M  V30 14736 C 1418.37 -4.13851 -2.84662 0
M  V30 14737 C 1420.36 -5.97763 -2.21265 0
M  V30 14738 C 1418.05 -5.4852 -2.69387 0
M  V30 14739 C 1419.04 -6.4029 -2.37734 0
M  V30 14740 O 1418.73 -7.72478 -2.22561 0
M  V30 14741 H 1418.46 -0.480808 -0.475184 0
M  V30 14742 H 1421.02 -1.84184 -0.909136 0
M  V30 14743 H 1419.25 -1.72465 -3.46111 0
M  V30 14744 H 1420.94 -2.14328 -3.447 0
M  V30 14745 H 1421.7 -4.30748 -2.22893 0
M  V30 14746 H 1417.58 -3.42751 -3.0829 0
M  V30 14747 H 1421.13 -6.69359 -1.96481 0
M  V30 14748 H 1417.02 -5.8053 -2.82232 0
M  V30 14749 H 1417.79 -7.83258 -2.37591 0
M  V30 14750 N 1420.45 0.960609 -1.2494 0
M  V30 14751 C 1421.39 2.05548 -0.991229 0
M  V30 14752 C 1422.37 1.62415 0.0774707 0
M  V30 14753 O 1423.55 1.88401 -0.0609447 0
M  V30 14754 C 1420.68 3.3503 -0.497227 0
M  V30 14755 C 1419.72 3.97121 -1.55555 0
M  V30 14756 S 1420.56 4.33851 -3.139 0
M  V30 14757 C 1421.71 5.66461 -2.6622 0
M  V30 14758 H 1421.94 2.27131 -1.9183 0
M  V30 14759 H 1419.48 1.09945 -1.08404 0
M  V30 14760 H 1421.44 4.09916 -0.218845 0
M  V30 14761 H 1420.1 3.11423 0.409246 0
M  V30 14762 H 1419.29 4.90458 -1.16047 0
M  V30 14763 H 1418.89 3.28692 -1.7843 0
M  V30 14764 H 1421.18 6.44304 -2.09474 0
M  V30 14765 H 1422.13 6.10833 -3.58174 0
M  V30 14766 H 1422.53 5.25409 -2.06413 0
M  V30 14767 N 1421.93 1.0643 1.16234 0
M  V30 14768 C 1422.84 0.687446 2.24302 0
M  V30 14769 C 1423.86 -0.297132 1.71444 0
M  V30 14770 O 1425.03 -0.146101 2.00869 0
M  V30 14771 C 1422.1 0.0810973 3.46605 0
M  V30 14772 C 1421.16 1.11772 4.14494 0
M  V30 14773 C 1420.39 0.54021 5.30959 0
M  V30 14774 O 1420.62 -0.646619 5.66723 0
M  V30 14775 O 1419.55 1.28057 5.8812 0
M  V30 14776 H 1423.38 1.58842 2.58849 0
M  V30 14777 H 1420.96 0.836649 1.23776 0
M  V30 14778 H 1422.84 -0.25524 4.20626 0
M  V30 14779 H 1421.52 -0.793338 3.13828 0
M  V30 14780 H 1420.43 1.50626 3.42436 0
M  V30 14781 H 1421.76 1.96373 4.5133 0
M  V30 14782 N 1423.41 -1.329 0.847073 0
M  V30 14783 C 1424.37 -2.27341 0.291324 0
M  V30 14784 C 1425.37 -1.51295 -0.544653 0
M  V30 14785 O 1426.56 -1.70497 -0.357258 0
M  V30 14786 C 1423.7 -3.35779 -0.588668 0
M  V30 14787 H 1424.89 -2.78009 1.12477 0
M  V30 14788 H 1422.44 -1.43442 0.620803 0
M  V30 14789 H 1423.18 -2.90366 -1.44423 0
M  V30 14790 H 1422.96 -3.92099 0.00960515 0
M  V30 14791 H 1424.45 -4.06166 -0.970526 0
M  V30 14792 N 1424.89 -0.604284 -1.45555 0
M  V30 14793 C 1425.84 0.129013 -2.32242 0
M  V30 14794 C 1426.83 0.862933 -1.45773 0
M  V30 14795 O 1428.04 0.778874 -1.62276 0
M  V30 14796 H 1424.41 0.0604661 -0.749565 0
M  V30 14797 H 1426.38 -0.620603 -2.91875 0
M  V30 14798 C 1425.13 1.11516 -3.29332 0
M  V30 14799 H 1424.45 0.559849 -3.95861 0
M  V30 14800 H 1425.89 1.59824 -3.92724 0
M  V30 14801 C 1424.35 2.18706 -2.5626 0
M  V30 14802 O 1424.88 3.26397 -2.34154 0
M  V30 14803 N 1423.09 1.93899 -2.16452 0
M  V30 14804 H 1422.64 1.0633 -2.34631 0
M  V30 14805 H 1422.59 2.65824 -1.67884 0
M  V30 14806 N 1426.37 1.53816 -0.343257 0
M  V30 14807 C 1427.28 2.28716 0.522121 0
M  V30 14808 C 1428.29 1.33815 1.11218 0
M  V30 14809 O 1429.47 1.66853 1.12793 0
M  V30 14810 C 1426.53 3.04517 1.65741 0
M  V30 14811 C 1425.59 4.15043 1.09716 0
M  V30 14812 C 1424.83 4.8722 2.17835 0
M  V30 14813 O 1425.05 4.59065 3.38549 0
M  V30 14814 O 1423.98 5.73678 1.82145 0
M  V30 14815 H 1427.81 3.03576 -0.086732 0
M  V30 14816 H 1425.4 1.49007 -0.108313 0
M  V30 14817 H 1427.28 3.51921 2.31796 0
M  V30 14818 H 1425.95 2.32514 2.25208 0
M  V30 14819 H 1424.86 3.71943 0.401152 0
M  V30 14820 H 1426.19 4.89147 0.547362 0
M  V30 14821 N 1427.84 0.0718701 1.57436 0
M  V30 14822 C 1429.07 -0.605374 1.97532 0
M  V30 14823 C 1429.48 -1.6368 0.948974 0
M  V30 14824 O 1428.83 -1.83556 -0.0726987 0
M  V30 14825 C 1428.89 -1.33139 3.33937 0
M  V30 14826 C 1428.55 -0.453426 4.54745 0
M  V30 14827 C 1429.55 0.289012 5.19096 0
M  V30 14828 C 1427.23 -0.378282 5.00874 0
M  V30 14829 C 1429.23 1.09482 6.27927 0
M  V30 14830 C 1426.91 0.431192 6.09577 0
M  V30 14831 C 1427.91 1.16641 6.72966 0
M  V30 14832 O 1427.6 1.96253 7.79577 0
M  V30 14833 H 1427.33 -0.168804 0.654585 0
M  V30 14834 H 1429.89 0.140832 2.04917 0
M  V30 14835 H 1428.12 -2.12367 3.23167 0
M  V30 14836 H 1429.81 -1.90089 3.58638 0
M  V30 14837 H 1430.57 0.240552 4.84403 0
M  V30 14838 H 1426.45 -0.940166 4.51311 0
M  V30 14839 H 1429.99 1.66918 6.77336 0
M  V30 14840 H 1425.89 0.481217 6.43704 0
M  V30 14841 H 1426.66 1.88686 7.96455 0
M  V30 14842 N 1429.32 -1.56304 -0.201686 0
M  V30 14843 C 1430.55 -1.84074 -0.938103 0
M  V30 14844 C 1430.96 -0.651377 -1.77634 0
M  V30 14845 O 1430.3 0.389278 -1.79528 0
M  V30 14846 C 1430.37 -3.05856 -1.88924 0
M  V30 14847 C 1430.03 -4.40036 -1.2336 0
M  V30 14848 C 1431.03 -5.16265 -0.613737 0
M  V30 14849 C 1428.71 -4.86768 -1.23942 0
M  V30 14850 C 1430.71 -6.37399 -0.00844569 0
M  V30 14851 C 1428.39 -6.07841 -0.630296 0
M  V30 14852 C 1429.39 -6.82998 -0.0158799 0
M  V30 14853 O 1429.08 -8.01778 0.58372 0
M  V30 14854 H 1428.81 -0.615492 -0.279545 0
M  V30 14855 H 1431.36 -2.04262 -0.215938 0
M  V30 14856 H 1429.59 -2.81536 -2.65093 0
M  V30 14857 H 1431.28 -3.20328 -2.49289 0
M  V30 14858 H 1432.05 -4.81257 -0.601424 0
M  V30 14859 H 1427.93 -4.2823 -1.70705 0
M  V30 14860 H 1431.47 -6.96003 0.47174 0
M  V30 14861 H 1427.37 -6.42319 -0.640089 0
M  V30 14862 H 1428.14 -8.17091 0.479979 0
M  V30 14863 N 1430.8 0.469154 -1.50455 0
M  V30 14864 C 1432.21 1.04997 -1.54378 0
M  V30 14865 C 1432.56 1.93082 -0.348414 0
M  V30 14866 O 1431.69 2.09594 0.538469 0
M  V30 14867 C 1432.28 1.91096 -2.79764 0
M  V30 14868 C 1430.84 2.44283 -2.86361 0
M  V30 14869 C 1429.99 1.22676 -2.48688 0
M  V30 14870 H 1432.94 0.251692 -1.56691 0
M  V30 14871 H 1432.96 2.76186 -2.61728 0
M  V30 14872 H 1432.47 1.26961 -3.66746 0
M  V30 14873 H 1430.57 3.11966 -2.03735 0
M  V30 14874 H 1430.69 2.79258 -3.89297 0
M  V30 14875 H 1429.05 1.56215 -2.01169 0
M  V30 14876 H 1429.83 0.602002 -3.37981 0
M  V30 14877 N 1432.28 1.40065 0.722464 0
M  V30 14878 C 1433.24 1.39544 1.81825 0
M  V30 14879 C 1434.24 0.290385 1.58156 0
M  V30 14880 O 1435.43 0.54894 1.65325 0
M  V30 14881 C 1432.56 1.18041 3.19811 0
M  V30 14882 H 1433.76 2.37063 1.83687 0
M  V30 14883 H 1431.31 1.25813 0.927404 0
M  V30 14884 H 1432.04 0.212536 3.23603 0
M  V30 14885 H 1431.83 1.98079 3.38389 0
M  V30 14886 H 1433.32 1.20447 3.99853 0
M  V30 14887 N 1433.76 -0.95397 1.25448 0
M  V30 14888 C 1435.17 -1.22516 1.02284 0
M  V30 14889 C 1435.37 -1.99816 -0.259933 0
M  V30 14890 O 1434.43 -2.33022 -0.972479 0
M  V30 14891 C 1435.74 -1.9989 2.24643 0
M  V30 14892 C 1437.29 -2.1293 2.29412 0
M  V30 14893 C 1437.77 -2.93703 3.51429 0
M  V30 14894 N 1439.26 -3.01281 3.51829 0
M  V30 14895 C 1439.99 -3.64174 4.42905 0
M  V30 14896 N 1439.49 -4.28673 5.44253 0
M  V30 14897 N 1441.28 -3.61321 4.30585 0
M  V30 14898 H 1433.43 -0.436859 2.07859 0
M  V30 14899 H 1435.69 -0.255744 0.912852 0
M  V30 14900 H 1435.4 -1.50489 3.17877 0
M  V30 14901 H 1435.27 -3.00593 2.27868 0
M  V30 14902 H 1437.66 -2.61528 1.367 0
M  V30 14903 H 1437.74 -1.1153 2.30206 0
M  V30 14904 H 1437.39 -2.45795 4.44463 0
M  V30 14905 H 1437.32 -3.95331 3.47881 0
M  V30 14906 H 1439.81 -2.55414 2.78517 0
M  V30 14907 H 1440.12 -4.74522 6.09958 0
M  V30 14908 H 1438.47 -4.27299 5.48125 0
M  V30 14909 H 1441.66 -3.10118 3.50634 0
M  V30 14910 H 1441.83 -4.1005 5.0176 0
M  V30 14911 N 1435.24 -1.07045 -1.15668 0
M  V30 14912 C 1436.47 -0.811567 -1.89992 0
M  V30 14913 C 1436.87 0.638628 -1.78096 0
M  V30 14914 O 1436.22 1.44953 -1.12846 0
M  V30 14915 C 1436.28 -1.13665 -3.41058 0
M  V30 14916 C 1435.94 -2.58681 -3.7674 0
M  V30 14917 C 1436.94 -3.56923 -3.78023 0
M  V30 14918 C 1434.62 -2.94178 -4.07142 0
M  V30 14919 C 1436.62 -4.88699 -4.09209 0
M  V30 14920 C 1434.31 -4.26152 -4.37993 0
M  V30 14921 C 1435.3 -5.23222 -4.39007 0
M  V30 14922 O 1434.99 -6.52826 -4.6912 0
M  V30 14923 H 1434.72 -0.293243 -0.609085 0
M  V30 14924 H 1437.28 -1.42941 -1.47502 0
M  V30 14925 H 1435.51 -0.461762 -3.83933 0
M  V30 14926 H 1437.2 -0.860808 -3.96667 0
M  V30 14927 H 1437.96 -3.30842 -3.54639 0
M  V30 14928 H 1433.84 -2.19272 -4.05513 0
M  V30 14929 H 1437.39 -5.6446 -4.09915 0
M  V30 14930 H 1433.28 -4.51988 -4.60844 0
M  V30 14931 H 1434.05 -6.5793 -4.86898 0
M  V30 14932 N 1436.71 1.32449 -0.85411 0
M  V30 14933 C 1437.65 2.2777 -0.255605 0
M  V30 14934 C 1438.66 1.52407 0.572355 0
M  V30 14935 O 1439.85 1.74031 0.396935 0
M  V30 14936 C 1436.95 3.32461 0.657496 0
M  V30 14937 C 1436.12 4.37193 -0.134492 0
M  V30 14938 C 1435.18 5.21465 0.704288 0
M  V30 14939 O 1434.21 5.69033 0.138001 0
M  V30 14940 N 1435.41 5.44254 2.01911 0
M  V30 14941 H 1438.17 2.79769 -1.07468 0
M  V30 14942 H 1435.73 1.45304 -0.714038 0
M  V30 14943 H 1437.73 3.85748 1.22396 0
M  V30 14944 H 1436.3 2.80625 1.37726 0
M  V30 14945 H 1435.52 3.84198 -0.882378 0
M  V30 14946 H 1436.8 5.04256 -0.678508 0
M  V30 14947 H 1436.2 5.07336 2.50252 0
M  V30 14948 H 1434.76 6.00538 2.53371 0
M  V30 14949 N 1438.19 0.611994 1.45232 0
M  V30 14950 C 1439.42 0.113618 2.07089 0
M  V30 14951 C 1439.84 -1.1947 1.45288 0
M  V30 14952 O 1439.2 -1.72845 0.547207 0
M  V30 14953 C 1439.25 -0.00789978 3.60599 0
M  V30 14954 O 1438.35 -1.05697 3.98625 0
M  V30 14955 H 1437.69 0.076066 0.659629 0
M  V30 14956 H 1440.22 0.843253 1.86415 0
M  V30 14957 H 1440.23 -0.204692 4.07486 0
M  V30 14958 H 1438.91 0.947386 4.04966 0
M  V30 14959 H 1437.48 -0.836291 3.63401 0
M  V30 14960 N 1439.67 -1.53632 0.351409 0
M  V30 14961 C 1440.62 -2.22041 -0.517867 0
M  V30 14962 C 1441.6 -1.21057 -1.0599 0
M  V30 14963 O 1442.8 -1.46569 -0.992298 0
M  V30 14964 C 1439.92 -3.00259 -1.66432 0
M  V30 14965 C 1439.01 -4.08607 -1.13584 0
M  V30 14966 N 1439.4 -5.04727 -0.329217 0
M  V30 14967 C 1437.7 -4.23059 -1.412 0
M  V30 14968 C 1438.4 -5.81685 -0.0415005 0
M  V30 14969 N 1437.38 -5.39875 -0.635288 0
M  V30 14970 H 1441.18 -2.93711 0.105386 0
M  V30 14971 H 1438.69 -1.61623 0.15868 0
M  V30 14972 H 1440.69 -3.47774 -2.29911 0
M  V30 14973 H 1439.35 -2.30117 -2.29077 0
M  V30 14974 H 1440.36 -5.17891 0.0303777 0
M  V30 14975 H 1437.04 -3.64139 -2.04227 0
M  V30 14976 H 1438.43 -6.69128 0.609686 0
M  V30 14977 N 1441.15 -0.0802183 -1.57396 0
M  V30 14978 C 1442.08 0.920242 -2.08822 0
M  V30 14979 C 1443.06 1.2858 -0.995281 0
M  V30 14980 O 1444.24 1.39364 -1.26925 0
M  V30 14981 C 1441.37 2.22589 -2.55288 0
M  V30 14982 C 1440.42 2.01128 -3.76098 0
M  V30 14983 S 1441.25 1.2629 -5.20395 0
M  V30 14984 C 1442.4 2.58116 -5.70199 0
M  V30 14985 H 1442.64 0.482685 -2.93355 0
M  V30 14986 H 1440.17 0.13274 -1.53828 0
M  V30 14987 H 1442.13 2.97625 -2.82718 0
M  V30 14988 H 1440.79 2.63468 -1.71008 0
M  V30 14989 H 1439.98 2.97775 -4.06628 0
M  V30 14990 H 1439.58 1.34225 -3.49084 0
M  V30 14991 H 1441.88 3.54166 -5.77558 0
M  V30 14992 H 1442.82 2.32185 -6.68951 0
M  V30 14993 H 1443.23 2.65707 -4.98056 0
M  V30 14994 N 1442.63 1.56409 0.193394 0
M  V30 14995 C 1443.56 1.97707 1.24234 0
M  V30 14996 C 1444.54 0.849286 1.47381 0
M  V30 14997 O 1445.72 1.11374 1.59089 0
M  V30 14998 C 1442.85 2.31804 2.5862 0
M  V30 14999 C 1441.81 3.47337 2.50082 0
M  V30 15000 C 1441.13 3.67114 3.88756 0
M  V30 15001 C 1442.43 4.81472 2.02441 0
M  V30 15002 H 1444.13 2.8558 0.89914 0
M  V30 15003 H 1441.67 1.37396 0.431078 0
M  V30 15004 H 1443.62 2.5929 3.32185 0
M  V30 15005 H 1442.35 1.40816 2.94684 0
M  V30 15006 H 1441.01 3.19944 1.78973 0
M  V30 15007 H 1440.66 2.73454 4.22175 0
M  V30 15008 H 1440.36 4.44838 3.83918 0
M  V30 15009 H 1441.88 3.96978 4.6394 0
M  V30 15010 H 1443.29 5.07978 2.65766 0
M  V30 15011 H 1441.69 5.62677 2.08601 0
M  V30 15012 H 1442.76 4.74941 0.977704 0
M  V30 15013 N 1444.1 -0.461169 1.50702 0
M  V30 15014 C 1445.35 -1.20934 1.61425 0
M  V30 15015 C 1445.67 -1.92884 0.32481 0
M  V30 15016 O 1446.87 -2.69712 0.311081 0
M  V30 15017 C 1445.33 -2.19797 2.84987 0
M  V30 15018 C 1444.94 -1.53604 4.20844 0
M  V30 15019 C 1446.68 -2.95194 3.05059 0
M  V30 15020 C 1444.59 -2.50811 5.35582 0
M  V30 15021 H 1443.52 -0.455088 0.601174 0
M  V30 15022 H 1446.17 -0.478771 1.77144 0
M  V30 15023 H 1444.55 -2.96187 2.62848 0
M  V30 15024 H 1445.72 -0.829345 4.53275 0
M  V30 15025 H 1444.04 -0.904504 4.06457 0
M  V30 15026 H 1446.64 -3.67965 3.87951 0
M  V30 15027 H 1446.98 -3.5516 2.1718 0
M  V30 15028 H 1447.51 -2.25915 3.27425 0
M  V30 15029 H 1444.25 -1.9557 6.25646 0
M  V30 15030 H 1443.77 -3.19604 5.07556 0
M  V30 15031 H 1445.45 -3.12437 5.66561 0
M  V30 15032 N 1445.58 -1.40446 -0.715026 0
M  V30 15033 C 1446.83 -1.3848 -1.47199 0
M  V30 15034 C 1447.15 0.0119198 -1.94996 0
M  V30 15035 O 1446.42 0.966772 -1.70383 0
M  V30 15036 H 1445 -0.509669 -0.54612 0
M  V30 15037 H 1447.66 -1.75505 -0.847588 0
M  V30 15038 H 1446.76 -2.06002 -2.34456 0
M  V30 15039 N 1447.06 0.947303 -1.25952 0
M  V30 15040 C 1448.01 2.03076 -1.03653 0
M  V30 15041 C 1448.99 1.60874 0.0290512 0
M  V30 15042 O 1450.19 1.76008 -0.187169 0
M  V30 15043 C 1447.31 3.36797 -0.66501 0
M  V30 15044 C 1446.4 3.85502 -1.76773 0
M  V30 15045 N 1446.79 4.06922 -3.00413 0
M  V30 15046 C 1445.09 4.14359 -1.64993 0
M  V30 15047 C 1445.79 4.4717 -3.7204 0
M  V30 15048 N 1444.77 4.53523 -2.99697 0
M  V30 15049 H 1448.57 2.17641 -1.97509 0
M  V30 15050 H 1446.08 1.13268 -1.16379 0
M  V30 15051 H 1448.08 4.14053 -0.486427 0
M  V30 15052 H 1446.74 3.23607 0.266138 0
M  V30 15053 H 1447.75 3.93786 -3.36383 0
M  V30 15054 H 1444.43 4.09991 -0.788254 0
M  V30 15055 H 1445.82 4.71985 -4.78205 0
M  V30 15056 N 1448.54 1.07657 1.15099 0
M  V30 15057 C 1449.79 0.800025 1.85591 0
M  V30 15058 C 1450.11 -0.675973 1.82909 0
M  V30 15059 O 1449.38 -1.48971 1.27218 0
M  V30 15060 H 1447.96 0.292958 0.687157 0
M  V30 15061 H 1450.62 1.36096 1.39513 0
M  V30 15062 H 1449.72 1.13733 2.90639 0
M  V30 15063 N 1450.02 -1.31994 0.861122 0
M  V30 15064 C 1451.26 -1.97025 0.467678 0
M  V30 15065 C 1451.59 -1.68116 -0.978129 0
M  V30 15066 O 1450.85 -0.965342 -1.70234 0
M  V30 15067 C 1451.15 -3.51232 0.661135 0
M  V30 15068 C 1450.81 -4.00142 2.07839 0
M  V30 15069 C 1449.47 -4.1321 2.466 0
M  V30 15070 C 1451.83 -4.25986 3.00309 0
M  V30 15071 C 1449.15 -4.49467 3.7709 0
M  V30 15072 C 1451.51 -4.63704 4.30304 0
M  V30 15073 C 1450.17 -4.74978 4.68991 0
M  V30 15074 H 1449.44 -0.720967 0.171136 0
M  V30 15075 H 1452.09 -1.57285 1.09242 0
M  V30 15076 H 1450.39 -3.91772 -0.0467947 0
M  V30 15077 H 1452.09 -3.99584 0.336669 0
M  V30 15078 H 1448.68 -3.90461 1.76743 0
M  V30 15079 H 1452.86 -4.15393 2.71592 0
M  V30 15080 H 1448.12 -4.56391 4.06838 0
M  V30 15081 H 1452.29 -4.82654 5.02014 0
M  V30 15082 H 1449.92 -5.02828 5.70147 0
M  V30 15083 N 1451.49 -0.619688 -1.44906 0
M  V30 15084 C 1452.46 0.0822364 -2.29052 0
M  V30 15085 C 1453.46 0.783427 -1.40425 0
M  V30 15086 O 1454.65 0.629751 -1.62419 0
M  V30 15087 C 1451.78 1.12685 -3.21737 0
M  V30 15088 H 1452.97 -0.657726 -2.92599 0
M  V30 15089 H 1450.53 -0.379286 -1.51628 0
M  V30 15090 H 1451.26 1.89717 -2.63017 0
M  V30 15091 H 1451.05 0.628122 -3.87036 0
M  V30 15092 H 1452.54 1.61808 -3.84978 0
M  V30 15093 N 1452.97 1.53444 -0.359552 0
M  V30 15094 C 1454.2 2.06058 0.235576 0
M  V30 15095 C 1454.62 1.23175 1.42161 0
M  V30 15096 O 1453.98 0.249338 1.79577 0
M  V30 15097 C 1454.03 3.55351 0.613025 0
M  V30 15098 O 1453.13 3.75229 1.71104 0
M  V30 15099 H 1452.47 0.663038 0.0357266 0
M  V30 15100 H 1455 1.97923 -0.518408 0
M  V30 15101 H 1455.01 3.9827 0.885722 0
M  V30 15102 H 1453.69 4.15122 -0.254243 0
M  V30 15103 H 1452.27 3.4421 1.43437 0
M  V30 15104 N 1454.45 0.0885642 1.57351 0
M  V30 15105 C 1455.86 -0.441569 1.81403 0
M  V30 15106 C 1456.21 -1.68582 1.00372 0
M  V30 15107 O 1455.34 -2.15162 0.231153 0
M  V30 15108 C 1455.93 -0.807886 3.29027 0
M  V30 15109 C 1454.49 -1.2828 3.53866 0
M  V30 15110 C 1453.64 -0.276217 2.75921 0
M  V30 15111 H 1456.59 0.314083 1.55561 0
M  V30 15112 H 1456.61 -1.66797 3.41993 0
M  V30 15113 H 1456.12 0.0978886 3.87977 0
M  V30 15114 H 1454.22 -2.2065 3.0024 0
M  V30 15115 H 1454.34 -1.24914 4.62529 0
M  V30 15116 H 1452.7 -0.757007 2.4319 0
M  V30 15117 H 1453.48 0.622123 3.37616 0
M  V30 15118 N 1455.93 -1.56509 -0.185096 0
M  V30 15119 C 1457.18 -1.80848 -0.902139 0
M  V30 15120 C 1457.5 -0.663295 -1.83372 0
M  V30 15121 O 1456.77 0.317754 -1.93306 0
M  V30 15122 H 1455.35 -0.667108 -0.336119 0
M  V30 15123 H 1458.01 -1.93989 -0.188211 0
M  V30 15124 H 1457.11 -2.74383 -1.48729 0
M  V30 15125 N 1457.41 0.45317 -1.50944 0
M  V30 15126 C 1458.68 1.21413 -1.53357 0
M  V30 15127 C 1459.06 2.09118 -0.288584 0
M  V30 15128 O 1458.41 2.16621 0.727164 0
M  V30 15129 C 1458.62 2.02969 -2.83909 0
M  V30 15130 C 1459.97 2.60551 -3.35258 0
M  V30 15131 O 1460.99 2.13196 -2.85353 0
M  V30 15132 O 1459.85 3.46881 -4.22298 0
M  V30 15133 H 1456.95 0.551909 -0.615894 0
M  V30 15134 H 1459.49 0.463529 -1.63247 0
M  V30 15135 H 1458.26 1.38453 -3.65987 0
M  V30 15136 H 1457.89 2.85127 -2.77107 0
M  V30 15137 N 1458.88 1.40823 0.707568 0
M  V30 15138 C 1460.12 1.40992 1.47989 0
M  V30 15139 C 1460.49 0.0138056 1.91995 0
M  V30 15140 O 1461.69 -0.109666 2.68576 0
M  V30 15141 C 1459.96 2.37857 2.66756 0
M  V30 15142 S 1461.52 2.56453 3.56058 0
M  V30 15143 H 1458.34 0.499622 0.505864 0
M  V30 15144 H 1460.94 1.77161 0.826703 0
M  V30 15145 H 1459.64 3.38113 2.32611 0
M  V30 15146 H 1459.17 2.03 3.36979 0
M  V30 15147 H 1461.19 1.82294 4.61501 0
M  V30 15148 N 1460.36 -0.94061 1.26453 0
M  V30 15149 C 1461.61 -1.68354 1.11809 0
M  V30 15150 C 1461.93 -1.9203 -0.339037 0
M  V30 15151 O 1461.2 -1.51739 -1.23903 0
M  V30 15152 H 1459.78 -0.623916 0.410777 0
M  V30 15153 H 1462.44 -1.13014 1.58789 0
M  V30 15154 H 1461.54 -2.65706 1.63728 0
M  V30 15155 N 1461.84 -1.08266 -1.14527 0
M  V30 15156 C 1463.09 -0.809856 -1.85164 0
M  V30 15157 C 1463.41 0.666263 -1.83265 0
M  V30 15158 O 1462.68 1.48295 -1.28006 0
M  V30 15159 H 1461.26 -0.296598 -0.685594 0
M  V30 15160 H 1463.92 -1.36834 -1.38789 0
M  V30 15161 H 1463.02 -1.15272 -2.90032 0
M  V30 15162 N 1463.32 1.31536 -0.86811 0
M  V30 15163 C 1464.57 1.96045 -0.474271 0
M  V30 15164 C 1464.88 1.6939 0.978071 0
M  V30 15165 O 1466.09 2.27746 1.47797 0
M  V30 15166 C 1464.54 3.5096 -0.797203 0
M  V30 15167 C 1464.15 3.86456 -2.26618 0
M  V30 15168 C 1465.9 4.21871 -0.471745 0
M  V30 15169 C 1463.8 5.34474 -2.53162 0
M  V30 15170 H 1462.73 0.733737 -0.173627 0
M  V30 15171 H 1465.38 1.49734 -1.06076 0
M  V30 15172 H 1463.77 3.95752 -0.139994 0
M  V30 15173 H 1464.94 3.52629 -2.9663 0
M  V30 15174 H 1463.25 3.28605 -2.55749 0
M  V30 15175 H 1465.85 5.30767 -0.647317 0
M  V30 15176 H 1466.19 4.12131 0.58768 0
M  V30 15177 H 1466.73 3.82706 -1.08542 0
M  V30 15178 H 1463.47 5.49248 -3.57781 0
M  V30 15179 H 1462.99 5.6966 -1.87743 0
M  V30 15180 H 1464.67 6.01716 -2.37797 0
M  V30 15181 N 1464.8 0.627364 1.44575 0
M  V30 15182 C 1465.73 -0.066735 2.33405 0
M  V30 15183 C 1466.71 -0.838666 1.47988 0
M  V30 15184 O 1467.89 -0.805296 1.76716 0
M  V30 15185 C 1465.02 -1.05148 3.31 0
M  V30 15186 C 1463.98 -0.391433 4.26206 0
M  V30 15187 C 1463.3 -1.48581 5.13642 0
M  V30 15188 C 1464.6 0.699942 5.17589 0
M  V30 15189 H 1466.3 0.675029 2.91691 0
M  V30 15190 H 1463.84 0.326066 1.4026 0
M  V30 15191 H 1465.8 -1.54576 3.92026 0
M  V30 15192 H 1464.52 -1.82408 2.70915 0
M  V30 15193 H 1463.18 0.0821694 3.66508 0
M  V30 15194 H 1462.83 -2.2492 4.49911 0
M  V30 15195 H 1462.53 -1.04957 5.7815 0
M  V30 15196 H 1464.05 -1.98198 5.77538 0
M  V30 15197 H 1465.47 0.288911 5.72572 0
M  V30 15198 H 1463.86 1.0591 5.9068 0
M  V30 15199 H 1464.93 1.5686 4.58828 0
M  V30 15200 N 1466.28 -1.53251 0.367684 0
M  V30 15201 C 1467.69 -1.59591 0.0167132 0
M  V30 15202 C 1467.89 -1.38272 -1.46571 0
M  V30 15203 O 1466.95 -1.18893 -2.22757 0
M  V30 15204 C 1468.26 -2.96932 0.474534 0
M  V30 15205 C 1469.81 -3.10047 0.428934 0
M  V30 15206 C 1470.28 -4.49804 0.862599 0
M  V30 15207 N 1471.77 -4.55925 0.817742 0
M  V30 15208 C 1472.51 -5.62256 1.12496 0
M  V30 15209 N 1472.01 -6.76332 1.50156 0
M  V30 15210 N 1473.8 -5.52251 1.04762 0
M  V30 15211 H 1465.95 -1.6536 1.33303 0
M  V30 15212 H 1468.21 -0.775681 0.544998 0
M  V30 15213 H 1467.92 -3.17679 1.50907 0
M  V30 15214 H 1467.79 -3.76948 -0.137752 0
M  V30 15215 H 1470.18 -2.89009 -0.596473 0
M  V30 15216 H 1470.26 -2.32034 1.07674 0
M  V30 15217 H 1469.9 -4.7158 1.88613 0
M  V30 15218 H 1469.83 -5.2625 0.19202 0
M  V30 15219 H 1472.33 -3.74017 0.540323 0
M  V30 15220 H 1472.64 -7.53412 1.72019 0
M  V30 15221 H 1470.98 -6.77718 1.54024 0
M  V30 15222 H 1474.17 -4.62011 0.752571 0
M  V30 15223 H 1474.35 -6.35022 1.29038 0
M  V30 15224 N 1467.75 -0.0969077 -1.57302 0
M  V30 15225 C 1468.99 0.569724 -1.963 0
M  V30 15226 C 1469.36 1.65238 -0.977779 0
M  V30 15227 O 1470.56 2.37634 -1.25632 0
M  V30 15228 C 1468.83 1.10889 -3.39762 0
M  V30 15229 S 1470.39 1.78714 -4.00758 0
M  V30 15230 H 1467.21 0.185855 -0.686279 0
M  V30 15231 H 1469.81 -0.176741 -1.94699 0
M  V30 15232 H 1468.51 0.309441 -4.09232 0
M  V30 15233 H 1468.04 1.89114 -3.44963 0
M  V30 15234 H 1470.06 3.07149 -3.8971 0
M  V30 15235 N 1469.23 1.56605 0.176793 0
M  V30 15236 C 1470.16 1.9254 1.24342 0
M  V30 15237 C 1471.18 0.81792 1.40762 0
M  V30 15238 O 1472.37 1.09636 1.40862 0
M  V30 15239 C 1469.47 2.15822 2.61293 0
M  V30 15240 C 1468.64 3.47035 2.66243 0
M  V30 15241 C 1467.7 3.5921 3.84519 0
M  V30 15242 O 1466.72 4.31876 3.70771 0
M  V30 15243 N 1467.93 2.93653 5.00748 0
M  V30 15244 H 1470.69 2.84635 0.938246 0
M  V30 15245 H 1468.25 1.57695 0.366597 0
M  V30 15246 H 1470.24 2.21237 3.38875 0
M  V30 15247 H 1468.81 1.30138 2.84223 0
M  V30 15248 H 1468.03 3.53326 1.74798 0
M  V30 15249 H 1469.32 4.33388 2.66557 0
M  V30 15250 H 1468.72 2.34476 5.14818 0
M  V30 15251 H 1467.28 3.04671 5.76211 0
M  V30 15252 N 1470.71 -0.445159 1.51182 0
M  V30 15253 C 1471.66 -1.53798 1.68316 0
M  V30 15254 C 1472.64 -1.51666 0.537244 0
M  V30 15255 O 1473.84 -1.58251 0.792818 0
M  V30 15256 C 1470.96 -2.92053 1.80444 0
M  V30 15257 C 1470.05 -2.98971 3.00794 0
M  V30 15258 N 1470.44 -2.75648 4.24089 0
M  V30 15259 C 1468.74 -3.30127 2.99887 0
M  V30 15260 C 1469.44 -2.88206 5.05284 0
M  V30 15261 N 1468.42 -3.19538 4.39769 0
M  V30 15262 H 1472.22 -1.34506 2.61315 0
M  V30 15263 H 1469.73 -0.652341 1.48722 0
M  V30 15264 H 1471.73 -3.70663 1.90827 0
M  V30 15265 H 1470.39 -3.12372 0.886204 0
M  V30 15266 H 1471.4 -2.50727 4.53163 0
M  V30 15267 H 1468.08 -3.5627 2.17665 0
M  V30 15268 H 1469.47 -2.74194 6.13406 0
M  V30 15269 N 1472.19 -1.41197 -0.700089 0
M  V30 15270 C 1473.44 -1.40034 -1.45722 0
M  V30 15271 C 1473.76 -0.00876281 -1.94998 0
M  V30 15272 O 1473.03 0.948647 -1.71399 0
M  V30 15273 H 1471.61 -0.515433 -0.540683 0
M  V30 15274 H 1474.27 -1.76394 -0.828926 0
M  V30 15275 H 1473.36 -2.08477 -2.32258 0
M  V30 15276 N 1473.67 0.933891 -1.2695 0
M  V30 15277 C 1474.91 1.6834 -1.13091 0
M  V30 15278 C 1475.24 1.91484 0.32367 0
M  V30 15279 O 1474.52 1.50075 1.23724 0
M  V30 15280 C 1474.8 3.05374 -1.90838 0
M  V30 15281 C 1474.66 2.8951 -3.44244 0
M  V30 15282 C 1475.97 4.05607 -1.70795 0
M  V30 15283 H 1473.09 0.610944 -0.41221 0
M  V30 15284 H 1475.74 1.08416 -1.56032 0
M  V30 15285 H 1473.89 3.56526 -1.54343 0
M  V30 15286 H 1475.56 2.45523 -3.90533 0
M  V30 15287 H 1473.8 2.24981 -3.70899 0
M  V30 15288 H 1474.47 3.86734 -3.93879 0
M  V30 15289 H 1476.95 3.63443 -2.02604 0
M  V30 15290 H 1475.82 4.9949 -2.27597 0
M  V30 15291 H 1476.08 4.37231 -0.654327 0
M  V30 15292 N 1475.14 1.08871 1.13951 0
M  V30 15293 C 1476.39 0.816198 1.84448 0
M  V30 15294 C 1476.71 -0.660396 1.84114 0
M  V30 15295 O 1477.91 -1.04825 2.50448 0
M  V30 15296 C 1476.37 1.41015 3.31123 0
M  V30 15297 C 1475.98 2.91888 3.39861 0
M  V30 15298 C 1477.72 1.21633 4.06701 0
M  V30 15299 C 1475.63 3.44397 4.80775 0
M  V30 15300 H 1474.56 0.301662 0.691025 0
M  V30 15301 H 1477.21 1.31072 1.28423 0
M  V30 15302 H 1475.59 0.843333 3.86916 0
M  V30 15303 H 1476.76 3.54747 2.94094 0
M  V30 15304 H 1475.08 3.10238 2.77743 0
M  V30 15305 H 1477.68 1.58324 5.10723 0
M  V30 15306 H 1478.02 0.156519 4.16006 0
M  V30 15307 H 1478.55 1.75035 3.57222 0
M  V30 15308 H 1475.29 4.49973 4.7666 0
M  V30 15309 H 1474.81 2.86299 5.27061 0
M  V30 15310 H 1476.49 3.41266 5.49679 0
M  V30 15311 N 1476.62 -1.31073 0.875073 0
M  V30 15312 C 1477.87 -1.9613 0.487584 0
M  V30 15313 C 1478.19 -1.69482 -0.964407 0
M  V30 15314 O 1477.46 -1.013 -1.67676 0
M  V30 15315 H 1476.04 -0.725649 0.177319 0
M  V30 15316 H 1478.7 -1.59787 1.11598 0
M  V30 15317 H 1477.8 -3.05265 0.649574 0
M  V30 15318 N 1478.1 -0.635022 -1.4424 0
M  V30 15319 C 1479.35 -0.138497 -2.01224 0
M  V30 15320 C 1479.66 1.2485 -1.50571 0
M  V30 15321 O 1480.87 1.83926 -1.99709 0
M  V30 15322 C 1479.32 -0.196836 -3.59361 0
M  V30 15323 C 1478.93 -1.58539 -4.1901 0
M  V30 15324 C 1480.68 0.243025 -4.23804 0
M  V30 15325 C 1478.58 -1.59864 -5.69384 0
M  V30 15326 H 1477.51 -0.0480117 -0.75247 0
M  V30 15327 H 1480.16 -0.794391 -1.65414 0
M  V30 15328 H 1478.55 0.526231 -3.92488 0
M  V30 15329 H 1479.72 -2.33236 -3.97414 0
M  V30 15330 H 1478.04 -1.96967 -3.66869 0
M  V30 15331 H 1480.63 0.252717 -5.34102 0
M  V30 15332 H 1480.98 1.27107 -3.96421 0
M  V30 15333 H 1481.51 -0.427678 -3.95494 0
M  V30 15334 H 1478.25 -2.60518 -6.01507 0
M  V30 15335 H 1477.77 -0.894664 -5.9309 0
M  V30 15336 H 1479.45 -1.3343 -6.33092 0
M  V30 15337 N 1479.58 1.53054 -0.375806 0
M  V30 15338 C 1480.83 2.00584 0.211847 0
M  V30 15339 C 1481.14 1.26692 1.49025 0
M  V30 15340 O 1482.35 1.64863 2.15713 0
M  V30 15341 C 1480.8 3.57345 0.428074 0
M  V30 15342 C 1480.41 4.40125 -0.836299 0
M  V30 15343 C 1482.15 4.13203 0.972825 0
M  V30 15344 C 1480.06 5.88459 -0.589093 0
M  V30 15345 H 1478.99 0.749424 0.0829412 0
M  V30 15346 H 1481.64 1.76666 -0.496126 0
M  V30 15347 H 1480.02 3.77458 1.19756 0
M  V30 15348 H 1481.2 4.31782 -1.60936 0
M  V30 15349 H 1479.51 3.95422 -1.30501 0
M  V30 15350 H 1482.11 5.21669 1.17326 0
M  V30 15351 H 1482.45 3.68441 1.93797 0
M  V30 15352 H 1482.99 3.96928 0.263249 0
M  V30 15353 H 1479.73 6.37517 -1.52485 0
M  V30 15354 H 1479.25 5.99624 0.145285 0
M  V30 15355 H 1480.92 6.46631 -0.218485 0
M  V30 15356 N 1481.06 0.105248 1.57248 0
M  V30 15357 C 1482.28 -0.564157 1.9906 0
M  V30 15358 C 1482.7 -1.61092 0.984624 0
M  V30 15359 O 1482.06 -1.82484 -0.0244031 0
M  V30 15360 C 1482.11 -1.20272 3.40906 0
M  V30 15361 O 1481.83 -0.197815 4.37653 0
M  V30 15362 C 1483.33 -1.95677 3.97776 0
M  V30 15363 H 1480.55 -0.150468 0.653912 0
M  V30 15364 H 1483.09 0.187532 2.03638 0
M  V30 15365 H 1481.25 -1.90528 3.3731 0
M  V30 15366 H 1481.66 -0.659998 5.20331 0
M  V30 15367 H 1483.14 -2.35702 4.99148 0
M  V30 15368 H 1483.61 -2.82661 3.36154 0
M  V30 15369 H 1484.22 -1.30215 4.04876 0
M  V30 15370 N 1482.53 -1.56697 -0.168486 0
M  V30 15371 C 1483.5 -1.95744 -1.19235 0
M  V30 15372 C 1484.5 -0.841419 -1.37028 0
M  V30 15373 O 1485.69 -1.10842 -1.34386 0
M  V30 15374 C 1482.82 -2.25471 -2.55686 0
M  V30 15375 H 1484.01 -2.87368 -0.857892 0
M  V30 15376 H 1481.57 -1.50798 -0.411041 0
M  V30 15377 H 1482.3 -1.36571 -2.94141 0
M  V30 15378 H 1482.09 -3.06822 -2.44137 0
M  V30 15379 H 1483.58 -2.56593 -3.29469 0
M  V30 15380 N 1484.01 0.437135 -1.51416 0
M  V30 15381 C 1485.26 1.18421 -1.63771 0
M  V30 15382 C 1485.58 1.91718 -0.356282 0
M  V30 15383 O 1484.85 1.85566 0.627863 0
M  V30 15384 H 1483.43 0.440125 -0.603572 0
M  V30 15385 H 1486.09 0.501155 -1.88347 0
M  V30 15386 H 1485.19 1.91367 -2.46546 0
M  V30 15387 N 1485.49 1.41566 0.692592 0
M  V30 15388 C 1486.74 1.40805 1.44978 0
M  V30 15389 C 1487.06 0.0191039 1.94991 0
M  V30 15390 O 1486.33 -0.939544 1.71899 0
M  V30 15391 H 1484.91 0.518293 0.537942 0
M  V30 15392 H 1487.57 1.76831 0.81956 0
M  V30 15393 H 1486.67 2.09706 2.31149 0
M  V30 15394 N 1486.97 -0.927146 1.27443 0
M  V30 15395 C 1487.88 -2.06122 1.12031 0
M  V30 15396 C 1488.89 -1.73928 0.0501979 0
M  V30 15397 O 1490.07 -1.99756 0.256796 0
M  V30 15398 C 1487.14 -3.3805 0.769634 0
M  V30 15399 C 1486.2 -3.83938 1.92068 0
M  V30 15400 C 1485.43 -5.0957 1.58664 0
M  V30 15401 O 1485.65 -5.6825 0.494789 0
M  V30 15402 O 1484.59 -5.50844 2.42599 0
M  V30 15403 H 1488.41 -2.22037 2.07203 0
M  V30 15404 H 1486 -1.04638 1.06636 0
M  V30 15405 H 1487.88 -4.17286 0.587423 0
M  V30 15406 H 1486.55 -3.2334 -0.152557 0
M  V30 15407 H 1485.46 -3.05587 2.15795 0
M  V30 15408 H 1486.79 -4.0319 2.8231 0
M  V30 15409 N 1488.45 -1.09474 -1.13372 0
M  V30 15410 C 1489.69 -0.82945 -1.84295 0
M  V30 15411 C 1490.02 0.646788 -1.83961 0
M  V30 15412 O 1489.29 1.46929 -1.29572 0
M  V30 15413 H 1487.87 -0.303853 -0.682409 0
M  V30 15414 H 1490.53 -1.38298 -1.3733 0
M  V30 15415 H 1489.62 -1.18342 -2.88793 0
M  V30 15416 N 1489.92 1.30607 -0.882012 0
M  V30 15417 C 1490.85 2.30666 -0.362706 0
M  V30 15418 C 1491.84 1.60865 0.552861 0
M  V30 15419 O 1493.02 1.88493 0.467339 0
M  V30 15420 C 1490.15 3.44675 0.42622 0
M  V30 15421 C 1489.1 4.26152 -0.397322 0
M  V30 15422 C 1488.43 5.32185 0.518027 0
M  V30 15423 C 1489.73 4.95955 -1.63785 0
M  V30 15424 H 1491.42 2.74351 -1.19883 0
M  V30 15425 H 1488.97 1.31895 -0.577912 0
M  V30 15426 H 1490.92 4.13734 0.80013 0
M  V30 15427 H 1489.65 2.99787 1.29597 0
M  V30 15428 H 1488.31 3.58776 -0.753332 0
M  V30 15429 H 1487.95 4.83545 1.3854 0
M  V30 15430 H 1487.65 5.87593 -0.0291802 0
M  V30 15431 H 1489.18 6.04101 0.888518 0
M  V30 15432 H 1490.59 5.57547 -1.3347 0
M  V30 15433 H 1488.99 5.61215 -2.12504 0
M  V30 15434 H 1490.06 4.22252 -2.38394 0
M  V30 15435 N 1491.4 0.642663 1.43901 0
M  V30 15436 C 1492.65 0.152003 2.0223 0
M  V30 15437 C 1492.98 -1.22711 1.50518 0
M  V30 15438 O 1492.26 -1.817 0.693937 0
M  V30 15439 C 1492.54 0.151278 3.59782 0
M  V30 15440 C 1492.39 1.56356 4.2175 0
M  V30 15441 C 1493.71 -0.518016 4.37041 0
M  V30 15442 H 1490.83 0.0567094 0.734815 0
M  V30 15443 H 1493.47 0.821337 1.7133 0
M  V30 15444 H 1491.62 -0.418679 3.86237 0
M  V30 15445 H 1493.29 2.18329 4.06362 0
M  V30 15446 H 1491.54 2.11401 3.78803 0
M  V30 15447 H 1492.21 1.51499 5.30803 0
M  V30 15448 H 1494.68 -0.0331947 4.16087 0
M  V30 15449 H 1493.56 -0.487754 5.46729 0
M  V30 15450 H 1493.82 -1.59036 4.12504 0
M  V30 15451 N 1492.88 -1.52852 0.383918 0
M  V30 15452 C 1493.84 -2.24904 -0.441687 0
M  V30 15453 C 1494.84 -1.26345 -0.99466 0
M  V30 15454 O 1496.03 -1.50484 -0.877513 0
M  V30 15455 C 1493.17 -2.99994 -1.61915 0
M  V30 15456 H 1494.36 -2.99304 0.189047 0
M  V30 15457 H 1491.91 -1.55708 0.135932 0
M  V30 15458 H 1492.65 -2.29882 -2.28746 0
M  V30 15459 H 1492.43 -3.72328 -1.2294 0
M  V30 15460 H 1493.92 -3.54716 -2.20378 0
M  V30 15461 N 1494.36 -0.113586 -1.5719 0
M  V30 15462 C 1495.61 0.54572 -1.95008 0
M  V30 15463 C 1495.93 1.67031 -0.996541 0
M  V30 15464 O 1495.19 1.9569 -0.0194353 0
M  V30 15465 C 1495.49 1.1238 -3.39272 0
M  V30 15466 C 1495.15 0.12112 -4.50737 0
M  V30 15467 C 1493.82 -0.154607 -4.80952 0
M  V30 15468 C 1496.17 -0.562502 -5.18156 0
M  V30 15469 C 1493.5 -1.12033 -5.75904 0
M  V30 15470 C 1495.85 -1.51682 -6.14146 0
M  V30 15471 C 1494.51 -1.80059 -6.42756 0
M  V30 15472 H 1493.78 0.199693 -0.713585 0
M  V30 15473 H 1496.43 -0.193344 -1.90521 0
M  V30 15474 H 1494.73 1.93951 -3.40426 0
M  V30 15475 H 1496.43 1.64195 -3.65843 0
M  V30 15476 H 1493.02 0.34621 -4.27199 0
M  V30 15477 H 1497.21 -0.362645 -4.94973 0
M  V30 15478 H 1492.46 -1.34699 -5.96377 0
M  V30 15479 H 1496.64 -2.05225 -6.65474 0
M  V30 15480 H 1494.26 -2.55046 -7.16139 0
M  V30 15481 N 1495.84 1.56784 0.160173 0
M  V30 15482 C 1497.06 1.87129 0.894283 0
M  V30 15483 C 1497.49 0.701172 1.74543 0
M  V30 15484 O 1496.85 -0.349542 1.77899 0
M  V30 15485 C 1496.89 3.15969 1.73769 0
M  V30 15486 O 1496 2.98977 2.84054 0
M  V30 15487 H 1495.34 0.615192 0.249869 0
M  V30 15488 H 1497.87 2.04012 0.154956 0
M  V30 15489 H 1497.88 3.47657 2.13538 0
M  V30 15490 H 1496.55 4.00742 1.11258 0
M  V30 15491 H 1495.13 2.78668 2.47788 0
M  V30 15492 N 1497.32 -0.429099 1.51646 0
M  V30 15493 C 1498.59 -1.18958 1.55269 0
M  V30 15494 C 1498.97 -2.08633 0.321816 0
M  V30 15495 O 1498.32 -2.1775 -0.69261 0
M  V30 15496 C 1498.53 -1.98427 2.87102 0
M  V30 15497 C 1499.88 -2.55185 3.39361 0
M  V30 15498 O 1500.9 -2.08629 2.88708 0
M  V30 15499 O 1499.76 -3.40119 4.27763 0
M  V30 15500 H 1496.86 -0.542041 0.624596 0
M  V30 15501 H 1499.4 -0.437499 1.63964 0
M  V30 15502 H 1498.17 -1.32613 3.68143 0
M  V30 15503 H 1497.8 -2.80683 2.81608 0
M  V30 15504 N 1498.79 -1.41931 -0.685074 0
M  V30 15505 C 1500.04 -1.41147 -1.44085 0
M  V30 15506 C 1500.36 -0.0275793 -1.95581 0
M  V30 15507 O 1501.56 0.102873 -2.71305 0
M  V30 15508 C 1500.02 -2.4823 -2.60596 0
M  V30 15509 C 1499.63 -3.92576 -2.15842 0
M  V30 15510 C 1501.37 -2.56597 -3.38169 0
M  V30 15511 C 1499.28 -4.91189 -3.29374 0
M  V30 15512 H 1498.21 -0.52494 -0.541252 0
M  V30 15513 H 1500.86 -1.67798 -0.7427 0
M  V30 15514 H 1499.24 -2.14727 -3.32729 0
M  V30 15515 H 1500.41 -4.35381 -1.50929 0
M  V30 15516 H 1498.73 -3.87965 -1.51235 0
M  V30 15517 H 1501.33 -3.27453 -4.22704 0
M  V30 15518 H 1501.67 -1.60618 -3.84067 0
M  V30 15519 H 1502.2 -2.89244 -2.73099 0
M  V30 15520 H 1498.94 -5.88609 -2.88477 0
M  V30 15521 H 1498.46 -4.53024 -3.93102 0
M  V30 15522 H 1500.14 -5.12433 -3.94996 0
M  V30 15523 N 1500.27 0.920374 -1.27933 0
M  V30 15524 C 1501.69 1.19761 -1.05496 0
M  V30 15525 C 1501.89 2.00435 0.206864 0
M  V30 15526 O 1500.94 2.35518 0.910356 0
M  V30 15527 C 1502.26 1.93863 -2.29864 0
M  V30 15528 C 1503.8 2.06773 -2.34976 0
M  V30 15529 C 1504.28 2.84282 -3.59093 0
M  V30 15530 N 1505.77 2.91847 -3.59694 0
M  V30 15531 C 1506.51 3.52303 -4.52404 0
M  V30 15532 N 1506 4.14092 -5.55427 0
M  V30 15533 N 1507.79 3.49778 -4.40013 0
M  V30 15534 H 1499.95 0.381596 -2.08944 0
M  V30 15535 H 1502.21 0.231451 -0.919312 0
M  V30 15536 H 1501.91 1.42008 -3.21756 0
M  V30 15537 H 1501.79 2.94446 -2.35757 0
M  V30 15538 H 1504.18 2.57812 -1.43586 0
M  V30 15539 H 1504.26 1.05388 -2.33082 0
M  V30 15540 H 1503.9 2.33925 -4.50823 0
M  V30 15541 H 1503.83 3.85968 -3.5824 0
M  V30 15542 H 1506.32 2.4794 -2.85191 0
M  V30 15543 H 1506.63 4.58183 -6.22325 0
M  V30 15544 H 1504.98 4.12616 -5.59261 0
M  V30 15545 H 1508.17 3.00712 -3.58733 0
M  V30 15546 H 1508.34 3.96603 -5.12455 0
M  V30 15547 N 1501.75 1.10074 1.1279 0
M  V30 15548 C 1503.03 0.753069 1.80522 0
M  V30 15549 C 1503.41 -0.760982 1.96907 0
M  V30 15550 O 1502.75 -1.68584 1.54245 0
M  V30 15551 C 1502.96 1.49982 3.15129 0
M  V30 15552 C 1504.31 1.66993 3.90382 0
M  V30 15553 O 1505.34 1.46289 3.24774 0
M  V30 15554 O 1504.2 2.01293 5.08078 0
M  V30 15555 H 1501.29 0.271277 0.781241 0
M  V30 15556 H 1503.84 1.20333 1.19658 0
M  V30 15557 H 1502.61 2.53043 2.98471 0
M  V30 15558 H 1502.23 1.04217 3.83699 0
M  V30 15559 N 1503.23 -1.30138 0.888926 0
M  V30 15560 C 1504.16 -2.3047 0.374934 0
M  V30 15561 C 1505.14 -1.61156 -0.544322 0
M  V30 15562 O 1506.32 -1.88738 -0.457337 0
M  V30 15563 C 1503.45 -3.44896 -0.407935 0
M  V30 15564 C 1502.41 -4.25935 0.419916 0
M  V30 15565 C 1501.73 -5.32452 -0.489797 0
M  V30 15566 C 1503.03 -4.9508 1.66413 0
M  V30 15567 H 1504.73 -2.73711 1.21337 0
M  V30 15568 H 1502.27 -1.31586 0.584899 0
M  V30 15569 H 1504.23 -4.14153 -0.778177 0
M  V30 15570 H 1502.95 -3.0047 -1.28005 0
M  V30 15571 H 1501.61 -3.58372 0.772348 0
M  V30 15572 H 1501.26 -4.84273 -1.35974 0
M  V30 15573 H 1500.96 -5.87569 0.0603412 0
M  V30 15574 H 1502.48 -6.04563 -0.856468 0
M  V30 15575 H 1503.9 -5.56831 1.36425 0
M  V30 15576 H 1502.29 -5.6008 2.15477 0
M  V30 15577 H 1503.36 -4.20981 2.4063 0
M  V30 15578 N 1504.71 -0.650285 -1.43559 0
M  V30 15579 C 1505.94 -0.169893 -2.059 0
M  V30 15580 C 1506.34 1.16848 -1.48806 0
M  V30 15581 O 1505.69 1.73177 -0.612827 0
M  V30 15582 C 1505.75 -0.00117055 -3.595 0
M  V30 15583 C 1505.41 -1.26438 -4.39161 0
M  V30 15584 C 1506.41 -2.19245 -4.7141 0
M  V30 15585 C 1504.09 -1.50514 -4.79219 0
M  V30 15586 C 1506.09 -3.34424 -5.42623 0
M  V30 15587 C 1503.78 -2.65987 -5.50177 0
M  V30 15588 C 1504.77 -3.57767 -5.81801 0
M  V30 15589 O 1504.46 -4.71223 -6.51309 0
M  V30 15590 H 1504.19 -0.0858397 -0.670528 0
M  V30 15591 H 1506.75 -0.890321 -1.85101 0
M  V30 15592 H 1504.98 0.774599 -3.78863 0
M  V30 15593 H 1506.67 0.436206 -4.03549 0
M  V30 15594 H 1507.43 -2.01885 -4.40985 0
M  V30 15595 H 1503.31 -0.799577 -4.54013 0
M  V30 15596 H 1506.86 -4.06082 -5.67224 0
M  V30 15597 H 1502.75 -2.83282 -5.80019 0
M  V30 15598 H 1503.52 -4.70451 -6.6979 0
M  V30 15599 N 1506.18 1.52647 -0.392018 0
M  V30 15600 C 1507.15 2.25135 0.429754 0
M  V30 15601 C 1508.15 1.26871 0.987946 0
M  V30 15602 O 1509.34 1.50947 0.86952 0
M  V30 15603 C 1506.47 3.00849 1.60321 0
M  V30 15604 H 1507.66 2.99199 -0.204918 0
M  V30 15605 H 1505.21 1.55634 -0.144188 0
M  V30 15606 H 1505.95 2.31092 2.27524 0
M  V30 15607 H 1505.73 3.72975 1.20964 0
M  V30 15608 H 1507.22 3.55879 2.18494 0
M  V30 15609 N 1507.66 0.121921 1.57128 0
M  V30 15610 C 1508.89 -0.542225 1.99358 0
M  V30 15611 C 1509.3 -1.60578 1.00057 0
M  V30 15612 O 1508.64 -1.83694 -0.0142649 0
M  V30 15613 C 1508.71 -1.22448 3.38004 0
M  V30 15614 C 1508.37 -0.308522 4.55957 0
M  V30 15615 C 1509.37 0.454012 5.17914 0
M  V30 15616 C 1507.05 -0.218741 5.01823 0
M  V30 15617 C 1509.05 1.29403 6.24126 0
M  V30 15618 C 1506.73 0.624906 6.07896 0
M  V30 15619 C 1507.73 1.37992 6.68915 0
M  V30 15620 O 1507.42 2.20955 7.72938 0
M  V30 15621 H 1507.15 -0.147894 0.659624 0
M  V30 15622 H 1509.7 0.205954 2.04365 0
M  V30 15623 H 1507.93 -2.01979 3.2976 0
M  V30 15624 H 1509.62 -1.78583 3.64504 0
M  V30 15625 H 1510.39 0.394539 4.83393 0
M  V30 15626 H 1506.27 -0.796109 4.54074 0
M  V30 15627 H 1509.81 1.88382 6.71683 0
M  V30 15628 H 1505.71 0.685762 6.41847 0
M  V30 15629 H 1506.48 2.13929 7.90049 0
M  V30 15630 N 1509.14 -1.56867 -0.151857 0
M  V30 15631 C 1510.05 -2.01157 -1.20718 0
M  V30 15632 C 1511.07 -0.926166 -1.47303 0
M  V30 15633 O 1512.24 -1.23528 -1.59069 0
M  V30 15634 C 1509.31 -2.37915 -2.52185 0
M  V30 15635 C 1508.37 -3.60381 -2.3329 0
M  V30 15636 C 1507.6 -3.95376 -3.58488 0
M  V30 15637 O 1507.82 -3.31093 -4.64471 0
M  V30 15638 O 1506.76 -4.88645 -3.5144 0
M  V30 15639 H 1510.58 -2.91234 -0.861175 0
M  V30 15640 H 1508.17 -1.44993 -0.360213 0
M  V30 15641 H 1510.05 -2.6244 -3.29702 0
M  V30 15642 H 1508.73 -1.50995 -2.86325 0
M  V30 15643 H 1507.63 -3.4105 -1.5374 0
M  V30 15644 H 1508.97 -4.47903 -2.04067 0
M  V30 15645 N 1510.62 0.421051 -1.51871 0
M  V30 15646 C 1511.53 1.5371 -1.7723 0
M  V30 15647 C 1512.54 1.61109 -0.657256 0
M  V30 15648 O 1513.72 1.78047 -0.941343 0
M  V30 15649 C 1510.79 2.89555 -1.9068 0
M  V30 15650 C 1509.85 2.9214 -3.14567 0
M  V30 15651 C 1509.08 4.21505 -3.27367 0
M  V30 15652 O 1509.3 5.14764 -2.45712 0
M  V30 15653 O 1508.24 4.30706 -4.20448 0
M  V30 15654 H 1512.06 1.35221 -2.71935 0
M  V30 15655 H 1509.65 0.605712 -1.3657 0
M  V30 15656 H 1511.53 3.70147 -2.01418 0
M  V30 15657 H 1510.2 3.08137 -0.991627 0
M  V30 15658 H 1509.11 2.10444 -3.09296 0
M  V30 15659 H 1510.44 2.78505 -4.05827 0
M  V30 15660 N 1512.1 1.42293 0.677538 0
M  V30 15661 C 1513.01 1.47953 1.82063 0
M  V30 15662 C 1514.02 0.36851 1.70053 0
M  V30 15663 O 1515.2 0.618996 1.91652 0
M  V30 15664 C 1512.26 1.3769 3.18186 0
M  V30 15665 C 1511.32 2.59261 3.42173 0
M  V30 15666 C 1510.56 2.49478 4.71801 0
M  V30 15667 O 1510.78 1.52915 5.49521 0
M  V30 15668 O 1509.71 3.39562 4.96972 0
M  V30 15669 H 1513.54 2.4443 1.80244 0
M  V30 15670 H 1511.13 1.24027 0.832932 0
M  V30 15671 H 1513.01 1.34319 3.9942 0
M  V30 15672 H 1511.68 0.443377 3.20649 0
M  V30 15673 H 1510.59 2.68207 2.60798 0
M  V30 15674 H 1511.92 3.51503 3.44538 0
M  V30 15675 N 1513.57 -0.913576 1.28419 0
M  V30 15676 C 1514.54 -1.99757 1.12382 0
M  V30 15677 C 1515.54 -1.60675 0.063435 0
M  V30 15678 O 1516.73 -1.71433 0.30923 0
M  V30 15679 C 1513.86 -3.33307 0.715506 0
M  V30 15680 H 1515.05 -2.15414 2.08655 0
M  V30 15681 H 1512.61 -1.09626 1.11408 0
M  V30 15682 H 1513.34 -3.23351 -0.247977 0
M  V30 15683 H 1513.13 -3.63034 1.4815 0
M  V30 15684 H 1514.62 -4.12882 0.625953 0
M  V30 15685 N 1515.05 -1.1067 -1.12204 0
M  V30 15686 C 1515.99 -0.70161 -2.17147 0
M  V30 15687 C 1516.96 0.298272 -1.59841 0
M  V30 15688 O 1518.15 0.196594 -1.87472 0
M  V30 15689 C 1515.27 -0.0356178 -3.38681 0
M  V30 15690 C 1514.32 -0.999363 -4.14626 0
M  V30 15691 S 1515.15 -2.51792 -4.72611 0
M  V30 15692 C 1516.31 -1.8647 -5.97478 0
M  V30 15693 H 1516.54 -1.59058 -2.51173 0
M  V30 15694 H 1514.08 -0.923946 -1.23704 0
M  V30 15695 H 1516.03 0.342303 -4.0907 0
M  V30 15696 H 1514.69 0.830184 -3.0293 0
M  V30 15697 H 1513.89 -0.48067 -5.01703 0
M  V30 15698 H 1513.49 -1.31931 -3.49957 0
M  V30 15699 H 1515.78 -1.19637 -6.66853 0
M  V30 15700 H 1516.72 -2.71513 -6.53977 0
M  V30 15701 H 1517.13 -1.32821 -5.48652 0
M  V30 15702 N 1516.53 1.29665 -0.895815 0
M  V30 15703 C 1517.44 2.31582 -0.375086 0
M  V30 15704 C 1518.46 1.65789 0.528196 0
M  V30 15705 O 1519.63 1.96999 0.41871 0
M  V30 15706 C 1516.7 3.44472 0.39241 0
M  V30 15707 C 1515.76 4.25866 -0.541926 0
M  V30 15708 C 1514.99 5.33365 0.189037 0
M  V30 15709 O 1515.21 5.52607 1.41355 0
M  V30 15710 O 1514.15 6.0009 -0.466441 0
M  V30 15711 H 1517.97 2.78095 -1.22052 0
M  V30 15712 H 1515.56 1.34031 -0.660007 0
M  V30 15713 H 1517.44 4.13214 0.826565 0
M  V30 15714 H 1516.12 3.00074 1.21397 0
M  V30 15715 H 1515.02 3.59781 -1.02512 0
M  V30 15716 H 1516.36 4.73896 -1.32979 0
M  V30 15717 N 1518.01 0.657889 1.43212 0
M  V30 15718 C 1518.94 -0.0695999 2.29094 0
M  V30 15719 C 1519.95 -0.782463 1.42763 0
M  V30 15720 O 1521.14 -0.63944 1.66654 0
M  V30 15721 C 1518.24 -1.12178 3.19796 0
M  V30 15722 C 1517.42 -0.486131 4.3469 0
M  V30 15723 C 1516.47 -1.43582 5.06232 0
M  V30 15724 O 1515.5 -0.942622 5.61341 0
M  V30 15725 N 1516.7 -2.76966 5.10167 0
M  V30 15726 H 1519.47 0.667565 2.92171 0
M  V30 15727 H 1517.03 0.501022 1.53953 0
M  V30 15728 H 1519.02 -1.75801 3.64522 0
M  V30 15729 H 1517.59 -1.76087 2.58287 0
M  V30 15730 H 1516.81 0.329281 3.92822 0
M  V30 15731 H 1518.1 -0.0425918 5.08782 0
M  V30 15732 H 1517.5 -3.19592 4.66774 0
M  V30 15733 H 1516.05 -3.3588 5.58595 0
M  V30 15734 N 1519.49 -1.52437 0.400108 0
M  V30 15735 C 1520.73 -2.01312 -0.178252 0
M  V30 15736 C 1521.06 -1.28797 -1.46411 0
M  V30 15737 O 1520.33 -0.411211 -1.91536 0
M  V30 15738 H 1518.91 -0.743819 -0.0688613 0
M  V30 15739 H 1521.57 -1.87434 0.53428 0
M  V30 15740 H 1520.66 -3.09768 -0.380793 0
M  V30 15741 N 1520.96 -0.130252 -1.57061 0
M  V30 15742 C 1522.21 0.525784 -1.95866 0
M  V30 15743 C 1522.54 1.65607 -1.01429 0
M  V30 15744 O 1521.82 1.94426 -0.0535544 0
M  V30 15745 C 1522.1 1.04784 -3.44517 0
M  V30 15746 C 1521.95 -0.0797972 -4.49729 0
M  V30 15747 C 1523.27 1.9351 -3.95275 0
M  V30 15748 H 1520.39 0.189652 -0.71218 0
M  V30 15749 H 1523.03 -0.208091 -1.88857 0
M  V30 15750 H 1521.18 1.67324 -3.50621 0
M  V30 15751 H 1522.86 -0.715535 -4.55717 0
M  V30 15752 H 1521.1 -0.741358 -4.27418 0
M  V30 15753 H 1521.77 0.326915 -5.51031 0
M  V30 15754 H 1524.25 1.40825 -3.91545 0
M  V30 15755 H 1523.12 2.26952 -4.99784 0
M  V30 15756 H 1523.38 2.86583 -3.36634 0
M  V30 15757 N 1522.44 1.56945 0.143535 0
M  V30 15758 C 1523.67 1.88067 0.874385 0
M  V30 15759 C 1524.09 0.719645 1.73789 0
M  V30 15760 O 1523.45 -0.330654 1.78259 0
M  V30 15761 C 1523.5 3.17795 1.70408 0
M  V30 15762 O 1522.6 3.01973 2.80867 0
M  V30 15763 H 1521.94 0.617808 0.24333 0
M  V30 15764 H 1524.47 2.04165 0.133309 0
M  V30 15765 H 1524.48 3.49903 2.09838 0
M  V30 15766 H 1523.16 4.019 1.07001 0
M  V30 15767 H 1521.74 2.8128 2.44818 0
M  V30 15768 N 1523.92 -0.412991 1.52093 0
M  V30 15769 C 1524.87 -1.52347 1.75765 0
M  V30 15770 C 1525.86 -1.57463 0.624641 0
M  V30 15771 O 1527.07 -1.60916 0.806599 0
M  V30 15772 H 1523.44 -0.50659 0.555761 0
M  V30 15773 H 1525.42 -1.29564 2.68804 0
M  V30 15774 C 1524.16 -2.89757 1.92188 0
M  V30 15775 H 1523.49 -2.86561 2.78788 0
M  V30 15776 H 1524.93 -3.66759 2.12753 0
M  V30 15777 C 1523.39 -3.29801 0.687963 0
M  V30 15778 O 1523.92 -4.01435 -0.145984 0
M  V30 15779 N 1522.12 -2.85819 0.524978 0
M  V30 15780 H 1521.67 -2.27694 1.20471 0
M  V30 15781 H 1521.63 -3.12972 -0.299325 0
M  V30 15782 N 1525.4 -1.4265 -0.669982 0
M  V30 15783 C 1526.63 -1.46571 -1.45604 0
M  V30 15784 C 1527.04 -0.0769961 -1.89043 0
M  V30 15785 O 1526.38 0.919604 -1.59025 0
M  V30 15786 C 1526.44 -2.33435 -2.73401 0
M  V30 15787 C 1526.11 -3.81236 -2.52008 0
M  V30 15788 C 1527.1 -4.72768 -2.16301 0
M  V30 15789 C 1524.79 -4.25552 -2.66853 0
M  V30 15790 C 1526.78 -6.0661 -1.95712 0
M  V30 15791 C 1524.47 -5.59452 -2.4588 0
M  V30 15792 C 1525.47 -6.49797 -2.10364 0
M  V30 15793 O 1525.16 -7.81222 -1.89597 0
M  V30 15794 H 1524.89 -0.500529 -0.454364 0
M  V30 15795 H 1527.44 -1.87875 -0.830199 0
M  V30 15796 H 1525.67 -1.86989 -3.38485 0
M  V30 15797 H 1527.36 -2.28755 -3.353 0
M  V30 15798 H 1528.13 -4.39814 -2.04423 0
M  V30 15799 H 1524.01 -3.55518 -2.93475 0
M  V30 15800 H 1527.55 -6.7709 -1.67914 0
M  V30 15801 H 1523.45 -5.91978 -2.57355 0
M  V30 15802 H 1524.21 -7.9263 -2.04157 0
M  V30 15803 N 1526.88 0.906753 -1.28902 0
M  V30 15804 C 1528.13 1.65119 -1.15839 0
M  V30 15805 C 1528.44 1.93426 0.290825 0
M  V30 15806 O 1529.65 2.66021 0.542678 0
M  V30 15807 C 1528.1 2.97492 -2.0255 0
M  V30 15808 C 1527.71 2.76807 -3.52253 0
M  V30 15809 C 1529.45 3.75393 -1.98192 0
M  V30 15810 C 1527.36 4.04863 -4.31091 0
M  V30 15811 H 1526.29 0.619409 -0.429939 0
M  V30 15812 H 1528.94 1.00567 -1.53488 0
M  V30 15813 H 1527.32 3.63217 -1.57763 0
M  V30 15814 H 1528.5 2.19719 -4.05044 0
M  V30 15815 H 1526.81 2.1231 -3.58209 0
M  V30 15816 H 1529.41 4.70325 -2.54358 0
M  V30 15817 H 1529.75 4.05074 -0.960267 0
M  V30 15818 H 1530.29 3.16498 -2.40985 0
M  V30 15819 H 1527.02 3.80353 -5.33865 0
M  V30 15820 H 1526.54 4.61537 -3.83072 0
M  V30 15821 H 1528.22 4.73066 -4.41381 0
M  V30 15822 N 1528.36 1.11264 1.11616 0
M  V30 15823 C 1529.27 0.781961 2.21184 0
M  V30 15824 C 1530.28 -0.224149 1.7255 0
M  V30 15825 O 1531.46 -0.0607743 2.01308 0
M  V30 15826 C 1528.52 0.228031 3.45949 0
M  V30 15827 C 1527.58 1.29251 4.09381 0
M  V30 15828 C 1526.82 0.764921 5.2819 0
M  V30 15829 O 1527.04 -0.405671 5.68956 0
M  V30 15830 O 1525.97 1.52886 5.82159 0
M  V30 15831 H 1529.8 1.69678 2.51879 0
M  V30 15832 H 1527.38 0.888394 1.20116 0
M  V30 15833 H 1529.27 -0.0766085 4.2133 0
M  V30 15834 H 1527.94 -0.659519 3.1691 0
M  V30 15835 H 1526.85 1.65014 3.3574 0
M  V30 15836 H 1528.18 2.15339 4.42595 0
M  V30 15837 N 1529.83 -1.29188 0.902679 0
M  V30 15838 C 1531.06 -2.00113 0.544953 0
M  V30 15839 C 1531.48 -1.67093 -0.863805 0
M  V30 15840 O 1530.84 -0.897179 -1.57545 0
M  V30 15841 C 1530.89 -3.52762 0.747741 0
M  V30 15842 O 1529.99 -4.11923 -0.198388 0
M  V30 15843 H 1529.33 -0.629054 0.212572 0
M  V30 15844 H 1531.86 -1.64611 1.21508 0
M  V30 15845 H 1531.87 -4.02732 0.653546 0
M  V30 15846 H 1530.55 -3.76131 1.77478 0
M  V30 15847 H 1529.13 -3.72857 -0.0563959 0
M  V30 15848 N 1531.31 -0.665475 -1.42861 0
M  V30 15849 C 1532.24 0.00482845 -2.335 0
M  V30 15850 C 1533.22 0.799135 -1.50159 0
M  V30 15851 O 1534.41 0.75816 -1.78789 0
M  V30 15852 C 1531.54 0.963347 -3.33672 0
M  V30 15853 C 1530.49 0.278294 -4.27094 0
M  V30 15854 C 1529.82 1.34911 -5.174 0
M  V30 15855 C 1531.12 -0.836925 -5.15551 0
M  V30 15856 H 1532.81 -0.752129 -2.89799 0
M  V30 15857 H 1530.36 -0.363139 -1.39346 0
M  V30 15858 H 1532.31 1.44128 -3.95986 0
M  V30 15859 H 1531.03 1.75161 -2.75656 0
M  V30 15860 H 1529.69 -0.179314 -3.66161 0
M  V30 15861 H 1529.34 2.12912 -4.55716 0
M  V30 15862 H 1529.04 0.895919 -5.8073 0
M  V30 15863 H 1530.57 1.82816 -5.8259 0
M  V30 15864 H 1531.98 -0.440617 -5.71604 0
M  V30 15865 H 1530.38 -1.21533 -5.87665 0
M  V30 15866 H 1531.45 -1.6897 -4.54507 0
M  V30 15867 N 1532.79 1.52222 -0.408187 0
M  V30 15868 C 1534.04 2.01404 0.167574 0
M  V30 15869 C 1534.36 1.29572 1.45726 0
M  V30 15870 O 1533.63 0.421363 1.91315 0
M  V30 15871 H 1532.21 0.744174 0.0649156 0
M  V30 15872 H 1534.87 1.87148 -0.544212 0
M  V30 15873 H 1533.97 3.09966 0.36436 0
M  V30 15874 N 1534.27 0.138579 1.5699 0
M  V30 15875 C 1535.23 -0.79013 2.1515 0
M  V30 15876 C 1536.23 -1.1811 1.09117 0
M  V30 15877 O 1537.42 -1.1034 1.34798 0
M  V30 15878 C 1534.55 -2.07109 2.70774 0
M  V30 15879 H 1535.75 -0.284343 2.98549 0
M  V30 15880 H 1533.3 -0.11081 1.55907 0
M  V30 15881 H 1534.03 -2.62074 1.91018 0
M  V30 15882 H 1533.82 -1.80004 3.4834 0
M  V30 15883 H 1535.31 -2.73456 3.15613 0
M  V30 15884 N 1535.75 -1.57019 -0.13521 0
M  V30 15885 C 1536.71 -1.98229 -1.15056 0
M  V30 15886 C 1537.71 -0.870295 -1.35213 0
M  V30 15887 O 1538.9 -1.13668 -1.32005 0
M  V30 15888 C 1536.03 -2.30844 -2.50846 0
M  V30 15889 H 1537.22 -2.89123 -0.796744 0
M  V30 15890 H 1534.78 -1.51636 -0.378962 0
M  V30 15891 H 1535.51 -1.42779 -2.91178 0
M  V30 15892 H 1535.3 -3.11931 -2.37574 0
M  V30 15893 H 1536.79 -2.63524 -3.23952 0
M  V30 15894 N 1537.22 0.404919 -1.52309 0
M  V30 15895 C 1538.47 1.15148 -1.66575 0
M  V30 15896 C 1538.8 1.9039 -0.397754 0
M  V30 15897 O 1538.05 1.85639 0.619407 0
M  V30 15898 C 1538.35 2.16817 -2.84121 0
M  V30 15899 C 1538.02 1.58352 -4.22179 0
M  V30 15900 C 1536.68 1.42132 -4.5973 0
M  V30 15901 C 1539.03 1.15695 -5.08197 0
M  V30 15902 C 1536.36 0.817785 -5.80973 0
M  V30 15903 C 1538.71 0.56758 -6.30049 0
M  V30 15904 C 1537.38 0.392547 -6.66345 0
M  V30 15905 H 1536.65 0.421357 -0.60954 0
M  V30 15906 H 1539.29 0.438148 -1.8642 0
M  V30 15907 H 1537.6 2.94311 -2.58628 0
M  V30 15908 H 1539.3 2.74463 -2.92355 0
M  V30 15909 H 1535.89 1.71961 -3.92591 0
M  V30 15910 H 1540.07 1.27034 -4.79767 0
M  V30 15911 H 1535.33 0.670228 -6.07715 0
M  V30 15912 H 1539.5 0.228674 -6.96024 0
M  V30 15913 H 1537.13 -0.0772156 -7.60161 0
M  V30 15914 N 1538.7 1.43003 0.662408 0
M  V30 15915 C 1539.95 1.43848 1.41958 0
M  V30 15916 C 1540.27 0.06046 1.94906 0
M  V30 15917 O 1539.54 -0.90287 1.73854 0
M  V30 15918 H 1538.12 0.529587 0.526827 0
M  V30 15919 H 1540.78 1.7853 0.781867 0
M  V30 15920 H 1539.88 2.14562 2.26649 0
M  V30 15921 N 1540.18 -0.899904 1.29381 0
M  V30 15922 C 1541.41 -1.68911 1.20349 0
M  V30 15923 C 1541.83 -1.86657 -0.232523 0
M  V30 15924 O 1541.19 -1.38674 -1.16787 0
M  V30 15925 C 1541.24 -3.05124 1.92177 0
M  V30 15926 O 1540.34 -3.93358 1.23867 0
M  V30 15927 H 1539.68 -0.516698 0.417036 0
M  V30 15928 H 1542.21 -1.12422 1.70946 0
M  V30 15929 H 1542.22 -3.55267 2.00623 0
M  V30 15930 H 1540.9 -2.91525 2.96624 0
M  V30 15931 H 1539.47 -3.51793 1.23677 0
M  V30 15932 N 1541.66 -1.11854 -1.11024 0
M  V30 15933 C 1542.91 -0.868355 -1.82494 0
M  V30 15934 C 1543.23 0.607622 -1.85292 0
M  V30 15935 O 1542.5 1.44147 -1.32659 0
M  V30 15936 H 1541.08 -0.31826 -0.67581 0
M  V30 15937 H 1543.74 -1.4118 -1.34366 0
M  V30 15938 H 1542.84 -1.24441 -2.86218 0
M  V30 15939 N 1543.14 1.28707 -0.909517 0
M  V30 15940 C 1544.38 1.95154 -0.540481 0
M  V30 15941 C 1544.71 1.7163 0.91506 0
M  V30 15942 O 1543.97 1.02786 1.66534 0
M  V30 15943 C 1544.27 3.48536 -0.791037 0
M  V30 15944 C 1543.93 3.92153 -2.22546 0
M  V30 15945 C 1542.59 4.03772 -2.61766 0
M  V30 15946 C 1544.95 4.14547 -3.15912 0
M  V30 15947 C 1542.27 4.35162 -3.93511 0
M  V30 15948 C 1544.63 4.47414 -4.47218 0
M  V30 15949 C 1543.29 4.57244 -4.86296 0
M  V30 15950 H 1542.56 0.714119 -0.197776 0
M  V30 15951 H 1545.21 1.53122 -1.15004 0
M  V30 15952 H 1543.51 3.91676 -0.0986412 0
M  V30 15953 H 1545.21 3.98059 -0.48474 0
M  V30 15954 H 1541.8 3.83633 -1.91113 0
M  V30 15955 H 1545.98 4.05027 -2.86822 0
M  V30 15956 H 1541.24 4.40977 -4.23496 0
M  V30 15957 H 1545.41 4.6369 -5.19581 0
M  V30 15958 H 1543.04 4.81321 -5.88416 0
M  V30 15959 N 1544.61 0.673042 1.42506 0
M  V30 15960 C 1545.84 0.202922 2.05902 0
M  V30 15961 C 1546.26 -1.13923 1.50556 0
M  V30 15962 O 1545.61 -1.70735 0.644662 0
M  V30 15963 C 1545.67 0.12735 3.61276 0
M  V30 15964 O 1545.39 1.41646 4.1457 0
M  V30 15965 C 1546.89 -0.366477 4.41783 0
M  V30 15966 H 1544.11 0.0991021 0.663641 0
M  V30 15967 H 1546.65 0.919282 1.82673 0
M  V30 15968 H 1544.81 -0.539687 3.83622 0
M  V30 15969 H 1545.22 1.28866 5.08423 0
M  V30 15970 H 1546.69 -0.368267 5.5077 0
M  V30 15971 H 1547.17 -1.40142 4.16241 0
M  V30 15972 H 1547.78 0.268761 4.2445 0
M  V30 15973 N 1546.09 -1.52004 0.416254 0
M  V30 15974 C 1547.02 -2.24913 -0.441208 0
M  V30 15975 C 1548.04 -1.28139 -1.0042 0
M  V30 15976 O 1549.23 -1.54037 -0.901928 0
M  V30 15977 C 1546.33 -2.97298 -1.62688 0
M  V30 15978 C 1545.5 -4.20999 -1.18652 0
M  V30 15979 C 1544.56 -4.76146 -2.2399 0
M  V30 15980 O 1543.58 -5.38541 -1.84288 0
M  V30 15981 N 1544.79 -4.58338 -3.56239 0
M  V30 15982 H 1547.55 -2.99137 0.183576 0
M  V30 15983 H 1545.11 -1.60051 0.244008 0
M  V30 15984 H 1547.1 -3.31082 -2.32737 0
M  V30 15985 H 1545.67 -2.26216 -2.15744 0
M  V30 15986 H 1544.89 -3.92948 -0.313877 0
M  V30 15987 H 1546.18 -5.01318 -0.869365 0
M  V30 15988 H 1545.58 -4.08592 -3.91241 0
M  V30 15989 H 1544.14 -4.96542 -4.22244 0
M  V30 15990 N 1547.57 -0.146903 -1.56914 0
M  V30 15991 C 1548.5 0.823803 -2.13883 0
M  V30 15992 C 1549.52 1.21081 -1.08826 0
M  V30 15993 O 1550.7 1.15491 -1.36103 0
M  V30 15994 C 1547.8 2.11686 -2.64655 0
M  V30 15995 C 1546.98 1.89723 -3.94112 0
M  V30 15996 C 1546.04 3.03016 -4.30195 0
M  V30 15997 O 1545.06 2.74711 -4.9852 0
M  V30 15998 N 1546.26 4.30187 -3.89768 0
M  V30 15999 H 1549.03 0.336904 -2.978 0
M  V30 16000 H 1546.59 0.0366704 -1.61858 0
M  V30 16001 H 1548.58 2.86525 -2.85807 0
M  V30 16002 H 1547.15 2.51639 -1.85464 0
M  V30 16003 H 1546.37 0.989208 -3.81587 0
M  V30 16004 H 1547.66 1.72387 -4.78707 0
M  V30 16005 H 1547.06 4.56051 -3.34715 0
M  V30 16006 H 1545.62 5.01807 -4.15972 0
M  V30 16007 N 1549.05 1.57088 0.126881 0
M  V30 16008 C 1550.3 1.83624 0.834582 0
M  V30 16009 C 1550.61 0.731331 1.81414 0
M  V30 16010 O 1551.82 0.88286 2.56745 0
M  V30 16011 C 1550.27 3.25529 1.5349 0
M  V30 16012 C 1549.88 4.44008 0.59673 0
M  V30 16013 C 1551.62 3.6132 2.22819 0
M  V30 16014 C 1549.53 5.76939 1.29982 0
M  V30 16015 H 1548.46 0.684858 0.315414 0
M  V30 16016 H 1551.11 1.83292 0.087305 0
M  V30 16017 H 1549.49 3.20306 2.32852 0
M  V30 16018 H 1550.67 4.60511 -0.163109 0
M  V30 16019 H 1548.98 4.16399 0.0108081 0
M  V30 16020 H 1551.58 4.57902 2.76098 0
M  V30 16021 H 1551.92 2.88363 3.00254 0
M  V30 16022 H 1552.46 3.68291 1.50354 0
M  V30 16023 H 1549.2 6.53044 0.566925 0
M  V30 16024 H 1548.72 5.64336 2.03187 0
M  V30 16025 H 1550.39 6.20427 1.8352 0
M  V30 16026 N 1550.53 -0.396836 1.52522 0
M  V30 16027 C 1551.77 -1.14037 1.66853 0
M  V30 16028 C 1552.1 -1.90706 0.406987 0
M  V30 16029 O 1551.37 -1.87165 -0.578443 0
M  V30 16030 H 1549.95 -0.423967 0.615029 0
M  V30 16031 H 1552.61 -0.451042 1.89609 0
M  V30 16032 H 1551.7 -1.84763 2.51533 0
M  V30 16033 N 1552.01 -1.43353 -0.654814 0
M  V30 16034 C 1552.95 -1.48652 -1.789 0
M  V30 16035 C 1553.95 -0.360274 -1.65525 0
M  V30 16036 O 1555.15 -0.534194 -1.71891 0
M  V30 16037 H 1551.53 -0.465987 -0.590221 0
M  V30 16038 H 1553.5 -2.44158 -1.7155 0
M  V30 16039 C 1552.25 -1.42512 -3.17152 0
M  V30 16040 H 1551.57 -2.28479 -3.28081 0
M  V30 16041 H 1553.01 -1.50282 -3.96474 0
M  V30 16042 C 1551.47 -0.142511 -3.36598 0
M  V30 16043 O 1552 0.796821 -3.93718 0
M  V30 16044 N 1550.21 -0.0532157 -2.90551 0
M  V30 16045 H 1549.75 -0.818421 -2.44253 0
M  V30 16046 H 1549.71 0.80427 -3.03939 0
M  V30 16047 N 1553.48 0.89303 -1.29857 0
M  V30 16048 C 1554.43 1.9979 -1.15554 0
M  V30 16049 C 1555.4 1.66033 -0.0471157 0
M  V30 16050 O 1556.59 1.89575 -0.215846 0
M  V30 16051 C 1553.73 3.34595 -0.844993 0
M  V30 16052 C 1552.84 3.81093 -2.03451 0
M  V30 16053 C 1551.97 5.04506 -1.66275 0
M  V30 16054 C 1551.01 5.4339 -2.8177 0
M  V30 16055 N 1550.15 6.57987 -2.44945 0
M  V30 16056 H 1554.99 2.11355 -2.10079 0
M  V30 16057 H 1552.53 1.03497 -1.04531 0
M  V30 16058 H 1554.48 4.12175 -0.645598 0
M  V30 16059 H 1553.11 3.22738 0.0633626 0
M  V30 16060 H 1552.17 2.99491 -2.34541 0
M  V30 16061 H 1553.48 4.05855 -2.8997 0
M  V30 16062 H 1552.63 5.89688 -1.42664 0
M  V30 16063 H 1551.37 4.81597 -0.769144 0
M  V30 16064 H 1550.38 4.56738 -3.06056 0
M  V30 16065 H 1551.6 5.68276 -3.71805 0
M  V30 16066 H 1549.55 6.36669 -1.58079 0
M  V30 16067 H 1549.46 6.82579 -3.24996 0
M  V30 16068 H 1550.73 7.46421 -2.24669 0
M  V30 16069 N 1554.96 1.12442 1.10429 0
M  V30 16070 C 1556.21 0.874466 1.81758 0
M  V30 16071 C 1556.52 -0.601487 1.86122 0
M  V30 16072 O 1557.73 -0.968037 2.53656 0
M  V30 16073 C 1556.19 1.51478 3.2647 0
M  V30 16074 C 1555.79 3.02552 3.30403 0
M  V30 16075 C 1557.54 1.34511 4.02625 0
M  V30 16076 C 1555.44 3.59518 4.69575 0
M  V30 16077 H 1554.37 0.323494 0.681078 0
M  V30 16078 H 1557.03 1.35091 1.24188 0
M  V30 16079 H 1555.41 0.966 3.84037 0
M  V30 16080 H 1556.58 3.63924 2.82659 0
M  V30 16081 H 1554.9 3.18917 2.67733 0
M  V30 16082 H 1557.49 1.74492 5.05427 0
M  V30 16083 H 1557.84 0.288788 4.15297 0
M  V30 16084 H 1558.37 1.86311 3.51473 0
M  V30 16085 H 1555.11 4.6491 4.62103 0
M  V30 16086 H 1554.63 3.02922 5.17686 0
M  V30 16087 H 1556.31 3.58581 5.38543 0
M  V30 16088 N 1556.44 -1.28223 0.91633 0
M  V30 16089 C 1557.66 -1.99523 0.566147 0
M  V30 16090 C 1558.09 -1.68 -0.846034 0
M  V30 16091 O 1557.45 -0.913838 -1.56584 0
M  V30 16092 C 1557.5 -3.51949 0.785114 0
M  V30 16093 O 1556.6 -4.1211 -0.154686 0
M  V30 16094 H 1555.94 -0.626764 0.219232 0
M  V30 16095 H 1558.47 -1.63313 1.23247 0
M  V30 16096 H 1558.48 -4.02016 0.696224 0
M  V30 16097 H 1557.16 -3.74227 1.81457 0
M  V30 16098 H 1555.73 -3.72896 -0.0168463 0
M  V30 16099 N 1557.92 -0.68059 -1.42147 0
M  V30 16100 C 1558.83 -0.00595573 -2.34599 0
M  V30 16101 C 1559.84 0.782528 -1.55411 0
M  V30 16102 O 1561.02 0.723524 -1.87955 0
M  V30 16103 C 1558.08 0.92964 -3.34004 0
M  V30 16104 C 1557.15 0.135041 -4.29088 0
M  V30 16105 C 1556.38 1.02607 -5.23744 0
M  V30 16106 O 1556.6 2.26562 -5.23475 0
M  V30 16107 O 1555.54 0.483774 -5.99953 0
M  V30 16108 H 1559.36 -0.767652 -2.93838 0
M  V30 16109 H 1556.95 -0.440849 -1.42748 0
M  V30 16110 H 1558.83 1.46657 -3.95057 0
M  V30 16111 H 1557.5 1.67109 -2.7723 0
M  V30 16112 H 1556.41 -0.44613 -3.7143 0
M  V30 16113 H 1557.74 -0.567417 -4.88918 0
M  V30 16114 N 1559.4 1.51781 -0.424309 0
M  V30 16115 C 1560.33 2.30313 0.384462 0
M  V30 16116 C 1561.31 1.35166 1.03268 0
M  V30 16117 O 1562.49 1.64081 1.0388 0
M  V30 16118 C 1559.62 3.13566 1.49311 0
M  V30 16119 C 1558.58 4.16884 0.969096 0
M  V30 16120 C 1557.9 4.88576 2.17251 0
M  V30 16121 C 1559.2 5.22298 0.0125613 0
M  V30 16122 H 1560.9 2.98172 -0.270871 0
M  V30 16123 H 1558.44 1.43396 -0.131712 0
M  V30 16124 H 1560.39 3.67279 2.06602 0
M  V30 16125 H 1559.12 2.43504 2.17655 0
M  V30 16126 H 1557.78 3.64203 0.418494 0
M  V30 16127 H 1557.43 4.15029 2.84183 0
M  V30 16128 H 1557.13 5.58432 1.82833 0
M  V30 16129 H 1558.65 5.45107 2.75119 0
M  V30 16130 H 1560.06 5.71161 0.494744 0
M  V30 16131 H 1558.46 5.99606 -0.243544 0
M  V30 16132 H 1559.53 4.75935 -0.92813 0
M  V30 16133 N 1560.87 0.155222 1.56834 0
M  V30 16134 C 1562.1 -0.500542 2.00754 0
M  V30 16135 C 1562.52 -1.57878 1.03538 0
M  V30 16136 O 1561.87 -1.82469 0.0336651 0
M  V30 16137 C 1561.92 -1.09366 3.4456 0
M  V30 16138 O 1561.65 -0.0584788 4.38061 0
M  V30 16139 C 1563.15 -1.82923 4.038 0
M  V30 16140 H 1560.37 -0.129589 0.658368 0
M  V30 16141 H 1562.91 0.252223 2.02939 0
M  V30 16142 H 1561.07 -1.797 3.43201 0
M  V30 16143 H 1561.48 -0.494125 5.22167 0
M  V30 16144 H 1562.95 -2.19703 5.06394 0
M  V30 16145 H 1563.43 -2.71823 3.44976 0
M  V30 16146 H 1564.04 -1.17268 4.08813 0
M  V30 16147 N 1562.35 -1.57153 -0.118549 0
M  V30 16148 C 1563.58 -1.89434 -0.844355 0
M  V30 16149 C 1564 -0.747203 -1.72622 0
M  V30 16150 O 1563.36 0.302252 -1.78763 0
M  V30 16151 C 1563.41 -3.20466 -1.65331 0
M  V30 16152 O 1562.51 -3.06403 -2.76027 0
M  V30 16153 H 1561.85 -0.621601 -0.23347 0
M  V30 16154 H 1564.38 -2.04351 -0.100811 0
M  V30 16155 H 1564.39 -3.53197 -2.04245 0
M  V30 16156 H 1563.07 -4.03551 -1.00594 0
M  V30 16157 H 1561.64 -2.85139 -2.40312 0
M  V30 16158 N 1563.83 0.388742 -1.5273 0
M  V30 16159 C 1564.76 1.49653 -1.72277 0
M  V30 16160 C 1565.74 1.52259 -0.570606 0
M  V30 16161 O 1566.92 1.70661 -0.80044 0
M  V30 16162 C 1564.05 2.88118 -1.78061 0
M  V30 16163 C 1563.1 3.03336 -2.99815 0
M  V30 16164 S 1563.93 2.74509 -4.59788 0
M  V30 16165 C 1565.09 4.15167 -4.68388 0
M  V30 16166 H 1565.32 1.32847 -2.65968 0
M  V30 16167 H 1562.85 0.581632 -1.43026 0
M  V30 16168 H 1564.81 3.6791 -1.82079 0
M  V30 16169 H 1563.47 3.0225 -0.854623 0
M  V30 16170 H 1562.66 4.04689 -3.00404 0
M  V30 16171 H 1562.27 2.31438 -2.9379 0
M  V30 16172 H 1564.56 5.09098 -4.47018 0
M  V30 16173 H 1565.5 4.19593 -5.70392 0
M  V30 16174 H 1565.91 4.01088 -3.97226 0
M  V30 16175 N 1565.31 1.43698 0.647203 0
M  V30 16176 C 1566.55 1.45849 1.40911 0
M  V30 16177 C 1566.89 0.0846767 1.94015 0
M  V30 16178 O 1566.16 -0.89537 1.72665 0
M  V30 16179 C 1566.44 2.50579 2.58616 0
M  V30 16180 C 1566.3 3.97258 2.10965 0
M  V30 16181 C 1567.62 2.51981 3.60824 0
M  V30 16182 H 1564.74 0.531056 0.511027 0
M  V30 16183 H 1567.38 1.75283 0.733204 0
M  V30 16184 H 1565.53 2.25611 3.16278 0
M  V30 16185 H 1567.2 4.33304 1.58257 0
M  V30 16186 H 1565.44 4.09802 1.42284 0
M  V30 16187 H 1566.11 4.6616 2.95633 0
M  V30 16188 H 1568.59 2.7425 3.12932 0
M  V30 16189 H 1567.47 3.27191 4.40723 0
M  V30 16190 H 1567.73 1.55582 4.1382 0
M  V30 16191 N 1566.79 -0.886131 1.30328 0
M  V30 16192 C 1568.01 -1.67099 1.22007 0
M  V30 16193 C 1568.43 -1.87546 -0.217255 0
M  V30 16194 O 1567.79 -1.42213 -1.14375 0
M  V30 16195 C 1567.84 -3.048 1.94368 0
M  V30 16196 O 1567.56 -2.85277 3.32489 0
M  V30 16197 C 1569.06 -3.99231 1.9269 0
M  V30 16198 H 1566.28 -0.521467 0.422271 0
M  V30 16199 H 1568.82 -1.1072 1.71934 0
M  V30 16200 H 1566.98 -3.57915 1.48242 0
M  V30 16201 H 1567.39 -3.72626 3.69121 0
M  V30 16202 H 1568.87 -4.93223 2.47861 0
M  V30 16203 H 1569.34 -4.29763 0.905558 0
M  V30 16204 H 1569.95 -3.52051 2.38621 0
M  V30 16205 N 1568.26 -1.13026 -1.09832 0
M  V30 16206 C 1569.49 -0.912803 -1.86233 0
M  V30 16207 C 1569.91 0.532955 -1.80392 0
M  V30 16208 O 1569.27 1.37783 -1.17837 0
M  V30 16209 C 1569.32 -1.40002 -3.32313 0
M  V30 16210 O 1568.42 -0.582537 -4.08265 0
M  V30 16211 H 1567.77 -0.327464 -0.577636 0
M  V30 16212 H 1570.3 -1.5039 -1.38723 0
M  V30 16213 H 1570.31 -1.40182 -3.83162 0
M  V30 16214 H 1568.98 -2.4527 -3.3588 0
M  V30 16215 H 1567.56 -0.648255 -3.67222 0
M  V30 16216 N 1569.74 1.27735 -0.923117 0
M  V30 16217 C 1570.97 1.98682 -0.577317 0
M  V30 16218 C 1571.39 1.68904 0.843608 0
M  V30 16219 O 1570.74 0.947021 1.56006 0
M  V30 16220 C 1570.79 3.52804 -0.788144 0
M  V30 16221 O 1570.51 3.81537 -2.15316 0
M  V30 16222 C 1572.02 4.41006 -0.450437 0
M  V30 16223 H 1569.24 0.634186 -0.2192 0
M  V30 16224 H 1571.78 1.62702 -1.23888 0
M  V30 16225 H 1569.93 3.87012 -0.173441 0
M  V30 16226 H 1570.35 4.76142 -2.19976 0
M  V30 16227 H 1571.82 5.48175 -0.648674 0
M  V30 16228 H 1572.3 4.3489 0.613806 0
M  V30 16229 H 1572.91 4.1231 -1.04308 0
M  V30 16230 N 1571.22 0.688118 1.41784 0
M  V30 16231 C 1572.47 0.213085 2.00571 0
M  V30 16232 C 1572.78 -1.19176 1.55101 0
M  V30 16233 O 1573.99 -1.76387 2.06397 0
M  V30 16234 C 1572.44 0.330075 3.58383 0
M  V30 16235 C 1572.05 1.73981 4.12837 0
M  V30 16236 C 1573.8 -0.0855651 4.24414 0
M  V30 16237 C 1571.7 1.80886 5.63058 0
M  V30 16238 H 1570.63 0.075906 0.750169 0
M  V30 16239 H 1573.28 0.855236 1.62351 0
M  V30 16240 H 1571.67 -0.380199 3.94171 0
M  V30 16241 H 1572.84 2.47825 3.88484 0
M  V30 16242 H 1571.16 2.10447 3.59306 0
M  V30 16243 H 1573.75 -0.0543142 5.34672 0
M  V30 16244 H 1574.1 -1.12307 4.00865 0
M  V30 16245 H 1574.63 0.574169 3.93635 0
M  V30 16246 H 1571.37 2.82663 5.91424 0
M  V30 16247 H 1570.89 1.11417 5.89361 0
M  V30 16248 H 1572.57 1.56835 6.27704 0
M  V30 16249 N 1572.7 -1.51554 0.432352 0
M  V30 16250 C 1573.93 -2.06462 -0.1346 0
M  V30 16251 C 1574.34 -1.30027 -1.36889 0
M  V30 16252 O 1573.7 -0.358447 -1.78945 0
M  V30 16253 C 1573.75 -3.58538 -0.461822 0
M  V30 16254 O 1573.47 -4.32085 0.723471 0
M  V30 16255 C 1574.97 -4.29943 -1.07999 0
M  V30 16256 H 1572.19 -0.670923 -0.0101329 0
M  V30 16257 H 1574.74 -1.9519 0.609999 0
M  V30 16258 H 1572.89 -3.6974 -1.15632 0
M  V30 16259 H 1573.3 -5.22611 0.444757 0
M  V30 16260 H 1574.78 -5.37451 -1.25898 0
M  V30 16261 H 1575.26 -3.87912 -2.05963 0
M  V30 16262 H 1575.86 -4.23171 -0.425022 0
M  V30 16263 N 1574.18 -0.163538 -1.56749 0
M  V30 16264 C 1575.09 0.782461 -2.21167 0
M  V30 16265 C 1576.1 1.25911 -1.20093 0
M  V30 16266 O 1577.28 1.31286 -1.52728 0
M  V30 16267 C 1574.34 1.99761 -2.83366 0
M  V30 16268 C 1573.4 1.56859 -3.99617 0
M  V30 16269 C 1572.64 2.72582 -4.58841 0
M  V30 16270 O 1572.86 3.89243 -4.16949 0
M  V30 16271 O 1571.79 2.47104 -5.48838 0
M  V30 16272 H 1575.62 0.264023 -3.0255 0
M  V30 16273 H 1573.21 0.06429 -1.49262 0
M  V30 16274 H 1575.09 2.70843 -3.22835 0
M  V30 16275 H 1573.76 2.50526 -2.04984 0
M  V30 16276 H 1572.67 0.827511 -3.64833 0
M  V30 16277 H 1574 1.10794 -4.79568 0
M  V30 16278 N 1575.65 1.57214 0.110213 0
M  V30 16279 C 1576.6 2.00978 1.13474 0
M  V30 16280 C 1577.57 0.883436 1.40658 0
M  V30 16281 O 1578.76 1.14832 1.52376 0
M  V30 16282 C 1575.9 2.42654 2.45383 0
M  V30 16283 C 1575.01 3.68744 2.2506 0
M  V30 16284 C 1574.14 3.99363 3.50261 0
M  V30 16285 C 1573.18 5.18608 3.25133 0
M  V30 16286 N 1572.32 5.45055 4.42561 0
M  V30 16287 H 1577.16 2.88289 0.754543 0
M  V30 16288 H 1574.7 1.426 0.361064 0
M  V30 16289 H 1576.66 2.64857 3.22345 0
M  V30 16290 H 1575.29 1.58374 2.81278 0
M  V30 16291 H 1574.34 3.54106 1.38972 0
M  V30 16292 H 1575.65 4.55857 2.02475 0
M  V30 16293 H 1574.8 4.22261 4.35638 0
M  V30 16294 H 1573.54 3.10743 3.75886 0
M  V30 16295 H 1572.55 4.95546 2.38148 0
M  V30 16296 H 1573.77 6.08814 3.0087 0
M  V30 16297 H 1571.72 4.59392 4.6829 0
M  V30 16298 H 1571.64 6.26508 4.23111 0
M  V30 16299 H 1572.9 5.72478 5.29046 0
M  V30 16300 N 1577.13 -0.380637 1.52934 0
M  V30 16301 C 1578.06 -1.47174 1.81279 0
M  V30 16302 C 1579.04 -1.56549 0.665319 0
M  V30 16303 O 1580.23 -1.71362 0.913722 0
M  V30 16304 C 1577.36 -2.84691 1.98918 0
M  V30 16305 C 1576.31 -2.90151 3.14637 0
M  V30 16306 C 1575.64 -4.30198 3.17544 0
M  V30 16307 C 1576.94 -2.59037 4.53539 0
M  V30 16308 H 1578.63 -1.23703 2.7265 0
M  V30 16309 H 1576.18 -0.593654 1.31194 0
M  V30 16310 H 1578.13 -3.61034 2.1733 0
M  V30 16311 H 1576.86 -3.09517 1.04244 0
M  V30 16312 H 1575.51 -2.16257 2.96021 0
M  V30 16313 H 1575.16 -4.52076 2.20536 0
M  V30 16314 H 1574.86 -4.3477 3.95284 0
M  V30 16315 H 1576.39 -5.08435 3.38121 0
M  V30 16316 H 1577.8 -3.25096 4.72214 0
M  V30 16317 H 1576.2 -2.74946 5.33408 0
M  V30 16318 H 1577.27 -1.54342 4.59681 0
M  V30 16319 N 1578.61 -1.44039 -0.639573 0
M  V30 16320 C 1579.54 -1.53073 -1.76327 0
M  V30 16321 C 1580.52 -0.384344 -1.65701 0
M  V30 16322 O 1581.71 -0.603362 -1.84589 0
M  V30 16323 C 1578.84 -1.46646 -3.14821 0
M  V30 16324 C 1577.79 -2.59673 -3.40226 0
M  V30 16325 C 1577.12 -2.38298 -4.78663 0
M  V30 16326 C 1578.42 -4.01864 -3.33621 0
M  V30 16327 H 1580.11 -2.47126 -1.69023 0
M  V30 16328 H 1577.66 -1.1894 -0.811749 0
M  V30 16329 H 1579.61 -1.51567 -3.93199 0
M  V30 16330 H 1578.33 -0.491035 -3.22888 0
M  V30 16331 H 1576.99 -2.54127 -2.64225 0
M  V30 16332 H 1576.64 -1.38968 -4.83422 0
M  V30 16333 H 1576.34 -3.14074 -4.9662 0
M  V30 16334 H 1577.86 -2.45025 -5.59281 0
M  V30 16335 H 1579.28 -4.08824 -4.01915 0
M  V30 16336 H 1577.68 -4.77775 -3.63113 0
M  V30 16337 H 1578.75 -4.26033 -2.31569 0
M  V30 16338 N 1580.09 0.879207 -1.30796 0
M  V30 16339 C 1581.04 1.98553 -1.17667 0
M  V30 16340 C 1582.01 1.65974 -0.0647231 0
M  V30 16341 O 1583.19 1.89336 -0.235941 0
M  V30 16342 C 1580.33 3.3368 -0.880434 0
M  V30 16343 C 1579.44 3.78913 -2.07482 0
M  V30 16344 C 1578.58 5.02714 -1.71617 0
M  V30 16345 C 1577.62 5.40371 -2.87517 0
M  V30 16346 N 1576.75 6.55352 -2.5191 0
M  V30 16347 H 1581.59 2.09115 -2.12309 0
M  V30 16348 H 1579.13 1.02382 -1.05623 0
M  V30 16349 H 1581.09 4.11467 -0.689278 0
M  V30 16350 H 1579.72 3.22787 0.0291283 0
M  V30 16351 H 1578.77 2.96987 -2.37704 0
M  V30 16352 H 1580.08 4.02757 -2.94259 0
M  V30 16353 H 1579.24 5.88142 -1.4891 0
M  V30 16354 H 1577.98 4.80754 -0.820181 0
M  V30 16355 H 1576.98 4.53466 -3.10883 0
M  V30 16356 H 1578.21 5.64301 -3.77811 0
M  V30 16357 H 1576.15 6.34956 -1.64823 0
M  V30 16358 H 1576.07 6.79093 -3.32217 0
M  V30 16359 H 1577.34 7.43996 -2.32573 0
M  V30 16360 N 1581.57 1.13606 1.09231 0
M  V30 16361 C 1582.52 0.810747 2.18013 0
M  V30 16362 C 1583.51 -0.207782 1.68121 0
M  V30 16363 O 1584.72 -0.0647274 1.79884 0
M  V30 16364 H 1581.09 0.244415 0.711172 0
M  V30 16365 H 1583.06 1.73632 2.42682 0
M  V30 16366 C 1581.81 0.295302 3.46444 0
M  V30 16367 H 1581.13 1.07037 3.85205 0
M  V30 16368 H 1582.57 0.106127 4.23867 0
M  V30 16369 C 1581.03 -0.979398 3.2235 0
M  V30 16370 O 1581.56 -2.05483 3.45166 0
M  V30 16371 N 1579.77 -0.911282 2.75942 0
M  V30 16372 H 1579.32 -0.035979 2.57575 0
M  V30 16373 H 1579.27 -1.76476 2.60199 0
M  V30 16374 N 1583.05 -1.27244 0.929878 0
M  V30 16375 C 1583.98 -2.29161 0.448066 0
M  V30 16376 C 1584.96 -1.62806 -0.492776 0
M  V30 16377 O 1586.14 -1.90098 -0.39706 0
M  V30 16378 C 1583.27 -3.46019 -0.298002 0
M  V30 16379 C 1582.23 -4.24384 0.555211 0
M  V30 16380 C 1581.55 -5.33741 -0.320153 0
M  V30 16381 C 1582.85 -4.89535 1.8208 0
M  V30 16382 H 1584.55 -2.69712 1.29983 0
M  V30 16383 H 1582.09 -1.29659 0.626466 0
M  V30 16384 H 1584.04 -4.16419 -0.646024 0
M  V30 16385 H 1582.77 -3.0439 -1.18381 0
M  V30 16386 H 1581.43 -3.55733 0.885971 0
M  V30 16387 H 1581.08 -4.88354 -1.20498 0
M  V30 16388 H 1580.78 -5.8708 0.247241 0
M  V30 16389 H 1582.3 -6.06982 -0.663697 0
M  V30 16390 H 1583.71 -5.52209 1.54071 0
M  V30 16391 H 1582.11 -5.52941 2.33186 0
M  V30 16392 H 1583.18 -4.13113 2.53901 0
M  V30 16393 N 1584.52 -0.695628 -1.41417 0
M  V30 16394 C 1585.77 -0.223719 -2.00455 0
M  V30 16395 C 1586.09 1.18352 -1.55731 0
M  V30 16396 O 1587.29 1.7529 -2.0733 0
M  V30 16397 C 1585.75 -0.349076 -3.58203 0
M  V30 16398 C 1585.36 -1.76168 -4.11909 0
M  V30 16399 C 1587.1 0.0630563 -4.24453 0
M  V30 16400 C 1585.01 -1.83869 -5.62091 0
M  V30 16401 H 1583.94 -0.0798833 -0.749756 0
M  V30 16402 H 1586.59 -0.863834 -1.61896 0
M  V30 16403 H 1584.97 0.35929 -3.94367 0
M  V30 16404 H 1586.14 -2.49881 -3.87164 0
M  V30 16405 H 1584.46 -2.1235 -3.58185 0
M  V30 16406 H 1587.06 0.0259584 -5.34694 0
M  V30 16407 H 1587.4 1.10179 -4.01455 0
M  V30 16408 H 1587.93 -0.595036 -3.93324 0
M  V30 16409 H 1584.67 -2.85796 -5.89916 0
M  V30 16410 H 1584.19 -1.14541 -5.88762 0
M  V30 16411 H 1585.87 -1.60161 -6.26863 0
M  V30 16412 N 1586 1.51322 -0.440383 0
M  V30 16413 C 1586.95 2.27823 0.369526 0
M  V30 16414 C 1587.92 1.31543 1.01418 0
M  V30 16415 O 1589.1 1.60449 1.03251 0
M  V30 16416 C 1586.24 3.12553 1.46304 0
M  V30 16417 C 1585.36 4.23829 0.836217 0
M  V30 16418 C 1584.49 4.95865 1.90504 0
M  V30 16419 C 1583.53 5.99058 1.25681 0
M  V30 16420 N 1582.67 6.64489 2.26712 0
M  V30 16421 H 1587.51 2.96593 -0.289205 0
M  V30 16422 H 1585.04 1.46287 -0.154466 0
M  V30 16423 H 1587 3.60006 2.10836 0
M  V30 16424 H 1585.63 2.4589 2.09136 0
M  V30 16425 H 1584.68 3.80318 0.0791116 0
M  V30 16426 H 1586 4.97753 0.322989 0
M  V30 16427 H 1585.15 5.46881 2.6269 0
M  V30 16428 H 1583.89 4.21578 2.452 0
M  V30 16429 H 1582.89 5.47331 0.520422 0
M  V30 16430 H 1584.12 6.75303 0.717138 0
M  V30 16431 H 1582.07 5.93014 2.80483 0
M  V30 16432 H 1581.98 7.34188 1.80289 0
M  V30 16433 H 1583.25 7.20134 2.98373 0
M  V30 16434 N 1587.48 0.171848 1.5666 0
M  V30 16435 C 1588.73 -0.473061 1.96074 0
M  V30 16436 C 1589.04 -1.64353 1.06054 0
M  V30 16437 O 1590.25 -2.35471 1.35151 0
M  V30 16438 C 1588.7 -0.892995 3.48645 0
M  V30 16439 C 1588.31 0.251902 4.47291 0
M  V30 16440 C 1590.06 -1.50629 3.96877 0
M  V30 16441 C 1587.96 -0.187691 5.91102 0
M  V30 16442 H 1586.89 -0.180503 0.732075 0
M  V30 16443 H 1589.54 0.260164 1.81646 0
M  V30 16444 H 1587.93 -1.68221 3.58494 0
M  V30 16445 H 1589.1 1.02923 4.49159 0
M  V30 16446 H 1587.41 0.775193 4.09121 0
M  V30 16447 H 1590.01 -1.84724 5.01778 0
M  V30 16448 H 1590.35 -2.4044 3.39844 0
M  V30 16449 H 1590.89 -0.781502 3.90048 0
M  V30 16450 H 1587.63 0.675653 6.52009 0
M  V30 16451 H 1587.15 -0.93037 5.9254 0
M  V30 16452 H 1588.83 -0.631385 6.43912 0
M  V30 16453 N 1588.96 -1.5727 -0.101874 0
M  V30 16454 C 1590.21 -1.84928 -0.805263 0
M  V30 16455 C 1590.52 -0.760099 -1.80227 0
M  V30 16456 O 1591.73 -0.923594 -2.55308 0
M  V30 16457 C 1590.18 -3.27929 -1.48291 0
M  V30 16458 C 1589.79 -4.44901 -0.526016 0
M  V30 16459 C 1591.53 -3.64819 -2.17043 0
M  V30 16460 C 1589.44 -5.78934 -1.20787 0
M  V30 16461 H 1588.37 -0.689789 -0.304478 0
M  V30 16462 H 1591.02 -1.83408 -0.0581337 0
M  V30 16463 H 1589.4 -3.2397 -2.27726 0
M  V30 16464 H 1590.58 -4.60193 0.236352 0
M  V30 16465 H 1588.89 -4.16363 0.0554387 0
M  V30 16466 H 1591.49 -4.62236 -2.68778 0
M  V30 16467 H 1591.83 -2.93104 -2.95628 0
M  V30 16468 H 1592.37 -3.70637 -1.44476 0
M  V30 16469 H 1589.1 -6.53863 -0.46296 0
M  V30 16470 H 1588.62 -5.67497 -1.94183 0
M  V30 16471 H 1590.3 -6.23268 -1.73626 0
M  V30 16472 N 1590.44 0.372521 -1.53134 0
M  V30 16473 C 1591.66 1.14116 -1.73183 0
M  V30 16474 C 1592.09 1.82475 -0.456553 0
M  V30 16475 O 1591.44 1.71468 0.588919 0
M  V30 16476 C 1591.49 2.15241 -2.89316 0
M  V30 16477 O 1590.6 3.22178 -2.57439 0
M  V30 16478 H 1589.94 0.331442 -0.575362 0
M  V30 16479 H 1592.47 0.431769 -1.99992 0
M  V30 16480 H 1592.48 2.58961 -3.15283 0
M  V30 16481 H 1591.15 1.64877 -3.81822 0
M  V30 16482 H 1589.73 2.83481 -2.42267 0
M  V30 16483 N 1591.91 1.44376 0.631925 0
M  V30 16484 C 1593.14 1.5082 1.42366 0
M  V30 16485 C 1593.56 0.133858 1.87623 0
M  V30 16486 O 1592.92 -0.876789 1.58689 0
M  V30 16487 C 1592.97 2.47698 2.62065 0
M  V30 16488 O 1592.07 1.97796 3.61871 0
M  V30 16489 H 1591.41 0.509318 0.426018 0
M  V30 16490 H 1593.94 1.89502 0.771376 0
M  V30 16491 H 1593.95 2.65708 3.09618 0
M  V30 16492 H 1592.63 3.47526 2.2847 0
M  V30 16493 H 1591.21 1.89549 3.21131 0
M  V30 16494 N 1593.39 -0.872258 1.31261 0
M  V30 16495 C 1594.32 -1.99517 1.21306 0
M  V30 16496 C 1595.3 -1.69801 0.100775 0
M  V30 16497 O 1596.49 -1.92098 0.284984 0
M  V30 16498 C 1593.62 -3.34968 0.917249 0
M  V30 16499 C 1592.57 -3.78984 1.98885 0
M  V30 16500 C 1591.9 -5.11869 1.54578 0
M  V30 16501 C 1593.2 -3.96338 3.40167 0
M  V30 16502 H 1594.89 -2.08104 2.15251 0
M  V30 16503 H 1592.44 -0.999865 1.03628 0
M  V30 16504 H 1594.39 -4.1306 0.834217 0
M  V30 16505 H 1593.11 -3.26549 -0.0578721 0
M  V30 16506 H 1591.77 -3.0313 2.06174 0
M  V30 16507 H 1591.42 -4.99889 0.558581 0
M  V30 16508 H 1591.12 -5.4229 2.26265 0
M  V30 16509 H 1592.65 -5.92472 1.47678 0
M  V30 16510 H 1594.06 -4.64831 3.35566 0
M  V30 16511 H 1592.46 -4.38153 4.10051 0
M  V30 16512 H 1593.53 -2.9979 3.81122 0
M  V30 16513 N 1594.87 -1.14184 -1.08627 0
M  V30 16514 C 1596.12 -0.91001 -1.81236 0
M  V30 16515 C 1596.45 0.562134 -1.85886 0
M  V30 16516 O 1595.72 1.41631 -1.33307 0
M  V30 16517 C 1596.01 -1.50879 -3.26967 0
M  V30 16518 C 1595.86 -3.05063 -3.3054 0
M  V30 16519 C 1597.18 -1.18379 -4.2388 0
M  V30 16520 H 1594.3 -0.332025 -0.657973 0
M  V30 16521 H 1596.94 -1.41144 -1.27194 0
M  V30 16522 H 1595.09 -1.08236 -3.73118 0
M  V30 16523 H 1596.76 -3.5652 -2.9273 0
M  V30 16524 H 1595 -3.39628 -2.6988 0
M  V30 16525 H 1595.68 -3.42064 -4.33239 0
M  V30 16526 H 1598.15 -1.55242 -3.86056 0
M  V30 16527 H 1597.03 -1.62911 -5.24167 0
M  V30 16528 H 1597.29 -0.0987385 -4.4199 0
M  V30 16529 N 1596.35 1.26749 -0.936613 0
M  V30 16530 C 1597.6 1.93255 -0.577524 0
M  V30 16531 C 1597.91 1.74337 0.886905 0
M  V30 16532 O 1599.12 2.3526 1.35517 0
M  V30 16533 C 1597.57 3.4624 -0.982119 0
M  V30 16534 C 1597.18 3.739 -2.46784 0
M  V30 16535 C 1598.92 4.18777 -0.694706 0
M  V30 16536 C 1596.83 5.20303 -2.81138 0
M  V30 16537 H 1595.76 0.723502 -0.212276 0
M  V30 16538 H 1598.41 1.43901 -1.13863 0
M  V30 16539 H 1596.79 3.94454 -0.349577 0
M  V30 16540 H 1597.97 3.3641 -3.14905 0
M  V30 16541 H 1596.28 3.14587 -2.72808 0
M  V30 16542 H 1598.88 5.2659 -0.927756 0
M  V30 16543 H 1599.22 4.14667 0.368392 0
M  V30 16544 H 1599.76 3.76414 -1.28676 0
M  V30 16545 H 1596.5 5.29511 -3.86392 0
M  V30 16546 H 1596.02 5.58907 -2.17675 0
M  V30 16547 H 1597.69 5.88265 -2.69358 0
M  V30 16548 N 1597.83 0.703118 1.41046 0
M  V30 16549 C 1599.08 0.234346 2.00334 0
M  V30 16550 C 1599.39 -1.17524 1.56357 0
M  V30 16551 O 1600.59 -1.74188 2.08257 0
M  V30 16552 C 1599.05 0.368067 3.58013 0
M  V30 16553 C 1598.66 1.7835 4.10969 0
M  V30 16554 C 1600.4 -0.0405456 4.24481 0
M  V30 16555 C 1598.31 1.86848 5.61108 0
M  V30 16556 H 1597.24 0.0838583 0.749322 0
M  V30 16557 H 1599.89 0.872407 1.61435 0
M  V30 16558 H 1598.27 -0.338371 3.94552 0
M  V30 16559 H 1599.45 2.51931 3.85833 0
M  V30 16560 H 1597.76 2.14246 3.57054 0
M  V30 16561 H 1600.36 0.00239803 5.347 0
M  V30 16562 H 1600.7 -1.08049 4.02034 0
M  V30 16563 H 1601.23 0.615887 3.93003 0
M  V30 16564 H 1597.97 2.8892 5.88392 0
M  V30 16565 H 1597.49 1.17662 5.88146 0
M  V30 16566 H 1599.17 1.63484 6.26005 0
M  V30 16567 N 1599.3 -1.51086 0.448402 0
M  V30 16568 C 1600.53 -2.06593 -0.112695 0
M  V30 16569 C 1600.95 -1.31471 -1.35502 0
M  V30 16570 O 1600.3 -0.377406 -1.78555 0
M  V30 16571 C 1600.36 -3.59008 -0.423769 0
M  V30 16572 O 1600.08 -4.31293 0.769259 0
M  V30 16573 C 1601.58 -4.31064 -1.03433 0
M  V30 16574 H 1598.8 -0.670993 -0.00301626 0
M  V30 16575 H 1601.34 -1.94532 0.630667 0
M  V30 16576 H 1599.5 -3.70946 -1.11704 0
M  V30 16577 H 1599.91 -5.2211 0.500162 0
M  V30 16578 H 1601.38 -5.38756 -1.20191 0
M  V30 16579 H 1601.86 -3.90075 -2.01837 0
M  V30 16580 H 1602.47 -4.23598 -0.380115 0
M  V30 16581 N 1600.78 -0.180154 -1.56567 0
M  V30 16582 C 1602.2 0.175902 -1.58628 0
M  V30 16583 C 1602.4 1.62179 -1.19583 0
M  V30 16584 O 1601.45 2.35471 -0.911566 0
M  V30 16585 C 1602.77 -0.11292 -3.00488 0
M  V30 16586 C 1604.32 -0.051834 -3.12957 0
M  V30 16587 C 1604.79 -0.313764 -4.56924 0
M  V30 16588 N 1606.28 -0.261852 -4.62459 0
M  V30 16589 C 1607.02 -0.438573 -5.7172 0
M  V30 16590 N 1606.51 -0.674832 -6.89506 0
M  V30 16591 N 1608.31 -0.373864 -5.60855 0
M  V30 16592 H 1600.46 -1.12385 -1.80232 0
M  V30 16593 H 1602.72 -0.447459 -0.835754 0
M  V30 16594 H 1602.43 -1.11488 -3.33562 0
M  V30 16595 H 1602.3 0.591409 -3.72535 0
M  V30 16596 H 1604.69 0.940711 -2.79705 0
M  V30 16597 H 1604.77 -0.78901 -2.43327 0
M  V30 16598 H 1604.41 -1.30356 -4.90887 0
M  V30 16599 H 1604.34 0.444127 -5.24724 0
M  V30 16600 H 1606.83 -0.0852513 -3.77804 0
M  V30 16601 H 1607.15 -0.798891 -7.6866 0
M  V30 16602 H 1605.49 -0.711551 -6.91348 0
M  V30 16603 H 1608.68 -0.189815 -4.67715 0
M  V30 16604 H 1608.85 -0.515012 -6.4595 0
M  V30 16605 N 1602.26 1.57322 0.0935319 0
M  V30 16606 C 1603.21 2.03184 1.13222 0
M  V30 16607 C 1604.2 0.933184 1.41379 0
M  V30 16608 O 1605.41 1.11836 1.41042 0
M  V30 16609 H 1601.78 0.647541 0.382354 0
M  V30 16610 H 1603.75 2.89606 0.719105 0
M  V30 16611 C 1602.5 2.47336 2.44378 0
M  V30 16612 H 1601.83 3.31456 2.23556 0
M  V30 16613 H 1603.27 2.83199 3.15554 0
M  V30 16614 C 1601.73 1.34728 3.08788 0
M  V30 16615 O 1602.26 0.677285 3.95949 0
M  V30 16616 N 1600.46 1.09787 2.69063 0
M  V30 16617 H 1600.01 1.64451 1.98277 0
M  V30 16618 H 1599.97 0.346436 3.12485 0
M  V30 16619 N 1603.74 -0.364395 1.53329 0
M  V30 16620 C 1604.97 -1.12586 1.73228 0
M  V30 16621 C 1605.38 -1.83482 0.461614 0
M  V30 16622 O 1604.72 -1.74459 -0.575295 0
M  V30 16623 C 1604.78 -2.1994 2.84371 0
M  V30 16624 C 1604.45 -1.688 4.24683 0
M  V30 16625 C 1605.44 -1.15145 5.06989 0
M  V30 16626 C 1603.13 -1.74277 4.71097 0
M  V30 16627 C 1605.12 -0.676447 6.338 0
M  V30 16628 C 1602.81 -1.26389 5.97887 0
M  V30 16629 C 1603.81 -0.731632 6.7907 0
M  V30 16630 O 1603.49 -0.259825 8.0348 0
M  V30 16631 H 1603.23 -0.342514 0.582804 0
M  V30 16632 H 1605.78 -0.428832 2.00874 0
M  V30 16633 H 1604.01 -2.9314 2.52202 0
M  V30 16634 H 1605.7 -2.81489 2.92436 0
M  V30 16635 H 1606.47 -1.10251 4.72303 0
M  V30 16636 H 1602.34 -2.14647 4.0798 0
M  V30 16637 H 1605.89 -0.260327 6.97114 0
M  V30 16638 H 1601.79 -1.30977 6.32072 0
M  V30 16639 H 1602.55 -0.379044 8.17622 0
M  V30 16640 N 1605.22 -1.44709 -0.62426 0
M  V30 16641 C 1606.13 -1.54608 -1.76447 0
M  V30 16642 C 1607.14 -0.43137 -1.68568 0
M  V30 16643 O 1608.32 -0.6897 -1.89222 0
M  V30 16644 C 1605.38 -1.49404 -3.12857 0
M  V30 16645 C 1604.44 -2.71782 -3.32315 0
M  V30 16646 C 1603.68 -2.66817 -4.62217 0
M  V30 16647 O 1603.9 -1.73205 -5.43467 0
M  V30 16648 O 1602.83 -3.57773 -4.84027 0
M  V30 16649 H 1606.66 -2.50951 -1.71048 0
M  V30 16650 H 1604.25 -1.27033 -0.786326 0
M  V30 16651 H 1606.13 -1.4905 -3.9416 0
M  V30 16652 H 1604.8 -0.562078 -3.18783 0
M  V30 16653 H 1603.71 -2.77702 -2.50664 0
M  V30 16654 H 1605.04 -3.64048 -3.31255 0
M  V30 16655 N 1606.69 0.865285 -1.31722 0
M  V30 16656 C 1607.97 1.60146 -1.12306 0
M  V30 16657 C 1608.35 2.08653 0.320508 0
M  V30 16658 O 1607.7 1.86841 1.31539 0
M  V30 16659 C 1607.91 2.75583 -2.14138 0
M  V30 16660 C 1609.26 3.45429 -2.46909 0
M  V30 16661 O 1610.28 2.85795 -2.12602 0
M  V30 16662 O 1609.14 4.53017 -3.05676 0
M  V30 16663 H 1606.23 0.704786 -0.432673 0
M  V30 16664 H 1608.78 0.910339 -1.43216 0
M  V30 16665 H 1607.55 2.37187 -3.1122 0
M  V30 16666 H 1607.18 3.52378 -1.84161 0
M  V30 16667 N 1608.17 1.14759 1.0802 0
M  V30 16668 C 1609.4 0.941887 1.84218 0
M  V30 16669 C 1609.82 -0.509702 1.8179 0
M  V30 16670 O 1609.17 -1.35331 1.22441 0
M  V30 16671 C 1609.22 1.43978 3.31591 0
M  V30 16672 O 1608.94 2.83449 3.34048 0
M  V30 16673 C 1610.45 1.27459 4.24581 0
M  V30 16674 H 1607.67 0.334942 0.581425 0
M  V30 16675 H 1610.21 1.52367 1.36399 0
M  V30 16676 H 1608.36 0.900674 3.76785 0
M  V30 16677 H 1608.78 3.05878 4.26073 0
M  V30 16678 H 1610.25 1.67151 5.26084 0
M  V30 16679 H 1610.73 0.217925 4.38659 0
M  V30 16680 H 1611.34 1.80243 3.85217 0
M  V30 16681 N 1609.65 -1.26251 0.943322 0
M  V30 16682 C 1610.88 -1.97739 0.608852 0
M  V30 16683 C 1611.29 -1.70225 -0.81663 0
M  V30 16684 O 1610.65 -0.97172 -1.54479 0
M  V30 16685 C 1610.7 -3.51505 0.844172 0
M  V30 16686 O 1610.42 -3.78063 2.21359 0
M  V30 16687 C 1611.92 -4.40233 0.52054 0
M  V30 16688 H 1609.14 -0.630619 0.229262 0
M  V30 16689 H 1611.69 -1.6071 1.26461 0
M  V30 16690 H 1609.84 -3.86687 0.23499 0
M  V30 16691 H 1610.26 -4.72582 2.27523 0
M  V30 16692 H 1611.73 -5.47074 0.735802 0
M  V30 16693 H 1612.21 -4.35811 -0.544541 0
M  V30 16694 H 1612.81 -4.10599 1.10854 0
M  V30 16695 N 1611.13 -0.710588 -1.40671 0
M  V30 16696 C 1612.36 -0.257442 -2.05292 0
M  V30 16697 C 1612.77 1.09891 -1.53523 0
M  V30 16698 O 1612.13 1.68966 -0.689703 0
M  V30 16699 C 1612.18 -0.223091 -3.60811 0
M  V30 16700 O 1611.9 -1.52588 -4.10668 0
M  V30 16701 C 1613.4 0.249217 -4.42599 0
M  V30 16702 H 1610.62 -0.116663 -0.66078 0
M  V30 16703 H 1613.17 -0.967391 -1.80172 0
M  V30 16704 H 1611.32 0.437787 -3.84918 0
M  V30 16705 H 1611.74 -1.42301 -5.04827 0
M  V30 16706 H 1613.21 0.22211 -5.51553 0
M  V30 16707 H 1613.69 1.29057 -4.19811 0
M  V30 16708 H 1614.29 -0.381202 -4.23588 0
M  V30 16709 N 1612.61 1.50847 -0.456408 0
M  V30 16710 C 1613.85 2.02534 0.103772 0
M  V30 16711 C 1614.19 1.33874 1.40682 0
M  V30 16712 O 1613.46 0.459695 1.8899 0
M  V30 16713 C 1613.74 3.58825 0.302817 0
M  V30 16714 C 1613.6 4.38077 -1.02022 0
M  V30 16715 C 1614.92 4.27044 1.06404 0
M  V30 16716 H 1612.04 0.736108 0.0362398 0
M  V30 16717 H 1614.68 1.80306 -0.599134 0
M  V30 16718 H 1612.83 3.77895 0.901542 0
M  V30 16719 H 1614.5 4.30613 -1.6544 0
M  V30 16720 H 1612.74 4.02401 -1.62036 0
M  V30 16721 H 1613.41 5.45652 -0.834766 0
M  V30 16722 H 1615.89 4.12359 0.556698 0
M  V30 16723 H 1614.77 5.3624 1.17209 0
M  V30 16724 H 1615.03 3.89204 2.09697 0
M  V30 16725 N 1614.09 0.188454 1.56469 0
M  V30 16726 C 1615.02 -0.730379 2.21783 0
M  V30 16727 C 1616 -1.22629 1.17882 0
M  V30 16728 O 1617.18 -1.27634 1.46367 0
M  V30 16729 C 1614.31 -1.95278 2.872 0
M  V30 16730 C 1613.27 -1.59205 3.97288 0
M  V30 16731 C 1612.59 -2.89052 4.49836 0
M  V30 16732 C 1613.89 -0.807027 5.16027 0
M  V30 16733 H 1615.59 -0.185914 2.98822 0
M  V30 16734 H 1613.13 -0.0879804 1.43731 0
M  V30 16735 H 1615.08 -2.60074 3.31571 0
M  V30 16736 H 1613.81 -2.52167 2.07556 0
M  V30 16737 H 1612.47 -0.967713 3.53597 0
M  V30 16738 H 1612.12 -3.44017 3.66963 0
M  V30 16739 H 1611.82 -2.65663 5.24115 0
M  V30 16740 H 1613.34 -3.54847 4.96906 0
M  V30 16741 H 1614.75 -1.35794 5.56986 0
M  V30 16742 H 1613.15 -0.671516 5.96331 0
M  V30 16743 H 1614.22 0.193251 4.84515 0
M  V30 16744 N 1615.56 -1.5737 -0.0851874 0
M  V30 16745 C 1616.53 -2.01789 -1.08692 0
M  V30 16746 C 1617.53 -0.912872 -1.32376 0
M  V30 16747 O 1618.72 -1.1781 -1.28322 0
M  V30 16748 C 1615.85 -2.38708 -2.43375 0
M  V30 16749 H 1617.04 -2.91511 -0.704359 0
M  V30 16750 H 1614.59 -1.52765 -0.330528 0
M  V30 16751 H 1615.33 -1.5197 -2.86488 0
M  V30 16752 H 1615.11 -3.19331 -2.2753 0
M  V30 16753 H 1616.6 -2.73697 -3.15404 0
M  V30 16754 N 1617.04 0.356258 -1.53521 0
M  V30 16755 C 1618.27 1.11828 -1.74075 0
M  V30 16756 C 1618.68 1.82753 -0.473998 0
M  V30 16757 O 1618.04 1.73899 0.553649 0
M  V30 16758 C 1618.09 2.14149 -2.91243 0
M  V30 16759 O 1617.81 1.4611 -4.13017 0
M  V30 16760 C 1619.31 3.02826 -3.23746 0
M  V30 16761 H 1616.53 0.334002 -0.581965 0
M  V30 16762 H 1619.08 0.412336 -2.003 0
M  V30 16763 H 1617.23 2.80328 -2.67386 0
M  V30 16764 H 1617.65 2.1436 -4.78696 0
M  V30 16765 H 1619.12 3.70583 -4.09112 0
M  V30 16766 H 1619.6 3.68149 -2.39505 0
M  V30 16767 H 1620.2 2.42252 -3.49563 0
M  V30 16768 N 1618.52 1.45038 0.616577 0
M  V30 16769 C 1619.45 1.55858 1.73869 0
M  V30 16770 C 1620.43 0.410657 1.65069 0
M  V30 16771 O 1621.62 0.632652 1.83606 0
M  V30 16772 C 1618.75 1.51635 3.12448 0
M  V30 16773 C 1617.7 2.65053 3.36052 0
M  V30 16774 C 1617.03 2.45883 4.74811 0
M  V30 16775 C 1618.33 4.07121 3.27185 0
M  V30 16776 H 1620.02 2.49784 1.6507 0
M  V30 16777 H 1617.57 1.20216 0.792724 0
M  V30 16778 H 1619.52 1.57803 3.90738 0
M  V30 16779 H 1618.24 0.542342 3.22066 0
M  V30 16780 H 1616.9 2.58299 2.60149 0
M  V30 16781 H 1616.55 1.46641 4.8115 0
M  V30 16782 H 1616.25 3.21935 4.9156 0
M  V30 16783 H 1617.77 2.53892 5.55312 0
M  V30 16784 H 1619.19 4.15167 3.9536 0
M  V30 16785 H 1617.58 4.83491 3.55466 0
M  V30 16786 H 1618.65 4.29663 2.24762 0
M  V30 16787 N 1620 -0.858287 1.32179 0
M  V30 16788 C 1620.96 -1.94811 1.20753 0
M  V30 16789 C 1621.96 -1.60261 0.131526 0
M  V30 16790 O 1623.15 -1.69968 0.381662 0
M  V30 16791 C 1620.28 -3.29972 0.856229 0
M  V30 16792 H 1621.48 -2.06371 2.17603 0
M  V30 16793 H 1619.03 -1.04802 1.15958 0
M  V30 16794 H 1619.76 -3.24111 -0.11061 0
M  V30 16795 H 1619.55 -3.56424 1.63414 0
M  V30 16796 H 1621.04 -4.09856 0.800507 0
M  V30 16797 N 1621.48 -1.1533 -1.07409 0
M  V30 16798 C 1622.41 -0.872476 -2.16587 0
M  V30 16799 C 1623.39 0.176683 -1.6918 0
M  V30 16800 O 1624.57 0.0311826 -1.94175 0
M  V30 16801 C 1621.7 -0.360342 -3.45426 0
M  V30 16802 C 1620.66 -1.34611 -4.06281 0
M  V30 16803 C 1619.98 -0.692848 -5.30192 0
M  V30 16804 C 1621.28 -2.71191 -4.46378 0
M  V30 16805 H 1622.98 -1.78546 -2.40336 0
M  V30 16806 H 1620.52 -0.859895 -1.15507 0
M  V30 16807 H 1622.47 -0.151429 -4.21128 0
M  V30 16808 H 1621.2 0.588109 -3.21261 0
M  V30 16809 H 1619.86 -1.54137 -3.32622 0
M  V30 16810 H 1619.51 0.261732 -5.02319 0
M  V30 16811 H 1619.21 -1.35071 -5.71865 0
M  V30 16812 H 1620.73 -0.493695 -6.08601 0
M  V30 16813 H 1622.14 -2.55513 -5.13212 0
M  V30 16814 H 1620.54 -3.33345 -4.99 0
M  V30 16815 H 1621.61 -3.273 -3.57775 0
M  V30 16816 N 1622.95 1.25748 -0.950004 0
M  V30 16817 C 1623.88 2.28419 -0.484467 0
M  V30 16818 C 1624.86 1.63569 0.466813 0
M  V30 16819 O 1626.05 1.90705 0.366766 0
M  V30 16820 C 1623.18 3.46449 0.242916 0
M  V30 16821 C 1622.13 4.23447 -0.622657 0
M  V30 16822 C 1621.46 5.34182 0.235199 0
M  V30 16823 C 1622.76 4.86576 -1.89845 0
M  V30 16824 H 1624.45 2.6761 -1.34257 0
M  V30 16825 H 1622 1.28646 -0.647014 0
M  V30 16826 H 1623.95 4.17394 0.579693 0
M  V30 16827 H 1622.68 3.06235 1.13523 0
M  V30 16828 H 1621.34 3.54279 -0.942453 0
M  V30 16829 H 1620.98 4.90209 1.12713 0
M  V30 16830 H 1620.68 5.86612 -0.340609 0
M  V30 16831 H 1622.21 6.07961 0.567048 0
M  V30 16832 H 1623.62 5.49688 -1.62837 0
M  V30 16833 H 1622.02 5.49162 -2.41954 0
M  V30 16834 H 1623.09 4.09021 -2.60441 0
M  V30 16835 N 1624.43 0.718038 1.40292 0
M  V30 16836 C 1625.68 0.258092 2.00445 0
M  V30 16837 C 1626 -1.15347 1.57226 0
M  V30 16838 O 1625.27 -1.78241 0.812822 0
M  V30 16839 H 1623.85 0.0924316 0.741259 0
M  V30 16840 H 1626.51 0.924216 1.71593 0
M  V30 16841 H 1625.61 0.293113 3.10721 0
M  V30 16842 N 1625.91 -1.50602 0.464402 0
M  V30 16843 C 1627.15 -2.04194 -0.0917216 0
M  V30 16844 C 1627.51 -1.33921 -1.37584 0
M  V30 16845 O 1628.72 -1.78031 -2.01391 0
M  V30 16846 C 1626.99 -3.56316 -0.278093 0
M  V30 16847 S 1628.55 -4.31561 -0.793734 0
M  V30 16848 H 1625.36 -0.710743 -0.0191155 0
M  V30 16849 H 1627.97 -1.85071 0.63001 0
M  V30 16850 H 1626.67 -4.05019 0.662395 0
M  V30 16851 H 1626.2 -3.79782 -1.02613 0
M  V30 16852 H 1628.22 -4.51052 -2.06801 0
M  V30 16853 N 1627.39 -0.19675 -1.56367 0
M  V30 16854 C 1628.67 0.489288 -1.89381 0
M  V30 16855 C 1629.05 1.79529 -1.11052 0
M  V30 16856 O 1628.39 2.27513 -0.212117 0
M  V30 16857 C 1628.6 0.706459 -3.41775 0
M  V30 16858 C 1629.95 1.02508 -4.1204 0
M  V30 16859 O 1630.98 0.794123 -3.47235 0
M  V30 16860 O 1629.83 1.46207 -5.26579 0
M  V30 16861 H 1626.93 0.2553 -0.786607 0
M  V30 16862 H 1629.47 -0.237086 -1.68036 0
M  V30 16863 H 1628.25 -0.215762 -3.90705 0
M  V30 16864 H 1627.87 1.48523 -3.68818 0
M  V30 16865 N 1628.87 1.57413 0.0768405 0
M  V30 16866 C 1629.83 2.02363 1.0762 0
M  V30 16867 C 1630.83 0.919879 1.3189 0
M  V30 16868 O 1632.02 1.18489 1.27695 0
M  V30 16869 C 1629.15 2.39995 2.42106 0
M  V30 16870 H 1630.34 2.91881 0.688889 0
M  V30 16871 H 1627.9 1.52938 0.322422 0
M  V30 16872 H 1628.63 1.53488 2.85678 0
M  V30 16873 H 1628.42 3.20534 2.25833 0
M  V30 16874 H 1629.91 2.75365 3.13948 0
M  V30 16875 N 1630.34 -0.348112 1.53707 0
M  V30 16876 C 1631.57 -1.11346 1.74976 0
M  V30 16877 C 1631.99 -1.81726 0.485525 0
M  V30 16878 O 1631.35 -1.72384 -0.561565 0
M  V30 16879 C 1631.4 -2.10611 2.92703 0
M  V30 16880 O 1630.5 -3.18042 2.62532 0
M  V30 16881 H 1629.85 -0.322247 0.580563 0
M  V30 16882 H 1632.38 -0.399898 2.00654 0
M  V30 16883 H 1632.39 -2.53912 3.19363 0
M  V30 16884 H 1631.06 -1.58782 3.84397 0
M  V30 16885 H 1629.64 -2.79591 2.46746 0
M  V30 16886 N 1631.82 -1.45363 -0.608876 0
M  V30 16887 C 1633.23 -1.43794 -1.19081 0
M  V30 16888 C 1633.58 -0.164874 -1.95506 0
M  V30 16889 O 1632.71 0.733623 -2.03585 0
M  V30 16890 C 1633.3 -2.60506 -2.16615 0
M  V30 16891 C 1631.86 -2.62061 -2.70187 0
M  V30 16892 C 1631.01 -2.36018 -1.4557 0
M  V30 16893 H 1633.96 -1.53622 -0.39826 0
M  V30 16894 H 1633.98 -2.34531 -2.99625 0
M  V30 16895 H 1633.49 -3.53147 -1.60963 0
M  V30 16896 H 1631.6 -1.73423 -3.2978 0
M  V30 16897 H 1631.71 -3.61242 -3.14708 0
M  V30 16898 H 1630.07 -1.8555 -1.74481 0
M  V30 16899 H 1630.86 -3.30802 -0.917884 0
M  V30 16900 N 1633.3 0.851265 -1.32632 0
M  V30 16901 C 1634.55 1.60785 -1.24578 0
M  V30 16902 C 1634.9 1.91462 0.189803 0
M  V30 16903 O 1634.19 1.54839 1.12851 0
M  V30 16904 C 1634.39 2.93312 -2.04212 0
M  V30 16905 C 1634.22 2.75579 -3.55368 0
M  V30 16906 C 1632.99 2.73784 -4.247 0
M  V30 16907 C 1635.19 2.49095 -4.49951 0
M  V30 16908 N 1633.17 2.47298 -5.61887 0
M  V30 16909 C 1634.54 2.32046 -5.74939 0
M  V30 16910 C 1636.59 2.34591 -4.39171 0
M  V30 16911 C 1635.3 2.01965 -6.90364 0
M  V30 16912 C 1637.32 2.05902 -5.54399 0
M  V30 16913 C 1636.68 1.89655 -6.78388 0
M  V30 16914 H 1632.78 0.591922 -0.511031 0
M  V30 16915 H 1635.37 1.00037 -1.67035 0
M  V30 16916 H 1633.54 3.52033 -1.64095 0
M  V30 16917 H 1635.27 3.58369 -1.88026 0
M  V30 16918 H 1632.03 2.86845 -3.76851 0
M  V30 16919 H 1632.45 2.36973 -6.34171 0
M  V30 16920 H 1637.09 2.45871 -3.43959 0
M  V30 16921 H 1634.81 1.89423 -7.85585 0
M  V30 16922 H 1638.4 1.95452 -5.47987 0
M  V30 16923 H 1637.28 1.67772 -7.66043 0
M  V30 16924 N 1634.78 1.15898 1.06796 0
M  V30 16925 C 1635.71 0.818654 2.14081 0
M  V30 16926 C 1636.72 -0.171847 1.6189 0
M  V30 16927 O 1637.91 0.052196 1.78424 0
M  V30 16928 C 1635.01 0.197283 3.38325 0
M  V30 16929 C 1634.19 1.22662 4.19849 0
M  V30 16930 C 1633.24 0.625985 5.22463 0
M  V30 16931 O 1632.27 1.29347 5.54309 0
M  V30 16932 N 1633.47 -0.589665 5.77497 0
M  V30 16933 H 1636.24 1.74196 2.43877 0
M  V30 16934 H 1633.8 1.05562 1.22753 0
M  V30 16935 H 1635.79 -0.217439 4.04115 0
M  V30 16936 H 1634.36 -0.629476 3.06197 0
M  V30 16937 H 1633.58 1.8177 3.49791 0
M  V30 16938 H 1634.87 1.92143 4.71125 0
M  V30 16939 H 1634.27 -1.15022 5.53883 0
M  V30 16940 H 1632.82 -0.946667 6.44889 0
M  V30 16941 N 1636.26 -1.25243 0.956659 0
M  V30 16942 C 1637.5 -1.93624 0.623011 0
M  V30 16943 C 1637.86 -1.73521 -0.831149 0
M  V30 16944 O 1637.15 -1.07092 -1.58877 0
M  V30 16945 C 1637.34 -3.4536 0.919849 0
M  V30 16946 C 1637.17 -3.8022 2.40131 0
M  V30 16947 C 1635.94 -4.02169 3.05922 0
M  V30 16948 C 1638.14 -3.87567 3.38077 0
M  V30 16949 N 1636.12 -4.24037 4.43921 0
M  V30 16950 C 1637.49 -4.14149 4.6139 0
M  V30 16951 C 1639.55 -3.70257 3.32888 0
M  V30 16952 C 1638.25 -4.2522 5.80155 0
M  V30 16953 C 1640.28 -3.82569 4.50994 0
M  V30 16954 C 1639.64 -4.09565 5.73094 0
M  V30 16955 H 1635.74 -0.730679 0.278624 0
M  V30 16956 H 1638.32 -1.50988 1.22925 0
M  V30 16957 H 1636.49 -3.86887 0.342519 0
M  V30 16958 H 1638.23 -4.01001 0.545898 0
M  V30 16959 H 1634.98 -3.98135 2.56487 0
M  V30 16960 H 1635.41 -4.38974 5.15394 0
M  V30 16961 H 1640.05 -3.48401 2.39533 0
M  V30 16962 H 1637.77 -4.45892 6.73948 0
M  V30 16963 H 1641.35 -3.70559 4.48528 0
M  V30 16964 H 1640.23 -4.18875 6.62958 0
M  V30 16965 N 1637.73 -0.725468 -1.3991 0
M  V30 16966 C 1638.66 -0.094211 -2.3331 0
M  V30 16967 C 1639.65 0.734728 -1.53414 0
M  V30 16968 O 1640.83 0.681647 -1.81844 0
M  V30 16969 C 1637.96 0.820958 -3.37457 0
M  V30 16970 C 1636.91 0.0968983 -4.2789 0
M  V30 16971 C 1636.24 1.12845 -5.22657 0
M  V30 16972 C 1637.54 -1.05483 -5.11537 0
M  V30 16973 H 1639.23 -0.874365 -2.86348 0
M  V30 16974 H 1636.78 -0.421913 -1.3768 0
M  V30 16975 H 1638.73 1.27203 -4.01743 0
M  V30 16976 H 1637.46 1.63312 -2.82837 0
M  V30 16977 H 1636.12 -0.334454 -3.65071 0
M  V30 16978 H 1635.76 1.93392 -4.64337 0
M  V30 16979 H 1635.46 0.648805 -5.84007 0
M  V30 16980 H 1636.99 1.57942 -5.89819 0
M  V30 16981 H 1638.4 -0.682657 -5.69221 0
M  V30 16982 H 1636.8 -1.46349 -5.81981 0
M  V30 16983 H 1637.87 -1.88095 -4.46932 0
M  V30 16984 N 1639.21 1.50354 -0.472382 0
M  V30 16985 C 1640.16 2.28555 0.321118 0
M  V30 16986 C 1641.13 1.33665 0.98605 0
M  V30 16987 O 1642.31 1.62603 0.998239 0
M  V30 16988 C 1639.45 3.15586 1.39641 0
M  V30 16989 C 1638.57 4.25508 0.746129 0
M  V30 16990 C 1637.7 4.99794 1.79943 0
M  V30 16991 C 1636.74 6.01589 1.12946 0
M  V30 16992 N 1635.88 6.69149 2.12567 0
M  V30 16993 H 1640.72 2.95913 -0.352051 0
M  V30 16994 H 1638.26 1.45926 -0.185461 0
M  V30 16995 H 1640.21 3.64397 2.03152 0
M  V30 16996 H 1638.84 2.50271 2.03873 0
M  V30 16997 H 1637.9 3.804 -0.00157718 0
M  V30 16998 H 1639.21 4.98326 0.217335 0
M  V30 16999 H 1638.36 5.5233 2.51031 0
M  V30 17000 H 1637.1 4.26684 2.36203 0
M  V30 17001 H 1636.11 5.48312 0.404207 0
M  V30 17002 H 1637.33 6.76672 0.573735 0
M  V30 17003 H 1635.28 5.9883 2.67841 0
M  V30 17004 H 1635.19 7.37847 1.64676 0
M  V30 17005 H 1636.46 7.26301 2.83031 0
M  V30 17006 N 1640.69 0.205039 1.56261 0
M  V30 17007 C 1641.64 -0.711828 2.19549 0
M  V30 17008 C 1642.61 -1.2025 1.14582 0
M  V30 17009 O 1643.79 -1.26459 1.42873 0
M  V30 17010 C 1640.93 -1.92152 2.86656 0
M  V30 17011 C 1640.05 -1.47129 4.06174 0
M  V30 17012 C 1639.18 -2.63726 4.6111 0
M  V30 17013 C 1638.22 -2.15357 5.72964 0
M  V30 17014 N 1637.36 -3.25167 6.22263 0
M  V30 17015 H 1642.2 -0.165392 2.97541 0
M  V30 17016 H 1639.73 -0.0698889 1.46934 0
M  V30 17017 H 1641.69 -2.63152 3.23739 0
M  V30 17018 H 1640.32 -2.4411 2.11211 0
M  V30 17019 H 1639.37 -0.656797 3.74687 0
M  V30 17020 H 1640.69 -1.0765 4.87045 0
M  V30 17021 H 1639.84 -3.42833 5.0055 0
M  V30 17022 H 1638.58 -3.06484 3.79367 0
M  V30 17023 H 1637.58 -1.34706 5.33043 0
M  V30 17024 H 1638.81 -1.73618 6.56532 0
M  V30 17025 H 1636.76 -3.67438 5.43439 0
M  V30 17026 H 1636.67 -2.89888 6.98213 0
M  V30 17027 H 1637.94 -4.0446 6.66358 0
M  V30 17028 N 1642.17 -1.57451 -0.0684915 0
M  V30 17029 C 1643.12 -2.03916 -1.08105 0
M  V30 17030 C 1644.09 -0.920418 -1.38266 0
M  V30 17031 O 1645.27 -1.18831 -1.49277 0
M  V30 17032 C 1642.41 -2.49075 -2.38863 0
M  V30 17033 C 1641.52 -3.74581 -2.15204 0
M  V30 17034 C 1640.66 -4.08509 -3.39549 0
M  V30 17035 C 1639.7 -5.27046 -3.11269 0
M  V30 17036 N 1638.84 -5.56597 -4.27954 0
M  V30 17037 H 1643.68 -2.90188 -0.677843 0
M  V30 17038 H 1641.21 -1.43507 -0.32313 0
M  V30 17039 H 1643.17 -2.7331 -3.1521 0
M  V30 17040 H 1641.8 -1.65776 -2.76981 0
M  V30 17041 H 1640.85 -3.57666 -1.29535 0
M  V30 17042 H 1642.16 -4.61065 -1.90317 0
M  V30 17043 H 1641.32 -4.33663 -4.24289 0
M  V30 17044 H 1640.06 -3.20599 -3.67515 0
M  V30 17045 H 1639.06 -5.01686 -2.24926 0
M  V30 17046 H 1640.29 -6.16577 -2.84622 0
M  V30 17047 H 1638.23 -4.71646 -4.55945 0
M  V30 17048 H 1638.15 -6.37506 -4.06352 0
M  V30 17049 H 1639.42 -5.86303 -5.13681 0
M  V30 17050 N 1643.65 0.339955 -1.5389 0
M  V30 17051 C 1644.61 1.40058 -1.81429 0
M  V30 17052 C 1645.61 1.45458 -0.685463 0
M  V30 17053 O 1646.8 1.45771 -0.953754 0
M  V30 17054 C 1643.93 2.78952 -1.95955 0
M  V30 17055 H 1645.13 1.16902 -2.76178 0
M  V30 17056 H 1642.68 0.574543 -1.45357 0
M  V30 17057 H 1643.41 3.07387 -1.03361 0
M  V30 17058 H 1643.2 2.76429 -2.78082 0
M  V30 17059 H 1644.69 3.55713 -2.18765 0
M  V30 17060 N 1645.13 1.45684 0.601159 0
M  V30 17061 C 1646.37 1.51581 1.37123 0
M  V30 17062 C 1646.73 0.156185 1.91364 0
M  V30 17063 O 1647.93 0.0898599 2.6865 0
M  V30 17064 C 1646.2 2.56989 2.48378 0
M  V30 17065 S 1647.76 2.82158 3.36054 0
M  V30 17066 H 1644.58 0.53577 0.46741 0
M  V30 17067 H 1647.18 1.82805 0.693012 0
M  V30 17068 H 1645.88 3.54436 2.0689 0
M  V30 17069 H 1645.42 2.27437 3.20992 0
M  V30 17070 H 1647.43 2.16025 4.46708 0
M  V30 17071 N 1646.6 -0.84422 1.33082 0
M  V30 17072 C 1647.88 -1.58339 1.1484 0
M  V30 17073 C 1648.26 -2.09136 -0.287273 0
M  V30 17074 O 1647.61 -1.8891 -1.2855 0
M  V30 17075 C 1647.82 -2.72141 2.18496 0
M  V30 17076 C 1649.17 -3.41457 2.52373 0
M  V30 17077 O 1650.19 -2.82377 2.17122 0
M  V30 17078 O 1649.05 -4.48096 3.12845 0
M  V30 17079 H 1646.14 -0.697813 0.443831 0
M  V30 17080 H 1648.69 -0.88744 1.44646 0
M  V30 17081 H 1647.46 -2.32206 3.14954 0
M  V30 17082 H 1647.08 -3.49404 1.89744 0
M  V30 17083 N 1648.08 -1.16463 -1.0618 0
M  V30 17084 C 1649.33 -0.941322 -1.78387 0
M  V30 17085 C 1649.64 0.531995 -1.88226 0
M  V30 17086 O 1650.85 0.873227 -2.57074 0
M  V30 17087 C 1649.31 -1.63491 -3.20623 0
M  V30 17088 C 1648.91 -3.14607 -3.18946 0
M  V30 17089 C 1650.66 -1.49361 -3.97356 0
M  V30 17090 C 1648.56 -3.76698 -4.55908 0
M  V30 17091 H 1647.49 -0.348549 -0.668603 0
M  V30 17092 H 1650.15 -1.39607 -1.19088 0
M  V30 17093 H 1648.53 -1.10787 -3.80187 0
M  V30 17094 H 1649.7 -3.74164 -2.68957 0
M  V30 17095 H 1648.02 -3.28634 -2.55712 0
M  V30 17096 H 1650.61 -1.93131 -4.98603 0
M  V30 17097 H 1650.96 -0.442724 -4.13939 0
M  V30 17098 H 1651.49 -1.99227 -3.44316 0
M  V30 17099 H 1648.23 -4.8174 -4.4453 0
M  V30 17100 H 1647.75 -3.21927 -5.06086 0
M  V30 17101 H 1649.43 -3.78321 -5.24864 0
M  V30 17102 N 1649.56 1.24734 -0.963288 0
M  V30 17103 C 1650.49 2.27892 -0.508667 0
M  V30 17104 C 1651.47 1.64055 0.449438 0
M  V30 17105 O 1652.66 1.91083 0.346519 0
M  V30 17106 C 1649.79 3.46688 0.206157 0
M  V30 17107 C 1648.74 4.22762 -0.667534 0
M  V30 17108 C 1648.07 5.34402 0.178529 0
M  V30 17109 C 1649.37 4.84535 -1.94995 0
M  V30 17110 H 1651.06 2.66171 -1.37088 0
M  V30 17111 H 1648.61 1.27952 -0.660622 0
M  V30 17112 H 1650.56 4.17985 0.535391 0
M  V30 17113 H 1649.28 3.07422 1.10269 0
M  V30 17114 H 1647.94 3.53259 -0.979976 0
M  V30 17115 H 1647.59 4.91377 1.07508 0
M  V30 17116 H 1647.29 5.86218 -0.402808 0
M  V30 17117 H 1648.81 6.08529 0.502533 0
M  V30 17118 H 1650.23 5.4793 -1.68658 0
M  V30 17119 H 1648.62 5.46564 -2.47765 0
M  V30 17120 H 1649.69 4.06236 -2.64765 0
M  V30 17121 N 1651.04 0.732878 1.39523 0
M  V30 17122 C 1651.95 0.0930216 2.34416 0
M  V30 17123 C 1652.96 -0.724309 1.58208 0
M  V30 17124 O 1654.14 -0.653267 1.90511 0
M  V30 17125 C 1651.2 -0.805036 3.37224 0
M  V30 17126 C 1650.27 0.0243049 4.29293 0
M  V30 17127 C 1649.5 -0.830984 5.27191 0
M  V30 17128 O 1649.72 -2.06977 5.31523 0
M  V30 17129 O 1648.66 -0.260772 6.01335 0
M  V30 17130 H 1652.48 0.876179 2.90786 0
M  V30 17131 H 1650.07 0.493525 1.41013 0
M  V30 17132 H 1651.95 -1.31894 4.00228 0
M  V30 17133 H 1650.62 -1.56704 2.83241 0
M  V30 17134 H 1649.53 0.583677 3.69519 0
M  V30 17135 H 1650.86 0.748485 4.86476 0
M  V30 17136 N 1652.52 -1.50101 0.480349 0
M  V30 17137 C 1653.76 -2.01567 -0.073165 0
M  V30 17138 C 1654.08 -1.36657 -1.39944 0
M  V30 17139 O 1655.28 -1.79332 -2.03844 0
M  V30 17140 C 1653.74 -3.59445 -0.180889 0
M  V30 17141 C 1653.35 -4.33318 1.1375 0
M  V30 17142 C 1655.09 -4.18923 -0.685868 0
M  V30 17143 C 1653 -5.83003 0.99307 0
M  V30 17144 H 1651.93 -0.753358 -0.0311179 0
M  V30 17145 H 1654.58 -1.72829 0.616648 0
M  V30 17146 H 1652.96 -3.84811 -0.934693 0
M  V30 17147 H 1654.14 -4.1967 1.90299 0
M  V30 17148 H 1652.45 -3.85492 1.57431 0
M  V30 17149 H 1655.05 -5.28512 -0.811109 0
M  V30 17150 H 1655.39 -3.80916 -1.67955 0
M  V30 17151 H 1655.92 -3.97799 0.0108117 0
M  V30 17152 H 1652.66 -6.25499 1.9604 0
M  V30 17153 H 1652.18 -5.992 0.268128 0
M  V30 17154 H 1653.86 -6.4359 0.663417 0
M  V30 17155 N 1653.99 -0.213323 -1.5615 0
M  V30 17156 C 1655.4 0.29602 -1.84338 0
M  V30 17157 C 1655.76 1.60073 -1.13451 0
M  V30 17158 O 1654.88 2.12645 -0.4014 0
M  V30 17159 C 1655.48 0.54387 -3.34406 0
M  V30 17160 C 1654.03 0.997539 -3.62941 0
M  V30 17161 C 1653.18 0.0560823 -2.77243 0
M  V30 17162 H 1656.13 -0.436707 -1.52573 0
M  V30 17163 H 1656.15 1.39093 -3.54166 0
M  V30 17164 H 1655.67 -0.405885 -3.85972 0
M  V30 17165 H 1653.77 1.96094 -3.16825 0
M  V30 17166 H 1653.88 0.877642 -4.70993 0
M  V30 17167 H 1652.24 0.561362 -2.48437 0
M  V30 17168 H 1653.03 -0.888442 -3.31605 0
M  V30 17169 N 1655.47 1.57485 0.0601405 0
M  V30 17170 C 1656.7 1.91772 0.768565 0
M  V30 17171 C 1657.11 0.808661 1.71048 0
M  V30 17172 O 1656.45 -0.226062 1.82304 0
M  V30 17173 C 1656.52 3.21623 1.6062 0
M  V30 17174 C 1656.18 4.49355 0.832411 0
M  V30 17175 C 1657.18 5.19694 0.146434 0
M  V30 17176 C 1654.86 4.95951 0.796137 0
M  V30 17177 C 1656.86 6.34887 -0.565461 0
M  V30 17178 C 1654.54 6.11047 0.0804763 0
M  V30 17179 C 1655.54 6.80367 -0.599112 0
M  V30 17180 O 1655.23 7.93266 -1.30322 0
M  V30 17181 H 1654.96 0.638161 0.222994 0
M  V30 17182 H 1657.51 2.05376 0.0311569 0
M  V30 17183 H 1655.74 3.0426 2.38668 0
M  V30 17184 H 1657.43 3.41471 2.19436 0
M  V30 17185 H 1658.2 4.84717 0.16569 0
M  V30 17186 H 1654.08 4.4186 1.31457 0
M  V30 17187 H 1657.62 6.88929 -1.09646 0
M  V30 17188 H 1653.52 6.45473 0.0591881 0
M  V30 17189 H 1654.29 8.09452 -1.21369 0
M  V30 17190 N 1656.95 -0.331789 1.54068 0
M  V30 17191 C 1658.2 -1.06818 1.71093 0
M  V30 17192 C 1658.51 -1.89438 0.487111 0
M  V30 17193 O 1659.72 -2.66105 0.538544 0
M  V30 17194 C 1658.17 -1.94853 3.02589 0
M  V30 17195 C 1657.78 -1.17384 4.32348 0
M  V30 17196 C 1659.53 -2.68278 3.28979 0
M  V30 17197 C 1657.43 -2.04518 5.54911 0
M  V30 17198 H 1656.36 -0.402501 0.63758 0
M  V30 17199 H 1659.01 -0.326918 1.80564 0
M  V30 17200 H 1657.4 -2.72845 2.87004 0
M  V30 17201 H 1658.57 -0.442208 4.58673 0
M  V30 17202 H 1656.89 -0.556775 4.12661 0
M  V30 17203 H 1659.48 -3.33762 4.1774 0
M  V30 17204 H 1659.83 -3.35476 2.46498 0
M  V30 17205 H 1660.36 -1.97353 3.45394 0
M  V30 17206 H 1657.1 -1.41842 6.3997 0
M  V30 17207 H 1656.62 -2.75438 5.32817 0
M  V30 17208 H 1658.3 -2.63297 5.91002 0
M  V30 17209 N 1658.43 -1.46001 -0.593424 0
M  V30 17210 C 1659.36 -1.50255 -1.71752 0
M  V30 17211 C 1660.34 -0.357601 -1.58619 0
M  V30 17212 O 1661.52 -0.560187 -1.79984 0
M  V30 17213 C 1658.65 -1.37099 -3.09712 0
M  V30 17214 C 1657.7 -2.5564 -3.41395 0
M  V30 17215 S 1658.53 -4.1805 -3.34656 0
M  V30 17216 C 1659.69 -4.07384 -4.75173 0
M  V30 17217 H 1659.92 -2.45363 -1.67882 0
M  V30 17218 H 1657.45 -1.33756 -0.771275 0
M  V30 17219 H 1659.41 -1.30197 -3.89306 0
M  V30 17220 H 1658.07 -0.434384 -3.11082 0
M  V30 17221 H 1657.26 -2.42399 -4.41881 0
M  V30 17222 H 1656.87 -2.59478 -2.69346 0
M  V30 17223 H 1659.16 -3.73403 -5.65311 0
M  V30 17224 H 1660.1 -5.07831 -4.9347 0
M  V30 17225 H 1660.51 -3.38808 -4.51519 0
M  V30 17226 N 1659.91 0.83715 -1.33527 0
M  V30 17227 C 1661.32 1.12809 -1.12899 0
M  V30 17228 C 1661.52 2.01345 0.0789761 0
M  V30 17229 O 1660.58 2.40831 0.758732 0
M  V30 17230 C 1661.89 1.78852 -2.41728 0
M  V30 17231 C 1663.44 1.91411 -2.47651 0
M  V30 17232 C 1663.91 2.6087 -3.76445 0
M  V30 17233 N 1665.41 2.68381 -3.77526 0
M  V30 17234 C 1666.14 3.22819 -4.73894 0
M  V30 17235 N 1665.64 3.77931 -5.80638 0
M  V30 17236 N 1667.43 3.21087 -4.61367 0
M  V30 17237 H 1659.58 0.247942 -2.10948 0
M  V30 17238 H 1661.84 0.172518 -0.93217 0
M  V30 17239 H 1661.55 1.21258 -3.30135 0
M  V30 17240 H 1661.42 2.78856 -2.54006 0
M  V30 17241 H 1663.81 2.48159 -1.59691 0
M  V30 17242 H 1663.89 0.903512 -2.39312 0
M  V30 17243 H 1663.54 2.0478 -4.64787 0
M  V30 17244 H 1663.47 3.62404 -3.82061 0
M  V30 17245 H 1665.96 2.29301 -3.00382 0
M  V30 17246 H 1666.27 4.17678 -6.50204 0
M  V30 17247 H 1664.61 3.76214 -5.8437 0
M  V30 17248 H 1667.81 2.7729 -3.77131 0
M  V30 17249 H 1667.98 3.6321 -5.3664 0
M  V30 17250 N 1661.38 1.17024 1.05561 0
M  V30 17251 C 1662.32 0.841314 2.13201 0
M  V30 17252 C 1663.33 -0.154667 1.62064 0
M  V30 17253 O 1664.52 0.0711173 1.78358 0
M  V30 17254 C 1661.62 0.233156 3.38097 0
M  V30 17255 C 1660.79 1.27108 4.18524 0
M  V30 17256 C 1659.85 0.681364 5.2177 0
M  V30 17257 O 1658.88 1.35219 5.52906 0
M  V30 17258 N 1660.08 -0.528381 5.7809 0
M  V30 17259 H 1662.84 1.76773 2.42015 0
M  V30 17260 H 1660.4 1.06858 1.21626 0
M  V30 17261 H 1662.4 -0.174565 4.04323 0
M  V30 17262 H 1660.97 -0.596965 3.06847 0
M  V30 17263 H 1660.19 1.85469 3.47843 0
M  V30 17264 H 1661.47 1.97129 4.6906 0
M  V30 17265 H 1660.87 -1.09141 5.55072 0
M  V30 17266 H 1659.43 -0.878214 6.45857 0
M  V30 17267 N 1662.86 -1.24221 0.969889 0
M  V30 17268 C 1664.11 -1.91973 0.631725 0
M  V30 17269 C 1664.43 -1.76169 -0.836032 0
M  V30 17270 O 1663.7 -1.13459 -1.597 0
M  V30 17271 H 1662.28 -0.710497 0.230658 0
M  V30 17272 H 1664.94 -1.51069 1.23143 0
M  V30 17273 H 1664.04 -2.99606 0.874223 0
M  V30 17274 N 1664.34 -0.740267 -1.39132 0
M  V30 17275 C 1665.62 -0.216602 -1.94397 0
M  V30 17276 C 1666 1.28264 -1.67665 0
M  V30 17277 O 1665.35 2.05075 -1.00778 0
M  V30 17278 C 1665.56 -0.555899 -3.44544 0
M  V30 17279 C 1666.9 -0.50815 -4.21548 0
M  V30 17280 O 1667.93 -0.493401 -3.52766 0
M  V30 17281 O 1666.79 -0.507321 -5.4414 0
M  V30 17282 H 1663.88 -0.0413037 -0.825968 0
M  V30 17283 H 1666.43 -0.819483 -1.48602 0
M  V30 17284 H 1665.2 -1.59187 -3.57457 0
M  V30 17285 H 1664.82 0.0756793 -3.97528 0
M  V30 17286 N 1665.82 1.49844 -0.488302 0
M  V30 17287 C 1667.04 2.07313 0.0600937 0
M  V30 17288 C 1667.47 1.3478 1.3121 0
M  V30 17289 O 1666.83 0.400634 1.76818 0
M  V30 17290 C 1666.87 3.59268 0.309658 0
M  V30 17291 O 1665.98 3.88381 1.38688 0
M  V30 17292 H 1665.32 0.663681 -0.0205947 0
M  V30 17293 H 1667.85 1.92818 -0.684284 0
M  V30 17294 H 1667.86 4.04344 0.545 0
M  V30 17295 H 1666.53 4.11474 -0.605146 0
M  V30 17296 H 1665.11 3.55128 1.13749 0
M  V30 17297 N 1667.3 0.221601 1.56034 0
M  V30 17298 C 1668.54 -0.403939 1.99349 0
M  V30 17299 C 1668.9 -1.57383 1.10672 0
M  V30 17300 O 1668.19 -1.90958 0.156695 0
M  V30 17301 C 1668.38 -0.887416 3.46208 0
M  V30 17302 C 1668.21 0.234087 4.4909 0
M  V30 17303 C 1666.98 0.700495 5.00421 0
M  V30 17304 C 1669.18 1.05237 5.03418 0
M  V30 17305 N 1667.16 1.79705 5.87009 0
M  V30 17306 C 1668.53 1.99779 5.86931 0
M  V30 17307 C 1670.59 1.0918 4.85782 0
M  V30 17308 C 1669.29 2.97943 6.54693 0
M  V30 17309 C 1671.32 2.06162 5.54302 0
M  V30 17310 C 1670.68 2.99444 6.37584 0
M  V30 17311 H 1666.78 -0.114481 0.773575 0
M  V30 17312 H 1669.36 0.333384 1.91825 0
M  V30 17313 H 1667.53 -1.5941 3.54179 0
M  V30 17314 H 1669.27 -1.48578 3.7644 0
M  V30 17315 H 1666.02 0.289083 4.72717 0
M  V30 17316 H 1666.45 2.34733 6.35003 0
M  V30 17317 H 1671.09 0.384543 4.21048 0
M  V30 17318 H 1668.81 3.69631 7.18609 0
M  V30 17319 H 1672.39 2.09887 5.42622 0
M  V30 17320 H 1671.27 3.73263 6.8967 0
M  V30 17321 N 1668.77 -1.57515 -0.0517878 0
M  V30 17322 C 1669.7 -2.0809 -1.05929 0
M  V30 17323 C 1670.69 -0.978529 -1.39136 0
M  V30 17324 O 1671.87 -1.25245 -1.48416 0
M  V30 17325 C 1669 -2.54147 -2.36699 0
M  V30 17326 C 1667.95 -3.68442 -2.17794 0
M  V30 17327 C 1667.28 -4.00624 -3.54125 0
M  V30 17328 C 1668.58 -4.97743 -1.5827 0
M  V30 17329 H 1670.27 -2.92515 -0.638371 0
M  V30 17330 H 1667.82 -1.40719 -0.305625 0
M  V30 17331 H 1669.77 -2.88145 -3.07491 0
M  V30 17332 H 1668.5 -1.66775 -2.80809 0
M  V30 17333 H 1667.16 -3.34758 -1.4944 0
M  V30 17334 H 1666.8 -3.10353 -3.95841 0
M  V30 17335 H 1666.5 -4.77597 -3.42308 0
M  V30 17336 H 1668.03 -4.37136 -4.26315 0
M  V30 17337 H 1669.44 -5.29843 -2.18951 0
M  V30 17338 H 1667.84 -5.79173 -1.57094 0
M  V30 17339 H 1668.91 -4.81815 -0.546127 0
M  V30 17340 N 1670.25 0.323614 -1.54242 0
M  V30 17341 C 1671.2 1.39826 -1.83623 0
M  V30 17342 C 1672.17 1.51393 -0.683331 0
M  V30 17343 O 1673.36 1.66614 -0.929754 0
M  V30 17344 C 1670.5 2.76187 -2.06918 0
M  V30 17345 C 1669.61 2.73251 -3.34601 0
M  V30 17346 C 1668.74 4.01458 -3.47857 0
M  V30 17347 C 1667.78 3.9283 -4.69415 0
M  V30 17348 N 1666.92 5.12767 -4.79598 0
M  V30 17349 H 1671.76 1.1407 -2.75303 0
M  V30 17350 H 1669.3 0.552188 -1.36343 0
M  V30 17351 H 1671.25 3.55458 -2.18416 0
M  V30 17352 H 1669.88 3.00251 -1.18529 0
M  V30 17353 H 1668.94 1.85971 -3.31842 0
M  V30 17354 H 1670.25 2.62759 -4.2398 0
M  V30 17355 H 1669.4 4.89161 -3.58897 0
M  V30 17356 H 1668.14 4.14757 -2.5657 0
M  V30 17357 H 1667.15 3.03512 -4.58433 0
M  V30 17358 H 1668.37 3.81097 -5.62087 0
M  V30 17359 H 1666.32 5.26572 -3.91227 0
M  V30 17360 H 1666.23 5.0461 -5.62943 0
M  V30 17361 H 1667.5 6.02184 -4.94969 0
M  V30 17362 N 1671.73 1.46313 0.585673 0
M  V30 17363 C 1672.68 1.56653 1.69495 0
M  V30 17364 C 1673.65 0.411007 1.60935 0
M  V30 17365 O 1674.83 0.627369 1.80191 0
M  V30 17366 C 1671.97 1.55996 3.0783 0
M  V30 17367 C 1671.09 2.82261 3.27036 0
M  V30 17368 C 1670.22 2.73129 4.55603 0
M  V30 17369 C 1669.26 3.94346 4.68143 0
M  V30 17370 N 1668.4 3.83617 5.88032 0
M  V30 17371 H 1673.24 2.51407 1.59995 0
M  V30 17372 H 1670.77 1.24729 0.779821 0
M  V30 17373 H 1672.73 1.53602 3.87895 0
M  V30 17374 H 1671.36 0.647766 3.16234 0
M  V30 17375 H 1670.41 2.94648 2.40596 0
M  V30 17376 H 1671.73 3.72107 3.32171 0
M  V30 17377 H 1670.88 2.68823 5.43893 0
M  V30 17378 H 1669.62 1.80917 4.52902 0
M  V30 17379 H 1668.62 3.98987 3.78272 0
M  V30 17380 H 1669.85 4.8765 4.72625 0
M  V30 17381 H 1667.8 2.9419 5.86334 0
M  V30 17382 H 1667.71 4.67117 5.94422 0
M  V30 17383 H 1668.98 3.83281 6.7876 0
M  V30 17384 N 1673.21 -0.830057 1.33969 0
M  V30 17385 C 1674.46 -1.58586 1.25924 0
M  V30 17386 C 1674.78 -1.93732 -0.172685 0
M  V30 17387 O 1674.04 -1.59628 -1.13214 0
M  V30 17388 C 1674.34 -2.90026 2.08853 0
M  V30 17389 C 1674 -2.74204 3.57943 0
M  V30 17390 C 1672.67 -2.69596 3.98587 0
M  V30 17391 C 1675.02 -2.58384 4.52644 0
M  V30 17392 C 1672.35 -2.4708 5.32135 0
M  V30 17393 C 1674.7 -2.37401 5.86365 0
M  V30 17394 C 1673.36 -2.31201 6.26181 0
M  V30 17395 H 1672.63 -0.580306 0.460789 0
M  V30 17396 H 1675.28 -0.960978 1.65643 0
M  V30 17397 H 1673.58 -3.56767 1.6194 0
M  V30 17398 H 1675.28 -3.47576 1.99979 0
M  V30 17399 H 1671.87 -2.78627 3.25676 0
M  V30 17400 H 1676.06 -2.60972 4.22146 0
M  V30 17401 H 1671.31 -2.40733 5.62012 0
M  V30 17402 H 1675.49 -2.24146 6.59342 0
M  V30 17403 H 1673.11 -2.13515 7.29599 0
M  V30 17404 N 1674.69 -1.17582 -1.04939 0
M  V30 17405 C 1675.92 -0.990398 -1.81656 0
M  V30 17406 C 1676.33 0.461324 -1.83077 0
M  V30 17407 O 1675.69 1.32037 -1.25986 0
M  V30 17408 C 1675.74 -1.52719 -3.27657 0
M  V30 17409 O 1675.46 -2.92206 -3.26415 0
M  V30 17410 C 1676.96 -1.38671 -4.21053 0
M  V30 17411 H 1674.18 -0.35024 -0.57234 0
M  V30 17412 H 1676.72 -1.5593 -1.32311 0
M  V30 17413 H 1674.88 -1.00026 -3.74264 0
M  V30 17414 H 1675.29 -3.17068 -4.17814 0
M  V30 17415 H 1676.77 -1.8104 -5.21468 0
M  V30 17416 H 1677.24 -0.334151 -4.37927 0
M  V30 17417 H 1677.85 -1.90393 -3.80303 0
M  V30 17418 N 1676.17 1.23705 -0.976463 0
M  V30 17419 C 1677.08 2.28728 -0.521605 0
M  V30 17420 C 1678.09 1.68813 0.421691 0
M  V30 17421 O 1679.27 1.99263 0.292579 0
M  V30 17422 C 1676.33 3.4627 0.172545 0
M  V30 17423 C 1675.39 4.21557 -0.811664 0
M  V30 17424 C 1674.63 5.33488 -0.150546 0
M  V30 17425 O 1674.85 5.60478 1.05926 0
M  V30 17426 O 1673.78 5.95909 -0.847132 0
M  V30 17427 H 1677.61 2.6977 -1.39491 0
M  V30 17428 H 1675.19 1.29562 -0.743909 0
M  V30 17429 H 1677.08 4.17634 0.562103 0
M  V30 17430 H 1675.75 3.07187 1.02067 0
M  V30 17431 H 1674.66 3.52533 -1.25185 0
M  V30 17432 H 1675.99 4.6448 -1.62848 0
M  V30 17433 N 1677.64 0.747635 1.38738 0
M  V30 17434 C 1678.61 0.124321 2.28863 0
M  V30 17435 C 1679.61 -0.653816 1.46908 0
M  V30 17436 O 1680.8 -0.480963 1.67429 0
M  V30 17437 C 1677.93 -0.832601 3.30576 0
M  V30 17438 H 1679.12 0.918492 2.85489 0
M  V30 17439 H 1676.67 0.514262 1.47598 0
M  V30 17440 H 1677.41 -1.65267 2.79029 0
M  V30 17441 H 1677.19 -0.277109 3.9112 0
M  V30 17442 H 1678.68 -1.2649 3.97982 0
M  V30 17443 N 1679.12 -1.49583 0.496242 0
M  V30 17444 C 1680.36 -2.04343 -0.0483884 0
M  V30 17445 C 1680.73 -1.36809 -1.34712 0
M  V30 17446 O 1681.93 -1.82263 -1.9757 0
M  V30 17447 C 1680.2 -3.56826 -0.20245 0
M  V30 17448 S 1681.76 -4.33148 -0.702015 0
M  V30 17449 H 1678.57 -0.710989 -0.00403532 0
M  V30 17450 H 1681.18 -1.83693 0.669124 0
M  V30 17451 H 1679.88 -4.03523 0.748156 0
M  V30 17452 H 1679.41 -3.81873 -0.945343 0
M  V30 17453 H 1681.43 -4.55337 -1.97187 0
M  V30 17454 N 1680.6 -0.229873 -1.55915 0
M  V30 17455 C 1681.55 0.693198 -2.2203 0
M  V30 17456 C 1682.54 1.1933 -1.20236 0
M  V30 17457 O 1683.75 1.15217 -1.38294 0
M  V30 17458 H 1680.12 0.241986 -0.712002 0
M  V30 17459 H 1682.09 0.112229 -2.98189 0
M  V30 17460 C 1680.84 1.88688 -2.92048 0
M  V30 17461 H 1680.17 1.51119 -3.70139 0
M  V30 17462 H 1681.61 2.51036 -3.41697 0
M  V30 17463 C 1680.06 2.74747 -1.94976 0
M  V30 17464 O 1680.59 3.73759 -1.47198 0
M  V30 17465 N 1678.8 2.40956 -1.62445 0
M  V30 17466 H 1678.35 1.60494 -2.01493 0
M  V30 17467 H 1678.31 2.98816 -0.977581 0
M  V30 17468 N 1682.08 1.5754 0.0434337 0
M  V30 17469 C 1683.04 2.046 1.03303 0
M  V30 17470 C 1684.04 0.947648 1.29909 0
M  V30 17471 O 1685.23 1.21171 1.25153 0
M  V30 17472 C 1682.36 2.45077 2.36961 0
M  V30 17473 H 1683.56 2.93276 0.626822 0
M  V30 17474 H 1681.11 1.53588 0.289909 0
M  V30 17475 H 1681.84 1.59513 2.82358 0
M  V30 17476 H 1681.63 3.25252 2.18983 0
M  V30 17477 H 1683.12 2.81963 3.08037 0
M  V30 17478 N 1683.56 -0.31543 1.54411 0
M  V30 17479 C 1684.52 -1.37154 1.83634 0
M  V30 17480 C 1685.52 -1.44349 0.708518 0
M  V30 17481 O 1686.71 -1.44235 0.976824 0
M  V30 17482 C 1683.84 -2.758 2.00368 0
M  V30 17483 H 1685.03 -1.12493 2.78002 0
M  V30 17484 H 1682.59 -0.551346 1.46253 0
M  V30 17485 H 1683.32 -3.05704 1.08238 0
M  V30 17486 H 1683.11 -2.7197 2.82445 0
M  V30 17487 H 1684.6 -3.52187 2.24397 0
M  V30 17488 N 1685.03 -1.46622 -0.577906 0
M  V30 17489 C 1685.98 -1.57549 -1.68662 0
M  V30 17490 C 1686.95 -0.419536 -1.60714 0
M  V30 17491 O 1688.14 -0.636916 -1.79856 0
M  V30 17492 C 1685.28 -1.57627 -3.06998 0
M  V30 17493 C 1684.39 -2.83991 -3.25535 0
M  V30 17494 C 1683.52 -2.75541 -4.54148 0
M  V30 17495 C 1682.56 -3.96823 -4.66045 0
M  V30 17496 N 1681.7 -3.86731 -5.8599 0
M  V30 17497 H 1686.54 -2.52252 -1.58659 0
M  V30 17498 H 1684.08 -1.2514 -0.773195 0
M  V30 17499 H 1686.04 -1.55657 -3.87075 0
M  V30 17500 H 1684.67 -0.664527 -3.15886 0
M  V30 17501 H 1683.72 -2.9592 -2.3903 0
M  V30 17502 H 1685.03 -3.73864 -3.30193 0
M  V30 17503 H 1684.18 -2.71703 -5.42459 0
M  V30 17504 H 1682.92 -1.83317 -4.51936 0
M  V30 17505 H 1681.93 -4.00987 -3.76151 0
M  V30 17506 H 1683.15 -4.90149 -4.70033 0
M  V30 17507 H 1681.1 -2.97296 -5.84766 0
M  V30 17508 H 1681.02 -4.70263 -5.91937 0
M  V30 17509 H 1682.28 -3.86876 -6.76718 0
M  V30 17510 N 1686.51 0.822941 -1.34408 0
M  V30 17511 C 1687.76 1.57604 -1.26513 0
M  V30 17512 C 1688.08 1.94303 0.164769 0
M  V30 17513 O 1687.35 1.62278 1.09738 0
M  V30 17514 H 1685.93 0.584399 -0.465282 0
M  V30 17515 H 1688.59 0.982582 -1.68319 0
M  V30 17516 H 1687.69 2.49886 -1.86986 0
M  V30 17517 N 1687.99 1.18137 1.04314 0
M  V30 17518 C 1688.92 0.929593 2.14198 0
M  V30 17519 C 1689.9 -0.131766 1.69589 0
M  V30 17520 O 1691.09 0.0203104 1.94189 0
M  V30 17521 C 1688.22 0.451799 3.44349 0
M  V30 17522 C 1687.17 1.45336 4.02569 0
M  V30 17523 C 1686.5 0.833176 5.28169 0
M  V30 17524 C 1687.8 2.8293 4.39031 0
M  V30 17525 H 1689.49 1.84856 2.35518 0
M  V30 17526 H 1687.04 0.890217 1.13186 0
M  V30 17527 H 1688.99 0.26303 4.20578 0
M  V30 17528 H 1687.71 -0.502725 3.22708 0
M  V30 17529 H 1686.37 1.62902 3.28418 0
M  V30 17530 H 1686.02 -0.128459 5.02836 0
M  V30 17531 H 1685.72 1.50185 5.68083 0
M  V30 17532 H 1687.24 0.654881 6.07078 0
M  V30 17533 H 1688.66 2.6903 5.06257 0
M  V30 17534 H 1687.06 3.46458 4.89987 0
M  V30 17535 H 1688.13 3.3667 3.48972 0
M  V30 17536 N 1689.47 -1.23186 0.98301 0
M  V30 17537 C 1690.38 -2.28448 0.533727 0
M  V30 17538 C 1691.39 -1.69034 -0.412732 0
M  V30 17539 O 1692.57 -1.99416 -0.282007 0
M  V30 17540 C 1689.64 -3.46357 -0.154179 0
M  V30 17541 C 1688.7 -4.21121 0.834009 0
M  V30 17542 C 1687.93 -5.334 0.178836 0
M  V30 17543 O 1688.15 -5.61032 -1.02952 0
M  V30 17544 O 1687.09 -5.95451 0.878722 0
M  V30 17545 H 1690.91 -2.69027 1.40919 0
M  V30 17546 H 1688.5 -1.29166 0.75077 0
M  V30 17547 H 1690.38 -4.17926 -0.539947 0
M  V30 17548 H 1689.05 -3.07724 -1.00437 0
M  V30 17549 H 1687.96 -3.51864 1.27053 0
M  V30 17550 H 1689.29 -4.6361 1.65309 0
M  V30 17551 N 1690.95 -0.754982 -1.38339 0
M  V30 17552 C 1692.19 -0.321184 -2.00848 0
M  V30 17553 C 1692.55 1.08546 -1.58857 0
M  V30 17554 O 1691.84 1.7332 -0.816737 0
M  V30 17555 C 1692.03 -0.383719 -3.55334 0
M  V30 17556 C 1691.86 -1.7949 -4.12327 0
M  V30 17557 C 1690.63 -2.41176 -4.4403 0
M  V30 17558 C 1692.83 -2.75178 -4.3449 0
M  V30 17559 N 1690.81 -3.74241 -4.86638 0
M  V30 17560 C 1692.18 -3.93011 -4.79523 0
M  V30 17561 C 1694.24 -2.72683 -4.16592 0
M  V30 17562 C 1692.94 -5.0871 -5.08534 0
M  V30 17563 C 1694.97 -3.87541 -4.46728 0
M  V30 17564 C 1694.33 -5.04112 -4.91986 0
M  V30 17565 H 1690.43 -0.164217 -0.764563 0
M  V30 17566 H 1693.01 -0.985233 -1.67932 0
M  V30 17567 H 1691.18 0.250068 -3.87594 0
M  V30 17568 H 1692.92 0.0705302 -4.04639 0
M  V30 17569 H 1689.67 -1.9293 -4.32522 0
M  V30 17570 H 1690.1 -4.4261 -5.12275 0
M  V30 17571 H 1694.74 -1.8374 -3.80788 0
M  V30 17572 H 1692.46 -5.98266 -5.43234 0
M  V30 17573 H 1696.04 -3.86931 -4.34483 0
M  V30 17574 H 1694.92 -5.91514 -5.1486 0
M  V30 17575 N 1692.42 1.49318 -0.504168 0
M  V30 17576 C 1693.67 2.02762 0.0392846 0
M  V30 17577 C 1694 1.38282 1.36352 0
M  V30 17578 O 1693.28 0.519587 1.87431 0
M  V30 17579 C 1693.56 3.59606 0.188507 0
M  V30 17580 C 1693.41 4.3461 -1.15908 0
M  V30 17581 C 1694.73 4.30213 0.927641 0
M  V30 17582 H 1691.85 0.736889 0.0128028 0
M  V30 17583 H 1694.49 1.78309 -0.656193 0
M  V30 17584 H 1692.64 3.80572 0.780861 0
M  V30 17585 H 1694.32 4.25132 -1.79055 0
M  V30 17586 H 1692.56 3.97043 -1.74756 0
M  V30 17587 H 1693.23 5.4272 -1.00794 0
M  V30 17588 H 1695.71 4.13922 0.425228 0
M  V30 17589 H 1694.58 5.39697 1.0009 0
M  V30 17590 H 1694.84 3.95678 1.97209 0
M  V30 17591 N 1693.9 0.238138 1.5579 0
M  V30 17592 C 1695.13 -0.396409 2.03576 0
M  V30 17593 C 1695.55 -1.5138 1.11649 0
M  V30 17594 O 1694.91 -1.80979 0.107774 0
M  V30 17595 C 1694.96 -0.889749 3.49451 0
M  V30 17596 O 1694.06 -1.99997 3.60659 0
M  V30 17597 H 1693.4 -0.0876017 0.658196 0
M  V30 17598 H 1695.93 0.361632 2.01379 0
M  V30 17599 H 1695.94 -1.19526 3.901 0
M  V30 17600 H 1694.62 -0.0720136 4.15838 0
M  V30 17601 H 1693.2 -1.69983 3.31904 0
M  V30 17602 N 1695.38 -1.57561 -0.0350783 0
M  V30 17603 C 1696.33 -2.07246 -1.05602 0
M  V30 17604 C 1697.32 -0.985013 -1.37818 0
M  V30 17605 O 1698.53 -1.16993 -1.36794 0
M  V30 17606 H 1694.9 -0.661286 -0.358057 0
M  V30 17607 H 1696.87 -2.92075 -0.611124 0
M  V30 17608 C 1695.62 -2.56235 -2.3503 0
M  V30 17609 H 1694.95 -3.39525 -2.111 0
M  V30 17610 H 1696.39 -2.94716 -3.04826 0
M  V30 17611 C 1694.85 -1.46096 -3.03575 0
M  V30 17612 O 1695.38 -0.823772 -3.93163 0
M  V30 17613 N 1693.58 -1.19698 -2.64803 0
M  V30 17614 H 1693.13 -1.71697 -1.92036 0
M  V30 17615 H 1693.09 -0.462174 -3.10984 0
M  V30 17616 N 1696.86 0.307236 -1.54576 0
M  V30 17617 C 1697.81 1.3787 -1.85096 0
M  V30 17618 C 1698.78 1.5066 -0.69935 0
M  V30 17619 O 1699.96 1.65618 -0.947373 0
M  V30 17620 C 1697.1 2.73976 -2.09836 0
M  V30 17621 C 1696.21 2.69687 -3.3748 0
M  V30 17622 C 1695.35 3.97746 -3.52096 0
M  V30 17623 C 1694.39 3.87829 -4.73556 0
M  V30 17624 N 1693.52 5.07651 -4.8501 0
M  V30 17625 H 1698.36 1.11144 -2.76498 0
M  V30 17626 H 1695.9 0.537696 -1.36921 0
M  V30 17627 H 1697.86 3.53121 -2.22174 0
M  V30 17628 H 1696.49 2.98977 -1.21707 0
M  V30 17629 H 1695.54 1.82441 -3.33795 0
M  V30 17630 H 1696.85 2.58247 -4.26743 0
M  V30 17631 H 1696.01 4.85327 -3.64065 0
M  V30 17632 H 1694.75 4.12012 -2.60955 0
M  V30 17633 H 1693.75 2.98633 -4.61626 0
M  V30 17634 H 1694.98 3.75114 -5.66098 0
M  V30 17635 H 1692.92 5.22393 -3.9679 0
M  V30 17636 H 1692.84 4.9861 -5.68264 0
M  V30 17637 H 1694.11 5.969 -5.01328 0
M  V30 17638 N 1698.34 1.46926 0.570122 0
M  V30 17639 C 1699.59 1.52151 1.32413 0
M  V30 17640 C 1699.9 0.18291 1.94743 0
M  V30 17641 O 1701.1 0.113045 2.71265 0
M  V30 17642 C 1699.56 2.68153 2.40046 0
M  V30 17643 C 1699.17 4.08487 1.83963 0
M  V30 17644 C 1700.91 2.82659 3.16709 0
M  V30 17645 C 1698.82 5.1581 2.893 0
M  V30 17646 H 1697.75 0.566291 0.497826 0
M  V30 17647 H 1700.4 1.73169 0.607011 0
M  V30 17648 H 1698.78 2.40488 3.14613 0
M  V30 17649 H 1699.96 4.45998 1.15854 0
M  V30 17650 H 1698.27 3.98756 1.19927 0
M  V30 17651 H 1700.87 3.60008 3.95346 0
M  V30 17652 H 1701.21 1.9063 3.70089 0
M  V30 17653 H 1701.74 3.10031 2.4925 0
M  V30 17654 H 1698.48 6.09672 2.40791 0
M  V30 17655 H 1698 4.8283 3.55859 0
M  V30 17656 H 1699.68 5.42201 3.53026 0
M  V30 17657 N 1699.82 -0.815801 1.34842 0
M  V30 17658 C 1701.04 -1.60915 1.30848 0
M  V30 17659 C 1701.47 -1.87758 -0.113345 0
M  V30 17660 O 1700.82 -1.4582 -1.07732 0
M  V30 17661 C 1700.87 -2.92284 2.11192 0
M  V30 17662 O 1699.98 -3.84685 1.48632 0
M  V30 17663 H 1699.32 -0.48913 0.449052 0
M  V30 17664 H 1701.85 -1.01322 1.7775 0
M  V30 17665 H 1701.86 -3.41789 2.2281 0
M  V30 17666 H 1700.53 -2.72071 3.14563 0
M  V30 17667 H 1699.11 -3.43215 1.458 0
M  V30 17668 N 1701.29 -1.18689 -1.03686 0
M  V30 17669 C 1702.24 -0.917369 -2.11785 0
M  V30 17670 C 1703.21 0.144719 -1.65468 0
M  V30 17671 O 1704.4 0.00427016 -1.908 0
M  V30 17672 C 1701.54 -0.453396 -3.42109 0
M  V30 17673 C 1700.65 -1.58134 -4.02017 0
M  V30 17674 C 1699.78 -1.06971 -5.20318 0
M  V30 17675 C 1698.82 -2.17208 -5.72265 0
M  V30 17676 N 1697.96 -1.67411 -6.81849 0
M  V30 17677 H 1702.8 -1.84297 -2.34177 0
M  V30 17678 H 1700.34 -0.918951 -1.14864 0
M  V30 17679 H 1702.29 -0.165843 -4.1687 0
M  V30 17680 H 1700.92 0.435219 -3.19853 0
M  V30 17681 H 1699.98 -1.98429 -3.24546 0
M  V30 17682 H 1701.29 -2.41219 -4.36594 0
M  V30 17683 H 1700.44 -0.736906 -6.02208 0
M  V30 17684 H 1699.18 -0.208487 -4.87254 0
M  V30 17685 H 1698.19 -2.51328 -4.88993 0
M  V30 17686 H 1699.41 -3.03772 -6.07371 0
M  V30 17687 H 1697.36 -0.83584 -6.50653 0
M  V30 17688 H 1697.27 -2.44091 -7.15511 0
M  V30 17689 H 1698.54 -1.3707 -7.67354 0
M  V30 17690 N 1702.77 1.22662 -0.989529 0
M  V30 17691 C 1704.02 1.91322 -0.663497 0
M  V30 17692 C 1704.35 1.77102 0.804057 0
M  V30 17693 O 1703.6 1.13169 1.5966 0
M  V30 17694 C 1703.9 3.428 -1.01109 0
M  V30 17695 C 1703.57 3.77206 -2.47035 0
M  V30 17696 C 1702.23 3.86308 -2.86914 0
M  V30 17697 C 1704.58 3.93617 -3.41636 0
M  V30 17698 C 1701.91 4.09255 -4.20389 0
M  V30 17699 C 1704.26 4.18067 -4.74766 0
M  V30 17700 C 1702.92 4.25392 -5.14391 0
M  V30 17701 H 1702.19 0.700095 -0.242791 0
M  V30 17702 H 1704.84 1.45498 -1.24509 0
M  V30 17703 H 1703.15 3.90256 -0.347533 0
M  V30 17704 H 1704.84 3.94171 -0.736909 0
M  V30 17705 H 1701.43 3.70702 -2.15123 0
M  V30 17706 H 1705.62 3.85966 -3.12 0
M  V30 17707 H 1700.87 4.13152 -4.50683 0
M  V30 17708 H 1705.05 4.29708 -5.48018 0
M  V30 17709 H 1702.67 4.42926 -6.17835 0
M  V30 17710 N 1704.25 0.762308 1.37937 0
M  V30 17711 C 1705.5 0.319104 1.9916 0
M  V30 17712 C 1705.81 -1.10787 1.61201 0
M  V30 17713 O 1707.02 -1.65198 2.15457 0
M  V30 17714 C 1705.47 0.519582 3.5613 0
M  V30 17715 C 1705.08 1.9562 4.03034 0
M  V30 17716 C 1706.83 0.139528 4.24271 0
M  V30 17717 C 1704.73 2.10478 5.52678 0
M  V30 17718 H 1703.66 0.115564 0.745091 0
M  V30 17719 H 1706.31 0.940092 1.5759 0
M  V30 17720 H 1704.7 -0.170724 3.95632 0
M  V30 17721 H 1705.87 2.68069 3.74801 0
M  V30 17722 H 1704.18 2.29197 3.47646 0
M  V30 17723 H 1706.78 0.22918 5.34209 0
M  V30 17724 H 1707.12 -0.908999 4.06255 0
M  V30 17725 H 1707.66 0.782019 3.90038 0
M  V30 17726 H 1704.4 3.13616 5.75609 0
M  V30 17727 H 1703.92 1.42501 5.82626 0
M  V30 17728 H 1705.6 1.89887 6.18508 0
M  V30 17729 N 1705.73 -1.49049 0.51208 0
M  V30 17730 C 1707 -1.95383 -0.0920331 0
M  V30 17731 C 1707.38 -1.4539 -1.53053 0
M  V30 17732 O 1706.73 -0.672485 -2.1838 0
M  V30 17733 C 1706.94 -3.48999 0.00673901 0
M  V30 17734 C 1708.29 -4.24292 -0.161602 0
M  V30 17735 O 1709.31 -3.56135 -0.0679198 0
M  V30 17736 O 1708.17 -5.45343 -0.355351 0
M  V30 17737 H 1705.27 -0.822175 -0.0891992 0
M  V30 17738 H 1707.81 -1.59647 0.575406 0
M  V30 17739 H 1706.59 -3.78055 1.00948 0
M  V30 17740 H 1706.21 -3.91383 -0.700353 0
M  V30 17741 N 1707.21 -0.246397 -1.55662 0
M  V30 17742 C 1708.45 0.372173 -1.99966 0
M  V30 17743 C 1708.81 1.55602 -1.13162 0
M  V30 17744 O 1708.1 1.90685 -0.187055 0
M  V30 17745 C 1708.29 0.832225 -3.47576 0
M  V30 17746 C 1708.12 -0.305503 -4.48661 0
M  V30 17747 C 1706.89 -0.780019 -4.99243 0
M  V30 17748 C 1709.09 -1.13233 -5.0168 0
M  V30 17749 N 1707.07 -1.89021 -5.84076 0
M  V30 17750 C 1708.44 -2.09091 -5.83679 0
M  V30 17751 C 1710.5 -1.16895 -4.83984 0
M  V30 17752 C 1709.2 -3.08321 -6.4987 0
M  V30 17753 C 1711.23 -2.14955 -5.50952 0
M  V30 17754 C 1710.59 -3.09549 -6.32739 0
M  V30 17755 H 1706.69 0.102159 -0.775298 0
M  V30 17756 H 1709.27 -0.363859 -1.9127 0
M  V30 17757 H 1707.44 1.53755 -3.56671 0
M  V30 17758 H 1709.18 1.4257 -3.78756 0
M  V30 17759 H 1705.93 -0.364252 -4.72197 0
M  V30 17760 H 1706.35 -2.44806 -6.31189 0
M  V30 17761 H 1711 -0.45148 -4.20383 0
M  V30 17762 H 1708.71 -3.81017 -7.12637 0
M  V30 17763 H 1712.3 -2.18493 -5.39214 0
M  V30 17764 H 1711.18 -3.84188 -6.83644 0
M  V30 17765 N 1708.68 1.57577 0.026722 0
M  V30 17766 C 1709.61 2.09748 1.02605 0
M  V30 17767 C 1710.59 1.00054 1.37562 0
M  V30 17768 O 1711.78 1.2759 1.46405 0
M  V30 17769 C 1708.91 2.57881 2.32626 0
M  V30 17770 C 1707.86 3.7186 2.11905 0
M  V30 17771 C 1707.19 4.06208 3.47706 0
M  V30 17772 C 1708.49 5.00198 1.50332 0
M  V30 17773 H 1710.18 2.93494 0.591753 0
M  V30 17774 H 1707.73 1.41188 0.283199 0
M  V30 17775 H 1709.68 2.93 3.02868 0
M  V30 17776 H 1708.41 1.71222 2.7812 0
M  V30 17777 H 1707.07 3.37094 1.44096 0
M  V30 17778 H 1706.71 3.16611 3.90853 0
M  V30 17779 H 1706.41 4.82982 3.34667 0
M  V30 17780 H 1707.94 4.43863 4.19306 0
M  V30 17781 H 1709.35 5.33259 2.10494 0
M  V30 17782 H 1707.75 5.81599 1.4786 0
M  V30 17783 H 1708.82 4.82623 0.469405 0
M  V30 17784 N 1710.16 -0.299034 1.54737 0
M  V30 17785 C 1711.11 -1.36887 1.85824 0
M  V30 17786 C 1712.08 -1.50287 0.70733 0
M  V30 17787 O 1713.26 -1.65114 0.956143 0
M  V30 17788 C 1710.4 -2.7286 2.11286 0
M  V30 17789 C 1709.52 -2.67893 3.38906 0
M  V30 17790 C 1708.65 -3.95873 3.542 0
M  V30 17791 C 1707.69 -3.85312 4.75606 0
M  V30 17792 N 1706.83 -5.05072 4.87695 0
M  V30 17793 H 1711.67 -1.09676 2.77083 0
M  V30 17794 H 1709.2 -0.530427 1.37204 0
M  V30 17795 H 1711.16 -3.51938 2.24043 0
M  V30 17796 H 1709.79 -2.98327 1.23291 0
M  V30 17797 H 1708.84 -1.80669 3.34758 0
M  V30 17798 H 1710.16 -2.5598 4.28107 0
M  V30 17799 H 1709.31 -4.83389 3.66633 0
M  V30 17800 H 1708.05 -4.10622 2.63136 0
M  V30 17801 H 1707.05 -2.9618 4.63203 0
M  V30 17802 H 1708.28 -3.72106 5.68079 0
M  V30 17803 H 1706.23 -5.20281 3.99554 0
M  V30 17804 H 1706.14 -4.9559 5.709 0
M  V30 17805 H 1707.41 -5.94233 5.04487 0
M  V30 17806 N 1711.64 -1.47227 -0.562322 0
M  V30 17807 C 1712.55 -1.61953 -1.69731 0
M  V30 17808 C 1713.57 -0.502478 -1.66587 0
M  V30 17809 O 1714.74 -0.769335 -1.86127 0
M  V30 17810 C 1711.81 -1.62539 -3.06238 0
M  V30 17811 C 1710.87 -2.85632 -3.20489 0
M  V30 17812 C 1710.1 -2.86181 -4.50485 0
M  V30 17813 O 1710.32 -1.96099 -5.35632 0
M  V30 17814 O 1709.26 -3.7798 -4.68417 0
M  V30 17815 H 1713.08 -2.5798 -1.6025 0
M  V30 17816 H 1710.67 -1.30253 -0.73174 0
M  V30 17817 H 1712.55 -1.65634 -3.87483 0
M  V30 17818 H 1711.23 -0.696779 -3.16112 0
M  V30 17819 H 1710.13 -2.88084 -2.3866 0
M  V30 17820 H 1711.47 -3.7777 -3.15517 0
M  V30 17821 N 1713.12 0.808639 -1.35273 0
M  V30 17822 C 1714.06 1.92036 -1.28026 0
M  V30 17823 C 1715.03 1.65397 -0.152611 0
M  V30 17824 O 1716.22 1.87819 -0.335972 0
M  V30 17825 C 1713.36 3.28544 -1.05607 0
M  V30 17826 C 1712.47 3.67382 -2.27276 0
M  V30 17827 C 1711.61 4.9291 -1.98024 0
M  V30 17828 C 1710.65 5.2437 -3.15757 0
M  V30 17829 N 1709.78 6.41077 -2.86294 0
M  V30 17830 H 1714.62 1.97567 -2.23095 0
M  V30 17831 H 1712.16 0.966397 -1.10902 0
M  V30 17832 H 1714.12 4.07234 -0.906418 0
M  V30 17833 H 1712.75 3.22487 -0.142015 0
M  V30 17834 H 1711.8 2.83969 -2.53112 0
M  V30 17835 H 1713.11 3.86593 -3.15194 0
M  V30 17836 H 1712.27 5.79421 -1.79877 0
M  V30 17837 H 1711.01 4.7573 -1.07387 0
M  V30 17838 H 1710.01 4.36349 -3.34483 0
M  V30 17839 H 1711.24 5.4348 -4.07193 0
M  V30 17840 H 1709.18 6.25327 -1.98249 0
M  V30 17841 H 1709.1 6.60528 -3.67748 0
M  V30 17842 H 1710.37 7.30622 -2.71684 0
M  V30 17843 N 1714.6 1.19237 1.03055 0
M  V30 17844 C 1715.85 0.988287 1.75829 0
M  V30 17845 C 1716.16 -0.481903 1.89571 0
M  V30 17846 O 1717.36 -0.804762 2.59299 0
M  V30 17847 C 1715.82 1.71934 3.16175 0
M  V30 17848 C 1715.43 3.22952 3.10493 0
M  V30 17849 C 1717.17 1.59844 3.93256 0
M  V30 17850 C 1715.08 3.88654 4.4576 0
M  V30 17851 H 1714.01 0.366153 0.659127 0
M  V30 17852 H 1716.66 1.42716 1.15345 0
M  V30 17853 H 1715.04 1.20828 3.77116 0
M  V30 17854 H 1716.22 3.81163 2.58943 0
M  V30 17855 H 1714.53 3.35298 2.46909 0
M  V30 17856 H 1717.13 2.06283 4.93307 0
M  V30 17857 H 1717.47 0.552317 4.1262 0
M  V30 17858 H 1718 2.08286 3.38913 0
M  V30 17859 H 1714.74 4.93357 4.31601 0
M  V30 17860 H 1714.26 3.35231 4.97373 0
M  V30 17861 H 1715.94 3.92104 5.14649 0
M  V30 17862 N 1716.07 -1.22136 0.99602 0
M  V30 17863 C 1717.32 -1.9028 0.66907 0
M  V30 17864 C 1717.64 -1.7837 -0.802717 0
M  V30 17865 O 1718.84 -2.41458 -1.24138 0
M  V30 17866 C 1717.3 -3.4116 1.1462 0
M  V30 17867 C 1716.91 -3.617 2.64343 0
M  V30 17868 C 1718.65 -4.14985 0.893718 0
M  V30 17869 C 1716.56 -5.06297 3.05642 0
M  V30 17870 H 1715.49 -0.71255 0.246554 0
M  V30 17871 H 1718.14 -1.38304 1.20599 0
M  V30 17872 H 1716.52 -3.92337 0.537378 0
M  V30 17873 H 1717.69 -3.21002 3.30597 0
M  V30 17874 H 1716.01 -3.01212 2.87507 0
M  V30 17875 H 1718.61 -5.21564 1.17794 0
M  V30 17876 H 1718.95 -4.15952 -0.17013 0
M  V30 17877 H 1719.48 -3.69846 1.46488 0
M  V30 17878 H 1716.22 -5.10472 4.11216 0
M  V30 17879 H 1715.74 -5.47885 2.44094 0
M  V30 17880 H 1717.42 -5.74743 2.97118 0
M  V30 17881 N 1717.55 -0.769612 -1.37531 0
M  V30 17882 C 1718.96 -0.398644 -1.82394 0
M  V30 17883 C 1719.31 1.07493 -1.64133 0
M  V30 17884 O 1718.44 1.83234 -1.15127 0
M  V30 17885 C 1719.03 -0.716789 -3.31131 0
M  V30 17886 C 1717.59 -0.398903 -3.7428 0
M  V30 17887 C 1716.74 -0.96173 -2.60089 0
M  V30 17888 H 1719.69 -0.964441 -1.26033 0
M  V30 17889 H 1719.71 -0.00067688 -3.805 0
M  V30 17890 H 1719.22 -1.78933 -3.4439 0
M  V30 17891 H 1717.33 0.666412 -3.66592 0
M  V30 17892 H 1717.44 -0.90566 -4.70462 0
M  V30 17893 H 1715.8 -0.386103 -2.51757 0
M  V30 17894 H 1716.59 -2.03963 -2.76141 0
M  V30 17895 N 1719.03 1.48775 -0.519977 0
M  V30 17896 C 1719.96 2.27418 0.285222 0
M  V30 17897 C 1720.98 1.34753 0.91354 0
M  V30 17898 O 1722.16 1.59885 0.793672 0
M  V30 17899 C 1719.26 3.07799 1.41821 0
M  V30 17900 C 1718.44 4.28173 0.893682 0
M  V30 17901 C 1717.5 4.90445 1.90658 0
M  V30 17902 O 1716.52 5.49957 1.46751 0
M  V30 17903 N 1717.72 4.8179 3.23819 0
M  V30 17904 H 1720.49 2.97162 -0.38921 0
M  V30 17905 H 1718.05 1.5799 -0.353684 0
M  V30 17906 H 1720.04 3.46329 2.09377 0
M  V30 17907 H 1718.61 2.4054 1.99648 0
M  V30 17908 H 1717.83 3.94177 0.0424379 0
M  V30 17909 H 1719.12 5.06116 0.521952 0
M  V30 17910 H 1718.52 4.34573 3.62164 0
M  V30 17911 H 1717.08 5.2445 3.87035 0
M  V30 17912 N 1720.51 0.254649 1.55529 0
M  V30 17913 C 1721.47 -0.62836 2.20418 0
M  V30 17914 C 1722.47 -1.09691 1.17578 0
M  V30 17915 O 1723.66 -1.00037 1.42612 0
M  V30 17916 C 1720.79 -1.86453 2.85391 0
M  V30 17917 H 1721.99 -0.0621032 2.99836 0
M  V30 17918 H 1719.54 0.00514311 1.56299 0
M  V30 17919 H 1720.27 -2.47182 2.09932 0
M  V30 17920 H 1720.06 -1.53669 3.60733 0
M  V30 17921 H 1721.55 -2.49291 3.35028 0
M  V30 17922 N 1721.99 -1.57589 -0.0183649 0
M  V30 17923 C 1723.4 -1.55152 -0.374183 0
M  V30 17924 C 1723.6 -0.98217 -1.75942 0
M  V30 17925 O 1722.66 -0.607905 -2.45073 0
M  V30 17926 C 1723.97 -2.99519 -0.266231 0
M  V30 17927 C 1725.52 -3.1112 -0.342527 0
M  V30 17928 C 1725.99 -4.57239 -0.263905 0
M  V30 17929 N 1727.49 -4.62077 -0.322372 0
M  V30 17930 C 1728.22 -5.72693 -0.284594 0
M  V30 17931 N 1727.72 -6.92516 -0.198482 0
M  V30 17932 N 1729.51 -5.611 -0.335111 0
M  V30 17933 H 1721.66 -1.92945 0.888033 0
M  V30 17934 H 1723.92 -0.885432 0.338695 0
M  V30 17935 H 1723.63 -3.44942 0.686123 0
M  V30 17936 H 1723.5 -3.62127 -1.05565 0
M  V30 17937 H 1725.89 -2.65638 -1.28532 0
M  V30 17938 H 1725.97 -2.51324 0.476435 0
M  V30 17939 H 1725.62 -5.03391 0.675263 0
M  V30 17940 H 1725.55 -5.14959 -1.10111 0
M  V30 17941 H 1728.04 -3.75872 -0.391004 0
M  V30 17942 H 1728.35 -7.72602 -0.175048 0
M  V30 17943 H 1726.69 -6.94806 -0.164374 0
M  V30 17944 H 1729.89 -4.66384 -0.400452 0
M  V30 17945 H 1730.06 -6.47295 -0.302203 0
M  V30 17946 N 1723.46 0.290824 -1.54893 0
M  V30 17947 C 1724.74 1.04495 -1.65348 0
M  V30 17948 C 1725.12 2.04888 -0.508348 0
M  V30 17949 O 1724.47 2.23102 0.493749 0
M  V30 17950 C 1724.68 1.71772 -3.03801 0
M  V30 17951 C 1726.03 2.23595 -3.60958 0
M  V30 17952 O 1727.05 1.81788 -3.06319 0
M  V30 17953 O 1725.91 3.00225 -4.56648 0
M  V30 17954 H 1723 0.483605 -0.670862 0
M  V30 17955 H 1725.55 0.288101 -1.67237 0
M  V30 17956 H 1724.32 0.989296 -3.78588 0
M  V30 17957 H 1723.95 2.54188 -3.05735 0
M  V30 17958 N 1724.94 1.47523 0.554506 0
M  V30 17959 C 1725.89 1.60213 1.66134 0
M  V30 17960 C 1726.86 0.445051 1.60027 0
M  V30 17961 O 1728.04 0.665449 1.7882 0
M  V30 17962 C 1725.18 1.62491 3.04452 0
M  V30 17963 C 1724.3 2.89134 3.20976 0
M  V30 17964 C 1723.43 2.82731 4.49707 0
M  V30 17965 C 1722.47 4.04187 4.59673 0
M  V30 17966 N 1721.61 3.96004 5.79763 0
M  V30 17967 H 1726.45 2.54744 1.54626 0
M  V30 17968 H 1723.99 1.26355 0.753189 0
M  V30 17969 H 1725.94 1.61795 3.84549 0
M  V30 17970 H 1724.57 0.714698 3.14789 0
M  V30 17971 H 1723.63 2.99685 2.34292 0
M  V30 17972 H 1724.94 3.79069 3.24203 0
M  V30 17973 H 1724.09 2.80299 5.38068 0
M  V30 17974 H 1722.83 1.90483 4.48963 0
M  V30 17975 H 1721.84 4.06921 3.69724 0
M  V30 17976 H 1723.06 4.97565 4.62175 0
M  V30 17977 H 1721.01 3.06561 5.79962 0
M  V30 17978 H 1720.92 4.7962 5.8438 0
M  V30 17979 H 1722.19 3.97593 6.70478 0
M  V30 17980 N 1726.42 -0.801453 1.357 0
M  V30 17981 C 1727.35 -1.92807 1.31711 0
M  V30 17982 C 1728.33 -1.69028 0.190642 0
M  V30 17983 O 1729.52 -1.90317 0.38641 0
M  V30 17984 C 1726.65 -3.29635 1.09352 0
M  V30 17985 C 1725.6 -3.67908 2.18695 0
M  V30 17986 C 1724.93 -5.02955 1.81494 0
M  V30 17987 C 1726.23 -3.77749 3.60698 0
M  V30 17988 H 1727.92 -1.96401 2.2598 0
M  V30 17989 H 1725.47 -0.943528 1.08782 0
M  V30 17990 H 1727.42 -4.08058 1.052 0
M  V30 17991 H 1726.14 -3.26396 0.115306 0
M  V30 17992 H 1724.8 -2.91775 2.21952 0
M  V30 17993 H 1724.45 -4.96225 0.822776 0
M  V30 17994 H 1724.15 -5.29533 2.54692 0
M  V30 17995 H 1725.67 -5.83811 1.78876 0
M  V30 17996 H 1727.09 -4.4639 3.59734 0
M  V30 17997 H 1725.49 -4.15801 4.327 0
M  V30 17998 H 1726.56 -2.79167 3.96477 0
M  V30 17999 N 1727.9 -1.19782 -1.02421 0
M  V30 18000 C 1728.81 -0.955253 -2.14271 0
M  V30 18001 C 1729.82 0.0863233 -1.73786 0
M  V30 18002 O 1731 -0.0993878 -2.01155 0
M  V30 18003 C 1728.07 -0.502219 -3.43043 0
M  V30 18004 C 1727.13 -1.61374 -3.97815 0
M  V30 18005 C 1726.36 -1.18223 -5.20441 0
M  V30 18006 O 1726.58 -0.0477334 -5.7038 0
M  V30 18007 O 1725.52 -1.98664 -5.68169 0
M  V30 18008 H 1729.34 -1.89157 -2.37599 0
M  V30 18009 H 1726.93 -0.981035 -1.12677 0
M  V30 18010 H 1728.81 -0.258445 -4.20607 0
M  V30 18011 H 1727.48 0.4056 -3.21149 0
M  V30 18012 H 1726.39 -1.91172 -3.21565 0
M  V30 18013 H 1727.72 -2.49829 -4.24083 0
M  V30 18014 N 1729.38 1.21606 -1.00248 0
M  V30 18015 C 1730.62 1.90607 -0.683752 0
M  V30 18016 C 1730.95 1.77945 0.785228 0
M  V30 18017 O 1730.21 1.14856 1.58451 0
M  V30 18018 C 1730.51 3.41708 -1.04739 0
M  V30 18019 C 1730.17 3.74565 -2.51022 0
M  V30 18020 C 1728.83 3.83243 -2.90995 0
M  V30 18021 C 1731.19 3.89971 -3.45792 0
M  V30 18022 C 1728.51 4.04773 -4.24707 0
M  V30 18023 C 1730.87 4.13008 -4.79174 0
M  V30 18024 C 1729.53 4.19912 -5.18874 0
M  V30 18025 H 1728.8 0.697481 -0.250203 0
M  V30 18026 H 1731.45 1.4417 -1.26045 0
M  V30 18027 H 1729.75 3.89865 -0.388905 0
M  V30 18028 H 1731.45 3.93367 -0.778675 0
M  V30 18029 H 1728.04 3.68399 -2.19043 0
M  V30 18030 H 1732.22 3.82635 -3.16076 0
M  V30 18031 H 1727.48 4.08349 -4.5504 0
M  V30 18032 H 1731.65 4.23871 -5.52545 0
M  V30 18033 H 1729.28 4.36348 -6.22499 0
M  V30 18034 N 1730.86 0.776895 1.37121 0
M  V30 18035 C 1732.1 0.344063 1.9986 0
M  V30 18036 C 1732.43 -1.07806 1.61529 0
M  V30 18037 O 1731.71 -1.74258 0.863963 0
M  V30 18038 C 1731.99 0.493512 3.56702 0
M  V30 18039 C 1731.85 1.95842 4.04927 0
M  V30 18040 C 1733.16 -0.099097 4.39988 0
M  V30 18041 H 1730.28 0.126489 0.726064 0
M  V30 18042 H 1732.93 0.980899 1.62722 0
M  V30 18043 H 1731.08 -0.0486344 3.8847 0
M  V30 18044 H 1732.75 2.56067 3.83702 0
M  V30 18045 H 1730.99 2.46544 3.56929 0
M  V30 18046 H 1731.66 2.01402 5.13947 0
M  V30 18047 H 1734.14 0.363545 4.14509 0
M  V30 18048 H 1733.01 0.0355748 5.48888 0
M  V30 18049 H 1733.27 -1.18995 4.25785 0
M  V30 18050 N 1732.33 -1.48497 0.527859 0
M  V30 18051 C 1733.56 -2.069 -0.00302594 0
M  V30 18052 C 1733.98 -1.38469 -1.28342 0
M  V30 18053 O 1733.33 -0.471524 -1.76303 0
M  V30 18054 C 1733.38 -3.60749 -0.232871 0
M  V30 18055 O 1733.11 -4.26609 0.996797 0
M  V30 18056 C 1734.61 -4.35941 -0.804376 0
M  V30 18057 H 1731.83 -0.67021 0.0325559 0
M  V30 18058 H 1734.37 -1.90916 0.732897 0
M  V30 18059 H 1732.53 -3.76346 -0.918837 0
M  V30 18060 H 1732.94 -5.18725 0.776217 0
M  V30 18061 H 1734.41 -5.4437 -0.914635 0
M  V30 18062 H 1734.89 -4.00225 -1.80876 0
M  V30 18063 H 1735.5 -4.25017 -0.155041 0
M  V30 18064 N 1733.81 -0.262893 -1.55392 0
M  V30 18065 C 1734.76 0.629853 -2.22039 0
M  V30 18066 C 1735.73 1.15915 -1.18966 0
M  V30 18067 O 1736.91 1.21069 -1.47468 0
M  V30 18068 C 1734.05 1.8138 -2.9359 0
M  V30 18069 C 1733.17 1.31952 -4.11355 0
M  V30 18070 C 1732.3 2.4643 -4.7058 0
M  V30 18071 C 1731.34 1.93944 -5.80562 0
M  V30 18072 N 1730.48 3.01848 -6.33902 0
M  V30 18073 H 1735.32 0.0548473 -2.9795 0
M  V30 18074 H 1732.85 0.0153072 -1.47092 0
M  V30 18075 H 1734.81 2.50955 -3.33283 0
M  V30 18076 H 1733.44 2.36103 -2.20125 0
M  V30 18077 H 1732.49 0.517281 -3.76866 0
M  V30 18078 H 1733.81 0.894993 -4.90705 0
M  V30 18079 H 1732.96 3.2402 -5.12929 0
M  V30 18080 H 1731.7 2.92193 -3.9048 0
M  V30 18081 H 1730.7 1.1483 -5.37675 0
M  V30 18082 H 1731.93 1.49132 -6.62523 0
M  V30 18083 H 1729.88 3.47015 -5.56701 0
M  V30 18084 H 1729.79 2.63775 -7.08491 0
M  V30 18085 H 1731.06 3.79449 -6.8091 0
M  V30 18086 N 1735.29 1.57597 0.0100073 0
M  V30 18087 C 1736.22 2.10825 1.00375 0
M  V30 18088 C 1737.2 1.01507 1.36493 0
M  V30 18089 O 1738.39 1.29136 1.45043 0
M  V30 18090 C 1735.52 2.60334 2.29878 0
M  V30 18091 C 1734.47 3.74087 2.07949 0
M  V30 18092 C 1733.8 4.09873 3.43378 0
M  V30 18093 C 1735.1 5.01764 1.45018 0
M  V30 18094 H 1736.79 2.94105 0.560591 0
M  V30 18095 H 1734.34 1.4148 0.268208 0
M  V30 18096 H 1736.29 2.96196 2.99743 0
M  V30 18097 H 1735.01 1.74162 2.76288 0
M  V30 18098 H 1733.67 3.38603 1.40512 0
M  V30 18099 H 1733.32 3.20739 3.87473 0
M  V30 18100 H 1733.02 4.86505 3.29525 0
M  V30 18101 H 1734.54 4.48285 4.14575 0
M  V30 18102 H 1735.96 5.35462 2.04826 0
M  V30 18103 H 1734.35 5.83135 1.41683 0
M  V30 18104 H 1735.42 4.83093 0.41819 0
M  V30 18105 N 1736.77 -0.282606 1.55045 0
M  V30 18106 C 1737.71 -1.34908 1.87266 0
M  V30 18107 C 1738.68 -1.49528 0.72323 0
M  V30 18108 O 1739.87 -1.6409 0.973602 0
M  V30 18109 C 1737.01 -2.70603 2.14168 0
M  V30 18110 C 1736.12 -2.64284 3.41728 0
M  V30 18111 C 1735.26 -3.92094 3.58379 0
M  V30 18112 C 1734.3 -3.80246 4.79666 0
M  V30 18113 N 1733.43 -4.99871 4.93025 0
M  V30 18114 H 1738.27 -1.06731 2.78231 0
M  V30 18115 H 1735.81 -0.515845 1.37759 0
M  V30 18116 H 1737.77 -3.49542 2.27763 0
M  V30 18117 H 1736.4 -2.97003 1.26448 0
M  V30 18118 H 1735.45 -1.77108 3.36656 0
M  V30 18119 H 1736.76 -2.51425 4.30798 0
M  V30 18120 H 1735.92 -4.79473 3.7174 0
M  V30 18121 H 1734.66 -4.07808 2.67476 0
M  V30 18122 H 1733.66 -2.91251 4.66319 0
M  V30 18123 H 1734.89 -3.6606 5.71994 0
M  V30 18124 H 1732.83 -5.16014 4.0505 0
M  V30 18125 H 1732.75 -4.89507 5.76124 0
M  V30 18126 H 1734.02 -5.88849 5.10761 0
M  V30 18127 N 1738.25 -1.47815 -0.546675 0
M  V30 18128 C 1739.18 -1.57161 -1.66832 0
M  V30 18129 C 1740.19 -0.457035 -1.56253 0
M  V30 18130 O 1741.38 -0.727134 -1.63018 0
M  V30 18131 C 1738.48 -1.4697 -3.05374 0
M  V30 18132 C 1737.65 -2.7318 -3.41602 0
M  V30 18133 C 1736.71 -2.56676 -4.59351 0
M  V30 18134 O 1735.74 -3.30521 -4.63405 0
M  V30 18135 N 1736.94 -1.65194 -5.56499 0
M  V30 18136 H 1739.7 -2.53885 -1.59257 0
M  V30 18137 H 1737.27 -1.44328 -0.733565 0
M  V30 18138 H 1739.26 -1.33649 -3.81995 0
M  V30 18139 H 1737.83 -0.582878 -3.07118 0
M  V30 18140 H 1737.05 -3.01186 -2.54323 0
M  V30 18141 H 1738.34 -3.56945 -3.62585 0
M  V30 18142 H 1737.73 -1.04369 -5.55989 0
M  V30 18143 H 1736.29 -1.57819 -6.32405 0
M  V30 18144 N 1739.72 0.794246 -1.36123 0
M  V30 18145 C 1740.65 1.92105 -1.32732 0
M  V30 18146 C 1741.63 1.68925 -0.199603 0
M  V30 18147 O 1742.82 1.90109 -0.396498 0
M  V30 18148 C 1739.95 3.29051 -1.11098 0
M  V30 18149 C 1738.9 3.66743 -2.20643 0
M  V30 18150 C 1738.23 5.01986 -1.84159 0
M  V30 18151 C 1739.53 3.75831 -3.62696 0
M  V30 18152 H 1741.22 1.952 -2.27018 0
M  V30 18153 H 1738.77 0.937746 -1.09281 0
M  V30 18154 H 1740.72 4.07494 -1.07362 0
M  V30 18155 H 1739.45 3.26331 -0.132614 0
M  V30 18156 H 1738.11 2.90594 -2.23497 0
M  V30 18157 H 1737.75 4.95782 -0.849081 0
M  V30 18158 H 1737.45 5.28175 -2.57497 0
M  V30 18159 H 1738.98 5.82855 -1.8197 0
M  V30 18160 H 1740.39 4.44476 -3.62096 0
M  V30 18161 H 1738.79 4.135 -4.34899 0
M  V30 18162 H 1739.86 2.7706 -3.97952 0
M  V30 18163 N 1741.2 1.20323 1.01785 0
M  V30 18164 C 1742.11 0.966603 2.13761 0
M  V30 18165 C 1743.13 -0.0771059 1.73829 0
M  V30 18166 O 1744.3 0.110054 2.01099 0
M  V30 18167 C 1741.37 0.520405 3.42772 0
M  V30 18168 C 1740.43 1.63482 3.96954 0
M  V30 18169 C 1739.66 1.20981 5.19807 0
M  V30 18170 O 1739.89 0.0779814 5.70347 0
M  V30 18171 O 1738.82 2.01674 5.67108 0
M  V30 18172 H 1742.65 1.90414 2.36593 0
M  V30 18173 H 1740.23 0.986997 1.12155 0
M  V30 18174 H 1742.11 0.280747 4.20464 0
M  V30 18175 H 1740.79 -0.388563 3.21359 0
M  V30 18176 H 1739.69 1.92874 3.20547 0
M  V30 18177 H 1741.03 2.52074 4.22752 0
M  V30 18178 N 1742.68 -1.21073 1.00892 0
M  V30 18179 C 1743.61 -2.22257 0.517418 0
M  V30 18180 C 1744.59 -1.56784 -0.430997 0
M  V30 18181 O 1745.77 -1.85169 -0.3528 0
M  V30 18182 C 1742.9 -3.37791 -0.24795 0
M  V30 18183 C 1741.95 -4.21535 0.648856 0
M  V30 18184 S 1742.78 -4.92026 2.11355 0
M  V30 18185 C 1743.94 -6.10987 1.35813 0
M  V30 18186 H 1744.17 -2.63604 1.37479 0
M  V30 18187 H 1741.7 -1.31002 0.817177 0
M  V30 18188 H 1743.66 -4.04771 -0.683454 0
M  V30 18189 H 1742.32 -2.9492 -1.08079 0
M  V30 18190 H 1741.51 -5.03965 0.0591083 0
M  V30 18191 H 1741.12 -3.59771 1.0218 0
M  V30 18192 H 1743.41 -6.74526 0.634079 0
M  V30 18193 H 1744.35 -6.74406 2.15829 0
M  V30 18194 H 1744.76 -5.57843 0.864381 0
M  V30 18195 N 1744.16 -0.784156 -1.36707 0
M  V30 18196 C 1745.09 -0.193081 -2.327 0
M  V30 18197 C 1746.07 0.668999 -1.56392 0
M  V30 18198 O 1747.25 0.603908 -1.84571 0
M  V30 18199 C 1744.38 0.677092 -3.40636 0
M  V30 18200 C 1743.34 -0.0846718 -4.27916 0
M  V30 18201 C 1742.66 0.905754 -5.26973 0
M  V30 18202 C 1743.96 -1.27085 -5.06603 0
M  V30 18203 H 1745.66 -0.995029 -2.82382 0
M  V30 18204 H 1743.2 -0.479929 -1.35767 0
M  V30 18205 H 1745.16 1.1005 -4.06776 0
M  V30 18206 H 1743.88 1.51169 -2.89509 0
M  V30 18207 H 1742.54 -0.488992 -3.63324 0
M  V30 18208 H 1742.19 1.73524 -4.72121 0
M  V30 18209 H 1741.89 0.400524 -5.86233 0
M  V30 18210 H 1743.41 1.32784 -5.95987 0
M  V30 18211 H 1744.83 -0.923469 -5.65814 0
M  V30 18212 H 1743.22 -1.70901 -5.7525 0
M  V30 18213 H 1744.29 -2.06882 -4.38552 0
M  V30 18214 N 1745.64 1.48215 -0.535727 0
M  V30 18215 C 1746.55 2.33494 0.227577 0
M  V30 18216 C 1747.56 1.4685 0.933327 0
M  V30 18217 O 1748.74 1.7982 0.907008 0
M  V30 18218 C 1745.8 3.23092 1.25747 0
M  V30 18219 C 1744.86 4.25613 0.561454 0
M  V30 18220 C 1744.1 5.1093 1.54228 0
M  V30 18221 O 1744.32 4.98325 2.77539 0
M  V30 18222 O 1743.25 5.92158 1.07852 0
M  V30 18223 H 1747.08 3.0002 -0.471375 0
M  V30 18224 H 1744.67 1.46427 -0.296579 0
M  V30 18225 H 1746.55 3.78498 1.8525 0
M  V30 18226 H 1745.22 2.5922 1.93872 0
M  V30 18227 H 1744.13 3.74026 -0.0742194 0
M  V30 18228 H 1745.46 4.92138 -0.0779649 0
M  V30 18229 N 1747.11 0.27113 1.5525 0
M  V30 18230 C 1748.06 -0.634087 2.2379 0
M  V30 18231 C 1749.06 -1.16101 1.23357 0
M  V30 18232 O 1750.26 -1.1151 1.413 0
M  V30 18233 H 1746.64 -0.223023 0.718168 0
M  V30 18234 H 1748.61 -0.0331304 2.98382 0
M  V30 18235 C 1747.36 -1.80879 2.96948 0
M  V30 18236 H 1746.68 -1.41252 3.74016 0
M  V30 18237 H 1748.12 -2.41888 3.48233 0
M  V30 18238 C 1746.58 -2.69481 2.02192 0
M  V30 18239 O 1747.11 -3.69725 1.57056 0
M  V30 18240 N 1745.32 -2.36565 1.68776 0
M  V30 18241 H 1744.86 -1.55096 2.05677 0
M  V30 18242 H 1744.82 -2.96119 1.05646 0
M  V30 18243 N 1748.59 -1.576 -0.00164943 0
M  V30 18244 C 1749.52 -2.05167 -1.02173 0
M  V30 18245 C 1750.54 -0.969293 -1.308 0
M  V30 18246 O 1751.73 -1.24612 -1.27805 0
M  V30 18247 C 1748.83 -2.43525 -2.35688 0
M  V30 18248 C 1748 -3.74475 -2.26025 0
M  V30 18249 C 1747.06 -3.99719 -3.42215 0
M  V30 18250 O 1746.08 -4.70408 -3.20476 0
M  V30 18251 N 1747.29 -3.47486 -4.65009 0
M  V30 18252 H 1750.05 -2.93299 -0.616095 0
M  V30 18253 H 1747.61 -1.60792 -0.189066 0
M  V30 18254 H 1749.6 -2.57528 -3.12188 0
M  V30 18255 H 1748.17 -1.6092 -2.67999 0
M  V30 18256 H 1747.39 -3.70564 -1.34447 0
M  V30 18257 H 1748.68 -4.60328 -2.16739 0
M  V30 18258 H 1748.08 -2.9024 -4.85569 0
M  V30 18259 H 1746.64 -3.66822 -5.38781 0
M  V30 18260 N 1750.07 0.274379 -1.55193 0
M  V30 18261 C 1751.32 1.00394 -1.7494 0
M  V30 18262 C 1751.63 1.87499 -0.557084 0
M  V30 18263 O 1752.84 2.63923 -0.636936 0
M  V30 18264 C 1751.29 1.83489 -3.09612 0
M  V30 18265 C 1750.9 1.01257 -4.36407 0
M  V30 18266 C 1752.65 2.55883 -3.38709 0
M  V30 18267 C 1750.55 1.83782 -5.62119 0
M  V30 18268 H 1749.48 0.378561 -0.65208 0
M  V30 18269 H 1752.13 0.259678 -1.81653 0
M  V30 18270 H 1750.52 2.62005 -2.96933 0
M  V30 18271 H 1751.69 0.27167 -4.59998 0
M  V30 18272 H 1750.01 0.403235 -4.14443 0
M  V30 18273 H 1752.6 3.18028 -4.2984 0
M  V30 18274 H 1752.95 3.26096 -2.58779 0
M  V30 18275 H 1753.48 1.84398 -3.5248 0
M  V30 18276 H 1750.22 1.17992 -6.44793 0
M  V30 18277 H 1749.74 2.55473 -5.42673 0
M  V30 18278 H 1751.42 2.41181 -6.00367 0
M  V30 18279 N 1751.55 1.48103 0.538828 0
M  V30 18280 C 1752.51 1.61495 1.62641 0
M  V30 18281 C 1753.51 0.488792 1.53191 0
M  V30 18282 O 1754.7 0.754355 1.57019 0
M  V30 18283 C 1751.83 1.57681 3.02241 0
M  V30 18284 H 1753.03 2.58462 1.5211 0
M  V30 18285 H 1750.58 1.36567 0.760201 0
M  V30 18286 H 1751.31 0.621583 3.18287 0
M  V30 18287 H 1751.1 2.3943 3.10509 0
M  V30 18288 H 1752.59 1.70228 3.81329 0
M  V30 18289 N 1753.03 -0.787016 1.36542 0
M  V30 18290 C 1754.25 -1.57588 1.34065 0
M  V30 18291 C 1754.67 -1.88641 -0.0775397 0
M  V30 18292 O 1754.03 -1.50306 -1.03511 0
M  V30 18293 C 1754.08 -2.89543 2.16442 0
M  V30 18294 O 1753.8 -2.59828 3.52734 0
M  V30 18295 C 1755.3 -3.83838 2.21773 0
M  V30 18296 H 1752.52 -0.488708 0.459789 0
M  V30 18297 H 1755.06 -0.976614 1.79673 0
M  V30 18298 H 1753.22 -3.45933 1.74383 0
M  V30 18299 H 1753.63 -3.44219 3.95744 0
M  V30 18300 H 1755.11 -4.73478 2.83765 0
M  V30 18301 H 1755.58 -4.21862 1.22185 0
M  V30 18302 H 1756.19 -3.33381 2.64078 0
M  V30 18303 N 1754.5 -1.20861 -1.01145 0
M  V30 18304 C 1755.75 -1.01613 -1.74234 0
M  V30 18305 C 1756.07 0.451683 -1.90313 0
M  V30 18306 O 1757.27 0.763408 -2.60546 0
M  V30 18307 C 1755.73 -1.76942 -3.134 0
M  V30 18308 C 1755.34 -3.27851 -3.05316 0
M  V30 18309 C 1757.08 -1.6608 -3.90663 0
M  V30 18310 C 1754.99 -3.95696 -4.39521 0
M  V30 18311 H 1753.92 -0.376593 -0.653218 0
M  V30 18312 H 1756.57 -1.44533 -1.1306 0
M  V30 18313 H 1754.95 -1.26812 -3.75146 0
M  V30 18314 H 1756.12 -3.85234 -2.52846 0
M  V30 18315 H 1754.44 -3.39184 -2.41543 0
M  V30 18316 H 1757.04 -2.14105 -4.89963 0
M  V30 18317 H 1757.38 -0.617892 -4.11689 0
M  V30 18318 H 1757.91 -2.13652 -3.35556 0
M  V30 18319 H 1754.65 -5.00161 -4.23697 0
M  V30 18320 H 1754.17 -3.43102 -4.91977 0
M  V30 18321 H 1755.85 -4.00242 -5.08346 0
M  V30 18322 N 1755.98 1.20536 -1.01532 0
M  V30 18323 C 1756.93 2.21134 -0.555309 0
M  V30 18324 C 1757.92 1.56135 0.388663 0
M  V30 18325 O 1759.11 1.75728 0.211835 0
M  V30 18326 C 1756.24 3.43135 0.106298 0
M  V30 18327 C 1755.32 4.15303 -0.859306 0
M  V30 18328 N 1755.71 4.63873 -2.01631 0
M  V30 18329 C 1754.01 4.40788 -0.679859 0
M  V30 18330 C 1754.71 5.19143 -2.62422 0
M  V30 18331 N 1753.69 5.0913 -1.90494 0
M  V30 18332 H 1757.49 2.56351 -1.4374 0
M  V30 18333 H 1755.01 1.36458 -0.880503 0
M  V30 18334 H 1757 4.14427 0.453392 0
M  V30 18335 H 1755.66 3.09423 0.984242 0
M  V30 18336 H 1756.67 4.59128 -2.39629 0
M  V30 18337 H 1753.35 4.1723 0.150137 0
M  V30 18338 H 1754.74 5.67108 -3.60331 0
M  V30 18339 N 1757.46 0.791395 1.36289 0
M  V30 18340 C 1758.39 0.149076 2.28715 0
M  V30 18341 C 1759.41 -0.642827 1.49571 0
M  V30 18342 O 1760.59 -0.477685 1.7199 0
M  V30 18343 C 1757.69 -0.811868 3.29032 0
M  V30 18344 C 1756.87 -0.0695975 4.37345 0
M  V30 18345 C 1755.93 -0.946776 5.17612 0
M  V30 18346 O 1754.95 -0.403295 5.67769 0
M  V30 18347 N 1756.15 -2.27079 5.34243 0
M  V30 18348 H 1758.92 0.943005 2.84478 0
M  V30 18349 H 1756.48 0.645479 1.48476 0
M  V30 18350 H 1758.47 -1.40257 3.79618 0
M  V30 18351 H 1757.04 -1.50667 2.73895 0
M  V30 18352 H 1756.26 0.702196 3.87895 0
M  V30 18353 H 1757.55 0.442542 5.06872 0
M  V30 18354 H 1756.95 -2.73646 4.9511 0
M  V30 18355 H 1755.51 -2.81109 5.88065 0
M  V30 18356 N 1758.94 -1.47929 0.54358 0
M  V30 18357 C 1760.16 -2.07393 0.0168905 0
M  V30 18358 C 1760.59 -1.39557 -1.26117 0
M  V30 18359 O 1759.95 -0.465983 -1.75209 0
M  V30 18360 C 1760 -3.6017 -0.176105 0
M  V30 18361 O 1759.1 -3.9326 -1.24178 0
M  V30 18362 H 1758.44 -0.662459 0.0452126 0
M  V30 18363 H 1760.97 -1.90145 0.755376 0
M  V30 18364 H 1760.98 -4.06088 -0.394555 0
M  V30 18365 H 1759.66 -4.08944 0.757445 0
M  V30 18366 H 1758.23 -3.59105 -1.0049 0
M  V30 18367 N 1760.42 -0.27936 -1.55104 0
M  V30 18368 C 1761.66 0.337344 -2.01597 0
M  V30 18369 C 1762.02 1.52732 -1.16348 0
M  V30 18370 O 1763.22 2.21394 -1.5244 0
M  V30 18371 C 1761.49 0.705839 -3.50361 0
M  V30 18372 S 1763.05 1.30847 -4.18837 0
M  V30 18373 H 1759.87 0.104703 -0.703248 0
M  V30 18374 H 1762.47 -0.402184 -1.91318 0
M  V30 18375 H 1761.18 -0.169038 -4.10052 0
M  V30 18376 H 1760.71 1.47672 -3.64632 0
M  V30 18377 H 1762.72 2.59696 -4.22815 0
M  V30 18378 N 1761.9 1.57599 -0.0067085 0
M  V30 18379 C 1763.31 1.78864 0.535202 0
M  V30 18380 C 1763.66 0.914793 1.73568 0
M  V30 18381 O 1762.78 0.119075 2.16072 0
M  V30 18382 C 1763.38 3.24386 0.977709 0
M  V30 18383 C 1761.94 3.46725 1.46488 0
M  V30 18384 C 1761.08 2.74114 0.419171 0
M  V30 18385 H 1764.03 1.56982 -0.232853 0
M  V30 18386 H 1764.06 3.32867 1.84336 0
M  V30 18387 H 1763.57 3.87961 0.103778 0
M  V30 18388 H 1761.67 2.88373 2.35948 0
M  V30 18389 H 1761.78 4.55416 1.48772 0
M  V30 18390 H 1760.15 2.3893 0.882311 0
M  V30 18391 H 1760.93 3.40392 -0.445908 0
M  V30 18392 N 1763.37 -0.266145 1.55336 0
M  V30 18393 C 1764.6 -1.01915 1.80633 0
M  V30 18394 C 1765.02 -1.78897 0.581172 0
M  V30 18395 O 1764.38 -1.75118 -0.469399 0
M  V30 18396 C 1764.43 -1.948 3.03456 0
M  V30 18397 O 1763.53 -3.03678 2.79022 0
M  V30 18398 H 1762.87 -0.29102 0.596828 0
M  V30 18399 H 1765.4 -0.292973 2.02492 0
M  V30 18400 H 1765.41 -2.36626 3.32373 0
M  V30 18401 H 1764.09 -1.38182 3.92273 0
M  V30 18402 H 1762.67 -2.66118 2.61219 0
M  V30 18403 N 1764.85 -1.48386 -0.530967 0
M  V30 18404 C 1765.78 -1.58922 -1.65156 0
M  V30 18405 C 1766.8 -0.473583 -1.5576 0
M  V30 18406 O 1767.99 -0.744383 -1.62238 0
M  V30 18407 C 1765.09 -1.50201 -3.03798 0
M  V30 18408 C 1764.26 -2.76787 -3.38685 0
M  V30 18409 C 1763.32 -2.61534 -4.56603 0
M  V30 18410 O 1762.34 -3.35417 -4.59874 0
M  V30 18411 N 1763.55 -1.71087 -5.54716 0
M  V30 18412 H 1766.31 -2.55559 -1.56555 0
M  V30 18413 H 1763.87 -1.45097 -0.718216 0
M  V30 18414 H 1765.86 -1.37693 -3.80556 0
M  V30 18415 H 1764.43 -0.615419 -3.06482 0
M  V30 18416 H 1763.65 -3.03867 -2.51115 0
M  V30 18417 H 1764.94 -3.6077 -3.58779 0
M  V30 18418 H 1764.34 -1.10261 -5.54851 0
M  V30 18419 H 1762.9 -1.64518 -6.30696 0
M  V30 18420 N 1766.33 0.779763 -1.36958 0
M  V30 18421 C 1767.24 1.92394 -1.34245 0
M  V30 18422 C 1768.26 1.72292 -0.243187 0
M  V30 18423 O 1769.43 1.95665 -0.477211 0
M  V30 18424 C 1766.5 3.27402 -1.14057 0
M  V30 18425 C 1765.56 3.60213 -2.33548 0
M  V30 18426 C 1764.79 4.88779 -2.14314 0
M  V30 18427 O 1765.01 5.59231 -1.12327 0
M  V30 18428 O 1763.95 5.20469 -3.02316 0
M  V30 18429 H 1767.77 1.97633 -2.30596 0
M  V30 18430 H 1765.36 0.921386 -1.17605 0
M  V30 18431 H 1767.24 4.08172 -1.04755 0
M  V30 18432 H 1765.92 3.23033 -0.207744 0
M  V30 18433 H 1764.82 2.7971 -2.48421 0
M  V30 18434 H 1766.16 3.69317 -3.25371 0
M  V30 18435 N 1767.81 1.21396 1.00503 0
M  V30 18436 C 1768.76 0.940669 2.07691 0
M  V30 18437 C 1769.74 -0.104065 1.60563 0
M  V30 18438 O 1770.93 0.104861 1.76689 0
M  V30 18439 C 1768.06 0.507176 3.39533 0
M  V30 18440 C 1767.15 1.58598 3.93329 0
M  V30 18441 N 1767.54 2.81104 4.20493 0
M  V30 18442 C 1765.84 1.45484 4.21605 0
M  V30 18443 C 1766.54 3.50775 4.64038 0
M  V30 18444 N 1765.51 2.78214 4.67009 0
M  V30 18445 H 1769.32 1.87141 2.26617 0
M  V30 18446 H 1766.83 1.10969 1.18574 0
M  V30 18447 H 1768.83 0.292749 4.15871 0
M  V30 18448 H 1767.49 -0.416806 3.22014 0
M  V30 18449 H 1768.5 3.17647 4.09049 0
M  V30 18450 H 1765.18 0.596142 4.13222 0
M  V30 18451 H 1766.57 4.55667 4.93779 0
M  V30 18452 N 1769.29 -1.19996 1.0217 0
M  V30 18453 C 1770.22 -2.22392 0.55446 0
M  V30 18454 C 1771.23 -1.58636 -0.36586 0
M  V30 18455 O 1772.42 -1.77751 -0.163394 0
M  V30 18456 C 1769.52 -3.38235 -0.212234 0
M  V30 18457 C 1768.69 -4.31578 0.711253 0
M  V30 18458 C 1767.75 -5.26199 -0.00876314 0
M  V30 18459 O 1766.78 -5.65863 0.615435 0
M  V30 18460 N 1767.98 -5.66169 -1.28192 0
M  V30 18461 H 1770.74 -2.63107 1.43509 0
M  V30 18462 H 1768.31 -1.34589 0.899853 0
M  V30 18463 H 1770.3 -3.98542 -0.703282 0
M  V30 18464 H 1768.87 -2.96369 -0.994205 0
M  V30 18465 H 1768.09 -3.69161 1.38252 0
M  V30 18466 H 1769.38 -4.90861 1.33915 0
M  V30 18467 H 1768.77 -5.35966 -1.8099 0
M  V30 18468 H 1767.33 -6.28762 -1.7176 0
M  V30 18469 N 1770.76 -0.798611 -1.35867 0
M  V30 18470 C 1771.67 -0.204758 -2.33705 0
M  V30 18471 C 1772.69 0.648001 -1.61484 0
M  V30 18472 O 1773.87 0.561628 -1.93411 0
M  V30 18473 C 1770.93 0.643225 -3.40681 0
M  V30 18474 C 1769.99 -0.229099 -4.28688 0
M  V30 18475 C 1769.22 0.578508 -5.30555 0
M  V30 18476 O 1769.45 1.81382 -5.40793 0
M  V30 18477 O 1768.38 -0.0264291 -6.01894 0
M  V30 18478 H 1772.21 -1.01392 -2.86275 0
M  V30 18479 H 1769.79 -0.560242 -1.38498 0
M  V30 18480 H 1771.67 1.12648 -4.06065 0
M  V30 18481 H 1770.35 1.43012 -2.90395 0
M  V30 18482 H 1769.26 -0.759314 -3.66313 0
M  V30 18483 H 1770.59 -0.979736 -4.82351 0
M  V30 18484 N 1772.24 1.47639 -0.551417 0
M  V30 18485 C 1773.49 2.01687 -0.0230887 0
M  V30 18486 C 1773.8 1.43178 1.33265 0
M  V30 18487 O 1775.01 1.88853 1.95056 0
M  V30 18488 C 1773.47 3.59899 0.00918719 0
M  V30 18489 C 1773.07 4.27398 -1.34295 0
M  V30 18490 C 1774.82 4.21718 0.485213 0
M  V30 18491 C 1772.72 5.77601 -1.2701 0
M  V30 18492 H 1771.65 0.753984 -0.00486122 0
M  V30 18493 H 1774.31 1.6969 -0.698405 0
M  V30 18494 H 1772.69 3.88832 0.75003 0
M  V30 18495 H 1773.86 4.10113 -2.10105 0
M  V30 18496 H 1772.18 3.77542 -1.75644 0
M  V30 18497 H 1774.77 5.3178 0.558025 0
M  V30 18498 H 1775.12 3.88495 1.4959 0
M  V30 18499 H 1775.65 3.97294 -0.200594 0
M  V30 18500 H 1772.39 6.15433 -2.2566 0
M  V30 18501 H 1771.91 5.97239 -0.553709 0
M  V30 18502 H 1773.59 6.39692 -0.969726 0
M  V30 18503 N 1773.72 0.287581 1.54954 0
M  V30 18504 C 1774.65 -0.587855 2.25979 0
M  V30 18505 C 1775.63 -1.14884 1.25442 0
M  V30 18506 O 1776.82 -1.18067 1.54188 0
M  V30 18507 C 1773.95 -1.76618 2.99037 0
M  V30 18508 C 1772.9 -1.33617 4.06609 0
M  V30 18509 C 1772.23 -2.59859 4.67309 0
M  V30 18510 C 1773.53 -0.477219 5.20115 0
M  V30 18511 H 1775.22 0.00450183 2.994 0
M  V30 18512 H 1772.77 0.00360521 1.44 0
M  V30 18513 H 1774.72 -2.38461 3.4744 0
M  V30 18514 H 1773.44 -2.38457 2.23172 0
M  V30 18515 H 1772.1 -0.74088 3.59036 0
M  V30 18516 H 1771.75 -3.19983 3.88098 0
M  V30 18517 H 1771.45 -2.31793 5.3995 0
M  V30 18518 H 1772.97 -3.22528 5.18467 0
M  V30 18519 H 1774.39 -1.00096 5.64494 0
M  V30 18520 H 1772.79 -0.290913 5.99394 0
M  V30 18521 H 1773.86 0.500993 4.82305 0
M  V30 18522 N 1775.2 -1.57593 0.0150662 0
M  V30 18523 C 1776.45 -1.91214 -0.666599 0
M  V30 18524 C 1776.77 -0.890139 -1.72936 0
M  V30 18525 O 1776.03 0.102976 -1.95429 0
M  V30 18526 C 1776.33 -3.3158 -1.33376 0
M  V30 18527 C 1775.99 -4.49098 -0.402748 0
M  V30 18528 C 1774.66 -4.80977 -0.146455 0
M  V30 18529 C 1777.01 -5.20659 0.237376 0
M  V30 18530 C 1774.34 -5.81783 0.758003 0
M  V30 18531 C 1776.69 -6.22429 1.1298 0
M  V30 18532 C 1775.35 -6.52758 1.39513 0
M  V30 18533 H 1774.62 -0.699701 -0.243926 0
M  V30 18534 H 1777.27 -1.91358 0.073824 0
M  V30 18535 H 1775.57 -3.27632 -2.1486 0
M  V30 18536 H 1777.27 -3.54859 -1.86751 0
M  V30 18537 H 1773.86 -4.24198 -0.612678 0
M  V30 18538 H 1778.04 -4.96272 0.052408 0
M  V30 18539 H 1773.3 -6.03634 0.971415 0
M  V30 18540 H 1777.47 -6.77005 1.63208 0
M  V30 18541 H 1775.1 -7.30687 2.09764 0
M  V30 18542 N 1776.68 0.257904 -1.55475 0
M  V30 18543 C 1777.62 1.33893 -1.90198 0
M  V30 18544 C 1778.62 1.50381 -0.779868 0
M  V30 18545 O 1779.82 1.51986 -0.964376 0
M  V30 18546 H 1776.2 0.448115 -0.603901 0
M  V30 18547 H 1778.17 1.01868 -2.80474 0
M  V30 18548 C 1776.92 2.68954 -2.20361 0
M  V30 18549 H 1776.24 2.57064 -3.062 0
M  V30 18550 H 1777.68 3.43498 -2.48567 0
M  V30 18551 C 1776.14 3.21208 -1.01623 0
M  V30 18552 O 1776.67 4.00867 -0.258567 0
M  V30 18553 N 1774.88 2.79088 -0.809825 0
M  V30 18554 H 1774.42 2.1442 -1.42764 0
M  V30 18555 H 1774.38 3.14395 -0.0170171 0
M  V30 18556 N 1778.15 1.48666 0.52309 0
M  V30 18557 C 1779.1 1.64155 1.6479 0
M  V30 18558 C 1780.1 0.507838 1.61609 0
M  V30 18559 O 1781.3 0.686784 1.66383 0
M  V30 18560 H 1777.68 0.517234 0.545869 0
M  V30 18561 H 1779.65 2.58611 1.48871 0
M  V30 18562 C 1778.4 1.70488 3.03033 0
M  V30 18563 H 1777.72 2.5709 3.06178 0
M  V30 18564 H 1779.16 1.85367 3.81333 0
M  V30 18565 C 1777.62 0.444984 3.33948 0
M  V30 18566 O 1778.15 -0.439107 3.99293 0
M  V30 18567 N 1776.36 0.314593 2.88892 0
M  V30 18568 H 1775.9 1.03501 2.35893 0
M  V30 18569 H 1775.86 -0.527357 3.09946 0
M  V30 18570 N 1779.63 -0.772489 1.37369 0
M  V30 18571 C 1780.88 -1.53329 1.32733 0
M  V30 18572 C 1781.21 -1.93999 -0.0882815 0
M  V30 18573 O 1780.49 -1.64014 -1.04545 0
M  V30 18574 C 1780.77 -2.79885 2.26575 0
M  V30 18575 C 1780.62 -2.45474 3.76912 0
M  V30 18576 C 1781.94 -3.81812 2.18878 0
M  V30 18577 H 1779.06 -0.55625 0.483482 0
M  V30 18578 H 1781.7 -0.886251 1.68064 0
M  V30 18579 H 1779.85 -3.35097 1.96576 0
M  V30 18580 H 1781.52 -1.96182 4.17505 0
M  V30 18581 H 1779.77 -1.78181 3.95517 0
M  V30 18582 H 1780.44 -3.35937 4.38007 0
M  V30 18583 H 1782.91 -3.36091 2.4532 0
M  V30 18584 H 1781.79 -4.68087 2.86681 0
M  V30 18585 H 1782.05 -4.26021 1.18146 0
M  V30 18586 N 1781.11 -1.21927 -0.998575 0
M  V30 18587 C 1782.53 -0.978007 -1.26124 0
M  V30 18588 C 1782.73 0.3318 -1.98749 0
M  V30 18589 O 1781.78 1.05585 -2.29364 0
M  V30 18590 C 1783.1 -2.17291 -2.07858 0
M  V30 18591 C 1784.64 -2.21586 -2.21062 0
M  V30 18592 C 1785.12 -3.40613 -3.06181 0
M  V30 18593 N 1786.61 -3.40739 -3.13769 0
M  V30 18594 C 1787.34 -4.29488 -3.79905 0
M  V30 18595 N 1786.84 -5.28445 -4.48015 0
M  V30 18596 N 1788.63 -4.17279 -3.76609 0
M  V30 18597 H 1780.78 -2.06149 -0.51151 0
M  V30 18598 H 1783.05 -0.903039 -0.288487 0
M  V30 18599 H 1782.75 -3.12246 -1.61851 0
M  V30 18600 H 1782.63 -2.16883 -3.08612 0
M  V30 18601 H 1785.01 -1.27183 -2.66286 0
M  V30 18602 H 1785.1 -2.26035 -1.19757 0
M  V30 18603 H 1784.74 -4.35313 -2.61659 0
M  V30 18604 H 1784.67 -3.33403 -4.07615 0
M  V30 18605 H 1787.16 -2.69128 -2.65289 0
M  V30 18606 H 1787.47 -5.92454 -4.96203 0
M  V30 18607 H 1785.82 -5.32364 -4.46782 0
M  V30 18608 H 1789.01 -3.39226 -3.22557 0
M  V30 18609 H 1789.18 -4.86651 -4.27873 0
M  V30 18610 N 1782.59 1.19452 -1.02805 0
M  V30 18611 C 1783.83 1.89662 -0.734839 0
M  V30 18612 C 1784.19 1.78072 0.728567 0
M  V30 18613 O 1783.48 1.16172 1.52363 0
M  V30 18614 C 1783.68 3.3941 -1.11964 0
M  V30 18615 C 1783.51 3.65573 -2.61891 0
M  V30 18616 C 1782.28 3.83649 -3.28849 0
M  V30 18617 C 1784.47 3.67197 -3.60098 0
M  V30 18618 N 1782.46 3.97434 -4.67888 0
M  V30 18619 C 1783.83 3.86544 -4.84751 0
M  V30 18620 C 1785.88 3.50219 -3.53908 0
M  V30 18621 C 1784.58 3.90672 -6.0396 0
M  V30 18622 C 1786.61 3.55624 -4.72531 0
M  V30 18623 C 1785.97 3.75455 -5.95997 0
M  V30 18624 H 1782.07 0.713192 -0.320751 0
M  V30 18625 H 1784.66 1.43565 -1.31519 0
M  V30 18626 H 1782.83 3.84232 -0.567503 0
M  V30 18627 H 1784.56 3.97136 -0.778765 0
M  V30 18628 H 1781.31 3.82504 -2.79263 0
M  V30 18629 H 1781.74 4.08178 -5.40111 0
M  V30 18630 H 1786.38 3.33843 -2.59439 0
M  V30 18631 H 1784.1 4.0584 -6.98799 0
M  V30 18632 H 1787.68 3.43778 -4.69369 0
M  V30 18633 H 1786.56 3.79511 -6.86252 0
M  V30 18634 N 1784.07 0.805805 1.35442 0
M  V30 18635 C 1785 0.230077 2.32364 0
M  V30 18636 C 1785.98 -0.644034 1.57436 0
M  V30 18637 O 1787.16 -0.574467 1.85509 0
M  V30 18638 C 1784.29 -0.622814 3.4167 0
M  V30 18639 C 1783.25 0.152739 4.27727 0
M  V30 18640 C 1782.57 -0.821803 5.28347 0
M  V30 18641 C 1783.87 1.35128 5.04517 0
M  V30 18642 H 1785.57 1.03983 2.80763 0
M  V30 18643 H 1783.11 0.501467 1.34986 0
M  V30 18644 H 1785.07 -1.03564 4.08476 0
M  V30 18645 H 1783.79 -1.46544 2.91877 0
M  V30 18646 H 1782.45 0.546732 3.625 0
M  V30 18647 H 1782.1 -1.65991 4.74822 0
M  V30 18648 H 1781.8 -0.307209 5.86796 0
M  V30 18649 H 1783.32 -1.23285 5.98024 0
M  V30 18650 H 1784.73 1.01337 5.64273 0
M  V30 18651 H 1783.13 1.80031 5.72459 0
M  V30 18652 H 1784.2 2.13833 4.35205 0
M  V30 18653 N 1785.54 -1.47344 0.559239 0
M  V30 18654 C 1786.77 -2.07364 0.0388864 0
M  V30 18655 C 1787.19 -1.40886 -1.2463 0
M  V30 18656 O 1786.55 -0.48454 -1.74705 0
M  V30 18657 C 1786.6 -3.60336 -0.137894 0
M  V30 18658 O 1785.7 -3.94555 -1.2 0
M  V30 18659 H 1785.05 -0.661942 0.0522363 0
M  V30 18660 H 1787.58 -1.89333 0.7755 0
M  V30 18661 H 1787.59 -4.06483 -0.351462 0
M  V30 18662 H 1786.26 -4.08118 0.800776 0
M  V30 18663 H 1784.84 -3.6015 -0.966757 0
M  V30 18664 N 1787.02 -0.295795 -1.54799 0
M  V30 18665 C 1788.27 0.315754 -1.99213 0
M  V30 18666 C 1788.58 1.55405 -1.18779 0
M  V30 18667 O 1789.79 2.23986 -1.53436 0
M  V30 18668 C 1788.25 0.613119 -3.54639 0
M  V30 18669 C 1787.85 -0.606546 -4.43875 0
M  V30 18670 C 1789.6 1.18615 -4.07591 0
M  V30 18671 C 1787.51 -0.282622 -5.90724 0
M  V30 18672 H 1786.44 0.121758 -0.744104 0
M  V30 18673 H 1789.09 -0.403686 -1.79005 0
M  V30 18674 H 1787.47 1.39202 -3.70728 0
M  V30 18675 H 1788.64 -1.3829 -4.39559 0
M  V30 18676 H 1786.96 -1.09785 -4.01667 0
M  V30 18677 H 1789.55 1.44266 -5.1487 0
M  V30 18678 H 1789.9 2.12674 -3.57876 0
M  V30 18679 H 1790.43 0.469078 -3.95025 0
M  V30 18680 H 1787.17 -1.19164 -6.44578 0
M  V30 18681 H 1786.69 0.456564 -5.9806 0
M  V30 18682 H 1788.37 0.117703 -6.46893 0
M  V30 18683 N 1788.5 1.57583 -0.0234236 0
M  V30 18684 C 1789.43 2.06766 0.988961 0
M  V30 18685 C 1790.45 0.98998 1.29241 0
M  V30 18686 O 1791.64 1.2663 1.25806 0
M  V30 18687 C 1788.74 2.47244 2.31784 0
M  V30 18688 C 1787.91 3.78023 2.20039 0
M  V30 18689 C 1786.97 4.05113 3.35812 0
M  V30 18690 O 1785.99 4.75447 3.12952 0
M  V30 18691 N 1787.2 3.5484 4.59422 0
M  V30 18692 H 1789.96 2.94242 0.569355 0
M  V30 18693 H 1787.52 1.61073 0.163461 0
M  V30 18694 H 1789.51 2.62463 3.08051 0
M  V30 18695 H 1788.08 1.65163 2.65405 0
M  V30 18696 H 1787.3 3.72656 1.28534 0
M  V30 18697 H 1788.59 4.63717 2.09389 0
M  V30 18698 H 1787.99 2.97928 4.8089 0
M  V30 18699 H 1786.55 3.75348 5.32877 0
M  V30 18700 N 1789.98 -0.249655 1.5561 0
M  V30 18701 C 1791.2 -0.999931 1.81703 0
M  V30 18702 C 1791.63 -1.7827 0.600113 0
M  V30 18703 O 1790.99 -1.75606 -0.450799 0
M  V30 18704 C 1791.04 -1.9157 3.05505 0
M  V30 18705 O 1790.14 -3.00702 2.82227 0
M  V30 18706 H 1789.48 -0.284673 0.599881 0
M  V30 18707 H 1792.01 -0.27148 2.02791 0
M  V30 18708 H 1792.02 -2.33088 3.34864 0
M  V30 18709 H 1790.7 -1.34014 3.93717 0
M  V30 18710 H 1789.27 -2.63332 2.64027 0
M  V30 18711 N 1791.46 -1.48941 -0.515198 0
M  V30 18712 C 1792.4 -1.64561 -1.61828 0
M  V30 18713 C 1793.37 -0.487323 -1.5879 0
M  V30 18714 O 1794.56 -0.712626 -1.76992 0
M  V30 18715 C 1791.7 -1.70506 -3.00036 0
M  V30 18716 C 1790.81 -2.97543 -3.13197 0
M  V30 18717 C 1789.95 -2.94555 -4.42053 0
M  V30 18718 C 1788.99 -4.16232 -4.48795 0
M  V30 18719 N 1788.12 -4.11236 -5.6906 0
M  V30 18720 H 1792.96 -2.58754 -1.47818 0
M  V30 18721 H 1790.5 -1.28307 -0.719423 0
M  V30 18722 H 1792.46 -1.71934 -3.80125 0
M  V30 18723 H 1791.09 -0.797907 -3.12783 0
M  V30 18724 H 1790.14 -3.05792 -2.26264 0
M  V30 18725 H 1791.45 -3.87532 -3.14039 0
M  V30 18726 H 1790.61 -2.94466 -5.30447 0
M  V30 18727 H 1789.35 -2.0232 -4.43754 0
M  V30 18728 H 1788.35 -4.1658 -3.58805 0
M  V30 18729 H 1789.58 -5.09644 -4.48821 0
M  V30 18730 H 1787.52 -3.2183 -5.7163 0
M  V30 18731 H 1787.44 -4.94945 -5.71459 0
M  V30 18732 H 1788.71 -4.15229 -6.59701 0
M  V30 18733 N 1792.94 0.765193 -1.37777 0
M  V30 18734 C 1794.35 1.06666 -1.1872 0
M  V30 18735 C 1794.55 2.01481 -0.0278636 0
M  V30 18736 O 1793.61 2.44514 0.630006 0
M  V30 18737 C 1794.92 1.65787 -2.50868 0
M  V30 18738 C 1796.47 1.78014 -2.57449 0
M  V30 18739 C 1796.94 2.40548 -3.89744 0
M  V30 18740 N 1798.43 2.47992 -3.91221 0
M  V30 18741 C 1799.17 2.97245 -4.9034 0
M  V30 18742 N 1798.67 3.46621 -5.99855 0
M  V30 18743 N 1800.46 2.96179 -4.77739 0
M  V30 18744 H 1792.61 0.135775 -2.11966 0
M  V30 18745 H 1794.87 0.122863 -0.940005 0
M  V30 18746 H 1794.58 1.03588 -3.36099 0
M  V30 18747 H 1794.45 2.65 -2.6843 0
M  V30 18748 H 1796.84 2.39345 -1.72621 0
M  V30 18749 H 1796.92 0.775388 -2.43765 0
M  V30 18750 H 1796.56 1.79855 -4.74989 0
M  V30 18751 H 1796.49 3.41643 -4.00734 0
M  V30 18752 H 1798.99 2.13056 -3.12114 0
M  V30 18753 H 1799.3 3.82625 -6.7143 0
M  V30 18754 H 1797.64 3.44709 -6.0349 0
M  V30 18755 H 1800.83 2.56909 -3.913 0
M  V30 18756 H 1801.01 3.34253 -5.55139 0
M  V30 18757 N 1794.41 1.22455 0.992094 0
M  V30 18758 C 1795.66 1.0496 1.73175 0
M  V30 18759 C 1795.99 -0.41518 1.90017 0
M  V30 18760 O 1795.24 -1.32408 1.44107 0
M  V30 18761 C 1795.54 1.70683 3.1401 0
M  V30 18762 C 1795.21 3.20579 3.1708 0
M  V30 18763 C 1793.87 3.6148 3.17626 0
M  V30 18764 C 1796.22 4.16519 3.13308 0
M  V30 18765 C 1793.55 4.968 3.121 0
M  V30 18766 C 1795.9 5.51816 3.09324 0
M  V30 18767 C 1794.57 5.92096 3.08185 0
M  V30 18768 H 1793.84 0.384075 0.633694 0
M  V30 18769 H 1796.48 1.52228 1.16184 0
M  V30 18770 H 1794.79 1.15742 3.74314 0
M  V30 18771 H 1796.49 1.54636 3.69985 0
M  V30 18772 H 1793.08 2.88012 3.17406 0
M  V30 18773 H 1797.26 3.85937 3.12036 0
M  V30 18774 H 1792.52 5.27238 3.09564 0
M  V30 18775 H 1796.69 6.25882 3.0536 0
M  V30 18776 H 1794.32 6.96919 3.03658 0
M  V30 18777 N 1795.89 -1.18905 1.03437 0
M  V30 18778 C 1796.85 -2.20529 0.624461 0
M  V30 18779 C 1797.85 -1.57688 -0.314824 0
M  V30 18780 O 1799.04 -1.73906 -0.101082 0
M  V30 18781 C 1796.18 -3.40793 -0.0854166 0
M  V30 18782 H 1797.37 -2.58309 1.5237 0
M  V30 18783 H 1794.92 -1.32679 0.826189 0
M  V30 18784 H 1795.66 -3.08538 -0.998747 0
M  V30 18785 H 1795.44 -3.87642 0.589596 0
M  V30 18786 H 1796.93 -4.16055 -0.358938 0
M  V30 18787 N 1797.37 -0.812977 -1.35013 0
M  V30 18788 C 1798.78 -0.45647 -1.81034 0
M  V30 18789 C 1799.13 1.02217 -1.6747 0
M  V30 18790 O 1798.26 1.79478 -1.20898 0
M  V30 18791 C 1798.85 -0.821773 -3.28683 0
M  V30 18792 C 1797.41 -0.517776 -3.72822 0
M  V30 18793 C 1796.56 -1.04399 -2.56897 0
M  V30 18794 H 1799.51 -1.00405 -1.22901 0
M  V30 18795 H 1799.53 -0.12173 -3.80305 0
M  V30 18796 H 1799.04 -1.89799 -3.38523 0
M  V30 18797 H 1797.14 0.549446 -3.68527 0
M  V30 18798 H 1797.26 -1.05488 -4.67343 0
M  V30 18799 H 1795.62 -0.466002 -2.50401 0
M  V30 18800 H 1796.4 -2.12645 -2.69512 0
M  V30 18801 N 1798.85 1.47045 -0.567045 0
M  V30 18802 C 1799.78 2.32929 0.163191 0
M  V30 18803 C 1800.76 1.44393 0.899142 0
M  V30 18804 O 1801.94 1.73235 0.87768 0
M  V30 18805 C 1799.07 3.26369 1.18745 0
M  V30 18806 C 1798.03 4.24223 0.567335 0
M  V30 18807 C 1797.35 5.07058 1.69693 0
M  V30 18808 C 1798.65 5.2004 -0.485319 0
M  V30 18809 H 1800.35 2.94233 -0.553837 0
M  V30 18810 H 1797.89 1.41488 -0.267789 0
M  V30 18811 H 1799.85 3.85299 1.70654 0
M  V30 18812 H 1798.57 2.6314 1.93455 0
M  V30 18813 H 1797.23 3.66534 0.0694525 0
M  V30 18814 H 1796.88 4.40226 2.43331 0
M  V30 18815 H 1796.58 5.73316 1.28774 0
M  V30 18816 H 1798.1 5.68848 2.2191 0
M  V30 18817 H 1799.52 5.73277 -0.0519049 0
M  V30 18818 H 1797.91 5.94554 -0.813942 0
M  V30 18819 H 1798.98 4.64921 -1.37754 0
M  V30 18820 N 1800.33 0.304 1.5464 0
M  V30 18821 C 1801.56 -0.306471 2.04314 0
M  V30 18822 C 1801.96 -1.47839 1.18069 0
M  V30 18823 O 1801.31 -1.82612 0.199666 0
M  V30 18824 C 1801.37 -0.822694 3.4996 0
M  V30 18825 C 1801.03 0.224343 4.56449 0
M  V30 18826 C 1802.03 1.05382 5.09108 0
M  V30 18827 C 1799.71 0.366905 5.00958 0
M  V30 18828 C 1801.71 2.01176 6.0482 0
M  V30 18829 C 1799.4 1.32829 5.96489 0
M  V30 18830 C 1800.39 2.1492 6.48304 0
M  V30 18831 O 1800.08 3.09429 7.41963 0
M  V30 18832 H 1799.81 -0.0701033 0.672355 0
M  V30 18833 H 1802.37 0.442449 2.00578 0
M  V30 18834 H 1800.6 -1.62219 3.5103 0
M  V30 18835 H 1802.29 -1.34938 3.82814 0
M  V30 18836 H 1803.05 0.954561 4.75514 0
M  V30 18837 H 1798.93 -0.262121 4.60254 0
M  V30 18838 H 1802.48 2.65291 6.45187 0
M  V30 18839 H 1798.37 1.42826 6.29501 0
M  V30 18840 H 1799.14 3.04442 7.59774 0
M  V30 18841 N 1801.8 -1.57568 0.0317802 0
M  V30 18842 C 1802.77 -2.09296 -0.934239 0
M  V30 18843 C 1803.77 -1.00855 -1.25239 0
M  V30 18844 O 1804.96 -1.27004 -1.19229 0
M  V30 18845 C 1802.09 -2.56103 -2.24998 0
M  V30 18846 H 1803.28 -2.95933 -0.486183 0
M  V30 18847 H 1800.83 -1.54796 -0.2163 0
M  V30 18848 H 1801.57 -1.72803 -2.74426 0
M  V30 18849 H 1801.35 -3.35329 -2.03216 0
M  V30 18850 H 1802.84 -2.96339 -2.94233 0
M  V30 18851 N 1803.28 0.241399 -1.5574 0
M  V30 18852 C 1804.53 0.970098 -1.78093 0
M  V30 18853 C 1804.86 1.84763 -0.598005 0
M  V30 18854 O 1804.14 1.90268 0.403516 0
M  V30 18855 C 1804.42 1.82594 -3.10373 0
M  V30 18856 C 1804.27 0.976228 -4.39078 0
M  V30 18857 C 1805.59 2.80743 -3.38927 0
M  V30 18858 H 1802.71 0.35125 -0.647914 0
M  V30 18859 H 1805.35 0.240232 -1.88475 0
M  V30 18860 H 1803.5 2.44823 -3.01652 0
M  V30 18861 H 1805.17 0.37222 -4.59796 0
M  V30 18862 H 1803.42 0.280807 -4.3289 0
M  V30 18863 H 1804.09 1.60899 -5.2803 0
M  V30 18864 H 1806.56 2.28651 -3.47646 0
M  V30 18865 H 1805.44 3.37743 -4.3269 0
M  V30 18866 H 1805.7 3.57484 -2.6011 0
M  V30 18867 N 1804.76 1.49212 0.507292 0
M  V30 18868 C 1805.67 1.68141 1.63603 0
M  V30 18869 C 1806.69 0.563959 1.64607 0
M  V30 18870 O 1807.86 0.837885 1.83143 0
M  V30 18871 C 1804.93 1.73793 2.99995 0
M  V30 18872 C 1803.99 2.9733 3.09667 0
M  V30 18873 C 1803.22 3.02703 4.39553 0
M  V30 18874 O 1803.44 2.15844 5.27985 0
M  V30 18875 O 1802.38 3.95105 4.54066 0
M  V30 18876 H 1806.2 2.63749 1.50565 0
M  V30 18877 H 1803.79 1.32879 0.682893 0
M  V30 18878 H 1805.67 1.79901 3.81069 0
M  V30 18879 H 1804.35 0.813622 3.13308 0
M  V30 18880 H 1803.25 2.96743 2.27804 0
M  V30 18881 H 1804.59 3.8922 3.01278 0
M  V30 18882 N 1806.24 -0.757876 1.38181 0
M  V30 18883 C 1807.2 -1.85317 1.34871 0
M  V30 18884 C 1808.2 -1.58844 0.250041 0
M  V30 18885 O 1809.39 -1.66668 0.506688 0
M  V30 18886 C 1806.52 -3.22712 1.09864 0
M  V30 18887 H 1807.72 -1.89661 2.32312 0
M  V30 18888 H 1805.27 -0.959122 1.23412 0
M  V30 18889 H 1806 -3.24039 0.130112 0
M  V30 18890 H 1805.79 -3.4332 1.89403 0
M  V30 18891 H 1807.28 -4.02789 1.10232 0
M  V30 18892 N 1807.72 -1.22979 -0.985586 0
M  V30 18893 C 1808.66 -1.00637 -2.07704 0
M  V30 18894 C 1809.63 0.0744076 -1.65933 0
M  V30 18895 O 1810.82 -0.0766583 -1.90646 0
M  V30 18896 C 1807.96 -0.598088 -3.39878 0
M  V30 18897 C 1807.07 -1.75043 -3.94948 0
M  V30 18898 C 1806.21 -1.28943 -5.15313 0
M  V30 18899 C 1805.25 -2.41285 -5.62537 0
M  V30 18900 N 1804.38 -1.9618 -6.74135 0
M  V30 18901 H 1809.22 -1.94063 -2.26149 0
M  V30 18902 H 1806.76 -0.966841 -1.10863 0
M  V30 18903 H 1808.72 -0.342503 -4.15792 0
M  V30 18904 H 1807.35 0.299167 -3.21411 0
M  V30 18905 H 1806.4 -2.12015 -3.15838 0
M  V30 18906 H 1807.71 -2.5952 -4.25971 0
M  V30 18907 H 1806.87 -0.99166 -5.98541 0
M  V30 18908 H 1805.6 -0.41496 -4.85931 0
M  V30 18909 H 1804.61 -2.71842 -4.77893 0
M  V30 18910 H 1805.83 -3.2926 -5.9394 0
M  V30 18911 H 1803.78 -1.11105 -6.46523 0
M  V30 18912 H 1803.7 -2.74219 -7.04514 0
M  V30 18913 H 1804.97 -1.69492 -7.6085 0
M  V30 18914 N 1809.19 1.18355 -1.04066 0
M  V30 18915 C 1810.61 1.40349 -0.759898 0
M  V30 18916 C 1810.81 1.90709 0.650574 0
M  V30 18917 O 1809.87 2.09142 1.41477 0
M  V30 18918 C 1811.18 2.40426 -1.80599 0
M  V30 18919 C 1812.73 2.54153 -1.8269 0
M  V30 18920 C 1813.2 3.57494 -2.8629 0
M  V30 18921 N 1814.69 3.65001 -2.85181 0
M  V30 18922 C 1815.43 4.44688 -3.61995 0
M  V30 18923 N 1814.92 5.27984 -4.48559 0
M  V30 18924 N 1816.72 4.39451 -3.50484 0
M  V30 18925 H 1808.87 0.839924 -1.95087 0
M  V30 18926 H 1811.13 0.431492 -0.844108 0
M  V30 18927 H 1810.84 2.10471 -2.81771 0
M  V30 18928 H 1810.71 3.39773 -1.63812 0
M  V30 18929 H 1813.1 2.83424 -0.821889 0
M  V30 18930 H 1813.18 1.54919 -2.03553 0
M  V30 18931 H 1812.82 3.28963 -3.8697 0
M  V30 18932 H 1812.75 4.56405 -2.62682 0
M  V30 18933 H 1815.24 3.05522 -2.22407 0
M  V30 18934 H 1815.56 5.85939 -5.0388 0
M  V30 18935 H 1813.9 5.27404 -4.52626 0
M  V30 18936 H 1817.09 3.73426 -2.8226 0
M  V30 18937 H 1817.27 5.01313 -4.10596 0
M  V30 18938 N 1810.67 0.820125 1.3458 0
M  V30 18939 C 1811.92 0.403287 1.97627 0
M  V30 18940 C 1812.23 -1.0385 1.65754 0
M  V30 18941 O 1813.44 -1.55911 2.2227 0
M  V30 18942 C 1811.9 0.670161 3.53606 0
M  V30 18943 C 1811.5 2.12538 3.94375 0
M  V30 18944 C 1813.25 0.31935 4.23297 0
M  V30 18945 C 1811.16 2.3373 5.43254 0
M  V30 18946 H 1810.09 0.147062 0.739519 0
M  V30 18947 H 1812.74 1.00609 1.53461 0
M  V30 18948 H 1811.12 -0.00276896 3.96 0
M  V30 18949 H 1812.29 2.83724 3.63094 0
M  V30 18950 H 1810.61 2.43736 3.37612 0
M  V30 18951 H 1813.2 0.45555 5.32756 0
M  V30 18952 H 1813.55 -0.735875 4.09745 0
M  V30 18953 H 1814.08 0.946743 3.8637 0
M  V30 18954 H 1810.82 3.37747 5.61789 0
M  V30 18955 H 1810.34 1.67084 5.76058 0
M  V30 18956 H 1812.02 2.1595 6.09897 0
M  V30 18957 N 1812.15 -1.46743 0.574835 0
M  V30 18958 C 1813.08 -2.2832 -0.20062 0
M  V30 18959 C 1814.1 -1.3805 -0.862898 0
M  V30 18960 O 1815.28 -1.6272 -0.733785 0
M  V30 18961 C 1812.38 -3.1285 -1.303 0
M  V30 18962 C 1811.56 -4.31195 -0.734153 0
M  V30 18963 C 1810.62 -4.97183 -1.72324 0
M  V30 18964 O 1809.64 -5.55025 -1.26239 0
M  V30 18965 N 1810.84 -4.93476 -3.05714 0
M  V30 18966 H 1813.61 -2.95513 0.499231 0
M  V30 18967 H 1811.17 -1.56568 0.412077 0
M  V30 18968 H 1813.16 -3.53861 -1.96378 0
M  V30 18969 H 1811.73 -2.47784 -1.90583 0
M  V30 18970 H 1810.95 -3.94063 0.103888 0
M  V30 18971 H 1812.24 -5.07704 -0.333751 0
M  V30 18972 H 1811.64 -4.47715 -3.45786 0
M  V30 18973 H 1810.2 -5.38453 -3.67304 0
M  V30 18974 N 1813.63 -0.312197 -1.54477 0
M  V30 18975 C 1814.58 0.558894 -2.23931 0
M  V30 18976 C 1815.55 1.12071 -1.22594 0
M  V30 18977 O 1816.73 1.16316 -1.51245 0
M  V30 18978 C 1813.87 1.71948 -2.99212 0
M  V30 18979 C 1812.98 1.18799 -4.15344 0
M  V30 18980 C 1812.12 2.31334 -4.78182 0
M  V30 18981 C 1811.16 1.75375 -5.86438 0
M  V30 18982 N 1810.29 2.81528 -6.43184 0
M  V30 18983 H 1815.13 -0.0399708 -2.97973 0
M  V30 18984 H 1812.67 -0.0314967 -1.47066 0
M  V30 18985 H 1814.63 2.40225 -3.41098 0
M  V30 18986 H 1813.26 2.28981 -2.27525 0
M  V30 18987 H 1812.31 0.397122 -3.78321 0
M  V30 18988 H 1813.62 0.738426 -4.93304 0
M  V30 18989 H 1812.78 3.07537 -5.22978 0
M  V30 18990 H 1811.52 2.79622 -3.99578 0
M  V30 18991 H 1810.52 0.976658 -5.41056 0
M  V30 18992 H 1811.75 1.27978 -6.66932 0
M  V30 18993 H 1809.69 3.29129 -5.6746 0
M  V30 18994 H 1809.61 2.41101 -7.16524 0
M  V30 18995 H 1810.88 3.57595 -6.92637 0
M  V30 18996 N 1815.11 1.57549 -0.040136 0
M  V30 18997 C 1816.04 2.13912 0.936168 0
M  V30 18998 C 1817.02 1.05798 1.33194 0
M  V30 18999 O 1818.2 1.33685 1.40861 0
M  V30 19000 C 1815.33 2.67515 2.21479 0
M  V30 19001 C 1814.29 3.80513 1.95943 0
M  V30 19002 C 1813.61 4.20589 3.30165 0
M  V30 19003 C 1814.91 5.06124 1.28981 0
M  V30 19004 H 1816.61 2.9574 0.46674 0
M  V30 19005 H 1814.15 1.42262 0.223062 0
M  V30 19006 H 1816.11 3.05582 2.90168 0
M  V30 19007 H 1814.83 1.82864 2.70608 0
M  V30 19008 H 1813.49 3.42902 1.29669 0
M  V30 19009 H 1813.14 3.32904 3.77073 0
M  V30 19010 H 1812.84 4.96742 3.13881 0
M  V30 19011 H 1814.36 4.61248 4.00103 0
M  V30 19012 H 1815.77 5.41707 1.87687 0
M  V30 19013 H 1814.17 5.87347 1.2306 0
M  V30 19014 H 1815.24 4.84179 0.264286 0
M  V30 19015 N 1816.58 -0.233136 1.55866 0
M  V30 19016 C 1817.49 -1.31004 1.94615 0
M  V30 19017 C 1818.51 -1.51915 0.848399 0
M  V30 19018 O 1819.69 -1.6527 1.15098 0
M  V30 19019 C 1816.75 -2.64203 2.24494 0
M  V30 19020 C 1815.81 -2.51695 3.47776 0
M  V30 19021 C 1815.05 -3.78542 3.7622 0
M  V30 19022 O 1815.27 -4.81043 3.06519 0
M  V30 19023 O 1814.2 -3.76348 4.69729 0
M  V30 19024 H 1818.03 -1.01129 2.86368 0
M  V30 19025 H 1815.61 -0.435043 1.42926 0
M  V30 19026 H 1817.5 -3.42889 2.44959 0
M  V30 19027 H 1816.17 -2.93782 1.35918 0
M  V30 19028 H 1815.08 -1.71248 3.32603 0
M  V30 19029 H 1816.41 -2.27058 4.36698 0
M  V30 19030 N 1818.06 -1.49479 -0.499372 0
M  V30 19031 C 1819.01 -1.62662 -1.59766 0
M  V30 19032 C 1820 -0.482218 -1.53504 0
M  V30 19033 O 1821.19 -0.735252 -1.61006 0
M  V30 19034 C 1818.32 -1.69797 -2.98368 0
M  V30 19035 C 1817.4 -2.8982 -3.09621 0
M  V30 19036 N 1817.8 -4.13876 -2.90758 0
M  V30 19037 C 1816.09 -2.87791 -3.40723 0
M  V30 19038 C 1816.79 -4.94566 -3.06235 0
M  V30 19039 N 1815.77 -4.27963 -3.35184 0
M  V30 19040 H 1819.57 -2.56296 -1.43839 0
M  V30 19041 H 1817.09 -1.46274 -0.705532 0
M  V30 19042 H 1819.08 -1.7734 -3.77301 0
M  V30 19043 H 1817.74 -0.773015 -3.15364 0
M  V30 19044 H 1818.75 -4.43829 -2.669 0
M  V30 19045 H 1815.43 -2.0468 -3.63885 0
M  V30 19046 H 1816.82 -6.03122 -2.9613 0
M  V30 19047 N 1819.54 0.750537 -1.38581 0
M  V30 19048 C 1820.77 1.53978 -1.38196 0
M  V30 19049 C 1821.18 1.8878 0.0274976 0
M  V30 19050 O 1820.54 1.52997 0.994894 0
M  V30 19051 C 1820.59 2.83702 -2.24043 0
M  V30 19052 O 1820.31 2.50384 -3.59499 0
M  V30 19053 C 1821.81 3.77823 -2.31872 0
M  V30 19054 H 1819.03 0.476345 -0.472585 0
M  V30 19055 H 1821.58 0.928634 -1.82199 0
M  V30 19056 H 1819.73 3.41187 -1.83494 0
M  V30 19057 H 1820.15 3.33605 -4.04732 0
M  V30 19058 H 1821.62 4.65788 -2.96218 0
M  V30 19059 H 1822.1 4.18474 -1.33327 0
M  V30 19060 H 1822.7 3.26262 -2.72824 0
M  V30 19061 N 1821.02 1.235 0.979051 0
M  V30 19062 C 1822.27 1.06197 1.71479 0
M  V30 19063 C 1822.58 -0.401066 1.91444 0
M  V30 19064 O 1823.79 -0.69406 2.62479 0
M  V30 19065 C 1822.24 1.85189 3.08598 0
M  V30 19066 C 1821.85 3.35831 2.96516 0
M  V30 19067 C 1823.6 1.76379 3.86122 0
M  V30 19068 C 1821.5 4.0721 4.28875 0
M  V30 19069 H 1820.43 0.393779 0.643004 0
M  V30 19070 H 1823.08 1.47479 1.09188 0
M  V30 19071 H 1821.47 1.36714 3.71652 0
M  V30 19072 H 1822.64 3.91803 2.42543 0
M  V30 19073 H 1820.95 3.45469 2.32466 0
M  V30 19074 H 1823.55 2.2702 4.84114 0
M  V30 19075 H 1823.89 0.726826 4.09906 0
M  V30 19076 H 1824.43 2.22473 3.29773 0
M  V30 19077 H 1821.17 5.11218 4.10288 0
M  V30 19078 H 1820.69 3.56025 4.82707 0
M  V30 19079 H 1822.37 4.13579 4.97555 0
M  V30 19080 N 1822.5 -1.17802 1.04693 0
M  V30 19081 C 1823.45 -2.23698 0.637319 0
M  V30 19082 C 1824.44 -1.65974 -0.338957 0
M  V30 19083 O 1825.65 -1.78822 -0.205565 0
M  V30 19084 H 1822.02 -0.728146 0.187903 0
M  V30 19085 H 1823.99 -2.55549 1.5407 0
M  V30 19086 C 1822.74 -3.47693 0.0227662 0
M  V30 19087 H 1822.06 -3.92412 0.765058 0
M  V30 19088 H 1823.5 -4.23394 -0.22653 0
M  V30 19089 C 1821.96 -3.13679 -1.22912 0
M  V30 19090 O 1822.49 -3.27993 -2.31913 0
M  V30 19091 N 1820.7 -2.67948 -1.12483 0
M  V30 19092 H 1820.25 -2.565 -0.237818 0
M  V30 19093 H 1820.2 -2.45562 -1.96333 0
M  V30 19094 N 1823.98 -0.827251 -1.34143 0
M  V30 19095 C 1824.92 -0.240552 -2.31353 0
M  V30 19096 C 1825.92 0.62109 -1.57603 0
M  V30 19097 O 1827.12 0.511947 -1.72566 0
M  V30 19098 H 1823.5 -0.0590494 -0.749678 0
M  V30 19099 H 1825.47 -1.07518 -2.78357 0
M  V30 19100 C 1824.22 0.579321 -3.4284 0
M  V30 19101 H 1823.54 -0.0743746 -3.99731 0
M  V30 19102 H 1824.98 0.955871 -4.13085 0
M  V30 19103 C 1823.44 1.75345 -2.87673 0
M  V30 19104 O 1823.97 2.85178 -2.82907 0
M  V30 19105 N 1822.18 1.57158 -2.44437 0
M  V30 19106 H 1821.72 0.678148 -2.48513 0
M  V30 19107 H 1821.68 2.35869 -2.07877 0
M  V30 19108 N 1825.45 1.46436 -0.582609 0
M  V30 19109 C 1826.68 2.06469 -0.0736587 0
M  V30 19110 C 1827.09 1.43193 1.23662 0
M  V30 19111 O 1826.43 0.531376 1.75847 0
M  V30 19112 C 1826.5 3.59114 0.166531 0
M  V30 19113 C 1826.16 4.44581 -1.05814 0
M  V30 19114 C 1827.16 4.81125 -1.97016 0
M  V30 19115 C 1824.84 4.85718 -1.27996 0
M  V30 19116 C 1826.84 5.57632 -3.08747 0
M  V30 19117 C 1824.52 5.61986 -2.40032 0
M  V30 19118 C 1825.52 5.97856 -3.30237 0
M  V30 19119 O 1825.21 6.72582 -4.40328 0
M  V30 19120 H 1824.94 0.673802 -0.0544673 0
M  V30 19121 H 1827.5 1.89053 -0.803005 0
M  V30 19122 H 1825.73 3.74837 0.950489 0
M  V30 19123 H 1827.41 4.01075 0.62398 0
M  V30 19124 H 1828.18 4.49922 -1.81094 0
M  V30 19125 H 1824.06 4.57249 -0.586917 0
M  V30 19126 H 1827.6 5.85549 -3.7918 0
M  V30 19127 H 1823.5 5.92602 -2.55917 0
M  V30 19128 H 1824.27 6.91006 -4.38694 0
M  V30 19129 N 1826.93 0.320385 1.54309 0
M  V30 19130 C 1828.18 -0.283562 2.00808 0
M  V30 19131 C 1828.51 -1.52036 1.20826 0
M  V30 19132 O 1827.79 -1.9233 0.289721 0
M  V30 19133 C 1828.07 -0.620875 3.54707 0
M  V30 19134 C 1827.92 0.626403 4.45417 0
M  V30 19135 C 1829.24 -1.43978 4.15883 0
M  V30 19136 H 1826.36 -0.10159 0.729965 0
M  V30 19137 H 1829 0.436332 1.84922 0
M  V30 19138 H 1827.15 -1.23419 3.68375 0
M  V30 19139 H 1828.82 1.2647 4.43625 0
M  V30 19140 H 1827.07 1.2559 4.15222 0
M  V30 19141 H 1827.74 0.345969 5.50915 0
M  V30 19142 H 1830.21 -0.921381 4.05771 0
M  V30 19143 H 1829.09 -1.64456 5.23685 0
M  V30 19144 H 1829.35 -2.43494 3.69003 0
M  V30 19145 N 1828.41 -1.57525 0.0484906 0
M  V30 19146 C 1829.34 -2.08313 -0.955941 0
M  V30 19147 C 1830.35 -1.01042 -1.2765 0
M  V30 19148 O 1831.54 -1.28615 -1.23776 0
M  V30 19149 C 1828.64 -2.509 -2.27821 0
M  V30 19150 C 1827.82 -3.81476 -2.13997 0
M  V30 19151 C 1826.88 -4.10404 -3.29325 0
M  V30 19152 O 1825.9 -4.80366 -3.05348 0
M  V30 19153 N 1827.1 -3.62104 -4.53719 0
M  V30 19154 H 1829.87 -2.95111 -0.522472 0
M  V30 19155 H 1827.43 -1.61312 -0.137816 0
M  V30 19156 H 1829.42 -2.6733 -3.03837 0
M  V30 19157 H 1827.99 -1.69365 -2.62744 0
M  V30 19158 H 1827.21 -3.74654 -1.22589 0
M  V30 19159 H 1828.5 -4.6699 -2.01985 0
M  V30 19160 H 1827.9 -3.05541 -4.7609 0
M  V30 19161 H 1826.45 -3.83778 -5.26838 0
M  V30 19162 N 1829.89 0.224867 -1.55988 0
M  V30 19163 C 1831.13 0.949747 -1.78846 0
M  V30 19164 C 1831.46 1.84465 -0.616678 0
M  V30 19165 O 1830.72 1.91587 0.399098 0
M  V30 19166 C 1831.02 1.8227 -3.07429 0
M  V30 19167 C 1830.68 1.08131 -4.37743 0
M  V30 19168 C 1829.34 0.876497 -4.7315 0
M  V30 19169 C 1831.7 0.557505 -5.1821 0
M  V30 19170 C 1829.02 0.13593 -5.86543 0
M  V30 19171 C 1831.38 -0.169702 -6.32372 0
M  V30 19172 C 1830.04 -0.385796 -6.66384 0
M  V30 19173 H 1829.31 0.347537 -0.654446 0
M  V30 19174 H 1831.96 0.218162 -1.90253 0
M  V30 19175 H 1830.26 2.62204 -2.91129 0
M  V30 19176 H 1831.96 2.38564 -3.22317 0
M  V30 19177 H 1828.55 1.25091 -4.09939 0
M  V30 19178 H 1832.73 0.703218 -4.91293 0
M  V30 19179 H 1827.99 -0.0417543 -6.11386 0
M  V30 19180 H 1832.16 -0.583104 -6.93955 0
M  V30 19181 H 1829.79 -0.961574 -7.54094 0
M  V30 19182 N 1831.37 1.49742 0.491438 0
M  V30 19183 C 1832.31 1.67115 1.59189 0
M  V30 19184 C 1833.28 0.512523 1.57995 0
M  V30 19185 O 1834.47 0.740693 1.75836 0
M  V30 19186 C 1831.61 1.75258 2.97286 0
M  V30 19187 C 1830.72 3.02488 3.08424 0
M  V30 19188 C 1829.86 3.0155 4.37311 0
M  V30 19189 C 1828.89 4.2332 4.42116 0
M  V30 19190 N 1828.03 4.20238 5.62445 0
M  V30 19191 H 1832.87 2.61073 1.43683 0
M  V30 19192 H 1830.41 1.29435 0.69892 0
M  V30 19193 H 1832.37 1.77959 3.77341 0
M  V30 19194 H 1831 0.847568 3.11474 0
M  V30 19195 H 1830.05 3.09353 2.21371 0
M  V30 19196 H 1831.36 3.92479 3.07834 0
M  V30 19197 H 1830.51 3.02868 5.25695 0
M  V30 19198 H 1829.25 2.09354 4.4048 0
M  V30 19199 H 1828.26 4.22236 3.52132 0
M  V30 19200 H 1829.48 5.1672 4.40656 0
M  V30 19201 H 1827.43 3.30884 5.66438 0
M  V30 19202 H 1827.35 5.03974 5.63512 0
M  V30 19203 H 1828.61 4.25672 6.53011 0
M  V30 19204 N 1832.84 -0.743177 1.38977 0
M  V30 19205 C 1834.07 -1.53753 1.39193 0
M  V30 19206 C 1834.49 -1.88095 -0.0136591 0
M  V30 19207 O 1833.85 -1.51326 -0.998508 0
M  V30 19208 C 1833.9 -2.80679 2.26389 0
M  V30 19209 O 1833 -3.76265 1.68815 0
M  V30 19210 H 1832.35 -0.464639 0.474349 0
M  V30 19211 H 1834.88 -0.917579 1.82871 0
M  V30 19212 H 1834.89 -3.29498 2.40614 0
M  V30 19213 H 1833.56 -2.55014 3.28543 0
M  V30 19214 H 1832.14 -3.35004 1.63788 0
M  V30 19215 N 1834.32 -1.24018 -0.972487 0
M  V30 19216 C 1835.27 -1.02834 -2.06625 0
M  V30 19217 C 1836.24 0.056804 -1.66003 0
M  V30 19218 O 1837.42 -0.0968745 -1.90554 0
M  V30 19219 C 1834.56 -0.634103 -3.39224 0
M  V30 19220 C 1833.68 -1.79222 -3.93069 0
M  V30 19221 C 1832.81 -1.34401 -5.13916 0
M  V30 19222 C 1831.85 -2.47238 -5.59946 0
M  V30 19223 N 1830.99 -2.03319 -6.72016 0
M  V30 19224 H 1835.83 -1.96451 -2.24078 0
M  V30 19225 H 1833.37 -0.978545 -1.09831 0
M  V30 19226 H 1835.32 -0.386584 -4.15405 0
M  V30 19227 H 1833.95 0.26506 -3.2171 0
M  V30 19228 H 1833.01 -2.15353 -3.13572 0
M  V30 19229 H 1834.32 -2.64023 -4.23194 0
M  V30 19230 H 1833.47 -1.05509 -5.97455 0
M  V30 19231 H 1832.21 -0.466476 -4.85464 0
M  V30 19232 H 1831.22 -2.76895 -4.74983 0
M  V30 19233 H 1832.44 -3.35541 -5.90415 0
M  V30 19234 H 1830.39 -1.17956 -6.45308 0
M  V30 19235 H 1830.3 -2.81675 -7.01566 0
M  V30 19236 H 1831.57 -1.77553 -7.59009 0
M  V30 19237 N 1835.8 1.17245 -1.05316 0
M  V30 19238 C 1836.75 2.19256 -0.62538 0
M  V30 19239 C 1837.73 1.57293 0.338793 0
M  V30 19240 O 1838.93 1.76313 0.155822 0
M  V30 19241 C 1836.06 3.433 -0.0029214 0
M  V30 19242 C 1835.14 4.12359 -0.990997 0
M  V30 19243 N 1835.53 4.57224 -2.16287 0
M  V30 19244 C 1833.83 4.38402 -0.819748 0
M  V30 19245 C 1834.53 5.10531 -2.78806 0
M  V30 19246 N 1833.51 5.02811 -2.06595 0
M  V30 19247 H 1837.31 2.51649 -1.51823 0
M  V30 19248 H 1834.82 1.33588 -0.923471 0
M  V30 19249 H 1836.82 4.1566 0.321315 0
M  V30 19250 H 1835.48 3.12398 0.885303 0
M  V30 19251 H 1836.49 4.51272 -2.54115 0
M  V30 19252 H 1833.17 4.17496 0.0173221 0
M  V30 19253 H 1834.56 5.55357 -3.78191 0
M  V30 19254 N 1837.28 0.834353 1.33702 0
M  V30 19255 C 1838.69 0.52156 1.50837 0
M  V30 19256 C 1838.89 -0.95203 1.77591 0
M  V30 19257 O 1837.95 -1.73603 1.83353 0
M  V30 19258 C 1839.26 1.39099 2.66593 0
M  V30 19259 C 1840.81 1.3893 2.80477 0
M  V30 19260 C 1841.29 2.24347 3.9929 0
M  V30 19261 N 1842.78 2.22032 4.06517 0
M  V30 19262 C 1843.51 2.84865 4.97634 0
M  V30 19263 N 1843.01 3.56732 5.93897 0
M  V30 19264 N 1844.8 2.74359 4.90595 0
M  V30 19265 H 1836.95 1.78832 1.14598 0
M  V30 19266 H 1839.22 0.762708 0.563011 0
M  V30 19267 H 1838.92 2.43795 2.53489 0
M  V30 19268 H 1838.8 1.06381 3.61888 0
M  V30 19269 H 1841.18 0.350069 2.93016 0
M  V30 19270 H 1841.26 1.75652 1.85957 0
M  V30 19271 H 1840.91 3.28326 3.8751 0
M  V30 19272 H 1840.84 1.84969 4.93046 0
M  V30 19273 H 1843.33 1.69765 3.37621 0
M  V30 19274 H 1843.64 4.01893 6.60077 0
M  V30 19275 H 1841.99 3.6084 5.93986 0
M  V30 19276 H 1845.18 2.17779 4.14355 0
M  V30 19277 H 1845.35 3.23612 5.61408 0
M  V30 19278 N 1838.76 -1.46125 0.590367 0
M  V30 19279 C 1840.01 -2.01555 0.0765543 0
M  V30 19280 C 1840.32 -1.46661 -1.29422 0
M  V30 19281 O 1841.52 -1.93958 -1.8998 0
M  V30 19282 C 1839.98 -3.59797 0.0862369 0
M  V30 19283 C 1839.59 -4.23687 1.4558 0
M  V30 19284 C 1841.33 -4.22856 -0.373232 0
M  V30 19285 C 1839.24 -5.7403 1.42279 0
M  V30 19286 H 1838.17 -0.75359 0.0248501 0
M  V30 19287 H 1840.82 -1.67778 0.743149 0
M  V30 19288 H 1839.2 -3.90684 -0.646675 0
M  V30 19289 H 1840.38 -4.04398 2.20905 0
M  V30 19290 H 1838.69 -3.72753 1.85592 0
M  V30 19291 H 1841.29 -5.33073 -0.416837 0
M  V30 19292 H 1841.63 -3.92325 -1.39237 0
M  V30 19293 H 1842.16 -3.96622 0.305859 0
M  V30 19294 H 1838.9 -6.09234 2.41898 0
M  V30 19295 H 1838.42 -5.95561 0.711862 0
M  V30 19296 H 1840.1 -6.36896 1.13899 0
M  V30 19297 N 1840.23 -0.328564 -1.54137 0
M  V30 19298 C 1841.14 0.543922 -2.28207 0
M  V30 19299 C 1842.16 1.1249 -1.32748 0
M  V30 19300 O 1843.34 1.1438 -1.65769 0
M  V30 19301 C 1840.4 1.6864 -3.02922 0
M  V30 19302 C 1839.46 1.13672 -4.13977 0
M  V30 19303 C 1838.7 2.22474 -4.85119 0
M  V30 19304 O 1838.92 3.42914 -4.55813 0
M  V30 19305 O 1837.85 1.87611 -5.71914 0
M  V30 19306 H 1841.68 -0.0577601 -3.03645 0
M  V30 19307 H 1839.26 -0.0940895 -1.49103 0
M  V30 19308 H 1841.15 2.35143 -3.49693 0
M  V30 19309 H 1839.82 2.27417 -2.30355 0
M  V30 19310 H 1838.73 0.436625 -3.71543 0
M  V30 19311 H 1840.06 0.594012 -4.88602 0
M  V30 19312 N 1841.71 1.57497 -0.0568439 0
M  V30 19313 C 1843.12 1.80477 0.478027 0
M  V30 19314 C 1843.47 0.969549 1.7057 0
M  V30 19315 O 1842.6 0.187756 2.15584 0
M  V30 19316 C 1843.19 3.27332 0.874013 0
M  V30 19317 C 1841.75 3.5121 1.35383 0
M  V30 19318 C 1840.9 2.75308 0.331752 0
M  V30 19319 H 1843.85 1.56162 -0.282678 0
M  V30 19320 H 1843.87 3.38563 1.73653 0
M  V30 19321 H 1843.38 3.88095 -0.019701 0
M  V30 19322 H 1841.49 2.95734 2.26655 0
M  V30 19323 H 1841.6 4.59919 1.34208 0
M  V30 19324 H 1839.96 2.41616 0.805851 0
M  V30 19325 H 1840.75 3.38801 -0.553975 0
M  V30 19326 N 1843.19 -0.216591 1.56105 0
M  V30 19327 C 1844.44 -0.941642 1.79613 0
M  V30 19328 C 1844.77 -1.83789 0.627323 0
M  V30 19329 O 1844.04 -1.90886 -0.373195 0
M  V30 19330 C 1844.33 -1.77634 3.13238 0
M  V30 19331 C 1844.18 -0.906251 4.40576 0
M  V30 19332 C 1845.5 -2.75315 3.4335 0
M  V30 19333 H 1842.62 -0.340898 0.65342 0
M  V30 19334 H 1845.26 -0.210217 1.88833 0
M  V30 19335 H 1843.41 -2.39993 3.05509 0
M  V30 19336 H 1845.08 -0.299023 4.6033 0
M  V30 19337 H 1843.33 -0.211902 4.33282 0
M  V30 19338 H 1844 -1.52478 5.30523 0
M  V30 19339 H 1846.47 -2.23091 3.5124 0
M  V30 19340 H 1845.35 -3.30816 4.38009 0
M  V30 19341 H 1845.61 -3.53301 2.65765 0
M  V30 19342 N 1844.67 -1.5 -0.48349 0
M  V30 19343 C 1845.91 -1.61998 -1.24644 0
M  V30 19344 C 1846.27 -0.307758 -1.89517 0
M  V30 19345 O 1847.47 -0.303059 -2.67086 0
M  V30 19346 C 1845.74 -2.75914 -2.27171 0
M  V30 19347 S 1847.3 -3.0797 -3.1257 0
M  V30 19348 H 1844.12 -0.571218 -0.423357 0
M  V30 19349 H 1846.72 -1.87734 -0.545555 0
M  V30 19350 H 1845.43 -3.69755 -1.7807 0
M  V30 19351 H 1844.96 -2.52225 -3.01904 0
M  V30 19352 H 1846.97 -2.50839 -4.28129 0
M  V30 19353 N 1846.15 0.735796 -1.39369 0
M  V30 19354 C 1847.08 1.86303 -1.4076 0
M  V30 19355 C 1848.06 1.67926 -0.27107 0
M  V30 19356 O 1849.24 1.88257 -0.476773 0
M  V30 19357 C 1846.37 3.24043 -1.24955 0
M  V30 19358 C 1845.33 3.57055 -2.35999 0
M  V30 19359 C 1844.65 4.93723 -2.05284 0
M  V30 19360 C 1845.95 3.60109 -3.7831 0
M  V30 19361 H 1847.65 1.85396 -2.35093 0
M  V30 19362 H 1845.19 0.890552 -1.1316 0
M  V30 19363 H 1847.15 4.02574 -1.24549 0
M  V30 19364 H 1845.87 3.25475 -0.270902 0
M  V30 19365 H 1844.53 2.80853 -2.35621 0
M  V30 19366 H 1844.18 4.91734 -1.05859 0
M  V30 19367 H 1843.88 5.16779 -2.79667 0
M  V30 19368 H 1845.4 5.74612 -2.06527 0
M  V30 19369 H 1846.81 4.28718 -3.80622 0
M  V30 19370 H 1845.21 3.94683 -4.52046 0
M  V30 19371 H 1846.28 2.59932 -4.09345 0
M  V30 19372 N 1847.63 1.24532 0.965897 0
M  V30 19373 C 1848.56 1.06393 2.07853 0
M  V30 19374 C 1849.54 -0.0236467 1.70084 0
M  V30 19375 O 1850.72 0.143767 1.93667 0
M  V30 19376 C 1847.85 0.669877 3.40778 0
M  V30 19377 C 1846.81 1.70643 3.92511 0
M  V30 19378 C 1846.13 1.16738 5.21801 0
M  V30 19379 C 1847.43 3.10278 4.20149 0
M  V30 19380 H 1849.13 1.99459 2.23285 0
M  V30 19381 H 1846.67 0.960397 1.07296 0
M  V30 19382 H 1848.62 0.52997 4.18054 0
M  V30 19383 H 1847.35 -0.296477 3.25252 0
M  V30 19384 H 1846.01 1.83458 3.17393 0
M  V30 19385 H 1845.66 0.191586 5.02635 0
M  V30 19386 H 1845.36 1.86009 5.57382 0
M  V30 19387 H 1846.88 1.03963 6.01684 0
M  V30 19388 H 1848.29 3.00681 4.88123 0
M  V30 19389 H 1846.69 3.76918 4.66962 0
M  V30 19390 H 1847.76 3.58182 3.26854 0
M  V30 19391 N 1849.1 -1.16685 1.05936 0
M  V30 19392 C 1850.35 -1.87405 0.775061 0
M  V30 19393 C 1850.68 -1.81279 -0.696543 0
M  V30 19394 O 1849.96 -1.22595 -1.50999 0
M  V30 19395 C 1850.24 -3.37124 1.26569 0
M  V30 19396 C 1850.09 -3.5196 2.80078 0
M  V30 19397 C 1851.41 -4.31401 0.870695 0
M  V30 19398 H 1848.53 -0.680488 0.283028 0
M  V30 19399 H 1851.17 -1.37174 1.31466 0
M  V30 19400 H 1849.32 -3.80033 0.806653 0
M  V30 19401 H 1851 -3.18014 3.34163 0
M  V30 19402 H 1849.24 -2.9399 3.18986 0
M  V30 19403 H 1849.91 -4.5709 3.09471 0
M  V30 19404 H 1852.39 -3.96373 1.266 0
M  V30 19405 H 1851.26 -5.34676 1.2415 0
M  V30 19406 H 1851.52 -4.41529 -0.224692 0
M  V30 19407 N 1850.58 -0.841432 -1.33258 0
M  V30 19408 C 1851.53 -0.248505 -2.26642 0
M  V30 19409 C 1852.52 0.59799 -1.49375 0
M  V30 19410 O 1853.71 0.449539 -1.71196 0
M  V30 19411 C 1850.84 0.573322 -3.38479 0
M  V30 19412 C 1849.92 -0.284825 -4.23142 0
M  V30 19413 N 1850.31 -1.36477 -4.8704 0
M  V30 19414 C 1848.61 -0.072296 -4.45941 0
M  V30 19415 C 1849.31 -1.89162 -5.50084 0
M  V30 19416 N 1848.29 -1.19272 -5.30354 0
M  V30 19417 H 1852.09 -1.07432 -2.73561 0
M  V30 19418 H 1849.6 -0.686153 -1.47193 0
M  V30 19419 H 1851.6 1.01441 -4.0437 0
M  V30 19420 H 1850.26 1.39708 -2.93107 0
M  V30 19421 H 1851.27 -1.74767 -4.87521 0
M  V30 19422 H 1847.95 0.717812 -4.11283 0
M  V30 19423 H 1849.34 -2.79613 -6.10955 0
M  V30 19424 N 1852.06 1.4581 -0.598108 0
M  V30 19425 C 1853.31 2.01902 -0.0894342 0
M  V30 19426 C 1853.63 1.47021 1.281 0
M  V30 19427 O 1852.9 0.6608 1.84419 0
M  V30 19428 H 1851.48 0.746394 -0.0300712 0
M  V30 19429 H 1854.14 1.78726 -0.777367 0
M  V30 19430 H 1853.24 3.12084 -0.0320424 0
M  V30 19431 N 1853.54 0.336733 1.53961 0
M  V30 19432 C 1854.76 -0.26614 2.05685 0
M  V30 19433 C 1855.19 -1.43973 1.21051 0
M  V30 19434 O 1854.55 -1.79928 0.222652 0
M  V30 19435 C 1854.59 -0.66571 3.54402 0
M  V30 19436 O 1853.7 -1.76656 3.72648 0
M  V30 19437 H 1853.04 -0.0455655 0.662435 0
M  V30 19438 H 1855.57 0.488969 1.98671 0
M  V30 19439 H 1855.58 -0.944748 3.96911 0
M  V30 19440 H 1854.25 0.192589 4.15454 0
M  V30 19441 H 1852.83 -1.48531 3.42042 0
M  V30 19442 N 1855.02 -1.57465 0.0651956 0
M  V30 19443 C 1856.43 -1.80728 -0.468449 0
M  V30 19444 C 1856.78 -0.978581 -1.70054 0
M  V30 19445 O 1855.9 -0.199186 -2.15481 0
M  V30 19446 C 1856.5 -3.27791 -0.856641 0
M  V30 19447 C 1855.06 -3.51923 -1.33519 0
M  V30 19448 C 1854.2 -2.7548 -0.317147 0
M  V30 19449 H 1857.15 -1.5601 0.290955 0
M  V30 19450 H 1857.18 -3.39479 -1.71855 0
M  V30 19451 H 1856.69 -3.88079 0.0402823 0
M  V30 19452 H 1854.79 -2.96932 -2.25083 0
M  V30 19453 H 1854.9 -4.60624 -1.31767 0
M  V30 19454 H 1853.27 -2.4204 -0.793026 0
M  V30 19455 H 1854.05 -3.38502 0.571935 0
M  V30 19456 N 1856.49 0.20831 -1.56217 0
M  V30 19457 C 1857.74 0.928886 -1.79488 0
M  V30 19458 C 1858.06 1.84337 -0.636 0
M  V30 19459 O 1857.33 1.92813 0.346416 0
M  V30 19460 H 1855.91 0.345985 -0.662045 0
M  V30 19461 H 1858.57 0.216988 -1.93688 0
M  V30 19462 H 1857.67 1.52786 -2.72145 0
M  V30 19463 N 1857.97 1.50255 0.475528 0
M  V30 19464 C 1859.2 1.64771 1.25132 0
M  V30 19465 C 1859.61 0.329253 1.85907 0
M  V30 19466 O 1858.97 -0.688289 1.69023 0
M  V30 19467 C 1859.02 2.73556 2.36325 0
M  V30 19468 O 1858.74 4.0029 1.78043 0
M  V30 19469 C 1860.24 2.99006 3.27277 0
M  V30 19470 H 1857.46 0.553987 0.378602 0
M  V30 19471 H 1860.01 1.9645 0.56811 0
M  V30 19472 H 1858.16 2.44584 3.00429 0
M  V30 19473 H 1858.58 4.60416 2.51232 0
M  V30 19474 H 1860.05 3.78797 4.01518 0
M  V30 19475 H 1860.53 2.09904 3.85794 0
M  V30 19476 H 1861.13 3.29493 2.68914 0
M  V30 19477 N 1859.45 -0.728395 1.39758 0
M  V30 19478 C 1860.7 -1.48514 1.37069 0
M  V30 19479 C 1861.02 -1.94976 -0.0305263 0
M  V30 19480 O 1860.29 -1.69453 -0.982987 0
M  V30 19481 H 1858.87 -0.550958 0.504434 0
M  V30 19482 H 1861.53 -0.864297 1.74688 0
M  V30 19483 H 1860.63 -2.36411 2.03755 0
M  V30 19484 N 1860.93 -1.25042 -0.959279 0
M  V30 19485 C 1861.87 -1.0502 -2.05522 0
M  V30 19486 C 1862.84 0.039194 -1.66054 0
M  V30 19487 O 1864.03 -0.11708 -1.9044 0
M  V30 19488 C 1861.17 -0.670047 -3.38533 0
M  V30 19489 C 1860.28 -1.83381 -3.91146 0
M  V30 19490 C 1859.42 -1.39844 -5.12462 0
M  V30 19491 C 1858.46 -2.53163 -5.57293 0
M  V30 19492 N 1857.59 -2.10435 -6.69822 0
M  V30 19493 H 1862.43 -1.98816 -2.21982 0
M  V30 19494 H 1859.97 -0.990139 -1.08787 0
M  V30 19495 H 1861.93 -0.430621 -4.14972 0
M  V30 19496 H 1860.56 0.230924 -3.21973 0
M  V30 19497 H 1859.61 -2.18667 -3.1127 0
M  V30 19498 H 1860.92 -2.68497 -4.2037 0
M  V30 19499 H 1860.08 -1.1184 -5.96303 0
M  V30 19500 H 1858.82 -0.51794 -4.84942 0
M  V30 19501 H 1857.82 -2.81918 -4.7202 0
M  V30 19502 H 1859.05 -3.41784 -5.86822 0
M  V30 19503 H 1856.99 -1.24794 -6.44021 0
M  V30 19504 H 1856.91 -2.89101 -6.98539 0
M  V30 19505 H 1858.18 -1.85593 -7.57084 0
M  V30 19506 N 1862.41 1.16121 -1.06553 0
M  V30 19507 C 1863.63 1.91152 -0.804706 0
M  V30 19508 C 1864.06 1.77045 0.635338 0
M  V30 19509 O 1863.41 1.09757 1.44302 0
M  V30 19510 C 1863.46 3.39782 -1.20751 0
M  V30 19511 O 1862.57 4.1093 -0.347889 0
M  V30 19512 H 1861.91 0.595433 -0.293863 0
M  V30 19513 H 1864.44 1.47104 -1.42203 0
M  V30 19514 H 1864.45 3.90558 -1.1802 0
M  V30 19515 H 1863.12 3.49369 -2.25642 0
M  V30 19516 H 1861.7 3.70331 -0.436993 0
M  V30 19517 N 1863.88 0.848487 1.3281 0
M  V30 19518 C 1865.13 0.449521 1.97755 0
M  V30 19519 C 1865.46 -0.990923 1.67016 0
M  V30 19520 O 1864.74 -1.69434 0.955119 0
M  V30 19521 C 1865.02 0.681898 3.53585 0
M  V30 19522 C 1864.87 2.17031 3.93976 0
M  V30 19523 C 1866.19 0.134271 4.39895 0
M  V30 19524 H 1863.31 0.164799 0.718339 0
M  V30 19525 H 1865.95 1.06578 1.57293 0
M  V30 19526 H 1864.1 0.157353 3.88181 0
M  V30 19527 H 1865.78 2.76046 3.69589 0
M  V30 19528 H 1864.02 2.65117 3.43359 0
M  V30 19529 H 1864.69 2.28362 5.02548 0
M  V30 19530 H 1867.17 0.582756 4.11999 0
M  V30 19531 H 1866.04 0.326479 5.47928 0
M  V30 19532 H 1866.3 -0.962576 4.31494 0
M  V30 19533 N 1865.36 -1.4549 0.605832 0
M  V30 19534 C 1866.33 -2.28964 -0.104089 0
M  V30 19535 C 1867.33 -1.39671 -0.796791 0
M  V30 19536 O 1868.52 -1.6181 -0.645221 0
M  V30 19537 C 1865.65 -3.20647 -1.1575 0
M  V30 19538 H 1866.84 -2.93213 0.629776 0
M  V30 19539 H 1864.39 -1.51983 0.3648 0
M  V30 19540 H 1865.13 -2.61194 -1.92219 0
M  V30 19541 H 1864.91 -3.86419 -0.665025 0
M  V30 19542 H 1866.4 -3.83416 -1.65474 0
M  V30 19543 N 1866.84 -0.344893 -1.5378 0
M  V30 19544 C 1868.07 0.252559 -2.05353 0
M  V30 19545 C 1868.48 1.44107 -1.21978 0
M  V30 19546 O 1867.84 1.80704 -0.25543 0
M  V30 19547 C 1867.89 0.666294 -3.55307 0
M  V30 19548 O 1867.61 -0.474957 -4.35518 0
M  V30 19549 C 1869.11 1.32432 -4.23056 0
M  V30 19550 H 1866.33 0.0485202 -0.669243 0
M  V30 19551 H 1868.88 -0.497271 -1.98362 0
M  V30 19552 H 1867.03 1.36606 -3.62515 0
M  V30 19553 H 1867.45 -0.144883 -5.243 0
M  V30 19554 H 1868.92 1.56456 -5.29363 0
M  V30 19555 H 1869.4 2.27829 -3.75487 0
M  V30 19556 H 1870 0.66655 -4.20044 0
M  V30 19557 N 1868.32 1.57428 -0.0735454 0
M  V30 19558 C 1869.27 2.14028 0.910749 0
M  V30 19559 C 1870.26 1.07761 1.30705 0
M  V30 19560 O 1871.47 1.26139 1.28409 0
M  V30 19561 H 1867.84 0.684381 0.311652 0
M  V30 19562 H 1869.81 2.95591 0.408468 0
M  V30 19563 C 1868.56 2.71817 2.1682 0
M  V30 19564 H 1867.88 3.5326 1.87209 0
M  V30 19565 H 1869.32 3.15014 2.83799 0
M  V30 19566 C 1867.78 1.66661 2.92789 0
M  V30 19567 O 1868.31 1.09266 3.86554 0
M  V30 19568 N 1866.52 1.37655 2.55929 0
M  V30 19569 H 1866.07 1.84518 1.79752 0
M  V30 19570 H 1866.02 0.675307 3.07062 0
M  V30 19571 N 1869.8 -0.200022 1.56326 0
M  V30 19572 C 1870.73 -1.25071 1.97179 0
M  V30 19573 C 1871.71 -1.4774 0.84303 0
M  V30 19574 O 1872.89 -1.5956 1.10699 0
M  V30 19575 C 1870.02 -2.596 2.30706 0
M  V30 19576 C 1868.98 -2.51552 3.46274 0
M  V30 19577 C 1868.3 -3.90309 3.65463 0
M  V30 19578 C 1869.6 -2.0448 4.80609 0
M  V30 19579 H 1871.3 -0.911238 2.85196 0
M  V30 19580 H 1868.84 -0.436899 1.37212 0
M  V30 19581 H 1870.8 -3.33281 2.5788 0
M  V30 19582 H 1869.52 -2.95278 1.39565 0
M  V30 19583 H 1868.18 -1.80327 3.19183 0
M  V30 19584 H 1867.83 -4.23331 2.71662 0
M  V30 19585 H 1867.53 -3.858 4.43207 0
M  V30 19586 H 1869.05 -4.65619 3.95008 0
M  V30 19587 H 1870.46 -2.67917 5.06847 0
M  V30 19588 H 1868.86 -2.10985 5.61788 0
M  V30 19589 H 1869.93 -0.997828 4.74522 0
M  V30 19590 N 1871.27 -1.50505 -0.467553 0
M  V30 19591 C 1872.52 -1.60911 -1.21617 0
M  V30 19592 C 1872.84 -0.31663 -1.9302 0
M  V30 19593 O 1874.04 -0.299645 -2.69841 0
M  V30 19594 C 1872.5 -2.84052 -2.21003 0
M  V30 19595 C 1872.11 -4.20189 -1.55386 0
M  V30 19596 C 1873.85 -3.03805 -2.96484 0
M  V30 19597 C 1871.76 -5.34514 -2.5308 0
M  V30 19598 H 1870.69 -0.59924 -0.457633 0
M  V30 19599 H 1873.34 -1.7694 -0.486276 0
M  V30 19600 H 1871.72 -2.6159 -2.97299 0
M  V30 19601 H 1872.89 -4.5292 -0.848552 0
M  V30 19602 H 1871.21 -4.0607 -0.921725 0
M  V30 19603 H 1873.81 -3.86387 -3.69606 0
M  V30 19604 H 1874.15 -2.15672 -3.56078 0
M  V30 19605 H 1874.68 -3.26465 -2.27301 0
M  V30 19606 H 1871.42 -6.24811 -1.9822 0
M  V30 19607 H 1870.94 -5.06197 -3.21752 0
M  V30 19608 H 1872.62 -5.65232 -3.14836 0
M  V30 19609 N 1872.75 0.720973 -1.40142 0
M  V30 19610 C 1873.72 1.81676 -1.39737 0
M  V30 19611 C 1874.72 1.58125 -0.292068 0
M  V30 19612 O 1875.91 1.65266 -0.550699 0
M  V30 19613 C 1873.04 3.19685 -1.18381 0
M  V30 19614 H 1874.23 1.83435 -2.37259 0
M  V30 19615 H 1871.78 0.926064 -1.25912 0
M  V30 19616 H 1872.52 3.2358 -0.21598 0
M  V30 19617 H 1872.3 3.38178 -1.98439 0
M  V30 19618 H 1873.79 3.99724 -1.20873 0
M  V30 19619 N 1874.23 1.25549 0.952634 0
M  V30 19620 C 1875.65 1.02414 1.22407 0
M  V30 19621 C 1875.85 -0.257807 1.99844 0
M  V30 19622 O 1874.9 -0.969999 2.33125 0
M  V30 19623 C 1876.22 2.24856 1.9965 0
M  V30 19624 C 1877.76 2.29638 2.12686 0
M  V30 19625 C 1878.24 3.51742 2.93329 0
M  V30 19626 N 1879.73 3.5215 3.00907 0
M  V30 19627 C 1880.46 4.43292 3.63703 0
M  V30 19628 N 1879.96 5.44709 4.28094 0
M  V30 19629 N 1881.75 4.30969 3.60863 0
M  V30 19630 H 1873.9 2.07905 0.434647 0
M  V30 19631 H 1876.17 0.913124 0.254772 0
M  V30 19632 H 1875.87 3.18037 1.5015 0
M  V30 19633 H 1875.75 2.28188 3.0035 0
M  V30 19634 H 1878.13 1.36978 2.61383 0
M  V30 19635 H 1878.22 2.30324 1.11285 0
M  V30 19636 H 1877.86 4.44724 2.45322 0
M  V30 19637 H 1877.79 3.48301 3.9496 0
M  V30 19638 H 1880.28 2.78789 2.55118 0
M  V30 19639 H 1880.59 6.10462 4.73873 0
M  V30 19640 H 1878.94 5.48579 4.26715 0
M  V30 19641 H 1882.13 3.50964 3.09745 0
M  V30 19642 H 1882.3 5.02196 4.09516 0
M  V30 19643 N 1875.71 -1.15554 1.07168 0
M  V30 19644 C 1876.67 -2.18431 0.694305 0
M  V30 19645 C 1877.67 -1.5861 -0.264497 0
M  V30 19646 O 1878.86 -1.7414 -0.0457035 0
M  V30 19647 C 1875.99 -3.40892 0.0230473 0
M  V30 19648 H 1877.19 -2.53331 1.60511 0
M  V30 19649 H 1874.74 -1.29984 0.867982 0
M  V30 19650 H 1875.47 -3.11559 -0.900083 0
M  V30 19651 H 1875.26 -3.8557 0.712622 0
M  V30 19652 H 1876.75 -4.16986 -0.226392 0
M  V30 19653 N 1877.19 -0.855519 -1.32358 0
M  V30 19654 C 1878.44 -0.455543 -1.96488 0
M  V30 19655 C 1878.75 0.99419 -1.68449 0
M  V30 19656 O 1879.96 1.49964 -2.26325 0
M  V30 19657 C 1878.41 -0.763678 -3.51704 0
M  V30 19658 C 1878.02 -2.2292 -3.88601 0
M  V30 19659 C 1879.76 -0.431467 -4.22302 0
M  V30 19660 C 1877.67 -2.48051 -5.36866 0
M  V30 19661 H 1876.6 -0.166617 -0.73536 0
M  V30 19662 H 1879.25 -1.04642 -1.50739 0
M  V30 19663 H 1877.63 -0.102224 -3.95868 0
M  V30 19664 H 1878.81 -2.93251 -3.55444 0
M  V30 19665 H 1877.12 -2.52602 -3.31031 0
M  V30 19666 H 1879.72 -0.596641 -5.31361 0
M  V30 19667 H 1880.06 0.62698 -4.11552 0
M  V30 19668 H 1880.6 -1.04885 -3.83724 0
M  V30 19669 H 1877.33 -3.52523 -5.52637 0
M  V30 19670 H 1876.85 -1.82298 -5.71426 0
M  V30 19671 H 1878.53 -2.32044 -6.03957 0
M  V30 19672 N 1878.67 1.45167 -0.61354 0
M  V30 19673 C 1879.63 2.29016 0.0919454 0
M  V30 19674 C 1880.63 1.40091 0.789373 0
M  V30 19675 O 1881.82 1.6215 0.636631 0
M  V30 19676 C 1878.95 3.21257 1.14048 0
M  V30 19677 H 1880.14 2.92875 -0.645317 0
M  V30 19678 H 1877.7 1.51788 -0.372855 0
M  V30 19679 H 1878.43 2.6221 1.90831 0
M  V30 19680 H 1878.22 3.86766 0.644523 0
M  V30 19681 H 1879.71 3.84288 1.63439 0
M  V30 19682 N 1880.14 0.353044 1.53595 0
M  V30 19683 C 1881.05 -0.507548 2.29044 0
M  V30 19684 C 1882.07 -1.10364 1.34521 0
M  V30 19685 O 1883.25 -1.11728 1.67567 0
M  V30 19686 C 1880.31 -1.63799 3.05566 0
M  V30 19687 C 1879.37 -1.07071 4.15733 0
M  V30 19688 C 1878.6 -2.14728 4.88597 0
M  V30 19689 O 1878.83 -3.35619 4.61211 0
M  V30 19690 O 1877.76 -1.78489 5.74826 0
M  V30 19691 H 1881.59 0.10606 3.03515 0
M  V30 19692 H 1879.17 0.117799 1.48935 0
M  V30 19693 H 1881.05 -2.2955 3.5339 0
M  V30 19694 H 1879.73 -2.23723 2.33944 0
M  V30 19695 H 1878.64 -0.37746 3.72191 0
M  V30 19696 H 1879.97 -0.516205 4.89486 0
M  V30 19697 N 1881.62 -1.57387 0.0818932 0
M  V30 19698 C 1882.57 -2.13292 -0.881772 0
M  V30 19699 C 1883.54 -1.04801 -1.28864 0
M  V30 19700 O 1884.72 -1.32519 -1.37272 0
M  V30 19701 C 1881.86 -2.70708 -2.14035 0
M  V30 19702 C 1880.98 -3.93388 -1.78522 0
M  V30 19703 C 1880.11 -4.39013 -2.99067 0
M  V30 19704 C 1879.15 -5.54315 -2.59617 0
M  V30 19705 N 1878.29 -5.94853 -3.72954 0
M  V30 19706 H 1883.13 -2.95328 -0.398167 0
M  V30 19707 H 1880.66 -1.45934 -0.184876 0
M  V30 19708 H 1882.62 -3.0211 -2.87724 0
M  V30 19709 H 1881.25 -1.91421 -2.59919 0
M  V30 19710 H 1880.3 -3.68384 -0.948546 0
M  V30 19711 H 1881.62 -4.77106 -1.45505 0
M  V30 19712 H 1880.77 -4.72129 -3.81023 0
M  V30 19713 H 1879.51 -3.54169 -3.35284 0
M  V30 19714 H 1878.51 -5.2084 -1.76084 0
M  V30 19715 H 1879.74 -6.40898 -2.24558 0
M  V30 19716 H 1877.69 -5.12957 -4.08915 0
M  V30 19717 H 1877.6 -6.73335 -3.43739 0
M  V30 19718 H 1878.87 -6.32595 -4.5546 0
M  V30 19719 N 1883.1 0.191729 -1.56429 0
M  V30 19720 C 1884.01 1.25798 -1.9802 0
M  V30 19721 C 1885.03 1.49612 -0.888379 0
M  V30 19722 O 1886.2 1.62161 -1.1944 0
M  V30 19723 C 1883.27 2.58158 -2.3142 0
M  V30 19724 C 1882.33 2.42386 -3.54327 0
M  V30 19725 C 1881.56 3.68434 -3.86124 0
M  V30 19726 O 1881.78 4.72747 -3.19165 0
M  V30 19727 O 1880.72 3.63762 -4.79542 0
M  V30 19728 H 1884.54 0.935013 -2.88948 0
M  V30 19729 H 1882.13 0.396996 -1.44029 0
M  V30 19730 H 1884.01 3.36274 -2.53964 0
M  V30 19731 H 1882.69 2.90075 -1.43659 0
M  V30 19732 H 1881.59 1.62369 -3.37027 0
M  V30 19733 H 1882.93 2.154 -4.42565 0
M  V30 19734 N 1884.58 1.50751 0.459565 0
M  V30 19735 C 1885.53 1.70997 1.57679 0
M  V30 19736 C 1886.52 0.575925 1.59309 0
M  V30 19737 O 1887.73 0.756735 1.6332 0
M  V30 19738 H 1884.1 0.539921 0.52344 0
M  V30 19739 H 1886.07 2.64693 1.37769 0
M  V30 19740 C 1884.82 1.83187 2.9553 0
M  V30 19741 H 1884.14 2.69844 2.94998 0
M  V30 19742 H 1885.58 2.01374 3.73128 0
M  V30 19743 C 1884.04 0.586222 3.31761 0
M  V30 19744 O 1884.57 -0.269358 4.00796 0
M  V30 19745 N 1882.78 0.436839 2.87298 0
M  V30 19746 H 1882.33 1.13413 2.31291 0
M  V30 19747 H 1882.28 -0.395424 3.11903 0
M  V30 19748 N 1886.06 -0.713531 1.40522 0
M  V30 19749 C 1887.28 -1.5026 1.4223 0
M  V30 19750 C 1887.7 -1.88787 0.0225637 0
M  V30 19751 O 1887.06 -1.55581 -0.95398 0
M  V30 19752 C 1887.11 -2.77663 2.31486 0
M  V30 19753 O 1886.83 -2.40765 3.66011 0
M  V30 19754 C 1888.33 -3.71543 2.41807 0
M  V30 19755 H 1885.55 -0.463648 0.485048 0
M  V30 19756 H 1888.09 -0.88 1.84598 0
M  V30 19757 H 1886.25 -3.36203 1.92475 0
M  V30 19758 H 1886.66 -3.22757 4.13434 0
M  V30 19759 H 1888.14 -4.57771 3.08464 0
M  V30 19760 H 1888.61 -4.14792 1.44375 0
M  V30 19761 H 1889.22 -3.18914 2.81379 0
M  V30 19762 N 1887.53 -1.26053 -0.945962 0
M  V30 19763 C 1888.76 -1.14181 -1.7314 0
M  V30 19764 C 1889.18 0.299663 -1.85698 0
M  V30 19765 O 1888.54 1.21711 -1.34373 0
M  V30 19766 C 1888.59 -1.81052 -3.11854 0
M  V30 19767 O 1887.69 -1.09606 -3.97568 0
M  V30 19768 H 1887.03 -0.398138 -0.531397 0
M  V30 19769 H 1889.56 -1.66782 -1.18511 0
M  V30 19770 H 1889.57 -1.87685 -3.62269 0
M  V30 19771 H 1888.25 -2.85921 -3.0203 0
M  V30 19772 H 1886.83 -1.10915 -3.56023 0
M  V30 19773 N 1889.01 1.14984 -1.07779 0
M  V30 19774 C 1890.24 1.89747 -0.824844 0
M  V30 19775 C 1890.65 1.78246 0.622385 0
M  V30 19776 O 1890.01 1.13739 1.42723 0
M  V30 19777 C 1890.06 3.39946 -1.2296 0
M  V30 19778 O 1889.78 3.5112 -2.62005 0
M  V30 19779 C 1891.28 4.31721 -1.00658 0
M  V30 19780 H 1888.5 0.601232 -0.297928 0
M  V30 19781 H 1891.05 1.4566 -1.43539 0
M  V30 19782 H 1889.2 3.81679 -0.663292 0
M  V30 19783 H 1889.62 4.44367 -2.78636 0
M  V30 19784 H 1891.09 5.35507 -1.33925 0
M  V30 19785 H 1891.57 4.39163 0.0568131 0
M  V30 19786 H 1892.17 3.95735 -1.55801 0
M  V30 19787 N 1890.49 0.862526 1.31902 0
M  V30 19788 C 1891.72 0.483304 2.00867 0
M  V30 19789 C 1892.13 -0.926733 1.64949 0
M  V30 19790 O 1891.47 -1.61745 0.870881 0
M  V30 19791 C 1891.53 0.551872 3.55239 0
M  V30 19792 C 1891.2 1.9222 4.14609 0
M  V30 19793 C 1892.19 2.88872 4.3226 0
M  V30 19794 C 1889.88 2.22149 4.50506 0
M  V30 19795 C 1891.87 4.136 4.84988 0
M  V30 19796 C 1889.56 3.47128 5.02937 0
M  V30 19797 C 1890.56 4.4267 5.20127 0
M  V30 19798 O 1890.25 5.65435 5.71435 0
M  V30 19799 H 1889.98 0.187544 0.649464 0
M  V30 19800 H 1892.53 1.16337 1.69278 0
M  V30 19801 H 1890.76 -0.18508 3.86257 0
M  V30 19802 H 1892.45 0.187136 4.05468 0
M  V30 19803 H 1893.22 2.67056 4.04853 0
M  V30 19804 H 1889.1 1.48564 4.36406 0
M  V30 19805 H 1892.64 4.88182 4.98321 0
M  V30 19806 H 1888.54 3.68791 5.29777 0
M  V30 19807 H 1889.3 5.67503 5.89816 0
M  V30 19808 N 1891.97 -1.4484 0.62123 0
M  V30 19809 C 1893.19 -2.07012 0.126801 0
M  V30 19810 C 1893.62 -1.46046 -1.18542 0
M  V30 19811 O 1892.98 -0.558202 -1.72493 0
M  V30 19812 C 1893.02 -3.60597 0.0150611 0
M  V30 19813 O 1892.13 -3.9929 -1.03157 0
M  V30 19814 H 1891.47 -0.659131 0.0802646 0
M  V30 19815 H 1894 -1.85874 0.855105 0
M  V30 19816 H 1894.01 -4.07608 -0.178742 0
M  V30 19817 H 1892.68 -4.04354 0.973153 0
M  V30 19818 H 1891.26 -3.63927 -0.813135 0
M  V30 19819 N 1893.45 -0.361184 -1.53405 0
M  V30 19820 C 1894.38 0.479368 -2.28526 0
M  V30 19821 C 1895.36 1.08768 -1.3078 0
M  V30 19822 O 1896.54 1.10576 -1.59645 0
M  V30 19823 C 1893.67 1.6215 -3.07123 0
M  V30 19824 C 1892.63 1.14065 -4.12521 0
M  V30 19825 C 1891.95 2.37267 -4.79175 0
M  V30 19826 C 1893.25 0.228522 -5.218 0
M  V30 19827 H 1894.95 -0.147344 -2.99037 0
M  V30 19828 H 1892.49 -0.0723051 -1.43818 0
M  V30 19829 H 1894.45 2.21612 -3.58422 0
M  V30 19830 H 1893.17 2.27538 -2.34295 0
M  V30 19831 H 1891.83 0.568735 -3.62162 0
M  V30 19832 H 1891.48 3.01102 -4.02923 0
M  V30 19833 H 1891.18 2.05768 -5.50394 0
M  V30 19834 H 1892.7 2.97424 -5.33265 0
M  V30 19835 H 1894.11 0.730497 -5.68627 0
M  V30 19836 H 1892.51 0.00460259 -6.001 0
M  V30 19837 H 1893.58 -0.730537 -4.79365 0
M  V30 19838 N 1894.92 1.57341 -0.0902386 0
M  V30 19839 C 1896.34 1.8145 0.439638 0
M  V30 19840 C 1896.69 1.00551 1.68475 0
M  V30 19841 O 1895.81 0.233442 2.15137 0
M  V30 19842 C 1896.41 3.29113 0.804384 0
M  V30 19843 C 1894.97 3.54003 1.27903 0
M  V30 19844 C 1894.11 2.7595 0.27328 0
M  V30 19845 H 1897.06 1.55527 -0.315738 0
M  V30 19846 H 1897.08 3.4217 1.66432 0
M  V30 19847 H 1896.6 3.87966 -0.102017 0
M  V30 19848 H 1894.7 3.00475 2.20331 0
M  V30 19849 H 1894.81 4.62662 1.24422 0
M  V30 19850 H 1893.17 2.43271 0.754419 0
M  V30 19851 H 1893.96 3.3755 -0.625715 0
M  V30 19852 N 1896.4 -0.183431 1.56529 0
M  V30 19853 C 1897.81 -0.747035 1.71103 0
M  V30 19854 C 1898.16 -1.83335 0.698762 0
M  V30 19855 O 1897.29 -2.15931 -0.142414 0
M  V30 19856 C 1897.88 -1.36183 3.10225 0
M  V30 19857 C 1896.44 -1.87239 3.26525 0
M  V30 19858 C 1895.59 -0.746737 2.67056 0
M  V30 19859 H 1898.54 0.0418058 1.58645 0
M  V30 19860 H 1898.56 -2.2314 3.08203 0
M  V30 19861 H 1898.07 -0.570966 3.83877 0
M  V30 19862 H 1896.18 -2.69008 2.57809 0
M  V30 19863 H 1896.29 -2.02616 4.34147 0
M  V30 19864 H 1894.65 -1.16406 2.26543 0
M  V30 19865 H 1895.44 0.0320833 3.43285 0
M  V30 19866 N 1897.88 -1.50992 -0.451564 0
M  V30 19867 C 1899.16 -1.53486 -1.2125 0
M  V30 19868 C 1899.54 -0.290809 -2.09087 0
M  V30 19869 O 1898.89 0.724859 -2.16698 0
M  V30 19870 C 1899.1 -2.84125 -2.02667 0
M  V30 19871 C 1900.44 -3.35535 -2.60195 0
M  V30 19872 O 1901.47 -2.85579 -2.12892 0
M  V30 19873 O 1900.33 -4.22667 -3.46432 0
M  V30 19874 H 1897.42 -0.616481 -0.551253 0
M  V30 19875 H 1899.97 -1.63296 -0.461792 0
M  V30 19876 H 1898.74 -3.66134 -1.38064 0
M  V30 19877 H 1898.36 -2.7741 -2.84832 0
M  V30 19878 N 1899.36 0.706069 -1.40899 0
M  V30 19879 C 1900.77 1.2856 -1.35386 0
M  V30 19880 C 1901.12 1.96174 -0.0318902 0
M  V30 19881 O 1900.25 1.9814 0.870018 0
M  V30 19882 C 1900.84 2.33785 -2.45214 0
M  V30 19883 C 1899.4 2.87339 -2.43132 0
M  V30 19884 C 1898.55 1.61243 -2.25601 0
M  V30 19885 H 1901.5 0.501539 -1.50567 0
M  V30 19886 H 1901.52 3.14843 -2.13669 0
M  V30 19887 H 1901.03 1.84545 -3.41416 0
M  V30 19888 H 1899.13 3.40784 -1.50656 0
M  V30 19889 H 1899.24 3.38485 -3.39065 0
M  V30 19890 H 1897.61 1.86664 -1.73288 0
M  V30 19891 H 1898.39 1.14014 -3.23814 0
M  V30 19892 N 1900.84 1.26553 0.939264 0
M  V30 19893 C 1902.06 1.15098 1.72532 0
M  V30 19894 C 1902.49 -0.289811 1.85854 0
M  V30 19895 O 1901.84 -1.20997 1.35017 0
M  V30 19896 C 1901.89 1.82703 3.10889 0
M  V30 19897 O 1901 1.11712 3.96981 0
M  V30 19898 H 1900.34 0.40095 0.529278 0
M  V30 19899 H 1902.87 1.67408 1.17625 0
M  V30 19900 H 1902.88 1.89603 3.61268 0
M  V30 19901 H 1901.55 2.87519 3.00509 0
M  V30 19902 H 1900.13 1.12801 3.5543 0
M  V30 19903 N 1902.31 -1.14411 1.08387 0
M  V30 19904 C 1903.26 -2.1752 0.683292 0
M  V30 19905 C 1904.25 -1.58136 -0.296971 0
M  V30 19906 O 1905.44 -1.76664 -0.109021 0
M  V30 19907 C 1902.57 -3.43171 0.0939403 0
M  V30 19908 C 1901.66 -4.09587 1.09998 0
M  V30 19909 N 1902.05 -4.51329 2.28333 0
M  V30 19910 C 1900.34 -4.36074 0.935695 0
M  V30 19911 C 1901.05 -5.0296 2.92244 0
M  V30 19912 N 1900.02 -4.97157 2.19854 0
M  V30 19913 H 1903.82 -2.47535 1.58441 0
M  V30 19914 H 1901.34 -1.31093 0.958564 0
M  V30 19915 H 1903.33 -4.16366 -0.210997 0
M  V30 19916 H 1901.99 -3.14635 -0.802165 0
M  V30 19917 H 1903.01 -4.44376 2.6599 0
M  V30 19918 H 1899.68 -4.17396 0.0933758 0
M  V30 19919 H 1901.07 -5.45135 3.92782 0
M  V30 19920 N 1903.79 -0.869509 -1.31443 0
M  V30 19921 C 1905.04 -0.480214 -1.96724 0
M  V30 19922 C 1905.37 0.967405 -1.68735 0
M  V30 19923 O 1904.62 1.69616 -0.976162 0
M  V30 19924 C 1904.92 -0.683486 -3.50804 0
M  V30 19925 C 1904.59 -2.10382 -3.98811 0
M  V30 19926 C 1903.25 -2.49226 -4.11631 0
M  V30 19927 C 1905.6 -3.03015 -4.24065 0
M  V30 19928 C 1902.93 -3.79944 -4.47057 0
M  V30 19929 C 1905.28 -4.33248 -4.60954 0
M  V30 19930 C 1903.95 -4.72006 -4.71982 0
M  V30 19931 H 1903.22 -0.175723 -0.719863 0
M  V30 19932 H 1905.86 -1.10241 -1.56586 0
M  V30 19933 H 1904.17 0.0218481 -3.91794 0
M  V30 19934 H 1905.86 -0.362105 -3.99362 0
M  V30 19935 H 1902.45 -1.79225 -3.89328 0
M  V30 19936 H 1906.64 -2.74232 -4.13655 0
M  V30 19937 H 1901.89 -4.09736 -4.53792 0
M  V30 19938 H 1906.07 -5.05077 -4.79448 0
M  V30 19939 H 1903.7 -5.73337 -4.99188 0
M  V30 19940 N 1905.27 1.44508 -0.628902 0
M  V30 19941 C 1906.55 1.95497 -0.0635197 0
M  V30 19942 C 1906.93 1.57092 1.41015 0
M  V30 19943 O 1906.28 0.843894 2.12346 0
M  V30 19944 C 1906.49 3.47842 -0.284051 0
M  V30 19945 C 1907.83 4.24235 -0.176073 0
M  V30 19946 O 1908.86 3.55549 -0.215298 0
M  V30 19947 O 1907.72 5.46443 -0.0791303 0
M  V30 19948 H 1904.81 0.826664 0.0235829 0
M  V30 19949 H 1907.36 1.5457 -0.70045 0
M  V30 19950 H 1906.13 3.68837 -1.30671 0
M  V30 19951 H 1905.75 3.95711 0.387125 0
M  V30 19952 N 1906.75 0.369315 1.53212 0
M  V30 19953 C 1908 -0.218776 2.00912 0
M  V30 19954 C 1908.32 -1.48977 1.25821 0
M  V30 19955 O 1907.59 -1.92325 0.372538 0
M  V30 19956 H 1906.17 -0.0838334 0.742281 0
M  V30 19957 H 1908.83 0.496408 1.88472 0
M  V30 19958 H 1907.93 -0.443127 3.08938 0
M  V30 19959 N 1908.23 -1.57291 0.0985816 0
M  V30 19960 C 1909.46 -1.98531 -0.57176 0
M  V30 19961 C 1909.87 -0.976619 -1.62046 0
M  V30 19962 O 1909.21 0.041533 -1.83653 0
M  V30 19963 C 1909.27 -3.36149 -1.27452 0
M  V30 19964 C 1908.93 -4.55449 -0.376176 0
M  V30 19965 C 1909.93 -5.18531 0.377078 0
M  V30 19966 C 1907.62 -5.01443 -0.293213 0
M  V30 19967 C 1909.61 -6.25978 1.20124 0
M  V30 19968 C 1907.3 -6.08757 0.534594 0
M  V30 19969 C 1908.3 -6.7089 1.28047 0
M  V30 19970 O 1907.98 -7.76133 2.09457 0
M  V30 19971 H 1907.72 -0.657356 -0.15767 0
M  V30 19972 H 1910.27 -2.04648 0.175593 0
M  V30 19973 H 1908.5 -3.26725 -2.06852 0
M  V30 19974 H 1910.19 -3.61813 -1.83974 0
M  V30 19975 H 1910.95 -4.83925 0.322736 0
M  V30 19976 H 1906.83 -4.52842 -0.863429 0
M  V30 19977 H 1910.38 -6.74405 1.7839 0
M  V30 19978 H 1906.27 -6.42794 0.590404 0
M  V30 19979 H 1907.04 -7.93137 2.02177 0
M  V30 19980 N 1909.71 0.175127 -1.56624 0
M  V30 19981 C 1910.65 1.21687 -1.96114 0
M  V30 19982 C 1911.62 1.44191 -0.824518 0
M  V30 19983 O 1912.81 1.56994 -1.08433 0
M  V30 19984 C 1909.95 2.55207 -2.323 0
M  V30 19985 C 1909.06 2.40115 -3.59122 0
M  V30 19986 C 1908.2 3.66475 -3.84538 0
M  V30 19987 C 1907.23 3.463 -5.04721 0
M  V30 19988 N 1906.37 4.6472 -5.26288 0
M  V30 19989 H 1911.21 0.873106 -2.84923 0
M  V30 19990 H 1908.75 0.419721 -1.40985 0
M  V30 19991 H 1910.71 3.33022 -2.51302 0
M  V30 19992 H 1909.34 2.87587 -1.46607 0
M  V30 19993 H 1908.39 1.53496 -3.48056 0
M  V30 19994 H 1909.7 2.21151 -4.47095 0
M  V30 19995 H 1908.85 4.52726 -4.03886 0
M  V30 19996 H 1907.59 3.88414 -2.94934 0
M  V30 19997 H 1906.6 2.58435 -4.85274 0
M  V30 19998 H 1907.82 3.25787 -5.95852 0
M  V30 19999 H 1905.77 4.86885 -4.39635 0
M  V30 20000 H 1905.69 4.48656 -6.08477 0
M  V30 20001 H 1906.95 5.52265 -5.50112 0
M  V30 20002 N 1911.18 1.5123 0.44355 0
M  V30 20003 C 1912.12 1.68281 1.55609 0
M  V30 20004 C 1913.13 0.563589 1.52733 0
M  V30 20005 O 1914.32 0.837706 1.57622 0
M  V30 20006 C 1911.42 1.67657 2.94524 0
M  V30 20007 C 1910.59 2.96063 3.21971 0
M  V30 20008 C 1909.65 2.8771 4.40578 0
M  V30 20009 O 1908.68 3.61659 4.39536 0
M  V30 20010 N 1909.88 2.03137 5.43797 0
M  V30 20011 H 1912.64 2.64252 1.41389 0
M  V30 20012 H 1910.2 1.49038 0.632398 0
M  V30 20013 H 1912.2 1.59646 3.71881 0
M  V30 20014 H 1910.77 0.79306 3.02373 0
M  V30 20015 H 1909.99 3.17991 2.32971 0
M  V30 20016 H 1911.27 3.81074 3.37135 0
M  V30 20017 H 1910.67 1.42422 5.47478 0
M  V30 20018 H 1909.23 2.0101 6.20031 0
M  V30 20019 N 1912.66 -0.698586 1.41271 0
M  V30 20020 C 1913.59 -1.82385 1.38811 0
M  V30 20021 C 1914.61 -1.60183 0.290752 0
M  V30 20022 O 1915.8 -1.69742 0.552272 0
M  V30 20023 C 1912.9 -3.19095 1.14155 0
M  V30 20024 C 1912.07 -3.68352 2.35872 0
M  V30 20025 C 1911.13 -4.83723 2.07119 0
M  V30 20026 O 1910.15 -4.95495 2.80132 0
M  V30 20027 N 1911.36 -5.70748 1.05958 0
M  V30 20028 H 1914.12 -1.84989 2.35795 0
M  V30 20029 H 1911.68 -0.880792 1.35844 0
M  V30 20030 H 1913.67 -3.93899 0.928763 0
M  V30 20031 H 1912.24 -3.11535 0.257783 0
M  V30 20032 H 1911.46 -2.8449 2.72872 0
M  V30 20033 H 1912.75 -3.97999 3.16977 0
M  V30 20034 H 1912.15 -5.63865 0.455223 0
M  V30 20035 H 1910.71 -6.45463 0.906689 0
M  V30 20036 N 1914.14 -1.27049 -0.93254 0
M  V30 20037 C 1915.39 -1.12879 -1.67639 0
M  V30 20038 C 1915.71 0.326803 -1.92242 0
M  V30 20039 O 1914.98 1.22934 -1.52525 0
M  V30 20040 H 1913.56 -0.414741 -0.621288 0
M  V30 20041 H 1916.22 -1.59505 -1.12 0
M  V30 20042 H 1915.32 -1.65417 -2.64658 0
M  V30 20043 N 1915.62 1.13835 -1.08993 0
M  V30 20044 C 1916.86 1.85284 -0.824476 0
M  V30 20045 C 1917.2 1.83062 0.648235 0
M  V30 20046 O 1916.47 1.26555 1.47696 0
M  V30 20047 C 1916.75 3.33649 -1.35463 0
M  V30 20048 C 1916.61 3.44411 -2.89312 0
M  V30 20049 C 1917.93 4.28941 -0.984768 0
M  V30 20050 H 1915.05 0.672745 -0.300971 0
M  V30 20051 H 1917.69 1.3364 -1.35057 0
M  V30 20052 H 1915.84 3.77761 -0.907128 0
M  V30 20053 H 1917.51 3.09043 -3.42477 0
M  V30 20054 H 1915.75 2.85429 -3.26669 0
M  V30 20055 H 1916.42 4.48724 -3.21481 0
M  V30 20056 H 1918.9 3.92877 -1.37064 0
M  V30 20057 H 1917.78 5.31196 -1.38283 0
M  V30 20058 H 1918.04 4.41969 0.10755 0
M  V30 20059 N 1917.1 0.876467 1.3098 0
M  V30 20060 C 1918.34 0.491367 1.96757 0
M  V30 20061 C 1918.67 -0.955274 1.6908 0
M  V30 20062 O 1917.95 -1.6737 0.990843 0
M  V30 20063 C 1918.23 0.756745 3.52059 0
M  V30 20064 C 1918.09 2.25339 3.89284 0
M  V30 20065 C 1919.4 0.227549 4.39511 0
M  V30 20066 H 1916.52 0.179998 0.714681 0
M  V30 20067 H 1919.17 1.0989 1.54997 0
M  V30 20068 H 1917.32 0.239657 3.8776 0
M  V30 20069 H 1918.99 2.83824 3.63651 0
M  V30 20070 H 1917.23 2.72341 3.37658 0
M  V30 20071 H 1917.9 2.38971 4.97591 0
M  V30 20072 H 1920.38 0.670016 4.1067 0
M  V30 20073 H 1919.25 0.442629 5.47112 0
M  V30 20074 H 1919.51 -0.870833 4.33438 0
M  V30 20075 N 1918.57 -1.44173 0.636557 0
M  V30 20076 C 1919.82 -2.01209 0.140639 0
M  V30 20077 C 1920.14 -1.50704 -1.2469 0
M  V30 20078 O 1921.34 -1.99904 -1.83713 0
M  V30 20079 C 1919.8 -3.5934 0.20066 0
M  V30 20080 C 1919.41 -4.18841 1.58985 0
M  V30 20081 C 1921.15 -4.23829 -0.238514 0
M  V30 20082 C 1919.06 -5.69213 1.60469 0
M  V30 20083 H 1917.99 -0.752418 0.0488124 0
M  V30 20084 H 1920.64 -1.65329 0.796151 0
M  V30 20085 H 1919.02 -3.92544 -0.522054 0
M  V30 20086 H 1920.19 -3.97165 2.33658 0
M  V30 20087 H 1918.51 -3.66659 1.97357 0
M  V30 20088 H 1921.11 -5.34129 -0.247033 0
M  V30 20089 H 1921.45 -3.96556 -1.26685 0
M  V30 20090 H 1921.98 -3.95449 0.431887 0
M  V30 20091 H 1918.72 -6.01229 2.61158 0
M  V30 20092 H 1918.24 -5.92995 0.900975 0
M  V30 20093 H 1919.92 -6.3295 1.34104 0
M  V30 20094 N 1920.05 -0.377435 -1.53014 0
M  V30 20095 C 1920.98 0.507261 -2.22491 0
M  V30 20096 C 1921.96 1.07358 -1.22119 0
M  V30 20097 O 1923.15 1.12747 -1.51064 0
M  V30 20098 C 1920.27 1.70101 -2.92888 0
M  V30 20099 C 1919.32 1.26105 -4.07431 0
M  V30 20100 S 1920.15 0.252451 -5.34905 0
M  V30 20101 C 1921.31 1.45225 -6.08819 0
M  V30 20102 H 1921.54 -0.0827563 -2.97185 0
M  V30 20103 H 1919.07 -0.161576 -1.53552 0
M  V30 20104 H 1921.03 2.38569 -3.34059 0
M  V30 20105 H 1919.69 2.2623 -2.17896 0
M  V30 20106 H 1918.89 2.15202 -4.55745 0
M  V30 20107 H 1918.49 0.655438 -3.68212 0
M  V30 20108 H 1920.78 2.38133 -6.3427 0
M  V30 20109 H 1921.72 1.01026 -7.00856 0
M  V30 20110 H 1922.13 1.66368 -5.39427 0
M  V30 20111 N 1921.53 1.57237 -0.106922 0
M  V30 20112 C 1922.81 1.8627 0.596889 0
M  V30 20113 C 1923.19 1.00593 1.85591 0
M  V30 20114 O 1922.54 0.0815394 2.28354 0
M  V30 20115 C 1922.75 3.37171 0.900934 0
M  V30 20116 C 1924.09 4.05497 1.25926 0
M  V30 20117 O 1925.12 3.4212 0.99158 0
M  V30 20118 O 1923.98 5.17347 1.76109 0
M  V30 20119 H 1921.07 0.770704 0.299907 0
M  V30 20120 H 1923.62 1.69117 -0.140513 0
M  V30 20121 H 1922.39 3.91299 0.00823337 0
M  V30 20122 H 1922.01 3.59712 1.69391 0
M  V30 20123 N 1923.01 -0.166818 1.56715 0
M  V30 20124 C 1924.29 -0.910255 1.73129 0
M  V30 20125 C 1924.67 -2.002 0.669555 0
M  V30 20126 O 1924.01 -2.2632 -0.314899 0
M  V30 20127 C 1924.22 -1.47087 3.16491 0
M  V30 20128 C 1925.57 -1.94204 3.77584 0
M  V30 20129 O 1926.6 -1.56872 3.19796 0
M  V30 20130 O 1925.45 -2.62988 4.79061 0
M  V30 20131 H 1922.55 -0.428766 0.70717 0
M  V30 20132 H 1925.09 -0.154295 1.68997 0
M  V30 20133 H 1923.87 -0.685322 3.85252 0
M  V30 20134 H 1923.49 -2.29089 3.24967 0
M  V30 20135 N 1924.49 -1.51463 -0.435524 0
M  V30 20136 C 1925.42 -1.75856 -1.53613 0
M  V30 20137 C 1926.4 -0.608449 -1.58846 0
M  V30 20138 O 1927.58 -0.85135 -1.74544 0
M  V30 20139 C 1924.71 -1.88525 -2.91677 0
M  V30 20140 C 1923.67 -3.03972 -3.01305 0
M  V30 20141 C 1922.99 -3.01828 -4.41366 0
M  V30 20142 C 1924.29 -4.43905 -2.75219 0
M  V30 20143 H 1925.99 -2.68013 -1.33452 0
M  V30 20144 H 1923.53 -1.28968 -0.640564 0
M  V30 20145 H 1925.49 -2.04173 -3.68634 0
M  V30 20146 H 1924.21 -0.930179 -3.13074 0
M  V30 20147 H 1922.87 -2.88033 -2.26788 0
M  V30 20148 H 1922.52 -2.04095 -4.59733 0
M  V30 20149 H 1922.22 -3.79353 -4.48737 0
M  V30 20150 H 1923.74 -3.19572 -5.20294 0
M  V30 20151 H 1925.15 -4.60187 -3.41908 0
M  V30 20152 H 1923.55 -5.2315 -2.93998 0
M  V30 20153 H 1924.62 -4.53818 -1.70814 0
M  V30 20154 N 1925.96 0.691085 -1.4164 0
M  V30 20155 C 1926.91 1.82625 -1.44051 0
M  V30 20156 C 1927.91 1.66388 -0.318032 0
M  V30 20157 O 1929.11 1.73194 -0.490276 0
M  V30 20158 H 1925.49 0.601889 -0.450815 0
M  V30 20159 H 1927.46 1.77709 -2.39713 0
M  V30 20160 C 1926.21 3.20676 -1.34395 0
M  V30 20161 H 1925.53 3.3379 -2.20056 0
M  V30 20162 H 1926.97 4.0017 -1.40143 0
M  V30 20163 C 1925.43 3.36852 -0.0568027 0
M  V30 20164 O 1925.96 3.91562 0.896762 0
M  V30 20165 N 1924.17 2.90593 0.0207452 0
M  V30 20166 H 1923.71 2.46257 -0.755995 0
M  V30 20167 H 1923.67 3.01794 0.88136 0
M  V30 20168 N 1927.44 1.27542 0.925789 0
M  V30 20169 C 1928.37 1.06229 2.03096 0
M  V30 20170 C 1929.39 0.0177734 1.6279 0
M  V30 20171 O 1930.58 0.259539 1.76603 0
M  V30 20172 C 1927.68 0.589777 3.33729 0
M  V30 20173 C 1926.85 1.70701 4.02716 0
M  V30 20174 C 1925.91 1.22991 5.11624 0
M  V30 20175 O 1924.93 1.92993 5.35483 0
M  V30 20176 N 1926.14 0.086593 5.80435 0
M  V30 20177 H 1928.9 2.01401 2.21941 0
M  V30 20178 H 1926.46 1.19134 1.0963 0
M  V30 20179 H 1928.45 0.254459 4.03899 0
M  V30 20180 H 1927.02 -0.268762 3.11443 0
M  V30 20181 H 1926.24 2.21252 3.26253 0
M  V30 20182 H 1927.53 2.45679 4.45555 0
M  V30 20183 H 1926.93 -0.497638 5.63507 0
M  V30 20184 H 1925.49 -0.189533 6.51524 0
M  V30 20185 N 1928.92 -1.13255 1.09595 0
M  V30 20186 C 1929.87 -2.20794 0.731624 0
M  V30 20187 C 1930.86 -1.67263 -0.268256 0
M  V30 20188 O 1932.07 -1.79533 -0.129535 0
M  V30 20189 H 1928.44 -0.719521 0.218618 0
M  V30 20190 H 1930.41 -2.48784 1.6477 0
M  V30 20191 C 1929.16 -3.47283 0.170214 0
M  V30 20192 H 1928.49 -3.88814 0.930805 0
M  V30 20193 H 1929.93 -4.23974 -0.0467499 0
M  V30 20194 C 1928.39 -3.18609 -1.09497 0
M  V30 20195 O 1928.92 -3.37534 -2.17793 0
M  V30 20196 N 1927.12 -2.72477 -1.01017 0
M  V30 20197 H 1926.67 -2.57278 -0.128814 0
M  V30 20198 H 1926.63 -2.53668 -1.85741 0
M  V30 20199 N 1930.4 -0.883401 -1.30514 0
M  V30 20200 C 1931.81 -0.55179 -1.7836 0
M  V30 20201 C 1932.16 0.93196 -1.72653 0
M  V30 20202 O 1931.29 1.72818 -1.30242 0
M  V30 20203 C 1931.88 -0.994845 -3.23865 0
M  V30 20204 C 1930.44 -0.714672 -3.69553 0
M  V30 20205 C 1929.59 -1.1787 -2.51002 0
M  V30 20206 H 1932.54 -1.06778 -1.17406 0
M  V30 20207 H 1932.56 -0.32315 -3.79125 0
M  V30 20208 H 1932.07 -2.07477 -3.27986 0
M  V30 20209 H 1930.17 0.353326 -3.70921 0
M  V30 20210 H 1930.28 -1.30112 -4.61094 0
M  V30 20211 H 1928.65 -0.598079 -2.47578 0
M  V30 20212 H 1929.43 -2.26633 -2.57862 0
M  V30 20213 N 1931.88 1.43833 -0.644194 0
M  V30 20214 C 1933.15 1.95418 -0.0842511 0
M  V30 20215 C 1933.53 1.58579 1.39341 0
M  V30 20216 O 1932.88 0.866369 2.11439 0
M  V30 20217 C 1933.09 3.47521 -0.320928 0
M  V30 20218 C 1934.44 4.24024 -0.221059 0
M  V30 20219 O 1935.46 3.553 -0.252997 0
M  V30 20220 O 1934.32 5.46328 -0.137083 0
M  V30 20221 H 1931.42 0.826867 0.0148137 0
M  V30 20222 H 1933.96 1.53818 -0.716805 0
M  V30 20223 H 1932.73 3.67431 -1.34575 0
M  V30 20224 H 1932.36 3.96099 0.345133 0
M  V30 20225 N 1933.35 0.385544 1.52811 0
M  V30 20226 C 1934.6 -0.197454 2.01133 0
M  V30 20227 C 1934.92 -1.47634 1.27394 0
M  V30 20228 O 1934.19 -1.91919 0.392916 0
M  V30 20229 H 1932.77 -0.0759558 0.743128 0
M  V30 20230 H 1935.44 0.51637 1.87935 0
M  V30 20231 H 1934.53 -0.410335 3.09391 0
M  V30 20232 N 1934.83 -1.57178 0.115259 0
M  V30 20233 C 1935.8 -2.13953 -0.821982 0
M  V30 20234 C 1936.8 -1.07352 -1.19717 0
M  V30 20235 O 1937.99 -1.33146 -1.12329 0
M  V30 20236 C 1935.12 -2.6767 -2.11106 0
M  V30 20237 H 1936.31 -2.98094 -0.328631 0
M  V30 20238 H 1933.86 -1.55725 -0.133942 0
M  V30 20239 H 1934.6 -1.87106 -2.6488 0
M  V30 20240 H 1934.38 -3.4563 -1.85155 0
M  V30 20241 H 1935.87 -3.11519 -2.78111 0
M  V30 20242 N 1936.31 0.158505 -1.56801 0
M  V30 20243 C 1937.59 0.901061 -1.73609 0
M  V30 20244 C 1937.97 1.99842 -0.680163 0
M  V30 20245 O 1937.32 2.26484 0.302892 0
M  V30 20246 C 1937.53 1.45407 -3.17266 0
M  V30 20247 C 1938.87 1.92199 -3.78609 0
M  V30 20248 O 1939.9 1.55173 -3.20624 0
M  V30 20249 O 1938.76 2.60443 -4.80449 0
M  V30 20250 H 1935.85 0.425009 -0.709434 0
M  V30 20251 H 1938.4 0.14533 -1.69077 0
M  V30 20252 H 1937.17 0.664882 -3.8561 0
M  V30 20253 H 1936.79 2.27363 -3.26178 0
M  V30 20254 N 1937.79 1.51692 0.427485 0
M  V30 20255 C 1938.72 1.68413 1.53988 0
M  V30 20256 C 1939.7 0.531673 1.53662 0
M  V30 20257 O 1940.88 0.756748 1.72643 0
M  V30 20258 C 1938.01 1.70671 2.92556 0
M  V30 20259 C 1937.06 2.91998 3.10868 0
M  V30 20260 S 1937.89 4.52653 2.86122 0
M  V30 20261 C 1939.05 4.5767 4.26953 0
M  V30 20262 H 1939.28 2.62501 1.39573 0
M  V30 20263 H 1936.81 1.41499 0.617842 0
M  V30 20264 H 1938.77 1.72657 3.72424 0
M  V30 20265 H 1937.43 0.777425 3.04327 0
M  V30 20266 H 1936.62 2.90008 4.12203 0
M  V30 20267 H 1936.23 2.87805 2.38839 0
M  V30 20268 H 1938.52 4.33917 5.20309 0
M  V30 20269 H 1939.46 5.59529 4.33974 0
M  V30 20270 H 1939.87 3.8689 4.11067 0
M  V30 20271 N 1939.27 -0.683564 1.42004 0
M  V30 20272 C 1940.21 -1.7973 1.44796 0
M  V30 20273 C 1941.18 -1.63352 0.300905 0
M  V30 20274 O 1942.37 -1.84031 0.503707 0
M  V30 20275 C 1939.51 -3.17701 1.34758 0
M  V30 20276 C 1938.62 -3.45428 2.59429 0
M  V30 20277 C 1937.76 -4.73079 2.41598 0
M  V30 20278 C 1936.8 -4.93812 3.61685 0
M  V30 20279 N 1935.93 -6.12698 3.4285 0
M  V30 20280 H 1940.77 -1.76679 2.39976 0
M  V30 20281 H 1938.31 -0.862624 1.19152 0
M  V30 20282 H 1940.27 -3.9742 1.26938 0
M  V30 20283 H 1938.9 -3.19899 0.431785 0
M  V30 20284 H 1937.95 -2.60027 2.77651 0
M  V30 20285 H 1939.26 -3.56645 3.48721 0
M  V30 20286 H 1938.42 -5.60873 2.31314 0
M  V30 20287 H 1937.16 -4.6413 1.49782 0
M  V30 20288 H 1936.16 -4.04463 3.72411 0
M  V30 20289 H 1937.39 -5.04612 4.5447 0
M  V30 20290 H 1935.33 -6.04938 2.53744 0
M  V30 20291 H 1935.25 -6.24736 4.25724 0
M  V30 20292 H 1936.52 -7.03194 3.36361 0
M  V30 20293 N 1940.75 -1.28031 -0.919012 0
M  V30 20294 C 1941.68 -1.14034 -2.03761 0
M  V30 20295 C 1942.66 -0.039495 -1.70054 0
M  V30 20296 O 1943.84 -0.215546 -1.93 0
M  V30 20297 C 1940.97 -0.795894 -3.38057 0
M  V30 20298 C 1939.93 -1.85093 -3.85907 0
M  V30 20299 C 1939.25 -1.36024 -5.17109 0
M  V30 20300 C 1940.55 -3.25658 -4.08343 0
M  V30 20301 H 1942.25 -2.07609 -2.15729 0
M  V30 20302 H 1939.79 -0.999558 -1.03657 0
M  V30 20303 H 1941.74 -0.684762 -4.15799 0
M  V30 20304 H 1940.47 0.175558 -3.26128 0
M  V30 20305 H 1939.13 -1.95112 -3.10366 0
M  V30 20306 H 1938.78 -0.378004 -5.01578 0
M  V30 20307 H 1938.48 -2.06568 -5.50094 0
M  V30 20308 H 1940 -1.26223 -5.97411 0
M  V30 20309 H 1941.41 -3.1859 -4.76627 0
M  V30 20310 H 1939.81 -3.93989 -4.52651 0
M  V30 20311 H 1940.88 -3.70066 -3.13335 0
M  V30 20312 N 1942.22 1.12672 -1.10194 0
M  V30 20313 C 1943.47 1.84127 -0.842833 0
M  V30 20314 C 1943.8 1.8396 0.631594 0
M  V30 20315 O 1943.05 1.27871 1.48147 0
M  V30 20316 C 1943.35 3.31602 -1.33322 0
M  V30 20317 C 1943.02 3.51943 -2.81864 0
M  V30 20318 C 1941.68 3.57202 -3.22428 0
M  V30 20319 C 1944.03 3.59262 -3.77598 0
M  V30 20320 C 1941.36 3.67323 -4.57483 0
M  V30 20321 C 1943.71 3.70911 -5.12452 0
M  V30 20322 C 1942.38 3.74427 -5.52595 0
M  V30 20323 H 1941.65 0.673767 -0.308414 0
M  V30 20324 H 1944.29 1.32968 -1.3781 0
M  V30 20325 H 1942.6 3.85166 -0.717918 0
M  V30 20326 H 1944.3 3.85353 -1.10925 0
M  V30 20327 H 1940.89 3.4851 -2.49477 0
M  V30 20328 H 1945.07 3.54471 -3.47367 0
M  V30 20329 H 1940.33 3.68315 -4.88011 0
M  V30 20330 H 1944.5 3.75518 -5.8648 0
M  V30 20331 H 1942.13 3.82021 -6.5724 0
M  V30 20332 N 1943.7 0.89031 1.30043 0
M  V30 20333 C 1944.94 0.518227 1.97721 0
M  V30 20334 C 1945.31 -0.916563 1.6871 0
M  V30 20335 O 1946.51 -1.39504 2.29765 0
M  V30 20336 C 1944.78 0.791575 3.48524 0
M  V30 20337 S 1946.34 0.522393 4.35679 0
M  V30 20338 H 1943.15 0.192614 0.684413 0
M  V30 20339 H 1945.76 1.15072 1.58046 0
M  V30 20340 H 1944.46 1.83421 3.67131 0
M  V30 20341 H 1943.99 0.146836 3.93126 0
M  V30 20342 H 1946.01 -0.636683 4.92098 0
M  V30 20343 N 1945.18 -1.43489 0.651812 0
M  V30 20344 C 1946.11 -2.29063 -0.0793108 0
M  V30 20345 C 1947.12 -1.4243 -0.788508 0
M  V30 20346 O 1948.31 -1.66381 -0.646499 0
M  V30 20347 C 1945.41 -3.19317 -1.13533 0
M  V30 20348 C 1944.59 -4.3448 -0.504553 0
M  V30 20349 C 1943.65 -5.05619 -1.45727 0
M  V30 20350 O 1942.67 -5.60936 -0.966409 0
M  V30 20351 N 1943.87 -5.08988 -2.79126 0
M  V30 20352 H 1946.64 -2.92451 0.655174 0
M  V30 20353 H 1944.2 -1.54164 0.494491 0
M  V30 20354 H 1946.19 -3.63773 -1.77345 0
M  V30 20355 H 1944.76 -2.57538 -1.7718 0
M  V30 20356 H 1943.98 -3.92958 0.312626 0
M  V30 20357 H 1945.27 -5.0876 -0.0641591 0
M  V30 20358 H 1944.67 -4.65415 -3.21567 0
M  V30 20359 H 1943.22 -5.57166 -3.38245 0
M  V30 20360 N 1946.66 -0.393643 -1.52605 0
M  V30 20361 C 1947.59 0.483634 -2.23016 0
M  V30 20362 C 1948.57 1.06056 -1.23251 0
M  V30 20363 O 1949.75 1.11138 -1.52252 0
M  V30 20364 C 1946.88 1.66985 -2.94676 0
M  V30 20365 C 1945.93 1.21776 -4.08745 0
M  V30 20366 S 1946.76 0.195703 -5.35142 0
M  V30 20367 C 1947.91 1.3876 -6.10325 0
M  V30 20368 H 1948.15 -0.114272 -2.9708 0
M  V30 20369 H 1945.68 -0.177853 -1.53372 0
M  V30 20370 H 1947.64 2.35012 -3.3657 0
M  V30 20371 H 1946.3 2.23906 -2.20283 0
M  V30 20372 H 1945.49 2.10357 -4.58002 0
M  V30 20373 H 1945.09 0.616347 -3.68886 0
M  V30 20374 H 1947.39 2.31393 -6.3676 0
M  V30 20375 H 1948.33 0.935868 -7.01888 0
M  V30 20376 H 1948.74 1.60638 -5.41162 0
M  V30 20377 N 1948.14 1.57115 -0.123593 0
M  V30 20378 C 1949.38 1.95641 0.534082 0
M  V30 20379 C 1949.71 1.00726 1.66036 0
M  V30 20380 O 1948.99 0.045312 1.94447 0
M  V30 20381 C 1949.27 3.4407 1.06244 0
M  V30 20382 C 1949.13 4.49759 -0.0607321 0
M  V30 20383 C 1950.44 3.94451 1.95183 0
M  V30 20384 H 1947.56 0.71137 0.19267 0
M  V30 20385 H 1950.21 1.88944 -0.200083 0
M  V30 20386 H 1948.36 3.49909 1.68808 0
M  V30 20387 H 1950.03 4.56016 -0.69621 0
M  V30 20388 H 1948.27 4.27729 -0.723232 0
M  V30 20389 H 1948.94 5.50888 0.350271 0
M  V30 20390 H 1951.42 3.90945 1.42483 0
M  V30 20391 H 1950.29 4.98817 2.29069 0
M  V30 20392 H 1950.55 3.35417 2.88007 0
M  V30 20393 N 1949.61 -0.150187 1.56883 0
M  V30 20394 C 1950.84 -0.88235 1.87695 0
M  V30 20395 C 1951.26 -1.74093 0.712272 0
M  V30 20396 O 1950.62 -1.78118 -0.338207 0
M  V30 20397 C 1950.67 -1.71754 3.1707 0
M  V30 20398 O 1949.77 -2.82145 3.00779 0
M  V30 20399 H 1949.11 -0.245947 0.616771 0
M  V30 20400 H 1951.64 -0.141963 2.04107 0
M  V30 20401 H 1951.65 -2.1132 3.4901 0
M  V30 20402 H 1950.33 -1.08704 4.01443 0
M  V30 20403 H 1948.91 -2.46008 2.8024 0
M  V30 20404 N 1951.09 -1.51916 -0.419434 0
M  V30 20405 C 1952.32 -1.69302 -1.1893 0
M  V30 20406 C 1952.74 -0.398024 -1.84557 0
M  V30 20407 O 1952.09 0.625083 -1.71461 0
M  V30 20408 C 1952.14 -2.82139 -2.26009 0
M  V30 20409 O 1951.86 -4.06623 -1.63064 0
M  V30 20410 C 1953.37 -3.10947 -3.15954 0
M  V30 20411 H 1950.59 -0.567657 -0.357781 0
M  V30 20412 H 1953.13 -1.98424 -0.494807 0
M  V30 20413 H 1951.28 -2.55565 -2.91144 0
M  V30 20414 H 1951.7 -4.69423 -2.33971 0
M  V30 20415 H 1953.17 -3.93438 -3.87183 0
M  V30 20416 H 1953.65 -2.24078 -3.77738 0
M  V30 20417 H 1954.26 -3.39246 -2.56499 0
M  V30 20418 N 1952.57 0.676023 -1.42365 0
M  V30 20419 C 1953.82 1.43821 -1.4298 0
M  V30 20420 C 1954.15 1.94147 -0.0455702 0
M  V30 20421 O 1953.42 1.70826 0.929976 0
M  V30 20422 C 1953.71 2.63612 -2.45318 0
M  V30 20423 C 1953.56 2.18926 -3.92927 0
M  V30 20424 C 1954.88 3.65827 -2.4466 0
M  V30 20425 H 1952 0.521622 -0.520653 0
M  V30 20426 H 1954.64 0.76837 -1.7377 0
M  V30 20427 H 1952.79 3.2076 -2.19193 0
M  V30 20428 H 1954.46 1.66955 -4.30028 0
M  V30 20429 H 1952.71 1.50512 -4.06852 0
M  V30 20430 H 1953.38 3.04965 -4.60109 0
M  V30 20431 H 1955.85 3.18393 -2.6789 0
M  V30 20432 H 1954.73 4.47226 -3.18245 0
M  V30 20433 H 1954.99 4.1687 -1.47213 0
M  V30 20434 N 1954.05 1.28517 0.912209 0
M  V30 20435 C 1954.96 1.14429 2.048 0
M  V30 20436 C 1955.97 0.0704926 1.73857 0
M  V30 20437 O 1957.15 0.280091 1.99443 0
M  V30 20438 C 1954.22 0.809034 3.37128 0
M  V30 20439 C 1953.28 1.96535 3.8167 0
M  V30 20440 C 1952.51 1.646 5.07684 0
M  V30 20441 O 1952.73 0.561072 5.67634 0
M  V30 20442 O 1951.67 2.49011 5.47975 0
M  V30 20443 H 1955.49 2.0978 2.19604 0
M  V30 20444 H 1953.08 1.0785 1.03387 0
M  V30 20445 H 1954.96 0.636082 4.16572 0
M  V30 20446 H 1953.63 -0.114812 3.23496 0
M  V30 20447 H 1952.54 2.19347 3.03047 0
M  V30 20448 H 1953.87 2.86996 3.99868 0
M  V30 20449 N 1955.53 -1.12086 1.1079 0
M  V30 20450 C 1956.77 -1.83677 0.852585 0
M  V30 20451 C 1957.1 -1.84292 -0.621829 0
M  V30 20452 O 1956.36 -1.28655 -1.47466 0
M  V30 20453 C 1956.66 -3.3089 1.35079 0
M  V30 20454 C 1956.32 -3.50443 2.83726 0
M  V30 20455 C 1954.98 -3.55487 3.24318 0
M  V30 20456 C 1957.34 -3.57254 3.79498 0
M  V30 20457 C 1954.66 -3.64891 4.59425 0
M  V30 20458 C 1957.02 -3.68189 5.14412 0
M  V30 20459 C 1955.68 -3.71491 5.54573 0
M  V30 20460 H 1954.95 -0.672122 0.311983 0
M  V30 20461 H 1957.6 -1.32236 1.38513 0
M  V30 20462 H 1955.9 -3.8478 0.738335 0
M  V30 20463 H 1957.6 -3.84759 1.12967 0
M  V30 20464 H 1954.19 -3.47182 2.51322 0
M  V30 20465 H 1958.37 -3.52624 3.49242 0
M  V30 20466 H 1953.63 -3.65721 4.89957 0
M  V30 20467 H 1957.8 -3.72402 5.88464 0
M  V30 20468 H 1955.43 -3.7853 6.59256 0
M  V30 20469 N 1957 -0.897194 -1.29569 0
M  V30 20470 C 1958.25 -0.517823 -1.9494 0
M  V30 20471 C 1958.57 0.940096 -1.71527 0
M  V30 20472 O 1959.77 1.42687 -2.30982 0
M  V30 20473 C 1958.23 -0.875183 -3.49097 0
M  V30 20474 C 1957.84 -2.3517 -3.81312 0
M  V30 20475 C 1959.58 -0.565601 -4.20715 0
M  V30 20476 C 1957.49 -2.65005 -5.28702 0
M  V30 20477 H 1956.42 -0.189928 -0.729687 0
M  V30 20478 H 1959.07 -1.09385 -1.47334 0
M  V30 20479 H 1957.45 -0.228115 -3.95342 0
M  V30 20480 H 1958.62 -3.04411 -3.45934 0
M  V30 20481 H 1956.94 -2.63005 -3.22827 0
M  V30 20482 H 1959.54 -0.765387 -5.29194 0
M  V30 20483 H 1959.88 0.49573 -4.13338 0
M  V30 20484 H 1960.41 -1.1704 -3.80193 0
M  V30 20485 H 1957.15 -3.69927 -5.41142 0
M  V30 20486 H 1956.67 -2.00386 -5.65337 0
M  V30 20487 H 1958.35 -2.51141 -5.96269 0
M  V30 20488 N 1958.48 1.43142 -0.659413 0
M  V30 20489 C 1959.89 1.84958 -0.254412 0
M  V30 20490 C 1960.24 1.552 1.20031 0
M  V30 20491 O 1959.37 1.00407 1.91696 0
M  V30 20492 C 1959.96 3.35731 -0.454961 0
M  V30 20493 C 1958.52 3.76256 -0.104223 0
M  V30 20494 C 1957.67 2.66828 -0.754849 0
M  V30 20495 H 1960.62 1.33206 -0.862657 0
M  V30 20496 H 1960.64 3.79334 0.297654 0
M  V30 20497 H 1960.15 3.57359 -1.51381 0
M  V30 20498 H 1958.26 3.60239 0.951785 0
M  V30 20499 H 1958.37 4.76115 -0.534009 0
M  V30 20500 H 1956.73 2.54009 -0.187526 0
M  V30 20501 H 1957.52 2.91283 -1.81685 0
M  V30 20502 N 1959.96 0.40173 1.52394 0
M  V30 20503 C 1961.37 -0.0695308 1.8657 0
M  V30 20504 C 1961.72 -1.4508 1.32084 0
M  V30 20505 O 1960.85 -2.06181 0.657149 0
M  V30 20506 C 1961.44 -0.132947 3.38539 0
M  V30 20507 C 1960 -0.548527 3.72382 0
M  V30 20508 C 1959.15 0.281664 2.75866 0
M  V30 20509 H 1962.1 0.619102 1.46126 0
M  V30 20510 H 1962.12 -0.949667 3.68458 0
M  V30 20511 H 1961.63 0.872493 3.78166 0
M  V30 20512 H 1959.73 -1.56088 3.3833 0
M  V30 20513 H 1959.85 -0.29805 4.78172 0
M  V30 20514 H 1958.21 -0.254911 2.53421 0
M  V30 20515 H 1958.99 1.28531 3.18331 0
M  V30 20516 N 1961.44 -1.57047 0.131923 0
M  V30 20517 C 1962.37 -2.11735 -0.851089 0
M  V30 20518 C 1963.35 -1.03702 -1.25239 0
M  V30 20519 O 1964.53 -1.31438 -1.35116 0
M  V30 20520 C 1961.66 -2.62468 -2.14075 0
M  V30 20521 C 1960.71 -3.82508 -1.88653 0
M  V30 20522 S 1961.54 -5.24266 -1.09112 0
M  V30 20523 C 1962.7 -5.78377 -2.3923 0
M  V30 20524 H 1962.93 -2.94784 -0.385975 0
M  V30 20525 H 1960.46 -1.54182 -0.0820933 0
M  V30 20526 H 1962.42 -2.92351 -2.88169 0
M  V30 20527 H 1961.08 -1.79578 -2.57703 0
M  V30 20528 H 1960.27 -4.16198 -2.84245 0
M  V30 20529 H 1959.88 -3.53308 -1.22675 0
M  V30 20530 H 1962.17 -5.8889 -3.34985 0
M  V30 20531 H 1963.11 -6.76223 -2.10066 0
M  V30 20532 H 1963.52 -5.06523 -2.49189 0
M  V30 20533 N 1962.92 0.141865 -1.5696 0
M  V30 20534 C 1963.88 1.15896 -1.97739 0
M  V30 20535 C 1964.88 1.3558 -0.864556 0
M  V30 20536 O 1966.07 1.32485 -1.13107 0
M  V30 20537 C 1963.2 2.51822 -2.29779 0
M  V30 20538 H 1964.39 0.808993 -2.88782 0
M  V30 20539 H 1961.95 0.385387 -1.51474 0
M  V30 20540 H 1962.68 2.91781 -1.41543 0
M  V30 20541 H 1962.47 2.38894 -3.10921 0
M  V30 20542 H 1963.96 3.25066 -2.62148 0
M  V30 20543 N 1964.39 1.52136 0.411372 0
M  V30 20544 C 1965.62 1.70223 1.18486 0
M  V30 20545 C 1966.04 0.409966 1.83578 0
M  V30 20546 O 1965.4 -0.632366 1.69914 0
M  V30 20547 C 1965.45 2.83744 2.22535 0
M  V30 20548 O 1964.55 2.49157 3.28625 0
M  V30 20549 H 1963.9 0.566741 0.345978 0
M  V30 20550 H 1966.43 1.98829 0.482526 0
M  V30 20551 H 1966.44 3.08591 2.669 0
M  V30 20552 H 1965.11 3.77503 1.74541 0
M  V30 20553 H 1963.69 2.34974 2.89554 0
M  V30 20554 N 1965.87 -0.668464 1.42721 0
M  V30 20555 C 1966.8 -1.79375 1.49489 0
M  V30 20556 C 1967.78 -1.66442 0.350881 0
M  V30 20557 O 1968.97 -1.85767 0.566049 0
M  V30 20558 C 1966.1 -3.17712 1.40273 0
M  V30 20559 C 1965.05 -3.45389 2.52766 0
M  V30 20560 C 1964.38 -4.83367 2.28606 0
M  V30 20561 C 1965.68 -3.4165 3.95061 0
M  V30 20562 H 1967.37 -1.73968 2.43671 0
M  V30 20563 H 1964.92 -0.835548 1.1728 0
M  V30 20564 H 1966.87 -3.96173 1.43614 0
M  V30 20565 H 1965.6 -3.23811 0.425882 0
M  V30 20566 H 1964.26 -2.69292 2.48752 0
M  V30 20567 H 1963.9 -4.86124 1.292 0
M  V30 20568 H 1963.6 -5.02847 3.04005 0
M  V30 20569 H 1965.13 -5.64104 2.33707 0
M  V30 20570 H 1966.54 -4.1007 4.00644 0
M  V30 20571 H 1964.94 -3.72666 4.70362 0
M  V30 20572 H 1966.01 -2.40106 4.2128 0
M  V30 20573 N 1967.35 -1.28999 -0.905381 0
M  V30 20574 C 1968.26 -1.15513 -2.04191 0
M  V30 20575 C 1969.28 -0.0797116 -1.73817 0
M  V30 20576 O 1970.45 -0.290664 -1.99292 0
M  V30 20577 C 1967.52 -0.826901 -3.36695 0
M  V30 20578 C 1966.58 -1.98557 -3.80623 0
M  V30 20579 C 1965.81 -1.6729 -5.06803 0
M  V30 20580 O 1966.04 -0.591168 -5.67328 0
M  V30 20581 O 1964.97 -2.51914 -5.46647 0
M  V30 20582 H 1968.8 -2.10942 -2.18488 0
M  V30 20583 H 1966.38 -1.08397 -1.02813 0
M  V30 20584 H 1968.26 -0.658165 -4.16228 0
M  V30 20585 H 1966.94 0.0976541 -3.23553 0
M  V30 20586 H 1965.84 -2.20951 -3.0188 0
M  V30 20587 H 1967.18 -2.89112 -3.9834 0
M  V30 20588 N 1968.83 1.11497 -1.11383 0
M  V30 20589 C 1969.74 2.21101 -0.784315 0
M  V30 20590 C 1970.76 1.72574 0.222313 0
M  V30 20591 O 1971.93 2.01315 0.058632 0
M  V30 20592 C 1969 3.45925 -0.231713 0
M  V30 20593 C 1968.06 4.09243 -1.29687 0
M  V30 20594 C 1967.29 5.28108 -0.770542 0
M  V30 20595 O 1967.51 5.68998 0.399616 0
M  V30 20596 O 1966.45 5.81996 -1.53505 0
M  V30 20597 H 1970.27 2.51699 -1.69946 0
M  V30 20598 H 1967.86 1.20022 -0.889672 0
M  V30 20599 H 1969.74 4.21338 0.0721248 0
M  V30 20600 H 1968.42 3.1698 0.656146 0
M  V30 20601 H 1967.32 3.35564 -1.65371 0
M  V30 20602 H 1968.66 4.42365 -2.1581 0
M  V30 20603 N 1970.31 0.904053 1.29092 0
M  V30 20604 C 1971.25 0.38351 2.27591 0
M  V30 20605 C 1972.22 -0.536758 1.57188 0
M  V30 20606 O 1973.41 -0.461057 1.85146 0
M  V30 20607 C 1970.55 -0.379051 3.43012 0
M  V30 20608 C 1969.66 0.572611 4.28188 0
M  V30 20609 C 1968.8 -0.207434 5.30795 0
M  V30 20610 C 1967.84 0.73847 6.07629 0
M  V30 20611 N 1966.97 -0.00744238 7.021 0
M  V30 20612 H 1971.81 1.22855 2.71497 0
M  V30 20613 H 1969.35 0.617145 1.33528 0
M  V30 20614 H 1971.31 -0.83727 4.08712 0
M  V30 20615 H 1969.94 -1.18851 3.00124 0
M  V30 20616 H 1968.99 1.14935 3.62621 0
M  V30 20617 H 1970.3 1.29648 4.81656 0
M  V30 20618 H 1969.46 -0.726655 6.02333 0
M  V30 20619 H 1968.2 -0.964417 4.78069 0
M  V30 20620 H 1967.2 1.26915 5.34951 0
M  V30 20621 H 1968.43 1.49485 6.62443 0
M  V30 20622 H 1966.37 -0.746612 6.51737 0
M  V30 20623 H 1966.29 0.656439 7.53145 0
M  V30 20624 H 1967.56 -0.506785 7.77851 0
M  V30 20625 N 1971.79 -1.4279 0.666995 0
M  V30 20626 C 1973.03 -2.01245 0.185662 0
M  V30 20627 C 1973.35 -1.52966 -1.2094 0
M  V30 20628 O 1972.62 -0.748036 -1.81056 0
M  V30 20629 H 1971.2 -0.74411 0.0656484 0
M  V30 20630 H 1973.87 -1.74814 0.861754 0
M  V30 20631 H 1972.96 -3.11575 0.180905 0
M  V30 20632 N 1973.26 -0.409806 -1.52179 0
M  V30 20633 C 1974.51 0.167113 -2.01007 0
M  V30 20634 C 1974.83 1.46166 -1.2998 0
M  V30 20635 O 1976.03 2.11988 -1.69628 0
M  V30 20636 C 1974.49 0.348367 -3.5821 0
M  V30 20637 C 1974.1 -0.934131 -4.38153 0
M  V30 20638 C 1975.84 0.880542 -4.15267 0
M  V30 20639 C 1973.75 -0.720028 -5.87 0
M  V30 20640 H 1972.68 0.0662269 -0.751086 0
M  V30 20641 H 1975.33 -0.535355 -1.75517 0
M  V30 20642 H 1973.71 1.11318 -3.80032 0
M  V30 20643 H 1974.88 -1.70515 -4.2809 0
M  V30 20644 H 1973.2 -1.39277 -3.92417 0
M  V30 20645 H 1975.8 1.05677 -5.24153 0
M  V30 20646 H 1976.14 1.85542 -3.72666 0
M  V30 20647 H 1976.67 0.174766 -3.97416 0
M  V30 20648 H 1973.41 -1.66649 -6.33963 0
M  V30 20649 H 1972.93 0.0116803 -5.99799 0
M  V30 20650 H 1974.61 -0.362471 -6.45984 0
M  V30 20651 N 1974.74 1.56975 -0.14025 0
M  V30 20652 C 1975.67 2.19432 0.798233 0
M  V30 20653 C 1976.65 1.14055 1.26196 0
M  V30 20654 O 1977.84 1.42373 1.32074 0
M  V30 20655 C 1974.97 2.81059 2.04018 0
M  V30 20656 C 1973.92 3.92204 1.71347 0
M  V30 20657 C 1973.25 4.40735 3.02748 0
M  V30 20658 C 1974.55 5.13302 0.965327 0
M  V30 20659 H 1976.24 2.98109 0.277716 0
M  V30 20660 H 1973.79 1.43392 0.132137 0
M  V30 20661 H 1975.74 3.23417 2.70147 0
M  V30 20662 H 1974.46 1.99703 2.5843 0
M  V30 20663 H 1973.12 3.50454 1.07599 0
M  V30 20664 H 1972.77 3.5621 3.55138 0
M  V30 20665 H 1972.47 5.15698 2.81654 0
M  V30 20666 H 1974 4.85759 3.6996 0
M  V30 20667 H 1975.41 5.52547 1.52857 0
M  V30 20668 H 1973.81 5.93984 0.854574 0
M  V30 20669 H 1974.88 4.8488 -0.0441688 0
M  V30 20670 N 1976.22 -0.133539 1.57033 0
M  V30 20671 C 1977.47 -0.843859 1.8408 0
M  V30 20672 C 1977.79 -1.80556 0.723177 0
M  V30 20673 O 1977.05 -1.93588 -0.286718 0
M  V30 20674 C 1977.35 -1.64036 3.17533 0
M  V30 20675 C 1977.01 -0.82425 4.43302 0
M  V30 20676 C 1975.68 -0.599146 4.77455 0
M  V30 20677 C 1978.03 -0.254425 5.20579 0
M  V30 20678 C 1975.36 0.206272 5.86337 0
M  V30 20679 C 1977.71 0.538105 6.30307 0
M  V30 20680 C 1976.37 0.773661 6.63001 0
M  V30 20681 H 1975.64 -0.30879 0.673595 0
M  V30 20682 H 1978.29 -0.106868 1.91202 0
M  V30 20683 H 1976.59 -2.44784 3.05921 0
M  V30 20684 H 1978.29 -2.19367 3.35677 0
M  V30 20685 H 1974.88 -1.00978 4.16535 0
M  V30 20686 H 1979.07 -0.415584 4.94557 0
M  V30 20687 H 1974.32 0.398139 6.10102 0
M  V30 20688 H 1978.5 0.986708 6.89374 0
M  V30 20689 H 1976.12 1.3996 7.47205 0
M  V30 20690 N 1977.7 -1.52352 -0.403298 0
M  V30 20691 C 1978.93 -1.70554 -1.17128 0
M  V30 20692 C 1979.34 -0.417576 -1.84124 0
M  V30 20693 O 1978.7 0.606862 -1.72115 0
M  V30 20694 C 1978.75 -2.8452 -2.23004 0
M  V30 20695 O 1978.47 -4.08329 -1.58742 0
M  V30 20696 C 1979.97 -3.14281 -3.12638 0
M  V30 20697 H 1977.19 -0.571419 -0.35174 0
M  V30 20698 H 1979.73 -1.98937 -0.473734 0
M  V30 20699 H 1977.89 -2.58639 -2.88417 0
M  V30 20700 H 1978.3 -4.71878 -2.28979 0
M  V30 20701 H 1979.78 -3.97523 -3.82988 0
M  V30 20702 H 1980.25 -2.28071 -3.7534 0
M  V30 20703 H 1980.86 -3.41948 -2.52887 0
M  V30 20704 N 1979.18 0.660885 -1.43074 0
M  V30 20705 C 1980.4 1.45376 -1.47921 0
M  V30 20706 C 1980.83 1.87855 -0.0960289 0
M  V30 20707 O 1980.18 1.5689 0.908583 0
M  V30 20708 C 1980.23 2.67002 -2.42368 0
M  V30 20709 O 1979.34 3.65783 -1.90465 0
M  V30 20710 H 1978.68 0.436193 -0.500632 0
M  V30 20711 H 1981.21 0.809399 -1.87909 0
M  V30 20712 H 1981.22 3.14909 -2.59416 0
M  V30 20713 H 1979.89 2.35426 -3.42852 0
M  V30 20714 H 1978.47 3.24885 -1.83041 0
M  V30 20715 N 1980.65 1.29477 0.898527 0
M  V30 20716 C 1981.6 1.1459 2.02415 0
M  V30 20717 C 1982.6 0.0611919 1.69289 0
M  V30 20718 O 1983.8 0.221075 1.78637 0
M  V30 20719 H 1980.18 0.353997 0.663468 0
M  V30 20720 H 1982.15 2.09886 2.12109 0
M  V30 20721 C 1980.9 0.840435 3.3739 0
M  V30 20722 H 1980.22 1.66712 3.63383 0
M  V30 20723 H 1981.66 0.77631 4.16833 0
M  V30 20724 C 1980.12 -0.456337 3.33795 0
M  V30 20725 O 1980.65 -1.48204 3.73361 0
M  V30 20726 N 1978.86 -0.462604 2.86894 0
M  V30 20727 H 1978.4 0.372545 2.54892 0
M  V30 20728 H 1978.36 -1.33024 2.84872 0
M  V30 20729 N 1982.13 -1.10905 1.11972 0
M  V30 20730 C 1983.36 -1.86284 0.893402 0
M  V30 20731 C 1983.77 -1.80704 -0.560594 0
M  V30 20732 O 1983.11 -1.19041 -1.3991 0
M  V30 20733 C 1983.18 -3.35793 1.28386 0
M  V30 20734 C 1982.84 -3.65137 2.74816 0
M  V30 20735 C 1983.84 -3.62148 3.73021 0
M  V30 20736 C 1981.52 -3.93967 3.11601 0
M  V30 20737 C 1983.52 -3.87575 5.06028 0
M  V30 20738 C 1981.2 -4.19051 4.44791 0
M  V30 20739 C 1982.2 -4.15844 5.41814 0
M  V30 20740 O 1981.89 -4.40294 6.72604 0
M  V30 20741 H 1981.62 -0.59576 0.319447 0
M  V30 20742 H 1984.17 -1.41148 1.49219 0
M  V30 20743 H 1982.4 -3.81563 0.628247 0
M  V30 20744 H 1984.09 -3.9255 1.03245 0
M  V30 20745 H 1984.86 -3.3992 3.45948 0
M  V30 20746 H 1980.74 -3.95596 2.36695 0
M  V30 20747 H 1984.28 -3.84987 5.81748 0
M  V30 20748 H 1980.18 -4.40757 4.71596 0
M  V30 20749 H 1980.95 -4.57833 6.78477 0
M  V30 20750 N 1983.61 -0.910886 -1.2861 0
M  V30 20751 C 1984.86 -0.543361 -1.95385 0
M  V30 20752 C 1985.19 0.910109 -1.71554 0
M  V30 20753 O 1984.46 1.64684 -1.03487 0
M  V30 20754 C 1984.75 -0.849821 -3.49929 0
M  V30 20755 C 1984.6 -2.35581 -3.83173 0
M  V30 20756 C 1985.92 -0.343997 -4.38754 0
M  V30 20757 H 1983.04 -0.198884 -0.709658 0
M  V30 20758 H 1985.68 -1.13961 -1.52029 0
M  V30 20759 H 1983.83 -0.34238 -3.86988 0
M  V30 20760 H 1985.5 -2.93365 -3.55998 0
M  V30 20761 H 1983.75 -2.81197 -3.30319 0
M  V30 20762 H 1984.42 -2.52079 -4.9108 0
M  V30 20763 H 1986.89 -0.778662 -4.08749 0
M  V30 20764 H 1985.77 -0.58753 -5.45747 0
M  V30 20765 H 1986.03 0.755609 -4.35595 0
M  V30 20766 N 1985.09 1.42434 -0.674558 0
M  V30 20767 C 1986.02 2.33498 -0.0100395 0
M  V30 20768 C 1987 1.50665 0.789558 0
M  V30 20769 O 1988.18 1.79268 0.74676 0
M  V30 20770 C 1985.31 3.34279 0.942081 0
M  V30 20771 C 1984.27 4.27263 0.251094 0
M  V30 20772 C 1983.59 5.18249 1.31614 0
M  V30 20773 C 1984.89 5.15008 -0.869735 0
M  V30 20774 H 1986.59 2.89314 -0.770566 0
M  V30 20775 H 1984.13 1.39112 -0.372004 0
M  V30 20776 H 1986.09 3.96896 1.41604 0
M  V30 20777 H 1984.81 2.76765 1.73403 0
M  V30 20778 H 1983.47 3.6604 -0.202625 0
M  V30 20779 H 1983.12 4.57063 2.10006 0
M  V30 20780 H 1982.82 5.81288 0.858923 0
M  V30 20781 H 1984.34 5.83742 1.79103 0
M  V30 20782 H 1985.76 5.71312 -0.477004 0
M  V30 20783 H 1984.15 5.86879 -1.25273 0
M  V30 20784 H 1985.22 4.53422 -1.71861 0
M  V30 20785 N 1986.57 0.417871 1.51959 0
M  V30 20786 C 1987.53 -0.391479 2.25832 0
M  V30 20787 C 1988.53 -0.96627 1.2853 0
M  V30 20788 O 1989.72 -0.843774 1.52401 0
M  V30 20789 C 1986.85 -1.55192 3.03526 0
M  V30 20790 H 1988.04 0.255672 2.98808 0
M  V30 20791 H 1985.6 0.170583 1.55366 0
M  V30 20792 H 1986.33 -2.23569 2.3492 0
M  V30 20793 H 1986.12 -1.14616 3.74974 0
M  V30 20794 H 1987.61 -2.12422 3.59537 0
M  V30 20795 N 1988.04 -1.56898 0.148573 0
M  V30 20796 C 1989.27 -2.00974 -0.512287 0
M  V30 20797 C 1989.69 -1.02801 -1.57523 0
M  V30 20798 O 1989.05 -0.00400411 -1.813 0
M  V30 20799 C 1989.1 -3.43785 -1.08832 0
M  V30 20800 O 1988.2 -3.4862 -2.20313 0
M  V30 20801 H 1987.55 -0.652102 -0.125133 0
M  V30 20802 H 1990.08 -2.03119 0.245769 0
M  V30 20803 H 1990.09 -3.82618 -1.41659 0
M  V30 20804 H 1988.76 -4.14744 -0.309923 0
M  V30 20805 H 1987.34 -3.2163 -1.88702 0
M  V30 20806 N 1989.52 0.125209 -1.57102 0
M  V30 20807 C 1990.75 0.848436 -1.88704 0
M  V30 20808 C 1991.17 1.73729 -0.739158 0
M  V30 20809 O 1990.52 1.80177 0.290278 0
M  V30 20810 C 1990.57 1.68704 -3.1972 0
M  V30 20811 O 1990.29 0.833978 -4.30089 0
M  V30 20812 C 1991.8 2.51596 -3.64985 0
M  V30 20813 H 1989.02 0.244227 -0.624975 0
M  V30 20814 H 1991.56 0.111462 -2.04196 0
M  V30 20815 H 1989.71 2.37684 -3.05917 0
M  V30 20816 H 1990.13 1.4118 -5.05142 0
M  V30 20817 H 1991.6 3.05978 -4.59436 0
M  V30 20818 H 1992.08 3.28664 -2.91336 0
M  V30 20819 H 1992.69 1.8787 -3.81556 0
M  V30 20820 N 1991 1.52564 0.395213 0
M  V30 20821 C 1991.95 1.77531 1.50285 0
M  V30 20822 C 1992.94 0.642976 1.56723 0
M  V30 20823 O 1994.15 0.825323 1.59964 0
M  V30 20824 H 1990.52 0.561636 0.500069 0
M  V30 20825 H 1992.49 2.70298 1.26418 0
M  V30 20826 C 1991.24 1.95557 2.87494 0
M  V30 20827 H 1990.57 2.82114 2.83288 0
M  V30 20828 H 1992.01 2.17019 3.64251 0
M  V30 20829 C 1990.47 0.726406 3.28976 0
M  V30 20830 O 1991 -0.0991246 4.01578 0
M  V30 20831 N 1989.2 0.558299 2.85187 0
M  V30 20832 H 1988.75 1.2312 2.26272 0
M  V30 20833 H 1988.71 -0.262779 3.133 0
M  V30 20834 N 1992.48 -0.653289 1.43422 0
M  V30 20835 C 1993.7 -1.4459 1.4869 0
M  V30 20836 C 1994.13 -1.87801 0.10599 0
M  V30 20837 O 1993.49 -1.5737 -0.90025 0
M  V30 20838 C 1993.53 -2.65713 2.43781 0
M  V30 20839 O 1992.64 -3.64767 1.92402 0
M  V30 20840 H 1991.98 -0.433532 0.502938 0
M  V30 20841 H 1994.51 -0.799423 1.88336 0
M  V30 20842 H 1994.52 -3.13528 2.61082 0
M  V30 20843 H 1993.19 -2.33604 3.44096 0
M  V30 20844 H 1991.77 -3.2391 1.84761 0
M  V30 20845 N 1993.96 -1.29952 -0.891648 0
M  V30 20846 C 1995.18 -1.21422 -1.68141 0
M  V30 20847 C 1995.61 0.220633 -1.86802 0
M  V30 20848 O 1994.96 1.15902 -1.39414 0
M  V30 20849 C 1995.01 -1.94116 -3.03894 0
M  V30 20850 O 1994.12 -1.26369 -3.92562 0
M  V30 20851 H 1993.46 -0.420318 -0.514032 0
M  V30 20852 H 1995.99 -1.71658 -1.11331 0
M  V30 20853 H 1996 -2.02881 -3.53982 0
M  V30 20854 H 1994.67 -2.98474 -2.89631 0
M  V30 20855 H 1993.25 -1.25915 -3.50998 0
M  V30 20856 N 1995.44 1.1031 -1.12559 0
M  V30 20857 C 1996.85 1.34325 -0.861911 0
M  V30 20858 C 1997.05 1.95009 0.507319 0
M  V30 20859 O 1996.11 2.1906 1.25574 0
M  V30 20860 C 1997.42 2.26367 -1.97935 0
M  V30 20861 C 1998.97 2.39901 -2.01039 0
M  V30 20862 C 1999.44 3.35273 -3.1202 0
M  V30 20863 N 2000.93 3.42841 -3.11471 0
M  V30 20864 C 2001.67 4.16611 -3.93983 0
M  V30 20865 N 2001.17 4.93256 -4.86488 0
M  V30 20866 N 2002.96 4.12243 -3.82116 0
M  V30 20867 H 1995.11 0.692899 -2.0078 0
M  V30 20868 H 1997.37 0.367689 -0.87379 0
M  V30 20869 H 1997.08 1.8899 -2.96607 0
M  V30 20870 H 1996.95 3.26685 -1.88565 0
M  V30 20871 H 1999.34 2.76546 -1.02986 0
M  V30 20872 H 1999.42 1.39393 -2.14484 0
M  V30 20873 H 1999.06 2.99352 -4.10306 0
M  V30 20874 H 1998.99 4.35663 -2.95813 0
M  V30 20875 H 2001.49 2.88182 -2.44457 0
M  V30 20876 H 2001.8 5.46948 -5.45956 0
M  V30 20877 H 2000.14 4.92376 -4.90501 0
M  V30 20878 H 2003.33 3.5146 -3.09182 0
M  V30 20879 H 2003.51 4.69475 -4.46651 0
M  V30 20880 N 1996.91 0.917694 1.28125 0
M  V30 20881 C 1998.16 0.548771 1.94091 0
M  V30 20882 C 1998.48 -0.912688 1.73001 0
M  V30 20883 O 1999.68 -1.38994 2.33223 0
M  V30 20884 C 1998.14 0.930611 3.4766 0
M  V30 20885 C 1997.75 2.41207 3.77523 0
M  V30 20886 C 1999.49 0.632461 4.19762 0
M  V30 20887 C 1997.4 2.73383 5.24419 0
M  V30 20888 H 1996.33 0.201513 0.726573 0
M  V30 20889 H 1998.98 1.11715 1.45575 0
M  V30 20890 H 1997.36 0.290982 3.94929 0
M  V30 20891 H 1998.53 3.09876 3.41048 0
M  V30 20892 H 1996.85 2.68108 3.18602 0
M  V30 20893 H 1999.45 0.849481 5.27909 0
M  V30 20894 H 1999.79 -0.429909 4.14074 0
M  V30 20895 H 2000.32 1.23073 3.78283 0
M  V30 20896 H 1997.06 3.78489 5.35188 0
M  V30 20897 H 1996.58 2.09354 5.62077 0
M  V30 20898 H 1998.26 2.60595 5.92198 0
M  V30 20899 N 1998.39 -1.42074 0.682102 0
M  V30 20900 C 1999.62 -2.05769 0.216029 0
M  V30 20901 C 2000.03 -1.51278 -1.12962 0
M  V30 20902 O 1999.39 -0.655521 -1.70321 0
M  V30 20903 C 1999.44 -3.61187 0.150351 0
M  V30 20904 O 1999.16 -4.13659 1.44283 0
M  V30 20905 C 2000.66 -4.42007 -0.338339 0
M  V30 20906 H 1997.88 -0.662997 0.103326 0
M  V30 20907 H 2000.43 -1.82084 0.930895 0
M  V30 20908 H 1998.58 -3.83958 -0.515249 0
M  V30 20909 H 1999 -5.07592 1.32101 0
M  V30 20910 H 2000.47 -5.50994 -0.33319 0
M  V30 20911 H 2000.95 -4.17125 -1.37489 0
M  V30 20912 H 2001.55 -4.2427 0.295782 0
M  V30 20913 N 1999.87 -0.425924 -1.51735 0
M  V30 20914 C 2001.28 0.0398403 -1.86657 0
M  V30 20915 C 2001.63 1.4296 -1.34376 0
M  V30 20916 O 2000.76 2.05109 -0.689867 0
M  V30 20917 C 2001.35 0.0790715 -3.38708 0
M  V30 20918 C 1999.91 0.489215 -3.73207 0
M  V30 20919 C 1999.06 -0.325517 -2.75383 0
M  V30 20920 H 2002.01 -0.642271 -1.45123 0
M  V30 20921 H 2002.03 0.890928 -3.69923 0
M  V30 20922 H 2001.54 -0.932545 -3.7673 0
M  V30 20923 H 1999.64 1.50686 -3.40771 0
M  V30 20924 H 1999.76 0.221939 -4.78586 0
M  V30 20925 H 1998.12 0.214561 -2.53795 0
M  V30 20926 H 1998.9 -1.3358 -3.16246 0
M  V30 20927 N 2001.35 1.56817 -0.156891 0
M  V30 20928 C 2002.76 1.83151 0.362283 0
M  V30 20929 C 2003.11 1.07606 1.64059 0
M  V30 20930 O 2002.23 0.324479 2.13953 0
M  V30 20931 C 2002.83 3.32228 0.664072 0
M  V30 20932 C 2001.39 3.59109 1.12773 0
M  V30 20933 C 2000.54 2.76861 0.155995 0
M  V30 20934 H 2003.49 1.54048 -0.381419 0
M  V30 20935 H 2003.51 3.48921 1.5177 0
M  V30 20936 H 2003.02 3.87184 -0.266475 0
M  V30 20937 H 2001.12 3.0955 2.07388 0
M  V30 20938 H 2001.23 4.67523 1.04687 0
M  V30 20939 H 1999.6 2.46251 0.650561 0
M  V30 20940 H 2000.38 3.34592 -0.768318 0
M  V30 20941 N 2002.83 -0.116876 1.57166 0
M  V30 20942 C 2004.05 -0.838417 1.89151 0
M  V30 20943 C 2004.47 -1.73335 0.748361 0
M  V30 20944 O 2003.83 -1.80328 -0.280719 0
M  V30 20945 C 2003.88 -1.67006 3.20611 0
M  V30 20946 O 2003.6 -0.811158 4.30525 0
M  V30 20947 C 2005.1 -2.49657 3.66314 0
M  V30 20948 H 2002.32 -0.240909 0.626262 0
M  V30 20949 H 2004.86 -0.100631 2.04252 0
M  V30 20950 H 2003.02 -2.36058 3.07173 0
M  V30 20951 H 2003.43 -1.38499 5.05884 0
M  V30 20952 H 2004.91 -3.03537 4.61052 0
M  V30 20953 H 2005.38 -3.27114 2.93075 0
M  V30 20954 H 2005.99 -1.85844 3.82547 0
M  V30 20955 N 2004.3 -1.52772 -0.387116 0
M  V30 20956 C 2005.55 -1.68156 -1.13364 0
M  V30 20957 C 2005.88 -0.421195 -1.89577 0
M  V30 20958 O 2005.16 0.581056 -1.85618 0
M  V30 20959 C 2005.44 -2.91781 -2.11036 0
M  V30 20960 C 2005.29 -4.27922 -1.38573 0
M  V30 20961 C 2006.61 -3.10957 -3.11438 0
M  V30 20962 H 2003.73 -0.611922 -0.410755 0
M  V30 20963 H 2006.37 -1.85372 -0.416809 0
M  V30 20964 H 2004.52 -2.77234 -2.72165 0
M  V30 20965 H 2006.2 -4.54241 -0.803941 0
M  V30 20966 H 2004.44 -4.28316 -0.687576 0
M  V30 20967 H 2005.11 -5.10514 -2.09952 0
M  V30 20968 H 2007.59 -3.24547 -2.604 0
M  V30 20969 H 2006.46 -3.9893 -3.77022 0
M  V30 20970 H 2006.72 -2.25258 -3.80409 0
M  V30 20971 N 2005.78 0.645673 -1.43767 0
M  V30 20972 C 2006.74 1.74013 -1.49171 0
M  V30 20973 C 2007.74 1.56355 -0.375476 0
M  V30 20974 O 2008.93 1.62115 -0.637529 0
M  V30 20975 C 2006.07 3.12961 -1.3516 0
M  V30 20976 H 2007.26 1.706 -2.46649 0
M  V30 20977 H 2004.81 0.858019 -1.30643 0
M  V30 20978 H 2005.55 3.2198 -0.387199 0
M  V30 20979 H 2005.33 3.27184 -2.16086 0
M  V30 20980 H 2006.82 3.92755 -1.41891 0
M  V30 20981 N 2007.26 1.30423 0.884744 0
M  V30 20982 C 2008.21 1.13434 1.97779 0
M  V30 20983 C 2009.19 0.0494483 1.60824 0
M  V30 20984 O 2010.39 0.272793 1.74885 0
M  V30 20985 C 2007.51 0.828489 3.33153 0
M  V30 20986 C 2006.6 1.95365 3.76422 0
M  V30 20987 N 2006.99 3.19903 3.91785 0
M  V30 20988 C 2005.29 1.85007 4.05818 0
M  V30 20989 C 2005.99 3.93408 4.28492 0
M  V30 20990 N 2004.97 3.2146 4.38366 0
M  V30 20991 H 2008.77 2.07889 2.07748 0
M  V30 20992 H 2006.28 1.21765 1.07457 0
M  V30 20993 H 2008.28 0.687799 4.11187 0
M  V30 20994 H 2006.94 -0.107985 3.2452 0
M  V30 20995 H 2007.95 3.55189 3.7691 0
M  V30 20996 H 2004.63 0.987286 4.05659 0
M  V30 20997 H 2006.02 5.00656 4.48099 0
M  V30 20998 N 2008.74 -1.09711 1.13142 0
M  V30 20999 C 2009.96 -1.86136 0.914785 0
M  V30 21000 C 2010.39 -1.80448 -0.531035 0
M  V30 21001 O 2009.75 -1.17983 -1.37658 0
M  V30 21002 C 2009.79 -3.32164 1.40356 0
M  V30 21003 O 2008.9 -4.08203 0.586881 0
M  V30 21004 H 2008.24 -0.577287 0.328079 0
M  V30 21005 H 2010.77 -1.38563 1.50537 0
M  V30 21006 H 2010.78 -3.83013 1.40589 0
M  V30 21007 H 2009.45 -3.35619 2.45628 0
M  V30 21008 H 2008.03 -3.67153 0.652163 0
M  V30 21009 N 2010.22 -0.924476 -1.27637 0
M  V30 21010 C 2011.49 -0.481742 -1.89575 0
M  V30 21011 C 2011.87 1.04002 -1.83703 0
M  V30 21012 O 2011.22 1.89277 -1.28009 0
M  V30 21013 C 2011.43 -1.02419 -3.33633 0
M  V30 21014 C 2012.78 -1.08274 -4.10563 0
M  V30 21015 O 2013.8 -0.97359 -3.42636 0
M  V30 21016 O 2012.66 -1.25042 -5.32003 0
M  V30 21017 H 2009.76 -0.15444 -0.812451 0
M  V30 21018 H 2012.3 -1.01596 -1.35928 0
M  V30 21019 H 2011.07 -2.06808 -3.32184 0
M  V30 21020 H 2010.7 -0.471435 -3.94795 0
M  V30 21021 N 2011.69 1.41711 -0.689627 0
M  V30 21022 C 2012.66 2.29181 -0.02958 0
M  V30 21023 C 2013.66 1.44079 0.714004 0
M  V30 21024 O 2014.85 1.65297 0.549783 0
M  V30 21025 C 2011.98 3.26851 0.968583 0
M  V30 21026 H 2013.17 2.89042 -0.799656 0
M  V30 21027 H 2010.73 1.49598 -0.45279 0
M  V30 21028 H 2011.46 2.71957 1.76663 0
M  V30 21029 H 2011.25 3.89639 0.4386 0
M  V30 21030 H 2012.74 3.92412 1.42839 0
M  V30 21031 N 2013.17 0.433965 1.51507 0
M  V30 21032 C 2014.1 -0.369789 2.30553 0
M  V30 21033 C 2015.08 -1.02405 1.35821 0
M  V30 21034 O 2016.27 -1.02833 1.64739 0
M  V30 21035 C 2013.4 -1.47312 3.1451 0
M  V30 21036 C 2012.35 -0.942531 4.17493 0
M  V30 21037 C 2011.68 -2.14135 4.89949 0
M  V30 21038 C 2012.98 0.0206958 5.22296 0
M  V30 21039 H 2014.67 0.289851 2.97994 0
M  V30 21040 H 2012.22 0.14084 1.4331 0
M  V30 21041 H 2014.17 -2.04259 3.68587 0
M  V30 21042 H 2012.9 -2.161 2.44884 0
M  V30 21043 H 2011.55 -0.395296 3.64463 0
M  V30 21044 H 2011.2 -2.81535 4.1683 0
M  V30 21045 H 2010.9 -1.79273 5.59584 0
M  V30 21046 H 2012.43 -2.71642 5.46848 0
M  V30 21047 H 2013.84 -0.458366 5.71465 0
M  V30 21048 H 2012.24 0.281718 5.99438 0
M  V30 21049 H 2013.31 0.958416 4.75334 0
M  V30 21050 N 2014.65 -1.56732 0.165206 0
M  V30 21051 C 2015.61 -2.1646 -0.753498 0
M  V30 21052 C 2016.61 -1.11106 -1.16241 0
M  V30 21053 O 2017.8 -1.36652 -1.08037 0
M  V30 21054 C 2014.94 -2.7425 -2.02483 0
M  V30 21055 H 2016.13 -2.98989 -0.233629 0
M  V30 21056 H 2013.68 -1.56072 -0.0843317 0
M  V30 21057 H 2014.42 -1.95439 -2.58794 0
M  V30 21058 H 2014.2 -3.51345 -1.74065 0
M  V30 21059 H 2015.69 -3.20209 -2.6806 0
M  V30 21060 N 2016.13 0.10854 -1.57226 0
M  V30 21061 C 2017.54 0.462379 -1.52755 0
M  V30 21062 C 2017.74 1.81276 -0.87985 0
M  V30 21063 O 2016.8 2.48151 -0.466628 0
M  V30 21064 C 2018.11 0.437241 -2.97504 0
M  V30 21065 C 2019.66 0.520052 -3.08649 0
M  V30 21066 C 2020.14 0.525198 -4.54979 0
M  V30 21067 N 2021.63 0.586339 -4.59474 0
M  V30 21068 C 2022.36 0.61194 -5.70125 0
M  V30 21069 N 2021.86 0.594556 -6.90244 0
M  V30 21070 N 2023.65 0.655738 -5.58262 0
M  V30 21071 H 2015.8 -0.776135 -1.97712 0
M  V30 21072 H 2018.07 -0.287457 -0.903367 0
M  V30 21073 H 2017.77 -0.487552 -3.48304 0
M  V30 21074 H 2017.65 1.2612 -3.55491 0
M  V30 21075 H 2020.03 1.43526 -2.57845 0
M  V30 21076 H 2020.11 -0.331795 -2.53639 0
M  V30 21077 H 2019.76 -0.386013 -5.06431 0
M  V30 21078 H 2019.69 1.39407 -5.07812 0
M  V30 21079 H 2022.18 0.605514 -3.73017 0
M  V30 21080 H 2022.49 0.617002 -7.70333 0
M  V30 21081 H 2020.84 0.561814 -6.92726 0
M  V30 21082 H 2024.03 0.666756 -4.63327 0
M  V30 21083 H 2024.2 0.672222 -6.44504 0
M  V30 21084 N 2017.61 1.52975 0.379009 0
M  V30 21085 C 2019.02 1.42448 0.719772 0
M  V30 21086 C 2019.22 0.552842 1.93768 0
M  V30 21087 O 2018.28 0.0301168 2.52482 0
M  V30 21088 C 2019.59 2.85448 0.945527 0
M  V30 21089 C 2021.14 2.94991 1.04638 0
M  V30 21090 C 2021.61 4.39024 1.30469 0
M  V30 21091 N 2023.11 4.42393 1.37269 0
M  V30 21092 C 2023.84 5.50931 1.58941 0
M  V30 21093 N 2023.34 6.69538 1.78017 0
M  V30 21094 N 2025.13 5.38489 1.61202 0
M  V30 21095 H 2017.28 2.08161 -0.422247 0
M  V30 21096 H 2019.54 0.939485 -0.126776 0
M  V30 21097 H 2019.25 3.51486 0.122608 0
M  V30 21098 H 2019.12 3.28299 1.85741 0
M  V30 21099 H 2021.51 2.29115 1.85985 0
M  V30 21100 H 2021.59 2.55554 0.11218 0
M  V30 21101 H 2021.24 5.0547 0.496281 0
M  V30 21102 H 2021.17 4.76022 2.2519 0
M  V30 21103 H 2023.66 3.56909 1.24195 0
M  V30 21104 H 2023.97 7.4803 1.94089 0
M  V30 21105 H 2022.31 6.72549 1.75222 0
M  V30 21106 H 2025.51 4.44796 1.45856 0
M  V30 21107 H 2025.68 6.23144 1.77751 0
M  V30 21108 N 2019.08 -0.63804 1.44107 0
M  V30 21109 C 2020.33 -1.39772 1.46526 0
M  V30 21110 C 2020.66 -1.94267 0.0952359 0
M  V30 21111 O 2019.91 -1.73674 -0.901993 0
M  V30 21112 C 2020.21 -2.58567 2.46734 0
M  V30 21113 C 2019.88 -2.22403 3.92234 0
M  V30 21114 C 2018.54 -2.12252 4.31859 0
M  V30 21115 C 2020.89 -1.93717 4.83863 0
M  V30 21116 C 2018.22 -1.71594 5.61046 0
M  V30 21117 C 2020.57 -1.54553 6.1343 0
M  V30 21118 C 2019.24 -1.42939 6.52016 0
M  V30 21119 H 2018.51 -0.511463 0.536177 0
M  V30 21120 H 2021.15 -0.724184 1.77279 0
M  V30 21121 H 2019.46 -3.31123 2.0944 0
M  V30 21122 H 2021.16 -3.16791 2.45855 0
M  V30 21123 H 2017.75 -2.31219 3.60882 0
M  V30 21124 H 2021.93 -2.00472 4.5401 0
M  V30 21125 H 2017.19 -1.612 5.89766 0
M  V30 21126 H 2021.36 -1.31393 6.83892 0
M  V30 21127 H 2018.99 -1.11206 7.52022 0
M  V30 21128 N 2020.56 -1.3089 -0.877815 0
M  V30 21129 C 2021.53 -1.17848 -1.96582 0
M  V30 21130 C 2022.53 -0.10772 -1.60439 0
M  V30 21131 O 2023.72 -0.356388 -1.70515 0
M  V30 21132 C 2020.85 -0.80715 -3.31207 0
M  V30 21133 H 2022.04 -2.14516 -2.09578 0
M  V30 21134 H 2019.59 -1.14389 -1.06512 0
M  V30 21135 H 2020.33 0.158713 -3.23911 0
M  V30 21136 H 2020.11 -1.58105 -3.58811 0
M  V30 21137 H 2021.6 -0.739575 -4.10999 0
M  V30 21138 N 2022.04 1.0911 -1.13723 0
M  V30 21139 C 2023.29 1.81352 -0.900984 0
M  V30 21140 C 2023.62 1.85876 0.572749 0
M  V30 21141 O 2022.87 1.3252 1.44003 0
M  V30 21142 C 2023.17 3.27193 -1.43805 0
M  V30 21143 C 2022.84 3.42797 -2.92918 0
M  V30 21144 C 2021.5 3.46763 -3.33629 0
M  V30 21145 C 2023.85 3.47067 -3.88837 0
M  V30 21146 C 2021.18 3.52582 -4.68938 0
M  V30 21147 C 2023.53 3.5442 -5.23993 0
M  V30 21148 C 2022.19 3.56657 -5.64227 0
M  V30 21149 H 2021.46 0.663614 -0.329694 0
M  V30 21150 H 2024.11 1.28517 -1.41971 0
M  V30 21151 H 2022.42 3.82687 -0.840093 0
M  V30 21152 H 2024.11 3.81628 -1.23129 0
M  V30 21153 H 2020.7 3.40397 -2.60438 0
M  V30 21154 H 2024.89 3.4324 -3.58469 0
M  V30 21155 H 2020.14 3.52602 -4.99481 0
M  V30 21156 H 2024.32 3.56669 -5.9813 0
M  V30 21157 H 2021.94 3.60918 -6.69061 0
M  V30 21158 N 2023.52 0.931232 1.27145 0
M  V30 21159 C 2024.8 0.491789 1.89317 0
M  V30 21160 C 2025.18 -1.03026 1.84252 0
M  V30 21161 O 2024.52 -1.88596 1.29011 0
M  V30 21162 C 2024.73 1.04187 3.33086 0
M  V30 21163 C 2026.08 1.1045 4.09983 0
M  V30 21164 O 2027.11 0.991747 3.42115 0
M  V30 21165 O 2025.96 1.27861 5.31332 0
M  V30 21166 H 2023.06 0.158746 0.811621 0
M  V30 21167 H 2025.6 1.02315 1.35387 0
M  V30 21168 H 2024.38 2.08566 3.31083 0
M  V30 21169 H 2024 0.492365 3.9454 0
M  V30 21170 N 2025 -1.41343 0.697132 0
M  V30 21171 C 2025.93 -2.28193 -0.017778 0
M  V30 21172 C 2026.91 -1.4232 -0.786373 0
M  V30 21173 O 2028.09 -1.71747 -0.776865 0
M  V30 21174 C 2025.22 -3.22577 -1.03256 0
M  V30 21175 C 2024.27 -4.25004 -0.356949 0
M  V30 21176 S 2025.1 -5.27852 0.901798 0
M  V30 21177 C 2026.25 -6.25801 -0.111346 0
M  V30 21178 H 2026.49 -2.88479 0.718839 0
M  V30 21179 H 2024.02 -1.46503 0.487463 0
M  V30 21180 H 2025.98 -3.77487 -1.61288 0
M  V30 21181 H 2024.64 -2.61384 -1.74176 0
M  V30 21182 H 2023.83 -4.9132 -1.12343 0
M  V30 21183 H 2023.43 -3.73698 0.150343 0
M  V30 21184 H 2025.73 -6.70605 -0.964122 0
M  V30 21185 H 2026.67 -7.06203 0.517933 0
M  V30 21186 H 2027.08 -5.62566 -0.466819 0
M  V30 21187 N 2026.48 -0.441993 -1.51275 0
M  V30 21188 C 2027.75 0.183076 -1.94741 0
M  V30 21189 C 2028.13 1.59668 -1.38092 0
M  V30 21190 O 2027.48 2.21279 -0.569882 0
M  V30 21191 C 2027.69 0.156071 -3.48651 0
M  V30 21192 C 2029.04 0.359351 -4.23077 0
M  V30 21193 O 2030.06 0.233977 -3.55431 0
M  V30 21194 O 2028.92 0.609358 -5.43092 0
M  V30 21195 H 2026.02 0.127455 -0.817119 0
M  V30 21196 H 2028.56 -0.500307 -1.62157 0
M  V30 21197 H 2027.33 -0.832021 -3.82352 0
M  V30 21198 H 2026.96 0.882165 -3.8769 0
M  V30 21199 N 2027.95 1.56642 -0.173515 0
M  V30 21200 C 2029.2 1.96124 0.470974 0
M  V30 21201 C 2029.52 1.06229 1.6424 0
M  V30 21202 O 2030.72 1.35402 2.35327 0
M  V30 21203 C 2029.18 3.4874 0.889284 0
M  V30 21204 C 2028.79 4.47264 -0.256662 0
M  V30 21205 C 2030.53 3.97037 1.50207 0
M  V30 21206 C 2028.44 5.91122 0.181401 0
M  V30 21207 H 2027.37 0.732267 0.179724 0
M  V30 21208 H 2030.02 1.81619 -0.262096 0
M  V30 21209 H 2028.4 3.58672 1.6784 0
M  V30 21210 H 2029.57 4.49049 -1.03401 0
M  V30 21211 H 2027.89 4.09038 -0.779546 0
M  V30 21212 H 2030.49 5.01974 1.8419 0
M  V30 21213 H 2030.83 3.401 2.40078 0
M  V30 21214 H 2031.36 3.90131 0.777351 0
M  V30 21215 H 2028.1 6.51936 -0.682591 0
M  V30 21216 H 2027.62 5.92639 0.924063 0
M  V30 21217 H 2029.3 6.43979 0.624532 0
M  V30 21218 N 2029.43 -0.1002 1.57281 0
M  V30 21219 C 2030.36 -1.14803 1.98376 0
M  V30 21220 C 2031.38 -1.36605 0.885602 0
M  V30 21221 O 2032.57 -1.35347 1.16376 0
M  V30 21222 C 2029.67 -2.50456 2.2831 0
M  V30 21223 C 2028.84 -2.49 3.59608 0
M  V30 21224 C 2027.9 -3.66541 3.77537 0
M  V30 21225 O 2026.92 -3.49266 4.49447 0
M  V30 21226 N 2028.13 -4.85829 3.17727 0
M  V30 21227 H 2030.89 -0.798301 2.88872 0
M  V30 21228 H 2028.45 -0.289246 1.59295 0
M  V30 21229 H 2030.44 -3.27681 2.37502 0
M  V30 21230 H 2029.01 -2.77538 1.43846 0
M  V30 21231 H 2028.23 -1.57357 3.61431 0
M  V30 21232 H 2029.52 -2.45101 4.45873 0
M  V30 21233 H 2028.92 -5.02769 2.59307 0
M  V30 21234 H 2027.48 -5.60665 3.32412 0
M  V30 21235 N 2030.91 -1.53174 -0.370891 0
M  V30 21236 C 2032.16 -1.68319 -1.11137 0
M  V30 21237 C 2032.47 -0.438743 -1.90616 0
M  V30 21238 O 2033.68 -0.470648 -2.6739 0
M  V30 21239 C 2032.13 -2.97532 -2.02491 0
M  V30 21240 C 2031.74 -4.29221 -1.28349 0
M  V30 21241 C 2033.49 -3.22045 -2.76563 0
M  V30 21242 C 2031.39 -5.49526 -2.18574 0
M  V30 21243 H 2030.32 -0.62713 -0.418597 0
M  V30 21244 H 2032.97 -1.79674 -0.372765 0
M  V30 21245 H 2031.36 -2.79967 -2.80061 0
M  V30 21246 H 2032.53 -4.57399 -0.558794 0
M  V30 21247 H 2030.84 -4.1111 -0.661614 0
M  V30 21248 H 2033.44 -4.09111 -3.44285 0
M  V30 21249 H 2033.78 -2.37881 -3.41641 0
M  V30 21250 H 2034.32 -3.40259 -2.06079 0
M  V30 21251 H 2031.06 -6.36152 -1.58083 0
M  V30 21252 H 2030.58 -5.25635 -2.88909 0
M  V30 21253 H 2032.26 -5.8411 -2.78252 0
M  V30 21254 N 2032.39 0.630389 -1.44443 0
M  V30 21255 C 2033.32 1.7552 -1.45836 0
M  V30 21256 C 2034.3 1.59478 -0.317118 0
M  V30 21257 O 2035.48 1.81351 -0.514201 0
M  V30 21258 C 2032.61 3.13101 -1.29173 0
M  V30 21259 C 2031.66 3.4779 -2.46869 0
M  V30 21260 S 2032.49 3.45187 -4.09397 0
M  V30 21261 C 2033.64 4.85386 -3.95159 0
M  V30 21262 H 2033.88 1.74072 -2.41011 0
M  V30 21263 H 2031.41 0.805066 -1.3175 0
M  V30 21264 H 2033.37 3.92493 -1.20247 0
M  V30 21265 H 2032.03 3.12087 -0.355075 0
M  V30 21266 H 2031.22 4.47906 -2.31075 0
M  V30 21267 H 2030.82 2.75862 -2.52539 0
M  V30 21268 H 2033.12 5.74631 -3.58895 0
M  V30 21269 H 2034.06 5.06235 -4.95108 0
M  V30 21270 H 2034.47 4.59995 -3.27207 0
M  V30 21271 N 2033.87 1.31354 0.870861 0
M  V30 21272 C 2035.09 1.24082 1.66188 0
M  V30 21273 C 2035.52 -0.190886 1.87129 0
M  V30 21274 O 2034.87 -1.13669 1.41241 0
M  V30 21275 C 2034.92 1.98926 3.00767 0
M  V30 21276 O 2034.03 1.32599 3.90501 0
M  V30 21277 H 2033.37 0.428443 0.50728 0
M  V30 21278 H 2035.9 1.73408 1.08586 0
M  V30 21279 H 2035.91 2.08487 3.5071 0
M  V30 21280 H 2034.58 3.03044 2.84846 0
M  V30 21281 H 2033.16 1.31483 3.48951 0
M  V30 21282 N 2035.34 -1.08505 1.143 0
M  V30 21283 C 2036.25 -2.18944 0.84266 0
M  V30 21284 C 2037.27 -1.73103 -0.17648 0
M  V30 21285 O 2038.45 -2.01399 -0.0052364 0
M  V30 21286 C 2035.51 -3.45189 0.323347 0
M  V30 21287 C 2034.57 -4.05661 1.40492 0
M  V30 21288 C 2033.8 -5.2588 0.910289 0
M  V30 21289 O 2034.03 -5.69858 -0.248616 0
M  V30 21290 O 2032.96 -5.77722 1.68882 0
M  V30 21291 H 2036.79 -2.47104 1.76559 0
M  V30 21292 H 2034.37 -1.17621 0.921181 0
M  V30 21293 H 2036.25 -4.21381 0.039611 0
M  V30 21294 H 2034.93 -3.18608 -0.571874 0
M  V30 21295 H 2033.84 -3.31061 1.7421 0
M  V30 21296 H 2035.17 -4.36488 2.27462 0
M  V30 21297 N 2036.82 -0.937962 -1.26649 0
M  V30 21298 C 2038.05 -0.599594 -1.97708 0
M  V30 21299 C 2038.46 0.828987 -1.70072 0
M  V30 21300 O 2037.8 1.56392 -0.963702 0
M  V30 21301 C 2037.86 -0.758048 -3.51417 0
M  V30 21302 C 2037.53 -2.16066 -4.02697 0
M  V30 21303 C 2038.53 -3.13583 -4.14683 0
M  V30 21304 C 2036.21 -2.48037 -4.36787 0
M  V30 21305 C 2038.2 -4.41173 -4.60049 0
M  V30 21306 C 2035.89 -3.7586 -4.81842 0
M  V30 21307 C 2036.89 -4.72242 -4.93434 0
M  V30 21308 O 2036.58 -5.9779 -5.37497 0
M  V30 21309 H 2036.31 -0.225091 -0.637425 0
M  V30 21310 H 2038.86 -1.26008 -1.62207 0
M  V30 21311 H 2037.09 -0.0404339 -3.86679 0
M  V30 21312 H 2038.78 -0.423218 -4.03688 0
M  V30 21313 H 2039.55 -2.90206 -3.88594 0
M  V30 21314 H 2035.43 -1.73755 -4.27001 0
M  V30 21315 H 2038.97 -5.16405 -4.69011 0
M  V30 21316 H 2034.87 -3.99051 -5.07374 0
M  V30 21317 H 2035.64 -6.00925 -5.55726 0
M  V30 21318 N 2038.3 1.40971 -0.704618 0
M  V30 21319 C 2039.52 2.05921 -0.24728 0
M  V30 21320 C 2039.95 1.52708 1.09826 0
M  V30 21321 O 2039.31 0.657821 1.68945 0
M  V30 21322 C 2039.36 3.59896 -0.225274 0
M  V30 21323 O 2038.46 4.04625 0.797019 0
M  V30 21324 H 2037.8 0.65333 -0.118557 0
M  V30 21325 H 2040.33 1.80572 -0.962021 0
M  V30 21326 H 2040.34 4.07957 -0.0592095 0
M  V30 21327 H 2039.02 3.97993 -1.20725 0
M  V30 21328 H 2037.59 3.68048 0.599572 0
M  V30 21329 N 2039.78 0.45001 1.51039 0
M  V30 21330 C 2041.19 0.10298 1.59267 0
M  V30 21331 C 2041.39 -1.38881 1.45995 0
M  V30 21332 O 2040.45 -2.16003 1.30763 0
M  V30 21333 C 2041.76 0.634392 2.93932 0
M  V30 21334 C 2043.31 0.59595 3.07274 0
M  V30 21335 C 2043.79 1.10455 4.44481 0
M  V30 21336 N 2045.28 1.06307 4.50836 0
M  V30 21337 C 2046.01 1.42733 5.55351 0
M  V30 21338 N 2045.51 1.86506 6.67224 0
M  V30 21339 N 2047.3 1.34469 5.45779 0
M  V30 21340 H 2039.45 1.42049 1.57911 0
M  V30 21341 H 2041.72 0.586142 0.745078 0
M  V30 21342 H 2041.42 1.67863 3.09055 0
M  V30 21343 H 2041.3 0.0662668 3.77142 0
M  V30 21344 H 2043.68 -0.439332 2.91811 0
M  V30 21345 H 2043.76 1.20063 2.25873 0
M  V30 21346 H 2043.41 2.13836 4.60692 0
M  V30 21347 H 2043.34 0.476284 5.24442 0
M  V30 21348 H 2045.83 0.741765 3.70549 0
M  V30 21349 H 2046.14 2.12505 7.43009 0
M  V30 21350 H 2044.49 1.90443 6.68398 0
M  V30 21351 H 2047.68 1.00128 4.57266 0
M  V30 21352 H 2047.85 1.63185 6.27116 0
M  V30 21353 N 2041.26 -1.56548 0.18182 0
M  V30 21354 C 2042.53 -1.88906 -0.507337 0
M  V30 21355 C 2042.91 -1.09334 -1.80581 0
M  V30 21356 O 2042.26 -0.190397 -2.27705 0
M  V30 21357 C 2042.47 -3.41085 -0.73904 0
M  V30 21358 C 2043.82 -4.11043 -1.06435 0
M  V30 21359 O 2044.84 -3.46461 -0.82722 0
M  V30 21360 O 2043.7 -5.2516 -1.51225 0
M  V30 21361 H 2040.8 -0.784135 -0.262794 0
M  V30 21362 H 2043.34 -1.68254 0.221041 0
M  V30 21363 H 2042.11 -3.90893 0.17847 0
M  V30 21364 H 2041.74 -3.67384 -1.52036 0
M  V30 21365 N 2042.73 0.0918577 -1.57332 0
M  V30 21366 C 2043.98 0.793187 -1.85884 0
M  V30 21367 C 2044.3 1.79111 -0.770985 0
M  V30 21368 O 2043.57 1.94851 0.202438 0
M  V30 21369 H 2042.15 0.295923 -0.685885 0
M  V30 21370 H 2044.82 0.0727166 -1.94764 0
M  V30 21371 H 2043.91 1.32178 -2.82728 0
M  V30 21372 N 2044.21 1.53368 0.362763 0
M  V30 21373 C 2045.16 1.80005 1.44454 0
M  V30 21374 C 2046.13 0.644581 1.53083 0
M  V30 21375 O 2047.31 0.887051 1.68926 0
M  V30 21376 C 2044.45 1.99822 2.81363 0
M  V30 21377 C 2043.57 3.27539 2.81678 0
M  V30 21378 C 2042.7 3.37528 4.10181 0
M  V30 21379 C 2041.74 4.59266 4.04649 0
M  V30 21380 N 2040.88 4.66393 5.24806 0
M  V30 21381 H 2045.72 2.72311 1.2104 0
M  V30 21382 H 2043.26 1.34893 0.586708 0
M  V30 21383 H 2045.21 2.09299 3.60901 0
M  V30 21384 H 2043.84 1.10849 3.0317 0
M  V30 21385 H 2042.9 3.27001 1.94356 0
M  V30 21386 H 2044.21 4.17156 2.73464 0
M  V30 21387 H 2043.36 3.46331 4.98136 0
M  V30 21388 H 2042.1 2.45932 4.21152 0
M  V30 21389 H 2041.11 4.5056 3.15081 0
M  V30 21390 H 2042.33 5.52206 3.95278 0
M  V30 21391 H 2040.28 3.77699 5.36358 0
M  V30 21392 H 2040.19 5.49919 5.18773 0
M  V30 21393 H 2041.46 4.79484 6.14586 0
M  V30 21394 N 2045.69 -0.62272 1.44776 0
M  V30 21395 C 2046.62 -1.74528 1.5512 0
M  V30 21396 C 2047.6 -1.65241 0.403656 0
M  V30 21397 O 2048.79 -1.83873 0.624863 0
M  V30 21398 C 2045.92 -3.13088 1.5031 0
M  V30 21399 C 2044.87 -3.37172 2.63626 0
M  V30 21400 C 2044.2 -4.75849 2.43868 0
M  V30 21401 C 2045.5 -3.28908 4.0573 0
M  V30 21402 H 2047.19 -1.66128 2.49082 0
M  V30 21403 H 2044.74 -0.797813 1.19879 0
M  V30 21404 H 2046.69 -3.91403 1.56146 0
M  V30 21405 H 2045.41 -3.22293 0.528684 0
M  V30 21406 H 2044.07 -2.61241 2.57194 0
M  V30 21407 H 2043.72 -4.81767 1.446 0
M  V30 21408 H 2043.42 -4.92921 3.19849 0
M  V30 21409 H 2044.94 -5.56383 2.51535 0
M  V30 21410 H 2046.36 -3.97117 4.13487 0
M  V30 21411 H 2044.76 -3.57513 4.8198 0
M  V30 21412 H 2045.83 -2.26581 4.28706 0
M  V30 21413 N 2047.17 -1.31814 -0.863883 0
M  V30 21414 C 2048.12 -1.19916 -1.99306 0
M  V30 21415 C 2049.11 -0.106055 -1.69068 0
M  V30 21416 O 2050.32 -0.26836 -1.77988 0
M  V30 21417 H 2046.69 -0.371464 -0.653849 0
M  V30 21418 H 2048.66 -2.15436 -2.0647 0
M  V30 21419 C 2047.41 -0.929593 -3.35043 0
M  V30 21420 H 2046.73 -1.76288 -3.58835 0
M  V30 21421 H 2048.17 -0.886553 -4.14628 0
M  V30 21422 C 2046.63 0.367677 -3.34888 0
M  V30 21423 O 2047.16 1.38252 -3.77159 0
M  V30 21424 N 2045.37 0.386376 -2.8802 0
M  V30 21425 H 2044.92 -0.439994 -2.53815 0
M  V30 21426 H 2044.87 1.25425 -2.88299 0
M  V30 21427 N 2048.65 1.07897 -1.14873 0
M  V30 21428 C 2049.58 2.1431 -0.784 0
M  V30 21429 C 2050.56 1.60863 0.237031 0
M  V30 21430 O 2051.74 1.88086 0.124878 0
M  V30 21431 C 2048.87 3.38298 -0.164893 0
M  V30 21432 C 2047.91 4.10509 -1.15693 0
M  V30 21433 S 2048.75 4.62654 -2.69651 0
M  V30 21434 C 2049.9 5.89923 -2.09144 0
M  V30 21435 H 2050.14 2.44918 -1.68531 0
M  V30 21436 H 2047.67 1.20086 -0.9705 0
M  V30 21437 H 2049.63 4.10079 0.18588 0
M  V30 21438 H 2048.29 3.05879 0.713926 0
M  V30 21439 H 2047.48 4.99502 -0.671859 0
M  V30 21440 H 2047.08 3.44665 -1.45196 0
M  V30 21441 H 2049.38 6.618 -1.45008 0
M  V30 21442 H 2050.32 6.43135 -2.96282 0
M  V30 21443 H 2050.73 5.43181 -1.5367 0
M  V30 21444 N 2050.12 0.944665 1.2615 0
M  V30 21445 C 2051.09 0.461547 2.24505 0
M  V30 21446 C 2052.09 -0.429277 1.54964 0
M  V30 21447 O 2053.28 -0.227965 1.72702 0
M  V30 21448 C 2050.41 -0.334363 3.39256 0
M  V30 21449 H 2051.6 1.33075 2.68758 0
M  V30 21450 H 2049.16 0.726968 1.38365 0
M  V30 21451 H 2049.89 -1.22167 3.00409 0
M  V30 21452 H 2049.68 0.304588 3.90915 0
M  V30 21453 H 2051.17 -0.662181 4.12317 0
M  V30 21454 N 2051.6 -1.40596 0.712085 0
M  V30 21455 C 2052.54 -2.28199 0.00642592 0
M  V30 21456 C 2053.51 -1.43146 -0.771234 0
M  V30 21457 O 2054.7 -1.72561 -0.758605 0
M  V30 21458 C 2051.82 -3.23654 -0.998287 0
M  V30 21459 C 2050.87 -4.25358 -0.311852 0
M  V30 21460 S 2051.7 -5.26866 0.957734 0
M  V30 21461 C 2052.86 -6.25884 -0.0449648 0
M  V30 21462 H 2053.09 -2.877 0.749396 0
M  V30 21463 H 2050.63 -1.45978 0.502974 0
M  V30 21464 H 2052.58 -3.79176 -1.57275 0
M  V30 21465 H 2051.24 -2.63217 -1.71394 0
M  V30 21466 H 2050.44 -4.92484 -1.07125 0
M  V30 21467 H 2050.04 -3.73517 0.18997 0
M  V30 21468 H 2052.33 -6.7159 -0.892942 0
M  V30 21469 H 2053.27 -7.05614 0.592806 0
M  V30 21470 H 2053.68 -5.6303 -0.407125 0
M  V30 21471 N 2053.08 -0.458013 -1.50798 0
M  V30 21472 C 2054.04 0.331466 -2.26791 0
M  V30 21473 C 2055.04 0.931853 -1.31046 0
M  V30 21474 O 2056.23 0.803071 -1.54585 0
M  V30 21475 C 2053.37 1.4709 -3.07534 0
M  V30 21476 H 2054.56 -0.334805 -2.98025 0
M  V30 21477 H 2052.11 -0.211715 -1.54859 0
M  V30 21478 H 2052.85 2.17261 -2.40765 0
M  V30 21479 H 2052.63 1.04634 -3.77881 0
M  V30 21480 H 2054.12 2.02815 -3.65042 0
M  V30 21481 N 2054.56 1.56449 -0.190119 0
M  V30 21482 C 2055.79 2.01819 0.455699 0
M  V30 21483 C 2056.2 1.07029 1.55532 0
M  V30 21484 O 2055.56 0.0743024 1.82349 0
M  V30 21485 C 2055.61 3.4691 1.01663 0
M  V30 21486 O 2055.33 4.38083 -0.0391156 0
M  V30 21487 C 2056.83 4.07774 1.73882 0
M  V30 21488 H 2054.05 0.661091 0.114891 0
M  V30 21489 H 2056.6 2.02326 -0.297366 0
M  V30 21490 H 2054.75 3.47118 1.7201 0
M  V30 21491 H 2055.17 5.23138 0.377687 0
M  V30 21492 H 2056.64 5.11162 2.08368 0
M  V30 21493 H 2057.12 3.50946 2.64071 0
M  V30 21494 H 2057.72 4.11324 1.08132 0
M  V30 21495 N 2056.04 -0.0835127 1.57379 0
M  V30 21496 C 2056.95 -1.11858 2.06216 0
M  V30 21497 C 2057.96 -1.43137 0.989333 0
M  V30 21498 O 2059.14 -1.53548 1.30327 0
M  V30 21499 C 2056.2 -2.41603 2.48655 0
M  V30 21500 C 2055.27 -2.17401 3.70183 0
M  V30 21501 C 2054.5 -3.40959 4.10588 0
M  V30 21502 O 2054.72 -4.49637 3.50974 0
M  V30 21503 O 2053.66 -3.29863 5.03462 0
M  V30 21504 H 2057.48 -0.733741 2.94703 0
M  V30 21505 H 2055.07 -0.296834 1.46421 0
M  V30 21506 H 2056.95 -3.1798 2.76526 0
M  V30 21507 H 2055.62 -2.7949 1.63301 0
M  V30 21508 H 2054.53 -1.38767 3.47411 0
M  V30 21509 H 2055.86 -1.84401 4.56352 0
M  V30 21510 N 2057.52 -1.53558 -0.354624 0
M  V30 21511 C 2058.45 -1.75568 -1.45778 0
M  V30 21512 C 2059.43 -0.604381 -1.5095 0
M  V30 21513 O 2060.61 -0.838257 -1.68836 0
M  V30 21514 C 2057.74 -1.84435 -2.8408 0
M  V30 21515 C 2056.78 -3.06498 -2.96583 0
M  V30 21516 S 2057.62 -4.65789 -2.64199 0
M  V30 21517 C 2058.77 -4.7752 -4.0463 0
M  V30 21518 H 2059.01 -2.68861 -1.2689 0
M  V30 21519 H 2056.54 -1.44286 -0.549628 0
M  V30 21520 H 2058.5 -1.90229 -3.63762 0
M  V30 21521 H 2057.16 -0.921738 -3.00271 0
M  V30 21522 H 2056.35 -3.09344 -3.97897 0
M  V30 21523 H 2055.95 -2.98873 -2.24836 0
M  V30 21524 H 2058.24 -4.58248 -4.99014 0
M  V30 21525 H 2059.19 -5.79597 -4.06784 0
M  V30 21526 H 2059.6 -4.06062 -3.9214 0
M  V30 21527 N 2058.99 0.615033 -1.45104 0
M  V30 21528 C 2060.23 1.38563 -1.50265 0
M  V30 21529 C 2060.6 1.91504 -0.137917 0
M  V30 21530 O 2061.8 2.68723 -0.0642206 0
M  V30 21531 C 2060.07 2.50819 -2.54607 0
M  V30 21532 S 2061.63 3.38731 -2.78938 0
M  V30 21533 H 2058.45 0.472501 -0.531285 0
M  V30 21534 H 2061.05 0.710424 -1.82135 0
M  V30 21535 H 2059.75 2.10263 -3.52445 0
M  V30 21536 H 2059.28 3.23148 -2.24363 0
M  V30 21537 H 2061.3 4.48749 -2.11752 0
M  V30 21538 N 2060.47 1.3227 0.85688 0
M  V30 21539 C 2061.42 1.2102 1.96527 0
M  V30 21540 C 2062.39 0.0928848 1.6584 0
M  V30 21541 O 2063.57 0.268043 1.88908 0
M  V30 21542 C 2060.71 0.936943 3.32138 0
M  V30 21543 C 2059.83 2.13883 3.75337 0
M  V30 21544 C 2058.96 1.80125 4.99728 0
M  V30 21545 C 2058 2.96647 5.35413 0
M  V30 21546 N 2057.14 2.62997 6.50982 0
M  V30 21547 H 2061.98 2.15827 2.05481 0
M  V30 21548 H 2059.51 1.07346 1.00575 0
M  V30 21549 H 2061.47 0.759018 4.10237 0
M  V30 21550 H 2060.1 0.025663 3.2279 0
M  V30 21551 H 2059.15 2.4271 2.92909 0
M  V30 21552 H 2060.47 3.01052 3.97705 0
M  V30 21553 H 2059.62 1.58871 5.8553 0
M  V30 21554 H 2058.36 0.901662 4.79293 0
M  V30 21555 H 2057.36 3.18535 4.48124 0
M  V30 21556 H 2058.59 3.87335 5.57807 0
M  V30 21557 H 2056.54 1.75576 6.32067 0
M  V30 21558 H 2056.45 3.43696 6.73357 0
M  V30 21559 H 2057.72 2.45168 7.39941 0
M  V30 21560 N 2061.95 -1.07287 1.15444 0
M  V30 21561 C 2062.9 -2.16605 0.847634 0
M  V30 21562 C 2063.89 -1.68449 -0.179217 0
M  V30 21563 O 2065.1 -1.79968 -0.0341862 0
M  V30 21564 H 2061.47 -0.706921 0.25645 0
M  V30 21565 H 2063.44 -2.397 1.77726 0
M  V30 21566 C 2062.19 -3.45893 0.354062 0
M  V30 21567 H 2061.52 -3.83333 1.1356 0
M  V30 21568 H 2062.96 -4.23626 0.178055 0
M  V30 21569 C 2061.41 -3.23966 -0.924544 0
M  V30 21570 O 2061.94 -3.48604 -1.99594 0
M  V30 21571 N 2060.15 -2.77449 -0.864314 0
M  V30 21572 H 2059.7 -2.57599 0.00774481 0
M  V30 21573 H 2059.66 -2.63157 -1.72034 0
M  V30 21574 N 2063.43 -0.951342 -1.25647 0
M  V30 21575 C 2064.67 -0.611972 -1.95024 0
M  V30 21576 C 2065.03 0.835025 -1.72891 0
M  V30 21577 O 2066.23 1.28383 -2.3616 0
M  V30 21578 C 2064.5 -0.956959 -3.4435 0
M  V30 21579 S 2066.06 -0.729667 -4.32691 0
M  V30 21580 H 2062.88 -0.225049 -0.674444 0
M  V30 21581 H 2065.48 -1.22482 -1.52376 0
M  V30 21582 H 2064.19 -2.00729 -3.57961 0
M  V30 21583 H 2063.72 -0.334234 -3.91978 0
M  V30 21584 H 2065.73 0.401172 -4.94576 0
M  V30 21585 N 2064.91 1.40216 -0.719531 0
M  V30 21586 C 2065.86 2.27954 -0.0458686 0
M  V30 21587 C 2066.84 1.43462 0.728523 0
M  V30 21588 O 2068.03 1.66518 0.600075 0
M  V30 21589 C 2065.16 3.32035 0.872205 0
M  V30 21590 C 2064.25 4.23998 0.0927891 0
M  V30 21591 N 2064.64 4.97251 -0.926022 0
M  V30 21592 C 2062.94 4.44816 0.324761 0
M  V30 21593 C 2063.64 5.64733 -1.39469 0
M  V30 21594 N 2062.61 5.38862 -0.716112 0
M  V30 21595 H 2066.41 2.82035 -0.826658 0
M  V30 21596 H 2063.93 1.52714 -0.552469 0
M  V30 21597 H 2065.93 3.93741 1.37017 0
M  V30 21598 H 2064.59 2.79514 1.65233 0
M  V30 21599 H 2065.6 5.01137 -1.30698 0
M  V30 21600 H 2062.27 4.03265 1.0809 0
M  V30 21601 H 2063.66 6.3341 -2.24145 0
M  V30 21602 N 2066.38 0.466004 1.50553 0
M  V30 21603 C 2067.33 -0.349338 2.25308 0
M  V30 21604 C 2068.32 -0.965816 1.28689 0
M  V30 21605 O 2069.51 -0.879208 1.53619 0
M  V30 21606 C 2066.64 -1.43369 3.1193 0
M  V30 21607 C 2065.72 -0.825194 4.15994 0
M  V30 21608 N 2066.12 0.0514669 5.05774 0
M  V30 21609 C 2064.41 -1.08969 4.32483 0
M  V30 21610 C 2065.11 0.39627 5.80349 0
M  V30 21611 N 2064.09 -0.227292 5.43125 0
M  V30 21612 H 2067.89 0.326072 2.92086 0
M  V30 21613 H 2065.41 0.279833 1.59971 0
M  V30 21614 H 2067.4 -2.03093 3.64086 0
M  V30 21615 H 2066.06 -2.11114 2.467 0
M  V30 21616 H 2067.07 0.419946 5.16195 0
M  V30 21617 H 2063.75 -1.76251 3.78473 0
M  V30 21618 H 2065.14 1.1114 6.62644 0
M  V30 21619 N 2067.86 -1.56346 0.198413 0
M  V30 21620 C 2069.27 -1.84047 -0.313597 0
M  V30 21621 C 2069.62 -1.11918 -1.61148 0
M  V30 21622 O 2068.75 -0.381091 -2.13018 0
M  V30 21623 C 2069.34 -3.33872 -0.575755 0
M  V30 21624 C 2067.9 -3.61973 -1.03213 0
M  V30 21625 C 2067.05 -2.77177 -0.0825349 0
M  V30 21626 H 2070 -1.52983 0.422128 0
M  V30 21627 H 2070.02 -3.52823 -1.42466 0
M  V30 21628 H 2069.53 -3.86341 0.369036 0
M  V30 21629 H 2067.63 -3.14939 -1.99108 0
M  V30 21630 H 2067.75 -4.70134 -0.922545 0
M  V30 21631 H 2066.11 -2.4789 -0.585043 0
M  V30 21632 H 2066.89 -3.32437 0.856759 0
M  V30 21633 N 2069.34 0.0751653 -1.57421 0
M  V30 21634 C 2070.3 1.07404 -2.02477 0
M  V30 21635 C 2071.3 1.31792 -0.921282 0
M  V30 21636 O 2072.49 1.27569 -1.18625 0
M  V30 21637 C 2069.63 2.4185 -2.40253 0
M  V30 21638 H 2070.82 0.685783 -2.91954 0
M  V30 21639 H 2068.37 0.320795 -1.52973 0
M  V30 21640 H 2069.11 2.85515 -1.53791 0
M  V30 21641 H 2068.89 2.25492 -3.20774 0
M  V30 21642 H 2070.38 3.13655 -2.75699 0
M  V30 21643 N 2070.82 1.53744 0.346476 0
M  V30 21644 C 2071.77 1.82222 1.44561 0
M  V30 21645 C 2072.76 0.69251 1.54598 0
M  V30 21646 O 2073.97 0.875797 1.57257 0
M  V30 21647 H 2070.34 0.577261 0.481948 0
M  V30 21648 H 2072.31 2.74183 1.17755 0
M  V30 21649 C 2071.06 2.04604 2.81127 0
M  V30 21650 H 2070.38 2.90983 2.74169 0
M  V30 21651 H 2071.82 2.28497 3.57162 0
M  V30 21652 C 2070.28 0.830699 3.26498 0
M  V30 21653 O 2070.81 0.0286844 4.0169 0
M  V30 21654 N 2069.02 0.648746 2.83266 0
M  V30 21655 H 2068.57 1.30257 2.22241 0
M  V30 21656 H 2068.52 -0.162972 3.13977 0
M  V30 21657 N 2072.3 -0.607329 1.45428 0
M  V30 21658 C 2073.54 -1.36633 1.49458 0
M  V30 21659 C 2073.87 -1.94021 0.136421 0
M  V30 21660 O 2073.13 -1.75548 -0.864951 0
M  V30 21661 C 2073.43 -2.53276 2.52163 0
M  V30 21662 C 2073.09 -2.14033 3.96864 0
M  V30 21663 C 2071.75 -2.03044 4.36264 0
M  V30 21664 C 2074.11 -1.8341 4.87863 0
M  V30 21665 C 2071.43 -1.59655 5.64559 0
M  V30 21666 C 2073.79 -1.41507 6.1657 0
M  V30 21667 C 2072.45 -1.29077 6.54901 0
M  V30 21668 H 2071.72 -0.499975 0.546906 0
M  V30 21669 H 2074.37 -0.686418 1.78775 0
M  V30 21670 H 2072.67 -3.26606 2.16416 0
M  V30 21671 H 2074.37 -3.11505 2.52519 0
M  V30 21672 H 2070.96 -2.23512 3.65705 0
M  V30 21673 H 2075.14 -1.90797 4.5816 0
M  V30 21674 H 2070.4 -1.48654 5.93053 0
M  V30 21675 H 2074.57 -1.16857 6.86526 0
M  V30 21676 H 2072.2 -0.952297 7.54212 0
M  V30 21677 N 2073.77 -1.32722 -0.849853 0
M  V30 21678 C 2074.72 -1.2206 -1.95882 0
M  V30 21679 C 2075.69 -0.101678 -1.65788 0
M  V30 21680 O 2076.88 -0.278058 -1.88763 0
M  V30 21681 C 2074.02 -0.954544 -3.31636 0
M  V30 21682 C 2073.13 -2.15871 -3.74198 0
M  V30 21683 C 2072.26 -1.82773 -4.98766 0
M  V30 21684 C 2071.3 -2.99483 -5.33832 0
M  V30 21685 N 2070.44 -2.66445 -6.49578 0
M  V30 21686 H 2075.28 -2.16914 -2.04334 0
M  V30 21687 H 2072.82 -1.07877 -1.00004 0
M  V30 21688 H 2074.78 -0.780763 -4.09829 0
M  V30 21689 H 2073.41 -0.042781 -3.22772 0
M  V30 21690 H 2072.46 -2.4426 -2.91618 0
M  V30 21691 H 2073.77 -3.03157 -3.96102 0
M  V30 21692 H 2072.92 -1.61974 -5.84679 0
M  V30 21693 H 2071.66 -0.927067 -4.78808 0
M  V30 21694 H 2070.67 -3.20907 -4.46429 0
M  V30 21695 H 2071.89 -3.90288 -5.55745 0
M  V30 21696 H 2069.84 -1.78926 -6.31127 0
M  V30 21697 H 2069.76 -3.47262 -6.71524 0
M  V30 21698 H 2071.02 -2.49088 -7.38631 0
M  V30 21699 N 2075.25 1.06673 -1.16011 0
M  V30 21700 C 2076.67 1.31515 -0.90421 0
M  V30 21701 C 2076.87 1.96524 0.445021 0
M  V30 21702 O 2075.92 2.22945 1.18541 0
M  V30 21703 C 2077.24 2.19955 -2.05037 0
M  V30 21704 C 2078.79 2.33384 -2.08569 0
M  V30 21705 C 2079.26 3.25176 -3.22528 0
M  V30 21706 N 2080.75 3.32759 -3.2222 0
M  V30 21707 C 2081.49 4.03866 -4.07038 0
M  V30 21708 N 2080.98 4.77529 -5.01934 0
M  V30 21709 N 2082.78 3.99877 -3.95037 0
M  V30 21710 H 2074.93 0.628672 -2.02883 0
M  V30 21711 H 2077.19 0.339704 -0.885045 0
M  V30 21712 H 2076.9 1.79458 -3.02469 0
M  V30 21713 H 2076.77 3.20521 -1.98862 0
M  V30 21714 H 2079.16 2.7313 -1.11732 0
M  V30 21715 H 2079.24 1.32499 -2.1881 0
M  V30 21716 H 2078.88 2.86147 -4.19622 0
M  V30 21717 H 2078.81 4.26031 -3.09524 0
M  V30 21718 H 2081.3 2.80259 -2.53502 0
M  V30 21719 H 2081.62 5.29302 -5.6308 0
M  V30 21720 H 2079.96 4.76522 -5.05917 0
M  V30 21721 H 2083.15 3.41446 -3.20207 0
M  V30 21722 H 2083.32 4.55027 -4.61361 0
M  V30 21723 N 2076.73 0.957992 1.25141 0
M  V30 21724 C 2077.97 0.622306 1.94696 0
M  V30 21725 C 2078.33 -0.825845 1.73331 0
M  V30 21726 O 2079.54 -1.27128 2.36837 0
M  V30 21727 C 2077.81 0.975207 3.43838 0
M  V30 21728 S 2079.37 0.752603 4.32298 0
M  V30 21729 H 2076.18 0.228622 0.673241 0
M  V30 21730 H 2078.79 1.23288 1.51724 0
M  V30 21731 H 2077.49 2.02624 3.56892 0
M  V30 21732 H 2077.02 0.355017 3.91795 0
M  V30 21733 H 2079.04 -0.374938 4.94781 0
M  V30 21734 N 2078.21 -1.39832 0.726957 0
M  V30 21735 C 2079.45 -2.02529 0.275958 0
M  V30 21736 C 2079.81 -1.56423 -1.11336 0
M  V30 21737 O 2081.01 -2.11261 -1.66199 0
M  V30 21738 C 2079.28 -3.55527 0.365418 0
M  V30 21739 S 2080.84 -4.38799 -0.00692227 0
M  V30 21740 H 2077.66 -0.702648 0.108656 0
M  V30 21741 H 2080.26 -1.70772 0.951694 0
M  V30 21742 H 2078.97 -3.86574 1.378 0
M  V30 21743 H 2078.5 -3.92027 -0.328411 0
M  V30 21744 H 2080.51 -4.80826 -1.22559 0
M  V30 21745 N 2079.69 -0.473982 -1.50304 0
M  V30 21746 C 2081.1 -0.0195635 -1.8669 0
M  V30 21747 C 2081.45 1.38613 -1.38856 0
M  V30 21748 O 2080.57 2.02811 -0.754772 0
M  V30 21749 C 2081.17 -0.0287258 -3.38788 0
M  V30 21750 C 2079.73 0.370234 -3.74575 0
M  V30 21751 C 2078.87 -0.412963 -2.74208 0
M  V30 21752 H 2081.83 -0.688116 -1.43006 0
M  V30 21753 H 2081.85 0.772789 -3.7257 0
M  V30 21754 H 2081.36 -1.05193 -3.73572 0
M  V30 21755 H 2079.46 1.39768 -3.45392 0
M  V30 21756 H 2079.57 0.0695687 -4.79049 0
M  V30 21757 H 2077.94 0.13371 -2.54349 0
M  V30 21758 H 2078.72 -1.43573 -3.11836 0
M  V30 21759 N 2081.16 1.56239 -0.206702 0
M  V30 21760 C 2082.09 2.2262 0.704446 0
M  V30 21761 C 2083.08 1.19305 1.21245 0
M  V30 21762 O 2084.26 1.47846 1.25917 0
M  V30 21763 C 2081.39 2.89459 1.91913 0
M  V30 21764 C 2080.34 3.99119 1.54558 0
M  V30 21765 C 2079.67 4.53179 2.83783 0
M  V30 21766 C 2080.97 5.16934 0.746749 0
M  V30 21767 H 2082.66 2.99019 0.151028 0
M  V30 21768 H 2080.21 1.43824 0.0712004 0
M  V30 21769 H 2082.16 3.34584 2.56186 0
M  V30 21770 H 2080.89 2.10484 2.49728 0
M  V30 21771 H 2079.55 3.54702 0.926381 0
M  V30 21772 H 2079.19 3.70952 3.39711 0
M  V30 21773 H 2078.89 5.2718 2.59528 0
M  V30 21774 H 2080.42 5.01013 3.49024 0
M  V30 21775 H 2081.83 5.58532 1.29284 0
M  V30 21776 H 2080.23 5.97074 0.601876 0
M  V30 21777 H 2081.3 4.84256 -0.249783 0
M  V30 21778 N 2082.64 -0.0668159 1.57458 0
M  V30 21779 C 2083.89 -0.766159 1.87771 0
M  V30 21780 C 2084.22 -1.76973 0.799644 0
M  V30 21781 O 2083.5 -1.93574 -0.189554 0
M  V30 21782 C 2083.78 -1.46969 3.28743 0
M  V30 21783 C 2083.63 -0.482195 4.47208 0
M  V30 21784 C 2084.95 -2.41336 3.68029 0
M  V30 21785 H 2082.07 -0.277066 0.682937 0
M  V30 21786 H 2084.71 -0.0292751 1.89977 0
M  V30 21787 H 2082.86 -2.09781 3.26993 0
M  V30 21788 H 2084.53 0.141096 4.61084 0
M  V30 21789 H 2082.78 0.202041 4.33329 0
M  V30 21790 H 2083.45 -1.01218 5.42641 0
M  V30 21791 H 2085.92 -1.88598 3.70905 0
M  V30 21792 H 2084.8 -2.87562 4.67546 0
M  V30 21793 H 2085.06 -3.26361 2.98229 0
M  V30 21794 N 2084.12 -1.53926 -0.338317 0
M  V30 21795 C 2085.36 -1.73141 -1.08635 0
M  V30 21796 C 2085.73 -0.486994 -1.85721 0
M  V30 21797 O 2086.93 -0.556249 -2.62982 0
M  V30 21798 C 2085.2 -2.9631 -1.99838 0
M  V30 21799 S 2086.76 -3.3636 -2.81793 0
M  V30 21800 H 2083.57 -0.608969 -0.366984 0
M  V30 21801 H 2086.18 -1.92079 -0.364135 0
M  V30 21802 H 2084.88 -3.85045 -1.42017 0
M  V30 21803 H 2084.41 -2.79853 -2.76489 0
M  V30 21804 H 2086.43 -2.90504 -4.02271 0
M  V30 21805 N 2085.6 0.599608 -1.45748 0
M  V30 21806 C 2086.85 1.3557 -1.49884 0
M  V30 21807 C 2087.17 1.94459 -0.145141 0
M  V30 21808 O 2086.44 1.77615 0.82643 0
M  V30 21809 H 2085.02 0.503305 -0.551991 0
M  V30 21810 H 2087.68 0.703509 -1.8176 0
M  V30 21811 H 2086.78 2.17106 -2.24213 0
M  V30 21812 N 2087.08 1.33171 0.842803 0
M  V30 21813 C 2088.02 1.23097 1.95232 0
M  V30 21814 C 2088.99 0.110469 1.65732 0
M  V30 21815 O 2090.18 0.288065 1.88613 0
M  V30 21816 C 2087.32 0.972118 3.31125 0
M  V30 21817 C 2086.43 2.17852 3.73047 0
M  V30 21818 C 2085.57 1.85415 4.9779 0
M  V30 21819 C 2084.61 3.0231 5.32236 0
M  V30 21820 N 2083.74 2.69887 6.48156 0
M  V30 21821 H 2088.58 2.17995 2.03181 0
M  V30 21822 H 2086.12 1.08406 0.994308 0
M  V30 21823 H 2088.08 0.802486 4.09409 0
M  V30 21824 H 2086.71 0.0598977 3.22744 0
M  V30 21825 H 2085.76 2.45803 2.90318 0
M  V30 21826 H 2087.07 3.05254 3.94489 0
M  V30 21827 H 2086.23 1.65073 5.83812 0
M  V30 21828 H 2084.97 0.952447 4.78309 0
M  V30 21829 H 2083.97 3.2327 4.44721 0
M  V30 21830 H 2085.2 3.93229 5.53667 0
M  V30 21831 H 2083.14 1.82271 6.30169 0
M  V30 21832 H 2083.06 3.50818 6.69673 0
M  V30 21833 H 2084.33 2.53002 7.37299 0
M  V30 21834 N 2088.56 -1.06056 1.16576 0
M  V30 21835 C 2089.52 -2.11761 0.876928 0
M  V30 21836 C 2090.52 -1.60281 -0.129123 0
M  V30 21837 O 2091.71 -1.73901 0.102046 0
M  V30 21838 C 2088.84 -3.3947 0.311872 0
M  V30 21839 H 2090.03 -2.38816 1.81403 0
M  V30 21840 H 2087.59 -1.2216 0.975021 0
M  V30 21841 H 2088.32 -3.18066 -0.632797 0
M  V30 21842 H 2088.11 -3.78143 1.03683 0
M  V30 21843 H 2089.6 -4.17404 0.12782 0
M  V30 21844 N 2090.03 -0.964615 -1.24631 0
M  V30 21845 C 2091.28 -0.620429 -1.91921 0
M  V30 21846 C 2091.6 0.847851 -1.76269 0
M  V30 21847 O 2092.8 1.30243 -2.38221 0
M  V30 21848 C 2091.26 -1.059 -3.43967 0
M  V30 21849 C 2090.87 -2.55052 -3.6831 0
M  V30 21850 C 2092.61 -0.787818 -4.17126 0
M  V30 21851 C 2090.52 -2.92658 -5.13912 0
M  V30 21852 H 2089.45 -0.22834 -0.718594 0
M  V30 21853 H 2092.1 -1.17041 -1.41328 0
M  V30 21854 H 2090.48 -0.437357 -3.93577 0
M  V30 21855 H 2091.65 -3.2232 -3.29312 0
M  V30 21856 H 2089.97 -2.79748 -3.08432 0
M  V30 21857 H 2092.57 -1.04483 -5.24392 0
M  V30 21858 H 2092.91 0.275932 -4.15385 0
M  V30 21859 H 2093.44 -1.37028 -3.73454 0
M  V30 21860 H 2090.18 -3.98091 -5.20772 0
M  V30 21861 H 2089.7 -2.30071 -5.5392 0
M  V30 21862 H 2091.38 -2.82395 -5.82119 0
M  V30 21863 N 2091.51 1.39445 -0.734362 0
M  V30 21864 C 2092.44 2.29135 -0.0543743 0
M  V30 21865 C 2093.46 1.46785 0.704126 0
M  V30 21866 O 2094.65 1.69867 0.548394 0
M  V30 21867 C 2091.75 3.25393 0.947229 0
M  V30 21868 C 2090.92 4.36683 0.250381 0
M  V30 21869 C 2089.98 5.13255 1.16 0
M  V30 21870 O 2089 5.65616 0.637723 0
M  V30 21871 N 2090.21 5.24396 2.48976 0
M  V30 21872 H 2092.97 2.88134 -0.824567 0
M  V30 21873 H 2090.53 1.51018 -0.583531 0
M  V30 21874 H 2092.52 3.73494 1.55834 0
M  V30 21875 H 2091.09 2.6743 1.61863 0
M  V30 21876 H 2090.31 3.90467 -0.5412 0
M  V30 21877 H 2091.6 5.08268 -0.232571 0
M  V30 21878 H 2091 4.83371 2.93885 0
M  V30 21879 H 2089.56 5.75939 3.05185 0
M  V30 21880 N 2092.99 0.481946 1.5005 0
M  V30 21881 C 2093.92 -0.296253 2.31613 0
M  V30 21882 C 2094.9 -0.98032 1.3901 0
M  V30 21883 O 2096.09 -0.975402 1.67927 0
M  V30 21884 C 2093.22 -1.37231 3.19037 0
M  V30 21885 C 2092.17 -0.809232 4.2028 0
M  V30 21886 C 2091.5 -1.98439 4.96514 0
M  V30 21887 C 2092.8 0.18685 5.21966 0
M  V30 21888 H 2094.49 0.384509 2.96921 0
M  V30 21889 H 2092.04 0.186362 1.42789 0
M  V30 21890 H 2093.99 -1.92429 3.74899 0
M  V30 21891 H 2092.71 -2.082 2.51636 0
M  V30 21892 H 2091.37 -0.279145 3.65536 0
M  V30 21893 H 2091.02 -2.68131 4.25576 0
M  V30 21894 H 2090.72 -1.6138 5.65005 0
M  V30 21895 H 2092.24 -2.54107 5.55213 0
M  V30 21896 H 2093.66 -0.276326 5.72634 0
M  V30 21897 H 2092.05 0.472282 5.98239 0
M  V30 21898 H 2093.12 1.10915 4.72044 0
M  V30 21899 N 2094.47 -1.56127 0.214985 0
M  V30 21900 C 2095.4 -2.15949 -0.737656 0
M  V30 21901 C 2096.38 -1.10195 -1.19566 0
M  V30 21902 O 2097.56 -1.38416 -1.27959 0
M  V30 21903 C 2094.69 -2.73447 -1.99861 0
M  V30 21904 C 2093.74 -3.9197 -1.68112 0
M  V30 21905 S 2094.57 -5.29313 -0.811685 0
M  V30 21906 C 2095.72 -5.90245 -2.08235 0
M  V30 21907 H 2095.96 -2.96415 -0.229174 0
M  V30 21908 H 2093.49 -1.544 -0.000249549 0
M  V30 21909 H 2095.45 -3.07215 -2.72267 0
M  V30 21910 H 2094.11 -1.92985 -2.47821 0
M  V30 21911 H 2093.3 -4.3068 -2.61783 0
M  V30 21912 H 2092.9 -3.59314 -1.03774 0
M  V30 21913 H 2095.2 -6.05819 -3.03299 0
M  V30 21914 H 2096.14 -6.86408 -1.73925 0
M  V30 21915 H 2096.55 -5.1902 -2.21989 0
M  V30 21916 N 2095.95 0.0584645 -1.57492 0
M  V30 21917 C 2097.22 0.788828 -1.78988 0
M  V30 21918 C 2097.6 1.95112 -0.805878 0
M  V30 21919 O 2096.95 2.27951 0.158244 0
M  V30 21920 C 2097.16 1.24936 -3.25871 0
M  V30 21921 C 2098.51 1.67732 -3.90066 0
M  V30 21922 O 2099.53 1.34469 -3.29843 0
M  V30 21923 O 2098.39 2.29361 -4.9604 0
M  V30 21924 H 2095.49 0.379032 -0.735027 0
M  V30 21925 H 2098.03 0.0375096 -1.69659 0
M  V30 21926 H 2096.8 0.418302 -3.89058 0
M  V30 21927 H 2096.43 2.06159 -3.39977 0
M  V30 21928 N 2097.42 1.54103 0.330149 0
M  V30 21929 C 2098.37 1.83029 1.40603 0
M  V30 21930 C 2099.34 0.676907 1.51681 0
M  V30 21931 O 2100.53 0.922683 1.67007 0
M  V30 21932 C 2097.67 2.05745 2.77061 0
M  V30 21933 C 2096.78 3.3344 2.74667 0
M  V30 21934 C 2095.91 3.46152 4.02929 0
M  V30 21935 C 2094.95 4.67746 3.94817 0
M  V30 21936 N 2094.09 4.7742 5.14796 0
M  V30 21937 H 2098.93 2.74817 1.15236 0
M  V30 21938 H 2096.47 1.36107 0.557963 0
M  V30 21939 H 2098.42 2.16907 3.56381 0
M  V30 21940 H 2097.05 1.17255 3.00751 0
M  V30 21941 H 2096.11 3.3105 1.87376 0
M  V30 21942 H 2097.42 4.22863 2.64554 0
M  V30 21943 H 2096.57 3.5682 4.90678 0
M  V30 21944 H 2095.31 2.5481 4.15841 0
M  V30 21945 H 2094.32 4.57142 3.05453 0
M  V30 21946 H 2095.54 5.60467 3.83476 0
M  V30 21947 H 2093.49 3.88991 5.28225 0
M  V30 21948 H 2093.4 5.60799 5.06991 0
M  V30 21949 H 2094.67 4.92412 6.04277 0
M  V30 21950 N 2098.9 -0.59187 1.46064 0
M  V30 21951 C 2100.13 -1.38153 1.54688 0
M  V30 21952 C 2100.55 -1.87183 0.185547 0
M  V30 21953 O 2099.91 -1.61046 -0.832694 0
M  V30 21954 C 2099.96 -2.55134 2.54831 0
M  V30 21955 O 2099.06 -3.56279 2.077 0
M  V30 21956 H 2098.4 -0.41181 0.520873 0
M  V30 21957 H 2100.93 -0.718824 1.91557 0
M  V30 21958 H 2100.94 -3.02173 2.74145 0
M  V30 21959 H 2099.62 -2.188 3.53694 0
M  V30 21960 H 2098.2 -3.15782 1.98333 0
M  V30 21961 N 2100.38 -1.33616 -0.835729 0
M  V30 21962 C 2101.61 -1.28444 -1.6284 0
M  V30 21963 C 2102.03 0.141205 -1.87569 0
M  V30 21964 O 2101.39 1.09885 -1.44205 0
M  V30 21965 C 2101.44 -2.0683 -2.95387 0
M  V30 21966 O 2100.54 -1.42905 -3.86849 0
M  V30 21967 H 2099.88 -0.441742 -0.495742 0
M  V30 21968 H 2102.41 -1.76226 -1.0395 0
M  V30 21969 H 2102.42 -2.17712 -3.45059 0
M  V30 21970 H 2101.1 -3.1049 -2.76711 0
M  V30 21971 H 2099.67 -1.40689 -3.45342 0
M  V30 21972 N 2101.86 1.05436 -1.17136 0
M  V30 21973 C 2103.27 1.30549 -0.918108 0
M  V30 21974 C 2103.47 1.96985 0.424152 0
M  V30 21975 O 2102.53 2.24189 1.1617 0
M  V30 21976 C 2103.84 2.17768 -2.07358 0
M  V30 21977 C 2105.39 2.31158 -2.11033 0
M  V30 21978 C 2105.87 3.21737 -3.25959 0
M  V30 21979 N 2107.36 3.29322 -3.25731 0
M  V30 21980 C 2108.09 3.99526 -4.11299 0
M  V30 21981 N 2107.59 4.72178 -5.06971 0
M  V30 21982 N 2109.38 3.95665 -3.99256 0
M  V30 21983 H 2101.53 0.607118 -2.03538 0
M  V30 21984 H 2103.8 0.330298 -0.888599 0
M  V30 21985 H 2103.5 1.7624 -3.04356 0
M  V30 21986 H 2103.38 3.18394 -2.02251 0
M  V30 21987 H 2105.76 2.71929 -1.14623 0
M  V30 21988 H 2105.84 1.30171 -2.20203 0
M  V30 21989 H 2105.49 2.8168 -4.22633 0
M  V30 21990 H 2105.42 4.22724 -3.14025 0
M  V30 21991 H 2107.91 2.77555 -2.5646 0
M  V30 21992 H 2108.22 5.233 -5.68662 0
M  V30 21993 H 2106.57 4.71129 -5.10943 0
M  V30 21994 H 2109.76 3.3803 -3.2381 0
M  V30 21995 H 2109.93 4.50108 -4.66161 0
M  V30 21996 N 2103.34 0.971211 1.24118 0
M  V30 21997 C 2104.58 0.635963 1.9257 0
M  V30 21998 C 2104.92 -0.827222 1.75701 0
M  V30 21999 O 2104.19 -1.59559 1.11226 0
M  V30 22000 C 2104.47 1.01581 3.45476 0
M  V30 22001 C 2104.33 2.53595 3.71497 0
M  V30 22002 C 2105.65 0.552941 4.36613 0
M  V30 22003 H 2102.76 0.232516 0.699361 0
M  V30 22004 H 2105.41 1.21085 1.46419 0
M  V30 22005 H 2103.56 0.526628 3.84914 0
M  V30 22006 H 2105.23 3.10016 3.41596 0
M  V30 22007 H 2103.47 2.96637 3.16526 0
M  V30 22008 H 2104.14 2.75222 4.78494 0
M  V30 22009 H 2106.62 0.972795 4.04569 0
M  V30 22010 H 2105.49 0.847244 5.42322 0
M  V30 22011 H 2105.76 -0.54692 4.38704 0
M  V30 22012 N 2104.81 -1.39054 0.741747 0
M  V30 22013 C 2106.23 -1.54028 0.418052 0
M  V30 22014 C 2106.43 -1.70725 -1.07029 0
M  V30 22015 O 2105.49 -1.71155 -1.8564 0
M  V30 22016 C 2106.8 -2.75414 1.20697 0
M  V30 22017 C 2108.35 -2.89254 1.19586 0
M  V30 22018 C 2108.82 -4.13587 1.96748 0
M  V30 22019 N 2110.31 -4.2064 1.93948 0
M  V30 22020 C 2111.05 -5.15809 2.50456 0
M  V30 22021 N 2110.54 -6.16725 3.15629 0
M  V30 22022 N 2112.34 -5.08074 2.40452 0
M  V30 22023 H 2104.49 -1.26464 1.70648 0
M  V30 22024 H 2106.75 -0.613446 0.722764 0
M  V30 22025 H 2106.46 -2.69441 2.26041 0
M  V30 22026 H 2106.33 -3.6827 0.815905 0
M  V30 22027 H 2108.72 -2.94716 0.150521 0
M  V30 22028 H 2108.8 -1.97443 1.62635 0
M  V30 22029 H 2108.44 -4.08887 3.01287 0
M  V30 22030 H 2108.37 -5.04456 1.51102 0
M  V30 22031 H 2110.86 -3.48358 1.46475 0
M  V30 22032 H 2111.18 -6.85816 3.56197 0
M  V30 22033 H 2109.52 -6.17093 3.19721 0
M  V30 22034 H 2112.71 -4.28172 1.89174 0
M  V30 22035 H 2112.89 -5.82065 2.84788 0
M  V30 22036 N 2106.29 -0.489897 -1.49792 0
M  V30 22037 C 2107.52 0.055599 -2.06525 0
M  V30 22038 C 2107.93 1.32375 -1.3518 0
M  V30 22039 O 2107.27 1.78826 -0.420371 0
M  V30 22040 C 2107.34 0.390775 -3.5737 0
M  V30 22041 C 2107 -0.778051 -4.50328 0
M  V30 22042 C 2108 -1.66543 -4.92503 0
M  V30 22043 C 2105.68 -0.97371 -4.92772 0
M  V30 22044 C 2107.68 -2.73272 -5.75848 0
M  V30 22045 C 2105.36 -2.04419 -5.75896 0
M  V30 22046 C 2106.36 -2.92205 -6.17337 0
M  V30 22047 O 2106.05 -3.97407 -6.98801 0
M  V30 22048 H 2105.78 -0.012225 -0.675889 0
M  V30 22049 H 2108.33 -0.683211 -1.93704 0
M  V30 22050 H 2106.56 1.18303 -3.68159 0
M  V30 22051 H 2108.25 0.873568 -3.96388 0
M  V30 22052 H 2109.02 -1.52604 -4.60366 0
M  V30 22053 H 2104.9 -0.299832 -4.60024 0
M  V30 22054 H 2108.44 -3.41821 -6.08115 0
M  V30 22055 H 2104.34 -2.18358 -6.07446 0
M  V30 22056 H 2105.11 -3.94624 -7.17087 0
M  V30 22057 N 2107.77 1.56011 -0.223262 0
M  V30 22058 C 2109 2.03189 0.415817 0
M  V30 22059 C 2109.42 1.102 1.52439 0
M  V30 22060 O 2108.78 0.0904999 1.81074 0
M  V30 22061 C 2108.83 3.48586 0.923053 0
M  V30 22062 O 2107.93 3.58734 2.03429 0
M  V30 22063 H 2107.27 0.65733 0.0938783 0
M  V30 22064 H 2109.8 2.01715 -0.342399 0
M  V30 22065 H 2109.81 3.88941 1.23243 0
M  V30 22066 H 2108.49 4.1575 0.11169 0
M  V30 22067 H 2107.06 3.30267 1.73142 0
M  V30 22068 N 2109.25 -0.0501116 1.5752 0
M  V30 22069 C 2110.5 -0.744028 1.87476 0
M  V30 22070 C 2110.81 -1.77631 0.818943 0
M  V30 22071 O 2112.02 -2.52133 1.00703 0
M  V30 22072 C 2110.47 -1.37429 3.32628 0
M  V30 22073 C 2110.08 -0.379458 4.4639 0
M  V30 22074 C 2111.82 -2.04931 3.71757 0
M  V30 22075 C 2109.73 -1.01687 5.82592 0
M  V30 22076 H 2108.66 -0.281635 0.699427 0
M  V30 22077 H 2111.31 0.00219827 1.835 0
M  V30 22078 H 2109.69 -2.16952 3.31282 0
M  V30 22079 H 2110.87 0.387526 4.59168 0
M  V30 22080 H 2109.18 0.1923 4.15956 0
M  V30 22081 H 2111.78 -2.53436 4.70823 0
M  V30 22082 H 2112.12 -2.85832 3.02665 0
M  V30 22083 H 2112.66 -1.32212 3.75186 0
M  V30 22084 H 2109.4 -0.247733 6.55032 0
M  V30 22085 H 2108.92 -1.7542 5.73575 0
M  V30 22086 H 2110.59 -1.53041 6.28639 0
M  V30 22087 N 2110.73 -1.54276 -0.321972 0
M  V30 22088 C 2112 -1.63209 -1.07806 0
M  V30 22089 C 2112.38 -0.466965 -2.0587 0
M  V30 22090 O 2111.73 0.538598 -2.22062 0
M  V30 22091 C 2111.94 -3.00279 -1.77858 0
M  V30 22092 C 2113.29 -3.5638 -2.30822 0
M  V30 22093 O 2114.31 -3.02594 -1.87923 0
M  V30 22094 O 2113.17 -4.50507 -3.09364 0
M  V30 22095 H 2110.27 -0.660982 -0.497023 0
M  V30 22096 H 2112.81 -1.66622 -0.321736 0
M  V30 22097 H 2111.58 -3.76518 -1.06537 0
M  V30 22098 H 2111.21 -3.00552 -2.60297 0
M  V30 22099 N 2112.2 0.584116 -1.46376 0
M  V30 22100 C 2113.14 1.70778 -1.52865 0
M  V30 22101 C 2114.15 1.57366 -0.417122 0
M  V30 22102 O 2115.34 1.64816 -0.685411 0
M  V30 22103 C 2112.44 3.09015 -1.39151 0
M  V30 22104 C 2111.61 3.48443 -2.64397 0
M  V30 22105 C 2110.67 4.65735 -2.44903 0
M  V30 22106 O 2109.7 4.71667 -3.1862 0
M  V30 22107 N 2110.9 5.60523 -1.50978 0
M  V30 22108 H 2113.66 1.65666 -2.49749 0
M  V30 22109 H 2111.22 0.770058 -1.42414 0
M  V30 22110 H 2113.22 3.85272 -1.23884 0
M  V30 22111 H 2111.79 3.08502 -0.50453 0
M  V30 22112 H 2111.01 2.61906 -2.94616 0
M  V30 22113 H 2112.29 3.71552 -3.47601 0
M  V30 22114 H 2111.69 5.58465 -0.90186 0
M  V30 22115 H 2110.25 6.36217 -1.41674 0
M  V30 22116 N 2113.68 1.34058 0.828631 0
M  V30 22117 C 2114.93 1.25437 1.57951 0
M  V30 22118 C 2115.25 -0.175484 1.94811 0
M  V30 22119 O 2116.45 -0.383797 2.68774 0
M  V30 22120 C 2114.91 2.19853 2.84943 0
M  V30 22121 C 2114.52 3.68064 2.55407 0
M  V30 22122 C 2116.26 2.20128 3.62966 0
M  V30 22123 C 2114.17 4.54366 3.78557 0
M  V30 22124 H 2113.1 0.465952 0.592794 0
M  V30 22125 H 2115.75 1.59187 0.912783 0
M  V30 22126 H 2114.13 1.79047 3.53211 0
M  V30 22127 H 2115.3 4.17373 1.95286 0
M  V30 22128 H 2113.62 3.70181 1.9067 0
M  V30 22129 H 2116.22 2.81831 4.54396 0
M  V30 22130 H 2116.56 1.19905 3.98658 0
M  V30 22131 H 2117.09 2.59349 3.01634 0
M  V30 22132 H 2113.83 5.55503 3.47989 0
M  V30 22133 H 2113.35 4.09795 4.37982 0
M  V30 22134 H 2115.03 4.68687 4.46029 0
M  V30 22135 N 2115.16 -1.04814 1.17694 0
M  V30 22136 C 2116.39 -1.8155 0.99233 0
M  V30 22137 C 2116.8 -1.83126 -0.459376 0
M  V30 22138 O 2116.16 -1.26127 -1.31903 0
M  V30 22139 C 2116.21 -3.27495 1.53067 0
M  V30 22140 O 2115.93 -3.26104 2.92554 0
M  V30 22141 C 2117.43 -4.20905 1.39119 0
M  V30 22142 H 2114.65 -0.571967 0.350849 0
M  V30 22143 H 2117.2 -1.32145 1.5607 0
M  V30 22144 H 2115.35 -3.74157 1.00424 0
M  V30 22145 H 2115.77 -4.17476 3.17512 0
M  V30 22146 H 2117.24 -5.21275 1.81595 0
M  V30 22147 H 2117.72 -4.37891 0.338812 0
M  V30 22148 H 2118.32 -3.801 1.90798 0
M  V30 22149 N 2116.64 -0.977779 -1.23601 0
M  V30 22150 C 2117.87 -0.663151 -1.95984 0
M  V30 22151 C 2118.28 0.769376 -1.72412 0
M  V30 22152 O 2117.64 1.51741 -1.01395 0
M  V30 22153 C 2117.69 -0.940786 -3.49044 0
M  V30 22154 O 2117.41 -2.31701 -3.71815 0
M  V30 22155 C 2118.91 -0.641745 -4.3863 0
M  V30 22156 H 2116.13 -0.246565 -0.624057 0
M  V30 22157 H 2118.68 -1.30845 -1.57162 0
M  V30 22158 H 2116.83 -0.341537 -3.85892 0
M  V30 22159 H 2117.25 -2.40469 -4.66128 0
M  V30 22160 H 2118.72 -0.886389 -5.44837 0
M  V30 22161 H 2119.2 0.42415 -4.37147 0
M  V30 22162 H 2119.8 -1.22135 -4.07386 0
M  V30 22163 N 2118.12 1.38658 -0.749111 0
M  V30 22164 C 2119.05 2.28102 -0.0669266 0
M  V30 22165 C 2120.03 1.4514 0.73301 0
M  V30 22166 O 2121.21 1.74512 0.712587 0
M  V30 22167 C 2118.34 3.26187 0.912124 0
M  V30 22168 C 2117.39 4.26036 0.198966 0
M  V30 22169 S 2118.22 5.24141 -1.09709 0
M  V30 22170 C 2119.37 6.25783 -0.120993 0
M  V30 22171 H 2119.61 2.85612 -0.825411 0
M  V30 22172 H 2117.14 1.44593 -0.541501 0
M  V30 22173 H 2119.1 3.83213 1.47167 0
M  V30 22174 H 2117.76 2.67668 1.64355 0
M  V30 22175 H 2116.95 4.95151 0.940303 0
M  V30 22176 H 2116.55 3.72882 -0.288934 0
M  V30 22177 H 2118.85 6.73721 0.714567 0
M  V30 22178 H 2119.79 7.03794 -0.779679 0
M  V30 22179 H 2120.2 5.63911 0.257705 0
M  V30 22180 N 2119.6 0.497834 1.49531 0
M  V30 22181 C 2120.84 -0.0496362 2.01639 0
M  V30 22182 C 2121.16 -1.3834 1.38281 0
M  V30 22183 O 2122.36 -2.01737 1.81699 0
M  V30 22184 C 2120.82 -0.138928 3.59632 0
M  V30 22185 C 2120.43 1.188 4.31961 0
M  V30 22186 C 2122.17 -0.636931 4.19694 0
M  V30 22187 C 2120.08 1.06104 5.81804 0
M  V30 22188 H 2119.01 -0.0223237 0.753669 0
M  V30 22189 H 2121.66 0.636776 1.72097 0
M  V30 22190 H 2120.04 -0.88972 3.85876 0
M  V30 22191 H 2121.22 1.95184 4.17421 0
M  V30 22192 H 2119.53 1.61919 3.83629 0
M  V30 22193 H 2122.13 -0.749374 5.29423 0
M  V30 22194 H 2122.47 -1.63499 3.8285 0
M  V30 22195 H 2123 0.0572358 3.97759 0
M  V30 22196 H 2119.74 2.03327 6.23168 0
M  V30 22197 H 2119.26 0.33804 5.98847 0
M  V30 22198 H 2120.94 0.738481 6.42772 0
M  V30 22199 N 2121.07 -1.5589 0.231532 0
M  V30 22200 C 2122.32 -1.97737 -0.397859 0
M  V30 22201 C 2122.64 -1.12252 -1.60184 0
M  V30 22202 O 2123.84 -1.44042 -2.30139 0
M  V30 22203 C 2122.3 -3.518 -0.759238 0
M  V30 22204 C 2121.91 -4.46003 0.422484 0
M  V30 22205 C 2123.65 -4.02338 -1.35368 0
M  V30 22206 C 2121.56 -5.91388 0.0381149 0
M  V30 22207 H 2120.49 -0.738433 -0.152423 0
M  V30 22208 H 2123.14 -1.80521 0.329322 0
M  V30 22209 H 2121.52 -3.64654 -1.54412 0
M  V30 22210 H 2122.69 -4.44902 1.19996 0
M  V30 22211 H 2121.01 -4.05863 0.930821 0
M  V30 22212 H 2123.61 -5.08464 -1.65433 0
M  V30 22213 H 2123.95 -3.48776 -2.2729 0
M  V30 22214 H 2124.48 -3.92747 -0.632021 0
M  V30 22215 H 2121.22 -6.48954 0.924083 0
M  V30 22216 H 2120.74 -5.9566 -0.703473 0
M  V30 22217 H 2122.42 -6.45853 -0.385094 0
M  V30 22218 N 2122.55 0.0417572 -1.57545 0
M  V30 22219 C 2123.5 1.0648 -2.06796 0
M  V30 22220 C 2124.49 1.38234 -0.979162 0
M  V30 22221 O 2125.7 1.37288 -1.16413 0
M  V30 22222 H 2122.07 0.360857 -0.659762 0
M  V30 22223 H 2124.05 0.6235 -2.91813 0
M  V30 22224 C 2122.79 2.36114 -2.55236 0
M  V30 22225 H 2122.12 2.12537 -3.38627 0
M  V30 22226 H 2123.56 3.06072 -2.93421 0
M  V30 22227 C 2122.02 3.04191 -1.44808 0
M  V30 22228 O 2122.55 3.93508 -0.807098 0
M  V30 22229 N 2120.75 2.65308 -1.18574 0
M  V30 22230 H 2120.3 1.92763 -1.70881 0
M  V30 22231 H 2120.26 3.11178 -0.448987 0
M  V30 22232 N 2124.03 1.54445 0.313786 0
M  V30 22233 C 2124.94 1.87547 1.40937 0
M  V30 22234 C 2125.96 0.768341 1.56117 0
M  V30 22235 O 2127.13 1.06358 1.71026 0
M  V30 22236 C 2124.2 2.10467 2.75508 0
M  V30 22237 C 2123.26 3.34232 2.69421 0
M  V30 22238 C 2122.49 3.56049 3.97574 0
M  V30 22239 O 2122.71 2.81118 4.96316 0
M  V30 22240 O 2121.65 4.49546 4.0024 0
M  V30 22241 H 2125.47 2.80728 1.15868 0
M  V30 22242 H 2123.06 1.40473 0.508698 0
M  V30 22243 H 2124.94 2.26817 3.55151 0
M  V30 22244 H 2123.62 1.20474 3.00446 0
M  V30 22245 H 2122.52 3.23259 1.88294 0
M  V30 22246 H 2123.86 4.24314 2.49436 0
M  V30 22247 N 2125.51 -0.576345 1.46683 0
M  V30 22248 C 2126.92 -0.900361 1.31779 0
M  V30 22249 C 2127.12 -1.99344 0.293964 0
M  V30 22250 O 2126.18 -2.50697 -0.301245 0
M  V30 22251 C 2127.49 -1.31169 2.70583 0
M  V30 22252 C 2129.04 -1.42419 2.78722 0
M  V30 22253 C 2129.52 -1.86916 4.18123 0
M  V30 22254 N 2131.01 -1.94099 4.20571 0
M  V30 22255 C 2131.74 -2.29817 5.2533 0
M  V30 22256 N 2131.24 -2.64282 6.40411 0
M  V30 22257 N 2133.03 -2.30426 5.12699 0
M  V30 22258 H 2125.18 0.145622 2.119 0
M  V30 22259 H 2127.44 0.00247797 0.947997 0
M  V30 22260 H 2127.15 -0.582484 3.46843 0
M  V30 22261 H 2127.02 -2.2719 3.01106 0
M  V30 22262 H 2129.41 -2.14425 2.02746 0
M  V30 22263 H 2129.49 -0.446341 2.51876 0
M  V30 22264 H 2129.14 -1.15486 4.94596 0
M  V30 22265 H 2129.07 -2.8567 4.4238 0
M  V30 22266 H 2131.56 -1.69927 3.3754 0
M  V30 22267 H 2131.87 -2.90509 7.16118 0
M  V30 22268 H 2130.22 -2.61906 6.43762 0
M  V30 22269 H 2133.41 -2.02927 4.21827 0
M  V30 22270 H 2133.58 -2.57934 5.94453 0
M  V30 22271 N 2126.99 -1.34495 -0.82151 0
M  V30 22272 C 2127.93 -1.26196 -1.9539 0
M  V30 22273 C 2128.93 -0.159788 -1.68645 0
M  V30 22274 O 2130.13 -0.32485 -1.77044 0
M  V30 22275 H 2126.51 -0.392077 -0.6417 0
M  V30 22276 H 2128.48 -2.21896 -1.99511 0
M  V30 22277 C 2127.23 -1.03571 -3.31916 0
M  V30 22278 H 2126.55 -1.87615 -3.53045 0
M  V30 22279 H 2127.99 -1.01801 -4.11597 0
M  V30 22280 C 2126.45 0.260949 -3.35888 0
M  V30 22281 O 2126.98 1.26183 -3.81367 0
M  V30 22282 N 2125.19 0.29455 -2.89103 0
M  V30 22283 H 2124.73 -0.520521 -2.52286 0
M  V30 22284 H 2124.69 1.16189 -2.92143 0
M  V30 22285 N 2128.46 1.04188 -1.18248 0
M  V30 22286 C 2129.88 1.29568 -0.931902 0
M  V30 22287 C 2130.08 1.97424 0.403235 0
M  V30 22288 O 2129.14 2.25409 1.13785 0
M  V30 22289 C 2130.45 2.15557 -2.09656 0
M  V30 22290 C 2132 2.28907 -2.13473 0
M  V30 22291 C 2132.47 3.18262 -3.29353 0
M  V30 22292 N 2133.96 3.25849 -3.29206 0
M  V30 22293 C 2134.7 3.95141 -4.15513 0
M  V30 22294 N 2134.19 4.66775 -5.1195 0
M  V30 22295 N 2135.99 3.91408 -4.03431 0
M  V30 22296 H 2128.14 0.585496 -2.04171 0
M  V30 22297 H 2130.4 0.320854 -0.892052 0
M  V30 22298 H 2130.11 1.73002 -3.06208 0
M  V30 22299 H 2129.98 3.16231 -2.05616 0
M  V30 22300 H 2132.37 2.70698 -1.175 0
M  V30 22301 H 2132.45 1.27828 -2.21571 0
M  V30 22302 H 2132.09 2.77182 -4.25597 0
M  V30 22303 H 2132.02 4.1937 -3.18491 0
M  V30 22304 H 2134.51 2.74819 -2.59389 0
M  V30 22305 H 2134.83 5.17239 -5.74181 0
M  V30 22306 H 2133.17 4.65683 -5.15911 0
M  V30 22307 H 2136.36 3.34577 -3.27377 0
M  V30 22308 H 2136.54 4.45139 -4.70909 0
M  V30 22309 N 2129.94 0.98432 1.23081 0
M  V30 22310 C 2131.36 0.6936 1.43741 0
M  V30 22311 C 2131.56 -0.738828 1.87466 0
M  V30 22312 O 2130.61 -1.51079 2.02315 0
M  V30 22313 C 2131.93 1.69187 2.48589 0
M  V30 22314 C 2133.48 1.70635 2.62398 0
M  V30 22315 C 2133.95 2.69302 3.7046 0
M  V30 22316 N 2135.44 2.67844 3.77907 0
M  V30 22317 C 2136.18 3.40857 4.6109 0
M  V30 22318 N 2135.67 4.23441 5.48333 0
M  V30 22319 N 2137.47 3.29603 4.55322 0
M  V30 22320 H 2129.62 1.90957 0.930015 0
M  V30 22321 H 2131.88 0.823061 0.470398 0
M  V30 22322 H 2131.59 2.71646 2.23386 0
M  V30 22323 H 2131.46 1.47784 3.47044 0
M  V30 22324 H 2133.85 0.688782 2.86949 0
M  V30 22325 H 2133.93 1.96104 1.64246 0
M  V30 22326 H 2133.57 3.71203 3.46656 0
M  V30 22327 H 2133.5 2.41106 4.68162 0
M  V30 22328 H 2135.99 2.07913 3.15564 0
M  V30 22329 H 2136.31 4.75999 6.08806 0
M  V30 22330 H 2134.65 4.27531 5.47944 0
M  V30 22331 H 2137.84 2.64533 3.86186 0
M  V30 22332 H 2138.01 3.86764 5.19921 0
M  V30 22333 N 2131.42 -1.38259 0.756453 0
M  V30 22334 C 2132.65 -2.04861 0.323535 0
M  V30 22335 C 2133.07 -1.56679 -1.04083 0
M  V30 22336 O 2132.43 -0.72007 -1.66387 0
M  V30 22337 C 2132.48 -3.58812 0.358692 0
M  V30 22338 O 2131.58 -4.07304 -0.646296 0
M  V30 22339 H 2130.92 -0.64848 0.142723 0
M  V30 22340 H 2133.45 -1.76877 1.02838 0
M  V30 22341 H 2133.46 -4.07456 0.210579 0
M  V30 22342 H 2132.14 -3.93238 1.35413 0
M  V30 22343 H 2130.71 -3.7002 -0.462561 0
M  V30 22344 N 2132.9 -0.505757 -1.49264 0
M  V30 22345 C 2134.12 0.0358953 -2.07369 0
M  V30 22346 C 2134.55 1.29628 -1.36302 0
M  V30 22347 O 2133.91 1.76338 -0.421242 0
M  V30 22348 C 2133.95 0.267709 -3.59605 0
M  V30 22349 O 2133.06 1.34146 -3.89973 0
M  V30 22350 H 2132.4 -0.0283388 -0.663395 0
M  V30 22351 H 2134.93 -0.70674 -1.92006 0
M  V30 22352 H 2134.94 0.497774 -4.04952 0
M  V30 22353 H 2133.61 -0.653126 -4.1074 0
M  V30 22354 H 2132.19 1.09597 -3.56431 0
M  V30 22355 N 2134.38 1.55765 -0.239796 0
M  V30 22356 C 2135.63 1.97945 0.387367 0
M  V30 22357 C 2135.94 1.131 1.59586 0
M  V30 22358 O 2137.14 1.45261 2.29372 0
M  V30 22359 C 2135.6 3.52198 0.740571 0
M  V30 22360 C 2135.21 4.45773 -0.446131 0
M  V30 22361 C 2136.95 4.0305 1.33232 0
M  V30 22362 C 2134.86 5.91359 -0.0694771 0
M  V30 22363 H 2133.79 0.739231 0.148505 0
M  V30 22364 H 2136.44 1.80343 -0.338891 0
M  V30 22365 H 2134.82 3.65468 1.52476 0
M  V30 22366 H 2136 4.44259 -1.22354 0
M  V30 22367 H 2134.31 4.05364 -0.952332 0
M  V30 22368 H 2136.91 5.09335 1.62734 0
M  V30 22369 H 2137.25 3.49977 2.25437 0
M  V30 22370 H 2137.78 3.93077 0.611183 0
M  V30 22371 H 2134.52 6.48455 -0.958485 0
M  V30 22372 H 2134.04 5.96025 0.671873 0
M  V30 22373 H 2135.72 6.46048 0.350837 0
M  V30 22374 N 2135.85 -0.0334016 1.57565 0
M  V30 22375 C 2137.1 -0.723651 1.887 0
M  V30 22376 C 2137.42 -1.76126 0.836929 0
M  V30 22377 O 2136.69 -1.95468 -0.12998 0
M  V30 22378 H 2135.27 -0.270263 0.696396 0
M  V30 22379 H 2137.94 -0.000381018 1.949 0
M  V30 22380 H 2137.03 -1.21594 2.87439 0
M  V30 22381 N 2137.33 -1.54609 -0.305591 0
M  V30 22382 C 2138.28 -1.85991 -1.39679 0
M  V30 22383 C 2139.27 -0.733256 -1.52708 0
M  V30 22384 O 2140.48 -0.917183 -1.5488 0
M  V30 22385 H 2136.86 -0.589836 -0.466474 0
M  V30 22386 H 2138.83 -2.77209 -1.10444 0
M  V30 22387 C 2137.58 -2.11986 -2.75604 0
M  V30 22388 H 2136.9 -2.9815 -2.66358 0
M  V30 22389 H 2138.34 -2.37886 -3.50979 0
M  V30 22390 C 2136.8 -0.916972 -3.24181 0
M  V30 22391 O 2137.33 -0.135175 -4.01472 0
M  V30 22392 N 2135.53 -0.723621 -2.81446 0
M  V30 22393 H 2135.08 -1.36103 -2.18709 0
M  V30 22394 H 2135.04 0.0796694 -3.14299 0
M  V30 22395 N 2138.81 0.568558 -1.46987 0
M  V30 22396 C 2140.05 1.33712 -1.54598 0
M  V30 22397 C 2140.41 1.90968 -0.198773 0
M  V30 22398 O 2141.62 2.68383 -0.14968 0
M  V30 22399 C 2139.89 2.42591 -2.62458 0
M  V30 22400 S 2141.45 3.29686 -2.89573 0
M  V30 22401 H 2138.26 0.455359 -0.546048 0
M  V30 22402 H 2140.87 0.65212 -1.84303 0
M  V30 22403 H 2139.57 1.98943 -3.58956 0
M  V30 22404 H 2139.1 3.15846 -2.34531 0
M  V30 22405 H 2141.12 4.41785 -2.25922 0
M  V30 22406 N 2140.29 1.34929 0.814366 0
M  V30 22407 C 2141.22 1.21559 1.93129 0
M  V30 22408 C 2142.2 0.105242 1.62259 0
M  V30 22409 O 2143.38 0.271939 1.86528 0
M  V30 22410 C 2140.51 0.869978 3.27336 0
M  V30 22411 C 2139.56 1.99128 3.77161 0
M  V30 22412 S 2140.39 3.60594 3.95894 0
M  V30 22413 C 2141.55 3.28094 5.33015 0
M  V30 22414 H 2141.78 2.16102 2.04175 0
M  V30 22415 H 2139.31 1.20055 0.970888 0
M  V30 22416 H 2141.27 0.677373 4.04873 0
M  V30 22417 H 2139.93 -0.0572578 3.14048 0
M  V30 22418 H 2139.12 1.70342 4.74341 0
M  V30 22419 H 2138.73 2.14182 3.06598 0
M  V30 22420 H 2141.02 2.80439 6.16733 0
M  V30 22421 H 2141.96 4.24446 5.66791 0
M  V30 22422 H 2142.37 2.64058 4.98932 0
M  V30 22423 N 2141.77 -1.0356 1.18799 0
M  V30 22424 C 2142.68 -2.15173 0.934763 0
M  V30 22425 C 2143.69 -1.73695 -0.102902 0
M  V30 22426 O 2144.87 -2.0124 0.0801886 0
M  V30 22427 C 2141.93 -3.43507 0.469463 0
M  V30 22428 C 2140.99 -3.99337 1.57571 0
M  V30 22429 C 2140.23 -5.21546 1.13251 0
M  V30 22430 O 2140.45 -5.704 -0.0066957 0
M  V30 22431 O 2139.38 -5.70039 1.93233 0
M  V30 22432 H 2143.21 -2.39393 1.86881 0
M  V30 22433 H 2140.8 -1.13608 0.970239 0
M  V30 22434 H 2142.68 -4.20834 0.218298 0
M  V30 22435 H 2141.35 -3.20747 -0.436226 0
M  V30 22436 H 2140.26 -3.23375 1.88095 0
M  V30 22437 H 2141.59 -4.26448 2.45771 0
M  V30 22438 N 2143.25 -0.990834 -1.22557 0
M  V30 22439 C 2144.21 -0.544553 -2.22637 0
M  V30 22440 C 2145.21 0.371467 -1.56451 0
M  V30 22441 O 2146.4 0.163711 -1.73429 0
M  V30 22442 C 2143.53 0.20822 -3.40264 0
M  V30 22443 H 2144.72 -1.42959 -2.63634 0
M  V30 22444 H 2142.28 -0.77782 -1.35572 0
M  V30 22445 H 2143.01 1.10933 -3.04737 0
M  V30 22446 H 2142.8 -0.449464 -3.89515 0
M  V30 22447 H 2144.29 0.508696 -4.1449 0
M  V30 22448 N 2144.72 1.37856 -0.763775 0
M  V30 22449 C 2145.65 2.32961 -0.158515 0
M  V30 22450 C 2146.63 1.55381 0.692142 0
M  V30 22451 O 2147.82 1.83655 0.631241 0
M  V30 22452 C 2144.95 3.39593 0.727585 0
M  V30 22453 C 2143.9 4.27995 -0.0211379 0
M  V30 22454 C 2143.23 5.2557 0.983884 0
M  V30 22455 C 2144.53 5.08434 -1.1955 0
M  V30 22456 H 2146.22 2.83828 -0.952999 0
M  V30 22457 H 2143.77 1.36465 -0.459721 0
M  V30 22458 H 2145.72 4.05098 1.16076 0
M  V30 22459 H 2144.45 2.87233 1.5545 0
M  V30 22460 H 2143.11 3.6401 -0.435002 0
M  V30 22461 H 2142.75 4.69493 1.80514 0
M  V30 22462 H 2142.45 5.85574 0.487507 0
M  V30 22463 H 2143.98 5.9395 1.41616 0
M  V30 22464 H 2145.39 5.67122 -0.839372 0
M  V30 22465 H 2143.79 5.77724 -1.62342 0
M  V30 22466 H 2144.86 4.41575 -2.00349 0
M  V30 22467 N 2146.2 0.513665 1.48994 0
M  V30 22468 C 2147.45 -0.0263341 2.02483 0
M  V30 22469 C 2147.78 -1.35817 1.39226 0
M  V30 22470 O 2147.03 -1.88621 0.5216 0
M  V30 22471 C 2147.33 -0.214329 3.56757 0
M  V30 22472 C 2147 1.0411 4.38716 0
M  V30 22473 C 2145.66 1.3852 4.60832 0
M  V30 22474 C 2148.01 1.87499 4.86306 0
M  V30 22475 C 2145.34 2.56248 5.27782 0
M  V30 22476 C 2147.69 3.04392 5.54553 0
M  V30 22477 C 2146.35 3.39167 5.7491 0
M  V30 22478 H 2145.62 -0.00963634 0.740937 0
M  V30 22479 H 2148.27 0.676388 1.79157 0
M  V30 22480 H 2146.58 -0.999685 3.78832 0
M  V30 22481 H 2148.27 -0.646802 3.95749 0
M  V30 22482 H 2144.86 0.763083 4.21752 0
M  V30 22483 H 2149.05 1.62228 4.69037 0
M  V30 22484 H 2144.3 2.83413 5.41744 0
M  V30 22485 H 2148.48 3.69325 5.904 0
M  V30 22486 H 2146.1 4.30492 6.26562 0
M  V30 22487 N 2147.68 -1.55636 0.248053 0
M  V30 22488 C 2148.61 -2.18762 -0.683786 0
M  V30 22489 C 2149.62 -1.16427 -1.13791 0
M  V30 22490 O 2150.81 -1.43286 -1.06449 0
M  V30 22491 C 2147.91 -2.77789 -1.9413 0
M  V30 22492 C 2147.09 -4.05554 -1.63843 0
M  V30 22493 C 2146.15 -4.48887 -2.74566 0
M  V30 22494 O 2145.17 -5.15239 -2.41903 0
M  V30 22495 N 2146.37 -4.16768 -4.04085 0
M  V30 22496 H 2149.14 -2.99356 -0.143647 0
M  V30 22497 H 2146.7 -1.61757 0.0680612 0
M  V30 22498 H 2148.69 -3.03735 -2.67445 0
M  V30 22499 H 2147.26 -2.01346 -2.3912 0
M  V30 22500 H 2146.48 -3.87184 -0.740411 0
M  V30 22501 H 2147.77 -4.88851 -1.41074 0
M  V30 22502 H 2147.17 -3.63502 -4.33455 0
M  V30 22503 H 2145.72 -4.47548 -4.73861 0
M  V30 22504 N 2149.16 0.0250451 -1.5758 0
M  V30 22505 C 2150.41 0.713634 -1.89081 0
M  V30 22506 C 2150.73 1.7568 -0.846258 0
M  V30 22507 O 2150 1.95534 0.119612 0
M  V30 22508 H 2148.58 0.266566 -0.697819 0
M  V30 22509 H 2151.24 -0.00995501 -1.94897 0
M  V30 22510 H 2150.33 1.20068 -2.8808 0
M  V30 22511 N 2150.64 1.54769 0.297388 0
M  V30 22512 C 2152.05 1.65183 0.87014 0
M  V30 22513 C 2152.4 0.562844 1.87953 0
M  V30 22514 O 2151.52 -0.299913 2.14312 0
M  V30 22515 C 2152.12 2.99437 1.58501 0
M  V30 22516 C 2150.68 3.1196 2.10612 0
M  V30 22517 C 2149.82 2.60882 0.94 0
M  V30 22518 H 2152.77 1.58526 0.0743014 0
M  V30 22519 H 2152.8 2.91063 2.45077 0
M  V30 22520 H 2152.31 3.78675 0.850115 0
M  V30 22521 H 2150.41 2.3745 2.87138 0
M  V30 22522 H 2150.52 4.1817 2.33817 0
M  V30 22523 H 2148.89 2.17426 1.32658 0
M  V30 22524 H 2149.67 3.42601 0.219 0
M  V30 22525 N 2152.11 -0.560755 1.47286 0
M  V30 22526 C 2153.04 -1.67792 1.62383 0
M  V30 22527 C 2154.02 -1.6338 0.473377 0
M  V30 22528 O 2155.21 -1.81057 0.702288 0
M  V30 22529 C 2152.34 -3.06431 1.63454 0
M  V30 22530 C 2151.29 -3.25688 2.7769 0
M  V30 22531 C 2150.62 -4.65078 2.63831 0
M  V30 22532 C 2151.92 -3.11404 4.19315 0
M  V30 22533 H 2153.61 -1.55414 2.55904 0
M  V30 22534 H 2151.16 -0.746251 1.23155 0
M  V30 22535 H 2153.11 -3.84428 1.72606 0
M  V30 22536 H 2151.84 -3.1976 0.664904 0
M  V30 22537 H 2150.5 -2.50098 2.68042 0
M  V30 22538 H 2150.14 -4.75201 1.64904 0
M  V30 22539 H 2149.84 -4.78911 3.40467 0
M  V30 22540 H 2151.37 -5.45214 2.74907 0
M  V30 22541 H 2152.78 -3.79222 4.29958 0
M  V30 22542 H 2151.18 -3.36749 4.9671 0
M  V30 22543 H 2152.25 -2.08195 4.3793 0
M  V30 22544 N 2153.59 -1.35359 -0.807199 0
M  V30 22545 C 2154.52 -1.24083 -1.92707 0
M  V30 22546 C 2155.54 -0.164267 -1.61969 0
M  V30 22547 O 2156.73 -0.417487 -1.73549 0
M  V30 22548 C 2153.83 -0.88785 -3.27063 0
M  V30 22549 C 2153 -2.06266 -3.85711 0
M  V30 22550 C 2152.06 -1.68555 -4.98473 0
M  V30 22551 O 2151.08 -2.40421 -5.15933 0
M  V30 22552 N 2152.29 -0.608828 -5.77298 0
M  V30 22553 H 2155.05 -2.20565 -2.02907 0
M  V30 22554 H 2152.61 -1.2852 -0.984589 0
M  V30 22555 H 2154.6 -0.61707 -3.99968 0
M  V30 22556 H 2153.17 -0.0127324 -3.12597 0
M  V30 22557 H 2152.39 -2.49727 -3.05008 0
M  V30 22558 H 2153.68 -2.84796 -4.21626 0
M  V30 22559 H 2153.08 -0.0117274 -5.65699 0
M  V30 22560 H 2151.64 -0.397827 -6.50585 0
M  V30 22561 N 2155.07 1.02928 -1.19346 0
M  V30 22562 C 2156.3 1.79687 -1.01961 0
M  V30 22563 C 2156.71 1.84137 0.434779 0
M  V30 22564 O 2156.05 1.28397 1.31377 0
M  V30 22565 C 2156.11 3.26152 -1.51213 0
M  V30 22566 C 2155.78 3.45338 -2.99317 0
M  V30 22567 C 2156.77 3.35591 -3.97083 0
M  V30 22568 C 2154.46 3.71566 -3.38 0
M  V30 22569 C 2156.45 3.51795 -5.31525 0
M  V30 22570 C 2154.14 3.87415 -4.72602 0
M  V30 22571 C 2155.14 3.77532 -5.69174 0
M  V30 22572 O 2154.83 3.92914 -7.01337 0
M  V30 22573 H 2154.56 0.572339 -0.359729 0
M  V30 22574 H 2157.11 1.30533 -1.58588 0
M  V30 22575 H 2155.34 3.76328 -0.889605 0
M  V30 22576 H 2157.03 3.84505 -1.30042 0
M  V30 22577 H 2157.8 3.1528 -3.68542 0
M  V30 22578 H 2153.68 3.78351 -2.63385 0
M  V30 22579 H 2157.22 3.43997 -6.06887 0
M  V30 22580 H 2153.12 4.07223 -5.00839 0
M  V30 22581 H 2153.88 4.10007 -7.08404 0
M  V30 22582 N 2156.55 0.997319 1.2203 0
M  V30 22583 C 2157.49 0.551276 2.2412 0
M  V30 22584 C 2158.46 -0.418681 1.60737 0
M  V30 22585 O 2159.65 -0.322451 1.88056 0
M  V30 22586 C 2156.79 -0.123569 3.44879 0
M  V30 22587 C 2155.9 0.888653 4.22761 0
M  V30 22588 C 2155.04 0.186868 5.30871 0
M  V30 22589 C 2154.08 1.18716 6.00477 0
M  V30 22590 N 2153.21 0.513378 7.00221 0
M  V30 22591 H 2158.05 1.42656 2.61636 0
M  V30 22592 H 2155.59 0.714493 1.28582 0
M  V30 22593 H 2157.55 -0.53179 4.13797 0
M  V30 22594 H 2156.18 -0.962614 3.08113 0
M  V30 22595 H 2155.23 1.41517 3.53096 0
M  V30 22596 H 2156.54 1.65019 4.70712 0
M  V30 22597 H 2155.7 -0.277858 6.06063 0
M  V30 22598 H 2154.44 -0.60714 4.83906 0
M  V30 22599 H 2153.44 1.66247 5.24063 0
M  V30 22600 H 2154.67 1.98212 6.4953 0
M  V30 22601 H 2152.61 -0.261113 6.5548 0
M  V30 22602 H 2152.53 1.21329 7.462 0
M  V30 22603 H 2153.8 0.0716018 7.79467 0
M  V30 22604 N 2158.03 -1.37449 0.771075 0
M  V30 22605 C 2159.3 -1.93866 0.259851 0
M  V30 22606 C 2159.68 -1.7048 -1.24498 0
M  V30 22607 O 2159.03 -1.05322 -2.0278 0
M  V30 22608 C 2159.24 -3.4322 0.63251 0
M  V30 22609 C 2160.59 -4.20312 0.601925 0
M  V30 22610 O 2161.61 -3.5158 0.571859 0
M  V30 22611 O 2160.47 -5.42875 0.628405 0
M  V30 22612 H 2157.57 -0.824843 0.0596922 0
M  V30 22613 H 2160.11 -1.4674 0.852382 0
M  V30 22614 H 2158.88 -3.53822 1.6711 0
M  V30 22615 H 2158.51 -3.97598 0.0128904 0
M  V30 22616 N 2159.5 -0.52156 -1.4872 0
M  V30 22617 C 2160.43 0.234741 -2.32317 0
M  V30 22618 C 2161.42 0.943119 -1.4156 0
M  V30 22619 O 2162.6 0.930536 -1.70454 0
M  V30 22620 C 2159.73 1.28724 -3.22564 0
M  V30 22621 C 2158.68 0.697518 -4.22278 0
M  V30 22622 C 2158.01 1.85205 -5.016 0
M  V30 22623 C 2159.31 -0.325174 -5.21287 0
M  V30 22624 H 2161 -0.463097 -2.95797 0
M  V30 22625 H 2158.55 -0.224154 -1.42245 0
M  V30 22626 H 2160.5 1.82422 -3.79869 0
M  V30 22627 H 2159.23 2.01455 -2.57067 0
M  V30 22628 H 2157.89 0.182131 -3.66147 0
M  V30 22629 H 2157.53 2.56754 -4.32535 0
M  V30 22630 H 2157.23 1.46343 -5.69085 0
M  V30 22631 H 2158.76 2.39297 -5.61755 0
M  V30 22632 H 2160.17 0.124406 -5.73165 0
M  V30 22633 H 2158.57 -0.630729 -5.96776 0
M  V30 22634 H 2159.64 -1.23392 -4.68938 0
M  V30 22635 N 2160.98 1.55502 -0.256304 0
M  V30 22636 C 2161.93 2.2177 0.63926 0
M  V30 22637 C 2162.9 1.18474 1.16418 0
M  V30 22638 O 2164.08 1.46954 1.21693 0
M  V30 22639 C 2161.22 2.92819 1.82623 0
M  V30 22640 C 2160.34 4.10791 1.33695 0
M  V30 22641 C 2159.47 4.69531 2.48423 0
M  V30 22642 C 2158.51 5.79735 1.96403 0
M  V30 22643 N 2157.65 6.32617 3.04533 0
M  V30 22644 H 2162.49 2.97924 0.0674772 0
M  V30 22645 H 2160.03 1.47084 0.0215424 0
M  V30 22646 H 2161.98 3.32216 2.52366 0
M  V30 22647 H 2160.61 2.19122 2.37034 0
M  V30 22648 H 2159.67 3.76644 0.533253 0
M  V30 22649 H 2160.98 4.90321 0.915786 0
M  V30 22650 H 2160.13 5.11551 3.26191 0
M  V30 22651 H 2158.87 3.89238 2.93845 0
M  V30 22652 H 2157.88 5.37183 1.17108 0
M  V30 22653 H 2159.1 6.61885 1.51939 0
M  V30 22654 H 2157.05 5.55225 3.49372 0
M  V30 22655 H 2156.96 7.07366 2.66776 0
M  V30 22656 H 2158.23 6.79295 3.82332 0
M  V30 22657 N 2162.46 -0.0166879 1.57591 0
M  V30 22658 C 2163.71 -0.704094 1.89012 0
M  V30 22659 C 2164.02 -1.75854 0.856437 0
M  V30 22660 O 2165.23 -2.4994 1.06029 0
M  V30 22661 C 2163.68 -1.30343 3.35468 0
M  V30 22662 C 2163.29 -0.284687 4.47095 0
M  V30 22663 C 2165.04 -1.96999 3.76021 0
M  V30 22664 C 2162.94 -0.893068 5.84618 0
M  V30 22665 H 2161.87 -0.266736 0.705243 0
M  V30 22666 H 2164.52 0.0411208 1.83454 0
M  V30 22667 H 2162.91 -2.09876 3.3581 0
M  V30 22668 H 2164.08 0.484835 4.58242 0
M  V30 22669 H 2162.4 0.280487 4.15454 0
M  V30 22670 H 2164.99 -2.43392 4.76093 0
M  V30 22671 H 2165.34 -2.79347 3.0866 0
M  V30 22672 H 2165.87 -1.24224 3.77906 0
M  V30 22673 H 2162.61 -0.108736 6.5541 0
M  V30 22674 H 2162.13 -1.63214 5.77167 0
M  V30 22675 H 2163.81 -1.39672 6.31744 0
M  V30 22676 N 2163.94 -1.54924 -0.289176 0
M  V30 22677 C 2165.22 -1.65459 -1.04319 0
M  V30 22678 C 2165.6 -0.510528 -2.04834 0
M  V30 22679 O 2164.94 0.491374 -2.23154 0
M  V30 22680 C 2165.15 -3.03984 -1.71449 0
M  V30 22681 C 2166.5 -3.61196 -2.2321 0
M  V30 22682 O 2167.53 -3.06513 -1.81462 0
M  V30 22683 O 2166.38 -4.56967 -2.99739 0
M  V30 22684 H 2163.48 -0.671376 -0.482891 0
M  V30 22685 H 2166.02 -1.67267 -0.286321 0
M  V30 22686 H 2164.8 -3.78693 -0.985267 0
M  V30 22687 H 2164.42 -3.06005 -2.53863 0
M  V30 22688 N 2165.42 0.552936 -1.47582 0
M  V30 22689 C 2166.67 1.30628 -1.53685 0
M  V30 22690 C 2166.98 1.94516 -0.205625 0
M  V30 22691 O 2168.18 2.71114 -0.144695 0
M  V30 22692 C 2166.64 2.369 -2.70936 0
M  V30 22693 C 2166.25 1.79183 -4.10606 0
M  V30 22694 C 2167.99 3.13388 -2.86336 0
M  V30 22695 C 2165.9 2.8326 -5.19151 0
M  V30 22696 H 2164.83 0.491183 -0.572062 0
M  V30 22697 H 2167.48 0.58676 -1.73866 0
M  V30 22698 H 2165.86 3.11785 -2.44143 0
M  V30 22699 H 2167.04 1.10641 -4.4732 0
M  V30 22700 H 2165.35 1.15265 -4.00129 0
M  V30 22701 H 2167.95 3.91117 -3.64597 0
M  V30 22702 H 2168.29 3.67839 -1.94936 0
M  V30 22703 H 2168.82 2.45615 -3.12919 0
M  V30 22704 H 2165.56 2.3366 -6.12441 0
M  V30 22705 H 2165.08 3.502 -4.8695 0
M  V30 22706 H 2166.76 3.46674 -5.46284 0
M  V30 22707 N 2166.89 1.35785 0.800009 0
M  V30 22708 C 2167.84 1.29246 1.91217 0
M  V30 22709 C 2168.81 0.16314 1.65297 0
M  V30 22710 O 2170 0.347924 1.87601 0
M  V30 22711 C 2167.14 1.07697 3.27865 0
M  V30 22712 C 2166.25 2.2961 3.65928 0
M  V30 22713 C 2165.38 2.01158 4.91639 0
M  V30 22714 C 2164.42 3.19089 5.22349 0
M  V30 22715 N 2163.56 2.90371 6.39241 0
M  V30 22716 H 2168.4 2.24348 1.96142 0
M  V30 22717 H 2165.94 1.11515 0.959316 0
M  V30 22718 H 2167.9 0.93233 4.06649 0
M  V30 22719 H 2166.53 0.162546 3.2239 0
M  V30 22720 H 2165.58 2.54915 2.82351 0
M  V30 22721 H 2166.89 3.1765 3.84578 0
M  V30 22722 H 2166.04 1.83563 5.78264 0
M  V30 22723 H 2164.78 1.10413 4.75037 0
M  V30 22724 H 2163.79 3.37255 4.34211 0
M  V30 22725 H 2165.01 4.10645 5.40877 0
M  V30 22726 H 2162.96 2.02227 6.24052 0
M  V30 22727 H 2162.88 3.71946 6.58173 0
M  V30 22728 H 2164.14 2.76331 7.28877 0
M  V30 22729 N 2168.37 -1.02294 1.19891 0
M  V30 22730 C 2169.6 -1.79404 1.03062 0
M  V30 22731 C 2170.02 -1.84059 -0.420428 0
M  V30 22732 O 2169.37 -1.28896 -1.29198 0
M  V30 22733 C 2169.42 -3.24174 1.59979 0
M  V30 22734 O 2169.14 -3.19825 2.99405 0
M  V30 22735 C 2170.65 -4.17859 1.48016 0
M  V30 22736 H 2167.87 -0.564396 0.362902 0
M  V30 22737 H 2170.41 -1.28805 1.58838 0
M  V30 22738 H 2168.56 -3.71943 1.08338 0
M  V30 22739 H 2168.98 -4.10647 3.26296 0
M  V30 22740 H 2170.45 -5.17305 1.92611 0
M  V30 22741 H 2170.93 -4.37074 0.431619 0
M  V30 22742 H 2171.54 -3.75968 1.98817 0
M  V30 22743 N 2169.85 -1.00378 -1.21499 0
M  V30 22744 C 2171.08 -0.704573 -1.94534 0
M  V30 22745 C 2171.49 0.732632 -1.74006 0
M  V30 22746 O 2170.85 1.49556 -1.04591 0
M  V30 22747 C 2170.9 -1.01461 -3.4697 0
M  V30 22748 O 2170.62 -2.39535 -3.66817 0
M  V30 22749 C 2172.12 -0.734641 -4.3717 0
M  V30 22750 H 2169.34 -0.259747 -0.618686 0
M  V30 22751 H 2171.89 -1.34149 -1.54351 0
M  V30 22752 H 2170.04 -0.423313 -3.8508 0
M  V30 22753 H 2170.46 -2.50302 -4.60922 0
M  V30 22754 H 2171.93 -1.00176 -5.42834 0
M  V30 22755 H 2172.41 0.331329 -4.37948 0
M  V30 22756 H 2173.01 -1.30749 -4.04703 0
M  V30 22757 N 2171.33 1.37038 -0.778354 0
M  V30 22758 C 2172.74 1.82137 -0.41025 0
M  V30 22759 C 2173.09 1.64814 1.06446 0
M  V30 22760 O 2172.22 1.16292 1.82497 0
M  V30 22761 C 2172.81 3.30668 -0.737859 0
M  V30 22762 C 2171.37 3.74019 -0.422727 0
M  V30 22763 C 2170.52 2.59471 -0.978272 0
M  V30 22764 H 2173.47 1.25416 -0.972446 0
M  V30 22765 H 2173.49 3.80492 -0.0249048 0
M  V30 22766 H 2173 3.43244 -1.81123 0
M  V30 22767 H 2171.1 3.67009 0.643056 0
M  V30 22768 H 2171.21 4.69876 -0.935598 0
M  V30 22769 H 2169.58 2.51506 -0.402125 0
M  V30 22770 H 2170.36 2.74837 -2.05717 0
M  V30 22771 N 2172.81 0.529439 1.48441 0
M  V30 22772 C 2174.22 0.0888387 1.86489 0
M  V30 22773 C 2174.57 -1.33364 1.43905 0
M  V30 22774 O 2173.69 -1.9987 0.829524 0
M  V30 22775 C 2174.29 0.154445 3.38448 0
M  V30 22776 C 2172.85 -0.230958 3.75691 0
M  V30 22777 C 2172 0.514449 2.72486 0
M  V30 22778 H 2174.95 0.740717 1.40353 0
M  V30 22779 H 2174.97 -0.63398 3.75181 0
M  V30 22780 H 2174.48 1.18985 3.69411 0
M  V30 22781 H 2172.58 -1.26853 3.50341 0
M  V30 22782 H 2172.69 0.108275 4.78978 0
M  V30 22783 H 2171.06 -0.039218 2.5467 0
M  V30 22784 H 2171.84 1.55048 3.06293 0
M  V30 22785 N 2174.29 -1.55364 0.264547 0
M  V30 22786 C 2175.7 -1.85212 -0.235254 0
M  V30 22787 C 2176.05 -1.18652 -1.56256 0
M  V30 22788 O 2175.17 -0.471096 -2.1121 0
M  V30 22789 C 2175.77 -3.36014 -0.43363 0
M  V30 22790 C 2174.33 -3.66024 -0.877673 0
M  V30 22791 C 2173.47 -2.77278 0.0350996 0
M  V30 22792 H 2176.42 -1.51055 0.486633 0
M  V30 22793 H 2176.45 -3.58548 -1.27373 0
M  V30 22794 H 2175.96 -3.84429 0.532565 0
M  V30 22795 H 2174.06 -3.23101 -1.85571 0
M  V30 22796 H 2174.17 -4.73624 -0.722315 0
M  V30 22797 H 2172.54 -2.50148 -0.479378 0
M  V30 22798 H 2173.32 -3.28504 0.996986 0
M  V30 22799 N 2175.76 0.00833021 -1.57598 0
M  V30 22800 C 2176.67 1.01892 -2.11318 0
M  V30 22801 C 2177.69 1.38254 -1.0565 0
M  V30 22802 O 2178.87 1.47155 -1.37505 0
M  V30 22803 C 2175.93 2.29464 -2.59899 0
M  V30 22804 C 2174.99 1.99492 -3.80134 0
M  V30 22805 C 2174.22 3.20981 -4.26388 0
M  V30 22806 O 2174.45 4.3238 -3.72027 0
M  V30 22807 O 2173.38 3.05467 -5.18627 0
M  V30 22808 H 2177.21 0.592299 -2.97868 0
M  V30 22809 H 2174.79 0.226636 -1.47671 0
M  V30 22810 H 2176.67 3.04425 -2.91382 0
M  V30 22811 H 2175.35 2.7138 -1.76449 0
M  V30 22812 H 2174.26 1.22033 -3.53636 0
M  V30 22813 H 2175.59 1.62418 -4.6463 0
M  V30 22814 N 2177.24 1.55075 0.280956 0
M  V30 22815 C 2178.48 1.77053 1.02135 0
M  V30 22816 C 2178.85 0.555587 1.83786 0
M  V30 22817 O 2180.05 0.65347 2.60736 0
M  V30 22818 C 2178.32 3.03523 1.88703 0
M  V30 22819 S 2179.88 3.46587 2.69115 0
M  V30 22820 H 2176.69 0.62217 0.34413 0
M  V30 22821 H 2179.3 1.93298 0.292595 0
M  V30 22822 H 2178 3.9005 1.27628 0
M  V30 22823 H 2177.53 2.89921 2.65912 0
M  V30 22824 H 2179.55 3.05234 3.91212 0
M  V30 22825 N 2178.72 -0.545102 1.47873 0
M  V30 22826 C 2179.97 -1.29811 1.54376 0
M  V30 22827 C 2180.28 -1.94404 0.215938 0
M  V30 22828 O 2181.49 -2.71034 0.159071 0
M  V30 22829 C 2179.94 -2.3546 2.72189 0
M  V30 22830 C 2179.55 -1.77003 4.11551 0
M  V30 22831 C 2181.3 -3.11865 2.87993 0
M  V30 22832 C 2179.2 -2.80503 5.20646 0
M  V30 22833 H 2178.13 -0.488142 0.574659 0
M  V30 22834 H 2180.78 -0.577531 1.74175 0
M  V30 22835 H 2179.17 -3.10486 2.45794 0
M  V30 22836 H 2180.34 -1.08268 4.479 0
M  V30 22837 H 2178.65 -1.13141 4.00734 0
M  V30 22838 H 2181.25 -3.89178 3.66666 0
M  V30 22839 H 2181.59 -3.668 1.96884 0
M  V30 22840 H 2182.13 -2.43952 3.14217 0
M  V30 22841 H 2178.87 -2.30408 6.13671 0
M  V30 22842 H 2178.39 -3.47612 4.888 0
M  V30 22843 H 2180.07 -3.43772 5.48115 0
M  V30 22844 N 2180.2 -1.36208 -0.792797 0
M  V30 22845 C 2181.15 -1.30313 -1.92669 0
M  V30 22846 C 2182.14 -0.195525 -1.68268 0
M  V30 22847 O 2183.35 -0.362331 -1.76316 0
M  V30 22848 H 2179.72 -0.4056 -0.63324 0
M  V30 22849 H 2181.69 -2.26078 -1.9476 0
M  V30 22850 C 2180.44 -1.10589 -3.29644 0
M  V30 22851 H 2179.76 -1.95061 -3.48986 0
M  V30 22852 H 2181.2 -1.10509 -4.09345 0
M  V30 22853 C 2179.66 0.189643 -3.36366 0
M  V30 22854 O 2180.19 1.18066 -3.83958 0
M  V30 22855 N 2178.4 0.23316 -2.89663 0
M  V30 22856 H 2177.95 -0.573917 -2.51125 0
M  V30 22857 H 2177.9 1.09966 -2.94542 0
M  V30 22858 N 2181.68 1.01656 -1.20431 0
M  V30 22859 C 2182.95 1.72424 -0.923539 0
M  V30 22860 C 2183.33 2.03324 0.567675 0
M  V30 22861 O 2182.68 1.69774 1.52935 0
M  V30 22862 C 2182.89 2.99208 -1.79654 0
M  V30 22863 C 2184.24 3.72472 -2.03838 0
M  V30 22864 O 2185.26 3.09164 -1.76907 0
M  V30 22865 O 2184.12 4.86314 -2.49321 0
M  V30 22866 H 2181.22 0.751461 -0.345305 0
M  V30 22867 H 2183.76 1.07504 -1.31305 0
M  V30 22868 H 2182.53 2.72695 -2.80629 0
M  V30 22869 H 2182.16 3.71869 -1.4071 0
M  V30 22870 N 2183.15 1.01021 1.20965 0
M  V30 22871 C 2184.08 0.5953 2.25784 0
M  V30 22872 C 2185.06 -0.386477 1.65651 0
M  V30 22873 O 2186.25 -0.273315 1.92267 0
M  V30 22874 C 2183.38 -0.0736489 3.47222 0
M  V30 22875 C 2182.33 0.828449 4.19906 0
M  V30 22876 C 2181.66 0.0256242 5.34694 0
M  V30 22877 C 2182.96 2.13351 4.76737 0
M  V30 22878 H 2184.65 1.4715 2.60744 0
M  V30 22879 H 2182.2 0.70899 1.25337 0
M  V30 22880 H 2184.15 -0.375423 4.19724 0
M  V30 22881 H 2182.88 -0.984519 3.11408 0
M  V30 22882 H 2181.54 1.11413 3.4926 0
M  V30 22883 H 2181.18 -0.886697 4.95123 0
M  V30 22884 H 2180.88 0.626319 5.84253 0
M  V30 22885 H 2182.41 -0.269844 6.10003 0
M  V30 22886 H 2183.82 1.89453 5.41092 0
M  V30 22887 H 2182.22 2.68451 5.36707 0
M  V30 22888 H 2183.29 2.80081 3.95832 0
M  V30 22889 N 2184.63 -1.36623 0.78561 0
M  V30 22890 C 2185.56 -2.3268 0.195557 0
M  V30 22891 C 2186.54 -1.56463 -0.667335 0
M  V30 22892 O 2187.73 -1.84636 -0.601943 0
M  V30 22893 C 2184.86 -3.40708 -0.673467 0
M  V30 22894 C 2183.81 -4.27907 0.0892255 0
M  V30 22895 C 2183.14 -5.27069 -0.900146 0
M  V30 22896 C 2184.44 -5.06468 1.27624 0
M  V30 22897 H 2186.13 -2.82276 0.998033 0
M  V30 22898 H 2183.68 -1.35716 0.481373 0
M  V30 22899 H 2185.63 -4.06893 -1.09617 0
M  V30 22900 H 2184.35 -2.8967 -1.50861 0
M  V30 22901 H 2183.01 -3.63272 0.492858 0
M  V30 22902 H 2182.66 -4.72306 -1.73022 0
M  V30 22903 H 2182.36 -5.86276 -0.394285 0
M  V30 22904 H 2183.89 -5.96128 -1.32149 0
M  V30 22905 H 2185.3 -5.65715 0.92949 0
M  V30 22906 H 2183.7 -5.75068 1.71513 0
M  V30 22907 H 2184.77 -4.38332 2.07349 0
M  V30 22908 N 2186.11 -0.537304 -1.48158 0
M  V30 22909 C 2187.04 0.258662 -2.27736 0
M  V30 22910 C 2188.05 0.897752 -1.3581 0
M  V30 22911 O 2189.24 0.774959 -1.608 0
M  V30 22912 C 2186.34 1.38219 -3.09433 0
M  V30 22913 C 2185.52 0.843651 -4.29187 0
M  V30 22914 C 2184.58 1.84921 -4.92636 0
M  V30 22915 O 2183.6 1.40323 -5.51632 0
M  V30 22916 N 2184.8 3.18174 -4.85536 0
M  V30 22917 H 2187.57 -0.423863 -2.96688 0
M  V30 22918 H 2185.13 -0.372098 -1.57566 0
M  V30 22919 H 2187.12 2.0532 -3.48749 0
M  V30 22920 H 2185.69 1.96827 -2.42854 0
M  V30 22921 H 2184.91 -0.00356721 -3.942 0
M  V30 22922 H 2186.2 0.462851 -5.0669 0
M  V30 22923 H 2185.6 3.57068 -4.3877 0
M  V30 22924 H 2184.15 3.80888 -5.28931 0
M  V30 22925 N 2187.59 1.55221 -0.272782 0
M  V30 22926 C 2188.55 2.21137 0.602593 0
M  V30 22927 C 2189.55 1.1885 1.08311 0
M  V30 22928 O 2190.74 1.4377 0.983663 0
M  V30 22929 C 2187.87 2.87548 1.8311 0
M  V30 22930 H 2189.07 2.99888 0.0271068 0
M  V30 22931 H 2186.62 1.56283 -0.0233836 0
M  V30 22932 H 2187.35 2.12802 2.44716 0
M  V30 22933 H 2187.14 3.62502 1.49449 0
M  V30 22934 H 2188.63 3.37914 2.45365 0
M  V30 22935 N 2189.07 2.77022e-05 1.576 0
M  V30 22936 C 2190.31 -0.685829 1.90851 0
M  V30 22937 C 2190.65 -1.73422 0.873984 0
M  V30 22938 O 2189.92 -1.94204 -0.107282 0
M  V30 22939 C 2190.2 -1.32893 3.34681 0
M  V30 22940 C 2190.06 -0.292085 4.48851 0
M  V30 22941 C 2191.38 -2.25509 3.77933 0
M  V30 22942 H 2188.49 -0.247851 0.694074 0
M  V30 22943 H 2191.14 0.0513272 1.89931 0
M  V30 22944 H 2189.29 -1.95723 3.35596 0
M  V30 22945 H 2190.96 0.336531 4.60071 0
M  V30 22946 H 2189.2 0.385648 4.32082 0
M  V30 22947 H 2189.87 -0.781112 5.46445 0
M  V30 22948 H 2192.35 -1.72696 3.7857 0
M  V30 22949 H 2191.22 -2.67473 4.79322 0
M  V30 22950 H 2191.49 -3.13419 3.11803 0
M  V30 22951 N 2190.54 -1.55222 -0.272728 0
M  V30 22952 C 2191.82 -1.66557 -1.02559 0
M  V30 22953 C 2192.2 -0.532225 -2.04281 0
M  V30 22954 O 2191.55 0.467678 -2.23663 0
M  V30 22955 C 2191.76 -3.05785 -1.68215 0
M  V30 22956 C 2193.11 -3.63543 -2.19367 0
M  V30 22957 O 2194.13 -3.0842 -1.78201 0
M  V30 22958 O 2192.99 -4.60121 -2.94875 0
M  V30 22959 H 2190.08 -0.67646 -0.475743 0
M  V30 22960 H 2192.63 -1.67561 -0.268564 0
M  V30 22961 H 2191.4 -3.79716 -0.945046 0
M  V30 22962 H 2191.03 -3.08681 -2.50603 0
M  V30 22963 N 2192.02 0.537252 -1.4816 0
M  V30 22964 C 2193.25 1.32317 -1.59709 0
M  V30 22965 C 2193.67 1.86365 -0.254891 0
M  V30 22966 O 2193.03 1.64026 0.772349 0
M  V30 22967 C 2193.08 2.45501 -2.64125 0
M  V30 22968 O 2192.18 3.48325 -2.2078 0
M  V30 22969 H 2191.52 0.392195 -0.535798 0
M  V30 22970 H 2194.05 0.647233 -1.94093 0
M  V30 22971 H 2194.06 2.9179 -2.85171 0
M  V30 22972 H 2192.74 2.05522 -3.61571 0
M  V30 22973 H 2191.32 3.08204 -2.09917 0
M  V30 22974 N 2193.5 1.36626 0.785562 0
M  V30 22975 C 2194.43 1.27134 1.90708 0
M  V30 22976 C 2195.45 0.190014 1.61687 0
M  V30 22977 O 2196.63 0.445045 1.72863 0
M  V30 22978 C 2193.73 0.93977 3.25609 0
M  V30 22979 C 2192.91 2.12376 3.82381 0
M  V30 22980 C 2191.97 1.76464 4.95729 0
M  V30 22981 O 2190.99 2.48598 5.12043 0
M  V30 22982 N 2192.19 0.700594 5.76257 0
M  V30 22983 H 2194.96 2.23765 1.99372 0
M  V30 22984 H 2192.52 1.3007 0.964018 0
M  V30 22985 H 2194.51 0.680624 3.98936 0
M  V30 22986 H 2193.08 0.0624623 3.12538 0
M  V30 22987 H 2192.3 2.54548 3.00997 0
M  V30 22988 H 2193.59 2.91468 4.17042 0
M  V30 22989 H 2192.99 0.101724 5.65609 0
M  V30 22990 H 2191.55 0.501279 6.4987 0
M  V30 22991 N 2194.98 -1.01016 1.20969 0
M  V30 22992 C 2195.89 -2.13142 0.980194 0
M  V30 22993 C 2196.9 -1.73875 -0.0660359 0
M  V30 22994 O 2198.08 -2.01025 0.122857 0
M  V30 22995 C 2195.15 -3.42434 0.54222 0
M  V30 22996 C 2194.21 -3.95905 1.66006 0
M  V30 22997 C 2193.44 -5.19026 1.24289 0
M  V30 22998 O 2193.66 -5.70285 0.114296 0
M  V30 22999 O 2192.6 -5.65812 2.05281 0
M  V30 23000 H 2196.42 -2.35376 1.91917 0
M  V30 23001 H 2194.01 -1.11524 0.994118 0
M  V30 23002 H 2195.89 -4.20276 0.307514 0
M  V30 23003 H 2194.56 -3.216 -0.368093 0
M  V30 23004 H 2193.47 -3.19312 1.94912 0
M  V30 23005 H 2194.8 -4.21139 2.54761 0
M  V30 23006 N 2196.46 -1.01661 -1.20428 0
M  V30 23007 C 2197.7 -0.706996 -1.90077 0
M  V30 23008 C 2198.04 0.761442 -1.7865 0
M  V30 23009 O 2197.31 1.55321 -1.17072 0
M  V30 23010 C 2197.59 -1.14333 -3.41467 0
M  V30 23011 C 2197.45 -2.67208 -3.61829 0
M  V30 23012 C 2198.77 -0.714606 -4.3426 0
M  V30 23013 H 2195.88 -0.258312 -0.690249 0
M  V30 23014 H 2198.53 -1.26435 -1.41824 0
M  V30 23015 H 2196.68 -0.669123 -3.82694 0
M  V30 23016 H 2198.35 -3.22481 -3.29854 0
M  V30 23017 H 2196.59 -3.0818 -3.05299 0
M  V30 23018 H 2197.26 -2.92792 -4.6795 0
M  V30 23019 H 2199.74 -1.12228 -4.0068 0
M  V30 23020 H 2198.61 -1.04794 -5.38804 0
M  V30 23021 H 2198.88 0.383721 -4.40432 0
M  V30 23022 N 2197.93 1.36205 -0.792844 0
M  V30 23023 C 2199.35 1.5237 -0.47493 0
M  V30 23024 C 2199.55 1.7458 1.00619 0
M  V30 23025 O 2198.61 1.77927 1.79159 0
M  V30 23026 C 2199.92 2.70745 -1.30835 0
M  V30 23027 C 2201.47 2.84617 -1.30239 0
M  V30 23028 C 2201.94 4.06 -2.11963 0
M  V30 23029 N 2203.43 4.13152 -2.09427 0
M  V30 23030 C 2204.17 5.06158 -2.69428 0
M  V30 23031 N 2203.66 6.04586 -3.38301 0
M  V30 23032 N 2205.46 4.988 -2.59143 0
M  V30 23033 H 2197.61 1.20043 -1.75224 0
M  V30 23034 H 2199.87 0.586198 -0.745034 0
M  V30 23035 H 2199.58 2.60866 -2.35885 0
M  V30 23036 H 2199.45 3.64988 -0.952024 0
M  V30 23037 H 2201.84 2.93954 -0.259799 0
M  V30 23038 H 2201.92 1.91271 -1.6985 0
M  V30 23039 H 2201.56 3.97423 -3.16255 0
M  V30 23040 H 2201.49 4.985 -1.6972 0
M  V30 23041 H 2203.98 3.42682 -1.59303 0
M  V30 23042 H 2204.3 6.72123 -3.81405 0
M  V30 23043 H 2202.64 6.04801 -3.42404 0
M  V30 23044 H 2205.83 4.20855 -2.04935 0
M  V30 23045 H 2206.01 5.71094 -3.06195 0
M  V30 23046 N 2199.41 0.545154 1.47871 0
M  V30 23047 C 2200.69 -0.0484878 1.9554 0
M  V30 23048 C 2201.07 -1.49776 1.48763 0
M  V30 23049 O 2200.42 -2.16828 0.720963 0
M  V30 23050 C 2200.63 0.0844783 3.48898 0
M  V30 23051 C 2201.98 -0.0670492 4.24547 0
M  V30 23052 O 2203 0.0114276 3.56198 0
M  V30 23053 O 2201.86 -0.233786 5.46 0
M  V30 23054 H 2198.95 -0.0708628 0.823958 0
M  V30 23055 H 2201.5 0.610825 1.58326 0
M  V30 23056 H 2200.27 1.09344 3.75712 0
M  V30 23057 H 2199.89 -0.612997 3.92846 0
M  V30 23058 N 2200.89 -1.55074 0.28101 0
M  V30 23059 C 2202.12 -2.03837 -0.336768 0
M  V30 23060 C 2202.53 -1.15861 -1.49575 0
M  V30 23061 O 2201.87 -0.172535 -1.82888 0
M  V30 23062 C 2201.93 -3.487 -0.874555 0
M  V30 23063 C 2201.6 -4.56732 0.156558 0
M  V30 23064 C 2202.59 -5.10616 0.978122 0
M  V30 23065 C 2200.28 -5.01448 0.292497 0
M  V30 23066 C 2202.27 -6.0774 1.92176 0
M  V30 23067 C 2199.96 -5.98395 1.2396 0
M  V30 23068 C 2200.96 -6.51423 2.05273 0
M  V30 23069 O 2200.65 -7.46475 2.9838 0
M  V30 23070 H 2200.38 -0.67124 -0.0800767 0
M  V30 23071 H 2202.93 -2.01213 0.412624 0
M  V30 23072 H 2201.16 -3.48583 -1.67412 0
M  V30 23073 H 2202.85 -3.80769 -1.40606 0
M  V30 23074 H 2203.62 -4.76878 0.883866 0
M  V30 23075 H 2199.5 -4.59814 -0.330417 0
M  V30 23076 H 2203.04 -6.49055 2.55683 0
M  V30 23077 H 2198.94 -6.31552 1.33465 0
M  V30 23078 H 2199.71 -7.6421 2.9313 0
M  V30 23079 N 2202.37 -0.00838561 -1.57598 0
M  V30 23080 C 2203.61 0.679102 -1.92789 0
M  V30 23081 C 2203.97 1.7047 -0.883408 0
M  V30 23082 O 2205.17 2.44317 -1.12083 0
M  V30 23083 C 2203.45 1.29801 -3.32996 0
M  V30 23084 S 2205 2.00945 -3.90085 0
M  V30 23085 H 2201.82 0.224115 -0.674754 0
M  V30 23086 H 2204.42 -0.0670841 -1.95385 0
M  V30 23087 H 2203.13 0.538851 -4.06847 0
M  V30 23088 H 2202.66 2.08195 -3.33794 0
M  V30 23089 H 2204.67 3.28557 -3.7184 0
M  V30 23090 N 2203.85 1.55365 0.264492 0
M  V30 23091 C 2204.76 1.91936 1.34899 0
M  V30 23092 C 2205.77 0.81762 1.53594 0
M  V30 23093 O 2206.95 1.11745 1.67556 0
M  V30 23094 C 2204.01 2.19126 2.68672 0
M  V30 23095 C 2203.08 3.42634 2.58651 0
M  V30 23096 C 2202.31 3.68517 3.86045 0
M  V30 23097 O 2202.53 2.96765 4.87121 0
M  V30 23098 O 2201.47 4.62051 3.85736 0
M  V30 23099 H 2205.29 2.84272 1.06878 0
M  V30 23100 H 2202.88 1.4202 0.46375 0
M  V30 23101 H 2204.76 2.38001 3.47755 0
M  V30 23102 H 2203.43 1.29971 2.96461 0
M  V30 23103 H 2202.34 3.29086 1.77914 0
M  V30 23104 H 2203.67 4.32035 2.3581 0
M  V30 23105 N 2205.33 -0.529387 1.48443 0
M  V30 23106 C 2206.27 -1.63391 1.63009 0
M  V30 23107 C 2207.24 -1.59248 0.472148 0
M  V30 23108 O 2208.43 -1.77664 0.695704 0
M  V30 23109 C 2205.57 -3.0165 1.67635 0
M  V30 23110 C 2204.68 -3.16022 2.94541 0
M  V30 23111 C 2203.82 -4.44844 2.90323 0
M  V30 23112 C 2202.85 -4.52747 4.11931 0
M  V30 23113 N 2201.99 -5.72958 4.05788 0
M  V30 23114 H 2206.83 -1.5028 2.57332 0
M  V30 23115 H 2204.37 -0.731634 1.27615 0
M  V30 23116 H 2206.33 -3.81748 1.68299 0
M  V30 23117 H 2204.96 -3.1353 0.768025 0
M  V30 23118 H 2204.01 -2.29172 3.03619 0
M  V30 23119 H 2205.32 -3.17723 3.84518 0
M  V30 23120 H 2204.47 -5.33233 2.89391 0
M  V30 23121 H 2203.21 -4.45665 1.98076 0
M  V30 23122 H 2202.22 -3.62764 4.13137 0
M  V30 23123 H 2203.44 -4.53663 5.05338 0
M  V30 23124 H 2201.39 -5.74675 3.16361 0
M  V30 23125 H 2201.31 -5.76155 4.8947 0
M  V30 23126 H 2202.57 -6.63633 4.08915 0
M  V30 23127 N 2206.8 -1.37041 -0.778305 0
M  V30 23128 C 2207.75 -1.32272 -1.89137 0
M  V30 23129 C 2208.72 -0.189416 -1.65016 0
M  V30 23130 O 2209.91 -0.377726 -1.87024 0
M  V30 23131 C 2207.05 -1.129 -3.2611 0
M  V30 23132 C 2206.16 -2.35403 -3.62229 0
M  V30 23133 C 2205.29 -2.08954 -4.88376 0
M  V30 23134 C 2204.33 -3.27359 -5.17206 0
M  V30 23135 N 2203.47 -3.00504 -6.34541 0
M  V30 23136 H 2208.31 -2.2744 -1.92548 0
M  V30 23137 H 2205.85 -1.13027 -0.941453 0
M  V30 23138 H 2207.8 -0.996907 -4.05114 0
M  V30 23139 H 2206.43 -0.213815 -3.22091 0
M  V30 23140 H 2205.49 -2.59375 -2.7826 0
M  V30 23141 H 2206.8 -3.23728 -3.79476 0
M  V30 23142 H 2205.95 -1.92739 -5.75271 0
M  V30 23143 H 2204.69 -1.17957 -4.7322 0
M  V30 23144 H 2203.7 -3.4412 -4.2879 0
M  V30 23145 H 2204.92 -4.19198 -5.34275 0
M  V30 23146 H 2202.87 -2.12129 -6.20755 0
M  V30 23147 H 2202.78 -3.8237 -6.52173 0
M  V30 23148 H 2204.05 -2.87891 -7.24389 0
M  V30 23149 N 2208.28 1.00373 -1.21503 0
M  V30 23150 C 2209.53 1.73825 -1.03098 0
M  V30 23151 C 2209.85 1.90056 0.436307 0
M  V30 23152 O 2209.12 1.45238 1.31464 0
M  V30 23153 H 2207.7 0.644009 -0.378498 0
M  V30 23154 H 2210.36 1.20947 -1.52833 0
M  V30 23155 H 2209.46 2.73692 -1.49996 0
M  V30 23156 N 2209.76 1.02298 1.19887 0
M  V30 23157 C 2211.01 0.726793 1.89972 0
M  V30 23158 C 2211.36 -0.736109 1.77762 0
M  V30 23159 O 2210.65 -1.52854 1.15525 0
M  V30 23160 C 2210.85 1.10524 3.39881 0
M  V30 23161 C 2210.68 2.60339 3.6668 0
M  V30 23162 C 2209.45 3.2722 3.85039 0
M  V30 23163 C 2211.64 3.58538 3.6872 0
M  V30 23164 N 2209.63 4.66199 3.99414 0
M  V30 23165 C 2211 4.83108 3.88596 0
M  V30 23166 C 2213.05 3.52421 3.51716 0
M  V30 23167 C 2211.76 6.02298 3.93229 0
M  V30 23168 C 2213.78 4.7102 3.57624 0
M  V30 23169 C 2213.14 5.94401 3.77978 0
M  V30 23170 H 2209.24 0.317725 0.714545 0
M  V30 23171 H 2211.83 1.30909 1.44121 0
M  V30 23172 H 2210 0.55121 3.84469 0
M  V30 23173 H 2211.73 0.761923 3.97463 0
M  V30 23174 H 2208.48 2.77639 3.83684 0
M  V30 23175 H 2208.91 5.38376 4.10464 0
M  V30 23176 H 2213.55 2.58021 3.3494 0
M  V30 23177 H 2211.27 6.97072 4.08799 0
M  V30 23178 H 2214.85 4.67908 3.45765 0
M  V30 23179 H 2213.73 6.84637 3.82416 0
M  V30 23180 N 2211.24 -1.35782 0.800057 0
M  V30 23181 C 2212.49 -1.98204 0.373905 0
M  V30 23182 C 2212.8 -1.64194 -1.06299 0
M  V30 23183 O 2214.01 -2.19931 -1.59194 0
M  V30 23184 C 2212.46 -3.54561 0.617594 0
M  V30 23185 C 2212.07 -3.97486 2.06661 0
M  V30 23186 C 2213.81 -4.23725 0.256476 0
M  V30 23187 C 2211.72 -5.46663 2.25639 0
M  V30 23188 H 2210.65 -0.741621 0.136068 0
M  V30 23189 H 2213.3 -1.54937 0.983193 0
M  V30 23190 H 2211.68 -3.95952 -0.0615552 0
M  V30 23191 H 2212.86 -3.67266 2.78303 0
M  V30 23192 H 2211.17 -3.41193 2.38697 0
M  V30 23193 H 2213.77 -5.33373 0.376412 0
M  V30 23194 H 2214.11 -4.08607 -0.796621 0
M  V30 23195 H 2214.65 -3.87733 0.889282 0
M  V30 23196 H 2211.38 -5.66741 3.2937 0
M  V30 23197 H 2210.9 -5.78475 1.58514 0
M  V30 23198 H 2212.58 -6.13036 2.06872 0
M  V30 23199 N 2212.72 -0.552988 -1.4758 0
M  V30 23200 C 2213.96 -0.0274004 -2.02781 0
M  V30 23201 C 2214.29 1.31732 -1.4269 0
M  V30 23202 O 2213.57 1.85622 -0.58093 0
M  V30 23203 C 2213.85 0.0701738 -3.60032 0
M  V30 23204 C 2213.71 -1.30134 -4.30564 0
M  V30 23205 C 2215.02 0.785694 -4.3303 0
M  V30 23206 H 2212.14 -0.0114315 -0.736911 0
M  V30 23207 H 2214.79 -0.714463 -1.76055 0
M  V30 23208 H 2212.94 0.655315 -3.82933 0
M  V30 23209 H 2214.61 -1.92936 -4.19015 0
M  V30 23210 H 2212.85 -1.87715 -3.91082 0
M  V30 23211 H 2213.52 -1.18583 -5.39112 0
M  V30 23212 H 2216 0.288909 -4.15096 0
M  V30 23213 H 2214.87 0.822917 -5.42696 0
M  V30 23214 H 2215.13 1.84093 -4.01948 0
M  V30 23215 N 2214.19 1.54923 -0.28923 0
M  V30 23216 C 2215.47 1.91952 0.375998 0
M  V30 23217 C 2215.85 1.21514 1.7262 0
M  V30 23218 O 2215.2 0.346807 2.25853 0
M  V30 23219 C 2215.41 3.45366 0.502318 0
M  V30 23220 C 2216.76 4.17399 0.778667 0
M  V30 23221 O 2217.78 3.51337 0.586585 0
M  V30 23222 O 2216.64 5.3433 1.14689 0
M  V30 23223 H 2213.73 0.800376 0.208153 0
M  V30 23224 H 2216.28 1.66332 -0.336423 0
M  V30 23225 H 2215.05 3.88735 -0.447324 0
M  V30 23226 H 2214.67 3.76985 1.26366 0
M  V30 23227 N 2215.67 0.0167433 1.57591 0
M  V30 23228 C 2216.92 -0.663843 1.90463 0
M  V30 23229 C 2217.23 -1.73997 0.893546 0
M  V30 23230 O 2218.44 -2.47635 1.11307 0
M  V30 23231 C 2216.9 -1.23198 3.38157 0
M  V30 23232 C 2216.5 -0.189787 4.47598 0
M  V30 23233 C 2218.25 -1.88979 3.80115 0
M  V30 23234 C 2216.15 -0.768861 5.86381 0
M  V30 23235 H 2215.08 -0.251716 0.710742 0
M  V30 23236 H 2217.74 0.0800249 1.83325 0
M  V30 23237 H 2216.12 -2.02706 3.40186 0
M  V30 23238 H 2217.29 0.581926 4.57111 0
M  V30 23239 H 2215.61 0.368548 4.14766 0
M  V30 23240 H 2218.2 -2.33238 4.81149 0
M  V30 23241 H 2218.55 -2.72737 3.14516 0
M  V30 23242 H 2219.08 -1.1618 3.80456 0
M  V30 23243 H 2215.82 0.030311 6.55493 0
M  V30 23244 H 2215.34 -1.50935 5.80499 0
M  V30 23245 H 2217.02 -1.2624 6.34565 0
M  V30 23246 N 2217.15 -1.55503 -0.256249 0
M  V30 23247 C 2218.38 -1.80941 -1.00339 0
M  V30 23248 C 2218.79 -0.591171 -1.79306 0
M  V30 23249 O 2218.15 0.44005 -1.77115 0
M  V30 23250 C 2218.2 -3.0448 -1.9487 0
M  V30 23251 O 2217.92 -4.216 -1.19099 0
M  V30 23252 C 2219.42 -3.42648 -2.81259 0
M  V30 23253 H 2216.64 -0.602344 -0.295674 0
M  V30 23254 H 2219.19 -2.02547 -0.281962 0
M  V30 23255 H 2217.34 -2.84952 -2.62452 0
M  V30 23256 H 2217.76 -4.91555 -1.8296 0
M  V30 23257 H 2219.23 -4.32217 -3.43355 0
M  V30 23258 H 2219.71 -2.62808 -3.51893 0
M  V30 23259 H 2220.31 -3.64495 -2.19143 0
M  V30 23260 N 2218.63 0.521507 -1.48721 0
M  V30 23261 C 2219.85 1.30615 -1.61104 0
M  V30 23262 C 2220.28 1.86084 -0.274643 0
M  V30 23263 O 2219.64 1.64836 0.754908 0
M  V30 23264 C 2219.68 2.42685 -2.66714 0
M  V30 23265 O 2218.79 3.45963 -2.24462 0
M  V30 23266 H 2218.13 0.38649 -0.539927 0
M  V30 23267 H 2220.66 0.626611 -1.94768 0
M  V30 23268 H 2220.67 2.88749 -2.8825 0
M  V30 23269 H 2219.34 2.01675 -3.63731 0
M  V30 23270 H 2217.92 3.0596 -2.13174 0
M  V30 23271 N 2220.11 1.37452 0.771027 0
M  V30 23272 C 2221.04 1.29149 1.89349 0
M  V30 23273 C 2222.05 0.207152 1.61477 0
M  V30 23274 O 2223.24 0.463354 1.72381 0
M  V30 23275 C 2220.34 0.974252 3.24594 0
M  V30 23276 C 2219.51 2.1642 3.80107 0
M  V30 23277 C 2218.57 1.81712 4.93829 0
M  V30 23278 O 2217.6 2.54015 5.09377 0
M  V30 23279 N 2218.8 0.761674 5.75481 0
M  V30 23280 H 2221.57 2.25867 1.96987 0
M  V30 23281 H 2219.13 1.31086 0.950168 0
M  V30 23282 H 2221.12 0.722898 3.98191 0
M  V30 23283 H 2219.69 0.0956076 3.12454 0
M  V30 23284 H 2218.91 2.57726 2.9828 0
M  V30 23285 H 2220.2 2.95875 4.13927 0
M  V30 23286 H 2219.59 0.161708 5.65469 0
M  V30 23287 H 2218.15 0.570178 6.49301 0
M  V30 23288 N 2221.58 -0.997276 1.22033 0
M  V30 23289 C 2222.83 -1.73876 1.04379 0
M  V30 23290 C 2223.16 -1.89589 -0.420682 0
M  V30 23291 O 2222.44 -1.43586 -1.312 0
M  V30 23292 C 2222.72 -3.14688 1.75052 0
M  V30 23293 C 2222.57 -3.06651 3.29067 0
M  V30 23294 C 2223.89 -4.13772 1.49936 0
M  V30 23295 H 2221.01 -0.631127 0.380589 0
M  V30 23296 H 2223.65 -1.16214 1.50314 0
M  V30 23297 H 2221.8 -3.63917 1.36002 0
M  V30 23298 H 2223.48 -2.65076 3.77534 0
M  V30 23299 H 2221.72 -2.43562 3.58971 0
M  V30 23300 H 2222.39 -4.06275 3.73691 0
M  V30 23301 H 2224.87 -3.73281 1.83849 0
M  V30 23302 H 2223.74 -5.10424 2.01887 0
M  V30 23303 H 2224 -4.39994 0.431006 0
M  V30 23304 N 2223.06 -1.02932 -1.19343 0
M  V30 23305 C 2223.99 -0.568609 -2.22035 0
M  V30 23306 C 2225.01 0.355751 -1.58866 0
M  V30 23307 O 2226.2 0.152072 -1.77851 0
M  V30 23308 C 2223.3 0.190693 -3.38363 0
M  V30 23309 C 2222.47 -0.738719 -4.31117 0
M  V30 23310 C 2221.53 -0.0247422 -5.26194 0
M  V30 23311 O 2220.55 -0.651454 -5.6546 0
M  V30 23312 N 2221.76 1.24584 -5.66974 0
M  V30 23313 H 2224.52 -1.45181 -2.62188 0
M  V30 23314 H 2222.08 -0.908405 -1.34013 0
M  V30 23315 H 2224.07 0.677891 -3.98982 0
M  V30 23316 H 2222.64 0.975314 -2.96996 0
M  V30 23317 H 2221.86 -1.406 -3.68273 0
M  V30 23318 H 2223.15 -1.37037 -4.89998 0
M  V30 23319 H 2222.55 1.77573 -5.37107 0
M  V30 23320 H 2221.11 1.67753 -6.29843 0
M  V30 23321 N 2224.54 1.35356 -0.807246 0
M  V30 23322 C 2225.77 2.02988 -0.400413 0
M  V30 23323 C 2226.18 1.60834 0.988831 0
M  V30 23324 O 2225.54 0.806204 1.63727 0
M  V30 23325 C 2225.59 3.58367 -0.47493 0
M  V30 23326 O 2225.31 3.98989 -1.8094 0
M  V30 23327 C 2226.81 4.43258 -0.0609891 0
M  V30 23328 H 2224.03 0.651001 -0.162598 0
M  V30 23329 H 2226.58 1.72963 -1.09105 0
M  V30 23330 H 2224.73 3.87038 0.167466 0
M  V30 23331 H 2225.15 4.93637 -1.77265 0
M  V30 23332 H 2226.62 5.51756 -0.164242 0
M  V30 23333 H 2227.1 4.2781 0.993756 0
M  V30 23334 H 2227.7 4.19884 -0.676566 0
M  V30 23335 N 2226.02 0.560807 1.47284 0
M  V30 23336 C 2226.93 -0.187913 2.33846 0
M  V30 23337 C 2227.94 -0.908267 1.48413 0
M  V30 23338 O 2229.12 -0.876357 1.81334 0
M  V30 23339 C 2226.19 -1.20245 3.2518 0
M  V30 23340 C 2225.25 -0.489133 4.26504 0
M  V30 23341 C 2224.48 -1.45533 5.13474 0
M  V30 23342 O 2224.7 -2.69041 5.02964 0
M  V30 23343 O 2223.64 -0.977859 5.93904 0
M  V30 23344 H 2227.46 0.52223 2.99176 0
M  V30 23345 H 2225.05 0.321389 1.45902 0
M  V30 23346 H 2226.93 -1.78799 3.81587 0
M  V30 23347 H 2225.6 -1.89445 2.62474 0
M  V30 23348 H 2224.51 0.137693 3.73847 0
M  V30 23349 H 2225.84 0.161485 4.91935 0
M  V30 23350 N 2227.5 -1.54768 0.297442 0
M  V30 23351 C 2228.91 -1.59502 -0.0560543 0
M  V30 23352 C 2229.11 -1.31446 -1.52722 0
M  V30 23353 O 2228.17 -1.08615 -2.27945 0
M  V30 23354 C 2229.48 -2.98787 0.338683 0
M  V30 23355 C 2231.03 -3.1168 0.287152 0
M  V30 23356 C 2231.5 -4.53268 0.656659 0
M  V30 23357 N 2233 -4.59178 0.609058 0
M  V30 23358 C 2233.73 -5.668 0.867485 0
M  V30 23359 N 2233.23 -6.82474 1.19169 0
M  V30 23360 N 2235.02 -5.56453 0.794785 0
M  V30 23361 H 2227.17 -1.71265 1.25627 0
M  V30 23362 H 2229.43 -0.799719 0.509071 0
M  V30 23363 H 2229.14 -3.24228 1.36268 0
M  V30 23364 H 2229.01 -3.75929 -0.309442 0
M  V30 23365 H 2231.4 -2.8599 -0.727598 0
M  V30 23366 H 2231.48 -2.36701 0.96985 0
M  V30 23367 H 2231.13 -4.79688 1.6692 0
M  V30 23368 H 2231.06 -5.26578 -0.0480724 0
M  V30 23369 H 2233.55 -3.76092 0.369265 0
M  V30 23370 H 2233.86 -7.6047 1.37496 0
M  V30 23371 H 2232.2 -6.84035 1.2297 0
M  V30 23372 H 2235.4 -4.64961 0.54118 0
M  V30 23373 H 2235.57 -6.40244 0.999557 0
M  V30 23374 N 2228.97 -0.0251005 -1.5758 0
M  V30 23375 C 2229.92 0.976133 -2.11127 0
M  V30 23376 C 2230.92 1.33957 -1.03691 0
M  V30 23377 O 2232.12 1.32227 -1.22131 0
M  V30 23378 H 2228.5 0.33255 -0.674474 0
M  V30 23379 H 2230.47 0.499171 -2.94195 0
M  V30 23380 C 2229.22 2.25076 -2.65021 0
M  V30 23381 H 2228.54 1.97984 -3.47336 0
M  V30 23382 H 2229.98 2.93352 -3.06138 0
M  V30 23383 C 2228.44 2.97776 -1.57579 0
M  V30 23384 O 2228.97 3.89731 -0.973272 0
M  V30 23385 N 2227.18 2.60041 -1.2972 0
M  V30 23386 H 2226.72 1.85342 -1.78903 0
M  V30 23387 H 2226.68 3.08993 -0.580564 0
M  V30 23388 N 2230.45 1.55637 0.247999 0
M  V30 23389 C 2231.7 1.76619 0.974103 0
M  V30 23390 C 2232.01 0.588829 1.86527 0
M  V30 23391 O 2233.22 0.681641 2.62804 0
M  V30 23392 C 2231.68 3.12682 1.78207 0
M  V30 23393 C 2231.28 4.38063 0.938353 0
M  V30 23394 C 2233.03 3.43004 2.50098 0
M  V30 23395 C 2230.94 5.65158 1.74215 0
M  V30 23396 H 2229.87 0.658411 0.367438 0
M  V30 23397 H 2232.52 1.82068 0.228808 0
M  V30 23398 H 2230.9 3.01337 2.56928 0
M  V30 23399 H 2232.07 4.60393 0.193554 0
M  V30 23400 H 2230.39 4.15068 0.332832 0
M  V30 23401 H 2232.98 4.35176 3.10687 0
M  V30 23402 H 2233.33 2.64277 3.21657 0
M  V30 23403 H 2233.86 3.55559 1.78388 0
M  V30 23404 H 2230.6 6.46703 1.07031 0
M  V30 23405 H 2230.12 5.46931 2.46226 0
M  V30 23406 H 2231.8 6.04374 2.30956 0
M  V30 23407 N 2231.93 -0.513613 1.48996 0
M  V30 23408 C 2232.88 -1.63741 1.65201 0
M  V30 23409 C 2233.87 -1.61282 0.518118 0
M  V30 23410 O 2235.08 -1.65942 0.697364 0
M  V30 23411 H 2231.45 -0.542565 0.520699 0
M  V30 23412 H 2233.43 -1.47222 2.59554 0
M  V30 23413 C 2232.17 -3.01942 1.72414 0
M  V30 23414 H 2231.5 -3.04535 2.59034 0
M  V30 23415 H 2232.94 -3.80145 1.87792 0
M  V30 23416 C 2231.4 -3.33658 0.466238 0
M  V30 23417 O 2231.93 -3.99564 -0.413674 0
M  V30 23418 N 2230.13 -2.88686 0.332981 0
M  V30 23419 H 2229.68 -2.35229 1.05001 0
M  V30 23420 H 2229.64 -3.10275 -0.507611 0
M  V30 23421 N 2233.41 -1.37859 -0.763727 0
M  V30 23422 C 2234.83 -1.18834 -1.0654 0
M  V30 23423 C 2235.03 -0.0300077 -2.01478 0
M  V30 23424 O 2234.08 0.627404 -2.44581 0
M  V30 23425 C 2235.39 -2.51045 -1.6552 0
M  V30 23426 C 2236.94 -2.57638 -1.7774 0
M  V30 23427 C 2237.42 -3.9 -2.40134 0
M  V30 23428 N 2238.91 -3.91485 -2.47576 0
M  V30 23429 C 2239.64 -4.90656 -2.96723 0
M  V30 23430 N 2239.14 -6.00223 -3.45983 0
M  V30 23431 N 2240.93 -4.78053 -2.95671 0
M  V30 23432 H 2233.08 -2.1198 -0.133519 0
M  V30 23433 H 2235.35 -0.940135 -0.121863 0
M  V30 23434 H 2235.05 -3.36209 -1.0323 0
M  V30 23435 H 2234.93 -2.68712 -2.64714 0
M  V30 23436 H 2237.31 -1.72876 -2.39161 0
M  V30 23437 H 2237.39 -2.43847 -0.772793 0
M  V30 23438 H 2237.04 -4.7518 -1.7935 0
M  V30 23439 H 2236.97 -4.01098 -3.41216 0
M  V30 23440 H 2239.46 -3.12341 -2.12724 0
M  V30 23441 H 2239.77 -6.71836 -3.81911 0
M  V30 23442 H 2238.12 -6.03857 -3.44067 0
M  V30 23443 H 2241.31 -3.91573 -2.56492 0
M  V30 23444 H 2241.48 -5.55494 -3.33662 0
M  V30 23445 N 2234.89 0.990791 -1.22561 0
M  V30 23446 C 2235.85 2.06288 -0.998899 0
M  V30 23447 C 2236.85 1.60761 0.0354551 0
M  V30 23448 O 2238.04 1.7301 -0.203261 0
M  V30 23449 C 2235.17 3.37075 -0.509263 0
M  V30 23450 H 2236.37 2.27833 -1.95018 0
M  V30 23451 H 2233.92 1.16267 -1.04459 0
M  V30 23452 H 2234.65 3.21215 0.446279 0
M  V30 23453 H 2234.44 3.71455 -1.25554 0
M  V30 23454 H 2235.93 4.15949 -0.370961 0
M  V30 23455 N 2236.37 1.03564 1.18795 0
M  V30 23456 C 2237.3 0.566798 2.21049 0
M  V30 23457 C 2238.28 -0.395965 1.57705 0
M  V30 23458 O 2239.46 -0.311465 1.85909 0
M  V30 23459 C 2236.59 -0.172644 3.3826 0
M  V30 23460 C 2235.63 0.742594 4.19985 0
M  V30 23461 S 2236.47 2.22263 4.87195 0
M  V30 23462 C 2237.62 1.49389 6.07811 0
M  V30 23463 H 2237.86 1.43317 2.60476 0
M  V30 23464 H 2235.39 0.846156 1.29149 0
M  V30 23465 H 2237.35 -0.59312 4.06192 0
M  V30 23466 H 2236.01 -1.01483 2.97254 0
M  V30 23467 H 2235.2 0.171354 5.03709 0
M  V30 23468 H 2234.8 1.10169 3.57406 0
M  V30 23469 H 2237.09 0.784175 6.72946 0
M  V30 23470 H 2238.04 2.30798 6.69431 0
M  V30 23471 H 2238.45 0.988428 5.55779 0
M  V30 23472 N 2237.84 -1.34926 0.814413 0
M  V30 23473 C 2239.07 -2.02773 0.411172 0
M  V30 23474 C 2239.49 -1.61356 -0.980288 0
M  V30 23475 O 2238.84 -0.814876 -1.63297 0
M  V30 23476 C 2238.89 -3.5811 0.493928 0
M  V30 23477 O 2238.62 -3.98024 1.83054 0
M  V30 23478 C 2240.12 -4.43219 0.0844953 0
M  V30 23479 H 2237.34 -0.65013 0.166048 0
M  V30 23480 H 2239.88 -1.72382 1.10021 0
M  V30 23481 H 2238.04 -3.87121 -0.146938 0
M  V30 23482 H 2238.45 -4.9269 1.7988 0
M  V30 23483 H 2239.92 -5.51661 0.193501 0
M  V30 23484 H 2240.4 -4.28331 -0.971054 0
M  V30 23485 H 2241.01 -4.19519 0.698824 0
M  V30 23486 N 2239.32 -0.56861 -1.46985 0
M  V30 23487 C 2240.57 -0.0466248 -2.01646 0
M  V30 23488 C 2240.88 1.31584 -1.44723 0
M  V30 23489 O 2242.09 1.92838 -1.91117 0
M  V30 23490 C 2240.55 -0.0328152 -3.59885 0
M  V30 23491 C 2240.15 -1.39274 -4.25801 0
M  V30 23492 C 2241.9 0.435964 -4.22255 0
M  V30 23493 C 2239.8 -1.33742 -5.76079 0
M  V30 23494 H 2238.73 -0.0136602 -0.753876 0
M  V30 23495 H 2241.39 -0.718161 -1.68863 0
M  V30 23496 H 2239.77 0.704601 -3.89681 0
M  V30 23497 H 2240.94 -2.14877 -4.07633 0
M  V30 23498 H 2239.26 -1.80038 -3.75467 0
M  V30 23499 H 2241.85 0.495926 -5.32395 0
M  V30 23500 H 2242.2 1.45046 -3.90214 0
M  V30 23501 H 2242.73 -0.246947 -3.97033 0
M  V30 23502 H 2239.47 -2.32827 -6.12757 0
M  V30 23503 H 2238.99 -0.623372 -5.96552 0
M  V30 23504 H 2240.67 -1.04431 -6.38516 0
M  V30 23505 N 2240.8 1.54608 -0.305646 0
M  V30 23506 C 2241.73 2.2665 0.561442 0
M  V30 23507 C 2242.71 1.26774 1.13412 0
M  V30 23508 O 2243.9 1.55555 1.1626 0
M  V30 23509 C 2241.03 3.01078 1.73116 0
M  V30 23510 C 2239.98 4.0814 1.28863 0
M  V30 23511 C 2239.31 4.70309 2.54388 0
M  V30 23512 C 2240.61 5.20637 0.416487 0
M  V30 23513 H 2242.3 2.99374 -0.0394428 0
M  V30 23514 H 2239.85 1.43986 -0.0204103 0
M  V30 23515 H 2241.8 3.50199 2.34389 0
M  V30 23516 H 2240.52 2.2594 2.35836 0
M  V30 23517 H 2239.18 3.59876 0.698928 0
M  V30 23518 H 2238.83 3.91806 3.15432 0
M  V30 23519 H 2238.53 5.42618 2.25476 0
M  V30 23520 H 2240.05 5.22196 3.16455 0
M  V30 23521 H 2241.47 5.65624 0.935017 0
M  V30 23522 H 2239.86 5.99693 0.220941 0
M  V30 23523 H 2240.93 4.81687 -0.557246 0
M  V30 23524 N 2242.28 0.033457 1.57564 0
M  V30 23525 C 2243.21 -0.975775 2.07392 0
M  V30 23526 C 2244.22 -1.28608 0.998189 0
M  V30 23527 O 2245.41 -1.24997 1.27428 0
M  V30 23528 C 2242.51 -2.30205 2.48714 0
M  V30 23529 C 2241.68 -2.17627 3.79417 0
M  V30 23530 C 2240.74 -3.33226 4.07243 0
M  V30 23531 O 2239.77 -3.09918 4.7743 0
M  V30 23532 N 2240.97 -4.57154 3.57758 0
M  V30 23533 H 2243.74 -0.550608 2.94599 0
M  V30 23534 H 2241.3 -0.153202 1.61174 0
M  V30 23535 H 2243.29 -3.06374 2.64419 0
M  V30 23536 H 2241.86 -2.64348 1.6685 0
M  V30 23537 H 2241.08 -1.26159 3.73467 0
M  V30 23538 H 2242.37 -2.06432 4.65041 0
M  V30 23539 H 2241.77 -4.78983 3.00984 0
M  V30 23540 H 2240.32 -5.30476 3.78733 0
M  V30 23541 N 2243.76 -1.55766 -0.239741 0
M  V30 23542 C 2244.72 -1.90105 -1.28034 0
M  V30 23543 C 2245.72 -0.77808 -1.40722 0
M  V30 23544 O 2246.91 -1.04601 -1.39299 0
M  V30 23545 C 2244.04 -2.13581 -2.65699 0
M  V30 23546 H 2245.23 -2.83158 -0.987998 0
M  V30 23547 H 2242.79 -1.48768 -0.479356 0
M  V30 23548 H 2243.52 -1.2302 -3.00061 0
M  V30 23549 H 2243.31 -2.95374 -2.5787 0
M  V30 23550 H 2244.8 -2.41307 -3.40823 0
M  V30 23551 N 2245.23 0.505704 -1.49266 0
M  V30 23552 C 2246.48 1.26199 -1.5875 0
M  V30 23553 C 2246.81 1.92296 -0.271261 0
M  V30 23554 O 2246.09 1.80491 0.724799 0
M  V30 23555 C 2246.37 2.33263 -2.74336 0
M  V30 23556 C 2246.22 1.71698 -4.1574 0
M  V30 23557 C 2247.54 3.3486 -2.85581 0
M  V30 23558 H 2244.66 0.457468 -0.577834 0
M  V30 23559 H 2247.3 0.560865 -1.81533 0
M  V30 23560 H 2245.45 2.93063 -2.55042 0
M  V30 23561 H 2247.13 1.15761 -4.46539 0
M  V30 23562 H 2245.37 1.02128 -4.21607 0
M  V30 23563 H 2246.04 2.49332 -4.92481 0
M  V30 23564 H 2248.52 2.85045 -3.03132 0
M  V30 23565 H 2247.39 4.0714 -3.68142 0
M  V30 23566 H 2247.65 3.969 -1.94739 0
M  V30 23567 N 2246.71 1.38262 0.756405 0
M  V30 23568 C 2247.94 1.37542 1.54563 0
M  V30 23569 C 2248.36 -0.0354999 1.88767 0
M  V30 23570 O 2247.71 -1.00137 1.52574 0
M  V30 23571 C 2247.76 2.22838 2.8465 0
M  V30 23572 O 2247.48 3.58434 2.51906 0
M  V30 23573 C 2248.99 2.30268 3.78803 0
M  V30 23574 H 2246.21 0.470561 0.478344 0
M  V30 23575 H 2248.75 1.81804 0.936349 0
M  V30 23576 H 2246.9 1.82046 3.41962 0
M  V30 23577 H 2247.32 4.03314 3.35318 0
M  V30 23578 H 2248.79 2.94241 4.6704 0
M  V30 23579 H 2249.27 1.31552 4.19035 0
M  V30 23580 H 2249.88 2.71439 3.27416 0
M  V30 23581 N 2248.19 -0.984277 1.23084 0
M  V30 23582 C 2249.42 -1.76035 1.08717 0
M  V30 23583 C 2249.83 -1.85304 -0.361659 0
M  V30 23584 O 2249.19 -1.32941 -1.25032 0
M  V30 23585 C 2249.24 -3.1892 1.70212 0
M  V30 23586 O 2248.96 -3.10138 3.09428 0
M  V30 23587 C 2250.46 -4.12939 1.61235 0
M  V30 23588 H 2247.68 -0.552565 0.380674 0
M  V30 23589 H 2250.23 -1.23686 1.62856 0
M  V30 23590 H 2248.38 -3.68308 1.20116 0
M  V30 23591 H 2248.8 -4.00059 3.39195 0
M  V30 23592 H 2250.27 -5.10916 2.08971 0
M  V30 23593 H 2250.75 -4.3548 0.570452 0
M  V30 23594 H 2251.35 -3.69452 2.10678 0
M  V30 23595 N 2249.67 -1.04192 -1.18244 0
M  V30 23596 C 2250.92 -0.74605 -1.88256 0
M  V30 23597 C 2251.24 0.726299 -1.8043 0
M  V30 23598 O 2250.5 1.54589 -1.20003 0
M  V30 23599 C 2250.8 -1.15917 -3.3808 0
M  V30 23600 C 2250.46 -2.63202 -3.66109 0
M  V30 23601 C 2249.13 -3.03438 -3.73468 0
M  V30 23602 C 2251.48 -3.58426 -3.78391 0
M  V30 23603 C 2248.81 -4.37785 -3.90591 0
M  V30 23604 C 2251.16 -4.92493 -3.9703 0
M  V30 23605 C 2249.82 -5.32399 -4.02626 0
M  V30 23606 H 2249.09 -0.272999 -0.688878 0
M  V30 23607 H 2251.74 -1.30717 -1.39947 0
M  V30 23608 H 2250.04 -0.516874 -3.88376 0
M  V30 23609 H 2251.74 -0.907585 -3.90594 0
M  V30 23610 H 2248.33 -2.31037 -3.60999 0
M  V30 23611 H 2252.51 -3.28485 -3.72036 0
M  V30 23612 H 2247.77 -4.6822 -3.93167 0
M  V30 23613 H 2251.94 -5.66182 -4.05476 0
M  V30 23614 H 2249.57 -6.36508 -4.15646 0
M  V30 23615 N 2251.15 1.34492 -0.821557 0
M  V30 23616 C 2252.11 2.27856 -0.247887 0
M  V30 23617 C 2253.11 1.50228 0.573426 0
M  V30 23618 O 2254.3 1.69784 0.38973 0
M  V30 23619 C 2251.43 3.34594 0.652639 0
M  V30 23620 H 2252.62 2.80105 -1.07151 0
M  V30 23621 H 2250.18 1.44601 -0.593316 0
M  V30 23622 H 2250.91 2.87557 1.49938 0
M  V30 23623 H 2250.7 3.92046 0.0652231 0
M  V30 23624 H 2252.19 4.0424 1.04786 0
M  V30 23625 N 2252.62 0.576397 1.46681 0
M  V30 23626 C 2253.59 -0.150199 2.28707 0
M  V30 23627 C 2254.59 -0.82477 1.38037 0
M  V30 23628 O 2255.78 -0.677691 1.60477 0
M  V30 23629 C 2252.91 -1.22187 3.1825 0
M  V30 23630 H 2254.1 0.570573 2.94422 0
M  V30 23631 H 2251.66 0.334105 1.52687 0
M  V30 23632 H 2252.39 -1.97442 2.57269 0
M  V30 23633 H 2252.18 -0.742744 3.85001 0
M  V30 23634 H 2253.67 -1.73166 3.80004 0
M  V30 23635 N 2254.1 -1.54444 0.313841 0
M  V30 23636 C 2255.35 -2.00686 -0.292072 0
M  V30 23637 C 2255.68 -1.2018 -1.52546 0
M  V30 23638 O 2254.96 -0.281565 -1.92451 0
M  V30 23639 C 2255.24 -3.54441 -0.635906 0
M  V30 23640 C 2255.09 -4.45678 0.607516 0
M  V30 23641 C 2256.41 -4.15269 -1.45739 0
M  V30 23642 H 2253.53 -0.729527 -0.104684 0
M  V30 23643 H 2256.17 -1.85105 0.42849 0
M  V30 23644 H 2254.32 -3.67848 -1.2498 0
M  V30 23645 H 2255.99 -4.44157 1.24589 0
M  V30 23646 H 2254.24 -4.15751 1.23829 0
M  V30 23647 H 2254.91 -5.51056 0.322612 0
M  V30 23648 H 2257.38 -4.05376 -0.938574 0
M  V30 23649 H 2256.26 -5.22983 -1.66674 0
M  V30 23650 H 2256.52 -3.67967 -2.45056 0
M  V30 23651 N 2255.58 -0.0418125 -1.57545 0
M  V30 23652 C 2256.54 0.920893 -2.09886 0
M  V30 23653 C 2257.54 1.24595 -1.0165 0
M  V30 23654 O 2258.73 1.18418 -1.27761 0
M  V30 23655 C 2255.87 2.23363 -2.57531 0
M  V30 23656 H 2257.06 0.467329 -2.96236 0
M  V30 23657 H 2254.61 0.20644 -1.54931 0
M  V30 23658 H 2255.35 2.7332 -1.74547 0
M  V30 23659 H 2255.13 2.01077 -3.36616 0
M  V30 23660 H 2256.62 2.9234 -2.98206 0
M  V30 23661 N 2257.06 1.55891 0.231477 0
M  V30 23662 C 2258.31 1.7809 0.955429 0
M  V30 23663 C 2258.63 0.608565 1.85261 0
M  V30 23664 O 2257.9 -0.375001 1.92277 0
M  V30 23665 H 2256.48 0.656836 0.355775 0
M  V30 23666 H 2259.14 1.93345 0.245717 0
M  V30 23667 H 2258.24 2.69847 1.56809 0
M  V30 23668 N 2258.54 -0.497781 1.49532 0
M  V30 23669 C 2259.78 -1.25355 1.59417 0
M  V30 23670 C 2260.12 -1.9215 0.281455 0
M  V30 23671 O 2259.39 -1.80873 -0.715217 0
M  V30 23672 C 2259.67 -2.31805 2.7557 0
M  V30 23673 C 2259.53 -1.69491 4.16645 0
M  V30 23674 C 2260.85 -3.33341 2.87353 0
M  V30 23675 H 2257.96 -0.454398 0.580252 0
M  V30 23676 H 2260.61 -0.55123 1.81828 0
M  V30 23677 H 2258.76 -2.91707 2.56592 0
M  V30 23678 H 2260.43 -1.13391 4.47147 0
M  V30 23679 H 2258.67 -0.998904 4.22143 0
M  V30 23680 H 2259.34 -2.46717 4.93796 0
M  V30 23681 H 2261.82 -2.83433 3.04639 0
M  V30 23682 H 2260.69 -4.05181 3.70296 0
M  V30 23683 H 2260.96 -3.95861 1.96841 0
M  V30 23684 N 2260.01 -1.38661 -0.749062 0
M  V30 23685 C 2261.26 -1.35317 -1.51054 0
M  V30 23686 C 2261.59 0.055341 -1.94121 0
M  V30 23687 O 2260.87 1.01746 -1.65765 0
M  V30 23688 C 2261.15 -2.31293 -2.75999 0
M  V30 23689 C 2261 -3.81024 -2.39041 0
M  V30 23690 C 2262.32 -2.25327 -3.78042 0
M  V30 23691 H 2259.44 -0.492854 -0.547963 0
M  V30 23692 H 2262.08 -1.69544 -0.857598 0
M  V30 23693 H 2260.23 -2.02235 -3.31713 0
M  V30 23694 H 2261.91 -4.20775 -1.89067 0
M  V30 23695 H 2260.15 -3.98485 -1.71442 0
M  V30 23696 H 2260.82 -4.43646 -3.28454 0
M  V30 23697 H 2263.3 -2.50989 -3.31879 0
M  V30 23698 H 2262.17 -2.94584 -4.63154 0
M  V30 23699 H 2262.43 -1.2536 -4.23954 0
M  V30 23700 N 2261.49 0.977736 -1.23605 0
M  V30 23701 C 2262.72 1.75201 -1.0949 0
M  V30 23702 C 2263.13 1.85815 0.356289 0
M  V30 23703 O 2262.47 1.33853 1.25813 0
M  V30 23704 C 2262.54 3.19445 -1.6491 0
M  V30 23705 C 2262.2 3.32333 -3.13694 0
M  V30 23706 C 2263.2 3.18448 -4.10959 0
M  V30 23707 C 2260.88 3.56896 -3.53456 0
M  V30 23708 C 2262.88 3.28934 -5.45968 0
M  V30 23709 C 2260.56 3.67022 -4.88609 0
M  V30 23710 C 2261.56 3.53052 -5.84674 0
M  V30 23711 O 2261.25 3.62814 -7.17371 0
M  V30 23712 H 2260.98 0.556566 -0.38368 0
M  V30 23713 H 2263.54 1.2369 -1.63982 0
M  V30 23714 H 2261.77 3.72216 -1.04842 0
M  V30 23715 H 2263.45 3.78643 -1.46233 0
M  V30 23716 H 2264.22 2.99366 -3.81583 0
M  V30 23717 H 2260.1 3.6684 -2.79195 0
M  V30 23718 H 2263.64 3.17947 -6.20931 0
M  V30 23719 H 2259.54 3.85614 -5.1766 0
M  V30 23720 H 2260.31 3.79592 -7.25157 0
M  V30 23721 N 2262.97 1.04818 1.1769 0
M  V30 23722 C 2264.22 0.757143 1.88136 0
M  V30 23723 C 2264.55 -0.713809 1.80606 0
M  V30 23724 O 2263.83 -1.52162 1.21149 0
M  V30 23725 C 2264.11 1.23346 3.38316 0
M  V30 23726 C 2263.96 2.76707 3.54617 0
M  V30 23727 C 2265.28 0.829491 4.32212 0
M  V30 23728 H 2262.4 0.276522 0.683158 0
M  V30 23729 H 2265.04 1.30151 1.38422 0
M  V30 23730 H 2263.19 0.770352 3.80786 0
M  V30 23731 H 2264.86 3.31113 3.21188 0
M  V30 23732 H 2263.11 3.16167 2.9702 0
M  V30 23733 H 2263.78 3.05096 4.60022 0
M  V30 23734 H 2266.25 1.22812 3.97563 0
M  V30 23735 H 2265.13 1.19043 5.35836 0
M  V30 23736 H 2265.39 -0.266814 4.41294 0
M  V30 23737 N 2264.45 -1.34055 0.828678 0
M  V30 23738 C 2265.38 -2.27324 0.199803 0
M  V30 23739 C 2266.36 -1.49167 -0.647142 0
M  V30 23740 O 2267.54 -1.7837 -0.609629 0
M  V30 23741 C 2264.67 -3.3095 -0.720396 0
M  V30 23742 C 2263.72 -4.26471 0.0497638 0
M  V30 23743 S 2264.55 -5.16854 1.40081 0
M  V30 23744 C 2265.71 -6.24013 0.485637 0
M  V30 23745 H 2265.94 -2.80314 0.990527 0
M  V30 23746 H 2263.47 -1.4119 0.624881 0
M  V30 23747 H 2265.43 -3.91141 -1.24574 0
M  V30 23748 H 2264.09 -2.76795 -1.48469 0
M  V30 23749 H 2263.28 -4.99791 -0.650017 0
M  V30 23750 H 2262.89 -3.70563 0.505844 0
M  V30 23751 H 2265.18 -6.76741 -0.320553 0
M  V30 23752 H 2266.12 -6.98052 1.18868 0
M  V30 23753 H 2266.53 -5.64455 0.0715101 0
M  V30 23754 N 2265.93 -0.584167 -1.46374 0
M  V30 23755 C 2267.16 -0.0758558 -2.06461 0
M  V30 23756 C 2267.57 1.2351 -1.43325 0
M  V30 23757 O 2266.91 1.7579 -0.533247 0
M  V30 23758 C 2266.97 0.16271 -3.59132 0
M  V30 23759 C 2266.63 -1.06287 -4.44468 0
M  V30 23760 C 2267.63 -1.97527 -4.80915 0
M  V30 23761 C 2265.32 -1.28512 -4.85582 0
M  V30 23762 C 2267.31 -3.0934 -5.57304 0
M  V30 23763 C 2265 -2.4063 -5.6173 0
M  V30 23764 C 2266 -3.30873 -5.97505 0
M  V30 23765 O 2265.68 -4.41044 -6.72113 0
M  V30 23766 H 2265.42 -0.0551843 -0.673744 0
M  V30 23767 H 2267.97 -0.805017 -1.88967 0
M  V30 23768 H 2266.2 0.946499 -3.74938 0
M  V30 23769 H 2267.89 0.619712 -4.01141 0
M  V30 23770 H 2268.65 -1.81573 -4.49729 0
M  V30 23771 H 2264.53 -0.591783 -4.57186 0
M  V30 23772 H 2268.08 -3.79803 -5.85146 0
M  V30 23773 H 2263.97 -2.56547 -5.92329 0
M  V30 23774 H 2264.74 -4.39429 -6.90539 0
M  V30 23775 N 2267.41 1.54275 -0.322027 0
M  V30 23776 C 2268.35 2.24282 0.544624 0
M  V30 23777 C 2269.32 1.23305 1.11288 0
M  V30 23778 O 2270.51 1.51983 1.15351 0
M  V30 23779 C 2267.65 3.00301 1.7004 0
M  V30 23780 C 2266.76 4.16092 1.16152 0
M  V30 23781 C 2265.9 4.79645 2.28285 0
M  V30 23782 C 2264.93 5.87543 1.71638 0
M  V30 23783 N 2264.07 6.44964 2.77427 0
M  V30 23784 H 2268.91 2.97942 -0.0589431 0
M  V30 23785 H 2266.45 1.47043 -0.0408604 0
M  V30 23786 H 2268.41 3.4262 2.38048 0
M  V30 23787 H 2267.04 2.28979 2.27527 0
M  V30 23788 H 2266.09 3.78567 0.373025 0
M  V30 23789 H 2267.4 4.93764 0.707 0
M  V30 23790 H 2266.55 5.24925 3.04201 0
M  V30 23791 H 2265.29 4.01351 2.77072 0
M  V30 23792 H 2264.3 5.41667 0.942187 0
M  V30 23793 H 2265.52 6.67733 1.23729 0
M  V30 23794 H 2263.47 5.69544 3.25509 0
M  V30 23795 H 2263.39 7.18044 2.36534 0
M  V30 23796 H 2264.65 6.949 3.53177 0
M  V30 23797 N 2268.88 0.0501669 1.5752 0
M  V30 23798 C 2269.81 -0.922529 2.14503 0
M  V30 23799 C 2270.79 -1.32518 1.06644 0
M  V30 23800 O 2271.98 -1.40007 1.34579 0
M  V30 23801 C 2269.11 -2.19771 2.6892 0
M  V30 23802 C 2268.06 -1.93516 3.81753 0
M  V30 23803 C 2267.39 -3.2748 4.22683 0
M  V30 23804 C 2268.69 -1.25756 5.06935 0
M  V30 23805 H 2270.38 -0.4479 2.96031 0
M  V30 23806 H 2267.93 -0.213999 1.42401 0
M  V30 23807 H 2269.88 -2.88216 3.07424 0
M  V30 23808 H 2268.61 -2.69438 1.84583 0
M  V30 23809 H 2267.27 -1.27483 3.4372 0
M  V30 23810 H 2266.91 -3.74946 3.35298 0
M  V30 23811 H 2266.61 -3.10711 4.98731 0
M  V30 23812 H 2268.14 -3.97158 4.63786 0
M  V30 23813 H 2269.55 -1.84234 5.42891 0
M  V30 23814 H 2267.95 -1.19317 5.88119 0
M  V30 23815 H 2269.02 -0.233451 4.84338 0
M  V30 23816 N 2270.36 -1.56011 -0.223207 0
M  V30 23817 C 2271.61 -1.78947 -0.947844 0
M  V30 23818 C 2271.94 -0.61864 -1.84399 0
M  V30 23819 O 2271.19 0.397059 -1.9163 0
M  V30 23820 C 2271.49 -3.07623 -1.81942 0
M  V30 23821 C 2271.16 -4.37857 -1.07665 0
M  V30 23822 C 2269.82 -4.73243 -0.871461 0
M  V30 23823 C 2272.17 -5.18269 -0.55199 0
M  V30 23824 C 2269.5 -5.86557 -0.129688 0
M  V30 23825 C 2271.85 -6.32354 0.176431 0
M  V30 23826 C 2270.51 -6.66343 0.392887 0
M  V30 23827 H 2269.78 -0.654815 -0.346841 0
M  V30 23828 H 2272.43 -1.90276 -0.216137 0
M  V30 23829 H 2270.74 -2.91408 -2.61894 0
M  V30 23830 H 2272.43 -3.2257 -2.38221 0
M  V30 23831 H 2269.02 -4.10072 -1.24655 0
M  V30 23832 H 2273.21 -4.91367 -0.69799 0
M  V30 23833 H 2268.46 -6.11381 0.0482604 0
M  V30 23834 H 2272.64 -6.93892 0.590489 0
M  V30 23835 H 2270.26 -7.53991 0.969598 0
M  V30 23836 N 2271.84 0.489844 -1.49794 0
M  V30 23837 C 2272.8 1.57243 -1.66755 0
M  V30 23838 C 2273.8 1.51501 -0.538894 0
M  V30 23839 O 2274.99 1.54454 -0.805572 0
M  V30 23840 C 2272.12 2.96893 -1.67533 0
M  V30 23841 H 2273.32 1.4353 -2.63323 0
M  V30 23842 H 2270.87 0.71489 -1.38993 0
M  V30 23843 H 2271.61 3.16072 -0.725893 0
M  V30 23844 H 2271.39 3.02469 -2.49509 0
M  V30 23845 H 2272.88 3.75526 -1.82674 0
M  V30 23846 N 2273.32 1.39056 0.741698 0
M  V30 23847 C 2274.57 1.35646 1.49815 0
M  V30 23848 C 2274.89 -0.0491299 1.94938 0
M  V30 23849 O 2274.16 -0.999111 1.68507 0
M  V30 23850 H 2272.74 0.499154 0.555746 0
M  V30 23851 H 2275.4 1.73855 0.880927 0
M  V30 23852 H 2274.49 2.0149 2.38344 0
M  V30 23853 N 2274.8 -0.971167 1.24121 0
M  V30 23854 C 2275.75 -2.05018 0.997587 0
M  V30 23855 C 2276.73 -1.60789 -0.0597464 0
M  V30 23856 O 2277.92 -1.76333 0.153547 0
M  V30 23857 C 2275.05 -3.38005 0.600616 0
M  V30 23858 C 2274.14 -3.88806 1.69384 0
M  V30 23859 N 2274.53 -4.12581 2.92593 0
M  V30 23860 C 2272.83 -4.17432 1.57055 0
M  V30 23861 C 2273.53 -4.54189 3.63439 0
M  V30 23862 N 2272.5 -4.59159 2.90987 0
M  V30 23863 H 2276.3 -2.2137 1.9332 0
M  V30 23864 H 2273.82 -1.15468 1.14196 0
M  V30 23865 H 2275.82 -4.14905 0.407323 0
M  V30 23866 H 2274.48 -3.23041 -0.327846 0
M  V30 23867 H 2275.49 -4.00133 3.28807 0
M  V30 23868 H 2272.16 -4.11421 0.70987 0
M  V30 23869 H 2273.55 -4.81025 4.6911 0
M  V30 23870 N 2276.27 -1.05441 -1.17133 0
M  V30 23871 C 2277.21 -0.615578 -2.20779 0
M  V30 23872 C 2278.22 0.321973 -1.59584 0
M  V30 23873 O 2279.41 0.114313 -1.78134 0
M  V30 23874 C 2276.51 0.118878 -3.38691 0
M  V30 23875 C 2275.68 -0.829999 -4.29453 0
M  V30 23876 C 2274.74 -0.13635 -5.26023 0
M  V30 23877 O 2273.77 -0.771249 -5.63951 0
M  V30 23878 N 2274.97 1.1253 -5.69489 0
M  V30 23879 H 2277.73 -1.5071 -2.59049 0
M  V30 23880 H 2275.29 -0.936627 -1.32056 0
M  V30 23881 H 2277.29 0.593108 -4.0033 0
M  V30 23882 H 2275.86 0.912097 -2.98998 0
M  V30 23883 H 2275.08 -1.4838 -3.65208 0
M  V30 23884 H 2276.36 -1.474 -4.86981 0
M  V30 23885 H 2275.76 1.6614 -5.40753 0
M  V30 23886 H 2274.32 1.54355 -6.3326 0
M  V30 23887 N 2277.75 1.33613 -0.835776 0
M  V30 23888 C 2279 1.97491 -0.429144 0
M  V30 23889 C 2279.32 1.66544 1.0143 0
M  V30 23890 O 2278.59 0.962774 1.70609 0
M  V30 23891 H 2277.17 0.730594 -0.155699 0
M  V30 23892 H 2279.83 1.6303 -1.06805 0
M  V30 23893 H 2278.93 3.07059 -0.558664 0
M  V30 23894 N 2279.23 0.591922 1.46062 0
M  V30 23895 C 2280.19 -0.125933 2.28854 0
M  V30 23896 C 2281.19 -0.810083 1.38904 0
M  V30 23897 O 2282.38 -0.660632 1.61187 0
M  V30 23898 C 2279.52 -1.18804 3.19528 0
M  V30 23899 H 2280.71 0.601768 2.93801 0
M  V30 23900 H 2278.26 0.350281 1.52324 0
M  V30 23901 H 2279 -1.94702 2.59348 0
M  V30 23902 H 2278.78 -0.701868 3.85767 0
M  V30 23903 H 2280.27 -1.69125 3.8182 0
M  V30 23904 N 2280.71 -1.54102 0.330204 0
M  V30 23905 C 2281.94 -2.04805 -0.271748 0
M  V30 23906 C 2282.35 -1.20561 -1.45814 0
M  V30 23907 O 2281.69 -0.230632 -1.82246 0
M  V30 23908 C 2281.75 -3.51306 -0.763176 0
M  V30 23909 C 2281.42 -4.56002 0.301785 0
M  V30 23910 C 2282.41 -5.07246 1.14008 0
M  V30 23911 C 2280.1 -5.00263 0.451881 0
M  V30 23912 C 2282.09 -6.01318 2.11413 0
M  V30 23913 C 2279.78 -5.94149 1.42935 0
M  V30 23914 C 2280.78 -6.44563 2.25893 0
M  V30 23915 O 2280.46 -7.36604 3.21978 0
M  V30 23916 H 2280.2 -0.673448 -0.0586812 0
M  V30 23917 H 2282.75 -1.99798 0.47643 0
M  V30 23918 H 2280.98 -3.53733 -1.56238 0
M  V30 23919 H 2282.67 -3.85049 -1.28421 0
M  V30 23920 H 2283.44 -4.73825 1.03513 0
M  V30 23921 H 2279.31 -4.60633 -0.183963 0
M  V30 23922 H 2282.86 -6.40592 2.76203 0
M  V30 23923 H 2278.76 -6.26986 1.5349 0
M  V30 23924 H 2279.52 -7.54498 3.17294 0
M  V30 23925 N 2282.19 -0.0585199 -1.57491 0
M  V30 23926 C 2283.41 0.623003 -1.97297 0
M  V30 23927 C 2283.83 1.63944 -0.936367 0
M  V30 23928 O 2283.19 1.82331 0.0785661 0
M  V30 23929 C 2283.24 1.3034 -3.37185 0
M  V30 23930 O 2282.96 0.327653 -4.36873 0
M  V30 23931 C 2284.46 2.07399 -3.91791 0
M  V30 23932 H 2281.68 0.169815 -0.649156 0
M  V30 23933 H 2284.22 -0.126995 -2.04105 0
M  V30 23934 H 2282.38 2.00457 -3.31505 0
M  V30 23935 H 2282.79 0.814178 -5.18142 0
M  V30 23936 H 2284.27 2.50416 -4.91931 0
M  V30 23937 H 2284.74 2.92516 -3.27614 0
M  V30 23938 H 2285.35 1.42177 -4.00831 0
M  V30 23939 N 2283.66 1.56128 0.21493 0
M  V30 23940 C 2284.91 1.79093 0.936487 0
M  V30 23941 C 2285.23 0.62818 1.84605 0
M  V30 23942 O 2284.5 -0.354586 1.92664 0
M  V30 23943 H 2283.08 0.660572 0.348788 0
M  V30 23944 H 2285.75 1.93595 0.225196 0
M  V30 23945 H 2284.84 2.71495 1.53938 0
M  V30 23946 N 2285.14 -0.481893 1.50052 0
M  V30 23947 C 2286.07 -1.58948 1.71049 0
M  V30 23948 C 2287.05 -1.60641 0.559316 0
M  V30 23949 O 2288.24 -1.7708 0.797274 0
M  V30 23950 C 2285.37 -2.97336 1.79467 0
M  V30 23951 C 2284.32 -3.1051 2.94563 0
M  V30 23952 C 2283.65 -4.50439 2.88113 0
M  V30 23953 C 2284.95 -2.88739 4.35232 0
M  V30 23954 H 2286.64 -1.41631 2.63782 0
M  V30 23955 H 2284.19 -0.67992 1.26937 0
M  V30 23956 H 2286.14 -3.74738 1.92741 0
M  V30 23957 H 2284.87 -3.15786 0.833467 0
M  V30 23958 H 2283.52 -2.35538 2.80923 0
M  V30 23959 H 2283.17 -4.65791 1.89861 0
M  V30 23960 H 2282.87 -4.6019 3.65375 0
M  V30 23961 H 2284.4 -5.29875 3.03421 0
M  V30 23962 H 2285.81 -3.55898 4.49455 0
M  V30 23963 H 2284.21 -3.09946 5.13862 0
M  V30 23964 H 2285.28 -1.84688 4.48351 0
M  V30 23965 N 2286.62 -1.39448 -0.734313 0
M  V30 23966 C 2288.03 -1.32768 -1.31261 0
M  V30 23967 C 2288.38 0.00764048 -1.96199 0
M  V30 23968 O 2287.51 0.909762 -1.96347 0
M  V30 23969 C 2288.1 -2.40454 -2.38678 0
M  V30 23970 C 2286.66 -2.37293 -2.92179 0
M  V30 23971 C 2285.81 -2.22307 -1.65756 0
M  V30 23972 H 2288.76 -1.49525 -0.531773 0
M  V30 23973 H 2288.78 -2.07282 -3.19084 0
M  V30 23974 H 2288.29 -3.37629 -1.91386 0
M  V30 23975 H 2286.39 -1.4376 -3.4375 0
M  V30 23976 H 2286.51 -3.32176 -3.45247 0
M  V30 23977 H 2284.87 -1.69492 -1.90117 0
M  V30 23978 H 2285.65 -3.21451 -1.20515 0
M  V30 23979 N 2288.1 0.964571 -1.24635 0
M  V30 23980 C 2289.05 2.08094 -1.03921 0
M  V30 23981 C 2290.04 1.69379 0.0268283 0
M  V30 23982 O 2291.25 1.79544 -0.127984 0
M  V30 23983 H 2287.62 0.680961 -0.319055 0
M  V30 23984 H 2289.59 2.22725 -1.98585 0
M  V30 23985 C 2288.34 3.413 -0.664043 0
M  V30 23986 H 2287.66 3.71552 -1.47611 0
M  V30 23987 H 2289.1 4.20302 -0.558737 0
M  V30 23988 C 2287.56 3.30974 0.629111 0
M  V30 23989 O 2288.09 3.65159 1.67398 0
M  V30 23990 N 2286.3 2.84104 0.611007 0
M  V30 23991 H 2285.85 2.56483 -0.239639 0
M  V30 23992 H 2285.8 2.77577 1.47642 0
M  V30 23993 N 2289.58 1.0606 1.16572 0
M  V30 23994 C 2290.52 0.669301 2.20882 0
M  V30 23995 C 2291.49 -0.332889 1.6273 0
M  V30 23996 O 2292.68 -0.222313 1.895 0
M  V30 23997 C 2289.82 0.0594178 3.45049 0
M  V30 23998 C 2288.93 1.1115 4.17456 0
M  V30 23999 C 2288.07 0.468009 5.29134 0
M  V30 24000 C 2287.11 1.50379 5.9334 0
M  V30 24001 N 2286.24 0.883828 6.96515 0
M  V30 24002 H 2291.08 1.56324 2.53706 0
M  V30 24003 H 2288.62 0.781647 1.24614 0
M  V30 24004 H 2290.58 -0.311698 4.16034 0
M  V30 24005 H 2289.21 -0.797937 3.12782 0
M  V30 24006 H 2288.26 1.60035 3.45099 0
M  V30 24007 H 2289.57 1.89739 4.61303 0
M  V30 24008 H 2288.73 0.0437937 6.06684 0
M  V30 24009 H 2287.46 -0.349778 4.86444 0
M  V30 24010 H 2286.47 1.93793 5.14514 0
M  V30 24011 H 2287.69 2.32363 6.3811 0
M  V30 24012 H 2285.64 0.0867103 6.55943 0
M  V30 24013 H 2285.56 1.60713 7.3872 0
M  V30 24014 H 2286.83 0.48468 7.77992 0
M  V30 24015 N 2291.06 -1.33168 0.84285 0
M  V30 24016 C 2292.47 -1.50502 0.531154 0
M  V30 24017 C 2292.67 -1.78194 -0.940702 0
M  V30 24018 O 2291.73 -1.84454 -1.72432 0
M  V30 24019 C 2293.04 -2.65702 1.40794 0
M  V30 24020 C 2294.59 -2.79587 1.40713 0
M  V30 24021 C 2295.06 -3.97853 2.26885 0
M  V30 24022 N 2296.55 -4.05095 2.24616 0
M  V30 24023 C 2297.29 -4.9581 2.88028 0
M  V30 24024 N 2296.79 -5.91614 3.60507 0
M  V30 24025 N 2298.58 -4.88838 2.77477 0
M  V30 24026 H 2290.73 -1.13457 1.79559 0
M  V30 24027 H 2292.99 -0.558143 0.766277 0
M  V30 24028 H 2292.7 -2.51932 2.45404 0
M  V30 24029 H 2292.57 -3.61203 1.08683 0
M  V30 24030 H 2294.96 -2.92787 0.36872 0
M  V30 24031 H 2295.04 -1.84835 1.76832 0
M  V30 24032 H 2294.68 -3.85412 3.30787 0
M  V30 24033 H 2294.61 -4.91858 1.88105 0
M  V30 24034 H 2297.11 -3.36533 1.71912 0
M  V30 24035 H 2297.42 -6.57505 4.06088 0
M  V30 24036 H 2295.76 -5.91677 3.64614 0
M  V30 24037 H 2298.95 -4.12959 2.20413 0
M  V30 24038 H 2299.13 -5.59336 3.2718 0
M  V30 24039 N 2292.53 -0.599659 -1.45746 0
M  V30 24040 C 2293.94 -0.177714 -1.85852 0
M  V30 24041 C 2294.3 1.26346 -1.50104 0
M  V30 24042 O 2293.42 1.95684 -0.92394 0
M  V30 24043 C 2294.02 -0.315747 -3.37325 0
M  V30 24044 C 2292.57 0.0514483 -3.76365 0
M  V30 24045 C 2291.72 -0.643869 -2.69721 0
M  V30 24046 H 2294.67 -0.806838 -1.36659 0
M  V30 24047 H 2294.69 0.454254 -3.77779 0
M  V30 24048 H 2294.21 -1.36475 -3.63313 0
M  V30 24049 H 2292.31 1.09993 -3.55995 0
M  V30 24050 H 2292.42 -0.336678 -4.77916 0
M  V30 24051 H 2290.78 -0.0823329 -2.54567 0
M  V30 24052 H 2291.57 -1.69485 -2.98546 0
M  V30 24053 N 2294.01 1.53925 -0.338371 0
M  V30 24054 C 2294.96 2.26335 0.536191 0
M  V30 24055 C 2295.95 1.28288 1.10628 0
M  V30 24056 O 2297.16 1.46014 1.05261 0
M  V30 24057 H 2293.53 0.727185 0.191589 0
M  V30 24058 H 2295.51 2.98244 -0.0966271 0
M  V30 24059 C 2294.25 3.04531 1.67798 0
M  V30 24060 H 2293.58 3.79803 1.24857 0
M  V30 24061 H 2295.02 3.5842 2.26519 0
M  V30 24062 C 2293.48 2.13717 2.60436 0
M  V30 24063 O 2294.01 1.72982 3.62547 0
M  V30 24064 N 2292.21 1.78902 2.29003 0
M  V30 24065 H 2291.76 2.12226 1.46007 0
M  V30 24066 H 2291.72 1.18421 2.91245 0
M  V30 24067 N 2295.49 0.0668712 1.57458 0
M  V30 24068 C 2296.74 -0.604266 1.93588 0
M  V30 24069 C 2297.07 -1.69559 0.946752 0
M  V30 24070 O 2296.34 -1.94484 -0.0248174 0
M  V30 24071 C 2296.63 -1.18579 3.40016 0
M  V30 24072 C 2296.48 -0.10145 4.49686 0
M  V30 24073 C 2297.8 -2.09277 3.87158 0
M  V30 24074 H 2294.92 -0.21819 0.703962 0
M  V30 24075 H 2297.56 0.131837 1.89542 0
M  V30 24076 H 2295.71 -1.81313 3.43595 0
M  V30 24077 H 2297.38 0.53136 4.58229 0
M  V30 24078 H 2295.62 0.568562 4.30058 0
M  V30 24079 H 2296.3 -0.548643 5.49267 0
M  V30 24080 H 2298.77 -1.56485 3.85554 0
M  V30 24081 H 2297.65 -2.46903 4.90235 0
M  V30 24082 H 2297.91 -2.99912 3.24816 0
M  V30 24083 N 2296.97 -1.56239 -0.206647 0
M  V30 24084 C 2298.38 -1.69975 -0.772353 0
M  V30 24085 C 2298.73 -0.671469 -1.84352 0
M  V30 24086 O 2297.85 0.174453 -2.15696 0
M  V30 24087 C 2298.45 -3.08169 -1.40774 0
M  V30 24088 C 2297.01 -3.23709 -1.92066 0
M  V30 24089 C 2296.16 -2.65918 -0.7863 0
M  V30 24090 H 2299.11 -1.5869 0.0182502 0
M  V30 24091 H 2299.13 -3.04856 -2.2769 0
M  V30 24092 H 2298.64 -3.82987 -0.62789 0
M  V30 24093 H 2296.74 -2.53787 -2.72806 0
M  V30 24094 H 2296.85 -4.31091 -2.09039 0
M  V30 24095 H 2295.22 -2.2479 -1.19756 0
M  V30 24096 H 2296 -3.43295 -0.0188812 0
M  V30 24097 N 2298.45 0.473929 -1.50305 0
M  V30 24098 C 2299.67 1.24957 -1.64904 0
M  V30 24099 C 2300.09 1.85872 -0.331231 0
M  V30 24100 O 2299.45 1.69096 0.68649 0
M  V30 24101 C 2299.5 2.36033 -2.73807 0
M  V30 24102 O 2299.22 1.77617 -4.0048 0
M  V30 24103 C 2300.72 3.26958 -2.99354 0
M  V30 24104 H 2297.94 0.378013 -0.554389 0
M  V30 24105 H 2300.48 0.566019 -1.96511 0
M  V30 24106 H 2298.64 3.00169 -2.44903 0
M  V30 24107 H 2299.05 2.50742 -4.60683 0
M  V30 24108 H 2300.53 4.01115 -3.79224 0
M  V30 24109 H 2301 3.8557 -2.10314 0
M  V30 24110 H 2301.61 2.68563 -3.29779 0
M  V30 24111 N 2299.92 1.39835 0.726907 0
M  V30 24112 C 2301.17 1.36808 1.48211 0
M  V30 24113 C 2301.49 -0.0304947 1.95576 0
M  V30 24114 O 2302.69 -0.18337 2.7088 0
M  V30 24115 C 2301.15 2.40384 2.6785 0
M  V30 24116 C 2300.76 3.85996 2.27401 0
M  V30 24117 C 2302.5 2.46445 3.45637 0
M  V30 24118 C 2300.41 4.81195 3.43811 0
M  V30 24119 H 2299.34 0.508641 0.556597 0
M  V30 24120 H 2301.99 1.65519 0.792187 0
M  V30 24121 H 2300.37 2.04755 3.38957 0
M  V30 24122 H 2301.54 4.30709 1.63788 0
M  V30 24123 H 2299.86 3.83304 1.62686 0
M  V30 24124 H 2302.46 3.1476 4.32238 0
M  V30 24125 H 2302.8 1.49146 3.88666 0
M  V30 24126 H 2303.33 2.81009 2.81565 0
M  V30 24127 H 2300.07 5.79786 3.05824 0
M  V30 24128 H 2299.59 4.41155 4.06377 0
M  V30 24129 H 2301.27 5.00481 4.10034 0
M  V30 24130 N 2301.4 -0.957948 1.25144 0
M  V30 24131 C 2302.82 -1.2284 1.01894 0
M  V30 24132 C 2303.02 -1.99733 -0.266276 0
M  V30 24133 O 2302.07 -2.32712 -0.979872 0
M  V30 24134 C 2303.39 -2.00602 2.24008 0
M  V30 24135 C 2304.93 -2.13658 2.28734 0
M  V30 24136 C 2305.41 -2.94817 3.50495 0
M  V30 24137 N 2306.9 -3.02397 3.50871 0
M  V30 24138 C 2307.64 -3.65579 4.41746 0
M  V30 24139 N 2307.13 -4.30399 5.42889 0
M  V30 24140 N 2308.92 -3.62687 4.29435 0
M  V30 24141 H 2301.08 -0.443456 2.07719 0
M  V30 24142 H 2303.34 -0.258641 0.912036 0
M  V30 24143 H 2303.04 -1.51497 3.17398 0
M  V30 24144 H 2302.92 -3.01315 2.26912 0
M  V30 24145 H 2305.31 -2.61961 1.35869 0
M  V30 24146 H 2305.39 -1.12261 2.2985 0
M  V30 24147 H 2305.03 -2.47205 4.4368 0
M  V30 24148 H 2304.96 -3.96433 3.46624 0
M  V30 24149 H 2307.45 -2.56297 2.77705 0
M  V30 24150 H 2307.76 -4.76456 6.08448 0
M  V30 24151 H 2306.11 -4.29037 5.46765 0
M  V30 24152 H 2309.3 -3.1123 3.49648 0
M  V30 24153 H 2309.47 -4.11641 5.00455 0
M  V30 24154 N 2302.88 -1.06677 -1.16008 0
M  V30 24155 C 2304.11 -0.806701 -1.90525 0
M  V30 24156 C 2304.52 0.639365 -1.77644 0
M  V30 24157 O 2303.88 1.43802 -1.12372 0
M  V30 24158 C 2303.93 -1.19711 -3.41104 0
M  V30 24159 O 2303.65 -2.58643 -3.53604 0
M  V30 24160 C 2305.15 -0.965343 -4.32662 0
M  V30 24161 H 2302.37 -0.292177 -0.604048 0
M  V30 24162 H 2304.92 -1.42142 -1.47023 0
M  V30 24163 H 2303.07 -0.626841 -3.82295 0
M  V30 24164 H 2303.49 -2.74383 -4.47006 0
M  V30 24165 H 2304.96 -1.28809 -5.36761 0
M  V30 24166 H 2305.44 0.0987165 -4.39089 0
M  V30 24167 H 2306.04 -1.52018 -3.97204 0
M  V30 24168 N 2304.36 1.32719 -0.8499 0
M  V30 24169 C 2305.32 2.27279 -0.296162 0
M  V30 24170 C 2306.32 1.51411 0.541432 0
M  V30 24171 O 2307.51 1.70573 0.353628 0
M  V30 24172 C 2304.64 3.35903 0.58152 0
M  V30 24173 H 2305.84 2.77769 -1.13069 0
M  V30 24174 H 2303.39 1.4331 -0.623855 0
M  V30 24175 H 2304.12 2.90673 1.43804 0
M  V30 24176 H 2303.91 3.92096 -0.0179503 0
M  V30 24177 H 2305.4 4.06371 0.961879 0
M  V30 24178 N 2305.84 0.60738 1.45426 0
M  V30 24179 C 2306.78 -0.111584 2.3053 0
M  V30 24180 C 2307.75 -0.860191 1.42091 0
M  V30 24181 O 2308.94 -0.845968 1.71021 0
M  V30 24182 C 2306.08 -1.10313 3.26994 0
M  V30 24183 C 2305.19 -0.355417 4.30535 0
M  V30 24184 C 2304.33 -1.33667 5.14108 0
M  V30 24185 C 2303.37 -0.576755 6.09377 0
M  V30 24186 N 2302.5 -1.50728 6.8573 0
M  V30 24187 H 2307.34 0.620145 2.91476 0
M  V30 24188 H 2304.88 0.317619 1.4363 0
M  V30 24189 H 2306.84 -1.69114 3.81388 0
M  V30 24190 H 2305.47 -1.80227 2.67802 0
M  V30 24191 H 2304.52 0.348089 3.78804 0
M  V30 24192 H 2305.83 0.23751 4.98234 0
M  V30 24193 H 2304.99 -1.99674 5.72901 0
M  V30 24194 H 2303.72 -1.96353 4.46427 0
M  V30 24195 H 2302.73 0.0969486 5.49715 0
M  V30 24196 H 2303.95 0.0450534 6.79085 0
M  V30 24197 H 2301.9 -2.12179 6.20738 0
M  V30 24198 H 2301.82 -0.967781 7.4978 0
M  V30 24199 H 2303.09 -2.15693 7.49064 0
M  V30 24200 N 2307.31 -1.53743 0.34653 0
M  V30 24201 C 2308.56 -2.0126 -0.249438 0
M  V30 24202 C 2308.89 -1.23389 -1.49963 0
M  V30 24203 O 2308.17 -0.322323 -1.91811 0
M  V30 24204 C 2308.45 -3.5571 -0.560581 0
M  V30 24205 C 2308.3 -4.4429 0.701914 0
M  V30 24206 C 2309.62 -4.18267 -1.36898 0
M  V30 24207 H 2306.74 -0.731584 -0.0891859 0
M  V30 24208 H 2309.38 -1.84155 0.467657 0
M  V30 24209 H 2307.53 -3.70416 -1.17149 0
M  V30 24210 H 2309.21 -4.41414 1.33982 0
M  V30 24211 H 2307.45 -4.13031 1.3262 0
M  V30 24212 H 2308.12 -5.50248 0.439427 0
M  V30 24213 H 2310.6 -4.07276 -0.852376 0
M  V30 24214 H 2309.47 -5.264 -1.55543 0
M  V30 24215 H 2309.73 -3.73082 -2.37196 0
M  V30 24216 N 2308.79 -0.0752207 -1.5742 0
M  V30 24217 C 2309.72 0.920446 -2.09906 0
M  V30 24218 C 2310.74 1.25916 -1.03194 0
M  V30 24219 O 2311.93 1.21575 -1.30697 0
M  V30 24220 C 2309.03 2.2353 -2.5473 0
M  V30 24221 C 2308.2 2.07491 -3.85053 0
M  V30 24222 C 2307.26 3.22311 -4.15935 0
M  V30 24223 O 2306.28 2.97151 -4.85479 0
M  V30 24224 N 2307.49 4.47507 -3.69753 0
M  V30 24225 H 2310.25 0.472307 -2.95955 0
M  V30 24226 H 2307.81 0.110416 -1.61523 0
M  V30 24227 H 2309.8 2.99255 -2.72449 0
M  V30 24228 H 2308.37 2.59831 -1.738 0
M  V30 24229 H 2307.59 1.16213 -3.76681 0
M  V30 24230 H 2308.88 1.94029 -4.70351 0
M  V30 24231 H 2308.28 4.70835 -3.13578 0
M  V30 24232 H 2306.84 5.20248 -3.92665 0
M  V30 24233 N 2310.27 1.56347 0.198358 0
M  V30 24234 C 2311.52 1.80076 0.917439 0
M  V30 24235 C 2311.84 0.647725 1.83928 0
M  V30 24236 O 2311.11 -0.334132 1.93029 0
M  V30 24237 H 2309.69 0.664234 0.341762 0
M  V30 24238 H 2312.35 1.93823 0.20465 0
M  V30 24239 H 2311.45 2.73112 1.5105 0
M  V30 24240 N 2311.75 -0.465951 1.50554 0
M  V30 24241 C 2313.16 -1.04669 1.54601 0
M  V30 24242 C 2313.51 -1.93007 0.352522 0
M  V30 24243 O 2312.64 -2.09708 -0.534007 0
M  V30 24244 C 2313.23 -1.905 2.8017 0
M  V30 24245 C 2311.79 -2.43673 2.8688 0
M  V30 24246 C 2310.94 -1.22147 2.48949 0
M  V30 24247 H 2313.89 -0.248357 1.56745 0
M  V30 24248 H 2313.91 -2.75628 2.62315 0
M  V30 24249 H 2313.42 -1.2618 3.67015 0
M  V30 24250 H 2311.52 -3.11532 2.04398 0
M  V30 24251 H 2311.63 -2.78429 3.8989 0
M  V30 24252 H 2310 -1.55786 2.01501 0
M  V30 24253 H 2310.78 -0.594807 3.38108 0
M  V30 24254 N 2313.23 -1.40218 -0.719481 0
M  V30 24255 C 2314.47 -1.38012 -1.47638 0
M  V30 24256 C 2314.8 0.0181108 -1.94992 0
M  V30 24257 O 2314.07 0.972177 -1.70075 0
M  V30 24258 H 2312.65 -0.507932 -0.547735 0
M  V30 24259 H 2315.31 -1.75235 -0.853156 0
M  V30 24260 H 2314.4 -2.05257 -2.35109 0
M  V30 24261 N 2314.7 0.951297 -1.25651 0
M  V30 24262 C 2315.95 1.69631 -1.10597 0
M  V30 24263 C 2316.28 1.91279 0.352482 0
M  V30 24264 O 2315.53 1.48382 1.27598 0
M  V30 24265 C 2315.83 3.08228 -1.80915 0
M  V30 24266 C 2315.5 3.06369 -3.30831 0
M  V30 24267 C 2314.16 3.05569 -3.71727 0
M  V30 24268 C 2316.51 2.99444 -4.26594 0
M  V30 24269 C 2313.84 2.95597 -5.06793 0
M  V30 24270 C 2316.19 2.91014 -5.61688 0
M  V30 24271 C 2314.86 2.88552 -6.01909 0
M  V30 24272 H 2314.13 0.620723 -0.404702 0
M  V30 24273 H 2316.77 1.11117 -1.55966 0
M  V30 24274 H 2315.08 3.70306 -1.27986 0
M  V30 24275 H 2316.78 3.64701 -1.66716 0
M  V30 24276 H 2313.37 3.07766 -2.98292 0
M  V30 24277 H 2317.55 2.99178 -3.95987 0
M  V30 24278 H 2312.81 2.92062 -5.37131 0
M  V30 24279 H 2316.98 2.84618 -6.35583 0
M  V30 24280 H 2314.61 2.80581 -7.06526 0
M  V30 24281 N 2316.18 1.07291 1.1544 0
M  V30 24282 C 2317.46 0.708824 1.82305 0
M  V30 24283 C 2317.84 -0.808773 1.94992 0
M  V30 24284 O 2317.19 -1.72296 1.50088 0
M  V30 24285 C 2317.4 1.42253 3.18693 0
M  V30 24286 C 2318.75 1.57424 3.94339 0
M  V30 24287 O 2319.77 1.38325 3.28245 0
M  V30 24288 O 2318.63 1.88843 5.12836 0
M  V30 24289 H 2315.72 0.252146 0.787624 0
M  V30 24290 H 2318.27 1.1738 1.22557 0
M  V30 24291 H 2317.04 2.45689 3.04553 0
M  V30 24292 H 2316.66 0.948291 3.86126 0
M  V30 24293 N 2317.66 -1.32267 0.856927 0
M  V30 24294 C 2318.89 -2.01071 0.474785 0
M  V30 24295 C 2319.3 -1.64555 -0.933717 0
M  V30 24296 O 2318.64 -0.864017 -1.62112 0
M  V30 24297 C 2318.7 -3.5547 0.536808 0
M  V30 24298 C 2318.37 -4.1542 1.90461 0
M  V30 24299 C 2319.36 -4.33481 2.87037 0
M  V30 24300 C 2317.05 -4.51443 2.20237 0
M  V30 24301 C 2319.04 -4.86737 4.11541 0
M  V30 24302 C 2316.73 -5.04404 3.44993 0
M  V30 24303 C 2317.73 -5.21999 4.40461 0
M  V30 24304 O 2317.42 -5.73827 5.63008 0
M  V30 24305 H 2317.15 -0.650253 0.184789 0
M  V30 24306 H 2319.7 -1.69769 1.15618 0
M  V30 24307 H 2317.93 -3.86175 -0.201452 0
M  V30 24308 H 2319.62 -4.05544 0.169946 0
M  V30 24309 H 2320.39 -4.05981 2.65338 0
M  V30 24310 H 2316.27 -4.37031 1.46713 0
M  V30 24311 H 2319.81 -5.00386 4.86065 0
M  V30 24312 H 2315.71 -5.31335 3.66542 0
M  V30 24313 H 2316.48 -5.92216 5.64997 0
M  V30 24314 N 2319.14 -0.615084 -1.45102 0
M  V30 24315 C 2320.1 0.0895082 -2.29025 0
M  V30 24316 C 2321.1 0.787882 -1.40175 0
M  V30 24317 O 2322.29 0.634905 -1.62218 0
M  V30 24318 C 2319.42 1.13706 -3.21378 0
M  V30 24319 H 2320.62 -0.648433 -2.92806 0
M  V30 24320 H 2318.17 -0.37447 -1.51748 0
M  V30 24321 H 2318.9 1.90552 -2.62413 0
M  V30 24322 H 2318.69 0.640407 -3.86835 0
M  V30 24323 H 2320.18 1.6303 -3.84462 0
M  V30 24324 N 2320.62 1.53557 -0.354678 0
M  V30 24325 C 2321.86 2.0139 0.238761 0
M  V30 24326 C 2322.2 1.24182 1.49306 0
M  V30 24327 O 2321.47 0.332491 1.91637 0
M  V30 24328 C 2321.75 3.56002 0.541709 0
M  V30 24329 C 2321.61 4.43911 -0.725466 0
M  V30 24330 C 2322.93 4.18987 1.34678 0
M  V30 24331 H 2320.05 0.732047 0.0853048 0
M  V30 24332 H 2322.69 1.83904 -0.477416 0
M  V30 24333 H 2320.84 3.71033 1.15183 0
M  V30 24334 H 2322.51 4.40698 -1.36321 0
M  V30 24335 H 2320.75 4.12322 -1.34808 0
M  V30 24336 H 2321.42 5.50007 -0.468602 0
M  V30 24337 H 2323.9 4.07722 0.830765 0
M  V30 24338 H 2322.78 5.27218 1.5275 0
M  V30 24339 H 2323.04 3.74335 2.35214 0
M  V30 24340 N 2322.1 0.083568 1.57378 0
M  V30 24341 C 2323.06 -0.864922 2.12254 0
M  V30 24342 C 2324.06 -1.21856 1.04918 0
M  V30 24343 O 2325.25 -1.14989 1.30855 0
M  V30 24344 C 2322.38 -2.16456 2.63362 0
M  V30 24345 H 2323.57 -0.388623 2.97371 0
M  V30 24346 H 2321.13 -0.16529 1.55424 0
M  V30 24347 H 2321.86 -2.68596 1.81732 0
M  V30 24348 H 2321.65 -1.92081 3.41829 0
M  V30 24349 H 2323.14 -2.84331 3.05852 0
M  V30 24350 N 2323.57 -1.5645 -0.190064 0
M  V30 24351 C 2324.51 -1.90014 -1.26372 0
M  V30 24352 C 2325.48 -0.760791 -1.43704 0
M  V30 24353 O 2326.67 -1.01229 -1.59013 0
M  V30 24354 C 2323.8 -2.13473 -2.62958 0
M  V30 24355 C 2322.84 -3.36174 -2.62468 0
M  V30 24356 S 2323.67 -4.91141 -2.13403 0
M  V30 24357 C 2324.83 -5.17673 -3.51803 0
M  V30 24358 H 2325.06 -2.80784 -0.977131 0
M  V30 24359 H 2322.6 -1.49294 -0.393788 0
M  V30 24360 H 2324.55 -2.2767 -3.41579 0
M  V30 24361 H 2323.22 -1.23444 -2.88826 0
M  V30 24362 H 2322.41 -3.4973 -3.62912 0
M  V30 24363 H 2322.01 -3.20996 -1.91932 0
M  V30 24364 H 2324.3 -5.08502 -4.47697 0
M  V30 24365 H 2325.25 -6.19405 -3.43138 0
M  V30 24366 H 2325.65 -4.45294 -3.46948 0
M  V30 24367 N 2325.05 0.45796 -1.50799 0
M  V30 24368 C 2326.01 1.53671 -1.70053 0
M  V30 24369 C 2327.01 1.50324 -0.570908 0
M  V30 24370 O 2328.2 1.52711 -0.838153 0
M  V30 24371 C 2325.34 2.93273 -1.73793 0
M  V30 24372 H 2326.53 1.37912 -2.66309 0
M  V30 24373 H 2324.08 0.685246 -1.40478 0
M  V30 24374 H 2324.82 3.14461 -0.792773 0
M  V30 24375 H 2324.6 2.97108 -2.55869 0
M  V30 24376 H 2326.09 3.71567 -1.90598 0
M  V30 24377 N 2326.53 1.40598 0.712035 0
M  V30 24378 C 2327.48 1.41145 1.82611 0
M  V30 24379 C 2328.45 0.267932 1.63925 0
M  V30 24380 O 2329.63 0.466527 1.85009 0
M  V30 24381 C 2326.77 1.2833 3.20352 0
M  V30 24382 C 2325.88 2.52417 3.50585 0
M  V30 24383 C 2325.02 2.32017 4.77851 0
M  V30 24384 C 2324.06 3.51663 5.00999 0
M  V30 24385 N 2323.2 3.30436 6.19481 0
M  V30 24386 H 2328.04 2.36368 1.81478 0
M  V30 24387 H 2325.57 1.1739 0.886455 0
M  V30 24388 H 2327.53 1.18906 3.99897 0
M  V30 24389 H 2326.16 0.367245 3.20704 0
M  V30 24390 H 2325.21 2.72356 2.65568 0
M  V30 24391 H 2326.52 3.41464 3.63598 0
M  V30 24392 H 2325.68 2.19966 5.6542 0
M  V30 24393 H 2324.42 1.40401 4.67054 0
M  V30 24394 H 2323.42 3.64187 4.11884 0
M  V30 24395 H 2324.65 4.44211 5.13666 0
M  V30 24396 H 2322.59 2.41505 6.09927 0
M  V30 24397 H 2322.51 4.1305 6.33187 0
M  V30 24398 H 2323.78 3.22125 7.09828 0
M  V30 24399 N 2328.01 -0.94462 1.26153 0
M  V30 24400 C 2329.42 -1.21752 1.03192 0
M  V30 24401 C 2329.62 -2.00004 -0.245077 0
M  V30 24402 O 2328.68 -2.33738 -0.955135 0
M  V30 24403 C 2329.99 -1.98215 2.26123 0
M  V30 24404 C 2331.54 -2.1122 2.30988 0
M  V30 24405 C 2332.02 -2.91083 3.53602 0
M  V30 24406 N 2333.51 -2.98658 3.54059 0
M  V30 24407 C 2334.24 -3.60873 4.45599 0
M  V30 24408 N 2333.74 -4.24617 5.47424 0
M  V30 24409 N 2335.53 -3.58112 4.33258 0
M  V30 24410 H 2327.68 -0.4214 2.08178 0
M  V30 24411 H 2329.94 -0.248953 0.914728 0
M  V30 24412 H 2329.65 -1.48122 3.18987 0
M  V30 24413 H 2329.52 -2.98891 2.30095 0
M  V30 24414 H 2331.91 -2.60505 1.3864 0
M  V30 24415 H 2331.99 -1.09817 2.31028 0
M  V30 24416 H 2331.64 -2.42485 4.46277 0
M  V30 24417 H 2331.57 -3.92735 3.50809 0
M  V30 24418 H 2334.06 -2.53338 2.80408 0
M  V30 24419 H 2334.37 -4.69976 6.13467 0
M  V30 24420 H 2332.72 -4.23214 5.51285 0
M  V30 24421 H 2335.91 -3.07504 3.52929 0
M  V30 24422 H 2336.08 -4.0631 5.04793 0
M  V30 24423 N 2329.49 -1.07901 -1.1487 0
M  V30 24424 C 2330.43 -0.698766 -2.21856 0
M  V30 24425 C 2331.43 0.293057 -1.66846 0
M  V30 24426 O 2332.63 0.156173 -1.79321 0
M  V30 24427 H 2329.01 -0.207912 -0.722687 0
M  V30 24428 H 2330.98 -1.61058 -2.51203 0
M  V30 24429 C 2329.73 -0.118641 -3.47498 0
M  V30 24430 H 2329.05 -0.872982 -3.90153 0
M  V30 24431 H 2330.49 0.109684 -4.23858 0
M  V30 24432 C 2328.95 1.14215 -3.16949 0
M  V30 24433 O 2329.48 2.22779 -3.34264 0
M  V30 24434 N 2327.69 1.05051 -2.70948 0
M  V30 24435 H 2327.23 0.166993 -2.57058 0
M  V30 24436 H 2327.19 1.89487 -2.50883 0
M  V30 24437 N 2330.96 1.31811 -0.863929 0
M  V30 24438 C 2332.21 1.96194 -0.468045 0
M  V30 24439 C 2332.53 1.69079 0.983444 0
M  V30 24440 O 2333.73 2.27276 1.48519 0
M  V30 24441 C 2332.19 3.51211 -0.786057 0
M  V30 24442 C 2331.8 3.87174 -2.2539 0
M  V30 24443 C 2333.54 4.22018 -0.458348 0
M  V30 24444 C 2331.45 5.35275 -2.51464 0
M  V30 24445 H 2330.38 0.734284 -0.171296 0
M  V30 24446 H 2333.03 1.5007 -1.056 0
M  V30 24447 H 2331.41 3.95795 -0.127429 0
M  V30 24448 H 2332.58 3.53569 -2.95509 0
M  V30 24449 H 2330.9 3.29416 -2.54704 0
M  V30 24450 H 2333.5 5.3097 -0.630463 0
M  V30 24451 H 2333.84 4.11942 0.600762 0
M  V30 24452 H 2334.37 3.83048 -1.07326 0
M  V30 24453 H 2331.11 5.50381 -3.56035 0
M  V30 24454 H 2330.63 5.70253 -1.85933 0
M  V30 24455 H 2332.31 6.02468 -2.35885 0
M  V30 24456 N 2332.44 0.62277 1.44773 0
M  V30 24457 C 2333.37 -0.0741451 2.33382 0
M  V30 24458 C 2334.35 -0.843361 1.47721 0
M  V30 24459 O 2335.54 -0.810903 1.7646 0
M  V30 24460 C 2332.67 -1.06198 3.30665 0
M  V30 24461 C 2331.62 -0.404962 4.2608 0
M  V30 24462 C 2330.95 -1.50211 5.13167 0
M  V30 24463 C 2332.25 0.683505 5.17808 0
M  V30 24464 H 2333.94 0.665765 2.91904 0
M  V30 24465 H 2331.49 0.321611 1.40363 0
M  V30 24466 H 2333.44 -1.5582 3.91533 0
M  V30 24467 H 2332.16 -1.83267 2.70334 0
M  V30 24468 H 2330.82 0.0705327 3.66532 0
M  V30 24469 H 2330.47 -2.26347 4.49195 0
M  V30 24470 H 2330.17 -1.06792 5.77814 0
M  V30 24471 H 2331.7 -2.00031 5.76906 0
M  V30 24472 H 2333.11 0.270731 5.7266 0
M  V30 24473 H 2331.51 1.04034 5.91014 0
M  V30 24474 H 2332.58 1.55403 4.59323 0
M  V30 24475 N 2333.92 -1.53367 0.362817 0
M  V30 24476 C 2335.15 -2.05634 -0.228577 0
M  V30 24477 C 2335.56 -1.23651 -1.42674 0
M  V30 24478 O 2334.92 -0.276502 -1.80393 0
M  V30 24479 C 2334.97 -3.5606 -0.624783 0
M  V30 24480 O 2334.69 -4.34934 0.525752 0
M  V30 24481 C 2336.19 -4.24573 -1.27486 0
M  V30 24482 H 2333.41 -0.669764 -0.0407066 0
M  V30 24483 H 2335.96 -1.97768 0.520386 0
M  V30 24484 H 2334.11 -3.64085 -1.32366 0
M  V30 24485 H 2334.53 -5.24095 0.206061 0
M  V30 24486 H 2336 -5.31153 -1.50267 0
M  V30 24487 H 2336.48 -3.7812 -2.23432 0
M  V30 24488 H 2337.08 -4.20794 -0.617484 0
M  V30 24489 N 2335.4 -0.091913 -1.57332 0
M  V30 24490 C 2336.36 0.853653 -2.1271 0
M  V30 24491 C 2337.36 1.21298 -1.05563 0
M  V30 24492 O 2338.55 1.14294 -1.31463 0
M  V30 24493 C 2335.68 2.15056 -2.64506 0
M  V30 24494 H 2336.88 0.372848 -2.97573 0
M  V30 24495 H 2334.43 0.157045 -1.55509 0
M  V30 24496 H 2335.16 2.67629 -1.83154 0
M  V30 24497 H 2334.95 1.90266 -3.42843 0
M  V30 24498 H 2336.44 2.82705 -3.07356 0
M  V30 24499 N 2336.88 1.56548 0.181765 0
M  V30 24500 C 2338.1 1.85523 0.915914 0
M  V30 24501 C 2338.52 0.676047 1.76281 0
M  V30 24502 O 2337.88 -0.355045 1.79013 0
M  V30 24503 C 2337.93 3.13431 1.80121 0
M  V30 24504 O 2337.65 4.26803 0.988487 0
M  V30 24505 C 2339.15 3.55678 2.64591 0
M  V30 24506 H 2336.37 0.615765 0.266599 0
M  V30 24507 H 2338.91 2.03661 0.185004 0
M  V30 24508 H 2337.07 2.97149 2.48558 0
M  V30 24509 H 2337.48 4.99724 1.59299 0
M  V30 24510 H 2338.96 4.48107 3.22342 0
M  V30 24511 H 2339.43 2.79298 3.38953 0
M  V30 24512 H 2340.04 3.74535 2.01503 0
M  V30 24513 N 2338.35 -0.449957 1.5104 0
M  V30 24514 C 2339.58 -1.22317 1.66871 0
M  V30 24515 C 2340 -1.85321 0.360759 0
M  V30 24516 O 2339.35 -1.70167 -0.659501 0
M  V30 24517 C 2339.41 -2.31648 2.77528 0
M  V30 24518 O 2339.13 -1.71223 4.03255 0
M  V30 24519 C 2340.63 -3.22155 3.04518 0
M  V30 24520 H 2337.85 -0.369145 0.560333 0
M  V30 24521 H 2340.39 -0.534684 1.97386 0
M  V30 24522 H 2338.55 -2.96234 2.49648 0
M  V30 24523 H 2338.96 -2.43381 4.64614 0
M  V30 24524 H 2340.43 -3.95031 3.85557 0
M  V30 24525 H 2340.91 -3.82176 2.16422 0
M  V30 24526 H 2341.52 -2.63282 3.3401 0
M  V30 24527 N 2339.83 -1.40974 -0.704569 0
M  V30 24528 C 2341.08 -1.39148 -1.46016 0
M  V30 24529 C 2341.39 -0.000623636 -1.956 0
M  V30 24530 O 2342.6 0.140252 -2.71138 0
M  V30 24531 C 2341.06 -2.44615 -2.63992 0
M  V30 24532 C 2340.66 -3.89565 -2.21231 0
M  V30 24533 C 2342.41 -2.51913 -3.41673 0
M  V30 24534 C 2340.32 -4.86603 -3.36112 0
M  V30 24535 H 2339.25 -0.517431 -0.548435 0
M  V30 24536 H 2341.9 -1.66759 -0.765754 0
M  V30 24537 H 2340.28 -2.10121 -3.35656 0
M  V30 24538 H 2341.45 -4.3326 -1.56915 0
M  V30 24539 H 2339.77 -3.85844 -1.56567 0
M  V30 24540 H 2342.36 -3.21597 -4.27176 0
M  V30 24541 H 2342.71 -1.5531 -3.86244 0
M  V30 24542 H 2343.24 -2.85453 -2.77059 0
M  V30 24543 H 2339.98 -5.84578 -2.96562 0
M  V30 24544 H 2339.5 -4.47564 -3.99307 0
M  V30 24545 H 2341.18 -5.06941 -4.0202 0
M  V30 24546 N 2341.31 0.937917 -1.26653 0
M  V30 24547 C 2342.26 2.0371 -1.08493 0
M  V30 24548 C 2343.23 1.66096 0.0110038 0
M  V30 24549 O 2344.41 1.90214 -0.149387 0
M  V30 24550 C 2341.55 3.37347 -0.72741 0
M  V30 24551 C 2340.67 3.87978 -1.89993 0
M  V30 24552 C 2339.8 5.10014 -1.48522 0
M  V30 24553 C 2338.84 5.52915 -2.62585 0
M  V30 24554 N 2337.98 6.66154 -2.21773 0
M  V30 24555 H 2342.82 2.18576 -2.02555 0
M  V30 24556 H 2340.35 1.07091 -1.00846 0
M  V30 24557 H 2342.31 4.14181 -0.500993 0
M  V30 24558 H 2340.94 3.22319 0.176241 0
M  V30 24559 H 2339.99 3.07514 -2.23919 0
M  V30 24560 H 2341.31 4.15752 -2.75593 0
M  V30 24561 H 2340.46 5.94318 -1.21945 0
M  V30 24562 H 2339.2 4.83993 -0.600175 0
M  V30 24563 H 2338.2 4.67167 -2.89889 0
M  V30 24564 H 2339.43 5.80937 -3.51695 0
M  V30 24565 H 2337.37 6.4181 -1.35707 0
M  V30 24566 H 2337.29 6.93532 -3.00915 0
M  V30 24567 H 2338.56 7.53824 -1.98416 0
M  V30 24568 N 2342.79 1.08509 1.14296 0
M  V30 24569 C 2344.04 0.813795 1.84991 0
M  V30 24570 C 2344.36 -0.662361 1.83406 0
M  V30 24571 O 2343.63 -1.48022 1.28321 0
M  V30 24572 H 2342.21 0.298057 0.684961 0
M  V30 24573 H 2344.87 1.37129 1.38498 0
M  V30 24574 H 2343.97 1.15889 2.89786 0
M  V30 24575 N 2344.27 -1.31351 0.870907 0
M  V30 24576 C 2345.18 -2.32256 0.330824 0
M  V30 24577 C 2346.19 -1.64751 -0.559738 0
M  V30 24578 O 2347.37 -1.96165 -0.456229 0
M  V30 24579 C 2344.43 -3.43661 -0.458076 0
M  V30 24580 C 2343.49 -4.26822 0.460557 0
M  V30 24581 C 2342.73 -5.32907 -0.290787 0
M  V30 24582 O 2342.95 -5.49809 -1.51875 0
M  V30 24583 O 2341.88 -6.00871 0.351837 0
M  V30 24584 H 2345.71 -2.80374 1.16723 0
M  V30 24585 H 2343.3 -1.35266 0.634309 0
M  V30 24586 H 2345.18 -4.11561 -0.905271 0
M  V30 24587 H 2343.85 -2.97703 -1.27101 0
M  V30 24588 H 2342.76 -3.61672 0.95627 0
M  V30 24589 H 2344.09 -4.76347 1.23911 0
M  V30 24590 N 2345.74 -0.630439 -1.44441 0
M  V30 24591 C 2346.99 -0.134652 -2.02052 0
M  V30 24592 C 2347.32 1.24324 -1.49579 0
M  V30 24593 O 2346.57 1.83879 -0.669838 0
M  V30 24594 C 2346.87 -0.0698463 -3.57332 0
M  V30 24595 C 2346.54 -1.38643 -4.29056 0
M  V30 24596 C 2345.2 -1.74702 -4.48367 0
M  V30 24597 C 2347.55 -2.25551 -4.69868 0
M  V30 24598 C 2344.88 -2.97378 -5.0575 0
M  V30 24599 C 2347.23 -3.47497 -5.2861 0
M  V30 24600 C 2345.9 -3.8378 -5.4614 0
M  V30 24601 H 2345.17 -0.0492728 -0.73936 0
M  V30 24602 H 2347.81 -0.816617 -1.73216 0
M  V30 24603 H 2346.12 0.695485 -3.85578 0
M  V30 24604 H 2347.82 0.330273 -3.99638 0
M  V30 24605 H 2344.41 -1.09582 -4.14355 0
M  V30 24606 H 2348.59 -1.98987 -4.54662 0
M  V30 24607 H 2343.85 -3.25567 -5.1751 0
M  V30 24608 H 2348.02 -4.15073 -5.59184 0
M  V30 24609 H 2345.65 -4.78921 -5.90372 0
M  V30 24610 N 2347.22 1.53172 -0.370945 0
M  V30 24611 C 2348.45 2.05752 0.217668 0
M  V30 24612 C 2348.87 1.24406 1.42016 0
M  V30 24613 O 2348.22 0.286065 1.80244 0
M  V30 24614 C 2348.27 3.56386 0.605891 0
M  V30 24615 O 2347.99 4.34649 -0.54881 0
M  V30 24616 C 2349.5 4.25243 1.25232 0
M  V30 24617 H 2346.72 0.669971 0.0371541 0
M  V30 24618 H 2349.26 1.97489 -0.530867 0
M  V30 24619 H 2347.41 3.64782 1.30434 0
M  V30 24620 H 2347.83 5.23978 -0.233852 0
M  V30 24621 H 2349.3 5.31943 1.47448 0
M  V30 24622 H 2349.78 3.793 2.21423 0
M  V30 24623 H 2350.39 4.21115 0.595159 0
M  V30 24624 N 2348.7 0.100255 1.57281 0
M  V30 24625 C 2349.63 -0.893575 2.09977 0
M  V30 24626 C 2350.61 -1.27303 1.01157 0
M  V30 24627 O 2351.8 -1.37736 1.28689 0
M  V30 24628 C 2348.92 -2.1932 2.58102 0
M  V30 24629 C 2347.97 -1.96322 3.78629 0
M  V30 24630 S 2348.8 -1.19653 5.21961 0
M  V30 24631 C 2349.96 -2.50834 5.7344 0
M  V30 24632 H 2350.19 -0.445288 2.93946 0
M  V30 24633 H 2347.72 -0.11314 1.53985 0
M  V30 24634 H 2349.68 -2.94 2.86486 0
M  V30 24635 H 2348.34 -2.61268 1.74349 0
M  V30 24636 H 2347.54 -2.92572 4.10387 0
M  V30 24637 H 2347.14 -1.29768 3.50765 0
M  V30 24638 H 2349.43 -3.46782 5.82021 0
M  V30 24639 H 2350.37 -2.23647 6.71854 0
M  V30 24640 H 2350.78 -2.59343 5.01399 0
M  V30 24641 N 2350.18 -1.56643 -0.17346 0
M  V30 24642 C 2351.11 -1.99273 -1.21706 0
M  V30 24643 C 2352.09 -0.867985 -1.46287 0
M  V30 24644 O 2353.28 -1.13391 -1.57658 0
M  V30 24645 C 2350.41 -2.35079 -2.55647 0
M  V30 24646 C 2349.36 -3.50494 -2.45639 0
M  V30 24647 C 2348.69 -3.72035 -3.84049 0
M  V30 24648 C 2349.99 -4.84011 -1.96293 0
M  V30 24649 H 2351.68 -2.86702 -0.8627 0
M  V30 24650 H 2349.23 -1.37934 -0.413547 0
M  V30 24651 H 2351.18 -2.63499 -3.28856 0
M  V30 24652 H 2349.9 -1.44557 -2.92867 0
M  V30 24653 H 2348.56 -3.22197 -1.74884 0
M  V30 24654 H 2348.21 -2.78808 -4.18659 0
M  V30 24655 H 2347.91 -4.49691 -3.78222 0
M  V30 24656 H 2349.43 -4.02854 -4.58847 0
M  V30 24657 H 2350.85 -5.11321 -2.59275 0
M  V30 24658 H 2349.24 -5.65288 -2.01419 0
M  V30 24659 H 2350.31 -4.76148 -0.917143 0
M  V30 24660 N 2351.66 0.44194 -1.51277 0
M  V30 24661 C 2352.91 1.1894 -1.63394 0
M  V30 24662 C 2353.23 1.9183 -0.350193 0
M  V30 24663 O 2352.5 1.85366 0.633752 0
M  V30 24664 H 2351.08 0.442039 -0.602172 0
M  V30 24665 H 2353.74 0.507132 -1.88187 0
M  V30 24666 H 2352.83 1.92149 -2.45937 0
M  V30 24667 N 2353.14 1.41345 0.697083 0
M  V30 24668 C 2354.38 1.4083 1.45928 0
M  V30 24669 C 2354.71 0.0167439 1.94193 0
M  V30 24670 O 2353.99 -0.955233 1.69427 0
M  V30 24671 C 2354.27 2.41377 2.67224 0
M  V30 24672 C 2354.13 3.89634 2.24735 0
M  V30 24673 C 2355.44 2.39202 3.69419 0
M  V30 24674 H 2352.56 0.512852 0.529294 0
M  V30 24675 H 2355.21 1.7261 0.794082 0
M  V30 24676 H 2353.36 2.14407 3.23978 0
M  V30 24677 H 2355.03 4.27502 1.7332 0
M  V30 24678 H 2353.27 4.04573 1.56535 0
M  V30 24679 H 2353.94 4.55531 3.11762 0
M  V30 24680 H 2356.42 2.63133 3.22335 0
M  V30 24681 H 2355.29 3.11571 4.51901 0
M  V30 24682 H 2355.55 1.41008 4.1901 0
M  V30 24683 N 2354.61 -0.931187 1.27148 0
M  V30 24684 C 2355.56 -2.0174 1.06231 0
M  V30 24685 C 2356.55 -1.60898 -0.00856237 0
M  V30 24686 O 2357.74 -1.75755 0.209568 0
M  V30 24687 C 2354.87 -3.35923 0.707846 0
M  V30 24688 C 2353.95 -3.8322 1.81668 0
M  V30 24689 N 2354.35 -4.03063 3.05571 0
M  V30 24690 C 2352.64 -4.12224 1.70256 0
M  V30 24691 C 2353.34 -4.42396 3.77704 0
M  V30 24692 N 2352.32 -4.49669 3.05448 0
M  V30 24693 H 2356.12 -2.15108 2.00264 0
M  V30 24694 H 2353.64 -1.11777 1.17812 0
M  V30 24695 H 2355.63 -4.134 0.539115 0
M  V30 24696 H 2354.29 -3.2392 -0.224907 0
M  V30 24697 H 2355.3 -3.8947 3.4137 0
M  V30 24698 H 2351.98 -4.08954 0.840401 0
M  V30 24699 H 2353.37 -4.65857 4.84176 0
M  V30 24700 N 2356.09 -1.09114 -1.13719 0
M  V30 24701 C 2357.37 -0.737737 -1.81154 0
M  V30 24702 C 2357.75 0.777649 -1.96255 0
M  V30 24703 O 2357.1 1.69886 -1.5281 0
M  V30 24704 C 2357.31 -1.47305 -3.16389 0
M  V30 24705 C 2358.65 -1.63677 -3.91784 0
M  V30 24706 O 2359.68 -1.4353 -3.26003 0
M  V30 24707 O 2358.54 -1.96978 -5.09767 0
M  V30 24708 H 2355.63 -0.264644 -0.783513 0
M  V30 24709 H 2358.18 -1.19315 -1.20674 0
M  V30 24710 H 2356.95 -2.50503 -3.00606 0
M  V30 24711 H 2356.57 -1.0096 -3.84568 0
M  V30 24712 N 2357.57 1.30887 -0.877861 0
M  V30 24713 C 2358.52 2.30266 -0.328702 0
M  V30 24714 C 2359.51 1.5986 0.560468 0
M  V30 24715 O 2360.72 1.74395 0.445691 0
M  V30 24716 H 2357.09 0.746877 -0.0876274 0
M  V30 24717 H 2359.06 2.74049 -1.18066 0
M  V30 24718 C 2357.81 3.44802 0.44801 0
M  V30 24719 H 2357.14 3.99155 -0.226929 0
M  V30 24720 H 2358.58 4.16433 0.797468 0
M  V30 24721 C 2357.03 2.94158 1.64234 0
M  V30 24722 O 2357.56 2.93588 2.74169 0
M  V30 24723 N 2355.77 2.50259 1.47712 0
M  V30 24724 H 2355.32 2.50921 0.582777 0
M  V30 24725 H 2355.28 2.16731 2.27761 0
M  V30 24726 N 2359.05 0.638091 1.44105 0
M  V30 24727 C 2360.29 0.145581 2.02277 0
M  V30 24728 C 2360.63 -1.23189 1.50127 0
M  V30 24729 O 2359.9 -1.81919 0.688165 0
M  V30 24730 C 2360.18 0.139854 3.59828 0
M  V30 24731 C 2360.04 1.55016 4.22244 0
M  V30 24732 C 2361.36 -0.531889 4.36874 0
M  V30 24733 H 2358.48 0.0543761 0.734991 0
M  V30 24734 H 2361.12 0.815893 1.7159 0
M  V30 24735 H 2359.27 -0.430939 3.86103 0
M  V30 24736 H 2360.94 2.17038 4.07053 0
M  V30 24737 H 2359.18 2.10197 3.79473 0
M  V30 24738 H 2359.85 1.49813 5.31282 0
M  V30 24739 H 2362.33 -0.046405 4.16074 0
M  V30 24740 H 2361.21 -0.50511 5.46571 0
M  V30 24741 H 2361.47 -1.60345 4.11997 0
M  V30 24742 N 2360.53 -1.52973 0.379063 0
M  V30 24743 C 2361.49 -2.24763 -0.448826 0
M  V30 24744 C 2362.49 -1.26029 -0.998667 0
M  V30 24745 O 2363.68 -1.50204 -0.882286 0
M  V30 24746 C 2360.81 -2.99478 -1.62866 0
M  V30 24747 H 2362 -2.99362 0.179544 0
M  V30 24748 H 2359.56 -1.5575 0.130988 0
M  V30 24749 H 2360.29 -2.29155 -2.29475 0
M  V30 24750 H 2360.08 -3.71936 -1.24121 0
M  V30 24751 H 2361.57 -3.54014 -2.21504 0
M  V30 24752 N 2362 -0.108595 -1.57225 0
M  V30 24753 C 2363.25 0.551669 -1.94009 0
M  V30 24754 C 2363.57 1.68492 -0.993471 0
M  V30 24755 O 2364.77 2.40724 -1.25555 0
M  V30 24756 C 2363.23 1.03273 -3.44765 0
M  V30 24757 C 2362.84 -0.071498 -4.47943 0
M  V30 24758 C 2364.58 1.66496 -3.90486 0
M  V30 24759 C 2362.49 0.425676 -5.89866 0
M  V30 24760 H 2361.42 0.20985 -0.724209 0
M  V30 24761 H 2364.07 -0.186773 -1.82547 0
M  V30 24762 H 2362.45 1.82527 -3.51425 0
M  V30 24763 H 2363.62 -0.847445 -4.5294 0
M  V30 24764 H 2361.94 -0.609741 -4.11912 0
M  V30 24765 H 2364.54 2.04789 -4.93929 0
M  V30 24766 H 2364.88 2.53936 -3.29882 0
M  V30 24767 H 2365.41 0.938006 -3.86583 0
M  V30 24768 H 2362.15 -0.412431 -6.54201 0
M  V30 24769 H 2361.67 1.16833 -5.88311 0
M  V30 24770 H 2363.35 0.890285 -6.40845 0
M  V30 24771 N 2363.48 1.56732 0.16515 0
M  V30 24772 C 2364.41 1.99916 1.20648 0
M  V30 24773 C 2365.39 0.875731 1.45825 0
M  V30 24774 O 2366.58 1.14226 1.57055 0
M  V30 24775 C 2363.71 2.36431 2.54396 0
M  V30 24776 C 2362.66 3.51791 2.43776 0
M  V30 24777 C 2361.99 3.74067 3.82071 0
M  V30 24778 C 2363.29 4.85045 1.93724 0
M  V30 24779 H 2364.98 2.87155 0.847483 0
M  V30 24780 H 2362.53 1.38151 0.406226 0
M  V30 24781 H 2364.48 2.6524 3.27454 0
M  V30 24782 H 2363.2 1.46108 2.92096 0
M  V30 24783 H 2361.86 3.2312 1.73173 0
M  V30 24784 H 2361.51 2.81024 4.17174 0
M  V30 24785 H 2361.21 4.51691 3.75832 0
M  V30 24786 H 2362.74 4.05282 4.56705 0
M  V30 24787 H 2364.15 5.12689 2.5656 0
M  V30 24788 H 2362.55 5.66348 1.98418 0
M  V30 24789 H 2363.62 4.76627 0.891879 0
M  V30 24790 N 2364.96 -0.433911 1.51509 0
M  V30 24791 C 2366.37 -1.01366 1.56786 0
M  V30 24792 C 2366.72 -1.92216 0.393383 0
M  V30 24793 O 2365.85 -2.10793 -0.489404 0
M  V30 24794 C 2366.44 -1.84515 2.84147 0
M  V30 24795 C 2365 -2.37533 2.91984 0
M  V30 24796 C 2364.15 -1.16839 2.51484 0
M  V30 24797 H 2367.1 -0.215053 1.57236 0
M  V30 24798 H 2367.12 -2.70002 2.68103 0
M  V30 24799 H 2366.63 -1.18366 3.69609 0
M  V30 24800 H 2364.73 -3.07126 2.1096 0
M  V30 24801 H 2364.85 -2.70096 3.95708 0
M  V30 24802 H 2363.21 -1.51477 2.0476 0
M  V30 24803 H 2363.99 -0.522955 3.39293 0
M  V30 24804 N 2366.44 -1.41713 -0.689577 0
M  V30 24805 C 2367.67 -1.4476 -1.47825 0
M  V30 24806 C 2368.08 -0.0546035 -1.88721 0
M  V30 24807 O 2367.44 0.927435 -1.57178 0
M  V30 24808 C 2367.49 -2.36165 -2.73694 0
M  V30 24809 O 2367.21 -3.70045 -2.34518 0
M  V30 24810 C 2368.71 -2.48079 -3.67385 0
M  V30 24811 H 2365.93 -0.492848 -0.455349 0
M  V30 24812 H 2368.48 -1.86065 -0.848541 0
M  V30 24813 H 2366.63 -1.98154 -3.32887 0
M  V30 24814 H 2367.04 -4.18853 -3.15694 0
M  V30 24815 H 2368.52 -3.16189 -4.52469 0
M  V30 24816 H 2369 -1.51395 -4.12282 0
M  V30 24817 H 2369.6 -2.86751 -3.14092 0
M  V30 24818 N 2367.92 0.924431 -1.2764 0
M  V30 24819 C 2368.87 2.01174 -1.07299 0
M  V30 24820 C 2369.85 1.609 2.9453e-05 0
M  V30 24821 O 2371.04 1.75641 -0.218886 0
M  V30 24822 C 2368.17 3.35543 -0.725651 0
M  V30 24823 C 2367.26 3.82251 -1.83698 0
M  V30 24824 N 2367.65 4.01437 -3.07704 0
M  V30 24825 C 2365.95 4.11316 -1.7244 0
M  V30 24826 C 2366.65 4.40387 -3.80045 0
M  V30 24827 N 2365.62 4.48043 -3.07828 0
M  V30 24828 H 2369.43 2.14043 -2.01402 0
M  V30 24829 H 2366.94 1.11151 -1.18403 0
M  V30 24830 H 2368.94 4.13108 -0.561031 0
M  V30 24831 H 2367.6 3.24035 0.207725 0
M  V30 24832 H 2368.61 3.87654 -3.43431 0
M  V30 24833 H 2365.28 4.08503 -0.862077 0
M  V30 24834 H 2366.67 4.63283 -4.8664 0
M  V30 24835 N 2369.39 1.09715 1.13139 0
M  V30 24836 C 2370.36 0.742789 2.1683 0
M  V30 24837 C 2371.36 -0.229101 1.5916 0
M  V30 24838 O 2372.55 -0.00690175 1.74199 0
M  V30 24839 C 2369.68 0.0989767 3.40756 0
M  V30 24840 H 2370.87 1.66114 2.49692 0
M  V30 24841 H 2368.43 0.896721 1.28018 0
M  V30 24842 H 2369.16 -0.830459 3.13487 0
M  V30 24843 H 2368.95 0.798333 3.83887 0
M  V30 24844 H 2370.44 -0.13345 4.17387 0
M  V30 24845 N 2370.87 -1.30419 0.88479 0
M  V30 24846 C 2372.1 -2.00845 0.517323 0
M  V30 24847 C 2372.52 -1.65887 -0.88675 0
M  V30 24848 O 2371.88 -0.875382 -1.58766 0
M  V30 24849 C 2371.93 -3.53759 0.699056 0
M  V30 24850 O 2371.03 -4.1161 -0.255136 0
M  V30 24851 H 2370.37 -0.631924 0.203883 0
M  V30 24852 H 2372.9 -1.6627 1.19228 0
M  V30 24853 H 2372.91 -4.03594 0.597983 0
M  V30 24854 H 2371.59 -3.78541 1.72277 0
M  V30 24855 H 2370.17 -3.72744 -0.107774 0
M  V30 24856 N 2372.35 -0.645724 -1.43764 0
M  V30 24857 C 2373.76 -0.236751 -1.85193 0
M  V30 24858 C 2374.11 1.21506 -1.54047 0
M  V30 24859 O 2373.24 1.92646 -0.985727 0
M  V30 24860 C 2373.83 -0.422904 -3.3615 0
M  V30 24861 C 2372.39 -0.0683154 -3.76338 0
M  V30 24862 C 2371.54 -0.729353 -2.67536 0
M  V30 24863 H 2374.49 -0.849907 -1.34023 0
M  V30 24864 H 2374.51 0.333837 -3.79033 0
M  V30 24865 H 2374.02 -1.47964 -3.58787 0
M  V30 24866 H 2372.12 0.986116 -3.59314 0
M  V30 24867 H 2372.24 -0.488553 -4.76603 0
M  V30 24868 H 2370.6 -0.16328 -2.54176 0
M  V30 24869 H 2371.38 -1.78897 -2.93003 0
M  V30 24870 N 2373.83 1.5277 -0.38717 0
M  V30 24871 C 2375.08 2.01154 0.195313 0
M  V30 24872 C 2375.4 1.27551 1.47498 0
M  V30 24873 O 2374.67 0.394958 1.91877 0
M  V30 24874 H 2373.25 0.743209 0.0751649 0
M  V30 24875 H 2375.91 1.8788 -0.51837 0
M  V30 24876 H 2375.01 3.09434 0.407042 0
M  V30 24877 N 2375.31 0.116931 1.57166 0
M  V30 24878 C 2376.22 -0.847774 2.18746 0
M  V30 24879 C 2377.23 -1.29421 1.16302 0
M  V30 24880 O 2378.41 -1.35762 1.48763 0
M  V30 24881 C 2375.47 -2.08085 2.77311 0
M  V30 24882 C 2374.53 -1.68654 3.94784 0
M  V30 24883 C 2373.77 -2.86083 4.50546 0
M  V30 24884 O 2373.99 -4.01449 4.05209 0
M  V30 24885 O 2372.92 -2.63288 5.41261 0
M  V30 24886 H 2376.75 -0.353725 3.01633 0
M  V30 24887 H 2374.34 -0.108573 1.49005 0
M  V30 24888 H 2376.22 -2.80307 3.14652 0
M  V30 24889 H 2374.89 -2.56501 1.97457 0
M  V30 24890 H 2373.8 -0.935454 3.62215 0
M  V30 24891 H 2375.13 -1.24982 4.76068 0
M  V30 24892 N 2376.78 -1.56818 -0.156836 0
M  V30 24893 C 2378.01 -1.86956 -0.886283 0
M  V30 24894 C 2378.43 -0.704006 -1.75183 0
M  V30 24895 O 2377.78 0.326521 -1.79555 0
M  V30 24896 C 2377.84 -3.16257 -1.75112 0
M  V30 24897 O 2377.56 -4.28321 -0.920461 0
M  V30 24898 C 2379.06 -3.59842 -2.58899 0
M  V30 24899 H 2376.28 -0.619928 -0.256769 0
M  V30 24900 H 2378.82 -2.0393 -0.152579 0
M  V30 24901 H 2376.98 -3.01066 -2.43799 0
M  V30 24902 H 2377.39 -5.02195 -1.51329 0
M  V30 24903 H 2378.86 -4.53178 -3.15172 0
M  V30 24904 H 2379.34 -2.84655 -3.34467 0
M  V30 24905 H 2379.95 -3.77693 -1.95519 0
M  V30 24906 N 2378.26 0.425871 -1.51737 0
M  V30 24907 C 2379.51 1.17133 -1.64203 0
M  V30 24908 C 2379.82 1.92074 -0.369739 0
M  V30 24909 O 2381.03 2.68912 -0.373945 0
M  V30 24910 C 2379.49 2.13086 -2.90039 0
M  V30 24911 C 2379.09 1.4374 -4.24315 0
M  V30 24912 C 2380.84 2.87994 -3.11865 0
M  V30 24913 C 2378.75 2.38243 -5.41289 0
M  V30 24914 H 2377.68 0.440933 -0.611632 0
M  V30 24915 H 2380.33 0.437296 -1.78213 0
M  V30 24916 H 2378.71 2.89972 -2.69689 0
M  V30 24917 H 2379.88 0.723328 -4.55087 0
M  V30 24918 H 2378.2 0.809393 -4.08458 0
M  V30 24919 H 2380.79 3.5881 -3.96433 0
M  V30 24920 H 2381.14 3.49995 -2.2541 0
M  V30 24921 H 2381.67 2.18212 -3.32609 0
M  V30 24922 H 2378.41 1.80914 -6.3004 0
M  V30 24923 H 2377.93 3.07671 -5.14878 0
M  V30 24924 H 2379.61 2.99129 -5.73699 0
M  V30 24925 N 2379.74 1.42077 0.682052 0
M  V30 24926 C 2380.99 1.42369 1.44426 0
M  V30 24927 C 2381.32 0.0373397 1.94164 0
M  V30 24928 O 2380.59 -0.93721 1.70431 0
M  V30 24929 C 2380.88 2.44198 2.64649 0
M  V30 24930 C 2380.73 3.91995 2.20589 0
M  V30 24931 C 2382.05 2.43107 3.66861 0
M  V30 24932 H 2379.17 0.518437 0.523825 0
M  V30 24933 H 2381.81 1.73443 0.77573 0
M  V30 24934 H 2379.96 2.17831 3.21686 0
M  V30 24935 H 2381.63 4.29316 1.68776 0
M  V30 24936 H 2379.88 4.06211 1.52235 0
M  V30 24937 H 2380.55 4.58812 3.06913 0
M  V30 24938 H 2383.02 2.66537 3.19526 0
M  V30 24939 H 2381.9 3.16347 4.48571 0
M  V30 24940 H 2382.16 1.45444 4.17491 0
M  V30 24941 N 2381.22 -0.917649 1.28129 0
M  V30 24942 C 2382.47 -1.66095 1.14435 0
M  V30 24943 C 2382.78 -1.93172 -0.307213 0
M  V30 24944 O 2383.99 -2.65552 -0.565212 0
M  V30 24945 C 2382.44 -2.99199 2.0002 0
M  V30 24946 C 2382.05 -2.79783 3.49893 0
M  V30 24947 C 2383.8 -3.7706 1.95002 0
M  V30 24948 C 2381.7 -4.08503 4.27643 0
M  V30 24949 H 2380.63 -0.623032 0.424673 0
M  V30 24950 H 2383.28 -1.01865 1.52629 0
M  V30 24951 H 2381.67 -3.64542 1.54678 0
M  V30 24952 H 2382.84 -2.23145 4.03166 0
M  V30 24953 H 2381.15 -2.15339 3.56396 0
M  V30 24954 H 2383.75 -4.72465 2.50362 0
M  V30 24955 H 2384.09 -4.05873 0.92589 0
M  V30 24956 H 2384.63 -3.1853 2.38293 0
M  V30 24957 H 2381.37 -3.84865 5.30621 0
M  V30 24958 H 2380.89 -4.64768 3.79145 0
M  V30 24959 H 2382.57 -4.76791 4.37355 0
M  V30 24960 N 2382.7 -1.10314 -1.12555 0
M  V30 24961 C 2383.97 -0.75691 -1.80361 0
M  V30 24962 C 2384.35 0.75679 -1.97068 0
M  V30 24963 O 2383.7 1.68256 -1.54603 0
M  V30 24964 C 2383.91 -1.50652 -3.14809 0
M  V30 24965 C 2385.26 -1.67824 -3.90026 0
M  V30 24966 O 2386.28 -1.46979 -3.24462 0
M  V30 24967 O 2385.14 -2.02374 -5.07649 0
M  V30 24968 H 2382.24 -0.272939 -0.780662 0
M  V30 24969 H 2384.78 -1.20588 -1.19401 0
M  V30 24970 H 2383.56 -2.53677 -2.97932 0
M  V30 24971 H 2383.18 -1.05033 -3.83476 0
M  V30 24972 N 2384.18 1.29948 -0.891694 0
M  V30 24973 C 2385.42 1.95493 -0.512521 0
M  V30 24974 C 2385.74 1.70697 0.942746 0
M  V30 24975 O 2385.01 1.03427 1.66372 0
M  V30 24976 H 2383.59 0.723332 -0.186546 0
M  V30 24977 H 2386.26 1.58353 -1.13624 0
M  V30 24978 H 2385.35 3.04413 -0.688395 0
M  V30 24979 N 2385.65 0.653339 1.4342 0
M  V30 24980 C 2386.6 -0.0381866 2.30768 0
M  V30 24981 C 2387.57 -0.814551 1.44756 0
M  V30 24982 O 2388.76 -0.791131 1.73625 0
M  V30 24983 C 2385.9 -0.998541 3.30338 0
M  V30 24984 C 2385.01 -0.218266 4.31448 0
M  V30 24985 C 2384.14 -1.17243 5.181 0
M  V30 24986 C 2383.18 -0.382595 6.10903 0
M  V30 24987 N 2382.32 -1.28836 6.90178 0
M  V30 24988 H 2387.16 0.712562 2.89355 0
M  V30 24989 H 2384.7 0.363153 1.42547 0
M  V30 24990 H 2386.65 -1.56894 3.86575 0
M  V30 24991 H 2385.28 -1.71616 2.734 0
M  V30 24992 H 2384.34 0.468427 3.77505 0
M  V30 24993 H 2385.65 0.395899 4.97226 0
M  V30 24994 H 2384.8 -1.81346 5.78963 0
M  V30 24995 H 2383.54 -1.8205 4.52448 0
M  V30 24996 H 2382.55 0.271787 5.49128 0
M  V30 24997 H 2383.77 0.261076 6.78598 0
M  V30 24998 H 2381.72 -1.92323 6.27175 0
M  V30 24999 H 2381.63 -0.728755 7.52479 0
M  V30 25000 H 2382.9 -1.91753 7.55547 0
M  V30 25001 N 2387.13 -1.52563 0.395266 0
M  V30 25002 C 2388.04 -2.30356 -0.444191 0
M  V30 25003 C 2389.06 -1.37513 -1.06612 0
M  V30 25004 O 2390.23 -1.70585 -1.07064 0
M  V30 25005 C 2387.3 -3.09967 -1.5531 0
M  V30 25006 C 2386.36 -4.18528 -0.95566 0
M  V30 25007 C 2385.59 -4.94333 -2.01173 0
M  V30 25008 O 2385.82 -4.70291 -3.22773 0
M  V30 25009 O 2384.75 -5.7953 -1.62569 0
M  V30 25010 H 2388.58 -3.03107 0.18972 0
M  V30 25011 H 2386.16 -1.48553 0.158826 0
M  V30 25012 H 2388.04 -3.59586 -2.19718 0
M  V30 25013 H 2386.72 -2.40024 -2.17187 0
M  V30 25014 H 2385.62 -3.7309 -0.274678 0
M  V30 25015 H 2386.96 -4.90723 -0.381023 0
M  V30 25016 N 2388.61 -0.125265 -1.57101 0
M  V30 25017 C 2389.86 0.532 -1.95698 0
M  V30 25018 C 2390.19 1.65928 -1.00903 0
M  V30 25019 O 2389.46 1.94442 -0.0473812 0
M  V30 25020 C 2389.75 1.05878 -3.44183 0
M  V30 25021 C 2389.6 -0.0655182 -4.49752 0
M  V30 25022 C 2390.92 1.94764 -3.94658 0
M  V30 25023 H 2388.04 0.191913 -0.711575 0
M  V30 25024 H 2390.68 -0.202094 -1.88922 0
M  V30 25025 H 2388.83 1.68436 -3.50088 0
M  V30 25026 H 2390.5 -0.701063 -4.55942 0
M  V30 25027 H 2388.74 -0.727784 -4.27651 0
M  V30 25028 H 2389.42 0.344409 -5.50925 0
M  V30 25029 H 2391.89 1.42067 -3.91096 0
M  V30 25030 H 2390.77 2.28538 -4.99061 0
M  V30 25031 H 2391.03 2.8765 -3.35723 0
M  V30 25032 N 2390.09 1.56899 0.148518 0
M  V30 25033 C 2391 2.01414 1.2029 0
M  V30 25034 C 2392.01 0.929299 1.47105 0
M  V30 25035 O 2393.19 1.23866 1.58805 0
M  V30 25036 C 2390.25 2.38452 2.51678 0
M  V30 25037 C 2389.32 3.60876 2.32523 0
M  V30 25038 C 2388.55 3.96138 3.57646 0
M  V30 25039 O 2388.77 3.32081 4.63765 0
M  V30 25040 O 2387.71 4.89391 3.50399 0
M  V30 25041 H 2391.53 2.91417 0.854974 0
M  V30 25042 H 2389.12 1.45069 0.357126 0
M  V30 25043 H 2391 2.63141 3.29143 0
M  V30 25044 H 2389.67 1.51604 2.86003 0
M  V30 25045 H 2388.58 3.41376 1.53013 0
M  V30 25046 H 2389.91 4.48337 2.03113 0
M  V30 25047 N 2391.57 -0.417818 1.51961 0
M  V30 25048 C 2392.81 -1.16729 1.65838 0
M  V30 25049 C 2393.14 -1.90388 0.382914 0
M  V30 25050 O 2392.42 -1.8441 -0.618335 0
M  V30 25051 C 2392.7 -2.16871 2.8747 0
M  V30 25052 C 2392.56 -1.47167 4.25043 0
M  V30 25053 C 2393.87 -3.1764 3.04619 0
M  V30 25054 H 2390.99 -0.423001 0.603522 0
M  V30 25055 H 2393.64 -0.454072 1.84494 0
M  V30 25056 H 2391.79 -2.77695 2.71694 0
M  V30 25057 H 2393.46 -0.895297 4.52529 0
M  V30 25058 H 2391.7 -0.773731 4.26844 0
M  V30 25059 H 2392.37 -2.20195 5.0618 0
M  V30 25060 H 2394.85 -2.66886 3.19235 0
M  V30 25061 H 2393.72 -3.84983 3.91253 0
M  V30 25062 H 2393.98 -3.84871 2.17548 0
M  V30 25063 N 2393.04 -1.42436 -0.674508 0
M  V30 25064 C 2393.97 -1.48727 -1.80007 0
M  V30 25065 C 2394.95 -0.343822 -1.66589 0
M  V30 25066 O 2396.14 -0.558169 -1.86006 0
M  V30 25067 C 2393.27 -1.38925 -3.18304 0
M  V30 25068 C 2392.22 -2.513 -3.46457 0
M  V30 25069 C 2391.55 -2.26555 -4.84331 0
M  V30 25070 C 2392.85 -3.93609 -3.43321 0
M  V30 25071 H 2394.54 -2.42931 -1.74999 0
M  V30 25072 H 2392.09 -1.16925 -0.840512 0
M  V30 25073 H 2394.04 -1.41934 -3.96778 0
M  V30 25074 H 2392.77 -0.412151 -3.23989 0
M  V30 25075 H 2391.43 -2.47608 -2.70344 0
M  V30 25076 H 2391.07 -1.27138 -4.86667 0
M  V30 25077 H 2390.77 -3.0187 -5.04131 0
M  V30 25078 H 2392.3 -2.31314 -5.6509 0
M  V30 25079 H 2393.71 -3.98902 -4.11765 0
M  V30 25080 H 2392.11 -4.68778 -3.74656 0
M  V30 25081 H 2393.18 -4.20259 -2.41889 0
M  V30 25082 N 2394.52 0.910841 -1.28614 0
M  V30 25083 C 2395.8 1.63977 -1.06635 0
M  V30 25084 C 2396.18 2.07404 0.393314 0
M  V30 25085 O 2395.53 1.82125 1.37996 0
M  V30 25086 C 2395.74 2.82906 -2.04365 0
M  V30 25087 C 2397.08 3.53856 -2.34672 0
M  V30 25088 O 2398.11 2.93059 -2.02472 0
M  V30 25089 O 2396.97 4.63434 -2.89639 0
M  V30 25090 H 2394.06 0.719492 -0.40775 0
M  V30 25091 H 2396.61 0.95989 -1.39944 0
M  V30 25092 H 2395.38 2.47931 -3.02731 0
M  V30 25093 H 2395 3.58606 -1.7172 0
M  V30 25094 N 2396 1.10909 1.11969 0
M  V30 25095 C 2396.96 0.765745 2.1603 0
M  V30 25096 C 2397.96 -0.212207 1.59394 0
M  V30 25097 O 2399.15 0.0115747 1.74196 0
M  V30 25098 C 2396.29 0.135113 3.40632 0
M  V30 25099 H 2397.48 1.68753 2.47916 0
M  V30 25100 H 2395.03 0.910249 1.2706 0
M  V30 25101 H 2395.77 -0.797162 3.1435 0
M  V30 25102 H 2395.55 0.839004 3.83018 0
M  V30 25103 H 2397.04 -0.0891735 4.17505 0
M  V30 25104 N 2397.48 -1.29474 0.898573 0
M  V30 25105 C 2398.43 -2.27752 0.373859 0
M  V30 25106 C 2399.4 -1.56959 -0.543417 0
M  V30 25107 O 2400.58 -1.84949 -0.468902 0
M  V30 25108 C 2397.72 -3.42848 -0.393588 0
M  V30 25109 C 2396.83 -4.28427 0.554454 0
M  V30 25110 C 2395.97 -5.30702 -0.229933 0
M  V30 25111 C 2395.01 -6.07937 0.712706 0
M  V30 25112 N 2394.14 -7.0209 -0.0372049 0
M  V30 25113 H 2398.98 -2.72015 1.21703 0
M  V30 25114 H 2396.52 -1.33788 0.611479 0
M  V30 25115 H 2398.48 -4.08354 -0.854588 0
M  V30 25116 H 2397.11 -2.99617 -1.20122 0
M  V30 25117 H 2396.16 -3.63105 1.13397 0
M  V30 25118 H 2397.47 -4.82202 1.27605 0
M  V30 25119 H 2396.63 -6.02019 -0.752182 0
M  V30 25120 H 2395.37 -4.77656 -0.984674 0
M  V30 25121 H 2394.37 -5.35484 1.24646 0
M  V30 25122 H 2395.6 -6.63071 1.46676 0
M  V30 25123 H 2393.54 -6.51415 -0.774233 0
M  V30 25124 H 2393.46 -7.53416 0.624506 0
M  V30 25125 H 2394.73 -7.77629 -0.539754 0
M  V30 25126 N 2398.96 -0.660936 -1.43071 0
M  V30 25127 C 2399.92 0.0166003 -2.29194 0
M  V30 25128 C 2400.92 0.742887 -1.42611 0
M  V30 25129 O 2402.11 0.582975 -1.64156 0
M  V30 25130 C 2399.24 1.03424 -3.24833 0
M  V30 25131 H 2400.43 -0.741259 -2.90595 0
M  V30 25132 H 2397.99 -0.422558 -1.5048 0
M  V30 25133 H 2398.72 1.82107 -2.68342 0
M  V30 25134 H 2398.51 0.517014 -3.88676 0
M  V30 25135 H 2400 1.50716 -3.89454 0
M  V30 25136 N 2400.43 1.52351 -0.403352 0
M  V30 25137 C 2401.36 2.29761 0.416165 0
M  V30 25138 C 2402.35 1.3373 1.0512 0
M  V30 25139 O 2403.53 1.62634 1.06131 0
M  V30 25140 C 2400.66 3.11478 1.53619 0
M  V30 25141 C 2399.61 4.15509 1.02645 0
M  V30 25142 C 2398.94 4.85535 2.23963 0
M  V30 25143 C 2400.24 5.22232 0.0845382 0
M  V30 25144 H 2401.93 2.98517 -0.229754 0
M  V30 25145 H 2399.48 1.43564 -0.111938 0
M  V30 25146 H 2401.43 3.64397 2.11644 0
M  V30 25147 H 2400.16 2.40481 2.2099 0
M  V30 25148 H 2398.82 3.63592 0.468646 0
M  V30 25149 H 2398.46 4.11073 2.89876 0
M  V30 25150 H 2398.16 5.55859 1.90511 0
M  V30 25151 H 2399.69 5.41264 2.82605 0
M  V30 25152 H 2401.1 5.70425 0.573409 0
M  V30 25153 H 2399.5 5.99884 -0.160889 0
M  V30 25154 H 2400.57 4.77168 -0.862454 0
M  V30 25155 N 2401.91 0.133594 1.57033 0
M  V30 25156 C 2402.82 -0.824525 2.19633 0
M  V30 25157 C 2403.84 -1.2818 1.17668 0
M  V30 25158 O 2405.01 -1.34177 1.50195 0
M  V30 25159 C 2402.08 -2.05132 2.79502 0
M  V30 25160 C 2401.14 -1.64457 3.96551 0
M  V30 25161 C 2400.37 -2.81289 4.53555 0
M  V30 25162 O 2400.6 -3.97129 4.09445 0
M  V30 25163 O 2399.53 -2.57532 5.44023 0
M  V30 25164 H 2403.36 -0.321712 3.01991 0
M  V30 25165 H 2400.94 -0.0927627 1.49112 0
M  V30 25166 H 2402.82 -2.76954 3.17607 0
M  V30 25167 H 2401.5 -2.54392 2.00166 0
M  V30 25168 H 2400.41 -0.896984 3.63187 0
M  V30 25169 H 2401.74 -1.19926 4.77366 0
M  V30 25170 N 2403.39 -1.56975 -0.140195 0
M  V30 25171 C 2404.67 -1.74649 -0.880739 0
M  V30 25172 C 2405.05 -0.703439 -1.99035 0
M  V30 25173 O 2404.4 0.27644 -2.26822 0
M  V30 25174 C 2404.61 -3.18942 -1.41694 0
M  V30 25175 C 2405.95 -3.80826 -1.87767 0
M  V30 25176 O 2406.98 -3.22413 -1.51421 0
M  V30 25177 O 2405.84 -4.83456 -2.54819 0
M  V30 25178 H 2402.93 -0.714345 -0.416701 0
M  V30 25179 H 2405.48 -1.69235 -0.125588 0
M  V30 25180 H 2404.25 -3.8636 -0.619834 0
M  V30 25181 H 2403.87 -3.28809 -2.23541 0
M  V30 25182 N 2404.87 0.409753 -1.5218 0
M  V30 25183 C 2405.8 1.51822 -1.71705 0
M  V30 25184 C 2406.81 1.5144 -0.597471 0
M  V30 25185 O 2408 1.55717 -0.872609 0
M  V30 25186 C 2405.1 2.90716 -1.74176 0
M  V30 25187 C 2404.28 3.15297 -3.03161 0
M  V30 25188 C 2403.33 4.3406 -2.97453 0
M  V30 25189 O 2402.36 4.3137 -3.7136 0
M  V30 25190 N 2403.56 5.39137 -2.152 0
M  V30 25191 H 2406.33 1.35467 -2.67336 0
M  V30 25192 H 2403.89 0.599043 -1.5041 0
M  V30 25193 H 2405.88 3.68232 -1.6789 0
M  V30 25194 H 2404.45 3.00531 -0.860218 0
M  V30 25195 H 2403.67 2.2583 -3.23101 0
M  V30 25196 H 2404.96 3.28562 -3.8849 0
M  V30 25197 H 2404.36 5.4417 -1.54582 0
M  V30 25198 H 2402.91 6.154 -2.14771 0
M  V30 25199 N 2406.35 1.42792 0.666944 0
M  V30 25200 C 2407.31 1.46571 1.76209 0
M  V30 25201 C 2408.31 0.352224 1.56895 0
M  V30 25202 O 2409.5 0.613393 1.63043 0
M  V30 25203 C 2406.63 1.305 3.14933 0
M  V30 25204 H 2407.82 2.44089 1.74243 0
M  V30 25205 H 2405.38 1.29355 0.877319 0
M  V30 25206 H 2406.11 0.339358 3.2252 0
M  V30 25207 H 2405.9 2.11205 3.30356 0
M  V30 25208 H 2407.39 1.36045 3.94818 0
M  V30 25209 N 2407.82 -0.904008 1.29095 0
M  V30 25210 C 2409.07 -1.65083 1.16585 0
M  V30 25211 C 2409.39 -1.92922 -0.283899 0
M  V30 25212 O 2408.66 -1.55226 -1.19506 0
M  V30 25213 H 2407.24 -0.611895 0.428478 0
M  V30 25214 H 2409.91 -1.08419 1.61961 0
M  V30 25215 H 2409 -2.60907 1.71271 0
M  V30 25216 N 2409.3 -1.11501 -1.11379 0
M  V30 25217 C 2410.53 -0.886783 -1.86933 0
M  V30 25218 C 2410.95 0.563445 -1.80196 0
M  V30 25219 O 2410.3 1.38906 -1.1837 0
M  V30 25220 C 2410.35 -1.3407 -3.35719 0
M  V30 25221 O 2410.07 -2.73407 -3.42316 0
M  V30 25222 C 2411.58 -1.14798 -4.28178 0
M  V30 25223 H 2408.8 -0.317534 -0.591112 0
M  V30 25224 H 2411.34 -1.4825 -1.40862 0
M  V30 25225 H 2409.49 -0.788421 -3.79292 0
M  V30 25226 H 2409.91 -2.93095 -4.34966 0
M  V30 25227 H 2411.38 -1.51459 -5.30815 0
M  V30 25228 H 2411.86 -0.087605 -4.39113 0
M  V30 25229 H 2412.47 -1.68728 -3.90399 0
M  V30 25230 N 2410.78 1.28995 -0.905426 0
M  V30 25231 C 2411.73 2.29517 -0.377471 0
M  V30 25232 C 2412.72 1.61013 0.526433 0
M  V30 25233 O 2413.93 1.75301 0.408599 0
M  V30 25234 H 2410.3 0.74485 -0.10345 0
M  V30 25235 H 2412.28 2.71483 -1.23853 0
M  V30 25236 C 2411.02 3.45674 0.374772 0
M  V30 25237 H 2410.35 3.98584 -0.311544 0
M  V30 25238 H 2411.79 4.18031 0.708957 0
M  V30 25239 C 2410.25 2.97575 1.57958 0
M  V30 25240 O 2410.78 2.99338 2.6788 0
M  V30 25241 N 2408.98 2.53336 1.4237 0
M  V30 25242 H 2408.53 2.52101 0.529422 0
M  V30 25243 H 2408.49 2.21513 2.23113 0
M  V30 25244 N 2412.26 0.668514 1.42719 0
M  V30 25245 C 2413.19 0.000141219 2.335 0
M  V30 25246 C 2414.17 -0.795938 1.50329 0
M  V30 25247 O 2415.36 -0.754353 1.7895 0
M  V30 25248 C 2412.49 -0.956243 3.33876 0
M  V30 25249 C 2411.44 -0.269203 4.27153 0
M  V30 25250 C 2410.77 -1.33809 5.17686 0
M  V30 25251 C 2412.07 0.847896 5.15372 0
M  V30 25252 H 2413.76 0.758295 2.89638 0
M  V30 25253 H 2411.31 0.366104 1.39268 0
M  V30 25254 H 2413.26 -1.43285 3.96292 0
M  V30 25255 H 2411.98 -1.74574 2.76028 0
M  V30 25256 H 2410.64 0.187106 3.66122 0
M  V30 25257 H 2410.29 -2.11942 4.56168 0
M  V30 25258 H 2409.99 -0.883557 5.80919 0
M  V30 25259 H 2411.51 -1.81576 5.82977 0
M  V30 25260 H 2412.93 0.452782 5.71509 0
M  V30 25261 H 2411.32 1.22784 5.87405 0
M  V30 25262 H 2412.39 1.69937 4.54147 0
M  V30 25263 N 2413.74 -1.52135 0.411426 0
M  V30 25264 C 2414.65 -2.30815 -0.419734 0
M  V30 25265 C 2415.66 -1.38636 -1.05148 0
M  V30 25266 O 2416.84 -1.71711 -1.05249 0
M  V30 25267 C 2413.9 -3.11597 -1.52014 0
M  V30 25268 C 2412.97 -4.19518 -0.911216 0
M  V30 25269 C 2412.2 -4.96439 -1.95918 0
M  V30 25270 O 2412.42 -4.73688 -3.17767 0
M  V30 25271 O 2411.36 -5.81222 -1.56413 0
M  V30 25272 H 2415.18 -3.02889 0.221858 0
M  V30 25273 H 2412.77 -1.48377 0.174573 0
M  V30 25274 H 2414.65 -3.61896 -2.15891 0
M  V30 25275 H 2413.32 -2.42314 -2.14629 0
M  V30 25276 H 2412.23 -3.73361 -0.235091 0
M  V30 25277 H 2413.56 -4.911 -0.328954 0
M  V30 25278 N 2415.22 -0.14192 -1.5696 0
M  V30 25279 C 2416.46 0.510393 -1.95136 0
M  V30 25280 C 2416.78 1.66347 -1.02899 0
M  V30 25281 O 2417.98 2.38007 -1.30633 0
M  V30 25282 C 2416.44 0.959366 -3.46878 0
M  V30 25283 C 2416.05 -0.166497 -4.47691 0
M  V30 25284 C 2417.79 1.58176 -3.9393 0
M  V30 25285 C 2415.7 0.300461 -5.90636 0
M  V30 25286 H 2414.63 0.194441 -0.728498 0
M  V30 25287 H 2417.28 -0.225452 -1.8211 0
M  V30 25288 H 2415.66 1.75032 -3.55218 0
M  V30 25289 H 2416.84 -0.943329 -4.51041 0
M  V30 25290 H 2415.15 -0.696977 -4.10526 0
M  V30 25291 H 2417.75 1.94266 -4.98161 0
M  V30 25292 H 2418.09 2.46882 -3.35194 0
M  V30 25293 H 2418.62 0.855795 -3.88486 0
M  V30 25294 H 2415.36 -0.551104 -6.53179 0
M  V30 25295 H 2414.88 1.04328 -5.90657 0
M  V30 25296 H 2416.56 0.754152 -6.4259 0
M  V30 25297 N 2416.69 1.57047 0.131868 0
M  V30 25298 C 2417.92 1.88343 0.856428 0
M  V30 25299 C 2418.34 0.731787 1.74041 0
M  V30 25300 O 2417.69 -0.297914 1.80052 0
M  V30 25301 C 2417.74 3.19002 1.70058 0
M  V30 25302 O 2417.47 4.29731 0.852203 0
M  V30 25303 C 2418.97 3.63915 2.53141 0
M  V30 25304 H 2416.19 0.623934 0.246874 0
M  V30 25305 H 2418.73 2.04147 0.120117 0
M  V30 25306 H 2416.89 3.04906 2.38979 0
M  V30 25307 H 2417.3 5.04539 1.4332 0
M  V30 25308 H 2418.77 4.58135 3.07923 0
M  V30 25309 H 2419.25 2.8994 3.29896 0
M  V30 25310 H 2419.86 3.80756 1.89486 0
M  V30 25311 N 2418.17 -0.401677 1.52395 0
M  V30 25312 C 2419.42 -1.14506 1.66046 0
M  V30 25313 C 2419.73 -1.91461 0.400249 0
M  V30 25314 O 2420.94 -2.68283 0.41668 0
M  V30 25315 C 2419.4 -2.08444 2.93392 0
M  V30 25316 C 2419 -1.36971 4.26548 0
M  V30 25317 C 2420.75 -2.82996 3.16407 0
M  V30 25318 C 2418.65 -2.29601 5.45011 0
M  V30 25319 H 2417.58 -0.431147 0.618569 0
M  V30 25320 H 2420.24 -0.408889 1.78886 0
M  V30 25321 H 2418.62 -2.85645 2.74268 0
M  V30 25322 H 2419.79 -0.650836 4.56181 0
M  V30 25323 H 2418.11 -0.744308 4.09694 0
M  V30 25324 H 2420.7 -3.52458 4.02091 0
M  V30 25325 H 2421.05 -3.46364 2.30949 0
M  V30 25326 H 2421.58 -2.12892 3.36038 0
M  V30 25327 H 2418.32 -1.70868 6.32838 0
M  V30 25328 H 2417.84 -2.9944 5.19707 0
M  V30 25329 H 2419.52 -2.89964 5.78385 0
M  V30 25330 N 2419.65 -1.43144 -0.659362 0
M  V30 25331 C 2420.9 -1.44649 -1.42142 0
M  V30 25332 C 2421.23 -0.0682248 -1.9408 0
M  V30 25333 O 2420.5 0.909977 -1.719 0
M  V30 25334 C 2420.79 -2.48378 -2.60731 0
M  V30 25335 C 2420.64 -3.95455 -2.14325 0
M  V30 25336 C 2421.96 -2.48913 -3.62947 0
M  V30 25337 H 2419.08 -0.526705 -0.515511 0
M  V30 25338 H 2421.72 -1.74655 -0.748038 0
M  V30 25339 H 2419.87 -2.22921 -3.1818 0
M  V30 25340 H 2421.54 -4.31947 -1.61925 0
M  V30 25341 H 2419.78 -4.08581 -1.45753 0
M  V30 25342 H 2420.46 -4.63637 -2.99575 0
M  V30 25343 H 2422.93 -2.71587 -3.15245 0
M  V30 25344 H 2421.81 -3.23443 -4.43482 0
M  V30 25345 H 2422.07 -1.52068 -4.15124 0
M  V30 25346 N 2421.13 0.897149 -1.29572 0
M  V30 25347 C 2422.36 1.68127 -1.20585 0
M  V30 25348 C 2422.77 1.87355 0.233148 0
M  V30 25349 O 2422.13 1.41238 1.15577 0
M  V30 25350 C 2422.18 3.06437 -1.91777 0
M  V30 25351 O 2421.9 2.88086 -3.30058 0
M  V30 25352 C 2423.4 4.00851 -1.89298 0
M  V30 25353 H 2420.62 0.525029 -0.417835 0
M  V30 25354 H 2423.16 1.12174 -1.70989 0
M  V30 25355 H 2421.32 3.59159 -1.45202 0
M  V30 25356 H 2421.73 3.75742 -3.65948 0
M  V30 25357 H 2423.21 4.95306 -2.43671 0
M  V30 25358 H 2423.68 4.30515 -0.869089 0
M  V30 25359 H 2424.29 3.54061 -2.35628 0
M  V30 25360 N 2422.61 1.1209 1.10786 0
M  V30 25361 C 2423.54 0.807793 2.19082 0
M  V30 25362 C 2424.52 -0.226829 1.68581 0
M  V30 25363 O 2425.7 -0.0888134 1.93997 0
M  V30 25364 C 2422.83 0.257637 3.46343 0
M  V30 25365 C 2421.79 1.22491 4.10098 0
M  V30 25366 C 2421.11 0.535145 5.32015 0
M  V30 25367 C 2422.41 2.57819 4.54232 0
M  V30 25368 H 2424.11 1.71333 2.45531 0
M  V30 25369 H 2421.65 0.825225 1.18009 0
M  V30 25370 H 2423.6 0.0263419 4.21392 0
M  V30 25371 H 2422.33 -0.683222 3.19374 0
M  V30 25372 H 2420.99 1.44195 3.37051 0
M  V30 25373 H 2420.64 -0.410739 5.0132 0
M  V30 25374 H 2420.34 1.18034 5.75623 0
M  V30 25375 H 2421.86 0.312802 6.09798 0
M  V30 25376 H 2423.27 2.40164 5.20571 0
M  V30 25377 H 2421.67 3.18384 5.08676 0
M  V30 25378 H 2422.74 3.16534 3.67334 0
M  V30 25379 N 2424.08 -1.28513 0.912254 0
M  V30 25380 C 2425.03 -2.27343 0.397994 0
M  V30 25381 C 2426 -1.57527 -0.526738 0
M  V30 25382 O 2427.19 -1.85435 -0.449259 0
M  V30 25383 C 2424.33 -3.43246 -0.357202 0
M  V30 25384 C 2423.44 -4.27815 0.599863 0
M  V30 25385 C 2422.57 -5.30916 -0.173632 0
M  V30 25386 C 2421.61 -6.07146 0.777146 0
M  V30 25387 N 2420.75 -7.0209 0.0372632 0
M  V30 25388 H 2425.59 -2.70709 1.24582 0
M  V30 25389 H 2423.13 -1.33132 0.625635 0
M  V30 25390 H 2425.08 -4.09237 -0.811228 0
M  V30 25391 H 2423.71 -3.00874 -1.16938 0
M  V30 25392 H 2422.77 -3.61882 1.17242 0
M  V30 25393 H 2424.08 -4.80821 1.32713 0
M  V30 25394 H 2423.23 -6.02783 -0.688288 0
M  V30 25395 H 2421.97 -4.78674 -0.933957 0
M  V30 25396 H 2420.98 -5.34132 1.30319 0
M  V30 25397 H 2422.2 -6.61478 1.537 0
M  V30 25398 H 2420.15 -6.522 -0.705099 0
M  V30 25399 H 2420.06 -7.52711 0.704381 0
M  V30 25400 H 2421.33 -7.78158 -0.457246 0
M  V30 25401 N 2425.56 -0.676073 -1.42362 0
M  V30 25402 C 2426.98 -0.345745 -1.5581 0
M  V30 25403 C 2427.18 1.14877 -1.65546 0
M  V30 25404 O 2426.23 1.93422 -1.62309 0
M  V30 25405 C 2427.55 -1.07718 -2.80744 0
M  V30 25406 C 2429.1 -1.05963 -2.94518 0
M  V30 25407 C 2429.57 -1.77241 -4.22315 0
M  V30 25408 N 2431.06 -1.74115 -4.2923 0
M  V30 25409 C 2431.8 -2.26122 -5.26931 0
M  V30 25410 N 2431.29 -2.86516 -6.30777 0
M  V30 25411 N 2433.09 -2.16489 -5.18738 0
M  V30 25412 H 2425.24 -1.64563 -1.34286 0
M  V30 25413 H 2427.5 -0.693361 -0.646494 0
M  V30 25414 H 2427.21 -2.13226 -2.79692 0
M  V30 25415 H 2427.08 -0.643225 -3.71675 0
M  V30 25416 H 2429.47 -0.0128774 -2.95097 0
M  V30 25417 H 2429.55 -1.53247 -2.04814 0
M  V30 25418 H 2429.19 -2.81885 -4.22497 0
M  V30 25419 H 2429.12 -1.27405 -5.10955 0
M  V30 25420 H 2431.61 -1.30065 -3.54812 0
M  V30 25421 H 2431.93 -3.23817 -7.01685 0
M  V30 25422 H 2430.27 -2.90586 -6.31335 0
M  V30 25423 H 2433.46 -1.68994 -4.3653 0
M  V30 25424 H 2433.63 -2.57326 -5.94716 0
M  V30 25425 N 2427.04 1.51915 -0.419488 0
M  V30 25426 C 2427.99 2.2886 0.415461 0
M  V30 25427 C 2428.98 1.33972 1.03672 0
M  V30 25428 O 2430.19 1.51389 0.973731 0
M  V30 25429 H 2426.56 0.736318 0.152773 0
M  V30 25430 H 2428.53 2.97312 -0.254584 0
M  V30 25431 C 2427.28 3.12998 1.51419 0
M  V30 25432 H 2426.61 3.85888 1.04549 0
M  V30 25433 H 2428.05 3.69924 2.07202 0
M  V30 25434 C 2426.51 2.27221 2.48741 0
M  V30 25435 O 2427.04 1.91956 3.52868 0
M  V30 25436 N 2425.24 1.90789 2.19198 0
M  V30 25437 H 2424.79 2.19667 1.34552 0
M  V30 25438 H 2424.75 1.33692 2.84559 0
M  V30 25439 N 2428.52 0.150242 1.56882 0
M  V30 25440 C 2429.43 -0.801184 2.20495 0
M  V30 25441 C 2430.44 -1.26925 1.19021 0
M  V30 25442 O 2431.62 -1.32576 1.5161 0
M  V30 25443 C 2428.69 -2.02156 2.81662 0
M  V30 25444 C 2427.75 -1.60242 3.98273 0
M  V30 25445 C 2426.98 -2.76462 4.56513 0
M  V30 25446 O 2427.2 -3.92764 4.13634 0
M  V30 25447 O 2426.14 -2.51748 5.46724 0
M  V30 25448 H 2429.96 -0.289664 3.02315 0
M  V30 25449 H 2427.55 -0.0769422 1.49202 0
M  V30 25450 H 2429.43 -2.7357 3.20527 0
M  V30 25451 H 2428.1 -2.52254 2.02853 0
M  V30 25452 H 2427.01 -0.858413 3.64118 0
M  V30 25453 H 2428.34 -1.14856 4.78611 0
M  V30 25454 N 2430 -1.57115 -0.123538 0
M  V30 25455 C 2430.94 -2.00009 -1.15174 0
M  V30 25456 C 2431.91 -0.871479 -1.41402 0
M  V30 25457 O 2433.1 -1.13536 -1.53344 0
M  V30 25458 C 2430.24 -2.40565 -2.47431 0
M  V30 25459 C 2429.35 -3.66823 -2.28178 0
M  V30 25460 C 2428.49 -3.96379 -3.53634 0
M  V30 25461 C 2427.53 -5.15833 -3.29519 0
M  V30 25462 N 2426.66 -5.41283 -4.47166 0
M  V30 25463 H 2431.5 -2.87639 -0.778957 0
M  V30 25464 H 2429.04 -1.42289 -0.373141 0
M  V30 25465 H 2431 -2.62115 -3.24579 0
M  V30 25466 H 2429.63 -1.55983 -2.82611 0
M  V30 25467 H 2428.68 -3.52915 -1.41969 0
M  V30 25468 H 2429.99 -4.54124 -2.06332 0
M  V30 25469 H 2429.15 -4.18553 -4.39202 0
M  V30 25470 H 2427.88 -3.07545 -3.78507 0
M  V30 25471 H 2426.89 -4.93509 -2.42341 0
M  V30 25472 H 2428.11 -6.06241 -3.06021 0
M  V30 25473 H 2426.06 -4.55405 -4.72167 0
M  V30 25474 H 2425.98 -6.22899 -4.28408 0
M  V30 25475 H 2427.25 -5.67972 -5.3388 0
M  V30 25476 N 2431.47 0.393589 -1.52606 0
M  V30 25477 C 2432.72 1.13907 -1.67426 0
M  V30 25478 C 2433.05 1.90089 -0.411892 0
M  V30 25479 O 2432.3 1.86094 0.605594 0
M  V30 25480 C 2432.6 2.147 -2.85725 0
M  V30 25481 C 2432.27 1.5521 -4.23345 0
M  V30 25482 C 2430.93 1.38712 -4.60774 0
M  V30 25483 C 2433.28 1.11915 -5.09043 0
M  V30 25484 C 2430.61 0.774587 -5.81564 0
M  V30 25485 C 2432.96 0.520742 -6.30453 0
M  V30 25486 C 2431.63 0.343017 -6.66618 0
M  V30 25487 H 2430.9 0.416815 -0.612655 0
M  V30 25488 H 2433.54 0.424282 -1.86741 0
M  V30 25489 H 2431.85 2.92381 -2.60808 0
M  V30 25490 H 2433.55 2.72282 -2.94386 0
M  V30 25491 H 2430.14 1.69038 -3.93858 0
M  V30 25492 H 2434.32 1.23465 -4.80698 0
M  V30 25493 H 2429.58 0.625047 -6.08197 0
M  V30 25494 H 2433.75 0.176943 -6.96175 0
M  V30 25495 H 2431.38 -0.133705 -7.60082 0
M  V30 25496 N 2432.95 1.43492 0.651762 0
M  V30 25497 C 2434.37 1.26924 0.967598 0
M  V30 25498 C 2434.57 0.190017 2.00602 0
M  V30 25499 O 2433.62 -0.431063 2.48793 0
M  V30 25500 C 2434.94 2.63404 1.45048 0
M  V30 25501 C 2436.49 2.70948 1.56705 0
M  V30 25502 C 2436.96 4.07849 2.08383 0
M  V30 25503 N 2438.45 4.09921 2.15683 0
M  V30 25504 C 2439.19 5.12683 2.56795 0
M  V30 25505 N 2438.68 6.25819 2.97192 0
M  V30 25506 N 2440.48 5.00037 2.56747 0
M  V30 25507 H 2432.63 2.12371 -0.0353532 0
M  V30 25508 H 2434.89 0.946846 0.0467692 0
M  V30 25509 H 2434.6 3.43349 0.761865 0
M  V30 25510 H 2434.47 2.88898 2.42524 0
M  V30 25511 H 2436.86 1.91334 2.24667 0
M  V30 25512 H 2436.94 2.49217 0.576576 0
M  V30 25513 H 2436.58 4.87929 1.41022 0
M  V30 25514 H 2436.51 4.26944 3.08264 0
M  V30 25515 H 2439 3.28257 1.87231 0
M  V30 25516 H 2439.32 7.0006 3.27315 0
M  V30 25517 H 2437.66 6.29289 2.94993 0
M  V30 25518 H 2440.85 4.10717 2.24565 0
M  V30 25519 H 2441.02 5.80252 2.88465 0
M  V30 25520 N 2434.43 -0.890264 1.30046 0
M  V30 25521 C 2435.71 -1.6226 1.0923 0
M  V30 25522 C 2436.09 -2.08003 -0.360268 0
M  V30 25523 O 2435.44 -1.84297 -1.35081 0
M  V30 25524 C 2435.65 -2.79619 2.0884 0
M  V30 25525 C 2436.99 -3.50078 2.40272 0
M  V30 25526 O 2438.02 -2.898 2.07109 0
M  V30 25527 O 2436.88 -4.58768 2.96975 0
M  V30 25528 H 2433.97 -0.712914 0.419145 0
M  V30 25529 H 2436.52 -0.937504 1.41453 0
M  V30 25530 H 2435.29 -2.43083 3.06637 0
M  V30 25531 H 2434.91 -3.55828 1.77403 0
M  V30 25532 N 2435.91 -1.12676 -1.1019 0
M  V30 25533 C 2437.16 -0.878332 -1.81572 0
M  V30 25534 C 2437.47 0.597525 -1.8625 0
M  V30 25535 O 2438.68 0.962636 -2.53861 0
M  V30 25536 C 2437.13 -1.52173 -3.26146 0
M  V30 25537 C 2436.74 -3.03255 -3.29758 0
M  V30 25538 C 2438.48 -1.35367 -4.02338 0
M  V30 25539 C 2436.39 -3.60517 -4.68809 0
M  V30 25540 H 2435.32 -0.324942 -0.680388 0
M  V30 25541 H 2437.97 -1.35355 -1.239 0
M  V30 25542 H 2436.35 -0.974172 -3.83831 0
M  V30 25543 H 2437.53 -3.64525 -2.81884 0
M  V30 25544 H 2435.84 -3.19486 -2.67053 0
M  V30 25545 H 2438.44 -1.75568 -5.05054 0
M  V30 25546 H 2438.78 -0.297627 -4.15235 0
M  V30 25547 H 2439.32 -1.87059 -3.51075 0
M  V30 25548 H 2436.06 -4.65892 -4.61112 0
M  V30 25549 H 2435.58 -3.04023 -5.1704 0
M  V30 25550 H 2437.25 -3.59726 -5.37779 0
M  V30 25551 N 2437.39 1.28028 -0.919057 0
M  V30 25552 C 2438.8 1.47149 -0.617998 0
M  V30 25553 C 2439 1.83375 0.83521 0
M  V30 25554 O 2438.06 1.94194 1.61385 0
M  V30 25555 C 2439.37 2.57042 -1.56045 0
M  V30 25556 C 2440.92 2.70907 -1.56774 0
M  V30 25557 C 2441.39 3.83948 -2.49695 0
M  V30 25558 N 2442.89 3.9131 -2.47852 0
M  V30 25559 C 2443.62 4.78174 -3.16445 0
M  V30 25560 N 2443.12 5.69589 -3.94386 0
M  V30 25561 N 2444.91 4.71829 -3.05506 0
M  V30 25562 H 2437.06 1.02795 -1.85868 0
M  V30 25563 H 2439.32 0.512517 -0.797515 0
M  V30 25564 H 2439.03 2.37195 -2.59675 0
M  V30 25565 H 2438.9 3.54252 -1.29557 0
M  V30 25566 H 2441.29 2.9014 -0.538796 0
M  V30 25567 H 2441.37 1.74211 -1.87308 0
M  V30 25568 H 2441.02 3.65471 -3.52695 0
M  V30 25569 H 2440.95 4.80054 -2.16461 0
M  V30 25570 H 2443.44 3.25938 -1.9124 0
M  V30 25571 H 2443.75 6.3271 -4.43732 0
M  V30 25572 H 2442.09 5.69412 -3.98491 0
M  V30 25573 H 2445.29 3.99406 -2.44115 0
M  V30 25574 H 2445.46 5.39309 -3.59234 0
M  V30 25575 N 2438.86 0.683613 1.42002 0
M  V30 25576 C 2440.28 0.285769 1.845 0
M  V30 25577 C 2440.63 -1.17379 1.57215 0
M  V30 25578 O 2439.75 -1.89965 1.03646 0
M  V30 25579 C 2440.35 0.51188 3.34911 0
M  V30 25580 C 2438.91 0.168071 3.76025 0
M  V30 25581 C 2438.05 0.80003 2.65509 0
M  V30 25582 H 2441 0.885142 1.31723 0
M  V30 25583 H 2441.02 -0.233226 3.79785 0
M  V30 25584 H 2440.54 1.57425 3.54738 0
M  V30 25585 H 2438.64 -0.890504 3.61802 0
M  V30 25586 H 2438.75 0.614744 4.7514 0
M  V30 25587 H 2437.11 0.230613 2.53654 0
M  V30 25588 H 2437.9 1.86603 2.88157 0
M  V30 25589 N 2440.34 -1.5169 0.427538 0
M  V30 25590 C 2441.29 -2.24346 -0.406565 0
M  V30 25591 C 2442.28 -1.26189 -0.998254 0
M  V30 25592 O 2443.47 -1.51332 -0.918019 0
M  V30 25593 C 2440.6 -3.0818 -1.51261 0
M  V30 25594 C 2439.68 -4.1376 -0.930795 0
M  V30 25595 N 2440.08 -5.05741 -0.0772663 0
M  V30 25596 C 2438.37 -4.2957 -1.19941 0
M  V30 25597 C 2439.07 -5.81169 0.248446 0
M  V30 25598 N 2438.05 -5.4237 -0.36544 0
M  V30 25599 H 2441.85 -2.92821 0.251632 0
M  V30 25600 H 2439.37 -1.60631 0.239031 0
M  V30 25601 H 2441.36 -3.588 -2.12293 0
M  V30 25602 H 2440.02 -2.41247 -2.17324 0
M  V30 25603 H 2441.03 -5.17096 0.288442 0
M  V30 25604 H 2437.71 -3.73865 -1.85826 0
M  V30 25605 H 2439.1 -6.65258 0.942403 0
M  V30 25606 N 2441.82 -0.15856 -1.568 0
M  V30 25607 C 2443.07 0.489667 -1.95666 0
M  V30 25608 C 2443.38 1.65246 -1.04657 0
M  V30 25609 O 2444.59 2.36608 -1.3315 0
M  V30 25610 C 2443.05 0.922521 -3.47876 0
M  V30 25611 C 2442.65 -0.213971 -4.47489 0
M  V30 25612 C 2444.4 1.53989 -3.95585 0
M  V30 25613 C 2442.3 0.237799 -5.90922 0
M  V30 25614 H 2441.23 0.186704 -0.730519 0
M  V30 25615 H 2443.89 -0.244754 -1.8186 0
M  V30 25616 H 2442.27 1.71255 -3.57054 0
M  V30 25617 H 2443.44 -0.991115 -4.50015 0
M  V30 25618 H 2441.76 -0.740479 -4.09763 0
M  V30 25619 H 2444.35 1.88972 -5.00194 0
M  V30 25620 H 2444.7 2.43313 -3.37794 0
M  V30 25621 H 2445.23 0.814542 -3.89371 0
M  V30 25622 H 2441.97 -0.620351 -6.52558 0
M  V30 25623 H 2441.49 0.980572 -5.9173 0
M  V30 25624 H 2443.17 0.685954 -6.43353 0
M  V30 25625 N 2443.3 1.57178 0.115204 0
M  V30 25626 C 2444.71 1.74189 0.671939 0
M  V30 25627 C 2445.06 0.777809 1.80124 0
M  V30 25628 O 2444.19 -0.0483996 2.16346 0
M  V30 25629 C 2444.78 3.15852 1.22567 0
M  V30 25630 C 2443.34 3.34356 1.72866 0
M  V30 25631 C 2442.49 2.7005 0.629924 0
M  V30 25632 H 2445.44 1.58313 -0.11074 0
M  V30 25633 H 2445.46 3.17613 2.09529 0
M  V30 25634 H 2444.97 3.85996 0.40353 0
M  V30 25635 H 2443.07 2.6926 2.57545 0
M  V30 25636 H 2443.19 4.42545 1.83549 0
M  V30 25637 H 2441.55 2.3139 1.06446 0
M  V30 25638 H 2442.33 3.42821 -0.181302 0
M  V30 25639 N 2444.78 -0.38549 1.52813 0
M  V30 25640 C 2446.01 -1.1513 1.71909 0
M  V30 25641 C 2446.42 -1.83624 0.439036 0
M  V30 25642 O 2445.78 -1.72811 -0.586734 0
M  V30 25643 C 2445.83 -2.19668 2.87103 0
M  V30 25644 O 2445.55 -1.53965 4.10154 0
M  V30 25645 C 2447.05 -3.08949 3.17908 0
M  V30 25646 H 2444.27 -0.345047 0.575485 0
M  V30 25647 H 2446.81 -0.450485 1.99477 0
M  V30 25648 H 2444.97 -2.85379 2.61987 0
M  V30 25649 H 2445.38 -2.23456 4.74518 0
M  V30 25650 H 2446.86 -3.78323 4.01965 0
M  V30 25651 H 2447.33 -3.72653 2.32436 0
M  V30 25652 H 2447.94 -2.48879 3.44876 0
M  V30 25653 N 2446.26 -1.43835 -0.644143 0
M  V30 25654 C 2447.19 -1.45672 -1.76953 0
M  V30 25655 C 2448.2 -0.351694 -1.58956 0
M  V30 25656 O 2449.39 -0.616673 -1.67509 0
M  V30 25657 C 2446.49 -1.26254 -3.14505 0
M  V30 25658 C 2445.66 -2.49763 -3.59078 0
M  V30 25659 C 2444.72 -2.25435 -4.75463 0
M  V30 25660 O 2443.75 -2.98844 -4.84438 0
M  V30 25661 N 2444.95 -1.27671 -5.66287 0
M  V30 25662 H 2447.71 -2.42685 -1.75852 0
M  V30 25663 H 2445.28 -1.39108 -0.828288 0
M  V30 25664 H 2447.27 -1.07847 -3.90066 0
M  V30 25665 H 2445.84 -0.376532 -3.10324 0
M  V30 25666 H 2445.06 -2.83535 -2.73865 0
M  V30 25667 H 2446.35 -3.3194 -3.85607 0
M  V30 25668 H 2445.74 -0.670163 -5.61716 0
M  V30 25669 H 2444.3 -1.15245 -6.41531 0
M  V30 25670 N 2447.73 0.883355 -1.30517 0
M  V30 25671 C 2448.98 1.63003 -1.18798 0
M  V30 25672 C 2449.3 1.93919 0.255889 0
M  V30 25673 O 2450.5 2.66957 0.494607 0
M  V30 25674 C 2448.96 2.9379 -2.07883 0
M  V30 25675 C 2448.57 2.70408 -3.57188 0
M  V30 25676 C 2450.31 3.71757 -2.04931 0
M  V30 25677 C 2448.22 3.97022 -4.38324 0
M  V30 25678 H 2447.15 0.611554 -0.441042 0
M  V30 25679 H 2449.8 0.977826 -1.55277 0
M  V30 25680 H 2448.18 3.60313 -1.64289 0
M  V30 25681 H 2449.35 2.12377 -4.08941 0
M  V30 25682 H 2447.67 2.05814 -3.6198 0
M  V30 25683 H 2450.27 4.65661 -2.628 0
M  V30 25684 H 2450.61 4.03276 -1.03317 0
M  V30 25685 H 2451.14 3.121 -2.46654 0
M  V30 25686 H 2447.88 3.70661 -5.40639 0
M  V30 25687 H 2447.4 4.54552 -3.91334 0
M  V30 25688 H 2449.08 4.65028 -4.49842 0
M  V30 25689 N 2449.21 1.13259 1.09591 0
M  V30 25690 C 2450.44 0.91641 1.85498 0
M  V30 25691 C 2450.85 -0.534706 1.8107 0
M  V30 25692 O 2450.21 -1.37005 1.20564 0
M  V30 25693 C 2450.26 1.39394 3.33544 0
M  V30 25694 O 2449.98 2.78819 3.37923 0
M  V30 25695 C 2451.48 1.21595 4.26297 0
M  V30 25696 H 2448.7 0.326898 0.585985 0
M  V30 25697 H 2451.25 1.50473 1.38486 0
M  V30 25698 H 2449.4 0.848664 3.7799 0
M  V30 25699 H 2449.82 2.99978 4.30248 0
M  V30 25700 H 2451.29 1.59885 5.28338 0
M  V30 25701 H 2451.77 0.157453 4.38918 0
M  V30 25702 H 2452.37 1.74917 3.87665 0
M  V30 25703 N 2450.69 -1.27539 0.925834 0
M  V30 25704 C 2451.6 -2.30644 0.429034 0
M  V30 25705 C 2452.62 -1.66977 -0.489358 0
M  V30 25706 O 2453.79 -1.97923 -0.372618 0
M  V30 25707 C 2450.86 -3.45294 -0.311906 0
M  V30 25708 C 2449.92 -4.24485 0.641173 0
M  V30 25709 C 2449.15 -5.33661 -0.0645016 0
M  V30 25710 O 2449.37 -5.55756 -1.28419 0
M  V30 25711 O 2448.31 -5.98838 0.606371 0
M  V30 25712 H 2452.13 -2.75171 1.28509 0
M  V30 25713 H 2449.72 -1.32454 0.691109 0
M  V30 25714 H 2451.6 -4.15031 -0.729899 0
M  V30 25715 H 2450.28 -3.02826 -1.1436 0
M  V30 25716 H 2449.18 -3.5729 1.10881 0
M  V30 25717 H 2450.52 -4.70663 1.44003 0
M  V30 25718 N 2452.17 -0.691135 -1.41637 0
M  V30 25719 C 2453.4 -0.229127 -2.05627 0
M  V30 25720 C 2453.81 1.11996 -1.51994 0
M  V30 25721 O 2453.17 1.699 -0.666352 0
M  V30 25722 C 2453.22 -0.173346 -3.61084 0
M  V30 25723 O 2452.94 -1.46914 -4.12732 0
M  V30 25724 C 2454.44 0.310188 -4.42213 0
M  V30 25725 H 2451.66 -0.107545 -0.662325 0
M  V30 25726 H 2454.2 -0.94247 -1.81488 0
M  V30 25727 H 2452.36 0.490791 -3.84279 0
M  V30 25728 H 2452.77 -1.3533 -5.0674 0
M  V30 25729 H 2454.25 0.298099 -5.51194 0
M  V30 25730 H 2454.72 1.3483 -4.17992 0
M  V30 25731 H 2455.33 -0.322791 -4.24073 0
M  V30 25732 N 2453.65 1.51461 -0.435577 0
M  V30 25733 C 2454.59 2.29287 0.391164 0
M  V30 25734 C 2455.59 1.35064 1.02245 0
M  V30 25735 O 2456.79 1.52413 0.957619 0
M  V30 25736 H 2453.17 0.737897 0.144955 0
M  V30 25737 H 2455.14 2.97025 -0.286103 0
M  V30 25738 C 2453.89 3.14586 1.48091 0
M  V30 25739 H 2453.21 3.86975 1.0045 0
M  V30 25740 H 2454.65 3.721 2.03267 0
M  V30 25741 C 2453.11 2.29847 2.46317 0
M  V30 25742 O 2453.64 1.95688 3.50812 0
M  V30 25743 N 2451.85 1.93103 2.17162 0
M  V30 25744 H 2451.39 2.21082 1.32215 0
M  V30 25745 H 2451.35 1.36703 2.83125 0
M  V30 25746 N 2455.12 0.166873 1.56714 0
M  V30 25747 C 2456.4 -0.52534 1.88413 0
M  V30 25748 C 2456.78 -1.81616 1.07606 0
M  V30 25749 O 2456.13 -2.27877 0.168661 0
M  V30 25750 C 2456.34 -0.771553 3.40365 0
M  V30 25751 C 2457.69 -1.10353 4.10009 0
M  V30 25752 O 2458.71 -0.860243 3.45656 0
M  V30 25753 O 2457.57 -1.56229 5.23693 0
M  V30 25754 H 2454.66 -0.270265 0.781592 0
M  V30 25755 H 2457.21 0.204976 1.68458 0
M  V30 25756 H 2455.98 0.141162 3.91045 0
M  V30 25757 H 2455.61 -1.55535 3.65916 0
M  V30 25758 N 2456.6 -1.57237 -0.106866 0
M  V30 25759 C 2457.85 -1.85119 -0.810889 0
M  V30 25760 C 2458.17 -0.753858 -1.79839 0
M  V30 25761 O 2457.44 0.221022 -1.94649 0
M  V30 25762 H 2456.02 -0.68303 -0.302454 0
M  V30 25763 H 2458.68 -1.94686 -0.0912982 0
M  V30 25764 H 2457.78 -2.81454 -1.3487 0
M  V30 25765 N 2458.08 0.377381 -1.53015 0
M  V30 25766 C 2459.33 1.12291 -1.68874 0
M  V30 25767 C 2459.66 1.89305 -0.433257 0
M  V30 25768 O 2458.93 1.85984 0.569225 0
M  V30 25769 C 2459.22 2.09173 -2.93119 0
M  V30 25770 C 2459.07 1.35846 -4.28796 0
M  V30 25771 C 2460.39 3.09452 -3.12934 0
M  V30 25772 H 2457.51 0.406851 -0.614525 0
M  V30 25773 H 2460.15 0.404997 -1.85633 0
M  V30 25774 H 2458.3 2.70394 -2.78961 0
M  V30 25775 H 2459.97 0.775002 -4.54743 0
M  V30 25776 H 2458.22 0.660289 -4.28745 0
M  V30 25777 H 2458.89 2.06697 -5.1184 0
M  V30 25778 H 2461.36 2.58328 -3.26199 0
M  V30 25779 H 2460.24 3.74474 -4.01323 0
M  V30 25780 H 2460.5 3.78967 -2.27676 0
M  V30 25781 N 2459.56 1.44175 0.636506 0
M  V30 25782 C 2460.49 1.53447 1.76 0
M  V30 25783 C 2461.47 0.38787 1.65619 0
M  V30 25784 O 2462.65 0.607289 1.8446 0
M  V30 25785 C 2459.78 1.47315 3.14508 0
M  V30 25786 C 2458.74 2.60397 3.39673 0
M  V30 25787 C 2458.06 2.39317 4.78154 0
M  V30 25788 C 2459.36 4.02573 3.32765 0
M  V30 25789 H 2461.06 2.47486 1.68497 0
M  V30 25790 H 2458.6 1.19112 0.809216 0
M  V30 25791 H 2460.56 1.52404 3.92875 0
M  V30 25792 H 2459.28 0.497906 3.22782 0
M  V30 25793 H 2457.94 2.54689 2.63684 0
M  V30 25794 H 2457.59 1.39997 4.83125 0
M  V30 25795 H 2457.29 3.1513 4.9595 0
M  V30 25796 H 2458.81 2.46215 5.58758 0
M  V30 25797 H 2460.23 4.09679 4.01044 0
M  V30 25798 H 2458.62 4.78547 3.62096 0
M  V30 25799 H 2459.69 4.26524 2.30662 0
M  V30 25800 N 2461.04 -0.876421 1.30983 0
M  V30 25801 C 2462.29 -1.6237 1.19661 0
M  V30 25802 C 2462.6 -1.94052 -0.245601 0
M  V30 25803 O 2463.8 -2.67215 -0.480443 0
M  V30 25804 C 2462.26 -2.92684 2.09438 0
M  V30 25805 C 2461.87 -2.6851 3.58617 0
M  V30 25806 C 2463.61 -3.70665 2.06899 0
M  V30 25807 C 2461.52 -3.94691 4.40423 0
M  V30 25808 H 2460.45 -0.609206 0.444279 0
M  V30 25809 H 2463.1 -0.969578 1.55793 0
M  V30 25810 H 2461.48 -3.59436 1.66198 0
M  V30 25811 H 2462.66 -2.10205 4.10061 0
M  V30 25812 H 2460.97 -2.03892 3.63066 0
M  V30 25813 H 2463.57 -4.64261 2.65266 0
M  V30 25814 H 2463.91 -4.02722 1.05455 0
M  V30 25815 H 2464.44 -3.10788 2.48306 0
M  V30 25816 H 2461.18 -3.67789 5.42597 0
M  V30 25817 H 2460.7 -4.5247 3.93739 0
M  V30 25818 H 2462.38 -4.62636 4.52302 0
M  V30 25819 N 2462.51 -1.13839 -1.08989 0
M  V30 25820 C 2463.76 -0.904251 -1.81524 0
M  V30 25821 C 2464.09 0.568033 -1.85707 0
M  V30 25822 O 2463.37 1.42054 -1.32857 0
M  V30 25823 C 2463.65 -1.4984 -3.27444 0
M  V30 25824 C 2463.5 -3.04012 -3.31507 0
M  V30 25825 C 2464.82 -1.17033 -4.24254 0
M  V30 25826 H 2461.94 -0.329935 -0.659024 0
M  V30 25827 H 2464.58 -1.40739 -1.27642 0
M  V30 25828 H 2462.73 -1.07051 -3.7346 0
M  V30 25829 H 2464.41 -3.55589 -2.93861 0
M  V30 25830 H 2462.65 -3.38769 -2.70957 0
M  V30 25831 H 2463.32 -3.40687 -4.34323 0
M  V30 25832 H 2465.8 -1.54016 -3.86547 0
M  V30 25833 H 2464.67 -1.61246 -5.24682 0
M  V30 25834 H 2464.93 -0.0847051 -4.42019 0
M  V30 25835 N 2463.99 1.27046 -0.932584 0
M  V30 25836 C 2464.94 2.28664 -0.42607 0
M  V30 25837 C 2465.93 1.62093 0.492161 0
M  V30 25838 O 2467.14 1.76128 0.371324 0
M  V30 25839 H 2463.52 0.742488 -0.119226 0
M  V30 25840 H 2465.49 2.68795 -1.29583 0
M  V30 25841 C 2464.24 3.46392 0.301365 0
M  V30 25842 H 2463.56 3.97834 -0.39602 0
M  V30 25843 H 2465 4.19441 0.620127 0
M  V30 25844 C 2463.46 3.00859 1.5161 0
M  V30 25845 O 2463.99 3.04952 2.61471 0
M  V30 25846 N 2462.19 2.56299 1.36965 0
M  V30 25847 H 2461.74 2.53167 0.475828 0
M  V30 25848 H 2461.7 2.26196 2.18364 0
M  V30 25849 N 2465.47 0.698636 1.41269 0
M  V30 25850 C 2466.7 0.240028 2.05503 0
M  V30 25851 C 2467.11 -1.11189 1.52586 0
M  V30 25852 O 2466.47 -1.69544 0.675353 0
M  V30 25853 C 2466.52 0.192493 3.60987 0
M  V30 25854 O 2466.24 1.49101 4.11947 0
M  V30 25855 C 2467.74 -0.286732 4.42372 0
M  V30 25856 H 2464.96 0.111056 0.661746 0
M  V30 25857 H 2467.51 0.952082 1.80985 0
M  V30 25858 H 2465.66 -0.470405 3.84533 0
M  V30 25859 H 2466.08 1.38016 5.06016 0
M  V30 25860 H 2467.55 -0.268864 5.51345 0
M  V30 25861 H 2468.03 -1.32612 4.18701 0
M  V30 25862 H 2468.63 0.345276 4.23896 0
M  V30 25863 N 2466.95 -1.51228 0.443603 0
M  V30 25864 C 2468.17 -2.07043 -0.121612 0
M  V30 25865 C 2468.6 -1.30825 -1.35153 0
M  V30 25866 O 2467.96 -0.347965 -1.77929 0
M  V30 25867 C 2468 -3.5819 -0.416177 0
M  V30 25868 O 2467.11 -3.84092 -1.50156 0
M  V30 25869 H 2466.45 -0.663999 0.000883038 0
M  V30 25870 H 2468.98 -1.94764 0.626741 0
M  V30 25871 H 2468.99 -4.02547 -0.664797 0
M  V30 25872 H 2467.66 -4.13089 0.482725 0
M  V30 25873 H 2466.24 -3.51594 -1.24241 0
M  V30 25874 N 2468.43 -0.175182 -1.56623 0
M  V30 25875 C 2469.37 0.753596 -2.1815 0
M  V30 25876 C 2470.34 1.22415 -1.12267 0
M  V30 25877 O 2471.53 1.29162 -1.40434 0
M  V30 25878 C 2468.67 1.97587 -2.82937 0
M  V30 25879 C 2467.78 1.54853 -4.03292 0
M  V30 25880 C 2466.92 2.72477 -4.55993 0
M  V30 25881 C 2465.96 2.26252 -5.6875 0
M  V30 25882 N 2465.09 3.36983 -6.15944 0
M  V30 25883 H 2469.93 0.222143 -2.97171 0
M  V30 25884 H 2467.47 0.0979164 -1.46774 0
M  V30 25885 H 2469.43 2.69282 -3.18658 0
M  V30 25886 H 2468.06 2.48097 -2.06514 0
M  V30 25887 H 2467.11 0.728181 -3.73365 0
M  V30 25888 H 2468.42 1.16925 -4.84902 0
M  V30 25889 H 2467.58 3.52323 -4.93916 0
M  V30 25890 H 2466.31 3.13668 -3.73449 0
M  V30 25891 H 2465.32 1.44854 -5.30375 0
M  V30 25892 H 2466.54 1.86115 -6.53099 0
M  V30 25893 H 2464.49 3.77742 -5.36328 0
M  V30 25894 H 2464.41 3.0316 -6.92553 0
M  V30 25895 H 2465.68 4.17102 -6.58518 0
M  V30 25896 N 2469.91 1.57292 0.0985263 0
M  V30 25897 C 2471.14 1.89841 0.815101 0
M  V30 25898 C 2471.54 0.76671 1.72969 0
M  V30 25899 O 2470.89 -0.270451 1.81698 0
M  V30 25900 C 2470.95 3.17611 1.68415 0
M  V30 25901 C 2470.61 4.47191 0.941742 0
M  V30 25902 C 2471.61 5.19182 0.273121 0
M  V30 25903 C 2469.29 4.93862 0.91684 0
M  V30 25904 C 2471.29 6.36077 -0.410472 0
M  V30 25905 C 2468.98 6.10669 0.22946 0
M  V30 25906 C 2469.97 6.81626 -0.433022 0
M  V30 25907 O 2469.66 7.96208 -1.10939 0
M  V30 25908 H 2469.39 0.632533 0.23849 0
M  V30 25909 H 2471.95 2.05239 0.0812299 0
M  V30 25910 H 2470.18 2.9835 2.46017 0
M  V30 25911 H 2471.87 3.36019 2.27698 0
M  V30 25912 H 2472.63 4.84169 0.283841 0
M  V30 25913 H 2468.51 4.38523 1.42193 0
M  V30 25914 H 2472.06 6.91398 -0.928135 0
M  V30 25915 H 2467.95 6.45137 0.216573 0
M  V30 25916 H 2468.72 8.12171 -1.01594 0
M  V30 25917 N 2471.38 -0.369261 1.53213 0
M  V30 25918 C 2472.79 -0.946248 1.60944 0
M  V30 25919 C 2473.15 -1.90374 0.474554 0
M  V30 25920 O 2472.27 -2.12679 -0.399559 0
M  V30 25921 C 2472.87 -1.72297 2.91718 0
M  V30 25922 C 2471.42 -2.24936 3.01796 0
M  V30 25923 C 2470.57 -1.06067 2.56213 0
M  V30 25924 H 2473.52 -0.14817 1.58007 0
M  V30 25925 H 2473.54 -2.58388 2.79313 0
M  V30 25926 H 2473.06 -1.02583 3.74297 0
M  V30 25927 H 2471.16 -2.97902 2.23797 0
M  V30 25928 H 2471.27 -2.53069 4.06808 0
M  V30 25929 H 2469.63 -1.42656 2.11001 0
M  V30 25930 H 2470.42 -0.378579 3.41206 0
M  V30 25931 N 2472.86 -1.4451 -0.628851 0
M  V30 25932 C 2473.81 -1.51855 -1.7619 0
M  V30 25933 C 2474.8 -0.390071 -1.64848 0
M  V30 25934 O 2476.01 -0.565112 -1.70899 0
M  V30 25935 H 2472.38 -0.476557 -0.58172 0
M  V30 25936 H 2474.36 -2.47212 -1.67119 0
M  V30 25937 C 2473.1 -1.4821 -3.1453 0
M  V30 25938 H 2472.43 -2.3436 -3.23907 0
M  V30 25939 H 2473.87 -1.57409 -3.93698 0
M  V30 25940 C 2472.33 -0.203201 -3.36287 0
M  V30 25941 O 2472.86 0.725676 -3.95091 0
M  V30 25942 N 2471.06 -0.105614 -2.90408 0
M  V30 25943 H 2470.61 -0.862344 -2.42737 0
M  V30 25944 H 2470.57 0.749317 -3.0534 0
M  V30 25945 N 2474.34 0.869463 -1.31446 0
M  V30 25946 C 2475.27 1.9799 -1.13469 0
M  V30 25947 C 2476.25 1.62555 -0.0380577 0
M  V30 25948 O 2477.43 1.87493 -0.194577 0
M  V30 25949 C 2474.56 3.30654 -0.73388 0
M  V30 25950 C 2473.61 3.85072 -1.83362 0
M  V30 25951 S 2474.44 4.10466 -3.43916 0
M  V30 25952 C 2475.6 5.46126 -3.05773 0
M  V30 25953 H 2475.83 2.12936 -2.07474 0
M  V30 25954 H 2473.36 1.0197 -1.15937 0
M  V30 25955 H 2475.32 4.07327 -0.509378 0
M  V30 25956 H 2473.98 3.13542 0.187068 0
M  V30 25957 H 2473.17 4.80979 -1.50582 0
M  V30 25958 H 2472.78 3.15192 -2.01321 0
M  V30 25959 H 2475.07 6.27802 -2.54697 0
M  V30 25960 H 2476.01 5.83857 -4.00646 0
M  V30 25961 H 2476.42 5.09425 -2.43201 0
M  V30 25962 N 2475.82 1.14415 1.08383 0
M  V30 25963 C 2477.05 0.934676 1.84248 0
M  V30 25964 C 2477.46 -0.520202 1.81908 0
M  V30 25965 O 2476.8 -1.37224 1.22128 0
M  V30 25966 C 2476.86 1.35834 3.3285 0
M  V30 25967 C 2476.52 2.82881 3.58925 0
M  V30 25968 C 2477.52 3.80996 3.53749 0
M  V30 25969 C 2475.21 3.20299 3.86928 0
M  V30 25970 C 2477.2 5.14536 3.76207 0
M  V30 25971 C 2474.89 4.54016 4.09039 0
M  V30 25972 C 2475.89 5.50943 4.03672 0
M  V30 25973 O 2475.57 6.82245 4.25202 0
M  V30 25974 H 2475.31 0.332638 0.588496 0
M  V30 25975 H 2477.86 1.52326 1.37789 0
M  V30 25976 H 2476.09 0.713085 3.80068 0
M  V30 25977 H 2477.78 1.11964 3.90152 0
M  V30 25978 H 2478.54 3.53434 3.32129 0
M  V30 25979 H 2474.42 2.45448 3.90226 0
M  V30 25980 H 2477.97 5.90179 3.71933 0
M  V30 25981 H 2473.86 4.81297 4.30143 0
M  V30 25982 H 2474.63 6.88507 4.42606 0
M  V30 25983 N 2477.3 -1.26549 0.939309 0
M  V30 25984 C 2478.54 -1.94126 0.586749 0
M  V30 25985 C 2478.87 -1.73538 -0.871669 0
M  V30 25986 O 2478.15 -1.0713 -1.62338 0
M  V30 25987 C 2478.43 -3.47949 0.927558 0
M  V30 25988 C 2478.29 -3.7783 2.44058 0
M  V30 25989 C 2479.6 -4.37878 0.441646 0
M  V30 25990 H 2476.72 -0.705052 0.214642 0
M  V30 25991 H 2479.37 -1.49453 1.17319 0
M  V30 25992 H 2477.52 -3.8613 0.428499 0
M  V30 25993 H 2479.19 -3.49375 3.01222 0
M  V30 25994 H 2477.43 -3.23973 2.88486 0
M  V30 25995 H 2478.1 -4.85343 2.62956 0
M  V30 25996 H 2480.58 -4.06913 0.86952 0
M  V30 25997 H 2479.45 -5.44302 0.708952 0
M  V30 25998 H 2479.71 -4.3717 -0.658391 0
M  V30 25999 N 2478.77 -0.706118 -1.40896 0
M  V30 26000 C 2480.18 -0.315085 -1.84022 0
M  V30 26001 C 2480.54 1.14863 -1.59062 0
M  V30 26002 O 2479.66 1.88292 -1.06655 0
M  V30 26003 C 2480.26 -0.565097 -3.34054 0
M  V30 26004 C 2478.81 -0.227872 -3.7571 0
M  V30 26005 C 2477.96 -0.842168 -2.64202 0
M  V30 26006 H 2480.91 -0.905986 -1.30298 0
M  V30 26007 H 2480.93 0.172776 -3.80108 0
M  V30 26008 H 2480.45 -1.63048 -3.52189 0
M  V30 26009 H 2478.55 0.832831 -3.63173 0
M  V30 26010 H 2478.66 -0.690257 -4.74102 0
M  V30 26011 H 2477.02 -0.270938 -2.53255 0
M  V30 26012 H 2477.81 -1.91163 -2.85152 0
M  V30 26013 N 2480.25 1.50991 -0.451617 0
M  V30 26014 C 2481.5 2.025 0.110202 0
M  V30 26015 C 2481.83 1.33426 1.41107 0
M  V30 26016 O 2481.11 0.453692 1.89135 0
M  V30 26017 C 2481.39 3.58727 0.314208 0
M  V30 26018 C 2481.24 4.38399 -1.00631 0
M  V30 26019 C 2482.56 4.26704 1.07759 0
M  V30 26020 H 2479.68 0.73599 0.0385767 0
M  V30 26021 H 2482.32 1.80496 -0.593406 0
M  V30 26022 H 2480.47 3.77607 0.913535 0
M  V30 26023 H 2482.14 4.31136 -1.64072 0
M  V30 26024 H 2480.39 4.02914 -1.60757 0
M  V30 26025 H 2481.06 5.45914 -0.817437 0
M  V30 26026 H 2483.53 4.1218 0.569788 0
M  V30 26027 H 2482.41 5.35865 1.18911 0
M  V30 26028 H 2482.67 3.88536 2.10932 0
M  V30 26029 N 2481.73 0.183486 1.56528 0
M  V30 26030 C 2482.98 -0.457417 1.96856 0
M  V30 26031 C 2483.3 -1.62951 1.07107 0
M  V30 26032 O 2482.57 -1.954 0.139921 0
M  V30 26033 H 2481.15 -0.171979 0.726933 0
M  V30 26034 H 2483.81 0.26751 1.93055 0
M  V30 26035 H 2482.91 -0.809315 3.01424 0
M  V30 26036 N 2483.21 -1.57342 -0.0901833 0
M  V30 26037 C 2484.17 -2.01443 -1.09332 0
M  V30 26038 C 2485.17 -0.908664 -1.32665 0
M  V30 26039 O 2486.36 -1.17402 -1.28695 0
M  V30 26040 C 2483.49 -2.37934 -2.44132 0
M  V30 26041 H 2484.69 -2.91286 -0.713611 0
M  V30 26042 H 2482.24 -1.52659 -0.335377 0
M  V30 26043 H 2482.97 -1.5106 -2.86969 0
M  V30 26044 H 2482.76 -3.18607 -2.28543 0
M  V30 26045 H 2484.25 -2.72694 -3.16272 0
M  V30 26046 N 2484.69 0.36113 -1.53407 0
M  V30 26047 C 2485.93 1.10493 -1.70056 0
M  V30 26048 C 2486.27 1.88835 -0.453311 0
M  V30 26049 O 2485.54 1.86577 0.549467 0
M  V30 26050 C 2485.82 2.06053 -2.95321 0
M  V30 26051 C 2485.68 1.3129 -4.30213 0
M  V30 26052 C 2487 3.06116 -3.16198 0
M  V30 26053 H 2484.11 0.40031 -0.618806 0
M  V30 26054 H 2486.76 0.385285 -1.86053 0
M  V30 26055 H 2484.91 2.6742 -2.81813 0
M  V30 26056 H 2486.58 0.726727 -4.5554 0
M  V30 26057 H 2484.82 0.614778 -4.29422 0
M  V30 26058 H 2485.49 2.01256 -5.14004 0
M  V30 26059 H 2487.97 2.54854 -3.2892 0
M  V30 26060 H 2486.84 3.70197 -4.05272 0
M  V30 26061 H 2487.11 3.76531 -2.31682 0
M  V30 26062 N 2486.16 1.44842 0.621179 0
M  V30 26063 C 2487.39 1.51648 1.40749 0
M  V30 26064 C 2487.81 0.144583 1.88246 0
M  V30 26065 O 2487.16 -0.851388 1.61424 0
M  V30 26066 C 2487.22 2.48955 2.62114 0
M  V30 26067 O 2486.94 3.80812 2.16596 0
M  V30 26068 C 2488.44 2.65325 3.5513 0
M  V30 26069 H 2485.66 0.514012 0.431316 0
M  V30 26070 H 2488.2 1.89901 0.758801 0
M  V30 26071 H 2486.36 2.13811 3.23054 0
M  V30 26072 H 2486.77 4.33438 2.9535 0
M  V30 26073 H 2488.24 3.37417 4.36868 0
M  V30 26074 H 2488.72 1.70893 4.04589 0
M  V30 26075 H 2489.33 3.0141 3.00053 0
M  V30 26076 N 2487.64 -0.862479 1.31905 0
M  V30 26077 C 2488.55 -2.00282 1.22164 0
M  V30 26078 C 2489.57 -1.73461 0.136816 0
M  V30 26079 O 2490.74 -1.98228 0.356029 0
M  V30 26080 C 2487.81 -3.33794 0.937152 0
M  V30 26081 C 2486.87 -3.73889 2.10963 0
M  V30 26082 C 2486.1 -5.01029 1.83862 0
M  V30 26083 O 2486.33 -5.65078 0.777373 0
M  V30 26084 O 2485.26 -5.38069 2.6975 0
M  V30 26085 H 2489.09 -2.11435 2.18011 0
M  V30 26086 H 2486.67 -0.991937 1.11718 0
M  V30 26087 H 2488.55 -4.1384 0.794656 0
M  V30 26088 H 2487.23 -3.23699 0.00877584 0
M  V30 26089 H 2486.14 -2.94452 2.30757 0
M  V30 26090 H 2487.47 -3.88619 3.02053 0
M  V30 26091 N 2489.12 -1.14988 -1.07775 0
M  V30 26092 C 2490.05 -0.800474 -2.14767 0
M  V30 26093 C 2491.07 0.185566 -1.61739 0
M  V30 26094 O 2492.25 -0.0370672 -1.78462 0
M  V30 26095 C 2489.35 -0.168592 -3.3848 0
M  V30 26096 C 2488.53 -1.19098 -4.20874 0
M  V30 26097 C 2487.59 -0.581667 -5.22975 0
M  V30 26098 O 2486.61 -1.24643 -5.55385 0
M  V30 26099 N 2487.81 0.638605 -5.76977 0
M  V30 26100 H 2490.58 -1.72122 -2.45345 0
M  V30 26101 H 2488.14 -1.04518 -1.23643 0
M  V30 26102 H 2490.13 0.251693 -4.03917 0
M  V30 26103 H 2488.7 0.655414 -3.05652 0
M  V30 26104 H 2487.92 -1.78797 -3.51319 0
M  V30 26105 H 2489.21 -1.88142 -4.72737 0
M  V30 26106 H 2488.61 1.19714 -5.52888 0
M  V30 26107 H 2487.17 1.00131 -6.44063 0
M  V30 26108 N 2490.6 1.26049 -0.946007 0
M  V30 26109 C 2491.85 1.93144 -0.594975 0
M  V30 26110 C 2492.17 1.74541 0.869499 0
M  V30 26111 O 2491.44 1.1039 1.61836 0
M  V30 26112 H 2490.02 0.714769 -0.217057 0
M  V30 26113 H 2492.68 1.53391 -1.20238 0
M  V30 26114 H 2491.78 3.0122 -0.816888 0
M  V30 26115 N 2492.08 0.71358 1.4052 0
M  V30 26116 C 2493.31 0.261431 2.04939 0
M  V30 26117 C 2493.71 -1.10104 1.53863 0
M  V30 26118 O 2493.06 -1.70275 0.689351 0
M  V30 26119 C 2493.12 0.16129 3.59138 0
M  V30 26120 C 2492.78 1.45872 4.33094 0
M  V30 26121 C 2493.78 2.40024 4.61177 0
M  V30 26122 C 2491.47 1.71709 4.7204 0
M  V30 26123 C 2493.46 3.5826 5.27189 0
M  V30 26124 C 2491.15 2.90227 5.37784 0
M  V30 26125 C 2492.14 3.83325 5.65288 0
M  V30 26126 O 2491.83 4.99765 6.29675 0
M  V30 26127 H 2491.56 0.11562 0.666039 0
M  V30 26128 H 2494.12 0.971881 1.80952 0
M  V30 26129 H 2492.35 -0.605086 3.81937 0
M  V30 26130 H 2494.04 -0.256034 4.05092 0
M  V30 26131 H 2494.8 2.21326 4.31555 0
M  V30 26132 H 2490.68 1.001 4.50001 0
M  V30 26133 H 2494.23 4.30943 5.48574 0
M  V30 26134 H 2490.12 3.08835 5.66826 0
M  V30 26135 H 2490.89 4.99816 6.48171 0
M  V30 26136 N 2493.55 -1.50749 0.459618 0
M  V30 26137 C 2494.48 -2.31148 -0.330604 0
M  V30 26138 C 2495.47 -1.37539 -1.00085 0
M  V30 26139 O 2496.65 -1.66461 -1.00022 0
M  V30 26140 C 2493.78 -3.16965 -1.41952 0
M  V30 26141 C 2492.73 -4.19033 -0.871534 0
M  V30 26142 C 2492.06 -4.93513 -2.05788 0
M  V30 26143 C 2493.36 -5.22186 0.109343 0
M  V30 26144 H 2495.05 -2.97459 0.340388 0
M  V30 26145 H 2492.6 -1.4305 0.165144 0
M  V30 26146 H 2494.55 -3.72001 -1.97973 0
M  V30 26147 H 2493.28 -2.48517 -2.11912 0
M  V30 26148 H 2491.94 -3.65081 -0.333378 0
M  V30 26149 H 2491.58 -4.21548 -2.74419 0
M  V30 26150 H 2491.28 -5.62547 -1.6975 0
M  V30 26151 H 2492.81 -5.5138 -2.62321 0
M  V30 26152 H 2494.22 -5.7216 -0.361304 0
M  V30 26153 H 2492.62 -5.98874 0.383421 0
M  V30 26154 H 2493.69 -4.73639 1.03896 0
M  V30 26155 N 2495.03 -0.191784 -1.56429 0
M  V30 26156 C 2495.98 0.747135 -2.20274 0
M  V30 26157 C 2496.97 1.22227 -1.1729 0
M  V30 26158 O 2498.18 1.18555 -1.35443 0
M  V30 26159 H 2494.56 0.259277 -0.705889 0
M  V30 26160 H 2496.53 0.184911 -2.97827 0
M  V30 26161 C 2495.28 1.95754 -2.8736 0
M  V30 26162 H 2494.6 1.601 -3.66344 0
M  V30 26163 H 2496.04 2.59294 -3.35474 0
M  V30 26164 C 2494.5 2.7942 -1.88218 0
M  V30 26165 O 2495.03 3.77237 -1.3804 0
M  V30 26166 N 2493.23 2.44846 -1.56521 0
M  V30 26167 H 2492.78 1.6536 -1.97519 0
M  V30 26168 H 2492.74 3.01111 -0.904422 0
M  V30 26169 N 2496.51 1.57387 0.0818378 0
M  V30 26170 C 2497.44 2.0603 1.09881 0
M  V30 26171 C 2498.42 0.951798 1.40978 0
M  V30 26172 O 2499.61 1.2239 1.50779 0
M  V30 26173 C 2496.74 2.49584 2.41506 0
M  V30 26174 C 2495.69 3.64219 2.24786 0
M  V30 26175 C 2495.02 3.93793 3.61705 0
M  V30 26176 C 2496.32 4.94632 1.6774 0
M  V30 26177 H 2498.01 2.91244 0.694077 0
M  V30 26178 H 2495.56 1.4011 0.332424 0
M  V30 26179 H 2497.51 2.82224 3.12934 0
M  V30 26180 H 2496.23 1.61386 2.8394 0
M  V30 26181 H 2494.89 3.31846 1.55801 0
M  V30 26182 H 2494.54 3.02743 4.01691 0
M  V30 26183 H 2494.24 4.70978 3.5136 0
M  V30 26184 H 2495.76 4.28921 4.34579 0
M  V30 26185 H 2497.18 5.25568 2.29023 0
M  V30 26186 H 2495.58 5.7607 1.68118 0
M  V30 26187 H 2496.65 4.80685 0.637975 0
M  V30 26188 N 2497.99 -0.35299 1.53596 0
M  V30 26189 C 2499.21 -1.11901 1.74622 0
M  V30 26190 C 2499.64 -1.81879 0.479753 0
M  V30 26191 O 2499 -1.72205 -0.567035 0
M  V30 26192 C 2499.04 -2.1154 2.92033 0
M  V30 26193 O 2498.15 -3.18874 2.61521 0
M  V30 26194 H 2497.49 -0.324089 0.579537 0
M  V30 26195 H 2500.02 -0.406266 2.00526 0
M  V30 26196 H 2500.03 -2.54925 3.18555 0
M  V30 26197 H 2498.7 -1.60001 3.83891 0
M  V30 26198 H 2497.28 -2.80373 2.45857 0
M  V30 26199 N 2499.47 -1.45169 -0.613489 0
M  V30 26200 C 2500.72 -1.48583 -1.36994 0
M  V30 26201 C 2501.04 -0.126579 -1.94589 0
M  V30 26202 O 2500.31 0.843341 -1.76818 0
M  V30 26203 H 2498.89 -0.547163 -0.508549 0
M  V30 26204 H 2501.55 -1.81081 -0.720821 0
M  V30 26205 H 2500.64 -2.22131 -2.19236 0
M  V30 26206 N 2500.95 0.855472 -1.32361 0
M  V30 26207 C 2502.36 1.14355 -1.11334 0
M  V30 26208 C 2502.56 2.01217 0.106716 0
M  V30 26209 O 2501.62 2.39762 0.791849 0
M  V30 26210 C 2502.93 1.82167 -2.3924 0
M  V30 26211 C 2504.48 1.94805 -2.44989 0
M  V30 26212 C 2504.95 2.66033 -3.72814 0
M  V30 26213 N 2506.44 2.73558 -3.73791 0
M  V30 26214 C 2507.18 3.29319 -4.694 0
M  V30 26215 N 2506.68 3.85897 -5.75374 0
M  V30 26216 N 2508.47 3.27415 -4.56898 0
M  V30 26217 H 2500.62 0.27699 -2.10586 0
M  V30 26218 H 2502.88 0.185348 -0.929704 0
M  V30 26219 H 2502.59 1.25796 -3.28433 0
M  V30 26220 H 2502.46 2.8233 -2.50139 0
M  V30 26221 H 2504.85 2.50336 -1.56256 0
M  V30 26222 H 2504.93 0.936406 -2.38044 0
M  V30 26223 H 2504.57 2.11166 -4.61921 0
M  V30 26224 H 2504.5 3.67635 -3.7703 0
M  V30 26225 H 2507 2.33419 -2.97193 0
M  V30 26226 H 2507.31 4.26599 -6.44386 0
M  V30 26227 H 2505.65 3.84232 -5.7913 0
M  V30 26228 H 2508.84 2.82461 -3.73274 0
M  V30 26229 H 2509.02 3.70571 -5.31584 0
M  V30 26230 N 2502.42 1.15558 1.07164 0
M  V30 26231 C 2503.36 0.811853 2.1434 0
M  V30 26232 C 2504.37 -0.176986 1.61835 0
M  V30 26233 O 2505.56 0.0465309 1.78439 0
M  V30 26234 C 2502.66 0.18654 3.38386 0
M  V30 26235 C 2501.83 1.21328 4.20236 0
M  V30 26236 C 2500.89 0.609394 5.22659 0
M  V30 26237 O 2499.92 1.27586 5.54717 0
M  V30 26238 N 2501.12 -0.607997 5.77307 0
M  V30 26239 H 2503.88 1.73421 2.44428 0
M  V30 26240 H 2501.44 1.05172 1.23087 0
M  V30 26241 H 2503.44 -0.230268 4.04044 0
M  V30 26242 H 2502.01 -0.639195 3.05995 0
M  V30 26243 H 2501.23 1.80658 3.50366 0
M  V30 26244 H 2502.51 1.90646 4.71732 0
M  V30 26245 H 2501.91 -1.1678 5.53515 0
M  V30 26246 H 2500.47 -0.967137 6.44585 0
M  V30 26247 N 2503.9 -1.25546 0.952678 0
M  V30 26248 C 2505.13 -1.97281 0.62353 0
M  V30 26249 C 2505.54 -1.70827 -0.803957 0
M  V30 26250 O 2504.9 -0.983174 -1.53753 0
M  V30 26251 C 2504.95 -3.50868 0.870271 0
M  V30 26252 O 2504.67 -3.76408 2.24162 0
M  V30 26253 C 2506.17 -4.39834 0.553242 0
M  V30 26254 H 2503.39 -0.628898 0.233942 0
M  V30 26255 H 2505.94 -1.59766 1.27652 0
M  V30 26256 H 2504.09 -3.86501 0.26372 0
M  V30 26257 H 2504.51 -4.70878 2.31029 0
M  V30 26258 H 2505.98 -5.46512 0.776438 0
M  V30 26259 H 2506.46 -4.36204 -0.512138 0
M  V30 26260 H 2507.06 -4.09764 1.13903 0
M  V30 26261 N 2505.38 -0.721022 -1.40139 0
M  V30 26262 C 2506.34 -0.0806236 -2.29058 0
M  V30 26263 C 2507.34 0.681733 -1.45633 0
M  V30 26264 O 2508.53 0.512827 -1.6648 0
M  V30 26265 C 2505.66 0.895535 -3.28927 0
M  V30 26266 H 2506.86 -0.863843 -2.87189 0
M  V30 26267 H 2504.41 -0.486001 -1.48552 0
M  V30 26268 H 2505.15 1.70561 -2.75825 0
M  V30 26269 H 2504.93 0.351698 -3.9052 0
M  V30 26270 H 2506.42 1.34062 -3.95496 0
M  V30 26271 N 2506.86 1.50503 -0.467606 0
M  V30 26272 C 2508.27 1.59136 -0.121561 0
M  V30 26273 C 2508.47 1.47605 1.37167 0
M  V30 26274 O 2507.53 1.33275 2.14462 0
M  V30 26275 C 2508.84 2.93172 -0.668652 0
M  V30 26276 C 2510.39 3.06558 -0.63177 0
M  V30 26277 C 2510.87 4.43162 -1.15635 0
M  V30 26278 N 2512.36 4.49565 -1.11561 0
M  V30 26279 C 2513.09 5.53648 -1.49204 0
M  V30 26280 N 2512.59 6.65002 -1.9428 0
M  V30 26281 N 2514.38 5.44172 -1.40829 0
M  V30 26282 H 2506.53 1.56242 -1.43882 0
M  V30 26283 H 2508.79 0.738187 -0.594797 0
M  V30 26284 H 2508.5 3.07075 -1.71459 0
M  V30 26285 H 2508.37 3.77039 -0.110276 0
M  V30 26286 H 2510.76 2.92304 0.405246 0
M  V30 26287 H 2510.84 2.24456 -1.22691 0
M  V30 26288 H 2510.49 4.58165 -2.19198 0
M  V30 26289 H 2510.42 5.2385 -0.537457 0
M  V30 26290 H 2512.91 3.69658 -0.78496 0
M  V30 26291 H 2513.22 7.40478 -2.21161 0
M  V30 26292 H 2511.57 6.6613 -1.9823 0
M  V30 26293 H 2514.76 4.56066 -1.05458 0
M  V30 26294 H 2514.93 6.25169 -1.70492 0
M  V30 26295 N 2508.34 0.200077 1.56325 0
M  V30 26296 C 2509.56 -0.442839 2.02105 0
M  V30 26297 C 2509.98 -1.54848 1.08017 0
M  V30 26298 O 2509.34 -1.82298 0.0859117 0
M  V30 26299 C 2509.39 -0.994522 3.47551 0
M  V30 26300 O 2509.11 0.0670092 4.38049 0
M  V30 26301 C 2510.61 -1.71282 4.08873 0
M  V30 26302 H 2507.83 -0.110679 0.661809 0
M  V30 26303 H 2510.37 0.310243 2.02133 0
M  V30 26304 H 2508.53 -1.69797 3.48207 0
M  V30 26305 H 2508.94 -0.34437 5.23368 0
M  V30 26306 H 2510.42 -2.05109 5.12479 0
M  V30 26307 H 2510.89 -2.61831 3.5262 0
M  V30 26308 H 2511.5 -1.05511 4.12004 0
M  V30 26309 N 2509.81 -1.57429 -0.0734901 0
M  V30 26310 C 2510.74 -2.0661 -1.08787 0
M  V30 26311 C 2511.72 -0.959261 -1.40471 0
M  V30 26312 O 2512.91 -1.23188 -1.50128 0
M  V30 26313 C 2510.04 -2.50861 -2.40179 0
M  V30 26314 C 2508.99 -3.65406 -2.22851 0
M  V30 26315 C 2508.32 -3.95706 -3.59612 0
M  V30 26316 C 2509.62 -4.95514 -1.65115 0
M  V30 26317 H 2511.31 -2.91608 -0.678622 0
M  V30 26318 H 2508.86 -1.40285 -0.324989 0
M  V30 26319 H 2510.81 -2.8388 -3.11432 0
M  V30 26320 H 2509.54 -1.6289 -2.8308 0
M  V30 26321 H 2508.2 -3.32667 -1.54039 0
M  V30 26322 H 2507.84 -3.04869 -4.0008 0
M  V30 26323 H 2507.54 -4.72834 -3.48857 0
M  V30 26324 H 2509.07 -4.3122 -4.32299 0
M  V30 26325 H 2510.48 -5.26775 -2.26232 0
M  V30 26326 H 2508.88 -5.76953 -1.65061 0
M  V30 26327 H 2509.95 -4.81016 -0.612474 0
M  V30 26328 N 2511.29 0.344839 -1.53781 0
M  V30 26329 C 2512.22 1.44657 -1.76492 0
M  V30 26330 C 2513.2 1.50562 -0.613981 0
M  V30 26331 O 2514.39 1.68299 -0.84899 0
M  V30 26332 C 2511.51 2.829 -1.8624 0
M  V30 26333 C 2510.56 2.94625 -3.0838 0
M  V30 26334 S 2511.39 2.61228 -4.67461 0
M  V30 26335 C 2512.55 4.01582 -4.80086 0
M  V30 26336 H 2512.78 1.25175 -2.69664 0
M  V30 26337 H 2510.31 0.540429 -1.44633 0
M  V30 26338 H 2512.27 3.62544 -1.92541 0
M  V30 26339 H 2510.93 2.99678 -0.940839 0
M  V30 26340 H 2510.13 3.95919 -3.11872 0
M  V30 26341 H 2509.73 2.22928 -3.00298 0
M  V30 26342 H 2512.02 4.96086 -4.61416 0
M  V30 26343 H 2512.96 4.03085 -5.82175 0
M  V30 26344 H 2513.37 3.89547 -4.08551 0
M  V30 26345 N 2512.77 1.45492 0.605781 0
M  V30 26346 C 2514 1.52911 1.38931 0
M  V30 26347 C 2514.41 0.161119 1.88513 0
M  V30 26348 O 2513.75 -0.847863 1.62963 0
M  V30 26349 C 2513.81 2.45381 2.62733 0
M  V30 26350 C 2513.48 3.92082 2.34778 0
M  V30 26351 C 2514.47 4.81933 1.95029 0
M  V30 26352 C 2512.16 4.37016 2.47634 0
M  V30 26353 C 2514.15 6.14725 1.685 0
M  V30 26354 C 2511.84 5.69848 2.20718 0
M  V30 26355 C 2512.84 6.58522 1.81213 0
M  V30 26356 O 2512.53 7.88892 1.54613 0
M  V30 26357 H 2512.26 0.52027 0.431619 0
M  V30 26358 H 2514.81 1.91386 0.745697 0
M  V30 26359 H 2513.04 2.0188 3.2982 0
M  V30 26360 H 2514.73 2.43462 3.24778 0
M  V30 26361 H 2515.5 4.48482 1.84631 0
M  V30 26362 H 2511.38 3.68237 2.7735 0
M  V30 26363 H 2514.92 6.83897 1.3759 0
M  V30 26364 H 2510.82 6.02854 2.30733 0
M  V30 26365 H 2511.58 8.00936 1.68651 0
M  V30 26366 N 2514.25 -0.848441 1.32813 0
M  V30 26367 C 2515.2 -1.97893 1.22234 0
M  V30 26368 C 2516.19 -1.68932 0.125778 0
M  V30 26369 O 2517.4 -1.77663 0.289114 0
M  V30 26370 H 2513.77 -0.64947 0.379069 0
M  V30 26371 H 2515.74 -2.03942 2.17831 0
M  V30 26372 C 2514.49 -3.33935 0.968631 0
M  V30 26373 H 2513.81 -3.56753 1.80464 0
M  V30 26374 H 2515.25 -4.13565 0.934881 0
M  V30 26375 C 2513.71 -3.35294 -0.328569 0
M  V30 26376 O 2514.24 -3.78747 -1.33841 0
M  V30 26377 N 2512.45 -2.88451 -0.352737 0
M  V30 26378 H 2512 -2.53284 0.469586 0
M  V30 26379 H 2511.95 -2.89743 -1.22051 0
M  V30 26380 N 2515.73 -1.16125 -1.06549 0
M  V30 26381 C 2516.97 -0.941158 -1.793 0
M  V30 26382 C 2517.3 0.531202 -1.87106 0
M  V30 26383 O 2516.56 1.41016 -1.35695 0
M  V30 26384 C 2516.86 -1.51057 -3.23908 0
M  V30 26385 C 2516.52 -3.00481 -3.36187 0
M  V30 26386 C 2515.18 -3.41271 -3.39246 0
M  V30 26387 C 2517.54 -3.96471 -3.38319 0
M  V30 26388 C 2514.86 -4.76675 -3.42049 0
M  V30 26389 C 2517.22 -5.31758 -3.4266 0
M  V30 26390 C 2515.88 -5.72032 -3.44 0
M  V30 26391 H 2515.15 -0.344394 -0.656105 0
M  V30 26392 H 2517.8 -1.44798 -1.25322 0
M  V30 26393 H 2516.1 -0.925129 -3.80721 0
M  V30 26394 H 2517.8 -1.31599 -3.78791 0
M  V30 26395 H 2514.39 -2.67956 -3.34511 0
M  V30 26396 H 2518.57 -3.66026 -3.3517 0
M  V30 26397 H 2513.83 -5.07212 -3.41389 0
M  V30 26398 H 2518 -6.05927 -3.43257 0
M  V30 26399 H 2515.63 -6.76934 -3.45925 0
M  V30 26400 N 2517.2 1.25039 -0.959323 0
M  V30 26401 C 2518.62 1.74769 -0.6567 0
M  V30 26402 C 2518.97 1.77881 0.827821 0
M  V30 26403 O 2518.09 1.40272 1.64781 0
M  V30 26404 C 2518.69 3.17387 -1.18535 0
M  V30 26405 C 2517.25 3.64659 -0.932798 0
M  V30 26406 C 2516.39 2.43562 -1.32563 0
M  V30 26407 H 2519.34 1.1086 -1.1356 0
M  V30 26408 H 2519.36 3.76538 -0.547649 0
M  V30 26409 H 2518.88 3.15091 -2.26582 0
M  V30 26410 H 2516.98 3.72364 0.132505 0
M  V30 26411 H 2517.09 4.52557 -1.57256 0
M  V30 26412 H 2515.45 2.43591 -0.743999 0
M  V30 26413 H 2516.24 2.43953 -2.41541 0
M  V30 26414 N 2518.68 0.728444 1.39755 0
M  V30 26415 C 2519.91 0.283564 2.04948 0
M  V30 26416 C 2520.33 -1.07927 1.5491 0
M  V30 26417 O 2519.68 -1.68074 0.711164 0
M  V30 26418 C 2519.73 0.26902 3.60498 0
M  V30 26419 O 2519.45 1.57805 4.08692 0
M  V30 26420 C 2520.96 -0.192834 4.4288 0
M  V30 26421 H 2518.18 0.125068 0.659241 0
M  V30 26422 H 2520.72 0.990257 1.78925 0
M  V30 26423 H 2518.87 -0.388733 3.85445 0
M  V30 26424 H 2519.29 1.48718 5.02974 0
M  V30 26425 H 2520.76 -0.151855 5.51791 0
M  V30 26426 H 2521.24 -1.23701 4.2142 0
M  V30 26427 H 2521.85 0.435113 4.23068 0
M  V30 26428 N 2520.16 -1.50253 0.475581 0
M  V30 26429 C 2521.58 -1.5907 0.129998 0
M  V30 26430 C 2521.78 -1.48331 -1.36383 0
M  V30 26431 O 2520.83 -1.34411 -2.13752 0
M  V30 26432 C 2522.15 -2.92813 0.68419 0
M  V30 26433 C 2523.69 -3.06218 0.648018 0
M  V30 26434 C 2524.17 -4.42543 1.17983 0
M  V30 26435 N 2525.66 -4.48967 1.13943 0
M  V30 26436 C 2526.39 -5.52848 1.52138 0
M  V30 26437 N 2525.89 -6.63962 1.97804 0
M  V30 26438 N 2527.68 -5.43418 1.43713 0
M  V30 26439 H 2519.83 -1.55477 1.44709 0
M  V30 26440 H 2522.1 -0.735022 0.598704 0
M  V30 26441 H 2521.8 -3.06161 1.73085 0
M  V30 26442 H 2521.68 -3.76975 0.13027 0
M  V30 26443 H 2524.06 -2.92515 -0.389739 0
M  V30 26444 H 2524.15 -2.23802 1.23879 0
M  V30 26445 H 2523.79 -4.56996 2.21624 0
M  V30 26446 H 2523.72 -5.23558 0.56523 0
M  V30 26447 H 2526.21 -3.69236 0.804552 0
M  V30 26448 H 2526.52 -7.39295 2.25085 0
M  V30 26449 H 2524.87 -6.6507 2.0176 0
M  V30 26450 H 2528.06 -4.555 1.07875 0
M  V30 26451 H 2528.23 -6.24256 1.73805 0
M  V30 26452 N 2521.64 -0.208365 -1.56217 0
M  V30 26453 C 2522.6 0.693518 -2.18456 0
M  V30 26454 C 2523.6 1.13133 -1.1427 0
M  V30 26455 O 2524.79 1.04227 -1.39579 0
M  V30 26456 C 2521.92 1.94843 -2.7973 0
M  V30 26457 H 2523.12 0.151088 -2.99519 0
M  V30 26458 H 2520.67 0.0412595 -1.56246 0
M  V30 26459 H 2521.4 2.53306 -2.02501 0
M  V30 26460 H 2521.19 1.6431 -3.56012 0
M  V30 26461 H 2522.68 2.59128 -3.27479 0
M  V30 26462 N 2523.12 1.57465 0.0651402 0
M  V30 26463 C 2524.36 1.87204 0.761522 0
M  V30 26464 C 2524.69 0.801274 1.77777 0
M  V30 26465 O 2523.96 -0.169336 1.95167 0
M  V30 26466 H 2522.54 0.690809 0.284239 0
M  V30 26467 H 2525.2 1.9486 0.0396485 0
M  V30 26468 H 2524.29 2.84931 1.2736 0
M  V30 26469 N 2524.59 -0.336679 1.53962 0
M  V30 26470 C 2525.53 -1.43457 1.78753 0
M  V30 26471 C 2526.54 -1.48417 0.669045 0
M  V30 26472 O 2527.73 -1.51376 0.94591 0
M  V30 26473 C 2524.83 -2.82075 1.87848 0
M  V30 26474 C 2524 -3.00473 3.17859 0
M  V30 26475 C 2523.06 -4.19374 3.17824 0
M  V30 26476 O 2522.09 -4.13161 3.91518 0
M  V30 26477 N 2523.29 -5.28256 2.40678 0
M  V30 26478 H 2526.05 -1.22558 2.73495 0
M  V30 26479 H 2523.61 -0.526598 1.53097 0
M  V30 26480 H 2525.61 -3.59803 1.85268 0
M  V30 26481 H 2524.18 -2.96085 1.00263 0
M  V30 26482 H 2523.4 -2.10157 3.33508 0
M  V30 26483 H 2524.68 -3.09653 4.03723 0
M  V30 26484 H 2524.08 -5.36175 1.80369 0
M  V30 26485 H 2522.64 -6.04452 2.43888 0
M  V30 26486 N 2526.07 -1.45812 -0.598057 0
M  V30 26487 C 2527.31 -1.51872 -1.368 0
M  V30 26488 C 2527.68 -0.160257 -1.9133 0
M  V30 26489 O 2528.88 -0.0955774 -2.6863 0
M  V30 26490 C 2527.15 -2.57517 -2.4783 0
M  V30 26491 S 2528.71 -2.82872 -3.35453 0
M  V30 26492 H 2525.53 -0.536763 -0.466268 0
M  V30 26493 H 2528.13 -1.82952 -0.68912 0
M  V30 26494 H 2526.83 -3.54875 -2.06135 0
M  V30 26495 H 2526.36 -2.28119 -3.20508 0
M  V30 26496 H 2528.38 -2.16975 -4.46247 0
M  V30 26497 N 2527.55 0.841385 -1.33261 0
M  V30 26498 C 2528.8 1.59332 -1.24329 0
M  V30 26499 C 2529.12 1.94057 0.19153 0
M  V30 26500 O 2528.39 1.60751 1.11964 0
M  V30 26501 H 2526.97 0.590755 -0.457184 0
M  V30 26502 H 2529.63 1.00569 -1.66949 0
M  V30 26503 H 2528.73 2.52439 -1.83524 0
M  V30 26504 N 2529.03 1.16688 1.05932 0
M  V30 26505 C 2530.28 0.948775 1.78445 0
M  V30 26506 C 2530.6 -0.52449 1.87814 0
M  V30 26507 O 2529.87 -1.38096 1.38948 0
M  V30 26508 H 2528.45 0.348044 0.660965 0
M  V30 26509 H 2531.11 1.47025 1.27944 0
M  V30 26510 H 2530.21 1.37066 2.80392 0
M  V30 26511 N 2530.51 -1.24529 0.96594 0
M  V30 26512 C 2531.75 -1.92838 0.627794 0
M  V30 26513 C 2532.09 -1.75348 -0.834663 0
M  V30 26514 O 2531.36 -1.10549 -1.60029 0
M  V30 26515 C 2531.64 -3.45903 1.00115 0
M  V30 26516 C 2531.5 -3.72568 2.52018 0
M  V30 26517 C 2532.82 -4.36843 0.534427 0
M  V30 26518 H 2529.94 -0.70034 0.229549 0
M  V30 26519 H 2532.58 -1.46931 1.20463 0
M  V30 26520 H 2530.73 -3.85134 0.510306 0
M  V30 26521 H 2532.4 -3.42907 3.08565 0
M  V30 26522 H 2530.64 -3.17781 2.95293 0
M  V30 26523 H 2531.31 -4.79657 2.73191 0
M  V30 26524 H 2533.79 -4.04978 0.955636 0
M  V30 26525 H 2532.67 -5.42676 0.824247 0
M  V30 26526 H 2532.93 -4.38468 -0.565512 0
M  V30 26527 N 2531.99 -0.735845 -1.39367 0
M  V30 26528 C 2533.23 -0.281039 -1.99732 0
M  V30 26529 C 2533.55 1.13843 -1.59057 0
M  V30 26530 O 2534.75 1.6928 -2.12265 0
M  V30 26531 C 2533.21 -0.451525 -3.57056 0
M  V30 26532 C 2532.82 -1.87893 -4.06694 0
M  V30 26533 C 2534.56 -0.0585362 -4.2446 0
M  V30 26534 C 2532.47 -1.99893 -5.56594 0
M  V30 26535 H 2531.4 -0.101324 -0.747161 0
M  V30 26536 H 2534.05 -0.909847 -1.59355 0
M  V30 26537 H 2532.43 0.246193 -3.95234 0
M  V30 26538 H 2533.61 -2.60868 -3.79848 0
M  V30 26539 H 2531.92 -2.22521 -3.51956 0
M  V30 26540 H 2534.52 -0.127193 -5.34549 0
M  V30 26541 H 2534.86 0.986362 -4.04446 0
M  V30 26542 H 2535.39 -0.707443 -3.91459 0
M  V30 26543 H 2532.13 -3.02574 -5.81489 0
M  V30 26544 H 2531.65 -1.31356 -5.8524 0
M  V30 26545 H 2533.33 -1.7805 -6.22019 0
M  V30 26546 N 2533.46 1.49999 -0.483543 0
M  V30 26547 C 2534.69 2.068 0.0644468 0
M  V30 26548 C 2535.11 1.34598 1.32397 0
M  V30 26549 O 2534.46 0.418977 1.77626 0
M  V30 26550 C 2534.51 3.59899 0.339863 0
M  V30 26551 O 2534.24 4.29381 -0.86971 0
M  V30 26552 C 2535.74 4.33361 0.933439 0
M  V30 26553 H 2532.96 0.670881 -0.0126451 0
M  V30 26554 H 2535.5 1.93007 -0.675897 0
M  V30 26555 H 2533.66 3.73452 1.03016 0
M  V30 26556 H 2534.07 5.208 -0.621882 0
M  V30 26557 H 2535.54 5.41415 1.07584 0
M  V30 26558 H 2536.02 3.94679 1.92678 0
M  V30 26559 H 2536.63 4.2437 0.281147 0
M  V30 26560 N 2534.94 0.216646 1.56104 0
M  V30 26561 C 2536.18 -0.418287 2.00074 0
M  V30 26562 C 2536.55 -1.57296 1.10101 0
M  V30 26563 O 2537.75 -2.27356 1.43397 0
M  V30 26564 C 2536.02 -0.846416 3.47233 0
M  V30 26565 S 2537.58 -1.47615 4.13225 0
M  V30 26566 H 2534.39 -0.13295 0.698459 0
M  V30 26567 H 2537 0.324782 1.92783 0
M  V30 26568 H 2535.7 0.00370404 4.104 0
M  V30 26569 H 2535.23 -1.62242 3.58387 0
M  V30 26570 H 2537.25 -2.76519 4.1201 0
M  V30 26571 N 2536.42 -1.57498 -0.0567885 0
M  V30 26572 C 2537.65 -1.92214 -0.765592 0
M  V30 26573 C 2538.06 -0.813991 -1.70351 0
M  V30 26574 O 2537.42 0.211669 -1.81268 0
M  V30 26575 C 2537.47 -3.26753 -1.54644 0
M  V30 26576 O 2537.19 -4.33308 -0.646202 0
M  V30 26577 C 2538.69 -3.75579 -2.3549 0
M  V30 26578 H 2535.91 -0.635003 -0.216824 0
M  V30 26579 H 2538.46 -2.04488 -0.0225787 0
M  V30 26580 H 2536.61 -3.15961 -2.24159 0
M  V30 26581 H 2537.03 -5.10802 -1.19084 0
M  V30 26582 H 2538.5 -4.72304 -2.85714 0
M  V30 26583 H 2538.98 -3.0535 -3.15687 0
M  V30 26584 H 2539.58 -3.89363 -1.71103 0
M  V30 26585 N 2537.9 0.328509 -1.54138 0
M  V30 26586 C 2539.15 1.06493 -1.71766 0
M  V30 26587 C 2539.47 1.88704 -0.491523 0
M  V30 26588 O 2538.74 1.89556 0.494506 0
M  V30 26589 H 2537.32 0.396153 -0.633302 0
M  V30 26590 H 2539.98 0.366143 -1.9143 0
M  V30 26591 H 2539.07 1.73377 -2.59513 0
M  V30 26592 N 2539.38 1.46127 0.590316 0
M  V30 26593 C 2540.32 1.56114 1.69992 0
M  V30 26594 C 2541.29 0.405895 1.61064 0
M  V30 26595 O 2542.48 0.621645 1.80389 0
M  V30 26596 C 2539.62 1.55018 3.08323 0
M  V30 26597 C 2538.73 2.81221 3.27931 0
M  V30 26598 C 2537.87 2.71681 4.56468 0
M  V30 26599 C 2536.9 3.92857 4.69393 0
M  V30 26600 N 2536.04 3.81749 5.89247 0
M  V30 26601 H 2540.88 2.50898 1.60792 0
M  V30 26602 H 2538.42 1.2448 0.783777 0
M  V30 26603 H 2540.38 1.52369 3.88381 0
M  V30 26604 H 2539.01 0.637722 3.16438 0
M  V30 26605 H 2538.06 2.93883 2.4153 0
M  V30 26606 H 2539.37 3.71051 3.33351 0
M  V30 26607 H 2538.52 2.67095 5.44743 0
M  V30 26608 H 2537.26 1.79478 4.53474 0
M  V30 26609 H 2536.27 3.97784 3.79537 0
M  V30 26610 H 2537.49 4.86147 4.74171 0
M  V30 26611 H 2535.44 2.92327 5.87265 0
M  V30 26612 H 2535.36 4.65227 5.95902 0
M  V30 26613 H 2536.62 3.81124 6.79974 0
M  V30 26614 N 2540.85 -0.834306 1.33705 0
M  V30 26615 C 2542.1 -1.5922 1.25606 0
M  V30 26616 C 2542.43 -1.93395 -0.176625 0
M  V30 26617 O 2541.71 -1.59078 -1.11913 0
M  V30 26618 C 2541.99 -2.89923 2.13581 0
M  V30 26619 C 2541.84 -2.624 3.6533 0
M  V30 26620 C 2543.16 -3.91393 2.01245 0
M  V30 26621 H 2540.28 -0.577711 0.457623 0
M  V30 26622 H 2542.92 -0.961943 1.6385 0
M  V30 26623 H 2541.07 -3.4371 1.81096 0
M  V30 26624 H 2542.75 -2.1501 4.08128 0
M  V30 26625 H 2540.99 -1.96026 3.86984 0
M  V30 26626 H 2541.66 -3.55554 4.22238 0
M  V30 26627 H 2544.14 -3.46925 2.29744 0
M  V30 26628 H 2543.01 -4.80669 2.65045 0
M  V30 26629 H 2543.27 -4.30964 0.986026 0
M  V30 26630 N 2542.33 -1.17248 -1.05312 0
M  V30 26631 C 2543.58 -0.954552 -1.77683 0
M  V30 26632 C 2543.89 0.517992 -1.88617 0
M  V30 26633 O 2545.1 0.854098 -2.57716 0
M  V30 26634 C 2543.56 -1.65869 -3.19399 0
M  V30 26635 C 2543.16 -3.16968 -3.16599 0
M  V30 26636 C 2544.91 -1.5231 -3.96235 0
M  V30 26637 C 2542.81 -3.80076 -4.53096 0
M  V30 26638 H 2541.74 -0.353508 -0.665994 0
M  V30 26639 H 2544.4 -1.40488 -1.18048 0
M  V30 26640 H 2542.78 -1.13609 -3.79353 0
M  V30 26641 H 2543.95 -3.76152 -2.66169 0
M  V30 26642 H 2542.27 -3.30525 -2.53263 0
M  V30 26643 H 2544.86 -1.96831 -4.97154 0
M  V30 26644 H 2545.21 -0.473474 -4.13599 0
M  V30 26645 H 2545.74 -2.01781 -3.42826 0
M  V30 26646 H 2542.48 -4.8503 -4.40937 0
M  V30 26647 H 2542 -3.25679 -5.0368 0
M  V30 26648 H 2543.68 -3.82211 -5.22038 0
M  V30 26649 N 2543.81 1.24015 -0.972531 0
M  V30 26650 C 2545.06 1.91838 -0.63581 0
M  V30 26651 C 2545.38 1.76346 0.832281 0
M  V30 26652 O 2544.65 1.13798 1.59458 0
M  V30 26653 H 2543.23 0.710005 -0.232169 0
M  V30 26654 H 2545.89 1.50806 -1.23464 0
M  V30 26655 H 2544.99 2.99419 -0.880597 0
M  V30 26656 N 2545.29 0.743226 1.38974 0
M  V30 26657 C 2546.22 0.0572566 2.28128 0
M  V30 26658 C 2547.2 -0.739156 1.44828 0
M  V30 26659 O 2548.38 -0.719978 1.74208 0
M  V30 26660 C 2545.51 -0.925944 3.25797 0
M  V30 26661 C 2544.56 -0.217024 4.25947 0
M  V30 26662 S 2545.39 1.07486 5.24602 0
M  V30 26663 C 2546.55 0.0944645 6.25829 0
M  V30 26664 H 2546.78 0.813296 2.85959 0
M  V30 26665 H 2544.31 0.535366 1.44821 0
M  V30 26666 H 2546.27 -1.4879 3.82586 0
M  V30 26667 H 2544.93 -1.65488 2.66969 0
M  V30 26668 H 2544.12 -0.961285 4.94748 0
M  V30 26669 H 2543.73 0.273125 3.73001 0
M  V30 26670 H 2546.02 -0.743121 6.73412 0
M  V30 26671 H 2546.96 0.749837 7.04119 0
M  V30 26672 H 2547.37 -0.281607 5.63797 0
M  V30 26673 N 2546.77 -1.4974 0.491491 0
M  V30 26674 C 2547.72 -2.25868 -0.311046 0
M  V30 26675 C 2548.7 -1.3031 -0.943835 0
M  V30 26676 O 2549.89 -1.5509 -0.853008 0
M  V30 26677 C 2547.02 -3.14318 -1.38054 0
M  V30 26678 C 2546.11 -4.17335 -0.754468 0
M  V30 26679 N 2546.5 -5.05614 0.137305 0
M  V30 26680 C 2544.8 -4.3427 -1.01613 0
M  V30 26681 C 2545.5 -5.79592 0.494716 0
M  V30 26682 N 2544.47 -5.43432 -0.135073 0
M  V30 26683 H 2548.28 -2.9149 0.375601 0
M  V30 26684 H 2545.79 -1.59473 0.306945 0
M  V30 26685 H 2547.79 -3.67481 -1.96884 0
M  V30 26686 H 2546.45 -2.50248 -2.06897 0
M  V30 26687 H 2547.46 -5.15407 0.5075 0
M  V30 26688 H 2544.13 -3.8141 -1.69802 0
M  V30 26689 H 2545.52 -6.60662 1.22371 0
M  V30 26690 N 2548.24 -0.224922 -1.55987 0
M  V30 26691 C 2549.49 0.406467 -1.98685 0
M  V30 26692 C 2549.82 1.59175 -1.11251 0
M  V30 26693 O 2549.1 1.93747 -0.170943 0
M  V30 26694 C 2549.38 0.837747 -3.5022 0
M  V30 26695 C 2549.23 -0.351411 -4.48425 0
M  V30 26696 C 2550.55 1.6927 -4.06246 0
M  V30 26697 H 2547.67 0.146271 -0.722339 0
M  V30 26698 H 2550.31 -0.321832 -1.87254 0
M  V30 26699 H 2548.46 1.45831 -3.60091 0
M  V30 26700 H 2550.14 -0.989605 -4.5056 0
M  V30 26701 H 2548.38 -0.998281 -4.22157 0
M  V30 26702 H 2549.05 -0.00665608 -5.52 0
M  V30 26703 H 2551.53 1.16907 -3.99339 0
M  V30 26704 H 2550.4 1.96337 -5.12585 0
M  V30 26705 H 2550.66 2.65717 -3.53337 0
M  V30 26706 N 2549.72 1.57526 0.0484352 0
M  V30 26707 C 2550.97 1.88001 0.741624 0
M  V30 26708 C 2551.29 0.820085 1.76917 0
M  V30 26709 O 2550.56 -0.148627 1.95335 0
M  V30 26710 H 2549.14 0.693785 0.276896 0
M  V30 26711 H 2551.8 1.94891 0.0189788 0
M  V30 26712 H 2550.9 2.86266 1.24331 0
M  V30 26713 N 2551.2 -0.32033 1.5431 0
M  V30 26714 C 2552.45 -1.0558 1.72329 0
M  V30 26715 C 2552.77 -1.8844 0.501523 0
M  V30 26716 O 2552.04 -1.89816 -0.484446 0
M  V30 26717 H 2550.62 -0.392789 0.635394 0
M  V30 26718 H 2553.28 -0.355986 1.91621 0
M  V30 26719 H 2552.38 -1.71998 2.60429 0
M  V30 26720 N 2552.68 -1.46438 -0.582558 0
M  V30 26721 C 2553.63 -1.57383 -1.7127 0
M  V30 26722 C 2554.62 -0.442319 -1.63523 0
M  V30 26723 O 2555.83 -0.619196 -1.69015 0
M  V30 26724 H 2552.2 -0.494822 -0.566264 0
M  V30 26725 H 2554.17 -2.52404 -1.59169 0
M  V30 26726 C 2552.92 -1.58141 -3.09656 0
M  V30 26727 H 2552.24 -2.44546 -3.16287 0
M  V30 26728 H 2553.68 -1.69854 -3.88491 0
M  V30 26729 C 2552.14 -0.310085 -3.3547 0
M  V30 26730 O 2552.67 0.599613 -3.972 0
M  V30 26731 N 2550.88 -0.197952 -2.89925 0
M  V30 26732 H 2550.43 -0.939133 -2.39871 0
M  V30 26733 H 2550.38 0.651796 -3.07569 0
M  V30 26734 N 2554.16 0.827204 -1.34146 0
M  V30 26735 C 2555.4 1.58004 -1.26012 0
M  V30 26736 C 2555.73 1.94249 0.170937 0
M  V30 26737 O 2555 1.61929 1.10253 0
M  V30 26738 H 2553.58 0.585873 -0.463424 0
M  V30 26739 H 2556.24 0.987922 -1.68006 0
M  V30 26740 H 2555.33 2.50478 -1.86191 0
M  V30 26741 N 2555.63 1.17805 1.04688 0
M  V30 26742 C 2556.86 0.994845 1.81982 0
M  V30 26743 C 2557.28 -0.45208 1.82587 0
M  V30 26744 O 2556.64 -1.32398 1.23857 0
M  V30 26745 C 2556.69 1.54664 3.25747 0
M  V30 26746 O 2555.79 0.763799 4.05265 0
M  V30 26747 H 2555.14 0.352867 0.562477 0
M  V30 26748 H 2557.67 1.56419 1.31887 0
M  V30 26749 H 2557.68 1.57109 3.76538 0
M  V30 26750 H 2556.35 2.59987 3.24622 0
M  V30 26751 H 2554.93 0.811172 3.6397 0
M  V30 26752 N 2557.11 -1.23497 0.979094 0
M  V30 26753 C 2558.06 -2.22685 0.489417 0
M  V30 26754 C 2559.05 -1.54913 -0.434843 0
M  V30 26755 O 2560.24 -1.75021 -0.26391 0
M  V30 26756 C 2557.37 -3.42669 -0.208118 0
M  V30 26757 C 2556.45 -4.17671 0.735637 0
M  V30 26758 N 2556.84 -4.69655 1.87771 0
M  V30 26759 C 2555.14 -4.42612 0.548703 0
M  V30 26760 C 2555.84 -5.26705 2.46895 0
M  V30 26761 N 2554.82 -5.1456 1.75296 0
M  V30 26762 H 2558.62 -2.60506 1.36066 0
M  V30 26763 H 2556.14 -1.39012 0.839605 0
M  V30 26764 H 2558.13 -4.12899 -0.576223 0
M  V30 26765 H 2556.79 -3.06365 -1.07567 0
M  V30 26766 H 2557.8 -4.66039 2.25893 0
M  V30 26767 H 2554.48 -4.166 -0.273933 0
M  V30 26768 H 2555.87 -5.77555 3.43336 0
M  V30 26769 N 2558.59 -0.750586 -1.38578 0
M  V30 26770 C 2559.84 -0.304805 -1.99788 0
M  V30 26771 C 2560.16 1.11646 -1.59876 0
M  V30 26772 O 2559.43 1.76296 -0.854201 0
M  V30 26773 H 2558.01 -0.109707 -0.7389 0
M  V30 26774 H 2560.67 -0.964012 -1.6939 0
M  V30 26775 H 2559.77 -0.365553 -3.09952 0
M  V30 26776 N 2560.07 1.49477 -0.499425 0
M  V30 26777 C 2561.32 2.02449 0.0456543 0
M  V30 26778 C 2561.64 1.37924 1.3714 0
M  V30 26779 O 2560.9 0.503578 1.8911 0
M  V30 26780 C 2561.2 3.56536 0.248362 0
M  V30 26781 C 2560.86 4.3969 -0.999185 0
M  V30 26782 C 2559.53 4.62132 -1.34116 0
M  V30 26783 C 2561.88 4.88073 -1.8285 0
M  V30 26784 C 2559.21 5.30203 -2.512 0
M  V30 26785 C 2561.56 5.57432 -2.99086 0
M  V30 26786 C 2560.22 5.78121 -3.33666 0
M  V30 26787 H 2559.49 0.740812 0.0167061 0
M  V30 26788 H 2562.14 1.79794 -0.659262 0
M  V30 26789 H 2560.44 3.77861 1.03579 0
M  V30 26790 H 2562.14 3.95114 0.684535 0
M  V30 26791 H 2558.73 4.22461 -0.722804 0
M  V30 26792 H 2562.92 4.70564 -1.57745 0
M  V30 26793 H 2558.17 5.44424 -2.78231 0
M  V30 26794 H 2562.35 5.93897 -3.63674 0
M  V30 26795 H 2559.97 6.30642 -4.24494 0
M  V30 26796 N 2561.55 0.233191 1.55865 0
M  V30 26797 C 2562.51 -0.658676 2.19532 0
M  V30 26798 C 2563.51 -1.11301 1.16055 0
M  V30 26799 O 2564.7 -1.01993 1.4122 0
M  V30 26800 C 2561.83 -1.90368 2.82794 0
M  V30 26801 H 2563.03 -0.103418 2.99722 0
M  V30 26802 H 2560.58 -0.016397 1.56291 0
M  V30 26803 H 2561.31 -2.50052 2.06505 0
M  V30 26804 H 2561.1 -1.58626 3.58581 0
M  V30 26805 H 2562.59 -2.53885 3.3156 0
M  V30 26806 N 2563.03 -1.57549 -0.0400806 0
M  V30 26807 C 2563.99 -2.04819 -1.02868 0
M  V30 26808 C 2564.99 -0.950411 -1.29707 0
M  V30 26809 O 2566.18 -1.21437 -1.24895 0
M  V30 26810 C 2563.31 -2.4558 -2.36438 0
M  V30 26811 H 2564.5 -2.93409 -0.620579 0
M  V30 26812 H 2562.06 -1.53649 -0.28664 0
M  V30 26813 H 2562.79 -1.60113 -2.82018 0
M  V30 26814 H 2562.58 -3.25717 -2.18291 0
M  V30 26815 H 2564.07 -2.82618 -3.07436 0
M  V30 26816 N 2564.5 0.312142 -1.54478 0
M  V30 26817 C 2565.47 1.36763 -1.83925 0
M  V30 26818 C 2566.47 1.44198 -0.711588 0
M  V30 26819 O 2567.66 1.44027 -0.979892 0
M  V30 26820 C 2564.79 2.75373 -2.00955 0
M  V30 26821 H 2565.98 1.11901 -2.78241 0
M  V30 26822 H 2563.53 0.548232 -1.4637 0
M  V30 26823 H 2564.27 3.05473 -1.08889 0
M  V30 26824 H 2564.05 2.71368 -2.83023 0
M  V30 26825 H 2565.54 3.51709 -2.25146 0
M  V30 26826 N 2565.98 1.46745 0.574784 0
M  V30 26827 C 2566.91 1.60774 1.69334 0
M  V30 26828 C 2567.89 0.457765 1.63825 0
M  V30 26829 O 2569.08 0.684979 1.81719 0
M  V30 26830 C 2566.21 1.60522 3.07977 0
M  V30 26831 C 2565.16 2.74569 3.28323 0
M  V30 26832 C 2564.49 2.59382 4.67574 0
M  V30 26833 C 2565.79 4.16324 3.15391 0
M  V30 26834 H 2567.48 2.54409 1.57849 0
M  V30 26835 H 2565.03 1.22437 0.757968 0
M  V30 26836 H 2566.98 1.6893 3.86058 0
M  V30 26837 H 2565.7 0.634361 3.2038 0
M  V30 26838 H 2564.36 2.65644 2.52644 0
M  V30 26839 H 2564.01 1.60362 4.76753 0
M  V30 26840 H 2563.71 3.35882 4.82138 0
M  V30 26841 H 2565.24 2.69692 5.47813 0
M  V30 26842 H 2566.65 4.2632 3.83307 0
M  V30 26843 H 2565.05 4.93474 3.41473 0
M  V30 26844 H 2566.12 4.35924 2.12364 0
M  V30 26845 N 2567.46 -0.820078 1.34583 0
M  V30 26846 C 2568.41 -1.93115 1.26393 0
M  V30 26847 C 2569.38 -1.65521 0.138583 0
M  V30 26848 O 2570.56 -1.88097 0.320037 0
M  V30 26849 C 2567.7 -3.29427 1.02818 0
M  V30 26850 C 2566.81 -3.69296 2.24153 0
M  V30 26851 C 2565.95 -4.94571 1.93838 0
M  V30 26852 C 2564.99 -5.27028 3.113 0
M  V30 26853 N 2564.13 -6.43481 2.80849 0
M  V30 26854 H 2568.97 -1.99451 2.21412 0
M  V30 26855 H 2566.5 -0.975765 1.10078 0
M  V30 26856 H 2568.46 -4.07988 0.87186 0
M  V30 26857 H 2567.09 -3.22596 0.114669 0
M  V30 26858 H 2566.14 -2.86105 2.50696 0
M  V30 26859 H 2567.45 -3.89251 3.11905 0
M  V30 26860 H 2566.61 -5.80926 1.74958 0
M  V30 26861 H 2565.35 -4.76624 1.03349 0
M  V30 26862 H 2564.35 -4.3917 3.30772 0
M  V30 26863 H 2565.58 -5.46913 4.0257 0
M  V30 26864 H 2563.52 -6.26985 1.9294 0
M  V30 26865 H 2563.44 -6.63622 3.62134 0
M  V30 26866 H 2564.71 -7.32899 2.6548 0
M  V30 26867 N 2568.94 -1.18359 -1.04062 0
M  V30 26868 C 2570.35 -0.933281 -1.29468 0
M  V30 26869 C 2570.55 0.401134 -1.97467 0
M  V30 26870 O 2569.61 1.13546 -2.2553 0
M  V30 26871 C 2570.92 -2.09886 -2.15333 0
M  V30 26872 C 2572.47 -2.13716 -2.2868 0
M  V30 26873 C 2572.95 -3.29692 -3.17911 0
M  V30 26874 N 2574.44 -3.29553 -3.25499 0
M  V30 26875 C 2575.17 -4.15933 -3.94699 0
M  V30 26876 N 2574.67 -5.12447 -4.6623 0
M  V30 26877 N 2576.46 -4.03847 -3.90978 0
M  V30 26878 H 2568.61 -2.04233 -0.583323 0
M  V30 26879 H 2570.87 -0.892393 -0.319905 0
M  V30 26880 H 2570.58 -3.06392 -1.72676 0
M  V30 26881 H 2570.45 -2.05953 -3.16012 0
M  V30 26882 H 2572.84 -1.17788 -2.70573 0
M  V30 26883 H 2572.92 -2.21707 -1.27592 0
M  V30 26884 H 2572.57 -4.25891 -2.76729 0
M  V30 26885 H 2572.5 -3.18937 -4.19031 0
M  V30 26886 H 2574.99 -2.59682 -2.74543 0
M  V30 26887 H 2575.3 -5.74731 -5.16628 0
M  V30 26888 H 2573.65 -5.16406 -4.65134 0
M  V30 26889 H 2576.84 -3.27733 -3.34228 0
M  V30 26890 H 2577.01 -4.71383 -4.44637 0
M  V30 26891 N 2570.42 1.22976 -0.98563 0
M  V30 26892 C 2571.64 1.96098 -0.675289 0
M  V30 26893 C 2572.07 1.72409 0.752124 0
M  V30 26894 O 2571.42 0.998778 1.51308 0
M  V30 26895 C 2571.47 3.47085 -0.97796 0
M  V30 26896 O 2570.58 4.12336 -0.0727575 0
M  V30 26897 H 2569.92 0.613724 -0.253454 0
M  V30 26898 H 2572.45 1.5627 -1.32064 0
M  V30 26899 H 2572.46 3.97566 -0.916809 0
M  V30 26900 H 2571.13 3.63654 -2.01813 0
M  V30 26901 H 2569.71 3.72422 -0.188768 0
M  V30 26902 N 2571.89 0.757924 1.38178 0
M  V30 26903 C 2573.12 0.326499 2.04004 0
M  V30 26904 C 2573.53 -1.05153 1.57288 0
M  V30 26905 O 2572.87 -1.67996 0.743174 0
M  V30 26906 C 2572.94 0.275465 3.58443 0
M  V30 26907 C 2572.6 1.59577 4.28234 0
M  V30 26908 C 2573.6 2.54574 4.53308 0
M  V30 26909 C 2571.28 1.8664 4.66338 0
M  V30 26910 C 2573.28 3.74851 5.15525 0
M  V30 26911 C 2570.96 3.0719 5.28278 0
M  V30 26912 C 2571.96 4.01115 5.52807 0
M  V30 26913 O 2571.65 5.19545 6.13456 0
M  V30 26914 H 2571.38 0.136751 0.662024 0
M  V30 26915 H 2573.94 1.02896 1.77768 0
M  V30 26916 H 2572.17 -0.483269 3.83668 0
M  V30 26917 H 2573.85 -0.127027 4.05701 0
M  V30 26918 H 2574.62 2.34944 4.24295 0
M  V30 26919 H 2570.5 1.14366 4.46589 0
M  V30 26920 H 2574.04 4.48178 5.34586 0
M  V30 26921 H 2569.94 3.26711 5.56714 0
M  V30 26922 H 2570.71 5.20184 6.31942 0
M  V30 26923 N 2573.37 -1.4921 0.507345 0
M  V30 26924 C 2574.62 -2.0247 -0.0349173 0
M  V30 26925 C 2574.95 -1.38649 -1.36406 0
M  V30 26926 O 2574.2 -0.5136 -1.8884 0
M  V30 26927 C 2574.5 -3.56663 -0.22945 0
M  V30 26928 C 2574.17 -4.39154 1.02249 0
M  V30 26929 C 2572.83 -4.61415 1.36565 0
M  V30 26930 C 2575.18 -4.87096 1.85436 0
M  V30 26931 C 2572.51 -5.28864 2.54008 0
M  V30 26932 C 2574.86 -5.55838 3.02038 0
M  V30 26933 C 2573.53 -5.76343 3.36727 0
M  V30 26934 H 2572.8 -0.74089 -0.0127772 0
M  V30 26935 H 2575.44 -1.79442 0.668788 0
M  V30 26936 H 2573.75 -3.78405 -1.01574 0
M  V30 26937 H 2575.44 -3.95472 -0.663572 0
M  V30 26938 H 2572.03 -4.22072 0.745198 0
M  V30 26939 H 2576.22 -4.69721 1.60238 0
M  V30 26940 H 2571.47 -5.42941 2.81114 0
M  V30 26941 H 2575.65 -5.9196 3.66819 0
M  V30 26942 H 2573.28 -6.28382 4.27832 0
M  V30 26943 N 2574.85 -0.241454 -1.55739 0
M  V30 26944 C 2576.08 0.389098 -2.03208 0
M  V30 26945 C 2576.49 1.51929 -1.12084 0
M  V30 26946 O 2575.85 1.82006 -0.134215 0
M  V30 26947 C 2575.9 0.902026 -3.50065 0
M  V30 26948 O 2575.62 -0.183127 -4.37717 0
M  V30 26949 C 2577.12 1.60382 -4.13271 0
M  V30 26950 H 2574.34 0.0930936 -0.664511 0
M  V30 26951 H 2576.89 -0.363726 -2.01239 0
M  V30 26952 H 2575.04 1.60505 -3.52586 0
M  V30 26953 H 2575.46 0.205487 -5.24097 0
M  V30 26954 H 2576.93 1.91449 -5.17737 0
M  V30 26955 H 2577.41 2.5239 -3.59438 0
M  V30 26956 H 2578.01 0.945503 -4.14657 0
M  V30 26957 N 2576.33 1.57568 0.0317248 0
M  V30 26958 C 2577.26 2.03179 1.0607 0
M  V30 26959 C 2578.27 0.944156 1.32626 0
M  V30 26960 O 2579.46 1.2215 1.3016 0
M  V30 26961 C 2576.56 2.38983 2.40293 0
M  V30 26962 C 2575.74 3.70093 2.3313 0
M  V30 26963 C 2574.79 3.93116 3.49781 0
M  V30 26964 O 2573.82 4.64206 3.29395 0
M  V30 26965 N 2575.02 3.38549 4.71556 0
M  V30 26966 H 2577.79 2.9207 0.671954 0
M  V30 26967 H 2575.35 1.60402 0.219717 0
M  V30 26968 H 2577.34 2.51524 3.17045 0
M  V30 26969 H 2575.91 1.55776 2.71021 0
M  V30 26970 H 2575.13 3.67931 1.41494 0
M  V30 26971 H 2576.42 4.56108 2.25485 0
M  V30 26972 H 2575.82 2.80921 4.91019 0
M  V30 26973 H 2574.37 3.56474 5.45683 0
M  V30 26974 N 2577.81 -0.303946 1.54641 0
M  V30 26975 C 2579.03 -1.06289 1.78094 0
M  V30 26976 C 2579.46 -1.80261 0.537374 0
M  V30 26977 O 2578.81 -1.73921 -0.511963 0
M  V30 26978 C 2578.86 -2.02142 2.98615 0
M  V30 26979 O 2577.97 -3.10392 2.71534 0
M  V30 26980 H 2577.31 -0.305487 0.589554 0
M  V30 26981 H 2579.84 -0.342265 2.01717 0
M  V30 26982 H 2579.85 -2.44661 3.26504 0
M  V30 26983 H 2578.52 -1.47707 3.88787 0
M  V30 26984 H 2577.1 -2.72409 2.54652 0
M  V30 26985 N 2579.28 -1.47047 -0.566994 0
M  V30 26986 C 2580.22 -1.54847 -1.68982 0
M  V30 26987 C 2581.23 -0.435459 -1.56868 0
M  V30 26988 O 2582.42 -0.704599 -1.64005 0
M  V30 26989 C 2579.52 -1.42748 -3.0737 0
M  V30 26990 C 2578.69 -2.68446 -3.45334 0
M  V30 26991 C 2577.75 -2.50322 -4.62845 0
M  V30 26992 O 2576.78 -3.24103 -4.67916 0
M  V30 26993 N 2577.98 -1.57509 -5.58723 0
M  V30 26994 H 2580.74 -2.51666 -1.6274 0
M  V30 26995 H 2578.3 -1.43303 -0.753385 0
M  V30 26996 H 2580.3 -1.28372 -3.838 0
M  V30 26997 H 2578.87 -0.540499 -3.07892 0
M  V30 26998 H 2578.09 -2.97653 -2.5845 0
M  V30 26999 H 2579.37 -3.51914 -3.6747 0
M  V30 27000 H 2578.77 -0.966974 -5.57374 0
M  V30 27001 H 2577.33 -1.49089 -6.3452 0
M  V30 27002 N 2580.76 0.812929 -1.35016 0
M  V30 27003 C 2582.01 1.56659 -1.27681 0
M  V30 27004 C 2582.33 1.9442 0.150324 0
M  V30 27005 O 2581.6 1.6309 1.08529 0
M  V30 27006 H 2580.18 0.580925 -0.469612 0
M  V30 27007 H 2582.84 0.970047 -1.69045 0
M  V30 27008 H 2581.94 2.48489 -1.88837 0
M  V30 27009 N 2582.24 1.18909 1.03433 0
M  V30 27010 C 2583.15 0.937053 2.15073 0
M  V30 27011 C 2584.17 -0.101054 1.73706 0
M  V30 27012 O 2585.34 0.0823301 2.01232 0
M  V30 27013 C 2582.41 0.473118 3.43457 0
M  V30 27014 C 2581.47 1.57996 3.99169 0
M  V30 27015 C 2580.7 1.13806 5.21425 0
M  V30 27016 O 2580.92 -0.000625679 5.704 0
M  V30 27017 O 2579.86 1.9384 5.69833 0
M  V30 27018 H 2583.68 1.87136 2.39194 0
M  V30 27019 H 2581.27 0.971447 1.13504 0
M  V30 27020 H 2583.15 0.222776 4.20811 0
M  V30 27021 H 2581.83 -0.432813 3.20793 0
M  V30 27022 H 2580.73 1.88439 3.23174 0
M  V30 27023 H 2582.07 2.46224 4.26186 0
M  V30 27024 N 2583.72 -1.22452 0.992137 0
M  V30 27025 C 2584.97 -1.90491 0.663026 0
M  V30 27026 C 2585.28 -1.78114 -0.808376 0
M  V30 27027 O 2586.49 -2.41063 -1.24904 0
M  V30 27028 C 2584.94 -3.41523 1.13536 0
M  V30 27029 C 2584.55 -3.62538 2.63193 0
M  V30 27030 C 2586.29 -4.15267 0.880538 0
M  V30 27031 C 2584.2 -5.07265 3.04033 0
M  V30 27032 H 2583.13 -0.713329 0.24429 0
M  V30 27033 H 2585.78 -1.38686 1.2016 0
M  V30 27034 H 2584.16 -3.92506 0.524919 0
M  V30 27035 H 2585.34 -3.2205 3.29576 0
M  V30 27036 H 2583.65 -3.02124 2.86549 0
M  V30 27037 H 2586.25 -5.21935 1.16138 0
M  V30 27038 H 2586.59 -4.15896 -0.183335 0
M  V30 27039 H 2587.13 -3.70309 1.45313 0
M  V30 27040 H 2583.87 -5.11775 4.09593 0
M  V30 27041 H 2583.39 -5.48658 2.42353 0
M  V30 27042 H 2585.06 -5.75684 2.95292 0
M  V30 27043 N 2585.2 -0.765242 -1.37774 0
M  V30 27044 C 2586.13 -0.105402 -2.28958 0
M  V30 27045 C 2587.14 0.671254 -1.48317 0
M  V30 27046 O 2588.33 0.51042 -1.71047 0
M  V30 27047 C 2585.43 0.874511 -3.27423 0
M  V30 27048 C 2584.6 0.153046 -4.37132 0
M  V30 27049 C 2583.66 1.04538 -5.15711 0
M  V30 27050 O 2582.69 0.511572 -5.66896 0
M  V30 27051 N 2583.89 2.37233 -5.29812 0
M  V30 27052 H 2586.66 -0.888545 -2.86225 0
M  V30 27053 H 2584.22 -0.617027 -1.49681 0
M  V30 27054 H 2586.21 1.47476 -3.76873 0
M  V30 27055 H 2584.78 1.55866 -2.7097 0
M  V30 27056 H 2584 -0.628044 -3.89165 0
M  V30 27057 H 2585.29 -0.345732 -5.07624 0
M  V30 27058 H 2584.68 2.83045 -4.89798 0
M  V30 27059 H 2583.24 2.9228 -5.82594 0
M  V30 27060 N 2586.67 1.48939 -0.515251 0
M  V30 27061 C 2587.92 2.03394 0.0161512 0
M  V30 27062 C 2588.28 1.38669 1.33375 0
M  V30 27063 O 2587.57 0.518173 1.8446 0
M  V30 27064 C 2587.76 3.56779 0.210532 0
M  V30 27065 C 2587.59 4.36373 -1.08667 0
M  V30 27066 C 2586.36 4.77861 -1.64245 0
M  V30 27067 C 2588.56 4.74089 -1.99358 0
M  V30 27068 N 2586.54 5.41936 -2.88408 0
M  V30 27069 C 2587.91 5.3803 -3.08098 0
M  V30 27070 C 2589.97 4.56025 -1.99864 0
M  V30 27071 C 2588.67 5.85816 -4.17388 0
M  V30 27072 C 2590.7 5.04782 -3.08138 0
M  V30 27073 C 2590.06 5.68735 -4.15596 0
M  V30 27074 H 2586.16 0.781206 -0.0352244 0
M  V30 27075 H 2588.74 1.81939 -0.693269 0
M  V30 27076 H 2586.91 3.78089 0.889022 0
M  V30 27077 H 2588.64 3.97873 0.740217 0
M  V30 27078 H 2585.4 4.58516 -1.18574 0
M  V30 27079 H 2585.82 5.78549 -3.51582 0
M  V30 27080 H 2590.47 4.05975 -1.18086 0
M  V30 27081 H 2588.18 6.34879 -4.99954 0
M  V30 27082 H 2591.77 4.92605 -3.09566 0
M  V30 27083 H 2590.65 6.05779 -4.97998 0
M  V30 27084 N 2588.15 0.249709 1.55609 0
M  V30 27085 C 2589.09 -0.68937 2.17538 0
M  V30 27086 C 2590.06 -1.17081 1.12831 0
M  V30 27087 O 2591.25 -1.24844 1.41232 0
M  V30 27088 C 2588.38 -1.9372 2.77831 0
M  V30 27089 C 2587.42 -1.59339 3.95618 0
M  V30 27090 S 2588.25 -0.693577 5.30989 0
M  V30 27091 C 2589.41 -1.95035 5.94737 0
M  V30 27092 H 2589.64 -0.163089 2.96852 0
M  V30 27093 H 2587.18 0.0341437 1.54362 0
M  V30 27094 H 2589.13 -2.65356 3.13204 0
M  V30 27095 H 2587.8 -2.43461 1.98458 0
M  V30 27096 H 2586.99 -2.52125 4.36405 0
M  V30 27097 H 2586.59 -0.957448 3.61537 0
M  V30 27098 H 2588.88 -2.89729 6.12424 0
M  V30 27099 H 2589.83 -1.58592 6.90112 0
M  V30 27100 H 2590.23 -2.10372 5.23836 0
M  V30 27101 N 2589.63 -1.57583 -0.0233682 0
M  V30 27102 C 2591.05 -1.55032 -0.379107 0
M  V30 27103 C 2591.25 -0.976579 -1.76253 0
M  V30 27104 O 2590.3 -0.600121 -2.45265 0
M  V30 27105 C 2591.62 -2.99433 -0.275739 0
M  V30 27106 C 2593.16 -3.1101 -0.352403 0
M  V30 27107 C 2593.64 -4.57153 -0.278421 0
M  V30 27108 N 2595.13 -4.61972 -0.337041 0
M  V30 27109 C 2595.87 -5.726 -0.302775 0
M  V30 27110 N 2595.36 -6.92449 -0.220468 0
M  V30 27111 N 2597.15 -5.60991 -0.352924 0
M  V30 27112 H 2589.31 -1.93226 0.881903 0
M  V30 27113 H 2591.57 -0.886503 0.335882 0
M  V30 27114 H 2591.27 -3.45158 0.675168 0
M  V30 27115 H 2591.15 -3.6179 -1.06714 0
M  V30 27116 H 2593.54 -2.65229 -1.29375 0
M  V30 27117 H 2593.62 -2.51474 0.468453 0
M  V30 27118 H 2593.26 -5.03603 0.659278 0
M  V30 27119 H 2593.19 -5.14607 -1.11746 0
M  V30 27120 H 2595.68 -3.75746 -0.402936 0
M  V30 27121 H 2595.99 -7.72542 -0.199577 0
M  V30 27122 H 2594.34 -6.9475 -0.186433 0
M  V30 27123 H 2597.53 -4.66254 -0.415258 0
M  V30 27124 H 2597.7 -6.47196 -0.322752 0
M  V30 27125 N 2591.11 0.29574 -1.548 0
M  V30 27126 C 2592.52 0.868382 -1.65276 0
M  V30 27127 C 2592.87 1.87893 -0.564844 0
M  V30 27128 O 2592 2.14343 0.297632 0
M  V30 27129 C 2592.59 1.58183 -2.99606 0
M  V30 27130 C 2591.15 2.1028 -3.12184 0
M  V30 27131 C 2590.3 0.937224 -2.60982 0
M  V30 27132 H 2593.25 0.0726144 -1.58534 0
M  V30 27133 H 2593.27 2.44767 -2.91323 0
M  V30 27134 H 2592.78 0.846085 -3.78765 0
M  V30 27135 H 2590.88 2.86885 -2.37755 0
M  V30 27136 H 2591 2.33372 -4.18419 0
M  V30 27137 H 2589.36 1.32427 -2.17567 0
M  V30 27138 H 2590.14 0.215354 -3.42624 0
M  V30 27139 N 2592.59 1.47346 0.559187 0
M  V30 27140 C 2593.81 1.57727 1.34673 0
M  V30 27141 C 2594.24 0.227197 1.86723 0
M  V30 27142 O 2593.6 -0.796613 1.62861 0
M  V30 27143 C 2593.64 2.60451 2.49394 0
M  V30 27144 O 2592.75 2.15585 3.51564 0
M  V30 27145 H 2592.09 0.529917 0.400105 0
M  V30 27146 H 2594.62 1.93111 0.675975 0
M  V30 27147 H 2594.63 2.80808 2.95991 0
M  V30 27148 H 2593.3 3.5848 2.10867 0
M  V30 27149 H 2591.88 2.05318 3.11286 0
M  V30 27150 N 2594.07 -0.805758 1.35445 0
M  V30 27151 C 2595.01 -1.91763 1.28434 0
M  V30 27152 C 2595.98 -1.65365 0.156131 0
M  V30 27153 O 2597.17 -1.87747 0.339969 0
M  V30 27154 C 2594.31 -3.28318 1.06306 0
M  V30 27155 C 2593.42 -3.66898 2.28057 0
M  V30 27156 C 2592.56 -4.92487 1.99072 0
M  V30 27157 C 2591.59 -5.23697 3.16872 0
M  V30 27158 N 2590.73 -6.40466 2.87658 0
M  V30 27159 H 2595.57 -1.97092 2.23515 0
M  V30 27160 H 2593.11 -0.964034 1.11107 0
M  V30 27161 H 2595.07 -4.07041 0.915084 0
M  V30 27162 H 2593.7 -3.22456 0.148878 0
M  V30 27163 H 2592.75 -2.8343 2.53716 0
M  V30 27164 H 2594.06 -3.85921 3.16016 0
M  V30 27165 H 2593.21 -5.79037 1.8111 0
M  V30 27166 H 2591.95 -4.75501 1.08399 0
M  V30 27167 H 2590.96 -4.35637 3.35411 0
M  V30 27168 H 2592.18 -5.42613 4.08348 0
M  V30 27169 H 2590.13 -6.24903 1.99579 0
M  V30 27170 H 2590.05 -6.59744 3.69153 0
M  V30 27171 H 2591.31 -7.30042 2.73238 0
M  V30 27172 N 2595.54 -1.19456 -1.02801 0
M  V30 27173 C 2596.45 -0.948445 -2.14573 0
M  V30 27174 C 2597.47 0.0918405 -1.73757 0
M  V30 27175 O 2598.65 -0.0930008 -2.01185 0
M  V30 27176 C 2595.71 -0.491326 -3.43201 0
M  V30 27177 C 2594.77 -1.6011 -3.98325 0
M  V30 27178 C 2594 -1.1657 -5.20814 0
M  V30 27179 O 2594.23 -0.029624 -5.70392 0
M  V30 27180 O 2593.16 -1.96859 -5.68797 0
M  V30 27181 H 2596.99 -1.88401 -2.38199 0
M  V30 27182 H 2594.57 -0.977453 -1.12988 0
M  V30 27183 H 2596.45 -0.245089 -4.20687 0
M  V30 27184 H 2595.13 0.415794 -3.21018 0
M  V30 27185 H 2594.04 -1.9015 -3.22171 0
M  V30 27186 H 2595.37 -2.48481 -4.24874 0
M  V30 27187 N 2597.02 1.21924 -0.998617 0
M  V30 27188 C 2598.27 1.91106 -0.678701 0
M  V30 27189 C 2598.6 1.775 0.787879 0
M  V30 27190 O 2597.88 1.14753 1.57041 0
M  V30 27191 C 2598.16 3.43127 -1.09251 0
M  V30 27192 C 2598.01 3.65756 -2.61807 0
M  V30 27193 C 2599.33 4.35273 -0.650061 0
M  V30 27194 H 2596.45 0.694008 -0.248037 0
M  V30 27195 H 2599.09 1.43686 -1.24316 0
M  V30 27196 H 2597.24 3.83646 -0.612238 0
M  V30 27197 H 2598.91 3.34605 -3.17549 0
M  V30 27198 H 2597.16 3.0984 -3.03614 0
M  V30 27199 H 2597.83 4.72245 -2.85813 0
M  V30 27200 H 2600.3 4.02301 -1.06267 0
M  V30 27201 H 2599.18 5.403 -0.967838 0
M  V30 27202 H 2599.44 4.39813 0.449061 0
M  V30 27203 N 2598.5 0.772537 1.37367 0
M  V30 27204 C 2599.75 0.336551 1.99278 0
M  V30 27205 C 2600.07 -1.09088 1.61632 0
M  V30 27206 O 2599.34 -1.74915 0.88214 0
M  V30 27207 H 2597.92 0.121448 0.737061 0
M  V30 27208 H 2600.58 0.990839 1.67834 0
M  V30 27209 H 2599.68 0.414818 3.09331 0
M  V30 27210 N 2599.98 -1.48664 0.523142 0
M  V30 27211 C 2601.21 -2.06598 -0.00958092 0
M  V30 27212 C 2601.62 -1.38095 -1.29331 0
M  V30 27213 O 2600.96 -0.460101 -1.77845 0
M  V30 27214 C 2601.02 -3.58152 -0.311072 0
M  V30 27215 C 2600.68 -4.48483 0.878171 0
M  V30 27216 C 2601.68 -4.88671 1.77473 0
M  V30 27217 C 2599.37 -4.90481 1.08324 0
M  V30 27218 C 2601.36 -5.69618 2.86031 0
M  V30 27219 C 2599.05 -5.71199 2.17197 0
M  V30 27220 C 2600.05 -6.10675 3.05884 0
M  V30 27221 O 2599.73 -6.89775 4.12874 0
M  V30 27222 H 2599.47 -0.675449 0.0272777 0
M  V30 27223 H 2602.02 -1.92134 0.72619 0
M  V30 27224 H 2600.25 -3.70703 -1.10073 0
M  V30 27225 H 2601.94 -3.98236 -0.785055 0
M  V30 27226 H 2602.7 -4.56853 1.62821 0
M  V30 27227 H 2598.58 -4.59242 0.402229 0
M  V30 27228 H 2602.13 -6.0035 3.55282 0
M  V30 27229 H 2598.02 -6.02431 2.31835 0
M  V30 27230 H 2598.79 -7.08119 4.105 0
M  V30 27231 N 2601.46 -0.257958 -1.55475 0
M  V30 27232 C 2602.87 0.243103 -1.85111 0
M  V30 27233 C 2603.22 1.56758 -1.17989 0
M  V30 27234 O 2602.34 2.11408 -0.462139 0
M  V30 27235 C 2602.94 0.44787 -3.35827 0
M  V30 27236 C 2601.5 0.893181 -3.65649 0
M  V30 27237 C 2600.64 -0.0233453 -2.7729 0
M  V30 27238 H 2603.59 -0.480225 -1.5126 0
M  V30 27239 H 2603.62 1.28892 -3.58004 0
M  V30 27240 H 2603.13 -0.516264 -3.84651 0
M  V30 27241 H 2601.23 1.86939 -3.22311 0
M  V30 27242 H 2601.34 0.742386 -4.73313 0
M  V30 27243 H 2599.71 0.489977 -2.49943 0
M  V30 27244 H 2600.49 -0.983052 -3.28924 0
M  V30 27245 N 2602.93 1.57593 0.0150108 0
M  V30 27246 C 2604.18 1.90188 0.70401 0
M  V30 27247 C 2604.51 0.857396 1.74248 0
M  V30 27248 O 2603.79 -0.125809 1.94093 0
M  V30 27249 C 2604.07 3.33398 1.36081 0
M  V30 27250 C 2603.92 4.48551 0.334902 0
M  V30 27251 C 2605.24 3.75764 2.29105 0
M  V30 27252 H 2602.36 0.691677 0.254463 0
M  V30 27253 H 2605 1.89971 -0.0332012 0
M  V30 27254 H 2603.15 3.33713 1.98916 0
M  V30 27255 H 2604.83 4.60371 -0.292615 0
M  V30 27256 H 2603.07 4.32431 -0.344401 0
M  V30 27257 H 2603.74 5.45675 0.83322 0
M  V30 27258 H 2606.22 3.76905 1.76301 0
M  V30 27259 H 2605.09 4.76748 2.72035 0
M  V30 27260 H 2605.35 3.08798 3.1638 0
M  V30 27261 N 2604.41 -0.287527 1.54955 0
M  V30 27262 C 2605.66 -1.01874 1.74082 0
M  V30 27263 C 2605.97 -1.87965 0.541168 0
M  V30 27264 O 2607.18 -2.64454 0.614538 0
M  V30 27265 C 2605.64 -1.86107 3.08046 0
M  V30 27266 C 2605.24 -1.04953 4.35533 0
M  V30 27267 C 2606.99 -2.58746 3.36528 0
M  V30 27268 C 2604.9 -1.88541 5.60541 0
M  V30 27269 H 2603.83 -0.384075 0.648847 0
M  V30 27270 H 2606.48 -0.275069 1.81427 0
M  V30 27271 H 2604.86 -2.64513 2.94701 0
M  V30 27272 H 2606.03 -0.310659 4.59752 0
M  V30 27273 H 2604.35 -0.438357 4.14086 0
M  V30 27274 H 2606.94 -3.21661 4.27128 0
M  V30 27275 H 2607.29 -3.28279 2.56005 0
M  V30 27276 H 2607.82 -1.87379 3.50904 0
M  V30 27277 H 2604.56 -1.23455 6.43769 0
M  V30 27278 H 2604.08 -2.60065 5.40487 0
M  V30 27279 H 2605.76 -2.46262 5.98301 0
M  V30 27280 N 2605.89 -1.47641 -0.551365 0
M  V30 27281 C 2606.84 -1.60981 -1.67893 0
M  V30 27282 C 2607.83 -0.476905 -1.62548 0
M  V30 27283 O 2609.04 -0.654907 -1.67663 0
M  V30 27284 H 2605.41 -0.506722 -0.555641 0
M  V30 27285 H 2607.38 -2.55723 -1.53779 0
M  V30 27286 C 2606.13 -1.64674 -3.06232 0
M  V30 27287 H 2605.46 -2.512 -3.11028 0
M  V30 27288 H 2606.9 -1.78056 -3.84801 0
M  V30 27289 C 2605.36 -0.381173 -3.34737 0
M  V30 27290 O 2605.89 0.515226 -3.98382 0
M  V30 27291 N 2604.09 -0.259405 -2.8944 0
M  V30 27292 H 2603.64 -0.989802 -2.37825 0
M  V30 27293 H 2603.6 0.58641 -3.08883 0
M  V30 27294 N 2607.37 0.798563 -1.3587 0
M  V30 27295 C 2608.33 1.89239 -1.2931 0
M  V30 27296 C 2609.33 1.59516 -0.202775 0
M  V30 27297 O 2610.52 1.68099 -0.456986 0
M  V30 27298 C 2607.65 3.25831 -1.00235 0
M  V30 27299 H 2608.85 1.96474 -2.26579 0
M  V30 27300 H 2606.4 0.995336 -1.2051 0
M  V30 27301 H 2607.13 3.24282 -0.033858 0
M  V30 27302 H 2606.92 3.48792 -1.79127 0
M  V30 27303 H 2608.41 4.05883 -0.982261 0
M  V30 27304 N 2608.85 1.19999 1.02166 0
M  V30 27305 C 2610.26 1.00827 1.57133 0
M  V30 27306 C 2610.61 -0.436784 1.91276 0
M  V30 27307 O 2609.73 -1.31737 1.71681 0
M  V30 27308 C 2610.33 1.82398 2.85511 0
M  V30 27309 C 2608.89 1.67607 3.37024 0
M  V30 27310 C 2608.03 1.80648 2.10385 0
M  V30 27311 H 2610.99 1.34265 0.846082 0
M  V30 27312 H 2611.01 1.32435 3.56709 0
M  V30 27313 H 2610.52 2.87566 2.60629 0
M  V30 27314 H 2608.62 0.65055 3.66877 0
M  V30 27315 H 2608.73 2.48578 4.09568 0
M  V30 27316 H 2607.1 1.23782 2.22599 0
M  V30 27317 H 2607.88 2.87289 1.87935 0
M  V30 27318 N 2610.32 -1.21392 1.00507 0
M  V30 27319 C 2611.55 -1.94999 0.706401 0
M  V30 27320 C 2611.97 -1.73583 -0.7246 0
M  V30 27321 O 2611.33 -1.02272 -1.497 0
M  V30 27322 C 2611.38 -3.45486 1.03306 0
M  V30 27323 O 2610.48 -4.12168 0.138347 0
M  V30 27324 H 2609.83 -0.609614 0.263186 0
M  V30 27325 H 2612.36 -1.54149 1.34533 0
M  V30 27326 H 2612.37 -3.96057 0.979942 0
M  V30 27327 H 2611.04 -3.60397 2.07573 0
M  V30 27328 H 2609.62 -3.72074 0.247994 0
M  V30 27329 N 2611.8 -0.779811 -1.36955 0
M  V30 27330 C 2612.75 -0.169737 -2.30175 0
M  V30 27331 C 2613.72 0.680914 -1.51502 0
M  V30 27332 O 2614.9 0.631597 -1.80043 0
M  V30 27333 C 2612.04 0.697071 -3.37987 0
M  V30 27334 C 2611.16 -0.171068 -4.31661 0
M  V30 27335 C 2610.29 0.701206 -5.26552 0
M  V30 27336 C 2609.33 -0.168976 -6.11867 0
M  V30 27337 N 2608.47 0.661732 -6.98975 0
M  V30 27338 H 2613.31 -0.970184 -2.81765 0
M  V30 27339 H 2610.85 -0.490018 -1.38698 0
M  V30 27340 H 2612.8 1.21453 -3.9913 0
M  V30 27341 H 2611.43 1.46304 -2.87741 0
M  V30 27342 H 2610.49 -0.806405 -3.71754 0
M  V30 27343 H 2611.8 -0.841962 -4.91643 0
M  V30 27344 H 2610.95 1.28484 -5.92939 0
M  V30 27345 H 2609.69 1.40576 -4.67001 0
M  V30 27346 H 2608.7 -0.765082 -5.44451 0
M  V30 27347 H 2609.92 -0.870981 -6.73491 0
M  V30 27348 H 2607.87 1.35075 -6.41943 0
M  V30 27349 H 2607.78 0.0483119 -7.55985 0
M  V30 27350 H 2609.05 1.2295 -7.69743 0
M  V30 27351 N 2613.28 1.48384 -0.531019 0
M  V30 27352 C 2614.51 2.069 -0.00137759 0
M  V30 27353 C 2614.92 1.38742 1.28047 0
M  V30 27354 O 2614.28 0.475275 1.76203 0
M  V30 27355 C 2614.33 3.60798 0.225192 0
M  V30 27356 O 2614.05 4.26396 -1.00587 0
M  V30 27357 C 2615.55 4.36111 0.795096 0
M  V30 27358 H 2612.77 0.670139 -0.0339822 0
M  V30 27359 H 2615.32 1.90759 -0.736959 0
M  V30 27360 H 2613.47 3.7654 0.910825 0
M  V30 27361 H 2613.89 5.18558 -0.787256 0
M  V30 27362 H 2615.36 5.44563 0.903047 0
M  V30 27363 H 2615.84 4.0061 1.80024 0
M  V30 27364 H 2616.44 4.25049 0.145995 0
M  V30 27365 N 2614.76 0.2662 1.55336 0
M  V30 27366 C 2615.71 -0.625126 2.22173 0
M  V30 27367 C 2616.68 -1.15661 1.19213 0
M  V30 27368 O 2617.86 -1.20755 1.47726 0
M  V30 27369 C 2615 -1.80755 2.93975 0
M  V30 27370 C 2614.11 -1.31077 4.11634 0
M  V30 27371 C 2613.25 -2.45428 4.71104 0
M  V30 27372 C 2612.29 -1.92708 5.80973 0
M  V30 27373 N 2611.42 -3.00498 6.34543 0
M  V30 27374 H 2616.26 -0.0485058 2.97961 0
M  V30 27375 H 2613.8 -0.0121766 1.47095 0
M  V30 27376 H 2615.76 -2.50245 3.33816 0
M  V30 27377 H 2614.39 -2.35634 2.20627 0
M  V30 27378 H 2613.44 -0.509259 3.76976 0
M  V30 27379 H 2614.75 -0.884547 4.90894 0
M  V30 27380 H 2613.91 -3.22927 5.13617 0
M  V30 27381 H 2612.65 -2.91361 3.91101 0
M  V30 27382 H 2611.65 -1.13685 5.37918 0
M  V30 27383 H 2612.88 -1.47721 6.62839 0
M  V30 27384 H 2610.82 -3.4583 5.57439 0
M  V30 27385 H 2610.74 -2.62266 7.0905 0
M  V30 27386 H 2612.01 -3.77999 6.81716 0
M  V30 27387 N 2616.24 -1.57599 -0.0066531 0
M  V30 27388 C 2617.17 -2.11038 -0.999259 0
M  V30 27389 C 2618.15 -1.01798 -1.36276 0
M  V30 27390 O 2619.33 -1.29445 -1.44768 0
M  V30 27391 C 2616.46 -2.60822 -2.29323 0
M  V30 27392 C 2615.42 -3.74529 -2.07153 0
M  V30 27393 C 2614.74 -4.10602 -3.42505 0
M  V30 27394 C 2616.04 -5.02071 -1.4395 0
M  V30 27395 H 2617.74 -2.94224 -0.55433 0
M  V30 27396 H 2615.28 -1.41537 -0.265197 0
M  V30 27397 H 2617.24 -2.96833 -2.99112 0
M  V30 27398 H 2615.96 -1.7475 -2.75917 0
M  V30 27399 H 2614.62 -3.38901 -1.39791 0
M  V30 27400 H 2614.27 -3.21563 -3.8679 0
M  V30 27401 H 2613.97 -4.87205 -3.28489 0
M  V30 27402 H 2615.49 -4.49167 -4.1362 0
M  V30 27403 H 2616.9 -5.35896 -2.03686 0
M  V30 27404 H 2615.3 -5.83435 -1.40442 0
M  V30 27405 H 2616.37 -4.83181 -0.407908 0
M  V30 27406 N 2617.72 0.279305 -1.55105 0
M  V30 27407 C 2618.63 1.36724 -1.9064 0
M  V30 27408 C 2619.64 1.54367 -0.802926 0
M  V30 27409 O 2620.82 1.68615 -1.10141 0
M  V30 27410 C 2617.88 2.70751 -2.16552 0
M  V30 27411 C 2616.94 2.61909 -3.40151 0
M  V30 27412 C 2616.18 3.89544 -3.64817 0
M  V30 27413 O 2616.4 4.8993 -2.92103 0
M  V30 27414 O 2615.33 3.90127 -4.5835 0
M  V30 27415 H 2619.16 1.09586 -2.83239 0
M  V30 27416 H 2616.74 0.477281 -1.41571 0
M  V30 27417 H 2618.63 3.5001 -2.34671 0
M  V30 27418 H 2617.3 2.97688 -1.27136 0
M  V30 27419 H 2616.21 1.81046 -3.27373 0
M  V30 27420 H 2617.54 2.39922 -4.29765 0
M  V30 27421 N 2619.19 1.47931 0.543528 0
M  V30 27422 C 2620.6 1.48955 1.12558 0
M  V30 27423 C 2620.96 0.251788 1.94578 0
M  V30 27424 O 2620.08 -0.642219 2.06651 0
M  V30 27425 C 2620.68 2.69896 2.04797 0
M  V30 27426 C 2619.23 2.73835 2.58246 0
M  V30 27427 C 2618.38 2.42268 1.34914 0
M  V30 27428 H 2621.33 1.55243 0.329443 0
M  V30 27429 H 2621.35 2.47644 2.88882 0
M  V30 27430 H 2620.87 3.59965 1.45074 0
M  V30 27431 H 2618.97 1.8794 3.21729 0
M  V30 27432 H 2619.08 3.74901 2.98306 0
M  V30 27433 H 2617.44 1.93137 1.66043 0
M  V30 27434 H 2618.23 3.34562 0.769634 0
M  V30 27435 N 2620.67 -0.791347 1.36292 0
M  V30 27436 C 2621.9 -1.58529 1.33729 0
M  V30 27437 C 2622.32 -1.87932 -0.0794603 0
M  V30 27438 O 2621.68 -1.4774 -1.05084 0
M  V30 27439 C 2621.73 -2.88427 2.1643 0
M  V30 27440 O 2620.83 -3.81941 1.55547 0
M  V30 27441 H 2620.17 -0.480951 0.457802 0
M  V30 27442 H 2622.7 -0.980999 1.79548 0
M  V30 27443 H 2622.71 -3.37714 2.28939 0
M  V30 27444 H 2621.39 -2.66353 3.1942 0
M  V30 27445 H 2619.96 -3.4053 1.51967 0
M  V30 27446 N 2622.15 -1.2054 -1.01528 0
M  V30 27447 C 2623.11 -0.957134 -2.08258 0
M  V30 27448 C 2624.11 0.0678373 -1.60657 0
M  V30 27449 O 2625.3 -0.168363 -1.73384 0
M  V30 27450 C 2622.43 -0.441247 -3.38032 0
M  V30 27451 H 2623.63 -1.90388 -2.31716 0
M  V30 27452 H 2621.18 -1.02095 -1.18348 0
M  V30 27453 H 2621.92 0.510905 -3.2025 0
M  V30 27454 H 2621.7 -1.18044 -3.73909 0
M  V30 27455 H 2623.19 -0.287083 -4.16612 0
M  V30 27456 N 2623.63 1.20858 -1.01149 0
M  V30 27457 C 2624.87 1.90094 -0.697898 0
M  V30 27458 C 2625.2 1.78524 0.771982 0
M  V30 27459 O 2624.46 1.1603 1.57593 0
M  V30 27460 C 2624.76 3.4092 -1.07276 0
M  V30 27461 C 2624.42 3.72689 -2.53799 0
M  V30 27462 C 2623.08 3.8107 -2.93835 0
M  V30 27463 C 2625.44 3.8739 -3.4868 0
M  V30 27464 C 2622.76 4.01606 -4.27703 0
M  V30 27465 C 2625.12 4.09435 -4.8223 0
M  V30 27466 C 2623.78 4.16045 -5.2198 0
M  V30 27467 H 2623.05 0.695602 -0.255379 0
M  V30 27468 H 2625.7 1.43229 -1.27113 0
M  V30 27469 H 2624 3.89565 -0.417867 0
M  V30 27470 H 2625.7 3.92778 -0.807887 0
M  V30 27471 H 2622.29 3.66761 -2.21775 0
M  V30 27472 H 2626.47 3.80276 -3.18911 0
M  V30 27473 H 2621.73 4.04956 -4.58062 0
M  V30 27474 H 2625.9 4.19753 -5.5568 0
M  V30 27475 H 2623.53 4.3171 -6.25724 0
M  V30 27476 N 2625.11 0.787064 1.3654 0
M  V30 27477 C 2626.06 0.156997 2.27459 0
M  V30 27478 C 2627.04 -0.657684 1.46845 0
M  V30 27479 O 2628.23 -0.518143 1.69246 0
M  V30 27480 C 2625.36 -0.709219 3.35894 0
M  V30 27481 C 2624.45 0.114123 4.23946 0
M  V30 27482 N 2624.84 1.16745 4.92142 0
M  V30 27483 C 2623.14 -0.107419 4.45871 0
M  V30 27484 C 2623.84 1.66847 5.57258 0
M  V30 27485 N 2622.81 0.978086 5.34728 0
M  V30 27486 H 2626.61 0.963234 2.77667 0
M  V30 27487 H 2624.13 0.626296 1.49838 0
M  V30 27488 H 2626.13 -1.17649 3.99955 0
M  V30 27489 H 2624.79 -1.51403 2.87241 0
M  V30 27490 H 2625.8 1.54985 4.94166 0
M  V30 27491 H 2622.47 -0.882922 4.08057 0
M  V30 27492 H 2623.86 2.54773 6.21724 0
M  V30 27493 N 2626.58 -1.48101 0.53888 0
M  V30 27494 C 2627.81 -2.06596 0.0123321 0
M  V30 27495 C 2628.22 -1.39459 -1.27859 0
M  V30 27496 O 2627.56 -0.478938 -1.77347 0
M  V30 27497 C 2627.63 -3.58461 -0.273068 0
M  V30 27498 C 2627.29 -4.47527 0.925689 0
M  V30 27499 C 2628.29 -4.86761 1.82646 0
M  V30 27500 C 2625.97 -4.89304 1.1352 0
M  V30 27501 C 2627.97 -5.66552 2.92057 0
M  V30 27502 C 2625.65 -5.68864 2.23243 0
M  V30 27503 C 2626.65 -6.07397 3.12343 0
M  V30 27504 O 2626.34 -6.85357 4.20167 0
M  V30 27505 H 2626.07 -0.675122 0.0344402 0
M  V30 27506 H 2628.63 -1.91353 0.746527 0
M  V30 27507 H 2626.86 -3.7185 -1.06135 0
M  V30 27508 H 2628.54 -3.99046 -0.742772 0
M  V30 27509 H 2629.31 -4.551 1.67657 0
M  V30 27510 H 2625.19 -4.58789 0.450915 0
M  V30 27511 H 2628.73 -5.96548 3.6163 0
M  V30 27512 H 2624.63 -5.99938 2.38211 0
M  V30 27513 H 2625.4 -7.03725 4.17987 0
M  V30 27514 N 2628.06 -0.274434 -1.55192 0
M  V30 27515 C 2629.31 0.343051 -1.99877 0
M  V30 27516 C 2629.64 1.55555 -1.16259 0
M  V30 27517 O 2628.92 1.93105 -0.232496 0
M  V30 27518 C 2629.2 0.725903 -3.52708 0
M  V30 27519 C 2629.05 -0.493896 -4.4708 0
M  V30 27520 C 2630.37 1.5626 -4.11425 0
M  V30 27521 H 2627.49 0.123216 -0.726627 0
M  V30 27522 H 2630.13 -0.381243 -1.86136 0
M  V30 27523 H 2628.28 1.34301 -3.64548 0
M  V30 27524 H 2629.95 -1.13245 -4.47184 0
M  V30 27525 H 2628.2 -1.13208 -4.18768 0
M  V30 27526 H 2628.87 -0.182267 -5.51699 0
M  V30 27527 H 2631.34 1.04144 -4.02856 0
M  V30 27528 H 2630.22 1.7993 -5.18572 0
M  V30 27529 H 2630.48 2.54341 -3.61611 0
M  V30 27530 N 2629.54 1.576 -0.00170483 0
M  V30 27531 C 2630.79 1.90642 0.682786 0
M  V30 27532 C 2631.11 0.875446 1.73684 0
M  V30 27533 O 2630.37 -0.119541 1.95335 0
M  V30 27534 C 2630.67 3.30438 1.36183 0
M  V30 27535 C 2630.33 4.4874 0.440808 0
M  V30 27536 C 2629 4.80836 0.187227 0
M  V30 27537 C 2631.35 5.20842 -0.193226 0
M  V30 27538 C 2628.68 5.82405 -0.708652 0
M  V30 27539 C 2631.03 6.23365 -1.07699 0
M  V30 27540 C 2629.69 6.53917 -1.33973 0
M  V30 27541 H 2628.96 0.697608 0.249849 0
M  V30 27542 H 2631.61 1.91413 -0.0575979 0
M  V30 27543 H 2629.91 3.25798 2.1763 0
M  V30 27544 H 2631.61 3.53263 1.89753 0
M  V30 27545 H 2628.2 4.23664 0.64862 0
M  V30 27546 H 2632.39 4.96299 -0.0103317 0
M  V30 27547 H 2627.64 6.04435 -0.920204 0
M  V30 27548 H 2631.82 6.78365 -1.57463 0
M  V30 27549 H 2629.44 7.32439 -2.03562 0
M  V30 27550 N 2631.02 -0.271076 1.55251 0
M  V30 27551 C 2631.93 -1.35711 1.91363 0
M  V30 27552 C 2632.94 -1.53939 0.811102 0
M  V30 27553 O 2634.12 -1.68028 1.11034 0
M  V30 27554 C 2631.18 -2.69599 2.17985 0
M  V30 27555 C 2630.25 -2.60101 3.41535 0
M  V30 27556 C 2629.48 -3.87604 3.66878 0
M  V30 27557 O 2629.7 -4.88374 2.94698 0
M  V30 27558 O 2628.64 -3.87691 4.60412 0
M  V30 27559 H 2632.46 -1.08083 2.83817 0
M  V30 27560 H 2630.05 -0.469767 1.41822 0
M  V30 27561 H 2631.93 -3.48761 2.36524 0
M  V30 27562 H 2630.6 -2.97009 1.28713 0
M  V30 27563 H 2629.51 -1.79308 3.28328 0
M  V30 27564 H 2630.84 -2.3764 4.31032 0
M  V30 27565 N 2632.5 -1.48217 -0.535675 0
M  V30 27566 C 2633.74 -1.55636 -1.28925 0
M  V30 27567 C 2634.07 -0.229548 -1.93644 0
M  V30 27568 O 2633.34 0.748428 -1.8104 0
M  V30 27569 H 2631.92 -0.573351 -0.47883 0
M  V30 27570 H 2634.58 -1.84647 -0.623821 0
M  V30 27571 H 2633.67 -2.3344 -2.07153 0
M  V30 27572 N 2633.97 0.784108 -1.3671 0
M  V30 27573 C 2635.22 1.54449 -1.31429 0
M  V30 27574 C 2635.55 1.93917 0.104726 0
M  V30 27575 O 2634.83 1.63122 1.05931 0
M  V30 27576 C 2635.11 2.81796 -2.24194 0
M  V30 27577 C 2634.96 2.4866 -3.74817 0
M  V30 27578 C 2636.28 3.83654 -2.15633 0
M  V30 27579 H 2633.4 0.560329 -0.478749 0
M  V30 27580 H 2636.04 0.900468 -1.67307 0
M  V30 27581 H 2634.19 3.36752 -1.93728 0
M  V30 27582 H 2635.87 1.99714 -4.15827 0
M  V30 27583 H 2634.11 1.81528 -3.93992 0
M  V30 27584 H 2634.78 3.39638 -4.35144 0
M  V30 27585 H 2637.26 3.38159 -2.42461 0
M  V30 27586 H 2636.13 4.70501 -2.82702 0
M  V30 27587 H 2636.39 4.27007 -1.1453 0
M  V30 27588 N 2635.45 1.21076 1.00888 0
M  V30 27589 C 2636.4 0.966548 2.09586 0
M  V30 27590 C 2637.37 -0.10606 1.65761 0
M  V30 27591 O 2638.55 0.0402623 1.90758 0
M  V30 27592 C 2635.69 0.533118 3.40957 0
M  V30 27593 C 2634.81 1.67474 3.98217 0
M  V30 27594 C 2633.94 1.19085 5.1768 0
M  V30 27595 C 2632.98 2.30506 5.67039 0
M  V30 27596 N 2632.12 1.83279 6.77756 0
M  V30 27597 H 2636.96 1.89712 2.29812 0
M  V30 27598 H 2634.5 0.945509 1.12688 0
M  V30 27599 H 2636.45 0.263093 4.1637 0
M  V30 27600 H 2635.08 -0.360449 3.20781 0
M  V30 27601 H 2634.14 2.05949 3.19827 0
M  V30 27602 H 2635.45 2.51343 4.30846 0
M  V30 27603 H 2634.6 0.877256 6.00324 0
M  V30 27604 H 2633.34 0.322151 4.86635 0
M  V30 27605 H 2632.35 2.62673 4.82994 0
M  V30 27606 H 2633.57 3.17865 6.00115 0
M  V30 27607 H 2631.52 0.98747 6.48525 0
M  V30 27608 H 2631.43 2.60724 7.09619 0
M  V30 27609 H 2632.7 1.54942 7.63946 0
M  V30 27610 N 2636.93 -1.2032 1.01789 0
M  V30 27611 C 2637.84 -2.26826 0.598938 0
M  V30 27612 C 2638.86 -1.70147 -0.36415 0
M  V30 27613 O 2640.03 -2.00142 -0.224777 0
M  V30 27614 C 2637.1 -3.46657 -0.054916 0
M  V30 27615 C 2636.16 -4.18559 0.954279 0
M  V30 27616 C 2635.39 -5.32669 0.331533 0
M  V30 27617 O 2635.61 -5.63751 -0.868411 0
M  V30 27618 O 2634.55 -5.9269 1.0489 0
M  V30 27619 H 2638.37 -2.6488 1.48567 0
M  V30 27620 H 2635.96 -1.26963 0.787456 0
M  V30 27621 H 2637.84 -4.19301 -0.420028 0
M  V30 27622 H 2636.52 -3.10474 -0.915822 0
M  V30 27623 H 2635.42 -3.48081 1.37078 0
M  V30 27624 H 2636.76 -4.58685 1.78519 0
M  V30 27625 N 2638.41 -0.794293 -1.3612 0
M  V30 27626 C 2639.82 -0.431478 -1.81646 0
M  V30 27627 C 2640.17 1.04515 -1.66045 0
M  V30 27628 O 2639.3 1.81128 -1.18414 0
M  V30 27629 C 2639.89 -0.776399 -3.29784 0
M  V30 27630 C 2638.45 -0.466348 -3.735 0
M  V30 27631 C 2637.6 -1.00849 -2.58312 0
M  V30 27632 H 2640.55 -0.987017 -1.24273 0
M  V30 27633 H 2640.57 -0.0693082 -3.80437 0
M  V30 27634 H 2640.08 -1.85116 -3.41106 0
M  V30 27635 H 2638.18 0.600181 -3.67734 0
M  V30 27636 H 2638.29 -0.990371 -4.68752 0
M  V30 27637 H 2636.66 -0.43145 -2.51019 0
M  V30 27638 H 2637.44 -2.08911 -2.72417 0
M  V30 27639 N 2639.89 1.47813 -0.546727 0
M  V30 27640 C 2640.85 2.28358 0.196247 0
M  V30 27641 C 2641.85 1.36347 0.852413 0
M  V30 27642 O 2643.04 1.59079 0.709885 0
M  V30 27643 C 2640.17 3.15724 1.28574 0
M  V30 27644 H 2641.36 2.95512 -0.511138 0
M  V30 27645 H 2638.92 1.53329 -0.303275 0
M  V30 27646 H 2639.65 2.53238 2.02585 0
M  V30 27647 H 2639.44 3.83426 0.820161 0
M  V30 27648 H 2640.93 3.76438 1.80787 0
M  V30 27649 N 2641.36 0.28266 1.55044 0
M  V30 27650 C 2642.61 -0.332446 2.00057 0
M  V30 27651 C 2642.94 -1.54937 1.17082 0
M  V30 27652 O 2642.22 -1.92979 0.242734 0
M  V30 27653 C 2642.5 -0.707188 3.53088 0
M  V30 27654 C 2642.35 0.517599 4.46812 0
M  V30 27655 C 2643.67 -1.54076 4.12248 0
M  V30 27656 H 2640.79 -0.119361 0.72727 0
M  V30 27657 H 2643.43 0.391108 1.85931 0
M  V30 27658 H 2641.58 -1.32366 3.65256 0
M  V30 27659 H 2643.26 1.15615 4.46577 0
M  V30 27660 H 2641.5 1.15427 4.18161 0
M  V30 27661 H 2642.17 0.211523 5.51595 0
M  V30 27662 H 2644.65 -1.02006 4.03403 0
M  V30 27663 H 2643.52 -1.77177 5.19519 0
M  V30 27664 H 2643.78 -2.5242 3.62955 0
M  V30 27665 N 2642.84 -1.57597 0.0100627 0
M  V30 27666 C 2643.77 -2.12086 -0.97682 0
M  V30 27667 C 2644.75 -1.03237 -1.35189 0
M  V30 27668 O 2645.94 -1.30973 -1.43387 0
M  V30 27669 C 2643.07 -2.6324 -2.26544 0
M  V30 27670 C 2642.02 -3.76705 -2.03169 0
M  V30 27671 C 2641.35 -4.14212 -3.38131 0
M  V30 27672 C 2642.65 -5.0357 -1.38617 0
M  V30 27673 H 2644.34 -2.94795 -0.523093 0
M  V30 27674 H 2641.89 -1.4181 -0.25017 0
M  V30 27675 H 2643.84 -2.99989 -2.95947 0
M  V30 27676 H 2642.57 -1.77666 -2.74048 0
M  V30 27677 H 2641.22 -3.40365 -1.36189 0
M  V30 27678 H 2640.87 -3.25647 -3.83357 0
M  V30 27679 H 2640.57 -4.90662 -3.23303 0
M  V30 27680 H 2642.1 -4.53529 -4.08833 0
M  V30 27681 H 2643.51 -5.38026 -1.97991 0
M  V30 27682 H 2641.91 -5.84891 -1.34246 0
M  V30 27683 H 2642.98 -4.83587 -0.356637 0
M  V30 27684 N 2644.32 0.262839 -1.55393 0
M  V30 27685 C 2645.55 1.01105 -1.80514 0
M  V30 27686 C 2645.96 1.79555 -0.583565 0
M  V30 27687 O 2645.32 1.76927 0.447554 0
M  V30 27688 C 2645.37 1.96159 -3.03651 0
M  V30 27689 O 2645.09 1.20886 -4.21092 0
M  V30 27690 C 2646.59 2.82709 -3.41453 0
M  V30 27691 H 2643.81 0.298225 -0.601085 0
M  V30 27692 H 2646.36 0.290546 -2.02425 0
M  V30 27693 H 2644.51 2.63658 -2.83837 0
M  V30 27694 H 2644.93 1.85042 -4.90775 0
M  V30 27695 H 2646.4 3.45184 -4.30757 0
M  V30 27696 H 2646.88 3.53004 -2.61314 0
M  V30 27697 H 2647.48 2.20686 -3.63562 0
M  V30 27698 N 2645.8 1.48499 0.527807 0
M  V30 27699 C 2646.75 1.63183 1.63217 0
M  V30 27700 C 2647.72 0.473843 1.59198 0
M  V30 27701 O 2648.9 0.697594 1.7759 0
M  V30 27702 C 2646.04 1.67956 3.01471 0
M  V30 27703 C 2645.15 2.94877 3.15708 0
M  V30 27704 C 2644.29 2.90797 4.44534 0
M  V30 27705 C 2643.33 4.12412 4.52308 0
M  V30 27706 N 2642.46 4.06397 5.72526 0
M  V30 27707 H 2647.3 2.57492 1.50006 0
M  V30 27708 H 2644.84 1.27693 0.730275 0
M  V30 27709 H 2646.8 1.68705 3.81569 0
M  V30 27710 H 2645.43 0.771361 3.13448 0
M  V30 27711 H 2644.48 3.03863 2.28849 0
M  V30 27712 H 2645.79 3.84855 3.17313 0
M  V30 27713 H 2644.95 2.89959 5.32925 0
M  V30 27714 H 2643.69 1.9855 4.45454 0
M  V30 27715 H 2642.69 4.13523 3.62324 0
M  V30 27716 H 2643.92 5.0582 4.53125 0
M  V30 27717 H 2641.86 3.16972 5.74338 0
M  V30 27718 H 2641.78 4.90083 5.75634 0
M  V30 27719 H 2643.05 4.09621 6.63197 0
M  V30 27720 N 2647.28 -0.776847 1.37123 0
M  V30 27721 C 2648.5 -1.57102 1.35403 0
M  V30 27722 C 2648.93 -1.88006 -0.0595231 0
M  V30 27723 O 2648.29 -1.48846 -1.03511 0
M  V30 27724 C 2648.33 -2.86116 2.19477 0
M  V30 27725 O 2647.44 -3.8027 1.59589 0
M  V30 27726 H 2646.78 -0.476068 0.462877 0
M  V30 27727 H 2649.31 -0.9619 1.80579 0
M  V30 27728 H 2649.32 -3.35267 2.32508 0
M  V30 27729 H 2647.99 -2.6295 3.22227 0
M  V30 27730 H 2646.57 -3.38899 1.5557 0
M  V30 27731 N 2648.76 -1.2161 -1.00244 0
M  V30 27732 C 2650.03 -0.943599 -1.71335 0
M  V30 27733 C 2650.41 0.543907 -2.03973 0
M  V30 27734 O 2649.76 1.50943 -1.71547 0
M  V30 27735 C 2649.97 -1.83133 -2.97091 0
M  V30 27736 C 2651.32 -2.08171 -3.70067 0
M  V30 27737 O 2652.34 -1.80503 -3.07078 0
M  V30 27738 O 2651.2 -2.54979 -4.83371 0
M  V30 27739 H 2648.3 -0.354052 -0.74738 0
M  V30 27740 H 2650.84 -1.32551 -1.05964 0
M  V30 27741 H 2649.61 -2.83793 -2.69402 0
M  V30 27742 H 2649.24 -1.4504 -3.70201 0
M  V30 27743 N 2650.23 1.19778 -1.02425 0
M  V30 27744 C 2651.64 1.71043 -0.748419 0
M  V30 27745 C 2652 1.82019 0.732366 0
M  V30 27746 O 2651.12 1.48809 1.57114 0
M  V30 27747 C 2651.72 3.10658 -1.35193 0
M  V30 27748 C 2650.27 3.59201 -1.12478 0
M  V30 27749 C 2649.42 2.36193 -1.45287 0
M  V30 27750 H 2652.37 1.04684 -1.19277 0
M  V30 27751 H 2652.39 3.73106 -0.746473 0
M  V30 27752 H 2651.91 3.02637 -2.42966 0
M  V30 27753 H 2650.01 3.72543 -0.0650637 0
M  V30 27754 H 2650.12 4.43585 -1.81023 0
M  V30 27755 H 2648.48 2.39305 -0.872076 0
M  V30 27756 H 2649.27 2.30806 -2.54133 0
M  V30 27757 N 2651.71 0.801501 1.35697 0
M  V30 27758 C 2653.13 0.484623 1.52064 0
M  V30 27759 C 2653.33 -0.995053 1.75217 0
M  V30 27760 O 2652.38 -1.78023 1.79065 0
M  V30 27761 C 2653.7 1.32557 2.69906 0
M  V30 27762 C 2655.24 1.32049 2.83782 0
M  V30 27763 C 2655.72 2.14544 4.04642 0
M  V30 27764 N 2657.21 2.12053 4.1181 0
M  V30 27765 C 2657.95 2.72645 5.04433 0
M  V30 27766 N 2657.44 3.42144 6.0242 0
M  V30 27767 N 2659.23 2.62314 4.9714 0
M  V30 27768 H 2651.39 1.75985 1.18925 0
M  V30 27769 H 2653.65 0.748752 0.581442 0
M  V30 27770 H 2653.35 2.37541 2.59359 0
M  V30 27771 H 2653.23 0.975245 3.64375 0
M  V30 27772 H 2655.62 0.278511 2.93783 0
M  V30 27773 H 2655.7 1.71065 1.90185 0
M  V30 27774 H 2655.34 3.18779 3.95402 0
M  V30 27775 H 2655.27 1.72891 4.9741 0
M  V30 27776 H 2657.76 1.61482 3.41661 0
M  V30 27777 H 2658.07 3.85677 6.69681 0
M  V30 27778 H 2656.42 3.46248 6.02609 0
M  V30 27779 H 2659.61 2.0761 4.19542 0
M  V30 27780 H 2659.78 3.09825 5.69133 0
M  V30 27781 N 2653.19 -1.47521 0.554558 0
M  V30 27782 C 2654.12 -2.32782 -0.182933 0
M  V30 27783 C 2655.1 -1.43626 -0.911352 0
M  V30 27784 O 2656.29 -1.72485 -0.892336 0
M  V30 27785 C 2653.42 -3.25351 -1.21507 0
M  V30 27786 C 2652.37 -4.23727 -0.603281 0
M  V30 27787 C 2651.7 -5.05602 -1.73986 0
M  V30 27788 C 2653 -5.20433 0.441212 0
M  V30 27789 H 2654.69 -2.94692 0.528872 0
M  V30 27790 H 2652.24 -1.4171 0.255784 0
M  V30 27791 H 2654.19 -3.83838 -1.73915 0
M  V30 27792 H 2652.91 -2.61491 -1.95679 0
M  V30 27793 H 2651.57 -3.66462 -0.100525 0
M  V30 27794 H 2651.22 -4.38147 -2.47055 0
M  V30 27795 H 2650.92 -5.72203 -1.3363 0
M  V30 27796 H 2652.44 -5.66946 -2.26725 0
M  V30 27797 H 2653.86 -5.733 0.00330008 0
M  V30 27798 H 2652.25 -5.95223 0.763506 0
M  V30 27799 H 2653.32 -4.66073 1.33807 0
M  V30 27800 N 2654.67 -0.290879 -1.54892 0
M  V30 27801 C 2655.61 0.589701 -2.23139 0
M  V30 27802 C 2656.58 1.1375 -1.21038 0
M  V30 27803 O 2657.77 1.1839 -1.49628 0
M  V30 27804 C 2654.91 1.76055 -2.96814 0
M  V30 27805 C 2654.02 1.24511 -4.13668 0
M  V30 27806 C 2653.16 2.37902 -4.74948 0
M  V30 27807 C 2652.2 1.8344 -5.83966 0
M  V30 27808 N 2651.33 2.90365 -6.39244 0
M  V30 27809 H 2656.17 0.00109677 -2.98 0
M  V30 27810 H 2653.71 -0.0112265 -1.47096 0
M  V30 27811 H 2655.67 2.44903 -3.37755 0
M  V30 27812 H 2654.3 2.32094 -2.24348 0
M  V30 27813 H 2653.35 0.449221 -3.77738 0
M  V30 27814 H 2654.66 0.806338 -4.92239 0
M  V30 27815 H 2653.82 3.14715 -5.1869 0
M  V30 27816 H 2652.56 2.85102 -3.95687 0
M  V30 27817 H 2651.56 1.05113 -5.39659 0
M  V30 27818 H 2652.79 1.37157 -6.65105 0
M  V30 27819 H 2650.73 3.36918 -5.6287 0
M  V30 27820 H 2650.65 2.50953 -7.13133 0
M  V30 27821 H 2651.92 3.67106 -6.87643 0
M  V30 27822 N 2656.15 1.57589 -0.0184203 0
M  V30 27823 C 2657.37 1.95648 0.673012 0
M  V30 27824 C 2657.79 0.894341 1.66274 0
M  V30 27825 O 2657.15 -0.124943 1.82072 0
M  V30 27826 C 2657.2 3.33759 1.38878 0
M  V30 27827 O 2656.92 4.35898 0.438729 0
M  V30 27828 C 2658.42 3.86386 2.17303 0
M  V30 27829 H 2655.64 0.644624 0.18628 0
M  V30 27830 H 2658.18 2.04362 -0.0750107 0
M  V30 27831 H 2656.34 3.26296 2.08829 0
M  V30 27832 H 2656.75 5.15902 0.945778 0
M  V30 27833 H 2658.23 4.85398 2.62854 0
M  V30 27834 H 2658.7 3.20064 3.00759 0
M  V30 27835 H 2659.31 3.97083 1.52332 0
M  V30 27836 N 2657.62 -0.254594 1.5553 0
M  V30 27837 C 2658.9 -1.00608 1.67742 0
M  V30 27838 C 2659.28 -2.03646 0.556029 0
M  V30 27839 O 2658.63 -2.24193 -0.441544 0
M  V30 27840 C 2658.84 -1.64635 3.07728 0
M  V30 27841 C 2660.19 -2.15109 3.66078 0
M  V30 27842 O 2661.21 -1.74589 3.10479 0
M  V30 27843 O 2660.07 -2.89485 4.63531 0
M  V30 27844 H 2657.16 -0.467816 0.681966 0
M  V30 27845 H 2659.71 -0.24899 1.67863 0
M  V30 27846 H 2658.48 -0.900667 3.80793 0
M  V30 27847 H 2658.1 -2.46984 3.11584 0
M  V30 27848 N 2659.1 -1.48777 -0.519925 0
M  V30 27849 C 2660.35 -1.57306 -1.27519 0
M  V30 27850 C 2660.68 -0.251362 -1.92869 0
M  V30 27851 O 2659.93 0.759212 -1.80373 0
M  V30 27852 C 2660.23 -2.66754 -2.37859 0
M  V30 27853 C 2659.9 -4.0887 -1.90095 0
M  V30 27854 C 2658.56 -4.47549 -1.76787 0
M  V30 27855 C 2660.91 -4.97891 -1.54124 0
M  V30 27856 C 2658.24 -5.73042 -1.25858 0
M  V30 27857 C 2660.59 -6.23883 -1.04654 0
M  V30 27858 C 2659.25 -6.61409 -0.899707 0
M  V30 27859 H 2658.52 -0.575622 -0.466626 0
M  V30 27860 H 2661.17 -1.82535 -0.579077 0
M  V30 27861 H 2659.48 -2.35423 -3.13182 0
M  V30 27862 H 2661.17 -2.70566 -2.95964 0
M  V30 27863 H 2657.76 -3.78329 -2.01407 0
M  V30 27864 H 2661.95 -4.68678 -1.63261 0
M  V30 27865 H 2657.2 -6.00832 -1.13185 0
M  V30 27866 H 2661.38 -6.92252 -0.758952 0
M  V30 27867 H 2659 -7.58535 -0.502878 0
M  V30 27868 N 2660.58 0.769564 -1.37534 0
M  V30 27869 C 2661.49 1.91391 -1.35671 0
M  V30 27870 C 2662.51 1.72107 -0.255985 0
M  V30 27871 O 2663.68 1.95305 -0.491739 0
M  V30 27872 C 2660.75 3.26545 -1.16487 0
M  V30 27873 C 2659.81 3.58468 -2.36219 0
M  V30 27874 C 2659.04 4.87173 -2.1794 0
M  V30 27875 O 2659.26 5.5838 -1.1648 0
M  V30 27876 O 2658.2 5.18208 -3.06176 0
M  V30 27877 H 2662.02 1.95914 -2.32059 0
M  V30 27878 H 2659.61 0.912621 -1.18286 0
M  V30 27879 H 2661.49 4.07382 -1.07785 0
M  V30 27880 H 2660.17 3.22869 -0.231744 0
M  V30 27881 H 2659.07 2.77856 -2.50493 0
M  V30 27882 H 2660.41 3.66889 -3.28106 0
M  V30 27883 N 2662.06 1.22139 0.995977 0
M  V30 27884 C 2662.97 1.005 2.11983 0
M  V30 27885 C 2663.98 -0.0457395 1.7394 0
M  V30 27886 O 2665.16 0.146309 2.00868 0
M  V30 27887 C 2662.23 0.582146 3.41778 0
M  V30 27888 C 2661.29 1.70615 3.9394 0
M  V30 27889 C 2660.52 1.30337 5.1754 0
M  V30 27890 O 2660.74 0.180843 5.70113 0
M  V30 27891 O 2659.68 2.1187 5.63378 0
M  V30 27892 H 2663.5 1.94651 2.3312 0
M  V30 27893 H 2661.09 1.00707 1.10356 0
M  V30 27894 H 2662.97 0.356541 4.19889 0
M  V30 27895 H 2661.64 -0.330536 3.22008 0
M  V30 27896 H 2660.55 1.98625 3.17016 0
M  V30 27897 H 2661.88 2.59658 4.18137 0
M  V30 27898 N 2663.54 -1.19233 1.03059 0
M  V30 27899 C 2664.5 -2.20726 0.617457 0
M  V30 27900 C 2665.5 -1.57587 -0.319829 0
M  V30 27901 O 2666.69 -1.73874 -0.106603 0
M  V30 27902 C 2663.82 -3.40764 -0.0962361 0
M  V30 27903 H 2665.01 -2.58791 1.51549 0
M  V30 27904 H 2662.57 -1.32941 0.821973 0
M  V30 27905 H 2663.3 -3.08219 -1.00854 0
M  V30 27906 H 2663.09 -3.87827 0.577285 0
M  V30 27907 H 2664.58 -4.15938 -0.372146 0
M  V30 27908 N 2665.01 -0.808686 -1.3527 0
M  V30 27909 C 2666.26 -0.386518 -1.97962 0
M  V30 27910 C 2666.58 1.05252 -1.64868 0
M  V30 27911 O 2667.78 1.5779 -2.2094 0
M  V30 27912 C 2666.24 -0.640158 -3.54161 0
M  V30 27913 C 2665.85 -2.09187 -3.96162 0
M  V30 27914 C 2667.59 -0.283451 -4.23553 0
M  V30 27915 C 2665.5 -2.29115 -5.45216 0
M  V30 27916 H 2664.43 -0.140787 -0.74074 0
M  V30 27917 H 2667.08 -0.993039 -1.54308 0
M  V30 27918 H 2665.46 0.0363421 -3.95983 0
M  V30 27919 H 2666.63 -2.80636 -3.65486 0
M  V30 27920 H 2664.95 -2.40865 -3.39666 0
M  V30 27921 H 2667.55 -0.410366 -5.33123 0
M  V30 27922 H 2667.89 0.770587 -4.09106 0
M  V30 27923 H 2668.42 -0.913952 -3.87159 0
M  V30 27924 H 2665.16 -3.32972 -5.64632 0
M  V30 27925 H 2664.68 -1.62194 -5.77454 0
M  V30 27926 H 2666.36 -2.10771 -6.11706 0
M  V30 27927 N 2666.49 1.47225 -0.562374 0
M  V30 27928 C 2667.74 2.0246 -0.0402521 0
M  V30 27929 C 2668.07 1.43616 1.31166 0
M  V30 27930 O 2667.32 0.583333 1.86804 0
M  V30 27931 C 2667.62 3.57269 0.0969189 0
M  V30 27932 C 2667.29 4.35056 -1.18477 0
M  V30 27933 C 2665.95 4.56028 -1.53596 0
M  V30 27934 C 2668.3 4.79878 -2.03387 0
M  V30 27935 C 2665.63 5.19072 -2.73462 0
M  V30 27936 C 2667.98 5.44245 -3.2246 0
M  V30 27937 C 2666.65 5.63449 -3.57885 0
M  V30 27938 H 2665.92 0.740854 -0.0147293 0
M  V30 27939 H 2668.56 1.76836 -0.734926 0
M  V30 27940 H 2666.87 3.81914 0.874593 0
M  V30 27941 H 2668.56 3.97662 0.516338 0
M  V30 27942 H 2665.15 4.19015 -0.901334 0
M  V30 27943 H 2669.34 4.6345 -1.77561 0
M  V30 27944 H 2664.59 5.32133 -3.01071 0
M  V30 27945 H 2668.77 5.77938 -3.88536 0
M  V30 27946 H 2666.4 6.1207 -4.50859 0
M  V30 27947 N 2667.97 0.299089 1.54736 0
M  V30 27948 C 2669.2 -0.316218 2.04975 0
M  V30 27949 C 2669.62 -1.46883 1.17504 0
M  V30 27950 O 2668.98 -1.80417 0.17871 0
M  V30 27951 C 2669.03 -0.751935 3.52673 0
M  V30 27952 O 2668.13 -1.8569 3.68229 0
M  V30 27953 H 2667.47 -0.0617058 0.661127 0
M  V30 27954 H 2670 0.440376 1.99805 0
M  V30 27955 H 2670.01 -1.04126 3.94489 0
M  V30 27956 H 2668.69 0.0912213 4.158 0
M  V30 27957 H 2667.26 -1.56828 3.38319 0
M  V30 27958 N 2669.45 -1.57577 0.0267774 0
M  V30 27959 C 2670.4 -2.10076 -0.955858 0
M  V30 27960 C 2671.37 -1.00229 -1.32452 0
M  V30 27961 O 2672.55 -1.27635 -1.41824 0
M  V30 27962 C 2669.69 -2.63054 -2.23376 0
M  V30 27963 C 2668.8 -3.86901 -1.92176 0
M  V30 27964 C 2667.94 -4.28281 -3.14244 0
M  V30 27965 C 2666.98 -5.44893 -2.78852 0
M  V30 27966 N 2666.11 -5.8144 -3.93538 0
M  V30 27967 H 2670.95 -2.93754 -0.501251 0
M  V30 27968 H 2668.49 -1.45197 -0.235821 0
M  V30 27969 H 2670.45 -2.91858 -2.98118 0
M  V30 27970 H 2669.08 -1.8221 -2.66457 0
M  V30 27971 H 2668.13 -3.6484 -1.07685 0
M  V30 27972 H 2669.44 -4.71723 -1.62108 0
M  V30 27973 H 2668.6 -4.58509 -3.97309 0
M  V30 27974 H 2667.34 -3.42222 -3.4747 0
M  V30 27975 H 2666.34 -5.1436 -1.94199 0
M  V30 27976 H 2667.57 -6.32649 -2.46844 0
M  V30 27977 H 2665.51 -4.98336 -4.26611 0
M  V30 27978 H 2665.43 -6.60896 -3.67087 0
M  V30 27979 H 2666.7 -6.16273 -4.77314 0
M  V30 27980 N 2670.93 0.246342 -1.55663 0
M  V30 27981 C 2672.16 0.990406 -1.81313 0
M  V30 27982 C 2672.56 1.79425 -0.600266 0
M  V30 27983 O 2671.91 1.7834 0.440505 0
M  V30 27984 C 2671.97 1.97601 -3.00323 0
M  V30 27985 C 2671.63 1.35905 -4.36324 0
M  V30 27986 C 2672.63 0.761257 -5.14296 0
M  V30 27987 C 2670.32 1.37825 -4.83021 0
M  V30 27988 C 2672.31 0.190886 -6.37114 0
M  V30 27989 C 2670 0.804021 -6.05788 0
M  V30 27990 C 2670.99 0.211369 -6.82673 0
M  V30 27991 O 2670.68 -0.353986 -8.0312 0
M  V30 27992 H 2670.41 0.297047 -0.607239 0
M  V30 27993 H 2672.97 0.274316 -2.0356 0
M  V30 27994 H 2671.2 2.73043 -2.73833 0
M  V30 27995 H 2672.89 2.58355 -3.13061 0
M  V30 27996 H 2673.65 0.738929 -4.79338 0
M  V30 27997 H 2669.53 1.82893 -4.23168 0
M  V30 27998 H 2673.08 -0.272329 -6.97068 0
M  V30 27999 H 2668.97 0.823679 -6.40223 0
M  V30 28000 H 2669.74 -0.245905 -8.18131 0
M  V30 28001 N 2672.4 1.4905 0.512027 0
M  V30 28002 C 2673.65 1.58214 1.26871 0
M  V30 28003 C 2673.98 0.263107 1.92409 0
M  V30 28004 O 2673.26 -0.732444 1.80182 0
M  V30 28005 C 2673.54 2.73345 2.34424 0
M  V30 28006 C 2673.39 4.15009 1.73459 0
M  V30 28007 C 2674.71 2.84159 3.36068 0
M  V30 28008 H 2671.83 0.575889 0.459914 0
M  V30 28009 H 2674.47 1.81294 0.568556 0
M  V30 28010 H 2672.62 2.53797 2.94142 0
M  V30 28011 H 2674.3 4.46044 1.17653 0
M  V30 28012 H 2672.54 4.2117 1.03914 0
M  V30 28013 H 2673.21 4.9142 2.51417 0
M  V30 28014 H 2675.69 3.01921 2.86327 0
M  V30 28015 H 2674.56 3.66413 4.08696 0
M  V30 28016 H 2674.82 1.93054 3.97721 0
M  V30 28017 N 2673.88 -0.762259 1.3794 0
M  V30 28018 C 2675.13 -1.51812 1.33407 0
M  V30 28019 C 2675.45 -1.94844 -0.0780633 0
M  V30 28020 O 2674.72 -1.67005 -1.02402 0
M  V30 28021 H 2673.3 -0.563095 0.490849 0
M  V30 28022 H 2675.96 -0.906638 1.72528 0
M  V30 28023 H 2675.06 -2.41309 1.9793 0
M  V30 28024 N 2675.36 -1.22666 -0.989486 0
M  V30 28025 C 2676.31 -0.997072 -2.10146 0
M  V30 28026 C 2677.3 0.0609485 -1.6929 0
M  V30 28027 O 2678.51 -0.0917839 -1.79766 0
M  V30 28028 H 2674.88 -0.305271 -0.687251 0
M  V30 28029 H 2676.85 -1.94057 -2.26681 0
M  V30 28030 C 2675.6 -0.595145 -3.42569 0
M  V30 28031 H 2674.93 -1.40096 -3.74451 0
M  V30 28032 H 2676.37 -0.473943 -4.21343 0
M  V30 28033 C 2674.83 0.695667 -3.29639 0
M  V30 28034 O 2675.36 1.74721 -3.61712 0
M  V30 28035 N 2673.56 0.668123 -2.82815 0
M  V30 28036 H 2673.11 -0.187915 -2.56914 0
M  V30 28037 H 2673.07 1.53205 -2.74546 0
M  V30 28038 N 2676.84 1.18685 -1.0369 0
M  V30 28039 C 2677.79 2.22186 -0.624663 0
M  V30 28040 C 2678.76 1.62026 0.365608 0
M  V30 28041 O 2679.94 1.89014 0.260448 0
M  V30 28042 C 2677.08 3.45099 0.0101131 0
M  V30 28043 C 2676.19 4.19611 -1.02717 0
M  V30 28044 C 2675.33 5.2997 -0.361306 0
M  V30 28045 C 2674.37 5.96249 -1.38394 0
M  V30 28046 N 2673.51 6.98154 -0.743318 0
M  V30 28047 H 2678.35 2.56804 -1.51181 0
M  V30 28048 H 2675.88 1.26164 -0.756382 0
M  V30 28049 H 2677.84 4.15322 0.395455 0
M  V30 28050 H 2676.47 3.11111 0.860793 0
M  V30 28051 H 2675.52 3.48253 -1.53049 0
M  V30 28052 H 2676.83 4.65032 -1.80406 0
M  V30 28053 H 2675.99 6.06649 0.0784471 0
M  V30 28054 H 2674.73 4.85641 0.447714 0
M  V30 28055 H 2673.73 5.18314 -1.83387 0
M  V30 28056 H 2674.96 6.42662 -2.1946 0
M  V30 28057 H 2672.9 6.55984 0.0454636 0
M  V30 28058 H 2672.82 7.41808 -1.45797 0
M  V30 28059 H 2674.09 7.7881 -0.327835 0
M  V30 28060 N 2678.32 0.815849 1.34839 0
M  V30 28061 C 2679.57 0.397011 1.97754 0
M  V30 28062 C 2679.88 -1.04376 1.65424 0
M  V30 28063 O 2681.09 -1.56616 2.21774 0
M  V30 28064 C 2679.54 0.658931 3.53816 0
M  V30 28065 C 2679.15 2.11285 3.95047 0
M  V30 28066 C 2680.89 0.305909 4.23396 0
M  V30 28067 C 2678.8 2.32004 5.43993 0
M  V30 28068 H 2677.73 0.144713 0.739982 0
M  V30 28069 H 2680.38 1.00121 1.53779 0
M  V30 28070 H 2678.76 -0.0153416 3.95997 0
M  V30 28071 H 2679.94 2.8257 3.63993 0
M  V30 28072 H 2678.25 2.42663 3.38384 0
M  V30 28073 H 2680.85 0.438633 5.32898 0
M  V30 28074 H 2681.19 -0.74888 4.09509 0
M  V30 28075 H 2681.73 0.934471 3.86668 0
M  V30 28076 H 2678.46 3.35962 5.62859 0
M  V30 28077 H 2677.98 1.65254 5.76586 0
M  V30 28078 H 2679.66 2.14012 6.1058 0
M  V30 28079 N 2679.8 -1.46924 0.570174 0
M  V30 28080 C 2681.02 -2.06824 0.056233 0
M  V30 28081 C 2681.44 -1.42088 -1.24324 0
M  V30 28082 O 2680.8 -0.521825 -1.74881 0
M  V30 28083 C 2680.85 -3.61268 -0.129454 0
M  V30 28084 O 2680.57 -4.23579 1.11857 0
M  V30 28085 C 2682.07 -4.38066 -0.679189 0
M  V30 28086 H 2679.29 -0.669002 0.0517378 0
M  V30 28087 H 2681.83 -1.88738 0.787277 0
M  V30 28088 H 2679.99 -3.78823 -0.810672 0
M  V30 28089 H 2680.4 -5.16289 0.924466 0
M  V30 28090 H 2681.88 -5.46766 -0.758348 0
M  V30 28091 H 2682.35 -4.05242 -1.69339 0
M  V30 28092 H 2682.96 -4.25287 -0.0332489 0
M  V30 28093 N 2681.27 -0.307291 -1.54575 0
M  V30 28094 C 2682.18 0.57532 -2.27436 0
M  V30 28095 C 2683.2 1.14309 -1.31185 0
M  V30 28096 O 2684.38 1.16653 -1.64177 0
M  V30 28097 C 2681.44 1.72798 -3.00569 0
M  V30 28098 C 2680.5 1.19366 -4.12371 0
M  V30 28099 C 2679.73 2.29139 -4.82007 0
M  V30 28100 O 2679.96 3.49164 -4.51044 0
M  V30 28101 O 2678.89 1.95475 -5.69274 0
M  V30 28102 H 2682.72 -0.0159092 -3.03696 0
M  V30 28103 H 2680.3 -0.0735326 -1.49219 0
M  V30 28104 H 2682.18 2.3994 -3.4642 0
M  V30 28105 H 2680.86 2.3057 -2.27199 0
M  V30 28106 H 2679.77 0.487786 -3.70906 0
M  V30 28107 H 2681.1 0.66129 -4.87737 0
M  V30 28108 N 2682.75 1.57561 -0.0351337 0
M  V30 28109 C 2684 1.92332 0.643146 0
M  V30 28110 C 2684.33 0.912398 1.71432 0
M  V30 28111 O 2683.61 -0.0639962 1.94395 0
M  V30 28112 C 2683.89 3.37558 1.25405 0
M  V30 28113 C 2683.74 4.4939 0.19203 0
M  V30 28114 C 2685.06 3.82863 2.17035 0
M  V30 28115 H 2682.18 0.699423 0.232329 0
M  V30 28116 H 2684.82 1.89769 -0.0936222 0
M  V30 28117 H 2682.97 3.39873 1.88199 0
M  V30 28118 H 2684.64 4.59207 -0.43893 0
M  V30 28119 H 2682.89 4.31116 -0.481801 0
M  V30 28120 H 2683.56 5.4805 0.659196 0
M  V30 28121 H 2686.03 3.82323 1.64221 0
M  V30 28122 H 2684.91 4.85161 2.56729 0
M  V30 28123 H 2685.17 3.18707 3.06395 0
M  V30 28124 N 2684.23 -0.238084 1.55791 0
M  V30 28125 C 2685.51 -0.988231 1.688 0
M  V30 28126 C 2685.89 -2.03044 0.577597 0
M  V30 28127 O 2685.23 -2.24649 -0.41774 0
M  V30 28128 C 2685.44 -1.61362 3.09457 0
M  V30 28129 C 2686.79 -2.11214 3.68339 0
M  V30 28130 O 2687.82 -1.71287 3.12313 0
M  V30 28131 O 2686.68 -2.84552 4.66575 0
M  V30 28132 H 2683.77 -0.460556 0.686889 0
M  V30 28133 H 2686.32 -0.231172 1.68118 0
M  V30 28134 H 2685.09 -0.860228 3.81727 0
M  V30 28135 H 2684.71 -2.43665 3.14186 0
M  V30 28136 N 2685.71 -1.4932 -0.504115 0
M  V30 28137 C 2686.62 -1.68488 -1.63245 0
M  V30 28138 C 2687.63 -0.567461 -1.64487 0
M  V30 28139 O 2688.81 -0.841781 -1.82965 0
M  V30 28140 C 2685.87 -1.74431 -2.99624 0
M  V30 28141 C 2684.94 -2.97988 -3.09033 0
M  V30 28142 C 2684.17 -3.03638 -4.38907 0
M  V30 28143 O 2684.39 -2.16967 -5.27524 0
M  V30 28144 O 2683.33 -3.9607 -4.53224 0
M  V30 28145 H 2687.15 -2.64069 -1.50004 0
M  V30 28146 H 2684.74 -1.33024 -0.680063 0
M  V30 28147 H 2686.62 -1.80711 -3.80685 0
M  V30 28148 H 2685.29 -0.820288 -3.13134 0
M  V30 28149 H 2684.2 -2.97227 -2.27172 0
M  V30 28150 H 2685.53 -3.8986 -3.00449 0
M  V30 28151 N 2687.19 0.754933 -1.38342 0
M  V30 28152 C 2688.42 1.54193 -1.37507 0
M  V30 28153 C 2688.82 1.89163 0.0373454 0
M  V30 28154 O 2688.17 1.53179 1.01399 0
M  V30 28155 C 2688.23 2.87004 -2.16493 0
M  V30 28156 C 2687.89 2.74578 -3.65316 0
M  V30 28157 C 2688.89 2.44466 -4.58838 0
M  V30 28158 C 2686.57 2.92073 -4.08655 0
M  V30 28159 C 2688.57 2.32 -5.93679 0
M  V30 28160 C 2686.26 2.79227 -5.43576 0
M  V30 28161 C 2687.25 2.49234 -6.35902 0
M  V30 28162 O 2686.94 2.36444 -7.68342 0
M  V30 28163 H 2686.67 0.483771 -0.472167 0
M  V30 28164 H 2689.23 0.942178 -1.82516 0
M  V30 28165 H 2687.46 3.49163 -1.662 0
M  V30 28166 H 2689.15 3.48507 -2.08082 0
M  V30 28167 H 2689.91 2.30619 -4.26661 0
M  V30 28168 H 2685.79 3.14416 -3.3714 0
M  V30 28169 H 2689.34 2.0851 -6.6571 0
M  V30 28170 H 2685.23 2.92647 -5.7535 0
M  V30 28171 H 2686 2.51667 -7.78849 0
M  V30 28172 N 2688.66 1.23189 0.982967 0
M  V30 28173 C 2689.6 0.954029 2.07301 0
M  V30 28174 C 2690.57 -0.106725 1.62249 0
M  V30 28175 O 2691.76 0.0269856 1.88481 0
M  V30 28176 C 2688.89 0.436775 3.35872 0
M  V30 28177 C 2687.93 1.48374 3.99859 0
M  V30 28178 S 2688.76 3.06031 4.39437 0
M  V30 28179 C 2689.92 2.55969 5.71166 0
M  V30 28180 H 2690.15 1.87706 2.30551 0
M  V30 28181 H 2687.69 1.06405 1.11881 0
M  V30 28182 H 2689.64 0.144944 4.10244 0
M  V30 28183 H 2688.31 -0.465296 3.10635 0
M  V30 28184 H 2687.5 1.07191 4.92469 0
M  V30 28185 H 2687.1 1.72479 3.31854 0
M  V30 28186 H 2689.39 1.97829 6.47974 0
M  V30 28187 H 2690.34 3.47109 6.17188 0
M  V30 28188 H 2690.74 1.96911 5.29043 0
M  V30 28189 N 2690.14 -1.18133 1.04318 0
M  V30 28190 C 2691.09 -2.21852 0.636437 0
M  V30 28191 C 2692.06 -1.62218 -0.35701 0
M  V30 28192 O 2693.24 -1.8915 -0.25042 0
M  V30 28193 C 2690.38 -3.45099 0.00818845 0
M  V30 28194 C 2689.5 -4.1906 1.04941 0
M  V30 28195 C 2688.63 -5.29771 0.389407 0
M  V30 28196 C 2687.67 -5.95507 1.41554 0
M  V30 28197 N 2686.81 -6.9775 0.780333 0
M  V30 28198 H 2691.65 -2.55999 1.5254 0
M  V30 28199 H 2689.18 -1.25761 0.763062 0
M  V30 28200 H 2691.14 -4.15525 -0.373424 0
M  V30 28201 H 2689.77 -3.11563 -0.844282 0
M  V30 28202 H 2688.82 -3.47436 1.54894 0
M  V30 28203 H 2690.14 -4.64069 1.8287 0
M  V30 28204 H 2689.29 -6.06682 -0.0462739 0
M  V30 28205 H 2688.03 -4.85871 -0.421953 0
M  V30 28206 H 2687.03 -5.17334 1.86133 0
M  V30 28207 H 2688.26 -6.41489 2.22865 0
M  V30 28208 H 2686.21 -6.55999 -0.0106746 0
M  V30 28209 H 2686.12 -7.41024 1.49729 0
M  V30 28210 H 2687.39 -7.78625 0.369133 0
M  V30 28211 N 2691.62 -0.822988 -1.34405 0
M  V30 28212 C 2692.53 -0.246879 -2.33297 0
M  V30 28213 C 2693.55 0.618768 -1.62626 0
M  V30 28214 O 2694.72 0.526651 -1.94392 0
M  V30 28215 C 2691.79 0.581671 -3.41786 0
M  V30 28216 C 2690.85 -0.306384 -4.28205 0
M  V30 28217 C 2690.08 0.482716 -5.31513 0
M  V30 28218 O 2690.3 1.71598 -5.43976 0
M  V30 28219 O 2689.24 -0.134989 -6.01749 0
M  V30 28220 H 2693.06 -1.06539 -2.844 0
M  V30 28221 H 2690.65 -0.585132 -1.37465 0
M  V30 28222 H 2692.53 1.05305 -4.0803 0
M  V30 28223 H 2691.21 1.37751 -2.92927 0
M  V30 28224 H 2690.11 -0.825263 -3.64884 0
M  V30 28225 H 2691.45 -1.06658 -4.80505 0
M  V30 28226 N 2693.1 1.4662 -0.577957 0
M  V30 28227 C 2694.06 2.28723 0.147765 0
M  V30 28228 C 2695.06 1.38125 0.8233 0
M  V30 28229 O 2696.25 1.60549 0.675983 0
M  V30 28230 C 2693.38 3.1838 1.21848 0
M  V30 28231 H 2694.58 2.94361 -0.573706 0
M  V30 28232 H 2692.13 1.52652 -0.33573 0
M  V30 28233 H 2692.86 2.57479 1.97168 0
M  V30 28234 H 2692.65 3.8508 0.738647 0
M  V30 28235 H 2694.14 3.80189 1.72761 0
M  V30 28236 N 2694.58 0.315484 1.5441 0
M  V30 28237 C 2695.82 -0.289936 2.00717 0
M  V30 28238 C 2696.16 -1.52418 1.20342 0
M  V30 28239 O 2695.43 -1.92421 0.283613 0
M  V30 28240 C 2695.71 -0.632134 3.54508 0
M  V30 28241 C 2695.57 0.612258 4.45614 0
M  V30 28242 C 2696.89 -1.45297 4.15424 0
M  V30 28243 H 2694 -0.103907 0.729638 0
M  V30 28244 H 2696.65 0.430459 1.8506 0
M  V30 28245 H 2694.8 -1.24588 3.67981 0
M  V30 28246 H 2696.47 1.25061 4.44024 0
M  V30 28247 H 2694.71 1.24271 4.15619 0
M  V30 28248 H 2695.38 0.328476 5.51022 0
M  V30 28249 H 2697.86 -0.934259 4.05476 0
M  V30 28250 H 2696.73 -1.66117 5.2316 0
M  V30 28251 H 2697 -2.44665 3.68228 0
M  V30 28252 N 2696.05 -1.5754 0.0434891 0
M  V30 28253 C 2697.33 -1.83714 -0.671447 0
M  V30 28254 C 2697.71 -0.930348 -1.89493 0
M  V30 28255 O 2697.06 0.0105237 -2.28498 0
M  V30 28256 C 2697.27 -3.33268 -1.03604 0
M  V30 28257 C 2698.62 -4.00095 -1.4216 0
M  V30 28258 O 2699.64 -3.37848 -1.1286 0
M  V30 28259 O 2698.5 -5.09832 -1.96808 0
M  V30 28260 H 2695.59 -0.757996 -0.330713 0
M  V30 28261 H 2698.14 -1.69546 0.0722671 0
M  V30 28262 H 2696.91 -3.90948 -0.165869 0
M  V30 28263 H 2696.54 -3.52595 -1.83745 0
M  V30 28264 N 2697.53 0.229818 -1.55915 0
M  V30 28265 C 2698.48 1.28804 -1.88132 0
M  V30 28266 C 2699.47 1.42684 -0.743646 0
M  V30 28267 O 2700.66 1.45638 -1.00591 0
M  V30 28268 C 2697.79 2.64013 -2.19436 0
M  V30 28269 C 2696.87 2.54068 -3.39574 0
M  V30 28270 N 2697.26 2.13766 -4.58408 0
M  V30 28271 C 2695.56 2.85045 -3.43024 0
M  V30 28272 C 2696.26 2.1487 -5.4056 0
M  V30 28273 N 2695.24 2.55038 -4.80059 0
M  V30 28274 H 2699.04 0.967212 -2.77529 0
M  V30 28275 H 2696.56 0.438406 -1.56371 0
M  V30 28276 H 2698.55 3.40404 -2.40687 0
M  V30 28277 H 2697.21 2.96948 -1.31347 0
M  V30 28278 H 2698.22 1.85031 -4.83719 0
M  V30 28279 H 2694.9 3.22407 -2.65255 0
M  V30 28280 H 2696.29 1.85907 -6.45669 0
M  V30 28281 N 2699.01 1.49585 0.49619 0
M  V30 28282 C 2700.24 1.62795 1.27206 0
M  V30 28283 C 2700.65 0.300509 1.86798 0
M  V30 28284 O 2699.99 -0.724645 1.68803 0
M  V30 28285 C 2700.05 2.64194 2.43807 0
M  V30 28286 C 2699.72 4.08417 2.05047 0
M  V30 28287 C 2700.71 4.95072 1.58743 0
M  V30 28288 C 2698.4 4.54181 2.14535 0
M  V30 28289 C 2700.39 6.2553 1.22437 0
M  V30 28290 C 2698.08 5.8465 1.7784 0
M  V30 28291 C 2699.08 6.70149 1.31866 0
M  V30 28292 O 2698.77 7.98187 0.956694 0
M  V30 28293 H 2698.5 0.550853 0.391838 0
M  V30 28294 H 2701.05 1.9639 0.601677 0
M  V30 28295 H 2699.28 2.25789 3.13937 0
M  V30 28296 H 2700.97 2.66883 3.05824 0
M  V30 28297 H 2701.74 4.60942 1.50855 0
M  V30 28298 H 2697.62 3.87795 2.49271 0
M  V30 28299 H 2701.16 6.92219 0.864811 0
M  V30 28300 H 2697.06 6.18308 1.85379 0
M  V30 28301 H 2697.83 8.1124 1.08775 0
M  V30 28302 N 2700.49 -0.747586 1.3874 0
M  V30 28303 C 2701.45 -1.8431 1.36245 0
M  V30 28304 C 2702.45 -1.58654 0.261839 0
M  V30 28305 O 2703.64 -1.66287 0.51906 0
M  V30 28306 C 2700.77 -3.21886 1.12259 0
M  V30 28307 H 2701.97 -1.87929 2.33715 0
M  V30 28308 H 2699.52 -0.949924 1.24121 0
M  V30 28309 H 2700.25 -3.23933 0.15419 0
M  V30 28310 H 2700.04 -3.41903 1.91949 0
M  V30 28311 H 2701.53 -4.01958 1.13223 0
M  V30 28312 N 2701.97 -1.23709 -0.97642 0
M  V30 28313 C 2703.21 -1.06945 -1.71485 0
M  V30 28314 C 2703.54 0.393863 -1.90981 0
M  V30 28315 O 2702.81 1.28196 -1.48131 0
M  V30 28316 H 2701.39 -0.39275 -0.635418 0
M  V30 28317 H 2704.05 -1.55489 -1.17512 0
M  V30 28318 H 2703.14 -1.56056 -2.70283 0
M  V30 28319 N 2703.44 1.17579 -1.04943 0
M  V30 28320 C 2704.38 2.21038 -0.606213 0
M  V30 28321 C 2705.39 1.59446 0.328735 0
M  V30 28322 O 2706.58 1.78084 0.121863 0
M  V30 28323 C 2703.68 3.38638 0.133235 0
M  V30 28324 C 2702.85 4.29801 -0.811787 0
M  V30 28325 C 2701.91 5.26076 -0.11405 0
M  V30 28326 O 2700.94 5.64273 -0.747336 0
M  V30 28327 N 2702.14 5.69006 1.14943 0
M  V30 28328 H 2704.9 2.59686 -1.4961 0
M  V30 28329 H 2702.46 1.32452 -0.93102 0
M  V30 28330 H 2704.46 4.00075 0.610073 0
M  V30 28331 H 2703.03 2.98608 0.924764 0
M  V30 28332 H 2702.25 3.65834 -1.4683 0
M  V30 28333 H 2703.53 4.87602 -1.45335 0
M  V30 28334 H 2702.93 5.40044 1.68431 0
M  V30 28335 H 2701.49 6.326 1.57038 0
M  V30 28336 N 2704.92 0.830104 1.33967 0
M  V30 28337 C 2705.85 0.271951 2.31911 0
M  V30 28338 C 2706.83 -0.615532 1.58572 0
M  V30 28339 O 2708.02 -0.540914 1.86515 0
M  V30 28340 C 2705.15 -0.561086 3.42738 0
M  V30 28341 C 2704.1 0.229864 4.27382 0
M  V30 28342 C 2703.43 -0.72637 5.29743 0
M  V30 28343 C 2704.73 1.44206 5.01998 0
M  V30 28344 H 2706.42 1.0903 2.78842 0
M  V30 28345 H 2703.97 0.525733 1.3406 0
M  V30 28346 H 2705.92 -0.961795 4.10277 0
M  V30 28347 H 2704.65 -1.41256 2.94473 0
M  V30 28348 H 2703.3 0.612028 3.61455 0
M  V30 28349 H 2702.95 -1.574 4.77739 0
M  V30 28350 H 2702.65 -0.201317 5.87255 0
M  V30 28351 H 2704.18 -1.12478 6.00151 0
M  V30 28352 H 2705.59 1.11498 5.62353 0
M  V30 28353 H 2703.99 1.90327 5.69118 0
M  V30 28354 H 2705.06 2.21648 4.31277 0
M  V30 28355 N 2706.4 -1.46311 0.585725 0
M  V30 28356 C 2707.33 -2.27372 -0.194217 0
M  V30 28357 C 2708.31 -1.35811 -0.894092 0
M  V30 28358 O 2709.5 -1.65224 -0.907373 0
M  V30 28359 C 2706.62 -3.13625 -1.27896 0
M  V30 28360 C 2705.67 -4.2097 -0.684592 0
M  V30 28361 S 2706.5 -5.33246 0.490839 0
M  V30 28362 C 2707.66 -6.23065 -0.595028 0
M  V30 28363 H 2707.89 -2.93174 0.493567 0
M  V30 28364 H 2705.42 -1.49834 0.372692 0
M  V30 28365 H 2707.38 -3.63882 -1.90001 0
M  V30 28366 H 2706.04 -2.4713 -1.9387 0
M  V30 28367 H 2705.24 -4.81159 -1.50007 0
M  V30 28368 H 2704.84 -3.73741 -0.139138 0
M  V30 28369 H 2707.13 -6.61139 -1.4799 0
M  V30 28370 H 2708.07 -7.08094 -0.0298201 0
M  V30 28371 H 2708.48 -5.57271 -0.900529 0
M  V30 28372 N 2707.88 -0.323668 -1.54241 0
M  V30 28373 C 2709.1 0.283568 -2.05452 0
M  V30 28374 C 2709.53 1.44995 -1.19826 0
M  V30 28375 O 2708.89 1.8011 -0.20739 0
M  V30 28376 C 2708.94 0.695732 -3.53825 0
M  V30 28377 O 2708.04 1.79809 -3.71137 0
M  V30 28378 H 2707.38 0.0511801 -0.662025 0
M  V30 28379 H 2709.91 -0.472108 -1.99079 0
M  V30 28380 H 2709.92 0.978365 -3.96096 0
M  V30 28381 H 2708.6 -0.15736 -4.15602 0
M  V30 28382 H 2707.17 1.51425 -3.40771 0
M  V30 28383 N 2709.36 1.57515 -0.0518432 0
M  V30 28384 C 2710.29 2.14601 0.920246 0
M  V30 28385 C 2711.27 1.06785 1.32404 0
M  V30 28386 O 2712.45 1.34728 1.39864 0
M  V30 28387 C 2709.58 2.69154 2.19485 0
M  V30 28388 C 2708.54 3.81959 1.93109 0
M  V30 28389 C 2707.86 4.23031 3.2703 0
M  V30 28390 C 2709.16 5.07068 1.25217 0
M  V30 28391 H 2710.86 2.96078 0.444749 0
M  V30 28392 H 2708.4 1.42424 0.212483 0
M  V30 28393 H 2710.36 3.0773 2.87889 0
M  V30 28394 H 2709.08 1.8487 2.69241 0
M  V30 28395 H 2707.74 3.43856 1.27117 0
M  V30 28396 H 2707.39 3.35697 3.74589 0
M  V30 28397 H 2707.09 4.99061 3.1018 0
M  V30 28398 H 2708.61 4.64209 3.96665 0
M  V30 28399 H 2710.03 5.43087 1.83656 0
M  V30 28400 H 2708.42 5.88245 1.18691 0
M  V30 28401 H 2709.49 4.84362 0.228297 0
M  V30 28402 N 2710.84 -0.221546 1.56035 0
M  V30 28403 C 2712.11 -0.970271 1.69838 0
M  V30 28404 C 2712.49 -2.0242 0.5991 0
M  V30 28405 O 2711.84 -2.25079 -0.39389 0
M  V30 28406 C 2712.05 -1.5807 3.11151 0
M  V30 28407 C 2713.4 -2.07296 3.70559 0
M  V30 28408 O 2714.42 -1.67964 3.14112 0
M  V30 28409 O 2713.28 -2.79588 4.69567 0
M  V30 28410 H 2710.38 -0.453245 0.691735 0
M  V30 28411 H 2712.92 -0.213328 1.68354 0
M  V30 28412 H 2711.69 -0.819692 3.82618 0
M  V30 28413 H 2711.32 -2.40319 3.16753 0
M  V30 28414 N 2712.31 -1.49846 -0.48825 0
M  V30 28415 C 2713.56 -1.59219 -1.23823 0
M  V30 28416 C 2713.88 -0.29 -1.93438 0
M  V30 28417 O 2715.08 -0.26243 -2.70229 0
M  V30 28418 C 2713.54 -2.8098 -2.24897 0
M  V30 28419 C 2713.15 -4.18008 -1.61162 0
M  V30 28420 C 2714.89 -2.9969 -3.00643 0
M  V30 28421 C 2712.8 -5.30975 -2.60422 0
M  V30 28422 H 2711.73 -0.592876 -0.465847 0
M  V30 28423 H 2714.38 -1.76253 -0.510614 0
M  V30 28424 H 2712.76 -2.57468 -3.00876 0
M  V30 28425 H 2713.93 -4.51707 -0.910888 0
M  V30 28426 H 2712.25 -4.04762 -0.977599 0
M  V30 28427 H 2714.85 -3.81257 -3.74896 0
M  V30 28428 H 2715.19 -2.10745 -3.59016 0
M  V30 28429 H 2715.72 -3.23301 -2.31778 0
M  V30 28430 H 2712.46 -6.2202 -2.06812 0
M  V30 28431 H 2711.98 -5.01715 -3.28698 0
M  V30 28432 H 2713.66 -5.60839 -3.22596 0
M  V30 28433 N 2713.79 0.740218 -1.39135 0
M  V30 28434 C 2714.74 1.87554 -1.37573 0
M  V30 28435 C 2715.73 1.67399 -0.259623 0
M  V30 28436 O 2716.94 1.74804 -0.42938 0
M  V30 28437 H 2713.31 0.617293 -0.42948 0
M  V30 28438 H 2715.29 1.85987 -2.33349 0
M  V30 28439 C 2714.03 3.25182 -1.23093 0
M  V30 28440 H 2713.36 3.41284 -2.08243 0
M  V30 28441 H 2714.8 4.04828 -1.26056 0
M  V30 28442 C 2713.26 3.36845 0.0610879 0
M  V30 28443 O 2713.79 3.88185 1.03321 0
M  V30 28444 N 2711.99 2.90342 0.122403 0
M  V30 28445 H 2711.54 2.48751 -0.669373 0
M  V30 28446 H 2711.5 2.98525 0.98641 0
M  V30 28447 N 2715.27 1.24225 0.969846 0
M  V30 28448 C 2716.5 1.10764 1.74754 0
M  V30 28449 C 2716.91 -0.340008 1.85713 0
M  V30 28450 O 2716.27 -1.23472 1.34391 0
M  V30 28451 C 2716.32 1.73922 3.16912 0
M  V30 28452 O 2716.04 3.13027 3.06506 0
M  V30 28453 C 2717.54 1.66043 4.11029 0
M  V30 28454 H 2714.76 0.387097 0.548085 0
M  V30 28455 H 2717.31 1.64288 1.21777 0
M  V30 28456 H 2715.46 1.24406 3.66881 0
M  V30 28457 H 2715.88 3.43841 3.96073 0
M  V30 28458 H 2717.35 2.1492 5.08442 0
M  V30 28459 H 2717.83 0.621235 4.34784 0
M  V30 28460 H 2718.43 2.14975 3.66968 0
M  V30 28461 N 2716.75 -1.1702 1.05565 0
M  V30 28462 C 2717.66 -2.24805 0.670797 0
M  V30 28463 C 2718.67 -1.71219 -0.309835 0
M  V30 28464 O 2719.85 -2.00756 -0.16099 0
M  V30 28465 C 2716.91 -3.46656 0.0553979 0
M  V30 28466 C 2715.98 -4.15312 1.08696 0
M  V30 28467 C 2715.21 -5.31345 0.50083 0
M  V30 28468 O 2715.43 -5.66228 -0.688618 0
M  V30 28469 O 2714.37 -5.89053 1.23693 0
M  V30 28470 H 2718.19 -2.6002 1.56918 0
M  V30 28471 H 2715.78 -1.24393 0.82745 0
M  V30 28472 H 2717.66 -4.20426 -0.286418 0
M  V30 28473 H 2716.33 -3.13231 -0.816583 0
M  V30 28474 H 2715.24 -3.43544 1.48083 0
M  V30 28475 H 2716.57 -4.52773 1.93022 0
M  V30 28476 N 2718.23 -0.837197 -1.33524 0
M  V30 28477 C 2719.16 -0.226619 -2.28077 0
M  V30 28478 C 2720.17 0.59169 -1.51667 0
M  V30 28479 O 2721.36 0.419034 -1.73512 0
M  V30 28480 C 2718.46 0.699722 -3.31598 0
M  V30 28481 C 2717.63 -0.0788836 -4.37329 0
M  V30 28482 C 2716.69 0.770546 -5.20528 0
M  V30 28483 O 2715.72 0.210353 -5.68811 0
M  V30 28484 N 2716.92 2.08816 -5.41642 0
M  V30 28485 H 2719.68 -1.03902 -2.81113 0
M  V30 28486 H 2717.25 -0.695502 -1.462 0
M  V30 28487 H 2719.24 1.27291 -3.8416 0
M  V30 28488 H 2717.81 1.41284 -2.78851 0
M  V30 28489 H 2717.03 -0.833449 -3.85289 0
M  V30 28490 H 2718.32 -0.614327 -5.05078 0
M  V30 28491 H 2717.71 2.56684 -5.04113 0
M  V30 28492 H 2716.27 2.60987 -5.97268 0
M  V30 28493 N 2719.7 1.45999 -0.593476 0
M  V30 28494 C 2720.64 2.27472 0.182156 0
M  V30 28495 C 2721.61 1.36284 0.886877 0
M  V30 28496 O 2722.8 1.65703 0.898598 0
M  V30 28497 C 2719.93 3.14298 1.26231 0
M  V30 28498 C 2718.97 4.21327 0.662257 0
M  V30 28499 S 2719.8 5.32978 -0.519111 0
M  V30 28500 C 2720.96 6.23372 0.561977 0
M  V30 28501 H 2721.19 2.92908 -0.509108 0
M  V30 28502 H 2718.73 1.49635 -0.380633 0
M  V30 28503 H 2720.68 3.64884 1.88069 0
M  V30 28504 H 2719.35 2.48154 1.92557 0
M  V30 28505 H 2718.54 4.81948 1.47453 0
M  V30 28506 H 2718.14 3.7381 0.119316 0
M  V30 28507 H 2720.43 6.61915 1.44482 0
M  V30 28508 H 2721.38 7.081 -0.00773223 0
M  V30 28509 H 2721.78 5.57741 0.870963 0
M  V30 28510 N 2721.18 0.331843 1.54067 0
M  V30 28511 C 2722.42 -0.268725 2.02626 0
M  V30 28512 C 2722.79 -1.48695 1.21465 0
M  V30 28513 O 2723.99 -2.16093 1.59867 0
M  V30 28514 C 2722.26 -0.586515 3.52555 0
M  V30 28515 S 2723.82 -1.16556 4.23037 0
M  V30 28516 H 2720.64 -0.0807738 0.706397 0
M  V30 28517 H 2723.24 0.466889 1.89843 0
M  V30 28518 H 2721.94 0.308118 4.09242 0
M  V30 28519 H 2721.47 -1.35211 3.69434 0
M  V30 28520 H 2723.49 -2.45195 4.31386 0
M  V30 28521 N 2722.66 -1.57485 0.0601958 0
M  V30 28522 C 2723.59 -2.15086 -0.908852 0
M  V30 28523 C 2724.57 -1.07486 -1.31836 0
M  V30 28524 O 2725.76 -1.35468 -1.39147 0
M  V30 28525 C 2722.89 -2.70314 -2.18054 0
M  V30 28526 C 2721.84 -3.82978 -1.91081 0
M  V30 28527 C 2721.17 -4.2476 -3.24782 0
M  V30 28528 C 2722.47 -5.07725 -1.22526 0
M  V30 28529 H 2724.16 -2.9631 -0.429041 0
M  V30 28530 H 2721.71 -1.42534 -0.204927 0
M  V30 28531 H 2723.66 -3.09253 -2.86253 0
M  V30 28532 H 2722.38 -1.86295 -2.68257 0
M  V30 28533 H 2721.04 -3.44525 -1.25291 0
M  V30 28534 H 2720.69 -3.37679 -3.72803 0
M  V30 28535 H 2720.39 -5.00699 -3.07529 0
M  V30 28536 H 2721.91 -4.66306 -3.94197 0
M  V30 28537 H 2723.33 -5.44053 -1.80774 0
M  V30 28538 H 2721.73 -5.88866 -1.1557 0
M  V30 28539 H 2722.8 -4.84477 -0.202607 0
M  V30 28540 N 2724.14 0.213268 -1.5615 0
M  V30 28541 C 2725.05 1.28515 -1.96268 0
M  V30 28542 C 2726.06 1.50822 -0.867676 0
M  V30 28543 O 2727.24 1.63791 -1.17194 0
M  V30 28544 C 2724.31 2.61323 -2.27841 0
M  V30 28545 C 2723.37 2.47246 -3.50953 0
M  V30 28546 C 2722.6 3.7372 -3.8101 0
M  V30 28547 O 2722.82 4.771 -3.1262 0
M  V30 28548 O 2721.76 3.70336 -4.74484 0
M  V30 28549 H 2725.58 0.974744 -2.87632 0
M  V30 28550 H 2723.17 0.416807 -1.43468 0
M  V30 28551 H 2725.05 3.39742 -2.49305 0
M  V30 28552 H 2723.72 2.92028 -1.39648 0
M  V30 28553 H 2722.63 1.66999 -3.34757 0
M  V30 28554 H 2723.96 2.21478 -4.39554 0
M  V30 28555 N 2725.62 1.50103 0.480296 0
M  V30 28556 C 2726.89 1.51144 1.24157 0
M  V30 28557 C 2727.27 0.250855 2.09604 0
M  V30 28558 O 2726.62 -0.76608 2.15275 0
M  V30 28559 C 2726.83 2.80206 2.08052 0
M  V30 28560 C 2728.18 3.30509 2.6655 0
M  V30 28561 O 2729.2 2.81465 2.18303 0
M  V30 28562 O 2728.06 4.15979 3.54435 0
M  V30 28563 H 2725.16 0.605849 0.562918 0
M  V30 28564 H 2727.7 1.62385 0.49287 0
M  V30 28565 H 2726.47 3.63433 1.45026 0
M  V30 28566 H 2726.1 2.71924 2.90074 0
M  V30 28567 N 2727.09 -0.732829 1.39526 0
M  V30 28568 C 2728.06 -1.82854 1.38192 0
M  V30 28569 C 2729.06 -1.58367 0.278651 0
M  V30 28570 O 2730.25 -1.65727 0.536668 0
M  V30 28571 C 2727.38 -3.20678 1.15666 0
M  V30 28572 H 2728.57 -1.8544 2.35695 0
M  V30 28573 H 2726.13 -0.936706 1.25122 0
M  V30 28574 H 2726.86 -3.23751 0.188539 0
M  V30 28575 H 2726.65 -3.39848 1.95565 0
M  V30 28576 H 2728.14 -4.00735 1.17479 0
M  V30 28577 N 2728.57 -1.24737 -0.963244 0
M  V30 28578 C 2729.51 -0.986888 -2.05757 0
M  V30 28579 C 2730.48 0.0808987 -1.62399 0
M  V30 28580 O 2731.67 -0.0569678 -1.88414 0
M  V30 28581 C 2728.79 -0.490154 -3.35135 0
M  V30 28582 C 2727.84 -1.54716 -3.97448 0
M  V30 28583 S 2728.67 -3.12983 -4.34513 0
M  V30 28584 C 2729.83 -2.65024 -5.67021 0
M  V30 28585 H 2730.06 -1.9135 -2.27536 0
M  V30 28586 H 2727.6 -1.08171 -1.10174 0
M  V30 28587 H 2729.55 -0.210192 -4.09962 0
M  V30 28588 H 2728.21 0.415818 -3.11335 0
M  V30 28589 H 2727.41 -1.15012 -4.90702 0
M  V30 28590 H 2727.01 -1.77736 -3.29068 0
M  V30 28591 H 2729.3 -2.08113 -6.44744 0
M  V30 28592 H 2730.24 -3.56884 -6.11588 0
M  V30 28593 H 2730.65 -2.05303 -5.25843 0
M  V30 28594 N 2730.05 1.16459 -1.06184 0
M  V30 28595 C 2731.28 1.90589 -0.797459 0
M  V30 28596 C 2731.69 1.77618 0.651814 0
M  V30 28597 O 2731.03 1.11768 1.45786 0
M  V30 28598 C 2731.09 3.41891 -1.11134 0
M  V30 28599 C 2730.76 3.78648 -2.55881 0
M  V30 28600 C 2731.75 3.80659 -3.54111 0
M  V30 28601 C 2729.44 4.09312 -2.91151 0
M  V30 28602 C 2731.43 4.12821 -4.85652 0
M  V30 28603 C 2729.12 4.4114 -4.22893 0
M  V30 28604 C 2730.12 4.42874 -5.19953 0
M  V30 28605 O 2729.81 4.73947 -6.4933 0
M  V30 28606 H 2729.54 0.611242 -0.288719 0
M  V30 28607 H 2732.09 1.48558 -1.41844 0
M  V30 28608 H 2730.32 3.84265 -0.433285 0
M  V30 28609 H 2732.01 3.97295 -0.831375 0
M  V30 28610 H 2732.78 3.57082 -3.28204 0
M  V30 28611 H 2728.66 4.07127 -2.1626 0
M  V30 28612 H 2732.2 4.14089 -5.61405 0
M  V30 28613 H 2728.1 4.64182 -4.48559 0
M  V30 28614 H 2728.87 4.91763 -6.54302 0
M  V30 28615 N 2731.53 0.844266 1.33079 0
M  V30 28616 C 2732.78 0.44171 1.97214 0
M  V30 28617 C 2733.1 -1.00367 1.67187 0
M  V30 28618 O 2732.37 -1.69993 0.973618 0
M  V30 28619 H 2730.95 0.160348 0.729587 0
M  V30 28620 H 2733.61 1.07841 1.62346 0
M  V30 28621 H 2732.71 0.578204 3.06697 0
M  V30 28622 N 2733.01 -1.45682 0.60121 0
M  V30 28623 C 2734.23 -2.06658 0.100091 0
M  V30 28624 C 2734.65 -1.44693 -1.21282 0
M  V30 28625 O 2734.01 -0.558803 -1.73734 0
M  V30 28626 C 2734.06 -3.61461 -0.0527943 0
M  V30 28627 O 2733.78 -4.21112 1.20817 0
M  V30 28628 C 2735.28 -4.39408 -0.586116 0
M  V30 28629 H 2732.5 -0.667754 0.0659167 0
M  V30 28630 H 2735.04 -1.87026 0.827134 0
M  V30 28631 H 2733.2 -3.80457 -0.730136 0
M  V30 28632 H 2733.61 -5.14211 1.03377 0
M  V30 28633 H 2735.09 -5.48252 -0.642201 0
M  V30 28634 H 2735.56 -4.08742 -1.60705 0
M  V30 28635 H 2736.17 -4.25262 0.0569682 0
M  V30 28636 N 2734.48 -0.340009 -1.53889 0
M  V30 28637 C 2735.76 0.312685 -1.93085 0
M  V30 28638 C 2736.14 1.68531 -1.27123 0
M  V30 28639 O 2735.49 2.24591 -0.420875 0
M  V30 28640 C 2735.7 0.388497 -3.46831 0
M  V30 28641 C 2737.05 0.641014 -4.19733 0
M  V30 28642 O 2738.07 0.470756 -3.53076 0
M  V30 28643 O 2736.93 0.970591 -5.37812 0
M  V30 28644 H 2734.02 0.181725 -0.806787 0
M  V30 28645 H 2736.57 -0.390927 -1.65136 0
M  V30 28646 H 2735.34 -0.574889 -3.87054 0
M  V30 28647 H 2734.97 1.13904 -3.80935 0
M  V30 28648 N 2735.96 1.57451 -0.0685468 0
M  V30 28649 C 2737.21 1.92984 0.600127 0
M  V30 28650 C 2737.53 0.949058 1.70346 0
M  V30 28651 O 2736.8 -0.00332204 1.959 0
M  V30 28652 H 2735.38 0.712413 0.22467 0
M  V30 28653 H 2738.04 1.94495 -0.125639 0
M  V30 28654 H 2737.14 2.947 1.02754 0
M  V30 28655 N 2737.44 -0.204984 1.56261 0
M  V30 28656 C 2738.37 -1.25696 1.96781 0
M  V30 28657 C 2739.35 -1.48007 0.838335 0
M  V30 28658 O 2740.54 -1.59911 1.10192 0
M  V30 28659 C 2737.67 -2.60331 2.2988 0
M  V30 28660 C 2736.62 -2.5265 3.45473 0
M  V30 28661 C 2735.95 -3.91467 3.64222 0
M  V30 28662 C 2737.25 -2.06005 4.79957 0
M  V30 28663 H 2738.94 -0.920288 2.84905 0
M  V30 28664 H 2736.49 -0.441253 1.37073 0
M  V30 28665 H 2738.44 -3.34098 2.5682 0
M  V30 28666 H 2737.16 -2.9572 1.38627 0
M  V30 28667 H 2735.82 -1.8134 3.18609 0
M  V30 28668 H 2735.47 -4.24191 2.70316 0
M  V30 28669 H 2735.17 -3.87205 4.4198 0
M  V30 28670 H 2736.7 -4.66871 3.93528 0
M  V30 28671 H 2738.11 -2.69524 5.05994 0
M  V30 28672 H 2736.51 -2.12767 5.61115 0
M  V30 28673 H 2737.58 -1.01289 4.74203 0
M  V30 28674 N 2738.92 -1.50356 -0.472329 0
M  V30 28675 C 2739.83 -1.71913 -1.59634 0
M  V30 28676 C 2740.85 -0.602224 -1.63246 0
M  V30 28677 O 2742.02 -0.880401 -1.81138 0
M  V30 28678 C 2739.09 -1.80748 -2.95857 0
M  V30 28679 C 2738.15 -3.04476 -3.02643 0
M  V30 28680 C 2737.38 -3.12879 -4.32368 0
M  V30 28681 O 2737.6 -2.28108 -5.22803 0
M  V30 28682 O 2736.54 -4.05595 -4.44721 0
M  V30 28683 H 2740.36 -2.67192 -1.44369 0
M  V30 28684 H 2737.95 -1.34437 -0.651694 0
M  V30 28685 H 2739.83 -1.88746 -3.76767 0
M  V30 28686 H 2738.51 -0.886524 -3.11324 0
M  V30 28687 H 2737.41 -3.01979 -2.20816 0
M  V30 28688 H 2738.75 -3.96145 -2.92112 0
M  V30 28689 N 2740.4 0.725419 -1.39912 0
M  V30 28690 C 2741.36 1.82119 -1.3916 0
M  V30 28691 C 2742.36 1.58217 -0.287046 0
M  V30 28692 O 2743.55 1.6544 -0.54545 0
M  V30 28693 C 2740.68 3.2006 -1.17366 0
M  V30 28694 H 2741.88 1.84187 -2.36675 0
M  V30 28695 H 2739.43 0.930057 -1.25617 0
M  V30 28696 H 2740.16 3.23647 -0.205705 0
M  V30 28697 H 2739.95 3.38806 -1.97364 0
M  V30 28698 H 2741.44 4.00106 -1.19603 0
M  V30 28699 N 2741.88 1.25246 0.956615 0
M  V30 28700 C 2742.81 1.07935 2.07056 0
M  V30 28701 C 2743.79 -0.0110062 1.70096 0
M  V30 28702 O 2744.97 0.158155 1.93555 0
M  V30 28703 C 2742.1 0.695184 3.40271 0
M  V30 28704 C 2741.06 1.73555 3.91232 0
M  V30 28705 C 2740.38 1.20613 5.20919 0
M  V30 28706 C 2741.68 3.13392 4.17831 0
M  V30 28707 H 2743.38 2.01113 2.21797 0
M  V30 28708 H 2740.92 0.968345 1.06579 0
M  V30 28709 H 2742.87 0.561023 4.17649 0
M  V30 28710 H 2741.6 -0.272298 3.25463 0
M  V30 28711 H 2740.26 1.85812 3.16021 0
M  V30 28712 H 2739.91 0.228934 5.02479 0
M  V30 28713 H 2739.61 1.90146 5.55984 0
M  V30 28714 H 2741.13 1.08432 6.00895 0
M  V30 28715 H 2742.54 3.043 4.85875 0
M  V30 28716 H 2740.94 3.80377 4.64148 0
M  V30 28717 H 2742.01 3.60601 3.24183 0
M  V30 28718 N 2743.35 -1.15894 1.068 0
M  V30 28719 C 2744.63 -1.82604 0.70109 0
M  V30 28720 C 2745.01 -1.94648 -0.817032 0
M  V30 28721 O 2744.36 -1.49356 -1.7293 0
M  V30 28722 C 2744.57 -3.19293 1.409 0
M  V30 28723 C 2745.92 -3.95002 1.55751 0
M  V30 28724 O 2746.94 -3.28828 1.36933 0
M  V30 28725 O 2745.8 -5.13632 1.86667 0
M  V30 28726 H 2742.89 -0.788686 0.248805 0
M  V30 28727 H 2745.44 -1.23053 1.16859 0
M  V30 28728 H 2744.21 -3.05592 2.44396 0
M  V30 28729 H 2743.83 -3.86524 0.931915 0
M  V30 28730 N 2744.83 -0.851312 -1.32629 0
M  V30 28731 C 2745.76 -0.308812 -2.31449 0
M  V30 28732 C 2746.74 0.590227 -1.59532 0
M  V30 28733 O 2747.93 0.511172 -1.87352 0
M  V30 28734 C 2745.06 0.506488 -3.43587 0
M  V30 28735 C 2744.01 -0.297828 -4.26963 0
M  V30 28736 C 2743.34 0.642001 -5.30832 0
M  V30 28737 C 2744.64 -1.52174 -4.9964 0
M  V30 28738 H 2746.33 -1.13452 -2.77072 0
M  V30 28739 H 2743.88 -0.546995 -1.33206 0
M  V30 28740 H 2745.83 0.896402 -4.11756 0
M  V30 28741 H 2744.55 1.36553 -2.96683 0
M  V30 28742 H 2743.21 -0.669455 -3.60436 0
M  V30 28743 H 2742.86 1.49779 -4.80182 0
M  V30 28744 H 2742.56 0.107865 -5.87501 0
M  V30 28745 H 2744.09 1.02916 -6.01864 0
M  V30 28746 H 2745.5 -1.20431 -5.60508 0
M  V30 28747 H 2743.9 -1.99357 -5.66018 0
M  V30 28748 H 2744.97 -2.28481 -4.27697 0
M  V30 28749 N 2746.31 1.45361 -0.608928 0
M  V30 28750 C 2747.53 2.07112 -0.109246 0
M  V30 28751 C 2747.96 1.45035 1.19776 0
M  V30 28752 O 2747.32 0.543558 1.7296 0
M  V30 28753 C 2747.37 3.60597 0.0155111 0
M  V30 28754 O 2746.47 3.98401 1.06539 0
M  V30 28755 H 2745.81 0.659788 -0.0746735 0
M  V30 28756 H 2748.34 1.86592 -0.839316 0
M  V30 28757 H 2748.35 4.07442 0.213293 0
M  V30 28758 H 2747.03 4.05165 -0.938836 0
M  V30 28759 H 2745.6 3.63224 0.84396 0
M  V30 28760 N 2747.79 0.348166 1.53706 0
M  V30 28761 C 2749.02 -0.248188 2.05406 0
M  V30 28762 C 2749.43 -1.43847 1.22284 0
M  V30 28763 O 2748.79 -1.80649 0.259276 0
M  V30 28764 C 2748.84 -0.65873 3.55448 0
M  V30 28765 O 2748.56 0.484226 4.35416 0
M  V30 28766 C 2750.06 -1.31531 4.23337 0
M  V30 28767 H 2747.28 -0.0470958 0.669345 0
M  V30 28768 H 2749.82 0.501491 1.98256 0
M  V30 28769 H 2747.98 -1.35835 3.62805 0
M  V30 28770 H 2748.39 0.156041 5.24268 0
M  V30 28771 H 2749.87 -1.55329 5.29695 0
M  V30 28772 H 2750.34 -2.2703 3.75971 0
M  V30 28773 H 2750.95 -0.657609 4.20185 0
M  V30 28774 N 2749.27 -1.57412 0.0768958 0
M  V30 28775 C 2750.49 -1.98429 -0.603369 0
M  V30 28776 C 2750.92 -0.955137 -1.62046 0
M  V30 28777 O 2750.27 0.0786459 -1.81129 0
M  V30 28778 C 2750.32 -3.38466 -1.2439 0
M  V30 28779 O 2749.43 -3.38214 -2.35976 0
M  V30 28780 H 2748.77 -0.64572 -0.15473 0
M  V30 28781 H 2751.3 -2.04028 0.152921 0
M  V30 28782 H 2751.31 -3.75763 -1.58954 0
M  V30 28783 H 2749.98 -4.129 -0.498663 0
M  V30 28784 H 2748.56 -3.12693 -2.03168 0
M  V30 28785 N 2750.74 0.196695 -1.56368 0
M  V30 28786 C 2751.71 1.22743 -1.93563 0
M  V30 28787 C 2752.71 1.38522 -0.81659 0
M  V30 28788 O 2753.9 1.36362 -1.08403 0
M  V30 28789 C 2751.03 2.59708 -2.20827 0
M  V30 28790 H 2752.22 0.909536 -2.85775 0
M  V30 28791 H 2749.78 0.438148 -1.50033 0
M  V30 28792 H 2750.51 2.96554 -1.31248 0
M  V30 28793 H 2750.3 2.49626 -3.02372 0
M  V30 28794 H 2751.79 3.34039 -2.50614 0
M  V30 28795 N 2752.22 1.50604 0.464349 0
M  V30 28796 C 2753.47 1.6161 1.21353 0
M  V30 28797 C 2753.79 0.321677 1.92328 0
M  V30 28798 O 2753.06 -0.661199 1.84404 0
M  V30 28799 H 2751.64 0.595543 0.450929 0
M  V30 28800 H 2754.3 1.87413 0.535013 0
M  V30 28801 H 2753.4 2.43058 1.95779 0
M  V30 28802 N 2753.7 -0.717989 1.40295 0
M  V30 28803 C 2754.93 -1.50493 1.41547 0
M  V30 28804 C 2755.34 -1.89196 0.012821 0
M  V30 28805 O 2754.68 -1.55814 -0.973023 0
M  V30 28806 C 2754.74 -2.81163 2.24026 0
M  V30 28807 C 2754.41 -2.64796 3.72468 0
M  V30 28808 C 2755.4 -2.32214 4.65159 0
M  V30 28809 C 2753.09 -2.81136 4.16255 0
M  V30 28810 C 2755.08 -2.16178 5.99621 0
M  V30 28811 C 2752.77 -2.64717 5.50788 0
M  V30 28812 C 2753.77 -2.32286 6.42287 0
M  V30 28813 O 2753.46 -2.1599 7.74341 0
M  V30 28814 H 2753.19 -0.471082 0.484827 0
M  V30 28815 H 2755.74 -0.893456 1.8495 0
M  V30 28816 H 2753.97 -3.44633 1.75399 0
M  V30 28817 H 2755.66 -3.42867 2.17249 0
M  V30 28818 H 2756.43 -2.19226 4.32626 0
M  V30 28819 H 2752.31 -3.05367 3.45358 0
M  V30 28820 H 2755.85 -1.90787 6.71004 0
M  V30 28821 H 2751.75 -2.77289 5.82907 0
M  V30 28822 H 2752.52 -2.30928 7.85248 0
M  V30 28823 N 2755.18 -1.25752 -0.94996 0
M  V30 28824 C 2756.59 -1.09817 -1.50987 0
M  V30 28825 C 2756.94 0.324522 -1.93498 0
M  V30 28826 O 2756.07 1.21503 -1.7907 0
M  V30 28827 C 2756.66 -1.98734 -2.74391 0
M  V30 28828 C 2755.22 -1.86971 -3.26678 0
M  V30 28829 C 2754.37 -1.92606 -1.99495 0
M  V30 28830 H 2757.32 -1.3897 -0.766362 0
M  V30 28831 H 2757.34 -1.53007 -3.48381 0
M  V30 28832 H 2756.85 -3.02272 -2.4342 0
M  V30 28833 H 2754.95 -0.863343 -3.6246 0
M  V30 28834 H 2755.06 -2.72034 -3.94379 0
M  V30 28835 H 2753.43 -1.3655 -2.15003 0
M  V30 28836 H 2754.21 -2.97758 -1.70866 0
M  V30 28837 N 2756.66 1.15326 -1.07413 0
M  V30 28838 C 2757.89 1.89732 -0.817628 0
M  V30 28839 C 2758.29 1.78299 0.632939 0
M  V30 28840 O 2757.64 1.13308 1.44592 0
M  V30 28841 C 2757.7 3.40693 -1.14754 0
M  V30 28842 C 2757.36 3.75912 -2.59883 0
M  V30 28843 C 2758.36 3.76882 -3.58128 0
M  V30 28844 C 2756.05 4.06201 -2.95476 0
M  V30 28845 C 2758.04 4.07646 -4.90003 0
M  V30 28846 C 2755.73 4.3663 -4.27548 0
M  V30 28847 C 2756.72 4.37335 -5.24621 0
M  V30 28848 O 2756.41 4.67033 -6.5432 0
M  V30 28849 H 2756.14 0.608146 -0.295186 0
M  V30 28850 H 2758.7 1.47045 -1.43412 0
M  V30 28851 H 2756.93 3.83784 -0.474017 0
M  V30 28852 H 2758.62 3.9639 -0.873467 0
M  V30 28853 H 2759.38 3.53581 -3.31972 0
M  V30 28854 H 2755.26 4.04811 -2.20566 0
M  V30 28855 H 2758.81 4.08111 -5.65766 0
M  V30 28856 H 2754.7 4.59399 -4.53457 0
M  V30 28857 H 2755.47 4.84795 -6.59481 0
M  V30 28858 N 2758.13 0.858334 1.32176 0
M  V30 28859 C 2759.38 0.464205 1.97416 0
M  V30 28860 C 2759.71 -0.978484 1.67748 0
M  V30 28861 O 2758.99 -1.68719 0.967684 0
M  V30 28862 C 2759.27 0.708156 3.53068 0
M  V30 28863 C 2759.12 2.19953 3.92353 0
M  V30 28864 C 2760.44 0.166958 4.39783 0
M  V30 28865 H 2757.56 0.170132 0.717094 0
M  V30 28866 H 2760.2 1.07743 1.56497 0
M  V30 28867 H 2758.35 0.186197 3.88054 0
M  V30 28868 H 2760.03 2.78785 3.67528 0
M  V30 28869 H 2758.27 2.67662 3.41379 0
M  V30 28870 H 2758.94 2.32091 5.00837 0
M  V30 28871 H 2761.42 0.613358 4.11555 0
M  V30 28872 H 2760.29 0.367189 5.4767 0
M  V30 28873 H 2760.55 -0.930483 4.32197 0
M  V30 28874 N 2759.61 -1.45036 0.616628 0
M  V30 28875 C 2760.58 -2.29035 -0.087071 0
M  V30 28876 C 2761.58 -1.40259 -0.78639 0
M  V30 28877 O 2762.77 -1.62285 -0.633178 0
M  V30 28878 C 2759.9 -3.21499 -1.13364 0
M  V30 28879 H 2761.09 -2.92737 0.651549 0
M  V30 28880 H 2758.64 -1.51708 0.376085 0
M  V30 28881 H 2759.38 -2.62616 -1.90272 0
M  V30 28882 H 2759.16 -3.86903 -0.63629 0
M  V30 28883 H 2760.65 -3.84635 -1.6262 0
M  V30 28884 N 2761.09 -0.356312 -1.53519 0
M  V30 28885 C 2762.02 0.537874 -2.2177 0
M  V30 28886 C 2763 1.0903 -1.20628 0
M  V30 28887 O 2764.19 1.14818 -1.49496 0
M  V30 28888 C 2761.31 1.74121 -2.90516 0
M  V30 28889 C 2760.36 1.31708 -4.05654 0
M  V30 28890 S 2761.19 0.326142 -5.34506 0
M  V30 28891 C 2762.35 1.53602 -6.0676 0
M  V30 28892 H 2762.58 -0.0417934 -2.97271 0
M  V30 28893 H 2760.11 -0.140399 -1.5376 0
M  V30 28894 H 2762.07 2.4315 -3.30739 0
M  V30 28895 H 2760.73 2.29211 -2.14758 0
M  V30 28896 H 2759.93 2.21463 -4.52736 0
M  V30 28897 H 2759.53 0.706119 -3.67274 0
M  V30 28898 H 2761.82 2.46852 -6.30928 0
M  V30 28899 H 2762.76 1.10675 -6.99397 0
M  V30 28900 H 2763.17 1.73786 -5.37083 0
M  V30 28901 N 2762.57 1.57369 -0.0852427 0
M  V30 28902 C 2763.82 1.9361 0.579624 0
M  V30 28903 C 2764.14 0.967072 1.6933 0
M  V30 28904 O 2763.41 0.0174559 1.95892 0
M  V30 28905 H 2761.99 0.714756 0.217101 0
M  V30 28906 H 2764.65 1.9435 -0.14626 0
M  V30 28907 H 2763.75 2.95773 0.996224 0
M  V30 28908 N 2764.05 -0.188399 1.5647 0
M  V30 28909 C 2764.99 -1.23346 1.95076 0
M  V30 28910 C 2765.96 -1.44884 0.812264 0
M  V30 28911 O 2767.15 -1.57907 1.07098 0
M  V30 28912 C 2764.29 -2.57167 2.30128 0
M  V30 28913 C 2763.4 -2.43151 3.57074 0
M  V30 28914 C 2762.54 -3.69722 3.81417 0
M  V30 28915 C 2761.58 -3.50566 5.01766 0
M  V30 28916 N 2760.71 -4.69165 5.2233 0
M  V30 28917 H 2765.55 -0.89723 2.84172 0
M  V30 28918 H 2763.09 -0.431659 1.40624 0
M  V30 28919 H 2765.05 -3.3514 2.48469 0
M  V30 28920 H 2763.68 -2.88819 1.44164 0
M  V30 28921 H 2762.73 -1.56441 3.46743 0
M  V30 28922 H 2764.04 -2.24934 4.45204 0
M  V30 28923 H 2763.2 -4.56134 4.00034 0
M  V30 28924 H 2761.93 -3.909 2.9163 0
M  V30 28925 H 2760.94 -2.6254 4.83066 0
M  V30 28926 H 2762.16 -3.30827 5.93069 0
M  V30 28927 H 2760.11 -4.90595 4.35491 0
M  V30 28928 H 2760.03 -4.53798 6.04651 0
M  V30 28929 H 2761.3 -5.56909 5.4541 0
M  V30 28930 N 2765.53 -1.50848 -0.456355 0
M  V30 28931 C 2766.47 -1.70785 -1.55246 0
M  V30 28932 C 2767.44 -0.549259 -1.56756 0
M  V30 28933 O 2768.63 -0.78153 -1.7406 0
M  V30 28934 C 2765.77 -1.82148 -2.93114 0
M  V30 28935 C 2764.88 -3.09604 -3.0128 0
M  V30 28936 C 2764.02 -3.11675 -4.30154 0
M  V30 28937 C 2763.05 -4.33523 -4.32116 0
M  V30 28938 N 2762.19 -4.3325 -5.52484 0
M  V30 28939 H 2767.03 -2.64356 -1.3755 0
M  V30 28940 H 2764.57 -1.31031 -0.66852 0
M  V30 28941 H 2766.53 -1.86718 -3.73085 0
M  V30 28942 H 2765.16 -0.920033 -3.09411 0
M  V30 28943 H 2764.21 -3.14435 -2.1409 0
M  V30 28944 H 2765.52 -3.99557 -2.9859 0
M  V30 28945 H 2764.67 -3.15055 -5.18484 0
M  V30 28946 H 2763.41 -2.19577 -4.35473 0
M  V30 28947 H 2762.42 -4.30339 -3.42182 0
M  V30 28948 H 2763.64 -5.26864 -4.28476 0
M  V30 28949 H 2761.59 -3.44014 -5.58561 0
M  V30 28950 H 2761.51 -5.16989 -5.51596 0
M  V30 28951 H 2762.77 -4.40797 -6.42898 0
M  V30 28952 N 2767 0.710538 -1.40674 0
M  V30 28953 C 2767.95 1.8246 -1.4134 0
M  V30 28954 C 2768.92 1.63896 -0.269676 0
M  V30 28955 O 2770.11 1.84959 -0.468496 0
M  V30 28956 C 2767.25 3.20215 -1.28671 0
M  V30 28957 C 2766.36 3.50316 -2.5279 0
M  V30 28958 C 2765.49 4.77604 -2.32526 0
M  V30 28959 C 2764.53 5.00624 -3.52196 0
M  V30 28960 N 2763.67 6.19129 -3.31095 0
M  V30 28961 H 2768.51 1.81226 -2.36561 0
M  V30 28962 H 2766.05 0.885205 -1.17484 0
M  V30 28963 H 2768 3.9977 -1.19331 0
M  V30 28964 H 2766.63 3.20665 -0.370658 0
M  V30 28965 H 2765.69 2.65278 -2.72638 0
M  V30 28966 H 2767 3.63235 -3.41851 0
M  V30 28967 H 2766.15 5.65186 -2.20568 0
M  V30 28968 H 2764.89 4.66904 -1.40898 0
M  V30 28969 H 2763.9 4.11496 -3.64625 0
M  V30 28970 H 2765.12 5.13193 -4.44758 0
M  V30 28971 H 2763.07 6.0967 -2.42154 0
M  V30 28972 H 2762.98 6.32747 -4.13724 0
M  V30 28973 H 2764.25 7.09485 -3.2288 0
M  V30 28974 N 2768.48 1.26254 0.943277 0
M  V30 28975 C 2769.9 1.03321 1.21643 0
M  V30 28976 C 2770.1 -0.242948 2.0003 0
M  V30 28977 O 2769.15 -0.952647 2.33839 0
M  V30 28978 C 2770.47 2.26333 1.97974 0
M  V30 28979 C 2772.01 2.31212 2.10974 0
M  V30 28980 C 2772.49 3.53912 2.90707 0
M  V30 28981 N 2773.98 3.54376 2.98281 0
M  V30 28982 C 2774.72 4.45983 3.60398 0
M  V30 28983 N 2774.21 5.47875 4.24034 0
M  V30 28984 N 2776 4.33639 3.5765 0
M  V30 28985 H 2768.16 2.08222 0.419184 0
M  V30 28986 H 2770.42 0.914992 0.247979 0
M  V30 28987 H 2770.12 3.19144 1.47783 0
M  V30 28988 H 2770 2.30413 2.98646 0
M  V30 28989 H 2772.39 1.38917 2.60358 0
M  V30 28990 H 2772.47 2.31145 1.09571 0
M  V30 28991 H 2772.11 4.46535 2.4201 0
M  V30 28992 H 2772.04 3.51227 3.92361 0
M  V30 28993 H 2774.53 2.80677 2.53039 0
M  V30 28994 H 2774.84 6.13967 4.69323 0
M  V30 28995 H 2773.19 5.51735 4.22627 0
M  V30 28996 H 2776.38 3.53256 3.07128 0
M  V30 28997 H 2776.55 5.05225 4.05773 0
M  V30 28998 N 2769.96 -1.14755 1.08024 0
M  V30 28999 C 2771.24 -1.8185 0.720418 0
M  V30 29000 C 2771.62 -1.95504 -0.796341 0
M  V30 29001 O 2770.96 -1.51182 -1.71337 0
M  V30 29002 C 2771.17 -3.17781 1.44279 0
M  V30 29003 C 2772.52 -3.93328 1.59932 0
M  V30 29004 O 2773.55 -3.27357 1.40412 0
M  V30 29005 O 2772.41 -5.11623 1.92105 0
M  V30 29006 H 2769.5 -0.786003 0.257156 0
M  V30 29007 H 2772.05 -1.21807 1.18158 0
M  V30 29008 H 2770.82 -3.02983 2.47623 0
M  V30 29009 H 2770.44 -3.85514 0.972858 0
M  V30 29010 N 2771.44 -0.865331 -1.31719 0
M  V30 29011 C 2772.69 -0.470132 -1.96144 0
M  V30 29012 C 2773 0.981644 -1.69184 0
M  V30 29013 O 2774.21 1.48277 -2.27434 0
M  V30 29014 C 2772.66 -0.789794 -3.51127 0
M  V30 29015 C 2772.27 -2.25802 -3.86934 0
M  V30 29016 C 2774.01 -0.462839 -4.21969 0
M  V30 29017 C 2771.92 -2.52034 -5.35007 0
M  V30 29018 H 2770.85 -0.172078 -0.734102 0
M  V30 29019 H 2773.5 -1.05759 -1.49957 0
M  V30 29020 H 2771.88 -0.131641 -3.95781 0
M  V30 29021 H 2773.06 -2.95885 -3.53255 0
M  V30 29022 H 2771.37 -2.55055 -3.29144 0
M  V30 29023 H 2773.97 -0.636113 -5.30903 0
M  V30 29024 H 2774.31 0.596378 -4.12006 0
M  V30 29025 H 2774.85 -1.07734 -3.82934 0
M  V30 29026 H 2771.58 -3.56621 -5.50002 0
M  V30 29027 H 2771.1 -1.8654 -5.70055 0
M  V30 29028 H 2772.78 -2.36526 -6.02216 0
M  V30 29029 N 2772.92 1.44707 -0.624311 0
M  V30 29030 C 2773.85 2.3339 0.0716615 0
M  V30 29031 C 2774.83 1.4781 0.841788 0
M  V30 29032 O 2776.01 1.76546 0.809025 0
M  V30 29033 C 2773.14 3.30778 1.05846 0
M  V30 29034 C 2772.1 4.26123 0.400428 0
M  V30 29035 C 2771.42 5.13327 1.49665 0
M  V30 29036 C 2772.72 5.17735 -0.689015 0
M  V30 29037 H 2774.42 2.91833 -0.668871 0
M  V30 29038 H 2771.96 1.40328 -0.323105 0
M  V30 29039 H 2773.91 3.91699 1.55403 0
M  V30 29040 H 2772.64 2.70529 1.8298 0
M  V30 29041 H 2771.3 3.66524 -0.0744332 0
M  V30 29042 H 2770.95 4.49435 2.25869 0
M  V30 29043 H 2770.65 5.77927 1.06177 0
M  V30 29044 H 2772.17 5.77118 1.99417 0
M  V30 29045 H 2773.58 5.72631 -0.276825 0
M  V30 29046 H 2771.98 5.90902 -1.04663 0
M  V30 29047 H 2773.05 4.59158 -1.55892 0
M  V30 29048 N 2774.39 0.364449 1.53328 0
M  V30 29049 C 2775.34 -0.497697 2.27213 0
M  V30 29050 C 2776.34 -1.08434 1.30147 0
M  V30 29051 O 2777.54 -1.02767 1.4778 0
M  V30 29052 H 2773.92 -0.179219 0.730332 0
M  V30 29053 H 2775.89 0.147235 2.98037 0
M  V30 29054 C 2774.64 -1.62604 3.07335 0
M  V30 29055 H 2773.96 -1.18393 3.81868 0
M  V30 29056 H 2775.4 -2.20403 3.62213 0
M  V30 29057 C 2773.86 -2.56771 2.18106 0
M  V30 29058 O 2774.39 -3.59559 1.7911 0
M  V30 29059 N 2772.59 -2.25934 1.82763 0
M  V30 29060 H 2772.14 -1.42384 2.14673 0
M  V30 29061 H 2772.1 -2.89194 1.23347 0
M  V30 29062 N 2775.87 -1.57322 0.0935872 0
M  V30 29063 C 2776.82 -2.13941 -0.865897 0
M  V30 29064 C 2777.79 -1.05756 -1.28081 0
M  V30 29065 O 2778.97 -1.33535 -1.36283 0
M  V30 29066 C 2776.11 -2.72291 -2.12018 0
M  V30 29067 C 2775.23 -3.94704 -1.75593 0
M  V30 29068 C 2774.36 -4.41224 -2.95796 0
M  V30 29069 C 2773.4 -5.56229 -2.55491 0
M  V30 29070 N 2772.54 -5.97608 -3.68523 0
M  V30 29071 H 2777.38 -2.95616 -0.376209 0
M  V30 29072 H 2774.91 -1.46067 -0.174026 0
M  V30 29073 H 2776.87 -3.0424 -2.85471 0
M  V30 29074 H 2775.5 -1.93347 -2.58489 0
M  V30 29075 H 2774.55 -3.69079 -0.921143 0
M  V30 29076 H 2775.87 -4.78174 -1.41955 0
M  V30 29077 H 2775.02 -4.74948 -3.77504 0
M  V30 29078 H 2773.76 -3.56651 -3.32643 0
M  V30 29079 H 2772.76 -5.22134 -1.72209 0
M  V30 29080 H 2773.99 -6.42549 -2.19789 0
M  V30 29081 H 2771.94 -5.15982 -4.05091 0
M  V30 29082 H 2771.85 -6.75871 -3.38725 0
M  V30 29083 H 2773.12 -6.35962 -4.50746 0
M  V30 29084 N 2777.35 0.180099 -1.56568 0
M  V30 29085 C 2778.28 1.24748 -1.92277 0
M  V30 29086 C 2779.29 1.40934 -0.814947 0
M  V30 29087 O 2780.48 1.41093 -1.09338 0
M  V30 29088 C 2777.58 2.61748 -2.1527 0
M  V30 29089 C 2776.76 2.66975 -3.46472 0
M  V30 29090 C 2775.82 3.85276 -3.58397 0
M  V30 29091 O 2774.84 3.71682 -4.31093 0
M  V30 29092 N 2776.04 5.01366 -2.92595 0
M  V30 29093 H 2778.81 0.944252 -2.84436 0
M  V30 29094 H 2776.37 0.369925 -1.57617 0
M  V30 29095 H 2778.36 3.39341 -2.20521 0
M  V30 29096 H 2776.93 2.84497 -1.29538 0
M  V30 29097 H 2776.15 1.75543 -3.52956 0
M  V30 29098 H 2777.44 2.67471 -4.32824 0
M  V30 29099 H 2776.84 5.15312 -2.33389 0
M  V30 29100 H 2775.39 5.76853 -3.03454 0
M  V30 29101 N 2778.83 1.51088 0.448349 0
M  V30 29102 C 2780.06 1.67002 1.2214 0
M  V30 29103 C 2780.47 0.362731 1.85283 0
M  V30 29104 O 2779.83 -0.65769 1.70237 0
M  V30 29105 C 2779.88 2.77774 2.31352 0
M  V30 29106 O 2779.6 4.03437 1.70794 0
M  V30 29107 C 2781.1 3.04861 3.2183 0
M  V30 29108 H 2778.32 0.560725 0.368549 0
M  V30 29109 H 2780.86 1.97443 0.532584 0
M  V30 29110 H 2779.02 2.49963 2.95969 0
M  V30 29111 H 2779.43 4.64872 2.42887 0
M  V30 29112 H 2780.91 3.85978 3.9462 0
M  V30 29113 H 2781.38 2.16828 3.81945 0
M  V30 29114 H 2781.99 3.3429 2.62927 0
M  V30 29115 N 2780.31 -0.703068 1.41049 0
M  V30 29116 C 2781.72 -1.01273 1.23353 0
M  V30 29117 C 2781.92 -2.01157 0.117575 0
M  V30 29118 O 2780.98 -2.47078 -0.520475 0
M  V30 29119 C 2782.29 -1.54449 2.58004 0
M  V30 29120 C 2783.84 -1.66371 2.65122 0
M  V30 29121 C 2784.31 -2.22951 4.00071 0
M  V30 29122 N 2785.81 -2.30321 4.01879 0
M  V30 29123 C 2786.54 -2.75111 5.03092 0
M  V30 29124 N 2786.04 -3.1956 6.14698 0
M  V30 29125 N 2787.83 -2.74607 4.90456 0
M  V30 29126 H 2779.98 -0.0412313 2.1236 0
M  V30 29127 H 2782.24 -0.0808734 0.944544 0
M  V30 29128 H 2781.95 -0.88515 3.40379 0
M  V30 29129 H 2781.82 -2.52781 2.79967 0
M  V30 29130 H 2784.21 -2.31419 1.8311 0
M  V30 29131 H 2784.29 -0.666046 2.46977 0
M  V30 29132 H 2783.94 -1.58521 4.82528 0
M  V30 29133 H 2783.87 -3.23455 4.15553 0
M  V30 29134 H 2786.36 -1.98943 3.21294 0
M  V30 29135 H 2786.67 -3.5234 6.87805 0
M  V30 29136 H 2785.01 -3.17488 6.18245 0
M  V30 29137 H 2788.21 -2.39225 4.02354 0
M  V30 29138 H 2788.38 -3.09196 5.69475 0
M  V30 29139 N 2781.78 -1.26752 -0.936569 0
M  V30 29140 C 2783.06 -1.03309 -1.66092 0
M  V30 29141 C 2783.44 0.435021 -2.06569 0
M  V30 29142 O 2782.79 1.41637 -1.79307 0
M  V30 29143 C 2783 -1.98624 -2.86966 0
M  V30 29144 C 2784.35 -2.27495 -3.58512 0
M  V30 29145 O 2785.37 -1.96527 -2.97078 0
M  V30 29146 O 2784.23 -2.80243 -4.69176 0
M  V30 29147 H 2781.32 -0.393171 -0.727561 0
M  V30 29148 H 2783.87 -1.37981 -0.98789 0
M  V30 29149 H 2782.64 -2.97674 -2.5398 0
M  V30 29150 H 2782.27 -1.6446 -3.61993 0
M  V30 29151 N 2783.26 1.1418 -1.08631 0
M  V30 29152 C 2784.49 1.89129 -0.838923 0
M  V30 29153 C 2784.91 1.78704 0.609121 0
M  V30 29154 O 2784.26 1.14796 1.41874 0
M  V30 29155 C 2784.31 3.39023 -1.25483 0
M  V30 29156 O 2784.03 3.49163 -2.64607 0
M  V30 29157 C 2785.54 4.30961 -1.03864 0
M  V30 29158 H 2782.76 0.599001 -0.302388 0
M  V30 29159 H 2785.3 1.44589 -1.44617 0
M  V30 29160 H 2783.45 3.81176 -0.691638 0
M  V30 29161 H 2783.87 4.42284 -2.8193 0
M  V30 29162 H 2785.34 5.34497 -1.37901 0
M  V30 29163 H 2785.82 4.39193 0.024175 0
M  V30 29164 H 2786.43 3.94566 -1.58738 0
M  V30 29165 N 2784.74 0.872304 1.31258 0
M  V30 29166 C 2785.69 0.327897 2.28459 0
M  V30 29167 C 2786.66 -0.57493 1.55832 0
M  V30 29168 O 2787.84 -0.506069 1.83966 0
M  V30 29169 C 2784.98 -0.462584 3.41986 0
M  V30 29170 C 2784.1 0.468024 4.29457 0
M  V30 29171 C 2783.23 -0.33681 5.30131 0
M  V30 29172 C 2782.27 0.590077 6.09249 0
M  V30 29173 N 2781.41 -0.178651 7.01873 0
M  V30 29174 H 2786.25 1.16198 2.74412 0
M  V30 29175 H 2783.78 0.5844 1.34993 0
M  V30 29176 H 2785.74 -0.936688 4.06549 0
M  V30 29177 H 2784.37 -1.26135 2.97136 0
M  V30 29178 H 2783.42 1.06058 3.65316 0
M  V30 29179 H 2784.74 1.17864 4.84675 0
M  V30 29180 H 2783.89 -0.873322 6.00382 0
M  V30 29181 H 2782.63 -1.08071 4.75575 0
M  V30 29182 H 2781.63 1.13833 5.37887 0
M  V30 29183 H 2782.86 1.33287 6.65891 0
M  V30 29184 H 2780.8 -0.90532 6.49723 0
M  V30 29185 H 2780.72 0.472585 7.54521 0
M  V30 29186 H 2781.99 -0.696318 7.76384 0
M  V30 29187 N 2786.22 -1.44374 0.631976 0
M  V30 29188 C 2787.13 -2.34484 -0.0736328 0
M  V30 29189 C 2788.14 -1.52667 -0.834798 0
M  V30 29190 O 2789.32 -1.85392 -0.786869 0
M  V30 29191 C 2786.39 -3.30658 -1.04241 0
M  V30 29192 C 2785.45 -4.28382 -0.280527 0
M  V30 29193 C 2784.68 -5.19961 -1.20316 0
M  V30 29194 O 2784.9 -5.15488 -2.44189 0
M  V30 29195 O 2783.84 -5.97966 -0.687023 0
M  V30 29196 H 2787.66 -2.96273 0.667529 0
M  V30 29197 H 2785.25 -1.44161 0.392169 0
M  V30 29198 H 2787.13 -3.89854 -1.59974 0
M  V30 29199 H 2785.8 -2.71401 -1.76417 0
M  V30 29200 H 2784.71 -3.7273 0.31987 0
M  V30 29201 H 2786.04 -4.90562 0.40123 0
M  V30 29202 N 2787.7 -0.372575 -1.53133 0
M  V30 29203 C 2788.63 0.514322 -2.22329 0
M  V30 29204 C 2789.61 1.07745 -1.21778 0
M  V30 29205 O 2790.79 1.13226 -1.50706 0
M  V30 29206 C 2787.92 1.7103 -2.92346 0
M  V30 29207 C 2786.96 1.27398 -4.07028 0
M  V30 29208 S 2787.8 0.269432 -5.34822 0
M  V30 29209 C 2788.95 1.47158 -6.08355 0
M  V30 29210 H 2789.19 -0.0733205 -2.9721 0
M  V30 29211 H 2786.72 -0.1567 -1.53603 0
M  V30 29212 H 2788.68 2.39628 -3.333 0
M  V30 29213 H 2787.34 2.26921 -2.17177 0
M  V30 29214 H 2786.53 2.16648 -4.5506 0
M  V30 29215 H 2786.13 0.667125 -3.68002 0
M  V30 29216 H 2788.43 2.40146 -6.33511 0
M  V30 29217 H 2789.37 1.03251 -7.00532 0
M  V30 29218 H 2789.78 1.6808 -5.38896 0
M  V30 29219 N 2789.17 1.5727 -0.101929 0
M  V30 29220 C 2790.11 2.11438 0.884685 0
M  V30 29221 C 2791.12 1.05316 1.24147 0
M  V30 29222 O 2792.31 1.32742 1.19339 0
M  V30 29223 C 2789.41 2.58488 2.19174 0
M  V30 29224 C 2788.58 3.8852 2.00926 0
M  V30 29225 C 2787.64 4.21346 3.15205 0
M  V30 29226 O 2786.67 4.90453 2.88868 0
M  V30 29227 N 2787.87 3.77295 4.41167 0
M  V30 29228 H 2790.63 2.96714 0.422006 0
M  V30 29229 H 2788.19 1.61687 0.0829844 0
M  V30 29230 H 2790.19 2.77489 2.94588 0
M  V30 29231 H 2788.76 1.78185 2.56844 0
M  V30 29232 H 2787.98 3.78599 1.09803 0
M  V30 29233 H 2789.26 4.73577 1.86018 0
M  V30 29234 H 2788.66 3.21524 4.65445 0
M  V30 29235 H 2787.22 4.01438 5.13508 0
M  V30 29236 N 2790.65 -0.171793 1.56661 0
M  V30 29237 C 2792.07 -0.523544 1.50769 0
M  V30 29238 C 2792.27 -1.84673 0.806105 0
M  V30 29239 O 2791.32 -2.49829 0.366277 0
M  V30 29240 C 2792.64 -0.556741 2.95501 0
M  V30 29241 C 2794.19 -0.643975 3.06304 0
M  V30 29242 C 2794.66 -0.708069 4.52494 0
M  V30 29243 N 2796.15 -0.770971 4.56739 0
M  V30 29244 C 2796.89 -0.841129 5.67197 0
M  V30 29245 N 2796.38 -0.872151 6.87288 0
M  V30 29246 N 2798.18 -0.880112 5.55167 0
M  V30 29247 H 2790.33 0.695853 2.00678 0
M  V30 29248 H 2792.59 0.25083 0.914215 0
M  V30 29249 H 2792.3 0.346835 3.49986 0
M  V30 29250 H 2792.17 -1.40339 3.50121 0
M  V30 29251 H 2794.56 -1.53798 2.51854 0
M  V30 29252 H 2794.64 0.229342 2.5477 0
M  V30 29253 H 2794.28 0.181674 5.07575 0
M  V30 29254 H 2794.21 -1.59752 5.01784 0
M  V30 29255 H 2796.7 -0.755299 3.70275 0
M  V30 29256 H 2797.02 -0.926845 7.67222 0
M  V30 29257 H 2795.36 -0.840436 6.899 0
M  V30 29258 H 2798.55 -0.852875 4.60265 0
M  V30 29259 H 2798.72 -0.931327 6.41272 0
M  V30 29260 N 2792.13 -1.51324 -0.44033 0
M  V30 29261 C 2793.06 -1.75367 -1.54171 0
M  V30 29262 C 2794.04 -0.603403 -1.59038 0
M  V30 29263 O 2795.23 -0.845804 -1.74814 0
M  V30 29264 C 2792.36 -1.87598 -2.92274 0
M  V30 29265 C 2791.31 -3.03014 -3.02269 0
M  V30 29266 C 2790.64 -3.00425 -4.42322 0
M  V30 29267 C 2791.94 -4.43029 -2.76627 0
M  V30 29268 H 2793.63 -2.67588 -1.34302 0
M  V30 29269 H 2791.18 -1.28764 -0.644656 0
M  V30 29270 H 2793.13 -2.03002 -3.69281 0
M  V30 29271 H 2791.85 -0.920234 -3.13368 0
M  V30 29272 H 2790.51 -2.87311 -2.27701 0
M  V30 29273 H 2790.16 -2.02634 -4.60379 0
M  V30 29274 H 2789.86 -3.77926 -4.49939 0
M  V30 29275 H 2791.38 -3.17918 -5.21306 0
M  V30 29276 H 2792.8 -4.59099 -3.43368 0
M  V30 29277 H 2791.2 -5.22213 -2.95657 0
M  V30 29278 H 2792.27 -4.53273 -1.72254 0
M  V30 29279 N 2793.61 0.695578 -1.41419 0
M  V30 29280 C 2794.54 1.82195 -1.46039 0
M  V30 29281 C 2795.52 1.67081 -0.319054 0
M  V30 29282 O 2796.7 1.86814 -0.530495 0
M  V30 29283 C 2793.83 3.20331 -1.34184 0
M  V30 29284 C 2792.79 3.50149 -2.46129 0
M  V30 29285 C 2792.11 4.87641 -2.1934 0
M  V30 29286 C 2793.41 3.49126 -3.88469 0
M  V30 29287 H 2795.11 1.78587 -2.40306 0
M  V30 29288 H 2792.65 0.857777 -1.15664 0
M  V30 29289 H 2794.61 3.98841 -1.36028 0
M  V30 29290 H 2793.33 3.24565 -0.364009 0
M  V30 29291 H 2791.99 2.7399 -2.43568 0
M  V30 29292 H 2791.64 4.88501 -1.199 0
M  V30 29293 H 2791.34 5.08557 -2.94353 0
M  V30 29294 H 2792.86 5.68461 -2.22899 0
M  V30 29295 H 2794.28 4.17641 -3.92745 0
M  V30 29296 H 2792.67 3.81574 -4.63164 0
M  V30 29297 H 2793.74 2.48102 -4.16622 0
M  V30 29298 N 2795.09 1.27247 0.929833 0
M  V30 29299 C 2796.36 1.04189 1.65542 0
M  V30 29300 C 2796.74 -0.42406 2.06797 0
M  V30 29301 O 2796.09 -1.40684 1.80056 0
M  V30 29302 C 2796.3 2.00143 2.85909 0
M  V30 29303 C 2797.65 2.29393 3.57301 0
M  V30 29304 O 2798.67 1.981 2.96032 0
M  V30 29305 O 2797.53 2.82728 4.67683 0
M  V30 29306 H 2794.63 0.397024 0.725466 0
M  V30 29307 H 2797.17 1.38503 0.980559 0
M  V30 29308 H 2795.95 2.99017 2.52398 0
M  V30 29309 H 2795.57 1.66377 3.61115 0
M  V30 29310 N 2796.57 -1.13603 1.09235 0
M  V30 29311 C 2797.79 -1.88681 0.848941 0
M  V30 29312 C 2798.21 -1.79025 -0.599635 0
M  V30 29313 O 2797.57 -1.15547 -1.41263 0
M  V30 29314 C 2797.62 -3.38352 1.27279 0
M  V30 29315 O 2797.34 -3.47755 2.66455 0
M  V30 29316 C 2798.84 -4.30404 1.06148 0
M  V30 29317 H 2796.06 -0.597389 0.30556 0
M  V30 29318 H 2798.6 -1.4382 1.45382 0
M  V30 29319 H 2796.76 -3.80804 0.711843 0
M  V30 29320 H 2797.17 -4.40783 2.84272 0
M  V30 29321 H 2798.65 -5.33758 1.40734 0
M  V30 29322 H 2799.12 -4.392 -0.000883131 0
M  V30 29323 H 2799.73 -3.93719 1.60828 0
M  V30 29324 N 2798.04 -0.879253 -1.30793 0
M  V30 29325 C 2799.27 -0.508845 -2.00236 0
M  V30 29326 C 2799.68 0.905653 -1.66116 0
M  V30 29327 O 2799.02 1.60623 -0.891408 0
M  V30 29328 C 2799.09 -0.597065 -3.54507 0
M  V30 29329 C 2798.75 -1.97484 -4.12127 0
M  V30 29330 C 2799.75 -2.94353 -4.28547 0
M  V30 29331 C 2797.43 -2.27868 -4.4764 0
M  V30 29332 C 2799.43 -4.19743 -4.79682 0
M  V30 29333 C 2797.11 -3.53505 -4.98475 0
M  V30 29334 C 2798.11 -4.49257 -5.14448 0
M  V30 29335 O 2797.8 -5.72666 -5.64188 0
M  V30 29336 H 2797.53 -0.1958 -0.647023 0
M  V30 29337 H 2800.09 -1.18483 -1.67782 0
M  V30 29338 H 2798.32 0.135877 -3.86461 0
M  V30 29339 H 2800 -0.238756 -4.05197 0
M  V30 29340 H 2800.77 -2.7219 -4.01419 0
M  V30 29341 H 2796.65 -1.54109 -4.34478 0
M  V30 29342 H 2800.19 -4.94488 -4.92064 0
M  V30 29343 H 2796.09 -3.75507 -5.25038 0
M  V30 29344 H 2796.86 -5.74968 -5.82541 0
M  V30 29345 N 2799.52 1.44037 -0.639624 0
M  V30 29346 C 2800.77 2.01563 -0.147224 0
M  V30 29347 C 2801.09 1.5063 1.23837 0
M  V30 29348 O 2800.36 0.713348 1.8245 0
M  V30 29349 H 2798.94 0.745227 -0.0514362 0
M  V30 29350 H 2801.6 1.76426 -0.828236 0
M  V30 29351 H 2800.7 3.11864 -0.121412 0
M  V30 29352 N 2801 0.380691 1.52933 0
M  V30 29353 C 2802.25 -0.205442 2.00651 0
M  V30 29354 C 2802.56 -1.4862 1.27167 0
M  V30 29355 O 2803.77 -2.15186 1.65551 0
M  V30 29356 C 2802.22 -0.416663 3.5748 0
M  V30 29357 C 2801.83 0.850346 4.39856 0
M  V30 29358 C 2803.58 -0.959629 4.13511 0
M  V30 29359 C 2801.48 0.607877 5.88268 0
M  V30 29360 H 2800.41 -0.0805482 0.749685 0
M  V30 29361 H 2803.06 0.501763 1.76507 0
M  V30 29362 H 2801.45 -1.1855 3.77838 0
M  V30 29363 H 2802.62 1.62314 4.31266 0
M  V30 29364 H 2800.93 1.31763 3.95003 0
M  V30 29365 H 2803.53 -1.1566 5.22041 0
M  V30 29366 H 2803.87 -1.9262 3.69057 0
M  V30 29367 H 2804.41 -0.250576 3.9701 0
M  V30 29368 H 2801.15 1.5452 6.37027 0
M  V30 29369 H 2800.67 -0.126141 5.99667 0
M  V30 29370 H 2802.35 0.239128 6.46558 0
M  V30 29371 N 2802.48 -1.57214 0.110268 0
M  V30 29372 C 2803.43 -2.16096 -0.860548 0
M  V30 29373 C 2804.42 -1.10783 -1.28155 0
M  V30 29374 O 2805.63 -1.29102 -1.2543 0
M  V30 29375 H 2802 -0.691468 -0.295594 0
M  V30 29376 H 2803.97 -2.96464 -0.339368 0
M  V30 29377 C 2802.72 -2.76803 -2.10417 0
M  V30 29378 H 2802.04 -3.57533 -1.78913 0
M  V30 29379 H 2803.48 -3.21552 -2.7637 0
M  V30 29380 C 2801.94 -1.73449 -2.8882 0
M  V30 29381 O 2802.47 -1.18258 -3.83898 0
M  V30 29382 N 2800.68 -1.43591 -2.52646 0
M  V30 29383 H 2800.23 -1.88663 -1.75397 0
M  V30 29384 H 2800.18 -0.746789 -3.05402 0
M  V30 29385 N 2803.96 0.163482 -1.5675 0
M  V30 29386 C 2804.89 1.20435 -2.00044 0
M  V30 29387 C 2805.87 1.45732 -0.877282 0
M  V30 29388 O 2807.05 1.56933 -1.14393 0
M  V30 29389 C 2804.18 2.54145 -2.36702 0
M  V30 29390 C 2803.14 2.43402 -3.52051 0
M  V30 29391 C 2802.46 3.81673 -3.74473 0
M  V30 29392 C 2803.76 1.93208 -4.85251 0
M  V30 29393 H 2805.46 0.844427 -2.87245 0
M  V30 29394 H 2803 0.404755 -1.38195 0
M  V30 29395 H 2804.95 3.27171 -2.65588 0
M  V30 29396 H 2803.68 2.9194 -1.46419 0
M  V30 29397 H 2802.34 1.72829 -3.23304 0
M  V30 29398 H 2801.99 4.16875 -2.81468 0
M  V30 29399 H 2801.69 3.75351 -4.5209 0
M  V30 29400 H 2803.21 4.56273 -4.05768 0
M  V30 29401 H 2804.62 2.56014 -5.12962 0
M  V30 29402 H 2803.02 1.97815 -5.66559 0
M  V30 29403 H 2804.09 0.886806 -4.76722 0
M  V30 29404 N 2805.43 1.51555 0.432299 0
M  V30 29405 C 2806.84 1.56894 1.01199 0
M  V30 29406 C 2807.2 0.395428 1.92174 0
M  V30 29407 O 2806.32 -0.487161 2.10845 0
M  V30 29408 C 2806.92 2.84344 1.84212 0
M  V30 29409 C 2805.47 2.92237 2.37223 0
M  V30 29410 C 2804.62 2.51608 1.16571 0
M  V30 29411 H 2807.57 1.57259 0.21338 0
M  V30 29412 H 2807.59 2.6839 2.69717 0
M  V30 29413 H 2807.11 3.69735 1.17973 0
M  V30 29414 H 2805.21 2.11287 3.06902 0
M  V30 29415 H 2805.32 3.95995 2.69675 0
M  V30 29416 H 2803.68 2.04921 1.51259 0
M  V30 29417 H 2804.47 3.39349 0.519344 0
M  V30 29418 N 2806.91 -0.688069 1.41786 0
M  V30 29419 C 2807.84 -1.81418 1.47003 0
M  V30 29420 C 2808.82 -1.66909 0.32791 0
M  V30 29421 O 2810.01 -1.8653 0.540395 0
M  V30 29422 C 2807.14 -3.19615 1.35881 0
M  V30 29423 C 2806.09 -3.48839 2.47982 0
M  V30 29424 C 2805.42 -4.86471 2.21923 0
M  V30 29425 C 2806.72 -3.47061 3.90315 0
M  V30 29426 H 2808.41 -1.7731 2.4125 0
M  V30 29427 H 2805.96 -0.851631 1.16117 0
M  V30 29428 H 2807.91 -3.98114 1.38141 0
M  V30 29429 H 2806.63 -3.24368 0.381217 0
M  V30 29430 H 2805.29 -2.72694 2.45017 0
M  V30 29431 H 2804.94 -4.87858 1.22489 0
M  V30 29432 H 2804.64 -5.06989 2.97046 0
M  V30 29433 H 2806.17 -5.67271 2.25911 0
M  V30 29434 H 2807.58 -4.15553 3.94954 0
M  V30 29435 H 2805.98 -3.79112 4.65182 0
M  V30 29436 H 2807.05 -2.45889 4.17932 0
M  V30 29437 N 2808.39 -1.27739 -0.923072 0
M  V30 29438 C 2809.64 -1.14517 -1.67373 0
M  V30 29439 C 2809.97 0.307391 -1.91752 0
M  V30 29440 O 2809.24 1.22444 -1.51121 0
M  V30 29441 C 2809.53 -1.93425 -3.03741 0
M  V30 29442 C 2809.38 -3.46691 -2.86575 0
M  V30 29443 C 2810.7 -1.74235 -4.04141 0
M  V30 29444 H 2807.82 -0.417385 -0.60742 0
M  V30 29445 H 2810.46 -1.56948 -1.07086 0
M  V30 29446 H 2808.61 -1.57366 -3.55201 0
M  V30 29447 H 2810.28 -3.92605 -2.42196 0
M  V30 29448 H 2808.52 -3.72797 -2.21822 0
M  V30 29449 H 2809.2 -3.9715 -3.83374 0
M  V30 29450 H 2811.67 -2.05684 -3.61709 0
M  V30 29451 H 2810.55 -2.31833 -4.97539 0
M  V30 29452 H 2810.81 -0.691449 -4.36659 0
M  V30 29453 N 2809.87 1.13022 -1.09836 0
M  V30 29454 C 2811.1 1.88228 -0.858935 0
M  V30 29455 C 2811.51 1.7934 0.590133 0
M  V30 29456 O 2810.87 1.16294 1.40648 0
M  V30 29457 C 2810.92 3.37673 -1.29072 0
M  V30 29458 O 2810.64 3.46337 -2.68296 0
M  V30 29459 C 2812.14 4.29835 -1.08429 0
M  V30 29460 H 2809.36 0.595761 -0.308724 0
M  V30 29461 H 2811.91 1.43047 -1.46143 0
M  V30 29462 H 2810.06 3.80421 -0.732028 0
M  V30 29463 H 2810.47 4.39269 -2.86605 0
M  V30 29464 H 2811.95 5.33004 -1.43563 0
M  V30 29465 H 2812.43 4.39194 -0.0224087 0
M  V30 29466 H 2813.03 3.9286 -1.62914 0
M  V30 29467 N 2811.35 0.886177 1.30325 0
M  V30 29468 C 2812.58 0.519457 1.99963 0
M  V30 29469 C 2812.98 -0.89683 1.66594 0
M  V30 29470 O 2812.33 -1.60148 0.899914 0
M  V30 29471 C 2812.39 0.615857 3.54186 0
M  V30 29472 C 2812.05 1.99667 4.11074 0
M  V30 29473 C 2813.05 2.96622 4.2698 0
M  V30 29474 C 2810.74 2.30238 4.46425 0
M  V30 29475 C 2812.73 4.22281 4.77449 0
M  V30 29476 C 2810.42 3.56143 4.96594 0
M  V30 29477 C 2811.41 4.51979 5.12058 0
M  V30 29478 O 2811.1 5.7565 5.61144 0
M  V30 29479 H 2810.83 0.199228 0.645975 0
M  V30 29480 H 2813.39 1.19371 1.67152 0
M  V30 29481 H 2811.62 -0.11538 3.86528 0
M  V30 29482 H 2813.31 0.260241 4.05065 0
M  V30 29483 H 2814.07 2.74315 3.9997 0
M  V30 29484 H 2809.95 1.56411 4.33655 0
M  V30 29485 H 2813.5 4.97091 4.89435 0
M  V30 29486 H 2809.39 3.78286 5.23039 0
M  V30 29487 H 2810.16 5.78049 5.79484 0
M  V30 29488 N 2812.82 -1.43695 0.647253 0
M  V30 29489 C 2814.07 -2.0218 0.158458 0
M  V30 29490 C 2814.4 -1.50909 -1.2223 0
M  V30 29491 O 2813.68 -0.699734 -1.81477 0
M  V30 29492 C 2813.96 -3.59732 0.162763 0
M  V30 29493 C 2813.81 -4.21249 1.57701 0
M  V30 29494 C 2815.13 -4.37204 -0.504061 0
M  V30 29495 H 2812.25 -0.73463 0.059055 0
M  V30 29496 H 2814.89 -1.71067 0.826802 0
M  V30 29497 H 2813.04 -3.86369 -0.406346 0
M  V30 29498 H 2814.72 -4.05663 2.19625 0
M  V30 29499 H 2812.96 -3.78127 2.12609 0
M  V30 29500 H 2813.63 -5.30317 1.53193 0
M  V30 29501 H 2816.11 -4.16095 -0.019911 0
M  V30 29502 H 2814.98 -5.46882 -0.470297 0
M  V30 29503 H 2815.24 -4.1301 -1.57719 0
M  V30 29504 N 2814.3 -0.388796 -1.52729 0
M  V30 29505 C 2815.25 0.446599 -2.26438 0
M  V30 29506 C 2816.22 1.05822 -1.28027 0
M  V30 29507 O 2817.4 1.08634 -1.56854 0
M  V30 29508 C 2814.54 1.56823 -3.0741 0
M  V30 29509 C 2813.66 0.979515 -4.20749 0
M  V30 29510 C 2812.79 2.07216 -4.89117 0
M  V30 29511 C 2811.83 1.45931 -5.9445 0
M  V30 29512 N 2810.97 2.49124 -6.56416 0
M  V30 29513 H 2815.81 -0.188422 -2.97404 0
M  V30 29514 H 2813.35 -0.104751 -1.46727 0
M  V30 29515 H 2815.3 2.22927 -3.52646 0
M  V30 29516 H 2813.93 2.17357 -2.38654 0
M  V30 29517 H 2812.99 0.208085 -3.7983 0
M  V30 29518 H 2814.3 0.49166 -4.96371 0
M  V30 29519 H 2813.45 2.81091 -5.37655 0
M  V30 29520 H 2812.19 2.59361 -4.13017 0
M  V30 29521 H 2811.2 0.705798 -5.45251 0
M  V30 29522 H 2812.42 0.945814 -6.72481 0
M  V30 29523 H 2810.37 3.00439 -5.83157 0
M  V30 29524 H 2810.28 2.05092 -7.27649 0
M  V30 29525 H 2811.55 3.22631 -7.09598 0
M  V30 29526 N 2815.78 1.57153 -0.118604 0
M  V30 29527 C 2817.06 1.86709 0.583029 0
M  V30 29528 C 2817.44 1.0197 1.84839 0
M  V30 29529 O 2816.79 0.0985074 2.28288 0
M  V30 29530 C 2817 3.37831 0.875853 0
M  V30 29531 C 2818.34 4.06422 1.22909 0
M  V30 29532 O 2819.37 3.42848 0.966127 0
M  V30 29533 O 2818.23 5.18641 1.72259 0
M  V30 29534 H 2815.32 0.772912 0.294171 0
M  V30 29535 H 2817.87 1.69008 -0.153077 0
M  V30 29536 H 2816.64 3.91294 -0.0208464 0
M  V30 29537 H 2816.26 3.60961 1.66713 0
M  V30 29538 N 2817.26 -0.155167 1.56834 0
M  V30 29539 C 2818.17 -1.21142 2.00902 0
M  V30 29540 C 2819.18 -1.47498 0.923055 0
M  V30 29541 O 2820.36 -1.59329 1.23192 0
M  V30 29542 C 2817.43 -2.52686 2.37382 0
M  V30 29543 C 2816.49 -2.3405 3.59887 0
M  V30 29544 C 2815.72 -3.59322 3.94618 0
M  V30 29545 O 2815.94 -4.65169 3.30112 0
M  V30 29546 O 2814.88 -3.52471 4.87902 0
M  V30 29547 H 2818.7 -0.86732 2.91052 0
M  V30 29548 H 2816.29 -0.363272 1.44916 0
M  V30 29549 H 2818.17 -3.30255 2.61743 0
M  V30 29550 H 2816.84 -2.86643 1.5039 0
M  V30 29551 H 2815.75 -1.54459 3.40724 0
M  V30 29552 H 2817.08 -2.05012 4.47472 0
M  V30 29553 N 2818.74 -1.51782 -0.424256 0
M  V30 29554 C 2819.67 -1.76992 -1.52302 0
M  V30 29555 C 2820.65 -0.620237 -1.58389 0
M  V30 29556 O 2821.83 -0.864298 -1.73907 0
M  V30 29557 C 2818.96 -1.90688 -2.90268 0
M  V30 29558 C 2817.92 -3.06203 -2.99038 0
M  V30 29559 C 2817.24 -3.051 -4.39111 0
M  V30 29560 C 2818.54 -4.45938 -2.71912 0
M  V30 29561 H 2820.24 -2.68997 -1.31457 0
M  V30 29562 H 2817.78 -1.29441 -0.630962 0
M  V30 29563 H 2819.74 -2.06907 -3.67107 0
M  V30 29564 H 2818.46 -0.95342 -3.12374 0
M  V30 29565 H 2817.12 -2.8971 -2.24641 0
M  V30 29566 H 2816.77 -2.07506 -4.58203 0
M  V30 29567 H 2816.47 -3.82677 -4.45906 0
M  V30 29568 H 2817.99 -3.23429 -5.17905 0
M  V30 29569 H 2819.4 -4.62715 -3.38479 0
M  V30 29570 H 2817.8 -5.2532 -2.90102 0
M  V30 29571 H 2818.87 -4.55075 -1.67437 0
M  V30 29572 N 2820.21 0.68054 -1.42149 0
M  V30 29573 C 2821.63 0.992973 -1.24949 0
M  V30 29574 C 2821.83 2.00944 -0.149562 0
M  V30 29575 O 2820.89 2.47874 0.481101 0
M  V30 29576 C 2822.2 1.50325 -2.60428 0
M  V30 29577 C 2823.75 1.62132 -2.67735 0
M  V30 29578 C 2824.22 2.16558 -4.03568 0
M  V30 29579 N 2825.71 2.23898 -4.05492 0
M  V30 29580 C 2826.45 2.67072 -5.07405 0
M  V30 29581 N 2825.94 3.0974 -6.19704 0
M  V30 29582 N 2827.74 2.6677 -4.94763 0
M  V30 29583 H 2819.89 0.00744146 -2.12399 0
M  V30 29584 H 2822.15 0.0658363 -0.945711 0
M  V30 29585 H 2821.86 0.830887 -3.41744 0
M  V30 29586 H 2821.73 2.48295 -2.83953 0
M  V30 29587 H 2824.12 2.28476 -1.86769 0
M  V30 29588 H 2824.2 0.62667 -2.48005 0
M  V30 29589 H 2823.84 1.50824 -4.84989 0
M  V30 29590 H 2823.77 3.16803 -4.20646 0
M  V30 29591 H 2826.26 1.93807 -3.24419 0
M  V30 29592 H 2826.58 3.41353 -6.93324 0
M  V30 29593 H 2824.92 3.07612 -6.23218 0
M  V30 29594 H 2828.11 2.32794 -4.06109 0
M  V30 29595 H 2828.29 3.00097 -5.74322 0
M  V30 29596 N 2821.69 1.28226 0.916285 0
M  V30 29597 C 2822.92 1.18191 1.70428 0
M  V30 29598 C 2823.34 -0.256241 1.86346 0
M  V30 29599 O 2822.7 -1.18542 1.37177 0
M  V30 29600 C 2822.75 1.88281 3.07543 0
M  V30 29601 O 2821.85 1.18855 3.94902 0
M  V30 29602 H 2821.19 0.410432 0.521959 0
M  V30 29603 H 2823.72 1.69503 1.14586 0
M  V30 29604 H 2823.73 1.96089 3.57789 0
M  V30 29605 H 2822.41 2.92893 2.95274 0
M  V30 29606 H 2820.99 1.19194 3.53337 0
M  V30 29607 N 2823.17 -1.12438 1.10433 0
M  V30 29608 C 2824.12 -2.18166 0.753141 0
M  V30 29609 C 2825.09 -1.63882 -0.27052 0
M  V30 29610 O 2826.27 -1.90211 -0.149804 0
M  V30 29611 C 2823.41 -3.4457 0.191106 0
M  V30 29612 C 2822.53 -4.12908 1.27006 0
M  V30 29613 C 2821.66 -5.26962 0.669679 0
M  V30 29614 C 2820.7 -5.87166 1.72922 0
M  V30 29615 N 2819.84 -6.92633 1.1491 0
M  V30 29616 H 2824.68 -2.47553 1.65896 0
M  V30 29617 H 2822.21 -1.21539 0.828652 0
M  V30 29618 H 2824.17 -4.16921 -0.152638 0
M  V30 29619 H 2822.8 -3.15601 -0.677942 0
M  V30 29620 H 2821.85 -3.38737 1.73093 0
M  V30 29621 H 2823.17 -4.53723 2.07212 0
M  V30 29622 H 2822.32 -6.06075 0.27538 0
M  V30 29623 H 2821.06 -4.87425 -0.16381 0
M  V30 29624 H 2820.06 -5.0674 2.13294 0
M  V30 29625 H 2821.29 -6.28774 2.56555 0
M  V30 29626 H 2819.23 -6.55133 0.337071 0
M  V30 29627 H 2819.15 -7.32046 1.88799 0
M  V30 29628 H 2820.42 -7.75574 0.781346 0
M  V30 29629 N 2824.65 -0.893076 -1.29853 0
M  V30 29630 C 2825.88 -0.530823 -1.99975 0
M  V30 29631 C 2826.29 0.88277 -1.66891 0
M  V30 29632 O 2825.65 1.58172 -0.91038 0
M  V30 29633 C 2825.7 -0.705649 -3.54546 0
M  V30 29634 O 2825.42 -2.0636 -3.86455 0
M  V30 29635 C 2826.92 -0.347464 -4.41936 0
M  V30 29636 H 2824.14 -0.20435 -0.639126 0
M  V30 29637 H 2826.69 -1.2006 -1.65547 0
M  V30 29638 H 2824.84 -0.0831366 -3.87311 0
M  V30 29639 H 2825.26 -2.08812 -4.81142 0
M  V30 29640 H 2826.73 -0.520654 -5.49539 0
M  V30 29641 H 2827.21 0.715063 -4.3334 0
M  V30 29642 H 2827.81 -0.94664 -4.14631 0
M  V30 29643 N 2826.13 1.4335 -0.654865 0
M  V30 29644 C 2827.07 2.30772 0.0357308 0
M  V30 29645 C 2828.04 1.44843 0.81301 0
M  V30 29646 O 2829.23 1.73709 0.789283 0
M  V30 29647 C 2826.37 3.30444 0.995025 0
M  V30 29648 C 2825.48 4.31471 0.213675 0
M  V30 29649 C 2824.62 5.18224 1.16692 0
M  V30 29650 C 2823.66 6.10943 0.376094 0
M  V30 29651 N 2822.79 6.90315 1.28101 0
M  V30 29652 H 2827.63 2.89279 -0.71564 0
M  V30 29653 H 2825.17 1.42508 -0.36467 0
M  V30 29654 H 2827.13 3.86741 1.56483 0
M  V30 29655 H 2825.76 2.73583 1.71325 0
M  V30 29656 H 2824.81 3.77455 -0.472444 0
M  V30 29657 H 2826.12 4.97184 -0.401191 0
M  V30 29658 H 2825.28 5.79156 1.8073 0
M  V30 29659 H 2824.02 4.52641 1.81569 0
M  V30 29660 H 2823.02 5.49099 -0.27763 0
M  V30 29661 H 2824.25 6.7857 -0.268298 0
M  V30 29662 H 2822.19 6.27379 1.91655 0
M  V30 29663 H 2822.11 7.52556 0.720747 0
M  V30 29664 H 2823.38 7.5575 1.90949 0
M  V30 29665 N 2827.61 0.39689 1.52521 0
M  V30 29666 C 2828.85 -0.183133 2.01971 0
M  V30 29667 C 2829.18 -1.45825 1.28253 0
M  V30 29668 O 2828.46 -1.90647 0.385212 0
M  V30 29669 C 2828.74 -0.443328 3.57361 0
M  V30 29670 C 2828.6 0.847608 4.41742 0
M  V30 29671 C 2829.91 -1.23072 4.22541 0
M  V30 29672 H 2827.03 -0.0650847 0.734121 0
M  V30 29673 H 2829.68 0.52795 1.82518 0
M  V30 29674 H 2827.83 -1.04907 3.74068 0
M  V30 29675 H 2829.5 1.48422 4.36771 0
M  V30 29676 H 2827.74 1.46128 4.08447 0
M  V30 29677 H 2828.41 0.620099 5.48506 0
M  V30 29678 H 2830.89 -0.718012 4.09858 0
M  V30 29679 H 2829.76 -1.38152 5.3123 0
M  V30 29680 H 2830.02 -2.24802 3.80679 0
M  V30 29681 N 2829.08 -1.57088 0.126936 0
M  V30 29682 C 2829.99 -2.19282 -0.833828 0
M  V30 29683 C 2831.01 -1.17124 -1.28678 0
M  V30 29684 O 2832.19 -1.49625 -1.34812 0
M  V30 29685 C 2829.25 -2.7863 -2.06315 0
M  V30 29686 C 2828.31 -3.9585 -1.66136 0
M  V30 29687 C 2827.54 -4.52359 -2.83209 0
M  V30 29688 O 2827.77 -4.07757 -3.98861 0
M  V30 29689 O 2826.7 -5.42926 -2.59836 0
M  V30 29690 H 2830.53 -3.01852 -0.334511 0
M  V30 29691 H 2828.11 -1.49071 -0.0990829 0
M  V30 29692 H 2829.99 -3.1643 -2.78298 0
M  V30 29693 H 2828.67 -1.99086 -2.55238 0
M  V30 29694 H 2827.58 -3.62804 -0.912372 0
M  V30 29695 H 2828.91 -4.76854 -1.21948 0
M  V30 29696 N 2830.56 0.146848 -1.56914 0
M  V30 29697 C 2831.49 1.20642 -1.9488 0
M  V30 29698 C 2832.51 1.39174 -0.844658 0
M  V30 29699 O 2833.7 1.38742 -1.12307 0
M  V30 29700 C 2830.8 2.57123 -2.20774 0
M  V30 29701 C 2829.97 2.59566 -3.52057 0
M  V30 29702 C 2829.03 3.77587 -3.66489 0
M  V30 29703 O 2828.05 3.62454 -4.3888 0
M  V30 29704 N 2829.26 4.95047 -3.03164 0
M  V30 29705 H 2832.02 0.883707 -2.86375 0
M  V30 29706 H 2829.58 0.336409 -1.58366 0
M  V30 29707 H 2831.57 3.34587 -2.2767 0
M  V30 29708 H 2830.14 2.81686 -1.35543 0
M  V30 29709 H 2829.36 1.68017 -3.56601 0
M  V30 29710 H 2830.65 2.5823 -4.384 0
M  V30 29711 H 2830.05 5.10245 -2.44267 0
M  V30 29712 H 2828.61 5.70286 -3.15621 0
M  V30 29713 N 2832.04 1.52005 0.4162 0
M  V30 29714 C 2833.29 1.65389 1.1615 0
M  V30 29715 C 2833.61 0.382702 1.91208 0
M  V30 29716 O 2832.88 -0.602198 1.86415 0
M  V30 29717 H 2831.46 0.609588 0.431754 0
M  V30 29718 H 2834.12 1.8902 0.475118 0
M  V30 29719 H 2833.22 2.49163 1.87947 0
M  V30 29720 N 2833.52 -0.672992 1.42508 0
M  V30 29721 C 2834.46 -1.78649 1.46127 0
M  V30 29722 C 2835.43 -1.63124 0.313036 0
M  V30 29723 O 2836.62 -1.83652 0.51737 0
M  V30 29724 C 2833.76 -3.16691 1.37116 0
M  V30 29725 C 2832.87 -3.4349 2.61989 0
M  V30 29726 C 2832.01 -4.71271 2.45107 0
M  V30 29727 C 2831.05 -4.9111 3.65345 0
M  V30 29728 N 2830.18 -6.10133 3.47394 0
M  V30 29729 H 2835.02 -1.7489 2.41283 0
M  V30 29730 H 2832.56 -0.853745 1.1979 0
M  V30 29731 H 2834.52 -3.96465 1.29888 0
M  V30 29732 H 2833.15 -3.19569 0.455546 0
M  V30 29733 H 2832.2 -2.57956 2.79576 0
M  V30 29734 H 2833.51 -3.54043 3.51361 0
M  V30 29735 H 2832.67 -5.59139 2.35475 0
M  V30 29736 H 2831.41 -4.63004 1.53227 0
M  V30 29737 H 2830.41 -4.01684 3.75407 0
M  V30 29738 H 2831.64 -5.01221 4.58208 0
M  V30 29739 H 2829.58 -6.03036 2.58233 0
M  V30 29740 H 2829.5 -6.21555 4.30355 0
M  V30 29741 H 2830.77 -7.00675 3.41578 0
M  V30 29742 N 2835 -1.2871 -0.909472 0
M  V30 29743 C 2836.22 -1.19093 -1.69798 0
M  V30 29744 C 2836.65 0.246355 -1.8648 0
M  V30 29745 O 2836 1.17812 -1.37804 0
M  V30 29746 C 2836.05 -1.89909 -3.0654 0
M  V30 29747 O 2835.16 -1.20947 -3.94266 0
M  V30 29748 H 2834.5 -0.413194 -0.519776 0
M  V30 29749 H 2837.03 -1.70108 -1.13686 0
M  V30 29750 H 2837.04 -1.97983 -3.56745 0
M  V30 29751 H 2835.71 -2.94454 -2.93717 0
M  V30 29752 H 2834.29 -1.21066 -3.527 0
M  V30 29753 N 2836.47 1.1185 -1.11028 0
M  V30 29754 C 2837.89 1.355 -0.843318 0
M  V30 29755 C 2838.09 1.94291 0.534145 0
M  V30 29756 O 2837.15 2.17309 1.28581 0
M  V30 29757 C 2838.46 2.29073 -1.94797 0
M  V30 29758 C 2840.01 2.42649 -1.97713 0
M  V30 29759 C 2840.48 3.39541 -3.0737 0
M  V30 29760 N 2841.97 3.47101 -3.06716 0
M  V30 29761 C 2842.71 4.22001 -3.88204 0
M  V30 29762 N 2842.2 4.99913 -4.79644 0
M  V30 29763 N 2844 4.17469 -3.76398 0
M  V30 29764 H 2836.15 0.720503 -1.99806 0
M  V30 29765 H 2838.41 0.379696 -0.86864 0
M  V30 29766 H 2838.12 1.9306 -2.93974 0
M  V30 29767 H 2837.99 3.29253 -1.84045 0
M  V30 29768 H 2840.38 2.77939 -0.991653 0
M  V30 29769 H 2840.46 1.42336 -2.12542 0
M  V30 29770 H 2840.1 3.04978 -4.06141 0
M  V30 29771 H 2840.03 4.39698 -2.89781 0
M  V30 29772 H 2842.52 2.91524 -2.40462 0
M  V30 29773 H 2842.84 5.5442 -5.38366 0
M  V30 29774 H 2841.18 4.99089 -4.83669 0
M  V30 29775 H 2844.37 3.55687 -3.04309 0
M  V30 29776 H 2844.55 4.75586 -4.40139 0
M  V30 29777 N 2837.95 0.89995 1.29378 0
M  V30 29778 C 2838.88 0.3945 2.30143 0
M  V30 29779 C 2839.86 -0.530611 1.61612 0
M  V30 29780 O 2841.05 -0.441286 1.8912 0
M  V30 29781 C 2838.18 -0.378619 3.4523 0
M  V30 29782 C 2837.13 0.456087 4.25563 0
M  V30 29783 C 2836.46 -0.444544 5.32849 0
M  V30 29784 C 2837.76 1.70613 4.93648 0
M  V30 29785 H 2839.45 1.23657 2.7267 0
M  V30 29786 H 2837 0.596057 1.31085 0
M  V30 29787 H 2838.95 -0.742964 4.14799 0
M  V30 29788 H 2837.67 -1.25448 3.01547 0
M  V30 29789 H 2836.33 0.802767 3.57703 0
M  V30 29790 H 2835.98 -1.31854 4.85411 0
M  V30 29791 H 2835.68 0.110257 5.87497 0
M  V30 29792 H 2837.21 -0.805076 6.05269 0
M  V30 29793 H 2838.62 1.41151 5.55652 0
M  V30 29794 H 2837.02 2.20227 5.58229 0
M  V30 29795 H 2838.09 2.44197 4.18922 0
M  V30 29796 N 2839.43 -1.43001 0.662458 0
M  V30 29797 C 2840.68 -2.00923 0.176908 0
M  V30 29798 C 2840.99 -1.52929 -1.21952 0
M  V30 29799 O 2842.2 -2.03185 -1.80078 0
M  V30 29800 C 2840.65 -3.5892 0.265442 0
M  V30 29801 C 2840.26 -4.15905 1.66514 0
M  V30 29802 C 2842.01 -4.24191 -0.162029 0
M  V30 29803 C 2839.91 -5.66226 1.7071 0
M  V30 29804 H 2838.84 -0.751415 0.062376 0
M  V30 29805 H 2841.49 -1.63866 0.825842 0
M  V30 29806 H 2839.88 -3.93422 -0.451166 0
M  V30 29807 H 2841.05 -3.92886 2.40784 0
M  V30 29808 H 2839.37 -3.6304 2.03939 0
M  V30 29809 H 2841.96 -5.34488 -0.150651 0
M  V30 29810 H 2842.31 -3.98776 -1.19512 0
M  V30 29811 H 2842.84 -3.94605 0.503144 0
M  V30 29812 H 2839.58 -5.96421 2.7196 0
M  V30 29813 H 2839.1 -5.91273 1.00779 0
M  V30 29814 H 2840.78 -6.30428 1.45498 0
M  V30 29815 N 2840.91 -0.404973 -1.52308 0
M  V30 29816 C 2841.82 0.429514 -2.30635 0
M  V30 29817 C 2842.83 1.05734 -1.38189 0
M  V30 29818 O 2844.01 1.05976 -1.71263 0
M  V30 29819 C 2841.08 1.53333 -3.1095 0
M  V30 29820 C 2840.14 0.928991 -4.19128 0
M  V30 29821 C 2839.37 1.98021 -4.95604 0
M  V30 29822 O 2839.59 3.19772 -4.72337 0
M  V30 29823 O 2838.53 1.58876 -5.80553 0
M  V30 29824 H 2842.35 -0.209016 -3.0298 0
M  V30 29825 H 2839.94 -0.168281 -1.48449 0
M  V30 29826 H 2841.82 2.17423 -3.60978 0
M  V30 29827 H 2840.49 2.15654 -2.41402 0
M  V30 29828 H 2839.4 0.250916 -3.73258 0
M  V30 29829 H 2840.73 0.349769 -4.90956 0
M  V30 29830 N 2842.39 1.57018 -0.135265 0
M  V30 29831 C 2843.35 2.14983 0.794669 0
M  V30 29832 C 2844.35 1.08868 1.1834 0
M  V30 29833 O 2845.54 1.34565 1.10625 0
M  V30 29834 C 2842.67 2.70336 2.0768 0
M  V30 29835 H 2843.86 2.98488 0.290644 0
M  V30 29836 H 2841.42 1.55883 0.114101 0
M  V30 29837 H 2842.15 1.90464 2.62476 0
M  V30 29838 H 2841.94 3.4796 1.80739 0
M  V30 29839 H 2843.43 3.15035 2.74122 0
M  V30 29840 N 2843.86 -0.138524 1.5699 0
M  V30 29841 C 2845.09 -0.868377 1.88345 0
M  V30 29842 C 2845.51 -1.73559 0.72519 0
M  V30 29843 O 2844.87 -1.78364 -0.324961 0
M  V30 29844 C 2844.92 -1.69393 3.18337 0
M  V30 29845 O 2844.02 -2.79902 3.02868 0
M  V30 29846 H 2843.37 -0.241356 0.618582 0
M  V30 29847 H 2845.9 -0.12679 2.04207 0
M  V30 29848 H 2845.91 -2.0872 3.50571 0
M  V30 29849 H 2844.58 -1.05717 4.0224 0
M  V30 29850 H 2843.16 -2.43919 2.8206 0
M  V30 29851 N 2845.34 -1.52224 -0.408133 0
M  V30 29852 C 2846.57 -1.70474 -1.18124 0
M  V30 29853 C 2846.99 -0.413872 -1.8349 0
M  V30 29854 O 2846.35 0.628748 -1.70048 0
M  V30 29855 C 2846.4 -2.84217 -2.2193 0
M  V30 29856 O 2845.5 -2.49856 -3.28094 0
M  V30 29857 H 2844.84 -0.567476 -0.344771 0
M  V30 29858 H 2847.37 -1.98931 -0.478293 0
M  V30 29859 H 2847.38 -3.09158 -2.66243 0
M  V30 29860 H 2846.06 -3.77873 -1.73737 0
M  V30 29861 H 2844.64 -2.35589 -2.89054 0
M  V30 29862 N 2846.82 0.665425 -1.42863 0
M  V30 29863 C 2847.75 1.79056 -1.4987 0
M  V30 29864 C 2848.73 1.66367 -0.354423 0
M  V30 29865 O 2849.92 1.85646 -0.570002 0
M  V30 29866 C 2847.05 3.17413 -1.40949 0
M  V30 29867 C 2846 3.4485 -2.53501 0
M  V30 29868 C 2845.33 4.82879 -2.29634 0
M  V30 29869 C 2846.63 3.40808 -3.95787 0
M  V30 29870 H 2848.32 1.73449 -2.44041 0
M  V30 29871 H 2845.87 0.83305 -1.17458 0
M  V30 29872 H 2847.82 3.95866 -1.44457 0
M  V30 29873 H 2846.54 3.2372 -0.432773 0
M  V30 29874 H 2845.2 2.68761 -2.49325 0
M  V30 29875 H 2844.85 4.85848 -1.30235 0
M  V30 29876 H 2844.55 5.02199 -3.05074 0
M  V30 29877 H 2846.07 5.63605 -2.34907 0
M  V30 29878 H 2847.49 4.09217 -4.01515 0
M  V30 29879 H 2845.89 3.71664 -4.71154 0
M  V30 29880 H 2846.96 2.39209 -4.21791 0
M  V30 29881 N 2848.3 1.29191 0.902633 0
M  V30 29882 C 2849.25 1.13947 2.02778 0
M  V30 29883 C 2850.24 0.0558168 1.69308 0
M  V30 29884 O 2851.45 0.215403 1.78707 0
M  V30 29885 H 2847.82 0.351889 0.664589 0
M  V30 29886 H 2849.79 2.09212 2.12774 0
M  V30 29887 C 2848.54 0.829719 3.37655 0
M  V30 29888 H 2847.86 1.65558 3.6391 0
M  V30 29889 H 2849.3 0.763072 4.17077 0
M  V30 29890 C 2847.76 -0.466932 3.33649 0
M  V30 29891 O 2848.29 -1.49388 3.72889 0
M  V30 29892 N 2846.5 -0.47171 2.86746 0
M  V30 29893 H 2846.05 0.364451 2.55009 0
M  V30 29894 H 2846 -1.33928 2.84448 0
M  V30 29895 N 2849.78 -1.1126 1.1162 0
M  V30 29896 C 2851.05 -1.79466 0.777907 0
M  V30 29897 C 2851.43 -1.97938 -0.73374 0
M  V30 29898 O 2850.78 -1.56557 -1.6644 0
M  V30 29899 C 2850.99 -3.1303 1.54316 0
M  V30 29900 C 2852.34 -3.88041 1.72364 0
M  V30 29901 O 2853.36 -3.22724 1.50756 0
M  V30 29902 O 2852.22 -5.05252 2.08284 0
M  V30 29903 H 2849.32 -0.777423 0.282032 0
M  V30 29904 H 2851.86 -1.17986 1.21973 0
M  V30 29905 H 2850.63 -2.94951 2.57137 0
M  V30 29906 H 2850.26 -3.82224 1.09501 0
M  V30 29907 N 2851.25 -0.906798 -1.28899 0
M  V30 29908 C 2852.48 -0.551338 -1.99938 0
M  V30 29909 C 2852.9 0.858466 -1.67368 0
M  V30 29910 O 2852.26 1.57258 -0.902204 0
M  V30 29911 C 2852.31 -0.758999 -3.52522 0
M  V30 29912 O 2851.41 0.185236 -4.11984 0
M  V30 29913 H 2850.76 -0.214579 -0.628372 0
M  V30 29914 H 2853.29 -1.22033 -1.64223 0
M  V30 29915 H 2853.3 -0.6664 -4.02521 0
M  V30 29916 H 2851.97 -1.78678 -3.75562 0
M  V30 29917 H 2850.55 0.0444922 -3.72873 0
M  V30 29918 N 2852.73 1.42648 -0.670032 0
M  V30 29919 C 2853.98 2.01902 -0.190603 0
M  V30 29920 C 2854.31 1.52834 1.19814 0
M  V30 29921 O 2853.59 0.728517 1.80341 0
M  V30 29922 C 2853.87 3.59428 -0.219973 0
M  V30 29923 C 2853.72 4.18686 -1.64383 0
M  V30 29924 C 2855.04 4.3795 0.434442 0
M  V30 29925 H 2852.16 0.733598 -0.0707348 0
M  V30 29926 H 2854.8 1.6973 -0.853913 0
M  V30 29927 H 2852.95 3.86967 0.344826 0
M  V30 29928 H 2854.62 4.02118 -2.26051 0
M  V30 29929 H 2852.87 3.74696 -2.18598 0
M  V30 29930 H 2853.54 5.27813 -1.6161 0
M  V30 29931 H 2856.01 4.16074 -0.0462887 0
M  V30 29932 H 2854.89 5.47561 0.383234 0
M  V30 29933 H 2855.15 4.15467 1.51128 0
M  V30 29934 N 2854.21 0.413044 1.52091 0
M  V30 29935 C 2855.17 -0.398647 2.25707 0
M  V30 29936 C 2856.17 -0.970346 1.28222 0
M  V30 29937 O 2857.36 -0.848609 1.52132 0
M  V30 29938 C 2854.5 -1.56155 3.03032 0
M  V30 29939 H 2855.69 0.246183 2.98888 0
M  V30 29940 H 2853.24 0.165649 1.5542 0
M  V30 29941 H 2853.98 -2.24313 2.34209 0
M  V30 29942 H 2853.76 -1.15806 3.74608 0
M  V30 29943 H 2855.25 -2.13563 3.5886 0
M  V30 29944 N 2855.69 -1.56945 0.143591 0
M  V30 29945 C 2856.62 -2.12362 -0.83533 0
M  V30 29946 C 2857.6 -1.0463 -1.24465 0
M  V30 29947 O 2858.78 -1.32439 -1.34135 0
M  V30 29948 C 2855.91 -2.64052 -2.12118 0
M  V30 29949 C 2854.96 -3.83899 -1.85806 0
M  V30 29950 S 2855.79 -5.25062 -1.05213 0
M  V30 29951 C 2856.95 -5.80139 -2.34925 0
M  V30 29952 H 2857.18 -2.95063 -0.364057 0
M  V30 29953 H 2854.71 -1.54238 -0.0706329 0
M  V30 29954 H 2856.67 -2.94484 -2.85988 0
M  V30 29955 H 2855.33 -1.81488 -2.56361 0
M  V30 29956 H 2854.52 -4.18299 -2.81144 0
M  V30 29957 H 2854.13 -3.5421 -1.20046 0
M  V30 29958 H 2856.42 -5.91363 -3.306 0
M  V30 29959 H 2857.36 -6.77766 -2.05034 0
M  V30 29960 H 2857.77 -5.08361 -2.45417 0
M  V30 29961 N 2857.17 0.130197 -1.57061 0
M  V30 29962 C 2858.58 0.483386 -1.52104 0
M  V30 29963 C 2858.78 1.82471 -0.854784 0
M  V30 29964 O 2857.84 2.4877 -0.432386 0
M  V30 29965 C 2859.15 0.478198 -2.96873 0
M  V30 29966 C 2860.7 0.562538 -3.07903 0
M  V30 29967 C 2861.18 0.587849 -4.54212 0
M  V30 29968 N 2862.67 0.649603 -4.58622 0
M  V30 29969 C 2863.4 0.690451 -5.69228 0
M  V30 29970 N 2862.9 0.689622 -6.89359 0
M  V30 29971 N 2864.69 0.73261 -5.57305 0
M  V30 29972 H 2856.84 -0.748814 -1.98763 0
M  V30 29973 H 2859.1 -0.274981 -0.907243 0
M  V30 29974 H 2858.81 -0.439506 -3.48943 0
M  V30 29975 H 2858.68 1.31007 -3.53719 0
M  V30 29976 H 2861.07 1.47066 -2.55843 0
M  V30 29977 H 2861.15 -0.296809 -2.54072 0
M  V30 29978 H 2860.8 -0.316185 -5.06915 0
M  V30 29979 H 2860.73 1.46392 -5.05843 0
M  V30 29980 H 2863.22 0.656862 -3.72147 0
M  V30 29981 H 2863.53 0.723104 -7.6941 0
M  V30 29982 H 2861.88 0.657226 -6.91885 0
M  V30 29983 H 2865.07 0.730544 -4.62364 0
M  V30 29984 H 2865.24 0.760977 -6.43516 0
M  V30 29985 N 2858.65 1.52438 0.400055 0
M  V30 29986 C 2859.58 1.71163 1.50926 0
M  V30 29987 C 2860.56 0.559302 1.52678 0
M  V30 29988 O 2861.74 0.787765 1.7125 0
M  V30 29989 C 2858.87 1.7592 2.8943 0
M  V30 29990 C 2857.91 2.97558 3.05551 0
M  V30 29991 S 2858.75 4.5774 2.7791 0
M  V30 29992 C 2859.9 4.65297 4.18628 0
M  V30 29993 H 2860.14 2.64976 1.34815 0
M  V30 29994 H 2857.67 1.42591 0.592219 0
M  V30 29995 H 2859.63 1.79346 3.69249 0
M  V30 29996 H 2858.29 0.83219 3.02875 0
M  V30 29997 H 2857.48 2.97396 4.06905 0
M  V30 29998 H 2857.08 2.92066 2.33609 0
M  V30 29999 H 2859.37 4.43232 5.12398 0
M  V30 30000 H 2860.32 5.67265 4.23811 0
M  V30 30001 H 2860.73 3.94241 4.04022 0
M  V30 30002 N 2860.12 -0.657839 1.43214 0
M  V30 30003 C 2861.09 -1.75272 1.4769 0
M  V30 30004 C 2862.09 -1.56667 0.362207 0
M  V30 30005 O 2863.28 -1.62649 0.623762 0
M  V30 30006 C 2860.41 -3.14095 1.32502 0
M  V30 30007 H 2861.6 -1.72685 2.45193 0
M  V30 30008 H 2859.15 -0.869065 1.29911 0
M  V30 30009 H 2859.89 -3.22297 0.359887 0
M  V30 30010 H 2859.67 -3.29004 2.13304 0
M  V30 30011 H 2861.16 -3.93944 1.38556 0
M  V30 30012 N 2861.6 -1.29668 -0.895769 0
M  V30 30013 C 2862.85 -1.17867 -1.64662 0
M  V30 30014 C 2863.18 0.268986 -1.92631 0
M  V30 30015 O 2862.43 1.21026 -1.53789 0
M  V30 30016 C 2862.73 -1.94144 -3.00071 0
M  V30 30017 C 2862.4 -3.43838 -2.91696 0
M  V30 30018 C 2861.06 -3.84661 -2.89119 0
M  V30 30019 C 2863.41 -4.3921 -2.80614 0
M  V30 30020 C 2860.74 -5.19165 -2.73284 0
M  V30 30021 C 2863.09 -5.73809 -2.66319 0
M  V30 30022 C 2861.75 -6.13885 -2.6211 0
M  V30 30023 H 2861.02 -0.431306 -0.602541 0
M  V30 30024 H 2863.67 -1.60649 -1.04231 0
M  V30 30025 H 2861.98 -1.43964 -3.64392 0
M  V30 30026 H 2863.67 -1.82415 -3.57108 0
M  V30 30027 H 2860.26 -3.11391 -2.94506 0
M  V30 30028 H 2864.45 -4.0862 -2.81679 0
M  V30 30029 H 2859.7 -5.49321 -2.68433 0
M  V30 30030 H 2863.88 -6.47356 -2.56716 0
M  V30 30031 H 2861.5 -7.18056 -2.49598 0
M  V30 30032 N 2863.08 1.10667 -1.12208 0
M  V30 30033 C 2864.33 1.82216 -0.874176 0
M  V30 30034 C 2864.65 1.85485 0.601703 0
M  V30 30035 O 2863.92 1.33118 1.43723 0
M  V30 30036 H 2862.5 0.674791 -0.320416 0
M  V30 30037 H 2865.16 1.33915 -1.41608 0
M  V30 30038 H 2864.26 2.85819 -1.25354 0
M  V30 30039 N 2864.56 0.913621 1.28416 0
M  V30 30040 C 2865.51 0.392077 2.29272 0
M  V30 30041 C 2866.5 -0.51617 1.61344 0
M  V30 30042 O 2867.71 -0.397429 1.75558 0
M  V30 30043 H 2864.08 0.108191 0.744177 0
M  V30 30044 H 2866.05 1.25579 2.70689 0
M  V30 30045 C 2864.8 -0.352754 3.45906 0
M  V30 30046 H 2864.12 0.336918 3.98378 0
M  V30 30047 H 2865.56 -0.682325 4.18474 0
M  V30 30048 C 2864.02 -1.5606 2.98575 0
M  V30 30049 O 2864.55 -2.65969 3.01037 0
M  V30 30050 N 2862.76 -1.40754 2.54237 0
M  V30 30051 H 2862.31 -0.513359 2.52433 0
M  V30 30052 H 2862.26 -2.21698 2.22929 0
M  V30 30053 N 2866.04 -1.4229 0.677588 0
M  V30 30054 C 2866.97 -2.33495 0.0150091 0
M  V30 30055 C 2867.95 -1.50833 -0.786349 0
M  V30 30056 O 2869.13 -1.79427 -0.742943 0
M  V30 30057 C 2866.26 -3.34478 -0.934964 0
M  V30 30058 C 2865.22 -4.27315 -0.241999 0
M  V30 30059 C 2864.54 -5.18528 -1.3051 0
M  V30 30060 C 2865.84 -5.14821 0.880694 0
M  V30 30061 H 2867.54 -2.89149 0.776722 0
M  V30 30062 H 2865.08 -1.39032 0.374964 0
M  V30 30063 H 2867.03 -3.97196 -1.40759 0
M  V30 30064 H 2865.76 -2.77134 -1.72813 0
M  V30 30065 H 2864.42 -3.65996 0.210415 0
M  V30 30066 H 2864.07 -4.57509 -2.09033 0
M  V30 30067 H 2863.77 -5.8147 -0.846549 0
M  V30 30068 H 2865.29 -5.84122 -1.7786 0
M  V30 30069 H 2866.7 -5.71209 0.489163 0
M  V30 30070 H 2865.1 -5.86611 1.26521 0
M  V30 30071 H 2866.17 -4.53056 1.72826 0
M  V30 30072 N 2867.51 -0.421104 -1.5187 0
M  V30 30073 C 2868.74 0.149686 -2.06057 0
M  V30 30074 C 2869.15 1.38399 -1.29005 0
M  V30 30075 O 2868.49 1.80556 -0.338416 0
M  V30 30076 C 2868.56 0.553276 -3.55217 0
M  V30 30077 C 2868.22 -0.571959 -4.53407 0
M  V30 30078 C 2869.22 -1.43919 -4.99583 0
M  V30 30079 C 2866.9 -0.748066 -4.96698 0
M  V30 30080 C 2868.9 -2.46738 -5.87707 0
M  V30 30081 C 2866.58 -1.77954 -5.84616 0
M  V30 30082 C 2867.58 -2.63759 -6.30016 0
M  V30 30083 O 2867.27 -3.65139 -7.16191 0
M  V30 30084 H 2867 0.0185983 -0.675744 0
M  V30 30085 H 2869.56 -0.5942 -1.96617 0
M  V30 30086 H 2867.79 1.34963 -3.62384 0
M  V30 30087 H 2869.47 1.05335 -3.91994 0
M  V30 30088 H 2870.24 -1.3146 -4.66844 0
M  V30 30089 H 2866.12 -0.0898167 -4.60912 0
M  V30 30090 H 2869.66 -3.13745 -6.23065 0
M  V30 30091 H 2865.56 -1.9044 -6.16768 0
M  V30 30092 H 2866.33 -3.61525 -7.34331 0
M  V30 30093 N 2868.99 1.56866 -0.151912 0
M  V30 30094 C 2869.96 2.15814 0.771823 0
M  V30 30095 C 2870.96 1.10117 1.17179 0
M  V30 30096 O 2872.15 1.35731 1.09191 0
M  V30 30097 C 2869.28 2.72524 2.04801 0
M  V30 30098 H 2870.47 2.9878 0.258969 0
M  V30 30099 H 2868.02 1.55995 0.0975606 0
M  V30 30100 H 2868.76 1.93238 2.60441 0
M  V30 30101 H 2868.54 3.49857 1.77038 0
M  V30 30102 H 2870.03 3.17925 2.70765 0
M  V30 30103 N 2870.47 -0.121866 1.57128 0
M  V30 30104 C 2871.43 -1.13368 1.99199 0
M  V30 30105 C 2872.43 -1.34469 0.881751 0
M  V30 30106 O 2873.62 -1.31034 1.14785 0
M  V30 30107 C 2870.76 -2.48876 2.32967 0
M  V30 30108 H 2871.95 -0.772153 2.89789 0
M  V30 30109 H 2869.5 -0.366066 1.51953 0
M  V30 30110 H 2870.24 -2.89955 1.45248 0
M  V30 30111 H 2870.02 -2.34915 3.13938 0
M  V30 30112 H 2871.51 -3.21702 2.66266 0
M  V30 30113 N 2871.95 -1.52648 -0.391965 0
M  V30 30114 C 2873.2 -1.67547 -1.13729 0
M  V30 30115 C 2873.52 -0.413915 -1.90045 0
M  V30 30116 O 2872.78 0.603613 -1.86159 0
M  V30 30117 C 2873.08 -2.85953 -2.14396 0
M  V30 30118 C 2872.74 -4.2351 -1.54759 0
M  V30 30119 C 2871.41 -4.60921 -1.38221 0
M  V30 30120 C 2873.76 -5.09162 -1.11373 0
M  V30 30121 C 2871.09 -5.81646 -0.768398 0
M  V30 30122 C 2873.44 -6.30508 -0.514032 0
M  V30 30123 C 2872.1 -6.66654 -0.335923 0
M  V30 30124 H 2871.37 -0.613098 -0.416163 0
M  V30 30125 H 2874.02 -1.86786 -0.422294 0
M  V30 30126 H 2872.32 -2.61119 -2.92103 0
M  V30 30127 H 2874.02 -2.94676 -2.71969 0
M  V30 30128 H 2870.61 -3.94038 -1.68619 0
M  V30 30129 H 2874.79 -4.80829 -1.22953 0
M  V30 30130 H 2870.05 -6.08263 -0.618574 0
M  V30 30131 H 2874.22 -6.96194 -0.169534 0
M  V30 30132 H 2871.85 -7.60068 0.141794 0
M  V30 30133 N 2873.43 0.650235 -1.43561 0
M  V30 30134 C 2874.38 1.75625 -1.45395 0
M  V30 30135 C 2875.36 1.57644 -0.322033 0
M  V30 30136 O 2876.55 1.67706 -0.566025 0
M  V30 30137 C 2873.68 3.14228 -1.3826 0
M  V30 30138 C 2872.77 3.37746 -2.56493 0
M  V30 30139 N 2873.16 3.31722 -3.8183 0
M  V30 30140 C 2871.46 3.68476 -2.5128 0
M  V30 30141 C 2872.16 3.55404 -4.60503 0
M  V30 30142 N 2871.13 3.7736 -3.9128 0
M  V30 30143 H 2874.94 1.69398 -2.4017 0
M  V30 30144 H 2872.45 0.852013 -1.38255 0
M  V30 30145 H 2874.45 3.93518 -1.37657 0
M  V30 30146 H 2873.11 3.21635 -0.445076 0
M  V30 30147 H 2874.12 3.11067 -4.14075 0
M  V30 30148 H 2870.79 3.8298 -1.6623 0
M  V30 30149 H 2872.18 3.565 -5.69524 0
M  V30 30150 N 2874.9 1.30141 0.88888 0
M  V30 30151 C 2875.85 1.16191 1.9942 0
M  V30 30152 C 2876.82 0.0524161 1.66017 0
M  V30 30153 O 2878.01 0.221897 1.89505 0
M  V30 30154 C 2875.15 0.855671 3.34324 0
M  V30 30155 C 2874.26 2.04667 3.80441 0
M  V30 30156 C 2873.39 1.67885 5.03972 0
M  V30 30157 C 2872.43 2.83503 5.42487 0
M  V30 30158 N 2871.57 2.47044 6.57201 0
M  V30 30159 H 2876.41 2.10752 2.10683 0
M  V30 30160 H 2873.95 1.04861 1.03163 0
M  V30 30161 H 2875.91 0.658753 4.11966 0
M  V30 30162 H 2874.54 -0.0530588 3.22756 0
M  V30 30163 H 2873.59 2.35496 2.98741 0
M  V30 30164 H 2874.9 2.91265 4.04928 0
M  V30 30165 H 2874.05 1.44545 5.8923 0
M  V30 30166 H 2872.79 0.784515 4.81349 0
M  V30 30167 H 2871.8 3.07513 4.55759 0
M  V30 30168 H 2873.02 3.73617 5.67086 0
M  V30 30169 H 2870.97 1.60111 6.36161 0
M  V30 30170 H 2870.89 3.27173 6.81538 0
M  V30 30171 H 2872.15 2.27051 7.457 0
M  V30 30172 N 2876.38 -1.1007 1.12794 0
M  V30 30173 C 2877.33 -2.18608 0.794561 0
M  V30 30174 C 2878.32 -1.67962 -0.220241 0
M  V30 30175 O 2879.53 -1.79831 -0.0780622 0
M  V30 30176 H 2875.91 -0.712964 0.239135 0
M  V30 30177 H 2877.88 -2.43963 1.71828 0
M  V30 30178 C 2876.63 -3.46653 0.269609 0
M  V30 30179 H 2875.95 -3.85988 1.04178 0
M  V30 30180 H 2877.39 -4.23934 0.0746987 0
M  V30 30181 C 2875.85 -3.21615 -1.00327 0
M  V30 30182 O 2876.38 -3.43633 -2.08036 0
M  V30 30183 N 2874.58 -2.75259 -0.931715 0
M  V30 30184 H 2874.13 -2.57541 -0.0550745 0
M  V30 30185 H 2874.09 -2.58884 -1.784 0
M  V30 30186 N 2877.86 -0.920419 -1.2793 0
M  V30 30187 C 2879.27 -0.602647 -1.76706 0
M  V30 30188 C 2879.62 0.882129 -1.75251 0
M  V30 30189 O 2878.75 1.69016 -1.35138 0
M  V30 30190 C 2879.34 -1.08719 -3.20882 0
M  V30 30191 C 2877.9 -0.820222 -3.67354 0
M  V30 30192 C 2877.05 -1.2501 -2.47523 0
M  V30 30193 H 2880 -1.10097 -1.14299 0
M  V30 30194 H 2880.02 -0.431602 -3.78044 0
M  V30 30195 H 2879.53 -2.16786 -3.21909 0
M  V30 30196 H 2877.63 0.246946 -3.71781 0
M  V30 30197 H 2877.75 -1.43265 -4.57178 0
M  V30 30198 H 2876.11 -0.668742 -2.45764 0
M  V30 30199 H 2876.89 -2.33925 -2.51265 0
M  V30 30200 N 2879.34 1.41929 -0.685124 0
M  V30 30201 C 2880.59 2.00993 -0.211275 0
M  V30 30202 C 2880.91 1.54494 1.18982 0
M  V30 30203 O 2880.18 0.771032 1.80089 0
M  V30 30204 H 2878.76 0.743213 -0.075119 0
M  V30 30205 H 2881.42 1.73702 -0.883946 0
M  V30 30206 H 2880.52 3.1132 -0.220568 0
M  V30 30207 N 2880.82 0.429152 1.51644 0
M  V30 30208 C 2882.06 -0.140251 2.02314 0
M  V30 30209 C 2882.4 -1.43072 1.31317 0
M  V30 30210 O 2881.67 -1.89787 0.425565 0
M  V30 30211 C 2881.95 -0.367427 3.58221 0
M  V30 30212 C 2881.81 0.941117 4.39844 0
M  V30 30213 C 2883.13 -1.14082 4.25057 0
M  V30 30214 H 2880.24 -0.0494983 0.735336 0
M  V30 30215 H 2882.89 0.566546 1.81357 0
M  V30 30216 H 2881.04 -0.96949 3.76209 0
M  V30 30217 H 2882.71 1.57653 4.33524 0
M  V30 30218 H 2880.95 1.54758 4.05256 0
M  V30 30219 H 2881.62 0.736306 5.47067 0
M  V30 30220 H 2884.1 -0.630913 4.11289 0
M  V30 30221 H 2882.97 -1.26853 5.34041 0
M  V30 30222 H 2883.24 -2.16676 3.85362 0
M  V30 30223 N 2882.29 -1.56783 0.160229 0
M  V30 30224 C 2883.54 -1.96834 -0.488276 0
M  V30 30225 C 2883.87 -1.04574 -1.6364 0
M  V30 30226 O 2883.15 -0.0906822 -1.94288 0
M  V30 30227 C 2883.43 -3.46456 -0.981847 0
M  V30 30228 C 2883.28 -4.49495 0.165686 0
M  V30 30229 C 2884.6 -3.98899 -1.85924 0
M  V30 30230 H 2881.72 -0.715673 -0.176014 0
M  V30 30231 H 2884.36 -1.88425 0.244127 0
M  V30 30232 H 2882.51 -3.53753 -1.60596 0
M  V30 30233 H 2884.19 -4.54267 0.802451 0
M  V30 30234 H 2882.43 -4.25924 0.822864 0
M  V30 30235 H 2883.1 -5.51555 -0.221602 0
M  V30 30236 H 2885.58 -3.94164 -1.3332 0
M  V30 30237 H 2884.45 -5.04028 -2.17364 0
M  V30 30238 H 2884.71 -3.42047 -2.801 0
M  V30 30239 N 2883.77 0.113531 -1.57191 0
M  V30 30240 C 2885 0.834389 -1.89329 0
M  V30 30241 C 2885.42 1.73175 -0.752049 0
M  V30 30242 O 2884.77 1.80387 0.276881 0
M  V30 30243 C 2884.82 1.66324 -3.20965 0
M  V30 30244 O 2884.55 0.801993 -4.30697 0
M  V30 30245 C 2886.05 2.48877 -3.66845 0
M  V30 30246 H 2883.27 0.239576 -0.626773 0
M  V30 30247 H 2885.81 0.0962836 -2.04273 0
M  V30 30248 H 2883.97 2.35404 -3.07675 0
M  V30 30249 H 2884.38 1.37422 -5.06177 0
M  V30 30250 H 2885.85 3.02555 -4.61697 0
M  V30 30251 H 2886.33 3.2649 -2.93771 0
M  V30 30252 H 2886.94 1.85029 -3.82942 0
M  V30 30253 N 2885.25 1.52854 0.383864 0
M  V30 30254 C 2886.5 1.67816 1.12616 0
M  V30 30255 C 2886.82 0.423174 1.90353 0
M  V30 30256 O 2886.09 -0.562521 1.8765 0
M  V30 30257 H 2884.67 0.618609 0.418727 0
M  V30 30258 H 2887.33 1.89985 0.434917 0
M  V30 30259 H 2886.43 2.53094 1.8262 0
M  V30 30260 N 2886.73 -0.642612 1.43904 0
M  V30 30261 C 2887.95 -1.43481 1.4976 0
M  V30 30262 C 2888.38 -1.87717 0.119944 0
M  V30 30263 O 2887.74 -1.58034 -0.88853 0
M  V30 30264 C 2887.79 -2.63894 2.45749 0
M  V30 30265 O 2886.89 -3.63327 1.95108 0
M  V30 30266 H 2886.23 -0.429782 0.506146 0
M  V30 30267 H 2888.76 -0.785404 1.88925 0
M  V30 30268 H 2888.77 -3.1158 2.63405 0
M  V30 30269 H 2887.45 -2.3104 3.45822 0
M  V30 30270 H 2886.02 -3.22528 1.87163 0
M  V30 30271 N 2888.21 -1.30611 -0.881966 0
M  V30 30272 C 2889.17 -1.17223 -1.96955 0
M  V30 30273 C 2890.17 -0.102626 -1.60472 0
M  V30 30274 O 2891.36 -0.350973 -1.70628 0
M  V30 30275 C 2888.49 -0.796631 -3.31461 0
M  V30 30276 H 2889.69 -2.13849 -2.10258 0
M  V30 30277 H 2887.24 -1.1405 -1.06875 0
M  V30 30278 H 2887.97 0.168996 -3.23859 0
M  V30 30279 H 2887.76 -1.56965 -3.59311 0
M  V30 30280 H 2889.25 -0.726522 -4.11232 0
M  V30 30281 N 2889.69 1.0947 -1.13376 0
M  V30 30282 C 2890.93 1.81906 -0.896548 0
M  V30 30283 C 2891.26 1.85464 0.5759 0
M  V30 30284 O 2890.54 1.32254 1.42616 0
M  V30 30285 C 2890.82 3.28077 -1.48451 0
M  V30 30286 C 2890.68 3.32793 -3.02604 0
M  V30 30287 C 2891.99 4.24746 -1.15233 0
M  V30 30288 H 2889.11 0.660416 -0.327138 0
M  V30 30289 H 2891.76 1.28237 -1.40197 0
M  V30 30290 H 2889.91 3.7391 -1.05467 0
M  V30 30291 H 2891.58 2.95365 -3.5434 0
M  V30 30292 H 2889.82 2.72391 -3.37618 0
M  V30 30293 H 2890.49 4.35764 -3.38842 0
M  V30 30294 H 2892.97 3.87196 -1.52376 0
M  V30 30295 H 2891.84 5.2536 -1.59021 0
M  V30 30296 H 2892.1 4.42051 -0.0659668 0
M  V30 30297 N 2891.16 0.92719 1.2744 0
M  V30 30298 C 2892.41 0.566237 1.94006 0
M  V30 30299 C 2892.73 -0.895314 1.73231 0
M  V30 30300 O 2892 -1.63457 1.07976 0
M  V30 30301 H 2890.58 0.206422 0.717913 0
M  V30 30302 H 2893.24 1.17947 1.55159 0
M  V30 30303 H 2892.34 0.772082 3.02399 0
M  V30 30304 N 2892.64 -1.41564 0.692641 0
M  V30 30305 C 2893.88 -2.03141 0.226488 0
M  V30 30306 C 2894.25 -1.53662 -1.15118 0
M  V30 30307 O 2895.45 -2.07146 -1.71301 0
M  V30 30308 C 2893.72 -3.56312 0.278612 0
M  V30 30309 S 2895.28 -4.38652 -0.113924 0
M  V30 30310 H 2892.09 -0.705089 0.0914891 0
M  V30 30311 H 2894.7 -1.73042 0.909767 0
M  V30 30312 H 2893.4 -3.89819 1.28332 0
M  V30 30313 H 2892.93 -3.91109 -0.423912 0
M  V30 30314 H 2894.95 -4.77695 -1.34248 0
M  V30 30315 N 2894.12 -0.437188 -1.51415 0
M  V30 30316 C 2895.4 0.189258 -1.94682 0
M  V30 30317 C 2895.78 1.60106 -1.37584 0
M  V30 30318 O 2895.12 2.21459 -0.562854 0
M  V30 30319 C 2895.33 0.167139 -3.486 0
M  V30 30320 C 2896.68 0.372782 -4.2296 0
M  V30 30321 O 2897.71 0.24526 -3.55355 0
M  V30 30322 O 2896.57 0.626598 -5.42896 0
M  V30 30323 H 2893.66 0.130049 -0.816711 0
M  V30 30324 H 2896.21 -0.495156 -1.62315 0
M  V30 30325 H 2894.98 -0.819878 -3.82614 0
M  V30 30326 H 2894.6 0.894469 -3.87408 0
M  V30 30327 N 2895.6 1.56696 -0.168541 0
M  V30 30328 C 2897.01 1.83415 0.348662 0
M  V30 30329 C 2897.36 1.08823 1.63255 0
M  V30 30330 O 2896.48 0.34037 2.13706 0
M  V30 30331 C 2897.08 3.32712 0.639365 0
M  V30 30332 C 2895.64 3.59937 1.10102 0
M  V30 30333 C 2894.79 2.76969 0.135415 0
M  V30 30334 H 2897.74 1.53761 -0.392856 0
M  V30 30335 H 2897.76 3.5004 1.49173 0
M  V30 30336 H 2897.27 3.86975 -0.295241 0
M  V30 30337 H 2895.37 3.11082 2.05082 0
M  V30 30338 H 2895.48 4.68288 1.0121 0
M  V30 30339 H 2893.85 2.46728 0.632242 0
M  V30 30340 H 2894.63 3.34012 -0.793162 0
M  V30 30341 N 2897.08 -0.105193 1.57249 0
M  V30 30342 C 2898.35 -0.841616 1.76568 0
M  V30 30343 C 2898.73 -1.97419 0.7476 0
M  V30 30344 O 2898.08 -2.27381 -0.225846 0
M  V30 30345 C 2898.29 -1.34555 3.22019 0
M  V30 30346 C 2899.64 -1.79238 3.84914 0
M  V30 30347 O 2900.66 -1.44202 3.25706 0
M  V30 30348 O 2899.52 -2.43986 4.89012 0
M  V30 30349 H 2896.62 -0.400685 0.72345 0
M  V30 30350 H 2899.16 -0.0878595 1.69472 0
M  V30 30351 H 2897.93 -0.533617 3.87644 0
M  V30 30352 H 2897.56 -2.16161 3.33707 0
M  V30 30353 N 2898.55 -1.53055 -0.375752 0
M  V30 30354 C 2899.48 -1.81748 -1.46594 0
M  V30 30355 C 2900.47 -0.670314 -1.56336 0
M  V30 30356 O 2901.65 -0.919188 -1.71069 0
M  V30 30357 C 2898.78 -1.99826 -2.84054 0
M  V30 30358 C 2897.73 -3.15562 -2.89145 0
M  V30 30359 C 2897.06 -3.18915 -4.29182 0
M  V30 30360 C 2898.36 -4.54363 -2.57587 0
M  V30 30361 H 2900.05 -2.73043 -1.22832 0
M  V30 30362 H 2897.6 -1.31382 -0.589462 0
M  V30 30363 H 2899.55 -2.18482 -3.60338 0
M  V30 30364 H 2898.28 -1.05232 -3.09183 0
M  V30 30365 H 2896.94 -2.9671 -2.15311 0
M  V30 30366 H 2896.58 -2.21978 -4.5137 0
M  V30 30367 H 2896.28 -3.9667 -4.33505 0
M  V30 30368 H 2897.81 -3.39742 -5.07353 0
M  V30 30369 H 2899.22 -4.73249 -3.23587 0
M  V30 30370 H 2897.62 -5.34283 -2.73242 0
M  V30 30371 H 2898.69 -4.60171 -1.52874 0
M  V30 30372 N 2900.03 0.634971 -1.44242 0
M  V30 30373 C 2901.28 1.3946 -1.46823 0
M  V30 30374 C 2901.61 1.94246 -0.0993704 0
M  V30 30375 O 2900.86 1.73865 0.898295 0
M  V30 30376 C 2901.16 2.58042 -2.47284 0
M  V30 30377 C 2900.83 2.21567 -3.92707 0
M  V30 30378 C 2899.49 2.11333 -4.3231 0
M  V30 30379 C 2901.84 1.92687 -4.84274 0
M  V30 30380 C 2899.17 1.704 -5.6141 0
M  V30 30381 C 2901.52 1.53247 -6.13757 0
M  V30 30382 C 2900.19 1.41551 -6.52319 0
M  V30 30383 H 2899.46 0.510321 -0.537265 0
M  V30 30384 H 2902.1 0.720409 -1.77433 0
M  V30 30385 H 2900.41 3.30676 -2.10144 0
M  V30 30386 H 2902.1 3.16267 -2.46528 0
M  V30 30387 H 2898.69 2.3045 -3.61373 0
M  V30 30388 H 2902.88 1.99505 -4.54435 0
M  V30 30389 H 2898.13 1.59945 -5.90108 0
M  V30 30390 H 2902.31 1.29937 -6.84171 0
M  V30 30391 H 2899.94 1.09605 -7.52257 0
M  V30 30392 N 2901.51 1.31076 0.875027 0
M  V30 30393 C 2902.76 1.2166 1.63004 0
M  V30 30394 C 2903.11 -0.224272 1.91088 0
M  V30 30395 O 2902.4 -1.15623 1.52781 0
M  V30 30396 C 2902.6 1.98894 2.96945 0
M  V30 30397 C 2902.43 3.50344 2.81938 0
M  V30 30398 C 2901.2 4.19698 2.81393 0
M  V30 30399 C 2903.4 4.45389 2.57163 0
M  V30 30400 N 2901.38 5.5734 2.57382 0
M  V30 30401 C 2902.75 5.70664 2.42368 0
M  V30 30402 C 2904.8 4.34873 2.42467 0
M  V30 30403 C 2903.51 6.86613 2.14373 0
M  V30 30404 C 2905.53 5.50599 2.15858 0
M  V30 30405 C 2904.89 6.7486 2.01848 0
M  V30 30406 H 2900.99 0.500282 0.601034 0
M  V30 30407 H 2903.58 1.65205 1.0303 0
M  V30 30408 H 2901.75 1.57724 3.54933 0
M  V30 30409 H 2903.48 1.81538 3.61699 0
M  V30 30410 H 2900.24 3.71621 2.93589 0
M  V30 30411 H 2900.66 6.29798 2.48362 0
M  V30 30412 H 2905.3 3.39472 2.52029 0
M  V30 30413 H 2903.02 7.82045 2.03548 0
M  V30 30414 H 2906.61 5.44376 2.05295 0
M  V30 30415 H 2905.49 7.62896 1.81549 0
M  V30 30416 N 2902.99 -1.08867 1.13955 0
M  V30 30417 C 2904.21 -1.85451 0.928592 0
M  V30 30418 C 2904.64 -1.80838 -0.51761 0
M  V30 30419 O 2904 -1.19003 -1.36777 0
M  V30 30420 C 2904.04 -3.31111 1.4282 0
M  V30 30421 O 2903.15 -4.07755 0.617201 0
M  V30 30422 H 2902.49 -0.574833 0.33236 0
M  V30 30423 H 2905.02 -1.3744 1.51563 0
M  V30 30424 H 2905.03 -3.81957 1.43432 0
M  V30 30425 H 2903.7 -3.33784 2.48115 0
M  V30 30426 H 2902.28 -3.66658 0.67943 0
M  V30 30427 N 2904.47 -0.933936 -1.26946 0
M  V30 30428 C 2905.41 -0.436524 -2.26634 0
M  V30 30429 C 2906.38 0.499925 -1.58398 0
M  V30 30430 O 2907.57 0.41772 -1.86171 0
M  V30 30431 C 2904.71 0.298891 -3.43803 0
M  V30 30432 C 2903.82 -0.672391 -4.26735 0
M  V30 30433 C 2902.96 0.0834938 -5.31134 0
M  V30 30434 C 2902 -0.880086 -6.0574 0
M  V30 30435 N 2901.13 -0.156425 -7.01926 0
M  V30 30436 H 2905.97 -1.29158 -2.68556 0
M  V30 30437 H 2903.51 -0.648142 -1.32051 0
M  V30 30438 H 2905.47 0.741651 -4.10555 0
M  V30 30439 H 2904.1 1.11814 -3.02816 0
M  V30 30440 H 2903.15 -1.23367 -3.5984 0
M  V30 30441 H 2904.46 -1.40855 -4.78499 0
M  V30 30442 H 2903.62 0.585877 -6.03865 0
M  V30 30443 H 2902.35 0.852576 -4.8019 0
M  V30 30444 H 2901.36 -1.39366 -5.31843 0
M  V30 30445 H 2902.58 -1.64905 -6.58774 0
M  V30 30446 H 2900.53 0.594298 -6.53302 0
M  V30 30447 H 2900.45 -0.832038 -7.51407 0
M  V30 30448 H 2901.72 0.325102 -7.78822 0
M  V30 30449 N 2905.94 1.41194 -0.700139 0
M  V30 30450 C 2907.19 2.00383 -0.230117 0
M  V30 30451 C 2907.51 1.56108 1.17854 0
M  V30 30452 O 2908.71 2.07888 1.74627 0
M  V30 30453 C 2907.17 3.5809 -0.36051 0
M  V30 30454 C 2906.78 4.11344 -1.77482 0
M  V30 30455 C 2908.52 4.24471 0.0495053 0
M  V30 30456 C 2906.43 5.61501 -1.85663 0
M  V30 30457 H 2905.36 0.749498 -0.0822765 0
M  V30 30458 H 2908.01 1.61619 -0.868998 0
M  V30 30459 H 2906.39 3.94479 0.346698 0
M  V30 30460 H 2907.56 3.86364 -2.51116 0
M  V30 30461 H 2905.88 3.57505 -2.13492 0
M  V30 30462 H 2908.48 5.34699 0.00888821 0
M  V30 30463 H 2908.82 4.01805 1.08897 0
M  V30 30464 H 2909.35 3.93133 -0.60759 0
M  V30 30465 H 2906.09 5.89001 -2.87678 0
M  V30 30466 H 2905.61 5.88393 -1.1642 0
M  V30 30467 H 2907.29 6.26349 -1.62162 0
M  V30 30468 N 2907.42 0.445212 1.51181 0
M  V30 30469 C 2908.83 -0.0160671 1.86693 0
M  V30 30470 C 2909.18 -1.41237 1.36185 0
M  V30 30471 O 2908.31 -2.04214 0.715931 0
M  V30 30472 C 2908.9 -0.0359323 3.38781 0
M  V30 30473 C 2907.46 -0.441649 3.738 0
M  V30 30474 C 2906.61 0.360559 2.74946 0
M  V30 30475 H 2909.56 0.6607 1.44293 0
M  V30 30476 H 2909.58 -0.843748 3.71027 0
M  V30 30477 H 2909.09 0.980444 3.75512 0
M  V30 30478 H 2907.2 -1.46334 3.42662 0
M  V30 30479 H 2907.31 -0.160976 4.78829 0
M  V30 30480 H 2905.67 -0.182225 2.54047 0
M  V30 30481 H 2906.46 1.37596 3.14519 0
M  V30 30482 N 2908.9 -1.56605 0.176849 0
M  V30 30483 C 2910.15 -1.97341 -0.467371 0
M  V30 30484 C 2910.48 -1.06304 -1.62521 0
M  V30 30485 O 2909.75 -0.111284 -1.94181 0
M  V30 30486 C 2910.04 -3.47478 -0.945045 0
M  V30 30487 C 2909.89 -4.49294 0.213352 0
M  V30 30488 C 2911.21 -4.00848 -1.81683 0
M  V30 30489 H 2908.33 -0.7175 -0.168414 0
M  V30 30490 H 2910.97 -1.88156 0.264098 0
M  V30 30491 H 2909.12 -3.55437 -1.56835 0
M  V30 30492 H 2910.79 -4.5339 0.850587 0
M  V30 30493 H 2909.04 -4.25027 0.867993 0
M  V30 30494 H 2909.71 -5.51759 -0.16309 0
M  V30 30495 H 2912.18 -3.95555 -1.29132 0
M  V30 30496 H 2911.06 -5.06305 -2.12006 0
M  V30 30497 H 2911.32 -3.44999 -2.76457 0
M  V30 30498 N 2910.38 0.0968524 -1.57302 0
M  V30 30499 C 2911.31 1.11842 -2.04972 0
M  V30 30500 C 2912.29 1.4188 -0.938303 0
M  V30 30501 O 2913.47 1.5194 -1.20946 0
M  V30 30502 C 2910.6 2.43877 -2.47268 0
M  V30 30503 C 2909.56 2.28251 -3.62057 0
M  V30 30504 C 2908.88 3.65447 -3.90324 0
M  V30 30505 C 2910.18 1.72453 -4.93009 0
M  V30 30506 H 2911.88 0.721836 -2.90568 0
M  V30 30507 H 2909.42 0.345778 -1.39787 0
M  V30 30508 H 2911.38 3.15612 -2.79225 0
M  V30 30509 H 2910.1 2.85467 -1.58669 0
M  V30 30510 H 2908.76 1.58961 -3.30344 0
M  V30 30511 H 2908.41 4.04562 -2.98896 0
M  V30 30512 H 2908.11 3.55838 -4.67603 0
M  V30 30513 H 2909.63 4.38652 -4.24755 0
M  V30 30514 H 2911.05 2.34027 -5.23359 0
M  V30 30515 H 2909.44 1.73608 -5.74439 0
M  V30 30516 H 2910.51 0.683814 -4.80054 0
M  V30 30517 N 2911.86 1.53252 0.36763 0
M  V30 30518 C 2912.79 1.74326 1.47261 0
M  V30 30519 C 2913.77 0.591562 1.51457 0
M  V30 30520 O 2914.95 0.823912 1.6954 0
M  V30 30521 C 2912.08 1.8202 2.85634 0
M  V30 30522 C 2911.12 3.03972 2.99171 0
M  V30 30523 S 2911.96 4.63532 2.68139 0
M  V30 30524 C 2913.11 4.74072 4.08664 0
M  V30 30525 H 2913.35 2.67776 1.29165 0
M  V30 30526 H 2910.88 1.43815 0.561841 0
M  V30 30527 H 2912.84 1.87138 3.65362 0
M  V30 30528 H 2911.5 0.896248 3.01042 0
M  V30 30529 H 2910.69 3.0596 4.00505 0
M  V30 30530 H 2910.29 2.96956 2.27362 0
M  V30 30531 H 2912.59 4.54001 5.02881 0
M  V30 30532 H 2913.53 5.76127 4.11683 0
M  V30 30533 H 2913.94 4.02723 3.95569 0
M  V30 30534 N 2913.34 -0.627313 1.44577 0
M  V30 30535 C 2914.25 -1.76773 1.54235 0
M  V30 30536 C 2915.26 -1.68659 0.427811 0
M  V30 30537 O 2916.44 -1.89368 0.685705 0
M  V30 30538 C 2913.5 -3.13171 1.48744 0
M  V30 30539 C 2912.56 -3.32888 2.71079 0
M  V30 30540 C 2911.8 -4.62779 2.6584 0
M  V30 30541 O 2912.02 -5.43831 1.72057 0
M  V30 30542 O 2910.95 -4.84781 3.5675 0
M  V30 30543 H 2914.78 -1.71577 2.50589 0
M  V30 30544 H 2912.36 -0.789006 1.26866 0
M  V30 30545 H 2914.25 -3.94474 1.48218 0
M  V30 30546 H 2912.92 -3.18901 0.555348 0
M  V30 30547 H 2911.83 -2.5125 2.77172 0
M  V30 30548 H 2913.16 -3.32023 3.63348 0
M  V30 30549 N 2914.81 -1.31539 -0.868063 0
M  V30 30550 C 2915.72 -1.21314 -2.00798 0
M  V30 30551 C 2916.74 -0.129462 -1.73518 0
M  V30 30552 O 2917.92 -0.347623 -1.98377 0
M  V30 30553 C 2914.98 -0.922994 -3.34188 0
M  V30 30554 C 2914.04 -2.09377 -3.7478 0
M  V30 30555 C 2913.27 -1.81737 -5.01804 0
M  V30 30556 O 2913.5 -0.753412 -5.65402 0
M  V30 30557 O 2912.43 -2.67467 -5.39208 0
M  V30 30558 H 2916.26 -2.17113 -2.12357 0
M  V30 30559 H 2913.84 -1.11297 -0.996664 0
M  V30 30560 H 2915.72 -0.777106 -4.14173 0
M  V30 30561 H 2914.4 0.00494611 -3.237 0
M  V30 30562 H 2913.31 -2.29506 -2.95428 0
M  V30 30563 H 2914.64 -3.00402 -3.89896 0
M  V30 30564 N 2916.29 1.08262 -1.1453 0
M  V30 30565 C 2917.24 2.1522 -0.833593 0
M  V30 30566 C 2918.21 1.64773 0.20951 0
M  V30 30567 O 2919.39 1.90636 0.0791053 0
M  V30 30568 C 2916.53 3.43624 -0.31886 0
M  V30 30569 C 2915.65 4.0791 -1.42244 0
M  V30 30570 C 2914.78 5.24113 -0.864796 0
M  V30 30571 C 2913.82 5.80344 -1.94595 0
M  V30 30572 N 2912.96 6.87891 -1.40537 0
M  V30 30573 H 2917.8 2.41225 -1.74969 0
M  V30 30574 H 2915.33 1.1838 -0.87319 0
M  V30 30575 H 2917.29 4.172 -0.00220421 0
M  V30 30576 H 2915.92 3.17899 0.560342 0
M  V30 30577 H 2914.97 3.3208 -1.85546 0
M  V30 30578 H 2916.29 4.4572 -2.23909 0
M  V30 30579 H 2915.44 6.04635 -0.500131 0
M  V30 30580 H 2914.18 4.87697 -0.0172077 0
M  V30 30581 H 2913.18 4.98475 -2.31955 0
M  V30 30582 H 2914.41 6.18818 -2.79715 0
M  V30 30583 H 2912.36 6.53431 -0.579988 0
M  V30 30584 H 2912.27 7.24534 -2.15838 0
M  V30 30585 H 2913.54 7.7214 -1.06866 0
M  V30 30586 N 2917.77 0.940655 1.26449 0
M  V30 30587 C 2918.7 0.467519 2.28772 0
M  V30 30588 C 2919.68 -0.478927 1.63219 0
M  V30 30589 O 2920.87 -0.380895 1.90428 0
M  V30 30590 C 2918 -0.268595 3.4626 0
M  V30 30591 C 2916.95 0.591246 4.23897 0
M  V30 30592 C 2916.28 -0.274797 5.33993 0
M  V30 30593 C 2917.58 1.86232 4.8797 0
M  V30 30594 H 2919.27 1.3227 2.68598 0
M  V30 30595 H 2916.82 0.637458 1.29122 0
M  V30 30596 H 2918.77 -0.610623 4.16952 0
M  V30 30597 H 2917.49 -1.15791 3.05385 0
M  V30 30598 H 2916.15 0.916161 3.54968 0
M  V30 30599 H 2915.8 -1.16345 4.8936 0
M  V30 30600 H 2915.5 0.297109 5.86848 0
M  V30 30601 H 2917.02 -0.612106 6.07524 0
M  V30 30602 H 2918.44 1.58757 5.5088 0
M  V30 30603 H 2916.83 2.37875 5.5094 0
M  V30 30604 H 2917.9 2.57402 4.10941 0
M  V30 30605 N 2919.25 -1.40821 0.707617 0
M  V30 30606 C 2920.49 -2.01028 0.243706 0
M  V30 30607 C 2920.82 -1.56082 -1.16054 0
M  V30 30608 O 2920.08 -0.768283 -1.79989 0
M  V30 30609 C 2920.38 -3.56431 0.262955 0
M  V30 30610 C 2920.04 -4.20932 1.61639 0
M  V30 30611 C 2918.7 -4.38265 1.9869 0
M  V30 30612 C 2921.06 -4.56985 2.50627 0
M  V30 30613 C 2918.38 -4.88931 3.24289 0
M  V30 30614 C 2920.74 -5.09048 3.7557 0
M  V30 30615 C 2919.4 -5.2459 4.12748 0
M  V30 30616 H 2918.67 -0.735614 0.0891783 0
M  V30 30617 H 2921.32 -1.68547 0.909081 0
M  V30 30618 H 2919.62 -3.88774 -0.485984 0
M  V30 30619 H 2921.32 -4.00839 -0.113704 0
M  V30 30620 H 2917.91 -4.07823 1.31826 0
M  V30 30621 H 2922.09 -4.43238 2.2328 0
M  V30 30622 H 2917.35 -4.99149 3.53072 0
M  V30 30623 H 2921.52 -5.35923 4.44701 0
M  V30 30624 H 2919.15 -5.63613 5.10142 0
M  V30 30625 N 2920.73 -0.453223 -1.50943 0
M  V30 30626 C 2921.69 0.338665 -2.26684 0
M  V30 30627 C 2922.69 0.936009 -1.3075 0
M  V30 30628 O 2923.88 0.807975 -1.54329 0
M  V30 30629 C 2921.01 1.48066 -3.07066 0
M  V30 30630 H 2922.2 -0.325342 -2.9813 0
M  V30 30631 H 2919.76 -0.206798 -1.54926 0
M  V30 30632 H 2920.49 2.18025 -2.40074 0
M  V30 30633 H 2920.28 1.05833 -3.77547 0
M  V30 30634 H 2921.77 2.03973 -3.64396 0
M  V30 30635 N 2922.2 1.56509 -0.185151 0
M  V30 30636 C 2923.45 1.97294 0.456223 0
M  V30 30637 C 2923.78 1.07168 1.62313 0
M  V30 30638 O 2923.03 0.108655 1.95398 0
M  V30 30639 C 2923.33 3.44044 0.967916 0
M  V30 30640 C 2923 4.50821 -0.0845552 0
M  V30 30641 C 2921.66 4.79746 -0.373774 0
M  V30 30642 C 2924.01 5.15051 -0.79821 0
M  V30 30643 C 2921.34 5.70196 -1.3818 0
M  V30 30644 C 2923.69 6.0659 -1.79531 0
M  V30 30645 C 2922.36 6.33876 -2.09183 0
M  V30 30646 H 2921.63 0.721949 0.166944 0
M  V30 30647 H 2924.27 1.89442 -0.280026 0
M  V30 30648 H 2922.58 3.48917 1.78225 0
M  V30 30649 H 2924.28 3.7295 1.4734 0
M  V30 30650 H 2920.87 4.28334 0.151035 0
M  V30 30651 H 2925.05 4.92805 -0.58799 0
M  V30 30652 H 2920.31 5.89614 -1.61756 0
M  V30 30653 H 2924.48 6.55423 -2.35359 0
M  V30 30654 H 2922.11 7.03763 -2.87439 0
M  V30 30655 N 2923.68 -0.0885089 1.57351 0
M  V30 30656 C 2924.96 -0.822842 1.7745 0
M  V30 30657 C 2925.34 -1.96615 0.768497 0
M  V30 30658 O 2924.69 -2.27608 -0.201717 0
M  V30 30659 C 2924.9 -1.31132 3.23428 0
M  V30 30660 C 2926.24 -1.75145 3.86794 0
M  V30 30661 O 2927.27 -1.40739 3.27217 0
M  V30 30662 O 2926.13 -2.38786 4.91573 0
M  V30 30663 H 2923.22 -0.392989 0.727659 0
M  V30 30664 H 2925.77 -0.0698797 1.69556 0
M  V30 30665 H 2924.54 -0.492472 3.88189 0
M  V30 30666 H 2924.16 -2.12609 3.35981 0
M  V30 30667 N 2925.16 -1.53445 -0.359498 0
M  V30 30668 C 2926.39 -1.73587 -1.12032 0
M  V30 30669 C 2926.8 -0.46747 -1.83334 0
M  V30 30670 O 2926.14 0.569722 -1.74642 0
M  V30 30671 C 2926.2 -2.85071 -2.19031 0
M  V30 30672 C 2925.87 -4.2522 -1.67443 0
M  V30 30673 C 2926.86 -5.07354 -1.13525 0
M  V30 30674 C 2924.55 -4.71651 -1.72772 0
M  V30 30675 C 2926.54 -6.34013 -0.656209 0
M  V30 30676 C 2924.23 -5.98288 -1.2448 0
M  V30 30677 C 2925.23 -6.793 -0.709948 0
M  V30 30678 O 2924.92 -8.03559 -0.234173 0
M  V30 30679 H 2924.65 -0.583894 -0.340651 0
M  V30 30680 H 2927.2 -2.01009 -0.422417 0
M  V30 30681 H 2925.43 -2.53137 -2.92333 0
M  V30 30682 H 2927.12 -2.93333 -2.80554 0
M  V30 30683 H 2927.89 -4.72652 -1.08743 0
M  V30 30684 H 2923.77 -4.08663 -2.13344 0
M  V30 30685 H 2927.31 -6.97194 -0.23807 0
M  V30 30686 H 2923.21 -6.32487 -1.28958 0
M  V30 30687 H 2923.97 -8.17739 -0.35294 0
M  V30 30688 N 2926.64 0.619637 -1.44908 0
M  V30 30689 C 2927.87 1.40588 -1.51798 0
M  V30 30690 C 2928.28 1.8823 -0.146586 0
M  V30 30691 O 2927.64 1.61514 0.849669 0
M  V30 30692 C 2927.69 2.61849 -2.49233 0
M  V30 30693 O 2927.41 2.1619 -3.81043 0
M  V30 30694 C 2928.91 3.54848 -2.65703 0
M  V30 30695 H 2926.13 0.430768 -0.51447 0
M  V30 30696 H 2928.67 0.75678 -1.89982 0
M  V30 30697 H 2926.83 3.22826 -2.14154 0
M  V30 30698 H 2927.24 2.94889 -4.33752 0
M  V30 30699 H 2928.72 4.36509 -3.37882 0
M  V30 30700 H 2929.19 4.04407 -1.71323 0
M  V30 30701 H 2929.8 2.99732 -3.0173 0
M  V30 30702 N 2928.12 1.31997 0.861075 0
M  V30 30703 C 2929.36 1.2195 1.6116 0
M  V30 30704 C 2929.69 -0.220317 1.93751 0
M  V30 30705 O 2928.96 -1.14338 1.59071 0
M  V30 30706 H 2927.54 0.448364 0.597477 0
M  V30 30707 H 2930.2 1.65438 1.03036 0
M  V30 30708 H 2929.29 1.79756 2.55135 0
M  V30 30709 N 2929.59 -1.07653 1.15103 0
M  V30 30710 C 2930.82 -1.83649 0.946389 0
M  V30 30711 C 2931.23 -1.82236 -0.508609 0
M  V30 30712 O 2930.58 -1.23 -1.36443 0
M  V30 30713 C 2930.64 -3.31979 1.37951 0
M  V30 30714 C 2930.3 -3.57117 2.85161 0
M  V30 30715 C 2931.3 -3.51316 3.8324 0
M  V30 30716 C 2928.98 -3.84881 3.22757 0
M  V30 30717 C 2930.98 -3.72923 5.16921 0
M  V30 30718 C 2928.66 -4.0614 4.56611 0
M  V30 30719 C 2929.66 -4.00156 5.53502 0
M  V30 30720 O 2929.35 -4.20849 6.84939 0
M  V30 30721 H 2929.08 -0.586366 0.336379 0
M  V30 30722 H 2931.64 -1.36816 1.53201 0
M  V30 30723 H 2929.87 -3.79607 0.737271 0
M  V30 30724 H 2931.56 -3.89432 1.14446 0
M  V30 30725 H 2932.32 -3.29872 3.55541 0
M  V30 30726 H 2928.2 -3.88655 2.47928 0
M  V30 30727 H 2931.74 -3.68167 5.92536 0
M  V30 30728 H 2927.64 -4.2707 4.84027 0
M  V30 30729 H 2928.41 -4.38213 6.91311 0
M  V30 30730 N 2931.07 -0.947348 -1.25949 0
M  V30 30731 C 2932.35 -0.515857 -1.88675 0
M  V30 30732 C 2932.73 1.00671 -1.85549 0
M  V30 30733 O 2932.08 1.86938 -1.31402 0
M  V30 30734 C 2932.29 -1.08421 -3.31732 0
M  V30 30735 C 2933.64 -1.15662 -4.08543 0
M  V30 30736 O 2934.66 -1.03523 -3.40825 0
M  V30 30737 O 2933.52 -1.34617 -5.29661 0
M  V30 30738 H 2930.61 -0.169069 -0.809534 0
M  V30 30739 H 2933.16 -1.04031 -1.34073 0
M  V30 30740 H 2931.93 -2.12766 -3.284 0
M  V30 30741 H 2931.55 -0.542568 -3.93881 0
M  V30 30742 N 2932.55 1.40444 -0.715075 0
M  V30 30743 C 2933.51 2.2909 -0.0709129 0
M  V30 30744 C 2934.51 1.45343 0.6879 0
M  V30 30745 O 2935.7 1.66262 0.519879 0
M  V30 30746 C 2932.84 3.28544 0.909471 0
M  V30 30747 H 2934.03 2.87553 -0.851661 0
M  V30 30748 H 2931.58 1.48757 -0.4797 0
M  V30 30749 H 2932.32 2.75099 1.71729 0
M  V30 30750 H 2932.1 3.90367 0.368249 0
M  V30 30751 H 2933.59 3.94924 1.35737 0
M  V30 30752 N 2934.03 0.461222 1.507 0
M  V30 30753 C 2935.25 -0.0974409 2.07171 0
M  V30 30754 C 2935.68 -1.33617 1.32393 0
M  V30 30755 O 2935.04 -1.77511 0.368707 0
M  V30 30756 C 2935.08 -0.374346 3.58652 0
M  V30 30757 O 2934.19 -1.45664 3.85818 0
M  V30 30758 H 2933.53 0.00863214 0.663944 0
M  V30 30759 H 2936.06 0.649428 1.9402 0
M  V30 30760 H 2936.07 -0.617772 4.03296 0
M  V30 30761 H 2934.74 0.530902 4.12498 0
M  V30 30762 H 2933.32 -1.2013 3.5302 0
M  V30 30763 N 2935.51 -1.56408 0.193449 0
M  V30 30764 C 2936.44 -2.22015 -0.723295 0
M  V30 30765 C 2937.42 -1.18272 -1.22252 0
M  V30 30766 O 2938.6 -1.46774 -1.27166 0
M  V30 30767 C 2935.73 -2.87822 -1.94361 0
M  V30 30768 C 2934.69 -3.97794 -1.57936 0
M  V30 30769 C 2934.01 -4.50757 -2.87615 0
M  V30 30770 C 2935.31 -5.16282 -0.790549 0
M  V30 30771 H 2937.01 -2.9888 -0.176373 0
M  V30 30772 H 2934.55 -1.43758 -0.0833914 0
M  V30 30773 H 2936.51 -3.324 -2.59014 0
M  V30 30774 H 2935.23 -2.08359 -2.51503 0
M  V30 30775 H 2933.89 -3.53904 -0.956419 0
M  V30 30776 H 2933.54 -3.68059 -3.42843 0
M  V30 30777 H 2933.24 -5.24961 -2.63988 0
M  V30 30778 H 2934.76 -4.98036 -3.53259 0
M  V30 30779 H 2936.17 -5.57416 -1.34015 0
M  V30 30780 H 2934.57 -5.96542 -0.652475 0
M  V30 30781 H 2935.64 -4.84451 0.208718 0
M  V30 30782 N 2936.98 0.0801629 -1.57396 0
M  V30 30783 C 2938.21 0.797875 -1.91439 0
M  V30 30784 C 2938.63 1.70748 -0.789105 0
M  V30 30785 O 2937.99 1.79447 0.258539 0
M  V30 30786 C 2938.04 1.57461 -3.24405 0
M  V30 30787 O 2937.14 2.68468 -3.13047 0
M  V30 30788 H 2936.49 0.218232 -0.627113 0
M  V30 30789 H 2939.02 0.0509131 -2.04537 0
M  V30 30790 H 2939.03 1.95565 -3.58076 0
M  V30 30791 H 2937.7 0.907157 -4.05886 0
M  V30 30792 H 2936.28 2.33282 -2.90919 0
M  V30 30793 N 2938.46 1.53634 0.351355 0
M  V30 30794 C 2939.87 1.62038 0.9274 0
M  V30 30795 C 2940.22 0.496739 1.89808 0
M  V30 30796 O 2939.35 -0.374712 2.13131 0
M  V30 30797 C 2939.94 2.93709 1.68881 0
M  V30 30798 C 2938.5 3.04401 2.21398 0
M  V30 30799 C 2937.65 2.57433 1.0307 0
M  V30 30800 H 2940.6 1.58169 0.12972 0
M  V30 30801 H 2940.62 2.8231 2.55111 0
M  V30 30802 H 2940.13 3.75469 0.982083 0
M  V30 30803 H 2938.24 2.27258 2.9527 0
M  V30 30804 H 2938.35 4.09734 2.48305 0
M  V30 30805 H 2936.71 2.12651 1.40184 0
M  V30 30806 H 2937.5 3.41625 0.338733 0
M  V30 30807 N 2939.94 -0.611943 1.45234 0
M  V30 30808 C 2940.9 -1.70485 1.53192 0
M  V30 30809 C 2941.9 -1.55436 0.411866 0
M  V30 30810 O 2943.09 -1.60583 0.675192 0
M  V30 30811 C 2940.23 -3.09721 1.42428 0
M  V30 30812 H 2941.42 -1.64797 2.50563 0
M  V30 30813 H 2938.97 -0.827294 1.3261 0
M  V30 30814 H 2939.71 -3.20989 0.462241 0
M  V30 30815 H 2939.49 -3.22051 2.23663 0
M  V30 30816 H 2940.98 -3.89337 1.51019 0
M  V30 30817 N 2941.42 -1.32452 -0.854063 0
M  V30 30818 C 2942.66 -1.24238 -1.61048 0
M  V30 30819 C 2943.02 0.193843 -1.91421 0
M  V30 30820 O 2942.31 1.13177 -1.54601 0
M  V30 30821 C 2942.51 -2.03592 -2.93743 0
M  V30 30822 C 2942.34 -3.54785 -2.76329 0
M  V30 30823 C 2941.11 -4.24121 -2.7468 0
M  V30 30824 C 2943.3 -4.49424 -2.50045 0
M  V30 30825 N 2941.29 -5.61364 -2.48483 0
M  V30 30826 C 2942.66 -5.74448 -2.33259 0
M  V30 30827 C 2944.71 -4.38675 -2.35518 0
M  V30 30828 C 2943.41 -6.89936 -2.03422 0
M  V30 30829 C 2945.44 -5.53963 -2.07071 0
M  V30 30830 C 2944.8 -6.77986 -1.91086 0
M  V30 30831 H 2940.9 -0.509781 -0.592999 0
M  V30 30832 H 2943.49 -1.66824 -1.00389 0
M  V30 30833 H 2941.66 -1.63351 -3.52379 0
M  V30 30834 H 2943.39 -1.87269 -3.58765 0
M  V30 30835 H 2940.14 -3.76245 -2.8764 0
M  V30 30836 H 2940.57 -6.33669 -2.38311 0
M  V30 30837 H 2945.21 -3.43439 -2.46596 0
M  V30 30838 H 2942.93 -7.85184 -1.91081 0
M  V30 30839 H 2946.51 -5.47573 -1.96608 0
M  V30 30840 H 2945.39 -7.65687 -1.69389 0
M  V30 30841 N 2942.9 1.07041 -1.15672 0
M  V30 30842 C 2944.14 1.79697 -0.933549 0
M  V30 30843 C 2944.47 1.86879 0.539129 0
M  V30 30844 O 2943.73 1.35096 1.4159 0
M  V30 30845 C 2944.03 3.24546 -1.49683 0
M  V30 30846 C 2943.69 3.37458 -2.99053 0
M  V30 30847 C 2942.35 3.40689 -3.3983 0
M  V30 30848 C 2944.71 3.39997 -3.95033 0
M  V30 30849 C 2942.03 3.44067 -4.75221 0
M  V30 30850 C 2944.39 3.44911 -5.30301 0
M  V30 30851 C 2943.05 3.46422 -5.70568 0
M  V30 30852 H 2942.32 0.657559 -0.34161 0
M  V30 30853 H 2944.97 1.25935 -1.44266 0
M  V30 30854 H 2943.27 3.8111 -0.908982 0
M  V30 30855 H 2944.97 3.79345 -1.29992 0
M  V30 30856 H 2941.56 3.35644 -2.66536 0
M  V30 30857 H 2945.74 3.36719 -3.64601 0
M  V30 30858 H 2941 3.43536 -5.0576 0
M  V30 30859 H 2945.17 3.45823 -6.04466 0
M  V30 30860 H 2942.8 3.48791 -6.75462 0
M  V30 30861 N 2944.38 0.954014 1.25445 0
M  V30 30862 C 2945.29 0.480304 2.29631 0
M  V30 30863 C 2946.3 -0.452041 1.68026 0
M  V30 30864 O 2947.48 -0.328437 1.98704 0
M  V30 30865 C 2944.54 -0.234913 3.45903 0
M  V30 30866 C 2943.6 0.735569 4.22951 0
M  V30 30867 C 2942.84 0.0543895 5.33672 0
M  V30 30868 O 2943.06 -1.16008 5.58479 0
M  V30 30869 O 2941.99 0.739614 5.97339 0
M  V30 30870 H 2945.82 1.34607 2.7224 0
M  V30 30871 H 2943.4 0.720442 1.30882 0
M  V30 30872 H 2945.29 -0.637268 4.16554 0
M  V30 30873 H 2943.96 -1.07586 3.05298 0
M  V30 30874 H 2942.87 1.18812 3.54732 0
M  V30 30875 H 2944.2 1.54452 4.67339 0
M  V30 30876 N 2945.85 -1.40063 0.722513 0
M  V30 30877 C 2946.82 -2.29049 0.0830611 0
M  V30 30878 C 2947.82 -1.45706 -0.680182 0
M  V30 30879 O 2949.01 -1.66535 -0.511055 0
M  V30 30880 C 2946.14 -3.29022 -0.892034 0
M  V30 30881 H 2947.33 -2.87097 0.866899 0
M  V30 30882 H 2944.88 -1.485 0.487582 0
M  V30 30883 H 2945.62 -2.76006 -1.70268 0
M  V30 30884 H 2945.4 -3.90557 -0.347542 0
M  V30 30885 H 2946.89 -3.95638 -1.33641 0
M  V30 30886 N 2947.33 -0.469207 -1.50453 0
M  V30 30887 C 2948.26 0.315879 -2.31354 0
M  V30 30888 C 2949.24 0.99207 -1.38174 0
M  V30 30889 O 2950.43 0.989604 -1.67094 0
M  V30 30890 C 2947.56 1.39931 -3.17862 0
M  V30 30891 C 2946.51 0.844835 -4.19579 0
M  V30 30892 C 2945.84 2.02642 -4.94814 0
M  V30 30893 C 2947.14 -0.14259 -5.22105 0
M  V30 30894 H 2948.83 -0.359322 -2.97236 0
M  V30 30895 H 2946.38 -0.174249 -1.42942 0
M  V30 30896 H 2948.33 1.95601 -3.73254 0
M  V30 30897 H 2947.05 2.10326 -2.49861 0
M  V30 30898 H 2945.71 0.310125 -3.65286 0
M  V30 30899 H 2945.36 2.7173 -4.23287 0
M  V30 30900 H 2945.06 1.66164 -5.63616 0
M  V30 30901 H 2946.59 2.58805 -5.53039 0
M  V30 30902 H 2948 0.324865 -5.72379 0
M  V30 30903 H 2946.4 -0.421546 -5.98618 0
M  V30 30904 H 2947.47 -1.06909 -4.72968 0
M  V30 30905 N 2948.81 1.56303 -0.201741 0
M  V30 30906 C 2949.76 2.19398 0.71646 0
M  V30 30907 C 2950.73 1.14328 1.20492 0
M  V30 30908 O 2951.91 1.42606 1.2676 0
M  V30 30909 C 2949.05 2.8625 1.92757 0
M  V30 30910 C 2948.16 4.05862 1.47986 0
M  V30 30911 C 2947.3 4.60552 2.64698 0
M  V30 30912 C 2946.34 5.72508 2.16566 0
M  V30 30913 N 2945.48 6.21575 3.2648 0
M  V30 30914 H 2950.32 2.97505 0.171672 0
M  V30 30915 H 2947.85 1.46919 0.0729902 0
M  V30 30916 H 2949.81 3.23183 2.63835 0
M  V30 30917 H 2948.44 2.10695 2.44556 0
M  V30 30918 H 2947.49 3.74548 0.664704 0
M  V30 30919 H 2948.8 4.86817 1.08678 0
M  V30 30920 H 2947.96 4.99825 3.43889 0
M  V30 30921 H 2946.7 3.78719 3.07284 0
M  V30 30922 H 2945.7 5.32757 1.35831 0
M  V30 30923 H 2946.93 6.56164 1.75003 0
M  V30 30924 H 2944.87 5.42662 3.68584 0
M  V30 30925 H 2944.79 6.97599 2.91361 0
M  V30 30926 H 2946.06 6.65503 4.05865 0
M  V30 30927 N 2950.29 -0.0718147 1.57436 0
M  V30 30928 C 2951.22 -1.11717 1.98984 0
M  V30 30929 C 2952.2 -1.37572 0.866755 0
M  V30 30930 O 2953.38 -1.50946 1.12906 0
M  V30 30931 C 2950.51 -2.46151 2.32653 0
M  V30 30932 C 2949.56 -2.36431 3.54969 0
M  V30 30933 S 2950.39 -1.75845 5.05805 0
M  V30 30934 C 2951.54 -3.11857 5.42675 0
M  V30 30935 H 2951.78 -0.763104 2.8734 0
M  V30 30936 H 2949.31 -0.280345 1.51834 0
M  V30 30937 H 2951.27 -3.23482 2.52725 0
M  V30 30938 H 2949.93 -2.78719 1.44825 0
M  V30 30939 H 2949.12 -3.3557 3.76044 0
M  V30 30940 H 2948.72 -1.67236 3.34526 0
M  V30 30941 H 2951.02 -4.08169 5.40744 0
M  V30 30942 H 2951.96 -2.95562 6.43466 0
M  V30 30943 H 2952.37 -3.12461 4.70136 0
M  V30 30944 N 2951.77 -1.53818 -0.343203 0
M  V30 30945 C 2953.01 -1.71334 -1.08501 0
M  V30 30946 C 2953.34 -0.475318 -1.88293 0
M  V30 30947 O 2952.62 0.527655 -1.87206 0
M  V30 30948 C 2952.9 -2.97705 -2.02592 0
M  V30 30949 C 2952.76 -4.31716 -1.26261 0
M  V30 30950 C 2954.07 -3.19749 -3.02405 0
M  V30 30951 H 2951.19 -0.623436 -0.393061 0
M  V30 30952 H 2953.84 -1.8649 -0.363546 0
M  V30 30953 H 2951.99 -2.84915 -2.64113 0
M  V30 30954 H 2953.66 -4.56357 -0.673514 0
M  V30 30955 H 2951.9 -4.3011 -0.56462 0
M  V30 30956 H 2952.57 -5.16317 -1.95244 0
M  V30 30957 H 2955.05 -3.31872 -2.50998 0
M  V30 30958 H 2953.92 -4.09565 -3.65442 0
M  V30 30959 H 2954.18 -2.36061 -3.73802 0
M  V30 30960 N 2953.24 0.604233 -1.45557 0
M  V30 30961 C 2954.17 1.72539 -1.5733 0
M  V30 30962 C 2955.15 1.64714 -0.424666 0
M  V30 30963 O 2956.34 1.83062 -0.648228 0
M  V30 30964 C 2953.47 3.11149 -1.54284 0
M  V30 30965 C 2952.42 3.33788 -2.67899 0
M  V30 30966 C 2951.75 4.72705 -2.49908 0
M  V30 30967 C 2953.05 3.23715 -4.09886 0
M  V30 30968 H 2954.74 1.62942 -2.51177 0
M  V30 30969 H 2952.29 0.782483 -1.20885 0
M  V30 30970 H 2954.24 3.89383 -1.61117 0
M  V30 30971 H 2952.97 3.21593 -0.569684 0
M  V30 30972 H 2951.63 2.57945 -2.60499 0
M  V30 30973 H 2951.27 4.79887 -1.50724 0
M  V30 30974 H 2950.97 4.88807 -3.261 0
M  V30 30975 H 2952.5 5.53135 -2.586 0
M  V30 30976 H 2953.91 3.91819 -4.1851 0
M  V30 30977 H 2952.31 3.51346 -4.86494 0
M  V30 30978 H 2953.38 2.21104 -4.31557 0
M  V30 30979 N 2954.72 1.32903 0.847027 0
M  V30 30980 C 2955.63 1.24493 1.98843 0
M  V30 30981 C 2956.65 0.15705 1.7329 0
M  V30 30982 O 2957.82 0.379139 1.97799 0
M  V30 30983 C 2954.89 0.976043 3.32677 0
M  V30 30984 C 2953.95 2.15313 3.71401 0
M  V30 30985 C 2953.18 1.89697 4.98849 0
M  V30 30986 O 2953.41 0.843267 5.64132 0
M  V30 30987 O 2952.34 2.76011 5.34884 0
M  V30 30988 H 2956.17 2.20464 2.08876 0
M  V30 30989 H 2953.75 1.12868 0.978832 0
M  V30 30990 H 2955.63 0.842899 4.12884 0
M  V30 30991 H 2954.31 0.0465523 3.23667 0
M  V30 30992 H 2953.21 2.34177 2.91739 0
M  V30 30993 H 2954.55 3.06567 3.85068 0
M  V30 30994 N 2956.2 -1.06426 1.16238 0
M  V30 30995 C 2957.15 -2.13867 0.867728 0
M  V30 30996 C 2958.12 -1.65086 -0.183269 0
M  V30 30997 O 2959.3 -1.90738 -0.0487667 0
M  V30 30998 C 2956.44 -3.43073 0.373487 0
M  V30 30999 C 2955.55 -4.05596 1.48715 0
M  V30 31000 C 2954.69 -5.22671 0.948069 0
M  V30 31001 C 2953.73 -5.77175 2.03803 0
M  V30 31002 N 2952.87 -6.85568 1.51463 0
M  V30 31003 H 2957.71 -2.38411 1.78785 0
M  V30 31004 H 2955.24 -1.16976 0.891912 0
M  V30 31005 H 2957.2 -4.17144 0.0685768 0
M  V30 31006 H 2955.83 -3.18751 -0.509696 0
M  V30 31007 H 2954.88 -3.29086 1.90806 0
M  V30 31008 H 2956.19 -4.42101 2.30971 0
M  V30 31009 H 2955.35 -6.03763 0.59626 0
M  V30 31010 H 2954.09 -4.87608 0.0947938 0
M  V30 31011 H 2953.09 -4.94721 2.39856 0
M  V30 31012 H 2954.32 -6.1429 2.89525 0
M  V30 31013 H 2952.26 -6.52426 0.683869 0
M  V30 31014 H 2952.18 -7.21009 2.27338 0
M  V30 31015 H 2953.45 -7.70342 1.19136 0
M  V30 31016 N 2957.68 -0.960653 -1.24937 0
M  V30 31017 C 2958.93 -0.614332 -1.92117 0
M  V30 31018 C 2959.24 0.853443 -1.75999 0
M  V30 31019 O 2960.45 1.30998 -2.37806 0
M  V30 31020 C 2958.9 -1.04808 -3.44301 0
M  V30 31021 C 2958.51 -2.53881 -3.69118 0
M  V30 31022 C 2960.25 -0.77457 -4.17374 0
M  V30 31023 C 2958.16 -2.91025 -5.14838 0
M  V30 31024 H 2957.09 -0.226057 -0.719315 0
M  V30 31025 H 2959.74 -1.16591 -1.41699 0
M  V30 31026 H 2958.12 -0.424859 -3.93714 0
M  V30 31027 H 2959.3 -3.21273 -3.30333 0
M  V30 31028 H 2957.61 -2.78767 -3.09318 0
M  V30 31029 H 2960.21 -1.02817 -5.24722 0
M  V30 31030 H 2960.55 0.289119 -4.15295 0
M  V30 31031 H 2961.09 -1.35842 -3.73887 0
M  V30 31032 H 2957.83 -3.96436 -5.22033 0
M  V30 31033 H 2957.35 -2.28311 -5.54648 0
M  V30 31034 H 2959.02 -2.80545 -5.83012 0
M  V30 31035 N 2959.16 1.39677 -0.729931 0
M  V30 31036 C 2960.4 2.00219 -0.275112 0
M  V30 31037 C 2960.73 1.58201 1.14007 0
M  V30 31038 O 2960 0.827935 1.77544 0
M  V30 31039 H 2958.58 0.740447 -0.0987258 0
M  V30 31040 H 2961.24 1.70802 -0.93876 0
M  V30 31041 H 2960.33 3.1046 -0.3195 0
M  V30 31042 N 2960.63 0.47718 1.50202 0
M  V30 31043 C 2961.88 -0.0757029 2.02358 0
M  V30 31044 C 2962.21 -1.39172 1.35873 0
M  V30 31045 O 2961.46 -1.89837 0.475449 0
M  V30 31046 C 2961.76 -0.301262 3.56128 0
M  V30 31047 C 2961.43 0.933802 4.41125 0
M  V30 31048 C 2960.09 1.27241 4.64072 0
M  V30 31049 C 2962.44 1.75585 4.90734 0
M  V30 31050 C 2959.77 2.43301 5.33874 0
M  V30 31051 C 2962.12 2.90778 5.6181 0
M  V30 31052 C 2960.79 3.25047 5.8301 0
M  V30 31053 H 2960.06 -0.0277017 0.740482 0
M  V30 31054 H 2962.7 0.632499 1.80753 0
M  V30 31055 H 2961.01 -1.09177 3.76281 0
M  V30 31056 H 2962.71 -0.743115 3.94054 0
M  V30 31057 H 2959.3 0.660009 4.23488 0
M  V30 31058 H 2963.48 1.50742 4.72854 0
M  V30 31059 H 2958.74 2.70118 5.48494 0
M  V30 31060 H 2962.91 3.54818 5.99231 0
M  V30 31061 H 2960.54 4.15085 6.36874 0
M  V30 31062 N 2962.11 -1.56194 0.210027 0
M  V30 31063 C 2963.36 -1.97604 -0.423939 0
M  V30 31064 C 2963.68 -1.09857 -1.6111 0
M  V30 31065 O 2962.95 -0.173067 -1.95134 0
M  V30 31066 H 2961.53 -0.729748 -0.159616 0
M  V30 31067 H 2964.19 -1.92574 0.300239 0
M  V30 31068 H 2963.29 -3.02754 -0.758037 0
M  V30 31069 N 2963.59 0.0634645 -1.57472 0
M  V30 31070 C 2964.87 0.794507 -1.78737 0
M  V30 31071 C 2965.25 1.95367 -0.79968 0
M  V30 31072 O 2964.6 2.279 0.165481 0
M  V30 31073 C 2964.81 1.2597 -3.25473 0
M  V30 31074 C 2966.15 1.68969 -3.89531 0
M  V30 31075 O 2967.18 1.35515 -3.29415 0
M  V30 31076 O 2966.04 2.30935 -4.95309 0
M  V30 31077 H 2963.13 0.381363 -0.733819 0
M  V30 31078 H 2965.68 0.042896 -1.69646 0
M  V30 31079 H 2964.45 0.430652 -3.88923 0
M  V30 31080 H 2964.07 2.07237 -3.39321 0
M  V30 31081 N 2965.07 1.53998 0.33504 0
M  V30 31082 C 2966.48 1.44451 0.678679 0
M  V30 31083 C 2966.68 0.608112 1.92105 0
M  V30 31084 O 2965.74 0.102417 2.52292 0
M  V30 31085 C 2967.05 2.88038 0.863384 0
M  V30 31086 C 2968.6 2.97867 0.96146 0
M  V30 31087 C 2969.08 4.4258 1.17842 0
M  V30 31088 N 2970.57 4.46143 1.24542 0
M  V30 31089 C 2971.3 5.55258 1.43097 0
M  V30 31090 N 2970.8 6.74362 1.58768 0
M  V30 31091 N 2972.59 5.42885 1.45713 0
M  V30 31092 H 2964.74 2.06866 -0.481693 0
M  V30 31093 H 2967.01 0.935469 -0.153631 0
M  V30 31094 H 2966.71 3.51693 0.0218893 0
M  V30 31095 H 2966.59 3.33484 1.76262 0
M  V30 31096 H 2968.97 2.34347 1.79347 0
M  V30 31097 H 2969.05 2.5577 0.0389412 0
M  V30 31098 H 2968.7 5.06684 0.351307 0
M  V30 31099 H 2968.63 4.82277 2.11464 0
M  V30 31100 H 2971.12 3.6032 1.13922 0
M  V30 31101 H 2971.43 7.53282 1.72585 0
M  V30 31102 H 2969.78 6.77292 1.55888 0
M  V30 31103 H 2972.97 4.48791 1.33057 0
M  V30 31104 H 2973.14 6.27979 1.5983 0
M  V30 31105 N 2966.55 -0.596505 1.45875 0
M  V30 31106 C 2967.79 -1.35719 1.50692 0
M  V30 31107 C 2968.13 -1.936 0.15254 0
M  V30 31108 O 2967.4 -1.75694 -0.83438 0
M  V30 31109 C 2967.68 -2.49686 2.59478 0
M  V30 31110 C 2967.54 -1.96929 4.04399 0
M  V30 31111 C 2968.86 -3.51782 2.64457 0
M  V30 31112 H 2965.97 -0.492124 0.548619 0
M  V30 31113 H 2968.62 -0.671397 1.77742 0
M  V30 31114 H 2966.77 -3.08187 2.36544 0
M  V30 31115 H 2968.44 -1.42992 4.38578 0
M  V30 31116 H 2966.68 -1.27852 4.14532 0
M  V30 31117 H 2967.35 -2.79134 4.76223 0
M  V30 31118 H 2969.83 -3.0314 2.85036 0
M  V30 31119 H 2968.7 -4.29 3.42418 0
M  V30 31120 H 2968.97 -4.0812 1.69972 0
M  V30 31121 N 2968.02 -1.3335 -0.839967 0
M  V30 31122 C 2969.3 -1.15345 -1.57971 0
M  V30 31123 C 2969.68 0.280595 -2.09227 0
M  V30 31124 O 2969.03 1.27947 -1.8932 0
M  V30 31125 C 2969.24 -2.19363 -2.71442 0
M  V30 31126 C 2970.59 -2.53462 -3.4065 0
M  V30 31127 O 2971.61 -2.18022 -2.81682 0
M  V30 31128 O 2970.47 -3.14274 -4.47095 0
M  V30 31129 H 2967.56 -0.446056 -0.696393 0
M  V30 31130 H 2970.11 -1.44929 -0.882817 0
M  V30 31131 H 2968.88 -3.15694 -2.31199 0
M  V30 31132 H 2968.51 -1.90859 -3.48796 0
M  V30 31133 N 2969.5 1.05808 -1.16801 0
M  V30 31134 C 2970.73 1.8212 -0.975486 0
M  V30 31135 C 2971.14 1.83022 0.479552 0
M  V30 31136 O 2970.48 1.25155 1.34469 0
M  V30 31137 C 2970.55 3.29742 -1.43215 0
M  V30 31138 C 2970.21 3.52535 -2.90806 0
M  V30 31139 C 2971.21 3.45174 -3.88781 0
M  V30 31140 C 2968.89 3.79698 -3.28839 0
M  V30 31141 C 2970.89 3.64652 -5.22789 0
M  V30 31142 C 2968.57 3.98824 -4.63014 0
M  V30 31143 C 2969.57 3.91299 -5.59798 0
M  V30 31144 O 2969.26 4.09899 -6.91547 0
M  V30 31145 H 2968.99 0.580941 -0.345665 0
M  V30 31146 H 2971.54 1.34362 -1.55358 0
M  V30 31147 H 2969.77 3.78386 -0.79757 0
M  V30 31148 H 2971.46 3.87562 -1.20627 0
M  V30 31149 H 2972.23 3.24174 -3.60744 0
M  V30 31150 H 2968.11 3.84661 -2.5408 0
M  V30 31151 H 2971.65 3.58694 -5.98318 0
M  V30 31152 H 2967.55 4.19315 -4.9076 0
M  V30 31153 H 2968.32 4.2716 -6.98195 0
M  V30 31154 N 2970.98 0.967265 1.24426 0
M  V30 31155 C 2972.23 0.624512 1.91788 0
M  V30 31156 C 2972.54 -0.844098 1.76449 0
M  V30 31157 O 2973.75 -1.29735 2.38497 0
M  V30 31158 C 2972.2 1.06632 3.43741 0
M  V30 31159 C 2971.81 2.55835 3.67767 0
M  V30 31160 C 2973.56 0.796694 4.16957 0
M  V30 31161 C 2971.46 2.93751 5.13288 0
M  V30 31162 H 2970.39 0.229869 0.718106 0
M  V30 31163 H 2973.04 1.17341 1.41079 0
M  V30 31164 H 2971.43 0.445732 3.93483 0
M  V30 31165 H 2972.6 3.2302 3.28625 0
M  V30 31166 H 2970.92 2.80404 3.07836 0
M  V30 31167 H 2973.51 1.05598 5.24169 0
M  V30 31168 H 2973.86 -0.26709 4.15442 0
M  V30 31169 H 2974.39 1.37823 3.73162 0
M  V30 31170 H 2971.13 3.99199 5.19924 0
M  V30 31171 H 2970.65 2.3125 5.53429 0
M  V30 31172 H 2972.33 2.83633 5.81516 0
M  V30 31173 N 2972.46 -1.39288 0.737328 0
M  V30 31174 C 2973.74 -1.94442 0.212498 0
M  V30 31175 C 2974.12 -1.67394 -1.28618 0
M  V30 31176 O 2973.46 -1.00345 -2.05288 0
M  V30 31177 C 2973.67 -3.44661 0.548626 0
M  V30 31178 C 2975.02 -4.21655 0.499251 0
M  V30 31179 O 2976.05 -3.5287 0.485954 0
M  V30 31180 O 2974.91 -5.44246 0.495835 0
M  V30 31181 H 2972 -0.826053 0.0395602 0
M  V30 31182 H 2974.55 -1.48775 0.816345 0
M  V30 31183 H 2973.32 -3.57792 1.58432 0
M  V30 31184 H 2972.94 -3.97511 -0.08407 0
M  V30 31185 N 2973.94 -0.485139 -1.49947 0
M  V30 31186 C 2975.17 0.0621558 -2.06506 0
M  V30 31187 C 2975.58 1.32803 -1.34759 0
M  V30 31188 O 2974.92 1.78958 -0.414692 0
M  V30 31189 C 2974.98 0.402119 -3.57244 0
M  V30 31190 C 2974.64 -0.76375 -4.50573 0
M  V30 31191 C 2975.64 -1.64979 -4.93029 0
M  V30 31192 C 2973.33 -0.95806 -4.93079 0
M  V30 31193 C 2975.32 -2.71442 -5.76713 0
M  V30 31194 C 2973.01 -2.0259 -5.76542 0
M  V30 31195 C 2974.01 -2.90243 -6.18262 0
M  V30 31196 O 2973.69 -3.95186 -7.00059 0
M  V30 31197 H 2973.43 -0.010079 -0.675925 0
M  V30 31198 H 2975.98 -0.677058 -1.9392 0
M  V30 31199 H 2974.21 1.19471 -3.67782 0
M  V30 31200 H 2975.9 0.886149 -3.96109 0
M  V30 31201 H 2976.66 -1.51142 -4.60848 0
M  V30 31202 H 2972.54 -0.285225 -4.60117 0
M  V30 31203 H 2976.09 -3.39889 -6.09197 0
M  V30 31204 H 2971.98 -2.16428 -6.08136 0
M  V30 31205 H 2972.75 -3.92345 -7.18336 0
M  V30 31206 N 2975.42 1.56081 -0.218307 0
M  V30 31207 C 2976.35 2.23138 0.687883 0
M  V30 31208 C 2977.33 1.20202 1.20355 0
M  V30 31209 O 2978.51 1.48778 1.24815 0
M  V30 31210 C 2975.64 2.90877 1.89757 0
M  V30 31211 C 2974.6 4.00256 1.51588 0
M  V30 31212 C 2973.92 4.55276 2.80407 0
M  V30 31213 C 2975.22 5.17475 0.708313 0
M  V30 31214 H 2976.92 2.99123 0.128802 0
M  V30 31215 H 2974.46 1.43873 0.0605101 0
M  V30 31216 H 2976.41 3.36479 2.53693 0
M  V30 31217 H 2975.14 2.12334 2.48157 0
M  V30 31218 H 2973.8 3.55381 0.899995 0
M  V30 31219 H 2973.45 3.73467 3.36944 0
M  V30 31220 H 2973.15 5.29094 2.55603 0
M  V30 31221 H 2974.67 5.03593 3.45291 0
M  V30 31222 H 2976.08 5.59478 1.2513 0
M  V30 31223 H 2974.48 5.97505 0.557488 0
M  V30 31224 H 2975.55 4.84057 -0.285764 0
M  V30 31225 N 2976.89 -0.0551124 1.57504 0
M  V30 31226 C 2977.84 -1.08229 2.05886 0
M  V30 31227 C 2978.84 -1.3906 0.967407 0
M  V30 31228 O 2980.04 -1.3827 1.15244 0
M  V30 31229 H 2976.42 -0.366438 0.656679 0
M  V30 31230 H 2978.39 -0.648218 2.91274 0
M  V30 31231 C 2977.14 -2.38269 2.53226 0
M  V30 31232 H 2976.46 -2.154 3.36813 0
M  V30 31233 H 2977.9 -3.08549 2.90815 0
M  V30 31234 C 2976.36 -3.05408 1.42223 0
M  V30 31235 O 2976.89 -3.94178 0.773707 0
M  V30 31236 N 2975.09 -2.66304 1.16321 0
M  V30 31237 H 2974.64 -1.94204 1.69241 0
M  V30 31238 H 2974.6 -3.11547 0.422589 0
M  V30 31239 N 2978.37 -1.54173 -0.326869 0
M  V30 31240 C 2979.32 -1.79709 -1.40316 0
M  V30 31241 C 2980.31 -0.652964 -1.47055 0
M  V30 31242 O 2981.5 -0.912867 -1.51643 0
M  V30 31243 C 2978.63 -2.02496 -2.77219 0
M  V30 31244 C 2977.71 -3.23021 -2.74806 0
M  V30 31245 N 2978.1 -4.44143 -2.42014 0
M  V30 31246 C 2976.4 -3.24528 -3.05938 0
M  V30 31247 C 2977.1 -5.26066 -2.48253 0
M  V30 31248 N 2976.08 -4.63171 -2.84559 0
M  V30 31249 H 2979.88 -2.70937 -1.13887 0
M  V30 31250 H 2977.39 -1.53323 -0.535333 0
M  V30 31251 H 2979.39 -2.18929 -3.54789 0
M  V30 31252 H 2978.05 -1.1252 -3.04581 0
M  V30 31253 H 2979.06 -4.71201 -2.14918 0
M  V30 31254 H 2975.74 -2.44575 -3.38363 0
M  V30 31255 H 2977.13 -6.3278 -2.25919 0
M  V30 31256 N 2979.85 0.58876 -1.4619 0
M  V30 31257 C 2981.07 1.37823 -1.54982 0
M  V30 31258 C 2981.5 1.87143 -0.189531 0
M  V30 31259 O 2980.86 1.61223 0.829264 0
M  V30 31260 C 2980.91 2.54591 -2.55374 0
M  V30 31261 O 2980.01 3.55836 -2.08458 0
M  V30 31262 H 2979.35 0.410701 -0.521748 0
M  V30 31263 H 2981.88 0.714745 -1.9171 0
M  V30 31264 H 2981.89 3.01589 -2.74788 0
M  V30 31265 H 2980.57 2.18046 -3.54159 0
M  V30 31266 H 2979.14 3.15359 -1.99005 0
M  V30 31267 N 2981.33 1.33794 0.832883 0
M  V30 31268 C 2982.28 1.21108 1.93176 0
M  V30 31269 C 2983.26 0.112519 1.60506 0
M  V30 31270 O 2984.45 0.34121 1.7368 0
M  V30 31271 C 2981.58 0.958584 3.29645 0
M  V30 31272 C 2980.67 2.09986 3.68465 0
M  V30 31273 N 2981.06 3.35031 3.7893 0
M  V30 31274 C 2979.36 2.00789 3.98246 0
M  V30 31275 C 2980.06 4.09919 4.12724 0
M  V30 31276 N 2979.03 3.38415 4.25413 0
M  V30 31277 H 2982.84 2.15881 1.9943 0
M  V30 31278 H 2980.35 1.25888 1.02596 0
M  V30 31279 H 2982.35 0.848624 4.08172 0
M  V30 31280 H 2981.01 0.019444 3.24694 0
M  V30 31281 H 2982.02 3.69706 3.62682 0
M  V30 31282 H 2978.7 1.14571 4.01472 0
M  V30 31283 H 2980.09 5.17854 4.28108 0
M  V30 31284 N 2982.81 -1.05187 1.1736 0
M  V30 31285 C 2983.76 -2.1122 0.858482 0
M  V30 31286 C 2984.74 -1.60031 -0.166963 0
M  V30 31287 O 2985.93 -1.76964 0.0354767 0
M  V30 31288 C 2983.06 -3.41261 0.373609 0
M  V30 31289 C 2982.15 -3.99247 1.43048 0
M  V30 31290 N 2982.54 -4.31195 2.64394 0
M  V30 31291 C 2980.84 -4.26986 1.28835 0
M  V30 31292 C 2981.54 -4.7744 3.32304 0
M  V30 31293 N 2980.51 -4.77563 2.59682 0
M  V30 31294 H 2984.31 -2.33783 1.78109 0
M  V30 31295 H 2981.83 -1.22835 1.06232 0
M  V30 31296 H 2983.83 -4.16699 0.129404 0
M  V30 31297 H 2982.49 -3.20131 -0.542791 0
M  V30 31298 H 2983.5 -4.21193 3.01358 0
M  V30 31299 H 2980.17 -4.15242 0.433603 0
M  V30 31300 H 2981.56 -5.11272 4.35948 0
M  V30 31301 N 2984.28 -0.97385 -1.23911 0
M  V30 31302 C 2985.21 -0.528009 -2.27452 0
M  V30 31303 C 2986.19 0.435484 -1.64431 0
M  V30 31304 O 2987.38 0.330273 -1.91371 0
M  V30 31305 C 2984.51 0.176696 -3.4685 0
M  V30 31306 C 2983.46 -0.703426 -4.2218 0
M  V30 31307 C 2982.79 0.133121 -5.34534 0
M  V30 31308 C 2984.09 -1.99104 -4.82861 0
M  V30 31309 H 2985.78 -1.39345 -2.64997 0
M  V30 31310 H 2983.33 -0.671469 -1.27386 0
M  V30 31311 H 2985.28 0.499861 -4.18425 0
M  V30 31312 H 2984.01 1.07653 -3.08348 0
M  V30 31313 H 2982.67 -1.00995 -3.52414 0
M  V30 31314 H 2982.31 1.03329 -4.92272 0
M  V30 31315 H 2982.01 -0.452597 -5.85854 0
M  V30 31316 H 2983.54 0.450817 -6.08933 0
M  V30 31317 H 2984.95 -1.73307 -5.46478 0
M  V30 31318 H 2983.35 -2.52399 -5.4444 0
M  V30 31319 H 2984.42 -2.68206 -4.03972 0
M  V30 31320 N 2985.76 1.38895 -0.744705 0
M  V30 31321 C 2986.99 2.04306 -0.307018 0
M  V30 31322 C 2987.4 1.56277 1.0665 0
M  V30 31323 O 2986.74 0.72711 1.68697 0
M  V30 31324 C 2986.8 3.5869 -0.241249 0
M  V30 31325 C 2986.47 4.29737 -1.55483 0
M  V30 31326 C 2987.47 4.55716 -2.50237 0
M  V30 31327 C 2985.15 4.68097 -1.82181 0
M  V30 31328 C 2987.14 5.19078 -3.69915 0
M  V30 31329 C 2984.83 5.31185 -3.02135 0
M  V30 31330 C 2985.83 5.56609 -3.95822 0
M  V30 31331 O 2985.52 6.18386 -5.13667 0
M  V30 31332 H 2985.25 0.663298 -0.130427 0
M  V30 31333 H 2987.8 1.78742 -1.01195 0
M  V30 31334 H 2986.03 3.8319 0.519858 0
M  V30 31335 H 2987.72 4.05562 0.165734 0
M  V30 31336 H 2988.49 4.26518 -2.30884 0
M  V30 31337 H 2984.37 4.4766 -1.10099 0
M  V30 31338 H 2987.91 5.38839 -4.43056 0
M  V30 31339 H 2983.81 5.59806 -3.21384 0
M  V30 31340 H 2984.58 6.36877 -5.14131 0
M  V30 31341 N 2987.24 0.493084 1.49688 0
M  V30 31342 C 2988.19 -0.28955 2.28977 0
M  V30 31343 C 2989.16 -0.967513 1.35013 0
M  V30 31344 O 2990.34 -0.975707 1.63965 0
M  V30 31345 C 2987.48 -1.35273 3.17482 0
M  V30 31346 C 2986.6 -0.687343 4.26497 0
M  V30 31347 C 2985.73 -1.73029 5.02229 0
M  V30 31348 C 2984.77 -1.04634 6.0309 0
M  V30 31349 N 2983.91 -2.03313 6.72018 0
M  V30 31350 H 2988.75 0.39285 2.95399 0
M  V30 31351 H 2986.28 0.205579 1.45656 0
M  V30 31352 H 2988.24 -1.98105 3.67165 0
M  V30 31353 H 2986.87 -2.004 2.5306 0
M  V30 31354 H 2985.92 0.0540669 3.80362 0
M  V30 31355 H 2987.24 -0.148552 4.98579 0
M  V30 31356 H 2986.39 -2.43386 5.55741 0
M  V30 31357 H 2985.13 -2.30293 4.29903 0
M  V30 31358 H 2984.13 -0.32851 5.48818 0
M  V30 31359 H 2985.36 -0.480309 6.77399 0
M  V30 31360 H 2983.3 -2.59553 6.02468 0
M  V30 31361 H 2983.22 -1.54479 7.40049 0
M  V30 31362 H 2984.49 -2.72982 7.30138 0
M  V30 31363 N 2988.72 -1.55963 0.226582 0
M  V30 31364 C 2989.67 -2.21884 -0.697883 0
M  V30 31365 C 2990.66 -1.19984 -1.19584 0
M  V30 31366 O 2991.87 -1.3805 -1.15508 0
M  V30 31367 H 2988.24 -0.71149 -0.243488 0
M  V30 31368 H 2990.21 -2.98165 -0.118523 0
M  V30 31369 C 2988.96 -2.91649 -1.89304 0
M  V30 31370 H 2988.28 -3.6982 -1.51899 0
M  V30 31371 H 2989.72 -3.41167 -2.51756 0
M  V30 31372 C 2988.18 -1.94396 -2.75158 0
M  V30 31373 O 2988.71 -1.46409 -3.74069 0
M  V30 31374 N 2986.92 -1.61936 -2.41299 0
M  V30 31375 H 2986.47 -2.01154 -1.60919 0
M  V30 31376 H 2986.42 -0.971271 -2.99021 0
M  V30 31377 N 2990.2 0.0467589 -1.57531 0
M  V30 31378 C 2991.14 1.05281 -2.05389 0
M  V30 31379 C 2992.11 1.36983 -0.93941 0
M  V30 31380 O 2993.3 1.47624 -1.2088 0
M  V30 31381 C 2990.44 2.35404 -2.52347 0
M  V30 31382 C 2989.55 2.10015 -3.77515 0
M  V30 31383 C 2988.69 3.3388 -4.13156 0
M  V30 31384 C 2987.73 3.03967 -5.31291 0
M  V30 31385 N 2986.86 4.20233 -5.62449 0
M  V30 31386 H 2991.7 0.637737 -2.91096 0
M  V30 31387 H 2989.24 0.303297 -1.43939 0
M  V30 31388 H 2991.2 3.11409 -2.77634 0
M  V30 31389 H 2989.83 2.74667 -1.69582 0
M  V30 31390 H 2988.88 1.24587 -3.59419 0
M  V30 31391 H 2990.19 1.83937 -4.63647 0
M  V30 31392 H 2989.35 4.18265 -4.39476 0
M  V30 31393 H 2988.08 3.63056 -3.2564 0
M  V30 31394 H 2987.09 2.17982 -5.04741 0
M  V30 31395 H 2988.31 2.76087 -6.20445 0
M  V30 31396 H 2986.26 4.49393 -4.77893 0
M  V30 31397 H 2986.18 3.97517 -6.43053 0
M  V30 31398 H 2987.45 5.05542 -5.93336 0
M  V30 31399 N 2991.67 1.54344 0.318688 0
M  V30 31400 C 2992.9 1.76752 1.07547 0
M  V30 31401 C 2993.32 0.518454 1.81542 0
M  V30 31402 O 2992.67 -0.511047 1.75199 0
M  V30 31403 C 2992.73 2.96382 2.06978 0
M  V30 31404 O 2992.45 4.1646 1.35988 0
M  V30 31405 C 2993.95 3.31039 2.94835 0
M  V30 31406 H 2991.17 0.589943 0.319701 0
M  V30 31407 H 2993.71 2.01246 0.363333 0
M  V30 31408 H 2991.87 2.74147 2.73719 0
M  V30 31409 H 2992.28 4.83785 2.02615 0
M  V30 31410 H 2993.75 4.18033 3.60489 0
M  V30 31411 H 2994.23 2.48418 3.62195 0
M  V30 31412 H 2994.84 3.5537 2.3365 0
M  V30 31413 N 2993.15 -0.580999 1.465 0
M  V30 31414 C 2994.38 -1.36316 1.55247 0
M  V30 31415 C 2994.79 -1.88212 0.193092 0
M  V30 31416 O 2994.13 -1.64379 -0.82008 0
M  V30 31417 C 2994.2 -2.5853 2.49805 0
M  V30 31418 C 2993.86 -2.28089 3.96011 0
M  V30 31419 C 2994.86 -1.86821 4.85174 0
M  V30 31420 C 2992.54 -2.40181 4.41156 0
M  V30 31421 C 2994.54 -1.58042 6.17496 0
M  V30 31422 C 2992.22 -2.11014 5.73512 0
M  V30 31423 C 2993.22 -1.7001 6.61503 0
M  V30 31424 O 2992.91 -1.41201 7.91402 0
M  V30 31425 H 2992.64 -0.422727 0.527521 0
M  V30 31426 H 2995.19 -0.713105 1.92624 0
M  V30 31427 H 2993.42 -3.26346 2.07449 0
M  V30 31428 H 2995.11 -3.20599 2.4894 0
M  V30 31429 H 2995.88 -1.76993 4.51551 0
M  V30 31430 H 2991.76 -2.71059 3.72891 0
M  V30 31431 H 2995.3 -1.25962 6.86134 0
M  V30 31432 H 2991.2 -2.20468 6.06683 0
M  V30 31433 H 2991.97 -1.55032 8.03684 0
M  V30 31434 N 2994.63 -1.34234 -0.825776 0
M  V30 31435 C 2995.87 -1.27776 -1.59539 0
M  V30 31436 C 2996.23 0.150964 -1.91406 0
M  V30 31437 O 2997.44 0.339682 -2.66645 0
M  V30 31438 C 2995.71 -2.14094 -2.86179 0
M  V30 31439 S 2997.27 -2.2496 -3.76747 0
M  V30 31440 H 2994.08 -0.45438 -0.546863 0
M  V30 31441 H 2996.69 -1.69415 -0.975647 0
M  V30 31442 H 2995.39 -3.1691 -2.60761 0
M  V30 31443 H 2994.92 -1.73341 -3.53152 0
M  V30 31444 H 2996.94 -1.42028 -4.75439 0
M  V30 31445 N 2996.11 1.04563 -1.17917 0
M  V30 31446 C 2997.35 1.7794 -0.972894 0
M  V30 31447 C 2997.69 1.8774 0.49672 0
M  V30 31448 O 2996.96 1.38183 1.36878 0
M  V30 31449 C 2997.25 3.21485 -1.62232 0
M  V30 31450 C 2997.1 3.19659 -3.16446 0
M  V30 31451 C 2998.42 4.19477 -1.33144 0
M  V30 31452 H 2995.54 0.645947 -0.354854 0
M  V30 31453 H 2998.18 1.22176 -1.4551 0
M  V30 31454 H 2996.33 3.69101 -1.21231 0
M  V30 31455 H 2998 2.80071 -3.66549 0
M  V30 31456 H 2996.24 2.57826 -3.48867 0
M  V30 31457 H 2996.91 4.21 -3.5702 0
M  V30 31458 H 2999.39 3.80385 -1.68661 0
M  V30 31459 H 2998.27 5.18143 -1.8116 0
M  V30 31460 H 2998.53 4.41373 -0.253396 0
M  V30 31461 N 2997.59 0.980408 1.23393 0
M  V30 31462 C 2998.53 0.520337 2.24858 0
M  V30 31463 C 2999.5 -0.440792 1.60144 0
M  V30 31464 O 3000.69 -0.348336 1.87593 0
M  V30 31465 C 2997.83 -0.171085 3.44676 0
M  V30 31466 C 2996.94 0.830307 4.23946 0
M  V30 31467 C 2996.08 0.113691 5.31078 0
M  V30 31468 C 2995.12 1.1043 6.02056 0
M  V30 31469 N 2994.25 0.416832 7.00862 0
M  V30 31470 H 2999.09 1.39037 2.63577 0
M  V30 31471 H 2996.63 0.696705 1.29555 0
M  V30 31472 H 2998.59 -0.588765 4.13025 0
M  V30 31473 H 2997.22 -1.00498 3.06757 0
M  V30 31474 H 2996.27 1.36637 3.55013 0
M  V30 31475 H 2997.58 1.58517 4.72942 0
M  V30 31476 H 2996.74 -0.361353 6.05623 0
M  V30 31477 H 2995.47 -0.673769 4.83023 0
M  V30 31478 H 2994.48 1.59009 5.26304 0
M  V30 31479 H 2995.7 1.89242 6.522 0
M  V30 31480 H 2993.65 -0.35142 6.55058 0
M  V30 31481 H 2993.57 1.11035 7.47802 0
M  V30 31482 H 2994.84 -0.0358236 7.79492 0
M  V30 31483 N 2999.06 -1.38498 0.75206 0
M  V30 31484 C 3000.31 -1.99756 0.306931 0
M  V30 31485 C 3000.63 -1.59994 -1.11476 0
M  V30 31486 O 2999.9 -0.856076 -1.76205 0
M  V30 31487 H 2998.48 -0.738783 0.110493 0
M  V30 31488 H 3001.15 -1.69287 0.965815 0
M  V30 31489 H 3000.24 -3.09913 0.368851 0
M  V30 31490 N 3000.54 -0.501015 -1.49424 0
M  V30 31491 C 3001.79 0.043414 -2.02053 0
M  V30 31492 C 3002.11 1.37483 -1.38287 0
M  V30 31493 O 3001.38 1.88362 -0.538204 0
M  V30 31494 H 2999.96 0.0190338 -0.746757 0
M  V30 31495 H 3002.62 -0.658259 -1.83447 0
M  V30 31496 H 3001.72 0.173074 -3.1162 0
M  V30 31497 N 3002.02 1.5584 -0.234849 0
M  V30 31498 C 3002.95 2.16871 0.710096 0
M  V30 31499 C 3003.93 1.11708 1.18153 0
M  V30 31500 O 3005.12 1.40034 1.26186 0
M  V30 31501 C 3002.24 2.7597 1.96363 0
M  V30 31502 C 3001.29 3.94079 1.63107 0
M  V30 31503 S 3002.12 5.30303 0.744214 0
M  V30 31504 C 3003.28 5.92849 2.00701 0
M  V30 31505 H 3003.51 2.96683 0.191408 0
M  V30 31506 H 3001.04 1.54388 -0.0194126 0
M  V30 31507 H 3003 3.10657 2.68332 0
M  V30 31508 H 3001.66 1.96126 2.45344 0
M  V30 31509 H 3000.86 4.33979 2.56277 0
M  V30 31510 H 3000.46 3.60607 0.991904 0
M  V30 31511 H 3002.75 6.09632 2.95559 0
M  V30 31512 H 3003.69 6.88567 1.6517 0
M  V30 31513 H 3004.1 5.21804 2.15361 0
M  V30 31514 N 3003.5 -0.038404 1.57553 0
M  V30 31515 C 3004.91 -0.58618 1.77259 0
M  V30 31516 C 3005.26 -1.76116 0.864737 0
M  V30 31517 O 3004.39 -2.16324 0.057179 0
M  V30 31518 C 3004.98 -1.07016 3.21455 0
M  V30 31519 C 3003.54 -1.56352 3.4239 0
M  V30 31520 C 3002.69 -0.49746 2.72801 0
M  V30 31521 H 3005.64 0.187824 1.57585 0
M  V30 31522 H 3005.66 -1.93788 3.27454 0
M  V30 31523 H 3005.17 -0.214783 3.87505 0
M  V30 31524 H 3003.27 -2.44106 2.81501 0
M  V30 31525 H 3003.39 -1.61746 4.50971 0
M  V30 31526 H 3001.75 -0.950339 2.36306 0
M  V30 31527 H 3002.53 0.348294 3.41529 0
M  V30 31528 N 3004.98 -1.54511 -0.310498 0
M  V30 31529 C 3006.2 -1.77642 -1.07043 0
M  V30 31530 C 3006.63 -0.529728 -1.80487 0
M  V30 31531 O 3005.99 0.519331 -1.73703 0
M  V30 31532 C 3006.03 -2.97756 -2.03406 0
M  V30 31533 O 3005.14 -2.70215 -3.1154 0
M  V30 31534 H 3004.48 -0.588254 -0.307983 0
M  V30 31535 H 3007.01 -2.0157 -0.350813 0
M  V30 31536 H 3007.02 -3.25464 -2.46043 0
M  V30 31537 H 3005.69 -3.88157 -1.49354 0
M  V30 31538 H 3004.27 -2.53495 -2.73486 0
M  V30 31539 N 3006.46 0.573222 -1.46806 0
M  V30 31540 C 3007.7 1.32844 -1.52305 0
M  V30 31541 C 3008.02 1.94166 -0.180193 0
M  V30 31542 O 3007.29 1.79076 0.794259 0
M  V30 31543 H 3005.87 0.493266 -0.560979 0
M  V30 31544 H 3008.54 0.67061 -1.83 0
M  V30 31545 H 3007.63 2.13027 -2.28092 0
M  V30 31546 N 3007.93 1.3467 0.818645 0
M  V30 31547 C 3009.17 1.2862 1.58859 0
M  V30 31548 C 3009.54 -0.140811 1.91483 0
M  V30 31549 O 3010.74 -0.325536 2.66821 0
M  V30 31550 C 3009.01 2.15609 2.8504 0
M  V30 31551 S 3010.57 2.26954 3.75549 0
M  V30 31552 H 3007.39 0.457274 0.544446 0
M  V30 31553 H 3009.99 1.6993 0.966649 0
M  V30 31554 H 3008.69 3.18288 2.59077 0
M  V30 31555 H 3008.22 1.75211 3.52228 0
M  V30 31556 H 3010.24 1.44548 4.74679 0
M  V30 31557 N 3009.41 -1.03936 1.1847 0
M  V30 31558 C 3010.64 -1.81345 1.00641 0
M  V30 31559 C 3011.06 -1.82871 -0.440445 0
M  V30 31560 O 3010.42 -1.24697 -1.31607 0
M  V30 31561 C 3010.47 -3.24756 1.56735 0
M  V30 31562 O 3009.57 -4.04771 0.789588 0
M  V30 31563 H 3008.91 -0.560219 0.356442 0
M  V30 31564 H 3011.44 -1.30888 1.57256 0
M  V30 31565 H 3011.45 -3.7553 1.59503 0
M  V30 31566 H 3010.13 -3.2296 2.62049 0
M  V30 31567 H 3008.7 -3.63446 0.834331 0
M  V30 31568 N 3010.89 -0.986938 -1.22871 0
M  V30 31569 C 3012.14 -0.658155 -1.91083 0
M  V30 31570 C 3012.46 0.811644 -1.77306 0
M  V30 31571 O 3011.73 1.58119 -1.15651 0
M  V30 31572 H 3010.31 -0.240439 -0.707247 0
M  V30 31573 H 3012.97 -1.25216 -1.49355 0
M  V30 31574 H 3012.07 -0.915481 -2.98371 0
M  V30 31575 N 3012.37 1.38098 -0.759394 0
M  V30 31576 C 3013.6 2.04265 -0.329147 0
M  V30 31577 C 3014.01 1.57276 1.0445 0
M  V30 31578 O 3013.37 0.748427 1.66448 0
M  V30 31579 C 3013.42 3.59809 -0.349256 0
M  V30 31580 O 3013.14 4.05075 -1.6687 0
M  V30 31581 C 3014.64 4.432 0.0941327 0
M  V30 31582 H 3011.86 0.656292 -0.139722 0
M  V30 31583 H 3014.4 1.76675 -1.02987 0
M  V30 31584 H 3012.56 3.86215 0.302778 0
M  V30 31585 H 3012.97 4.99537 -1.59885 0
M  V30 31586 H 3014.45 5.51992 0.0289033 0
M  V30 31587 H 3014.92 4.24071 1.14283 0
M  V30 31588 H 3015.53 4.21994 -0.529245 0
M  V30 31589 N 3013.85 0.508932 1.49156 0
M  V30 31590 C 3015.07 -0.0314817 2.07376 0
M  V30 31591 C 3015.5 -1.29338 1.36577 0
M  V30 31592 O 3014.85 -1.76248 0.424994 0
M  V30 31593 C 3014.9 -0.260054 3.59661 0
M  V30 31594 O 3014.01 -1.33315 3.90257 0
M  V30 31595 H 3013.35 0.0297506 0.663333 0
M  V30 31596 H 3015.88 0.710825 1.91855 0
M  V30 31597 H 3015.89 -0.489154 4.05057 0
M  V30 31598 H 3014.56 0.661866 4.106 0
M  V30 31599 H 3013.14 -1.08838 3.56663 0
M  V30 31600 N 3015.32 -1.55714 0.243111 0
M  V30 31601 C 3016.57 -1.98027 -0.383153 0
M  V30 31602 C 3016.89 -1.13439 -1.59345 0
M  V30 31603 O 3018.09 -1.45749 -2.29062 0
M  V30 31604 C 3016.55 -3.52355 -0.733073 0
M  V30 31605 C 3016.16 -4.45677 0.455618 0
M  V30 31606 C 3017.9 -4.03333 -1.32374 0
M  V30 31607 C 3015.81 -5.91343 0.0820631 0
M  V30 31608 H 3014.74 -0.739545 -0.146931 0
M  V30 31609 H 3017.39 -1.80271 0.342729 0
M  V30 31610 H 3015.77 -3.65792 -1.51698 0
M  V30 31611 H 3016.94 -4.43998 1.23299 0
M  V30 31612 H 3015.26 -4.0516 0.960957 0
M  V30 31613 H 3017.86 -5.0968 -1.61649 0
M  V30 31614 H 3018.2 -3.50456 -2.24692 0
M  V30 31615 H 3018.73 -3.93206 -0.602816 0
M  V30 31616 H 3015.47 -6.48249 0.972285 0
M  V30 31617 H 3014.99 -5.96167 -0.659186 0
M  V30 31618 H 3016.67 -6.46121 -0.337086 0
M  V30 31619 N 3016.8 0.030048 -1.57571 0
M  V30 31620 C 3018.05 0.721057 -1.89227 0
M  V30 31621 C 3018.38 1.75413 -0.840275 0
M  V30 31622 O 3017.63 1.95054 0.158872 0
M  V30 31623 C 3017.93 1.42813 -3.27627 0
M  V30 31624 C 3017.6 0.531129 -4.47761 0
M  V30 31625 C 3016.26 0.284066 -4.80361 0
M  V30 31626 C 3018.61 -0.0882498 -5.21125 0
M  V30 31627 C 3015.94 -0.591168 -5.83714 0
M  V30 31628 C 3018.29 -0.95118 -6.25408 0
M  V30 31629 C 3016.96 -1.20771 -6.56483 0
M  V30 31630 H 3016.23 0.263854 -0.692432 0
M  V30 31631 H 3018.87 -0.0190211 -1.91491 0
M  V30 31632 H 3017.18 2.2415 -3.21347 0
M  V30 31633 H 3018.87 1.96832 -3.49368 0
M  V30 31634 H 3015.46 0.733846 -4.22271 0
M  V30 31635 H 3019.65 0.0896624 -4.96219 0
M  V30 31636 H 3014.9 -0.798238 -6.06167 0
M  V30 31637 H 3019.08 -1.43763 -6.81399 0
M  V30 31638 H 3016.71 -1.88764 -7.36391 0
M  V30 31639 N 3018.28 1.54674 0.3023 0
M  V30 31640 C 3019.23 1.86288 1.39283 0
M  V30 31641 C 3020.22 0.736504 1.52552 0
M  V30 31642 O 3021.43 0.920477 1.54684 0
M  V30 31643 H 3017.8 0.590827 0.465217 0
M  V30 31644 H 3019.77 2.77443 1.09854 0
M  V30 31645 C 3018.52 2.12572 2.75152 0
M  V30 31646 H 3017.85 2.98716 2.65723 0
M  V30 31647 H 3019.29 2.38633 3.50472 0
M  V30 31648 C 3017.75 0.92387 3.23985 0
M  V30 31649 O 3018.28 0.14372 4.01443 0
M  V30 31650 N 3016.48 0.729609 2.81292 0
M  V30 31651 H 3016.03 1.36568 2.18419 0
M  V30 31652 H 3015.99 -0.0729798 3.14315 0
M  V30 31653 N 3019.76 -0.565428 1.47108 0
M  V30 31654 C 3020.98 -1.3534 1.57155 0
M  V30 31655 C 3021.41 -1.86817 0.21928 0
M  V30 31656 O 3020.77 -1.62522 -0.80351 0
M  V30 31657 C 3020.81 -2.50496 2.59392 0
M  V30 31658 O 3019.92 -3.52474 2.14092 0
M  V30 31659 H 3019.26 -0.402348 0.528216 0
M  V30 31660 H 3021.79 -0.684155 1.92822 0
M  V30 31661 H 3021.8 -2.97179 2.79551 0
M  V30 31662 H 3020.47 -2.12384 3.57583 0
M  V30 31663 H 3019.05 -3.12153 2.03997 0
M  V30 31664 N 3021.24 -1.35102 -0.811492 0
M  V30 31665 C 3022.17 -1.21969 -1.9287 0
M  V30 31666 C 3023.15 -0.108695 -1.62236 0
M  V30 31667 O 3024.33 -0.275908 -1.8647 0
M  V30 31668 C 3021.46 -0.876943 -3.2715 0
M  V30 31669 C 3020.5 -1.99931 -3.76736 0
M  V30 31670 S 3021.34 -3.61436 -3.95125 0
M  V30 31671 C 3022.49 -3.29227 -5.32316 0
M  V30 31672 H 3022.73 -2.16536 -2.03714 0
M  V30 31673 H 3020.26 -1.20261 -0.968331 0
M  V30 31674 H 3022.22 -0.685988 -4.04728 0
M  V30 31675 H 3020.88 0.0505737 -3.14059 0
M  V30 31676 H 3020.07 -1.71351 -4.73978 0
M  V30 31677 H 3019.67 -2.14834 -3.06141 0
M  V30 31678 H 3021.97 -2.81751 -6.16135 0
M  V30 31679 H 3022.91 -4.25651 -5.65886 0
M  V30 31680 H 3023.32 -2.65119 -4.98369 0
M  V30 31681 N 3022.71 1.03306 -1.19019 0
M  V30 31682 C 3023.96 1.76037 -0.984573 0
M  V30 31683 C 3024.28 1.89469 0.485903 0
M  V30 31684 O 3025.48 2.59128 0.810233 0
M  V30 31685 C 3023.94 3.16537 -1.71266 0
M  V30 31686 C 3023.55 3.11174 -3.22296 0
M  V30 31687 C 3025.29 3.93592 -1.59013 0
M  V30 31688 C 3023.2 4.4658 -3.87712 0
M  V30 31689 H 3022.13 0.659898 -0.364761 0
M  V30 31690 H 3024.78 1.15646 -1.42472 0
M  V30 31691 H 3023.16 3.7737 -1.20032 0
M  V30 31692 H 3024.33 2.59747 -3.80616 0
M  V30 31693 H 3022.65 2.47616 -3.34776 0
M  V30 31694 H 3025.25 4.93741 -2.05241 0
M  V30 31695 H 3025.59 4.12736 -0.543607 0
M  V30 31696 H 3026.12 3.39351 -2.0757 0
M  V30 31697 H 3022.86 4.32641 -4.92445 0
M  V30 31698 H 3022.38 4.98079 -3.34181 0
M  V30 31699 H 3024.06 5.15475 -3.91017 0
M  V30 31700 N 3024.19 0.99344 1.22346 0
M  V30 31701 C 3025.14 0.537092 2.26314 0
M  V30 31702 C 3026.13 -0.412516 1.64301 0
M  V30 31703 O 3027.34 -0.284976 1.7773 0
M  V30 31704 H 3023.72 0.155299 0.73579 0
M  V30 31705 H 3025.69 1.42539 2.62155 0
M  V30 31706 C 3024.44 -0.132057 3.47449 0
M  V30 31707 H 3023.76 0.589589 3.95429 0
M  V30 31708 H 3025.2 -0.41481 4.21966 0
M  V30 31709 C 3023.66 -1.36756 3.07895 0
M  V30 31710 O 3024.19 -2.46286 3.17343 0
M  V30 31711 N 3022.39 -1.24301 2.62674 0
M  V30 31712 H 3021.94 -0.351781 2.55187 0
M  V30 31713 H 3021.9 -2.07072 2.36577 0
M  V30 31714 N 3025.67 -1.37693 0.766707 0
M  V30 31715 C 3026.62 -2.32194 0.13731 0
M  V30 31716 C 3027.61 -1.54682 -0.690642 0
M  V30 31717 O 3028.82 -1.70116 -0.588269 0
M  V30 31718 H 3025.19 -0.751564 0.0256135 0
M  V30 31719 H 3027.16 -2.82868 0.950179 0
M  V30 31720 C 3025.91 -3.39921 -0.731387 0
M  V30 31721 H 3025.24 -3.99666 -0.103668 0
M  V30 31722 H 3026.68 -4.0842 -1.13884 0
M  V30 31723 C 3025.14 -2.79581 -1.87979 0
M  V30 31724 O 3025.67 -2.6993 -2.97491 0
M  V30 31725 N 3023.87 -2.37198 -1.67885 0
M  V30 31726 H 3023.42 -2.45248 -0.788119 0
M  V30 31727 H 3023.38 -1.9717 -2.44891 0
M  V30 31728 N 3027.15 -0.516835 -1.48884 0
M  V30 31729 C 3028.08 0.242116 -2.32241 0
M  V30 31730 C 3029.06 0.947609 -1.4126 0
M  V30 31731 O 3030.24 0.935943 -1.70158 0
M  V30 31732 C 3027.37 1.29748 -3.22153 0
M  V30 31733 C 3026.33 0.710921 -4.22054 0
M  V30 31734 C 3025.65 1.86797 -5.0101 0
M  V30 31735 C 3026.95 -0.308622 -5.21387 0
M  V30 31736 H 3028.65 -0.453703 -2.95942 0
M  V30 31737 H 3026.19 -0.219637 -1.42315 0
M  V30 31738 H 3028.15 1.83627 -3.79288 0
M  V30 31739 H 3026.87 2.0227 -2.56426 0
M  V30 31740 H 3025.53 0.193755 -3.66088 0
M  V30 31741 H 3025.18 2.58126 -4.31718 0
M  V30 31742 H 3024.88 1.48149 -5.68617 0
M  V30 31743 H 3026.4 2.4108 -5.60993 0
M  V30 31744 H 3027.82 0.142603 -5.73123 0
M  V30 31745 H 3026.21 -0.611778 -5.96973 0
M  V30 31746 H 3027.28 -1.21902 -4.69327 0
M  V30 31747 N 3028.63 1.55583 -0.251365 0
M  V30 31748 C 3029.88 1.98228 0.372646 0
M  V30 31749 C 3030.19 1.14283 1.58741 0
M  V30 31750 O 3031.39 1.46962 2.28286 0
M  V30 31751 C 3029.85 3.52739 0.714377 0
M  V30 31752 C 3029.46 4.45429 -0.479247 0
M  V30 31753 C 3031.2 4.04029 1.30233 0
M  V30 31754 C 3029.11 5.91291 -0.113422 0
M  V30 31755 H 3028.04 0.740314 0.143007 0
M  V30 31756 H 3030.69 1.80087 -0.352284 0
M  V30 31757 H 3029.07 3.66591 1.49756 0
M  V30 31758 H 3030.25 4.43338 -1.25652 0
M  V30 31759 H 3028.56 4.04645 -0.98243 0
M  V30 31760 H 3031.16 5.1053 1.58944 0
M  V30 31761 H 3031.5 3.51642 2.2283 0
M  V30 31762 H 3032.03 3.9352 0.581955 0
M  V30 31763 H 3028.77 6.47724 -1.00665 0
M  V30 31764 H 3028.29 5.96508 0.627561 0
M  V30 31765 H 3029.97 6.46291 0.302816 0
M  V30 31766 N 3030.1 -0.0216912 1.57585 0
M  V30 31767 C 3031.35 -0.710091 1.88787 0
M  V30 31768 C 3031.67 -1.76125 0.85085 0
M  V30 31769 O 3032.87 -2.50276 1.05235 0
M  V30 31770 C 3031.33 -1.31407 3.35052 0
M  V30 31771 C 3030.94 -0.29888 4.47002 0
M  V30 31772 C 3032.68 -1.98192 3.75393 0
M  V30 31773 C 3030.59 -0.911624 5.84332 0
M  V30 31774 H 3029.52 -0.268973 0.704393 0
M  V30 31775 H 3032.17 0.0352961 1.83466 0
M  V30 31776 H 3030.55 -2.10941 3.35141 0
M  V30 31777 H 3031.72 0.470284 4.58394 0
M  V30 31778 H 3030.04 0.267295 4.15541 0
M  V30 31779 H 3032.64 -2.44902 4.75318 0
M  V30 31780 H 3032.98 -2.80326 3.07771 0
M  V30 31781 H 3033.51 -1.25423 3.7751 0
M  V30 31782 H 3030.25 -0.129544 6.55372 0
M  V30 31783 H 3029.77 -1.65045 5.76646 0
M  V30 31784 H 3031.45 -1.41677 6.31298 0
M  V30 31785 N 3031.58 -1.54832 -0.294093 0
M  V30 31786 C 3033 -1.462 -0.640141 0
M  V30 31787 C 3033.2 -0.658832 -1.90425 0
M  V30 31788 O 3032.26 -0.169272 -2.51932 0
M  V30 31789 C 3033.57 -2.90226 -0.786712 0
M  V30 31790 C 3035.12 -3.00312 -0.882148 0
M  V30 31791 C 3035.59 -4.45549 -1.06066 0
M  V30 31792 N 3037.08 -4.49288 -1.1267 0
M  V30 31793 C 3037.82 -5.58856 -1.28325 0
M  V30 31794 N 3037.31 -6.78335 -1.40833 0
M  V30 31795 N 3039.11 -5.46558 -1.31268 0
M  V30 31796 H 3031.26 -2.05516 0.53637 0
M  V30 31797 H 3033.52 -0.931066 0.178379 0
M  V30 31798 H 3033.23 -3.51628 0.0713636 0
M  V30 31799 H 3033.1 -3.3804 -1.67358 0
M  V30 31800 H 3035.49 -2.3902 -1.73071 0
M  V30 31801 H 3035.57 -2.55784 0.0288854 0
M  V30 31802 H 3035.21 -5.07437 -0.216846 0
M  V30 31803 H 3035.14 -4.87714 -1.98603 0
M  V30 31804 H 3037.63 -3.63213 -1.04329 0
M  V30 31805 H 3037.95 -7.57593 -1.52553 0
M  V30 31806 H 3036.29 -6.81187 -1.37876 0
M  V30 31807 H 3039.48 -4.52161 -1.21112 0
M  V30 31808 H 3039.66 -6.31996 -1.43124 0
M  V30 31809 N 3033.06 0.557619 -1.47405 0
M  V30 31810 C 3034.29 1.34023 -1.57624 0
M  V30 31811 C 3034.7 1.87439 -0.226289 0
M  V30 31812 O 3034.06 1.64973 0.780401 0
M  V30 31813 C 3034.11 2.51043 -2.60115 0
M  V30 31814 O 3033.83 1.99834 -3.89869 0
M  V30 31815 C 3035.33 3.43259 -2.80514 0
M  V30 31816 H 3032.55 0.40856 -0.532278 0
M  V30 31817 H 3035.1 0.675521 -1.93021 0
M  V30 31818 H 3033.25 3.13453 -2.27654 0
M  V30 31819 H 3033.67 2.76226 -4.45869 0
M  V30 31820 H 3035.14 4.21785 -3.56091 0
M  V30 31821 H 3035.62 3.96777 -1.88321 0
M  V30 31822 H 3036.22 2.86665 -3.14171 0
M  V30 31823 N 3034.54 1.35531 0.804316 0
M  V30 31824 C 3035.47 1.31304 1.93084 0
M  V30 31825 C 3036.45 0.187073 1.69068 0
M  V30 31826 O 3037.64 0.382392 1.90398 0
M  V30 31827 C 3034.77 1.08656 3.29865 0
M  V30 31828 C 3033.72 2.17918 3.68369 0
M  V30 31829 C 3033.05 1.80432 5.03337 0
M  V30 31830 C 3034.35 3.599 3.78509 0
M  V30 31831 H 3036.04 2.25565 1.96878 0
M  V30 31832 H 3033.59 1.08583 0.945822 0
M  V30 31833 H 3035.54 1.04338 4.08279 0
M  V30 31834 H 3034.26 0.108416 3.2642 0
M  V30 31835 H 3032.92 2.21336 2.92243 0
M  V30 31836 H 3032.57 0.8123 4.96398 0
M  V30 31837 H 3032.27 2.53574 5.3007 0
M  V30 31838 H 3033.79 1.77643 5.84188 0
M  V30 31839 H 3035.21 3.58791 4.47149 0
M  V30 31840 H 3033.6 4.31822 4.16713 0
M  V30 31841 H 3034.67 3.95887 2.80003 0
M  V30 31842 N 3036.02 -1.02674 1.19565 0
M  V30 31843 C 3036.95 -2.12895 0.959061 0
M  V30 31844 C 3037.93 -1.69755 -0.108352 0
M  V30 31845 O 3039.11 -1.94143 0.0471039 0
M  V30 31846 C 3036.24 -3.43693 0.499271 0
M  V30 31847 C 3035.2 -4.00525 1.50877 0
M  V30 31848 C 3034.52 -5.26969 0.905976 0
M  V30 31849 C 3035.82 -4.35085 2.88961 0
M  V30 31850 H 3037.52 -2.32945 1.88088 0
M  V30 31851 H 3035.06 -1.11947 0.905751 0
M  V30 31852 H 3037.02 -4.20175 0.321039 0
M  V30 31853 H 3035.74 -3.23371 -0.458148 0
M  V30 31854 H 3034.4 -3.26139 1.67418 0
M  V30 31855 H 3034.05 -5.02965 -0.0590622 0
M  V30 31856 H 3033.75 -5.65956 1.5801 0
M  V30 31857 H 3035.27 -6.06117 0.738587 0
M  V30 31858 H 3036.69 -5.02496 2.7599 0
M  V30 31859 H 3035.08 -4.8516 3.53186 0
M  V30 31860 H 3036.15 -3.44293 3.41453 0
M  V30 31861 N 3037.5 -0.999914 -1.21817 0
M  V30 31862 C 3038.43 -0.576136 -2.26281 0
M  V30 31863 C 3039.41 0.400508 -1.65318 0
M  V30 31864 O 3040.59 0.289606 -1.92028 0
M  V30 31865 C 3037.72 0.103084 -3.47147 0
M  V30 31866 C 3036.68 -0.792819 -4.20593 0
M  V30 31867 C 3036 0.0197086 -5.34696 0
M  V30 31868 C 3037.3 -2.09302 -4.78529 0
M  V30 31869 H 3039 -1.44934 -2.61982 0
M  V30 31870 H 3036.54 -0.698338 -1.25933 0
M  V30 31871 H 3038.49 0.410994 -4.19391 0
M  V30 31872 H 3037.22 1.01089 -3.10562 0
M  V30 31873 H 3035.88 -1.08448 -3.50192 0
M  V30 31874 H 3035.53 0.928642 -4.94353 0
M  V30 31875 H 3035.23 -0.576763 -5.84763 0
M  V30 31876 H 3036.75 0.321551 -6.09753 0
M  V30 31877 H 3038.16 -1.84859 -5.42679 0
M  V30 31878 H 3036.56 -2.63891 -5.38964 0
M  V30 31879 H 3037.63 -2.76715 -3.98192 0
M  V30 31880 N 3038.97 1.37284 -0.773999 0
M  V30 31881 C 3039.92 2.30245 -0.159979 0
M  V30 31882 C 3040.89 1.51212 0.68733 0
M  V30 31883 O 3042.08 1.79774 0.639224 0
M  V30 31884 C 3039.22 3.37688 0.711393 0
M  V30 31885 C 3038.33 4.3173 -0.152768 0
M  V30 31886 C 3037.46 5.2625 0.72352 0
M  V30 31887 C 3036.5 6.11933 -0.143037 0
M  V30 31888 N 3035.64 6.98688 0.691356 0
M  V30 31889 H 3040.48 2.82174 -0.958232 0
M  V30 31890 H 3038.02 1.38905 -0.484134 0
M  V30 31891 H 3039.97 3.98612 1.23143 0
M  V30 31892 H 3038.6 2.87118 1.47523 0
M  V30 31893 H 3037.66 3.72093 -0.790639 0
M  V30 31894 H 3038.97 4.91995 -0.821113 0
M  V30 31895 H 3038.12 5.92389 1.30996 0
M  V30 31896 H 3036.86 4.66401 1.42554 0
M  V30 31897 H 3035.87 5.4477 -0.741995 0
M  V30 31898 H 3037.09 6.73855 -0.842424 0
M  V30 31899 H 3035.04 6.41365 1.37795 0
M  V30 31900 H 3034.95 7.55957 0.0803583 0
M  V30 31901 H 3036.22 7.69214 1.26212 0
M  V30 31902 N 3040.45 0.524724 1.48608 0
M  V30 31903 C 3041.68 -0.00739309 2.06899 0
M  V30 31904 C 3042.09 -1.28634 1.38198 0
M  V30 31905 O 3041.45 -1.76403 0.467802 0
M  V30 31906 C 3041.5 -0.240485 3.60699 0
M  V30 31907 O 3041.22 0.98779 4.26819 0
M  V30 31908 C 3042.72 -0.813576 4.3577 0
M  V30 31909 H 3039.94 0.0311411 0.670277 0
M  V30 31910 H 3042.49 0.728866 1.9107 0
M  V30 31911 H 3040.64 -0.926779 3.76151 0
M  V30 31912 H 3041.06 0.765267 5.18887 0
M  V30 31913 H 3042.53 -0.926124 5.44175 0
M  V30 31914 H 3043.01 -1.81721 3.99843 0
M  V30 31915 H 3043.61 -0.164011 4.24984 0
M  V30 31916 N 3041.93 -1.55447 0.259613 0
M  V30 31917 C 3043.16 -2.03353 -0.364827 0
M  V30 31918 C 3043.57 -1.13789 -1.51158 0
M  V30 31919 O 3042.91 -0.147315 -1.83108 0
M  V30 31920 C 3042.97 -3.47462 -0.922526 0
M  V30 31921 C 3042.64 -4.56904 0.093601 0
M  V30 31922 C 3043.63 -5.11916 0.907661 0
M  V30 31923 C 3041.32 -5.01803 0.223365 0
M  V30 31924 C 3043.31 -6.1033 1.83782 0
M  V30 31925 C 3041 -6.00047 1.15702 0
M  V30 31926 C 3042 -6.5419 1.96276 0
M  V30 31927 O 3041.69 -7.50516 2.88065 0
M  V30 31928 H 3041.42 -0.670073 -0.0893195 0
M  V30 31929 H 3043.97 -2.01762 0.384856 0
M  V30 31930 H 3042.2 -3.46243 -1.722 0
M  V30 31931 H 3043.89 -3.78795 -1.4584 0
M  V30 31932 H 3044.66 -4.78051 0.818063 0
M  V30 31933 H 3040.54 -4.59315 -0.393753 0
M  V30 31934 H 3044.08 -6.52516 2.46714 0
M  V30 31935 H 3039.98 -6.33331 1.24749 0
M  V30 31936 H 3040.74 -7.68177 2.8257 0
M  V30 31937 N 3043.41 0.0133338 -1.57594 0
M  V30 31938 C 3044.35 1.00901 -2.07576 0
M  V30 31939 C 3045.32 1.34959 -0.968254 0
M  V30 31940 O 3046.51 1.45026 -1.23984 0
M  V30 31941 C 3043.65 2.29998 -2.57284 0
M  V30 31942 C 3042.76 2.0196 -3.81885 0
M  V30 31943 C 3041.9 3.25041 -4.20145 0
M  V30 31944 C 3040.94 2.92629 -5.37619 0
M  V30 31945 N 3040.07 4.08208 -5.71236 0
M  V30 31946 H 3044.91 0.575847 -2.92383 0
M  V30 31947 H 3042.45 0.272697 -1.4455 0
M  V30 31948 H 3044.41 3.05449 -2.84177 0
M  V30 31949 H 3043.04 2.71008 -1.7537 0
M  V30 31950 H 3042.09 1.16935 -3.61981 0
M  V30 31951 H 3043.4 1.74061 -4.67444 0
M  V30 31952 H 3042.56 4.08849 -4.48249 0
M  V30 31953 H 3041.3 3.56067 -3.33268 0
M  V30 31954 H 3040.3 2.07226 -5.09252 0
M  V30 31955 H 3041.53 2.62865 -6.26162 0
M  V30 31956 H 3039.47 4.39156 -4.87318 0
M  V30 31957 H 3039.39 3.83787 -6.5134 0
M  V30 31958 H 3040.66 4.92843 -6.03926 0
M  V30 31959 N 3044.89 1.54985 0.285878 0
M  V30 31960 C 3046.13 1.74638 1.01715 0
M  V30 31961 C 3046.45 0.543375 1.87276 0
M  V30 31962 O 3045.72 -0.442044 1.90848 0
M  V30 31963 H 3044.3 0.643986 0.378538 0
M  V30 31964 H 3046.97 1.92367 0.313213 0
M  V30 31965 H 3046.06 2.64195 1.66154 0
M  V30 31966 N 3046.36 -0.549794 1.47699 0
M  V30 31967 C 3047.61 -1.30301 1.53963 0
M  V30 31968 C 3047.93 -1.94472 0.209765 0
M  V30 31969 O 3049.13 -2.71083 0.150465 0
M  V30 31970 C 3047.59 -2.36323 2.7144 0
M  V30 31971 C 3047.2 -1.78309 4.10986 0
M  V30 31972 C 3048.94 -3.12778 2.87002 0
M  V30 31973 C 3046.85 -2.82155 5.19752 0
M  V30 31974 H 3045.78 -0.489964 0.573106 0
M  V30 31975 H 3048.43 -0.583058 1.7399 0
M  V30 31976 H 3046.81 -3.11265 2.44806 0
M  V30 31977 H 3047.98 -1.09689 4.47554 0
M  V30 31978 H 3046.3 -1.14413 4.00373 0
M  V30 31979 H 3048.9 -3.90341 3.65429 0
M  V30 31980 H 3049.24 -3.67423 1.95719 0
M  V30 31981 H 3049.77 -2.44949 3.13441 0
M  V30 31982 H 3046.51 -2.32356 6.12936 0
M  V30 31983 H 3046.03 -3.49163 4.87694 0
M  V30 31984 H 3047.71 -3.45511 5.4702 0
M  V30 31985 N 3047.84 -1.35955 -0.797117 0
M  V30 31986 C 3049.12 -1.20312 -1.54222 0
M  V30 31987 C 3049.5 0.213889 -2.10014 0
M  V30 31988 O 3048.85 1.21859 -1.93294 0
M  V30 31989 C 3049.06 -2.27888 -2.64326 0
M  V30 31990 C 3050.41 -2.64171 -3.32414 0
M  V30 31991 O 3051.43 -2.26873 -2.74603 0
M  V30 31992 O 3050.29 -3.28339 -4.36871 0
M  V30 31993 H 3047.38 -0.467986 -0.681849 0
M  V30 31994 H 3049.93 -1.47664 -0.836262 0
M  V30 31995 H 3048.7 -3.22889 -2.21039 0
M  V30 31996 H 3048.32 -2.01859 -3.42548 0
M  V30 31997 N 3049.32 1.02038 -1.20108 0
M  V30 31998 C 3050.25 2.12383 -0.970338 0
M  V30 31999 C 3051.23 1.6981 0.0993481 0
M  V30 32000 O 3052.42 1.94115 -0.0573991 0
M  V30 32001 C 3049.55 3.43423 -0.517491 0
M  V30 32002 C 3048.5 3.99719 -1.52999 0
M  V30 32003 C 3047.83 5.26481 -0.93391 0
M  V30 32004 C 3049.13 4.33546 -2.91264 0
M  V30 32005 H 3050.82 2.31944 -1.8932 0
M  V30 32006 H 3048.37 1.11465 -0.911675 0
M  V30 32007 H 3050.32 4.19999 -0.343317 0
M  V30 32008 H 3049.04 3.23609 0.440993 0
M  V30 32009 H 3047.7 3.25247 -1.69145 0
M  V30 32010 H 3047.35 5.0299 0.0323879 0
M  V30 32011 H 3047.05 5.65111 -1.61009 0
M  V30 32012 H 3048.57 6.05716 -0.77072 0
M  V30 32013 H 3049.99 5.01026 -2.78651 0
M  V30 32014 H 3048.39 4.8328 -3.55754 0
M  V30 32015 H 3049.46 3.42477 -3.43275 0
M  V30 32016 N 3050.8 1.00636 1.21285 0
M  V30 32017 C 3052.08 0.605289 1.85999 0
M  V30 32018 C 3052.46 -0.917039 1.90141 0
M  V30 32019 O 3051.8 -1.80455 1.40172 0
M  V30 32020 C 3052.01 1.24124 3.26181 0
M  V30 32021 C 3053.36 1.35022 4.0256 0
M  V30 32022 O 3054.39 1.19667 3.35497 0
M  V30 32023 O 3053.24 1.59735 5.22635 0
M  V30 32024 H 3050.34 0.2075 0.800545 0
M  V30 32025 H 3052.88 1.10309 1.28957 0
M  V30 32026 H 3051.66 2.28192 3.17874 0
M  V30 32027 H 3051.28 0.729876 3.90843 0
M  V30 32028 N 3052.28 -1.36872 0.781268 0
M  V30 32029 C 3053.23 -2.27523 0.147353 0
M  V30 32030 C 3054.21 -1.46564 -0.663902 0
M  V30 32031 O 3055.4 -1.69025 -0.525313 0
M  V30 32032 C 3052.53 -3.35591 -0.723452 0
M  V30 32033 C 3051.62 -4.23991 0.0961508 0
M  V30 32034 N 3052.01 -4.92633 1.14658 0
M  V30 32035 C 3050.31 -4.45821 -0.126319 0
M  V30 32036 C 3051.01 -5.57961 1.64483 0
M  V30 32037 N 3049.98 -5.35138 0.95541 0
M  V30 32038 H 3053.79 -2.78073 0.951455 0
M  V30 32039 H 3051.3 -1.50102 0.619939 0
M  V30 32040 H 3053.3 -3.99453 -1.19344 0
M  V30 32041 H 3051.96 -2.86596 -1.52619 0
M  V30 32042 H 3052.97 -4.94819 1.52888 0
M  V30 32043 H 3049.64 -4.07679 -0.900212 0
M  V30 32044 H 3051.03 -6.22798 2.52135 0
M  V30 32045 N 3053.75 -0.532597 -1.48328 0
M  V30 32046 C 3054.68 0.21747 -2.32485 0
M  V30 32047 C 3055.67 0.932573 -1.42257 0
M  V30 32048 O 3056.85 0.917843 -1.71141 0
M  V30 32049 C 3053.98 1.26324 -3.23511 0
M  V30 32050 C 3052.93 0.666117 -4.22785 0
M  V30 32051 C 3052.26 1.81473 -5.02963 0
M  V30 32052 C 3053.56 -0.363905 -5.21031 0
M  V30 32053 H 3055.25 -0.485066 -2.95445 0
M  V30 32054 H 3052.8 -0.234719 -1.42074 0
M  V30 32055 H 3054.75 1.79594 -3.81214 0
M  V30 32056 H 3053.48 1.99539 -2.58557 0
M  V30 32057 H 3052.14 0.154916 -3.66273 0
M  V30 32058 H 3051.78 2.53532 -4.34431 0
M  V30 32059 H 3051.48 1.4211 -5.70157 0
M  V30 32060 H 3053.01 2.35116 -5.63518 0
M  V30 32061 H 3054.42 0.0818072 -5.73242 0
M  V30 32062 H 3052.82 -0.675061 -5.96291 0
M  V30 32063 H 3053.89 -1.26873 -4.68008 0
M  V30 32064 N 3055.23 1.55307 -0.267853 0
M  V30 32065 C 3056.18 2.22239 0.622761 0
M  V30 32066 C 3057.15 1.19336 1.15534 0
M  V30 32067 O 3058.33 1.47854 1.20598 0
M  V30 32068 C 3055.47 2.94168 1.80442 0
M  V30 32069 C 3054.59 4.11774 1.30639 0
M  V30 32070 C 3053.72 4.71364 2.44927 0
M  V30 32071 C 3052.76 5.81178 1.92089 0
M  V30 32072 N 3051.9 6.34863 2.99823 0
M  V30 32073 H 3056.74 2.97966 0.045335 0
M  V30 32074 H 3054.28 1.47096 0.0106112 0
M  V30 32075 H 3056.23 3.34082 2.4989 0
M  V30 32076 H 3054.86 2.20878 2.35399 0
M  V30 32077 H 3053.92 3.7703 0.505247 0
M  V30 32078 H 3055.23 4.90988 0.879322 0
M  V30 32079 H 3054.38 5.13961 3.2238 0
M  V30 32080 H 3053.12 3.91411 2.90945 0
M  V30 32081 H 3052.13 5.38039 1.13113 0
M  V30 32082 H 3053.35 6.62996 1.47016 0
M  V30 32083 H 3051.3 5.57806 3.45236 0
M  V30 32084 H 3051.21 7.09329 2.61512 0
M  V30 32085 H 3052.48 6.82118 3.77274 0
M  V30 32086 N 3056.71 -0.00497598 1.57599 0
M  V30 32087 C 3057.64 -1.03177 2.03543 0
M  V30 32088 C 3058.62 -1.33772 0.924324 0
M  V30 32089 O 3059.81 -1.46021 1.19206 0
M  V30 32090 C 3056.93 -2.36062 2.42883 0
M  V30 32091 C 3055.98 -2.21163 3.64677 0
M  V30 32092 S 3056.81 -1.54234 5.12808 0
M  V30 32093 C 3057.97 -2.8856 5.55413 0
M  V30 32094 H 3058.2 -0.640547 2.90318 0
M  V30 32095 H 3055.73 -0.215695 1.52886 0
M  V30 32096 H 3057.69 -3.12471 2.66218 0
M  V30 32097 H 3056.35 -2.72326 1.56517 0
M  V30 32098 H 3055.55 -3.19319 3.89938 0
M  V30 32099 H 3055.15 -1.52898 3.41319 0
M  V30 32100 H 3057.44 -3.84867 5.5757 0
M  V30 32101 H 3058.38 -2.68004 6.55423 0
M  V30 32102 H 3058.79 -2.9224 4.82966 0
M  V30 32103 N 3058.19 -1.55135 -0.277654 0
M  V30 32104 C 3059.44 -1.74728 -1.00763 0
M  V30 32105 C 3059.75 -0.553125 -1.87616 0
M  V30 32106 O 3060.96 -0.631364 -2.64057 0
M  V30 32107 C 3059.41 -3.09224 -1.84142 0
M  V30 32108 C 3059.02 -4.36192 -1.02178 0
M  V30 32109 C 3060.76 -3.38168 -2.56598 0
M  V30 32110 C 3058.67 -5.6173 -1.84968 0
M  V30 32111 H 3057.6 -0.651279 -0.379936 0
M  V30 32112 H 3060.25 -1.81598 -0.263511 0
M  V30 32113 H 3058.63 -2.96379 -2.62632 0
M  V30 32114 H 3059.81 -4.5994 -0.281378 0
M  V30 32115 H 3058.12 -4.14357 -0.411982 0
M  V30 32116 H 3060.72 -4.29167 -3.18935 0
M  V30 32117 H 3061.06 -2.58091 -3.26642 0
M  V30 32118 H 3061.6 -3.5209 -1.85141 0
M  V30 32119 H 3058.34 -6.44543 -1.19353 0
M  V30 32120 H 3057.86 -5.42132 -2.56618 0
M  V30 32121 H 3059.53 -5.99857 -2.42448 0
M  V30 32122 N 3059.67 0.541953 -1.47989 0
M  V30 32123 C 3060.63 1.62981 -1.61151 0
M  V30 32124 C 3061.63 1.53294 -0.485557 0
M  V30 32125 O 3062.82 1.57178 -0.751039 0
M  V30 32126 C 3059.95 3.02573 -1.57043 0
M  V30 32127 H 3061.14 1.52655 -2.58141 0
M  V30 32128 H 3058.7 0.763082 -1.36407 0
M  V30 32129 H 3059.43 3.18418 -0.614863 0
M  V30 32130 H 3059.22 3.11013 -2.38774 0
M  V30 32131 H 3060.71 3.81688 -1.69423 0
M  V30 32132 N 3061.15 1.36376 0.789896 0
M  V30 32133 C 3062.38 1.33539 1.57642 0
M  V30 32134 C 3062.78 -0.0854742 1.89007 0
M  V30 32135 O 3062.13 -1.05265 1.50549 0
M  V30 32136 C 3062.19 2.09118 2.9242 0
M  V30 32137 C 3061.85 3.5821 2.83786 0
M  V30 32138 C 3062.85 4.52468 2.56064 0
M  V30 32139 C 3060.53 4.01089 3.02379 0
M  V30 32140 C 3062.53 5.87582 2.47034 0
M  V30 32141 C 3060.22 5.36294 2.92971 0
M  V30 32142 C 3061.21 6.29353 2.65336 0
M  V30 32143 O 3060.9 7.62076 2.55922 0
M  V30 32144 H 3060.63 0.459702 0.495631 0
M  V30 32145 H 3063.19 1.80059 0.988322 0
M  V30 32146 H 3061.42 1.5726 3.53279 0
M  V30 32147 H 3063.11 1.99145 3.53689 0
M  V30 32148 H 3063.87 4.20654 2.41403 0
M  V30 32149 H 3059.75 3.29029 3.22894 0
M  V30 32150 H 3063.3 6.60187 2.25385 0
M  V30 32151 H 3059.19 5.67716 3.07194 0
M  V30 32152 H 3059.96 7.72192 2.71406 0
M  V30 32153 N 3062.62 -1.014 1.20647 0
M  V30 32154 C 3063.87 -1.74693 1.01621 0
M  V30 32155 C 3064.19 -1.89679 -0.452405 0
M  V30 32156 O 3063.46 -1.44118 -1.3269 0
M  V30 32157 H 3062.04 -0.647195 0.373025 0
M  V30 32158 H 3064.7 -1.22238 1.51802 0
M  V30 32159 H 3063.8 -2.74954 1.4767 0
M  V30 32160 N 3064.1 -1.01278 -1.2075 0
M  V30 32161 C 3065.38 -0.615145 -1.85675 0
M  V30 32162 C 3065.76 0.906942 -1.90625 0
M  V30 32163 O 3065.11 1.79709 -1.41127 0
M  V30 32164 C 3065.32 -1.25852 -3.25518 0
M  V30 32165 C 3066.66 -1.37155 -4.01838 0
M  V30 32166 O 3067.69 -1.21444 -3.34858 0
M  V30 32167 O 3066.55 -1.62504 -5.2178 0
M  V30 32168 H 3063.64 -0.211743 -0.799434 0
M  V30 32169 H 3066.19 -1.10992 -1.2837 0
M  V30 32170 H 3064.96 -2.29874 -3.1666 0
M  V30 32171 H 3064.58 -0.750593 -3.90451 0
M  V30 32172 N 3065.58 1.36456 -0.788516 0
M  V30 32173 C 3066.86 1.9352 -0.284518 0
M  V30 32174 C 3067.24 1.72052 1.22317 0
M  V30 32175 O 3066.58 1.07895 2.01422 0
M  V30 32176 C 3066.79 3.42387 -0.676166 0
M  V30 32177 C 3068.14 4.19511 -0.655401 0
M  V30 32178 O 3069.17 3.50823 -0.616584 0
M  V30 32179 O 3068.03 5.42031 -0.697486 0
M  V30 32180 H 3065.12 0.824016 -0.0701914 0
M  V30 32181 H 3067.67 1.45642 -0.870999 0
M  V30 32182 H 3066.44 3.51665 -1.71602 0
M  V30 32183 H 3066.06 3.97549 -0.0635216 0
M  V30 32184 N 3067.06 0.540456 1.48043 0
M  V30 32185 C 3068.3 0.0102074 2.02797 0
M  V30 32186 C 3068.64 -1.32937 1.41568 0
M  V30 32187 O 3067.91 -1.86108 0.565172 0
M  V30 32188 C 3068.19 -0.100695 3.59959 0
M  V30 32189 C 3068.05 1.26479 4.31652 0
M  V30 32190 C 3069.37 -0.822379 4.32348 0
M  V30 32191 H 3066.49 0.00518347 0.736982 0
M  V30 32192 H 3069.13 0.699511 1.76655 0
M  V30 32193 H 3067.28 -0.687757 3.82364 0
M  V30 32194 H 3068.95 1.89377 4.20635 0
M  V30 32195 H 3067.19 1.84393 3.9266 0
M  V30 32196 H 3067.86 1.14008 5.40098 0
M  V30 32197 H 3070.34 -0.324091 4.14836 0
M  V30 32198 H 3069.22 -0.868898 5.41979 0
M  V30 32199 H 3069.48 -1.87494 4.00373 0
M  V30 32200 N 3068.54 -1.55163 0.276085 0
M  V30 32201 C 3069.78 -1.98796 -0.341063 0
M  V30 32202 C 3070.1 -1.16794 -1.56903 0
M  V30 32203 O 3071.3 -1.50575 -2.25919 0
M  V30 32204 C 3069.76 -3.53831 -0.658169 0
M  V30 32205 C 3069.37 -4.4461 0.55005 0
M  V30 32206 C 3071.11 -4.0605 -1.23789 0
M  V30 32207 C 3069.02 -5.91036 0.207477 0
M  V30 32208 H 3067.95 -0.742496 -0.131211 0
M  V30 32209 H 3070.6 -1.79503 0.38089 0
M  V30 32210 H 3068.98 -3.68927 -1.43905 0
M  V30 32211 H 3070.16 -4.41282 1.32689 0
M  V30 32212 H 3068.47 -4.0303 1.04668 0
M  V30 32213 H 3071.07 -5.12994 -1.50802 0
M  V30 32214 H 3071.41 -3.55143 -2.17208 0
M  V30 32215 H 3071.94 -3.94396 -0.519275 0
M  V30 32216 H 3068.68 -6.46041 1.10957 0
M  V30 32217 H 3068.2 -5.97431 -0.532582 0
M  V30 32218 H 3069.88 -6.46691 -0.199959 0
M  V30 32219 N 3070.01 -0.00338196 -1.576 0
M  V30 32220 C 3070.98 0.971801 -2.07578 0
M  V30 32221 C 3071.98 1.27036 -0.985819 0
M  V30 32222 O 3073.17 1.21498 -1.24835 0
M  V30 32223 C 3070.3 2.29576 -2.52007 0
M  V30 32224 H 3071.49 0.53943 -2.95009 0
M  V30 32225 H 3069.04 0.244159 -1.54381 0
M  V30 32226 H 3069.78 2.77495 -1.6783 0
M  V30 32227 H 3069.56 2.09225 -3.31613 0
M  V30 32228 H 3071.05 2.99525 -2.90988 0
M  V30 32229 N 3071.49 1.5528 0.269423 0
M  V30 32230 C 3072.72 1.80417 1.02296 0
M  V30 32231 C 3073.14 0.577394 1.79019 0
M  V30 32232 O 3072.5 -0.473094 1.75019 0
M  V30 32233 C 3072.55 3.03044 1.9544 0
M  V30 32234 O 3071.65 2.7838 3.04267 0
M  V30 32235 H 3070.99 0.596212 0.292279 0
M  V30 32236 H 3073.52 2.02429 0.297247 0
M  V30 32237 H 3073.53 3.31873 2.37327 0
M  V30 32238 H 3072.21 3.91981 1.3901 0
M  V30 32239 H 3070.78 2.60657 2.66669 0
M  V30 32240 N 3072.97 -0.534097 1.48274 0
M  V30 32241 C 3074.2 -1.31308 1.59505 0
M  V30 32242 C 3074.61 -1.87503 0.252873 0
M  V30 32243 O 3073.95 -1.66905 -0.767369 0
M  V30 32244 C 3074.01 -2.50452 2.57903 0
M  V30 32245 C 3073.68 -2.15375 4.03067 0
M  V30 32246 C 3074.67 -1.71291 4.90872 0
M  V30 32247 C 3072.36 -2.26024 4.48574 0
M  V30 32248 C 3074.35 -1.38317 6.22212 0
M  V30 32249 C 3072.04 -1.92662 5.79935 0
M  V30 32250 C 3073.04 -1.48878 6.66576 0
M  V30 32251 O 3072.73 -1.15952 7.95494 0
M  V30 32252 H 3072.46 -0.40573 0.540703 0
M  V30 32253 H 3075.01 -0.651462 1.94795 0
M  V30 32254 H 3073.24 -3.19581 2.17726 0
M  V30 32255 H 3074.93 -3.12517 2.59013 0
M  V30 32256 H 3075.7 -1.62537 4.56954 0
M  V30 32257 H 3071.58 -2.59059 3.81326 0
M  V30 32258 H 3075.12 -1.0407 6.89794 0
M  V30 32259 H 3071.02 -2.01055 6.1339 0
M  V30 32260 H 3071.78 -1.29385 8.08209 0
M  V30 32261 N 3074.45 -1.36793 -0.782652 0
M  V30 32262 C 3075.86 -1.28094 -1.35826 0
M  V30 32263 C 3076.21 0.0762806 -1.96052 0
M  V30 32264 O 3075.33 0.977901 -1.93044 0
M  V30 32265 C 3075.93 -2.31956 -2.46945 0
M  V30 32266 C 3074.49 -2.26926 -3.00303 0
M  V30 32267 C 3073.64 -2.16371 -1.73432 0
M  V30 32268 H 3076.59 -1.47573 -0.583762 0
M  V30 32269 H 3076.61 -1.95991 -3.26141 0
M  V30 32270 H 3076.12 -3.30726 -2.03082 0
M  V30 32271 H 3074.22 -1.31645 -3.48569 0
M  V30 32272 H 3074.33 -3.19894 -3.56658 0
M  V30 32273 H 3072.7 -1.62736 -1.95931 0
M  V30 32274 H 3073.48 -3.17038 -1.31688 0
M  V30 32275 N 3075.93 1.00759 -1.21184 0
M  V30 32276 C 3076.88 2.07889 -0.936283 0
M  V30 32277 C 3077.86 1.60541 0.107453 0
M  V30 32278 O 3079.05 1.76711 -0.101131 0
M  V30 32279 C 3076.18 3.39639 -0.500008 0
M  V30 32280 C 3075.27 3.93663 -1.57767 0
M  V30 32281 N 3075.66 4.21085 -2.80216 0
M  V30 32282 C 3073.96 4.21911 -1.44594 0
M  V30 32283 C 3074.66 4.64778 -3.49795 0
M  V30 32284 N 3073.63 4.67596 -2.77228 0
M  V30 32285 H 3077.44 2.27012 -1.86663 0
M  V30 32286 H 3074.95 1.18808 -1.10718 0
M  V30 32287 H 3076.95 4.15932 -0.28397 0
M  V30 32288 H 3075.61 3.21925 0.423602 0
M  V30 32289 H 3076.62 4.09718 -3.16783 0
M  V30 32290 H 3073.29 4.13347 -0.587419 0
M  V30 32291 H 3074.68 4.94739 -4.54623 0
M  V30 32292 N 3077.4 1.01917 1.20211 0
M  V30 32293 C 3078.31 0.601351 2.26762 0
M  V30 32294 C 3079.33 -0.362339 1.70185 0
M  V30 32295 O 3080.51 -0.222647 2.00166 0
M  V30 32296 C 3077.57 -0.051227 3.46662 0
M  V30 32297 C 3076.63 0.958732 4.18458 0
M  V30 32298 C 3075.87 0.337201 5.32634 0
M  V30 32299 O 3076.09 -0.862411 5.63843 0
M  V30 32300 O 3075.02 1.05521 5.92578 0
M  V30 32301 H 3078.85 1.48849 2.64722 0
M  V30 32302 H 3076.43 0.788807 1.26879 0
M  V30 32303 H 3078.32 -0.415566 4.19346 0
M  V30 32304 H 3076.99 -0.912517 3.10572 0
M  V30 32305 H 3075.9 1.37448 3.47935 0
M  V30 32306 H 3077.23 1.79007 4.58495 0
M  V30 32307 N 3078.88 -1.36036 0.795742 0
M  V30 32308 C 3080.13 -1.99366 0.371609 0
M  V30 32309 C 3080.46 -1.63001 -1.05567 0
M  V30 32310 O 3079.74 -0.887926 -1.7305 0
M  V30 32311 C 3080.02 -3.55987 0.542685 0
M  V30 32312 C 3079.87 -4.02186 2.01411 0
M  V30 32313 C 3081.19 -4.40083 -0.0383753 0
M  V30 32314 H 3078.31 -0.72425 0.136496 0
M  V30 32315 H 3080.95 -1.61353 1.00326 0
M  V30 32316 H 3079.1 -3.885 0.00497359 0
M  V30 32317 H 3080.77 -3.80132 2.61337 0
M  V30 32318 H 3079.02 -3.53493 2.51445 0
M  V30 32319 H 3079.69 -5.11119 2.08475 0
M  V30 32320 H 3082.16 -4.13968 0.420707 0
M  V30 32321 H 3081.04 -5.48787 0.11131 0
M  V30 32322 H 3081.3 -4.27386 -1.13108 0
M  V30 32323 N 3080.36 -0.5483 -1.47755 0
M  V30 32324 C 3081.64 0.044326 -1.9555 0
M  V30 32325 C 3082.02 1.49459 -1.49081 0
M  V30 32326 O 3081.37 2.16674 -0.725576 0
M  V30 32327 C 3081.58 -0.0919039 -3.48879 0
M  V30 32328 C 3082.92 0.0580133 -4.2456 0
M  V30 32329 O 3083.95 -0.0190086 -3.56195 0
M  V30 32330 O 3082.81 0.222165 -5.46048 0
M  V30 32331 H 3079.9 0.069109 -0.824107 0
M  V30 32332 H 3082.45 -0.614194 -1.58195 0
M  V30 32333 H 3081.22 -1.10143 -3.75479 0
M  V30 32334 H 3080.84 0.604635 -3.92976 0
M  V30 32335 N 3081.84 1.55014 -0.28431 0
M  V30 32336 C 3082.8 2.21578 0.586143 0
M  V30 32337 C 3083.8 1.19652 1.07425 0
M  V30 32338 O 3084.99 1.44497 0.972951 0
M  V30 32339 C 3082.12 2.889 1.80968 0
M  V30 32340 H 3083.32 2.999 0.00481982 0
M  V30 32341 H 3080.87 1.56261 -0.0349971 0
M  V30 32342 H 3081.6 2.14615 2.43127 0
M  V30 32343 H 3081.39 3.63602 1.4675 0
M  V30 32344 H 3082.88 3.39728 2.42847 0
M  V30 32345 N 3083.32 0.0117398 1.57596 0
M  V30 32346 C 3084.54 -0.684904 1.95765 0
M  V30 32347 C 3084.97 -1.65856 0.887314 0
M  V30 32348 O 3084.32 -1.80649 -0.153476 0
M  V30 32349 C 3084.37 -1.38279 3.33033 0
M  V30 32350 O 3083.48 -2.4976 3.28167 0
M  V30 32351 H 3082.82 -0.181298 0.63877 0
M  V30 32352 H 3085.35 0.0684243 2.04486 0
M  V30 32353 H 3085.36 -1.74356 3.68869 0
M  V30 32354 H 3084.03 -0.668971 4.10485 0
M  V30 32355 H 3082.61 -2.15924 3.04025 0
M  V30 32356 N 3084.79 -1.55421 -0.261185 0
M  V30 32357 C 3085.72 -1.92121 -1.32709 0
M  V30 32358 C 3086.71 -0.784433 -1.50933 0
M  V30 32359 O 3087.89 -1.04355 -1.63779 0
M  V30 32360 C 3085.02 -2.20346 -2.68449 0
M  V30 32361 C 3083.97 -3.36141 -2.64941 0
M  V30 32362 C 3083.3 -3.49872 -4.04343 0
M  V30 32363 C 3084.6 -4.72219 -2.23174 0
M  V30 32364 H 3086.29 -2.81402 -1.0224 0
M  V30 32365 H 3083.84 -1.35393 -0.490382 0
M  V30 32366 H 3085.79 -2.44609 -3.43139 0
M  V30 32367 H 3084.52 -1.27876 -3.00525 0
M  V30 32368 H 3083.18 -3.11864 -1.92708 0
M  V30 32369 H 3082.82 -2.54848 -4.33661 0
M  V30 32370 H 3082.52 -4.27733 -4.02887 0
M  V30 32371 H 3084.05 -3.76441 -4.80754 0
M  V30 32372 H 3085.46 -4.95948 -2.87591 0
M  V30 32373 H 3083.86 -5.5308 -2.32858 0
M  V30 32374 H 3084.93 -4.70243 -1.18318 0
M  V30 32375 N 3086.27 0.526227 -1.48555 0
M  V30 32376 C 3087.2 1.63956 -1.66255 0
M  V30 32377 C 3088.18 1.62231 -0.51138 0
M  V30 32378 O 3089.37 1.79368 -0.744354 0
M  V30 32379 C 3086.5 3.02533 -1.70561 0
M  V30 32380 C 3085.45 3.19118 -2.85215 0
M  V30 32381 C 3084.78 4.58793 -2.74614 0
M  V30 32382 C 3086.08 3.01532 -4.26469 0
M  V30 32383 H 3087.77 1.49399 -2.59462 0
M  V30 32384 H 3085.32 0.717304 -1.24863 0
M  V30 32385 H 3087.27 3.80295 -1.81531 0
M  V30 32386 H 3086 3.18121 -0.739353 0
M  V30 32387 H 3084.65 2.43774 -2.73806 0
M  V30 32388 H 3084.3 4.71223 -1.7595 0
M  V30 32389 H 3084 4.70834 -3.51552 0
M  V30 32390 H 3085.53 5.38649 -2.87557 0
M  V30 32391 H 3086.94 3.69084 -4.38691 0
M  V30 32392 H 3085.34 3.25064 -5.04434 0
M  V30 32393 H 3086.41 1.97917 -4.4267 0
M  V30 32394 N 3087.75 1.37206 0.775387 0
M  V30 32395 C 3088.71 1.32504 1.87017 0
M  V30 32396 C 3089.71 0.229821 1.59149 0
M  V30 32397 O 3090.9 0.485452 1.67299 0
M  V30 32398 C 3088.04 1.05751 3.24083 0
M  V30 32399 H 3089.23 2.29881 1.926 0
M  V30 32400 H 3086.78 1.22182 0.974739 0
M  V30 32401 H 3087.52 0.0888941 3.24178 0
M  V30 32402 H 3087.3 1.85022 3.45701 0
M  V30 32403 H 3088.79 1.05101 4.04158 0
M  V30 32404 N 3089.23 -1.00115 1.21716 0
M  V30 32405 C 3090.16 -2.09142 0.937664 0
M  V30 32406 C 3091.17 -1.626 -0.0806005 0
M  V30 32407 O 3092.36 -1.77848 0.15238 0
M  V30 32408 C 3089.46 -3.36682 0.387095 0
M  V30 32409 C 3088.64 -4.12292 1.46061 0
M  V30 32410 C 3087.69 -5.1812 0.918597 0
M  V30 32411 O 3086.72 -5.46164 1.60292 0
M  V30 32412 N 3087.92 -5.79898 -0.264206 0
M  V30 32413 H 3090.69 -2.33702 1.87626 0
M  V30 32414 H 3088.25 -1.16627 1.12293 0
M  V30 32415 H 3090.24 -4.04699 0.00999939 0
M  V30 32416 H 3088.81 -3.0925 -0.456413 0
M  V30 32417 H 3088.03 -3.39023 2.01139 0
M  V30 32418 H 3089.32 -4.59583 2.18314 0
M  V30 32419 H 3088.72 -5.59472 -0.837144 0
M  V30 32420 H 3087.27 -6.4919 -0.582772 0
M  V30 32421 N 3090.71 -1.02553 -1.19669 0
M  V30 32422 C 3091.93 -0.739397 -1.93772 0
M  V30 32423 C 3092.36 0.695033 -1.74788 0
M  V30 32424 O 3091.72 1.47942 -1.04798 0
M  V30 32425 C 3091.76 -1.09155 -3.43682 0
M  V30 32426 O 3090.87 -0.208285 -4.11874 0
M  V30 32427 H 3090.21 -0.273495 -0.605059 0
M  V30 32428 H 3092.74 -1.3713 -1.51843 0
M  V30 32429 H 3092.75 -1.04702 -3.94337 0
M  V30 32430 H 3091.42 -2.1366 -3.56822 0
M  V30 32431 H 3090 -0.311111 -3.716 0
M  V30 32432 N 3092.19 1.35612 -0.802945 0
M  V30 32433 C 3093.43 1.98479 -0.380857 0
M  V30 32434 C 3093.75 1.64021 1.05461 0
M  V30 32435 O 3093.02 0.920884 1.72906 0
M  V30 32436 H 3091.6 0.734173 -0.137836 0
M  V30 32437 H 3094.27 1.65586 -1.02798 0
M  V30 32438 H 3093.36 3.0833 -0.483619 0
M  V30 32439 N 3093.66 0.556128 1.47462 0
M  V30 32440 C 3094.61 -0.192173 2.29999 0
M  V30 32441 C 3095.58 -0.909379 1.38995 0
M  V30 32442 O 3096.77 -0.905286 1.67956 0
M  V30 32443 C 3093.91 -1.21686 3.22934 0
M  V30 32444 C 3093.02 -0.505833 4.29028 0
M  V30 32445 C 3092.15 -1.51572 5.09116 0
M  V30 32446 C 3091.19 -0.789607 6.06986 0
M  V30 32447 N 3090.33 -1.74627 6.80037 0
M  V30 32448 H 3095.17 0.517785 2.93467 0
M  V30 32449 H 3092.71 0.267172 1.44653 0
M  V30 32450 H 3094.66 -1.82354 3.75237 0
M  V30 32451 H 3093.29 -1.89487 2.61332 0
M  V30 32452 H 3092.35 0.215343 3.7979 0
M  V30 32453 H 3093.66 0.0630456 4.9876 0
M  V30 32454 H 3092.81 -2.19596 5.65564 0
M  V30 32455 H 3091.55 -2.11852 4.39284 0
M  V30 32456 H 3090.56 -0.0954416 5.49717 0
M  V30 32457 H 3091.78 -0.192568 6.78827 0
M  V30 32458 H 3089.73 -2.33767 6.12935 0
M  V30 32459 H 3089.64 -1.22952 7.45935 0
M  V30 32460 H 3090.91 -2.41769 7.41059 0
M  V30 32461 N 3095.14 -1.54861 0.292527 0
M  V30 32462 C 3096.42 -1.92032 -0.371912 0
M  V30 32463 C 3096.8 -1.21881 -1.72361 0
M  V30 32464 O 3096.15 -0.351613 -2.25779 0
M  V30 32465 C 3096.36 -3.45472 -0.494966 0
M  V30 32466 C 3097.7 -4.17564 -0.769782 0
M  V30 32467 O 3098.73 -3.51461 -0.579106 0
M  V30 32468 O 3097.59 -5.34573 -1.13551 0
M  V30 32469 H 3094.68 -0.800817 -0.206449 0
M  V30 32470 H 3097.23 -1.6626 0.339962 0
M  V30 32471 H 3096 -3.88639 0.455596 0
M  V30 32472 H 3095.62 -3.77253 -1.25564 0
M  V30 32473 N 3096.62 -0.0200973 -1.57587 0
M  V30 32474 C 3097.85 0.669957 -1.95436 0
M  V30 32475 C 3098.26 1.6671 -0.894676 0
M  V30 32476 O 3097.6 1.83218 0.132976 0
M  V30 32477 C 3097.66 1.44041 -3.29382 0
M  V30 32478 C 3097.33 0.602611 -4.53009 0
M  V30 32479 C 3098.32 -0.11828 -5.19765 0
M  V30 32480 C 3096.01 0.542666 -4.9936 0
M  V30 32481 C 3098 -0.887885 -6.31186 0
M  V30 32482 C 3095.69 -0.23065 -6.10665 0
M  V30 32483 C 3096.69 -0.944641 -6.76436 0
M  V30 32484 O 3096.38 -1.7053 -7.85605 0
M  V30 32485 H 3096.11 0.190223 -0.648684 0
M  V30 32486 H 3098.66 -0.0734199 -2.05269 0
M  V30 32487 H 3096.89 2.22872 -3.16014 0
M  V30 32488 H 3098.58 2.01771 -3.52198 0
M  V30 32489 H 3099.35 -0.0812456 -4.84932 0
M  V30 32490 H 3095.23 1.08796 -4.47978 0
M  V30 32491 H 3098.77 -1.4457 -6.82455 0
M  V30 32492 H 3094.67 -0.269434 -6.44937 0
M  V30 32493 H 3095.43 -1.62412 -8.02225 0
M  V30 32494 N 3098.1 1.55557 0.252939 0
M  V30 32495 C 3099.35 1.76756 0.979881 0
M  V30 32496 C 3099.67 0.582977 1.86082 0
M  V30 32497 O 3098.94 -0.401463 1.91742 0
M  V30 32498 H 3097.52 0.65187 0.364793 0
M  V30 32499 H 3100.18 1.92988 0.272339 0
M  V30 32500 H 3099.27 2.6766 1.60513 0
M  V30 32501 N 3099.58 -0.518341 1.48832 0
M  V30 32502 C 3100.51 -1.63072 1.67122 0
M  V30 32503 C 3101.49 -1.61958 0.519976 0
M  V30 32504 O 3102.67 -1.78971 0.753855 0
M  V30 32505 C 3099.8 -3.01624 1.72163 0
M  V30 32506 C 3098.76 -3.17601 2.86904 0
M  V30 32507 C 3098.08 -4.5733 2.77043 0
M  V30 32508 C 3099.38 -2.99266 4.28062 0
M  V30 32509 H 3101.08 -1.48021 2.6025 0
M  V30 32510 H 3098.62 -0.710672 1.25242 0
M  V30 32511 H 3100.57 -3.79327 1.83545 0
M  V30 32512 H 3099.3 -3.17725 0.756213 0
M  V30 32513 H 3097.96 -2.42318 2.75095 0
M  V30 32514 H 3097.61 -4.70283 1.78446 0
M  V30 32515 H 3097.31 -4.68963 3.54044 0
M  V30 32516 H 3098.83 -5.37117 2.9041 0
M  V30 32517 H 3100.24 -3.66752 4.40643 0
M  V30 32518 H 3098.64 -3.22384 5.06151 0
M  V30 32519 H 3099.71 -1.95567 4.43714 0
M  V30 32520 N 3101.05 -1.37615 -0.7681 0
M  V30 32521 C 3102.28 -1.36227 -1.55723 0
M  V30 32522 C 3102.7 0.0515025 -1.8873 0
M  V30 32523 O 3102.05 1.01427 -1.5172 0
M  V30 32524 C 3102.1 -2.20417 -2.86529 0
M  V30 32525 O 3101.83 -3.56285 -2.54936 0
M  V30 32526 C 3103.33 -2.27048 -3.80741 0
M  V30 32527 H 3100.55 -0.466489 -0.482317 0
M  V30 32528 H 3103.09 -1.81004 -0.951729 0
M  V30 32529 H 3101.25 -1.7914 -3.43493 0
M  V30 32530 H 3101.66 -4.00457 -3.38725 0
M  V30 32531 H 3103.13 -2.90271 -4.69518 0
M  V30 32532 H 3103.61 -1.27995 -4.20136 0
M  V30 32533 H 3104.22 -2.68653 -3.29705 0
M  V30 32534 N 3102.53 0.994677 -1.22245 0
M  V30 32535 C 3103.46 2.08201 -0.934204 0
M  V30 32536 C 3104.44 1.6214 0.122202 0
M  V30 32537 O 3105.63 1.88498 -0.00899912 0
M  V30 32538 C 3102.75 3.36273 -0.404706 0
M  V30 32539 C 3101.8 4.01257 -1.44552 0
M  V30 32540 S 3102.63 4.42338 -3.01824 0
M  V30 32541 C 3103.79 5.73582 -2.50508 0
M  V30 32542 H 3104.02 2.32332 -1.85497 0
M  V30 32543 H 3101.55 1.12891 -1.05332 0
M  V30 32544 H 3103.51 4.10364 -0.105791 0
M  V30 32545 H 3102.17 3.10176 0.494916 0
M  V30 32546 H 3101.37 4.9347 -1.02486 0
M  V30 32547 H 3100.97 3.33485 -1.69304 0
M  V30 32548 H 3103.26 6.49832 -1.91637 0
M  V30 32549 H 3104.2 6.20472 -3.41204 0
M  V30 32550 H 3104.61 5.30898 -1.91854 0
M  V30 32551 N 3104.01 1.03186 1.19123 0
M  V30 32552 C 3105.24 0.749784 1.92836 0
M  V30 32553 C 3105.65 -0.69182 1.75668 0
M  V30 32554 O 3105.01 -1.47074 1.08053 0
M  V30 32555 C 3105.06 1.09532 3.44507 0
M  V30 32556 O 3104.78 2.48031 3.61126 0
M  V30 32557 C 3106.28 0.836473 4.35337 0
M  V30 32558 H 3103.5 0.274116 0.612455 0
M  V30 32559 H 3106.05 1.37715 1.51178 0
M  V30 32560 H 3104.2 0.513073 3.83987 0
M  V30 32561 H 3104.62 2.60992 4.54955 0
M  V30 32562 H 3106.09 1.12818 5.40348 0
M  V30 32563 H 3106.57 -0.229025 4.38602 0
M  V30 32564 H 3107.17 1.40159 4.01541 0
M  V30 32565 N 3105.49 -1.35184 0.810125 0
M  V30 32566 C 3106.9 -1.8113 0.452648 0
M  V30 32567 C 3107.25 -1.67254 -1.0257 0
M  V30 32568 O 3106.38 -1.20519 -1.79733 0
M  V30 32569 C 3106.97 -3.28855 0.814833 0
M  V30 32570 C 3105.53 -3.7293 0.509905 0
M  V30 32571 C 3104.68 -2.57117 1.03856 0
M  V30 32572 H 3107.63 -1.23112 1.00145 0
M  V30 32573 H 3107.65 -3.8033 0.113702 0
M  V30 32574 H 3107.16 -3.38923 1.89084 0
M  V30 32575 H 3105.26 -3.6841 -0.557224 0
M  V30 32576 H 3105.37 -4.67564 1.04501 0
M  V30 32577 H 3103.74 -2.50499 0.460715 0
M  V30 32578 H 3104.52 -2.69961 2.12076 0
M  V30 32579 N 3106.97 -0.56394 -1.47165 0
M  V30 32580 C 3107.93 0.169583 -2.28572 0
M  V30 32581 C 3108.93 0.836443 -1.37333 0
M  V30 32582 O 3110.12 0.691272 -1.59897 0
M  V30 32583 C 3107.25 1.2488 -3.17203 0
M  V30 32584 H 3108.44 -0.545591 -2.94895 0
M  V30 32585 H 3106 -0.321148 -1.52965 0
M  V30 32586 H 3106.73 1.99616 -2.55585 0
M  V30 32587 H 3106.52 0.775358 -3.84357 0
M  V30 32588 H 3108.01 1.76381 -3.78523 0
M  V30 32589 N 3108.44 1.54704 -0.300735 0
M  V30 32590 C 3109.72 1.92226 0.361723 0
M  V30 32591 C 3110.1 1.22793 1.71712 0
M  V30 32592 O 3109.45 0.363581 2.25589 0
M  V30 32593 C 3109.66 3.4573 0.476638 0
M  V30 32594 C 3111.01 4.17966 0.747627 0
M  V30 32595 O 3112.03 3.51763 0.560459 0
M  V30 32596 O 3110.89 5.35168 1.10715 0
M  V30 32597 H 3107.98 0.801901 0.202199 0
M  V30 32598 H 3110.53 1.66077 -0.348775 0
M  V30 32599 H 3109.3 3.88392 -0.4762 0
M  V30 32600 H 3108.93 3.77913 1.23561 0
M  V30 32601 N 3109.92 0.0284543 1.57574 0
M  V30 32602 C 3110.87 -0.953621 2.10178 0
M  V30 32603 C 3111.84 -1.32345 1.0037 0
M  V30 32604 O 3113.02 -1.41688 1.27785 0
M  V30 32605 C 3110.16 -2.23096 2.63291 0
M  V30 32606 C 3109.28 -1.91764 3.87105 0
M  V30 32607 C 3108.41 -3.13788 4.28615 0
M  V30 32608 C 3107.45 -2.78272 5.45189 0
M  V30 32609 N 3106.59 -3.92919 5.81858 0
M  V30 32610 H 3111.43 -0.498125 2.93807 0
M  V30 32611 H 3108.97 -0.234276 1.45222 0
M  V30 32612 H 3110.92 -2.97808 2.92175 0
M  V30 32613 H 3109.55 -2.66263 1.82494 0
M  V30 32614 H 3108.61 -1.07297 3.64954 0
M  V30 32615 H 3109.92 -1.61606 4.71895 0
M  V30 32616 H 3109.07 -3.9682 4.58932 0
M  V30 32617 H 3107.81 -3.47106 3.42591 0
M  V30 32618 H 3106.82 -1.93652 5.14567 0
M  V30 32619 H 3108.04 -2.46171 6.32911 0
M  V30 32620 H 3105.99 -4.26081 4.9879 0
M  V30 32621 H 3105.9 -3.66383 6.61286 0
M  V30 32622 H 3107.17 -4.76658 6.1678 0
M  V30 32623 N 3111.4 -1.55689 -0.244686 0
M  V30 32624 C 3112.63 -1.82022 -0.994125 0
M  V30 32625 C 3113.05 -0.605802 -1.78078 0
M  V30 32626 O 3112.41 0.44519 -1.75749 0
M  V30 32627 C 3112.46 -3.06115 -1.90594 0
M  V30 32628 O 3111.56 -2.83186 -2.99799 0
M  V30 32629 H 3110.9 -0.600787 -0.282756 0
M  V30 32630 H 3113.43 -2.02877 -0.265004 0
M  V30 32631 H 3113.44 -3.35607 -2.32017 0
M  V30 32632 H 3112.12 -3.94143 -1.32756 0
M  V30 32633 H 3110.69 -2.64867 -2.62488 0
M  V30 32634 N 3112.88 0.510441 -1.49105 0
M  V30 32635 C 3113.84 1.59526 -1.64572 0
M  V30 32636 C 3114.84 1.52229 -0.517964 0
M  V30 32637 O 3116.03 1.5555 -0.78421 0
M  V30 32638 C 3113.16 2.99174 -1.63426 0
M  V30 32639 H 3114.36 1.47145 -2.6132 0
M  V30 32640 H 3111.91 0.733976 -1.37994 0
M  V30 32641 H 3112.64 3.17042 -0.682266 0
M  V30 32642 H 3112.43 3.05879 -2.45317 0
M  V30 32643 H 3113.92 3.78008 -1.77481 0
M  V30 32644 N 3114.36 1.38021 0.760791 0
M  V30 32645 C 3115.58 1.37051 1.54999 0
M  V30 32646 C 3116 -0.041493 1.88754 0
M  V30 32647 O 3115.36 -1.00621 1.52255 0
M  V30 32648 C 3115.41 2.21933 2.85356 0
M  V30 32649 O 3115.13 3.57632 2.53043 0
M  V30 32650 C 3116.63 2.29064 3.79532 0
M  V30 32651 H 3113.85 0.46904 0.479836 0
M  V30 32652 H 3116.39 1.81506 0.942116 0
M  V30 32653 H 3114.55 1.80959 3.42538 0
M  V30 32654 H 3114.96 4.02247 3.36597 0
M  V30 32655 H 3116.44 2.92757 4.67972 0
M  V30 32656 H 3116.91 1.30221 4.19451 0
M  V30 32657 H 3117.52 2.70398 3.28276 0
M  V30 32658 N 3115.83 -0.98818 1.22771 0
M  V30 32659 C 3117.08 -1.72839 1.05512 0
M  V30 32660 C 3117.41 -1.90149 -0.409111 0
M  V30 32661 O 3116.66 -1.44529 -1.31947 0
M  V30 32662 C 3116.96 -3.13463 1.71684 0
M  V30 32663 C 3116.63 -3.16055 3.2159 0
M  V30 32664 C 3115.29 -3.1647 3.62492 0
M  V30 32665 C 3117.64 -3.11976 4.17517 0
M  V30 32666 C 3114.97 -3.10512 4.97794 0
M  V30 32667 C 3117.32 -3.07561 5.52801 0
M  V30 32668 C 3115.99 -3.06293 5.93077 0
M  V30 32669 H 3115.26 -0.632464 0.386096 0
M  V30 32670 H 3117.9 -1.15698 1.52598 0
M  V30 32671 H 3116.21 -3.73943 1.16936 0
M  V30 32672 H 3117.91 -3.69489 1.55816 0
M  V30 32673 H 3114.5 -3.16485 2.89024 0
M  V30 32674 H 3118.68 -3.10802 3.86931 0
M  V30 32675 H 3113.94 -3.07879 5.28224 0
M  V30 32676 H 3118.11 -3.03361 6.26853 0
M  V30 32677 H 3115.74 -3.01432 6.97885 0
M  V30 32678 N 3117.31 -1.03816 -1.18575 0
M  V30 32679 C 3118.22 -0.637351 -2.25776 0
M  V30 32680 C 3119.24 0.335218 -1.7074 0
M  V30 32681 O 3120.41 0.190774 -2.00494 0
M  V30 32682 C 3117.48 -0.00393047 -3.467 0
M  V30 32683 C 3116.54 -1.02518 -4.16879 0
M  V30 32684 C 3115.77 -0.421896 -5.3203 0
M  V30 32685 O 3116 0.772599 -5.65143 0
M  V30 32686 O 3114.93 -1.14935 -5.90824 0
M  V30 32687 H 3118.76 -1.53041 -2.62321 0
M  V30 32688 H 3116.34 -0.808892 -1.25608 0
M  V30 32689 H 3118.22 0.348799 -4.19954 0
M  V30 32690 H 3116.9 0.862993 -3.11984 0
M  V30 32691 H 3115.81 -1.42966 -3.45704 0
M  V30 32692 H 3117.14 -1.86279 -4.55589 0
M  V30 32693 N 3118.79 1.34753 -0.817283 0
M  V30 32694 C 3120.02 2.02685 -0.415487 0
M  V30 32695 C 3120.43 1.61564 0.976851 0
M  V30 32696 O 3119.79 0.818349 1.63124 0
M  V30 32697 C 3119.84 3.58004 -0.501549 0
M  V30 32698 O 3119.56 3.97633 -1.839 0
M  V30 32699 C 3121.06 4.432 -0.0939283 0
M  V30 32700 H 3118.28 0.649775 -0.167431 0
M  V30 32701 H 3120.83 1.72148 -1.10387 0
M  V30 32702 H 3118.98 3.87152 0.138698 0
M  V30 32703 H 3119.4 4.92306 -1.80928 0
M  V30 32704 H 3120.87 5.51618 -0.205242 0
M  V30 32705 H 3121.35 4.28536 0.961936 0
M  V30 32706 H 3121.95 4.1937 -0.707751 0
M  V30 32707 N 3120.27 0.571737 1.46864 0
M  V30 32708 C 3121.52 0.0532215 2.0273 0
M  V30 32709 C 3121.85 -1.29904 1.44356 0
M  V30 32710 O 3121.12 -1.84867 0.604521 0
M  V30 32711 C 3121.41 -0.0243198 3.60092 0
M  V30 32712 C 3121.26 1.35606 4.28872 0
M  V30 32713 C 3122.58 -0.730486 4.33995 0
M  V30 32714 H 3119.7 0.0208148 0.736706 0
M  V30 32715 H 3122.34 0.736825 1.75131 0
M  V30 32716 H 3120.49 -0.606497 3.83737 0
M  V30 32717 H 3122.16 1.98256 4.16524 0
M  V30 32718 H 3120.4 1.9268 3.8866 0
M  V30 32719 H 3121.08 1.25438 5.37559 0
M  V30 32720 H 3123.55 -0.236025 4.1543 0
M  V30 32721 H 3122.43 -0.753741 5.437 0
M  V30 32722 H 3122.69 -1.78959 4.0426 0
M  V30 32723 N 3121.75 -1.54542 0.308935 0
M  V30 32724 C 3122.98 -2.04708 -0.300382 0
M  V30 32725 C 3123.39 -1.18584 -1.46913 0
M  V30 32726 O 3122.75 -0.213218 -1.8125 0
M  V30 32727 C 3122.8 -3.53656 -0.748976 0
M  V30 32728 O 3122.52 -4.36507 0.373258 0
M  V30 32729 C 3124.02 -4.19853 -1.42262 0
M  V30 32730 H 3121.24 -0.66793 -0.0641149 0
M  V30 32731 H 3123.78 -1.99468 0.450874 0
M  V30 32732 H 3121.94 -3.59231 -1.45024 0
M  V30 32733 H 3122.35 -5.24495 0.0225674 0
M  V30 32734 H 3123.83 -5.25571 -1.68759 0
M  V30 32735 H 3124.3 -3.70071 -2.36525 0
M  V30 32736 H 3124.91 -4.18376 -0.76433 0
M  V30 32737 N 3123.23 -0.0368104 -1.57557 0
M  V30 32738 C 3124.47 0.635272 -1.93225 0
M  V30 32739 C 3124.83 1.69292 -0.914224 0
M  V30 32740 O 3124.12 1.91477 0.0686637 0
M  V30 32741 C 3124.31 1.28788 -3.33389 0
M  V30 32742 C 3124.14 0.294976 -4.48732 0
M  V30 32743 C 3122.91 -0.107919 -5.05185 0
M  V30 32744 C 3125.11 -0.453839 -5.12294 0
M  V30 32745 N 3123.09 -1.09519 -6.04052 0
M  V30 32746 C 3124.46 -1.29463 -6.06333 0
M  V30 32747 C 3126.52 -0.513709 -4.95243 0
M  V30 32748 C 3125.22 -2.1899 -6.85154 0
M  V30 32749 C 3127.25 -1.39634 -5.74679 0
M  V30 32750 C 3126.61 -2.22489 -6.6834 0
M  V30 32751 H 3122.71 0.204542 -0.754776 0
M  V30 32752 H 3125.29 -0.105785 -1.94412 0
M  V30 32753 H 3123.46 1.99904 -3.33006 0
M  V30 32754 H 3125.2 1.91761 -3.56384 0
M  V30 32755 H 3121.95 0.268108 -4.72841 0
M  V30 32756 H 3122.37 -1.58529 -6.58177 0
M  V30 32757 H 3127.02 0.112625 -4.2265 0
M  V30 32758 H 3124.73 -2.82674 -7.57047 0
M  V30 32759 H 3128.32 -1.44706 -5.63517 0
M  V30 32760 H 3127.2 -2.8968 -7.28735 0
M  V30 32761 N 3124.7 1.55817 0.236426 0
M  V30 32762 C 3125.61 1.94338 1.31415 0
M  V30 32763 C 3126.63 0.845191 1.52094 0
M  V30 32764 O 3127.81 1.14749 1.65513 0
M  V30 32765 C 3124.87 2.23936 2.64676 0
M  V30 32766 C 3123.93 3.47244 2.52429 0
M  V30 32767 C 3123.16 3.75421 3.79335 0
M  V30 32768 O 3123.39 3.05503 4.81689 0
M  V30 32769 O 3122.32 4.68934 3.77339 0
M  V30 32770 H 3126.15 2.86154 1.01734 0
M  V30 32771 H 3123.73 1.42833 0.438059 0
M  V30 32772 H 3125.61 2.44234 3.43406 0
M  V30 32773 H 3124.29 1.35297 2.94068 0
M  V30 32774 H 3123.2 3.32241 1.7195 0
M  V30 32775 H 3124.53 4.36218 2.27979 0
M  V30 32776 N 3126.18 -0.502526 1.49373 0
M  V30 32777 C 3127.13 -1.62509 1.66414 0
M  V30 32778 C 3128.12 -1.60893 0.53009 0
M  V30 32779 O 3129.33 -1.65419 0.709677 0
M  V30 32780 H 3125.7 -0.53868 0.524717 0
M  V30 32781 H 3127.68 -1.45289 2.60641 0
M  V30 32782 C 3126.42 -3.00652 1.74653 0
M  V30 32783 H 3125.75 -3.02601 2.6129 0
M  V30 32784 H 3127.19 -3.78739 1.90612 0
M  V30 32785 C 3125.65 -3.33303 0.491022 0
M  V30 32786 O 3126.18 -3.99861 -0.383968 0
M  V30 32787 N 3124.38 -2.88431 0.354426 0
M  V30 32788 H 3123.93 -2.34442 1.06746 0
M  V30 32789 H 3123.89 -3.10644 -0.484539 0
M  V30 32790 N 3127.66 -1.38422 -0.75346 0
M  V30 32791 C 3128.91 -1.34836 -1.51483 0
M  V30 32792 C 3129.24 0.0615039 -1.94103 0
M  V30 32793 O 3128.51 1.02271 -1.65441 0
M  V30 32794 C 3128.8 -2.30416 -2.76732 0
M  V30 32795 C 3128.65 -3.80263 -2.40249 0
M  V30 32796 C 3129.97 -2.24125 -3.78756 0
M  V30 32797 H 3127.09 -0.491112 -0.549526 0
M  V30 32798 H 3129.73 -1.69271 -0.862977 0
M  V30 32799 H 3127.88 -2.01181 -3.32353 0
M  V30 32800 H 3129.55 -4.20172 -1.90402 0
M  V30 32801 H 3127.79 -3.97938 -1.72707 0
M  V30 32802 H 3128.47 -4.42601 -3.29861 0
M  V30 32803 H 3130.94 -2.49934 -3.32674 0
M  V30 32804 H 3129.82 -2.93112 -4.64087 0
M  V30 32805 H 3130.08 -1.24013 -4.2435 0
M  V30 32806 N 3129.14 0.981655 -1.23294 0
M  V30 32807 C 3130.37 1.75803 -1.09091 0
M  V30 32808 C 3130.78 1.8538 0.357714 0
M  V30 32809 O 3130.14 1.33207 1.24748 0
M  V30 32810 C 3130.19 3.18557 -1.7089 0
M  V30 32811 O 3129.91 3.09479 -3.10088 0
M  V30 32812 C 3131.41 4.12595 -1.62113 0
M  V30 32813 H 3128.63 0.551754 -0.381849 0
M  V30 32814 H 3131.17 1.23339 -1.63118 0
M  V30 32815 H 3129.33 3.68052 -1.20899 0
M  V30 32816 H 3129.74 3.99336 -3.40046 0
M  V30 32817 H 3131.22 5.1047 -2.10058 0
M  V30 32818 H 3131.69 4.35357 -0.579719 0
M  V30 32819 H 3132.3 3.69003 -2.11464 0
M  V30 32820 N 3130.62 1.04444 1.18022 0
M  V30 32821 C 3131.86 0.750055 1.88097 0
M  V30 32822 C 3132.19 -0.722457 1.80585 0
M  V30 32823 O 3131.45 -1.54333 1.20332 0
M  V30 32824 C 3131.74 1.16637 3.37832 0
M  V30 32825 C 3131.41 2.6398 3.65548 0
M  V30 32826 C 3130.07 3.04232 3.72822 0
M  V30 32827 C 3132.42 3.59231 3.77628 0
M  V30 32828 C 3129.75 4.38615 3.89658 0
M  V30 32829 C 3132.1 4.93337 3.95981 0
M  V30 32830 C 3130.77 5.33255 4.01492 0
M  V30 32831 H 3130.04 0.274465 0.688295 0
M  V30 32832 H 3132.69 1.31015 1.39669 0
M  V30 32833 H 3130.99 0.525139 3.88265 0
M  V30 32834 H 3132.69 0.915896 3.904 0
M  V30 32835 H 3129.28 2.31805 3.60506 0
M  V30 32836 H 3133.46 3.29276 3.71336 0
M  V30 32837 H 3128.72 4.69055 3.9217 0
M  V30 32838 H 3132.89 5.67044 4.0427 0
M  V30 32839 H 3130.52 6.37391 4.1429 0
M  V30 32840 N 3132.09 -1.34317 0.824418 0
M  V30 32841 C 3133.02 -2.32024 0.262118 0
M  V30 32842 C 3134 -1.5831 -0.622249 0
M  V30 32843 O 3135.19 -1.86284 -0.548815 0
M  V30 32844 C 3132.32 -3.42497 -0.575609 0
M  V30 32845 C 3131.27 -4.27476 0.211745 0
M  V30 32846 C 3130.6 -5.29431 -0.74882 0
M  V30 32847 C 3131.9 -5.02605 1.42077 0
M  V30 32848 H 3133.59 -2.79302 1.07847 0
M  V30 32849 H 3131.14 -1.34282 0.520046 0
M  V30 32850 H 3133.09 -4.09866 -0.979179 0
M  V30 32851 H 3131.82 -2.93872 -1.42503 0
M  V30 32852 H 3130.48 -3.61711 0.5967 0
M  V30 32853 H 3130.12 -4.77067 -1.59423 0
M  V30 32854 H 3129.82 -5.87164 -0.22621 0
M  V30 32855 H 3131.35 -5.99669 -1.15021 0
M  V30 32856 H 3132.76 -5.62821 1.09113 0
M  V30 32857 H 3131.16 -5.6992 1.87913 0
M  V30 32858 H 3132.23 -4.32213 2.19818 0
M  V30 32859 N 3133.57 -0.579517 -1.46558 0
M  V30 32860 C 3134.52 0.155558 -2.30275 0
M  V30 32861 C 3135.49 0.887151 -1.40424 0
M  V30 32862 O 3136.67 0.878451 -1.69375 0
M  V30 32863 C 3133.81 1.16533 -3.24829 0
M  V30 32864 C 3132.93 0.437514 -4.29779 0
M  V30 32865 C 3132.06 1.43453 -5.11463 0
M  V30 32866 C 3131.1 0.692941 -6.08165 0
M  V30 32867 N 3130.24 1.63787 -6.82729 0
M  V30 32868 H 3135.08 -0.564408 -2.92606 0
M  V30 32869 H 3132.61 -0.290151 -1.4421 0
M  V30 32870 H 3134.57 1.76361 -3.78091 0
M  V30 32871 H 3133.2 1.85305 -2.64314 0
M  V30 32872 H 3132.25 -0.275737 -3.79399 0
M  V30 32873 H 3133.57 -0.142386 -4.98597 0
M  V30 32874 H 3132.72 2.1057 -5.68986 0
M  V30 32875 H 3131.46 2.04836 -4.42598 0
M  V30 32876 H 3130.46 0.00797429 -5.49799 0
M  V30 32877 H 3131.69 0.0845485 -6.79047 0
M  V30 32878 H 3129.64 2.23986 -6.16576 0
M  V30 32879 H 3129.55 1.11069 -7.47797 0
M  V30 32880 H 3130.82 2.29949 -7.44811 0
M  V30 32881 N 3135.05 1.54376 -0.317127 0
M  V30 32882 C 3136.47 1.5956 0.035738 0
M  V30 32883 C 3136.67 1.33381 1.51036 0
M  V30 32884 O 3135.72 1.11509 2.26544 0
M  V30 32885 C 3137.04 2.98331 -0.376705 0
M  V30 32886 C 3138.58 3.11289 -0.32682 0
M  V30 32887 C 3139.06 4.52395 -0.714327 0
M  V30 32888 N 3140.55 4.58365 -0.667483 0
M  V30 32889 C 3141.28 5.65649 -0.939594 0
M  V30 32890 N 3140.78 6.80901 -1.27851 0
M  V30 32891 N 3142.57 5.55395 -0.865582 0
M  V30 32892 H 3134.72 1.69651 -1.27797 0
M  V30 32893 H 3136.99 0.793171 -0.519214 0
M  V30 32894 H 3136.69 3.22466 -1.40386 0
M  V30 32895 H 3136.57 3.76292 0.261544 0
M  V30 32896 H 3138.95 2.86893 0.69112 0
M  V30 32897 H 3139.04 2.35447 -0.999915 0
M  V30 32898 H 3138.68 4.77523 -1.73015 0
M  V30 32899 H 3138.61 5.26597 -0.0189888 0
M  V30 32900 H 3141.1 3.75591 -0.417128 0
M  V30 32901 H 3141.41 7.58658 -1.47169 0
M  V30 32902 H 3139.76 6.82413 -1.3167 0
M  V30 32903 H 3142.95 4.64234 -0.600346 0
M  V30 32904 H 3143.12 6.3892 -1.08101 0
M  V30 32905 N 3136.53 0.0451655 1.57535 0
M  V30 32906 C 3137.78 -0.629953 1.92452 0
M  V30 32907 C 3138.1 -1.71204 0.92301 0
M  V30 32908 O 3137.36 -1.9559 -0.0656282 0
M  V30 32909 C 3137.66 -1.27019 3.34067 0
M  V30 32910 C 3137.32 -0.316891 4.49785 0
M  V30 32911 C 3135.99 -0.0545561 4.81169 0
M  V30 32912 C 3138.34 0.336785 5.20111 0
M  V30 32913 C 3135.67 0.868992 5.80229 0
M  V30 32914 C 3138.02 1.24849 6.20158 0
M  V30 32915 C 3136.68 1.51955 6.49974 0
M  V30 32916 H 3135.95 -0.230516 0.704232 0
M  V30 32917 H 3138.6 0.110362 1.91182 0
M  V30 32918 H 3136.9 -2.08563 3.31676 0
M  V30 32919 H 3138.6 -1.79939 3.58362 0
M  V30 32920 H 3135.19 -0.53154 4.25291 0
M  V30 32921 H 3139.37 0.147192 4.96082 0
M  V30 32922 H 3134.63 1.08654 6.01668 0
M  V30 32923 H 3138.8 1.7611 6.73764 0
M  V30 32924 H 3136.43 2.23683 7.26547 0
M  V30 32925 N 3138.01 -1.5594 -0.228159 0
M  V30 32926 C 3139.25 -1.78646 -0.95352 0
M  V30 32927 C 3139.58 -0.612783 -1.84595 0
M  V30 32928 O 3138.84 0.403141 -1.91503 0
M  V30 32929 C 3139.14 -3.07043 -1.82918 0
M  V30 32930 C 3138.8 -4.37513 -1.09054 0
M  V30 32931 C 3137.46 -4.72964 -0.886482 0
M  V30 32932 C 3139.82 -5.18091 -0.568442 0
M  V30 32933 C 3137.14 -5.86513 -0.14831 0
M  V30 32934 C 3139.5 -6.32407 0.156354 0
M  V30 32935 C 3138.16 -6.66464 0.371729 0
M  V30 32936 H 3137.43 -0.65371 -0.348918 0
M  V30 32937 H 3140.08 -1.90207 -0.222177 0
M  V30 32938 H 3138.38 -2.90575 -2.62818 0
M  V30 32939 H 3140.08 -3.21812 -2.39244 0
M  V30 32940 H 3136.67 -4.09674 -1.25956 0
M  V30 32941 H 3140.85 -4.91143 -0.713587 0
M  V30 32942 H 3136.11 -6.11393 0.0288493 0
M  V30 32943 H 3140.28 -6.94076 0.568455 0
M  V30 32944 H 3137.91 -7.54295 0.945655 0
M  V30 32945 N 3139.48 0.494597 -1.49638 0
M  V30 32946 C 3140.9 0.826337 -1.36542 0
M  V30 32947 C 3141.1 1.9742 -0.403421 0
M  V30 32948 O 3140.16 2.51976 0.16257 0
M  V30 32949 C 3141.47 1.16052 -2.77403 0
M  V30 32950 C 3143.02 1.26835 -2.8615 0
M  V30 32951 C 3143.49 1.63579 -4.27792 0
M  V30 32952 N 3144.98 1.70616 -4.30633 0
M  V30 32953 C 3145.72 2.00504 -5.37202 0
M  V30 32954 N 3145.21 2.28573 -6.54008 0
M  V30 32955 N 3147.01 2.01809 -5.24623 0
M  V30 32956 H 3139.16 -0.262227 -2.10775 0
M  V30 32957 H 3141.42 -0.0547401 -0.946418 0
M  V30 32958 H 3141.13 0.390373 -3.49527 0
M  V30 32959 H 3141 2.10243 -3.13173 0
M  V30 32960 H 3143.39 2.02921 -2.1426 0
M  V30 32961 H 3143.47 0.306795 -2.53954 0
M  V30 32962 H 3143.11 0.880419 -5.00211 0
M  V30 32963 H 3143.04 2.60846 -4.57457 0
M  V30 32964 H 3145.53 1.51059 -3.46395 0
M  V30 32965 H 3145.85 2.50585 -7.31045 0
M  V30 32966 H 3144.19 2.26015 -6.57223 0
M  V30 32967 H 3147.38 1.79362 -4.32374 0
M  V30 32968 H 3147.56 2.24768 -6.07769 0
M  V30 32969 N 3140.96 1.3882 0.746109 0
M  V30 32970 C 3141.93 1.36441 1.84165 0
M  V30 32971 C 3142.93 0.263527 1.58626 0
M  V30 32972 O 3144.12 0.52083 1.66232 0
M  V30 32973 C 3141.25 1.12601 3.21767 0
M  V30 32974 H 3142.44 2.33915 1.8768 0
M  V30 32975 H 3139.99 1.24222 0.948603 0
M  V30 32976 H 3140.73 0.157637 3.23917 0
M  V30 32977 H 3140.51 1.92313 3.41699 0
M  V30 32978 H 3142 1.1365 4.01838 0
M  V30 32979 N 3142.44 -0.975103 1.23812 0
M  V30 32980 C 3143.72 -1.6919 0.98153 0
M  V30 32981 C 3144.1 -2.05134 -0.498337 0
M  V30 32982 O 3143.45 -1.74867 -1.47084 0
M  V30 32983 C 3143.66 -2.92938 1.89706 0
M  V30 32984 C 3145 -3.65338 2.16363 0
M  V30 32985 O 3146.03 -3.02981 1.87299 0
M  V30 32986 O 3144.89 -4.77572 2.65683 0
M  V30 32987 H 3141.98 -0.739308 0.370612 0
M  V30 32988 H 3144.53 -1.02985 1.34878 0
M  V30 32989 H 3143.3 -2.63013 2.89723 0
M  V30 32990 H 3142.92 -3.66879 1.53251 0
M  V30 32991 N 3143.92 -1.05068 -1.17467 0
M  V30 32992 C 3144.83 -0.661262 -2.25088 0
M  V30 32993 C 3145.84 0.31709 -1.71086 0
M  V30 32994 O 3147.02 0.169498 -2.00685 0
M  V30 32995 C 3144.09 -0.0407024 -3.46676 0
M  V30 32996 C 3143.15 -1.06934 -4.15769 0
M  V30 32997 C 3142.38 -0.478301 -5.31552 0
M  V30 32998 O 3142.6 0.712615 -5.65931 0
M  V30 32999 O 3141.54 -1.21195 -5.89572 0
M  V30 33000 H 3145.36 -1.55815 -2.60683 0
M  V30 33001 H 3142.95 -0.822169 -1.24743 0
M  V30 33002 H 3144.83 0.304238 -4.203 0
M  V30 33003 H 3143.5 0.829854 -3.12882 0
M  V30 33004 H 3142.41 -1.46625 -3.44168 0
M  V30 33005 H 3143.74 -1.911 -4.53587 0
M  V30 33006 N 3145.4 1.33878 -0.831529 0
M  V30 33007 C 3146.34 2.29359 -0.257489 0
M  V30 33008 C 3147.31 1.53991 0.622577 0
M  V30 33009 O 3148.5 1.82323 0.5624 0
M  V30 33010 C 3145.64 3.40401 0.567527 0
M  V30 33011 C 3144.75 4.30693 -0.335742 0
M  V30 33012 C 3143.89 5.28845 0.499669 0
M  V30 33013 C 3142.93 6.10776 -0.40245 0
M  V30 33014 N 3142.06 7.00991 0.394397 0
M  V30 33015 H 3146.9 2.77855 -1.07705 0
M  V30 33016 H 3144.44 1.36726 -0.542613 0
M  V30 33017 H 3146.4 4.03476 1.06126 0
M  V30 33018 H 3145.03 2.93117 1.35212 0
M  V30 33019 H 3144.08 3.68405 -0.947745 0
M  V30 33020 H 3145.39 4.8807 -1.02905 0
M  V30 33021 H 3144.55 5.97412 1.05753 0
M  V30 33022 H 3143.28 4.72027 1.22644 0
M  V30 33023 H 3142.29 5.41133 -0.972383 0
M  V30 33024 H 3143.51 6.69675 -1.12747 0
M  V30 33025 H 3141.46 6.46632 1.10469 0
M  V30 33026 H 3141.38 7.55618 -0.240341 0
M  V30 33027 H 3142.65 7.73875 0.934731 0
M  V30 33028 N 3146.87 0.587281 1.46249 0
M  V30 33029 C 3148.1 0.0802498 2.06444 0
M  V30 33030 C 3148.51 -1.23205 1.43587 0
M  V30 33031 O 3147.86 -1.75676 0.536987 0
M  V30 33032 C 3147.92 -0.155066 3.59165 0
M  V30 33033 C 3147.58 1.07233 4.44241 0
M  V30 33034 C 3148.58 1.98551 4.80493 0
M  V30 33035 C 3146.26 1.29546 4.85307 0
M  V30 33036 C 3148.26 3.10526 5.56644 0
M  V30 33037 C 3145.94 2.41825 5.61216 0
M  V30 33038 C 3146.94 3.32144 5.96799 0
M  V30 33039 O 3146.63 4.42473 6.71173 0
M  V30 33040 H 3146.36 0.0566181 0.673625 0
M  V30 33041 H 3148.92 0.809037 1.88796 0
M  V30 33042 H 3147.15 -0.938517 3.75138 0
M  V30 33043 H 3148.84 -0.611173 4.01272 0
M  V30 33044 H 3149.6 1.82529 4.49342 0
M  V30 33045 H 3145.48 0.601512 4.57059 0
M  V30 33046 H 3149.02 3.81048 5.84336 0
M  V30 33047 H 3144.92 2.57807 5.91782 0
M  V30 33048 H 3145.69 4.40898 6.89602 0
M  V30 33049 N 3148.35 -1.54206 0.325309 0
M  V30 33050 C 3149.76 -1.85992 -0.162393 0
M  V30 33051 C 3150.11 -1.24693 -1.5148 0
M  V30 33052 O 3149.24 -0.553615 -2.09199 0
M  V30 33053 C 3149.83 -3.37456 -0.301441 0
M  V30 33054 C 3148.39 -3.69187 -0.733365 0
M  V30 33055 C 3147.54 -2.76926 0.14388 0
M  V30 33056 H 3150.49 -1.49029 0.545534 0
M  V30 33057 H 3150.51 -3.6327 -1.13205 0
M  V30 33058 H 3150.02 -3.82043 0.683009 0
M  V30 33059 H 3148.13 -3.30134 -1.7275 0
M  V30 33060 H 3148.24 -4.76093 -0.535903 0
M  V30 33061 H 3146.6 -2.51837 -0.380848 0
M  V30 33062 H 3147.39 -3.24339 1.12513 0
M  V30 33063 N 3149.83 -0.0535194 -1.57509 0
M  V30 33064 C 3151.08 0.619738 -1.92784 0
M  V30 33065 C 3151.41 1.70712 -0.932076 0
M  V30 33066 O 3150.66 1.95622 0.0552547 0
M  V30 33067 C 3150.96 1.25245 -3.34736 0
M  V30 33068 C 3150.63 0.293034 -4.49947 0
M  V30 33069 C 3149.29 0.0290377 -4.81191 0
M  V30 33070 C 3151.64 -0.364363 -5.19925 0
M  V30 33071 C 3148.97 -0.899751 -5.7976 0
M  V30 33072 C 3151.32 -1.28136 -6.19487 0
M  V30 33073 C 3149.98 -1.554 -6.49159 0
M  V30 33074 H 3149.25 0.226778 -0.705445 0
M  V30 33075 H 3151.9 -0.120499 -1.91121 0
M  V30 33076 H 3150.21 2.06801 -3.32777 0
M  V30 33077 H 3151.9 1.78036 -3.59311 0
M  V30 33078 H 3148.49 0.508978 -4.25567 0
M  V30 33079 H 3152.68 -0.173499 -4.95997 0
M  V30 33080 H 3147.93 -1.11843 -6.01083 0
M  V30 33081 H 3152.11 -1.79681 -6.72821 0
M  V30 33082 H 3149.73 -2.27533 -7.2535 0
M  V30 33083 N 3151.31 1.56059 0.219886 0
M  V30 33084 C 3152.24 1.95572 1.27568 0
M  V30 33085 C 3153.22 0.824174 1.488 0
M  V30 33086 O 3154.41 1.08661 1.60955 0
M  V30 33087 C 3151.54 2.27386 2.62513 0
M  V30 33088 C 3150.49 3.43047 2.55935 0
M  V30 33089 C 3149.82 3.6047 3.94925 0
M  V30 33090 C 3151.12 4.7797 2.10576 0
M  V30 33091 H 3152.81 2.84014 0.947432 0
M  V30 33092 H 3150.36 1.36646 0.454313 0
M  V30 33093 H 3152.31 2.5362 3.36533 0
M  V30 33094 H 3151.03 1.35799 2.97029 0
M  V30 33095 H 3149.69 3.16864 1.84372 0
M  V30 33096 H 3149.34 2.66256 4.26751 0
M  V30 33097 H 3149.04 4.38265 3.91405 0
M  V30 33098 H 3150.56 3.89055 4.70605 0
M  V30 33099 H 3151.98 5.03399 2.7434 0
M  V30 33100 H 3150.37 5.59059 2.18112 0
M  V30 33101 H 3151.44 4.73215 1.05809 0
M  V30 33102 N 3152.79 -0.486655 1.49898 0
M  V30 33103 C 3154.03 -1.24167 1.60344 0
M  V30 33104 C 3154.37 -1.91935 0.295727 0
M  V30 33105 O 3153.64 -1.81399 -0.701756 0
M  V30 33106 C 3153.92 -2.2975 2.77285 0
M  V30 33107 C 3153.78 -1.6639 4.17893 0
M  V30 33108 C 3155.1 -3.31196 2.89823 0
M  V30 33109 H 3152.22 -0.450073 0.583612 0
M  V30 33110 H 3154.86 -0.537702 1.82233 0
M  V30 33111 H 3153.01 -2.89792 2.58753 0
M  V30 33112 H 3154.68 -1.10065 4.47977 0
M  V30 33113 H 3152.92 -0.967505 4.22873 0
M  V30 33114 H 3153.59 -2.4304 4.95616 0
M  V30 33115 H 3156.07 -2.81161 3.06737 0
M  V30 33116 H 3154.95 -4.02418 3.73297 0
M  V30 33117 H 3155.21 -3.94387 1.99777 0
M  V30 33118 N 3154.27 -1.39214 -0.738737 0
M  V30 33119 C 3155.22 -1.34128 -1.84374 0
M  V30 33120 C 3156.2 -0.222821 -1.5935 0
M  V30 33121 O 3157.39 -0.460044 -1.70917 0
M  V30 33122 C 3154.52 -1.18339 -3.22259 0
M  V30 33123 C 3153.61 -2.3487 -3.53124 0
M  V30 33124 N 3154 -3.60339 -3.5495 0
M  V30 33125 C 3152.3 -2.27746 -3.83468 0
M  V30 33126 C 3153 -4.37377 -3.83505 0
M  V30 33127 N 3151.97 -3.66916 -4.0109 0
M  V30 33128 H 3155.77 -2.29107 -1.84085 0
M  V30 33129 H 3153.29 -1.32657 -0.936802 0
M  V30 33130 H 3155.29 -1.12779 -4.01356 0
M  V30 33131 H 3153.95 -0.243073 -3.23789 0
M  V30 33132 H 3154.96 -3.93812 -3.36352 0
M  V30 33133 H 3151.63 -1.41955 -3.92626 0
M  V30 33134 H 3153.02 -5.46116 -3.91417 0
M  V30 33135 N 3155.74 0.968523 -1.24328 0
M  V30 33136 C 3157.15 1.52601 -1.07564 0
M  V30 33137 C 3157.51 1.92994 0.353211 0
M  V30 33138 O 3156.63 1.77246 1.24148 0
M  V30 33139 C 3157.23 2.77311 -1.94639 0
M  V30 33140 C 3155.78 3.29418 -1.82101 0
M  V30 33141 C 3154.93 2.02332 -1.89624 0
M  V30 33142 H 3157.88 0.786908 -1.37817 0
M  V30 33143 H 3157.9 3.50614 -1.47819 0
M  V30 33144 H 3157.42 2.4788 -2.98625 0
M  V30 33145 H 3155.52 3.63702 -0.80944 0
M  V30 33146 H 3155.63 3.98373 -2.66149 0
M  V30 33147 H 3153.99 2.17006 -1.33343 0
M  V30 33148 H 3154.78 1.75267 -2.95188 0
M  V30 33149 N 3157.22 1.0569 1.16908 0
M  V30 33150 C 3158.47 0.771104 1.87568 0
M  V30 33151 C 3158.8 -0.700367 1.81131 0
M  V30 33152 O 3158.08 -1.51257 1.22276 0
M  V30 33153 C 3158.36 1.25857 3.3739 0
M  V30 33154 C 3158.21 2.79335 3.52551 0
M  V30 33155 C 3159.53 0.861588 4.31584 0
M  V30 33156 H 3156.65 0.281591 0.681084 0
M  V30 33157 H 3159.29 1.31176 1.37451 0
M  V30 33158 H 3157.44 0.798629 3.80203 0
M  V30 33159 H 3159.11 3.33491 3.18719 0
M  V30 33160 H 3157.36 3.18365 2.94663 0
M  V30 33161 H 3158.03 3.08506 4.57742 0
M  V30 33162 H 3160.5 1.25763 3.9664 0
M  V30 33163 H 3159.38 1.23021 5.34936 0
M  V30 33164 H 3159.64 -0.234011 4.4148 0
M  V30 33165 N 3158.7 -1.33435 0.838617 0
M  V30 33166 C 3159.63 -2.27169 0.216691 0
M  V30 33167 C 3160.61 -1.49644 -0.636039 0
M  V30 33168 O 3161.79 -1.78818 -0.596357 0
M  V30 33169 C 3158.92 -3.31476 -0.695782 0
M  V30 33170 C 3157.97 -4.26422 0.0814557 0
M  V30 33171 S 3158.8 -5.15798 1.43918 0
M  V30 33172 C 3159.96 -6.23635 0.531997 0
M  V30 33173 H 3160.19 -2.7957 1.01133 0
M  V30 33174 H 3157.72 -1.40722 0.635357 0
M  V30 33175 H 3159.68 -3.92056 -1.21664 0
M  V30 33176 H 3158.34 -2.77891 -1.46408 0
M  V30 33177 H 3157.53 -5.0026 -0.612857 0
M  V30 33178 H 3157.14 -3.70177 0.533369 0
M  V30 33179 H 3159.43 -6.76961 -0.270252 0
M  V30 33180 H 3160.37 -6.97149 1.24053 0
M  V30 33181 H 3160.78 -5.64386 0.113456 0
M  V30 33182 N 3160.18 -0.595029 -1.45935 0
M  V30 33183 C 3161.59 -0.171812 -1.85908 0
M  V30 33184 C 3161.94 1.26822 -1.49702 0
M  V30 33185 O 3161.06 1.95977 -0.917722 0
M  V30 33186 C 3161.66 -0.305035 -3.37424 0
M  V30 33187 C 3160.22 0.0633973 -3.76347 0
M  V30 33188 C 3159.37 -0.635303 -2.69924 0
M  V30 33189 H 3162.32 -0.802495 -1.36915 0
M  V30 33190 H 3162.34 0.466246 -3.77633 0
M  V30 33191 H 3161.85 -1.3532 -3.63744 0
M  V30 33192 H 3159.95 1.11123 -3.55644 0
M  V30 33193 H 3160.06 -0.321503 -4.7802 0
M  V30 33194 H 3158.43 -0.0742502 -2.54592 0
M  V30 33195 H 3159.21 -1.68536 -2.99083 0
M  V30 33196 N 3161.66 1.54031 -0.333483 0
M  V30 33197 C 3162.59 2.20948 0.570737 0
M  V30 33198 C 3163.57 1.18996 1.10809 0
M  V30 33199 O 3164.75 1.47775 1.17024 0
M  V30 33200 C 3161.88 2.87899 1.78415 0
M  V30 33201 C 3160.92 4.03654 1.37715 0
M  V30 33202 S 3161.76 5.33963 0.405454 0
M  V30 33203 C 3162.91 6.04413 1.62592 0
M  V30 33204 H 3163.15 2.973 0.00234134 0
M  V30 33205 H 3160.68 1.53952 -0.117558 0
M  V30 33206 H 3162.64 3.27093 2.48033 0
M  V30 33207 H 3161.3 2.11332 2.32374 0
M  V30 33208 H 3160.49 4.49399 2.28159 0
M  V30 33209 H 3160.09 3.66185 0.760563 0
M  V30 33210 H 3162.38 6.27194 2.56191 0
M  V30 33211 H 3163.33 6.97677 1.21045 0
M  V30 33212 H 3163.74 5.34444 1.8174 0
M  V30 33213 N 3163.13 0.0618717 1.57479 0
M  V30 33214 C 3164.08 -0.908825 2.12153 0
M  V30 33215 C 3165.05 -1.30186 1.03154 0
M  V30 33216 O 3166.24 -1.38946 1.30762 0
M  V30 33217 C 3163.38 -2.17461 2.67964 0
M  V30 33218 C 3162.49 -1.8351 3.91086 0
M  V30 33219 C 3161.62 -3.04625 4.35174 0
M  V30 33220 C 3160.66 -2.66645 5.50969 0
M  V30 33221 N 3159.8 -3.80489 5.90062 0
M  V30 33222 H 3164.64 -0.435692 2.94798 0
M  V30 33223 H 3162.18 -0.20342 1.45687 0
M  V30 33224 H 3164.13 -2.91543 2.98427 0
M  V30 33225 H 3162.76 -2.62332 1.881 0
M  V30 33226 H 3161.82 -0.995316 3.67148 0
M  V30 33227 H 3163.13 -1.5156 4.75217 0
M  V30 33228 H 3162.28 -3.86997 4.67246 0
M  V30 33229 H 3161.02 -3.39761 3.49877 0
M  V30 33230 H 3160.03 -1.82693 5.18559 0
M  V30 33231 H 3161.25 -2.3269 6.37991 0
M  V30 33232 H 3159.2 -4.15405 5.07715 0
M  V30 33233 H 3159.11 -3.52274 6.68909 0
M  V30 33234 H 3160.38 -4.63468 6.26752 0
M  V30 33235 N 3164.61 -1.56173 -0.211607 0
M  V30 33236 C 3165.52 -1.96404 -1.28306 0
M  V30 33237 C 3166.54 -0.869281 -1.5073 0
M  V30 33238 O 3167.71 -1.17368 -1.63666 0
M  V30 33239 C 3164.78 -2.28119 -2.6108 0
M  V30 33240 C 3163.84 -3.51216 -2.46872 0
M  V30 33241 C 3163.07 -3.81408 -3.73314 0
M  V30 33242 O 3163.3 -3.13128 -4.76767 0
M  V30 33243 O 3162.23 -4.74878 -3.69831 0
M  V30 33244 H 3166.06 -2.87736 -0.971683 0
M  V30 33245 H 3163.64 -1.43512 -0.41528 0
M  V30 33246 H 3165.52 -2.49667 -3.39477 0
M  V30 33247 H 3164.2 -1.39959 -2.91879 0
M  V30 33248 H 3163.11 -3.34935 -1.66642 0
M  V30 33249 H 3164.44 -4.3979 -2.21011 0
M  V30 33250 N 3166.09 0.478699 -1.50154 0
M  V30 33251 C 3167.34 1.22806 -1.60005 0
M  V30 33252 C 3167.65 1.9325 -0.302311 0
M  V30 33253 O 3168.86 2.70056 -0.279631 0
M  V30 33254 C 3167.31 2.23103 -2.82406 0
M  V30 33255 C 3166.92 1.58497 -4.19026 0
M  V30 33256 C 3168.67 2.98729 -3.01598 0
M  V30 33257 C 3166.57 2.57035 -5.32622 0
M  V30 33258 H 3165.5 0.462063 -0.59583 0
M  V30 33259 H 3168.15 0.499381 -1.76574 0
M  V30 33260 H 3166.54 2.9923 -2.59379 0
M  V30 33261 H 3167.71 0.882108 -4.52278 0
M  V30 33262 H 3166.03 0.951806 -4.05376 0
M  V30 33263 H 3168.62 3.72461 -3.83637 0
M  V30 33264 H 3168.97 3.57667 -2.13026 0
M  V30 33265 H 3169.5 2.29715 -3.2477 0
M  V30 33266 H 3166.24 2.02847 -6.23324 0
M  V30 33267 H 3165.76 3.25496 -5.03798 0
M  V30 33268 H 3167.44 3.19018 -5.62882 0
M  V30 33269 N 3167.57 1.39603 0.731343 0
M  V30 33270 C 3168.52 1.35104 1.8366 0
M  V30 33271 C 3169.5 0.231269 1.59229 0
M  V30 33272 O 3170.69 0.469102 1.70671 0
M  V30 33273 C 3167.82 1.20047 3.21627 0
M  V30 33274 C 3166.91 2.36739 3.51874 0
M  V30 33275 N 3167.3 3.62216 3.53034 0
M  V30 33276 C 3165.6 2.29777 3.82255 0
M  V30 33277 C 3166.3 4.39405 3.8118 0
M  V30 33278 N 3165.28 3.69038 3.99139 0
M  V30 33279 H 3169.08 2.3008 1.82867 0
M  V30 33280 H 3166.59 1.33152 0.929754 0
M  V30 33281 H 3168.59 1.14906 4.00752 0
M  V30 33282 H 3167.25 0.260241 3.23655 0
M  V30 33283 H 3168.26 3.9559 3.34259 0
M  V30 33284 H 3164.94 1.44036 3.91867 0
M  V30 33285 H 3166.33 5.48184 3.88515 0
M  V30 33286 N 3169.05 -0.961916 1.2484 0
M  V30 33287 C 3169.96 -2.09131 1.06308 0
M  V30 33288 C 3170.97 -1.74 0.00224534 0
M  V30 33289 O 3172.15 -2.00388 0.201646 0
M  V30 33290 C 3169.21 -3.40042 0.676177 0
M  V30 33291 C 3168.27 -3.89086 1.81414 0
M  V30 33292 C 3167.51 -5.13749 1.4456 0
M  V30 33293 O 3167.73 -5.69398 0.337994 0
M  V30 33294 O 3166.66 -5.57321 2.27326 0
M  V30 33295 H 3170.49 -2.27663 2.01005 0
M  V30 33296 H 3168.08 -1.07537 1.03712 0
M  V30 33297 H 3169.96 -4.18746 0.472198 0
M  V30 33298 H 3168.63 -3.22797 -0.24161 0
M  V30 33299 H 3167.54 -3.11418 2.07292 0
M  V30 33300 H 3168.87 -4.10817 2.71091 0
M  V30 33301 N 3170.52 -1.06308 -1.16346 0
M  V30 33302 C 3171.75 -0.80067 -1.91322 0
M  V30 33303 C 3172.17 0.639074 -1.76911 0
M  V30 33304 O 3171.53 1.44533 -1.09452 0
M  V30 33305 C 3171.58 -1.20033 -3.40036 0
M  V30 33306 O 3170.68 -0.339214 -4.11003 0
M  V30 33307 H 3170.03 -0.292606 -0.596052 0
M  V30 33308 H 3172.56 -1.41892 -1.47404 0
M  V30 33309 H 3172.57 -1.17195 -3.90806 0
M  V30 33310 H 3171.24 -2.24904 -3.49844 0
M  V30 33311 H 3169.82 -0.429175 -3.70422 0
M  V30 33312 N 3172 1.32989 -0.845682 0
M  V30 33313 C 3173.25 1.96821 -0.440963 0
M  V30 33314 C 3173.56 1.67708 1.00665 0
M  V30 33315 O 3174.77 2.25207 1.51637 0
M  V30 33316 C 3173.23 3.52261 -0.737581 0
M  V30 33317 C 3172.83 3.90243 -2.20033 0
M  V30 33318 C 3174.58 4.2261 -0.400146 0
M  V30 33319 C 3172.49 5.3869 -2.44064 0
M  V30 33320 H 3171.42 0.736575 -0.161161 0
M  V30 33321 H 3174.07 1.51511 -1.03521 0
M  V30 33322 H 3172.45 3.95933 -0.0728721 0
M  V30 33323 H 3173.62 3.57608 -2.90608 0
M  V30 33324 H 3171.94 3.32895 -2.5014 0
M  V30 33325 H 3174.53 5.31789 -0.55723 0
M  V30 33326 H 3174.88 4.11075 0.657475 0
M  V30 33327 H 3175.41 3.84491 -1.02037 0
M  V30 33328 H 3172.15 5.55235 -3.48416 0
M  V30 33329 H 3171.67 5.72762 -1.78057 0
M  V30 33330 H 3173.35 6.05661 -2.2756 0
M  V30 33331 N 3173.48 0.60276 1.45618 0
M  V30 33332 C 3174.9 0.266018 1.57367 0
M  V30 33333 C 3175.1 -1.23151 1.59487 0
M  V30 33334 O 3174.15 -2.0143 1.52257 0
M  V30 33335 C 3175.47 0.932931 2.85862 0
M  V30 33336 C 3177.01 0.908397 2.99528 0
M  V30 33337 C 3177.49 1.55523 4.30786 0
M  V30 33338 N 3178.98 1.52049 4.37533 0
M  V30 33339 C 3179.71 1.99018 5.37754 0
M  V30 33340 N 3179.21 2.5405 6.44539 0
M  V30 33341 N 3181 1.89814 5.29081 0
M  V30 33342 H 3173.15 1.57517 1.42486 0
M  V30 33343 H 3175.42 0.659568 0.680936 0
M  V30 33344 H 3175.12 1.98718 2.90179 0
M  V30 33345 H 3175 0.453275 3.74467 0
M  V30 33346 H 3177.38 -0.137292 2.9478 0
M  V30 33347 H 3177.47 1.42627 2.12347 0
M  V30 33348 H 3177.11 2.60022 4.36292 0
M  V30 33349 H 3177.04 1.01241 5.16776 0
M  V30 33350 H 3179.53 1.11843 3.6097 0
M  V30 33351 H 3179.84 2.87694 7.17253 0
M  V30 33352 H 3178.19 2.58086 6.45303 0
M  V30 33353 H 3181.38 1.46564 4.44563 0
M  V30 33354 H 3181.55 2.26732 6.07039 0
M  V30 33355 N 3174.96 -1.53852 0.341647 0
M  V30 33356 C 3176.2 -2.01876 -0.248511 0
M  V30 33357 C 3176.56 -1.22516 -1.4835 0
M  V30 33358 O 3175.85 -0.303952 -1.89174 0
M  V30 33359 C 3176.05 -3.52035 -0.616927 0
M  V30 33360 C 3175.88 -4.45934 0.580805 0
M  V30 33361 C 3174.65 -4.93502 1.08553 0
M  V30 33362 C 3176.84 -4.93768 1.43867 0
M  V30 33363 N 3174.83 -5.71347 2.24578 0
M  V30 33364 C 3176.2 -5.69717 2.44585 0
M  V30 33365 C 3178.25 -4.7588 1.46433 0
M  V30 33366 C 3176.95 -6.29681 3.47698 0
M  V30 33367 C 3178.98 -5.36692 2.48426 0
M  V30 33368 C 3178.34 -6.12508 3.4787 0
M  V30 33369 H 3174.44 -0.780113 -0.054293 0
M  V30 33370 H 3177.03 -1.88671 0.480782 0
M  V30 33371 H 3175.2 -3.6545 -1.31533 0
M  V30 33372 H 3176.93 -3.86806 -1.19011 0
M  V30 33373 H 3173.68 -4.69064 0.653915 0
M  V30 33374 H 3174.11 -6.14941 2.83154 0
M  V30 33375 H 3178.75 -4.16811 0.709117 0
M  V30 33376 H 3176.47 -6.8786 4.24115 0
M  V30 33377 H 3180.05 -5.24759 2.51236 0
M  V30 33378 H 3178.93 -6.58727 4.25498 0
M  V30 33379 N 3176.44 -0.0702223 -1.57443 0
M  V30 33380 C 3177.66 0.608323 -1.97755 0
M  V30 33381 C 3178.08 1.63244 -0.948525 0
M  V30 33382 O 3177.44 1.82384 0.0650139 0
M  V30 33383 C 3177.49 1.2783 -3.38145 0
M  V30 33384 O 3177.21 0.295178 -4.37104 0
M  V30 33385 C 3178.71 2.04482 -3.93322 0
M  V30 33386 H 3175.93 0.164986 -0.6504 0
M  V30 33387 H 3178.47 -0.14216 -2.04005 0
M  V30 33388 H 3176.63 1.97988 -3.32986 0
M  V30 33389 H 3177.04 0.775649 -5.18733 0
M  V30 33390 H 3178.52 2.46753 -4.93778 0
M  V30 33391 H 3178.99 2.90073 -3.29779 0
M  V30 33392 H 3179.6 1.39194 -4.01877 0
M  V30 33393 N 3177.91 1.56283 0.203321 0
M  V30 33394 C 3178.86 1.9389 1.25202 0
M  V30 33395 C 3179.83 0.798402 1.45653 0
M  V30 33396 O 3181.02 1.05586 1.58922 0
M  V30 33397 C 3178.16 2.27664 2.59351 0
M  V30 33398 C 3177.27 3.54737 2.46547 0
M  V30 33399 C 3176.4 3.77872 3.73345 0
M  V30 33400 C 3175.44 4.98398 3.55339 0
M  V30 33401 N 3174.58 5.17829 4.74128 0
M  V30 33402 H 3179.42 2.83303 0.924306 0
M  V30 33403 H 3176.96 1.40206 0.445058 0
M  V30 33404 H 3178.92 2.4526 3.37496 0
M  V30 33405 H 3177.55 1.41401 2.90182 0
M  V30 33406 H 3176.6 3.45234 1.59743 0
M  V30 33407 H 3177.91 4.43037 2.29172 0
M  V30 33408 H 3177.06 3.95663 4.5993 0
M  V30 33409 H 3175.8 2.87887 3.93665 0
M  V30 33410 H 3174.81 4.80539 2.67138 0
M  V30 33411 H 3176.03 5.89885 3.36471 0
M  V30 33412 H 3173.98 4.3079 4.94728 0
M  V30 33413 H 3173.9 6.00293 4.59547 0
M  V30 33414 H 3175.16 5.40071 5.62088 0
M  V30 33415 N 3179.39 -0.470729 1.50406 0
M  V30 33416 C 3180.67 -1.23192 1.51931 0
M  V30 33417 C 3181.05 -2.0944 0.264196 0
M  V30 33418 O 3180.4 -2.15759 -0.752357 0
M  V30 33419 C 3180.61 -2.06264 2.81525 0
M  V30 33420 C 3181.96 -2.6444 3.32199 0
M  V30 33421 O 3182.98 -2.16506 2.82849 0
M  V30 33422 O 3181.84 -3.51779 4.18227 0
M  V30 33423 H 3178.93 -0.559049 0.609421 0
M  V30 33424 H 3181.48 -0.482521 1.62696 0
M  V30 33425 H 3180.25 -1.42709 3.64349 0
M  V30 33426 H 3179.87 -2.88337 2.73766 0
M  V30 33427 N 3180.87 -1.39989 -0.72393 0
M  V30 33428 C 3182.28 -1.3374 -1.30271 0
M  V30 33429 C 3182.63 -0.0069403 -1.96199 0
M  V30 33430 O 3181.76 0.895145 -1.97018 0
M  V30 33431 C 3182.35 -2.42221 -2.36884 0
M  V30 33432 C 3180.91 -2.39458 -2.90408 0
M  V30 33433 C 3180.06 -2.23532 -1.64099 0
M  V30 33434 H 3183.01 -1.49917 -0.520646 0
M  V30 33435 H 3183.03 -2.09648 -3.17534 0
M  V30 33436 H 3182.54 -3.39041 -1.88872 0
M  V30 33437 H 3180.64 -1.4631 -3.42672 0
M  V30 33438 H 3180.76 -3.34733 -3.42769 0
M  V30 33439 H 3179.12 -1.709 -1.88852 0
M  V30 33440 H 3179.9 -3.22338 -1.18123 0
M  V30 33441 N 3182.35 0.955282 -1.25348 0
M  V30 33442 C 3183.77 1.22623 -1.02156 0
M  V30 33443 C 3183.97 1.99789 0.262025 0
M  V30 33444 O 3183.02 2.3292 0.974917 0
M  V30 33445 C 3184.33 2.00125 -2.24434 0
M  V30 33446 C 3185.88 2.1317 -2.29189 0
M  V30 33447 C 3186.36 2.94071 -3.51122 0
M  V30 33448 N 3187.85 3.01649 -3.51514 0
M  V30 33449 C 3188.58 3.64638 -4.42523 0
M  V30 33450 N 3188.08 4.29242 -5.43804 0
M  V30 33451 N 3189.87 3.61772 -4.30206 0
M  V30 33452 H 3182.02 0.439034 -2.07813 0
M  V30 33453 H 3184.29 0.256699 -0.912584 0
M  V30 33454 H 3183.99 1.50821 -3.1772 0
M  V30 33455 H 3183.87 3.00831 -2.27553 0
M  V30 33456 H 3186.25 2.61671 -1.36426 0
M  V30 33457 H 3186.33 1.11771 -2.30089 0
M  V30 33458 H 3185.98 2.4626 -4.44205 0
M  V30 33459 H 3185.91 3.95695 -3.47467 0
M  V30 33460 H 3188.4 2.55706 -2.7825 0
M  V30 33461 H 3188.71 4.7516 -6.09461 0
M  V30 33462 H 3187.06 4.27872 -5.47677 0
M  V30 33463 H 3190.25 3.10485 -3.5031 0
M  V30 33464 H 3190.42 4.10575 -5.0133 0
M  V30 33465 N 3183.83 1.06924 1.1578 0
M  V30 33466 C 3184.78 0.679932 2.2244 0
M  V30 33467 C 3185.77 -0.307192 1.66591 0
M  V30 33468 O 3186.98 -0.17137 1.79182 0
M  V30 33469 H 3183.35 0.201778 0.724424 0
M  V30 33470 H 3185.32 1.58923 2.52559 0
M  V30 33471 C 3184.07 0.0891753 3.47586 0
M  V30 33472 H 3183.39 0.839873 3.90879 0
M  V30 33473 H 3184.83 -0.145615 4.2375 0
M  V30 33474 C 3183.29 -1.16898 3.15969 0
M  V30 33475 O 3183.82 -2.25605 3.32363 0
M  V30 33476 N 3182.03 -1.07344 2.70047 0
M  V30 33477 H 3181.58 -0.18878 2.56907 0
M  V30 33478 H 3181.53 -1.91607 2.49267 0
M  V30 33479 N 3185.31 -1.32538 0.852723 0
M  V30 33480 C 3186.53 -2.01512 0.469079 0
M  V30 33481 C 3186.95 -1.64098 -0.933672 0
M  V30 33482 O 3186.31 -0.861311 -1.60897 0
M  V30 33483 C 3186.36 -3.56548 0.596291 0
M  V30 33484 O 3186.08 -3.92618 1.94378 0
M  V30 33485 C 3187.58 -4.42796 0.211402 0
M  V30 33486 H 3184.8 -0.645108 0.1846 0
M  V30 33487 H 3187.34 -1.69161 1.14913 0
M  V30 33488 H 3185.5 -3.87383 -0.0360031 0
M  V30 33489 H 3185.91 -4.87336 1.93918 0
M  V30 33490 H 3187.39 -5.5088 0.351421 0
M  V30 33491 H 3187.86 -4.30936 -0.847979 0
M  V30 33492 H 3188.47 -4.17346 0.818691 0
M  V30 33493 N 3186.78 -0.610474 -1.45296 0
M  V30 33494 C 3187.72 0.144843 -2.28742 0
M  V30 33495 C 3188.73 0.828953 -1.40115 0
M  V30 33496 O 3189.92 0.693858 -1.64462 0
M  V30 33497 C 3187.02 1.22626 -3.15937 0
M  V30 33498 C 3186.19 0.628709 -4.32858 0
M  V30 33499 C 3185.25 1.6014 -5.0124 0
M  V30 33500 O 3184.28 1.12657 -5.5794 0
M  V30 33501 N 3185.48 2.93581 -5.0079 0
M  V30 33502 H 3188.24 -0.571197 -2.94206 0
M  V30 33503 H 3185.8 -0.450162 -1.55516 0
M  V30 33504 H 3187.8 1.87685 -3.58548 0
M  V30 33505 H 3186.37 1.84479 -2.52361 0
M  V30 33506 H 3185.59 -0.200021 -3.93692 0
M  V30 33507 H 3186.87 0.209756 -5.08367 0
M  V30 33508 H 3186.27 3.34757 -4.5602 0
M  V30 33509 H 3184.83 3.54054 -5.47256 0
M  V30 33510 N 3188.26 1.53669 -0.349801 0
M  V30 33511 C 3189.54 1.9328 0.300385 0
M  V30 33512 C 3189.92 1.28194 1.67719 0
M  V30 33513 O 3189.27 0.435167 2.24318 0
M  V30 33514 C 3189.48 3.47071 0.366405 0
M  V30 33515 C 3190.82 4.20133 0.614275 0
M  V30 33516 O 3191.85 3.53368 0.448265 0
M  V30 33517 O 3190.71 5.38419 0.936327 0
M  V30 33518 H 3187.8 0.807928 0.176585 0
M  V30 33519 H 3190.35 1.64884 -0.401434 0
M  V30 33520 H 3189.12 3.8668 -0.599523 0
M  V30 33521 H 3188.74 3.81653 1.11476 0
M  V30 33522 N 3189.74 0.0785709 1.57404 0
M  V30 33523 C 3190.69 -0.896528 2.09634 0
M  V30 33524 C 3191.67 -1.25447 1.00756 0
M  V30 33525 O 3192.87 -1.23232 1.27055 0
M  V30 33526 C 3189.99 -2.16165 2.66698 0
M  V30 33527 C 3189.08 -1.82988 3.82592 0
M  V30 33528 N 3189.47 -1.20291 4.91288 0
M  V30 33529 C 3187.77 -2.12697 3.92015 0
M  V30 33530 C 3188.47 -1.05357 5.72079 0
M  V30 33531 N 3187.45 -1.5655 5.2057 0
M  V30 33532 H 3191.25 -0.40757 2.9106 0
M  V30 33533 H 3188.76 -0.125126 1.61917 0
M  V30 33534 H 3190.76 -2.86947 3.02435 0
M  V30 33535 H 3189.42 -2.65642 1.8672 0
M  V30 33536 H 3190.43 -0.871727 5.10511 0
M  V30 33537 H 3187.11 -2.64504 3.23023 0
M  V30 33538 H 3188.5 -0.564567 6.69524 0
M  V30 33539 N 3191.22 -1.56389 -0.19503 0
M  V30 33540 C 3192.46 -1.80896 -0.916768 0
M  V30 33541 C 3192.8 -0.652624 -1.82906 0
M  V30 33542 O 3192.07 0.346819 -1.91383 0
M  V30 33543 C 3192.35 -3.1566 -1.73294 0
M  V30 33544 C 3192.21 -4.41784 -0.845372 0
M  V30 33545 C 3193.53 -3.47117 -2.70551 0
M  V30 33546 H 3190.65 -0.658062 -0.331849 0
M  V30 33547 H 3193.29 -1.89106 -0.18414 0
M  V30 33548 H 3191.44 -3.08792 -2.35754 0
M  V30 33549 H 3193.11 -4.60699 -0.235476 0
M  V30 33550 H 3191.35 -4.33533 -0.152095 0
M  V30 33551 H 3192.02 -5.32576 -1.45143 0
M  V30 33552 H 3194.5 -3.54285 -2.18223 0
M  V30 33553 H 3193.38 -4.42532 -3.24741 0
M  V30 33554 H 3193.64 -2.70614 -3.496 0
M  V30 33555 N 3192.7 0.462746 -1.50653 0
M  V30 33556 C 3194.11 0.797189 -1.38264 0
M  V30 33557 C 3194.31 1.9652 -0.445206 0
M  V30 33558 O 3193.37 2.52264 0.109086 0
M  V30 33559 C 3194.68 1.10142 -2.79802 0
M  V30 33560 C 3196.23 1.20737 -2.88776 0
M  V30 33561 C 3196.7 1.54468 -4.31165 0
M  V30 33562 N 3198.19 1.61443 -4.34155 0
M  V30 33563 C 3198.93 1.89064 -5.41334 0
M  V30 33564 N 3198.43 2.14649 -6.58709 0
M  V30 33565 N 3200.22 1.90636 -5.28786 0
M  V30 33566 H 3192.37 -0.306877 -2.10171 0
M  V30 33567 H 3194.63 -0.0748028 -0.945044 0
M  V30 33568 H 3194.34 0.316145 -3.50276 0
M  V30 33569 H 3194.21 2.03553 -3.17563 0
M  V30 33570 H 3196.6 1.9833 -2.18516 0
M  V30 33571 H 3196.68 0.252859 -2.54547 0
M  V30 33572 H 3196.32 0.774119 -5.01966 0
M  V30 33573 H 3196.25 2.51084 -4.62887 0
M  V30 33574 H 3198.75 1.43677 -3.49521 0
M  V30 33575 H 3199.06 2.35022 -7.36196 0
M  V30 33576 H 3197.4 2.12024 -6.61869 0
M  V30 33577 H 3200.59 1.7015 -4.36081 0
M  V30 33578 H 3200.77 2.11825 -6.124 0
M  V30 33579 N 3194.17 1.40371 0.716495 0
M  V30 33580 C 3195.4 1.42105 1.51066 0
M  V30 33581 C 3195.82 0.0222717 1.88087 0
M  V30 33582 O 3195.18 -0.969421 1.53205 0
M  V30 33583 C 3195.23 2.31709 2.76303 0
M  V30 33584 O 3194.33 1.75971 3.72972 0
M  V30 33585 H 3193.68 0.483137 0.455494 0
M  V30 33586 H 3196.21 1.8459 0.882481 0
M  V30 33587 H 3196.22 2.46864 3.24842 0
M  V30 33588 H 3194.89 3.33354 2.48692 0
M  V30 33589 H 3193.47 1.70157 3.31815 0
M  V30 33590 N 3195.65 -0.948621 1.25853 0
M  V30 33591 C 3196.58 -2.06365 1.09251 0
M  V30 33592 C 3197.56 -1.701 -0.000175269 0
M  V30 33593 O 3198.75 -1.9345 0.170476 0
M  V30 33594 C 3195.88 -3.39822 0.716836 0
M  V30 33595 C 3194.83 -3.90119 1.76043 0
M  V30 33596 C 3194.16 -5.2014 1.23927 0
M  V30 33597 C 3195.46 -4.15827 3.16046 0
M  V30 33598 H 3197.15 -2.20512 2.02521 0
M  V30 33599 H 3194.7 -1.0596 0.975111 0
M  V30 33600 H 3196.65 -4.17283 0.587605 0
M  V30 33601 H 3195.38 -3.2563 -0.251569 0
M  V30 33602 H 3194.03 -3.14832 1.87821 0
M  V30 33603 H 3193.68 -5.02323 0.260925 0
M  V30 33604 H 3193.38 -5.54762 1.93682 0
M  V30 33605 H 3194.91 -6.00192 1.12256 0
M  V30 33606 H 3196.32 -4.83927 3.07388 0
M  V30 33607 H 3194.72 -4.61716 3.83325 0
M  V30 33608 H 3195.79 -3.21881 3.62658 0
M  V30 33609 N 3197.13 -1.07536 -1.15212 0
M  V30 33610 C 3198.37 -0.809042 -1.87707 0
M  V30 33611 C 3198.73 0.653034 -1.80553 0
M  V30 33612 O 3199.94 1.03448 -2.48097 0
M  V30 33613 C 3198.21 -1.30558 -3.327 0
M  V30 33614 S 3199.77 -1.17022 -4.22908 0
M  V30 33615 H 3196.58 -0.29313 -0.647762 0
M  V30 33616 H 3199.19 -1.37485 -1.3899 0
M  V30 33617 H 3197.89 -2.36433 -3.35451 0
M  V30 33618 H 3197.42 -0.735062 -3.86472 0
M  V30 33619 H 3199.44 -0.108923 -4.9608 0
M  V30 33620 N 3198.61 1.32084 -0.85974 0
M  V30 33621 C 3199.54 2.31248 -0.323543 0
M  V30 33622 C 3200.52 1.59904 0.580057 0
M  V30 33623 O 3201.7 1.87673 0.499232 0
M  V30 33624 C 3198.83 3.43902 0.4846 0
M  V30 33625 C 3197.79 4.26764 -0.325008 0
M  V30 33626 C 3197.11 5.3123 0.608187 0
M  V30 33627 C 3198.41 4.98661 -1.55353 0
M  V30 33628 H 3200.11 2.76344 -1.15214 0
M  V30 33629 H 3197.65 1.32855 -0.555465 0
M  V30 33630 H 3199.61 4.12318 0.870166 0
M  V30 33631 H 3198.33 2.97547 1.34661 0
M  V30 33632 H 3196.99 3.60002 -0.692391 0
M  V30 33633 H 3196.64 4.81126 1.46719 0
M  V30 33634 H 3196.34 5.87558 0.0704538 0
M  V30 33635 H 3197.86 6.02507 0.990819 0
M  V30 33636 H 3199.28 5.5973 -1.23997 0
M  V30 33637 H 3197.67 5.64737 -2.02957 0
M  V30 33638 H 3198.74 4.26233 -2.312 0
M  V30 33639 N 3200.09 0.618171 1.4497 0
M  V30 33640 C 3201.02 -0.0815544 2.33358 0
M  V30 33641 C 3202 -0.848047 1.47452 0
M  V30 33642 O 3203.18 -0.816501 1.76201 0
M  V30 33643 C 3200.31 -1.07247 3.30326 0
M  V30 33644 C 3199.27 -0.418488 4.25949 0
M  V30 33645 C 3198.59 -1.5184 5.12688 0
M  V30 33646 C 3199.89 0.667062 5.18023 0
M  V30 33647 H 3201.59 0.656494 2.92114 0
M  V30 33648 H 3199.13 0.317153 1.40464 0
M  V30 33649 H 3201.09 -1.57062 3.91036 0
M  V30 33650 H 3199.81 -1.84125 2.69751 0
M  V30 33651 H 3198.47 0.0588952 3.66553 0
M  V30 33652 H 3198.12 -2.27772 4.48474 0
M  V30 33653 H 3197.82 -1.08626 5.77472 0
M  V30 33654 H 3199.34 -2.01861 5.76268 0
M  V30 33655 H 3200.75 0.252548 5.72743 0
M  V30 33656 H 3199.15 1.02157 5.91341 0
M  V30 33657 H 3200.22 1.53944 4.59814 0
M  V30 33658 N 3201.56 -1.53481 0.357946 0
M  V30 33659 C 3202.53 -2.24123 -0.479757 0
M  V30 33660 C 3203.53 -1.24641 -1.01594 0
M  V30 33661 O 3204.72 -1.48974 -0.902902 0
M  V30 33662 C 3201.85 -2.97206 -1.66978 0
M  V30 33663 H 3203.04 -2.99581 0.138272 0
M  V30 33664 H 3200.6 -1.55916 0.109511 0
M  V30 33665 H 3201.33 -2.2597 -2.32611 0
M  V30 33666 H 3201.12 -3.7019 -1.29235 0
M  V30 33667 H 3202.61 -3.50928 -2.26361 0
M  V30 33668 N 3203.04 -0.0869173 -1.5736 0
M  V30 33669 C 3204.29 0.573477 -1.95148 0
M  V30 33670 C 3204.64 1.66298 -0.96762 0
M  V30 33671 O 3203.94 1.91598 0.00771203 0
M  V30 33672 C 3204.13 1.18117 -3.37318 0
M  V30 33673 C 3203.96 0.152066 -4.49443 0
M  V30 33674 C 3202.73 -0.268585 -5.04586 0
M  V30 33675 C 3204.93 -0.616592 -5.1059 0
M  V30 33676 N 3202.91 -1.28681 -6.00262 0
M  V30 33677 C 3204.28 -1.48687 -6.01907 0
M  V30 33678 C 3206.34 -0.671006 -4.93358 0
M  V30 33679 C 3205.04 -2.40676 -6.7784 0
M  V30 33680 C 3207.06 -1.57847 -5.69946 0
M  V30 33681 C 3206.43 -2.43639 -6.60923 0
M  V30 33682 H 3202.53 0.180426 -0.760901 0
M  V30 33683 H 3205.11 -0.167582 -1.93977 0
M  V30 33684 H 3203.28 1.89208 -3.39197 0
M  V30 33685 H 3205.01 1.80326 -3.62305 0
M  V30 33686 H 3201.77 0.117542 -4.73454 0
M  V30 33687 H 3202.19 -1.79388 -6.52801 0
M  V30 33688 H 3206.83 -0.021895 -4.22794 0
M  V30 33689 H 3204.55 -3.06616 -7.47671 0
M  V30 33690 H 3208.14 -1.6256 -5.58628 0
M  V30 33691 H 3207.02 -3.12718 -7.1915 0
M  V30 33692 N 3204.52 1.5649 0.186734 0
M  V30 33693 C 3205.47 1.91612 1.23566 0
M  V30 33694 C 3206.45 0.782711 1.40579 0
M  V30 33695 O 3207.65 1.04569 1.42809 0
M  V30 33696 C 3204.78 2.26633 2.57861 0
M  V30 33697 C 3203.86 3.46451 2.44607 0
M  V30 33698 N 3204.25 4.64128 2.01044 0
M  V30 33699 C 3202.55 3.50754 2.75477 0
M  V30 33700 C 3203.25 5.4628 1.99882 0
M  V30 33701 N 3202.23 4.86909 2.41703 0
M  V30 33702 H 3206.03 2.80091 0.89031 0
M  V30 33703 H 3203.54 1.5752 0.395117 0
M  V30 33704 H 3205.54 2.49983 3.33637 0
M  V30 33705 H 3204.2 1.39486 2.93213 0
M  V30 33706 H 3205.21 4.88637 1.71621 0
M  V30 33707 H 3201.89 2.74045 3.14969 0
M  V30 33708 H 3203.28 6.5055 1.6803 0
M  V30 33709 N 3206 -0.45475 1.50897 0
M  V30 33710 C 3206.95 -1.57133 1.715 0
M  V30 33711 C 3207.94 -1.59125 0.581008 0
M  V30 33712 O 3209.15 -1.63078 0.761945 0
M  V30 33713 H 3205.52 -0.521714 0.541589 0
M  V30 33714 H 3207.49 -1.36923 2.65131 0
M  V30 33715 C 3206.24 -2.94943 1.8413 0
M  V30 33716 H 3205.56 -2.94135 2.70785 0
M  V30 33717 H 3207 -3.72483 2.02564 0
M  V30 33718 C 3205.46 -3.31572 0.596811 0
M  V30 33719 O 3205.99 -4.0088 -0.256561 0
M  V30 33720 N 3204.2 -2.87157 0.446009 0
M  V30 33721 H 3203.75 -2.30927 1.1415 0
M  V30 33722 H 3203.7 -3.12028 -0.385464 0
M  V30 33723 N 3207.48 -1.40749 -0.709041 0
M  V30 33724 C 3208.72 -1.39106 -1.46608 0
M  V30 33725 C 3209.05 0.00361939 -1.95 0
M  V30 33726 O 3208.32 0.959511 -1.70793 0
M  V30 33727 H 3206.9 -0.511989 -0.543945 0
M  V30 33728 H 3209.56 -1.75864 -0.84011 0
M  V30 33729 H 3208.65 -2.06998 -2.33577 0
M  V30 33730 N 3208.96 0.941933 -1.26354 0
M  V30 33731 C 3209.87 2.07413 -1.09622 0
M  V30 33732 C 3210.88 1.73974 -0.0299269 0
M  V30 33733 O 3212.06 2.00042 -0.233501 0
M  V30 33734 C 3209.12 3.38923 -0.730189 0
M  V30 33735 C 3208.18 3.8615 -1.87581 0
M  V30 33736 C 3207.42 5.11384 -1.52715 0
M  V30 33737 O 3207.64 5.68788 -0.428538 0
M  V30 33738 O 3206.57 5.53634 -2.36164 0
M  V30 33739 H 3210.4 2.24437 -2.04602 0
M  V30 33740 H 3207.98 1.05874 -1.05409 0
M  V30 33741 H 3209.87 4.17942 -0.538757 0
M  V30 33742 H 3208.54 3.23141 0.190225 0
M  V30 33743 H 3207.45 3.0808 -2.1222 0
M  V30 33744 H 3208.78 4.06452 -2.77592 0
M  V30 33745 N 3210.43 1.08146 1.1464 0
M  V30 33746 C 3211.34 0.720707 2.23255 0
M  V30 33747 C 3212.36 -0.271618 1.71867 0
M  V30 33748 O 3213.54 -0.116231 2.01064 0
M  V30 33749 C 3210.6 0.132603 3.46446 0
M  V30 33750 C 3209.66 1.1792 4.12787 0
M  V30 33751 C 3208.89 0.619065 5.30097 0
M  V30 33752 O 3209.12 -0.562318 5.67621 0
M  V30 33753 O 3208.05 1.36784 5.86152 0
M  V30 33754 H 3211.88 1.62672 2.5646 0
M  V30 33755 H 3209.46 0.854953 1.22519 0
M  V30 33756 H 3211.34 -0.192696 4.20959 0
M  V30 33757 H 3210.02 -0.746607 3.14972 0
M  V30 33758 H 3208.93 1.55699 3.4016 0
M  V30 33759 H 3210.26 2.03059 4.48361 0
M  V30 33760 N 3211.91 -1.31626 0.866732 0
M  V30 33761 C 3212.82 -2.3236 0.323448 0
M  V30 33762 C 3213.84 -1.64573 -0.564966 0
M  V30 33763 O 3215.01 -1.96019 -0.462454 0
M  V30 33764 C 3212.08 -3.43513 -0.468985 0
M  V30 33765 C 3211.14 -4.26966 0.447004 0
M  V30 33766 C 3210.37 -5.32812 -0.307705 0
M  V30 33767 O 3210.6 -5.49324 -1.5362 0
M  V30 33768 O 3209.53 -6.00979 0.332759 0
M  V30 33769 H 3213.36 -2.80743 1.15832 0
M  V30 33770 H 3210.94 -1.35467 0.630011 0
M  V30 33771 H 3212.82 -4.11272 -0.918333 0
M  V30 33772 H 3211.5 -2.97298 -1.28046 0
M  V30 33773 H 3210.4 -3.61973 0.944783 0
M  V30 33774 H 3211.74 -4.76738 1.22398 0
M  V30 33775 N 3213.39 -0.62585 -1.4464 0
M  V30 33776 C 3214.62 -0.134957 -2.06159 0
M  V30 33777 C 3215.03 1.19354 -1.46803 0
M  V30 33778 O 3214.37 1.74191 -0.583376 0
M  V30 33779 C 3214.43 0.0597849 -3.5945 0
M  V30 33780 C 3214.1 -1.18973 -4.41242 0
M  V30 33781 C 3215.09 -2.1122 -4.7506 0
M  V30 33782 C 3212.78 -1.42367 -4.81702 0
M  V30 33783 C 3214.77 -3.25175 -5.48215 0
M  V30 33784 C 3212.46 -2.5662 -5.54608 0
M  V30 33785 C 3213.46 -3.47851 -5.87783 0
M  V30 33786 O 3213.15 -4.60112 -6.59205 0
M  V30 33787 H 3212.88 -0.0744582 -0.671887 0
M  V30 33788 H 3215.43 -0.858808 -1.86584 0
M  V30 33789 H 3213.66 0.838726 -3.77495 0
M  V30 33790 H 3215.35 0.504568 -4.02752 0
M  V30 33791 H 3216.12 -1.94379 -4.44344 0
M  V30 33792 H 3212 -0.722481 -4.55303 0
M  V30 33793 H 3215.54 -3.96406 -5.74028 0
M  V30 33794 H 3211.44 -2.73407 -5.84738 0
M  V30 33795 H 3212.2 -4.59027 -6.7767 0
M  V30 33796 N 3214.87 1.53289 -0.36608 0
M  V30 33797 C 3215.82 2.27266 0.495279 0
M  V30 33798 C 3216.81 1.30263 1.08296 0
M  V30 33799 O 3218.02 1.47889 1.0261 0
M  V30 33800 H 3214.39 0.730522 0.178442 0
M  V30 33801 H 3216.36 2.98021 -0.150406 0
M  V30 33802 C 3215.11 3.07508 1.62277 0
M  V30 33803 H 3214.43 3.81994 1.17986 0
M  V30 33804 H 3215.87 3.62448 2.20018 0
M  V30 33805 C 3214.33 2.1838 2.56538 0
M  V30 33806 O 3214.86 1.79493 3.59368 0
M  V30 33807 N 3213.07 1.83003 2.25739 0
M  V30 33808 H 3212.62 2.14825 1.42155 0
M  V30 33809 H 3212.57 1.23655 2.89062 0
M  V30 33810 N 3216.35 0.0952613 1.57312 0
M  V30 33811 C 3217.29 -0.86362 2.14033 0
M  V30 33812 C 3218.26 -1.27969 1.05892 0
M  V30 33813 O 3219.45 -1.36141 1.3368 0
M  V30 33814 C 3216.59 -2.11728 2.72517 0
M  V30 33815 C 3215.7 -1.75173 3.9489 0
M  V30 33816 C 3214.84 -2.95326 4.41538 0
M  V30 33817 C 3213.87 -2.54898 5.56501 0
M  V30 33818 N 3213.01 -3.67887 5.98 0
M  V30 33819 H 3217.85 -0.373063 2.95656 0
M  V30 33820 H 3215.39 -0.172472 1.46085 0
M  V30 33821 H 3217.35 -2.85147 3.04544 0
M  V30 33822 H 3215.98 -2.58283 1.93622 0
M  V30 33823 H 3215.03 -0.917215 3.69177 0
M  V30 33824 H 3216.34 -1.41446 4.78325 0
M  V30 33825 H 3215.49 -3.76999 4.75349 0
M  V30 33826 H 3214.23 -3.32263 3.57005 0
M  V30 33827 H 3213.24 -1.71653 5.22317 0
M  V30 33828 H 3214.46 -2.19105 6.42783 0
M  V30 33829 H 3212.41 -4.04542 5.16412 0
M  V30 33830 H 3212.33 -3.38006 6.76231 0
M  V30 33831 H 3213.59 -4.50069 6.36442 0
M  V30 33832 N 3217.82 -1.56587 -0.178432 0
M  V30 33833 C 3219.07 -1.81589 -0.896203 0
M  V30 33834 C 3219.4 -0.6712 -1.82552 0
M  V30 33835 O 3218.65 0.342012 -1.92688 0
M  V30 33836 C 3218.95 -3.12707 -1.73057 0
M  V30 33837 C 3218.62 -4.40761 -0.950799 0
M  V30 33838 C 3217.28 -4.75545 -0.735563 0
M  V30 33839 C 3219.63 -5.19637 -0.403327 0
M  V30 33840 C 3216.96 -5.86687 0.0383593 0
M  V30 33841 C 3219.31 -6.31589 0.35747 0
M  V30 33842 C 3217.98 -6.64944 0.583571 0
M  V30 33843 H 3217.25 -0.66448 -0.327944 0
M  V30 33844 H 3219.89 -1.90817 -0.161552 0
M  V30 33845 H 3218.2 -2.9879 -2.5344 0
M  V30 33846 H 3219.9 -3.29261 -2.28885 0
M  V30 33847 H 3216.49 -4.13474 -1.12859 0
M  V30 33848 H 3220.67 -4.93165 -0.556972 0
M  V30 33849 H 3215.93 -6.10992 0.223345 0
M  V30 33850 H 3220.1 -6.91916 0.788982 0
M  V30 33851 H 3217.73 -7.50905 1.18515 0
M  V30 33852 N 3219.3 0.446741 -1.51136 0
M  V30 33853 C 3220.23 1.54913 -1.74712 0
M  V30 33854 C 3221.21 1.59292 -0.596656 0
M  V30 33855 O 3222.4 1.75171 -0.838386 0
M  V30 33856 C 3219.53 2.93067 -1.86358 0
M  V30 33857 C 3218.48 3.0355 -3.0173 0
M  V30 33858 C 3217.81 4.43591 -2.98548 0
M  V30 33859 C 3219.11 2.78502 -4.41853 0
M  V30 33860 H 3220.8 1.35435 -2.67016 0
M  V30 33861 H 3218.35 0.650108 -1.2849 0
M  V30 33862 H 3220.3 3.70138 -2.01435 0
M  V30 33863 H 3219.02 3.13755 -0.906942 0
M  V30 33864 H 3217.68 2.28917 -2.86343 0
M  V30 33865 H 3217.33 4.61233 -2.00681 0
M  V30 33866 H 3217.03 4.51537 -3.76015 0
M  V30 33867 H 3218.56 5.22649 -3.15705 0
M  V30 33868 H 3219.97 3.45311 -4.57639 0
M  V30 33869 H 3218.37 2.97868 -5.20955 0
M  V30 33870 H 3219.44 1.74174 -4.52539 0
M  V30 33871 N 3220.78 1.41123 0.701567 0
M  V30 33872 C 3221.74 1.42231 1.79731 0
M  V30 33873 C 3222.74 0.313859 1.57707 0
M  V30 33874 O 3223.93 0.573452 1.64491 0
M  V30 33875 C 3221.06 1.22781 3.18021 0
M  V30 33876 H 3222.26 2.39767 1.80143 0
M  V30 33877 H 3219.81 1.27177 0.908602 0
M  V30 33878 H 3220.55 0.260609 3.23251 0
M  V30 33879 H 3220.33 2.03086 3.35408 0
M  V30 33880 H 3221.82 1.26377 3.98018 0
M  V30 33881 N 3222.26 -0.935219 1.26852 0
M  V30 33882 C 3223.2 -2.03479 1.08927 0
M  V30 33883 C 3224.17 -1.66098 -0.00746867 0
M  V30 33884 O 3225.36 -1.90182 0.153435 0
M  V30 33885 C 3222.5 -3.37191 0.734588 0
M  V30 33886 C 3221.61 -3.87572 1.90819 0
M  V30 33887 C 3220.75 -5.09697 1.49607 0
M  V30 33888 C 3219.79 -5.52355 2.63761 0
M  V30 33889 N 3218.92 -6.6568 2.23191 0
M  V30 33890 H 3223.76 -2.18144 2.0302 0
M  V30 33891 H 3221.3 -1.06876 1.01074 0
M  V30 33892 H 3223.26 -4.14073 0.509807 0
M  V30 33893 H 3221.89 -3.22355 -0.169381 0
M  V30 33894 H 3220.94 -3.07036 2.24573 0
M  V30 33895 H 3222.25 -4.15165 2.76477 0
M  V30 33896 H 3221.41 -5.94058 1.23209 0
M  V30 33897 H 3220.15 -4.83864 0.610475 0
M  V30 33898 H 3219.15 -4.66549 2.90882 0
M  V30 33899 H 3220.38 -5.80187 3.5293 0
M  V30 33900 H 3218.32 -6.41519 1.37073 0
M  V30 33901 H 3218.24 -6.92889 3.02391 0
M  V30 33902 H 3219.51 -7.534 2.0002 0
M  V30 33903 N 3223.74 -1.08752 -1.14065 0
M  V30 33904 C 3224.99 -0.814267 -1.84533 0
M  V30 33905 C 3225.3 0.662323 -1.84045 0
M  V30 33906 O 3226.5 1.05087 -2.50338 0
M  V30 33907 C 3224.96 -1.40669 -3.31271 0
M  V30 33908 C 3224.57 -2.91532 -3.40166 0
M  V30 33909 C 3226.31 -1.21208 -4.06828 0
M  V30 33910 C 3224.22 -3.43894 -4.81135 0
M  V30 33911 H 3223.15 -0.300939 -0.691341 0
M  V30 33912 H 3225.8 -1.30937 -1.2856 0
M  V30 33913 H 3224.18 -0.839283 -3.87004 0
M  V30 33914 H 3225.36 -3.54439 -2.94465 0
M  V30 33915 H 3223.67 -3.09947 -2.78068 0
M  V30 33916 H 3226.27 -1.5779 -5.10888 0
M  V30 33917 H 3226.61 -0.152165 -4.16022 0
M  V30 33918 H 3227.14 -1.74661 -3.57405 0
M  V30 33919 H 3223.88 -4.49474 -4.7713 0
M  V30 33920 H 3223.4 -2.85747 -5.2736 0
M  V30 33921 H 3225.08 -3.4069 -5.50036 0
M  V30 33922 N 3225.21 1.31165 -0.873701 0
M  V30 33923 C 3226.63 1.49222 -0.566135 0
M  V30 33924 C 3226.83 1.80341 0.898857 0
M  V30 33925 O 3225.89 1.88428 1.6808 0
M  V30 33926 C 3227.2 2.62344 -1.46957 0
M  V30 33927 C 3228.75 2.76227 -1.472 0
M  V30 33928 C 3229.22 3.9245 -2.36109 0
M  V30 33929 N 3230.71 3.99742 -2.3401 0
M  V30 33930 C 3231.45 4.88953 -2.99521 0
M  V30 33931 N 3230.94 5.83039 -3.74216 0
M  V30 33932 N 3232.74 4.82229 -2.88811 0
M  V30 33933 H 3224.89 1.09235 -1.82158 0
M  V30 33934 H 3227.15 0.540106 -0.779095 0
M  V30 33935 H 3226.86 2.46135 -2.51218 0
M  V30 33936 H 3226.73 3.58568 -1.17084 0
M  V30 33937 H 3229.12 2.91847 -0.436954 0
M  V30 33938 H 3229.2 1.80657 -1.81098 0
M  V30 33939 H 3228.84 3.77587 -3.39692 0
M  V30 33940 H 3228.77 4.87334 -1.99533 0
M  V30 33941 H 3231.26 3.3243 -1.79719 0
M  V30 33942 H 3231.58 6.47848 -4.21323 0
M  V30 33943 H 3229.92 5.83006 -3.78324 0
M  V30 33944 H 3233.11 4.07703 -2.29992 0
M  V30 33945 H 3233.29 5.51548 -3.40145 0
M  V30 33946 N 3226.69 0.633512 1.44307 0
M  V30 33947 C 3227.92 0.144384 2.06897 0
M  V30 33948 C 3228.34 -1.17297 1.47047 0
M  V30 33949 O 3227.7 -1.72012 0.572836 0
M  V30 33950 C 3227.75 0.0456957 3.60571 0
M  V30 33951 O 3226.85 -0.997612 4.00152 0
M  V30 33952 H 3226.19 0.0858614 0.658425 0
M  V30 33953 H 3228.72 0.870866 1.85141 0
M  V30 33954 H 3228.73 -0.144106 4.07745 0
M  V30 33955 H 3227.41 1.00747 4.03513 0
M  V30 33956 H 3225.99 -0.782188 3.64604 0
M  V30 33957 N 3228.17 -1.53093 0.374204 0
M  V30 33958 C 3229.42 -2.01677 -0.213096 0
M  V30 33959 C 3229.75 -1.26074 -1.47713 0
M  V30 33960 O 3229.02 -0.356868 -1.91198 0
M  V30 33961 C 3229.31 -3.56663 -0.496329 0
M  V30 33962 C 3229.16 -4.42951 0.781937 0
M  V30 33963 C 3230.48 -4.20668 -1.29331 0
M  V30 33964 H 3227.6 -0.733073 -0.0759757 0
M  V30 33965 H 3230.24 -1.83281 0.500797 0
M  V30 33966 H 3228.39 -3.72469 -1.10449 0
M  V30 33967 H 3230.06 -4.38926 1.41922 0
M  V30 33968 H 3228.31 -4.10572 1.40048 0
M  V30 33969 H 3228.98 -5.49366 0.538605 0
M  V30 33970 H 3231.45 -4.08747 -0.778777 0
M  V30 33971 H 3230.33 -5.2912 -1.46023 0
M  V30 33972 H 3230.59 -3.773 -2.30428 0
M  V30 33973 N 3229.65 -0.103603 -1.57259 0
M  V30 33974 C 3231.06 0.424207 -1.81817 0
M  V30 33975 C 3231.41 1.67615 -1.01979 0
M  V30 33976 O 3230.54 2.14931 -0.251711 0
M  V30 33977 C 3231.13 0.776395 -3.29784 0
M  V30 33978 C 3229.69 1.24891 -3.55076 0
M  V30 33979 C 3228.84 0.249827 -2.76172 0
M  V30 33980 H 3231.79 -0.32894 -1.55254 0
M  V30 33981 H 3231.81 1.6352 -3.43572 0
M  V30 33982 H 3231.32 -0.134974 -3.87865 0
M  V30 33983 H 3229.42 2.1777 -3.02336 0
M  V30 33984 H 3229.53 1.20487 -4.63702 0
M  V30 33985 H 3227.9 0.733724 -2.43903 0
M  V30 33986 H 3228.68 -0.65437 -3.37006 0
M  V30 33987 N 3231.13 1.56679 0.170126 0
M  V30 33988 C 3232.38 1.81254 0.884871 0
M  V30 33989 C 3232.69 0.681056 1.8336 0
M  V30 33990 O 3233.89 0.811767 2.5908 0
M  V30 33991 C 3232.35 3.21175 1.62403 0
M  V30 33992 C 3231.96 4.42195 0.718869 0
M  V30 33993 C 3233.7 3.55042 2.32692 0
M  V30 33994 C 3231.61 5.73138 1.45832 0
M  V30 33995 H 3230.54 0.675905 0.334168 0
M  V30 33996 H 3233.19 1.82982 0.137786 0
M  V30 33997 H 3231.57 3.13767 2.41591 0
M  V30 33998 H 3232.75 4.60786 -0.0361331 0
M  V30 33999 H 3231.06 4.16211 0.125561 0
M  V30 34000 H 3233.66 4.50119 2.88613 0
M  V30 34001 H 3234 2.79979 3.08087 0
M  V30 34002 H 3234.53 3.64008 1.60447 0
M  V30 34003 H 3231.27 6.51233 0.746685 0
M  V30 34004 H 3230.79 5.58522 2.18662 0
M  V30 34005 H 3232.47 6.15133 2.00549 0
M  V30 34006 N 3232.6 -0.43872 1.5137 0
M  V30 34007 C 3233.85 -1.18592 1.63647 0
M  V30 34008 C 3234.17 -1.91755 0.354275 0
M  V30 34009 O 3233.44 -1.855 -0.629805 0
M  V30 34010 H 3232.02 -0.440756 0.603111 0
M  V30 34011 H 3234.69 -0.503126 1.88294 0
M  V30 34012 H 3233.78 -1.91625 2.46346 0
M  V30 34013 N 3234.08 -1.41493 -0.694073 0
M  V30 34014 C 3235.5 -1.23996 -1.00485 0
M  V30 34015 C 3235.7 -0.130381 -2.01078 0
M  V30 34016 O 3234.75 0.504732 -2.47404 0
M  V30 34017 C 3236.07 -2.58982 -1.52803 0
M  V30 34018 C 3237.62 -2.66176 -1.64679 0
M  V30 34019 C 3238.09 -4.01483 -2.20399 0
M  V30 34020 N 3239.58 -4.03337 -2.27757 0
M  V30 34021 C 3240.32 -5.04834 -2.71902 0
M  V30 34022 N 3239.81 -6.1672 -3.1564 0
M  V30 34023 N 3241.61 -4.92195 -2.71479 0
M  V30 34024 H 3233.76 -2.12382 -0.0277087 0
M  V30 34025 H 3236.02 -0.94504 -0.0748575 0
M  V30 34026 H 3235.73 -3.40936 -0.863459 0
M  V30 34027 H 3235.6 -2.81571 -2.50993 0
M  V30 34028 H 3237.99 -1.8458 -2.30248 0
M  V30 34029 H 3238.07 -2.47396 -0.650307 0
M  V30 34030 H 3237.71 -4.83528 -1.55445 0
M  V30 34031 H 3237.64 -4.17604 -3.20802 0
M  V30 34032 H 3240.13 -3.22554 -1.96894 0
M  V30 34033 H 3240.45 -6.90035 -3.47954 0
M  V30 34034 H 3238.79 -6.20254 -3.13545 0
M  V30 34035 H 3241.98 -4.03869 -2.36659 0
M  V30 34036 H 3242.15 -5.71432 -3.05563 0
M  V30 34037 N 3235.56 0.928479 -1.27346 0
M  V30 34038 C 3236.52 2.01053 -1.10047 0
M  V30 34039 C 3237.52 1.60738 -0.0447075 0
M  V30 34040 O 3238.71 1.71782 -0.289232 0
M  V30 34041 C 3235.85 3.34118 -0.676618 0
M  V30 34042 H 3237.04 2.17831 -2.0613 0
M  V30 34043 H 3234.59 1.10917 -1.10123 0
M  V30 34044 H 3235.33 3.2304 0.28564 0
M  V30 34045 H 3235.11 3.64736 -1.4391 0
M  V30 34046 H 3236.6 4.13583 -0.577797 0
M  V30 34047 N 3237.04 1.09355 1.13486 0
M  V30 34048 C 3237.97 0.754129 2.20987 0
M  V30 34049 C 3238.95 -0.267871 1.67978 0
M  V30 34050 O 3240.13 -0.136094 1.93723 0
M  V30 34051 C 3237.26 0.173103 3.46868 0
M  V30 34052 C 3236.22 1.12454 4.12963 0
M  V30 34053 C 3235.54 0.405251 5.33162 0
M  V30 34054 C 3236.84 2.46666 4.60384 0
M  V30 34055 H 3238.54 1.65294 2.49636 0
M  V30 34056 H 3236.08 0.796203 1.19986 0
M  V30 34057 H 3238.04 -0.0764247 4.21331 0
M  V30 34058 H 3236.76 -0.7609 3.17613 0
M  V30 34059 H 3235.42 1.35933 3.40467 0
M  V30 34060 H 3235.07 -0.532867 5.0017 0
M  V30 34061 H 3234.77 1.03962 5.7833 0
M  V30 34062 H 3236.29 0.164006 6.1038 0
M  V30 34063 H 3237.71 2.27399 5.26272 0
M  V30 34064 H 3236.1 3.05885 5.16289 0
M  V30 34065 H 3237.17 3.07482 3.74944 0
M  V30 34066 N 3238.52 -1.307 0.880644 0
M  V30 34067 C 3239.45 -2.30704 0.360292 0
M  V30 34068 C 3240.43 -1.60807 -0.554544 0
M  V30 34069 O 3241.61 -1.88444 -0.469312 0
M  V30 34070 C 3238.74 -3.4463 -0.429827 0
M  V30 34071 C 3237.7 -4.26193 0.392861 0
M  V30 34072 C 3237.02 -5.3213 -0.523596 0
M  V30 34073 C 3238.32 -4.96126 1.63266 0
M  V30 34074 H 3240.02 -2.74476 1.19596 0
M  V30 34075 H 3237.56 -1.31955 0.576531 0
M  V30 34076 H 3239.52 -4.1365 -0.804459 0
M  V30 34077 H 3238.24 -2.99651 -1.2991 0
M  V30 34078 H 3236.9 -3.58855 0.749577 0
M  V30 34079 H 3236.55 -4.834 -1.39046 0
M  V30 34080 H 3236.25 -5.87595 0.0230304 0
M  V30 34081 H 3237.77 -6.04007 -0.89484 0
M  V30 34082 H 3239.19 -5.57686 1.32886 0
M  V30 34083 H 3237.58 -5.61437 2.11916 0
M  V30 34084 H 3238.65 -4.22501 2.37952 0
M  V30 34085 N 3240 -0.641156 -1.43969 0
M  V30 34086 C 3240.93 0.044419 -2.33458 0
M  V30 34087 C 3241.91 0.824481 -1.48783 0
M  V30 34088 O 3243.09 0.788366 -1.77478 0
M  V30 34089 C 3240.22 1.01978 -3.3199 0
M  V30 34090 C 3239.18 0.35067 -4.26561 0
M  V30 34091 C 3238.5 1.43664 -5.15039 0
M  V30 34092 C 3239.8 -0.74939 -5.16896 0
M  V30 34093 H 3241.5 -0.702883 -2.91032 0
M  V30 34094 H 3239.04 -0.33946 -1.39942 0
M  V30 34095 H 3240.99 1.50822 -3.93485 0
M  V30 34096 H 3239.72 1.7981 -2.72646 0
M  V30 34097 H 3238.38 -0.117203 -3.66413 0
M  V30 34098 H 3238.03 2.20609 -4.52041 0
M  V30 34099 H 3237.73 0.994256 -5.79127 0
M  V30 34100 H 3239.25 1.92668 -5.79406 0
M  V30 34101 H 3240.66 -0.343635 -5.72269 0
M  V30 34102 H 3239.06 -1.11552 -5.89641 0
M  V30 34103 H 3240.13 -1.6124 -4.57307 0
M  V30 34104 N 3241.47 1.52892 -0.382318 0
M  V30 34105 C 3242.88 1.86467 0.0932513 0
M  V30 34106 C 3243.24 1.30229 1.46748 0
M  V30 34107 O 3242.36 0.630876 2.07 0
M  V30 34108 C 3242.96 3.38343 0.175988 0
M  V30 34109 C 3241.51 3.71654 0.595838 0
M  V30 34110 C 3240.66 2.76202 -0.24656 0
M  V30 34111 H 3243.61 1.46902 -0.600469 0
M  V30 34112 H 3243.63 3.67221 0.996447 0
M  V30 34113 H 3243.15 3.79245 -0.824331 0
M  V30 34114 H 3241.25 3.36318 1.60378 0
M  V30 34115 H 3241.36 4.77754 0.358835 0
M  V30 34116 H 3239.72 2.53077 0.287118 0
M  V30 34117 H 3240.51 3.1994 -1.24473 0
M  V30 34118 N 3242.95 0.111941 1.57202 0
M  V30 34119 C 3243.86 -0.854715 2.18476 0
M  V30 34120 C 3244.88 -1.2979 1.15891 0
M  V30 34121 O 3246.05 -1.36234 1.48332 0
M  V30 34122 C 3243.12 -2.08965 2.76649 0
M  V30 34123 C 3242.18 -1.69906 3.94247 0
M  V30 34124 C 3241.41 -2.87512 4.49636 0
M  V30 34125 O 3241.64 -4.02734 4.03933 0
M  V30 34126 O 3240.57 -2.65005 5.40422 0
M  V30 34127 H 3244.4 -0.363299 3.01519 0
M  V30 34128 H 3241.98 -0.113303 1.4897 0
M  V30 34129 H 3243.86 -2.81305 3.1376 0
M  V30 34130 H 3242.54 -2.57126 1.96641 0
M  V30 34131 H 3241.44 -0.94695 3.61917 0
M  V30 34132 H 3242.78 -1.26493 4.75668 0
M  V30 34133 N 3244.43 -1.56767 -0.161814 0
M  V30 34134 C 3245.66 -1.86403 -0.890921 0
M  V30 34135 C 3246.07 -0.696404 -1.75917 0
M  V30 34136 O 3245.41 0.343432 -1.80461 0
M  V30 34137 C 3245.47 -3.10568 -1.81074 0
M  V30 34138 C 3245.14 -4.43034 -1.12114 0
M  V30 34139 C 3246.13 -5.1766 -0.482061 0
M  V30 34140 C 3243.82 -4.89767 -1.11506 0
M  V30 34141 C 3245.81 -6.37214 0.153884 0
M  V30 34142 C 3243.5 -6.09249 -0.475293 0
M  V30 34143 C 3244.5 -6.82817 0.158064 0
M  V30 34144 O 3244.19 -8.00031 0.787719 0
M  V30 34145 H 3243.92 -0.622412 -0.263779 0
M  V30 34146 H 3246.47 -2.04745 -0.163848 0
M  V30 34147 H 3244.7 -2.88196 -2.57837 0
M  V30 34148 H 3246.39 -3.26573 -2.4105 0
M  V30 34149 H 3247.16 -4.82632 -0.478668 0
M  V30 34150 H 3243.04 -4.32438 -1.59744 0
M  V30 34151 H 3246.58 -6.94576 0.648838 0
M  V30 34152 H 3242.48 -6.4374 -0.476303 0
M  V30 34153 H 3243.24 -8.15604 0.687912 0
M  V30 34154 N 3245.91 0.430686 -1.51601 0
M  V30 34155 C 3247.13 1.20642 -1.68702 0
M  V30 34156 C 3247.56 1.84085 -0.386587 0
M  V30 34157 O 3246.92 1.69096 0.653923 0
M  V30 34158 C 3246.96 2.26125 -2.80891 0
M  V30 34159 O 3246.07 3.31767 -2.44957 0
M  V30 34160 H 3245.41 0.353157 -0.562295 0
M  V30 34161 H 3247.94 0.507772 -1.98199 0
M  V30 34162 H 3247.95 2.70803 -3.05172 0
M  V30 34163 H 3246.62 1.79327 -3.75253 0
M  V30 34164 H 3245.2 2.92519 -2.31273 0
M  V30 34165 N 3247.39 1.4186 0.686559 0
M  V30 34166 C 3248.61 1.45075 1.47516 0
M  V30 34167 C 3249.03 0.05862 1.88709 0
M  V30 34168 O 3248.39 -0.924088 1.57375 0
M  V30 34169 C 3248.44 2.36747 2.7319 0
M  V30 34170 O 3248.16 3.70543 2.3373 0
M  V30 34171 C 3249.66 2.4886 3.66856 0
M  V30 34172 H 3246.88 0.493816 0.454299 0
M  V30 34173 H 3249.42 1.86245 0.844579 0
M  V30 34174 H 3247.58 1.98862 3.32465 0
M  V30 34175 H 3247.99 4.19524 3.14801 0
M  V30 34176 H 3249.47 3.17151 4.51795 0
M  V30 34177 H 3249.94 1.52272 4.11959 0
M  V30 34178 H 3250.55 2.87419 3.13481 0
M  V30 34179 N 3248.86 -0.921712 1.27837 0
M  V30 34180 C 3249.79 -2.04001 1.13604 0
M  V30 34181 C 3250.77 -1.70062 0.0359055 0
M  V30 34182 O 3251.96 -1.93045 0.211472 0
M  V30 34183 C 3249.09 -3.38225 0.788756 0
M  V30 34184 C 3248.04 -3.86297 1.84278 0
M  V30 34185 C 3247.37 -5.17395 1.34933 0
M  V30 34186 C 3248.67 -4.0903 3.24795 0
M  V30 34187 H 3250.36 -2.16166 2.07153 0
M  V30 34188 H 3247.91 -1.03868 0.997368 0
M  V30 34189 H 3249.86 -4.15943 0.675984 0
M  V30 34190 H 3248.59 -3.2609 -0.182442 0
M  V30 34191 H 3247.25 -3.10777 1.94456 0
M  V30 34192 H 3246.89 -5.01656 0.367416 0
M  V30 34193 H 3246.59 -5.50529 2.05406 0
M  V30 34194 H 3248.12 -5.97676 1.24962 0
M  V30 34195 H 3249.53 -4.77298 3.17584 0
M  V30 34196 H 3247.93 -4.53481 3.93033 0
M  V30 34197 H 3249 -3.14116 3.69404 0
M  V30 34198 N 3250.34 -1.09956 -1.12905 0
M  V30 34199 C 3251.57 -0.859689 -1.87864 0
M  V30 34200 C 3251.98 0.593065 -1.79665 0
M  V30 34201 O 3251.32 1.42032 -1.16501 0
M  V30 34202 C 3251.38 -1.22314 -3.38052 0
M  V30 34203 C 3251.05 -2.68192 -3.7003 0
M  V30 34204 C 3252.05 -3.66435 -3.68811 0
M  V30 34205 C 3249.73 -3.04451 -3.99518 0
M  V30 34206 C 3251.72 -4.98962 -3.9663 0
M  V30 34207 C 3249.41 -4.37168 -4.26998 0
M  V30 34208 C 3250.41 -5.34233 -4.2554 0
M  V30 34209 O 3250.1 -6.64561 -4.52342 0
M  V30 34210 H 3249.83 -0.30866 -0.601419 0
M  V30 34211 H 3252.38 -1.46652 -1.43814 0
M  V30 34212 H 3250.61 -0.559389 -3.82633 0
M  V30 34213 H 3252.3 -0.961548 -3.94346 0
M  V30 34214 H 3253.07 -3.39766 -3.46098 0
M  V30 34215 H 3248.95 -2.29528 -3.99797 0
M  V30 34216 H 3252.49 -5.74716 -3.95407 0
M  V30 34217 H 3248.39 -4.63578 -4.49184 0
M  V30 34218 H 3249.16 -6.70117 -4.69985 0
M  V30 34219 N 3251.82 1.30231 -0.887563 0
M  V30 34220 C 3253.24 1.48613 -0.581931 0
M  V30 34221 C 3253.44 1.81284 0.879679 0
M  V30 34222 O 3252.49 1.90201 1.66072 0
M  V30 34223 C 3253.8 2.6077 -1.49731 0
M  V30 34224 C 3255.35 2.7465 -1.50121 0
M  V30 34225 C 3255.83 3.89923 -2.40258 0
M  V30 34226 N 3257.32 3.97238 -2.38236 0
M  V30 34227 C 3258.05 4.85748 -3.0469 0
M  V30 34228 N 3257.55 5.79037 -3.80379 0
M  V30 34229 N 3259.34 4.79139 -2.93909 0
M  V30 34230 H 3251.49 1.07297 -1.83306 0
M  V30 34231 H 3253.76 0.531813 -0.78478 0
M  V30 34232 H 3253.46 2.43457 -2.53814 0
M  V30 34233 H 3253.34 3.57306 -1.2088 0
M  V30 34234 H 3255.72 2.91367 -0.467883 0
M  V30 34235 H 3255.8 1.78727 -1.83004 0
M  V30 34236 H 3255.45 3.73963 -3.43678 0
M  V30 34237 H 3255.38 4.8519 -2.04691 0
M  V30 34238 H 3257.87 3.30505 -1.83235 0
M  V30 34239 H 3258.18 6.43343 -4.28171 0
M  V30 34240 H 3256.53 5.7896 -3.84487 0
M  V30 34241 H 3259.72 4.0524 -2.34303 0
M  V30 34242 H 3259.89 5.47909 -3.45976 0
M  V30 34243 N 3253.3 0.648782 1.43627 0
M  V30 34244 C 3254.71 0.315948 1.56441 0
M  V30 34245 C 3254.91 -1.18015 1.63324 0
M  V30 34246 O 3253.97 -1.96484 1.58589 0
M  V30 34247 C 3255.28 1.0234 2.82749 0
M  V30 34248 C 3256.83 1.00323 2.96487 0
M  V30 34249 C 3257.31 1.69149 4.2562 0
M  V30 34250 N 3258.8 1.65892 4.32474 0
M  V30 34251 C 3259.53 2.16025 5.3115 0
M  V30 34252 N 3259.03 2.74427 6.3613 0
M  V30 34253 N 3260.82 2.06551 5.22775 0
M  V30 34254 H 3252.97 1.6197 1.37402 0
M  V30 34255 H 3255.24 0.680898 0.659608 0
M  V30 34256 H 3254.94 2.07849 2.8371 0
M  V30 34257 H 3254.82 0.572179 3.72835 0
M  V30 34258 H 3257.2 -0.0434401 2.95068 0
M  V30 34259 H 3257.28 1.49311 2.07702 0
M  V30 34260 H 3256.93 2.73771 4.27799 0
M  V30 34261 H 3256.86 1.17631 5.13294 0
M  V30 34262 H 3259.35 1.2327 3.57229 0
M  V30 34263 H 3259.66 3.10368 7.07737 0
M  V30 34264 H 3258.01 2.78485 6.36766 0
M  V30 34265 H 3261.2 1.60633 4.39676 0
M  V30 34266 H 3261.37 2.4593 5.99519 0
M  V30 34267 N 3254.78 -1.52688 0.390421 0
M  V30 34268 C 3256.02 -2.02565 -0.184159 0
M  V30 34269 C 3256.38 -1.27174 -1.44377 0
M  V30 34270 O 3255.67 -0.363983 -1.88111 0
M  V30 34271 C 3255.86 -3.5382 -0.504618 0
M  V30 34272 C 3255.69 -4.4386 0.722382 0
M  V30 34273 C 3254.46 -4.89799 1.24198 0
M  V30 34274 C 3256.66 -4.88941 1.59503 0
M  V30 34275 N 3254.64 -5.63913 2.42641 0
M  V30 34276 C 3256.01 -5.61648 2.62587 0
M  V30 34277 C 3258.07 -4.7098 1.61499 0
M  V30 34278 C 3256.77 -6.18301 3.67555 0
M  V30 34279 C 3258.8 -5.28517 2.65374 0
M  V30 34280 C 3258.16 -6.0113 3.67181 0
M  V30 34281 H 3254.26 -0.781445 -0.0294468 0
M  V30 34282 H 3256.84 -1.87045 0.540563 0
M  V30 34283 H 3255.01 -3.6945 -1.19839 0
M  V30 34284 H 3256.75 -3.90396 -1.06645 0
M  V30 34285 H 3253.5 -4.66746 0.802813 0
M  V30 34286 H 3253.93 -6.05622 3.02575 0
M  V30 34287 H 3258.57 -4.14344 0.841363 0
M  V30 34288 H 3256.29 -6.74019 4.45784 0
M  V30 34289 H 3259.87 -5.165 2.67804 0
M  V30 34290 H 3258.75 -6.44857 4.46239 0
M  V30 34291 N 3256.25 -0.120276 -1.5714 0
M  V30 34292 C 3257.18 0.826074 -2.18399 0
M  V30 34293 C 3258.17 1.27636 -1.12441 0
M  V30 34294 O 3259.35 1.33874 -1.40682 0
M  V30 34295 C 3256.48 2.07575 -2.78442 0
M  V30 34296 C 3255.43 1.76321 -3.89994 0
M  V30 34297 C 3254.76 3.08329 -4.3685 0
M  V30 34298 C 3256.06 1.03053 -5.12033 0
M  V30 34299 H 3257.75 0.315604 -2.97732 0
M  V30 34300 H 3255.3 0.150361 -1.43213 0
M  V30 34301 H 3257.25 2.74238 -3.19956 0
M  V30 34302 H 3255.98 2.60949 -1.964 0
M  V30 34303 H 3254.64 1.12047 -3.49057 0
M  V30 34304 H 3254.28 3.59639 -3.51665 0
M  V30 34305 H 3253.98 2.8819 -5.12075 0
M  V30 34306 H 3255.51 3.76107 -4.81015 0
M  V30 34307 H 3256.92 1.59871 -5.50558 0
M  V30 34308 H 3255.32 0.930042 -5.92849 0
M  V30 34309 H 3256.39 0.0174968 -4.84897 0
M  V30 34310 N 3257.73 1.56851 0.153498 0
M  V30 34311 C 3259.01 1.73896 0.895514 0
M  V30 34312 C 3259.39 0.686539 1.99624 0
M  V30 34313 O 3258.74 -0.29566 2.26579 0
M  V30 34314 C 3258.95 3.17729 1.44393 0
M  V30 34315 C 3260.3 3.79221 1.90989 0
M  V30 34316 O 3261.32 3.21118 1.54149 0
M  V30 34317 O 3260.18 4.81278 2.58908 0
M  V30 34318 H 3257.27 0.710787 0.422742 0
M  V30 34319 H 3259.82 1.69122 0.139932 0
M  V30 34320 H 3258.59 3.8582 0.652568 0
M  V30 34321 H 3258.21 3.26902 2.2632 0
M  V30 34322 N 3259.21 -0.42264 1.51827 0
M  V30 34323 C 3260.44 -1.19745 1.69339 0
M  V30 34324 C 3260.86 -1.83877 0.396344 0
M  V30 34325 O 3260.22 -1.69441 -0.644946 0
M  V30 34326 C 3260.27 -2.24632 2.82086 0
M  V30 34327 O 3259.37 -3.30464 2.46713 0
M  V30 34328 H 3258.71 -0.35017 0.56416 0
M  V30 34329 H 3261.24 -0.497254 1.98465 0
M  V30 34330 H 3261.25 -2.69181 3.06603 0
M  V30 34331 H 3259.93 -1.77335 3.76198 0
M  V30 34332 H 3258.5 -2.91289 2.32821 0
M  V30 34333 N 3260.69 -1.42222 -0.679027 0
M  V30 34334 C 3261.94 -1.42465 -1.43909 0
M  V30 34335 C 3262.26 -0.0395916 -1.9446 0
M  V30 34336 O 3261.52 0.951335 -1.71021 0
M  V30 34337 C 3261.82 -2.39232 -2.65524 0
M  V30 34338 C 3261.48 -3.85708 -2.33539 0
M  V30 34339 C 3260.15 -4.25607 -2.24526 0
M  V30 34340 C 3262.5 -4.7812 -2.07487 0
M  V30 34341 C 3259.83 -5.55904 -1.87583 0
M  V30 34342 C 3262.18 -6.08755 -1.72048 0
M  V30 34343 C 3260.84 -6.47657 -1.61543 0
M  V30 34344 H 3260.11 -0.521318 -0.526601 0
M  V30 34345 H 3262.76 -1.75133 -0.77463 0
M  V30 34346 H 3261.06 -1.99876 -3.36982 0
M  V30 34347 H 3262.76 -2.36687 -3.23698 0
M  V30 34348 H 3259.35 -3.54116 -2.41453 0
M  V30 34349 H 3263.53 -4.48085 -2.13385 0
M  V30 34350 H 3258.79 -5.84911 -1.78015 0
M  V30 34351 H 3262.96 -6.79851 -1.50914 0
M  V30 34352 H 3260.59 -7.48531 -1.32686 0
M  V30 34353 O 3262.21 0.821507 -1.39045 0
M  V30 34354 H 3262.9 1.46496 -1.26723 0
M  V30 END ATOM
M  V30 BEGIN BOND
M  V30 END BOND
M  V30 END CTAB
M  END
$$$$
