drugbank_target|P06396 Gelsolin (DB01593; DB02621; DB09130; DB14487)
 OpenBabel12092120483D

  0  0  0     0  0            999 V3000
M  V30 BEGIN CTAB
M  V30 COUNTS 11957 12095 0 0 0
M  V30 BEGIN ATOM
M  V30 1 H -0.908 1.98254 -0.117106 0
M  V30 2 N 0 1.576 0 0
M  V30 3 C 0.933 2.03868 1.02534 0
M  V30 4 C 1.911 0.928543 1.3348 0
M  V30 5 O 3.095 1.19667 1.45644 0
M  V30 6 C 0.222 2.43627 2.35294 0
M  V30 7 C -0.732 3.65373 2.2001 0
M  V30 8 S 0.101 5.13292 1.52614 0
M  V30 9 C 1.257 5.56322 2.86805 0
M  V30 10 H 1.49 2.90518 0.631377 0
M  V30 11 H -0.977 1.52953 0.210867 0
M  V30 12 H 0.981 2.67203 3.11629 0
M  V30 13 H -0.358 1.57376 2.7183 0
M  V30 14 H -1.165 3.90944 3.18086 0
M  V30 15 H -1.563 3.418 1.51819 0
M  V30 16 H 0.729 5.58782 3.83104 0
M  V30 17 H 1.672 6.56266 2.65933 0
M  V30 18 H 2.08 4.83886 2.90714 0
M  V30 19 N 1.4781 -0.272755 1.55222 0
M  V30 20 C 2.4411 -1.32041 1.87344 0
M  V30 21 C 3.4411 -1.42342 0.74803 0
M  V30 22 O 4.6311 -1.41488 1.0162 0
M  V30 23 C 1.7631 -2.70173 2.07893 0
M  V30 24 H 2.9561 -1.04789 2.80997 0
M  V30 25 H 0.5091 -0.51083 1.47717 0
M  V30 26 H 1.2441 -3.02605 1.16622 0
M  V30 27 H 1.0291 -2.64082 2.89833 0
M  V30 28 H 2.5191 -3.45869 2.34017 0
M  V30 29 N 2.9562 -1.48159 -0.537278 0
M  V30 30 C 4.3672 -1.49429 -1.11928 0
M  V30 31 C 4.7182 -0.26 -1.9447 0
M  V30 32 O 3.8432 0.633489 -2.0692 0
M  V30 33 C 4.4382 -2.70758 -2.03656 0
M  V30 34 C 2.9972 -2.74923 -2.57088 0
M  V30 35 C 2.1442 -2.42835 -1.3389 0
M  V30 36 H 5.0952 -1.55381 -0.322886 0
M  V30 37 H 5.1162 -2.48861 -2.87834 0
M  V30 38 H 4.6282 -3.60575 -1.43553 0
M  V30 39 H 2.7292 -1.89296 -3.20933 0
M  V30 40 H 2.8422 -3.76157 -2.9672 0
M  V30 41 H 1.2062 -1.93836 -1.65226 0
M  V30 42 H 1.9892 -3.34884 -0.755504 0
M  V30 43 N 4.4343 0.785586 -1.36625 0
M  V30 44 C 5.3843 1.88822 -1.27789 0
M  V30 45 C 6.3683 1.60014 -0.168579 0
M  V30 46 O 7.5603 1.72381 -0.401737 0
M  V30 47 C 4.6893 3.26092 -1.07327 0
M  V30 48 C 3.7753 3.60897 -2.22743 0
M  V30 49 N 4.1663 3.66982 -3.48077 0
M  V30 50 C 2.4643 3.90981 -2.14593 0
M  V30 51 C 3.1653 3.98137 -4.24101 0
M  V30 52 N 2.1413 4.13319 -3.53084 0
M  V30 53 H 5.9433 1.91759 -2.22723 0
M  V30 54 H 3.4573 0.981311 -1.29399 0
M  V30 55 H 5.4543 4.04954 -0.990842 0
M  V30 56 H 4.1143 3.24428 -0.132977 0
M  V30 57 H 5.1253 3.49531 -3.82163 0
M  V30 58 H 1.8023 3.9722 -1.2854 0
M  V30 59 H 3.1923 4.09737 -5.32509 0
M  V30 60 N 5.9124 1.20967 1.01018 0
M  V30 61 C 7.3284 0.965905 1.27053 0
M  V30 62 C 7.5284 -0.350785 1.98423 0
M  V30 63 O 6.5844 -1.07773 2.28344 0
M  V30 64 C 7.8974 2.15294 2.09926 0
M  V30 65 C 9.4454 2.19463 2.23171 0
M  V30 66 C 9.9204 3.3767 3.09424 0
M  V30 67 N 11.4114 3.37724 3.17012 0
M  V30 68 C 12.1464 4.25837 3.83993 0
M  V30 69 N 11.6424 5.24138 4.53047 0
M  V30 70 N 13.4354 4.1366 3.80581 0
M  V30 71 H 5.5864 2.0565 0.531194 0
M  V30 72 H 7.8494 0.90024 0.297106 0
M  V30 73 H 7.5554 3.10684 1.64828 0
M  V30 74 H 7.4294 2.13923 3.10672 0
M  V30 75 H 9.8164 1.24632 2.6749 0
M  V30 76 H 9.8974 2.2488 1.21912 0
M  V30 77 H 9.5414 4.32791 2.65808 0
M  V30 78 H 9.4714 3.29491 4.10784 0
M  V30 79 H 11.9624 2.6658 2.6785 0
M  V30 80 H 12.2754 5.87684 5.01844 0
M  V30 81 H 10.6204 5.28068 4.5185 0
M  V30 82 H 13.8114 3.36127 3.25785 0
M  V30 83 H 13.9844 4.82538 4.32505 0
M  V30 84 N 7.3905 -1.2043 1.01659 0
M  V30 85 C 8.8015 -1.71517 0.737482 0
M  V30 86 C 9.1525 -1.81547 -0.743973 0
M  V30 87 O 8.2775 -1.47803 -1.58061 0
M  V30 88 C 8.8725 -3.11515 1.33206 0
M  V30 89 C 7.4315 -3.59912 1.10183 0
M  V30 90 C 6.5785 -2.37116 1.43776 0
M  V30 91 H 9.5295 -1.05444 1.18606 0
M  V30 92 H 9.5505 -3.73575 0.722636 0
M  V30 93 H 9.0625 -3.04182 2.41028 0
M  V30 94 H 7.1635 -3.72577 0.0412756 0
M  V30 95 H 7.2765 -4.44731 1.78188 0
M  V30 96 H 5.6405 -2.39857 0.856778 0
M  V30 97 H 6.4235 -2.32424 2.52654 0
M  V30 98 N 8.8686 -0.792821 -1.36206 0
M  V30 99 C 9.8316 -0.199459 -2.2833 0
M  V30 100 C 10.8316 0.605189 -1.48977 0
M  V30 101 O 12.0216 0.425685 -1.68919 0
M  V30 102 C 9.1536 0.723523 -3.33134 0
M  V30 103 H 10.3466 -1.01181 -2.82316 0
M  V30 104 H 7.8996 -0.562485 -1.45828 0
M  V30 105 H 8.6346 1.56008 -2.84309 0
M  V30 106 H 8.4196 0.148436 -3.91819 0
M  V30 107 H 9.9096 1.13344 -4.01924 0
M  V30 108 N 10.3467 1.47872 -0.545128 0
M  V30 109 C 11.7577 1.86384 -0.108581 0
M  V30 110 C 12.1087 1.45309 1.31832 0
M  V30 111 O 11.2337 0.850641 1.9898 0
M  V30 112 C 11.8287 3.38265 -0.190274 0
M  V30 113 C 10.3877 3.75914 0.191164 0
M  V30 114 C 9.5347 2.71926 -0.543273 0
M  V30 115 H 12.4857 1.39561 -0.755537 0
M  V30 116 H 12.5067 3.75831 0.594217 0
M  V30 117 H 12.0187 3.6813 -1.2289 0
M  V30 118 H 10.1197 3.51665 1.23136 0
M  V30 119 H 10.2327 4.78836 -0.158987 0
M  V30 120 H 8.5967 2.54697 0.0122495 0
M  V30 121 H 9.3797 3.04634 -1.58282 0
M  V30 122 N 11.8248 0.280983 1.55075 0
M  V30 123 C 12.7878 -0.590896 2.21452 0
M  V30 124 C 13.7878 -1.07682 1.19421 0
M  V30 125 O 14.9778 -0.97605 1.44288 0
M  V30 126 C 12.1098 -1.81587 2.88511 0
M  V30 127 H 13.3028 -0.0112554 2.99898 0
M  V30 128 H 10.8558 0.0316438 1.56268 0
M  V30 129 H 11.5908 -2.43587 2.14093 0
M  V30 130 H 11.3758 -1.4753 3.63287 0
M  V30 131 H 12.8658 -2.43575 3.39206 0
M  V30 132 N 13.3029 -1.57598 0.00835791 0
M  V30 133 C 14.2329 -2.1198 -0.979113 0
M  V30 134 C 15.2139 -1.03091 -1.35301 0
M  V30 135 O 16.3989 -1.30818 -1.43528 0
M  V30 136 C 13.5289 -2.62995 -2.26828 0
M  V30 137 C 12.4829 -3.76485 -2.03576 0
M  V30 138 C 11.8089 -4.13846 -3.38579 0
M  V30 139 C 13.1089 -5.0342 -1.39161 0
M  V30 140 H 14.8029 -2.94738 -0.526281 0
M  V30 141 H 12.3489 -1.41783 -0.251704 0
M  V30 142 H 14.3019 -2.99669 -2.96271 0
M  V30 143 H 13.0259 -1.7737 -2.7424 0
M  V30 144 H 11.6849 -3.40217 -1.36557 0
M  V30 145 H 11.3329 -3.25232 -3.83709 0
M  V30 146 H 11.0329 -4.90312 -3.23834 0
M  V30 147 H 12.5569 -4.53086 -4.09323 0
M  V30 148 H 13.9709 -5.37812 -1.98573 0
M  V30 149 H 12.3679 -5.84746 -1.34878 0
M  V30 150 H 13.4379 -4.83548 -0.361868 0
M  V30 151 N 14.781 0.264519 -1.55364 0
M  V30 152 C 15.711 1.33121 -1.91836 0
M  V30 153 C 16.692 1.51101 -0.781192 0
M  V30 154 O 17.877 1.64003 -1.04003 0
M  V30 155 C 15.007 2.68921 -2.19769 0
M  V30 156 C 13.961 2.65661 -3.35571 0
M  V30 157 C 13.287 4.05093 -3.49004 0
M  V30 158 C 14.587 2.24187 -4.71739 0
M  V30 159 H 16.281 1.02844 -2.81182 0
M  V30 160 H 13.827 0.493286 -1.35287 0
M  V30 161 H 15.78 3.43663 -2.43872 0
M  V30 162 H 14.504 3.00799 -1.27231 0
M  V30 163 H 13.163 1.93377 -3.1145 0
M  V30 164 H 12.811 4.34206 -2.53917 0
M  V30 165 H 12.511 4.03804 -4.26868 0
M  V30 166 H 14.035 4.81561 -3.75408 0
M  V30 167 H 15.449 2.88654 -4.9533 0
M  V30 168 H 13.846 2.34044 -5.52579 0
M  V30 169 H 14.916 1.19327 -4.69988 0
M  V30 170 N 16.2591 1.48442 0.529413 0
M  V30 171 C 17.4991 1.58086 1.29569 0
M  V30 172 C 17.8631 0.249302 1.90375 0
M  V30 173 O 19.0641 0.220738 2.67892 0
M  V30 174 C 17.3351 2.68793 2.35552 0
M  V30 175 S 18.8941 2.98207 3.21898 0
M  V30 176 H 15.7121 0.557922 0.440732 0
M  V30 177 H 18.3141 1.85966 0.603059 0
M  V30 178 H 17.0181 3.64102 1.89363 0
M  V30 179 H 16.5491 2.42817 3.09522 0
M  V30 180 H 18.5641 2.37548 4.35644 0
M  V30 181 N 17.7372 -0.778329 1.37039 0
M  V30 182 C 18.7002 -1.87301 1.32102 0
M  V30 183 C 19.7002 -1.59198 0.226405 0
M  V30 184 O 20.8902 -1.67403 0.481861 0
M  V30 185 C 18.0222 -3.24309 1.05055 0
M  V30 186 H 19.2152 -1.93093 2.29467 0
M  V30 187 H 16.7682 -0.977358 1.21973 0
M  V30 188 H 17.5032 -3.24196 0.0819373 0
M  V30 189 H 17.2882 -3.46098 1.84279 0
M  V30 190 H 18.7782 -4.04382 1.04234 0
M  V30 191 N 19.2153 -1.21501 -1.00376 0
M  V30 192 C 20.1453 -0.999478 -2.11028 0
M  V30 193 C 21.1263 0.0759671 -1.6993 0
M  V30 194 O 22.3113 -0.0841106 -1.94018 0
M  V30 195 C 19.4413 -0.564709 -3.42678 0
M  V30 196 C 18.3953 -1.58486 -3.97576 0
M  V30 197 C 17.7213 -1.00628 -5.25146 0
M  V30 198 C 19.0213 -2.97204 -4.29496 0
M  V30 199 H 20.7153 -1.92495 -2.29317 0
M  V30 200 H 18.2613 -0.92693 -1.102 0
M  V30 201 H 20.2143 -0.401091 -4.19487 0
M  V30 202 H 18.9383 0.396411 -3.24185 0
M  V30 203 H 17.5973 -1.73606 -3.22888 0
M  V30 204 H 17.2453 -0.0368439 -5.02987 0
M  V30 205 H 16.9453 -1.68771 -5.62841 0
M  V30 206 H 18.4693 -0.854015 -6.04598 0
M  V30 207 H 19.8833 -2.8552 -4.97143 0
M  V30 208 H 18.2803 -3.62372 -4.78338 0
M  V30 209 H 19.3503 -3.47956 -3.3772 0
M  V30 210 N 20.6934 1.19889 -1.02296 0
M  V30 211 C 21.9184 1.9393 -0.735237 0
M  V30 212 C 22.3434 1.74639 0.698782 0
M  V30 213 O 21.7014 1.04481 1.48167 0
M  V30 214 C 21.7494 3.43916 -1.08417 0
M  V30 215 O 20.8534 4.11917 -0.199446 0
M  V30 216 H 20.1944 0.605645 -0.272196 0
M  V30 217 H 22.7244 1.52137 -1.36804 0
M  V30 218 H 22.7344 3.9456 -1.03856 0
M  V30 219 H 21.4094 3.5728 -2.12894 0
M  V30 220 H 19.9864 3.71666 -0.303136 0
M  V30 221 N 22.1715 0.800033 1.35784 0
M  V30 222 C 23.1015 0.220184 2.3246 0
M  V30 223 C 24.0825 -0.65073 1.57161 0
M  V30 224 O 25.2675 -0.582359 1.85263 0
M  V30 225 C 22.3975 -0.637353 3.41402 0
M  V30 226 C 21.3515 0.134531 4.27789 0
M  V30 227 C 20.6775 -0.844285 5.27992 0
M  V30 228 C 21.9775 1.32979 5.05088 0
M  V30 229 H 23.6715 1.02787 2.81203 0
M  V30 230 H 21.2175 0.495717 1.35199 0
M  V30 231 H 23.1705 -1.05302 4.08031 0
M  V30 232 H 21.8945 -1.47785 2.91251 0
M  V30 233 H 20.5535 0.531296 3.6273 0
M  V30 234 H 20.2015 -1.68011 4.74111 0
M  V30 235 H 19.9015 -0.332184 5.8666 0
M  V30 236 H 21.4255 -1.2583 5.97494 0
M  V30 237 H 22.8395 0.98934 5.64699 0
M  V30 238 H 21.2365 1.77593 5.7322 0
M  V30 239 H 22.3065 2.11978 4.36111 0
M  V30 240 N 23.6496 -1.47581 0.552962 0
M  V30 241 C 24.6126 -2.28439 -0.186605 0
M  V30 242 C 25.6126 -1.36706 -0.84665 0
M  V30 243 O 26.8026 -1.59378 -0.703164 0
M  V30 244 C 23.9346 -3.16264 -1.2724 0
M  V30 245 H 25.1276 -2.95294 0.523609 0
M  V30 246 H 22.6806 -1.532 0.309745 0
M  V30 247 H 23.4156 -2.54091 -2.01514 0
M  V30 248 H 23.2006 -3.83769 -0.803968 0
M  V30 249 H 24.6906 -3.77198 -1.79196 0
M  V30 250 N 25.1277 -0.289203 -1.54924 0
M  V30 251 C 26.0577 0.58549 -2.2604 0
M  V30 252 C 27.0387 1.14753 -1.25562 0
M  V30 253 O 28.2237 1.17906 -1.54311 0
M  V30 254 C 25.3537 1.76305 -2.99222 0
M  V30 255 C 24.3077 1.33191 -4.06748 0
M  V30 256 C 23.6337 2.5937 -4.6758 0
M  V30 257 C 24.9337 0.471775 -5.20165 0
M  V30 258 H 26.6277 -0.00763532 -2.99399 0
M  V30 259 H 24.1737 -0.00511229 -1.43999 0
M  V30 260 H 26.1267 2.38097 -3.47689 0
M  V30 261 H 24.8507 2.38223 -2.23422 0
M  V30 262 H 23.5097 0.737121 -3.59113 0
M  V30 263 H 23.1577 3.19576 -3.88433 0
M  V30 264 H 22.8577 2.31228 -5.40192 0
M  V30 265 H 24.3817 3.21985 -5.18804 0
M  V30 266 H 25.7957 0.995056 -5.64599 0
M  V30 267 H 24.1927 0.284639 -5.99425 0
M  V30 268 H 25.2627 -0.506041 -4.82252 0
M  V30 269 N 26.6058 1.57591 -0.0167156 0
M  V30 270 C 27.8458 1.93145 0.668902 0
M  V30 271 C 28.2098 0.892406 1.7 0
M  V30 272 O 29.4108 1.13373 2.43721 0
M  V30 273 C 27.6818 3.33678 1.28039 0
M  V30 274 S 29.2408 3.91142 1.9888 0
M  V30 275 H 26.0588 0.67593 0.220545 0
M  V30 276 H 28.6608 1.95347 -0.0774105 0
M  V30 277 H 27.3648 4.07126 0.517339 0
M  V30 278 H 26.8958 3.3489 2.06427 0
M  V30 279 H 28.9108 3.73571 3.26587 0
M  V30 280 N 28.0839 -0.256276 1.55502 0
M  V30 281 C 29.0469 -1.30047 1.88734 0
M  V30 282 C 30.0469 -1.4154 0.763086 0
M  V30 283 O 31.2369 -1.40403 1.03115 0
M  V30 284 C 28.3689 -2.67953 2.10747 0
M  V30 285 H 29.5619 -1.01802 2.82093 0
M  V30 286 H 27.1149 -0.495134 1.4825 0
M  V30 287 H 27.8499 -3.01351 1.19825 0
M  V30 288 H 27.6349 -2.60993 2.92617 0
M  V30 289 H 29.1249 -3.43368 2.37673 0
M  V30 290 N 29.562 -1.4872 -0.521534 0
M  V30 291 C 30.492 -1.66771 -1.63431 0
M  V30 292 C 31.473 -0.516499 -1.62069 0
M  V30 293 O 32.658 -0.750013 -1.79132 0
M  V30 294 C 29.788 -1.71515 -3.01993 0
M  V30 295 C 28.742 -2.86222 -3.18216 0
M  V30 296 C 28.068 -2.76061 -4.57924 0
M  V30 297 C 29.368 -4.27419 -3.00184 0
M  V30 298 H 31.062 -2.59932 -1.48579 0
M  V30 299 H 28.608 -1.25089 -0.713358 0
M  V30 300 H 30.561 -1.82731 -3.7972 0
M  V30 301 H 29.285 -0.749393 -3.17886 0
M  V30 302 H 27.944 -2.74575 -2.42908 0
M  V30 303 H 27.592 -1.77437 -4.70665 0
M  V30 304 H 27.292 -3.53037 -4.69722 0
M  V30 305 H 28.816 -2.89256 -5.37739 0
M  V30 306 H 30.23 -4.39855 -3.67697 0
M  V30 307 H 28.627 -5.05458 -3.2347 0
M  V30 308 H 29.697 -4.43293 -1.96518 0
M  V30 309 N 31.0401 0.771051 -1.3745 0
M  V30 310 C 32.2651 1.56529 -1.36065 0
M  V30 311 C 32.6901 1.88029 0.0515859 0
M  V30 312 O 32.0481 1.49282 1.02882 0
M  V30 313 C 32.0961 2.85187 -2.20683 0
M  V30 314 O 31.2001 3.79593 -1.61193 0
M  V30 315 H 30.5411 0.47411 -0.464883 0
M  V30 316 H 33.0711 0.954269 -1.80983 0
M  V30 317 H 33.0811 3.34283 -2.33921 0
M  V30 318 H 31.7561 2.61588 -3.23334 0
M  V30 319 H 30.3331 3.38239 -1.56999 0
M  V30 320 N 32.5182 1.22032 0.997298 0
M  V30 321 C 33.4482 1.01065 2.10495 0
M  V30 322 C 34.4292 -0.0669542 1.69968 0
M  V30 323 O 35.6142 0.0943987 1.9397 0
M  V30 324 C 32.7442 0.582874 3.42374 0
M  V30 325 C 31.6982 1.60592 3.96729 0
M  V30 326 C 31.0242 1.03412 5.24605 0
M  V30 327 C 32.3242 2.99478 4.27914 0
M  V30 328 H 34.0182 1.93708 2.28292 0
M  V30 329 H 31.5642 0.932761 1.09707 0
M  V30 330 H 33.5172 0.423332 4.19268 0
M  V30 331 H 32.2412 -0.379213 3.24391 0
M  V30 332 H 30.9002 1.75316 3.21963 0
M  V30 333 H 30.5482 0.063518 5.0296 0
M  V30 334 H 30.2482 1.71754 5.61938 0
M  V30 335 H 31.7722 0.886066 6.04137 0
M  V30 336 H 33.1862 2.88153 4.95622 0
M  V30 337 H 31.5832 3.64903 4.76409 0
M  V30 338 H 32.6532 3.49742 3.3587 0
M  V30 339 N 33.9963 -1.19345 1.0293 0
M  V30 340 C 35.4073 -1.70725 0.755633 0
M  V30 341 C 35.7583 -1.82326 -0.724676 0
M  V30 342 O 34.8833 -1.49471 -1.56484 0
M  V30 343 C 35.4783 -3.10084 1.36503 0
M  V30 344 C 34.0373 -3.58723 1.13994 0
M  V30 345 C 33.1843 -2.35577 1.46283 0
M  V30 346 H 36.1353 -1.0418 1.19718 0
M  V30 347 H 36.1563 -3.72787 0.762217 0
M  V30 348 H 35.6683 -3.01609 2.44241 0
M  V30 349 H 33.7693 -3.72512 0.0807901 0
M  V30 350 H 33.8823 -4.42816 1.82894 0
M  V30 351 H 32.2463 -2.38935 0.88217 0
M  V30 352 H 33.0293 -2.29731 2.55105 0
M  V30 353 N 35.4744 -0.807222 -1.35358 0
M  V30 354 C 36.7204 -0.388463 -1.99045 0
M  V30 355 C 37.0534 1.04184 -1.63888 0
M  V30 356 O 36.3284 1.72292 -0.902535 0
M  V30 357 C 36.6114 -0.572783 -3.55515 0
M  V30 358 C 36.4644 -2.04807 -4.00468 0
M  V30 359 C 37.7834 0.00114064 -4.401 0
M  V30 360 H 34.9024 -0.142619 -0.723069 0
M  V30 361 H 37.5444 -1.01687 -1.60498 0
M  V30 362 H 35.6944 -0.0378425 -3.88482 0
M  V30 363 H 37.3664 -2.64544 -3.77908 0
M  V30 364 H 35.6094 -2.54427 -3.51353 0
M  V30 365 H 36.2804 -2.12792 -5.09337 0
M  V30 366 H 38.7564 -0.455716 -4.13597 0
M  V30 367 H 37.6324 -0.157737 -5.48673 0
M  V30 368 H 37.8934 1.09488 -4.28328 0
M  V30 369 N 36.9525 1.47285 -0.560781 0
M  V30 370 C 38.3685 1.58065 -0.22081 0
M  V30 371 C 38.5685 1.55892 1.27671 0
M  V30 372 O 37.6245 1.46422 2.0571 0
M  V30 373 C 38.9375 2.88418 -0.850625 0
M  V30 374 C 40.4855 3.02009 -0.822184 0
M  V30 375 C 40.9605 4.35066 -1.43113 0
M  V30 376 N 42.4515 4.41711 -1.39448 0
M  V30 377 C 43.1865 5.43237 -1.83525 0
M  V30 378 N 42.6825 6.51555 -2.35474 0
M  V30 379 N 44.4755 5.34304 -1.74574 0
M  V30 380 H 36.6265 1.46941 -1.53369 0
M  V30 381 H 38.8895 0.699558 -0.639783 0
M  V30 382 H 38.5955 2.95755 -1.9032 0
M  V30 383 H 38.4695 3.75612 -0.345773 0
M  V30 384 H 40.8565 2.94266 0.221714 0
M  V30 385 H 40.9375 2.16347 -1.36483 0
M  V30 386 H 40.5815 4.43565 -2.47412 0
M  V30 387 H 40.5115 5.19465 -0.863899 0
M  V30 388 H 43.0025 3.64027 -1.01452 0
M  V30 389 H 43.3155 7.25203 -2.67021 0
M  V30 390 H 41.6605 6.52435 -2.39487 0
M  V30 391 H 44.8515 4.48581 -1.33763 0
M  V30 392 H 45.0245 6.13288 -2.09242 0
M  V30 393 N 38.4306 0.297415 1.54768 0
M  V30 394 C 39.3936 -0.567375 2.22066 0
M  V30 395 C 40.3936 -1.06409 1.20556 0
M  V30 396 O 41.5836 -0.960691 1.45315 0
M  V30 397 C 38.7156 -1.78517 2.90421 0
M  V30 398 H 39.9086 0.0205534 2.99893 0
M  V30 399 H 37.4616 0.0482163 1.56226 0
M  V30 400 H 38.1966 -2.41303 2.16664 0
M  V30 401 H 37.9816 -1.43669 3.64831 0
M  V30 402 H 39.4716 -2.39964 3.41771 0
M  V30 403 N 39.9087 -1.5758 0.0250728 0
M  V30 404 C 40.8717 -2.08896 -0.943139 0
M  V30 405 C 41.8717 -1.00321 -1.25668 0
M  V30 406 O 43.0617 -1.26495 -1.19769 0
M  V30 407 C 40.1937 -2.55143 -2.26086 0
M  V30 408 H 41.3867 -2.95723 -0.498775 0
M  V30 409 H 38.9397 -1.54703 -0.222888 0
M  V30 410 H 39.6747 -1.71633 -2.75159 0
M  V30 411 H 39.4597 -3.34461 -2.04641 0
M  V30 412 H 40.9497 -2.95083 -2.95492 0
M  V30 413 N 41.3868 0.248026 -1.55636 0
M  V30 414 C 42.6148 0.993808 -1.81469 0
M  V30 415 C 43.0298 1.78991 -0.60064 0
M  V30 416 O 42.3868 1.77345 0.430682 0
M  V30 417 C 42.4378 1.93258 -3.05506 0
M  V30 418 O 42.1588 1.16869 -4.22224 0
M  V30 419 C 43.6598 2.79444 -3.4413 0
M  V30 420 H 40.8798 0.292486 -0.603898 0
M  V30 421 H 43.4238 0.271253 -2.02693 0
M  V30 422 H 41.5788 2.60943 -2.86335 0
M  V30 423 H 41.9928 1.80359 -4.92515 0
M  V30 424 H 43.4668 3.41066 -4.34026 0
M  V30 425 H 43.9438 3.50499 -2.64665 0
M  V30 426 H 44.5498 2.17214 -3.65648 0
M  V30 427 N 42.8649 1.48995 0.513639 0
M  V30 428 C 43.8279 1.64229 1.59879 0
M  V30 429 C 44.8279 0.514696 1.5234 0
M  V30 430 O 46.0179 0.78087 1.55718 0
M  V30 431 C 43.1499 1.62783 2.99524 0
M  V30 432 H 44.3429 2.61004 1.47705 0
M  V30 433 H 41.8959 1.37837 0.736936 0
M  V30 434 H 42.6309 0.675461 3.17188 0
M  V30 435 H 42.4159 2.4466 3.06404 0
M  V30 436 H 43.9059 1.76669 3.78388 0
M  V30 437 N 44.343 -0.763751 1.37857 0
M  V30 438 C 45.568 -1.55805 1.36893 0
M  V30 439 C 45.993 -1.88054 -0.0416135 0
M  V30 440 O 45.351 -1.49825 -1.02089 0
M  V30 441 C 45.399 -2.84012 2.22192 0
M  V30 442 O 44.503 -3.78732 1.63204 0
M  V30 443 H 43.844 -0.471638 0.46739 0
M  V30 444 H 46.374 -0.944657 1.81487 0
M  V30 445 H 46.384 -3.33037 2.35691 0
M  V30 446 H 45.059 -2.59869 3.24716 0
M  V30 447 H 43.636 -3.37402 1.58791 0
M  V30 448 N 45.8211 -1.22559 -0.990812 0
M  V30 449 C 47.2371 -0.985996 -1.255 0
M  V30 450 C 47.4371 0.319173 -1.98956 0
M  V30 451 O 46.4931 1.04127 -2.3003 0
M  V30 452 C 47.8061 -2.18607 -2.06474 0
M  V30 453 C 49.3541 -2.22985 -2.19651 0
M  V30 454 C 49.8291 -3.4255 -3.04012 0
M  V30 455 N 51.3201 -3.42725 -3.11599 0
M  V30 456 C 52.0551 -4.31892 -3.7717 0
M  V30 457 N 51.5511 -5.31279 -4.44651 0
M  V30 458 N 53.3441 -4.19662 -3.73952 0
M  V30 459 H 45.4951 -2.06469 -0.49841 0
M  V30 460 H 47.7581 -0.904853 -0.282747 0
M  V30 461 H 47.4641 -3.13267 -1.59865 0
M  V30 462 H 47.3381 -2.18838 -3.07229 0
M  V30 463 H 49.7251 -1.28871 -2.65474 0
M  V30 464 H 49.8061 -2.26791 -1.18319 0
M  V30 465 H 49.4501 -4.36965 -2.58889 0
M  V30 466 H 49.3801 -3.35984 -4.0549 0
M  V30 467 H 51.8711 -2.70807 -2.63575 0
M  V30 468 H 52.1841 -5.95593 -4.92431 0
M  V30 469 H 50.5291 -5.3519 -4.43392 0
M  V30 470 H 53.7201 -3.41268 -3.20396 0
M  V30 471 H 53.8931 -4.89358 -4.24774 0
M  V30 472 N 47.2992 1.18797 -1.03562 0
M  V30 473 C 48.5472 1.88278 -0.734569 0
M  V30 474 C 48.8682 1.8043 0.739586 0
M  V30 475 O 48.1382 1.21925 1.53333 0
M  V30 476 H 46.7182 0.696991 -0.268725 0
M  V30 477 H 49.3802 1.44192 -1.31129 0
M  V30 478 H 48.4762 2.94443 -1.03489 0
M  V30 479 N 48.7773 0.814389 1.34928 0
M  V30 480 C 49.7403 0.235759 2.27984 0
M  V30 481 C 50.7403 -0.581412 1.49921 0
M  V30 482 O 51.9303 -0.398758 1.69575 0
M  V30 483 C 49.0623 -0.670433 3.34242 0
M  V30 484 H 50.2553 1.05659 2.80671 0
M  V30 485 H 47.8083 0.585614 1.44915 0
M  V30 486 H 48.5433 -1.51466 2.86755 0
M  V30 487 H 48.3283 -0.0860822 3.92005 0
M  V30 488 H 49.8183 -1.06935 4.03676 0
M  V30 489 N 50.2554 -1.46986 0.568584 0
M  V30 490 C 51.4804 -2.07335 0.0520528 0
M  V30 491 C 51.9054 -1.41675 -1.23733 0
M  V30 492 O 51.2634 -0.495623 -1.74394 0
M  V30 493 C 51.3114 -3.60417 -0.11501 0
M  V30 494 O 50.4154 -3.95309 -1.17492 0
M  V30 495 H 49.7564 -0.661597 0.0564385 0
M  V30 496 H 52.2864 -1.88837 0.787507 0
M  V30 497 H 52.2964 -4.06698 -0.325644 0
M  V30 498 H 50.9714 -4.07601 0.826675 0
M  V30 499 H 49.5484 -3.60757 -0.943869 0
M  V30 500 N 51.7335 -0.305618 -1.54608 0
M  V30 501 C 52.6655 0.602161 -2.21149 0
M  V30 502 C 53.6785 1.09394 -1.20569 0
M  V30 503 O 54.8675 1.0106 -1.47136 0
M  V30 504 C 51.9675 1.83692 -2.84799 0
M  V30 505 C 51.1405 1.48686 -4.11353 0
M  V30 506 C 50.1995 2.57725 -4.58764 0
M  V30 507 O 49.2255 2.22623 -5.23858 0
M  V30 508 N 50.4275 3.88346 -4.31471 0
M  V30 509 H 53.1925 0.0324966 -2.99682 0
M  V30 510 H 50.7535 -0.128021 -1.61393 0
M  V30 511 H 52.7455 2.55994 -3.13448 0
M  V30 512 H 51.3155 2.31486 -2.10078 0
M  V30 513 H 50.5355 0.596269 -3.89664 0
M  V30 514 H 51.8235 1.22842 -4.93748 0
M  V30 515 H 51.2215 4.19671 -3.79331 0
M  V30 516 H 49.7785 4.56932 -4.64818 0
M  V30 517 N 53.2116 1.57565 -0.0334293 0
M  V30 518 C 54.1746 2.09393 0.932048 0
M  V30 519 C 55.1746 1.00986 1.25134 0
M  V30 520 O 56.3646 1.27129 1.19096 0
M  V30 521 C 53.4966 2.56338 2.2473 0
M  V30 522 H 54.6896 2.95984 0.483085 0
M  V30 523 H 52.2426 1.54819 0.21468 0
M  V30 524 H 52.9776 1.7309 2.74245 0
M  V30 525 H 52.7626 3.35542 2.02865 0
M  V30 526 H 54.2526 2.96646 2.93923 0
M  V30 527 N 54.6897 -0.239769 1.55765 0
M  V30 528 C 55.9377 -0.964892 1.77579 0
M  V30 529 C 56.2587 -1.85582 0.598699 0
M  V30 530 O 55.5287 -1.92075 -0.385226 0
M  V30 531 H 54.1087 -0.359265 0.654933 0
M  V30 532 H 56.7707 -0.256001 1.93211 0
M  V30 533 H 55.8667 -1.58243 2.69009 0
M  V30 534 N 56.1678 -1.49265 -0.50573 0
M  V30 535 C 57.1308 -1.65075 -1.59006 0
M  V30 536 C 58.1308 -0.522768 -1.52065 0
M  V30 537 O 59.3208 -0.789117 -1.55302 0
M  V30 538 C 56.4528 -1.64369 -2.98656 0
M  V30 539 H 57.6458 -2.61784 -1.46319 0
M  V30 540 H 55.1988 -1.38226 -0.729616 0
M  V30 541 H 55.9338 -0.692272 -3.16825 0
M  V30 542 H 55.7188 -2.46282 -3.05103 0
M  V30 543 H 57.2088 -1.78674 -3.77446 0
M  V30 544 N 57.6459 0.756429 -1.3826 0
M  V30 545 C 59.0569 1.33359 -1.30661 0
M  V30 546 C 59.4079 1.96161 0.0388875 0
M  V30 547 O 58.5329 1.94874 0.940918 0
M  V30 548 C 59.1279 2.42477 -2.36622 0
M  V30 549 C 57.6869 2.95922 -2.3261 0
M  V30 550 C 56.8339 1.69275 -2.19639 0
M  V30 551 H 59.7849 0.55552 -1.4866 0
M  V30 552 H 59.8059 3.22345 -2.02174 0
M  V30 553 H 59.3179 1.96739 -3.34538 0
M  V30 554 H 57.4189 3.45996 -1.38267 0
M  V30 555 H 57.5319 3.50494 -3.26636 0
M  V30 556 H 55.8959 1.92793 -1.66442 0
M  V30 557 H 56.6789 1.25619 -3.19491 0
M  V30 558 N 59.124 1.23083 0.984299 0
M  V30 559 C 60.056 0.96636 2.07832 0
M  V30 560 C 61.069 -0.0582135 1.62696 0
M  V30 561 O 62.258 0.176843 1.77622 0
M  V30 562 C 59.358 0.433397 3.36117 0
M  V30 563 C 58.531 1.51722 4.10243 0
M  V30 564 C 57.59 0.989821 5.16807 0
M  V30 565 O 56.616 1.67794 5.43906 0
M  V30 566 N 57.818 -0.184367 5.80207 0
M  V30 567 H 60.583 1.90824 2.31098 0
M  V30 568 H 58.144 1.13888 1.1507 0
M  V30 569 H 60.136 0.065699 4.04647 0
M  V30 570 H 58.706 -0.413806 3.09849 0
M  V30 571 H 57.926 2.05786 3.36223 0
M  V30 572 H 59.214 2.24619 4.56534 0
M  V30 573 H 58.612 -0.760062 5.60571 0
M  V30 574 H 57.169 -0.493366 6.4993 0
M  V30 575 N 60.6021 -1.18246 1.0419 0
M  V30 576 C 61.8501 -1.87886 0.744543 0
M  V30 577 C 62.1711 -1.8082 -0.730006 0
M  V30 578 O 61.4411 -1.22736 -1.52685 0
M  V30 579 H 60.0211 -0.695556 0.272417 0
M  V30 580 H 62.6831 -1.43494 1.31892 0
M  V30 581 H 61.7791 -2.9389 1.05049 0
M  V30 582 N 62.0802 -0.821533 -1.34494 0
M  V30 583 C 63.4962 -0.507117 -1.51329 0
M  V30 584 C 63.6962 0.968964 -1.76673 0
M  V30 585 O 62.7522 1.75348 -1.81685 0
M  V30 586 C 64.0652 -1.36544 -2.67911 0
M  V30 587 C 65.6132 -1.36242 -2.81793 0
M  V30 588 C 66.0882 -2.2052 -4.01416 0
M  V30 589 N 67.5792 -2.18136 -4.08621 0
M  V30 590 C 68.3142 -2.80095 -5.00334 0
M  V30 591 N 67.8102 -3.51039 -5.9728 0
M  V30 592 N 69.6032 -2.69656 -4.93196 0
M  V30 593 H 61.7542 -1.77729 -1.16302 0
M  V30 594 H 64.0172 -0.757291 -0.570276 0
M  V30 595 H 63.7232 -2.41361 -2.55808 0
M  V30 596 H 63.5972 -1.02917 -3.62888 0
M  V30 597 H 65.9842 -0.322041 -2.93338 0
M  V30 598 H 66.0652 -1.73866 -1.87628 0
M  V30 599 H 65.7092 -3.24607 -3.90631 0
M  V30 600 H 65.6392 -1.80247 -4.94791 0
M  V30 601 H 68.1302 -1.6653 -3.39229 0
M  V30 602 H 68.4432 -3.95565 -6.63889 0
M  V30 603 H 66.7882 -3.55145 -5.97409 0
M  V30 604 H 69.9792 -2.13808 -4.16418 0
M  V30 605 H 70.1522 -3.1823 -5.64476 0
M  V30 606 N 63.5583 1.46682 -0.576371 0
M  V30 607 C 64.8043 2.02712 -0.0596221 0
M  V30 608 C 65.1373 1.44765 1.29448 0
M  V30 609 O 64.4123 0.610355 1.84675 0
M  V30 610 C 64.6953 3.60098 0.0129503 0
M  V30 611 C 64.5483 4.28441 -1.3696 0
M  V30 612 C 65.8673 4.34224 0.71678 0
M  V30 613 H 62.9863 0.736637 -0.0231407 0
M  V30 614 H 65.6283 1.74898 -0.742351 0
M  V30 615 H 63.7783 3.83926 0.594378 0
M  V30 616 H 65.4503 4.15896 -1.9957 0
M  V30 617 H 63.6933 3.8805 -1.93907 0
M  V30 618 H 64.3643 5.3716 -1.27135 0
M  V30 619 H 66.8403 4.15503 0.222908 0
M  V30 620 H 65.7163 5.43936 0.73657 0
M  V30 621 H 65.9773 4.04823 1.77682 0
M  V30 622 N 65.0364 0.313813 1.54444 0
M  V30 623 C 66.4474 -0.176243 1.85866 0
M  V30 624 C 66.7984 -1.52405 1.23561 0
M  V30 625 O 65.9234 -2.09605 0.538016 0
M  V30 626 C 66.5184 -0.32657 3.37222 0
M  V30 627 C 65.0774 -0.760846 3.6863 0
M  V30 628 C 64.2244 0.123247 2.77026 0
M  V30 629 H 67.1754 0.534418 1.49431 0
M  V30 630 H 67.1964 -1.15908 3.62416 0
M  V30 631 H 66.7084 0.654531 3.82541 0
M  V30 632 H 64.8094 -1.75204 3.28838 0
M  V30 633 H 64.9224 -0.571353 4.75681 0
M  V30 634 H 63.2864 -0.399597 2.51546 0
M  V30 635 H 64.0694 1.10094 3.25168 0
M  V30 636 N 66.5145 -1.57545 0.0417849 0
M  V30 637 C 67.4245 -2.14451 -0.951213 0
M  V30 638 C 68.4405 -1.09992 -1.34825 0
M  V30 639 O 69.6165 -1.42114 -1.42708 0
M  V30 640 C 66.6815 -2.67063 -2.21084 0
M  V30 641 C 65.7425 -3.86284 -1.87304 0
M  V30 642 C 64.9755 -4.36378 -3.07261 0
M  V30 643 O 65.1985 -3.85587 -4.20332 0
M  V30 644 O 64.1325 -5.28077 -2.88822 0
M  V30 645 H 67.9585 -2.99601 -0.497287 0
M  V30 646 H 65.5435 -1.48317 -0.179567 0
M  V30 647 H 67.4255 -3.00914 -2.95006 0
M  V30 648 H 66.1005 -1.84989 -2.65633 0
M  V30 649 H 65.0075 -3.57338 -1.10727 0
M  V30 650 H 66.3405 -4.6956 -1.47562 0
M  V30 651 N 67.9926 0.231505 -1.5589 0
M  V30 652 C 68.9556 1.27028 -1.90779 0
M  V30 653 C 69.9556 1.40308 -0.785507 0
M  V30 654 O 71.1456 1.38744 -1.05336 0
M  V30 655 C 68.2776 2.64566 -2.14983 0
M  V30 656 H 69.4706 0.973017 -2.83677 0
M  V30 657 H 67.0236 0.471486 -1.49019 0
M  V30 658 H 67.7586 2.99406 -1.24604 0
M  V30 659 H 67.5436 2.56305 -2.96732 0
M  V30 660 H 69.0336 3.39543 -2.43105 0
M  V30 661 N 69.4707 1.49531 0.497807 0
M  V30 662 C 70.8867 1.36365 0.829266 0
M  V30 663 C 71.0867 0.399184 1.97506 0
M  V30 664 O 70.1427 -0.167977 2.51941 0
M  V30 665 C 71.4557 2.77153 1.16647 0
M  V30 666 C 73.0037 2.85877 1.27449 0
M  V30 667 C 73.4787 4.2744 1.64497 0
M  V30 668 N 74.9697 4.30265 1.7154 0
M  V30 669 C 75.7047 5.3677 2.01656 0
M  V30 670 N 75.2007 6.53516 2.29976 0
M  V30 671 N 76.9937 5.24189 2.02934 0
M  V30 672 H 69.1447 2.10831 -0.257703 0
M  V30 673 H 71.4077 0.946534 -0.0527091 0
M  V30 674 H 71.1137 3.49442 0.397872 0
M  V30 675 H 70.9877 3.12722 2.10915 0
M  V30 676 H 73.3747 2.13824 2.0338 0
M  V30 677 H 73.4557 2.53887 0.312244 0
M  V30 678 H 73.0997 5.00021 0.891151 0
M  V30 679 H 73.0297 4.56896 2.61827 0
M  V30 680 H 75.5207 3.4607 1.51802 0
M  V30 681 H 75.8337 7.30506 2.52153 0
M  V30 682 H 74.1787 6.56737 2.27425 0
M  V30 683 H 77.3697 4.31988 1.80289 0
M  V30 684 H 77.5427 6.07286 2.26071 0
M  V30 685 N 70.9488 -0.749086 1.3866 0
M  V30 686 C 72.3598 -1.32664 1.31366 0
M  V30 687 C 72.7108 -1.96179 -0.028484 0
M  V30 688 O 71.8358 -1.9537 -0.93057 0
M  V30 689 C 72.4308 -2.41219 2.37905 0
M  V30 690 C 70.9898 -2.94684 2.34176 0
M  V30 691 C 70.1368 -1.68108 2.20533 0
M  V30 692 H 73.0878 -0.547628 1.48952 0
M  V30 693 H 73.1088 -3.21268 2.0388 0
M  V30 694 H 72.6208 -1.94962 3.35576 0
M  V30 695 H 70.7218 -3.45258 1.401 0
M  V30 696 H 70.8348 -3.48757 3.2849 0
M  V30 697 H 69.1988 -1.91907 1.67463 0
M  V30 698 H 69.9818 -1.23923 3.20153 0
M  V30 699 N 72.4269 -1.23603 -0.977757 0
M  V30 700 C 73.3749 -1.01704 -2.09187 0
M  V30 701 C 74.3689 0.0448214 -1.69341 0
M  V30 702 O 75.5749 -0.108902 -1.7967 0
M  V30 703 H 71.9499 -0.311803 -0.684312 0
M  V30 704 H 73.9209 -1.96207 -2.24823 0
M  V30 705 C 72.6699 -0.627746 -3.41986 0
M  V30 706 H 71.9929 -1.43656 -3.73099 0
M  V30 707 H 73.4329 -0.514053 -4.20872 0
M  V30 708 C 71.8919 0.664238 -3.30287 0
M  V30 709 O 72.4219 1.71268 -3.6336 0
M  V30 710 N 70.6279 0.641156 -2.83439 0
M  V30 711 H 70.1749 -0.212376 -2.56723 0
M  V30 712 H 70.1329 1.50583 -2.75993 0
M  V30 713 N 73.905 1.17692 -1.04816 0
M  V30 714 C 75.13 1.92327 -0.776207 0
M  V30 715 C 75.555 1.76082 0.661581 0
M  V30 716 O 74.913 1.076 1.45917 0
M  V30 717 C 74.961 3.41539 -1.15687 0
M  V30 718 O 74.065 4.11402 -0.286775 0
M  V30 719 H 73.406 0.599735 -0.284981 0
M  V30 720 H 75.936 1.49201 -1.4 0
M  V30 721 H 75.946 3.92269 -1.12202 0
M  V30 722 H 74.621 3.52684 -2.20425 0
M  V30 723 H 73.198 3.70939 -0.381903 0
M  V30 724 N 75.3831 0.828654 1.34056 0
M  V30 725 C 76.3161 0.199763 2.27324 0
M  V30 726 C 77.2941 -0.647168 1.49166 0
M  V30 727 O 78.4781 -0.609661 1.78369 0
M  V30 728 C 75.6051 -0.720455 3.30949 0
M  V30 729 C 74.6511 0.0496888 4.26471 0
M  V30 730 S 75.4841 1.40072 5.16856 0
M  V30 731 C 76.6401 0.485527 6.24014 0
M  V30 732 H 76.8731 0.990478 2.80316 0
M  V30 733 H 74.4061 0.624857 1.41191 0
M  V30 734 H 76.3641 -1.24581 3.91139 0
M  V30 735 H 75.0251 -1.48474 2.76793 0
M  V30 736 H 74.2181 -0.650104 4.9979 0
M  V30 737 H 73.8201 0.505779 3.70564 0
M  V30 738 H 76.1121 -0.320672 6.76741 0
M  V30 739 H 77.0551 1.18856 6.98054 0
M  V30 740 H 77.4631 0.0714109 5.64455 0
M  V30 741 N 76.8612 -1.46375 0.584142 0
M  V30 742 C 78.1072 -2.02678 0.0703716 0
M  V30 743 C 78.4402 -1.4545 -1.28678 0
M  V30 744 O 77.7152 -0.62014 -1.84349 0
M  V30 745 C 77.9982 -3.60099 0.00614674 0
M  V30 746 C 77.8512 -4.27709 1.3923 0
M  V30 747 C 79.1702 -4.34598 -0.693742 0
M  V30 748 H 76.2892 -0.736504 0.027047 0
M  V30 749 H 78.9312 -1.74501 0.751615 0
M  V30 750 H 77.0812 -3.84236 -0.574009 0
M  V30 751 H 78.7532 -4.14832 2.01773 0
M  V30 752 H 76.9962 -3.87016 1.95962 0
M  V30 753 H 77.6672 -5.36478 1.29982 0
M  V30 754 H 80.1432 -4.15615 -0.200869 0
M  V30 755 H 79.0192 -5.44318 -0.707714 0
M  V30 756 H 79.2802 -4.05759 -1.75533 0
M  V30 757 N 78.3393 -0.321999 -1.54275 0
M  V30 758 C 79.5853 0.281461 -2.00837 0
M  V30 759 C 79.9183 1.51909 -1.20985 0
M  V30 760 O 79.1933 1.923 -0.291733 0
M  V30 761 C 79.4763 0.617162 -3.54772 0
M  V30 762 C 79.3293 -0.631064 -4.45351 0
M  V30 763 C 80.6483 1.43542 -4.16033 0
M  V30 764 H 77.7673 0.100826 -0.730071 0
M  V30 765 H 80.4093 -0.438268 -1.84876 0
M  V30 766 H 78.5593 1.23034 -3.68504 0
M  V30 767 H 80.2313 -1.26934 -4.43492 0
M  V30 768 H 78.4743 -1.26025 -4.15091 0
M  V30 769 H 79.1453 -0.351735 -5.50878 0
M  V30 770 H 81.6213 0.917134 -4.05867 0
M  V30 771 H 80.4973 1.63907 -5.23856 0
M  V30 772 H 80.7583 2.43108 -3.69257 0
M  V30 773 N 79.8174 1.5752 -0.0501392 0
M  V30 774 C 80.7274 2.14952 0.939827 0
M  V30 775 C 81.7434 1.10706 1.34239 0
M  V30 776 O 82.9194 1.42869 1.41952 0
M  V30 777 C 79.9844 2.68232 2.19665 0
M  V30 778 C 79.0454 3.87272 1.85253 0
M  V30 779 C 78.2784 4.38002 3.04943 0
M  V30 780 O 78.5014 3.87811 4.18281 0
M  V30 781 O 77.4354 5.29602 2.86017 0
M  V30 782 H 81.2614 2.9986 0.481392 0
M  V30 783 H 78.8464 1.4841 0.171699 0
M  V30 784 H 80.7284 3.02475 2.93406 0
M  V30 785 H 79.4034 1.86395 2.64648 0
M  V30 786 H 78.3104 3.5792 1.0883 0
M  V30 787 H 79.6434 4.70336 1.4507 0
M  V30 788 N 81.2955 -0.223234 1.56011 0
M  V30 789 C 82.2455 -1.28008 1.88674 0
M  V30 790 C 83.2295 -1.42369 0.749663 0
M  V30 791 O 84.4215 -1.45212 1.01205 0
M  V30 792 C 81.5505 -2.63084 2.20548 0
M  V30 793 C 80.6365 -2.52632 3.40643 0
M  V30 794 N 81.0275 -2.11829 4.59306 0
M  V30 795 C 79.3255 -2.83594 3.44224 0
M  V30 796 C 80.0265 -2.12587 5.41463 0
M  V30 797 N 79.0025 -2.5301 4.81131 0
M  V30 798 H 82.8045 -0.955487 2.77935 0
M  V30 799 H 80.3185 -0.431801 1.56554 0
M  V30 800 H 82.3155 -3.39385 2.42122 0
M  V30 801 H 80.9755 -2.96391 1.32599 0
M  V30 802 H 81.9865 -1.82988 4.84496 0
M  V30 803 H 78.6635 -3.21284 2.66614 0
M  V30 804 H 80.0535 -1.83179 6.46448 0
M  V30 805 N 82.7736 -1.49793 -0.48987 0
M  V30 806 C 84.1846 -1.52914 -1.07118 0
M  V30 807 C 84.5356 -0.321738 -1.93544 0
M  V30 808 O 83.6606 0.567338 -2.08831 0
M  V30 809 C 84.2556 -2.771 -1.94938 0
M  V30 810 C 82.8146 -2.82963 -2.48212 0
M  V30 811 C 81.9616 -2.46972 -1.26096 0
M  V30 812 H 84.9126 -1.56329 -0.273289 0
M  V30 813 H 84.9336 -2.57892 -2.79771 0
M  V30 814 H 84.4456 -3.64959 -1.32009 0
M  V30 815 H 82.5466 -1.99411 -3.14748 0
M  V30 816 H 82.6596 -3.85406 -2.84603 0
M  V30 817 H 81.0236 -1.98994 -1.58976 0
M  V30 818 H 81.8066 -3.37118 -0.648581 0
M  V30 819 N 84.2517 0.741722 -1.39055 0
M  V30 820 C 85.1617 1.88621 -1.39496 0
M  V30 821 C 86.1777 1.71557 -0.290578 0
M  V30 822 O 87.3537 1.94275 -0.530954 0
M  V30 823 C 84.4187 3.24134 -1.23037 0
M  V30 824 C 83.4797 3.5364 -2.43387 0
M  V30 825 C 82.7127 4.82687 -2.27703 0
M  V30 826 O 82.9357 5.55922 -1.27696 0
M  V30 827 O 81.8697 5.1194 -3.16545 0
M  V30 828 H 85.6957 1.91203 -2.35956 0
M  V30 829 H 83.2807 0.888625 -1.20099 0
M  V30 830 H 85.1627 4.0513 -1.15964 0
M  V30 831 H 83.8377 3.22337 -0.296691 0
M  V30 832 H 82.7447 2.72758 -2.56035 0
M  V30 833 H 84.0777 3.60209 -3.35425 0
M  V30 834 N 85.7298 1.2412 0.971189 0
M  V30 835 C 86.9768 1.07881 1.71371 0
M  V30 836 C 87.3048 -0.382901 1.90694 0
M  V30 837 O 86.5598 -1.29945 1.46331 0
M  V30 838 C 86.8588 1.75983 3.11071 0
M  V30 839 C 86.5248 3.25909 3.11599 0
M  V30 840 C 85.1868 3.66813 3.11451 0
M  V30 841 C 87.5388 4.21771 3.062 0
M  V30 842 C 84.8668 5.02021 3.03631 0
M  V30 843 C 87.2188 5.56982 2.99923 0
M  V30 844 C 85.8828 5.97237 2.98102 0
M  V30 845 H 85.1528 0.394764 0.62709 0
M  V30 846 H 87.7998 1.54176 1.13587 0
M  V30 847 H 86.1048 1.22072 3.72298 0
M  V30 848 H 87.8018 1.60887 3.6731 0
M  V30 849 H 84.3918 2.93353 3.12477 0
M  V30 850 H 88.5758 3.91172 3.05447 0
M  V30 851 H 83.8318 5.32411 3.0058 0
M  V30 852 H 88.0058 6.30969 2.94704 0
M  V30 853 H 85.6328 7.01967 2.91798 0
M  V30 854 N 87.2079 -1.17134 1.05439 0
M  V30 855 C 88.1379 -2.2342 0.678649 0
M  V30 856 C 89.1189 -1.66971 -0.32476 0
M  V30 857 O 90.3039 -1.93149 -0.201802 0
M  V30 858 C 87.4339 -3.47256 0.0552099 0
M  V30 859 C 86.3879 -4.16543 0.98365 0
M  V30 860 C 85.7139 -5.34231 0.223961 0
M  V30 861 C 87.0139 -4.68495 2.3089 0
M  V30 862 H 88.7079 -2.55105 1.56722 0
M  V30 863 H 86.2539 -1.2262 0.754998 0
M  V30 864 H 88.2069 -4.20828 -0.21946 0
M  V30 865 H 86.9309 -3.14846 -0.868319 0
M  V30 866 H 85.5899 -3.44887 1.24293 0
M  V30 867 H 85.2379 -4.98071 -0.702412 0
M  V30 868 H 84.9379 -5.81527 0.842627 0
M  V30 869 H 86.4619 -6.10585 -0.0433671 0
M  V30 870 H 87.8759 -5.33691 2.09396 0
M  V30 871 H 86.2729 -5.26379 2.88176 0
M  V30 872 H 87.3429 -3.85169 2.94572 0
M  V30 873 N 88.686 -0.835752 -1.33615 0
M  V30 874 C 89.633 -0.26473 -2.29277 0
M  V30 875 C 90.603 0.617712 -1.54187 0
M  V30 876 O 91.788 0.556641 -1.825 0
M  V30 877 C 88.928 0.556777 -3.40579 0
M  V30 878 C 88.041 -0.349339 -4.30585 0
M  V30 879 C 87.176 0.482969 -5.29 0
M  V30 880 C 86.215 -0.421732 -6.10645 0
M  V30 881 N 85.352 0.372262 -7.01112 0
M  V30 882 H 90.192 -1.08582 -2.77514 0
M  V30 883 H 87.729 -0.546927 -1.36554 0
M  V30 884 H 89.687 1.04852 -4.03809 0
M  V30 885 H 88.317 1.34286 -2.93542 0
M  V30 886 H 87.369 -0.959372 -3.68104 0
M  V30 887 H 88.681 -1.04445 -4.87742 0
M  V30 888 H 87.835 1.03866 -5.97743 0
M  V30 889 H 86.574 1.21153 -4.72412 0
M  V30 890 H 85.579 -0.989464 -5.40823 0
M  V30 891 H 86.804 -1.14861 -6.69316 0
M  V30 892 H 84.75 1.08426 -6.46977 0
M  V30 893 H 84.667 -0.264198 -7.55538 0
M  V30 894 H 85.935 0.910293 -7.74167 0
M  V30 895 N 90.1641 1.46063 -0.591896 0
M  V30 896 C 91.1271 2.28854 0.125973 0
M  V30 897 C 92.1271 1.38903 0.810107 0
M  V30 898 O 93.3171 1.61186 0.66066 0
M  V30 899 C 90.4491 3.19526 1.1881 0
M  V30 900 H 91.6421 2.93802 -0.601717 0
M  V30 901 H 89.1951 1.52325 -0.350254 0
M  V30 902 H 89.9301 2.59345 1.94707 0
M  V30 903 H 89.7151 3.85766 0.701936 0
M  V30 904 H 91.2051 3.81817 1.69132 0
M  V30 905 N 91.6422 0.330177 1.54103 0
M  V30 906 C 92.8902 -0.269871 2.0029 0
M  V30 907 C 93.2112 -1.52133 1.21986 0
M  V30 908 O 92.4812 -1.93212 0.323438 0
M  V30 909 H 91.0612 -0.10271 0.739905 0
M  V30 910 H 93.7232 0.448249 1.89675 0
M  V30 911 H 92.8192 -0.52166 3.07709 0
M  V30 912 N 93.1203 -1.57491 0.0584922 0
M  V30 913 C 94.0673 -2.11958 -0.913376 0
M  V30 914 C 95.0373 -1.02875 -1.30407 0
M  V30 915 O 96.2223 -1.30464 -1.39226 0
M  V30 916 C 93.3623 -2.67497 -2.18035 0
M  V30 917 C 92.4753 -3.90691 -1.84349 0
M  V30 918 C 91.6103 -4.3452 -3.05559 0
M  V30 919 C 90.6493 -5.50395 -2.67827 0
M  V30 920 N 89.7863 -5.89244 -3.81754 0
M  V30 921 H 94.6263 -2.94704 -0.442017 0
M  V30 922 H 92.1633 -1.45643 -0.206545 0
M  V30 923 H 94.1213 -2.978 -2.92183 0
M  V30 924 H 92.7513 -1.87537 -2.62735 0
M  V30 925 H 91.8033 -3.66934 -1.00319 0
M  V30 926 H 93.1153 -4.7489 -1.5258 0
M  V30 927 H 92.2693 -4.66414 -3.87998 0
M  V30 928 H 91.0083 -3.49147 -3.40511 0
M  V30 929 H 90.0133 -5.18165 -1.83806 0
M  V30 930 H 91.2383 -6.3749 -2.34059 0
M  V30 931 H 89.1843 -5.06823 -4.16493 0
M  V30 932 H 89.1013 -6.68151 -3.53708 0
M  V30 933 H 90.3693 -6.25756 -4.64811 0
M  V30 934 N 94.5984 0.214957 -1.56127 0
M  V30 935 C 95.5084 1.28727 -1.96129 0
M  V30 936 C 96.5244 1.50916 -0.866044 0
M  V30 937 O 97.7004 1.63918 -1.17016 0
M  V30 938 C 94.7654 2.61569 -2.27558 0
M  V30 939 C 93.8264 2.47625 -3.50685 0
M  V30 940 C 93.0594 3.74132 -3.80606 0
M  V30 941 O 93.2824 4.77438 -3.12104 0
M  V30 942 O 92.2164 3.70849 -4.74083 0
M  V30 943 H 96.0424 0.977855 -2.87527 0
M  V30 944 H 93.6274 0.418358 -1.43423 0
M  V30 945 H 95.5094 3.40012 -2.48938 0
M  V30 946 H 94.1844 2.92178 -1.39332 0
M  V30 947 H 93.0914 1.67361 -3.34576 0
M  V30 948 H 94.4244 2.21954 -4.39315 0
M  V30 949 N 96.0765 1.50051 0.48192 0
M  V30 950 C 97.4875 1.5348 1.06305 0
M  V30 951 C 97.8385 0.331997 1.93371 0
M  V30 952 O 96.9635 -0.556256 2.09129 0
M  V30 953 C 97.5585 2.7813 1.93466 0
M  V30 954 C 96.1175 2.84275 2.46707 0
M  V30 955 C 95.2645 2.47637 1.24785 0
M  V30 956 H 98.2155 1.56472 0.264995 0
M  V30 957 H 98.2365 2.59372 2.78399 0
M  V30 958 H 97.7485 3.65654 1.30072 0
M  V30 959 H 95.8495 2.01077 3.13686 0
M  V30 960 H 95.9625 3.8691 2.82555 0
M  V30 961 H 94.3265 1.99835 1.57918 0
M  V30 962 H 95.1095 3.37457 0.630694 0
M  V30 963 N 97.5546 -0.734337 1.39446 0
M  V30 964 C 98.8026 -1.49096 1.36436 0
M  V30 965 C 99.1236 -1.94961 -0.0388255 0
M  V30 966 O 98.3936 -1.69033 -0.990191 0
M  V30 967 H 96.9736 -0.5531 0.502085 0
M  V30 968 H 99.6356 -0.871725 1.74319 0
M  V30 969 H 98.7316 -2.37276 2.02747 0
M  V30 970 N 99.0327 -1.24633 -0.964593 0
M  V30 971 C 99.9627 -1.06611 -2.07741 0
M  V30 972 C 100.944 0.0218666 -1.70086 0
M  V30 973 O 102.129 -0.145793 -1.93652 0
M  V30 974 C 99.2587 -0.673444 -3.40708 0
M  V30 975 C 98.2127 -1.71054 -3.92332 0
M  V30 976 C 97.5387 -1.17285 -5.21678 0
M  V30 977 C 98.8387 -3.10718 -4.19824 0
M  V30 978 H 100.533 -1.99693 -2.23076 0
M  V30 979 H 98.0787 -0.96152 -1.07195 0
M  V30 980 H 100.032 -0.534345 -4.17998 0
M  V30 981 H 98.7557 0.293073 -3.25282 0
M  V30 982 H 97.4147 -1.83791 -3.17201 0
M  V30 983 H 97.0627 -0.196847 -5.02615 0
M  V30 984 H 96.7627 -1.86592 -5.57187 0
M  V30 985 H 98.2867 -1.04593 -6.01575 0
M  V30 986 H 99.7007 -3.01192 -4.87808 0
M  V30 987 H 98.0977 -3.77406 -4.66567 0
M  V30 988 H 99.1677 -3.58524 -3.26479 0
M  V30 989 N 100.511 1.16574 -1.06058 0
M  V30 990 C 101.443 2.2045 -0.627239 0
M  V30 991 C 102.456 1.59752 0.313534 0
M  V30 992 O 103.645 1.78192 0.104896 0
M  V30 993 C 100.745 3.3875 0.100974 0
M  V30 994 C 99.9178 4.29008 -0.852687 0
M  V30 995 C 98.9768 5.25944 -0.164152 0
M  V30 996 O 98.0028 5.63535 -0.801047 0
M  V30 997 N 99.2048 5.70075 1.09518 0
M  V30 998 H 101.97 2.58249 -1.52077 0
M  V30 999 H 99.5308 1.3156 -0.943594 0
M  V30 1000 H 101.523 4.00638 0.57194 0
M  V30 1001 H 100.093 2.99476 0.89628 0
M  V30 1002 H 99.3128 3.64419 -1.50308 0
M  V30 1003 H 100.601 4.86195 -1.49972 0
M  V30 1004 H 99.9988 5.41624 1.6328 0
M  V30 1005 H 98.5558 6.34067 1.51006 0
M  V30 1006 N 101.989 0.842826 1.3317 0
M  V30 1007 C 103.238 0.436738 1.96915 0
M  V30 1008 C 103.551 -1.01025 1.67491 0
M  V30 1009 O 104.757 -1.5212 2.24881 0
M  V30 1010 C 103.213 0.730021 3.52418 0
M  V30 1011 C 102.821 2.19195 3.90714 0
M  V30 1012 C 104.565 0.391076 4.22695 0
M  V30 1013 C 102.472 2.42907 5.39212 0
M  V30 1014 H 101.402 0.15958 0.736919 0
M  V30 1015 H 104.053 1.03196 1.51733 0
M  V30 1016 H 102.435 0.0643755 3.95948 0
M  V30 1017 H 103.609 2.8984 3.58231 0
M  V30 1018 H 101.924 2.49425 3.33431 0
M  V30 1019 H 104.521 0.545817 5.31907 0
M  V30 1020 H 104.864 -0.666294 4.10933 0
M  V30 1021 H 105.397 1.01212 3.84709 0
M  V30 1022 H 102.136 3.47224 5.55982 0
M  V30 1023 H 101.656 1.76827 5.73142 0
M  V30 1024 H 103.335 2.2626 6.06148 0
M  V30 1025 N 103.467 -1.45747 0.599634 0
M  V30 1026 C 104.713 -2.03153 0.100263 0
M  V30 1027 C 105.068 -1.46073 -1.25221 0
M  V30 1028 O 104.361 -0.622878 -1.81193 0
M  V30 1029 C 104.555 -3.57399 -0.00602758 0
M  V30 1030 C 104.384 -4.2944 1.3346 0
M  V30 1031 C 103.154 -4.6768 1.91321 0
M  V30 1032 C 105.352 -4.61905 2.2616 0
M  V30 1033 N 103.334 -5.24544 3.18946 0
M  V30 1034 C 104.705 -5.19518 3.3838 0
M  V30 1035 C 106.76 -4.43841 2.25631 0
M  V30 1036 C 105.463 -5.60972 4.50226 0
M  V30 1037 C 107.489 -4.86322 3.36518 0
M  V30 1038 C 106.851 -5.44021 4.4746 0
M  V30 1039 H 102.95 -0.777911 0.0798696 0
M  V30 1040 H 105.534 -1.77674 0.796244 0
M  V30 1041 H 103.705 -3.82556 -0.671212 0
M  V30 1042 H 105.437 -4.01457 -0.51133 0
M  V30 1043 H 102.192 -4.5098 1.44617 0
M  V30 1044 H 102.616 -5.57483 3.84112 0
M  V30 1045 H 107.258 -3.98552 1.41123 0
M  V30 1046 H 104.976 -6.0523 5.35464 0
M  V30 1047 H 108.562 -4.74084 3.37247 0
M  V30 1048 H 107.442 -5.76289 5.31846 0
M  V30 1049 N 104.945 -0.338344 -1.53925 0
M  V30 1050 C 106.361 0.0137736 -1.59594 0
M  V30 1051 C 106.561 1.49186 -1.35447 0
M  V30 1052 O 105.617 2.24987 -1.14616 0
M  V30 1053 C 106.93 -0.41773 -2.97784 0
M  V30 1054 C 108.478 -0.369633 -3.1081 0
M  V30 1055 C 108.953 -0.776524 -4.51369 0
M  V30 1056 N 110.444 -0.730506 -4.57403 0
M  V30 1057 C 111.179 -1.01736 -5.64303 0
M  V30 1058 N 110.675 -1.3721 -6.79077 0
M  V30 1059 N 112.468 -0.941942 -5.54151 0
M  V30 1060 H 104.619 -1.3012 -1.67876 0
M  V30 1061 H 106.882 -0.530082 -0.78595 0
M  V30 1062 H 106.588 -1.44811 -3.20504 0
M  V30 1063 H 106.462 0.209729 -3.76616 0
M  V30 1064 H 108.849 0.651568 -2.87817 0
M  V30 1065 H 108.93 -1.03223 -2.34049 0
M  V30 1066 H 108.574 -1.79571 -4.75096 0
M  V30 1067 H 108.504 -0.0914649 -5.26521 0
M  V30 1068 H 110.995 -0.468783 -3.74981 0
M  V30 1069 H 111.308 -1.57597 -7.5656 0
M  V30 1070 H 109.653 -1.4105 -6.80536 0
M  V30 1071 H 112.844 -0.664184 -4.63364 0
M  V30 1072 H 113.017 -1.16884 -6.37371 0
M  V30 1073 N 106.423 1.57458 -0.0668435 0
M  V30 1074 C 107.669 1.93587 0.6043 0
M  V30 1075 C 108.002 0.946722 1.69561 0
M  V30 1076 O 107.277 -0.0248516 1.94484 0
M  V30 1077 C 107.56 3.40014 1.18585 0
M  V30 1078 C 107.413 4.49685 0.101529 0
M  V30 1079 C 108.732 3.87154 2.09284 0
M  V30 1080 H 105.851 0.703958 0.218202 0
M  V30 1081 H 108.493 1.89542 -0.131804 0
M  V30 1082 H 106.643 3.43592 1.81319 0
M  V30 1083 H 108.315 4.5823 -0.531279 0
M  V30 1084 H 106.558 4.30059 -0.568487 0
M  V30 1085 H 107.229 5.49266 0.54874 0
M  V30 1086 H 109.705 3.85551 1.56491 0
M  V30 1087 H 108.581 4.90231 2.46911 0
M  V30 1088 H 108.842 3.2481 2.99918 0
M  V30 1089 N 107.901 -0.206675 1.56239 0
M  V30 1090 C 108.811 -1.27686 1.96808 0
M  V30 1091 C 109.827 -1.50455 0.874035 0
M  V30 1092 O 111.003 -1.63295 1.17884 0
M  V30 1093 C 108.068 -2.60358 2.28942 0
M  V30 1094 C 107.129 -2.45762 3.51994 0
M  V30 1095 C 106.362 -3.72108 3.82585 0
M  V30 1096 O 106.585 -4.75776 3.14631 0
M  V30 1097 O 105.519 -3.6833 4.76043 0
M  V30 1098 H 109.345 -0.962593 2.88041 0
M  V30 1099 H 106.93 -0.410746 1.43643 0
M  V30 1100 H 108.812 -3.38687 2.50737 0
M  V30 1101 H 107.487 -2.91435 1.4088 0
M  V30 1102 H 106.394 -1.65584 3.35459 0
M  V30 1103 H 107.727 -2.19621 4.40486 0
M  V30 1104 N 109.379 -1.50304 -0.473955 0
M  V30 1105 C 110.326 -1.68959 -1.57231 0
M  V30 1106 C 111.296 -0.530899 -1.57387 0
M  V30 1107 O 112.481 -0.761133 -1.74961 0
M  V30 1108 C 109.621 -1.7871 -2.95223 0
M  V30 1109 C 108.734 -3.06061 -3.04878 0
M  V30 1110 C 107.869 -3.06626 -4.33767 0
M  V30 1111 C 106.908 -4.28443 -4.37154 0
M  V30 1112 N 106.045 -4.26763 -5.5751 0
M  V30 1113 H 110.885 -2.6273 -1.40631 0
M  V30 1114 H 108.422 -1.30241 -0.683789 0
M  V30 1115 H 110.38 -1.82344 -3.75242 0
M  V30 1116 H 109.01 -0.883806 -3.10465 0
M  V30 1117 H 108.062 -3.11911 -2.17751 0
M  V30 1118 H 109.374 -3.96039 -3.0324 0
M  V30 1119 H 108.528 -3.08973 -5.22131 0
M  V30 1120 H 107.267 -2.14473 -4.3801 0
M  V30 1121 H 106.272 -4.2631 -3.47188 0
M  V30 1122 H 107.497 -5.2182 -4.34605 0
M  V30 1123 H 105.443 -3.37462 -5.62544 0
M  V30 1124 H 105.36 -5.10507 -5.57601 0
M  V30 1125 H 106.628 -4.33253 -6.48006 0
M  V30 1126 N 110.857 0.726932 -1.39834 0
M  V30 1127 C 112.104 1.48664 -1.37496 0
M  V30 1128 C 112.432 1.94482 0.0264678 0
M  V30 1129 O 111.687 1.67692 1.00886 0
M  V30 1130 C 111.986 2.73495 -2.30077 0
M  V30 1131 C 111.652 2.46502 -3.77555 0
M  V30 1132 C 110.314 2.3885 -4.17737 0
M  V30 1133 C 112.666 2.23604 -4.70798 0
M  V30 1134 C 109.994 2.06352 -5.49214 0
M  V30 1135 C 112.346 1.92622 -6.02561 0
M  V30 1136 C 111.01 1.83444 -6.41798 0
M  V30 1137 H 110.28 0.544001 -0.503135 0
M  V30 1138 H 112.927 0.833657 -1.72402 0
M  V30 1139 H 111.232 3.43575 -1.88317 0
M  V30 1140 H 112.929 3.31549 -2.25558 0
M  V30 1141 H 109.519 2.5334 -3.45712 0
M  V30 1142 H 113.703 2.28479 -4.40581 0
M  V30 1143 H 108.959 1.97776 -5.78528 0
M  V30 1144 H 113.133 1.73914 -6.74334 0
M  V30 1145 H 110.76 1.58029 -7.43593 0
M  V30 1146 N 112.336 1.25143 0.95797 0
M  V30 1147 C 113.613 1.00472 1.67823 0
M  V30 1148 C 113.993 -0.470056 2.058 0
M  V30 1149 O 113.341 -1.44663 1.76875 0
M  V30 1150 C 113.551 1.9372 2.90299 0
M  V30 1151 C 114.899 2.21371 3.62326 0
M  V30 1152 O 115.923 1.91451 3.00375 0
M  V30 1153 O 114.782 2.72231 4.7387 0
M  V30 1154 H 111.876 0.380752 0.734137 0
M  V30 1155 H 114.422 1.36283 1.01119 0
M  V30 1156 H 113.194 2.93316 2.59001 0
M  V30 1157 H 112.817 1.58286 3.64735 0
M  V30 1158 N 113.814 -1.1601 1.06675 0
M  V30 1159 C 114.744 -2.22688 0.702307 0
M  V30 1160 C 115.725 -1.67306 -0.307032 0
M  V30 1161 O 116.91 -1.93352 -0.181305 0
M  V30 1162 C 114.04 -3.47178 0.092038 0
M  V30 1163 C 112.994 -4.15477 1.02777 0
M  V30 1164 C 112.32 -5.33963 0.28061 0
M  V30 1165 C 113.62 -4.66019 2.35846 0
M  V30 1166 H 115.314 -2.53429 1.59419 0
M  V30 1167 H 112.86 -1.21813 0.767961 0
M  V30 1168 H 114.813 -4.21037 -0.174814 0
M  V30 1169 H 113.537 -3.15749 -0.834877 0
M  V30 1170 H 112.196 -3.43549 1.27944 0
M  V30 1171 H 111.844 -4.98788 -0.649545 0
M  V30 1172 H 111.544 -5.806 0.904258 0
M  V30 1173 H 113.068 -6.10596 0.021396 0
M  V30 1174 H 114.482 -5.3144 2.15045 0
M  V30 1175 H 112.879 -5.23293 2.93743 0
M  V30 1176 H 113.949 -3.82023 2.98641 0
M  V30 1177 N 115.292 -0.849877 -1.32721 0
M  V30 1178 C 116.538 -0.451591 -1.97708 0
M  V30 1179 C 116.871 0.989175 -1.6712 0
M  V30 1180 O 116.146 1.69334 -0.956891 0
M  V30 1181 C 116.429 -0.685598 -3.53513 0
M  V30 1182 C 116.282 -2.17444 -3.93749 0
M  V30 1183 C 117.601 -0.138874 -4.39881 0
M  V30 1184 H 114.72 -0.16555 -0.718166 0
M  V30 1185 H 117.362 -1.06742 -1.57182 0
M  V30 1186 H 115.512 -0.161416 -3.88165 0
M  V30 1187 H 117.184 -2.76433 -3.693 0
M  V30 1188 H 115.427 -2.65476 -3.43081 0
M  V30 1189 H 116.098 -2.28888 -5.02309 0
M  V30 1190 H 118.574 -0.587068 -4.11938 0
M  V30 1191 H 117.45 -0.332213 -5.47894 0
M  V30 1192 H 117.711 0.95806 -4.31594 0
M  V30 1193 N 116.77 1.45427 -0.607355 0
M  V30 1194 C 118.181 1.85756 -0.187535 0
M  V30 1195 C 118.532 1.5077 1.25551 0
M  V30 1196 O 117.657 0.93427 1.95193 0
M  V30 1197 C 118.252 3.37154 -0.333572 0
M  V30 1198 C 116.811 3.76387 0.0315542 0
M  V30 1199 C 115.958 2.69377 -0.658117 0
M  V30 1200 H 118.909 1.36231 -0.81405 0
M  V30 1201 H 118.93 3.78014 0.43428 0
M  V30 1202 H 118.442 3.62586 -1.38393 0
M  V30 1203 H 116.543 3.56571 1.0811 0
M  V30 1204 H 116.656 4.77731 -0.361935 0
M  V30 1205 H 115.02 2.5452 -0.0957873 0
M  V30 1206 H 115.803 2.97646 -1.7106 0
M  V30 1207 N 118.248 0.346503 1.53744 0
M  V30 1208 C 119.494 -0.249473 2.0126 0
M  V30 1209 C 119.827 -1.49965 1.23386 0
M  V30 1210 O 119.102 -1.91811 0.32229 0
M  V30 1211 C 119.385 -0.560643 3.55709 0
M  V30 1212 C 119.238 0.701836 4.44291 0
M  V30 1213 C 120.557 -1.36905 4.18264 0
M  V30 1214 H 117.676 -0.0891987 0.731582 0
M  V30 1215 H 120.318 0.467624 1.84156 0
M  V30 1216 H 118.468 -1.17156 3.70414 0
M  V30 1217 H 120.14 1.33974 4.41417 0
M  V30 1218 H 118.383 1.32612 4.13033 0
M  V30 1219 H 119.054 0.43933 5.50249 0
M  V30 1220 H 121.53 -0.852448 4.07275 0
M  V30 1221 H 120.406 -1.55553 5.26398 0
M  V30 1222 H 120.667 -2.37203 3.73078 0
M  V30 1223 N 119.726 -1.57421 0.075193 0
M  V30 1224 C 121.137 -1.81021 -0.456964 0
M  V30 1225 C 121.488 -0.98936 -1.69429 0
M  V30 1226 O 120.613 -0.212865 -2.15351 0
M  V30 1227 C 121.208 -3.28329 -0.83581 0
M  V30 1228 C 119.767 -3.52764 -1.31281 0
M  V30 1229 C 118.914 -2.75676 -0.299648 0
M  V30 1230 H 121.865 -1.55822 0.300856 0
M  V30 1231 H 121.886 -3.40564 -1.69696 0
M  V30 1232 H 121.398 -3.88046 0.0649238 0
M  V30 1233 H 119.499 -2.98355 -2.23193 0
M  V30 1234 H 119.612 -4.61451 -1.28839 0
M  V30 1235 H 117.976 -2.42538 -0.777641 0
M  V30 1236 H 118.759 -3.38132 0.593417 0
M  V30 1237 N 121.204 0.198386 -1.56346 0
M  V30 1238 C 122.432 0.935572 -1.84539 0
M  V30 1239 C 122.847 1.76989 -0.657281 0
M  V30 1240 O 122.204 1.78626 0.374043 0
M  V30 1241 C 122.255 1.8344 -3.11499 0
M  V30 1242 O 121.976 1.03377 -4.25728 0
M  V30 1243 C 123.477 2.68355 -3.52846 0
M  V30 1244 H 120.697 0.273126 -0.612897 0
M  V30 1245 H 123.241 0.20663 -2.03453 0
M  V30 1246 H 121.396 2.51701 -2.94492 0
M  V30 1247 H 121.81 1.64599 -4.98003 0
M  V30 1248 H 123.284 3.27085 -4.44657 0
M  V30 1249 H 123.761 3.41901 -2.75681 0
M  V30 1250 H 124.367 2.05471 -3.72373 0
M  V30 1251 N 122.682 1.50554 0.465978 0
M  V30 1252 C 123.63 1.70324 1.58406 0
M  V30 1253 C 124.624 0.569139 1.59553 0
M  V30 1254 O 125.83 0.749776 1.63641 0
M  V30 1255 H 122.205 0.537688 0.525734 0
M  V30 1256 H 124.176 2.64104 1.38894 0
M  V30 1257 C 122.925 1.81928 2.96307 0
M  V30 1258 H 122.248 2.68586 2.96144 0
M  V30 1259 H 123.688 1.99784 3.73982 0
M  V30 1260 C 122.147 0.572095 3.32007 0
M  V30 1261 O 122.677 -0.286416 4.00678 0
M  V30 1262 N 120.883 0.424606 2.87481 0
M  V30 1263 H 120.43 1.12427 2.31771 0
M  V30 1264 H 120.388 -0.408697 3.11732 0
M  V30 1265 N 124.16 -0.719506 1.40217 0
M  V30 1266 C 125.09 -1.8465 1.42922 0
M  V30 1267 C 126.071 -1.67599 0.29062 0
M  V30 1268 O 127.256 -1.87688 0.498677 0
M  V30 1269 C 124.386 -3.22565 1.28722 0
M  V30 1270 C 123.34 -3.54281 2.40144 0
M  V30 1271 C 122.666 -4.91298 2.11023 0
M  V30 1272 C 123.966 -3.55676 3.82481 0
M  V30 1273 H 125.66 -1.82644 2.37237 0
M  V30 1274 H 123.206 -0.877305 1.1419 0
M  V30 1275 H 125.159 -4.01095 1.29232 0
M  V30 1276 H 123.883 -3.25137 0.308811 0
M  V30 1277 H 122.542 -2.78088 2.38877 0
M  V30 1278 H 122.19 -4.90468 1.11582 0
M  V30 1279 H 121.89 -5.13485 2.8567 0
M  V30 1280 H 123.414 -5.72166 2.13209 0
M  V30 1281 H 124.828 -4.24254 3.85592 0
M  V30 1282 H 123.225 -3.89388 4.56614 0
M  V30 1283 H 124.295 -2.55144 4.12346 0
M  V30 1284 N 125.638 -1.25649 -0.95132 0
M  V30 1285 C 126.868 -1.13179 -1.72841 0
M  V30 1286 C 127.276 0.316827 -1.86528 0
M  V30 1287 O 126.619 1.22948 -1.3649 0
M  V30 1288 C 126.681 -1.71644 -3.15878 0
M  V30 1289 C 126.345 -3.20667 -3.25609 0
M  V30 1290 C 127.342 -4.17616 -3.09666 0
M  V30 1291 C 125.027 -3.6094 -3.49324 0
M  V30 1292 C 127.021 -5.52817 -3.17289 0
M  V30 1293 C 124.708 -4.96278 -3.56584 0
M  V30 1294 C 125.706 -5.92025 -3.40581 0
M  V30 1295 O 125.394 -7.24899 -3.47528 0
M  V30 1296 H 125.126 -0.395389 -0.54831 0
M  V30 1297 H 127.68 -1.66566 -1.20187 0
M  V30 1298 H 125.91 -1.12707 -3.69911 0
M  V30 1299 H 127.599 -1.54225 -3.75459 0
M  V30 1300 H 128.365 -3.87842 -2.91211 0
M  V30 1301 H 124.244 -2.86907 -3.6084 0
M  V30 1302 H 127.788 -6.2753 -3.04716 0
M  V30 1303 H 123.685 -5.25716 -3.74556 0
M  V30 1304 H 124.453 -7.33039 -3.64138 0
M  V30 1305 N 127.117 1.15442 -1.07289 0
M  V30 1306 C 128.365 1.85845 -0.794096 0
M  V30 1307 C 128.686 1.82692 0.681809 0
M  V30 1308 O 127.956 1.26741 1.49377 0
M  V30 1309 H 126.536 0.688089 -0.290763 0
M  V30 1310 H 129.198 1.39947 -1.3565 0
M  V30 1311 H 128.294 2.91001 -1.12804 0
M  V30 1312 N 128.595 0.856903 1.32268 0
M  V30 1313 C 129.872 0.382583 1.91822 0
M  V30 1314 C 130.252 -1.13407 1.78051 0
M  V30 1315 O 129.6 -1.95673 1.18001 0
M  V30 1316 C 129.81 0.849446 3.38505 0
M  V30 1317 C 131.158 0.867936 4.15634 0
M  V30 1318 O 132.182 0.794232 3.47232 0
M  V30 1319 O 131.041 0.972286 5.37781 0
M  V30 1320 H 128.135 0.112014 0.819379 0
M  V30 1321 H 130.681 0.943952 1.41024 0
M  V30 1322 H 129.453 1.89267 3.42482 0
M  V30 1323 H 129.076 0.265652 3.96712 0
M  V30 1324 N 130.073 -1.45103 0.615059 0
M  V30 1325 C 131.32 -2.02183 0.113179 0
M  V30 1326 C 131.648 -1.48249 -1.25906 0
M  V30 1327 O 130.903 -0.650265 -1.84581 0
M  V30 1328 C 131.202 -3.57386 0.0318797 0
M  V30 1329 C 130.868 -4.30505 1.34077 0
M  V30 1330 C 129.53 -4.50197 1.69929 0
M  V30 1331 C 131.882 -4.72238 2.20546 0
M  V30 1332 C 129.21 -5.08881 2.91988 0
M  V30 1333 C 131.562 -5.32272 3.41861 0
M  V30 1334 C 130.226 -5.50187 3.77956 0
M  V30 1335 H 129.496 -0.739842 0.0414151 0
M  V30 1336 H 132.143 -1.74073 0.798168 0
M  V30 1337 H 130.448 -3.84817 -0.736409 0
M  V30 1338 H 132.145 -3.99264 -0.372712 0
M  V30 1339 H 128.735 -4.15496 1.05173 0
M  V30 1340 H 132.919 -4.56751 1.94146 0
M  V30 1341 H 128.175 -5.20939 3.2005 0
M  V30 1342 H 132.349 -5.63563 4.09109 0
M  V30 1343 H 129.976 -5.95427 4.72622 0
M  V30 1344 N 131.551 -0.354651 -1.53558 0
M  V30 1345 C 132.798 0.238443 -2.01091 0
M  V30 1346 C 133.126 1.49663 -1.24222 0
M  V30 1347 O 132.381 1.93049 -0.321003 0
M  V30 1348 C 132.68 0.587121 -3.52545 0
M  V30 1349 C 132.346 -0.575472 -4.47213 0
M  V30 1350 C 131.008 -0.894497 -4.72813 0
M  V30 1351 C 133.36 -1.35489 -5.03281 0
M  V30 1352 C 130.688 -1.99511 -5.51736 0
M  V30 1353 C 133.04 -2.44583 -5.83405 0
M  V30 1354 C 131.704 -2.77033 -6.07296 0
M  V30 1355 H 130.974 0.0872526 -0.735845 0
M  V30 1356 H 133.621 -0.484859 -1.8526 0
M  V30 1357 H 131.926 1.39129 -3.66265 0
M  V30 1358 H 133.623 1.05809 -3.86789 0
M  V30 1359 H 130.213 -0.316774 -4.27428 0
M  V30 1360 H 134.397 -1.12167 -4.83459 0
M  V30 1361 H 129.653 -2.25063 -5.68469 0
M  V30 1362 H 133.827 -3.05401 -6.25862 0
M  V30 1363 H 131.454 -3.6244 -6.68237 0
M  V30 1364 N 133.029 1.57378 -0.0835403 0
M  V30 1365 C 134.257 1.98263 0.59157 0
M  V30 1366 C 134.672 0.962302 1.62435 0
M  V30 1367 O 134.029 -0.049581 1.82433 0
M  V30 1368 C 134.08 3.39214 1.24965 0
M  V30 1369 O 133.801 4.37339 0.258186 0
M  V30 1370 C 135.302 3.95038 2.01147 0
M  V30 1371 H 132.522 0.651773 0.159477 0
M  V30 1372 H 135.066 2.03878 -0.159415 0
M  V30 1373 H 133.221 3.34649 1.95164 0
M  V30 1374 H 133.635 5.19371 0.731734 0
M  V30 1375 H 135.109 4.95848 2.42567 0
M  V30 1376 H 135.586 3.32222 2.87272 0
M  V30 1377 H 136.192 4.0304 1.35789 0
M  V30 1378 N 134.507 -0.190092 1.56449 0
M  V30 1379 C 135.755 -0.907908 1.80559 0
M  V30 1380 C 136.076 -1.83583 0.657438 0
M  V30 1381 O 135.346 -1.93203 -0.323924 0
M  V30 1382 H 133.926 -0.338247 0.666032 0
M  V30 1383 H 136.588 -0.194403 1.93928 0
M  V30 1384 H 135.684 -1.49604 2.73907 0
M  V30 1385 N 135.985 -1.50799 -0.457987 0
M  V30 1386 C 137.262 -1.52968 -1.21902 0
M  V30 1387 C 137.642 -0.281906 -2.09209 0
M  V30 1388 O 136.99 0.734076 -2.16388 0
M  V30 1389 C 137.2 -2.8326 -2.03875 0
M  V30 1390 C 138.548 -3.34425 -2.6162 0
M  V30 1391 O 139.572 -2.8467 -2.14106 0
M  V30 1392 O 138.431 -4.21188 -3.48228 0
M  V30 1393 H 135.525 -0.614129 -0.553873 0
M  V30 1394 H 138.071 -1.63098 -0.468739 0
M  V30 1395 H 136.843 -3.65543 -1.39621 0
M  V30 1396 H 136.466 -2.76195 -2.8601 0
M  V30 1397 N 137.463 0.71206 -1.40597 0
M  V30 1398 C 138.426 1.80785 -1.40888 0
M  V30 1399 C 139.426 1.57937 -0.302103 0
M  V30 1400 O 140.616 1.64913 -0.561182 0
M  V30 1401 C 137.748 3.18927 -1.20409 0
M  V30 1402 H 138.941 1.81924 -2.38419 0
M  V30 1403 H 136.494 0.91805 -1.26497 0
M  V30 1404 H 137.229 3.23436 -0.236522 0
M  V30 1405 H 137.014 3.36911 -2.00582 0
M  V30 1406 H 138.504 3.98949 -1.23408 0
M  V30 1407 N 138.941 1.26152 0.944643 0
M  V30 1408 C 140.171 1.14094 1.72239 0
M  V30 1409 C 140.579 -0.306931 1.86694 0
M  V30 1410 O 139.922 -1.22222 1.3714 0
M  V30 1411 C 139.984 1.73316 3.14963 0
M  V30 1412 C 139.648 3.2239 3.23904 0
M  V30 1413 C 140.645 4.19252 3.07447 0
M  V30 1414 C 138.33 3.62788 3.47405 0
M  V30 1415 C 140.324 5.54491 3.14353 0
M  V30 1416 C 138.011 4.98162 3.53947 0
M  V30 1417 C 139.009 5.93823 3.37436 0
M  V30 1418 O 138.697 7.26732 3.43679 0
M  V30 1419 H 138.429 0.398292 0.546205 0
M  V30 1420 H 140.983 1.67201 1.19301 0
M  V30 1421 H 139.213 1.14667 3.69308 0
M  V30 1422 H 140.902 1.56214 3.74636 0
M  V30 1423 H 141.668 3.8938 2.8915 0
M  V30 1424 H 137.547 2.88816 3.59313 0
M  V30 1425 H 141.091 6.29137 3.01384 0
M  V30 1426 H 136.988 5.27695 3.71763 0
M  V30 1427 H 137.756 7.3496 3.60245 0
M  V30 1428 N 140.419 -1.14872 1.07899 0
M  V30 1429 C 141.665 -1.86064 0.806725 0
M  V30 1430 C 141.998 -1.82434 -0.665706 0
M  V30 1431 O 141.273 -1.25138 -1.48899 0
M  V30 1432 C 141.556 -3.34929 1.32267 0
M  V30 1433 C 141.409 -3.47161 2.86006 0
M  V30 1434 C 142.728 -4.29863 0.943717 0
M  V30 1435 H 139.847 -0.675591 0.294526 0
M  V30 1436 H 142.489 -1.34925 1.33773 0
M  V30 1437 H 140.639 -3.78611 0.870974 0
M  V30 1438 H 142.311 -3.12302 3.39507 0
M  V30 1439 H 140.554 -2.88539 3.23925 0
M  V30 1440 H 141.225 -4.51777 3.17177 0
M  V30 1441 H 143.701 -3.9417 1.33302 0
M  V30 1442 H 142.577 -5.32494 1.33198 0
M  V30 1443 H 142.838 -4.41846 -0.149796 0
M  V30 1444 N 141.898 -0.863906 -1.31812 0
M  V30 1445 C 143.147 -0.46801 -1.96195 0
M  V30 1446 C 143.46 0.983474 -1.69077 0
M  V30 1447 O 144.666 1.48523 -2.27273 0
M  V30 1448 C 143.122 -0.785995 -3.51212 0
M  V30 1449 C 142.73 -2.25383 -3.87178 0
M  V30 1450 C 144.474 -0.458274 -4.22019 0
M  V30 1451 C 142.381 -2.51455 -5.3528 0
M  V30 1452 H 141.311 -0.171283 -0.734287 0
M  V30 1453 H 143.962 -1.05597 -1.50072 0
M  V30 1454 H 142.344 -0.127359 -3.95795 0
M  V30 1455 H 143.518 -2.95502 -3.53575 0
M  V30 1456 H 141.833 -2.54698 -3.2942 0
M  V30 1457 H 144.43 -0.630369 -5.30971 0
M  V30 1458 H 144.773 0.600834 -4.11941 0
M  V30 1459 H 145.306 -1.07319 -3.8305 0
M  V30 1460 H 142.045 -3.56025 -5.50387 0
M  V30 1461 H 141.565 -1.85923 -5.70257 0
M  V30 1462 H 143.244 -2.35874 -6.02472 0
M  V30 1463 N 143.376 1.44774 -0.622745 0
M  V30 1464 C 144.306 2.33382 0.0741861 0
M  V30 1465 C 145.287 1.47719 0.843387 0
M  V30 1466 O 146.472 1.76458 0.810934 0
M  V30 1467 C 143.602 3.30663 1.06204 0
M  V30 1468 C 142.556 4.26079 0.405037 0
M  V30 1469 C 141.882 5.13165 1.5022 0
M  V30 1470 C 143.182 5.1781 -0.683414 0
M  V30 1471 H 144.876 2.91905 -0.665713 0
M  V30 1472 H 142.422 1.40363 -0.321587 0
M  V30 1473 H 144.375 3.9153 1.55827 0
M  V30 1474 H 143.099 2.70331 1.83272 0
M  V30 1475 H 141.758 3.66532 -0.0704683 0
M  V30 1476 H 141.406 4.49191 2.26355 0
M  V30 1477 H 141.106 5.77812 1.06803 0
M  V30 1478 H 142.63 5.76902 2.00041 0
M  V30 1479 H 144.044 5.72661 -0.270631 0
M  V30 1480 H 142.441 5.91015 -1.04023 0
M  V30 1481 H 143.511 4.59326 -1.55395 0
M  V30 1482 N 144.854 0.36279 1.53368 0
M  V30 1483 C 145.801 -0.485008 2.25646 0
M  V30 1484 C 146.771 -1.07982 1.2621 0
M  V30 1485 O 147.956 -1.11284 1.54986 0
M  V30 1486 C 145.096 -1.62023 3.04701 0
M  V30 1487 C 144.209 -1.05086 4.19024 0
M  V30 1488 C 143.344 -2.15496 4.85525 0
M  V30 1489 C 142.383 -1.5601 5.91884 0
M  V30 1490 N 141.52 -2.60241 6.52088 0
M  V30 1491 H 146.36 0.137864 2.97681 0
M  V30 1492 H 143.897 0.0798061 1.46883 0
M  V30 1493 H 145.855 -2.28887 3.48807 0
M  V30 1494 H 144.485 -2.2138 2.34927 0
M  V30 1495 H 143.537 -0.27259 3.79422 0
M  V30 1496 H 144.849 -0.575926 4.95464 0
M  V30 1497 H 144.003 -2.90186 5.32801 0
M  V30 1498 H 142.742 -2.66341 4.08551 0
M  V30 1499 H 141.747 -0.798338 5.43973 0
M  V30 1500 H 142.972 -1.05994 6.70777 0
M  V30 1501 H 140.918 -3.10304 5.77968 0
M  V30 1502 H 140.835 -2.17426 7.24059 0
M  V30 1503 H 142.103 -3.34641 7.04014 0
M  V30 1504 N 146.332 -1.57332 0.0918853 0
M  V30 1505 C 147.56 -1.98574 -0.581048 0
M  V30 1506 C 147.975 -0.970903 -1.61923 0
M  V30 1507 O 147.332 0.0399054 -1.82456 0
M  V30 1508 C 147.383 -3.39872 -1.23164 0
M  V30 1509 O 147.104 -4.37469 -0.234989 0
M  V30 1510 C 148.605 -3.96099 -1.99049 0
M  V30 1511 H 145.825 -0.65261 -0.156018 0
M  V30 1512 H 148.369 -2.0379 0.170225 0
M  V30 1513 H 146.524 -3.35679 -1.93386 0
M  V30 1514 H 146.938 -5.19751 -0.70418 0
M  V30 1515 H 148.412 -4.97127 -2.39934 0
M  V30 1516 H 148.889 -3.3374 -2.85507 0
M  V30 1517 H 149.495 -4.03755 -1.3365 0
M  V30 1518 N 147.81 0.181792 -1.56548 0
M  V30 1519 C 149.056 0.901431 -1.81665 0
M  V30 1520 C 149.389 1.82347 -0.668075 0
M  V30 1521 O 148.664 1.91669 0.330615 0
M  V30 1522 C 148.947 1.70618 -3.17115 0
M  V30 1523 C 148.8 0.807964 -4.42484 0
M  V30 1524 C 150.119 2.67605 -3.49393 0
M  V30 1525 H 147.238 0.32627 -0.660846 0
M  V30 1526 H 149.88 0.168134 -1.89255 0
M  V30 1527 H 148.03 2.33133 -3.10775 0
M  V30 1528 H 149.702 0.19649 -4.60881 0
M  V30 1529 H 147.945 0.115411 -4.33646 0
M  V30 1530 H 148.616 1.40632 -5.33785 0
M  V30 1531 H 151.092 2.15218 -3.56118 0
M  V30 1532 H 149.968 3.20985 -4.45264 0
M  V30 1533 H 150.229 3.47298 -2.73563 0
M  V30 1534 N 149.288 1.51039 0.449983 0
M  V30 1535 C 150.22 1.67617 1.56324 0
M  V30 1536 C 151.233 0.557083 1.52972 0
M  V30 1537 O 152.422 0.830989 1.57977 0
M  V30 1538 C 149.522 1.66402 2.95235 0
M  V30 1539 C 148.695 2.9469 3.23229 0
M  V30 1540 C 147.754 2.85832 4.41799 0
M  V30 1541 O 146.78 3.59785 4.41071 0
M  V30 1542 N 147.982 2.00821 5.44657 0
M  V30 1543 H 150.747 2.63648 1.42512 0
M  V30 1544 H 148.308 1.48767 0.638737 0
M  V30 1545 H 150.3 1.58062 3.72557 0
M  V30 1546 H 148.87 0.780182 3.02708 0
M  V30 1547 H 148.09 3.16996 2.34323 0
M  V30 1548 H 149.378 3.79636 3.38754 0
M  V30 1549 H 148.776 1.40091 5.48079 0
M  V30 1550 H 147.333 1.98368 6.20881 0
M  V30 1551 N 150.766 -0.704594 1.40972 0
M  V30 1552 C 151.696 -1.83124 1.44872 0
M  V30 1553 C 152.677 -1.67281 0.30838 0
M  V30 1554 O 153.862 -1.87149 0.518556 0
M  V30 1555 C 150.992 -3.21181 1.32136 0
M  V30 1556 C 149.946 -3.51714 2.43888 0
M  V30 1557 C 149.272 -4.89032 2.16222 0
M  V30 1558 C 150.572 -3.516 3.86232 0
M  V30 1559 H 152.266 -1.80117 2.39161 0
M  V30 1560 H 149.812 -0.865145 1.15114 0
M  V30 1561 H 151.765 -3.99702 1.33479 0
M  V30 1562 H 150.489 -3.24791 0.343279 0
M  V30 1563 H 149.148 -2.75539 2.41813 0
M  V30 1564 H 148.796 -4.89256 1.16778 0
M  V30 1565 H 148.496 -5.10426 2.911 0
M  V30 1566 H 150.02 -5.69873 2.19265 0
M  V30 1567 H 151.434 -4.2014 3.9007 0
M  V30 1568 H 149.831 -3.84523 4.60719 0
M  V30 1569 H 150.901 -2.50757 4.15029 0
M  V30 1570 N 152.244 -1.26651 -0.937939 0
M  V30 1571 C 153.66 -1.03834 -1.21205 0
M  V30 1572 C 153.86 0.234502 -2.00131 0
M  V30 1573 O 152.916 0.942767 -2.3424 0
M  V30 1574 C 154.229 -2.27167 -1.97017 0
M  V30 1575 C 155.777 -2.32101 -2.09996 0
M  V30 1576 C 156.252 -3.55136 -2.8921 0
M  V30 1577 N 157.743 -3.55632 -2.96783 0
M  V30 1578 C 158.478 -4.475 -3.58512 0
M  V30 1579 N 157.974 -5.4966 -4.21717 0
M  V30 1580 N 159.767 -4.35145 -3.55816 0
M  V30 1581 H 151.918 -2.08398 -0.410391 0
M  V30 1582 H 154.181 -0.916031 -0.244114 0
M  V30 1583 H 153.887 -3.19765 -1.46434 0
M  V30 1584 H 153.761 -2.31672 -2.97671 0
M  V30 1585 H 156.148 -1.40015 -2.59769 0
M  V30 1586 H 156.229 -2.31605 -1.08594 0
M  V30 1587 H 155.873 -4.47553 -2.40123 0
M  V30 1588 H 155.803 -3.5288 -3.90875 0
M  V30 1589 H 158.294 -2.81743 -2.51852 0
M  V30 1590 H 158.607 -6.15943 -4.66727 0
M  V30 1591 H 156.952 -5.53514 -4.20294 0
M  V30 1592 H 160.143 -3.5455 -3.05634 0
M  V30 1593 H 160.316 -5.06934 -4.03636 0
M  V30 1594 N 153.722 1.14298 -1.08507 0
M  V30 1595 C 154.67 2.21483 -0.710483 0
M  V30 1596 C 155.664 1.66998 0.284234 0
M  V30 1597 O 156.87 1.79401 0.146692 0
M  V30 1598 H 153.245 0.721578 -0.211729 0
M  V30 1599 H 155.216 2.50348 -1.62384 0
M  V30 1600 C 153.965 3.4743 -0.137007 0
M  V30 1601 H 153.288 3.89686 -0.893592 0
M  V30 1602 H 154.728 4.2391 0.0872789 0
M  V30 1603 C 153.187 3.17548 1.12538 0
M  V30 1604 O 153.717 3.35437 2.21009 0
M  V30 1605 N 151.923 2.71499 1.03617 0
M  V30 1606 H 151.47 2.57143 0.153403 0
M  V30 1607 H 151.428 2.51881 1.88158 0
M  V30 1608 N 155.201 0.870884 1.31352 0
M  V30 1609 C 156.449 0.48132 1.96285 0
M  V30 1610 C 156.77 -0.969813 1.69173 0
M  V30 1611 O 156.04 -1.67998 1.00764 0
M  V30 1612 H 154.62 0.175002 0.726212 0
M  V30 1613 H 157.282 1.11087 1.60143 0
M  V30 1614 H 156.378 0.639825 3.05471 0
M  V30 1615 N 156.679 -1.44442 0.630414 0
M  V30 1616 C 157.627 -2.32437 -0.0871428 0
M  V30 1617 C 158.621 -1.47304 -0.836525 0
M  V30 1618 O 159.827 -1.63653 -0.749506 0
M  V30 1619 H 156.202 -0.750533 -0.0469495 0
M  V30 1620 H 158.173 -2.90709 0.673096 0
M  V30 1621 C 156.922 -3.31288 -1.05563 0
M  V30 1622 H 156.245 -3.96805 -0.488426 0
M  V30 1623 H 157.685 -3.9554 -1.52721 0
M  V30 1624 C 156.144 -2.6016 -2.14052 0
M  V30 1625 O 156.674 -2.39997 -3.22124 0
M  V30 1626 N 154.88 -2.19911 -1.89967 0
M  V30 1627 H 154.427 -2.36509 -1.02085 0
M  V30 1628 H 154.385 -1.72646 -2.62756 0
M  V30 1629 N 158.157 -0.370918 -1.53173 0
M  V30 1630 C 159.087 0.464847 -2.28826 0
M  V30 1631 C 160.068 1.07936 -1.31468 0
M  V30 1632 O 161.253 1.0956 -1.60344 0
M  V30 1633 C 158.383 1.60196 -3.08147 0
M  V30 1634 C 157.337 1.11443 -4.13237 0
M  V30 1635 C 156.663 2.3422 -4.80672 0
M  V30 1636 C 157.963 0.195384 -5.21934 0
M  V30 1637 H 159.657 -0.166329 -2.98938 0
M  V30 1638 H 157.203 -0.0814359 -1.4377 0
M  V30 1639 H 159.156 2.19332 -3.59822 0
M  V30 1640 H 157.88 2.26045 -2.35735 0
M  V30 1641 H 156.539 0.545727 -3.62515 0
M  V30 1642 H 156.187 2.98537 -4.04827 0
M  V30 1643 H 155.887 2.02269 -5.51689 0
M  V30 1644 H 157.411 2.94032 -5.35143 0
M  V30 1645 H 158.825 0.694375 -5.69079 0
M  V30 1646 H 157.222 -0.0335027 -6.00091 0
M  V30 1647 H 158.292 -0.760961 -4.78892 0
M  V30 1648 N 159.635 1.57281 -0.100228 0
M  V30 1649 C 160.567 2.11342 0.886972 0
M  V30 1650 C 161.58 1.05182 1.24261 0
M  V30 1651 O 162.769 1.32613 1.19483 0
M  V30 1652 C 159.869 2.5825 2.19454 0
M  V30 1653 C 159.042 3.88302 2.01346 0
M  V30 1654 C 158.101 4.21004 3.15661 0
M  V30 1655 O 157.127 4.9014 2.89398 0
M  V30 1656 N 158.329 3.76818 4.41575 0
M  V30 1657 H 161.094 2.96668 0.425216 0
M  V30 1658 H 158.655 1.61678 0.0847334 0
M  V30 1659 H 160.647 2.7717 2.94888 0
M  V30 1660 H 159.217 1.77907 2.57037 0
M  V30 1661 H 158.437 3.7848 1.10212 0
M  V30 1662 H 159.725 4.73375 1.8653 0
M  V30 1663 H 159.123 3.2102 4.65792 0
M  V30 1664 H 157.68 4.00882 5.13942 0
M  V30 1665 N 161.113 -0.173488 1.56642 0
M  V30 1666 C 162.343 -0.904781 1.85734 0
M  V30 1667 C 162.751 -1.76431 0.68328 0
M  V30 1668 O 162.094 -1.802 -0.356865 0
M  V30 1669 C 162.156 -1.83382 3.09211 0
M  V30 1670 C 161.82 -1.15411 4.42187 0
M  V30 1671 C 162.817 -0.520609 5.17287 0
M  V30 1672 C 160.502 -1.15151 4.88923 0
M  V30 1673 C 162.496 0.106412 6.37311 0
M  V30 1674 C 160.183 -0.520664 6.08878 0
M  V30 1675 C 161.181 0.107196 6.82916 0
M  V30 1676 O 160.869 0.728102 8.00596 0
M  V30 1677 H 160.601 -0.268408 0.62043 0
M  V30 1678 H 163.155 -0.179096 2.04618 0
M  V30 1679 H 161.385 -2.59976 2.86268 0
M  V30 1680 H 163.074 -2.43476 3.24768 0
M  V30 1681 H 163.84 -0.514606 4.82262 0
M  V30 1682 H 159.719 -1.62961 4.31236 0
M  V30 1683 H 163.263 0.597081 6.9504 0
M  V30 1684 H 159.16 -0.524242 6.43368 0
M  V30 1685 H 159.928 0.627138 8.16094 0
M  V30 1686 N 162.591 -1.51276 -0.441967 0
M  V30 1687 C 163.868 -1.54252 -1.20273 0
M  V30 1688 C 164.248 -0.30408 -2.08898 0
M  V30 1689 O 163.596 0.711084 -2.17154 0
M  V30 1690 C 163.806 -2.85406 -2.00859 0
M  V30 1691 C 165.154 -3.37181 -2.58059 0
M  V30 1692 O 166.178 -2.86925 -2.11074 0
M  V30 1693 O 165.037 -4.24858 -3.43741 0
M  V30 1694 H 162.131 -0.619969 -0.547328 0
M  V30 1695 H 164.677 -1.63586 -0.451413 0
M  V30 1696 H 163.449 -3.67003 -1.35736 0
M  V30 1697 H 163.072 -2.79213 -2.83065 0
M  V30 1698 N 164.069 0.697108 -1.41344 0
M  V30 1699 C 164.999 1.82353 -1.45841 0
M  V30 1700 C 165.98 1.67115 -0.317247 0
M  V30 1701 O 167.165 1.86871 -0.528474 0
M  V30 1702 C 164.295 3.20476 -1.33838 0
M  V30 1703 C 163.249 3.50415 -2.4575 0
M  V30 1704 C 162.575 4.87878 -2.18813 0
M  V30 1705 C 163.875 3.49546 -3.88091 0
M  V30 1706 H 165.569 1.78846 -2.40113 0
M  V30 1707 H 163.115 0.859028 -1.15571 0
M  V30 1708 H 165.068 3.98988 -1.35596 0
M  V30 1709 H 163.792 3.24604 -0.360498 0
M  V30 1710 H 162.451 2.74253 -2.43271 0
M  V30 1711 H 162.099 4.8863 -1.19371 0
M  V30 1712 H 161.799 5.08875 -2.93803 0
M  V30 1713 H 163.323 5.68702 -2.22284 0
M  V30 1714 H 164.737 4.18066 -3.92293 0
M  V30 1715 H 163.134 3.82075 -4.62751 0
M  V30 1716 H 164.204 2.48552 -4.16353 0
M  V30 1717 N 165.547 1.27147 0.931209 0
M  V30 1718 C 166.497 1.06227 2.01742 0
M  V30 1719 C 167.481 -0.00859065 1.60898 0
M  V30 1720 O 168.673 0.209537 1.75755 0
M  V30 1721 C 165.802 0.707787 3.35924 0
M  V30 1722 C 164.888 1.81661 3.83223 0
M  V30 1723 N 165.279 3.05564 4.03069 0
M  V30 1724 C 163.577 1.70249 4.12227 0
M  V30 1725 C 164.278 3.77697 4.42403 0
M  V30 1726 N 163.254 3.0544 4.49675 0
M  V30 1727 H 167.056 2.00261 2.15111 0
M  V30 1728 H 164.57 1.1781 1.11779 0
M  V30 1729 H 166.567 0.539043 4.134 0
M  V30 1730 H 165.227 -0.224964 3.2392 0
M  V30 1731 H 166.238 3.41363 3.89476 0
M  V30 1732 H 162.915 0.840329 4.08956 0
M  V30 1733 H 164.305 4.84168 4.65866 0
M  V30 1734 N 167.025 -1.13721 1.09112 0
M  V30 1735 C 168.255 -1.88499 0.845671 0
M  V30 1736 C 168.663 -1.79218 -0.606432 0
M  V30 1737 O 168.006 -1.1544 -1.42896 0
M  V30 1738 C 168.068 -3.38954 1.19793 0
M  V30 1739 C 167.732 -3.72018 2.65428 0
M  V30 1740 C 168.729 -3.7153 3.63677 0
M  V30 1741 C 166.414 -4.01775 3.01467 0
M  V30 1742 C 168.408 -4.00336 4.95994 0
M  V30 1743 C 166.095 -4.30243 4.33975 0
M  V30 1744 C 167.093 -4.29508 5.31048 0
M  V30 1745 O 166.781 -4.5728 6.61173 0
M  V30 1746 H 166.513 -0.603702 0.304171 0
M  V30 1747 H 169.067 -1.44903 1.45576 0
M  V30 1748 H 167.297 -3.83039 0.530871 0
M  V30 1749 H 168.986 -3.95052 0.932146 0
M  V30 1750 H 169.752 -3.4862 3.37179 0
M  V30 1751 H 165.631 -4.01496 2.26544 0
M  V30 1752 H 169.175 -3.99678 5.71755 0
M  V30 1753 H 165.072 -4.52625 4.60219 0
M  V30 1754 H 165.84 -4.74964 6.66597 0
M  V30 1755 N 168.503 -0.877838 -1.30888 0
M  V30 1756 C 169.749 -0.502773 -1.97088 0
M  V30 1757 C 170.104 0.936274 -1.68082 0
M  V30 1758 O 169.397 1.65162 -0.971196 0
M  V30 1759 C 169.591 -0.705748 -3.50363 0
M  V30 1760 C 169.42 -2.16297 -3.94266 0
M  V30 1761 C 168.19 -2.80614 -4.20219 0
M  V30 1762 C 170.388 -3.13606 -4.07622 0
M  V30 1763 N 168.37 -4.17007 -4.50532 0
M  V30 1764 C 169.741 -4.35051 -4.41736 0
M  V30 1765 C 171.796 -3.09491 -3.90026 0
M  V30 1766 C 170.499 -5.52911 -4.60089 0
M  V30 1767 C 172.525 -4.26616 -4.09576 0
M  V30 1768 C 171.887 -5.46825 -4.44029 0
M  V30 1769 H 167.986 -0.233168 -0.746429 0
M  V30 1770 H 170.57 -1.13408 -1.58261 0
M  V30 1771 H 168.741 -0.103976 -3.88261 0
M  V30 1772 H 170.473 -0.298291 -4.03599 0
M  V30 1773 H 167.228 -2.3152 -4.13153 0
M  V30 1774 H 167.652 -4.87426 -4.69834 0
M  V30 1775 H 172.294 -2.17657 -3.62471 0
M  V30 1776 H 170.012 -6.45255 -4.86489 0
M  V30 1777 H 173.598 -4.24894 -3.97438 0
M  V30 1778 H 172.478 -6.35947 -4.58848 0
M  V30 1779 N 169.982 1.44106 -0.638065 0
M  V30 1780 C 170.912 2.33448 0.0494287 0
M  V30 1781 C 171.893 1.48606 0.827672 0
M  V30 1782 O 173.078 1.77308 0.792173 0
M  V30 1783 C 170.208 3.31771 1.02691 0
M  V30 1784 C 169.162 4.26485 0.359823 0
M  V30 1785 C 168.488 5.14729 1.44769 0
M  V30 1786 C 169.788 5.17056 -0.738296 0
M  V30 1787 H 171.482 2.91183 -0.696636 0
M  V30 1788 H 169.028 1.40014 -0.336456 0
M  V30 1789 H 170.981 3.93161 1.51666 0
M  V30 1790 H 169.705 2.7226 1.80395 0
M  V30 1791 H 168.364 3.66437 -0.10934 0
M  V30 1792 H 168.012 4.51566 2.21578 0
M  V30 1793 H 167.712 5.78913 1.00668 0
M  V30 1794 H 169.236 5.78991 1.93911 0
M  V30 1795 H 170.65 5.72342 -0.331354 0
M  V30 1796 H 169.047 5.89879 -1.10286 0
M  V30 1797 H 170.117 4.57652 -1.60258 0
M  V30 1798 N 171.46 0.379036 1.52974 0
M  V30 1799 C 172.708 -0.206014 2.01047 0
M  V30 1800 C 173.029 -1.48175 1.26765 0
M  V30 1801 O 172.299 -1.92085 0.384743 0
M  V30 1802 H 170.879 -0.0791184 0.742798 0
M  V30 1803 H 173.541 0.508366 1.88153 0
M  V30 1804 H 172.637 -0.423501 3.09213 0
M  V30 1805 N 172.938 -1.57226 0.108567 0
M  V30 1806 C 173.886 -2.16002 -0.862885 0
M  V30 1807 C 174.88 -1.10644 -1.28274 0
M  V30 1808 O 176.086 -1.28966 -1.2557 0
M  V30 1809 H 172.461 -0.691148 -0.296342 0
M  V30 1810 H 174.432 -2.96427 -0.342575 0
M  V30 1811 C 173.181 -2.76576 -2.10716 0
M  V30 1812 H 172.504 -3.5734 -1.793 0
M  V30 1813 H 173.944 -3.21253 -2.76717 0
M  V30 1814 C 172.403 -1.73137 -2.89007 0
M  V30 1815 O 172.933 -1.17842 -3.84026 0
M  V30 1816 N 171.139 -1.43317 -2.52801 0
M  V30 1817 H 170.686 -1.88473 -1.75601 0
M  V30 1818 H 170.644 -0.743485 -3.05483 0
M  V30 1819 N 174.416 0.165178 -1.56732 0
M  V30 1820 C 175.326 1.22423 -2.00125 0
M  V30 1821 C 176.342 1.48084 -0.913619 0
M  V30 1822 O 177.518 1.60112 -1.22172 0
M  V30 1823 C 174.583 2.54197 -2.35764 0
M  V30 1824 C 173.644 2.36343 -3.58386 0
M  V30 1825 C 172.877 3.61834 -3.92316 0
M  V30 1826 O 173.1 4.67267 -3.27135 0
M  V30 1827 O 172.034 3.55579 -4.85641 0
M  V30 1828 H 175.86 0.885886 -2.90492 0
M  V30 1829 H 173.445 0.372518 -1.44681 0
M  V30 1830 H 175.327 3.3192 -2.59629 0
M  V30 1831 H 174.002 2.87598 -1.48557 0
M  V30 1832 H 172.909 1.56632 -3.39731 0
M  V30 1833 H 174.242 2.07865 -4.46154 0
M  V30 1834 N 175.894 1.51508 0.433938 0
M  V30 1835 C 177.134 1.66006 1.19253 0
M  V30 1836 C 177.498 0.369868 1.88404 0
M  V30 1837 O 178.699 0.39066 2.65946 0
M  V30 1838 C 176.97 2.83229 2.17981 0
M  V30 1839 S 178.529 3.18075 3.02281 0
M  V30 1840 H 175.347 0.584821 0.404358 0
M  V30 1841 H 177.949 1.89425 0.48357 0
M  V30 1842 H 176.653 3.75407 1.65824 0
M  V30 1843 H 176.184 2.6201 2.93453 0
M  V30 1844 H 178.199 2.64772 4.19655 0
M  V30 1845 N 177.372 -0.689602 1.41712 0
M  V30 1846 C 178.597 -1.48329 1.44959 0
M  V30 1847 C 179.022 -1.8801 0.0581283 0
M  V30 1848 O 178.38 -1.55026 -0.940035 0
M  V30 1849 C 178.428 -2.71835 2.36935 0
M  V30 1850 O 177.532 -3.69549 1.8305 0
M  V30 1851 H 176.873 -0.446199 0.491734 0
M  V30 1852 H 179.403 -0.847127 1.86239 0
M  V30 1853 H 179.413 -3.20076 2.53013 0
M  V30 1854 H 178.088 -2.42291 3.38035 0
M  V30 1855 H 176.665 -3.2851 1.76452 0
M  V30 1856 N 178.85 -1.27639 -0.924453 0
M  V30 1857 C 179.782 -1.06442 -2.02985 0
M  V30 1858 C 180.795 -0.0194771 -1.62788 0
M  V30 1859 O 181.984 -0.261388 -1.76576 0
M  V30 1860 C 179.084 -0.59327 -3.33667 0
M  V30 1861 C 178.257 -1.71123 -4.02537 0
M  V30 1862 C 177.316 -1.23527 -5.11495 0
M  V30 1863 O 176.342 -1.93553 -5.35281 0
M  V30 1864 N 177.544 -0.0926678 -5.80426 0
M  V30 1865 H 180.309 -2.01633 -2.2173 0
M  V30 1866 H 177.87 -1.19248 -1.09505 0
M  V30 1867 H 179.862 -0.258686 -4.03872 0
M  V30 1868 H 178.432 0.265502 -3.1147 0
M  V30 1869 H 177.652 -2.21593 -3.26022 0
M  V30 1870 H 178.94 -2.46145 -4.45298 0
M  V30 1871 H 178.338 0.491741 -5.63559 0
M  V30 1872 H 176.895 0.182714 -6.51544 0
M  V30 1873 N 180.328 1.1314 -1.09713 0
M  V30 1874 C 181.605 1.80762 -0.747302 0
M  V30 1875 C 181.985 1.96663 0.767265 0
M  V30 1876 O 181.333 1.53706 1.69076 0
M  V30 1877 C 181.543 3.15606 -1.48975 0
M  V30 1878 C 182.891 3.90914 -1.65746 0
M  V30 1879 O 183.915 3.25239 -1.45251 0
M  V30 1880 O 182.774 5.08718 -1.9967 0
M  V30 1881 H 179.868 0.782103 -0.268782 0
M  V30 1882 H 182.414 1.20041 -1.19951 0
M  V30 1883 H 181.186 2.99278 -2.52088 0
M  V30 1884 H 180.809 3.84029 -1.02991 0
M  V30 1885 N 181.806 0.884767 1.30421 0
M  V30 1886 C 182.716 0.355398 2.31892 0
M  V30 1887 C 183.732 -0.542261 1.65335 0
M  V30 1888 O 184.908 -0.435432 1.96637 0
M  V30 1889 C 181.973 -0.421661 3.44126 0
M  V30 1890 C 181.034 0.505727 4.26311 0
M  V30 1891 C 180.267 -0.234343 5.33185 0
M  V30 1892 O 180.49 -1.46045 5.51386 0
M  V30 1893 O 179.424 0.415443 6.00465 0
M  V30 1894 H 183.25 1.19685 2.79122 0
M  V30 1895 H 180.835 0.648596 1.34587 0
M  V30 1896 H 182.717 -0.861641 4.12497 0
M  V30 1897 H 181.392 -1.23942 2.99032 0
M  V30 1898 H 180.299 0.994513 3.60639 0
M  V30 1899 H 181.632 1.28948 4.75009 0
M  V30 1900 N 183.284 -1.43765 0.645699 0
M  V30 1901 C 184.509 -2.06767 0.161883 0
M  V30 1902 C 184.934 -1.48034 -1.16049 0
M  V30 1903 O 184.292 -0.587369 -1.71522 0
M  V30 1904 C 184.34 -3.60519 0.0762003 0
M  V30 1905 O 183.444 -4.00982 -0.963721 0
M  V30 1906 H 182.785 -0.657675 0.091429 0
M  V30 1907 H 185.315 -1.84397 0.886499 0
M  V30 1908 H 185.325 -4.07853 -0.109604 0
M  V30 1909 H 184 -4.02646 1.04157 0
M  V30 1910 H 182.577 -3.65253 -0.751312 0
M  V30 1911 N 184.763 -0.387143 -1.52771 0
M  V30 1912 C 186.011 0.195349 -2.01154 0
M  V30 1913 C 186.332 1.475 -1.27549 0
M  V30 1914 O 185.602 1.91878 -0.394924 0
M  V30 1915 H 184.182 0.075178 -0.743207 0
M  V30 1916 H 186.844 -0.518337 -1.87881 0
M  V30 1917 H 185.94 0.407096 -3.09434 0
M  V30 1918 N 186.241 1.57166 -0.116904 0
M  V30 1919 C 187.204 2.14039 0.819742 0
M  V30 1920 C 188.204 1.07477 1.19605 0
M  V30 1921 O 189.394 1.33263 1.1219 0
M  V30 1922 C 186.526 2.67891 2.10826 0
M  V30 1923 H 187.719 2.98128 0.325511 0
M  V30 1924 H 185.272 1.55739 0.132312 0
M  V30 1925 H 186.007 1.87384 2.64685 0
M  V30 1926 H 185.792 3.45823 1.84793 0
M  V30 1927 H 187.282 3.11809 2.77785 0
M  V30 1928 N 187.719 -0.156864 1.56817 0
M  V30 1929 C 188.682 -1.17781 1.96622 0
M  V30 1930 C 189.682 -1.36401 0.851555 0
M  V30 1931 O 190.872 -1.33561 1.11836 0
M  V30 1932 C 188.004 -2.54008 2.27361 0
M  V30 1933 H 189.197 -0.836564 2.87996 0
M  V30 1934 H 186.75 -0.39985 1.51099 0
M  V30 1935 H 187.485 -2.9312 1.38748 0
M  V30 1936 H 187.27 -2.41856 3.08623 0
M  V30 1937 H 188.76 -3.27558 2.59029 0
M  V30 1938 N 189.197 -1.51736 -0.425897 0
M  V30 1939 C 190.16 -1.73271 -1.50032 0
M  V30 1940 C 191.16 -0.602639 -1.4908 0
M  V30 1941 O 192.35 -0.87033 -1.509 0
M  V30 1942 C 189.482 -1.79969 -2.89523 0
M  V30 1943 H 190.675 -2.69172 -1.32237 0
M  V30 1944 H 188.228 -1.41899 -0.65532 0
M  V30 1945 H 188.963 -0.859241 -3.1271 0
M  V30 1946 H 188.748 -2.62109 -2.91619 0
M  V30 1947 H 190.238 -1.9843 -3.67444 0
M  V30 1948 N 190.675 0.682077 -1.42076 0
M  V30 1949 C 191.924 1.43786 -1.41451 0
M  V30 1950 C 192.237 1.95574 -0.0317074 0
M  V30 1951 O 193.443 2.71326 0.0971462 0
M  V30 1952 C 191.899 2.60071 -2.48779 0
M  V30 1953 C 191.507 2.15013 -3.93031 0
M  V30 1954 C 193.251 3.37626 -2.57311 0
M  V30 1955 C 191.158 3.28336 -4.91883 0
M  V30 1956 H 190.088 0.540143 -0.526082 0
M  V30 1957 H 192.739 0.739157 -1.67955 0
M  V30 1958 H 191.121 3.32275 -2.15429 0
M  V30 1959 H 192.295 1.5001 -4.35699 0
M  V30 1960 H 190.61 1.50416 -3.88284 0
M  V30 1961 H 193.207 4.22012 -3.28345 0
M  V30 1962 H 193.55 3.83727 -1.61429 0
M  V30 1963 H 194.083 2.72488 -2.89819 0
M  V30 1964 H 190.822 2.87234 -5.89217 0
M  V30 1965 H 190.342 3.92145 -4.53853 0
M  V30 1966 H 192.021 3.93913 -5.13265 0
M  V30 1967 N 192.153 1.28127 0.917671 0
M  V30 1968 C 193.4 1.15052 1.66641 0
M  V30 1969 C 193.728 -0.301677 1.92146 0
M  V30 1970 O 192.983 -1.23622 1.51711 0
M  V30 1971 C 193.282 1.89018 3.03327 0
M  V30 1972 C 192.948 3.38832 2.97496 0
M  V30 1973 C 191.61 3.79693 2.95613 0
M  V30 1974 C 193.962 4.34378 2.88036 0
M  V30 1975 C 191.29 5.14447 2.82066 0
M  V30 1976 C 193.642 5.69201 2.7603 0
M  V30 1977 C 192.306 6.09343 2.72502 0
M  V30 1978 H 191.576 0.421006 0.609783 0
M  V30 1979 H 194.223 1.58855 1.06945 0
M  V30 1980 H 192.528 1.37752 3.66785 0
M  V30 1981 H 194.225 1.76321 3.60156 0
M  V30 1982 H 190.815 3.06342 2.99754 0
M  V30 1983 H 194.999 4.03775 2.88581 0
M  V30 1984 H 190.255 5.44681 2.77728 0
M  V30 1985 H 194.429 6.42901 2.67678 0
M  V30 1986 H 192.056 7.13712 2.61762 0
M  V30 1987 N 193.631 -1.12557 1.10312 0
M  V30 1988 C 194.859 -1.87864 0.866873 0
M  V30 1989 C 195.274 -1.79588 -0.582557 0
M  V30 1990 O 194.631 -1.16887 -1.40156 0
M  V30 1991 C 194.682 -3.37125 1.30496 0
M  V30 1992 O 194.403 -3.45201 2.69755 0
M  V30 1993 C 195.904 -4.29373 1.10243 0
M  V30 1994 H 193.124 -0.594452 0.311236 0
M  V30 1995 H 195.668 -1.42429 1.46745 0
M  V30 1996 H 193.823 -3.80109 0.748081 0
M  V30 1997 H 194.237 -4.38056 2.88457 0
M  V30 1998 H 195.711 -5.32394 1.45811 0
M  V30 1999 H 196.188 -4.39181 0.0409492 0
M  V30 2000 H 196.794 -3.92169 1.64571 0
M  V30 2001 N 195.109 -0.891671 -1.2995 0
M  V30 2002 C 196.355 -0.514261 -1.96171 0
M  V30 2003 C 196.688 0.935506 -1.70182 0
M  V30 2004 O 195.963 1.66204 -1.01028 0
M  V30 2005 C 196.246 -0.797719 -3.51153 0
M  V30 2006 C 196.099 -2.2986 -3.86632 0
M  V30 2007 C 197.418 -0.278749 -4.39216 0
M  V30 2008 H 194.537 -0.188314 -0.712535 0
M  V30 2009 H 197.179 -1.11689 -1.53706 0
M  V30 2010 H 195.329 -0.284826 -3.87455 0
M  V30 2011 H 197.001 -2.88042 -3.60319 0
M  V30 2012 H 195.244 -2.76257 -3.34462 0
M  V30 2013 H 195.915 -2.44753 -4.94773 0
M  V30 2014 H 198.391 -0.717825 -4.09862 0
M  V30 2015 H 197.267 -0.506353 -5.46559 0
M  V30 2016 H 197.528 0.820266 -4.34424 0
M  V30 2017 N 196.587 1.43421 -0.653314 0
M  V30 2018 C 197.519 2.29071 0.0769134 0
M  V30 2019 C 198.532 1.42513 0.787017 0
M  V30 2020 O 199.721 1.66449 0.644757 0
M  V30 2021 C 196.821 3.19436 1.13199 0
M  V30 2022 C 195.994 4.34533 0.500006 0
M  V30 2023 C 195.053 5.05771 1.45198 0
M  V30 2024 O 194.079 5.61037 0.960538 0
M  V30 2025 N 195.281 5.0928 2.78594 0
M  V30 2026 H 198.046 2.92382 -0.658235 0
M  V30 2027 H 195.607 1.54112 -0.496104 0
M  V30 2028 H 197.599 3.63958 1.76964 0
M  V30 2029 H 196.169 2.57724 1.7691 0
M  V30 2030 H 195.389 3.92925 -0.316738 0
M  V30 2031 H 196.677 5.08766 0.0588345 0
M  V30 2032 H 196.075 4.65751 3.2108 0
M  V30 2033 H 194.632 5.57519 3.37662 0
M  V30 2034 N 198.065 0.39524 1.52563 0
M  V30 2035 C 198.995 -0.428384 2.29537 0
M  V30 2036 C 199.976 -1.05831 1.33169 0
M  V30 2037 O 201.161 -1.06995 1.62067 0
M  V30 2038 C 198.291 -1.55274 3.10656 0
M  V30 2039 C 197.245 -1.04855 4.14957 0
M  V30 2040 C 196.571 -2.26543 4.84337 0
M  V30 2041 C 197.871 -0.112324 5.22179 0
M  V30 2042 H 199.565 0.213867 2.98635 0
M  V30 2043 H 197.111 0.104298 1.43622 0
M  V30 2044 H 199.064 -2.1358 3.63265 0
M  V30 2045 H 197.788 -2.22266 2.39302 0
M  V30 2046 H 196.447 -0.487985 3.63338 0
M  V30 2047 H 196.095 -2.92059 4.09525 0
M  V30 2048 H 195.795 -1.93466 5.54837 0
M  V30 2049 H 197.319 -2.85481 5.39753 0
M  V30 2050 H 198.733 -0.603752 5.70112 0
M  V30 2051 H 197.13 0.128968 5.99961 0
M  V30 2052 H 198.2 0.837052 4.77621 0
M  V30 2053 N 199.544 -1.57102 0.125237 0
M  V30 2054 C 200.821 -1.86953 -0.575142 0
M  V30 2055 C 201.201 -1.02749 -1.84407 0
M  V30 2056 O 200.549 -0.108144 -2.28244 0
M  V30 2057 C 200.759 -3.38198 -0.861583 0
M  V30 2058 C 202.107 -4.06937 -1.21192 0
M  V30 2059 O 203.131 -3.43252 -0.951645 0
M  V30 2060 O 201.99 -5.19364 -1.70068 0
M  V30 2061 H 199.084 -0.774147 -0.290906 0
M  V30 2062 H 201.63 -1.68942 0.160211 0
M  V30 2063 H 200.402 -3.91282 0.0373647 0
M  V30 2064 H 200.025 -3.61661 -1.65188 0
M  V30 2065 N 201.022 0.148545 -1.56898 0
M  V30 2066 C 202.299 0.890019 -1.74178 0
M  V30 2067 C 202.679 1.99407 -0.692839 0
M  V30 2068 O 202.027 2.26671 0.288505 0
M  V30 2069 C 202.237 1.43389 -3.18183 0
M  V30 2070 C 203.585 1.89791 -3.79822 0
M  V30 2071 O 204.609 1.53134 -3.21603 0
M  V30 2072 O 203.468 2.57387 -4.82093 0
M  V30 2073 H 200.562 0.420496 -0.712118 0
M  V30 2074 H 203.108 0.134591 -1.69165 0
M  V30 2075 H 201.88 0.640383 -3.86024 0
M  V30 2076 H 201.503 2.25287 -3.27615 0
M  V30 2077 N 202.5 1.5196 0.417844 0
M  V30 2078 C 203.73 1.69181 1.18581 0
M  V30 2079 C 204.138 0.397104 1.84986 0
M  V30 2080 O 203.481 -0.636011 1.72339 0
M  V30 2081 C 203.543 2.76497 2.29759 0
M  V30 2082 C 203.207 4.18514 1.83563 0
M  V30 2083 C 204.204 5.02648 1.32821 0
M  V30 2084 C 201.889 4.64708 1.90661 0
M  V30 2085 C 203.883 6.31044 0.897894 0
M  V30 2086 C 201.57 5.93096 1.47241 0
M  V30 2087 C 202.568 6.76093 0.968891 0
M  V30 2088 O 202.256 8.02078 0.540924 0
M  V30 2089 H 201.988 0.570457 0.362705 0
M  V30 2090 H 204.542 1.99249 0.498885 0
M  V30 2091 H 202.772 2.41786 3.01789 0
M  V30 2092 H 204.461 2.82403 2.91553 0
M  V30 2093 H 205.227 4.68154 1.26716 0
M  V30 2094 H 201.106 4.00216 2.28797 0
M  V30 2095 H 204.65 6.95776 0.504192 0
M  V30 2096 H 200.547 6.271 1.53022 0
M  V30 2097 H 201.315 8.15794 0.66502 0
M  V30 2098 N 203.978 -0.674533 1.42435 0
M  V30 2099 C 204.908 -1.80009 1.48724 0
M  V30 2100 C 205.889 -1.6659 0.343793 0
M  V30 2101 O 207.074 -1.86007 0.558137 0
M  V30 2102 C 204.204 -3.18306 1.38919 0
M  V30 2103 C 203.158 -3.46461 2.51294 0
M  V30 2104 C 202.484 -4.84335 2.26547 0
M  V30 2105 C 203.784 -3.43328 3.93603 0
M  V30 2106 H 205.478 -1.75004 2.42928 0
M  V30 2107 H 203.024 -0.840533 1.16923 0
M  V30 2108 H 204.977 -3.9678 1.41927 0
M  V30 2109 H 203.701 -3.2399 0.412094 0
M  V30 2110 H 202.36 -2.70348 2.47604 0
M  V30 2111 H 202.008 -4.86669 1.2713 0
M  V30 2112 H 201.708 -5.04136 3.01861 0
M  V30 2113 H 203.232 -5.65094 2.31304 0
M  V30 2114 H 204.646 -4.11772 3.98894 0
M  V30 2115 H 203.043 -3.74664 4.68771 0
M  V30 2116 H 204.113 -2.41897 4.20255 0
M  V30 2117 N 205.456 -1.28612 -0.910864 0
M  V30 2118 C 206.404 -1.1265 -2.03501 0
M  V30 2119 C 207.398 -0.0450054 -1.6934 0
M  V30 2120 O 208.604 -0.203988 -1.7884 0
M  V30 2121 H 204.979 -0.347639 -0.666822 0
M  V30 2122 H 206.95 -2.07849 -2.14106 0
M  V30 2123 C 205.699 -0.808143 -3.38178 0
M  V30 2124 H 205.022 -1.63231 -3.6496 0
M  V30 2125 H 206.462 -0.736426 -4.17556 0
M  V30 2126 C 204.921 0.488226 -3.33344 0
M  V30 2127 O 205.451 1.51766 -3.71927 0
M  V30 2128 N 203.657 0.490009 -2.86439 0
M  V30 2129 H 203.204 -0.348161 -2.55236 0
M  V30 2130 H 203.162 1.35741 -2.83587 0
M  V30 2131 N 206.934 1.1197 -1.10907 0
M  V30 2132 C 208.182 1.83225 -0.852819 0
M  V30 2133 C 208.503 1.84769 0.623341 0
M  V30 2134 O 207.773 1.3143 1.45269 0
M  V30 2135 H 206.353 0.67849 -0.312507 0
M  V30 2136 H 209.015 1.3556 -1.40033 0
M  V30 2137 H 208.111 2.87265 -1.22005 0
M  V30 2138 N 208.412 0.89855 1.29475 0
M  V30 2139 C 209.828 0.594483 1.48115 0
M  V30 2140 C 210.028 -0.86431 1.82022 0
M  V30 2141 O 209.084 -1.64457 1.91599 0
M  V30 2142 C 210.397 1.51932 2.59494 0
M  V30 2143 C 211.945 1.5244 2.7337 0
M  V30 2144 C 212.42 2.43548 3.87877 0
M  V30 2145 N 213.911 2.41589 3.95208 0
M  V30 2146 C 214.646 3.08789 4.83153 0
M  V30 2147 N 214.142 3.85265 5.75798 0
M  V30 2148 N 215.935 2.97952 4.76635 0
M  V30 2149 H 208.086 1.84207 1.05742 0
M  V30 2150 H 210.349 0.789251 0.525154 0
M  V30 2151 H 210.055 2.55865 2.41301 0
M  V30 2152 H 209.929 1.23899 3.56271 0
M  V30 2153 H 212.316 0.492518 2.90961 0
M  V30 2154 H 212.397 1.8451 1.77172 0
M  V30 2155 H 212.041 3.46829 3.71041 0
M  V30 2156 H 211.971 2.08788 4.83441 0
M  V30 2157 H 214.462 1.86025 3.28943 0
M  V30 2158 H 214.775 4.33598 6.39697 0
M  V30 2159 H 213.12 3.89371 5.75687 0
M  V30 2160 H 216.311 2.37723 4.03244 0
M  V30 2161 H 216.484 3.50599 5.44962 0
M  V30 2162 N 209.89 -1.43072 0.660911 0
M  V30 2163 C 210.853 -2.29194 -0.0166406 0
M  V30 2164 C 211.853 -1.42609 -0.742912 0
M  V30 2165 O 213.043 -1.64155 -0.583004 0
M  V30 2166 C 210.175 -3.24831 -1.0343 0
M  V30 2167 H 211.368 -2.90596 0.741208 0
M  V30 2168 H 208.921 -1.5048 0.422532 0
M  V30 2169 H 209.656 -2.68339 -1.82111 0
M  V30 2170 H 209.441 -3.88676 -0.517082 0
M  V30 2171 H 210.931 -3.89451 -1.50723 0
M  V30 2172 N 211.368 -0.403325 -1.52352 0
M  V30 2173 C 212.614 0.174605 -2.02047 0
M  V30 2174 C 212.947 1.45282 -1.28867 0
M  V30 2175 O 212.222 1.90483 -0.393257 0
M  V30 2176 C 212.505 0.428238 -3.57545 0
M  V30 2177 C 212.358 -0.866248 -4.4138 0
M  V30 2178 C 213.677 1.21287 -4.23057 0
M  V30 2179 H 210.796 0.0619851 -0.734389 0
M  V30 2180 H 213.438 -0.53565 -1.82293 0
M  V30 2181 H 211.588 1.03327 -3.74507 0
M  V30 2182 H 213.26 -1.50265 -4.3614 0
M  V30 2183 H 211.503 -1.47851 -4.07827 0
M  V30 2184 H 212.174 -0.643249 -5.48239 0
M  V30 2185 H 214.65 0.700703 -4.10158 0
M  V30 2186 H 213.526 1.35909 -5.31808 0
M  V30 2187 H 213.787 2.23193 -3.81625 0
M  V30 2188 N 212.846 1.57033 -0.133567 0
M  V30 2189 C 213.778 2.13176 0.841944 0
M  V30 2190 C 214.791 1.07794 1.22001 0
M  V30 2191 O 215.98 1.35117 1.16643 0
M  V30 2192 C 213.08 2.62847 2.13926 0
M  V30 2193 C 212.253 3.92486 1.93064 0
M  V30 2194 C 211.312 4.27605 3.0666 0
M  V30 2195 O 210.338 4.96168 2.78937 0
M  V30 2196 N 211.54 3.861 4.33483 0
M  V30 2197 H 214.305 2.97503 0.362192 0
M  V30 2198 H 211.866 1.61821 0.05042 0
M  V30 2199 H 213.858 2.83363 2.88942 0
M  V30 2200 H 212.428 1.83319 2.53205 0
M  V30 2201 H 211.648 3.80732 1.02159 0
M  V30 2202 H 212.936 4.77225 1.76447 0
M  V30 2203 H 212.334 3.30828 4.58878 0
M  V30 2204 H 210.891 4.11694 5.05323 0
M  V30 2205 N 214.325 -0.140222 1.56975 0
M  V30 2206 C 215.275 -1.17827 1.95194 0
M  V30 2207 C 216.259 -1.38195 0.824075 0
M  V30 2208 O 217.451 -1.39643 1.0876 0
M  V30 2209 C 214.58 -2.51024 2.34184 0
M  V30 2210 C 213.666 -2.3422 3.53556 0
M  V30 2211 N 214.057 -1.87185 4.69889 0
M  V30 2212 C 212.355 -2.64949 3.58773 0
M  V30 2213 C 213.056 -1.83586 5.5197 0
M  V30 2214 N 212.032 -2.2715 4.93866 0
M  V30 2215 H 215.834 -0.806817 2.82609 0
M  V30 2216 H 213.348 -0.348208 1.58623 0
M  V30 2217 H 215.345 -3.26074 2.59772 0
M  V30 2218 H 214.005 -2.88945 1.48124 0
M  V30 2219 H 215.016 -1.57048 4.93514 0
M  V30 2220 H 211.693 -3.067 2.8327 0
M  V30 2221 H 213.083 -1.48655 6.55249 0
M  V30 2222 N 215.803 -1.52179 -0.40978 0
M  V30 2223 C 217.219 -1.40968 -0.74835 0
M  V30 2224 C 217.419 -0.513657 -1.94843 0
M  V30 2225 O 216.475 0.0208026 -2.52491 0
M  V30 2226 C 217.788 -2.83483 -1.0029 0
M  V30 2227 C 219.336 -2.92821 -1.10565 0
M  V30 2228 C 219.811 -4.36303 -1.39296 0
M  V30 2229 N 221.302 -4.39535 -1.46162 0
M  V30 2230 C 222.037 -5.47614 -1.70018 0
M  V30 2231 N 221.533 -6.65812 -1.91483 0
M  V30 2232 N 223.326 -5.35129 -1.72027 0
M  V30 2233 H 215.477 -2.0897 0.380186 0
M  V30 2234 H 217.74 -0.94185 0.107805 0
M  V30 2235 H 217.446 -3.51168 -0.193461 0
M  V30 2236 H 217.32 -3.24487 -1.92323 0
M  V30 2237 H 219.707 -2.25318 -1.90568 0
M  V30 2238 H 219.788 -2.55276 -0.16369 0
M  V30 2239 H 219.432 -5.04366 -0.598109 0
M  V30 2240 H 219.362 -4.71385 -2.34743 0
M  V30 2241 H 221.853 -3.54332 -1.31367 0
M  V30 2242 H 222.166 -7.43964 -2.09134 0
M  V30 2243 H 220.511 -6.68879 -1.88749 0
M  V30 2244 H 223.702 -4.41764 -1.54796 0
M  V30 2245 H 223.875 -6.19433 -1.9028 0
M  V30 2246 N 217.281 0.66697 -1.42791 0
M  V30 2247 C 218.191 1.80962 -1.49299 0
M  V30 2248 C 219.207 1.69775 -0.381108 0
M  V30 2249 O 220.383 1.91188 -0.633188 0
M  V30 2250 C 217.448 3.17156 -1.40045 0
M  V30 2251 C 216.509 3.40242 -2.6179 0
M  V30 2252 C 215.742 4.69939 -2.52969 0
M  V30 2253 O 215.965 5.48372 -1.56985 0
M  V30 2254 O 214.899 4.94441 -3.43237 0
M  V30 2255 H 218.725 1.78427 -2.45759 0
M  V30 2256 H 216.31 0.823713 -1.24641 0
M  V30 2257 H 218.192 3.98413 -1.37276 0
M  V30 2258 H 216.867 3.20312 -0.467138 0
M  V30 2259 H 215.774 2.58802 -2.70134 0
M  V30 2260 H 217.107 3.41923 -3.54047 0
M  V30 2261 N 218.759 1.29093 0.90403 0
M  V30 2262 C 220.005 1.16986 1.65656 0
M  V30 2263 C 220.338 -0.278925 1.92186 0
M  V30 2264 O 219.613 -1.2019 1.5292 0
M  V30 2265 C 219.896 1.97908 3.0084 0
M  V30 2266 C 219.749 3.50903 2.81403 0
M  V30 2267 C 221.068 1.80208 4.01513 0
M  V30 2268 H 218.187 0.426346 0.601164 0
M  V30 2269 H 220.829 1.58518 1.04747 0
M  V30 2270 H 218.979 1.62616 3.52829 0
M  V30 2271 H 220.651 3.96153 2.36348 0
M  V30 2272 H 218.894 3.76045 2.1627 0
M  V30 2273 H 219.565 4.02791 3.77443 0
M  V30 2274 H 222.041 2.11025 3.58619 0
M  V30 2275 H 220.917 2.39184 4.94047 0
M  V30 2276 H 221.178 0.756119 4.35586 0
M  V30 2277 N 220.237 -1.11381 1.11499 0
M  V30 2278 C 221.169 -2.17207 0.731704 0
M  V30 2279 C 222.182 -1.61066 -0.236957 0
M  V30 2280 O 223.371 -1.78489 -0.0197591 0
M  V30 2281 C 220.471 -3.38846 0.0607624 0
M  V30 2282 C 219.644 -4.24451 1.0564 0
M  V30 2283 C 218.703 -5.24562 0.4149 0
M  V30 2284 O 217.729 -5.59071 1.069 0
M  V30 2285 N 218.931 -5.74651 -0.821943 0
M  V30 2286 H 221.696 -2.50699 1.64225 0
M  V30 2287 H 219.257 -1.26908 1.00529 0
M  V30 2288 H 221.249 -4.02911 -0.380139 0
M  V30 2289 H 219.819 -3.03411 -0.752376 0
M  V30 2290 H 219.039 -3.56833 1.67524 0
M  V30 2291 H 220.327 -4.78486 1.72998 0
M  V30 2292 H 219.725 -5.48797 -1.37252 0
M  V30 2293 H 218.282 -6.40549 -1.20582 0
M  V30 2294 N 221.715 -0.905404 -1.28997 0
M  V30 2295 C 222.963 -0.533192 -1.9494 0
M  V30 2296 C 223.284 0.924618 -1.71685 0
M  V30 2297 O 222.554 1.65268 -1.05183 0
M  V30 2298 H 221.134 -0.194194 -0.721317 0
M  V30 2299 H 223.796 -1.15294 -1.57141 0
M  V30 2300 H 222.892 -0.72059 -3.03667 0
M  V30 2301 N 223.193 1.4272 -0.668489 0
M  V30 2302 C 224.44 2.01624 -0.18814 0
M  V30 2303 C 224.768 1.5282 1.20317 0
M  V30 2304 O 224.023 0.718323 1.8204 0
M  V30 2305 C 224.322 3.57021 -0.164499 0
M  V30 2306 C 223.988 4.25232 -1.49962 0
M  V30 2307 C 222.65 4.4358 -1.8652 0
M  V30 2308 C 225.002 4.63727 -2.37921 0
M  V30 2309 C 222.33 4.97694 -3.10674 0
M  V30 2310 C 224.682 5.19218 -3.6138 0
M  V30 2311 C 223.346 5.3578 -3.98115 0
M  V30 2312 H 222.616 0.737795 -0.0688454 0
M  V30 2313 H 225.263 1.70991 -0.862225 0
M  V30 2314 H 223.568 3.87285 0.593079 0
M  V30 2315 H 225.265 4.00372 0.224271 0
M  V30 2316 H 221.855 4.11306 -1.20522 0
M  V30 2317 H 226.039 4.4923 -2.10964 0
M  V30 2318 H 221.295 5.08702 -3.39164 0
M  V30 2319 H 225.469 5.4799 -4.29743 0
M  V30 2320 H 223.096 5.77475 -4.94395 0
M  V30 2321 N 224.671 0.411399 1.52136 0
M  V30 2322 C 225.581 -0.419774 2.30814 0
M  V30 2323 C 226.597 -1.0515 1.38634 0
M  V30 2324 O 227.773 -1.05252 1.71709 0
M  V30 2325 C 224.838 -1.52019 3.11594 0
M  V30 2326 C 223.899 -0.91129 4.19516 0
M  V30 2327 C 223.132 -1.95927 4.96436 0
M  V30 2328 O 223.355 -3.17775 4.73683 0
M  V30 2329 O 222.289 -1.56423 5.81219 0
M  V30 2330 H 226.115 0.221805 3.02889 0
M  V30 2331 H 223.7 0.174547 1.48377 0
M  V30 2332 H 225.582 -2.15898 3.61892 0
M  V30 2333 H 224.257 -2.14633 2.42311 0
M  V30 2334 H 223.164 -0.235157 3.7336 0
M  V30 2335 H 224.497 -0.32904 4.91099 0
M  V30 2336 N 226.149 -1.5696 0.141893 0
M  V30 2337 C 227.374 -2.00754 -0.520838 0
M  V30 2338 C 227.799 -1.0213 -1.57959 0
M  V30 2339 O 227.157 0.00371324 -1.813 0
M  V30 2340 C 227.205 -3.43318 -1.10294 0
M  V30 2341 O 226.309 -3.47679 -2.21795 0
M  V30 2342 H 225.65 -0.651564 -0.127908 0
M  V30 2343 H 228.18 -2.03221 0.23712 0
M  V30 2344 H 228.19 -3.82012 -1.43287 0
M  V30 2345 H 226.865 -4.14608 -0.327574 0
M  V30 2346 H 225.442 -3.20824 -1.9007 0
M  V30 2347 N 227.627 0.131896 -1.57047 0
M  V30 2348 C 228.59 1.14638 -1.98471 0
M  V30 2349 C 229.59 1.35029 -0.873148 0
M  V30 2350 O 230.78 1.31764 -1.13946 0
M  V30 2351 C 227.912 2.50358 -2.31373 0
M  V30 2352 H 229.105 0.79064 -2.8929 0
M  V30 2353 H 226.658 0.375761 -1.51716 0
M  V30 2354 H 227.393 2.90876 -1.43393 0
M  V30 2355 H 227.178 2.36915 -3.12432 0
M  V30 2356 H 228.668 3.23395 -2.64207 0
M  V30 2357 N 229.106 1.52395 0.401703 0
M  V30 2358 C 230.334 1.70676 1.16949 0
M  V30 2359 C 230.749 0.419503 1.8408 0
M  V30 2360 O 230.106 -0.605061 1.72178 0
M  V30 2361 C 230.157 2.84753 2.22706 0
M  V30 2362 O 229.878 4.08495 1.58314 0
M  V30 2363 C 231.379 3.14608 3.12309 0
M  V30 2364 H 228.599 0.571787 0.351142 0
M  V30 2365 H 231.143 1.98987 0.471652 0
M  V30 2366 H 229.298 2.58941 2.88147 0
M  V30 2367 H 229.712 4.72117 2.28485 0
M  V30 2368 H 231.186 3.97923 3.82572 0
M  V30 2369 H 231.663 2.28464 3.75101 0
M  V30 2370 H 232.269 3.42212 2.52529 0
M  V30 2371 N 230.584 -0.659388 1.43143 0
M  V30 2372 C 231.831 -1.41935 1.44433 0
M  V30 2373 C 232.159 -1.94387 0.0663522 0
M  V30 2374 O 231.414 -1.72314 -0.927706 0
M  V30 2375 C 231.713 -2.62206 2.42864 0
M  V30 2376 C 231.379 -2.28208 3.88886 0
M  V30 2377 C 230.041 -2.18647 4.28657 0
M  V30 2378 C 232.393 -2.00887 4.8093 0
M  V30 2379 C 229.721 -1.79914 5.58433 0
M  V30 2380 C 232.073 -1.63653 6.11065 0
M  V30 2381 C 230.737 -1.52614 6.49819 0
M  V30 2382 H 230.007 -0.519376 0.528517 0
M  V30 2383 H 232.654 -0.750453 1.76183 0
M  V30 2384 H 230.959 -3.34199 2.04495 0
M  V30 2385 H 232.656 -3.2041 2.41119 0
M  V30 2386 H 229.246 -2.36557 3.57406 0
M  V30 2387 H 233.43 -2.07198 4.5098 0
M  V30 2388 H 228.686 -1.69948 5.87305 0
M  V30 2389 H 232.86 -1.41543 6.81864 0
M  V30 2390 H 230.487 -1.22371 7.50286 0
M  V30 2391 N 232.062 -1.29571 -0.897171 0
M  V30 2392 C 232.992 -1.17473 -2.01798 0
M  V30 2393 C 233.973 -0.068323 -1.69963 0
M  V30 2394 O 235.158 -0.248239 -1.92607 0
M  V30 2395 C 232.288 -0.853099 -3.36659 0
M  V30 2396 C 231.242 -1.9161 -3.82713 0
M  V30 2397 C 230.568 -1.44773 -5.14728 0
M  V30 2398 C 231.868 -3.32535 -4.02763 0
M  V30 2399 H 233.562 -2.11237 -2.12177 0
M  V30 2400 H 231.108 -1.01699 -1.01948 0
M  V30 2401 H 233.061 -0.755165 -4.14578 0
M  V30 2402 H 231.785 0.120236 -3.26379 0
M  V30 2403 H 230.444 -2.00346 -3.07013 0
M  V30 2404 H 230.092 -0.462995 -5.00865 0
M  V30 2405 H 229.792 -2.15865 -5.46513 0
M  V30 2406 H 231.316 -1.36334 -5.95185 0
M  V30 2407 H 232.73 -3.26626 -4.71156 0
M  V30 2408 H 231.127 -4.01607 -4.45905 0
M  V30 2409 H 232.197 -3.75326 -3.07016 0
M  V30 2410 N 233.54 1.10788 -1.12088 0
M  V30 2411 C 234.788 1.8231 -0.872205 0
M  V30 2412 C 235.109 1.85419 0.603709 0
M  V30 2413 O 234.379 1.32963 1.43867 0
M  V30 2414 H 232.959 0.675137 -0.319686 0
M  V30 2415 H 235.621 1.34068 -1.41463 0
M  V30 2416 H 234.717 2.85955 -1.25045 0
M  V30 2417 N 235.018 0.912232 1.28515 0
M  V30 2418 C 236.248 0.559604 1.98877 0
M  V30 2419 C 236.656 -0.863113 1.68366 0
M  V30 2420 O 235.999 -1.58304 0.931969 0
M  V30 2421 C 236.061 0.68703 3.52874 0
M  V30 2422 C 235.725 2.07901 4.06972 0
M  V30 2423 C 236.722 3.05157 4.20922 0
M  V30 2424 C 234.407 2.39178 4.417 0
M  V30 2425 C 236.401 4.31806 4.68852 0
M  V30 2426 C 234.088 3.66068 4.89324 0
M  V30 2427 C 235.086 4.62195 5.02856 0
M  V30 2428 O 234.774 5.86829 5.49442 0
M  V30 2429 H 234.506 0.212191 0.641834 0
M  V30 2430 H 237.06 1.22712 1.64715 0
M  V30 2431 H 235.29 -0.0375486 3.86682 0
M  V30 2432 H 236.979 0.341727 4.04459 0
M  V30 2433 H 237.745 2.82311 3.94367 0
M  V30 2434 H 233.624 1.65109 4.30418 0
M  V30 2435 H 237.168 5.06842 4.79329 0
M  V30 2436 H 233.065 3.88739 5.15318 0
M  V30 2437 H 233.833 5.89597 5.6773 0
M  V30 2438 N 236.496 -1.42363 0.676048 0
M  V30 2439 C 237.743 -2.01522 0.19883 0
M  V30 2440 C 238.071 -1.53456 -1.19505 0
M  V30 2441 O 237.326 -0.727967 -1.81657 0
M  V30 2442 C 237.625 -3.56929 0.183431 0
M  V30 2443 C 237.291 -4.24431 1.52215 0
M  V30 2444 C 235.953 -4.42585 1.8887 0
M  V30 2445 C 238.305 -4.62459 2.40377 0
M  V30 2446 C 235.633 -4.96039 3.13309 0
M  V30 2447 C 237.985 -5.17294 3.64129 0
M  V30 2448 C 236.649 -5.33661 4.00951 0
M  V30 2449 H 235.919 -0.737419 0.0727571 0
M  V30 2450 H 238.566 -1.70531 0.871281 0
M  V30 2451 H 236.871 -3.87594 -0.572532 0
M  V30 2452 H 238.568 -4.00486 -0.203035 0
M  V30 2453 H 235.158 -4.10661 1.22701 0
M  V30 2454 H 239.342 -4.48105 2.13343 0
M  V30 2455 H 234.598 -5.06896 3.41857 0
M  V30 2456 H 238.772 -5.45704 4.32644 0
M  V30 2457 H 236.399 -5.74845 4.9745 0
M  V30 2458 N 237.974 -0.419461 -1.51915 0
M  V30 2459 C 238.921 0.400927 -2.27291 0
M  V30 2460 C 239.891 1.03224 -1.30131 0
M  V30 2461 O 241.076 1.05455 -1.59009 0
M  V30 2462 C 238.216 1.50603 -3.10504 0
M  V30 2463 C 237.329 0.89462 -4.22635 0
M  V30 2464 C 236.464 1.97328 -4.93189 0
M  V30 2465 C 235.503 1.33935 -5.97267 0
M  V30 2466 N 234.64 2.3586 -6.61298 0
M  V30 2467 H 239.48 -0.248251 -2.96964 0
M  V30 2468 H 237.017 -0.134266 -1.46486 0
M  V30 2469 H 238.975 2.15783 -3.57062 0
M  V30 2470 H 237.605 2.12509 -2.42981 0
M  V30 2471 H 236.657 0.131583 -3.80172 0
M  V30 2472 H 237.969 0.391641 -4.9726 0
M  V30 2473 H 237.123 2.70211 -5.43204 0
M  V30 2474 H 235.862 2.50994 -4.18155 0
M  V30 2475 H 234.867 0.595896 -5.46561 0
M  V30 2476 H 236.092 0.810252 -6.74249 0
M  V30 2477 H 234.038 2.88639 -5.89087 0
M  V30 2478 H 233.955 1.90403 -7.3163 0
M  V30 2479 H 235.223 3.08282 -7.15949 0
M  V30 2480 N 239.452 1.56882 -0.150215 0
M  V30 2481 C 240.677 2.01027 0.510184 0
M  V30 2482 C 241.102 1.02966 1.57415 0
M  V30 2483 O 240.46 0.00590158 1.81299 0
M  V30 2484 C 240.508 3.43899 1.08472 0
M  V30 2485 O 239.612 3.4885 2.19948 0
M  V30 2486 H 238.953 0.652233 0.124451 0
M  V30 2487 H 241.483 2.03093 -0.247894 0
M  V30 2488 H 241.493 3.82766 1.41259 0
M  V30 2489 H 240.168 4.14776 0.305582 0
M  V30 2490 H 238.745 3.21827 1.88366 0
M  V30 2491 N 240.93 -0.123565 1.57115 0
M  V30 2492 C 242.178 -0.83051 1.84247 0
M  V30 2493 C 242.499 -1.80629 0.73471 0
M  V30 2494 O 241.769 -1.94403 -0.241688 0
M  V30 2495 H 240.349 -0.309694 0.679778 0
M  V30 2496 H 243.011 -0.111976 1.94578 0
M  V30 2497 H 242.107 -1.37852 2.80006 0
M  V30 2498 N 242.408 -1.52605 -0.393616 0
M  V30 2499 C 243.338 -1.80022 -1.48709 0
M  V30 2500 C 244.319 -0.651995 -1.57108 0
M  V30 2501 O 245.504 -0.89913 -1.72132 0
M  V30 2502 C 242.634 -1.96492 -2.86371 0
M  V30 2503 C 241.588 -3.12161 -2.92813 0
M  V30 2504 C 240.914 -3.13877 -4.3288 0
M  V30 2505 C 242.214 -4.51322 -2.6288 0
M  V30 2506 H 243.908 -2.71589 -1.26015 0
M  V30 2507 H 241.454 -1.30684 -0.604778 0
M  V30 2508 H 243.407 -2.14255 -3.62867 0
M  V30 2509 H 242.131 -1.01611 -3.10391 0
M  V30 2510 H 240.79 -2.94173 -2.18764 0
M  V30 2511 H 240.438 -2.16687 -4.53933 0
M  V30 2512 H 240.138 -3.91576 -4.38112 0
M  V30 2513 H 241.662 -3.33789 -5.1129 0
M  V30 2514 H 243.076 -4.69435 -3.29096 0
M  V30 2515 H 241.473 -5.31053 -2.79468 0
M  V30 2516 H 242.543 -4.58353 -1.58242 0
M  V30 2517 N 243.887 0.651787 -1.4349 0
M  V30 2518 C 244.834 1.76462 -1.4876 0
M  V30 2519 C 245.804 1.62641 -0.337189 0
M  V30 2520 O 246.989 1.82864 -0.544544 0
M  V30 2521 C 244.129 3.14623 -1.41796 0
M  V30 2522 C 243.242 3.39568 -2.67053 0
M  V30 2523 C 242.377 4.67585 -2.52068 0
M  V30 2524 C 241.416 4.85639 -3.72587 0
M  V30 2525 N 240.553 6.04915 -3.56402 0
M  V30 2526 H 245.393 1.71293 -2.43849 0
M  V30 2527 H 242.93 0.835889 -1.21043 0
M  V30 2528 H 244.888 3.94496 -1.35753 0
M  V30 2529 H 243.518 3.18859 -0.50288 0
M  V30 2530 H 242.57 2.53783 -2.8337 0
M  V30 2531 H 243.882 3.48795 -3.56572 0
M  V30 2532 H 243.036 5.55586 -2.4374 0
M  V30 2533 H 241.775 4.60681 -1.60075 0
M  V30 2534 H 240.78 3.96073 -3.81321 0
M  V30 2535 H 242.005 4.94372 -4.65589 0
M  V30 2536 H 239.951 5.9914 -2.67146 0
M  V30 2537 H 239.868 6.15106 -4.39524 0
M  V30 2538 H 241.136 6.95533 -3.51929 0
M  V30 2539 N 245.365 1.30045 0.890287 0
M  V30 2540 C 246.595 1.21296 1.67245 0
M  V30 2541 C 247.003 -0.227471 1.87828 0
M  V30 2542 O 246.346 -1.16296 1.422 0
M  V30 2543 C 246.408 1.86519 3.07329 0
M  V30 2544 C 246.072 3.35837 3.09939 0
M  V30 2545 C 247.069 4.31915 2.89389 0
M  V30 2546 C 244.754 3.77196 3.31706 0
M  V30 2547 C 246.748 5.67325 2.90552 0
M  V30 2548 C 244.435 5.12725 3.32499 0
M  V30 2549 C 245.433 6.076 3.11947 0
M  V30 2550 O 245.121 7.40655 3.12547 0
M  V30 2551 H 244.853 0.4211 0.528821 0
M  V30 2552 H 247.407 1.72111 1.12103 0
M  V30 2553 H 245.637 1.30228 3.64112 0
M  V30 2554 H 247.326 1.71963 3.67673 0
M  V30 2555 H 248.092 4.01294 2.72375 0
M  V30 2556 H 243.971 3.03796 3.4674 0
M  V30 2557 H 247.515 6.41354 2.74429 0
M  V30 2558 H 243.412 5.42988 3.49047 0
M  V30 2559 H 244.18 7.49577 3.28749 0
M  V30 2560 N 246.843 -1.10192 1.12674 0
M  V30 2561 C 247.79 -2.16606 0.796906 0
M  V30 2562 C 248.76 -1.64394 -0.237476 0
M  V30 2563 O 249.945 -1.90474 -0.111484 0
M  V30 2564 C 247.085 -3.44116 0.26043 0
M  V30 2565 C 246.198 -4.10268 1.35293 0
M  V30 2566 C 245.333 -5.25507 0.775621 0
M  V30 2567 C 244.372 -5.83567 1.84706 0
M  V30 2568 N 243.509 -6.90179 1.28829 0
M  V30 2569 H 248.349 -2.44163 1.70846 0
M  V30 2570 H 245.886 -1.19846 0.85295 0
M  V30 2571 H 247.844 -4.17143 -0.0686814 0
M  V30 2572 H 246.474 -3.16901 -0.614274 0
M  V30 2573 H 245.526 -3.35184 1.79877 0
M  V30 2574 H 246.838 -4.4946 2.16303 0
M  V30 2575 H 245.992 -6.05398 0.397327 0
M  V30 2576 H 244.731 -4.87656 -0.0656581 0
M  V30 2577 H 243.736 -5.02344 2.23452 0
M  V30 2578 H 244.961 -6.23482 2.69161 0
M  V30 2579 H 242.907 -6.54322 0.468881 0
M  V30 2580 H 242.824 -7.28097 2.03497 0
M  V30 2581 H 244.092 -7.73844 0.937311 0
M  V30 2582 N 248.321 -0.919034 -1.28029 0
M  V30 2583 C 249.268 -0.410005 -2.27129 0
M  V30 2584 C 250.238 0.518405 -1.57803 0
M  V30 2585 O 251.423 0.439451 -1.8567 0
M  V30 2586 C 248.563 0.339054 -3.4343 0
M  V30 2587 C 247.676 -0.622468 -4.27492 0
M  V30 2588 C 246.811 0.145567 -5.31001 0
M  V30 2589 C 245.85 -0.809226 -6.06727 0
M  V30 2590 N 244.987 -0.0743728 -7.02061 0
M  V30 2591 H 249.827 -1.26011 -2.70047 0
M  V30 2592 H 247.364 -0.632663 -1.328 0
M  V30 2593 H 249.322 0.789586 -4.0966 0
M  V30 2594 H 247.952 1.15346 -3.01488 0
M  V30 2595 H 247.004 -1.19153 -3.61257 0
M  V30 2596 H 248.316 -1.35252 -4.80113 0
M  V30 2597 H 247.47 0.656417 -6.03139 0
M  V30 2598 H 246.209 0.908643 -4.79161 0
M  V30 2599 H 245.214 -1.3314 -5.33436 0
M  V30 2600 H 246.439 -1.57194 -6.60656 0
M  V30 2601 H 244.385 0.670616 -6.52563 0
M  V30 2602 H 244.302 -0.744157 -7.52329 0
M  V30 2603 H 245.57 0.416109 -7.78389 0
M  V30 2604 N 249.799 1.42003 -0.683588 0
M  V30 2605 C 251.047 2.01015 -0.209101 0
M  V30 2606 C 251.368 1.54365 1.19149 0
M  V30 2607 O 250.638 0.769083 1.80172 0
M  V30 2608 H 249.218 0.743294 -0.074315 0
M  V30 2609 H 251.88 1.73798 -0.882066 0
M  V30 2610 H 250.976 3.11343 -0.2172 0
M  V30 2611 N 251.277 0.427512 1.51691 0
M  V30 2612 C 252.525 -0.141948 2.01601 0
M  V30 2613 C 252.846 -1.44067 1.31414 0
M  V30 2614 O 252.116 -1.90763 0.445658 0
M  V30 2615 H 250.696 -0.0554468 0.744939 0
M  V30 2616 H 253.358 0.567968 1.86441 0
M  V30 2617 H 252.454 -0.324913 3.10404 0
M  V30 2618 N 252.755 -1.56801 0.158532 0
M  V30 2619 C 254.001 -1.96781 -0.490405 0
M  V30 2620 C 254.334 -1.04397 -1.63753 0
M  V30 2621 O 253.609 -0.0885805 -1.94298 0
M  V30 2622 C 253.892 -3.4635 -0.985594 0
M  V30 2623 C 253.745 -4.49512 0.160824 0
M  V30 2624 C 255.064 -3.98697 -1.86355 0
M  V30 2625 H 252.183 -0.715482 -0.176788 0
M  V30 2626 H 254.825 -1.88451 0.242088 0
M  V30 2627 H 252.975 -3.53579 -1.60978 0
M  V30 2628 H 254.647 -4.54353 0.797537 0
M  V30 2629 H 252.89 -4.26013 0.818256 0
M  V30 2630 H 253.561 -5.51531 -0.227569 0
M  V30 2631 H 256.037 -3.94019 -1.33746 0
M  V30 2632 H 254.913 -5.03792 -2.17909 0
M  V30 2633 H 255.174 -3.41744 -2.8047 0
M  V30 2634 N 254.233 0.115231 -1.57178 0
M  V30 2635 C 255.196 1.12526 -1.99676 0
M  V30 2636 C 256.196 1.34095 -0.88742 0
M  V30 2637 O 257.386 1.30548 -1.15337 0
M  V30 2638 C 254.518 2.4789 -2.34015 0
M  V30 2639 H 255.711 0.759912 -2.90113 0
M  V30 2640 H 253.264 0.359648 -1.52106 0
M  V30 2641 H 253.999 2.89339 -1.4647 0
M  V30 2642 H 253.784 2.33588 -3.14927 0
M  V30 2643 H 255.274 3.20575 -2.67622 0
M  V30 2644 N 255.711 1.52812 0.385517 0
M  V30 2645 C 256.936 1.72207 1.15583 0
M  V30 2646 C 257.361 0.441034 1.82857 0
M  V30 2647 O 256.719 -0.603465 1.70962 0
M  V30 2648 C 256.767 2.87476 2.17692 0
M  V30 2649 O 255.871 2.54693 3.24354 0
M  V30 2650 H 255.212 0.572526 0.336319 0
M  V30 2651 H 257.742 1.99618 0.448744 0
M  V30 2652 H 257.752 3.13072 2.6163 0
M  V30 2653 H 256.427 3.80408 1.68115 0
M  V30 2654 H 255.004 2.3985 2.85529 0
M  V30 2655 N 257.189 -0.644168 1.43834 0
M  V30 2656 C 258.437 -1.40117 1.45642 0
M  V30 2657 C 258.758 -1.94814 0.0852413 0
M  V30 2658 O 258.028 -1.74988 -0.880688 0
M  V30 2659 H 256.608 -0.52005 0.536243 0
M  V30 2660 H 259.27 -0.7591 1.7951 0
M  V30 2661 H 258.366 -2.23902 2.17427 0
M  V30 2662 N 258.668 -1.30515 -0.883378 0
M  V30 2663 C 259.915 -1.1943 -1.63532 0
M  V30 2664 C 260.243 0.250627 -1.92878 0
M  V30 2665 O 259.498 1.19556 -1.54935 0
M  V30 2666 C 259.797 -1.96994 -2.98209 0
M  V30 2667 C 259.463 -3.466 -2.88408 0
M  V30 2668 C 258.125 -3.87397 -2.85442 0
M  V30 2669 C 260.477 -4.41863 -2.76418 0
M  V30 2670 C 257.805 -5.21745 -2.68327 0
M  V30 2671 C 260.157 -5.7632 -2.60841 0
M  V30 2672 C 258.821 -6.16354 -2.56251 0
M  V30 2673 H 258.091 -0.437025 -0.598406 0
M  V30 2674 H 260.738 -1.61635 -1.02696 0
M  V30 2675 H 259.043 -1.47429 -3.63004 0
M  V30 2676 H 260.74 -1.85808 -3.55354 0
M  V30 2677 H 257.33 -3.14182 -2.91527 0
M  V30 2678 H 261.514 -4.11285 -2.77775 0
M  V30 2679 H 256.77 -5.51853 -2.63189 0
M  V30 2680 H 260.944 -6.49772 -2.50538 0
M  V30 2681 H 258.571 -7.20401 -2.42748 0
M  V30 2682 N 260.146 1.09593 -1.13257 0
M  V30 2683 C 261.093 2.1618 -0.808381 0
M  V30 2684 C 262.063 1.64517 0.228754 0
M  V30 2685 O 263.248 1.9053 0.101381 0
M  V30 2686 C 260.388 3.43973 -0.278675 0
M  V30 2687 C 259.501 4.09545 -1.37466 0
M  V30 2688 C 258.636 5.25088 -0.803479 0
M  V30 2689 C 257.675 5.82579 -1.87799 0
M  V30 2690 N 256.812 6.89486 -1.32488 0
M  V30 2691 H 261.652 2.43254 -1.72138 0
M  V30 2692 H 259.189 1.19392 -0.859294 0
M  V30 2693 H 261.147 4.17174 0.0465583 0
M  V30 2694 H 259.777 3.17223 0.597459 0
M  V30 2695 H 258.829 3.34226 -1.81652 0
M  V30 2696 H 260.141 4.48307 -2.18684 0
M  V30 2697 H 259.295 6.05178 -0.429427 0
M  V30 2698 H 258.034 4.87684 0.0397956 0
M  V30 2699 H 257.039 5.01152 -2.26113 0
M  V30 2700 H 258.264 6.22045 -2.72463 0
M  V30 2701 H 256.21 6.54064 -0.503575 0
M  V30 2702 H 256.127 7.27007 -2.07355 0
M  V30 2703 H 257.395 7.73336 -0.978336 0
M  V30 2704 N 261.624 0.925811 1.2754 0
M  V30 2705 C 262.574 0.394488 2.24561 0
M  V30 2706 C 263.558 -0.500183 1.52928 0
M  V30 2707 O 264.75 -0.337936 1.73744 0
M  V30 2708 C 261.879 -0.353328 3.41477 0
M  V30 2709 C 260.965 0.557752 4.20416 0
M  V30 2710 N 261.356 1.67674 4.77199 0
M  V30 2711 C 259.654 0.360404 4.44541 0
M  V30 2712 C 260.355 2.24324 5.36706 0
M  V30 2713 N 259.331 1.53305 5.21535 0
M  V30 2714 H 263.133 1.2489 2.66045 0
M  V30 2715 H 260.647 0.779864 1.4245 0
M  V30 2716 H 262.644 -0.7509 4.10082 0
M  V30 2717 H 261.304 -1.20469 3.01525 0
M  V30 2718 H 262.315 2.05915 4.75204 0
M  V30 2719 H 258.992 -0.450454 4.15063 0
M  V30 2720 H 260.382 3.18521 5.91603 0
M  V30 2721 N 263.102 -1.41638 0.69111 0
M  V30 2722 C 264.348 -2.01598 0.220519 0
M  V30 2723 C 264.681 -1.54594 -1.17535 0
M  V30 2724 O 263.956 -0.755177 -1.79241 0
M  V30 2725 C 264.239 -3.59062 0.273243 0
M  V30 2726 C 264.092 -4.16203 1.70573 0
M  V30 2727 C 265.411 -4.38546 -0.369457 0
M  V30 2728 H 262.53 -0.732468 0.0816045 0
M  V30 2729 H 265.172 -1.68445 0.878986 0
M  V30 2730 H 263.322 -3.87435 -0.287411 0
M  V30 2731 H 264.994 -3.98722 2.31989 0
M  V30 2732 H 263.237 -3.71414 2.2413 0
M  V30 2733 H 263.908 -5.25358 1.69419 0
M  V30 2734 H 266.384 -4.1596 0.107977 0
M  V30 2735 H 265.26 -5.48069 -0.302002 0
M  V30 2736 H 265.521 -4.17662 -1.44951 0
M  V30 2737 N 264.58 -0.43555 -1.51462 0
M  V30 2738 C 265.826 0.131709 -2.02372 0
M  V30 2739 C 266.159 1.42516 -1.3192 0
M  V30 2740 O 265.434 1.89606 -0.433573 0
M  V30 2741 C 265.717 0.352301 -3.58373 0
M  V30 2742 C 265.57 -0.959676 -4.39443 0
M  V30 2743 C 266.889 1.12286 -4.25535 0
M  V30 2744 H 264.008 0.0463936 -0.735538 0
M  V30 2745 H 266.65 -0.574197 -1.81116 0
M  V30 2746 H 264.8 0.9536 -3.76615 0
M  V30 2747 H 266.472 -1.59482 -4.32855 0
M  V30 2748 H 264.715 -1.56468 -4.04599 0
M  V30 2749 H 265.386 -0.759394 -5.46752 0
M  V30 2750 H 267.862 0.613545 -4.11552 0
M  V30 2751 H 266.738 1.24598 -5.34571 0
M  V30 2752 H 266.999 2.15048 -3.86273 0
M  V30 2753 N 266.058 1.56714 -0.166846 0
M  V30 2754 C 267.469 1.83378 0.350646 0
M  V30 2755 C 267.82 1.08646 1.63372 0
M  V30 2756 O 266.945 0.338058 2.13743 0
M  V30 2757 C 267.54 3.32643 0.642963 0
M  V30 2758 C 266.099 3.59818 1.10491 0
M  V30 2759 C 265.246 2.76954 0.138411 0
M  V30 2760 H 268.197 1.53803 -0.391193 0
M  V30 2761 H 268.218 3.49878 1.49551 0
M  V30 2762 H 267.73 3.87007 -0.291055 0
M  V30 2763 H 265.831 3.1086 2.05418 0
M  V30 2764 H 265.944 4.68178 1.01716 0
M  V30 2765 H 264.308 2.4666 0.634911 0
M  V30 2766 H 265.091 3.34097 -0.789549 0
M  V30 2767 N 267.536 -0.106894 1.57237 0
M  V30 2768 C 268.484 -1.14944 2.02215 0
M  V30 2769 C 269.478 -1.42167 0.92114 0
M  V30 2770 O 270.684 -1.41987 1.10634 0
M  V30 2771 H 267.059 -0.387841 0.64427 0
M  V30 2772 H 269.03 -0.743683 2.88984 0
M  V30 2773 C 267.779 -2.4647 2.4525 0
M  V30 2774 H 267.102 -2.26363 3.29545 0
M  V30 2775 H 268.542 -3.17948 2.80508 0
M  V30 2776 C 267.001 -3.09921 1.321 0
M  V30 2777 O 267.531 -3.9651 0.643622 0
M  V30 2778 N 265.737 -2.69986 1.07497 0
M  V30 2779 H 265.284 -1.99667 1.62761 0
M  V30 2780 H 265.242 -3.12769 0.319876 0
M  V30 2781 N 269.014 -1.53014 -0.377408 0
M  V30 2782 C 269.924 -1.81557 -1.48574 0
M  V30 2783 C 270.94 -0.703102 -1.59162 0
M  V30 2784 O 272.116 -0.99192 -1.75279 0
M  V30 2785 C 269.181 -1.9889 -2.83978 0
M  V30 2786 C 268.242 -3.22801 -2.83016 0
M  V30 2787 C 267.475 -3.39298 -4.11962 0
M  V30 2788 O 267.698 -2.60345 -5.0752 0
M  V30 2789 O 266.632 -4.32604 -4.18494 0
M  V30 2790 H 270.458 -2.75695 -1.27382 0
M  V30 2791 H 268.043 -1.38248 -0.566373 0
M  V30 2792 H 269.925 -2.11931 -3.6423 0
M  V30 2793 H 268.6 -1.07942 -3.05172 0
M  V30 2794 H 267.507 -3.15193 -2.01505 0
M  V30 2795 H 268.84 -4.13632 -2.66775 0
M  V30 2796 N 270.492 0.636531 -1.44174 0
M  V30 2797 C 271.738 1.39826 -1.4689 0
M  V30 2798 C 272.071 1.93947 -0.0990585 0
M  V30 2799 O 271.346 1.73325 0.882544 0
M  V30 2800 C 271.629 2.56751 -2.5249 0
M  V30 2801 C 271.482 2.08014 -3.98811 0
M  V30 2802 C 272.801 3.58946 -2.54649 0
M  V30 2803 H 269.92 0.507075 -0.53483 0
M  V30 2804 H 272.562 0.720188 -1.75822 0
M  V30 2805 H 270.712 3.14597 -2.2795 0
M  V30 2806 H 272.384 1.5504 -4.34466 0
M  V30 2807 H 270.627 1.39242 -4.10846 0
M  V30 2808 H 271.298 2.92169 -4.68339 0
M  V30 2809 H 273.774 3.1089 -2.76563 0
M  V30 2810 H 272.65 4.38286 -3.3045 0
M  V30 2811 H 272.911 4.12655 -1.58646 0
M  V30 2812 N 271.97 1.30982 0.876444 0
M  V30 2813 C 273.216 1.20474 1.63138 0
M  V30 2814 C 273.549 -0.238096 1.92735 0
M  V30 2815 O 272.824 -1.1692 1.55435 0
M  V30 2816 C 273.107 2.04244 2.96574 0
M  V30 2817 C 272.96 3.56793 2.73896 0
M  V30 2818 C 274.279 1.88684 3.97601 0
M  V30 2819 H 271.398 0.439001 0.591985 0
M  V30 2820 H 274.04 1.60704 1.01361 0
M  V30 2821 H 272.19 1.70063 3.493 0
M  V30 2822 H 273.862 4.01077 2.27892 0
M  V30 2823 H 272.105 3.80548 2.08245 0
M  V30 2824 H 272.776 4.10706 3.68815 0
M  V30 2825 H 275.252 2.18584 3.54062 0
M  V30 2826 H 274.128 2.4961 4.88862 0
M  V30 2827 H 274.389 0.848343 4.33884 0
M  V30 2828 N 273.449 -1.08991 1.13837 0
M  V30 2829 C 274.695 -1.81526 0.90422 0
M  V30 2830 C 275.028 -1.85706 -0.568066 0
M  V30 2831 O 274.303 -1.32855 -1.42056 0
M  V30 2832 C 274.586 -3.27447 1.49835 0
M  V30 2833 C 274.439 -3.31512 3.04006 0
M  V30 2834 C 275.758 -4.24256 1.17025 0
M  V30 2835 H 272.877 -0.659029 0.329923 0
M  V30 2836 H 275.519 -1.27644 1.40737 0
M  V30 2837 H 273.669 -3.73462 1.07044 0
M  V30 2838 H 275.341 -2.93867 3.55584 0
M  V30 2839 H 273.584 -2.70963 3.38765 0
M  V30 2840 H 274.255 -4.34329 3.40679 0
M  V30 2841 H 276.731 -3.86549 1.54009 0
M  V30 2842 H 275.607 -5.24684 1.61237 0
M  V30 2843 H 275.868 -4.42019 0.0846274 0
M  V30 2844 N 274.927 -0.932562 -1.27047 0
M  V30 2845 C 275.859 -0.392734 -2.2581 0
M  V30 2846 C 276.872 0.479241 -1.55586 0
M  V30 2847 O 278.061 0.291078 -1.76111 0
M  V30 2848 C 275.161 0.455456 -3.35826 0
M  V30 2849 C 274.334 -0.398355 -4.35582 0
M  V30 2850 C 273.393 0.387985 -5.24768 0
M  V30 2851 O 272.419 -0.206003 -5.68827 0
M  V30 2852 N 273.621 1.68664 -5.55457 0
M  V30 2853 H 276.386 -1.24173 -2.72766 0
M  V30 2854 H 273.947 -0.800511 -1.40725 0
M  V30 2855 H 275.939 0.988692 -3.92437 0
M  V30 2856 H 274.509 1.20522 -2.88432 0
M  V30 2857 H 273.729 -1.11286 -3.78165 0
M  V30 2858 H 275.017 -0.981889 -4.99236 0
M  V30 2859 H 274.415 2.19147 -5.21528 0
M  V30 2860 H 272.972 2.1663 -6.14748 0
M  V30 2861 N 276.405 1.4127 -0.698611 0
M  V30 2862 C 277.821 1.55241 -0.370462 0
M  V30 2863 C 278.021 1.67351 1.12231 0
M  V30 2864 O 277.077 1.65363 1.90818 0
M  V30 2865 C 278.39 2.78997 -1.12165 0
M  V30 2866 C 279.938 2.92797 -1.1063 0
M  V30 2867 C 280.413 4.19445 -1.8393 0
M  V30 2868 N 281.904 4.26409 -1.80914 0
M  V30 2869 C 282.639 5.23271 -2.34467 0
M  V30 2870 N 282.135 6.26145 -2.96504 0
M  V30 2871 N 283.928 5.15232 -2.24706 0
M  V30 2872 H 276.079 1.31654 -1.66676 0
M  V30 2873 H 278.342 0.635393 -0.703548 0
M  V30 2874 H 278.048 2.76268 -2.17644 0
M  V30 2875 H 277.922 3.70606 -0.702209 0
M  V30 2876 H 280.309 2.95039 -0.0597713 0
M  V30 2877 H 280.39 2.02353 -1.56483 0
M  V30 2878 H 280.034 4.17964 -2.88563 0
M  V30 2879 H 279.964 5.08866 -1.35509 0
M  V30 2880 H 282.455 3.527 -1.35687 0
M  V30 2881 H 282.768 6.96451 -3.34927 0
M  V30 2882 H 281.113 6.26638 -3.00583 0
M  V30 2883 H 284.304 4.33789 -1.7591 0
M  V30 2884 H 284.477 5.90552 -2.66745 0
M  V30 2885 N 277.883 0.443576 1.51229 0
M  V30 2886 C 278.813 -0.355142 2.30783 0
M  V30 2887 C 279.794 -1.0154 1.36468 0
M  V30 2888 O 280.979 -1.01785 1.65389 0
M  V30 2889 C 278.109 -1.45312 3.15439 0
M  V30 2890 C 277.063 -0.916002 4.18083 0
M  V30 2891 C 276.389 -2.1102 4.91299 0
M  V30 2892 C 277.689 0.0538602 5.22272 0
M  V30 2893 H 279.383 0.308767 2.97804 0
M  V30 2894 H 276.929 0.149937 1.43217 0
M  V30 2895 H 278.882 -2.01914 3.69876 0
M  V30 2896 H 277.606 -2.14541 2.46252 0
M  V30 2897 H 276.265 -0.372145 3.64706 0
M  V30 2898 H 275.913 -2.78882 4.18609 0
M  V30 2899 H 275.613 -1.75717 5.60712 0
M  V30 2900 H 277.137 -2.68164 5.48562 0
M  V30 2901 H 278.551 -0.422069 5.71744 0
M  V30 2902 H 276.948 0.319776 5.99247 0
M  V30 2903 H 278.018 0.98858 4.74716 0
M  V30 2904 N 279.361 -1.56624 0.175154 0
M  V30 2905 C 280.608 -1.96999 -0.468811 0
M  V30 2906 C 280.936 -1.06129 -1.62994 0
M  V30 2907 O 280.191 -0.0961771 -1.95464 0
M  V30 2908 C 280.49 -3.43419 -0.989864 0
M  V30 2909 C 280.156 -4.50866 0.0557687 0
M  V30 2910 C 278.818 -4.79975 0.343134 0
M  V30 2911 C 281.17 -5.15551 0.765308 0
M  V30 2912 C 278.498 -5.71066 1.34536 0
M  V30 2913 C 280.85 -6.07724 1.75654 0
M  V30 2914 C 279.514 -6.35199 2.05132 0
M  V30 2915 H 278.784 -0.720869 -0.17155 0
M  V30 2916 H 281.431 -1.89616 0.267924 0
M  V30 2917 H 279.736 -3.47772 -1.80449 0
M  V30 2918 H 281.433 -3.72002 -1.49719 0
M  V30 2919 H 278.023 -4.28229 -0.178381 0
M  V30 2920 H 282.207 -4.9317 0.556513 0
M  V30 2921 H 277.463 -5.90635 1.57988 0
M  V30 2922 H 281.637 -6.56912 2.31169 0
M  V30 2923 H 279.264 -7.05584 2.8294 0
M  V30 2924 N 280.839 0.0985539 -1.57292 0
M  V30 2925 C 281.771 1.14595 -1.98496 0
M  V30 2926 C 282.784 1.36512 -0.887031 0
M  V30 2927 O 283.973 1.35225 -1.16518 0
M  V30 2928 C 281.073 2.50216 -2.28572 0
M  V30 2929 C 280.246 2.48624 -3.59868 0
M  V30 2930 C 279.305 3.66146 -3.7792 0
M  V30 2931 O 278.331 3.48795 -4.49812 0
M  V30 2932 N 279.533 4.85496 -3.18235 0
M  V30 2933 H 282.298 0.795277 -2.88956 0
M  V30 2934 H 279.859 0.287579 -1.59325 0
M  V30 2935 H 281.851 3.27432 -2.37845 0
M  V30 2936 H 280.421 2.77387 -1.44136 0
M  V30 2937 H 279.641 1.56978 -3.61596 0
M  V30 2938 H 280.929 2.44635 -4.46129 0
M  V30 2939 H 280.327 5.02497 -2.59833 0
M  V30 2940 H 278.884 5.60317 -3.32999 0
M  V30 2941 N 282.317 1.53212 0.369288 0
M  V30 2942 C 283.563 1.69466 1.11397 0
M  V30 2943 C 283.896 0.443257 1.89074 0
M  V30 2944 O 283.171 -0.559386 1.86282 0
M  V30 2945 C 283.454 2.9422 2.07621 0
M  V30 2946 C 283.307 4.29508 1.33577 0
M  V30 2947 C 284.626 3.14565 3.07794 0
M  V30 2948 H 281.745 0.616667 0.403597 0
M  V30 2949 H 284.387 1.85845 0.395179 0
M  V30 2950 H 282.537 2.80387 2.68916 0
M  V30 2951 H 284.209 4.55147 0.750955 0
M  V30 2952 H 282.452 4.29088 0.637618 0
M  V30 2953 H 283.123 5.12926 2.03989 0
M  V30 2954 H 285.599 3.2756 2.56601 0
M  V30 2955 H 284.475 4.03297 3.72348 0
M  V30 2956 H 284.736 2.29675 3.77759 0
M  V30 2957 N 283.795 -0.628877 1.44509 0
M  V30 2958 C 284.742 -1.74074 1.51549 0
M  V30 2959 C 285.712 -1.62084 0.363021 0
M  V30 2960 O 286.897 -1.81975 0.573567 0
M  V30 2961 C 284.037 -3.12328 1.46784 0
M  V30 2962 C 283.15 -3.35277 2.72422 0
M  V30 2963 C 282.285 -4.63515 2.59475 0
M  V30 2964 C 281.324 -4.7965 3.80266 0
M  V30 2965 N 280.461 -5.99168 3.65981 0
M  V30 2966 H 285.301 -1.67392 2.46544 0
M  V30 2967 H 282.838 -0.816527 1.22357 0
M  V30 2968 H 284.796 -3.92286 1.42012 0
M  V30 2969 H 283.426 -3.18018 0.553544 0
M  V30 2970 H 282.478 -2.49242 2.87372 0
M  V30 2971 H 283.79 -3.43078 3.62076 0
M  V30 2972 H 282.944 -5.51638 2.52548 0
M  V30 2973 H 281.683 -4.58076 1.67384 0
M  V30 2974 H 280.688 -3.89957 3.87574 0
M  V30 2975 H 281.913 -4.86902 4.73395 0
M  V30 2976 H 279.859 -5.94814 2.76644 0
M  V30 2977 H 279.776 -6.08035 4.49254 0
M  V30 2978 H 281.044 -6.89846 3.6295 0
M  V30 2979 N 285.273 -1.31445 -0.869486 0
M  V30 2980 C 286.521 -1.20918 -1.61936 0
M  V30 2981 C 286.842 0.232683 -1.93607 0
M  V30 2982 O 286.112 1.15352 -1.58338 0
M  V30 2983 H 284.692 -0.44454 -0.600328 0
M  V30 2984 H 287.354 -1.64776 -1.0409 0
M  V30 2985 H 286.45 -1.78124 -2.56278 0
M  V30 2986 N 286.751 1.08385 -1.14413 0
M  V30 2987 C 288.167 1.32844 -0.884563 0
M  V30 2988 C 288.367 1.95841 0.474181 0
M  V30 2989 O 287.423 2.21158 1.21842 0
M  V30 2990 C 288.736 2.22978 -2.01745 0
M  V30 2991 C 290.284 2.36458 -2.05077 0
M  V30 2992 C 290.759 3.29934 -3.1766 0
M  V30 2993 N 292.25 3.37511 -3.17239 0
M  V30 2994 C 292.985 4.09871 -4.0099 0
M  V30 2995 N 292.481 4.84936 -4.94781 0
M  V30 2996 N 294.274 4.05704 -3.89051 0
M  V30 2997 H 286.425 0.658756 -2.01926 0
M  V30 2998 H 288.688 0.352821 -0.879899 0
M  V30 2999 H 288.394 1.83934 -2.99769 0
M  V30 3000 H 288.268 3.23441 -1.94077 0
M  V30 3001 H 290.655 2.7476 -1.0766 0
M  V30 3002 H 290.736 1.35736 -2.16816 0
M  V30 3003 H 290.38 2.92352 -4.15322 0
M  V30 3004 H 290.31 4.30584 -3.03158 0
M  V30 3005 H 292.801 2.83996 -2.49308 0
M  V30 3006 H 293.114 5.37612 -5.55151 0
M  V30 3007 H 291.459 4.83988 -4.98779 0
M  V30 3008 H 294.65 3.46167 -3.15097 0
M  V30 3009 H 294.823 4.61834 -4.54547 0
M  V30 3010 N 288.23 0.939286 1.26551 0
M  V30 3011 C 289.646 0.641304 1.46149 0
M  V30 3012 C 289.846 -0.805964 1.84679 0
M  V30 3013 O 288.902 -1.58278 1.96734 0
M  V30 3014 C 290.215 1.6011 2.54529 0
M  V30 3015 C 291.763 1.6106 2.68382 0
M  V30 3016 C 292.238 2.55765 3.79932 0
M  V30 3017 N 293.729 2.5404 3.87322 0
M  V30 3018 C 294.464 3.24004 4.73085 0
M  V30 3019 N 293.96 4.03388 5.63249 0
M  V30 3020 N 295.753 3.12965 4.66914 0
M  V30 3021 H 287.904 1.87478 0.998285 0
M  V30 3022 H 290.167 0.805559 0.499779 0
M  V30 3023 H 289.873 2.63412 2.33039 0
M  V30 3024 H 289.747 1.35171 3.52149 0
M  V30 3025 H 292.134 0.584835 2.89247 0
M  V30 3026 H 292.215 1.90053 1.71212 0
M  V30 3027 H 291.859 3.58458 3.5982 0
M  V30 3028 H 291.789 2.24063 4.76554 0
M  V30 3029 H 294.28 1.96396 3.22858 0
M  V30 3030 H 294.593 4.5373 6.25579 0
M  V30 3031 H 292.938 4.07489 5.63008 0
M  V30 3032 H 296.129 2.50432 3.95476 0
M  V30 3033 H 296.302 3.67759 5.33533 0
M  V30 3034 N 289.708 -1.40897 0.706093 0
M  V30 3035 C 290.954 -2.01352 0.241889 0
M  V30 3036 C 291.287 -1.55832 -1.15888 0
M  V30 3037 O 290.562 -0.774145 -1.7843 0
M  V30 3038 C 290.845 -3.58752 0.311311 0
M  V30 3039 C 290.698 -4.1437 1.74978 0
M  V30 3040 C 292.017 -4.38914 -0.322922 0
M  V30 3041 H 289.136 -0.731562 0.0893687 0
M  V30 3042 H 291.778 -1.67504 0.896802 0
M  V30 3043 H 289.928 -3.87718 -0.246302 0
M  V30 3044 H 291.6 -3.96239 2.36205 0
M  V30 3045 H 289.843 -3.69016 2.28057 0
M  V30 3046 H 290.514 -5.23532 1.74981 0
M  V30 3047 H 292.99 -4.15822 0.152089 0
M  V30 3048 H 291.866 -5.48358 -0.243855 0
M  V30 3049 H 292.127 -4.19176 -1.40513 0
M  V30 3050 N 291.186 -0.45159 -1.50991 0
M  V30 3051 C 292.432 0.110237 -2.025 0
M  V30 3052 C 292.765 1.41109 -1.33424 0
M  V30 3053 O 292.04 1.89135 -0.453659 0
M  V30 3054 C 292.323 0.314271 -3.58726 0
M  V30 3055 C 292.176 -1.00623 -4.38401 0
M  V30 3056 C 293.495 1.07767 -4.26702 0
M  V30 3057 H 290.614 0.0385897 -0.735989 0
M  V30 3058 H 293.256 -0.593374 -1.80497 0
M  V30 3059 H 291.406 0.913601 -3.77605 0
M  V30 3060 H 293.078 -1.64064 -4.31139 0
M  V30 3061 H 291.321 -1.6075 -4.02917 0
M  V30 3062 H 291.992 -0.817341 -5.45915 0
M  V30 3063 H 294.468 0.56986 -4.12179 0
M  V30 3064 H 293.344 1.18921 -5.35863 0
M  V30 3065 H 293.605 2.10939 -3.88532 0
M  V30 3066 N 292.664 1.56529 -0.183458 0
M  V30 3067 C 294.08 1.58664 0.172554 0
M  V30 3068 C 294.28 1.19925 1.61926 0
M  V30 3069 O 293.336 0.916534 2.35278 0
M  V30 3070 C 294.649 3.00463 -0.119262 0
M  V30 3071 C 296.197 3.12945 -0.0584396 0
M  V30 3072 C 296.672 4.56857 -0.323408 0
M  V30 3073 N 298.163 4.62403 -0.271612 0
M  V30 3074 C 298.898 5.71626 -0.450639 0
M  V30 3075 N 298.394 6.89362 -0.689384 0
M  V30 3076 N 300.187 5.60775 -0.385701 0
M  V30 3077 H 292.338 1.79994 -1.12765 0
M  V30 3078 H 294.601 0.834808 -0.449222 0
M  V30 3079 H 294.307 3.33326 -1.12192 0
M  V30 3080 H 294.181 3.72659 0.583544 0
M  V30 3081 H 296.568 2.79902 0.934805 0
M  V30 3082 H 296.649 2.4316 -0.794144 0
M  V30 3083 H 296.293 4.9061 -1.31392 0
M  V30 3084 H 296.223 5.24816 0.43305 0
M  V30 3085 H 298.714 3.77785 -0.0932256 0
M  V30 3086 H 299.027 7.68489 -0.815113 0
M  V30 3087 H 297.372 6.91196 -0.726142 0
M  V30 3088 H 300.563 4.67674 -0.199687 0
M  V30 3089 H 300.736 6.4584 -0.528646 0
M  V30 3090 N 294.142 -0.090211 1.57342 0
M  V30 3091 C 295.105 -1.09335 2.01441 0
M  V30 3092 C 296.105 -1.32666 0.908641 0
M  V30 3093 O 297.295 -1.28697 1.174 0
M  V30 3094 C 294.427 -2.44136 2.3793 0
M  V30 3095 H 295.62 -0.713662 2.91285 0
M  V30 3096 H 293.173 -0.335404 1.52659 0
M  V30 3097 H 293.908 -2.86972 1.51055 0
M  V30 3098 H 293.693 -2.28548 3.18603 0
M  V30 3099 H 295.183 -3.16277 2.72688 0
M  V30 3100 N 295.62 -1.53406 -0.361157 0
M  V30 3101 C 296.848 -1.73717 -1.12383 0
M  V30 3102 C 297.263 -0.468161 -1.82904 0
M  V30 3103 O 296.62 0.559198 -1.73722 0
M  V30 3104 C 296.671 -2.90558 -2.15078 0
M  V30 3105 O 296.392 -4.12549 -1.47428 0
M  V30 3106 C 297.893 -3.22777 -3.03858 0
M  V30 3107 H 295.113 -0.580896 -0.335858 0
M  V30 3108 H 297.657 -2.00167 -0.418728 0
M  V30 3109 H 295.812 -2.66489 -2.8118 0
M  V30 3110 H 296.226 -4.78009 -2.15887 0
M  V30 3111 H 297.7 -4.07927 -3.71887 0
M  V30 3112 H 298.177 -2.38329 -3.68912 0
M  V30 3113 H 298.783 -3.48787 -2.43367 0
M  V30 3114 N 297.098 0.621204 -1.44841 0
M  V30 3115 C 298.008 1.7612 -1.5498 0
M  V30 3116 C 299.024 1.68477 -0.434927 0
M  V30 3117 O 300.2 1.89076 -0.693693 0
M  V30 3118 C 297.265 3.1254 -1.50065 0
M  V30 3119 C 296.326 3.31741 -2.72482 0
M  V30 3120 C 295.559 4.61653 -2.67792 0
M  V30 3121 O 295.782 5.431 -1.74352 0
M  V30 3122 O 294.716 4.83271 -3.58794 0
M  V30 3123 H 298.542 1.70518 -2.51311 0
M  V30 3124 H 296.127 0.783643 -1.27198 0
M  V30 3125 H 298.009 3.93844 -1.49882 0
M  V30 3126 H 296.684 3.18663 -0.568806 0
M  V30 3127 H 295.591 2.50077 -2.7823 0
M  V30 3128 H 296.924 3.30486 -3.64746 0
M  V30 3129 N 298.576 1.31904 0.862503 0
M  V30 3130 C 299.822 1.22197 1.61851 0
M  V30 3131 C 300.155 -0.217641 1.92977 0
M  V30 3132 O 299.43 -1.15264 1.56666 0
M  V30 3133 C 299.713 2.07378 2.94391 0
M  V30 3134 C 299.566 3.59678 2.70096 0
M  V30 3135 C 300.885 1.92891 3.95577 0
M  V30 3136 H 298.004 0.445255 0.587296 0
M  V30 3137 H 300.646 1.6177 0.99651 0
M  V30 3138 H 298.796 1.73758 3.47477 0
M  V30 3139 H 300.468 4.03472 2.23625 0
M  V30 3140 H 298.711 3.82735 2.04197 0
M  V30 3141 H 299.382 4.14595 3.64438 0
M  V30 3142 H 301.858 2.22327 3.51724 0
M  V30 3143 H 300.734 2.54781 4.86187 0
M  V30 3144 H 300.995 0.894315 4.3296 0
M  V30 3145 N 300.054 -1.07777 1.14986 0
M  V30 3146 C 301.465 -1.61766 0.932127 0
M  V30 3147 C 301.816 -1.88974 -0.527581 0
M  V30 3148 O 300.941 -1.65198 -1.39781 0
M  V30 3149 C 301.536 -2.93891 1.68563 0
M  V30 3150 C 300.095 -3.44639 1.5133 0
M  V30 3151 C 299.242 -2.18767 1.704 0
M  V30 3152 H 302.193 -0.909201 1.30074 0
M  V30 3153 H 302.214 -3.62623 1.15259 0
M  V30 3154 H 301.726 -2.74057 2.74799 0
M  V30 3155 H 299.827 -3.69564 0.474702 0
M  V30 3156 H 299.94 -4.20966 2.28746 0
M  V30 3157 H 298.304 -2.28253 1.13016 0
M  V30 3158 H 299.087 -2.01433 2.77992 0
M  V30 3159 N 301.532 -0.945985 -1.26051 0
M  V30 3160 C 302.778 -0.597002 -1.93814 0
M  V30 3161 C 303.111 0.862484 -1.73997 0
M  V30 3162 O 302.386 1.61769 -1.07986 0
M  V30 3163 C 302.669 -0.945937 -3.47454 0
M  V30 3164 C 302.522 -2.46052 -3.76535 0
M  V30 3165 C 303.841 -0.464785 -4.37639 0
M  V30 3166 H 300.96 -0.218366 -0.703907 0
M  V30 3167 H 303.602 -1.18107 -1.48831 0
M  V30 3168 H 301.752 -0.448902 -3.85898 0
M  V30 3169 H 303.424 -3.03065 -3.47778 0
M  V30 3170 H 301.667 -2.90194 -3.22444 0
M  V30 3171 H 302.338 -2.65517 -4.83947 0
M  V30 3172 H 304.814 -0.891016 -4.06448 0
M  V30 3173 H 303.69 -0.737712 -5.4392 0
M  V30 3174 H 303.951 0.635274 -4.37512 0
M  V30 3175 N 303.011 1.40521 -0.713556 0
M  V30 3176 C 304.236 2.05759 -0.26035 0
M  V30 3177 C 304.661 1.53403 1.08854 0
M  V30 3178 O 304.019 0.668535 1.68524 0
M  V30 3179 C 304.067 3.59745 -0.248122 0
M  V30 3180 O 303.171 4.05123 0.77131 0
M  V30 3181 H 302.512 0.652564 -0.122703 0
M  V30 3182 H 305.042 1.79958 -0.973467 0
M  V30 3183 H 305.052 4.07911 -0.0851129 0
M  V30 3184 H 303.727 3.97218 -1.2325 0
M  V30 3185 H 302.304 3.68422 0.57619 0
M  V30 3186 N 304.489 0.459591 1.5075 0
M  V30 3187 C 305.735 -0.091664 2.03193 0
M  V30 3188 C 306.09 -1.38432 1.3362 0
M  V30 3189 O 305.383 -1.86257 0.449322 0
M  V30 3190 C 305.577 -0.342866 3.55752 0
M  V30 3191 C 305.406 0.923888 4.40107 0
M  V30 3192 C 304.176 1.46388 4.83631 0
M  V30 3193 C 306.374 1.81617 4.81165 0
M  V30 3194 N 304.356 2.68086 5.52271 0
M  V30 3195 C 305.727 2.87907 5.49099 0
M  V30 3196 C 307.782 1.82793 4.63132 0
M  V30 3197 C 306.485 3.95347 6.0091 0
M  V30 3198 C 308.511 2.89182 5.15876 0
M  V30 3199 C 307.873 3.94191 5.83774 0
M  V30 3200 H 303.972 0.00619247 0.781975 0
M  V30 3201 H 306.556 0.625233 1.84388 0
M  V30 3202 H 304.727 -1.0288 3.74527 0
M  V30 3203 H 306.459 -0.887445 3.9485 0
M  V30 3204 H 303.214 1.01466 4.62603 0
M  V30 3205 H 303.638 3.29857 5.91205 0
M  V30 3206 H 308.28 1.0293 4.1008 0
M  V30 3207 H 305.998 4.76035 6.53006 0
M  V30 3208 H 309.584 2.91061 5.0376 0
M  V30 3209 H 308.464 4.75161 6.23853 0
M  V30 3210 N 305.967 -1.56429 0.191757 0
M  V30 3211 C 306.877 -2.22541 -0.742481 0
M  V30 3212 C 307.893 -1.22342 -1.23727 0
M  V30 3213 O 309.069 -1.55069 -1.28513 0
M  V30 3214 C 306.134 -2.8692 -1.94623 0
M  V30 3215 C 305.195 -4.02378 -1.49633 0
M  V30 3216 C 304.428 -4.63678 -2.6427 0
M  V30 3217 O 304.651 -4.23895 -3.81666 0
M  V30 3218 O 303.585 -5.53202 -2.37174 0
M  V30 3219 H 307.411 -3.02977 -0.209462 0
M  V30 3220 H 304.996 -1.49353 -0.0373832 0
M  V30 3221 H 306.878 -3.27663 -2.64982 0
M  V30 3222 H 305.553 -2.09466 -2.46791 0
M  V30 3223 H 304.46 -3.66265 -0.761636 0
M  V30 3224 H 305.793 -4.81487 -1.02134 0
M  V30 3225 N 307.445 0.0818655 -1.57387 0
M  V30 3226 C 308.67 0.799946 -1.91352 0
M  V30 3227 C 309.095 1.70833 -0.787258 0
M  V30 3228 O 308.453 1.79419 0.26048 0
M  V30 3229 C 308.501 1.57812 -3.24234 0
M  V30 3230 O 307.605 2.68806 -3.12757 0
M  V30 3231 H 306.946 0.21891 -0.626877 0
M  V30 3232 H 309.476 0.0531256 -2.04531 0
M  V30 3233 H 309.486 1.95952 -3.57864 0
M  V30 3234 H 308.161 0.911548 -4.05788 0
M  V30 3235 H 306.738 2.33597 -2.90666 0
M  V30 3236 N 308.923 1.53595 0.353017 0
M  V30 3237 C 310.17 1.70385 1.09431 0
M  V30 3238 C 310.498 0.462113 1.88931 0
M  V30 3239 O 309.753 -0.556074 1.87633 0
M  V30 3240 C 310.052 2.91313 2.07054 0
M  V30 3241 C 309.718 4.27308 1.43939 0
M  V30 3242 C 308.38 4.64287 1.26454 0
M  V30 3243 C 310.732 5.11829 0.983883 0
M  V30 3244 C 308.06 5.83412 0.620226 0
M  V30 3245 C 310.412 6.31611 0.353516 0
M  V30 3246 C 309.076 6.67293 0.166272 0
M  V30 3247 H 308.346 0.623484 0.400436 0
M  V30 3248 H 310.993 1.87799 0.374655 0
M  V30 3249 H 309.298 2.68463 2.85368 0
M  V30 3250 H 310.995 3.01497 2.64387 0
M  V30 3251 H 307.585 3.98198 1.58543 0
M  V30 3252 H 311.769 4.838 1.10685 0
M  V30 3253 H 307.025 6.09639 0.463681 0
M  V30 3254 H 311.199 6.964 -0.00757555 0
M  V30 3255 H 308.826 7.59461 -0.335047 0
M  V30 3256 N 310.401 -0.613514 1.45168 0
M  V30 3257 C 311.349 -1.74572 1.53712 0
M  V30 3258 C 312.343 -1.64426 0.407505 0
M  V30 3259 O 313.549 -1.70291 0.583176 0
M  V30 3260 H 309.924 -0.576641 0.48269 0
M  V30 3261 H 311.895 -1.64492 2.48968 0
M  V30 3262 C 310.644 -3.12943 1.51532 0
M  V30 3263 H 309.967 -3.21407 2.37776 0
M  V30 3264 H 311.407 -3.9201 1.61569 0
M  V30 3265 C 309.866 -3.36053 0.238798 0
M  V30 3266 O 310.396 -3.95837 -0.6838 0
M  V30 3267 N 308.602 -2.9028 0.136359 0
M  V30 3268 H 308.149 -2.41811 0.887999 0
M  V30 3269 H 308.107 -3.06116 -0.716944 0
M  V30 3270 N 311.879 -1.3236 -0.855495 0
M  V30 3271 C 312.827 -1.2118 -1.9854 0
M  V30 3272 C 313.821 -0.116788 -1.68997 0
M  V30 3273 O 315.027 -0.279657 -1.77814 0
M  V30 3274 H 311.402 -0.375608 -0.651477 0
M  V30 3275 H 313.373 -2.16743 -2.05098 0
M  V30 3276 C 312.122 -0.950849 -3.34446 0
M  V30 3277 H 311.445 -1.78563 -3.57708 0
M  V30 3278 H 312.885 -0.912863 -4.14057 0
M  V30 3279 C 311.344 0.346404 -3.35114 0
M  V30 3280 O 311.874 1.35855 -3.7803 0
M  V30 3281 N 310.08 0.36808 -2.88259 0
M  V30 3282 H 309.627 -0.456102 -2.5353 0
M  V30 3283 H 309.585 1.23591 -2.89089 0
M  V30 3284 N 313.357 1.07166 -1.15556 0
M  V30 3285 C 314.605 1.79443 -0.929764 0
M  V30 3286 C 314.926 1.87246 0.544414 0
M  V30 3287 O 314.196 1.37473 1.39564 0
M  V30 3288 H 312.776 0.664625 -0.341003 0
M  V30 3289 H 315.438 1.29499 -1.45657 0
M  V30 3290 H 314.534 2.81832 -1.34079 0
M  V30 3291 N 314.835 0.952656 1.25548 0
M  V30 3292 C 316.112 0.523818 1.88456 0
M  V30 3293 C 316.492 -0.998871 1.85973 0
M  V30 3294 O 315.84 -1.86381 1.3219 0
M  V30 3295 C 316.05 1.0982 3.31271 0
M  V30 3296 C 317.398 1.17385 4.08051 0
M  V30 3297 O 318.422 1.04961 3.40384 0
M  V30 3298 O 317.281 1.36852 5.29088 0
M  V30 3299 H 314.375 0.172485 0.808813 0
M  V30 3300 H 316.921 1.04596 1.33633 0
M  V30 3301 H 315.693 2.1415 3.27499 0
M  V30 3302 H 315.316 0.559191 3.93648 0
M  V30 3303 N 316.313 -1.40141 0.720998 0
M  V30 3304 C 317.553 -2.02644 0.267335 0
M  V30 3305 C 317.917 -1.55948 -1.12001 0
M  V30 3306 O 319.118 -2.10552 -1.67097 0
M  V30 3307 C 317.389 -3.55679 0.350281 0
M  V30 3308 S 318.948 -4.38793 -0.0256004 0
M  V30 3309 H 315.766 -0.703105 0.105664 0
M  V30 3310 H 318.368 -1.71175 0.944416 0
M  V30 3311 H 317.072 -3.87157 1.36153 0
M  V30 3312 H 316.603 -3.91883 -0.345096 0
M  V30 3313 H 318.618 -4.803 -1.24604 0
M  V30 3314 N 317.792 -0.46758 -1.50504 0
M  V30 3315 C 319.039 0.0886219 -2.02306 0
M  V30 3316 C 319.367 1.40037 -1.34981 0
M  V30 3317 O 318.622 1.90136 -0.463318 0
M  V30 3318 C 318.921 0.323995 -3.55928 0
M  V30 3319 C 318.587 -0.905618 -4.41712 0
M  V30 3320 C 317.249 -1.24275 -4.64875 0
M  V30 3321 C 319.601 -1.72448 -4.91845 0
M  V30 3322 C 316.929 -2.39888 -5.35417 0
M  V30 3323 C 319.281 -2.87185 -5.63656 0
M  V30 3324 C 317.945 -3.21317 -5.85074 0
M  V30 3325 H 317.215 0.0324291 -0.74029 0
M  V30 3326 H 319.862 -0.620945 -1.81153 0
M  V30 3327 H 318.167 1.11577 -3.75577 0
M  V30 3328 H 319.864 0.76826 -3.93572 0
M  V30 3329 H 316.454 -0.632956 -4.239 0
M  V30 3330 H 320.638 -1.4772 -4.73806 0
M  V30 3331 H 315.894 -2.66611 -5.50208 0
M  V30 3332 H 320.068 -3.50985 -6.01484 0
M  V30 3333 H 317.695 -4.1101 -6.39511 0
M  V30 3334 N 319.27 1.56325 -0.20005 0
M  V30 3335 C 320.519 1.96895 0.437652 0
M  V30 3336 C 320.832 1.08999 1.62415 0
M  V30 3337 O 322.038 1.39372 2.32997 0
M  V30 3338 C 320.494 3.50198 0.830025 0
M  V30 3339 C 320.102 4.46765 -0.332461 0
M  V30 3340 C 321.846 3.99526 1.43453 0
M  V30 3341 C 319.753 5.91344 0.0811468 0
M  V30 3342 H 318.683 0.735209 0.167282 0
M  V30 3343 H 321.334 1.81148 -0.292853 0
M  V30 3344 H 319.716 3.61467 1.61734 0
M  V30 3345 H 320.89 4.47231 -1.11 0
M  V30 3346 H 319.205 4.07657 -0.848789 0
M  V30 3347 H 321.802 5.05025 1.75652 0
M  V30 3348 H 322.145 3.44122 2.34277 0
M  V30 3349 H 322.678 3.91393 0.71109 0
M  V30 3350 H 319.417 6.50685 -0.793033 0
M  V30 3351 H 318.937 5.94121 0.823445 0
M  V30 3352 H 320.616 6.44945 0.515252 0
M  V30 3353 N 320.748 -0.0735177 1.57428 0
M  V30 3354 C 321.678 -1.0879 2.06608 0
M  V30 3355 C 322.659 -1.40473 0.959237 0
M  V30 3356 O 323.844 -1.5013 1.23185 0
M  V30 3357 C 320.974 -2.40183 2.50857 0
M  V30 3358 C 319.928 -2.22858 3.65402 0
M  V30 3359 C 319.254 -3.59619 3.957 0
M  V30 3360 C 320.554 -1.65123 4.95511 0
M  V30 3361 H 322.248 -0.678673 2.91607 0
M  V30 3362 H 319.794 -0.325013 1.40284 0
M  V30 3363 H 321.747 -3.11437 2.83874 0
M  V30 3364 H 320.471 -2.83083 1.62885 0
M  V30 3365 H 319.13 -1.54045 3.32664 0
M  V30 3366 H 318.778 -4.00086 3.04861 0
M  V30 3367 H 318.478 -3.48866 4.72828 0
M  V30 3368 H 320.002 -4.32306 4.31212 0
M  V30 3369 H 321.416 -2.26241 5.26771 0
M  V30 3370 H 319.813 -1.65071 5.7695 0
M  V30 3371 H 320.883 -0.612559 4.81015 0
M  V30 3372 N 322.226 -1.5378 -0.344866 0
M  V30 3373 C 323.503 -1.61589 -1.10219 0
M  V30 3374 C 323.883 -0.436316 -2.06542 0
M  V30 3375 O 323.231 0.571543 -2.21237 0
M  V30 3376 C 323.441 -2.97602 -1.82301 0
M  V30 3377 C 324.789 -3.5291 -2.36093 0
M  V30 3378 O 325.813 -2.99768 -1.924 0
M  V30 3379 O 324.672 -4.45859 -3.16026 0
M  V30 3380 H 321.766 -0.653522 -0.506792 0
M  V30 3381 H 324.312 -1.66126 -0.346465 0
M  V30 3382 H 323.084 -3.74893 -1.12121 0
M  V30 3383 H 322.707 -2.9665 -2.64735 0
M  V30 3384 N 323.704 0.605807 -1.45491 0
M  V30 3385 C 324.634 1.72709 -1.57143 0
M  V30 3386 C 325.615 1.6476 -0.422884 0
M  V30 3387 O 326.8 1.83132 -0.646247 0
M  V30 3388 C 323.93 3.11316 -1.53948 0
M  V30 3389 C 322.884 3.34077 -2.67537 0
M  V30 3390 C 322.21 4.72975 -2.49397 0
M  V30 3391 C 323.51 3.24158 -4.09535 0
M  V30 3392 H 325.204 1.63214 -2.51001 0
M  V30 3393 H 322.75 0.78379 -1.208 0
M  V30 3394 H 324.703 3.89557 -1.60696 0
M  V30 3395 H 323.427 3.21655 -0.566205 0
M  V30 3396 H 322.086 2.58227 -2.6022 0
M  V30 3397 H 321.734 4.8005 -1.50205 0
M  V30 3398 H 321.434 4.8916 -3.25571 0
M  V30 3399 H 322.958 5.53414 -2.58002 0
M  V30 3400 H 324.372 3.92271 -4.18086 0
M  V30 3401 H 322.769 3.51872 -4.86113 0
M  V30 3402 H 323.839 2.2157 -4.31317 0
M  V30 3403 N 325.182 1.32811 0.848464 0
M  V30 3404 C 326.43 1.23479 1.59991 0
M  V30 3405 C 326.751 -0.201853 1.93952 0
M  V30 3406 O 326.021 -1.12818 1.60153 0
M  V30 3407 H 324.601 0.454034 0.593179 0
M  V30 3408 H 327.263 1.66412 1.01455 0
M  V30 3409 H 326.359 1.82178 2.53412 0
M  V30 3410 N 326.66 -1.06551 1.16123 0
M  V30 3411 C 327.608 -2.16063 0.861371 0
M  V30 3412 C 328.602 -1.6856 -0.168517 0
M  V30 3413 O 329.808 -1.79986 -0.0227579 0
M  V30 3414 H 326.183 -0.705278 0.260934 0
M  V30 3415 H 328.154 -2.38567 1.79244 0
M  V30 3416 C 326.903 -3.45661 0.376018 0
M  V30 3417 H 326.226 -3.82604 1.15992 0
M  V30 3418 H 327.666 -4.23504 0.204951 0
M  V30 3419 C 326.125 -3.24546 -0.903954 0
M  V30 3420 O 326.655 -3.49865 -1.97377 0
M  V30 3421 N 324.861 -2.77992 -0.846679 0
M  V30 3422 H 324.408 -2.57589 0.0241017 0
M  V30 3423 H 324.366 -2.64244 -1.70359 0
M  V30 3424 N 328.138 -0.959301 -1.25041 0
M  V30 3425 C 329.086 -0.474437 -2.2771 0
M  V30 3426 C 330.08 0.457697 -1.631 0
M  V30 3427 O 331.286 0.333912 -1.76876 0
M  V30 3428 H 327.661 -0.134936 -0.739795 0
M  V30 3429 H 329.632 -1.35251 -2.65988 0
M  V30 3430 C 328.381 0.227884 -3.46952 0
M  V30 3431 H 327.704 -0.480248 -3.96905 0
M  V30 3432 H 329.144 0.531091 -4.20661 0
M  V30 3433 C 327.603 1.452 -3.04004 0
M  V30 3434 O 328.133 2.54949 -3.10426 0
M  V30 3435 N 326.339 1.31502 -2.59144 0
M  V30 3436 H 325.886 0.422065 -2.54119 0
M  V30 3437 H 325.844 2.13521 -2.30773 0
M  V30 3438 N 329.616 1.39756 -0.72842 0
M  V30 3439 C 330.865 1.99879 -0.270407 0
M  V30 3440 C 331.178 1.58449 1.14688 0
M  V30 3441 O 332.384 2.11362 1.70407 0
M  V30 3442 C 330.84 3.57292 -0.43252 0
M  V30 3443 C 330.448 4.07688 -1.85727 0
M  V30 3444 C 332.192 4.24485 -0.0359507 0
M  V30 3445 C 330.099 5.5765 -1.96928 0
M  V30 3446 H 329.029 0.747689 -0.0973472 0
M  V30 3447 H 331.68 1.59837 -0.901355 0
M  V30 3448 H 330.062 3.95097 0.267219 0
M  V30 3449 H 331.236 3.81231 -2.58843 0
M  V30 3450 H 329.551 3.53135 -2.20646 0
M  V30 3451 H 332.148 5.34609 -0.0987484 0
M  V30 3452 H 332.491 4.03915 1.00787 0
M  V30 3453 H 333.024 3.9183 -0.686604 0
M  V30 3454 H 329.763 5.8309 -2.99476 0
M  V30 3455 H 329.283 5.8593 -1.28241 0
M  V30 3456 H 330.962 6.22957 -1.74737 0
M  V30 3457 N 331.094 0.475555 1.50254 0
M  V30 3458 C 332.044 -0.335025 2.25525 0
M  V30 3459 C 333.028 -0.957625 1.29299 0
M  V30 3460 O 334.22 -0.869436 1.54175 0
M  V30 3461 C 331.349 -1.41385 3.12834 0
M  V30 3462 C 330.435 -0.798762 4.1651 0
M  V30 3463 N 330.826 0.0835815 5.05731 0
M  V30 3464 C 329.124 -1.06221 4.33166 0
M  V30 3465 C 329.825 0.433113 5.80085 0
M  V30 3466 N 328.801 -0.1928 5.43258 0
M  V30 3467 H 332.603 0.344612 2.91873 0
M  V30 3468 H 330.117 0.289986 1.5979 0
M  V30 3469 H 332.114 -2.00777 3.65368 0
M  V30 3470 H 330.774 -2.09543 2.48036 0
M  V30 3471 H 331.785 0.452715 5.15918 0
M  V30 3472 H 328.462 -1.73844 3.79585 0
M  V30 3473 H 329.852 1.15346 6.61925 0
M  V30 3474 N 332.573 -1.56217 0.208337 0
M  V30 3475 C 333.505 -2.1695 -0.739276 0
M  V30 3476 C 334.518 -1.13492 -1.1672 0
M  V30 3477 O 335.707 -1.40529 -1.10063 0
M  V30 3478 C 332.807 -2.72755 -2.01142 0
M  V30 3479 C 331.98 -4.0125 -1.74118 0
M  V30 3480 C 331.039 -4.41749 -2.85909 0
M  V30 3481 O 330.065 -5.08912 -2.54946 0
M  V30 3482 N 331.267 -4.06342 -4.14568 0
M  V30 3483 H 334.032 -2.98893 -0.219837 0
M  V30 3484 H 331.593 -1.61878 0.0268445 0
M  V30 3485 H 333.585 -2.96826 -2.75094 0
M  V30 3486 H 332.155 -1.95191 -2.4417 0
M  V30 3487 H 331.375 -3.85173 -0.838775 0
M  V30 3488 H 332.663 -4.851 -1.53477 0
M  V30 3489 H 332.061 -3.52345 -4.42571 0
M  V30 3490 H 330.618 -4.35335 -4.85105 0
M  V30 3491 N 334.051 0.0651679 -1.57465 0
M  V30 3492 C 335.297 0.758912 -1.88712 0
M  V30 3493 C 335.652 1.7485 -0.802819 0
M  V30 3494 O 334.945 1.90632 0.192359 0
M  V30 3495 C 335.139 1.50081 -3.24362 0
M  V30 3496 C 334.968 0.584579 -4.45884 0
M  V30 3497 C 333.738 0.219039 -5.04825 0
M  V30 3498 C 335.936 -0.121559 -5.14156 0
M  V30 3499 N 333.918 -0.702222 -6.09871 0
M  V30 3500 C 335.289 -0.899767 -6.13436 0
M  V30 3501 C 337.344 -0.192331 -4.97528 0
M  V30 3502 C 336.047 -1.74218 -6.97883 0
M  V30 3503 C 338.073 -1.02174 -5.82507 0
M  V30 3504 C 337.435 -1.78798 -6.8133 0
M  V30 3505 H 333.534 0.25293 -0.739967 0
M  V30 3506 H 336.118 0.0201744 -1.9469 0
M  V30 3507 H 334.289 2.21023 -3.1938 0
M  V30 3508 H 336.021 2.14409 -3.43236 0
M  V30 3509 H 332.776 0.57336 -4.70117 0
M  V30 3510 H 333.2 -1.15629 -6.67052 0
M  V30 3511 H 337.842 0.385741 -4.21037 0
M  V30 3512 H 335.56 -2.3312 -7.73745 0
M  V30 3513 H 339.146 -1.07957 -5.71696 0
M  V30 3514 H 338.026 -2.41942 -7.45945 0
M  V30 3515 N 335.529 1.53961 0.336706 0
M  V30 3516 C 336.769 1.73254 1.08454 0
M  V30 3517 C 337.133 0.488937 1.8567 0
M  V30 3518 O 338.334 0.559001 2.62923 0
M  V30 3519 C 336.605 2.96519 1.99528 0
M  V30 3520 S 338.164 3.36655 2.81441 0
M  V30 3521 H 334.982 0.609353 0.366347 0
M  V30 3522 H 337.584 1.92117 0.362124 0
M  V30 3523 H 336.288 3.85193 1.41614 0
M  V30 3524 H 335.819 2.80142 2.76196 0
M  V30 3525 H 337.834 2.90925 4.01967 0
M  V30 3526 N 337.007 -0.598083 1.45811 0
M  V30 3527 C 338.255 -1.35413 1.50026 0
M  V30 3528 C 338.576 -1.94444 0.147177 0
M  V30 3529 O 337.846 -1.77701 -0.824571 0
M  V30 3530 H 336.426 -0.502727 0.552517 0
M  V30 3531 H 339.088 -0.701606 1.81834 0
M  V30 3532 H 338.184 -2.16871 2.2444 0
M  V30 3533 N 338.485 -1.33259 -0.841409 0
M  V30 3534 C 339.71 -1.2775 -1.63385 0
M  V30 3535 C 340.135 0.149188 -1.87507 0
M  V30 3536 O 339.493 1.10498 -1.43736 0
M  V30 3537 C 339.541 -2.05571 -2.96265 0
M  V30 3538 O 338.645 -1.41257 -3.87453 0
M  V30 3539 H 337.986 -0.439627 -0.497618 0
M  V30 3540 H 340.516 -1.75782 -1.04699 0
M  V30 3541 H 340.526 -2.16241 -3.45982 0
M  V30 3542 H 339.201 -3.09309 -2.7803 0
M  V30 3543 H 337.778 -1.39217 -3.45938 0
M  V30 3544 N 339.963 1.05934 -1.16686 0
M  V30 3545 C 340.911 2.15603 -0.872817 0
M  V30 3546 C 341.905 1.68647 0.159576 0
M  V30 3547 O 343.111 1.79995 0.0132125 0
M  V30 3548 H 339.486 0.703885 -0.264671 0
M  V30 3549 H 341.457 2.37613 -1.80507 0
M  V30 3550 C 340.206 3.45457 -0.394344 0
M  V30 3551 H 339.529 3.81984 -1.18019 0
M  V30 3552 H 340.969 4.2339 -0.227408 0
M  V30 3553 C 339.428 3.25021 0.88673 0
M  V30 3554 O 339.958 3.50906 1.95519 0
M  V30 3555 N 338.164 2.78437 0.831925 0
M  V30 3556 H 337.711 2.57572 -0.0377619 0
M  V30 3557 H 337.669 2.65144 1.68956 0
M  V30 3558 N 341.441 0.965919 1.2453 0
M  V30 3559 C 342.666 0.643971 1.97149 0
M  V30 3560 C 343.091 -0.779487 1.71189 0
M  V30 3561 O 342.449 -1.5288 0.974553 0
M  V30 3562 C 342.497 0.922557 3.48599 0
M  V30 3563 O 341.601 0.00707672 4.12399 0
M  V30 3564 H 340.942 0.243647 0.617683 0
M  V30 3565 H 343.472 1.29558 1.58353 0
M  V30 3566 H 343.482 0.853373 3.98976 0
M  V30 3567 H 342.157 1.95996 3.66822 0
M  V30 3568 H 340.734 0.12943 3.72675 0
M  V30 3569 N 342.919 -1.39368 0.735821 0
M  V30 3570 C 343.867 -2.32443 0.0855131 0
M  V30 3571 C 344.861 -1.53104 -0.724954 0
M  V30 3572 O 346.067 -1.68762 -0.626047 0
M  V30 3573 H 342.442 -0.751948 0.00885257 0
M  V30 3574 H 344.413 -2.84916 0.886883 0
M  V30 3575 C 343.162 -3.38206 -0.806983 0
M  V30 3576 H 342.485 -3.99335 -0.19274 0
M  V30 3577 H 343.925 -4.05779 -1.2296 0
M  V30 3578 C 342.384 -2.75321 -1.94165 0
M  V30 3579 O 342.914 -2.63231 -3.03435 0
M  V30 3580 N 341.12 -2.33396 -1.73132 0
M  V30 3581 H 340.667 -2.4343 -0.842596 0
M  V30 3582 H 340.625 -1.91661 -2.49225 0
M  V30 3583 N 344.397 -0.483516 -1.5 0
M  V30 3584 C 345.813 -0.138404 -1.58999 0
M  V30 3585 C 346.013 1.35597 -1.4905 0
M  V30 3586 O 345.069 2.13039 -1.35539 0
M  V30 3587 C 346.382 -0.699658 -2.92447 0
M  V30 3588 C 347.93 -0.664195 -3.05872 0
M  V30 3589 C 348.405 -1.20321 -4.41913 0
M  V30 3590 N 349.896 -1.16315 -4.48358 0
M  V30 3591 C 350.631 -1.55058 -5.52037 0
M  V30 3592 N 350.127 -2.01311 -6.62907 0
M  V30 3593 N 351.92 -1.46584 -5.42651 0
M  V30 3594 H 344.071 -1.45529 -1.5471 0
M  V30 3595 H 346.334 -0.60258 -0.731848 0
M  V30 3596 H 346.04 -1.747 -3.05242 0
M  V30 3597 H 345.914 -0.150194 -3.76901 0
M  V30 3598 H 348.301 0.374272 -2.92717 0
M  V30 3599 H 348.382 -1.25061 -2.23144 0
M  V30 3600 H 348.026 -2.24037 -4.55818 0
M  V30 3601 H 347.956 -0.592896 -5.23252 0
M  V30 3602 H 350.447 -0.824058 -3.68806 0
M  V30 3603 H 350.76 -2.2899 -7.38095 0
M  V30 3604 H 349.105 -2.05273 -6.63994 0
M  V30 3605 H 352.296 -1.10281 -4.54924 0
M  V30 3606 H 352.469 -1.77103 -6.23329 0
M  V30 3607 N 345.875 1.56104 -0.216619 0
M  V30 3608 C 347.105 2.02269 0.420802 0
M  V30 3609 C 347.513 1.09575 1.5424 0
M  V30 3610 O 346.856 0.0967308 1.83445 0
M  V30 3611 C 346.918 3.44784 1.01806 0
M  V30 3612 C 346.582 4.56988 0.0325154 0
M  V30 3613 C 347.579 5.14225 -0.766055 0
M  V30 3614 C 345.264 5.02228 -0.0848092 0
M  V30 3615 C 347.258 6.15169 -1.6687 0
M  V30 3616 C 344.945 6.03011 -0.990994 0
M  V30 3617 C 345.943 6.59357 -1.78149 0
M  V30 3618 O 345.631 7.58179 -2.67245 0
M  V30 3619 H 345.363 0.667353 0.107776 0
M  V30 3620 H 347.917 2.02747 -0.329034 0
M  V30 3621 H 346.147 3.41359 1.81689 0
M  V30 3622 H 347.836 3.74626 1.56237 0
M  V30 3623 H 348.602 4.80126 -0.685836 0
M  V30 3624 H 344.481 4.58054 0.520349 0
M  V30 3625 H 348.025 6.59076 -2.28615 0
M  V30 3626 H 343.922 6.36532 -1.07225 0
M  V30 3627 H 344.69 7.75682 -2.61265 0
M  V30 3628 N 347.353 -0.0568162 1.57498 0
M  V30 3629 C 348.263 -1.08346 2.08083 0
M  V30 3630 C 349.279 -1.41439 1.01346 0
M  V30 3631 O 350.455 -1.51316 1.32912 0
M  V30 3632 C 347.52 -2.37352 2.52715 0
M  V30 3633 C 346.581 -2.11093 3.73816 0
M  V30 3634 C 345.814 -3.33949 4.1631 0
M  V30 3635 O 346.037 -4.43622 3.58547 0
M  V30 3636 O 344.971 -3.21279 5.08983 0
M  V30 3637 H 348.797 -0.683667 2.95905 0
M  V30 3638 H 346.382 -0.271965 1.46904 0
M  V30 3639 H 348.264 -3.13246 2.81877 0
M  V30 3640 H 346.939 -2.76681 1.68016 0
M  V30 3641 H 345.846 -1.32856 3.49714 0
M  V30 3642 H 347.179 -1.76637 4.59413 0
M  V30 3643 N 348.832 -1.54138 -0.328536 0
M  V30 3644 C 350.248 -1.44736 -0.672574 0
M  V30 3645 C 350.448 -0.616217 -1.91846 0
M  V30 3646 O 349.504 -0.113067 -2.52247 0
M  V30 3647 C 350.817 -2.884 -0.851217 0
M  V30 3648 C 352.365 -2.98271 -0.948877 0
M  V30 3649 C 352.84 -4.43074 -1.15973 0
M  V30 3650 N 354.331 -4.46665 -1.22658 0
M  V30 3651 C 355.066 -5.55857 -1.40751 0
M  V30 3652 N 354.562 -6.75026 -1.5592 0
M  V30 3653 N 356.355 -5.43495 -1.4342 0
M  V30 3654 H 348.506 -2.06661 0.490421 0
M  V30 3655 H 350.769 -0.934812 0.157579 0
M  V30 3656 H 350.475 -3.51699 -0.00704236 0
M  V30 3657 H 350.349 -3.34225 -1.74853 0
M  V30 3658 H 352.736 -2.35102 -1.78356 0
M  V30 3659 H 352.817 -2.55785 -0.0281435 0
M  V30 3660 H 352.461 -5.06827 -0.329915 0
M  V30 3661 H 352.391 -4.83165 -2.09426 0
M  V30 3662 H 354.882 -3.60797 -1.124 0
M  V30 3663 H 355.195 -7.54004 -1.69404 0
M  V30 3664 H 353.54 -6.77944 -1.53027 0
M  V30 3665 H 356.731 -4.49349 -1.31162 0
M  V30 3666 H 356.904 -6.28649 -1.57178 0
M  V30 3667 N 350.31 0.590341 -1.46126 0
M  V30 3668 C 351.24 1.71032 -1.58966 0
M  V30 3669 C 352.221 1.64302 -0.440335 0
M  V30 3670 O 353.406 1.82436 -0.665634 0
M  V30 3671 C 350.536 3.09665 -1.57241 0
M  V30 3672 C 349.49 3.31221 -2.71066 0
M  V30 3673 C 348.816 4.70303 -2.54399 0
M  V30 3674 C 350.116 3.19796 -4.1295 0
M  V30 3675 H 351.81 1.60543 -2.52718 0
M  V30 3676 H 349.356 0.770933 -1.21625 0
M  V30 3677 H 351.309 3.87831 -1.64819 0
M  V30 3678 H 350.033 3.21036 -0.600289 0
M  V30 3679 H 348.692 2.55452 -2.62944 0
M  V30 3680 H 348.34 4.78429 -1.55288 0
M  V30 3681 H 348.04 4.85679 -3.30741 0
M  V30 3682 H 349.564 5.50647 -2.63857 0
M  V30 3683 H 350.978 3.87815 -4.22223 0
M  V30 3684 H 349.375 3.46696 -4.89818 0
M  V30 3685 H 350.445 2.16983 -4.33643 0
M  V30 3686 N 351.788 1.33704 0.83433 0
M  V30 3687 C 352.735 1.24335 1.94447 0
M  V30 3688 C 353.705 0.120991 1.65659 0
M  V30 3689 O 354.89 0.300035 1.88426 0
M  V30 3690 C 352.03 0.993124 3.30501 0
M  V30 3691 C 351.143 2.20217 3.71657 0
M  V30 3692 C 350.278 1.88572 4.96602 0
M  V30 3693 C 349.317 3.05683 5.30306 0
M  V30 3694 N 348.454 2.73997 6.46429 0
M  V30 3695 H 353.294 2.1928 2.01792 0
M  V30 3696 H 350.831 1.09035 0.987404 0
M  V30 3697 H 352.789 0.828467 4.08892 0
M  V30 3698 H 351.419 0.0803902 3.227 0
M  V30 3699 H 350.471 2.47642 2.88752 0
M  V30 3700 H 351.783 3.07752 3.92543 0
M  V30 3701 H 350.937 1.68776 5.82752 0
M  V30 3702 H 349.676 0.982799 4.77695 0
M  V30 3703 H 348.681 3.26088 4.42659 0
M  V30 3704 H 349.906 3.96737 5.51159 0
M  V30 3705 H 347.852 1.86268 6.28999 0
M  V30 3706 H 347.769 3.55064 6.67432 0
M  V30 3707 H 349.037 2.57679 7.35678 0
M  V30 3708 N 353.266 -1.05314 1.17247 0
M  V30 3709 C 354.229 -2.112 0.890357 0
M  V30 3710 C 355.229 -1.60359 -0.118943 0
M  V30 3711 O 356.419 -1.73833 0.113086 0
M  V30 3712 C 353.551 -3.39266 0.333422 0
M  V30 3713 H 354.744 -2.37659 1.82916 0
M  V30 3714 H 352.297 -1.21538 0.982758 0
M  V30 3715 H 353.032 -3.18462 -0.612587 0
M  V30 3716 H 352.817 -3.77477 1.06082 0
M  V30 3717 H 354.307 -4.17315 0.154322 0
M  V30 3718 N 354.744 -0.972509 -1.24016 0
M  V30 3719 C 355.972 -0.654803 -1.96265 0
M  V30 3720 C 356.387 0.776708 -1.72083 0
M  V30 3721 O 355.744 1.52171 -1.00748 0
M  V30 3722 C 355.795 -0.92592 -3.49441 0
M  V30 3723 O 355.516 -2.30116 -3.72798 0
M  V30 3724 C 357.017 -0.623068 -4.38899 0
M  V30 3725 H 354.237 -0.243907 -0.6251 0
M  V30 3726 H 356.781 -1.30175 -1.57717 0
M  V30 3727 H 354.936 -0.325108 -3.86033 0
M  V30 3728 H 355.35 -2.38483 -4.67147 0
M  V30 3729 H 356.824 -0.863189 -5.45209 0
M  V30 3730 H 357.301 0.442754 -4.36963 0
M  V30 3731 H 357.907 -1.204 -4.07902 0
M  V30 3732 N 356.222 1.38976 -0.743202 0
M  V30 3733 C 357.154 2.29096 -0.0689228 0
M  V30 3734 C 358.167 1.47229 0.694791 0
M  V30 3735 O 359.356 1.70212 0.537597 0
M  V30 3736 C 356.456 3.25988 0.926548 0
M  V30 3737 C 355.629 4.36833 0.222647 0
M  V30 3738 C 354.688 5.13981 1.12739 0
M  V30 3739 O 353.714 5.6601 0.601795 0
M  V30 3740 N 354.916 5.25966 2.45641 0
M  V30 3741 H 357.681 2.87604 -0.842846 0
M  V30 3742 H 355.242 1.50645 -0.593109 0
M  V30 3743 H 357.234 3.74476 1.5346 0
M  V30 3744 H 355.804 2.68453 1.60162 0
M  V30 3745 H 355.024 3.90116 -0.565983 0
M  V30 3746 H 356.312 5.0811 -0.264841 0
M  V30 3747 H 355.71 4.85228 2.9081 0
M  V30 3748 H 354.267 5.77865 3.01522 0
M  V30 3749 N 357.7 0.491464 1.49741 0
M  V30 3750 C 358.946 -0.0565092 2.02721 0
M  V30 3751 C 359.279 -1.37522 1.37118 0
M  V30 3752 O 358.554 -1.87866 0.503645 0
M  V30 3753 C 358.837 -0.219051 3.59433 0
M  V30 3754 C 358.69 1.12211 4.35579 0
M  V30 3755 C 360.009 -0.964157 4.29409 0
M  V30 3756 H 357.128 -0.0190627 0.736753 0
M  V30 3757 H 359.77 0.641021 1.7886 0
M  V30 3758 H 357.92 -0.813165 3.79895 0
M  V30 3759 H 359.592 1.75437 4.26637 0
M  V30 3760 H 357.835 1.71377 3.98513 0
M  V30 3761 H 358.506 0.961794 5.43556 0
M  V30 3762 H 360.982 -0.460378 4.13545 0
M  V30 3763 H 359.858 -1.04671 5.38828 0
M  V30 3764 H 360.119 -2.00563 3.93988 0
M  V30 3765 N 359.178 -1.55987 0.224894 0
M  V30 3766 C 360.403 -2.03232 -0.41369 0
M  V30 3767 C 360.828 -1.10359 -1.52323 0
M  V30 3768 O 360.186 -0.092395 -1.81064 0
M  V30 3769 C 360.234 -3.48682 -0.919405 0
M  V30 3770 O 359.338 -3.58947 -2.03054 0
M  V30 3771 H 358.679 -0.657428 -0.0931903 0
M  V30 3772 H 361.209 -2.01679 0.34451 0
M  V30 3773 H 361.219 -3.8907 -1.22835 0
M  V30 3774 H 359.894 -4.15761 -0.107339 0
M  V30 3775 H 358.471 -3.30448 -1.72796 0
M  V30 3776 N 360.656 0.0484629 -1.57525 0
M  V30 3777 C 361.603 1.05504 -2.05275 0
M  V30 3778 C 362.573 1.37084 -0.937927 0
M  V30 3779 O 363.758 1.47754 -1.2072 0
M  V30 3780 C 360.898 2.35676 -2.52093 0
M  V30 3781 C 360.011 2.10423 -3.77288 0
M  V30 3782 C 359.146 3.34327 -4.12794 0
M  V30 3783 C 358.185 3.04542 -5.30962 0
M  V30 3784 N 357.322 4.20841 -5.61994 0
M  V30 3785 H 362.162 0.640885 -2.91027 0
M  V30 3786 H 359.699 0.304854 -1.43906 0
M  V30 3787 H 361.657 3.11709 -2.77297 0
M  V30 3788 H 360.287 2.7485 -1.69285 0
M  V30 3789 H 359.339 1.24976 -3.59284 0
M  V30 3790 H 360.651 1.84438 -4.63448 0
M  V30 3791 H 359.805 4.1874 -4.39024 0
M  V30 3792 H 358.544 3.63408 -3.25247 0
M  V30 3793 H 357.549 2.18528 -5.04505 0
M  V30 3794 H 358.774 2.76758 -6.20146 0
M  V30 3795 H 356.72 4.4991 -4.77406 0
M  V30 3796 H 356.637 3.98212 -6.42622 0
M  V30 3797 H 357.905 5.06184 -5.92789 0
M  V30 3798 N 362.134 1.5431 0.320358 0
M  V30 3799 C 363.382 1.72327 1.05583 0
M  V30 3800 C 363.703 0.50149 1.88441 0
M  V30 3801 O 362.973 -0.48448 1.89815 0
M  V30 3802 H 361.553 0.635387 0.3928 0
M  V30 3803 H 364.215 1.91621 0.356019 0
M  V30 3804 H 363.311 2.60426 1.72003 0
M  V30 3805 N 363.613 -0.582584 1.46437 0
M  V30 3806 C 364.862 -1.337 1.5102 0
M  V30 3807 C 365.175 -1.94891 0.166359 0
M  V30 3808 O 366.381 -2.71351 0.0899954 0
M  V30 3809 C 364.837 -2.42315 2.66104 0
M  V30 3810 C 364.445 -1.87427 4.06909 0
M  V30 3811 C 366.189 -3.19099 2.79958 0
M  V30 3812 C 364.096 -2.93672 5.13333 0
M  V30 3813 H 363.026 -0.502619 0.562041 0
M  V30 3814 H 365.677 -0.621701 1.72647 0
M  V30 3815 H 364.059 -3.16645 2.37807 0
M  V30 3816 H 365.233 -1.19639 4.44998 0
M  V30 3817 H 363.548 -1.2331 3.97723 0
M  V30 3818 H 366.145 -3.9839 3.56636 0
M  V30 3819 H 366.488 -3.71695 1.87479 0
M  V30 3820 H 367.021 -2.51875 3.07902 0
M  V30 3821 H 363.76 -2.45962 6.07604 0
M  V30 3822 H 363.28 -3.59948 4.79789 0
M  V30 3823 H 364.959 -3.5762 5.39182 0
M  V30 3824 N 365.091 -1.34144 -0.827227 0
M  V30 3825 C 366.507 -1.13732 -1.11969 0
M  V30 3826 C 366.707 0.0640463 -2.01398 0
M  V30 3827 O 365.763 0.740856 -2.41387 0
M  V30 3828 C 367.076 -2.43047 -1.77055 0
M  V30 3829 C 368.624 -2.49063 -1.89569 0
M  V30 3830 C 369.099 -3.78369 -2.58072 0
M  V30 3831 N 370.59 -3.79505 -2.65575 0
M  V30 3832 C 371.325 -4.76274 -3.19297 0
M  V30 3833 N 370.821 -5.83424 -3.73616 0
M  V30 3834 N 372.614 -4.63735 -3.17658 0
M  V30 3835 H 364.765 -2.11126 -0.232296 0
M  V30 3836 H 367.028 -0.933424 -0.165602 0
M  V30 3837 H 366.734 -3.31025 -1.18807 0
M  V30 3838 H 366.608 -2.56066 -2.76966 0
M  V30 3839 H 368.995 -1.61527 -2.46968 0
M  V30 3840 H 369.076 -2.39975 -0.885745 0
M  V30 3841 H 368.72 -4.66293 -2.01329 0
M  V30 3842 H 368.65 -3.84737 -3.59562 0
M  V30 3843 H 371.141 -3.02074 -2.27068 0
M  V30 3844 H 371.454 -6.53282 -4.12846 0
M  V30 3845 H 369.799 -5.87143 -3.71871 0
M  V30 3846 H 372.99 -3.79177 -2.74486 0
M  V30 3847 H 373.163 -5.39318 -3.59221 0
M  V30 3848 N 366.569 1.04691 -1.17803 0
M  V30 3849 C 367.846 1.7472 -0.879328 0
M  V30 3850 C 368.226 2.01812 0.619271 0
M  V30 3851 O 367.574 1.65824 1.57209 0
M  V30 3852 C 367.784 3.03686 -1.71976 0
M  V30 3853 C 369.132 3.77542 -1.94286 0
M  V30 3854 O 370.156 3.13569 -1.68976 0
M  V30 3855 O 369.015 4.92506 -2.36855 0
M  V30 3856 H 366.109 0.760011 -0.326056 0
M  V30 3857 H 368.655 1.10813 -1.28525 0
M  V30 3858 H 367.427 2.79754 -2.73594 0
M  V30 3859 H 367.05 3.75332 -1.31194 0
M  V30 3860 N 368.047 0.979072 1.23499 0
M  V30 3861 C 368.995 0.510604 2.26926 0
M  V30 3862 C 369.989 -0.431691 1.63807 0
M  V30 3863 O 371.195 -0.30573 1.77385 0
M  V30 3864 H 367.57 0.146688 0.737554 0
M  V30 3865 H 369.541 1.39466 2.63803 0
M  V30 3866 C 368.29 -0.172658 3.47271 0
M  V30 3867 H 367.613 0.543331 3.96091 0
M  V30 3868 H 369.053 -0.464101 4.21452 0
M  V30 3869 C 367.512 -1.40345 3.06276 0
M  V30 3870 O 368.042 -2.49978 3.14442 0
M  V30 3871 N 366.248 -1.27362 2.61203 0
M  V30 3872 H 365.795 -0.381584 2.54758 0
M  V30 3873 H 365.753 -2.09822 2.34141 0
M  V30 3874 N 369.525 -1.3858 0.750561 0
M  V30 3875 C 370.435 -2.34278 0.122825 0
M  V30 3876 C 371.451 -1.59116 -0.704131 0
M  V30 3877 O 372.627 -1.91326 -0.628987 0
M  V30 3878 C 369.692 -3.38221 -0.762086 0
M  V30 3879 C 368.753 -4.29227 0.078896 0
M  V30 3880 C 367.986 -5.28205 -0.763874 0
M  V30 3881 O 368.209 -5.34112 -2.00201 0
M  V30 3882 O 367.143 -6.01618 -0.18428 0
M  V30 3883 H 370.969 -2.89649 0.913088 0
M  V30 3884 H 368.554 -1.40374 0.511417 0
M  V30 3885 H 370.436 -4.01872 -1.26793 0
M  V30 3886 H 369.111 -2.85211 -1.5309 0
M  V30 3887 H 368.018 -3.68747 0.630621 0
M  V30 3888 H 369.351 -4.85484 0.810289 0
M  V30 3889 N 371.003 -0.499398 -1.49478 0
M  V30 3890 C 372.419 -0.155261 -1.58843 0
M  V30 3891 C 372.619 1.34008 -1.50479 0
M  V30 3892 O 371.675 2.11589 -1.37791 0
M  V30 3893 C 372.988 -0.730636 -2.91689 0
M  V30 3894 C 374.536 -0.696599 -3.0515 0
M  V30 3895 C 375.011 -1.25001 -4.40612 0
M  V30 3896 N 376.502 -1.21064 -4.47099 0
M  V30 3897 C 377.237 -1.60905 -5.50361 0
M  V30 3898 N 376.733 -2.08331 -6.60735 0
M  V30 3899 N 378.526 -1.52331 -5.41065 0
M  V30 3900 H 370.677 -1.47162 -1.53158 0
M  V30 3901 H 372.94 -0.610309 -0.725415 0
M  V30 3902 H 372.646 -1.77928 -3.03372 0
M  V30 3903 H 372.52 -0.190161 -3.7672 0
M  V30 3904 H 374.907 0.343204 -2.93097 0
M  V30 3905 H 374.988 -1.2742 -2.21806 0
M  V30 3906 H 374.632 -2.28859 -4.53416 0
M  V30 3907 H 374.562 -0.64836 -5.22593 0
M  V30 3908 H 377.053 -0.863128 -3.67911 0
M  V30 3909 H 377.366 -2.36805 -7.35624 0
M  V30 3910 H 375.711 -2.12304 -6.6178 0
M  V30 3911 H 378.902 -1.151 -4.53729 0
M  V30 3912 H 379.075 -1.83704 -6.21415 0
M  V30 3913 N 372.481 1.55866 -0.233164 0
M  V30 3914 C 373.706 2.03449 0.402906 0
M  V30 3915 C 374.131 1.11166 1.51736 0
M  V30 3916 O 373.489 0.101996 1.81013 0
M  V30 3917 C 373.537 3.49165 0.9009 0
M  V30 3918 O 372.641 3.60019 2.01147 0
M  V30 3919 H 371.982 0.657913 0.0897025 0
M  V30 3920 H 374.512 2.01493 -0.355201 0
M  V30 3921 H 374.522 3.89716 1.2077 0
M  V30 3922 H 373.197 4.15813 0.0852889 0
M  V30 3923 H 371.774 3.3136 1.71042 0
M  V30 3924 N 373.959 -0.0401083 1.57549 0
M  V30 3925 C 375.207 -0.731677 1.8839 0
M  V30 3926 C 375.528 -1.76481 0.829425 0
M  V30 3927 O 374.798 -1.95411 -0.1383 0
M  V30 3928 H 373.378 -0.273225 0.695239 0
M  V30 3929 H 376.04 -0.00867725 1.94898 0
M  V30 3930 H 375.136 -1.22816 2.86919 0
M  V30 3931 N 375.437 -1.54477 -0.31217 0
M  V30 3932 C 376.853 -1.45442 -0.657185 0
M  V30 3933 C 377.053 -0.63653 -1.91182 0
M  V30 3934 O 376.109 -0.139815 -2.52113 0
M  V30 3935 C 377.422 -2.89287 -0.82058 0
M  V30 3936 C 378.97 -2.9926 -0.917188 0
M  V30 3937 C 379.445 -4.44279 -1.11267 0
M  V30 3938 N 380.936 -4.4794 -1.17914 0
M  V30 3939 C 381.671 -5.57318 -1.34848 0
M  V30 3940 N 381.167 -6.76642 -1.48752 0
M  V30 3941 N 382.96 -5.44986 -1.37647 0
M  V30 3942 H 375.111 -2.06129 0.512313 0
M  V30 3943 H 377.374 -0.933088 0.167485 0
M  V30 3944 H 377.08 -3.51687 0.0302604 0
M  V30 3945 H 376.954 -3.36061 -1.71298 0
M  V30 3946 H 379.341 -2.36981 -1.75852 0
M  V30 3947 H 379.422 -2.558 -0.00101257 0
M  V30 3948 H 379.066 -5.07149 -0.27614 0
M  V30 3949 H 378.996 -4.85359 -2.04289 0
M  V30 3950 H 381.487 -3.61969 -1.08567 0
M  V30 3951 H 381.8 -7.55758 -1.61397 0
M  V30 3952 H 380.145 -6.79529 -1.45828 0
M  V30 3953 H 383.336 -4.50715 -1.26388 0
M  V30 3954 H 383.509 -6.3028 -1.50501 0
M  V30 3955 N 376.915 0.57481 -1.46744 0
M  V30 3956 C 377.878 1.66533 -1.57478 0
M  V30 3957 C 378.878 1.54338 -0.451263 0
M  V30 3958 O 380.068 1.58814 -0.715813 0
M  V30 3959 C 377.2 3.05999 -1.50259 0
M  V30 3960 H 378.393 1.58372 -2.54673 0
M  V30 3961 H 375.946 0.793301 -1.34672 0
M  V30 3962 H 376.681 3.19709 -0.543725 0
M  V30 3963 H 376.466 3.16259 -2.31781 0
M  V30 3964 H 377.956 3.8537 -1.60872 0
M  V30 3965 N 378.394 1.34581 0.820102 0
M  V30 3966 C 379.81 1.14325 1.11364 0
M  V30 3967 C 380.01 -0.0533648 2.01429 0
M  V30 3968 O 379.066 -0.728044 2.41776 0
M  V30 3969 C 380.379 2.43983 1.75764 0
M  V30 3970 C 381.927 2.50065 1.88246 0
M  V30 3971 C 382.402 3.79732 2.56061 0
M  V30 3972 N 383.893 3.80908 2.63558 0
M  V30 3973 C 384.628 4.77961 3.16766 0
M  V30 3974 N 384.124 5.85397 3.70517 0
M  V30 3975 N 385.917 4.65413 3.15194 0
M  V30 3976 H 378.068 2.11246 0.221096 0
M  V30 3977 H 380.331 0.934289 0.160649 0
M  V30 3978 H 380.037 3.31651 1.1705 0
M  V30 3979 H 379.911 2.57531 2.75604 0
M  V30 3980 H 382.298 1.62834 2.46108 0
M  V30 3981 H 382.379 2.40442 0.873006 0
M  V30 3982 H 382.023 4.67354 1.98853 0
M  V30 3983 H 381.953 3.86639 3.57516 0
M  V30 3984 H 384.444 3.03274 2.25463 0
M  V30 3985 H 384.757 6.55463 4.09376 0
M  V30 3986 H 383.102 5.89107 3.68752 0
M  V30 3987 H 386.293 3.80627 2.72471 0
M  V30 3988 H 386.466 5.41216 3.56356 0
M  V30 3989 N 379.872 -1.04064 1.18357 0
M  V30 3990 C 381.118 -1.77528 0.980397 0
M  V30 3991 C 381.451 -1.87948 -0.48879 0
M  V30 3992 O 380.726 -1.3876 -1.36293 0
M  V30 3993 C 381.009 -3.20797 1.63588 0
M  V30 3994 C 380.862 -3.1832 3.17793 0
M  V30 3995 C 382.181 -4.18911 1.34914 0
M  V30 3996 H 379.3 -0.644443 0.357578 0
M  V30 3997 H 381.942 -1.2156 1.46024 0
M  V30 3998 H 380.092 -3.68586 1.22788 0
M  V30 3999 H 381.764 -2.78521 3.67728 0
M  V30 4000 H 380.007 -2.56351 3.49952 0
M  V30 4001 H 380.678 -4.19489 3.58794 0
M  V30 4002 H 383.154 -3.7967 1.70265 0
M  V30 4003 H 382.03 -5.17374 1.83346 0
M  V30 4004 H 382.291 -4.41262 0.272027 0
M  V30 4005 N 381.35 -0.985608 -1.22978 0
M  V30 4006 C 382.3 -0.50118 -2.22423 0
M  V30 4007 C 383.284 0.426649 -1.5514 0
M  V30 4008 O 384.476 0.254656 -1.75159 0
M  V30 4009 C 381.605 0.190003 -3.42774 0
M  V30 4010 C 380.691 -0.757703 -4.17276 0
M  V30 4011 N 381.082 -1.90251 -4.68656 0
M  V30 4012 C 379.38 -0.57209 -4.42316 0
M  V30 4013 C 380.081 -2.49676 -5.25392 0
M  V30 4014 N 379.057 -1.78013 -5.13627 0
M  V30 4015 H 382.859 -1.37441 -2.59783 0
M  V30 4016 H 380.373 -0.846941 -1.38567 0
M  V30 4017 H 382.37 0.55439 -4.13197 0
M  V30 4018 H 381.03 1.05946 -3.06929 0
M  V30 4019 H 382.041 -2.28354 -4.64839 0
M  V30 4020 H 378.718 0.251909 -4.16739 0
M  V30 4021 H 380.108 -3.46384 -5.75732 0
M  V30 4022 N 382.828 1.3818 -0.7579 0
M  V30 4023 C 384.074 2.00316 -0.316453 0
M  V30 4024 C 384.407 1.60026 1.10025 0
M  V30 4025 O 383.682 0.839835 1.75434 0
M  V30 4026 C 383.965 3.57349 -0.444245 0
M  V30 4027 C 383.818 4.07591 -1.90236 0
M  V30 4028 C 385.137 4.3981 0.1598 0
M  V30 4029 H 382.256 0.727741 -0.116459 0
M  V30 4030 H 384.898 1.6406 -0.958352 0
M  V30 4031 H 383.048 3.88365 0.102233 0
M  V30 4032 H 384.72 3.87199 -2.50748 0
M  V30 4033 H 382.963 3.60297 -2.41595 0
M  V30 4034 H 383.634 5.16677 -1.94291 0
M  V30 4035 H 386.11 4.14971 -0.306314 0
M  V30 4036 H 384.986 5.48885 0.0401675 0
M  V30 4037 H 385.247 4.24102 1.24859 0
M  V30 4038 N 384.306 0.507319 1.49211 0
M  V30 4039 C 385.531 -0.033725 2.07373 0
M  V30 4040 C 385.956 -1.29485 1.36437 0
M  V30 4041 O 385.314 -1.76294 0.423087 0
M  V30 4042 C 385.362 -0.263945 3.59633 0
M  V30 4043 O 384.466 -1.33737 3.90113 0
M  V30 4044 H 383.807 0.0290331 0.663365 0
M  V30 4045 H 386.337 0.708749 1.91932 0
M  V30 4046 H 386.347 -0.493536 4.05004 0
M  V30 4047 H 385.022 0.657424 4.10671 0
M  V30 4048 H 383.599 -1.09224 3.56545 0
M  V30 4049 N 385.784 -1.5574 0.241426 0
M  V30 4050 C 386.694 -2.2479 -0.671305 0
M  V30 4051 C 387.71 -1.26217 -1.19772 0
M  V30 4052 O 388.886 -1.59079 -1.23514 0
M  V30 4053 C 385.951 -2.92966 -1.85396 0
M  V30 4054 C 385.012 -4.06935 -1.36756 0
M  V30 4055 C 384.245 -4.71851 -2.49384 0
M  V30 4056 O 384.468 -4.35823 -3.67987 0
M  V30 4057 O 383.402 -5.60467 -2.19454 0
M  V30 4058 H 387.228 -3.0349 -0.112966 0
M  V30 4059 H 384.813 -1.49397 0.0101513 0
M  V30 4060 H 386.695 -3.35927 -2.54423 0
M  V30 4061 H 385.37 -2.17211 -2.40002 0
M  V30 4062 H 384.277 -3.68503 -0.644726 0
M  V30 4063 H 385.61 -4.84492 -0.867647 0
M  V30 4064 N 387.262 0.0317525 -1.57568 0
M  V30 4065 C 388.172 1.05021 -2.0978 0
M  V30 4066 C 389.188 1.39809 -1.03583 0
M  V30 4067 O 390.364 1.49182 -1.35302 0
M  V30 4068 C 387.429 2.33301 -2.56459 0
M  V30 4069 C 386.49 2.0512 -3.77127 0
M  V30 4070 C 385.723 3.27283 -4.2157 0
M  V30 4071 O 385.946 4.37861 -3.65559 0
M  V30 4072 O 384.88 3.13141 -5.14029 0
M  V30 4073 H 388.706 0.636505 -2.96955 0
M  V30 4074 H 386.291 0.248559 -1.47318 0
M  V30 4075 H 388.173 3.08722 -2.86825 0
M  V30 4076 H 386.848 2.73973 -1.72397 0
M  V30 4077 H 385.755 1.27276 -3.51784 0
M  V30 4078 H 387.088 1.69305 -4.62165 0
M  V30 4079 N 388.74 1.54641 0.303973 0
M  V30 4080 C 389.988 1.73437 1.0375 0
M  V30 4081 C 390.309 0.521449 1.87899 0
M  V30 4082 O 389.579 -0.46432 1.90318 0
M  V30 4083 H 388.159 0.639518 0.386039 0
M  V30 4084 H 390.821 1.91988 0.335675 0
M  V30 4085 H 389.917 2.62235 1.69231 0
M  V30 4086 N 390.218 -0.567019 1.47046 0
M  V30 4087 C 391.446 -1.35027 1.56765 0
M  V30 4088 C 391.861 -1.8758 0.214316 0
M  V30 4089 O 391.218 -1.64471 -0.790919 0
M  V30 4090 C 391.269 -2.52698 2.58507 0
M  V30 4091 O 390.99 -2.0232 3.88585 0
M  V30 4092 C 392.491 -3.45043 2.78316 0
M  V30 4093 H 389.711 -0.41195 0.529658 0
M  V30 4094 H 392.255 -0.687832 1.92585 0
M  V30 4095 H 390.41 -3.149 2.25648 0
M  V30 4096 H 390.824 -2.79068 4.44096 0
M  V30 4097 H 392.298 -4.2405 3.53391 0
M  V30 4098 H 392.775 -3.97971 1.85784 0
M  V30 4099 H 393.381 -2.88665 3.12334 0
M  V30 4100 N 391.696 -1.35014 -0.812953 0
M  V30 4101 C 392.606 -1.2951 -1.95613 0
M  V30 4102 C 393.622 -0.20107 -1.72834 0
M  V30 4103 O 394.798 -0.42932 -1.96771 0
M  V30 4104 C 391.863 -1.06033 -3.30088 0
M  V30 4105 C 390.924 -2.24688 -3.65805 0
M  V30 4106 C 390.157 -2.02322 -4.93864 0
M  V30 4107 O 390.38 -0.986464 -5.61805 0
M  V30 4108 O 389.314 -2.89525 -5.27692 0
M  V30 4109 H 393.14 -2.25705 -2.03202 0
M  V30 4110 H 390.725 -1.15321 -0.949811 0
M  V30 4111 H 392.607 -0.94763 -4.10607 0
M  V30 4112 H 391.282 -0.128852 -3.23443 0
M  V30 4113 H 390.189 -2.41521 -2.85689 0
M  V30 4114 H 391.522 -3.16261 -3.77147 0
M  V30 4115 N 393.175 1.03435 -1.18907 0
M  V30 4116 C 394.586 1.58195 -0.991523 0
M  V30 4117 C 394.937 1.90801 0.457081 0
M  V30 4118 O 394.062 1.70272 1.33553 0
M  V30 4119 C 394.657 2.87432 -1.79355 0
M  V30 4120 C 393.216 3.38785 -1.64017 0
M  V30 4121 C 392.363 2.12292 -1.78402 0
M  V30 4122 H 395.314 0.860299 -1.33359 0
M  V30 4123 H 395.335 3.58096 -1.28638 0
M  V30 4124 H 394.847 2.63669 -2.84781 0
M  V30 4125 H 392.948 3.67547 -0.611536 0
M  V30 4126 H 393.061 4.12186 -2.44212 0
M  V30 4127 H 391.425 2.23901 -1.2141 0
M  V30 4128 H 392.208 1.90977 -2.85277 0
M  V30 4129 N 394.653 0.992116 1.22453 0
M  V30 4130 C 395.563 0.55065 2.28046 0
M  V30 4131 C 396.579 -0.400189 1.69335 0
M  V30 4132 O 397.755 -0.267215 1.99619 0
M  V30 4133 C 394.82 -0.128496 3.46462 0
M  V30 4134 C 393.881 0.865208 4.20491 0
M  V30 4135 C 393.114 0.218377 5.33253 0
M  V30 4136 O 393.337 -0.987894 5.6178 0
M  V30 4137 O 392.271 0.922845 5.94783 0
M  V30 4138 H 396.097 1.4291 2.67975 0
M  V30 4139 H 393.682 0.760326 1.28606 0
M  V30 4140 H 395.564 -0.508947 4.18315 0
M  V30 4141 H 394.239 -0.981526 3.0846 0
M  V30 4142 H 393.146 1.29658 3.50913 0
M  V30 4143 H 394.479 1.68741 4.62371 0
M  V30 4144 N 396.131 -1.37776 0.765217 0
M  V30 4145 C 397.094 -2.28686 0.153416 0
M  V30 4146 C 398.094 -1.47727 -0.635081 0
M  V30 4147 O 399.284 -1.68027 -0.459632 0
M  V30 4148 C 396.416 -3.31608 -0.790495 0
M  V30 4149 H 397.609 -2.84297 0.954723 0
M  V30 4150 H 395.162 -1.46932 0.53299 0
M  V30 4151 H 395.897 -2.81109 -1.61705 0
M  V30 4152 H 395.682 -3.9144 -0.227348 0
M  V30 4153 H 397.172 -3.99559 -1.21419 0
M  V30 4154 N 397.609 -0.515225 -1.4894 0
M  V30 4155 C 398.542 0.302518 -2.26186 0
M  V30 4156 C 399.52 0.957895 -1.31389 0
M  V30 4157 O 400.704 0.985198 -1.60705 0
M  V30 4158 C 397.831 1.42719 -3.07163 0
M  V30 4159 C 396.877 0.884736 -4.17223 0
M  V30 4160 S 397.71 -0.235767 -5.34981 0
M  V30 4161 C 398.866 0.891731 -6.19515 0
M  V30 4162 H 399.099 -0.353076 -2.95196 0
M  V30 4163 H 396.632 -0.300753 -1.51443 0
M  V30 4164 H 398.59 2.07152 -3.54398 0
M  V30 4165 H 397.251 2.05445 -2.37595 0
M  V30 4166 H 396.444 1.72801 -4.73451 0
M  V30 4167 H 396.046 0.317362 -3.72651 0
M  V30 4168 H 398.338 1.79377 -6.53322 0
M  V30 4169 H 399.281 0.367751 -7.07144 0
M  V30 4170 H 399.689 1.16548 -5.52338 0
M  V30 4171 N 399.087 1.5561 -0.249682 0
M  V30 4172 C 400.017 2.24477 0.642826 0
M  V30 4173 C 400.998 1.22601 1.17911 0
M  V30 4174 O 402.183 1.5126 1.21795 0
M  V30 4175 C 399.313 2.94638 1.83863 0
M  V30 4176 C 398.267 4.03227 1.435 0
M  V30 4177 C 397.593 4.60828 2.71186 0
M  V30 4178 C 398.893 5.18796 0.604002 0
M  V30 4179 H 400.587 2.99321 0.0685625 0
M  V30 4180 H 398.133 1.43965 0.0315363 0
M  V30 4181 H 400.086 3.41517 2.46868 0
M  V30 4182 H 398.81 2.17287 2.43832 0
M  V30 4183 H 397.469 3.57121 0.828275 0
M  V30 4184 H 397.117 3.80174 3.29358 0
M  V30 4185 H 396.817 5.34132 2.44901 0
M  V30 4186 H 398.341 5.10442 3.35084 0
M  V30 4187 H 399.755 5.61883 1.13842 0
M  V30 4188 H 398.152 5.98506 0.437097 0
M  V30 4189 H 399.222 4.83384 -0.383147 0
M  V30 4190 N 400.565 -0.0233959 1.57583 0
M  V30 4191 C 401.497 -1.04994 2.03737 0
M  V30 4192 C 402.51 -1.32125 0.951152 0
M  V30 4193 O 403.699 -1.29512 1.22837 0
M  V30 4194 C 400.799 -2.39026 2.40249 0
M  V30 4195 C 399.972 -2.31171 3.7132 0
M  V30 4196 C 399.031 -3.47698 3.94959 0
M  V30 4197 O 398.057 -3.26937 4.65941 0
M  V30 4198 N 399.259 -4.6976 3.41037 0
M  V30 4199 H 402.024 -0.656507 2.92421 0
M  V30 4200 H 399.585 -0.211235 1.60516 0
M  V30 4201 H 401.577 -3.15712 2.53196 0
M  V30 4202 H 400.147 -2.70194 1.57207 0
M  V30 4203 H 399.367 -1.39547 3.68674 0
M  V30 4204 H 400.655 -2.23071 4.57293 0
M  V30 4205 H 400.053 -4.89528 2.83512 0
M  V30 4206 H 398.61 -5.43791 3.59353 0
M  V30 4207 N 402.043 -1.548 -0.295768 0
M  V30 4208 C 403.289 -1.74588 -1.03184 0
M  V30 4209 C 403.622 -0.532962 -1.86744 0
M  V30 4210 O 402.897 0.469872 -1.88739 0
M  V30 4211 C 403.18 -3.03791 -1.93347 0
M  V30 4212 C 403.033 -4.35392 -1.12933 0
M  V30 4213 C 404.352 -3.28892 -2.92435 0
M  V30 4214 H 401.471 -0.635221 -0.373715 0
M  V30 4215 H 404.113 -1.87519 -0.30606 0
M  V30 4216 H 402.263 -2.92898 -2.55232 0
M  V30 4217 H 403.935 -4.58211 -0.532943 0
M  V30 4218 H 402.178 -4.31642 -0.432168 0
M  V30 4219 H 402.849 -5.22074 -1.79284 0
M  V30 4220 H 405.325 -3.39429 -2.4068 0
M  V30 4221 H 404.201 -4.20603 -3.52682 0
M  V30 4222 H 404.462 -2.47437 -3.6637 0
M  V30 4223 N 403.521 0.559213 -1.47345 0
M  V30 4224 C 404.451 1.67622 -1.62558 0
M  V30 4225 C 405.432 1.63331 -0.475087 0
M  V30 4226 O 406.617 1.80983 -0.704182 0
M  V30 4227 C 403.747 3.0626 -1.63774 0
M  V30 4228 C 402.701 3.25397 -2.7803 0
M  V30 4229 C 402.027 4.64801 -2.64318 0
M  V30 4230 C 403.327 3.10965 -4.19641 0
M  V30 4231 H 405.021 1.55146 -2.56067 0
M  V30 4232 H 402.567 0.744961 -1.23233 0
M  V30 4233 H 404.52 3.84247 -1.73008 0
M  V30 4234 H 403.244 3.1969 -0.66825 0
M  V30 4235 H 401.903 2.49817 -2.68304 0
M  V30 4236 H 401.551 4.75028 -1.65401 0
M  V30 4237 H 401.251 4.78555 -3.40968 0
M  V30 4238 H 402.775 5.44926 -2.75478 0
M  V30 4239 H 404.189 3.78772 -4.30354 0
M  V30 4240 H 402.586 3.36229 -4.97062 0
M  V30 4241 H 403.656 2.07736 -4.38148 0
M  V30 4242 N 404.999 1.35443 0.805782 0
M  V30 4243 C 406.247 1.28507 1.55982 0
M  V30 4244 C 406.568 -0.140046 1.94496 0
M  V30 4245 O 405.838 -1.07666 1.63661 0
M  V30 4246 H 404.418 0.472676 0.578434 0
M  V30 4247 H 407.08 1.69555 0.961098 0
M  V30 4248 H 406.176 1.90148 2.47488 0
M  V30 4249 N 406.477 -1.02803 1.19454 0
M  V30 4250 C 407.888 -1.57667 0.999899 0
M  V30 4251 C 408.239 -1.91041 -0.446956 0
M  V30 4252 O 407.364 -1.70978 -1.32648 0
M  V30 4253 C 407.959 -2.86477 1.80877 0
M  V30 4254 C 406.518 -3.37911 1.65811 0
M  V30 4255 C 405.665 -2.11343 1.79526 0
M  V30 4256 H 408.616 -0.853214 1.33813 0
M  V30 4257 H 408.637 -3.57408 1.30536 0
M  V30 4258 H 408.149 -2.62155 2.86175 0
M  V30 4259 H 406.25 -3.67218 0.63102 0
M  V30 4260 H 406.363 -4.10885 2.46395 0
M  V30 4261 H 404.727 -2.23254 1.22596 0
M  V30 4262 H 405.51 -1.89461 2.86285 0
M  V30 4263 N 407.956 -0.998596 -1.21925 0
M  V30 4264 C 408.903 -0.553621 -2.24062 0
M  V30 4265 C 409.873 0.416999 -1.6078 0
M  V30 4266 O 411.058 0.320482 -1.88089 0
M  V30 4267 C 408.198 0.119959 -3.44891 0
M  V30 4268 C 407.311 -0.893077 -4.22668 0
M  V30 4269 C 406.446 -0.192424 -5.30851 0
M  V30 4270 C 405.485 -1.19344 -6.00353 0
M  V30 4271 N 404.622 -0.520707 -7.00166 0
M  V30 4272 H 409.462 -1.4293 -2.61486 0
M  V30 4273 H 406.999 -0.715838 -1.28507 0
M  V30 4274 H 408.957 0.527459 -4.13852 0
M  V30 4275 H 407.587 0.959389 -3.08214 0
M  V30 4276 H 406.639 -1.41886 -3.52948 0
M  V30 4277 H 407.951 -1.65512 -4.70539 0
M  V30 4278 H 407.105 0.271515 -6.06092 0
M  V30 4279 H 405.844 0.602075 -4.83969 0
M  V30 4280 H 404.849 -1.66795 -5.23889 0
M  V30 4281 H 406.074 -1.98891 -6.49322 0
M  V30 4282 H 404.02 0.254252 -6.55507 0
M  V30 4283 H 403.937 -1.2211 -7.46073 0
M  V30 4284 H 405.205 -0.0797596 -7.79459 0
M  V30 4285 N 409.434 1.37368 -0.772513 0
M  V30 4286 C 410.845 1.8231 -0.402493 0
M  V30 4287 C 411.196 1.6436 1.07146 0
M  V30 4288 O 410.321 1.15514 1.82991 0
M  V30 4289 C 410.916 3.30979 -0.723776 0
M  V30 4290 C 409.475 3.74195 -0.406802 0
M  V30 4291 C 408.622 2.59885 -0.967218 0
M  V30 4292 H 411.573 1.25829 -0.967099 0
M  V30 4293 H 411.594 3.80499 -0.00870832 0
M  V30 4294 H 411.106 3.44011 -1.7966 0
M  V30 4295 H 409.207 3.66732 0.658673 0
M  V30 4296 H 409.32 4.7027 -0.915588 0
M  V30 4297 H 407.684 2.51674 -0.391416 0
M  V30 4298 H 408.467 2.7571 -2.04546 0
M  V30 4299 N 410.912 0.523116 1.48665 0
M  V30 4300 C 411.875 -0.232592 2.28017 0
M  V30 4301 C 412.875 -0.874021 1.34972 0
M  V30 4302 O 414.065 -0.735132 1.57929 0
M  V30 4303 C 411.197 -1.33586 3.13636 0
M  V30 4304 H 412.39 0.464008 2.96289 0
M  V30 4305 H 409.943 0.278816 1.53793 0
M  V30 4306 H 410.678 -2.06593 2.4998 0
M  V30 4307 H 410.463 -0.881125 3.82071 0
M  V30 4308 H 411.953 -1.86759 3.73511 0
M  V30 4309 N 412.39 -1.55475 0.257931 0
M  V30 4310 C 413.32 -2.24815 -0.630912 0
M  V30 4311 C 414.301 -1.23224 -1.17259 0
M  V30 4312 O 415.486 -1.51904 -1.20991 0
M  V30 4313 C 412.616 -2.95609 -1.82298 0
M  V30 4314 C 411.57 -4.03982 -1.41359 0
M  V30 4315 C 410.896 -4.6226 -2.68738 0
M  V30 4316 C 412.196 -5.19109 -0.57648 0
M  V30 4317 H 413.89 -2.99354 -0.0526878 0
M  V30 4318 H 411.436 -1.4398 -0.023901 0
M  V30 4319 H 413.389 -3.42822 -2.45054 0
M  V30 4320 H 412.113 -2.18577 -2.42676 0
M  V30 4321 H 410.772 -3.57555 -0.809324 0
M  V30 4322 H 410.42 -3.81915 -3.27338 0
M  V30 4323 H 410.12 -5.35424 -2.42065 0
M  V30 4324 H 411.644 -5.12212 -3.32372 0
M  V30 4325 H 413.058 -5.62479 -1.10861 0
M  V30 4326 H 411.455 -5.98729 -0.405351 0
M  V30 4327 H 412.525 -4.83174 0.408776 0
M  V30 4328 N 413.868 0.0150385 -1.57593 0
M  V30 4329 C 415.279 0.559832 -1.78109 0
M  V30 4330 C 415.63 1.74814 -0.890756 0
M  V30 4331 O 414.755 2.16216 -0.0892482 0
M  V30 4332 C 415.35 1.02238 -3.23006 0
M  V30 4333 C 413.909 1.51258 -3.44671 0
M  V30 4334 C 413.056 0.456955 -2.73509 0
M  V30 4335 H 416.007 -0.211169 -1.57289 0
M  V30 4336 H 416.028 1.88912 -3.30292 0
M  V30 4337 H 415.54 0.157302 -3.87781 0
M  V30 4338 H 413.641 2.39905 -2.8509 0
M  V30 4339 H 413.754 1.55042 -4.5332 0
M  V30 4340 H 412.118 0.915196 -2.37689 0
M  V30 4341 H 412.901 -0.398896 -3.40975 0
M  V30 4342 N 415.346 1.54954 0.287554 0
M  V30 4343 C 416.309 1.86076 1.33823 0
M  V30 4344 C 417.309 0.734414 1.43049 0
M  V30 4345 O 418.499 1.00266 1.42452 0
M  V30 4346 C 415.631 2.05305 2.72144 0
M  V30 4347 H 416.824 2.79984 1.07465 0
M  V30 4348 H 414.377 1.47223 0.524902 0
M  V30 4349 H 415.112 1.1373 3.03704 0
M  V30 4350 H 414.897 2.873 2.66836 0
M  V30 4351 H 416.387 2.30706 3.48087 0
M  V30 4352 N 416.824 -0.551391 1.4764 0
M  V30 4353 C 418.072 -1.30572 1.54258 0
M  V30 4354 C 418.393 -1.93877 0.208963 0
M  V30 4355 O 417.663 -1.80234 -0.767619 0
M  V30 4356 H 416.243 -0.484894 0.568231 0
M  V30 4357 H 418.905 -0.643402 1.83974 0
M  V30 4358 H 418.001 -2.09621 2.31226 0
M  V30 4359 N 418.302 -1.35869 -0.798587 0
M  V30 4360 C 419.53 -1.32722 -1.58722 0
M  V30 4361 C 419.945 0.0935631 -1.88568 0
M  V30 4362 O 419.302 1.04784 -1.49421 0
M  V30 4363 C 419.353 -2.13974 -2.91371 0
M  V30 4364 O 419.074 -3.50514 -2.62815 0
M  V30 4365 C 420.575 -2.18504 -3.85708 0
M  V30 4366 H 417.795 -0.45562 -0.492596 0
M  V30 4367 H 420.339 -1.78837 -0.991843 0
M  V30 4368 H 418.494 -1.71438 -3.47402 0
M  V30 4369 H 418.908 -3.92806 -3.47568 0
M  V30 4370 H 420.382 -2.79732 -4.75872 0
M  V30 4371 H 420.859 -1.18597 -4.22885 0
M  V30 4372 H 421.465 -2.61236 -3.35612 0
M  V30 4373 N 419.78 1.02168 -1.19998 0
M  V30 4374 C 420.69 2.14069 -0.959774 0
M  V30 4375 C 421.706 1.73804 0.082655 0
M  V30 4376 O 422.882 2.01133 -0.103633 0
M  V30 4377 C 419.947 3.42936 -0.509459 0
M  V30 4378 C 419.008 3.97474 -1.62213 0
M  V30 4379 C 418.241 5.2019 -1.19321 0
M  V30 4380 O 418.464 5.70369 -0.0597726 0
M  V30 4381 O 417.398 5.67749 -1.99863 0
M  V30 4382 H 421.224 2.37199 -1.89658 0
M  V30 4383 H 418.809 1.12469 -0.983411 0
M  V30 4384 H 420.691 4.20551 -0.267322 0
M  V30 4385 H 419.366 3.21234 0.398821 0
M  V30 4386 H 418.273 3.21161 -1.9185 0
M  V30 4387 H 419.606 4.23555 -2.50723 0
M  V30 4388 N 421.258 1.00505 1.21394 0
M  V30 4389 C 422.535 0.603277 1.86064 0
M  V30 4390 C 422.915 -0.919095 1.90042 0
M  V30 4391 O 422.263 -1.80607 1.39977 0
M  V30 4392 C 422.473 1.23772 3.26315 0
M  V30 4393 C 423.821 1.34586 4.02705 0
M  V30 4394 O 424.845 1.19304 3.35626 0
M  V30 4395 O 423.704 1.59169 5.22807 0
M  V30 4396 H 420.798 0.206634 0.800769 0
M  V30 4397 H 423.344 1.1017 1.29076 0
M  V30 4398 H 422.116 2.27848 3.18121 0
M  V30 4399 H 421.739 0.725648 3.90922 0
M  V30 4400 N 422.737 -1.36956 0.779787 0
M  V30 4401 C 423.965 -2.03755 0.359398 0
M  V30 4402 C 424.38 -1.58807 -1.02106 0
M  V30 4403 O 423.737 -0.773024 -1.6532 0
M  V30 4404 C 423.788 -3.59251 0.402568 0
M  V30 4405 O 423.509 -4.02557 1.72858 0
M  V30 4406 C 425.01 -4.43291 -0.0284068 0
M  V30 4407 H 422.23 -0.654148 0.149437 0
M  V30 4408 H 424.774 -1.75128 1.05595 0
M  V30 4409 H 422.929 -3.86621 -0.245478 0
M  V30 4410 H 423.343 -4.97111 1.67275 0
M  V30 4411 H 424.817 -5.51975 0.0529466 0
M  V30 4412 H 425.294 -4.25719 -1.07982 0
M  V30 4413 H 425.9 -4.21163 0.591758 0
M  V30 4414 N 424.215 -0.530993 -1.48385 0
M  V30 4415 C 425.178 0.220497 -2.28137 0
M  V30 4416 C 426.178 0.866851 -1.35434 0
M  V30 4417 O 427.368 0.726746 -1.58316 0
M  V30 4418 C 424.5 1.31921 -3.1434 0
M  V30 4419 H 425.693 -0.479714 -2.96038 0
M  V30 4420 H 423.246 -0.286968 -1.53643 0
M  V30 4421 H 423.981 2.05264 -2.51072 0
M  V30 4422 H 423.766 0.86085 -3.82533 0
M  V30 4423 H 425.256 1.84776 -3.74497 0
M  V30 4424 N 425.693 1.55336 -0.266172 0
M  V30 4425 C 426.64 2.22172 0.625165 0
M  V30 4426 C 427.61 1.19211 1.15663 0
M  V30 4427 O 428.795 1.47723 1.20758 0
M  V30 4428 C 425.935 2.93972 1.8076 0
M  V30 4429 C 425.048 4.11632 1.31084 0
M  V30 4430 C 424.183 4.71099 2.45436 0
M  V30 4431 C 423.222 5.8097 1.92718 0
M  V30 4432 N 422.359 6.34538 3.00509 0
M  V30 4433 H 427.199 2.9796 0.0485582 0
M  V30 4434 H 424.736 1.47095 0.0122024 0
M  V30 4435 H 426.694 3.33811 2.50251 0
M  V30 4436 H 425.324 2.20623 2.35638 0
M  V30 4437 H 424.376 3.76975 0.509326 0
M  V30 4438 H 425.688 4.90893 0.884633 0
M  V30 4439 H 424.842 5.13612 3.22936 0
M  V30 4440 H 423.581 3.91096 2.91368 0
M  V30 4441 H 422.586 5.37916 1.13695 0
M  V30 4442 H 423.811 6.62836 1.47733 0
M  V30 4443 H 421.757 5.57433 3.45839 0
M  V30 4444 H 421.674 7.09046 2.62279 0
M  V30 4445 H 422.942 6.81709 3.78011 0
M  V30 4446 N 427.171 -0.0066808 1.57599 0
M  V30 4447 C 428.081 -1.01671 2.11424 0
M  V30 4448 C 429.097 -1.38143 1.05795 0
M  V30 4449 O 430.273 -1.47011 1.37658 0
M  V30 4450 C 427.338 -2.29192 2.60139 0
M  V30 4451 C 426.399 -1.99094 3.80342 0
M  V30 4452 C 425.632 -3.20535 4.26724 0
M  V30 4453 O 425.855 -4.3199 3.72479 0
M  V30 4454 O 424.789 -3.04924 5.18946 0
M  V30 4455 H 428.615 -0.589181 2.9793 0
M  V30 4456 H 426.2 -0.225091 1.47695 0
M  V30 4457 H 428.082 -3.0412 2.917 0
M  V30 4458 H 426.757 -2.71195 1.76733 0
M  V30 4459 H 425.664 -1.21663 3.53764 0
M  V30 4460 H 426.997 -1.61931 4.648 0
M  V30 4461 N 428.649 -1.55105 -0.279332 0
M  V30 4462 C 429.926 -1.66119 -1.03267 0
M  V30 4463 C 430.306 -0.523525 -2.04505 0
M  V30 4464 O 429.654 0.477194 -2.23462 0
M  V30 4465 C 429.864 -3.05067 -1.69515 0
M  V30 4466 C 431.212 -3.62606 -2.20912 0
M  V30 4467 O 432.236 -3.07659 -1.79512 0
M  V30 4468 O 431.095 -4.58861 -2.96831 0
M  V30 4469 H 428.189 -0.674429 -0.478618 0
M  V30 4470 H 430.735 -1.67446 -0.275694 0
M  V30 4471 H 429.507 -3.79311 -0.9612 0
M  V30 4472 H 429.13 -3.07611 -2.51915 0
M  V30 4473 N 430.127 0.543554 -1.4793 0
M  V30 4474 C 431.09 1.63156 -1.60975 0
M  V30 4475 C 432.09 1.53346 -0.483899 0
M  V30 4476 O 433.28 1.5726 -0.749339 0
M  V30 4477 C 430.412 3.02743 -1.56716 0
M  V30 4478 H 431.605 1.52934 -2.57975 0
M  V30 4479 H 429.158 0.764557 -1.36324 0
M  V30 4480 H 429.893 3.18484 -0.611418 0
M  V30 4481 H 429.678 3.11272 -2.38438 0
M  V30 4482 H 431.168 3.81871 -1.6901 0
M  V30 4483 N 431.605 1.3629 0.791371 0
M  V30 4484 C 432.568 1.30309 1.88553 0
M  V30 4485 C 433.568 0.211204 1.59407 0
M  V30 4486 O 434.758 0.465865 1.67855 0
M  V30 4487 C 431.89 1.01956 3.25297 0
M  V30 4488 H 433.083 2.27614 1.95273 0
M  V30 4489 H 430.636 1.21035 0.988953 0
M  V30 4490 H 431.371 0.050998 3.2426 0
M  V30 4491 H 431.156 1.80968 3.4784 0
M  V30 4492 H 432.646 1.0037 4.05359 0
M  V30 4493 N 433.083 -1.0153 1.20538 0
M  V30 4494 C 434.031 -2.12215 0.952235 0
M  V30 4495 C 435.025 -1.69123 -0.0968735 0
M  V30 4496 O 436.231 -1.7992 0.0536006 0
M  V30 4497 H 432.606 -0.693576 0.290613 0
M  V30 4498 H 434.577 -2.3075 1.89201 0
M  V30 4499 C 433.326 -3.43755 0.522287 0
M  V30 4500 H 432.649 -3.7734 1.32115 0
M  V30 4501 H 434.089 -4.22254 0.384389 0
M  V30 4502 C 432.548 -3.28088 -0.765489 0
M  V30 4503 O 433.078 -3.57921 -1.8236 0
M  V30 4504 N 431.284 -2.81333 -0.728011 0
M  V30 4505 H 430.831 -2.57255 0.133332 0
M  V30 4506 H 430.789 -2.71232 -1.58999 0
M  V30 4507 N 434.561 -1.01147 -1.20859 0
M  V30 4508 C 435.977 -0.725422 -1.42161 0
M  V30 4509 C 436.177 0.696919 -1.89064 0
M  V30 4510 O 435.233 1.46539 -2.05627 0
M  V30 4511 C 436.546 -1.74678 -2.44761 0
M  V30 4512 C 438.094 -1.76433 -2.58535 0
M  V30 4513 C 438.569 -2.77481 -3.64374 0
M  V30 4514 N 440.06 -2.76189 -3.71852 0
M  V30 4515 C 440.795 -3.51035 -4.53389 0
M  V30 4516 N 440.291 -4.35541 -5.38773 0
M  V30 4517 N 442.084 -3.39655 -4.47873 0
M  V30 4518 H 434.235 -1.92979 -0.887282 0
M  V30 4519 H 436.498 -0.833327 -0.451962 0
M  V30 4520 H 436.204 -2.76551 -2.17285 0
M  V30 4521 H 436.078 -1.55472 -3.43669 0
M  V30 4522 H 438.465 -0.75248 -2.85345 0
M  V30 4523 H 438.546 -1.99712 -1.5984 0
M  V30 4524 H 438.19 -3.78827 -3.38308 0
M  V30 4525 H 438.12 -2.51466 -4.6268 0
M  V30 4526 H 440.611 -2.14885 -3.10858 0
M  V30 4527 H 440.924 -4.89432 -5.98061 0
M  V30 4528 H 439.269 -4.39621 -5.38292 0
M  V30 4529 H 442.46 -2.73063 -3.80203 0
M  V30 4530 H 442.633 -3.9824 -5.11184 0
M  V30 4531 N 436.039 1.36541 -0.78704 0
M  V30 4532 C 436.986 2.30082 -0.181901 0
M  V30 4533 C 437.956 1.5186 0.672896 0
M  V30 4534 O 439.141 1.80374 0.622072 0
M  V30 4535 C 436.281 3.3835 0.679197 0
M  V30 4536 C 435.394 4.31565 -0.193882 0
M  V30 4537 C 434.529 5.26915 0.673364 0
M  V30 4538 C 433.568 6.11769 -0.201315 0
M  V30 4539 N 432.705 6.99315 0.624777 0
M  V30 4540 H 437.545 2.81248 -0.985064 0
M  V30 4541 H 435.082 1.38437 -0.497342 0
M  V30 4542 H 437.04 3.99767 1.19341 0
M  V30 4543 H 435.67 2.8851 1.44781 0
M  V30 4544 H 434.722 3.71323 -0.826044 0
M  V30 4545 H 436.034 4.91191 -0.867937 0
M  V30 4546 H 435.188 5.9361 1.25348 0
M  V30 4547 H 433.927 4.67737 1.38105 0
M  V30 4548 H 432.932 5.44039 -0.793849 0
M  V30 4549 H 434.157 6.73022 -0.906568 0
M  V30 4550 H 432.103 6.42648 1.3168 0
M  V30 4551 H 432.02 7.56 0.00835237 0
M  V30 4552 H 433.288 7.70382 1.18879 0
M  V30 4553 N 437.518 0.538854 1.48102 0
M  V30 4554 C 438.448 -0.207654 2.32575 0
M  V30 4555 C 439.429 -0.926559 1.4265 0
M  V30 4556 O 440.614 -0.91061 1.71527 0
M  V30 4557 C 437.744 -1.24957 3.24042 0
M  V30 4558 C 436.698 -0.648263 4.23062 0
M  V30 4559 C 436.024 -1.79348 5.03725 0
M  V30 4560 C 437.324 0.385897 5.20872 0
M  V30 4561 H 439.018 0.497534 2.95237 0
M  V30 4562 H 436.564 0.240715 1.41974 0
M  V30 4563 H 438.517 -1.77983 3.81969 0
M  V30 4564 H 437.241 -1.98446 2.59397 0
M  V30 4565 H 435.9 -0.139452 3.66335 0
M  V30 4566 H 435.548 -2.51696 4.35498 0
M  V30 4567 H 435.248 -1.39702 5.70751 0
M  V30 4568 H 436.772 -2.32735 5.64506 0
M  V30 4569 H 438.186 -0.057607 5.73271 0
M  V30 4570 H 436.583 0.700227 5.96001 0
M  V30 4571 H 437.653 1.28848 4.67468 0
M  V30 4572 N 438.996 -1.55193 0.274407 0
M  V30 4573 C 439.959 -2.212 -0.600279 0
M  V30 4574 C 440.959 -1.18963 -1.08187 0
M  V30 4575 O 442.149 -1.43873 -0.982158 0
M  V30 4576 C 439.281 -2.87739 -1.82809 0
M  V30 4577 H 440.474 -2.9989 -0.0239682 0
M  V30 4578 H 438.027 -1.5628 0.0250192 0
M  V30 4579 H 438.762 -2.13058 -2.44493 0
M  V30 4580 H 438.547 -3.62658 -1.49069 0
M  V30 4581 H 440.037 -3.38171 -2.45011 0
M  V30 4582 N 440.474 -0.00167713 -1.576 0
M  V30 4583 C 441.421 0.989195 -2.08527 0
M  V30 4584 C 442.391 1.34031 -0.981065 0
M  V30 4585 O 443.576 1.43839 -1.2536 0
M  V30 4586 C 440.716 2.27537 -2.59463 0
M  V30 4587 C 439.829 1.98314 -3.83791 0
M  V30 4588 C 438.964 3.21025 -4.23222 0
M  V30 4589 C 438.003 2.87495 -5.40382 0
M  V30 4590 N 437.14 4.02749 -5.75098 0
M  V30 4591 H 441.98 0.547973 -2.92919 0
M  V30 4592 H 439.517 0.258917 -1.44803 0
M  V30 4593 H 441.475 3.02729 -2.87073 0
M  V30 4594 H 440.105 2.69325 -1.77943 0
M  V30 4595 H 439.157 1.13482 -3.63078 0
M  V30 4596 H 440.469 1.69601 -4.69081 0
M  V30 4597 H 439.623 4.04561 -4.52123 0
M  V30 4598 H 438.362 3.52877 -3.36644 0
M  V30 4599 H 437.367 2.02367 -5.11202 0
M  V30 4600 H 438.592 2.56889 -6.28637 0
M  V30 4601 H 436.538 4.34494 -4.91478 0
M  V30 4602 H 436.455 3.77566 -6.54966 0
M  V30 4603 H 437.723 4.87068 -6.08592 0
M  V30 4604 N 441.952 1.55251 0.271103 0
M  V30 4605 C 442.882 1.9127 1.33933 0
M  V30 4606 C 443.863 0.77478 1.5143 0
M  V30 4607 O 445.048 1.03307 1.64442 0
M  V30 4608 C 442.178 2.18627 2.69851 0
M  V30 4609 C 441.132 3.34442 2.67081 0
M  V30 4610 C 440.458 3.47284 4.06569 0
M  V30 4611 C 441.758 4.70784 2.26185 0
M  V30 4612 H 443.452 2.80744 1.04035 0
M  V30 4613 H 440.998 1.35077 0.499017 0
M  V30 4614 H 442.951 2.42413 3.44694 0
M  V30 4615 H 441.675 1.25955 3.01335 0
M  V30 4616 H 440.334 3.10627 1.94695 0
M  V30 4617 H 439.982 2.52074 4.35279 0
M  V30 4618 H 439.682 4.25152 4.0561 0
M  V30 4619 H 441.206 3.73363 4.83148 0
M  V30 4620 H 442.62 4.94102 2.90751 0
M  V30 4621 H 441.017 5.51582 2.36384 0
M  V30 4622 H 442.087 4.69478 1.21319 0
M  V30 4623 N 443.43 -0.535701 1.48216 0
M  V30 4624 C 444.66 -1.3148 1.59363 0
M  V30 4625 C 445.068 -1.8753 0.250844 0
M  V30 4626 O 444.411 -1.66821 -0.769174 0
M  V30 4627 C 444.473 -2.50731 2.57632 0
M  V30 4628 C 444.137 -2.15811 4.02833 0
M  V30 4629 C 445.134 -1.71822 4.90686 0
M  V30 4630 C 442.819 -2.26509 4.48329 0
M  V30 4631 C 444.813 -1.3899 6.22062 0
M  V30 4632 C 442.5 -1.93289 5.79726 0
M  V30 4633 C 443.498 -1.49599 6.66415 0
M  V30 4634 O 443.186 -1.16812 7.95368 0
M  V30 4635 H 442.918 -0.406315 0.540263 0
M  V30 4636 H 445.472 -0.653569 1.94725 0
M  V30 4637 H 443.702 -3.19817 2.1738 0
M  V30 4638 H 445.391 -3.12797 2.58675 0
M  V30 4639 H 446.157 -1.63031 4.56778 0
M  V30 4640 H 442.036 -2.59471 3.81045 0
M  V30 4641 H 445.58 -1.04816 6.89681 0
M  V30 4642 H 441.477 -2.01718 6.13172 0
M  V30 4643 H 442.245 -1.30259 8.08069 0
M  V30 4644 N 444.908 -1.36708 -0.784132 0
M  V30 4645 C 445.855 -1.31466 -1.89698 0
M  V30 4646 C 446.825 -0.18239 -1.65096 0
M  V30 4647 O 448.01 -0.369762 -1.87183 0
M  V30 4648 C 445.15 -1.1151 -3.26588 0
M  V30 4649 C 444.263 -2.33859 -3.63227 0
M  V30 4650 C 443.398 -2.06873 -4.89262 0
M  V30 4651 C 442.437 -3.25154 -5.18595 0
M  V30 4652 N 441.574 -2.978 -6.35814 0
M  V30 4653 H 446.414 -2.26619 -1.93515 0
M  V30 4654 H 443.951 -1.12625 -0.946256 0
M  V30 4655 H 445.909 -0.979653 -4.05535 0
M  V30 4656 H 444.539 -0.200103 -3.22179 0
M  V30 4657 H 443.591 -2.58188 -2.79362 0
M  V30 4658 H 444.903 -3.22109 -3.8085 0
M  V30 4659 H 444.057 -1.90289 -5.76086 0
M  V30 4660 H 442.796 -1.15942 -4.73718 0
M  V30 4661 H 441.801 -3.42292 -4.30251 0
M  V30 4662 H 443.026 -4.1692 -5.36055 0
M  V30 4663 H 440.972 -2.09485 -6.21653 0
M  V30 4664 H 440.889 -3.7959 -6.53794 0
M  V30 4665 H 442.157 -2.84805 -7.25607 0
M  V30 4666 N 446.386 1.0089 -1.21074 0
M  V30 4667 C 447.632 1.74866 -1.02712 0
M  V30 4668 C 447.965 1.89178 0.438787 0
M  V30 4669 O 447.24 1.42325 1.32567 0
M  V30 4670 C 447.523 3.16347 -1.72036 0
M  V30 4671 C 447.376 3.09782 -3.26121 0
M  V30 4672 C 448.695 4.15187 -1.45973 0
M  V30 4673 H 445.814 0.634736 -0.374539 0
M  V30 4674 H 448.456 1.17646 -1.49196 0
M  V30 4675 H 446.606 3.65201 -1.32517 0
M  V30 4676 H 448.278 2.68673 -3.74983 0
M  V30 4677 H 446.521 2.46982 -3.56626 0
M  V30 4678 H 447.192 4.09829 -3.6979 0
M  V30 4679 H 449.668 3.75022 -1.80272 0
M  V30 4680 H 448.544 5.12331 -1.96999 0
M  V30 4681 H 448.805 4.40386 -0.388924 0
M  V30 4682 N 447.864 1.01787 1.20321 0
M  V30 4683 C 449.089 0.727009 1.9424 0
M  V30 4684 C 449.514 -0.706179 1.74341 0
M  V30 4685 O 448.872 -1.48609 1.03852 0
M  V30 4686 C 448.92 1.06958 3.44372 0
M  V30 4687 O 448.024 0.181983 4.11998 0
M  V30 4688 H 447.365 0.269626 0.606793 0
M  V30 4689 H 449.895 1.36158 1.52716 0
M  V30 4690 H 449.905 1.02182 3.94997 0
M  V30 4691 H 448.58 2.11378 3.58179 0
M  V30 4692 H 447.157 0.287378 3.71791 0
M  V30 4693 N 449.342 -1.36122 0.79427 0
M  V30 4694 C 450.29 -2.31871 0.184023 0
M  V30 4695 C 451.284 -1.56041 -0.659365 0
M  V30 4696 O 452.49 -1.71266 -0.553906 0
M  V30 4697 H 448.865 -0.750896 0.0407373 0
M  V30 4698 H 450.836 -2.80898 1.00693 0
M  V30 4699 C 449.585 -3.41324 -0.662813 0
M  V30 4700 H 448.908 -3.99793 -0.0231944 0
M  V30 4701 H 450.348 -4.10629 -1.05639 0
M  V30 4702 C 448.807 -2.83308 -1.82313 0
M  V30 4703 O 449.337 -2.75863 -2.91997 0
M  V30 4704 N 447.543 -2.40529 -1.63077 0
M  V30 4705 H 447.09 -2.46785 -0.738591 0
M  V30 4706 H 447.048 -2.02059 -2.40872 0
M  V30 4707 N 450.82 -0.546701 -1.47814 0
M  V30 4708 C 452.068 -0.0187037 -2.02091 0
M  V30 4709 C 452.389 1.33168 -1.42447 0
M  V30 4710 O 451.659 1.86619 -0.595839 0
M  V30 4711 H 450.239 -0.00392531 -0.74699 0
M  V30 4712 H 452.901 -0.714327 -1.81338 0
M  V30 4713 H 451.997 0.0772219 -3.12004 0
M  V30 4714 N 452.299 1.55045 -0.282633 0
M  V30 4715 C 453.262 2.21515 0.588539 0
M  V30 4716 C 454.262 1.19535 1.07554 0
M  V30 4717 O 455.452 1.44391 0.974514 0
M  V30 4718 C 452.584 2.88704 1.8128 0
M  V30 4719 H 453.777 2.99899 0.00806397 0
M  V30 4720 H 451.33 1.56265 -0.0333067 0
M  V30 4721 H 452.065 2.14352 2.43359 0
M  V30 4722 H 451.85 3.63443 1.47144 0
M  V30 4723 H 453.34 3.39465 2.43214 0
M  V30 4724 N 453.777 0.010035 1.57597 0
M  V30 4725 C 455.025 -0.671371 1.90623 0
M  V30 4726 C 455.346 -1.73753 0.885151 0
M  V30 4727 O 454.616 -1.95752 -0.0760611 0
M  V30 4728 H 453.196 -0.250968 0.703579 0
M  V30 4729 H 455.858 0.0533325 1.94827 0
M  V30 4730 H 454.954 -1.13626 2.90681 0
M  V30 4731 N 455.255 -1.55392 -0.262866 0
M  V30 4732 C 456.483 -1.80513 -1.01108 0
M  V30 4733 C 456.898 -0.583533 -1.79556 0
M  V30 4734 O 456.255 0.447585 -1.76926 0
M  V30 4735 C 456.306 -3.03648 -1.96164 0
M  V30 4736 O 456.027 -4.2109 -1.20893 0
M  V30 4737 C 457.528 -3.41448 -2.82715 0
M  V30 4738 H 454.748 -0.601079 -0.298236 0
M  V30 4739 H 457.292 -2.02425 -0.290582 0
M  V30 4740 H 455.447 -2.83832 -2.63663 0
M  V30 4741 H 455.861 -4.90771 -1.85051 0
M  V30 4742 H 457.335 -4.30751 -3.45192 0
M  V30 4743 H 457.812 -2.61308 -3.53008 0
M  V30 4744 H 458.418 -3.63559 -2.20693 0
M  V30 4745 N 456.733 0.527833 -1.48498 0
M  V30 4746 C 457.666 1.64892 -1.57753 0
M  V30 4747 C 458.644 1.5687 -0.427867 0
M  V30 4748 O 459.828 1.77311 -0.639764 0
M  V30 4749 C 456.955 3.03301 -1.50752 0
M  V30 4750 C 456.001 3.29675 -2.70586 0
M  V30 4751 S 456.834 3.15712 -4.32535 0
M  V30 4752 C 457.99 4.56564 -4.28136 0
M  V30 4753 H 458.223 1.56792 -2.52594 0
M  V30 4754 H 455.756 0.710959 -1.37057 0
M  V30 4755 H 457.714 3.83123 -1.474 0
M  V30 4756 H 456.375 3.08839 -0.572454 0
M  V30 4757 H 455.568 4.3065 -2.61833 0
M  V30 4758 H 455.17 2.57526 -2.71212 0
M  V30 4759 H 457.462 5.48126 -3.98201 0
M  V30 4760 H 458.405 4.70371 -5.29298 0
M  V30 4761 H 458.813 4.35987 -3.58574 0
M  V30 4762 N 458.211 1.37122 0.776871 0
M  V30 4763 C 459.436 1.354 1.57104 0
M  V30 4764 C 459.861 -0.0595562 1.88006 0
M  V30 4765 O 459.219 -1.03514 1.48844 0
M  V30 4766 C 459.267 2.19472 2.8612 0
M  V30 4767 O 458.371 1.59582 3.80273 0
M  V30 4768 H 457.712 0.462869 0.476076 0
M  V30 4769 H 460.242 1.80577 0.961932 0
M  V30 4770 H 460.252 2.32502 3.35271 0
M  V30 4771 H 458.927 3.22222 2.62956 0
M  V30 4772 H 457.504 1.55564 3.38902 0
M  V30 4773 N 459.689 -1.00246 1.21608 0
M  V30 4774 C 460.935 -1.74319 1.03638 0
M  V30 4775 C 461.268 -1.89408 -0.428749 0
M  V30 4776 O 460.543 -1.43026 -1.3181 0
M  V30 4777 C 460.826 -3.15431 1.73711 0
M  V30 4778 C 460.679 -3.08049 3.27759 0
M  V30 4779 C 461.998 -4.14407 1.48173 0
M  V30 4780 H 459.117 -0.632741 0.377899 0
M  V30 4781 H 461.759 -1.16853 1.49818 0
M  V30 4782 H 459.909 -3.64493 1.34452 0
M  V30 4783 H 461.581 -2.66681 3.76403 0
M  V30 4784 H 459.824 -2.45088 3.57931 0
M  V30 4785 H 460.495 -4.07862 3.71958 0
M  V30 4786 H 462.971 -3.74061 1.82258 0
M  V30 4787 H 461.847 -5.11279 1.99713 0
M  V30 4788 H 462.108 -4.40174 0.412273 0
M  V30 4789 N 461.167 -1.02423 -1.1978 0
M  V30 4790 C 462.392 -0.7373 -1.93852 0
M  V30 4791 C 462.817 0.696923 -1.74713 0
M  V30 4792 O 462.175 1.48056 -1.04638 0
M  V30 4793 C 462.223 -1.08783 -3.438 0
M  V30 4794 O 461.327 -0.20383 -4.11896 0
M  V30 4795 H 460.668 -0.27284 -0.605355 0
M  V30 4796 H 463.198 -1.36966 -1.51992 0
M  V30 4797 H 463.208 -1.04276 -3.9445 0
M  V30 4798 H 461.883 -2.13274 -3.57053 0
M  V30 4799 H 460.46 -0.307091 -3.71633 0
M  V30 4800 N 462.645 1.35699 -0.801477 0
M  V30 4801 C 463.575 2.32436 -0.222658 0
M  V30 4802 C 464.556 1.5723 0.649057 0
M  V30 4803 O 465.741 1.85324 0.580387 0
M  V30 4804 C 462.871 3.41469 0.633719 0
M  V30 4805 C 461.825 4.27774 -0.139083 0
M  V30 4806 C 461.151 5.28082 0.838666 0
M  V30 4807 C 462.451 5.04946 -1.33517 0
M  V30 4808 H 464.145 2.81094 -1.03086 0
M  V30 4809 H 461.691 1.35146 -0.497155 0
M  V30 4810 H 463.644 4.08143 1.04868 0
M  V30 4811 H 462.368 2.91408 1.47475 0
M  V30 4812 H 461.027 3.62673 -0.535156 0
M  V30 4813 H 460.675 4.7429 1.67506 0
M  V30 4814 H 460.375 5.86695 0.32594 0
M  V30 4815 H 461.899 5.97628 1.25194 0
M  V30 4816 H 463.313 5.64593 -0.995349 0
M  V30 4817 H 461.71 5.7303 -1.78202 0
M  V30 4818 H 462.78 4.35886 -2.12442 0
M  V30 4819 N 464.123 0.554532 1.47522 0
M  V30 4820 C 465.369 0.0295227 2.02779 0
M  V30 4821 C 465.702 -1.31582 1.42828 0
M  V30 4822 O 464.977 -1.85561 0.582872 0
M  V30 4823 C 465.26 -0.0664057 3.60039 0
M  V30 4824 C 465.113 1.30585 4.30427 0
M  V30 4825 C 466.432 -0.781162 4.33112 0
M  V30 4826 H 463.551 0.0122027 0.736899 0
M  V30 4827 H 466.193 0.716305 1.7598 0
M  V30 4828 H 464.343 -0.651307 3.83002 0
M  V30 4829 H 466.015 1.93374 4.18813 0
M  V30 4830 H 464.258 1.88125 3.90886 0
M  V30 4831 H 464.929 1.19147 5.38988 0
M  V30 4832 H 467.405 -0.284565 4.15126 0
M  V30 4833 H 466.281 -0.817237 5.42782 0
M  V30 4834 H 466.542 -1.83672 4.0214 0
M  V30 4835 N 465.601 -1.54893 0.290851 0
M  V30 4836 C 466.564 -2.21824 -0.576784 0
M  V30 4837 C 467.564 -1.20104 -1.06919 0
M  V30 4838 O 468.754 -1.44906 -0.966843 0
M  V30 4839 C 465.886 -2.89662 -1.79747 0
M  V30 4840 H 467.079 -2.99899 0.00784051 0
M  V30 4841 H 464.632 -1.56245 0.0415934 0
M  V30 4842 H 465.367 -2.15639 -2.42219 0
M  V30 4843 H 465.152 -3.64219 -1.45214 0
M  V30 4844 H 466.642 -3.4075 -2.4141 0
M  V30 4845 N 467.08 -0.0183926 -1.57589 0
M  V30 4846 C 468.357 0.700621 -1.82622 0
M  V30 4847 C 468.737 1.90951 -0.90005 0
M  V30 4848 O 468.085 2.28452 0.0469145 0
M  V30 4849 C 468.295 1.08899 -3.31575 0
M  V30 4850 C 469.643 1.48514 -3.9778 0
M  V30 4851 O 470.667 1.18227 -3.36007 0
M  V30 4852 O 469.526 2.04903 -5.06633 0
M  V30 4853 H 466.62 0.342743 -0.752633 0
M  V30 4854 H 469.166 -0.0452548 -1.6964 0
M  V30 4855 H 467.938 0.228113 -3.90635 0
M  V30 4856 H 467.561 1.89338 -3.49624 0
M  V30 4857 N 468.558 1.5553 0.254621 0
M  V30 4858 C 469.468 1.92789 1.33677 0
M  V30 4859 C 470.484 0.827356 1.53071 0
M  V30 4860 O 471.66 1.12807 1.66843 0
M  V30 4861 C 468.725 2.20827 2.67275 0
M  V30 4862 C 467.786 3.4427 2.5647 0
M  V30 4863 C 467.019 3.70961 3.83697 0
M  V30 4864 O 467.242 2.99852 4.85227 0
M  V30 4865 O 466.176 4.64491 3.82794 0
M  V30 4866 H 470.002 2.84945 1.05071 0
M  V30 4867 H 467.587 1.42312 0.454723 0
M  V30 4868 H 469.469 2.40204 3.46237 0
M  V30 4869 H 468.144 1.31851 2.9563 0
M  V30 4870 H 467.051 3.30209 1.75821 0
M  V30 4871 H 468.384 4.33524 2.33062 0
M  V30 4872 N 470.036 -0.519951 1.48776 0
M  V30 4873 C 470.984 -1.64443 1.64503 0
M  V30 4874 C 471.978 -1.61501 0.511248 0
M  V30 4875 O 473.184 -1.66238 0.690294 0
M  V30 4876 H 469.559 -0.544776 0.518385 0
M  V30 4877 H 471.53 -1.48325 2.58925 0
M  V30 4878 C 470.279 -3.02673 1.71127 0
M  V30 4879 H 469.602 -3.05635 2.57735 0
M  V30 4880 H 471.042 -3.80941 1.86172 0
M  V30 4881 C 469.501 -3.33854 0.452032 0
M  V30 4882 O 470.031 -3.99385 -0.430678 0
M  V30 4883 N 468.237 -2.88825 0.32069 0
M  V30 4884 H 467.784 -2.35674 1.03998 0
M  V30 4885 H 467.742 -3.10056 -0.520814 0
M  V30 4886 N 471.514 -1.37532 -0.769588 0
M  V30 4887 C 472.925 -1.29382 -1.346 0
M  V30 4888 C 473.276 0.0576039 -1.96115 0
M  V30 4889 O 472.401 0.95947 -1.93967 0
M  V30 4890 C 472.996 -2.34298 -2.44724 0
M  V30 4891 C 471.555 -2.29776 -2.98128 0
M  V30 4892 C 470.702 -2.18013 -1.71364 0
M  V30 4893 H 473.653 -1.48123 -0.56968 0
M  V30 4894 H 473.674 -1.99089 -3.24259 0
M  V30 4895 H 473.186 -3.32645 -1.99922 0
M  V30 4896 H 471.287 -1.34959 -3.47299 0
M  V30 4897 H 471.4 -3.23276 -3.53595 0
M  V30 4898 H 469.764 -1.64595 -1.94372 0
M  V30 4899 H 470.547 -3.18278 -1.28662 0
M  V30 4900 N 472.992 0.995999 -1.22138 0
M  V30 4901 C 474.239 1.7351 -1.04406 0
M  V30 4902 C 474.567 1.89884 0.421244 0
M  V30 4903 O 473.822 1.43683 1.32867 0
M  V30 4904 C 474.121 3.14553 -1.6968 0
M  V30 4905 C 473.787 3.18102 -3.19565 0
M  V30 4906 C 472.449 3.18778 -3.60464 0
M  V30 4907 C 474.801 3.14636 -4.15516 0
M  V30 4908 C 472.129 3.13684 -4.95801 0
M  V30 4909 C 474.481 3.11084 -5.50826 0
M  V30 4910 C 473.145 3.10074 -5.91109 0
M  V30 4911 H 472.415 0.634916 -0.38205 0
M  V30 4912 H 475.062 1.1667 -1.51857 0
M  V30 4913 H 473.367 3.74682 -1.14546 0
M  V30 4914 H 475.064 3.70477 -1.53454 0
M  V30 4915 H 471.654 3.18324 -2.86998 0
M  V30 4916 H 475.838 3.13266 -3.84939 0
M  V30 4917 H 471.094 3.11245 -5.26247 0
M  V30 4918 H 475.268 3.07357 -6.24904 0
M  V30 4919 H 472.895 3.05882 -6.95946 0
M  V30 4920 N 474.47 1.03057 1.19235 0
M  V30 4921 C 475.433 0.617418 2.20727 0
M  V30 4922 C 476.433 -0.319856 1.57587 0
M  V30 4923 O 477.623 -0.106633 1.73873 0
M  V30 4924 C 474.755 -0.096296 3.40764 0
M  V30 4925 H 475.948 1.51544 2.58794 0
M  V30 4926 H 473.501 0.821949 1.32942 0
M  V30 4927 H 474.236 -1.00859 3.08217 0
M  V30 4928 H 474.021 0.577217 3.87828 0
M  V30 4929 H 475.511 -0.372219 4.15938 0
M  V30 4930 N 475.948 -1.35272 0.808662 0
M  V30 4931 C 476.88 -2.28507 0.178149 0
M  V30 4932 C 477.893 -1.50377 -0.623754 0
M  V30 4933 O 479.082 -1.72583 -0.455774 0
M  V30 4934 C 476.182 -3.30038 -0.769959 0
M  V30 4935 C 475.355 -4.37398 -0.0139749 0
M  V30 4936 C 474.414 -5.18775 -0.880875 0
M  V30 4937 O 473.44 -5.68236 -0.331059 0
M  V30 4938 N 474.642 -5.37087 -2.20267 0
M  V30 4939 H 477.407 -2.83255 0.979106 0
M  V30 4940 H 474.968 -1.47643 0.664308 0
M  V30 4941 H 476.96 -3.81371 -1.35418 0
M  V30 4942 H 475.53 -2.75789 -1.47171 0
M  V30 4943 H 474.75 -3.86971 0.751468 0
M  V30 4944 H 476.038 -5.06268 0.506965 0
M  V30 4945 H 475.436 -4.9855 -2.67328 0
M  V30 4946 H 473.993 -5.91593 -2.73608 0
M  V30 4947 N 477.426 -0.562348 -1.47226 0
M  V30 4948 C 478.674 -0.0401371 -2.0206 0
M  V30 4949 C 478.995 1.3165 -1.43852 0
M  V30 4950 O 478.265 1.85976 -0.615599 0
M  V30 4951 H 476.845 -0.0118479 -0.746906 0
M  V30 4952 H 479.507 -0.73352 -1.8057 0
M  V30 4953 H 478.603 0.0441254 -3.12069 0
M  V30 4954 N 478.904 1.54736 -0.299062 0
M  V30 4955 C 479.867 2.22127 0.565012 0
M  V30 4956 C 480.867 1.20669 1.06281 0
M  V30 4957 O 482.057 1.45417 0.959145 0
M  V30 4958 C 479.189 2.90611 1.78208 0
M  V30 4959 H 480.382 2.99891 -0.0237448 0
M  V30 4960 H 477.935 1.5622 -0.0498788 0
M  V30 4961 H 478.67 2.16921 2.41072 0
M  V30 4962 H 478.455 3.64984 1.43281 0
M  V30 4963 H 479.945 3.42026 2.396 0
M  V30 4964 N 480.382 0.0267497 1.57577 0
M  V30 4965 C 481.312 -0.954308 2.13108 0
M  V30 4966 C 482.293 -1.34088 1.04663 0
M  V30 4967 O 483.478 -1.41992 1.32484 0
M  V30 4968 C 480.608 -2.23744 2.65624 0
M  V30 4969 C 479.562 -1.99168 3.78835 0
M  V30 4970 C 478.888 -3.33726 4.17769 0
M  V30 4971 C 480.188 -1.33277 5.0501 0
M  V30 4972 H 481.882 -0.491848 2.95332 0
M  V30 4973 H 479.428 -0.23514 1.42067 0
M  V30 4974 H 481.381 -2.92754 3.03106 0
M  V30 4975 H 480.105 -2.72151 1.80558 0
M  V30 4976 H 478.764 -1.32577 3.41788 0
M  V30 4977 H 478.412 -3.79888 3.29688 0
M  V30 4978 H 478.112 -3.18089 4.94058 0
M  V30 4979 H 479.636 -4.04008 4.57832 0
M  V30 4980 H 481.05 -1.92283 5.40093 0
M  V30 4981 H 479.447 -1.28045 5.8628 0
M  V30 4982 H 480.517 -0.305411 4.83937 0
M  V30 4983 N 481.861 -1.55662 -0.24637 0
M  V30 4984 C 482.808 -1.90361 -1.30504 0
M  V30 4985 C 483.778 -0.757905 -1.47801 0
M  V30 4986 O 484.963 -1.01161 -1.61775 0
M  V30 4987 C 482.103 -2.2042 -2.65535 0
M  V30 4988 C 481.216 -3.47799 -2.56242 0
M  V30 4989 C 480.351 -3.67426 -3.8363 0
M  V30 4990 C 479.39 -4.88403 -3.68956 0
M  V30 4991 N 478.527 -5.04548 -4.88237 0
M  V30 4992 H 483.367 -2.80645 -1.00213 0
M  V30 4993 H 480.904 -1.38924 -0.483577 0
M  V30 4994 H 482.862 -2.35853 -3.44135 0
M  V30 4995 H 481.492 -1.3334 -2.93973 0
M  V30 4996 H 480.544 -3.40694 -1.69208 0
M  V30 4997 H 481.856 -4.36544 -2.4131 0
M  V30 4998 H 481.01 -3.82821 -4.70673 0
M  V30 4999 H 479.749 -2.76914 -4.01459 0
M  V30 5000 H 478.754 -4.72984 -2.80296 0
M  V30 5001 H 479.979 -5.80375 -3.52621 0
M  V30 5002 H 477.925 -4.16974 -5.06427 0
M  V30 5003 H 477.842 -5.87384 -4.75937 0
M  V30 5004 H 479.11 -5.24355 -5.76777 0
M  V30 5005 N 483.339 0.512053 -1.4905 0
M  V30 5006 C 484.564 1.2959 -1.6193 0
M  V30 5007 C 484.989 1.85906 -0.286454 0
M  V30 5008 O 484.347 1.65312 0.744426 0
M  V30 5009 C 484.395 2.40987 -2.68249 0
M  V30 5010 O 483.499 3.44531 -2.26654 0
M  V30 5011 H 482.84 0.383053 -0.542371 0
M  V30 5012 H 485.37 0.614231 -1.95162 0
M  V30 5013 H 485.38 2.86913 -2.90078 0
M  V30 5014 H 484.055 1.99361 -3.65004 0
M  V30 5015 H 482.632 3.046 -2.15112 0
M  V30 5016 N 484.817 1.37938 0.762283 0
M  V30 5017 C 485.727 1.36681 1.90671 0
M  V30 5018 C 486.743 0.265078 1.71969 0
M  V30 5019 O 487.919 0.502055 1.95042 0
M  V30 5020 C 484.984 1.18211 3.25925 0
M  V30 5021 C 484.045 2.3811 3.57214 0
M  V30 5022 C 483.278 2.20512 4.86014 0
M  V30 5023 O 483.501 1.19429 5.57757 0
M  V30 5024 O 482.435 3.08911 5.16583 0
M  V30 5025 H 486.261 2.33091 1.94685 0
M  V30 5026 H 483.846 1.18767 0.906356 0
M  V30 5027 H 485.728 1.09937 4.06807 0
M  V30 5028 H 484.403 0.248807 3.22742 0
M  V30 5029 H 483.31 2.51958 2.76529 0
M  V30 5030 H 484.643 3.30041 3.65149 0
M  V30 5031 N 486.295 -0.989507 1.22664 0
M  V30 5032 C 487.572 -1.70326 0.961688 0
M  V30 5033 C 487.952 -2.04537 -0.522279 0
M  V30 5034 O 487.3 -1.73136 -1.49118 0
M  V30 5035 C 487.51 -2.95135 1.86269 0
M  V30 5036 C 488.858 -3.67842 2.12078 0
M  V30 5037 O 489.882 -3.0515 1.83745 0
M  V30 5038 O 488.741 -4.80644 2.60083 0
M  V30 5039 H 485.835 -0.743589 0.361946 0
M  V30 5040 H 488.381 -1.04555 1.33665 0
M  V30 5041 H 487.153 -2.66382 2.8663 0
M  V30 5042 H 486.776 -3.68645 1.48952 0
M  V30 5043 N 487.773 -1.03688 -1.18687 0
M  V30 5044 C 489.013 -0.746858 -1.90267 0
M  V30 5045 C 489.377 0.712075 -1.78307 0
M  V30 5046 O 490.578 1.11553 -2.44559 0
M  V30 5047 C 488.849 -1.19543 -3.36815 0
M  V30 5048 S 490.408 -1.03047 -4.26529 0
M  V30 5049 H 487.226 -0.271663 -0.657054 0
M  V30 5050 H 489.828 -1.32838 -1.43437 0
M  V30 5051 H 488.532 -2.2527 -3.43047 0
M  V30 5052 H 488.063 -0.607533 -3.88681 0
M  V30 5053 H 490.078 0.0543232 -4.9617 0
M  V30 5054 N 489.251 1.34841 -0.815825 0
M  V30 5055 C 490.498 1.98499 -0.400535 0
M  V30 5056 C 490.826 1.64699 1.03463 0
M  V30 5057 O 490.081 0.907006 1.73412 0
M  V30 5058 C 490.38 3.53273 -0.541541 0
M  V30 5059 C 490.046 4.06966 -1.94138 0
M  V30 5060 C 488.708 4.21341 -2.32433 0
M  V30 5061 C 491.06 4.35933 -2.85677 0
M  V30 5062 C 488.388 4.62007 -3.61617 0
M  V30 5063 C 490.74 4.78042 -4.14317 0
M  V30 5064 C 489.404 4.90622 -4.52599 0
M  V30 5065 H 488.674 0.72636 -0.146566 0
M  V30 5066 H 491.321 1.60902 -1.0384 0
M  V30 5067 H 489.626 3.91387 0.179741 0
M  V30 5068 H 491.323 4.00497 -0.20085 0
M  V30 5069 H 487.913 3.96235 -1.63388 0
M  V30 5070 H 492.097 4.24372 -2.57337 0
M  V30 5071 H 487.353 4.69937 -3.91113 0
M  V30 5072 H 491.527 4.99415 -4.85342 0
M  V30 5073 H 489.154 5.2189 -5.52752 0
M  V30 5074 N 490.729 0.570148 1.46925 0
M  V30 5075 C 491.978 0.0487352 2.01641 0
M  V30 5076 C 492.291 -1.31433 1.44861 0
M  V30 5077 O 493.497 -1.92638 1.91318 0
M  V30 5078 C 491.953 0.0365817 3.59881 0
M  V30 5079 C 491.561 1.39719 4.25655 0
M  V30 5080 C 493.305 -0.431545 4.22301 0
M  V30 5081 C 491.212 1.34345 5.75939 0
M  V30 5082 H 490.142 0.0144492 0.753862 0
M  V30 5083 H 492.793 0.719928 1.68788 0
M  V30 5084 H 491.175 -0.700522 3.89755 0
M  V30 5085 H 492.349 2.15303 4.07408 0
M  V30 5086 H 490.664 1.80431 3.75278 0
M  V30 5087 H 493.261 -0.490354 5.32447 0
M  V30 5088 H 493.604 -1.44638 3.90366 0
M  V30 5089 H 494.137 0.251102 3.97007 0
M  V30 5090 H 490.876 2.33469 6.12513 0
M  V30 5091 H 490.396 0.629615 5.96486 0
M  V30 5092 H 492.075 1.051 6.38407 0
M  V30 5093 N 492.207 -1.54576 0.307264 0
M  V30 5094 C 493.137 -2.26708 -0.55907 0
M  V30 5095 C 494.118 -1.26893 -1.1328 0
M  V30 5096 O 495.303 -1.55677 -1.16097 0
M  V30 5097 C 492.433 -3.01259 -1.72801 0
M  V30 5098 C 491.387 -4.08275 -1.28435 0
M  V30 5099 C 490.713 -4.70575 -2.53895 0
M  V30 5100 C 492.013 -5.2068 -0.411038 0
M  V30 5101 H 493.707 -2.9937 0.042576 0
M  V30 5102 H 491.253 -1.43983 0.0219173 0
M  V30 5103 H 493.206 -3.50444 -2.34023 0
M  V30 5104 H 491.93 -2.26187 -2.356 0
M  V30 5105 H 490.589 -3.59949 -0.695161 0
M  V30 5106 H 490.237 -3.92136 -3.15021 0
M  V30 5107 H 489.937 -5.42854 -2.24908 0
M  V30 5108 H 491.461 -5.22527 -3.15908 0
M  V30 5109 H 492.875 -5.65721 -0.929097 0
M  V30 5110 H 491.272 -5.99716 -0.214664 0
M  V30 5111 H 492.342 -4.81629 0.562287 0
M  V30 5112 N 493.685 -0.035106 -1.57561 0
M  V30 5113 C 494.962 0.681212 -1.83354 0
M  V30 5114 C 495.342 1.89986 -0.920252 0
M  V30 5115 O 494.69 2.28489 0.0226815 0
M  V30 5116 C 494.9 1.05376 -3.32712 0
M  V30 5117 C 496.248 1.44286 -3.99333 0
M  V30 5118 O 497.272 1.14656 -3.37242 0
M  V30 5119 O 496.131 1.99518 -5.08778 0
M  V30 5120 H 493.225 0.334741 -0.756226 0
M  V30 5121 H 495.771 -0.0632448 -1.69582 0
M  V30 5122 H 494.543 0.186668 -3.90854 0
M  V30 5123 H 494.166 1.85619 -3.51613 0
M  V30 5124 N 495.163 1.55791 0.238111 0
M  V30 5125 C 496.113 1.87444 1.29803 0
M  V30 5126 C 497.097 0.736043 1.43078 0
M  V30 5127 O 498.289 0.998146 1.46171 0
M  V30 5128 C 495.418 2.18028 2.65177 0
M  V30 5129 C 494.504 3.38217 2.55871 0
M  V30 5130 N 494.895 4.57264 2.16202 0
M  V30 5131 C 493.193 3.41502 2.86866 0
M  V30 5132 C 493.894 5.3941 2.17744 0
M  V30 5133 N 492.87 4.78695 2.57589 0
M  V30 5134 H 496.672 2.7701 0.981965 0
M  V30 5135 H 494.186 1.56135 0.44672 0
M  V30 5136 H 496.183 2.38873 3.4168 0
M  V30 5137 H 494.843 1.29765 2.97643 0
M  V30 5138 H 495.854 4.82727 1.87602 0
M  V30 5139 H 492.531 2.63536 3.23813 0
M  V30 5140 H 493.921 6.44671 1.89339 0
M  V30 5141 N 496.642 -0.504142 1.49319 0
M  V30 5142 C 497.89 -1.25598 1.58334 0
M  V30 5143 C 498.211 -1.93114 0.270538 0
M  V30 5144 O 497.481 -1.82585 -0.709891 0
M  V30 5145 H 496.061 -0.466571 0.58337 0
M  V30 5146 H 498.723 -0.584547 1.85928 0
M  V30 5147 H 497.819 -2.02159 2.37778 0
M  V30 5148 N 498.12 -1.38341 -0.754957 0
M  V30 5149 C 499.067 -1.3546 -1.86867 0
M  V30 5150 C 500.037 -0.217369 -1.64672 0
M  V30 5151 O 501.222 -0.409383 -1.86356 0
M  V30 5152 C 498.362 -1.18413 -3.24149 0
M  V30 5153 C 497.475 -2.41511 -3.58185 0
M  V30 5154 C 496.61 -2.17205 -4.84763 0
M  V30 5155 C 495.649 -3.36081 -5.11582 0
M  V30 5156 N 494.786 -3.11219 -6.29354 0
M  V30 5157 H 499.626 -2.30672 -1.88664 0
M  V30 5158 H 497.163 -1.14607 -0.922154 0
M  V30 5159 H 499.121 -1.06545 -4.03366 0
M  V30 5160 H 497.751 -0.268397 -3.21682 0
M  V30 5161 H 496.803 -2.64056 -2.73822 0
M  V30 5162 H 498.115 -3.30115 -3.73932 0
M  V30 5163 H 497.269 -2.02465 -5.7192 0
M  V30 5164 H 496.008 -1.25964 -4.71152 0
M  V30 5165 H 495.013 -3.51341 -4.22894 0
M  V30 5166 H 496.238 -4.28196 -5.27091 0
M  V30 5167 H 494.184 -2.22624 -6.17069 0
M  V30 5168 H 494.101 -3.93373 -6.45596 0
M  V30 5169 H 495.369 -3.00132 -7.19403 0
M  V30 5170 N 499.598 0.982988 -1.23187 0
M  V30 5171 C 500.875 1.69814 -0.970707 0
M  V30 5172 C 501.255 2.04811 0.511424 0
M  V30 5173 O 500.603 1.73924 1.48198 0
M  V30 5174 C 500.813 2.94143 -1.87831 0
M  V30 5175 C 502.161 3.66712 -2.14026 0
M  V30 5176 O 503.185 3.04171 -1.8536 0
M  V30 5177 O 502.044 4.79258 -2.62629 0
M  V30 5178 H 499.138 0.741659 -0.365884 0
M  V30 5179 H 501.684 1.03844 -1.34218 0
M  V30 5180 H 500.456 2.64858 -2.88038 0
M  V30 5181 H 500.079 3.6785 -1.50905 0
M  V30 5182 N 501.076 1.04316 1.18135 0
M  V30 5183 C 502.324 0.746542 1.87806 0
M  V30 5184 C 502.645 -0.728082 1.80898 0
M  V30 5185 O 501.915 -1.52554 1.22899 0
M  V30 5186 H 500.495 0.273157 0.695265 0
M  V30 5187 H 503.157 1.32044 1.43354 0
M  V30 5188 H 502.253 1.05362 2.93778 0
M  V30 5189 N 502.554 -1.34406 0.822964 0
M  V30 5190 C 503.501 -2.29519 0.24284 0
M  V30 5191 C 504.471 -1.5359 -0.632397 0
M  V30 5192 O 505.656 -1.8196 -0.57403 0
M  V30 5193 C 502.796 -3.40032 -0.58925 0
M  V30 5194 C 501.909 -4.30899 0.308236 0
M  V30 5195 C 501.044 -5.28515 -0.533425 0
M  V30 5196 C 500.083 -6.1102 0.363444 0
M  V30 5197 N 499.22 -7.00725 -0.439147 0
M  V30 5198 H 504.06 -2.78537 1.05929 0
M  V30 5199 H 501.597 -1.3707 0.533872 0
M  V30 5200 H 503.555 -4.0279 -1.087 0
M  V30 5201 H 502.185 -2.92248 -1.37081 0
M  V30 5202 H 501.237 -3.69002 0.924203 0
M  V30 5203 H 502.549 -4.88717 0.997862 0
M  V30 5204 H 501.703 -5.96725 -1.09565 0
M  V30 5205 H 500.442 -4.71235 -1.25656 0
M  V30 5206 H 499.447 -5.41743 0.937812 0
M  V30 5207 H 500.672 -6.70381 1.08469 0
M  V30 5208 H 498.618 -6.45913 -1.14595 0
M  V30 5209 H 498.535 -7.55756 0.19209 0
M  V30 5210 H 499.803 -7.73263 -0.984124 0
M  V30 5211 N 504.032 -0.577932 -1.46621 0
M  V30 5212 C 505.281 -0.0594281 -2.01612 0
M  V30 5213 C 505.594 1.30663 -1.45556 0
M  V30 5214 O 506.8 1.91621 -1.92337 0
M  V30 5215 C 505.256 -0.0556666 -3.59857 0
M  V30 5216 C 504.864 -1.41975 -4.24908 0
M  V30 5217 C 506.608 0.409143 -4.22524 0
M  V30 5218 C 504.515 -1.37397 -5.75218 0
M  V30 5219 H 503.445 -0.0184469 -0.753774 0
M  V30 5220 H 506.096 -0.728869 -1.68404 0
M  V30 5221 H 504.478 0.679843 -3.90121 0
M  V30 5222 H 505.652 -2.17461 -4.0626 0
M  V30 5223 H 503.967 -1.82419 -3.74316 0
M  V30 5224 H 506.564 0.46211 -5.32699 0
M  V30 5225 H 506.907 1.42565 -3.91128 0
M  V30 5226 H 507.44 -0.272152 -3.96868 0
M  V30 5227 H 504.179 -2.36714 -6.11267 0
M  V30 5228 H 503.699 -0.661239 -5.96144 0
M  V30 5229 H 505.378 -1.08484 -6.3784 0
M  V30 5230 N 505.51 1.54411 -0.315457 0
M  V30 5231 C 506.757 2.00419 0.289543 0
M  V30 5232 C 507.085 1.20373 1.52776 0
M  V30 5233 O 506.34 0.271769 1.93804 0
M  V30 5234 C 506.639 3.50936 0.676652 0
M  V30 5235 C 506.305 4.48532 -0.461472 0
M  V30 5236 C 504.967 4.74936 -0.773879 0
M  V30 5237 C 507.319 5.06567 -1.22637 0
M  V30 5238 C 504.647 5.56634 -1.85405 0
M  V30 5239 C 506.999 5.89441 -2.29657 0
M  V30 5240 C 505.663 6.1415 -2.61488 0
M  V30 5241 H 504.933 0.733386 0.105951 0
M  V30 5242 H 507.58 1.86434 -0.437554 0
M  V30 5243 H 505.885 3.62606 1.48405 0
M  V30 5244 H 507.582 3.83971 1.15618 0
M  V30 5245 H 504.172 4.28096 -0.207893 0
M  V30 5246 H 508.356 4.86157 -0.998271 0
M  V30 5247 H 503.612 5.74012 -2.10523 0
M  V30 5248 H 507.786 6.33432 -2.89374 0
M  V30 5249 H 505.413 6.77245 -3.45317 0
M  V30 5250 N 506.988 0.0434614 1.5754 0
M  V30 5251 C 508.234 -0.632971 1.92669 0
M  V30 5252 C 508.567 -1.70947 0.921446 0
M  V30 5253 O 507.842 -1.94426 -0.0537202 0
M  V30 5254 C 508.125 -1.23619 3.38216 0
M  V30 5255 C 507.978 -0.168274 4.49485 0
M  V30 5256 C 509.297 -2.15008 3.84005 0
M  V30 5257 H 506.416 -0.228629 0.700641 0
M  V30 5258 H 509.058 0.103651 1.89717 0
M  V30 5259 H 507.208 -1.864 3.40863 0
M  V30 5260 H 508.88 0.463196 4.58969 0
M  V30 5261 H 507.123 0.504581 4.30855 0
M  V30 5262 H 507.794 -0.630218 5.48391 0
M  V30 5263 H 510.27 -1.62198 3.83185 0
M  V30 5264 H 509.146 -2.54161 4.86511 0
M  V30 5265 H 509.407 -3.04707 3.20322 0
M  V30 5266 N 508.466 -1.55915 -0.229846 0
M  V30 5267 C 509.712 -1.79718 -0.952517 0
M  V30 5268 C 510.067 -0.61514 -1.82301 0
M  V30 5269 O 509.36 0.391098 -1.87566 0
M  V30 5270 C 509.554 -3.06845 -1.8325 0
M  V30 5271 C 509.383 -4.37302 -1.04868 0
M  V30 5272 C 508.153 -4.99749 -0.746932 0
M  V30 5273 C 510.351 -5.12599 -0.417989 0
M  V30 5274 N 508.333 -6.13871 0.0591596 0
M  V30 5275 C 509.704 -6.19488 0.251879 0
M  V30 5276 C 511.759 -4.96804 -0.33018 0
M  V30 5277 C 510.462 -7.12299 1.00115 0
M  V30 5278 C 512.488 -5.90007 0.4056 0
M  V30 5279 C 511.85 -6.96317 1.06404 0
M  V30 5280 H 507.949 -0.709382 -0.329091 0
M  V30 5281 H 510.533 -1.93406 -0.224114 0
M  V30 5282 H 508.704 -2.94456 -2.53279 0
M  V30 5283 H 510.436 -3.18874 -2.49202 0
M  V30 5284 H 507.191 -4.61518 -1.06292 0
M  V30 5285 H 507.615 -6.75497 0.450798 0
M  V30 5286 H 512.257 -4.14675 -0.824898 0
M  V30 5287 H 509.975 -7.93916 1.50741 0
M  V30 5288 H 513.561 -5.79862 0.474436 0
M  V30 5289 H 512.441 -7.67194 1.62429 0
M  V30 5290 N 509.944 0.496216 -1.49584 0
M  V30 5291 C 510.891 1.59722 -1.66606 0
M  V30 5292 C 511.861 1.58158 -0.507477 0
M  V30 5293 O 513.046 1.76072 -0.735076 0
M  V30 5294 C 510.186 2.97844 -1.74308 0
M  V30 5295 C 509.299 3.09388 -3.01502 0
M  V30 5296 C 508.434 4.38271 -3.00153 0
M  V30 5297 C 507.473 4.43466 -4.21906 0
M  V30 5298 N 506.61 5.63784 -4.1844 0
M  V30 5299 H 511.45 1.44515 -2.60613 0
M  V30 5300 H 508.987 0.703048 -1.29212 0
M  V30 5301 H 510.945 3.77907 -1.76754 0
M  V30 5302 H 509.575 3.11743 -0.837619 0
M  V30 5303 H 508.627 2.22357 -3.08645 0
M  V30 5304 H 509.939 3.09085 -3.91494 0
M  V30 5305 H 509.093 5.2666 -3.01188 0
M  V30 5306 H 507.832 4.41146 -2.07947 0
M  V30 5307 H 506.837 3.53478 -4.21109 0
M  V30 5308 H 508.062 4.42303 -5.1531 0
M  V30 5309 H 506.008 5.67491 -3.29074 0
M  V30 5310 H 505.925 5.65118 -5.02173 0
M  V30 5311 H 507.193 6.54367 -4.23585 0
M  V30 5312 N 511.423 1.38739 0.74761 0
M  V30 5313 C 512.671 1.35007 1.50391 0
M  V30 5314 C 512.992 -0.0574274 1.94915 0
M  V30 5315 O 512.262 -1.00628 1.6808 0
M  V30 5316 H 510.842 0.496784 0.557866 0
M  V30 5317 H 513.504 1.73479 0.888319 0
M  V30 5318 H 512.6 2.00474 2.392 0
M  V30 5319 N 512.901 -0.976442 1.23707 0
M  V30 5320 C 513.848 -2.06952 1.02174 0
M  V30 5321 C 514.818 -1.65984 -0.0621034 0
M  V30 5322 O 516.003 -1.90584 0.0907906 0
M  V30 5323 C 513.143 -3.39425 0.62327 0
M  V30 5324 C 512.256 -3.9364 1.77966 0
M  V30 5325 C 511.391 -5.14343 1.3276 0
M  V30 5326 C 510.43 -5.60733 2.45449 0
M  V30 5327 N 509.567 -6.72662 2.01172 0
M  V30 5328 H 514.407 -2.24704 1.95734 0
M  V30 5329 H 511.944 -1.10143 0.975034 0
M  V30 5330 H 513.902 -4.15526 0.37332 0
M  V30 5331 H 512.532 -3.21624 -0.275329 0
M  V30 5332 H 511.584 -3.14258 2.14351 0
M  V30 5333 H 512.896 -4.24035 2.62671 0
M  V30 5334 H 512.05 -5.97789 1.03601 0
M  V30 5335 H 510.789 -4.8561 0.450975 0
M  V30 5336 H 509.794 -4.75865 2.75378 0
M  V30 5337 H 511.019 -5.91483 3.33654 0
M  V30 5338 H 508.965 -6.45681 1.15895 0
M  V30 5339 H 508.882 -7.02462 2.79434 0
M  V30 5340 H 510.15 -7.59572 1.75129 0
M  V30 5341 N 514.379 -1.04941 -1.1758 0
M  V30 5342 C 515.311 -0.606174 -2.21039 0
M  V30 5343 C 516.324 0.328763 -1.59446 0
M  V30 5344 O 517.513 0.121895 -1.78083 0
M  V30 5345 C 514.613 0.133294 -3.38638 0
M  V30 5346 C 513.786 -0.811711 -4.29802 0
M  V30 5347 C 512.845 -0.113958 -5.26077 0
M  V30 5348 O 511.871 -0.747237 -5.64274 0
M  V30 5349 N 513.073 1.14953 -5.69004 0
M  V30 5350 H 515.838 -1.49606 -2.59689 0
M  V30 5351 H 513.399 -0.930997 -1.32454 0
M  V30 5352 H 515.391 0.610144 -4.00074 0
M  V30 5353 H 513.961 0.924816 -2.98607 0
M  V30 5354 H 513.181 -1.46824 -3.65837 0
M  V30 5355 H 514.469 -1.45326 -4.87604 0
M  V30 5356 H 513.867 1.68441 -5.40041 0
M  V30 5357 H 512.424 1.57049 -6.32597 0
M  V30 5358 N 515.857 1.33968 -0.830081 0
M  V30 5359 C 516.82 2.27694 -0.26235 0
M  V30 5360 C 517.82 1.50589 0.563876 0
M  V30 5361 O 519.01 1.70028 0.378941 0
M  V30 5362 C 516.142 3.35002 0.63138 0
M  V30 5363 H 517.335 2.79419 -1.08928 0
M  V30 5364 H 514.888 1.44221 -0.602486 0
M  V30 5365 H 515.623 2.88504 1.48109 0
M  V30 5366 H 515.408 3.92079 0.0403276 0
M  V30 5367 H 516.898 4.04897 1.02217 0
M  V30 5368 N 517.335 0.585699 1.46312 0
M  V30 5369 C 518.283 -0.158577 2.32059 0
M  V30 5370 C 519.277 -0.881427 1.44662 0
M  V30 5371 O 520.483 -0.799476 1.61271 0
M  V30 5372 H 516.858 -0.0700066 0.748734 0
M  V30 5373 H 518.829 0.583383 2.92642 0
M  V30 5374 C 517.578 -1.15701 3.27885 0
M  V30 5375 H 516.901 -0.610215 3.95116 0
M  V30 5376 H 518.341 -1.64812 3.90657 0
M  V30 5377 C 516.8 -2.21951 2.53455 0
M  V30 5378 O 517.33 -3.29352 2.29978 0
M  V30 5379 N 515.536 -1.9664 2.13965 0
M  V30 5380 H 515.083 -1.09309 2.33258 0
M  V30 5381 H 515.041 -2.6794 1.64485 0
M  V30 5382 N 518.813 -1.54241 0.323641 0
M  V30 5383 C 520.041 -2.04985 -0.280871 0
M  V30 5384 C 520.456 -1.19978 -1.45777 0
M  V30 5385 O 519.813 -0.230471 -1.81039 0
M  V30 5386 C 519.864 -3.54353 -0.715258 0
M  V30 5387 O 519.585 -4.36132 0.414817 0
M  V30 5388 C 521.086 -4.21189 -1.38257 0
M  V30 5389 H 518.306 -0.66851 -0.0577502 0
M  V30 5390 H 520.85 -1.99029 0.469852 0
M  V30 5391 H 519.005 -3.60596 -1.41596 0
M  V30 5392 H 519.419 -5.2445 0.0725227 0
M  V30 5393 H 520.893 -5.27154 -1.63745 0
M  V30 5394 H 521.37 -3.72307 -2.32989 0
M  V30 5395 H 521.976 -4.19085 -0.724447 0
M  V30 5396 N 520.291 -0.0518155 -1.57515 0
M  V30 5397 C 521.201 0.937539 -2.15052 0
M  V30 5398 C 522.217 1.34121 -1.10849 0
M  V30 5399 O 523.393 1.418 -1.4302 0
M  V30 5400 C 520.458 2.19379 -2.68466 0
M  V30 5401 C 519.519 1.84841 -3.87469 0
M  V30 5402 C 518.752 3.04477 -4.38326 0
M  V30 5403 O 518.975 4.17868 -3.88256 0
M  V30 5404 O 517.909 2.85453 -5.29906 0
M  V30 5405 H 521.735 0.478201 -2.99912 0
M  V30 5406 H 519.32 0.17012 -1.48428 0
M  V30 5407 H 521.202 2.93084 -3.02787 0
M  V30 5408 H 519.877 2.64449 -1.86677 0
M  V30 5409 H 518.784 1.08449 -3.58036 0
M  V30 5410 H 520.117 1.44569 -4.7049 0
M  V30 5411 N 521.769 1.56035 0.221574 0
M  V30 5412 C 522.679 1.95581 1.29558 0
M  V30 5413 C 523.695 0.859639 1.51282 0
M  V30 5414 O 524.871 1.16321 1.64413 0
M  V30 5415 C 521.936 2.26447 2.62531 0
M  V30 5416 C 520.997 3.49632 2.4911 0
M  V30 5417 C 520.23 3.79017 3.75742 0
M  V30 5418 O 520.453 3.10077 4.78757 0
M  V30 5419 O 519.387 4.72507 3.72855 0
M  V30 5420 H 523.213 2.8711 0.990035 0
M  V30 5421 H 520.798 1.43244 0.424434 0
M  V30 5422 H 522.68 2.47494 3.41064 0
M  V30 5423 H 521.355 1.38092 2.92766 0
M  V30 5424 H 520.262 3.33864 1.68777 0
M  V30 5425 H 521.595 4.3837 2.23814 0
M  V30 5426 N 523.247 -0.488276 1.49845 0
M  V30 5427 C 524.663 -0.820566 1.3689 0
M  V30 5428 C 524.863 -1.97248 0.411752 0
M  V30 5429 O 523.919 -2.52042 -0.151931 0
M  V30 5430 C 525.232 -1.1488 2.77891 0
M  V30 5431 C 526.78 -1.25626 2.86683 0
M  V30 5432 C 527.255 -1.61772 4.28479 0
M  V30 5433 N 528.746 -1.68797 4.31349 0
M  V30 5434 C 529.481 -1.98235 5.38043 0
M  V30 5435 N 528.977 -2.2581 6.54967 0
M  V30 5436 N 530.77 -1.99593 5.2547 0
M  V30 5437 H 522.921 0.271123 2.10662 0
M  V30 5438 H 525.184 0.058735 0.946179 0
M  V30 5439 H 524.89 -0.375614 3.49688 0
M  V30 5440 H 524.764 -2.08919 3.14058 0
M  V30 5441 H 527.151 -2.02014 2.15114 0
M  V30 5442 H 527.232 -0.296072 2.54081 0
M  V30 5443 H 526.876 -0.859295 5.00578 0
M  V30 5444 H 526.806 -2.58912 4.58554 0
M  V30 5445 H 529.297 -1.49595 3.4703 0
M  V30 5446 H 529.61 -2.47497 7.32096 0
M  V30 5447 H 527.955 -2.23239 6.58171 0
M  V30 5448 H 531.146 -1.77535 4.33127 0
M  V30 5449 H 531.319 -2.222 6.08713 0
M  V30 5450 N 524.725 -1.39134 -0.740242 0
M  V30 5451 C 525.672 -1.37434 -1.8542 0
M  V30 5452 C 526.642 -0.234822 -1.64432 0
M  V30 5453 O 527.827 -0.429125 -1.85912 0
M  V30 5454 C 524.967 -1.21844 -3.22875 0
M  V30 5455 C 524.08 -2.45296 -3.55603 0
M  V30 5456 C 523.215 -2.22334 -4.82432 0
M  V30 5457 C 522.254 -3.41488 -5.07988 0
M  V30 5458 N 521.391 -3.17877 -6.26018 0
M  V30 5459 H 526.231 -2.3266 -1.86207 0
M  V30 5460 H 523.768 -1.15578 -0.909946 0
M  V30 5461 H 525.726 -1.10818 -4.02213 0
M  V30 5462 H 524.356 -0.3025 -3.21379 0
M  V30 5463 H 523.408 -2.66945 -2.71006 0
M  V30 5464 H 524.72 -3.34063 -3.7041 0
M  V30 5465 H 523.874 -2.0852 -5.69741 0
M  V30 5466 H 522.613 -1.30954 -4.6979 0
M  V30 5467 H 521.618 -3.55807 -4.19144 0
M  V30 5468 H 522.843 -4.33763 -5.22519 0
M  V30 5469 H 520.789 -2.29156 -6.14673 0
M  V30 5470 H 520.706 -4.00198 -6.41387 0
M  V30 5471 H 521.974 -3.07746 -7.16179 0
M  V30 5472 N 526.204 0.969867 -1.24223 0
M  V30 5473 C 527.167 2.04564 -1.03373 0
M  V30 5474 C 528.167 1.60798 0.00819206 0
M  V30 5475 O 529.357 1.72641 -0.232567 0
M  V30 5476 C 526.489 3.36163 -0.566343 0
M  V30 5477 H 527.682 2.24494 -1.98853 0
M  V30 5478 H 525.235 1.1448 -1.06415 0
M  V30 5479 H 525.97 3.21925 0.391751 0
M  V30 5480 H 525.755 3.69273 -1.31834 0
M  V30 5481 H 527.245 4.1526 -0.441435 0
M  V30 5482 N 527.682 1.05563 1.17022 0
M  V30 5483 C 528.645 0.664098 2.19368 0
M  V30 5484 C 529.645 -0.286358 1.5823 0
M  V30 5485 O 530.835 -0.069728 1.7406 0
M  V30 5486 C 527.967 -0.0239932 3.40892 0
M  V30 5487 H 529.16 1.57 2.55521 0
M  V30 5488 H 526.713 0.849964 1.31169 0
M  V30 5489 H 527.448 -0.942988 3.10287 0
M  V30 5490 H 527.233 0.659351 3.86516 0
M  V30 5491 H 528.723 -0.283909 4.16634 0
M  V30 5492 N 529.16 -1.33526 0.837174 0
M  V30 5493 C 530.09 -2.31764 0.284206 0
M  V30 5494 C 531.071 -1.58896 -0.607142 0
M  V30 5495 O 532.256 -1.86798 -0.531047 0
M  V30 5496 C 529.386 -3.43029 -0.542962 0
M  V30 5497 C 528.34 -4.27255 0.252451 0
M  V30 5498 C 527.666 -5.3012 -0.69836 0
M  V30 5499 C 528.966 -5.01229 1.46858 0
M  V30 5500 H 530.66 -2.78262 1.10502 0
M  V30 5501 H 528.206 -1.3378 0.532812 0
M  V30 5502 H 530.159 -4.1078 -0.940096 0
M  V30 5503 H 528.883 -2.95216 -1.39697 0
M  V30 5504 H 527.542 -3.61127 0.631124 0
M  V30 5505 H 527.19 -4.78564 -1.54872 0
M  V30 5506 H 526.89 -5.87353 -0.170274 0
M  V30 5507 H 528.414 -6.00737 -1.09305 0
M  V30 5508 H 529.828 -5.61756 1.14469 0
M  V30 5509 H 528.225 -5.68104 1.93333 0
M  V30 5510 H 529.295 -4.301 2.23924 0
M  V30 5511 N 530.638 -0.59345 -1.46 0
M  V30 5512 C 531.585 0.133618 -2.30413 0
M  V30 5513 C 532.555 0.873736 -1.41262 0
M  V30 5514 O 533.74 0.862279 -1.70204 0
M  V30 5515 C 530.88 1.13434 -3.25924 0
M  V30 5516 C 529.993 0.39656 -4.30176 0
M  V30 5517 C 529.128 1.38575 -5.12806 0
M  V30 5518 C 528.167 0.634984 -6.08797 0
M  V30 5519 N 527.304 1.57276 -6.84258 0
M  V30 5520 H 532.144 -0.592252 -2.92055 0
M  V30 5521 H 529.681 -0.303874 -1.43927 0
M  V30 5522 H 531.639 1.72752 -3.79753 0
M  V30 5523 H 530.269 1.82779 -2.66067 0
M  V30 5524 H 529.321 -0.311861 -3.79119 0
M  V30 5525 H 530.633 -0.189869 -4.98438 0
M  V30 5526 H 529.787 2.05141 -5.70966 0
M  V30 5527 H 528.526 2.00611 -4.44529 0
M  V30 5528 H 527.531 -0.0443925 -5.49782 0
M  V30 5529 H 528.756 0.0198678 -6.79097 0
M  V30 5530 H 526.702 2.18103 -6.18682 0
M  V30 5531 H 526.619 1.03941 -7.48821 0
M  V30 5532 H 527.887 2.22844 -7.46968 0
M  V30 5533 N 532.116 1.54067 -0.331816 0
M  V30 5534 C 533.344 2.05131 0.269996 0
M  V30 5535 C 533.759 1.20749 1.45138 0
M  V30 5536 O 533.116 0.240069 1.80914 0
M  V30 5537 C 533.167 3.54728 0.696456 0
M  V30 5538 O 532.888 4.35906 -0.43794 0
M  V30 5539 C 534.389 4.21916 1.36021 0
M  V30 5540 H 531.609 0.668807 0.0542042 0
M  V30 5541 H 534.153 1.98777 -0.4804 0
M  V30 5542 H 532.308 3.61342 1.39681 0
M  V30 5543 H 532.722 5.24404 -0.100334 0
M  V30 5544 H 534.196 5.28015 1.60947 0
M  V30 5545 H 534.673 3.73538 2.31011 0
M  V30 5546 H 535.279 4.19463 0.702212 0
M  V30 5547 N 533.594 0.0601682 1.57485 0
M  V30 5548 C 534.557 -0.896373 2.10945 0
M  V30 5549 C 535.557 -1.23402 1.03095 0
M  V30 5550 O 536.747 -1.16921 1.29132 0
M  V30 5551 C 533.879 -2.20346 2.60116 0
M  V30 5552 H 535.072 -0.432778 2.96761 0
M  V30 5553 H 532.625 -0.188372 1.55161 0
M  V30 5554 H 533.36 -2.71268 1.7772 0
M  V30 5555 H 533.145 -1.9714 3.38937 0
M  V30 5556 H 534.635 -2.88846 3.01592 0
M  V30 5557 N 535.072 -1.5615 -0.213296 0
M  V30 5558 C 536.297 -1.83986 -0.957282 0
M  V30 5559 C 536.722 -0.641526 -1.76822 0
M  V30 5560 O 536.08 0.409722 -1.7661 0
M  V30 5561 C 536.128 -3.09889 -1.84393 0
M  V30 5562 O 535.232 -2.89163 -2.94038 0
M  V30 5563 H 534.573 -0.606357 -0.270605 0
M  V30 5564 H 537.103 -2.03369 -0.224111 0
M  V30 5565 H 537.113 -3.40209 -2.25215 0
M  V30 5566 H 535.788 -3.96735 -1.24795 0
M  V30 5567 H 534.365 -2.70097 -2.57103 0
M  V30 5568 N 536.55 0.480323 -1.50102 0
M  V30 5569 C 537.827 1.24159 -1.51142 0
M  V30 5570 C 538.207 2.09605 -0.250818 0
M  V30 5571 O 537.555 2.15274 0.766118 0
M  V30 5572 C 537.765 2.08057 -2.80202 0
M  V30 5573 C 539.113 2.66556 -3.30504 0
M  V30 5574 O 540.137 2.18308 -2.81461 0
M  V30 5575 O 538.996 3.54442 -4.15973 0
M  V30 5576 H 536.09 0.562928 -0.605839 0
M  V30 5577 H 538.636 0.492899 -1.62384 0
M  V30 5578 H 537.408 1.45032 -3.6343 0
M  V30 5579 H 537.031 2.90079 -2.71919 0
M  V30 5580 N 538.028 1.39524 0.732853 0
M  V30 5581 C 539.275 1.36865 1.49246 0
M  V30 5582 C 539.603 -0.0347118 1.94469 0
M  V30 5583 O 538.858 -1.01596 1.67262 0
M  V30 5584 C 539.157 2.28916 2.74468 0
M  V30 5585 C 538.823 3.76506 2.481 0
M  V30 5586 C 537.485 4.16721 2.40619 0
M  V30 5587 C 539.837 4.69846 2.25598 0
M  V30 5588 C 537.165 5.48334 2.08679 0
M  V30 5589 C 539.517 6.01739 1.95174 0
M  V30 5590 C 538.181 6.41015 1.86163 0
M  V30 5591 H 537.451 0.500824 0.546129 0
M  V30 5592 H 540.098 1.72047 0.840958 0
M  V30 5593 H 538.403 1.86859 3.4437 0
M  V30 5594 H 540.1 2.2415 3.32502 0
M  V30 5595 H 536.69 3.44635 2.54803 0
M  V30 5596 H 540.874 4.39608 2.30344 0
M  V30 5597 H 536.13 5.77685 2.00226 0
M  V30 5598 H 540.304 6.73591 1.76771 0
M  V30 5599 H 537.931 7.42917 1.61179 0
M  V30 5600 N 539.506 -0.963266 1.24736 0
M  V30 5601 C 540.755 -1.70115 1.08369 0
M  V30 5602 C 541.068 -1.91939 -0.376688 0
M  V30 5603 O 542.274 -2.6334 -0.660624 0
M  V30 5604 C 540.73 -3.06218 1.89099 0
M  V30 5605 C 540.338 -2.92221 3.39574 0
M  V30 5606 C 542.082 -3.83848 1.81275 0
M  V30 5607 C 539.989 -4.23662 4.12631 0
M  V30 5608 H 538.919 -0.637944 0.401924 0
M  V30 5609 H 541.57 -1.07304 1.48856 0
M  V30 5610 H 539.952 -3.69884 1.41429 0
M  V30 5611 H 541.126 -2.37541 3.94856 0
M  V30 5612 H 539.441 -2.28054 3.48397 0
M  V30 5613 H 542.038 -4.81188 2.33158 0
M  V30 5614 H 542.381 -4.08949 0.778895 0
M  V30 5615 H 542.914 -3.26918 2.26649 0
M  V30 5616 H 539.653 -4.03753 5.16395 0
M  V30 5617 H 539.173 -4.78141 3.62135 0
M  V30 5618 H 540.852 -4.92256 4.19873 0
M  V30 5619 N 540.985 -1.06182 -1.16461 0
M  V30 5620 C 542.213 -0.798583 -1.90867 0
M  V30 5621 C 542.628 0.646921 -1.77371 0
M  V30 5622 O 541.985 1.44279 -1.11758 0
M  V30 5623 C 542.036 -1.18258 -3.4161 0
M  V30 5624 O 541.757 -2.57135 -3.54701 0
M  V30 5625 C 543.258 -0.946917 -4.33069 0
M  V30 5626 H 540.478 -0.289603 -0.605286 0
M  V30 5627 H 543.022 -1.41515 -1.47627 0
M  V30 5628 H 541.177 -0.610562 -3.82558 0
M  V30 5629 H 541.591 -2.72477 -4.4817 0
M  V30 5630 H 543.065 -1.26523 -5.37304 0
M  V30 5631 H 543.542 0.117406 -4.39043 0
M  V30 5632 H 544.148 -1.50326 -3.97847 0
M  V30 5633 N 542.463 1.3308 -0.844243 0
M  V30 5634 C 543.41 2.29104 -0.279323 0
M  V30 5635 C 544.38 1.54577 0.607882 0
M  V30 5636 O 545.565 1.8285 0.545009 0
M  V30 5637 C 542.705 3.40927 0.53508 0
M  V30 5638 C 541.818 4.30354 -0.376749 0
M  V30 5639 C 540.953 5.29297 0.449276 0
M  V30 5640 C 539.992 6.10365 -0.460606 0
M  V30 5641 N 539.129 7.01335 0.327612 0
M  V30 5642 H 543.969 2.76817 -1.10346 0
M  V30 5643 H 541.506 1.36203 -0.555611 0
M  V30 5644 H 543.464 4.04469 1.02278 0
M  V30 5645 H 542.094 2.94391 1.32414 0
M  V30 5646 H 541.146 3.67485 -0.982791 0
M  V30 5647 H 542.458 4.87067 -1.07549 0
M  V30 5648 H 541.612 5.98392 1.00058 0
M  V30 5649 H 540.351 4.73174 1.18143 0
M  V30 5650 H 539.356 5.40182 -1.02388 0
M  V30 5651 H 540.581 6.68571 -1.1912 0
M  V30 5652 H 538.527 6.47655 1.04305 0
M  V30 5653 H 538.444 7.55355 -0.3123 0
M  V30 5654 H 539.712 7.74731 0.86098 0
M  V30 5655 N 543.941 0.601185 1.45683 0
M  V30 5656 C 544.874 -0.17013 2.27565 0
M  V30 5657 C 545.852 -0.879661 1.36751 0
M  V30 5658 O 547.036 -0.889827 1.66176 0
M  V30 5659 C 544.163 -1.24568 3.14961 0
M  V30 5660 C 543.209 -0.639978 4.21671 0
M  V30 5661 S 544.042 0.547275 5.32696 0
M  V30 5662 C 545.198 -0.529019 6.2366 0
M  V30 5663 H 545.431 0.524583 2.92635 0
M  V30 5664 H 542.964 0.388537 1.49431 0
M  V30 5665 H 544.922 -1.86138 3.65873 0
M  V30 5666 H 543.583 -1.91243 2.49169 0
M  V30 5667 H 542.776 -1.44903 4.8272 0
M  V30 5668 H 542.378 -0.0995558 3.73867 0
M  V30 5669 H 544.67 -1.40981 6.62669 0
M  V30 5670 H 545.613 0.0451599 7.08086 0
M  V30 5671 H 546.021 -0.84147 5.58193 0
M  V30 5672 N 545.419 -1.53889 0.339982 0
M  V30 5673 C 546.696 -1.93084 -0.312719 0
M  V30 5674 C 547.076 -1.2712 -1.68534 0
M  V30 5675 O 546.424 -0.420835 -2.24591 0
M  V30 5676 C 546.634 -3.4683 -0.388558 0
M  V30 5677 C 547.982 -4.19732 -0.641088 0
M  V30 5678 O 549.006 -3.53075 -0.470818 0
M  V30 5679 O 547.865 -5.3781 -0.970685 0
M  V30 5680 H 544.959 -0.806784 -0.18174 0
M  V30 5681 H 547.505 -1.65137 0.390898 0
M  V30 5682 H 546.277 -3.87055 0.574821 0
M  V30 5683 H 545.9 -3.80933 -1.1391 0
M  V30 5684 N 546.897 -0.0685191 -1.57451 0
M  V30 5685 C 548.127 0.609577 -1.97402 0
M  V30 5686 C 548.535 1.63882 -0.945489 0
M  V30 5687 O 547.878 1.8354 0.0766052 0
M  V30 5688 C 547.94 1.3385 -3.33653 0
M  V30 5689 C 547.604 0.463103 -4.54648 0
M  V30 5690 C 548.601 -0.277964 -5.19156 0
M  V30 5691 C 546.286 0.388941 -5.00792 0
M  V30 5692 C 548.28 -1.08145 -6.28159 0
M  V30 5693 C 545.967 -0.418217 -6.09667 0
M  V30 5694 C 546.965 -1.15208 -6.73213 0
M  V30 5695 O 546.653 -1.94594 -7.79993 0
M  V30 5696 H 546.385 0.170197 -0.654224 0
M  V30 5697 H 548.939 -0.13647 -2.04946 0
M  V30 5698 H 547.169 2.13055 -3.22714 0
M  V30 5699 H 548.858 1.90851 -3.58233 0
M  V30 5700 H 549.624 -0.230241 -4.84453 0
M  V30 5701 H 545.503 0.949769 -4.5111 0
M  V30 5702 H 549.047 -1.65476 -6.7769 0
M  V30 5703 H 544.944 -0.467515 -6.43805 0
M  V30 5704 H 545.712 -1.8699 -7.96854 0
M  V30 5705 N 548.375 1.56261 0.205012 0
M  V30 5706 C 549.786 1.70056 0.770574 0
M  V30 5707 C 550.137 0.673398 1.84282 0
M  V30 5708 O 549.262 -0.172196 2.15714 0
M  V30 5709 C 549.857 3.08316 1.40451 0
M  V30 5710 C 548.416 3.2391 1.91727 0
M  V30 5711 C 547.563 2.66001 0.783516 0
M  V30 5712 H 550.514 1.58688 -0.019911 0
M  V30 5713 H 550.535 3.05094 2.27371 0
M  V30 5714 H 550.047 3.83053 0.623882 0
M  V30 5715 H 548.148 2.54072 2.7254 0
M  V30 5716 H 548.261 4.3131 2.08588 0
M  V30 5717 H 546.625 2.24915 1.19521 0
M  V30 5718 H 547.408 3.43297 0.0152883 0
M  V30 5719 N 549.853 -0.472356 1.50355 0
M  V30 5720 C 550.8 -1.57051 1.69126 0
M  V30 5721 C 551.77 -1.5733 0.532574 0
M  V30 5722 O 552.955 -1.7488 0.762994 0
M  V30 5723 C 550.095 -2.95033 1.79024 0
M  V30 5724 C 549.208 -3.04552 3.06386 0
M  V30 5725 C 548.343 -4.33441 3.07087 0
M  V30 5726 C 547.382 -4.36697 4.28908 0
M  V30 5727 N 546.519 -5.57056 4.27356 0
M  V30 5728 H 551.359 -1.40351 2.62879 0
M  V30 5729 H 548.896 -0.682403 1.30314 0
M  V30 5730 H 550.854 -3.75048 1.82744 0
M  V30 5731 H 549.484 -3.10371 0.887109 0
M  V30 5732 H 548.536 -2.17419 3.12143 0
M  V30 5733 H 549.848 -3.02818 3.96362 0
M  V30 5734 H 549.002 -5.21801 3.09529 0
M  V30 5735 H 547.741 -4.37782 2.14939 0
M  V30 5736 H 546.746 -3.46734 4.2668 0
M  V30 5737 H 547.971 -4.34049 5.22282 0
M  V30 5738 H 545.917 -5.62184 3.3806 0
M  V30 5739 H 545.834 -5.57058 5.111 0
M  V30 5740 H 547.102 -6.47545 4.33942 0
M  V30 5741 N 551.331 -1.39911 -0.725443 0
M  V30 5742 C 552.263 -1.35301 -1.85003 0
M  V30 5743 C 553.276 -0.260102 -1.60709 0
M  V30 5744 O 554.465 -0.519749 -1.70766 0
M  V30 5745 C 551.565 -1.08039 -3.21218 0
M  V30 5746 C 550.738 -2.28793 -3.7279 0
M  V30 5747 C 549.797 -1.97841 -4.87591 0
M  V30 5748 O 548.823 -2.70616 -5.00755 0
M  V30 5749 N 550.025 -0.950367 -5.72668 0
M  V30 5750 H 552.79 -2.32218 -1.89459 0
M  V30 5751 H 550.351 -1.34137 -0.90658 0
M  V30 5752 H 552.343 -0.853354 -3.95601 0
M  V30 5753 H 550.913 -0.198229 -3.11971 0
M  V30 5754 H 550.133 -2.67388 -2.8965 0
M  V30 5755 H 551.421 -3.09317 -4.03981 0
M  V30 5756 H 550.819 -0.347436 -5.64632 0
M  V30 5757 H 549.376 -0.783232 -6.47077 0
M  V30 5758 N 552.809 0.956637 -1.25245 0
M  V30 5759 C 554.037 1.73571 -1.12608 0
M  V30 5760 C 554.452 1.86063 0.320324 0
M  V30 5761 O 553.809 1.35691 1.22042 0
M  V30 5762 C 553.86 3.15053 -1.77268 0
M  V30 5763 O 553.581 3.03174 -3.16255 0
M  V30 5764 C 555.082 4.09248 -1.70386 0
M  V30 5765 H 552.302 0.543955 -0.392879 0
M  V30 5766 H 554.846 1.20031 -1.65568 0
M  V30 5767 H 553.001 3.65543 -1.28284 0
M  V30 5768 H 553.415 3.9241 -3.48015 0
M  V30 5769 H 554.889 5.06138 -2.20291 0
M  V30 5770 H 555.366 4.34102 -0.667239 0
M  V30 5771 H 555.972 3.64672 -2.18849 0
M  V30 5772 N 554.287 1.06798 1.15896 0
M  V30 5773 C 555.219 0.641263 2.20046 0
M  V30 5774 C 556.232 -0.303355 1.59949 0
M  V30 5775 O 557.421 -0.0935478 1.78255 0
M  V30 5776 C 554.521 -0.0794029 3.38807 0
M  V30 5777 C 553.694 0.879986 4.28457 0
M  V30 5778 C 552.753 0.197638 5.25829 0
M  V30 5779 O 551.779 0.836913 5.63014 0
M  V30 5780 N 552.981 -1.05886 5.70761 0
M  V30 5781 H 555.746 1.53718 2.57276 0
M  V30 5782 H 553.307 0.951951 1.30956 0
M  V30 5783 H 555.299 -0.546418 4.00994 0
M  V30 5784 H 553.869 -0.877193 3.0004 0
M  V30 5785 H 553.089 1.52625 3.63454 0
M  V30 5786 H 554.377 1.53065 4.8523 0
M  V30 5787 H 553.775 -1.59828 5.42652 0
M  V30 5788 H 552.332 -1.46965 6.35015 0
M  V30 5789 N 555.766 -1.3263 0.851289 0
M  V30 5790 C 557.012 -1.9766 0.453694 0
M  V30 5791 C 557.345 -1.67225 -0.987396 0
M  V30 5792 O 556.62 -0.958693 -1.69232 0
M  V30 5793 C 556.903 -3.5344 0.68936 0
M  V30 5794 C 556.756 -3.93517 2.17862 0
M  V30 5795 C 558.075 -4.39866 0.143555 0
M  V30 5796 H 555.194 -0.717989 0.166314 0
M  V30 5797 H 557.836 -1.57068 1.06909 0
M  V30 5798 H 555.986 -3.88147 0.165546 0
M  V30 5799 H 557.658 -3.69006 2.76826 0
M  V30 5800 H 555.901 -3.42798 2.65841 0
M  V30 5801 H 556.572 -5.02065 2.29422 0
M  V30 5802 H 559.048 -4.11875 0.591451 0
M  V30 5803 H 557.924 -5.47858 0.338043 0
M  V30 5804 H 558.185 -4.31696 -0.953466 0
M  V30 5805 N 557.244 -0.608902 -1.45362 0
M  V30 5806 C 558.469 -0.10921 -2.07112 0
M  V30 5807 C 558.894 1.19779 -1.45033 0
M  V30 5808 O 558.252 1.72961 -0.543527 0
M  V30 5809 C 558.3 0.0155745 -3.60597 0
M  V30 5810 O 557.404 1.06546 -3.98399 0
M  V30 5811 H 556.745 -0.0746619 -0.659789 0
M  V30 5812 H 559.275 -0.839283 -1.86594 0
M  V30 5813 H 559.285 0.213364 -4.07442 0
M  V30 5814 H 557.96 -0.938765 -4.05167 0
M  V30 5815 H 556.537 0.844024 -3.63223 0
M  V30 5816 N 558.722 1.53707 -0.348139 0
M  V30 5817 C 559.968 2.01286 0.247332 0
M  V30 5818 C 560.301 1.23546 1.49834 0
M  V30 5819 O 559.576 0.324331 1.91777 0
M  V30 5820 C 559.859 3.55768 0.556858 0
M  V30 5821 C 559.712 4.44216 -0.706564 0
M  V30 5822 C 561.031 4.1841 1.3646 0
M  V30 5823 H 558.15 0.731677 0.0884201 0
M  V30 5824 H 560.792 1.84106 -0.469584 0
M  V30 5825 H 558.942 3.70539 1.16761 0
M  V30 5826 H 560.614 4.41274 -1.34444 0
M  V30 5827 H 558.857 4.12892 -1.33052 0
M  V30 5828 H 559.528 5.50202 -0.445186 0
M  V30 5829 H 562.004 4.07365 0.848113 0
M  V30 5830 H 560.88 5.26563 1.54992 0
M  V30 5831 H 561.141 3.7333 2.36805 0
M  V30 5832 N 560.2 0.0768682 1.57412 0
M  V30 5833 C 561.13 -0.886026 2.16037 0
M  V30 5834 C 562.111 -1.30691 1.08876 0
M  V30 5835 O 563.296 -1.37705 1.36934 0
M  V30 5836 C 560.426 -2.1518 2.72608 0
M  V30 5837 C 559.38 -1.87015 3.8498 0
M  V30 5838 C 558.706 -3.20266 4.28175 0
M  V30 5839 C 560.006 -1.17143 5.08994 0
M  V30 5840 H 561.7 -0.397642 2.96748 0
M  V30 5841 H 559.246 -0.189823 1.42743 0
M  V30 5842 H 561.199 -2.82962 3.12266 0
M  V30 5843 H 559.923 -2.66269 1.89125 0
M  V30 5844 H 558.582 -1.21636 3.45833 0
M  V30 5845 H 558.23 -3.69207 3.41607 0
M  V30 5846 H 557.93 -3.0221 5.03927 0
M  V30 5847 H 559.454 -3.89237 4.70454 0
M  V30 5848 H 560.868 -1.75003 5.45937 0
M  V30 5849 H 559.265 -1.09328 5.90057 0
M  V30 5850 H 560.335 -0.151295 4.84664 0
M  V30 5851 N 561.678 -1.56367 -0.196722 0
M  V30 5852 C 563.089 -1.70462 -0.761545 0
M  V30 5853 C 563.44 -0.683161 -1.83922 0
M  V30 5854 O 562.565 0.160753 -2.15802 0
M  V30 5855 C 563.16 -3.09057 -1.38814 0
M  V30 5856 C 561.719 -3.24922 -1.90007 0
M  V30 5857 C 560.866 -2.66412 -0.769399 0
M  V30 5858 H 563.817 -1.58675 0.0283263 0
M  V30 5859 H 563.838 -3.06296 -2.2575 0
M  V30 5860 H 563.35 -3.83378 -0.603559 0
M  V30 5861 H 561.451 -2.55514 -2.71189 0
M  V30 5862 H 561.564 -4.3241 -2.06297 0
M  V30 5863 H 559.928 -2.25546 -1.18326 0
M  V30 5864 H 560.711 -3.433 0.00291773 0
M  V30 5865 N 563.156 0.464375 -1.50603 0
M  V30 5866 C 564.066 1.58723 -1.72754 0
M  V30 5867 C 565.082 1.62925 -0.610844 0
M  V30 5868 O 566.258 1.8067 -0.889963 0
M  V30 5869 C 563.323 2.94897 -1.82309 0
M  V30 5870 C 562.384 3.0103 -3.06071 0
M  V30 5871 C 561.617 4.30708 -3.1516 0
M  V30 5872 O 561.84 5.2159 -2.30868 0
M  V30 5873 O 560.774 4.42571 -4.0794 0
M  V30 5874 H 564.6 1.42954 -2.67951 0
M  V30 5875 H 562.185 0.644579 -1.3478 0
M  V30 5876 H 564.067 3.75764 -1.90735 0
M  V30 5877 H 562.742 3.10851 -0.902967 0
M  V30 5878 H 561.649 2.19217 -3.03142 0
M  V30 5879 H 562.982 2.90014 -3.97684 0
M  V30 5880 N 564.634 1.40294 0.718013 0
M  V30 5881 C 565.882 1.38167 1.47494 0
M  V30 5882 C 566.203 -0.01607 1.94993 0
M  V30 5883 O 565.473 -0.970396 1.70177 0
M  V30 5884 H 564.053 0.508505 0.547203 0
M  V30 5885 H 566.715 1.75324 0.851322 0
M  V30 5886 H 565.811 2.05503 2.34894 0
M  V30 5887 N 566.112 -0.949982 1.2575 0
M  V30 5888 C 567.36 -1.6918 1.10555 0
M  V30 5889 C 567.681 -1.91773 -0.353298 0
M  V30 5890 O 566.951 -1.50814 -1.25027 0
M  V30 5891 H 565.531 -0.626952 0.406129 0
M  V30 5892 H 568.193 -1.1419 1.57945 0
M  V30 5893 H 567.289 -2.66915 1.61749 0
M  V30 5894 N 567.59 -1.07411 -1.15328 0
M  V30 5895 C 568.5 -0.706438 -2.23711 0
M  V30 5896 C 569.516 0.282586 -1.7169 0
M  V30 5897 O 570.692 0.129066 -2.00986 0
M  V30 5898 C 567.757 -0.11048 -3.46524 0
M  V30 5899 C 566.818 -1.15282 -4.13532 0
M  V30 5900 C 566.051 -0.585205 -5.30482 0
M  V30 5901 O 566.274 0.598549 -5.67251 0
M  V30 5902 O 565.208 -1.33039 -5.87013 0
M  V30 5903 H 569.034 -1.61031 -2.57493 0
M  V30 5904 H 566.619 -0.847113 -1.23062 0
M  V30 5905 H 568.501 0.21957 -4.20828 0
M  V30 5906 H 567.176 0.766703 -3.14489 0
M  V30 5907 H 566.083 -1.53523 -3.41147 0
M  V30 5908 H 567.416 -2.00192 -4.49649 0
M  V30 5909 N 569.068 1.32177 -0.85831 0
M  V30 5910 C 570.296 2.01313 -0.477582 0
M  V30 5911 C 570.711 1.6449 0.926736 0
M  V30 5912 O 570.068 0.868096 1.60531 0
M  V30 5913 C 570.119 3.56293 -0.611337 0
M  V30 5914 O 569.84 3.91794 -1.96034 0
M  V30 5915 C 571.341 4.42702 -0.230093 0
M  V30 5916 H 568.561 0.644323 -0.187322 0
M  V30 5917 H 571.105 1.68674 -1.15626 0
M  V30 5918 H 569.26 3.87395 0.0196494 0
M  V30 5919 H 569.674 4.86513 -1.95973 0
M  V30 5920 H 571.148 5.50727 -0.374674 0
M  V30 5921 H 571.625 4.3129 0.829779 0
M  V30 5922 H 572.231 4.16997 -0.836302 0
M  V30 5923 N 570.547 0.616602 1.45037 0
M  V30 5924 C 571.958 0.199359 1.85633 0
M  V30 5925 C 572.309 -1.24588 1.51566 0
M  V30 5926 O 571.434 -1.94594 0.94668 0
M  V30 5927 C 572.029 0.355033 3.36935 0
M  V30 5928 C 570.588 -0.00758748 3.76399 0
M  V30 5929 C 569.735 0.675256 2.68953 0
M  V30 5930 H 572.686 0.822708 1.3571 0
M  V30 5931 H 572.707 -0.410201 3.78282 0
M  V30 5932 H 572.219 1.40699 3.61698 0
M  V30 5933 H 570.32 -1.05837 3.57252 0
M  V30 5934 H 570.433 0.392346 4.77491 0
M  V30 5935 H 568.797 0.111992 2.54454 0
M  V30 5936 H 569.58 1.72952 2.96551 0
M  V30 5937 N 572.025 -1.5352 0.356285 0
M  V30 5938 C 572.955 -2.28372 -0.486661 0
M  V30 5939 C 573.936 -1.30432 -1.09185 0
M  V30 5940 O 575.121 -1.59291 -1.11085 0
M  V30 5941 C 572.251 -3.06604 -1.63129 0
M  V30 5942 C 571.205 -4.12154 -1.15381 0
M  V30 5943 C 570.531 -4.78415 -2.38796 0
M  V30 5944 C 571.831 -5.21724 -0.245179 0
M  V30 5945 H 573.525 -2.99083 0.137797 0
M  V30 5946 H 571.071 -1.43841 0.0677134 0
M  V30 5947 H 573.024 -3.57712 -2.22755 0
M  V30 5948 H 571.748 -2.33568 -2.28284 0
M  V30 5949 H 570.407 -3.61978 -0.580294 0
M  V30 5950 H 570.055 -4.01959 -3.02387 0
M  V30 5951 H 569.755 -5.49734 -2.07524 0
M  V30 5952 H 571.279 -5.32313 -2.99125 0
M  V30 5953 H 572.693 -5.68391 -0.748646 0
M  V30 5954 H 571.09 -6.00095 -0.0237608 0
M  V30 5955 H 572.16 -4.79596 0.715229 0
M  V30 5956 N 573.503 -0.0852151 -1.57369 0
M  V30 5957 C 574.75 0.580806 -1.93992 0
M  V30 5958 C 575.078 1.68801 -0.966252 0
M  V30 5959 O 574.333 1.95694 0.0158649 0
M  V30 5960 C 574.632 1.18482 -3.3719 0
M  V30 5961 C 574.298 0.2024 -4.50446 0
M  V30 5962 C 572.96 -0.0678318 -4.81152 0
M  V30 5963 C 575.312 -0.46895 -5.19086 0
M  V30 5964 C 572.64 -1.01627 -5.77831 0
M  V30 5965 C 574.992 -1.4058 -6.16782 0
M  V30 5966 C 573.656 -1.68436 -6.45899 0
M  V30 5967 H 572.926 0.212532 -0.709867 0
M  V30 5968 H 575.573 -0.158947 -1.90839 0
M  V30 5969 H 573.878 2.0006 -3.36873 0
M  V30 5970 H 575.575 1.70767 -3.62822 0
M  V30 5971 H 572.165 0.423208 -4.26505 0
M  V30 5972 H 576.349 -0.273307 -4.95547 0
M  V30 5973 H 571.605 -1.2392 -5.9871 0
M  V30 5974 H 575.779 -1.93188 -6.69068 0
M  V30 5975 H 573.406 -2.42088 -7.20623 0
M  V30 5976 N 574.981 1.5647 0.188427 0
M  V30 5977 C 575.928 1.95073 1.23349 0
M  V30 5978 C 576.898 0.812238 1.44886 0
M  V30 5979 O 578.083 1.07095 1.57909 0
M  V30 5980 C 575.223 2.30124 2.57171 0
M  V30 5981 C 574.336 3.57069 2.43157 0
M  V30 5982 C 573.471 3.81411 3.69729 0
M  V30 5983 C 572.51 5.0176 3.50575 0
M  V30 5984 N 571.647 5.22321 4.69175 0
M  V30 5985 H 576.487 2.84171 0.89728 0
M  V30 5986 H 574.024 1.40623 0.431683 0
M  V30 5987 H 575.982 2.48463 3.35145 0
M  V30 5988 H 574.612 1.44159 2.88822 0
M  V30 5989 H 573.664 3.4674 1.56447 0
M  V30 5990 H 574.976 4.452 2.24942 0
M  V30 5991 H 574.13 4.00026 4.56141 0
M  V30 5992 H 572.869 2.91624 3.90905 0
M  V30 5993 H 571.874 4.83061 2.62549 0
M  V30 5994 H 573.099 5.93063 3.30837 0
M  V30 5995 H 571.045 4.35483 4.90602 0
M  V30 5996 H 570.962 6.04643 4.53809 0
M  V30 5997 H 572.23 5.45401 5.56919 0
M  V30 5998 N 576.459 -0.456382 1.50847 0
M  V30 5999 C 577.391 -1.57033 1.66953 0
M  V30 6000 C 578.404 -1.53207 0.550593 0
M  V30 6001 O 579.593 -1.58328 0.824285 0
M  V30 6002 C 576.693 -2.95937 1.65149 0
M  V30 6003 C 575.866 -3.24475 2.93317 0
M  V30 6004 C 574.925 -4.43007 2.83957 0
M  V30 6005 O 573.951 -4.42592 3.57912 0
M  V30 6006 N 575.153 -5.45503 1.9851 0
M  V30 6007 H 577.918 -1.43629 2.63042 0
M  V30 6008 H 575.479 -0.645037 1.48495 0
M  V30 6009 H 577.471 -3.73224 1.56481 0
M  V30 6010 H 576.041 -3.03036 0.767343 0
M  V30 6011 H 575.261 -2.35664 3.16 0
M  V30 6012 H 576.549 -3.4036 3.78196 0
M  V30 6013 H 575.947 -5.48668 1.37766 0
M  V30 6014 H 574.504 -6.21716 1.95735 0
M  V30 6015 N 577.937 -1.40673 -0.710563 0
M  V30 6016 C 579.184 -1.39222 -1.47049 0
M  V30 6017 C 579.512 0.0037691 -1.945 0
M  V30 6018 O 578.767 0.989224 -1.68857 0
M  V30 6019 C 579.066 -2.33253 -2.70791 0
M  V30 6020 C 578.732 -3.80406 -2.42079 0
M  V30 6021 C 577.394 -4.20496 -2.33959 0
M  V30 6022 C 579.746 -4.73375 -2.18094 0
M  V30 6023 C 577.074 -5.51584 -1.99929 0
M  V30 6024 C 579.426 -6.04768 -1.85576 0
M  V30 6025 C 578.09 -6.43895 -1.75941 0
M  V30 6026 H 577.36 -0.509449 -0.538092 0
M  V30 6027 H 580.007 -1.73363 -0.81348 0
M  V30 6028 H 578.312 -1.92314 -3.41354 0
M  V30 6029 H 580.009 -2.29412 -3.28894 0
M  V30 6030 H 576.599 -3.48645 -2.49288 0
M  V30 6031 H 580.783 -4.43217 -2.23321 0
M  V30 6032 H 576.039 -5.80797 -1.91011 0
M  V30 6033 H 580.213 -6.76318 -1.66033 0
M  V30 6034 H 577.84 -7.45387 -1.4934 0
M  V30 6035 N 579.415 0.9433 -1.26252 0
M  V30 6036 C 580.662 1.68925 -1.11672 0
M  V30 6037 C 580.99 1.91499 0.340329 0
M  V30 6038 O 580.245 1.49189 1.26653 0
M  V30 6039 C 580.544 3.07073 -1.82868 0
M  V30 6040 C 580.21 3.04262 -3.32769 0
M  V30 6041 C 578.872 3.03203 -3.7366 0
M  V30 6042 C 581.224 2.96729 -4.28487 0
M  V30 6043 C 578.552 2.92373 -5.0866 0
M  V30 6044 C 580.904 2.87442 -5.63525 0
M  V30 6045 C 579.568 2.84724 -6.03729 0
M  V30 6046 H 578.838 0.618141 -0.408635 0
M  V30 6047 H 581.485 1.10124 -1.56668 0
M  V30 6048 H 579.79 3.69486 -1.30335 0
M  V30 6049 H 581.487 3.63635 -1.69029 0
M  V30 6050 H 578.077 3.05865 -3.00241 0
M  V30 6051 H 582.261 2.96658 -3.97879 0
M  V30 6052 H 577.517 2.88645 -5.38975 0
M  V30 6053 H 581.691 2.80576 -6.37377 0
M  V30 6054 H 579.318 2.76089 -7.08293 0
M  V30 6055 N 580.893 1.08022 1.14757 0
M  V30 6056 C 581.84 0.706657 2.19716 0
M  V30 6057 C 582.81 -0.30525 1.63271 0
M  V30 6058 O 583.995 -0.19015 1.8985 0
M  V30 6059 C 581.135 0.117914 3.44898 0
M  V30 6060 C 580.248 1.18212 4.15512 0
M  V30 6061 C 579.383 0.557659 5.28265 0
M  V30 6062 C 578.422 1.60418 5.90705 0
M  V30 6063 N 577.559 1.0018 6.94916 0
M  V30 6064 H 582.399 1.60603 2.51019 0
M  V30 6065 H 579.936 0.802664 1.23271 0
M  V30 6066 H 581.894 -0.241112 4.16503 0
M  V30 6067 H 580.524 -0.744788 3.1409 0
M  V30 6068 H 579.576 1.65863 3.42335 0
M  V30 6069 H 580.888 1.97533 4.5802 0
M  V30 6070 H 580.042 0.146654 6.06523 0
M  V30 6071 H 578.781 -0.267249 4.86967 0
M  V30 6072 H 577.786 2.02489 5.11154 0
M  V30 6073 H 579.011 2.43149 6.34078 0
M  V30 6074 H 576.957 0.197917 6.55701 0
M  V30 6075 H 576.874 1.73216 7.35889 0
M  V30 6076 H 578.142 0.616523 7.77058 0
M  V30 6077 N 582.371 -1.3172 0.865308 0
M  V30 6078 C 583.319 -2.30569 0.306674 0
M  V30 6079 C 584.313 -1.59317 -0.575724 0
M  V30 6080 O 585.519 -1.73961 -0.462343 0
M  V30 6081 H 581.894 -0.747681 0.0804834 0
M  V30 6082 H 583.865 -2.75165 1.15441 0
M  V30 6083 C 582.614 -3.44358 -0.480952 0
M  V30 6084 H 581.937 -3.99354 0.18876 0
M  V30 6085 H 583.377 -4.15652 -0.837241 0
M  V30 6086 C 581.836 -2.92574 -1.67039 0
M  V30 6087 O 582.366 -2.90954 -2.76964 0
M  V30 6088 N 580.572 -2.48835 -1.50097 0
M  V30 6089 H 580.119 -2.50353 -0.606738 0
M  V30 6090 H 580.077 -2.14543 -2.29823 0
M  V30 6091 N 583.85 -0.624285 -1.44708 0
M  V30 6092 C 585.096 -0.13473 -2.02953 0
M  V30 6093 C 585.451 1.22724 -1.48178 0
M  V30 6094 O 584.744 1.80109 -0.653542 0
M  V30 6095 C 584.938 -0.0546353 -3.57358 0
M  V30 6096 C 584.767 -1.40729 -4.27113 0
M  V30 6097 C 583.537 -1.99231 -4.64365 0
M  V30 6098 C 585.735 -2.33968 -4.58 0
M  V30 6099 N 583.716 -3.27803 -5.19055 0
M  V30 6100 C 585.088 -3.47149 -5.137 0
M  V30 6101 C 587.143 -2.33132 -4.39948 0
M  V30 6102 C 585.846 -4.59682 -5.53249 0
M  V30 6103 C 587.872 -3.44724 -4.8054 0
M  V30 6104 C 587.234 -4.56629 -5.36348 0
M  V30 6105 H 583.332 -0.0930617 -0.776443 0
M  V30 6106 H 585.917 -0.826286 -1.76297 0
M  V30 6107 H 584.088 0.606183 -3.8364 0
M  V30 6108 H 585.82 0.443116 -4.02267 0
M  V30 6109 H 582.575 -1.52251 -4.4846 0
M  V30 6110 H 582.999 -3.93519 -5.50883 0
M  V30 6111 H 587.641 -1.47868 -3.961 0
M  V30 6112 H 585.359 -5.4566 -5.96054 0
M  V30 6113 H 588.945 -3.45245 -4.68291 0
M  V30 6114 H 587.825 -5.41551 -5.67179 0
M  V30 6115 N 585.328 1.53329 -0.364422 0
M  V30 6116 C 586.744 1.59594 -0.0133165 0
M  V30 6117 C 586.944 1.37959 1.46865 0
M  V30 6118 O 586 1.18418 2.2301 0
M  V30 6119 C 587.313 2.97032 -0.468213 0
M  V30 6120 C 588.861 3.10138 -0.422334 0
M  V30 6121 C 589.336 4.49986 -0.853024 0
M  V30 6122 N 590.827 4.56098 -0.808037 0
M  V30 6123 C 591.562 5.62495 -1.11299 0
M  V30 6124 N 591.058 6.7665 -1.48717 0
M  V30 6125 N 592.851 5.52473 -1.03586 0
M  V30 6126 H 585.002 1.65644 -1.32951 0
M  V30 6127 H 587.265 0.77684 -0.543345 0
M  V30 6128 H 586.971 3.18 -1.5023 0
M  V30 6129 H 586.845 3.76918 0.145775 0
M  V30 6130 H 589.232 2.88881 0.602622 0
M  V30 6131 H 589.313 2.32263 -1.0718 0
M  V30 6132 H 588.957 4.7198 -1.87609 0
M  V30 6133 H 588.887 5.26289 -0.180819 0
M  V30 6134 H 591.378 3.74131 -0.532361 0
M  V30 6135 H 591.691 7.53776 -1.70415 0
M  V30 6136 H 590.036 6.78044 -1.52581 0
M  V30 6137 H 593.227 4.6217 -0.742736 0
M  V30 6138 H 593.4 6.35295 -1.27686 0
M  V30 6139 N 586.806 0.0935595 1.57322 0
M  V30 6140 C 588.083 -0.612692 1.85756 0
M  V30 6141 C 588.463 -1.86439 0.99013 0
M  V30 6142 O 587.811 -2.28416 0.0621362 0
M  V30 6143 C 588.021 -0.929547 3.36393 0
M  V30 6144 C 589.369 -1.29366 4.04413 0
M  V30 6145 O 590.393 -1.02061 3.41265 0
M  V30 6146 O 589.252 -1.80498 5.15832 0
M  V30 6147 H 586.346 -0.306444 0.768128 0
M  V30 6148 H 588.892 0.126141 1.69231 0
M  V30 6149 H 587.664 -0.0414766 3.91278 0
M  V30 6150 H 587.287 -1.72441 3.5826 0
M  V30 6151 N 588.284 -1.56567 -0.180126 0
M  V30 6152 C 589.695 -1.7126 -0.743422 0
M  V30 6153 C 590.046 -0.70263 -1.83187 0
M  V30 6154 O 589.171 0.137856 -2.1596 0
M  V30 6155 C 589.766 -3.10512 -1.35528 0
M  V30 6156 C 588.325 -3.26919 -1.8655 0
M  V30 6157 C 587.472 -2.67213 -0.741099 0
M  V30 6158 H 590.423 -1.58636 0.0451543 0
M  V30 6159 H 590.444 -3.08673 -2.22489 0
M  V30 6160 H 589.956 -3.83997 -0.562862 0
M  V30 6161 H 588.057 -2.58376 -2.68464 0
M  V30 6162 H 588.17 -4.34574 -2.01699 0
M  V30 6163 H 586.534 -2.26788 -1.15927 0
M  V30 6164 H 587.317 -3.43277 0.0393291 0
M  V30 6165 N 589.762 0.448376 -1.51087 0
M  V30 6166 C 591.039 1.20926 -1.53741 0
M  V30 6167 C 591.419 2.09025 -0.295222 0
M  V30 6168 O 590.767 2.16851 0.720283 0
M  V30 6169 C 590.977 2.02067 -2.84552 0
M  V30 6170 C 592.325 2.59486 -3.36084 0
M  V30 6171 O 593.349 2.12289 -2.86028 0
M  V30 6172 O 592.208 3.45539 -4.23397 0
M  V30 6173 H 589.302 0.549951 -0.617643 0
M  V30 6174 H 591.848 0.458344 -1.63393 0
M  V30 6175 H 590.62 1.37291 -3.66425 0
M  V30 6176 H 590.243 2.84246 -2.78011 0
M  V30 6177 N 591.24 1.41047 0.703093 0
M  V30 6178 C 592.172 1.38228 1.82827 0
M  V30 6179 C 593.185 0.285637 1.60275 0
M  V30 6180 O 594.374 0.54685 1.69917 0
M  V30 6181 C 591.474 1.13136 3.19458 0
M  V30 6182 C 590.647 2.34695 3.69103 0
M  V30 6183 C 589.706 2.05574 4.84382 0
M  V30 6184 O 588.732 2.78549 4.96386 0
M  V30 6185 N 589.934 1.04135 5.71083 0
M  V30 6186 H 592.699 2.35203 1.85741 0
M  V30 6187 H 590.26 1.35562 0.885125 0
M  V30 6188 H 592.252 0.916183 3.94193 0
M  V30 6189 H 590.822 0.247836 3.11616 0
M  V30 6190 H 590.042 2.71963 2.85359 0
M  V30 6191 H 591.33 3.15705 3.99009 0
M  V30 6192 H 590.728 0.43722 5.64008 0
M  V30 6193 H 589.285 0.886078 6.45749 0
M  V30 6194 N 592.718 -0.936591 1.26751 0
M  V30 6195 C 593.946 -1.71758 1.15355 0
M  V30 6196 C 594.361 -1.86549 -0.290683 0
M  V30 6197 O 593.718 -1.37616 -1.19868 0
M  V30 6198 C 593.769 -3.12193 1.82258 0
M  V30 6199 O 593.49 -2.98105 3.21038 0
M  V30 6200 C 594.991 -4.06485 1.76875 0
M  V30 6201 H 592.211 -0.537636 0.401483 0
M  V30 6202 H 594.755 -1.17382 1.67457 0
M  V30 6203 H 592.91 -3.63456 1.34083 0
M  V30 6204 H 593.324 -3.86824 3.54214 0
M  V30 6205 H 594.798 -5.02569 2.28316 0
M  V30 6206 H 595.275 -4.32986 0.736216 0
M  V30 6207 H 595.881 -3.61144 2.24623 0
M  V30 6208 N 594.196 -1.08629 -1.14182 0
M  V30 6209 C 595.473 -0.73002 -1.81466 0
M  V30 6210 C 595.853 0.785996 -1.95922 0
M  V30 6211 O 595.201 1.70535 -1.52086 0
M  V30 6212 C 595.411 -1.45957 -3.17014 0
M  V30 6213 C 596.759 -1.62008 -3.92477 0
M  V30 6214 O 597.783 -1.42141 -3.26611 0
M  V30 6215 O 596.642 -1.94806 -5.106 0
M  V30 6216 H 593.736 -0.261307 -0.784632 0
M  V30 6217 H 596.282 -1.188 -1.2118 0
M  V30 6218 H 595.054 -2.49221 -3.01669 0
M  V30 6219 H 594.677 -0.993222 -3.84995 0
M  V30 6220 N 595.674 1.31259 -0.872281 0
M  V30 6221 C 596.922 1.96233 -0.483409 0
M  V30 6222 C 597.243 1.69276 0.968012 0
M  V30 6223 O 596.513 1.00943 1.67891 0
M  V30 6224 H 595.093 0.726025 -0.175774 0
M  V30 6225 H 597.755 1.60024 -1.11258 0
M  V30 6226 H 596.851 3.05403 -0.643075 0
M  V30 6227 N 597.152 0.631951 1.44375 0
M  V30 6228 C 598.082 -0.0593243 2.33425 0
M  V30 6229 C 599.063 -0.833964 1.48253 0
M  V30 6230 O 600.248 -0.799682 1.76971 0
M  V30 6231 C 597.378 -1.04096 3.31333 0
M  V30 6232 C 596.332 -0.377899 4.26328 0
M  V30 6233 C 595.658 -1.4695 5.14111 0
M  V30 6234 C 596.958 0.716371 5.17364 0
M  V30 6235 H 598.652 0.684287 2.91475 0
M  V30 6236 H 596.198 0.330518 1.40156 0
M  V30 6237 H 598.151 -1.53331 3.92514 0
M  V30 6238 H 596.875 -1.81547 2.71493 0
M  V30 6239 H 595.534 0.0938054 3.6648 0
M  V30 6240 H 595.182 -2.2349 4.50623 0
M  V30 6241 H 594.882 -1.03121 5.78481 0
M  V30 6242 H 596.406 -1.96363 5.78164 0
M  V30 6243 H 597.82 0.307089 5.72477 0
M  V30 6244 H 596.217 1.07784 5.90341 0
M  V30 6245 H 597.287 1.58316 4.58327 0
M  V30 6246 N 598.631 -1.53133 0.372548 0
M  V30 6247 C 599.879 -2.00958 -0.214534 0
M  V30 6248 C 600.2 -1.26135 -1.48711 0
M  V30 6249 O 599.47 -0.376597 -1.92246 0
M  V30 6250 H 598.05 -0.742456 -0.0822664 0
M  V30 6251 H 600.712 -1.88367 0.500385 0
M  V30 6252 H 599.808 -3.09031 -0.436605 0
M  V30 6253 N 600.109 -0.101901 -1.5727 0
M  V30 6254 C 601.039 0.851544 -2.17419 0
M  V30 6255 C 602.02 1.28942 -1.10941 0
M  V30 6256 O 603.205 1.35509 -1.39107 0
M  V30 6257 C 600.335 2.10816 -2.75996 0
M  V30 6258 C 599.289 1.80867 -3.87906 0
M  V30 6259 C 598.615 3.13413 -4.33216 0
M  V30 6260 C 599.915 1.0903 -5.10793 0
M  V30 6261 H 601.609 0.350381 -2.97343 0
M  V30 6262 H 599.155 0.16709 -1.43027 0
M  V30 6263 H 601.108 2.77959 -3.16729 0
M  V30 6264 H 599.832 2.63227 -1.93337 0
M  V30 6265 H 598.491 1.16119 -3.47724 0
M  V30 6266 H 598.139 3.63725 -3.47438 0
M  V30 6267 H 597.839 2.94155 -5.08671 0
M  V30 6268 H 599.363 3.81704 -4.76586 0
M  V30 6269 H 600.777 1.66295 -5.48652 0
M  V30 6270 H 599.174 0.99927 -5.91722 0
M  V30 6271 H 600.244 0.0741704 -4.84843 0
M  V30 6272 N 601.587 1.56661 0.17182 0
M  V30 6273 C 602.812 1.86459 0.908165 0
M  V30 6274 C 603.237 0.688181 1.75059 0
M  V30 6275 O 602.595 -0.362753 1.77634 0
M  V30 6276 C 602.643 3.14669 1.76112 0
M  V30 6277 O 601.747 2.96858 2.86268 0
M  V30 6278 H 601.088 0.613318 0.254434 0
M  V30 6279 H 603.618 2.03892 0.170113 0
M  V30 6280 H 603.628 3.46061 2.16115 0
M  V30 6281 H 602.303 3.99905 1.14233 0
M  V30 6282 H 600.88 2.76819 2.49852 0
M  V30 6283 N 603.065 -0.440357 1.51323 0
M  V30 6284 C 604.295 -1.21079 1.67402 0
M  V30 6285 C 604.703 -1.85555 0.369599 0
M  V30 6286 O 604.046 -1.71375 -0.661525 0
M  V30 6287 C 604.108 -2.33839 2.73056 0
M  V30 6288 C 603.772 -1.89755 4.15743 0
M  V30 6289 C 604.769 -1.40268 5.0062 0
M  V30 6290 C 602.454 -1.97539 4.61826 0
M  V30 6291 C 604.448 -0.991474 6.29642 0
M  V30 6292 C 602.135 -1.56029 5.90845 0
M  V30 6293 C 603.133 -1.06915 6.7458 0
M  V30 6294 O 602.821 -0.659933 8.01187 0
M  V30 6295 H 602.553 -0.371133 0.56501 0
M  V30 6296 H 605.107 -0.528409 1.98487 0
M  V30 6297 H 603.337 -3.05345 2.37279 0
M  V30 6298 H 605.026 -2.95713 2.78044 0
M  V30 6299 H 605.792 -1.33652 4.66221 0
M  V30 6300 H 601.671 -2.34713 3.96776 0
M  V30 6301 H 605.215 -0.607425 6.9495 0
M  V30 6302 H 601.112 -1.62315 6.24759 0
M  V30 6303 H 601.88 -0.786052 8.14717 0
M  V30 6304 N 604.543 -1.41418 -0.695603 0
M  V30 6305 C 605.473 -1.46035 -1.82197 0
M  V30 6306 C 606.454 -0.319025 -1.67082 0
M  V30 6307 O 607.639 -0.530462 -1.86815 0
M  V30 6308 C 604.769 -1.34179 -3.20333 0
M  V30 6309 C 603.723 -2.46123 -3.50154 0
M  V30 6310 C 603.049 -2.19332 -4.87645 0
M  V30 6311 C 604.349 -3.88463 -3.49133 0
M  V30 6312 H 606.043 -2.40303 -1.78591 0
M  V30 6313 H 603.589 -1.15663 -0.857797 0
M  V30 6314 H 605.542 -1.36021 -3.98844 0
M  V30 6315 H 604.266 -0.363952 -3.24566 0
M  V30 6316 H 602.925 -2.43563 -2.73994 0
M  V30 6317 H 602.573 -1.19891 -4.88503 0
M  V30 6318 H 602.273 -2.94344 -5.08562 0
M  V30 6319 H 603.797 -2.22889 -5.68465 0
M  V30 6320 H 605.211 -3.92738 -4.17648 0
M  V30 6321 H 603.608 -4.63158 -3.81582 0
M  V30 6322 H 604.678 -4.16617 -2.48109 0
M  V30 6323 N 606.021 0.929856 -1.27246 0
M  V30 6324 C 607.246 1.71674 -1.16374 0
M  V30 6325 C 607.671 1.86064 0.276024 0
M  V30 6326 O 607.029 1.3591 1.19992 0
M  V30 6327 C 607.077 3.09526 -1.85003 0
M  V30 6328 O 606.181 3.96142 -1.14653 0
M  V30 6329 H 605.522 0.52629 -0.404863 0
M  V30 6330 H 608.052 1.16381 -1.68276 0
M  V30 6331 H 608.062 3.59852 -1.92276 0
M  V30 6332 H 606.737 2.98369 -2.89739 0
M  V30 6333 H 605.314 3.54584 -1.15433 0
M  V30 6334 N 607.499 1.09233 1.13605 0
M  V30 6335 C 608.724 0.849067 1.89224 0
M  V30 6336 C 609.149 -0.593875 1.78479 0
M  V30 6337 O 608.507 -1.41703 1.13092 0
M  V30 6338 C 608.555 1.28642 3.36873 0
M  V30 6339 O 607.659 0.44363 4.10007 0
M  V30 6340 H 607 0.30767 0.588417 0
M  V30 6341 H 609.53 1.45595 1.43748 0
M  V30 6342 H 609.54 1.27096 3.87699 0
M  V30 6343 H 608.215 2.33729 3.44011 0
M  V30 6344 H 606.792 0.523241 3.69211 0
M  V30 6345 N 608.977 -1.30795 0.87923 0
M  V30 6346 C 609.927 -2.25838 0.313276 0
M  V30 6347 C 610.911 -1.51025 -0.55499 0
M  V30 6348 O 612.103 -1.72413 -0.400353 0
M  V30 6349 C 609.232 -3.39981 -0.476204 0
M  V30 6350 C 608.318 -4.22154 0.405826 0
M  V30 6351 N 608.709 -4.82934 1.50362 0
M  V30 6352 C 607.007 -4.45552 0.199909 0
M  V30 6353 C 607.708 -5.44444 2.0483 0
M  V30 6354 N 606.684 -5.26723 1.34403 0
M  V30 6355 H 610.486 -2.70374 1.15218 0
M  V30 6356 H 608 -1.45168 0.728003 0
M  V30 6357 H 609.997 -4.07108 -0.898251 0
M  V30 6358 H 608.657 -2.96986 -1.31261 0
M  V30 6359 H 609.668 -4.82319 1.8865 0
M  V30 6360 H 606.345 -4.13169 -0.599795 0
M  V30 6361 H 607.735 -6.02701 2.96986 0
M  V30 6362 N 610.455 -0.639598 -1.44038 0
M  V30 6363 C 611.704 -0.144885 -2.01179 0
M  V30 6364 C 612.017 1.24372 -1.50967 0
M  V30 6365 O 613.223 1.83291 -2.00292 0
M  V30 6366 C 611.679 -0.208244 -3.59297 0
M  V30 6367 C 611.287 -1.59869 -4.18504 0
M  V30 6368 C 613.031 0.229568 -4.23879 0
M  V30 6369 C 610.938 -1.61671 -5.68873 0
M  V30 6370 H 609.868 -0.0504005 -0.752314 0
M  V30 6371 H 612.519 -0.799639 -1.65161 0
M  V30 6372 H 610.901 0.513767 -3.92653 0
M  V30 6373 H 612.075 -2.34496 -3.96671 0
M  V30 6374 H 610.39 -1.98131 -3.66242 0
M  V30 6375 H 612.987 0.235758 -5.3418 0
M  V30 6376 H 613.33 1.25848 -3.96822 0
M  V30 6377 H 613.863 -0.440233 -3.95357 0
M  V30 6378 H 610.602 -2.62427 -6.00677 0
M  V30 6379 H 610.122 -0.913489 -5.92803 0
M  V30 6380 H 611.801 -1.35439 -6.32665 0
M  V30 6381 N 611.933 1.52934 -0.380664 0
M  V30 6382 C 612.896 2.24809 0.446473 0
M  V30 6383 C 613.896 1.26133 0.997347 0
M  V30 6384 O 615.086 1.50297 0.880714 0
M  V30 6385 C 612.218 2.99649 1.62553 0
M  V30 6386 H 613.411 2.99343 -0.182677 0
M  V30 6387 H 610.964 1.55736 -0.132618 0
M  V30 6388 H 611.699 2.29395 2.29235 0
M  V30 6389 H 611.484 3.72066 1.23732 0
M  V30 6390 H 612.974 3.54246 2.21133 0
M  V30 6391 N 613.412 0.11024 1.57214 0
M  V30 6392 C 614.36 -0.860586 2.16094 0
M  V30 6393 C 615.354 -1.28156 1.1078 0
M  V30 6394 O 616.56 -1.25433 1.29099 0
M  V30 6395 H 612.935 -0.295606 0.691463 0
M  V30 6396 H 614.906 -0.33942 2.96463 0
M  V30 6397 C 613.655 -2.10421 2.768 0
M  V30 6398 H 612.978 -1.7892 3.5753 0
M  V30 6399 H 614.418 -2.76375 3.21547 0
M  V30 6400 C 612.877 -2.88823 1.73444 0
M  V30 6401 O 613.407 -3.839 1.18251 0
M  V30 6402 N 611.613 -2.52649 1.43586 0
M  V30 6403 H 611.16 -1.754 1.8866 0
M  V30 6404 H 611.118 -3.05403 0.746735 0
M  V30 6405 N 614.89 -1.56749 -0.16351 0
M  V30 6406 C 616.136 -1.82704 -0.880168 0
M  V30 6407 C 616.469 -0.689311 -1.81555 0
M  V30 6408 O 615.744 0.308224 -1.92042 0
M  V30 6409 C 616.027 -3.19084 -1.66905 0
M  V30 6410 C 615.88 -4.43397 -0.756269 0
M  V30 6411 C 617.199 -3.52493 -2.63509 0
M  V30 6412 H 614.318 -0.664608 -0.318535 0
M  V30 6413 H 616.96 -1.89438 -0.146036 0
M  V30 6414 H 615.11 -3.13475 -2.2949 0
M  V30 6415 H 616.782 -4.61079 -0.14269 0
M  V30 6416 H 615.025 -4.33752 -0.0647944 0
M  V30 6417 H 615.696 -5.3539 -1.34393 0
M  V30 6418 H 618.172 -3.58606 -2.11047 0
M  V30 6419 H 617.048 -4.48979 -3.15767 0
M  V30 6420 H 617.309 -2.77597 -3.44082 0
M  V30 6421 N 616.368 0.432326 -1.51554 0
M  V30 6422 C 617.278 1.55023 -1.76082 0
M  V30 6423 C 618.294 1.61593 -0.645265 0
M  V30 6424 O 619.47 1.78742 -0.928086 0
M  V30 6425 C 616.535 2.90964 -1.88523 0
M  V30 6426 C 615.596 2.9447 -3.12388 0
M  V30 6427 C 614.829 4.23926 -3.24225 0
M  V30 6428 O 615.052 5.16576 -2.4188 0
M  V30 6429 O 613.986 4.33818 -4.17235 0
M  V30 6430 H 617.812 1.37238 -2.70923 0
M  V30 6431 H 615.397 0.615845 -1.36117 0
M  V30 6432 H 617.279 3.71633 -1.98662 0
M  V30 6433 H 615.954 3.08865 -0.9687 0
M  V30 6434 H 614.861 2.12737 -3.07723 0
M  V30 6435 H 616.194 2.81514 -4.03746 0
M  V30 6436 N 617.846 1.41785 0.688094 0
M  V30 6437 C 619.262 1.24419 0.999608 0
M  V30 6438 C 619.462 0.138868 2.01021 0
M  V30 6439 O 618.518 -0.494283 2.47615 0
M  V30 6440 C 619.831 2.59625 1.51709 0
M  V30 6441 C 621.379 2.66869 1.63554 0
M  V30 6442 C 621.854 4.0241 2.18702 0
M  V30 6443 N 623.345 4.04295 2.26053 0
M  V30 6444 C 624.08 5.05977 2.69768 0
M  V30 6445 N 623.576 6.18047 3.13033 0
M  V30 6446 N 625.369 4.93336 2.69398 0
M  V30 6447 H 617.52 2.12392 0.0187427 0
M  V30 6448 H 619.783 0.945347 0.0708673 0
M  V30 6449 H 619.489 3.41297 0.849059 0
M  V30 6450 H 619.363 2.82628 2.49803 0
M  V30 6451 H 621.75 1.8555 2.29467 0
M  V30 6452 H 621.831 2.47668 0.639857 0
M  V30 6453 H 621.475 4.8418 1.53402 0
M  V30 6454 H 621.405 4.18955 3.19037 0
M  V30 6455 H 623.896 3.23383 1.9553 0
M  V30 6456 H 624.209 6.91498 3.45038 0
M  V30 6457 H 622.554 6.21572 3.10923 0
M  V30 6458 H 625.745 4.04865 2.34952 0
M  V30 6459 H 625.918 5.72717 3.03148 0
M  V30 6460 N 619.324 -0.923095 1.27737 0
M  V30 6461 C 620.57 -1.67375 1.14514 0
M  V30 6462 C 620.903 -1.91751 -0.307424 0
M  V30 6463 O 620.178 -1.51119 -1.22447 0
M  V30 6464 C 620.461 -3.03745 1.9342 0
M  V30 6465 C 620.314 -2.86581 3.46686 0
M  V30 6466 C 621.633 -4.04144 1.74228 0
M  V30 6467 H 618.752 -0.607427 0.417374 0
M  V30 6468 H 621.394 -1.07089 1.56946 0
M  V30 6469 H 619.544 -3.55204 1.5736 0
M  V30 6470 H 621.216 -2.42203 3.92601 0
M  V30 6471 H 619.459 -2.21829 3.72793 0
M  V30 6472 H 620.13 -3.83381 3.97143 0
M  V30 6473 H 622.606 -3.61712 2.05678 0
M  V30 6474 H 621.482 -4.97543 2.31824 0
M  V30 6475 H 621.743 -4.36661 0.691373 0
M  V30 6476 N 620.802 -1.09834 -1.13024 0
M  V30 6477 C 622.213 -0.855651 -1.65938 0
M  V30 6478 C 622.564 0.615159 -1.86307 0
M  V30 6479 O 621.689 1.47335 -1.58497 0
M  V30 6480 C 622.284 -1.5467 -3.01434 0
M  V30 6481 C 620.843 -1.35088 -3.51323 0
M  V30 6482 C 619.99 -1.6001 -2.26478 0
M  V30 6483 H 622.941 -1.25691 -0.968889 0
M  V30 6484 H 622.962 -0.982179 -3.67605 0
M  V30 6485 H 622.474 -2.61715 -2.86578 0
M  V30 6486 H 620.575 -0.30179 -3.71376 0
M  V30 6487 H 620.688 -2.0886 -4.31178 0
M  V30 6488 H 619.052 -1.02246 -2.33276 0
M  V30 6489 H 619.835 -2.68293 -2.14182 0
M  V30 6490 N 622.28 1.30327 -0.886154 0
M  V30 6491 C 623.527 1.96097 -0.505192 0
M  V30 6492 C 623.855 1.69952 0.945868 0
M  V30 6493 O 623.11 0.997653 1.68361 0
M  V30 6494 C 623.409 3.49906 -0.728042 0
M  V30 6495 C 623.075 3.96103 -2.15437 0
M  V30 6496 C 621.737 4.08428 -2.5444 0
M  V30 6497 C 624.089 4.20177 -3.08384 0
M  V30 6498 C 621.417 4.42189 -3.85598 0
M  V30 6499 C 623.769 4.55407 -4.39075 0
M  V30 6500 C 622.433 4.65941 -4.7797 0
M  V30 6501 H 621.703 0.71757 -0.184863 0
M  V30 6502 H 624.35 1.55171 -1.12223 0
M  V30 6503 H 622.655 3.9179 -0.027978 0
M  V30 6504 H 624.352 3.98869 -0.412862 0
M  V30 6505 H 620.942 3.87017 -1.84162 0
M  V30 6506 H 625.126 4.10134 -2.7947 0
M  V30 6507 H 620.382 4.48544 -4.15473 0
M  V30 6508 H 624.556 4.72986 -5.11133 0
M  V30 6509 H 622.183 4.91856 -5.79639 0
M  V30 6510 N 623.758 0.647228 1.43697 0
M  V30 6511 C 625.035 0.0883758 1.954 0
M  V30 6512 C 625.415 -1.39006 1.58873 0
M  V30 6513 O 624.763 -2.11255 0.87083 0
M  V30 6514 C 624.973 0.328263 3.47453 0
M  V30 6515 C 626.321 0.230009 4.23977 0
M  V30 6516 O 627.345 0.260496 3.55246 0
M  V30 6517 O 626.204 0.148615 5.46298 0
M  V30 6518 H 623.298 -0.0130683 0.826897 0
M  V30 6519 H 625.844 0.72005 1.53666 0
M  V30 6520 H 624.616 1.3535 3.67146 0
M  V30 6521 H 624.239 -0.336772 3.96171 0
M  V30 6522 N 625.236 -1.5273 0.388769 0
M  V30 6523 C 626.199 -2.25043 -0.434544 0
M  V30 6524 C 627.199 -1.26661 -0.990644 0
M  V30 6525 O 628.389 -1.50762 -0.872731 0
M  V30 6526 C 625.521 -3.00507 -1.60961 0
M  V30 6527 H 626.714 -2.99242 0.198549 0
M  V30 6528 H 624.267 -1.55664 0.140875 0
M  V30 6529 H 625.002 -2.30607 -2.28015 0
M  V30 6530 H 624.787 -3.72716 -1.21757 0
M  V30 6531 H 626.277 -3.55413 -2.19251 0
M  V30 6532 N 626.714 -0.118576 -1.57153 0
M  V30 6533 C 627.677 0.817464 -2.14127 0
M  V30 6534 C 628.677 1.1949 -1.07604 0
M  V30 6535 O 629.867 1.12048 -1.33382 0
M  V30 6536 C 626.999 2.10541 -2.68115 0
M  V30 6537 H 628.192 0.322339 -2.98163 0
M  V30 6538 H 625.745 0.130655 -1.55753 0
M  V30 6539 H 626.48 2.64485 -1.87665 0
M  V30 6540 H 626.265 1.84425 -3.4602 0
M  V30 6541 H 627.755 2.77453 -3.12105 0
M  V30 6542 N 628.193 1.56834 0.155195 0
M  V30 6543 C 629.421 1.87049 0.884326 0
M  V30 6544 C 629.836 0.705839 1.7511 0
M  V30 6545 O 629.193 -0.324641 1.79589 0
M  V30 6546 C 629.244 3.1644 1.74781 0
M  V30 6547 O 628.965 4.28417 0.915978 0
M  V30 6548 C 630.466 3.60113 2.58522 0
M  V30 6549 H 627.686 0.620196 0.25612 0
M  V30 6550 H 630.23 2.03946 0.150445 0
M  V30 6551 H 628.385 3.01321 2.43484 0
M  V30 6552 H 628.799 5.02353 1.50803 0
M  V30 6553 H 630.273 4.53508 3.14698 0
M  V30 6554 H 630.75 2.85005 3.34169 0
M  V30 6555 H 631.356 3.77898 1.95124 0
M  V30 6556 N 629.671 -0.424282 1.51781 0
M  V30 6557 C 630.601 -1.52305 1.7699 0
M  V30 6558 C 631.582 -1.5839 0.620209 0
M  V30 6559 O 632.767 -1.73908 0.864268 0
M  V30 6560 C 629.897 -2.90271 1.90683 0
M  V30 6561 C 628.851 -2.99043 3.06198 0
M  V30 6562 C 628.177 -4.39116 3.05092 0
M  V30 6563 C 629.477 -2.7192 4.45934 0
M  V30 6564 H 631.171 -1.31461 2.68995 0
M  V30 6565 H 628.717 -0.630985 1.29439 0
M  V30 6566 H 630.67 -3.6711 2.06901 0
M  V30 6567 H 629.394 -3.12376 0.953365 0
M  V30 6568 H 628.053 -2.24646 2.89706 0
M  V30 6569 H 627.701 -4.58207 2.07498 0
M  V30 6570 H 627.401 -4.45912 3.82669 0
M  V30 6571 H 628.925 -5.17911 3.2342 0
M  V30 6572 H 630.339 -3.38487 4.62709 0
M  V30 6573 H 628.736 -2.90111 5.25315 0
M  V30 6574 H 629.806 -1.67445 4.55072 0
M  V30 6575 N 631.149 -1.42148 -0.680565 0
M  V30 6576 C 632.099 -1.41634 -1.78672 0
M  V30 6577 C 633.083 -0.288494 -1.58293 0
M  V30 6578 O 634.275 -0.530295 -1.68869 0
M  V30 6579 C 631.404 -1.31558 -3.17092 0
M  V30 6580 C 630.49 -2.49265 -3.43115 0
M  V30 6581 N 630.881 -3.74702 -3.39753 0
M  V30 6582 C 629.179 -2.43401 -3.73727 0
M  V30 6583 C 629.88 -4.52854 -3.651 0
M  V30 6584 N 628.856 -3.83181 -3.85582 0
M  V30 6585 H 632.658 -2.3652 -1.74458 0
M  V30 6586 H 630.172 -1.36415 -0.881171 0
M  V30 6587 H 632.169 -1.29272 -3.96351 0
M  V30 6588 H 630.829 -0.376696 -3.22508 0
M  V30 6589 H 631.84 -4.07378 -3.19787 0
M  V30 6590 H 628.517 -1.58062 -3.86423 0
M  V30 6591 H 629.907 -5.61827 -3.6851 0
M  V30 6592 N 632.627 0.916307 -1.28225 0
M  V30 6593 C 633.855 1.69901 -1.18073 0
M  V30 6594 C 634.27 1.86988 0.260968 0
M  V30 6595 O 633.627 1.39505 1.17663 0
M  V30 6596 C 633.678 3.09254 -1.87201 0
M  V30 6597 O 633.399 2.92959 -3.2574 0
M  V30 6598 C 634.9 4.0362 -1.83319 0
M  V30 6599 H 632.12 0.531181 -0.409985 0
M  V30 6600 H 634.664 1.14703 -1.69303 0
M  V30 6601 H 632.819 3.61277 -1.39848 0
M  V30 6602 H 633.233 3.81139 -3.60324 0
M  V30 6603 H 634.707 4.98873 -2.36282 0
M  V30 6604 H 635.184 4.3176 -0.805007 0
M  V30 6605 H 635.79 3.57524 -2.3034 0
M  V30 6606 N 634.105 1.10431 1.1244 0
M  V30 6607 C 635.33 0.869089 1.88313 0
M  V30 6608 C 635.755 -0.574912 1.79099 0
M  V30 6609 O 635.113 -1.40496 1.14589 0
M  V30 6610 C 635.161 1.32208 3.3549 0
M  V30 6611 O 634.265 0.487092 4.09513 0
M  V30 6612 H 633.606 0.313894 0.585121 0
M  V30 6613 H 636.136 1.47111 1.42195 0
M  V30 6614 H 636.146 1.31201 3.86329 0
M  V30 6615 H 634.821 2.37364 3.41513 0
M  V30 6616 H 633.398 0.562372 3.68635 0
M  V30 6617 N 635.583 -1.29855 0.893053 0
M  V30 6618 C 636.811 -1.99976 0.530788 0
M  V30 6619 C 637.226 -1.66889 -0.882799 0
M  V30 6620 O 636.583 -0.910352 -1.58173 0
M  V30 6621 C 636.634 -3.54547 0.705587 0
M  V30 6622 O 636.355 -3.86458 2.06353 0
M  V30 6623 C 637.856 -4.41937 0.347387 0
M  V30 6624 H 635.076 -0.639129 0.204339 0
M  V30 6625 H 637.62 -1.65549 1.20057 0
M  V30 6626 H 635.775 -3.87311 0.0830685 0
M  V30 6627 H 636.189 -4.81146 2.08803 0
M  V30 6628 H 637.663 -5.4954 0.520557 0
M  V30 6629 H 638.14 -4.33339 -0.715139 0
M  V30 6630 H 638.746 -4.14633 0.946567 0
M  V30 6631 N 637.061 -0.65484 -1.43351 0
M  V30 6632 C 638.024 0.0263562 -2.29185 0
M  V30 6633 C 639.024 0.748951 -1.42293 0
M  V30 6634 O 640.214 0.589957 -1.63906 0
M  V30 6635 C 637.346 1.04806 -3.2439 0
M  V30 6636 H 638.539 -0.728883 -2.90908 0
M  V30 6637 H 636.092 -0.416149 -1.50658 0
M  V30 6638 H 636.827 1.83247 -2.67565 0
M  V30 6639 H 636.612 0.533554 -3.88453 0
M  V30 6640 H 638.102 1.52372 -3.88809 0
M  V30 6641 N 638.539 1.52521 -0.396863 0
M  V30 6642 C 639.472 2.23118 0.478926 0
M  V30 6643 C 640.45 1.23475 1.05796 0
M  V30 6644 O 641.634 1.52486 1.10817 0
M  V30 6645 C 638.761 2.95028 1.66362 0
M  V30 6646 C 637.807 4.09002 1.20913 0
M  V30 6647 S 638.64 5.35182 0.184407 0
M  V30 6648 C 639.796 6.10616 1.37471 0
M  V30 6649 H 640.029 2.97056 -0.120542 0
M  V30 6650 H 637.562 1.53334 -0.18109 0
M  V30 6651 H 639.52 3.37066 2.34301 0
M  V30 6652 H 638.181 2.20756 2.23441 0
M  V30 6653 H 637.374 4.58445 2.09389 0
M  V30 6654 H 636.976 3.69016 0.608559 0
M  V30 6655 H 639.268 6.37247 2.30048 0
M  V30 6656 H 640.211 7.02084 0.921051 0
M  V30 6657 H 640.619 5.41499 1.59495 0
M  V30 6658 N 640.017 0.126909 1.57088 0
M  V30 6659 C 640.98 -0.806097 2.14557 0
M  V30 6660 C 641.98 -1.18918 1.08236 0
M  V30 6661 O 643.17 -1.11339 1.33975 0
M  V30 6662 C 640.302 -2.09116 2.69227 0
M  V30 6663 H 641.495 -0.306522 2.98329 0
M  V30 6664 H 639.048 -0.122393 1.5582 0
M  V30 6665 H 639.783 -2.63486 1.89065 0
M  V30 6666 H 639.568 -1.82588 3.46993 0
M  V30 6667 H 641.058 -2.75794 3.13572 0
M  V30 6668 N 641.495 -1.56914 -0.146875 0
M  V30 6669 C 642.458 -1.97368 -1.16526 0
M  V30 6670 C 643.458 -0.860223 -1.35856 0
M  V30 6671 O 644.648 -1.12684 -1.32846 0
M  V30 6672 C 641.78 -2.28974 -2.52555 0
M  V30 6673 H 642.973 -2.88523 -0.818209 0
M  V30 6674 H 640.526 -1.5135 -0.390221 0
M  V30 6675 H 641.261 -1.40611 -2.92231 0
M  V30 6676 H 641.046 -3.10157 -2.39886 0
M  V30 6677 H 642.536 -2.61109 -3.25902 0
M  V30 6678 N 642.974 0.416227 -1.52004 0
M  V30 6679 C 643.906 1.52552 -1.71058 0
M  V30 6680 C 644.919 1.51693 -0.59102 0
M  V30 6681 O 646.108 1.56087 -0.865973 0
M  V30 6682 C 643.208 2.91455 -1.72937 0
M  V30 6683 C 642.381 3.16584 -3.01816 0
M  V30 6684 C 641.44 4.35322 -2.95603 0
M  V30 6685 O 640.466 4.32947 -3.6952 0
M  V30 6686 N 641.668 5.40049 -2.12903 0
M  V30 6687 H 644.433 1.36604 -2.66757 0
M  V30 6688 H 641.994 0.60544 -1.50153 0
M  V30 6689 H 643.986 3.68944 -1.66321 0
M  V30 6690 H 642.556 3.00895 -0.847418 0
M  V30 6691 H 641.776 2.27203 -3.22137 0
M  V30 6692 H 643.064 3.30213 -3.87088 0
M  V30 6693 H 642.462 5.44823 -1.52265 0
M  V30 6694 H 641.019 6.16308 -2.1215 0
M  V30 6695 N 644.452 1.42507 0.673017 0
M  V30 6696 C 645.402 1.4258 1.77919 0
M  V30 6697 C 646.386 0.296885 1.58137 0
M  V30 6698 O 647.578 0.539243 1.68586 0
M  V30 6699 C 644.707 1.33238 3.1639 0
M  V30 6700 C 643.793 2.51081 3.41788 0
M  V30 6701 N 644.184 3.76498 3.37761 0
M  V30 6702 C 642.482 2.4538 3.72431 0
M  V30 6703 C 643.183 4.54784 3.62693 0
M  V30 6704 N 642.159 3.8522 3.83544 0
M  V30 6705 H 645.961 2.37442 1.73201 0
M  V30 6706 H 643.475 1.36881 0.873924 0
M  V30 6707 H 645.472 1.31372 3.9566 0
M  V30 6708 H 644.132 0.393794 3.22303 0
M  V30 6709 H 645.143 4.09068 3.17622 0
M  V30 6710 H 641.82 1.60109 3.85579 0
M  V30 6711 H 643.21 5.63774 3.65525 0
M  V30 6712 N 645.93 -0.909495 1.28709 0
M  V30 6713 C 647.178 -1.65577 1.15882 0
M  V30 6714 C 647.499 -1.928 -0.292108 0
M  V30 6715 O 646.769 -1.54716 -1.20166 0
M  V30 6716 H 645.349 -0.613714 0.425869 0
M  V30 6717 H 648.011 -1.09108 1.61498 0
M  V30 6718 H 647.107 -2.61634 1.70159 0
M  V30 6719 N 647.408 -1.11026 -1.11852 0
M  V30 6720 C 648.341 -0.708501 -2.16923 0
M  V30 6721 C 649.319 0.293196 -1.59935 0
M  V30 6722 O 650.503 0.190641 -1.87533 0
M  V30 6723 C 647.63 -0.0463705 -3.38668 0
M  V30 6724 C 646.676 -1.01252 -4.14307 0
M  V30 6725 S 647.509 -2.53291 -4.71809 0
M  V30 6726 C 648.665 -1.88366 -5.96883 0
M  V30 6727 H 648.898 -1.59854 -2.50667 0
M  V30 6728 H 646.431 -0.927869 -1.2341 0
M  V30 6729 H 648.389 0.329314 -4.09177 0
M  V30 6730 H 647.05 0.820562 -3.03192 0
M  V30 6731 H 646.243 -0.496596 -5.01548 0
M  V30 6732 H 645.845 -1.33042 -3.49537 0
M  V30 6733 H 648.137 -1.21753 -6.6647 0
M  V30 6734 H 649.08 -2.73588 -6.53112 0
M  V30 6735 H 649.488 -1.34562 -5.48227 0
M  V30 6736 N 648.886 1.2938 -0.899927 0
M  V30 6737 C 650.163 1.9046 -0.445443 0
M  V30 6738 C 650.543 1.81683 1.07492 0
M  V30 6739 O 649.891 1.24371 1.91688 0
M  V30 6740 C 650.101 3.35529 -0.960279 0
M  V30 6741 C 651.449 4.12556 -1.00412 0
M  V30 6742 O 652.473 3.44434 -0.907965 0
M  V30 6743 O 651.332 5.34294 -1.14857 0
M  V30 6744 H 648.426 0.815253 -0.138893 0
M  V30 6745 H 650.972 1.37844 -0.989808 0
M  V30 6746 H 649.744 3.36074 -2.00425 0
M  V30 6747 H 649.367 3.95624 -0.395939 0
M  V30 6748 N 650.364 0.662433 1.43002 0
M  V30 6749 C 651.641 0.109096 1.95296 0
M  V30 6750 C 652.021 -1.37313 1.60338 0
M  V30 6751 O 651.369 -2.1032 0.893187 0
M  V30 6752 C 651.579 0.365096 3.47085 0
M  V30 6753 C 652.927 0.274964 4.23709 0
M  V30 6754 O 653.951 0.29816 3.5495 0
M  V30 6755 O 652.81 0.206549 5.4611 0
M  V30 6756 H 649.904 -0.00429724 0.826989 0
M  V30 6757 H 652.45 0.736308 1.52894 0
M  V30 6758 H 651.222 1.39237 3.65689 0
M  V30 6759 H 650.845 -0.294733 3.96506 0
M  V30 6760 N 651.842 -1.52309 0.404946 0
M  V30 6761 C 653.119 -1.94237 -0.230544 0
M  V30 6762 C 653.499 -1.34154 -1.6299 0
M  V30 6763 O 652.847 -0.515713 -2.22604 0
M  V30 6764 C 653.057 -3.48166 -0.241106 0
M  V30 6765 C 654.405 -4.22074 -0.462488 0
M  V30 6766 O 655.429 -3.54754 -0.320644 0
M  V30 6767 O 654.288 -5.41443 -0.741708 0
M  V30 6768 H 651.382 -0.813766 -0.147358 0
M  V30 6769 H 653.928 -1.6333 0.460587 0
M  V30 6770 H 652.7 -3.84269 0.738467 0
M  V30 6771 H 652.323 -3.85422 -0.97651 0
M  V30 6772 N 653.32 -0.135238 -1.57019 0
M  V30 6773 C 654.568 0.51777 -1.95355 0
M  V30 6774 C 654.889 1.6617 -1.02042 0
M  V30 6775 O 654.159 1.95738 -0.0797343 0
M  V30 6776 H 652.739 0.194264 -0.721298 0
M  V30 6777 H 655.401 -0.207983 -1.93787 0
M  V30 6778 H 654.497 0.901675 -2.98791 0
M  V30 6779 N 654.798 1.5699 0.138552 0
M  V30 6780 C 656.026 1.87976 0.864437 0
M  V30 6781 C 656.441 0.724372 1.74351 0
M  V30 6782 O 655.798 -0.305575 1.79924 0
M  V30 6783 C 655.849 3.18276 1.71414 0
M  V30 6784 O 655.57 4.29365 0.870487 0
M  V30 6785 C 657.071 3.62834 2.54688 0
M  V30 6786 H 654.291 0.622878 0.249528 0
M  V30 6787 H 656.835 2.04094 0.128805 0
M  V30 6788 H 654.99 3.03886 2.40274 0
M  V30 6789 H 655.404 5.03924 1.45466 0
M  V30 6790 H 656.878 4.5682 3.0987 0
M  V30 6791 H 657.355 2.88533 3.31127 0
M  V30 6792 H 657.961 3.79946 1.91105 0
M  V30 6793 N 656.276 -0.40816 1.52223 0
M  V30 6794 C 657.524 -1.15274 1.66001 0
M  V30 6795 C 657.845 -1.91003 0.392803 0
M  V30 6796 O 657.115 -1.8673 -0.592336 0
M  V30 6797 H 655.695 -0.428526 0.611861 0
M  V30 6798 H 658.357 -0.46512 1.89269 0
M  V30 6799 H 657.453 -1.86628 2.50153 0
M  V30 6800 N 657.755 -1.42862 -0.66545 0
M  V30 6801 C 658.687 -1.43026 -1.79098 0
M  V30 6802 C 659.7 -0.32803 -1.59461 0
M  V30 6803 O 660.889 -0.591709 -1.68407 0
M  V30 6804 C 657.989 -1.21566 -3.16346 0
M  V30 6805 C 657.162 -2.44399 -3.62751 0
M  V30 6806 C 656.221 -2.18344 -4.78761 0
M  V30 6807 O 655.247 -2.91611 -4.88827 0
M  V30 6808 N 656.449 -1.1924 -5.68122 0
M  V30 6809 H 659.214 -2.40045 -1.79439 0
M  V30 6810 H 656.775 -1.37861 -0.848872 0
M  V30 6811 H 658.767 -1.02037 -3.91625 0
M  V30 6812 H 657.337 -0.330368 -3.10849 0
M  V30 6813 H 656.557 -2.79433 -2.78048 0
M  V30 6814 H 657.845 -3.26173 -3.90498 0
M  V30 6815 H 657.243 -0.586603 -5.6265 0
M  V30 6816 H 655.8 -1.05698 -6.43173 0
M  V30 6817 N 659.233 0.902656 -1.29189 0
M  V30 6818 C 660.18 2.00643 -1.14066 0
M  V30 6819 C 661.15 1.66064 -0.0347756 0
M  V30 6820 O 662.335 1.8973 -0.201752 0
M  V30 6821 C 659.475 3.35214 -0.820104 0
M  V30 6822 C 658.588 3.82594 -2.00614 0
M  V30 6823 C 657.723 5.05727 -1.62522 0
M  V30 6824 C 656.762 5.45469 -2.77724 0
M  V30 6825 N 655.899 6.59789 -2.40048 0
M  V30 6826 H 660.739 2.1291 -2.08502 0
M  V30 6827 H 658.276 1.04271 -1.03759 0
M  V30 6828 H 660.234 4.12643 -0.614949 0
M  V30 6829 H 658.864 3.22682 0.0873452 0
M  V30 6830 H 657.916 3.01226 -2.32308 0
M  V30 6831 H 659.228 4.07999 -2.86946 0
M  V30 6832 H 658.382 5.90732 -1.38277 0
M  V30 6833 H 657.121 4.82155 -0.733333 0
M  V30 6834 H 656.126 4.59 -3.02653 0
M  V30 6835 H 657.351 5.71024 -3.67572 0
M  V30 6836 H 655.297 6.37826 -1.53343 0
M  V30 6837 H 655.214 6.84975 -3.19914 0
M  V30 6838 H 656.482 7.4807 -2.19116 0
M  V30 6839 N 660.711 1.11618 1.11262 0
M  V30 6840 C 661.643 0.734015 2.17129 0
M  V30 6841 C 662.656 -0.235243 1.61091 0
M  V30 6842 O 663.845 -0.0178597 1.78491 0
M  V30 6843 C 660.945 0.0643682 3.38839 0
M  V30 6844 C 660.118 1.06092 4.24339 0
M  V30 6845 C 659.177 0.420482 5.24517 0
M  V30 6846 O 658.203 1.07495 5.58957 0
M  V30 6847 N 659.405 -0.815828 5.74739 0
M  V30 6848 H 662.17 1.64492 2.50524 0
M  V30 6849 H 659.731 1.00664 1.26801 0
M  V30 6850 H 661.723 -0.375851 4.02951 0
M  V30 6851 H 660.293 -0.749147 3.03491 0
M  V30 6852 H 659.513 1.67903 3.56654 0
M  V30 6853 H 660.801 1.73507 4.78302 0
M  V30 6854 H 660.199 -1.36668 5.48943 0
M  V30 6855 H 658.756 -1.199 6.40677 0
M  V30 6856 N 662.189 -1.289 0.906776 0
M  V30 6857 C 663.438 -1.9455 0.532262 0
M  V30 6858 C 663.751 -1.72219 -0.927353 0
M  V30 6859 O 664.957 -2.32033 -1.40971 0
M  V30 6860 C 663.413 -3.48438 0.901041 0
M  V30 6861 C 663.021 -3.79558 2.37991 0
M  V30 6862 C 664.765 -4.20284 0.596777 0
M  V30 6863 C 662.672 -5.26723 2.68918 0
M  V30 6864 H 661.602 -0.728259 0.195333 0
M  V30 6865 H 664.253 -1.46519 1.10474 0
M  V30 6866 H 662.635 -3.95162 0.257419 0
M  V30 6867 H 663.809 -3.43668 3.06967 0
M  V30 6868 H 662.124 -3.20868 2.65391 0
M  V30 6869 H 664.721 -5.28612 0.8046 0
M  V30 6870 H 665.064 -4.13694 -0.465072 0
M  V30 6871 H 665.597 -3.79315 1.19855 0
M  V30 6872 H 662.336 -5.38384 3.73928 0
M  V30 6873 H 661.856 -5.63836 2.04571 0
M  V30 6874 H 663.535 -5.94391 2.55555 0
M  V30 6875 N 663.667 -0.670007 -1.42649 0
M  V30 6876 C 664.913 -0.19923 -2.02422 0
M  V30 6877 C 665.268 1.17947 -1.52007 0
M  V30 6878 O 664.561 1.77939 -0.710512 0
M  V30 6879 C 664.755 -0.168298 -3.57004 0
M  V30 6880 C 664.584 -1.54246 -4.22419 0
M  V30 6881 C 663.354 -2.13904 -4.57792 0
M  V30 6882 C 665.552 -2.4842 -4.50324 0
M  V30 6883 N 663.534 -3.44151 -5.08364 0
M  V30 6884 C 664.905 -3.63317 -5.02395 0
M  V30 6885 C 666.96 -2.47011 -4.32308 0
M  V30 6886 C 665.663 -4.77051 -5.38345 0
M  V30 6887 C 667.689 -3.59838 -4.6933 0
M  V30 6888 C 667.051 -4.73462 -5.21549 0
M  V30 6889 H 663.15 -0.117717 -0.773089 0
M  V30 6890 H 665.734 -0.881955 -1.73579 0
M  V30 6891 H 663.905 0.483824 -3.85375 0
M  V30 6892 H 665.637 0.314914 -4.03473 0
M  V30 6893 H 662.392 -1.66441 -4.4339 0
M  V30 6894 H 662.816 -4.10846 -5.38084 0
M  V30 6895 H 667.458 -1.60394 -3.91195 0
M  V30 6896 H 665.176 -5.64347 -5.78393 0
M  V30 6897 H 668.762 -3.59969 -4.57071 0
M  V30 6898 H 667.642 -5.59321 -5.49663 0
M  V30 6899 N 665.145 1.52092 -0.413018 0
M  V30 6900 C 666.561 1.59471 -0.0640836 0
M  V30 6901 C 666.761 1.42562 1.42402 0
M  V30 6902 O 665.817 1.25453 2.19129 0
M  V30 6903 C 667.13 2.95392 -0.562474 0
M  V30 6904 C 668.678 3.08637 -0.520788 0
M  V30 6905 C 669.153 4.47044 -0.995752 0
M  V30 6906 N 670.644 4.53296 -0.952732 0
M  V30 6907 C 671.379 5.58669 -1.29138 0
M  V30 6908 N 670.875 6.71576 -1.70168 0
M  V30 6909 N 672.668 5.48898 -1.2111 0
M  V30 6910 H 664.819 1.6133 -1.38153 0
M  V30 6911 H 667.082 0.75916 -0.567785 0
M  V30 6912 H 666.788 3.13059 -1.60271 0
M  V30 6913 H 666.662 3.77191 0.0257875 0
M  V30 6914 H 669.049 2.90652 0.510412 0
M  V30 6915 H 669.13 2.28735 -1.14515 0
M  V30 6916 H 668.774 4.65773 -2.0253 0
M  V30 6917 H 668.704 5.25448 -0.348162 0
M  V30 6918 H 671.195 3.72248 -0.651119 0
M  V30 6919 H 671.508 7.47973 -1.9431 0
M  V30 6920 H 669.853 6.72847 -1.74075 0
M  V30 6921 H 673.044 4.59573 -0.889396 0
M  V30 6922 H 673.217 6.30912 -1.47833 0
M  V30 6923 N 666.623 0.143563 1.56945 0
M  V30 6924 C 667.872 -0.50835 1.95189 0
M  V30 6925 C 668.185 -1.66239 1.03073 0
M  V30 6926 O 669.391 -2.3787 1.30882 0
M  V30 6927 C 667.847 -0.955735 3.46978 0
M  V30 6928 C 667.455 0.171183 4.47673 0
M  V30 6929 C 669.199 -1.57763 3.94095 0
M  V30 6930 C 667.106 -0.294279 5.90667 0
M  V30 6931 H 666.036 -0.193679 0.728701 0
M  V30 6932 H 668.687 0.227357 1.82086 0
M  V30 6933 H 667.069 -1.7466 3.55401 0
M  V30 6934 H 668.243 0.948049 4.50942 0
M  V30 6935 H 666.558 0.701273 4.10452 0
M  V30 6936 H 669.155 -1.93745 4.98364 0
M  V30 6937 H 669.498 -2.46531 3.35452 0
M  V30 6938 H 670.031 -0.851728 3.88575 0
M  V30 6939 H 666.77 0.557939 6.53121 0
M  V30 6940 H 666.29 -1.0371 5.90766 0
M  V30 6941 H 667.969 -0.747426 6.42668 0
M  V30 6942 N 668.101 -1.57061 -0.130224 0
M  V30 6943 C 669.011 -2.02802 -1.17934 0
M  V30 6944 C 670.027 -0.946378 -1.46013 0
M  V30 6945 O 671.203 -1.25708 -1.57351 0
M  V30 6946 C 668.268 -2.41368 -2.48882 0
M  V30 6947 C 667.329 -3.63561 -2.28301 0
M  V30 6948 C 666.562 -4.00279 -3.53005 0
M  V30 6949 O 666.785 -3.37463 -4.59864 0
M  V30 6950 O 665.719 -4.93441 -3.44673 0
M  V30 6951 H 669.545 -2.92394 -0.820958 0
M  V30 6952 H 667.13 -1.45475 -0.340197 0
M  V30 6953 H 669.012 -2.66958 -3.26054 0
M  V30 6954 H 667.687 -1.54926 -2.84217 0
M  V30 6955 H 666.594 -3.43136 -1.49025 0
M  V30 6956 H 667.927 -4.50673 -1.97875 0
M  V30 6957 N 669.579 0.400081 -1.52437 0
M  V30 6958 C 670.827 1.14392 -1.6661 0
M  V30 6959 C 671.148 1.90792 -0.402927 0
M  V30 6960 O 670.418 1.87042 0.582425 0
M  V30 6961 H 668.998 0.425275 -0.614125 0
M  V30 6962 H 671.66 0.455076 -1.89513 0
M  V30 6963 H 670.756 1.85298 -2.51139 0
M  V30 6964 N 671.057 1.43213 0.657864 0
M  V30 6965 C 672.282 1.48227 1.45064 0
M  V30 6966 C 672.707 0.0999939 1.87834 0
M  V30 6967 O 672.065 -0.905269 1.57081 0
M  V30 6968 C 672.113 2.42931 2.6649 0
M  V30 6969 O 671.217 1.91237 3.6538 0
M  V30 6970 H 670.558 0.501551 0.435135 0
M  V30 6971 H 673.088 1.8808 0.805431 0
M  V30 6972 H 673.098 2.6008 3.1436 0
M  V30 6973 H 671.773 3.43348 2.34701 0
M  V30 6974 H 670.35 1.83726 3.24498 0
M  V30 6975 N 672.536 -0.895792 1.29666 0
M  V30 6976 C 673.484 -2.02173 1.15017 0
M  V30 6977 C 674.478 -1.69276 0.0647651 0
M  V30 6978 O 675.684 -1.7859 0.224846 0
M  V30 6979 H 672.059 -0.662719 0.355397 0
M  V30 6980 H 674.03 -2.11666 2.10334 0
M  V30 6981 C 672.779 -3.37212 0.847555 0
M  V30 6982 H 672.102 -3.6303 1.67479 0
M  V30 6983 H 673.542 -4.16668 0.785106 0
M  V30 6984 C 672.001 -3.33891 -0.44929 0
M  V30 6985 O 672.531 -3.73673 -1.47415 0
M  V30 6986 N 670.737 -2.86991 -0.456547 0
M  V30 6987 H 670.284 -2.54813 0.377925 0
M  V30 6988 H 670.242 -2.85152 -1.32423 0
M  V30 6989 N 674.014 -1.12206 -1.10668 0
M  V30 6990 C 674.961 -0.787716 -2.16942 0
M  V30 6991 C 675.931 0.244442 -1.64291 0
M  V30 6992 O 677.116 0.119558 -1.90425 0
M  V30 6993 C 674.256 -0.24584 -3.44223 0
M  V30 6994 C 673.369 -1.33552 -4.10838 0
M  V30 6995 C 672.504 -0.753337 -5.25831 0
M  V30 6996 C 671.543 -1.82231 -5.84344 0
M  V30 6997 N 670.68 -1.25902 -6.90719 0
M  V30 6998 H 675.52 -1.69809 -2.44885 0
M  V30 6999 H 673.057 -0.847862 -1.20207 0
M  V30 7000 H 675.015 0.0863639 -4.17111 0
M  V30 7001 H 673.645 0.627702 -3.16638 0
M  V30 7002 H 672.697 -1.78454 -3.35944 0
M  V30 7003 H 674.009 -2.14396 -4.50373 0
M  V30 7004 H 673.163 -0.37166 -6.05561 0
M  V30 7005 H 671.902 0.0863297 -4.87624 0
M  V30 7006 H 670.907 -2.2132 -5.03287 0
M  V30 7007 H 672.132 -2.66515 -6.24617 0
M  V30 7008 H 670.078 -0.44114 -6.54515 0
M  V30 7009 H 669.995 -2.00408 -7.28953 0
M  V30 7010 H 671.263 -0.904498 -7.74235 0
M  V30 7011 N 675.492 1.28418 -0.913599 0
M  V30 7012 C 676.738 1.9527 -0.547484 0
M  V30 7013 C 677.071 1.71745 0.906486 0
M  V30 7014 O 676.346 1.03834 1.64465 0
M  V30 7015 C 676.629 3.49748 -0.857205 0
M  V30 7016 C 676.482 3.82675 -2.3639 0
M  V30 7017 C 677.801 4.3868 -0.353258 0
M  V30 7018 H 674.92 0.709236 -0.200381 0
M  V30 7019 H 677.562 1.51789 -1.14281 0
M  V30 7020 H 675.712 3.86915 -0.350548 0
M  V30 7021 H 677.384 3.55378 -2.94116 0
M  V30 7022 H 675.627 3.29724 -2.81894 0
M  V30 7023 H 676.298 4.90547 -2.53115 0
M  V30 7024 H 678.774 4.08584 -0.787288 0
M  V30 7025 H 677.65 5.45621 -0.599049 0
M  V30 7026 H 677.911 4.35753 0.746413 0
M  V30 7027 N 676.97 0.677563 1.42291 0
M  V30 7028 C 678.381 0.277912 1.8462 0
M  V30 7029 C 678.732 -1.18048 1.56714 0
M  V30 7030 O 677.857 -1.90404 1.02836 0
M  V30 7031 C 678.452 0.497619 3.35126 0
M  V30 7032 C 677.011 0.152063 3.76093 0
M  V30 7033 C 676.158 0.78872 2.65847 0
M  V30 7034 H 679.109 0.879527 1.32098 0
M  V30 7035 H 679.13 -0.24939 3.79682 0
M  V30 7036 H 678.642 1.55913 3.55405 0
M  V30 7037 H 676.743 -0.905896 3.6142 0
M  V30 7038 H 676.856 0.594514 4.75397 0
M  V30 7039 H 675.22 0.219813 2.5375 0
M  V30 7040 H 676.003 1.85374 2.88949 0
M  V30 7041 N 678.448 -1.51871 0.421078 0
M  V30 7042 C 679.694 -2.02237 -0.151014 0
M  V30 7043 C 680.027 -1.30554 -1.43768 0
M  V30 7044 O 679.302 -0.41546 -1.90011 0
M  V30 7045 C 679.585 -3.5802 -0.386482 0
M  V30 7046 C 679.438 -4.40339 0.9177 0
M  V30 7047 C 680.757 -4.24444 -1.16342 0
M  V30 7048 H 677.876 -0.735062 -0.0534102 0
M  V30 7049 H 680.518 -1.81656 0.556888 0
M  V30 7050 H 678.668 -3.75688 -0.989494 0
M  V30 7051 H 680.34 -4.34357 1.55344 0
M  V30 7052 H 678.583 -4.06073 1.526 0
M  V30 7053 H 679.254 -5.47451 0.707187 0
M  V30 7054 H 681.73 -4.10948 -0.652788 0
M  V30 7055 H 680.606 -5.33358 -1.29693 0
M  V30 7056 H 680.867 -3.84204 -2.18724 0
M  V30 7057 N 679.926 -0.151884 -1.56866 0
M  V30 7058 C 681.203 0.543328 -1.87902 0
M  V30 7059 C 681.583 1.82636 -1.05864 0
M  V30 7060 O 680.931 2.28028 -0.146868 0
M  V30 7061 C 681.141 0.804056 -3.39611 0
M  V30 7062 C 682.489 1.14267 -4.08935 0
M  V30 7063 O 683.513 0.893248 -3.44818 0
M  V30 7064 O 682.372 1.61229 -5.22176 0
M  V30 7065 H 679.466 0.277724 -0.778973 0
M  V30 7066 H 682.012 -0.188862 -1.68646 0
M  V30 7067 H 680.784 -0.103772 -3.91162 0
M  V30 7068 H 680.407 1.59025 -3.64413 0
M  V30 7069 N 681.404 1.57128 0.121893 0
M  V30 7070 C 682.815 1.73902 0.679348 0
M  V30 7071 C 683.166 0.770135 1.80453 0
M  V30 7072 O 682.291 -0.0576083 2.16323 0
M  V30 7073 C 682.886 3.15328 1.2391 0
M  V30 7074 C 681.445 3.33618 1.74288 0
M  V30 7075 C 680.592 2.6978 0.641414 0
M  V30 7076 H 683.543 1.58359 -0.104 0
M  V30 7077 H 683.564 3.16718 2.10879 0
M  V30 7078 H 683.076 3.85821 0.419957 0
M  V30 7079 H 681.177 2.68162 2.58689 0
M  V30 7080 H 681.29 4.4176 1.85432 0
M  V30 7081 H 679.654 2.30935 1.0743 0
M  V30 7082 H 680.437 3.42895 -0.166707 0
M  V30 7083 N 682.882 -0.391992 1.52647 0
M  V30 7084 C 683.845 -1.46135 1.7657 0
M  V30 7085 C 684.845 -1.47701 0.635698 0
M  V30 7086 O 686.035 -1.48924 0.903728 0
M  V30 7087 C 683.167 -2.85443 1.86374 0
M  V30 7088 H 684.36 -1.26208 2.72051 0
M  V30 7089 H 681.913 -0.623549 1.43323 0
M  V30 7090 H 682.648 -3.10718 0.928685 0
M  V30 7091 H 682.433 -2.85708 2.68539 0
M  V30 7092 H 683.923 -3.62933 2.06566 0
M  V30 7093 N 684.36 -1.4356 -0.65026 0
M  V30 7094 C 685.588 -1.48779 -1.43779 0
M  V30 7095 C 686.003 -0.106593 -1.88499 0
M  V30 7096 O 685.36 0.883766 -1.59674 0
M  V30 7097 C 685.411 -2.43618 -2.67081 0
M  V30 7098 O 685.132 -3.76367 -2.24231 0
M  V30 7099 C 686.633 -2.5811 -3.60409 0
M  V30 7100 H 683.853 -0.50521 -0.441593 0
M  V30 7101 H 686.397 -1.88332 -0.796941 0
M  V30 7102 H 684.552 -2.07253 -3.273 0
M  V30 7103 H 684.966 -4.27394 -3.0403 0
M  V30 7104 H 686.44 -3.28539 -4.43583 0
M  V30 7105 H 686.917 -1.627 -4.07953 0
M  V30 7106 H 687.523 -2.95298 -3.0607 0
M  V30 7107 N 685.838 0.888903 -1.30139 0
M  V30 7108 C 687.068 1.67115 -1.21474 0
M  V30 7109 C 687.476 1.87852 0.225472 0
M  V30 7110 O 686.819 1.42324 1.16145 0
M  V30 7111 C 686.881 3.0713 -1.86846 0
M  V30 7112 C 686.545 3.09582 -3.36167 0
M  V30 7113 C 687.542 2.88929 -4.32222 0
M  V30 7114 C 685.227 3.31304 -3.77549 0
M  V30 7115 C 687.221 2.89949 -5.67634 0
M  V30 7116 C 684.908 3.31954 -5.13079 0
M  V30 7117 C 685.906 3.113 -6.07932 0
M  V30 7118 O 685.594 3.11758 -7.40987 0
M  V30 7119 H 685.326 0.528372 -0.421662 0
M  V30 7120 H 687.88 1.11919 -1.7223 0
M  V30 7121 H 686.11 3.63973 -1.30615 0
M  V30 7122 H 687.799 3.6749 -1.72354 0
M  V30 7123 H 688.565 2.71948 -4.01584 0
M  V30 7124 H 684.444 3.46417 -3.04165 0
M  V30 7125 H 687.988 2.73746 -6.41645 0
M  V30 7126 H 683.885 3.48469 -5.43359 0
M  V30 7127 H 684.653 3.27951 -7.49927 0
M  V30 7128 N 687.317 1.12792 1.10072 0
M  V30 7129 C 688.565 0.883796 1.81751 0
M  V30 7130 C 688.886 -0.591891 1.858 0
M  V30 7131 O 688.156 -1.43017 1.33876 0
M  V30 7132 H 686.736 0.323978 0.673088 0
M  V30 7133 H 689.398 1.42314 1.33164 0
M  V30 7134 H 688.494 1.26863 2.85153 0
M  V30 7135 N 688.795 -1.27931 0.920396 0
M  V30 7136 C 689.727 -2.26175 0.371169 0
M  V30 7137 C 690.74 -1.55122 -0.494065 0
M  V30 7138 O 691.929 -1.75825 -0.30787 0
M  V30 7139 C 689.029 -3.35376 -0.487481 0
M  V30 7140 C 688.202 -4.35943 0.356772 0
M  V30 7141 C 687.261 -5.24374 -0.438042 0
M  V30 7142 O 686.287 -5.68998 0.151715 0
M  V30 7143 N 687.489 -5.53823 -1.73956 0
M  V30 7144 H 690.254 -2.73938 1.21564 0
M  V30 7145 H 687.815 -1.41482 0.787047 0
M  V30 7146 H 689.807 -3.91476 -1.02609 0
M  V30 7147 H 688.377 -2.87269 -1.23269 0
M  V30 7148 H 687.597 -3.7921 1.07672 0
M  V30 7149 H 688.885 -5.0015 0.934206 0
M  V30 7150 H 688.283 -5.19413 -2.24114 0
M  V30 7151 H 686.84 -6.12653 -2.22486 0
M  V30 7152 N 690.273 -0.685099 -1.4193 0
M  V30 7153 C 691.52 -0.211658 -2.01391 0
M  V30 7154 C 691.848 1.18526 -1.54214 0
M  V30 7155 O 691.103 1.81189 -0.739519 0
M  V30 7156 C 691.402 -0.206154 -3.56805 0
M  V30 7157 C 691.068 -1.54915 -4.23453 0
M  V30 7158 C 689.73 -1.91684 -4.41373 0
M  V30 7159 C 692.082 -2.43317 -4.60919 0
M  V30 7160 C 689.41 -3.16461 -4.94034 0
M  V30 7161 C 691.762 -3.67415 -5.14965 0
M  V30 7162 C 690.426 -4.04341 -5.31098 0
M  V30 7163 H 689.696 -0.0774511 -0.736941 0
M  V30 7164 H 692.343 -0.882121 -1.69973 0
M  V30 7165 H 690.648 0.547841 -3.87951 0
M  V30 7166 H 692.345 0.17753 -4.00607 0
M  V30 7167 H 688.935 -1.25314 -4.09871 0
M  V30 7168 H 693.119 -2.16192 -4.46738 0
M  V30 7169 H 688.375 -3.45078 -5.04709 0
M  V30 7170 H 692.549 -4.3611 -5.42938 0
M  V30 7171 H 690.176 -5.01101 -5.71666 0
M  V30 7172 N 691.751 1.51645 -0.429126 0
M  V30 7173 C 692.981 2.06133 0.138793 0
M  V30 7174 C 693.389 1.29735 1.37716 0
M  V30 7175 O 692.732 0.347955 1.80375 0
M  V30 7176 C 692.794 3.55504 0.534493 0
M  V30 7177 C 692.458 4.53098 -0.595917 0
M  V30 7178 C 693.455 4.98815 -1.46558 0
M  V30 7179 C 691.14 4.96296 -0.774309 0
M  V30 7180 C 693.134 5.86394 -2.4984 0
M  V30 7181 C 690.821 5.83667 -1.81042 0
M  V30 7182 C 691.819 6.28613 -2.67086 0
M  V30 7183 O 691.507 7.14251 -3.68919 0
M  V30 7184 H 691.239 0.675833 0.0150263 0
M  V30 7185 H 693.793 1.96301 -0.604584 0
M  V30 7186 H 692.023 3.63092 1.33045 0
M  V30 7187 H 693.712 3.92545 1.03262 0
M  V30 7188 H 694.478 4.66143 -1.33925 0
M  V30 7189 H 690.357 4.60859 -0.114178 0
M  V30 7190 H 693.901 6.21398 -3.17034 0
M  V30 7191 H 689.798 6.15753 -1.93698 0
M  V30 7192 H 690.566 7.3241 -3.65402 0
M  V30 7193 N 693.229 0.160201 1.56784 0
M  V30 7194 C 694.477 -0.486625 1.96154 0
M  V30 7195 C 694.798 -1.64525 1.04673 0
M  V30 7196 O 694.068 -1.95586 0.110864 0
M  V30 7197 H 692.648 -0.182764 0.724297 0
M  V30 7198 H 695.31 0.238787 1.93432 0
M  V30 7199 H 694.406 -0.854025 3.00188 0
M  V30 7200 N 694.707 -1.5719 -0.113559 0
M  V30 7201 C 695.955 -1.84772 -0.818761 0
M  V30 7202 C 696.276 -0.746196 -1.80158 0
M  V30 7203 O 695.546 0.229305 -1.94553 0
M  V30 7204 H 694.126 -0.681737 -0.305359 0
M  V30 7205 H 696.788 -1.94645 -0.0995845 0
M  V30 7206 H 695.884 -2.80878 -1.36067 0
M  V30 7207 N 696.185 0.383891 -1.52853 0
M  V30 7208 C 697.462 1.14296 -1.58732 0
M  V30 7209 C 697.842 2.07585 -0.383611 0
M  V30 7210 O 697.19 2.1971 0.627661 0
M  V30 7211 C 697.4 1.89816 -2.92867 0
M  V30 7212 C 698.748 2.44998 -3.46787 0
M  V30 7213 O 699.772 1.99966 -2.94774 0
M  V30 7214 O 698.631 3.2727 -4.37672 0
M  V30 7215 H 695.725 0.52326 -0.640413 0
M  V30 7216 H 698.271 0.388631 -1.6519 0
M  V30 7217 H 697.043 1.21626 -3.71918 0
M  V30 7218 H 696.666 2.72199 -2.89816 0
M  V30 7219 N 697.663 1.43903 0.642637 0
M  V30 7220 C 698.888 1.49758 1.43483 0
M  V30 7221 C 699.313 0.119911 1.87717 0
M  V30 7222 O 698.671 -0.888558 1.58033 0
M  V30 7223 C 698.719 2.45744 2.63898 0
M  V30 7224 O 697.823 1.95101 3.63331 0
M  V30 7225 H 697.164 0.506138 0.429791 0
M  V30 7226 H 699.694 1.88923 0.785438 0
M  V30 7227 H 699.704 2.63399 3.11584 0
M  V30 7228 H 698.379 3.45818 2.31046 0
M  V30 7229 H 696.956 1.87158 3.22531 0
M  V30 7230 N 699.141 -0.881989 1.30609 0
M  V30 7231 C 700.371 -1.66469 1.22359 0
M  V30 7232 C 700.779 -1.87969 -0.215507 0
M  V30 7233 O 700.122 -1.42938 -1.15388 0
M  V30 7234 C 700.184 -3.06135 1.88472 0
M  V30 7235 C 699.848 -3.07795 3.37804 0
M  V30 7236 C 700.845 -2.86633 4.33749 0
M  V30 7237 C 698.53 -3.29297 3.793 0
M  V30 7238 C 700.524 -2.86934 5.69164 0
M  V30 7239 C 698.211 -3.29228 5.14832 0
M  V30 7240 C 699.209 -3.08071 6.09574 0
M  V30 7241 O 698.897 -3.07824 7.4263 0
M  V30 7242 H 698.629 -0.526129 0.424458 0
M  V30 7243 H 701.183 -1.11004 1.72821 0
M  V30 7244 H 699.413 -3.63276 1.32543 0
M  V30 7245 H 701.102 -3.66571 1.74301 0
M  V30 7246 H 701.868 -2.69814 4.0302 0
M  V30 7247 H 697.747 -3.44799 3.05998 0
M  V30 7248 H 701.291 -2.70339 6.43088 0
M  V30 7249 H 697.188 -3.45583 5.452 0
M  V30 7250 H 697.956 -3.2397 7.51656 0
M  V30 7251 N 700.619 -1.13374 -1.09472 0
M  V30 7252 C 701.868 -0.889844 -1.8101 0
M  V30 7253 C 702.181 0.585686 -1.86625 0
M  V30 7254 O 703.387 0.946497 -2.54467 0
M  V30 7255 C 701.843 -1.54241 -3.25174 0
M  V30 7256 C 701.451 -3.05343 -3.27826 0
M  V30 7257 C 703.195 -1.37919 -4.0147 0
M  V30 7258 C 701.102 -3.63486 -4.6651 0
M  V30 7259 H 700.032 -0.329256 -0.678311 0
M  V30 7260 H 702.683 -1.36139 -1.23038 0
M  V30 7261 H 701.065 -0.998525 -3.83204 0
M  V30 7262 H 702.239 -3.66307 -2.79563 0
M  V30 7263 H 700.554 -3.21175 -2.65019 0
M  V30 7264 H 703.151 -1.78771 -5.03929 0
M  V30 7265 H 703.494 -0.323987 -4.15037 0
M  V30 7266 H 704.027 -1.89284 -3.49881 0
M  V30 7267 H 700.766 -4.68811 -4.58145 0
M  V30 7268 H 700.286 -3.073 -5.15099 0
M  V30 7269 H 701.965 -3.63134 -5.35484 0
M  V30 7270 N 702.098 1.27442 -0.927168 0
M  V30 7271 C 703.347 1.93679 -0.563146 0
M  V30 7272 C 703.66 1.73673 0.899837 0
M  V30 7273 O 704.866 2.34247 1.37262 0
M  V30 7274 C 703.322 3.46961 -0.95636 0
M  V30 7275 C 702.93 3.75724 -2.43999 0
M  V30 7276 C 704.674 4.19282 -0.663565 0
M  V30 7277 C 702.581 5.22378 -2.77263 0
M  V30 7278 H 701.511 0.725059 -0.206894 0
M  V30 7279 H 704.162 1.44743 -1.12791 0
M  V30 7280 H 702.544 3.94703 -0.320254 0
M  V30 7281 H 703.718 3.38741 -3.12396 0
M  V30 7282 H 702.033 3.16605 -2.70463 0
M  V30 7283 H 704.63 5.27265 -0.888596 0
M  V30 7284 H 704.973 4.14382 0.399198 0
M  V30 7285 H 705.506 3.7736 -1.25875 0
M  V30 7286 H 702.245 5.32367 -3.82446 0
M  V30 7287 H 701.765 5.6051 -2.13516 0
M  V30 7288 H 703.444 5.9025 -2.64979 0
M  V30 7289 N 703.576 0.692616 1.41565 0
M  V30 7290 C 704.506 0.0397325 2.33466 0
M  V30 7291 C 705.487 -0.770334 1.51657 0
M  V30 7292 O 706.672 -0.723903 1.80203 0
M  V30 7293 C 703.802 -0.899495 3.3545 0
M  V30 7294 C 702.756 -0.196738 4.27548 0
M  V30 7295 C 702.082 -1.25012 5.19881 0
M  V30 7296 C 703.382 0.935158 5.1386 0
M  V30 7297 H 705.076 0.807296 2.88311 0
M  V30 7298 H 702.622 0.389665 1.38628 0
M  V30 7299 H 704.575 -1.36545 3.98665 0
M  V30 7300 H 703.299 -1.69869 2.78948 0
M  V30 7301 H 701.958 0.249158 3.65752 0
M  V30 7302 H 701.606 -2.04177 4.59696 0
M  V30 7303 H 701.306 -0.784931 5.82334 0
M  V30 7304 H 702.83 -1.71665 5.85972 0
M  V30 7305 H 704.244 0.549619 5.70659 0
M  V30 7306 H 702.641 1.32726 5.85238 0
M  V30 7307 H 703.711 1.77613 4.512 0
M  V30 7308 N 705.054 -1.51416 0.437162 0
M  V30 7309 C 706.284 -2.06204 -0.127859 0
M  V30 7310 C 706.692 -1.30463 -1.37026 0
M  V30 7311 O 706.035 -0.357516 -1.80187 0
M  V30 7312 C 706.097 -3.55783 -0.515632 0
M  V30 7313 C 705.761 -4.52776 0.619937 0
M  V30 7314 C 706.758 -4.98031 1.49201 0
M  V30 7315 C 704.443 -4.95878 0.800618 0
M  V30 7316 C 706.437 -5.85061 2.52947 0
M  V30 7317 C 704.124 -5.82699 1.84135 0
M  V30 7318 C 705.122 -6.27188 2.70416 0
M  V30 7319 O 704.81 -7.12284 3.72702 0
M  V30 7320 H 704.542 -0.675903 -0.011442 0
M  V30 7321 H 707.096 -1.95977 0.614986 0
M  V30 7322 H 705.326 -3.63793 -1.31118 0
M  V30 7323 H 707.015 -3.93087 -1.01179 0
M  V30 7324 H 707.781 -4.65426 1.36395 0
M  V30 7325 H 703.66 -4.60792 0.138617 0
M  V30 7326 H 707.204 -6.19708 3.20325 0
M  V30 7327 H 703.101 -6.14717 1.9696 0
M  V30 7328 H 703.869 -7.30462 3.69281 0
M  V30 7329 N 706.532 -0.168513 -1.56696 0
M  V30 7330 C 707.48 0.779791 -2.19139 0
M  V30 7331 C 708.474 1.23957 -1.1546 0
M  V30 7332 O 709.68 1.20555 -1.33666 0
M  V30 7333 H 706.055 0.269739 -0.701958 0
M  V30 7334 H 708.026 0.229156 -2.97519 0
M  V30 7335 C 706.775 2.00003 -2.84419 0
M  V30 7336 H 706.098 1.65527 -3.63924 0
M  V30 7337 H 707.538 2.64251 -3.31583 0
M  V30 7338 C 705.997 2.82187 -1.84044 0
M  V30 7339 O 706.527 3.79247 -1.32418 0
M  V30 7340 N 704.733 2.47145 -1.52864 0
M  V30 7341 H 704.28 1.68277 -1.9504 0
M  V30 7342 H 704.238 3.02422 -0.859569 0
M  V30 7343 N 708.01 1.57248 0.105221 0
M  V30 7344 C 709.24 1.89492 0.823175 0
M  V30 7345 C 709.648 0.75934 1.73294 0
M  V30 7346 O 708.991 -0.278182 1.81581 0
M  V30 7347 C 709.053 3.16891 1.69765 0
M  V30 7348 C 708.717 4.46787 0.960769 0
M  V30 7349 C 709.714 5.19061 0.295218 0
M  V30 7350 C 707.399 4.93467 0.937854 0
M  V30 7351 C 709.393 6.36246 -0.383393 0
M  V30 7352 C 707.08 6.10566 0.255452 0
M  V30 7353 C 708.078 6.81804 -0.404003 0
M  V30 7354 O 707.766 7.96673 -1.07549 0
M  V30 7355 H 707.498 0.631512 0.24118 0
M  V30 7356 H 710.052 2.05203 0.0899655 0
M  V30 7357 H 708.282 2.973 2.47285 0
M  V30 7358 H 709.971 3.35046 2.29126 0
M  V30 7359 H 710.737 4.84044 0.304448 0
M  V30 7360 H 706.616 4.37913 1.44058 0
M  V30 7361 H 710.16 6.91787 -0.898696 0
M  V30 7362 H 706.057 6.45039 0.244032 0
M  V30 7363 H 706.825 8.12596 -0.981355 0
M  V30 7364 N 709.488 -0.375779 1.53054 0
M  V30 7365 C 710.904 -0.716764 1.426 0
M  V30 7366 C 711.104 -1.93651 0.556931 0
M  V30 7367 O 710.16 -2.52475 0.0354461 0
M  V30 7368 C 711.473 -0.939499 2.85646 0
M  V30 7369 C 713.021 -1.04015 2.95212 0
M  V30 7370 C 713.496 -1.29543 4.39298 0
M  V30 7371 N 714.987 -1.36335 4.42682 0
M  V30 7372 C 715.722 -1.57778 5.51266 0
M  V30 7373 N 715.218 -1.76604 6.69913 0
M  V30 7374 N 717.011 -1.60065 5.38828 0
M  V30 7375 H 709.162 0.42664 2.08071 0
M  V30 7376 H 711.425 0.128758 0.939215 0
M  V30 7377 H 711.131 -0.115189 3.51511 0
M  V30 7378 H 711.005 -1.85048 3.2869 0
M  V30 7379 H 713.392 -1.85501 2.29507 0
M  V30 7380 H 713.473 -0.106785 2.55577 0
M  V30 7381 H 713.117 -0.485611 5.05573 0
M  V30 7382 H 713.047 -2.24184 4.76497 0
M  V30 7383 H 715.538 -1.23441 3.5717 0
M  V30 7384 H 715.851 -1.9251 7.48438 0
M  V30 7385 H 714.196 -1.73802 6.72917 0
M  V30 7386 H 717.387 -1.44917 4.45103 0
M  V30 7387 H 717.56 -1.76435 6.23518 0
M  V30 7388 N 710.966 -1.44241 -0.634997 0
M  V30 7389 C 711.916 -1.47247 -1.74076 0
M  V30 7390 C 712.9 -0.338708 -1.57295 0
M  V30 7391 O 714.092 -0.583751 -1.67097 0
M  V30 7392 C 711.221 -1.41579 -3.12746 0
M  V30 7393 C 710.307 -2.60055 -3.35011 0
M  V30 7394 N 710.698 -3.85321 -3.27661 0
M  V30 7395 C 708.996 -2.55168 -3.65794 0
M  V30 7396 C 709.697 -4.64241 -3.50508 0
M  V30 7397 N 708.673 -3.95254 -3.73196 0
M  V30 7398 H 712.475 -2.4195 -1.66845 0
M  V30 7399 H 709.989 -1.3915 -0.837326 0
M  V30 7400 H 711.986 -1.41816 -3.92038 0
M  V30 7401 H 710.646 -0.479108 -3.21146 0
M  V30 7402 H 711.657 -4.17345 -3.06665 0
M  V30 7403 H 708.334 -1.70276 -3.81198 0
M  V30 7404 H 709.724 -5.73267 -3.50449 0
M  V30 7405 N 712.444 0.87505 -1.31075 0
M  V30 7406 C 713.692 1.62447 -1.20231 0
M  V30 7407 C 714.013 1.93506 0.240888 0
M  V30 7408 O 713.283 1.57847 1.16022 0
M  V30 7409 H 711.863 0.602207 -0.441991 0
M  V30 7410 H 714.525 1.04788 -1.64334 0
M  V30 7411 H 713.621 2.57031 -1.77036 0
M  V30 7412 N 713.922 1.13953 1.08869 0
M  V30 7413 C 715.17 0.903023 1.80803 0
M  V30 7414 C 715.491 -0.572151 1.86417 0
M  V30 7415 O 714.761 -1.41589 1.35386 0
M  V30 7416 H 713.341 0.331099 0.669614 0
M  V30 7417 H 716.003 1.43719 1.31647 0
M  V30 7418 H 715.099 1.29881 2.83791 0
M  V30 7419 N 715.4 -1.26948 0.933913 0
M  V30 7420 C 716.816 -1.46419 0.635103 0
M  V30 7421 C 717.016 -1.84336 -0.813785 0
M  V30 7422 O 716.072 -1.96061 -1.59111 0
M  V30 7423 C 717.385 -2.55206 1.5903 0
M  V30 7424 C 718.933 -2.69062 1.5992 0
M  V30 7425 C 719.408 -3.81013 2.54152 0
M  V30 7426 N 720.899 -3.88395 2.52395 0
M  V30 7427 C 721.634 -4.74454 3.21996 0
M  V30 7428 N 721.13 -5.64954 4.00997 0
M  V30 7429 N 722.923 -4.68237 3.10983 0
M  V30 7430 H 715.074 -1.00622 1.87053 0
M  V30 7431 H 717.337 -0.503189 0.803433 0
M  V30 7432 H 717.043 -2.34153 2.62422 0
M  V30 7433 H 716.917 -3.52719 1.33677 0
M  V30 7434 H 719.304 -2.89492 0.572569 0
M  V30 7435 H 719.385 -1.72016 1.89325 0
M  V30 7436 H 719.029 -3.61336 3.5693 0
M  V30 7437 H 718.959 -4.77499 2.22041 0
M  V30 7438 H 721.45 -3.23687 1.95025 0
M  V30 7439 H 721.763 -6.27496 4.51074 0
M  V30 7440 H 720.108 -5.6473 4.05099 0
M  V30 7441 H 723.299 -3.96535 2.48753 0
M  V30 7442 H 723.472 -5.35087 3.65494 0
M  V30 7443 N 716.879 -0.700114 -1.41195 0
M  V30 7444 C 717.811 0.00155823 -2.292 0
M  V30 7445 C 718.824 0.739736 -1.45023 0
M  V30 7446 O 720.013 0.589684 -1.68478 0
M  V30 7447 C 717.113 1.02635 -3.22985 0
M  V30 7448 C 716.286 0.356871 -4.35942 0
M  V30 7449 C 715.345 1.28491 -5.10271 0
M  V30 7450 O 714.371 0.775562 -5.63892 0
M  V30 7451 N 715.573 2.61699 -5.18164 0
M  V30 7452 H 718.338 -0.754008 -2.9006 0
M  V30 7453 H 715.899 -0.546504 -1.52397 0
M  V30 7454 H 717.891 1.64902 -3.6958 0
M  V30 7455 H 716.461 1.68341 -2.63401 0
M  V30 7456 H 715.681 -0.445753 -3.91672 0
M  V30 7457 H 716.969 -0.108469 -5.08684 0
M  V30 7458 H 716.367 3.05594 -4.76056 0
M  V30 7459 H 714.924 3.19149 -5.6832 0
M  V30 7460 N 718.357 1.51182 -0.445186 0
M  V30 7461 C 719.605 2.01753 0.11841 0
M  V30 7462 C 719.926 1.33087 1.42523 0
M  V30 7463 O 719.196 0.467891 1.9023 0
M  V30 7464 H 717.776 0.745536 0.0467492 0
M  V30 7465 H 720.438 1.85765 -0.589688 0
M  V30 7466 H 719.534 3.10762 0.288665 0
M  V30 7467 N 719.835 0.176821 1.56605 0
M  V30 7468 C 720.767 -0.782836 2.15417 0
M  V30 7469 C 721.78 -1.18982 1.11117 0
M  V30 7470 O 722.969 -1.12872 1.38283 0
M  V30 7471 C 720.069 -2.06596 2.68647 0
M  V30 7472 C 719.242 -1.82167 3.9766 0
M  V30 7473 C 718.301 -2.94751 4.35899 0
M  V30 7474 O 717.327 -2.65148 5.03672 0
M  V30 7475 N 718.529 -4.2267 3.97907 0
M  V30 7476 H 721.294 -0.280012 2.98389 0
M  V30 7477 H 718.855 -0.00577529 1.61899 0
M  V30 7478 H 720.847 -2.81018 2.91223 0
M  V30 7479 H 719.417 -2.48054 1.90232 0
M  V30 7480 H 718.637 -0.916208 3.83405 0
M  V30 7481 H 719.925 -1.6322 4.81909 0
M  V30 7482 H 719.323 -4.4958 3.43357 0
M  V30 7483 H 717.88 -4.93778 4.25472 0
M  V30 7484 N 721.313 -1.57302 -0.09688 0
M  V30 7485 C 722.562 -1.85183 -0.799388 0
M  V30 7486 C 722.875 -0.765818 -1.79985 0
M  V30 7487 O 724.081 -0.931696 -2.55013 0
M  V30 7488 C 722.537 -3.28399 -1.47249 0
M  V30 7489 C 722.145 -4.45066 -0.511888 0
M  V30 7490 C 723.889 -3.65506 -2.15883 0
M  V30 7491 C 721.796 -5.79315 -1.18948 0
M  V30 7492 H 720.726 -0.690752 -0.302287 0
M  V30 7493 H 723.377 -1.83425 -0.0523104 0
M  V30 7494 H 721.759 -3.24692 -2.26697 0
M  V30 7495 H 722.933 -4.60116 0.250962 0
M  V30 7496 H 721.248 -4.16343 0.0686576 0
M  V30 7497 H 723.845 -4.63087 -2.67309 0
M  V30 7498 H 724.188 -2.94041 -2.94696 0
M  V30 7499 H 724.721 -3.71094 -1.43298 0
M  V30 7500 H 721.46 -6.54007 -0.442198 0
M  V30 7501 H 720.98 -5.68111 -1.9238 0
M  V30 7502 H 722.659 -6.23816 -1.71646 0
M  V30 7503 N 722.791 0.367657 -1.53252 0
M  V30 7504 C 724.04 1.10782 -1.68554 0
M  V30 7505 C 724.353 1.90523 -0.442765 0
M  V30 7506 O 725.559 2.6729 -0.47629 0
M  V30 7507 C 724.015 2.01863 -2.97959 0
M  V30 7508 C 723.623 1.27443 -4.29491 0
M  V30 7509 C 725.367 2.75883 -3.22628 0
M  V30 7510 C 723.274 2.17414 -5.49987 0
M  V30 7511 H 722.204 0.417272 -0.628013 0
M  V30 7512 H 724.855 0.368971 -1.79752 0
M  V30 7513 H 723.237 2.7947 -2.80558 0
M  V30 7514 H 724.411 0.549138 -4.57516 0
M  V30 7515 H 722.726 0.652935 -4.11249 0
M  V30 7516 H 725.323 3.43421 -4.09837 0
M  V30 7517 H 725.666 3.41138 -2.38601 0
M  V30 7518 H 726.199 2.0536 -3.40693 0
M  V30 7519 H 722.938 1.5674 -6.36485 0
M  V30 7520 H 722.458 2.87799 -5.26243 0
M  V30 7521 H 724.137 2.77019 -5.84696 0
M  V30 7522 N 724.269 1.44576 0.627338 0
M  V30 7523 C 725.499 1.50829 1.41189 0
M  V30 7524 C 725.907 0.133083 1.88731 0
M  V30 7525 O 725.25 -0.87199 1.61685 0
M  V30 7526 C 725.312 2.41449 2.66351 0
M  V30 7527 C 724.976 3.88549 2.40579 0
M  V30 7528 C 725.973 4.78981 2.0217 0
M  V30 7529 C 723.658 4.33287 2.54102 0
M  V30 7530 C 725.652 6.12153 1.77618 0
M  V30 7531 C 723.339 5.66505 2.29163 0
M  V30 7532 C 724.337 6.55756 1.9098 0
M  V30 7533 O 724.025 7.86506 1.66321 0
M  V30 7534 H 723.757 0.513797 0.439304 0
M  V30 7535 H 726.311 1.90256 0.774059 0
M  V30 7536 H 724.541 1.96955 3.32784 0
M  V30 7537 H 726.23 2.38608 3.28361 0
M  V30 7538 H 726.996 4.45689 1.91277 0
M  V30 7539 H 722.875 3.64074 2.82792 0
M  V30 7540 H 726.419 6.81776 1.47739 0
M  V30 7541 H 722.316 5.99358 2.39668 0
M  V30 7542 H 723.084 7.98341 1.80536 0
M  V30 7543 N 725.747 -0.868086 1.31537 0
M  V30 7544 C 726.695 -1.99688 1.1928 0
M  V30 7545 C 727.689 -1.69101 0.100656 0
M  V30 7546 O 728.895 -1.78073 0.262677 0
M  V30 7547 H 725.27 -0.655032 0.369374 0
M  V30 7548 H 727.241 -2.07157 2.14776 0
M  V30 7549 C 725.99 -3.35338 0.918892 0
M  V30 7550 H 725.313 -3.59396 1.75142 0
M  V30 7551 H 726.753 -4.14909 0.873311 0
M  V30 7552 C 725.212 -3.34769 -0.378366 0
M  V30 7553 O 725.742 -3.76716 -1.39456 0
M  V30 7554 N 723.948 -2.87895 -0.39557 0
M  V30 7555 H 723.495 -2.53954 0.431889 0
M  V30 7556 H 723.453 -2.87897 -1.26344 0
M  V30 7557 N 727.225 -1.14528 -1.08264 0
M  V30 7558 C 728.471 -0.925721 -1.81113 0
M  V30 7559 C 728.826 0.54185 -1.84612 0
M  V30 7560 O 728.119 1.39628 -1.31205 0
M  V30 7561 C 728.313 -1.46226 -3.26117 0
M  V30 7562 C 728.142 -2.98047 -3.36746 0
M  V30 7563 C 726.912 -3.66508 -3.4785 0
M  V30 7564 C 729.11 -3.95903 -3.28277 0
M  V30 7565 N 727.092 -5.06227 -3.47285 0
M  V30 7566 C 728.463 -5.21883 -3.34721 0
M  V30 7567 C 730.518 -3.88002 -3.12024 0
M  V30 7568 C 729.221 -6.40886 -3.26585 0
M  V30 7569 C 731.247 -5.06553 -3.05219 0
M  V30 7570 C 730.609 -6.31403 -3.12266 0
M  V30 7571 H 726.708 -0.392294 -0.676483 0
M  V30 7572 H 729.292 -1.45567 -1.293 0
M  V30 7573 H 727.463 -0.959076 -3.76373 0
M  V30 7574 H 729.195 -1.18247 -3.8704 0
M  V30 7575 H 725.95 -3.17067 -3.51804 0
M  V30 7576 H 726.374 -5.79172 -3.50555 0
M  V30 7577 H 731.016 -2.9235 -3.05436 0
M  V30 7578 H 728.734 -7.36781 -3.31934 0
M  V30 7579 H 732.32 -5.02191 -2.93761 0
M  V30 7580 H 731.2 -7.21596 -3.07032 0
M  V30 7581 N 728.703 1.26451 -0.940633 0
M  V30 7582 C 729.635 2.25556 -0.407104 0
M  V30 7583 C 730.648 1.55888 0.469324 0
M  V30 7584 O 731.837 1.76292 0.279858 0
M  V30 7585 C 728.937 3.36109 0.434064 0
M  V30 7586 C 728.11 4.3532 -0.426082 0
M  V30 7587 C 727.169 5.25004 0.354563 0
M  V30 7588 O 726.195 5.68684 -0.242219 0
M  V30 7589 N 727.397 5.5652 1.65123 0
M  V30 7590 H 730.162 2.7197 -1.25907 0
M  V30 7591 H 727.723 1.40212 -0.809456 0
M  V30 7592 H 729.715 3.93059 0.963684 0
M  V30 7593 H 728.285 2.89194 1.18683 0
M  V30 7594 H 727.505 3.77449 -1.13692 0
M  V30 7595 H 728.793 4.986 -1.01366 0
M  V30 7596 H 728.191 5.22912 2.15822 0
M  V30 7597 H 726.748 6.16115 2.12711 0
M  V30 7598 N 730.181 0.707592 1.40822 0
M  V30 7599 C 731.429 0.243189 2.00632 0
M  V30 7600 C 731.75 -1.16512 1.56365 0
M  V30 7601 O 731.02 -1.78841 0.799553 0
M  V30 7602 H 729.6 0.0869203 0.741926 0
M  V30 7603 H 732.262 0.911438 1.72275 0
M  V30 7604 H 731.358 0.270014 3.1093 0
M  V30 7605 N 731.66 -1.50943 0.453197 0
M  V30 7606 C 732.623 -2.26684 -0.338705 0
M  V30 7607 C 733.623 -1.30748 -0.936032 0
M  V30 7608 O 734.813 -1.54327 -0.808002 0
M  V30 7609 C 731.945 -3.07063 -1.48071 0
M  V30 7610 H 733.138 -2.98131 0.325289 0
M  V30 7611 H 730.691 -1.54926 0.206771 0
M  V30 7612 H 731.426 -2.4007 -2.18029 0
M  V30 7613 H 731.211 -3.77545 -1.0584 0
M  V30 7614 H 732.701 -3.64393 -2.0398 0
M  V30 7615 N 733.138 -0.185124 -1.56509 0
M  V30 7616 C 734.07 0.771401 -2.15829 0
M  V30 7617 C 735.083 1.18392 -1.11747 0
M  V30 7618 O 736.272 1.12137 -1.38879 0
M  V30 7619 C 733.372 2.05169 -2.69739 0
M  V30 7620 C 732.545 1.80056 -3.98621 0
M  V30 7621 C 731.604 2.92435 -4.37456 0
M  V30 7622 O 730.63 2.62473 -5.05071 0
M  V30 7623 N 731.832 4.20554 -4.00143 0
M  V30 7624 H 734.597 0.264184 -2.98533 0
M  V30 7625 H 732.158 -0.00281069 -1.619 0
M  V30 7626 H 734.15 2.7947 -2.92709 0
M  V30 7627 H 732.72 2.47041 -1.91545 0
M  V30 7628 H 731.94 0.895862 -3.83885 0
M  V30 7629 H 733.228 1.60662 -4.82768 0
M  V30 7630 H 732.626 4.47753 -3.45736 0
M  V30 7631 H 731.183 4.91514 -4.28085 0
M  V30 7632 N 734.616 1.57351 0.0885366 0
M  V30 7633 C 735.841 1.91011 0.80805 0
M  V30 7634 C 736.266 0.780009 1.71165 0
M  V30 7635 O 735.624 -0.268083 1.79307 0
M  V30 7636 C 735.672 3.23562 1.59185 0
M  V30 7637 O 734.776 3.11615 2.7013 0
M  V30 7638 H 734.117 0.625943 0.221565 0
M  V30 7639 H 736.647 2.04507 0.0617954 0
M  V30 7640 H 736.657 3.5703 1.97468 0
M  V30 7641 H 735.332 4.05398 0.928741 0
M  V30 7642 H 733.909 2.89673 2.34827 0
M  V30 7643 N 736.094 -0.359525 1.53444 0
M  V30 7644 C 737.322 -1.12198 1.73837 0
M  V30 7645 C 737.737 -1.82854 0.470107 0
M  V30 7646 O 737.094 -1.73781 -0.557349 0
M  V30 7647 C 737.145 -2.14769 2.90786 0
M  V30 7648 O 736.866 -1.46989 4.12706 0
M  V30 7649 C 738.367 -3.03514 3.231 0
M  V30 7650 H 735.587 -0.33524 0.581253 0
M  V30 7651 H 738.131 -0.416598 2.00212 0
M  V30 7652 H 736.286 -2.80896 2.66788 0
M  V30 7653 H 736.7 -2.15378 4.78239 0
M  V30 7654 H 738.174 -3.71453 4.08322 0
M  V30 7655 H 738.651 -3.68658 2.38721 0
M  V30 7656 H 739.257 -2.42996 3.49046 0
M  V30 7657 N 737.572 -1.44907 -0.619662 0
M  V30 7658 C 738.504 -1.48652 -1.74457 0
M  V30 7659 C 739.517 -0.378596 -1.58337 0
M  V30 7660 O 740.706 -0.644987 -1.6644 0
M  V30 7661 C 737.806 -1.31568 -3.12319 0
M  V30 7662 C 736.979 -2.55816 -3.54792 0
M  V30 7663 C 736.038 -2.33465 -4.71573 0
M  V30 7664 O 735.064 -3.07015 -4.79302 0
M  V30 7665 N 736.266 -1.37254 -5.6404 0
M  V30 7666 H 739.031 -2.45632 -1.71712 0
M  V30 7667 H 736.592 -1.40492 -0.804582 0
M  V30 7668 H 738.584 -1.14445 -3.88181 0
M  V30 7669 H 737.154 -0.429095 -3.09641 0
M  V30 7670 H 736.374 -2.88137 -2.69018 0
M  V30 7671 H 737.662 -3.38431 -3.79924 0
M  V30 7672 H 737.06 -0.765309 -5.60499 0
M  V30 7673 H 735.617 -1.26106 -6.39485 0
M  V30 7674 N 739.05 0.861098 -1.31996 0
M  V30 7675 C 740.327 1.59788 -1.12814 0
M  V30 7676 C 740.707 2.08753 0.313882 0
M  V30 7677 O 740.055 1.87258 1.30946 0
M  V30 7678 C 740.265 2.74901 -2.15012 0
M  V30 7679 C 741.613 3.44643 -2.48004 0
M  V30 7680 O 742.637 2.85119 -2.13508 0
M  V30 7681 O 741.496 4.52044 -3.07113 0
M  V30 7682 H 738.59 0.703408 -0.434909 0
M  V30 7683 H 741.136 0.905788 -1.43505 0
M  V30 7684 H 739.908 2.36198 -3.11971 0
M  V30 7685 H 739.531 3.51792 -1.85279 0
M  V30 7686 N 740.528 1.15101 1.07655 0
M  V30 7687 C 741.438 0.858869 2.18313 0
M  V30 7688 C 742.454 -0.163641 1.73229 0
M  V30 7689 O 743.63 0.00969541 2.01398 0
M  V30 7690 C 740.695 0.34893 3.4494 0
M  V30 7691 C 739.756 1.43495 4.04608 0
M  V30 7692 C 738.989 0.949253 5.2519 0
M  V30 7693 O 739.212 -0.20636 5.70027 0
M  V30 7694 O 738.146 1.73161 5.76454 0
M  V30 7695 H 741.972 1.78386 2.45788 0
M  V30 7696 H 739.557 0.929876 1.16934 0
M  V30 7697 H 741.439 0.070851 4.2134 0
M  V30 7698 H 740.114 -0.548237 3.19024 0
M  V30 7699 H 739.021 1.7666 3.29761 0
M  V30 7700 H 740.354 2.30692 4.3479 0
M  V30 7701 N 742.006 -1.2595 0.947325 0
M  V30 7702 C 743.252 -1.9375 0.599064 0
M  V30 7703 C 743.585 -1.74088 -0.860632 0
M  V30 7704 O 742.86 -1.08158 -1.61654 0
M  V30 7705 C 743.143 -3.47353 0.949634 0
M  V30 7706 C 742.996 -3.76273 2.46452 0
M  V30 7707 C 744.315 -4.37589 0.469442 0
M  V30 7708 H 741.434 -0.703674 0.219115 0
M  V30 7709 H 744.076 -1.48705 1.18266 0
M  V30 7710 H 742.226 -3.8585 0.453008 0
M  V30 7711 H 743.898 -3.47455 3.03435 0
M  V30 7712 H 742.141 -3.22135 2.90537 0
M  V30 7713 H 742.812 -4.83664 2.66032 0
M  V30 7714 H 745.288 -4.06353 0.89534 0
M  V30 7715 H 744.164 -5.43841 0.7435 0
M  V30 7716 H 744.425 -4.37579 -0.630618 0
M  V30 7717 N 743.484 -0.715051 -1.40445 0
M  V30 7718 C 744.447 -0.0708726 -2.2909 0
M  V30 7719 C 745.447 0.687926 -1.45342 0
M  V30 7720 O 746.637 0.519908 -1.66261 0
M  V30 7721 C 743.769 0.909528 -3.28543 0
M  V30 7722 H 744.962 -0.851611 -2.87555 0
M  V30 7723 H 742.515 -0.479674 -1.48758 0
M  V30 7724 H 743.25 1.71734 -2.75096 0
M  V30 7725 H 743.035 0.368318 -3.90366 0
M  V30 7726 H 744.525 1.35744 -3.94922 0
M  V30 7727 N 744.962 1.50701 -0.461195 0
M  V30 7728 C 745.925 2.2686 0.326679 0
M  V30 7729 C 746.925 1.31243 0.929085 0
M  V30 7730 O 748.115 1.54754 0.799807 0
M  V30 7731 C 745.247 3.07844 1.46441 0
M  V30 7732 H 746.44 2.97954 -0.341095 0
M  V30 7733 H 743.993 1.54814 -0.214984 0
M  V30 7734 H 744.728 2.41223 2.16753 0
M  V30 7735 H 744.513 3.78101 1.03836 0
M  V30 7736 H 746.003 3.65469 2.02044 0
M  V30 7737 N 746.441 0.193421 1.56409 0
M  V30 7738 C 747.666 -0.454552 2.02358 0
M  V30 7739 C 748.091 -1.54516 1.07268 0
M  V30 7740 O 747.449 -1.81214 0.0558962 0
M  V30 7741 C 747.497 -0.989469 3.46759 0
M  V30 7742 O 746.601 -2.10244 3.54783 0
M  V30 7743 H 745.942 -0.106417 0.655417 0
M  V30 7744 H 748.472 0.303807 2.02332 0
M  V30 7745 H 748.482 -1.30649 3.86516 0
M  V30 7746 H 747.157 -0.191083 4.15461 0
M  V30 7747 H 745.734 -1.79419 3.26899 0
M  V30 7748 N 747.919 -1.57396 -0.0801906 0
M  V30 7749 C 748.882 -2.02133 -1.0805 0
M  V30 7750 C 749.882 -0.91707 -1.32085 0
M  V30 7751 O 751.072 -1.18217 -1.27947 0
M  V30 7752 C 748.204 -2.39479 -2.42616 0
M  V30 7753 H 749.397 -2.91733 -0.6951 0
M  V30 7754 H 746.95 -1.52869 -0.325677 0
M  V30 7755 H 747.685 -1.52879 -2.86004 0
M  V30 7756 H 747.47 -3.20052 -2.26515 0
M  V30 7757 H 748.96 -2.74697 -3.14534 0
M  V30 7758 N 749.397 0.351382 -1.53633 0
M  V30 7759 C 750.646 1.08988 -1.69719 0
M  V30 7760 C 750.959 1.90043 -0.462948 0
M  V30 7761 O 752.165 2.66769 -0.504613 0
M  V30 7762 C 750.621 1.98691 -3.00083 0
M  V30 7763 C 750.229 1.22881 -4.30818 0
M  V30 7764 C 751.973 2.72446 -3.25536 0
M  V30 7765 C 749.88 2.11568 -5.52262 0
M  V30 7766 H 748.81 0.410588 -0.632403 0
M  V30 7767 H 751.461 0.349886 -1.80133 0
M  V30 7768 H 749.843 2.76478 -2.83506 0
M  V30 7769 H 751.017 0.500582 -4.58073 0
M  V30 7770 H 749.332 0.60928 -4.11918 0
M  V30 7771 H 751.929 3.39055 -4.13456 0
M  V30 7772 H 752.272 3.38588 -2.42206 0
M  V30 7773 H 752.805 2.01735 -3.42852 0
M  V30 7774 H 749.544 1.4998 -6.38111 0
M  V30 7775 H 749.064 2.82201 -5.29266 0
M  V30 7776 H 750.743 2.70802 -5.87601 0
M  V30 7777 N 750.875 1.45233 0.611969 0
M  V30 7778 C 751.805 1.5641 1.73373 0
M  V30 7779 C 752.786 0.415896 1.64937 0
M  V30 7780 O 753.971 0.638478 1.83404 0
M  V30 7781 C 751.101 1.52627 3.11965 0
M  V30 7782 C 750.055 2.66119 3.35208 0
M  V30 7783 C 749.381 2.4739 4.74028 0
M  V30 7784 C 750.681 4.08157 3.25891 0
M  V30 7785 H 752.375 2.50307 1.64277 0
M  V30 7786 H 749.921 1.20467 0.788904 0
M  V30 7787 H 751.874 1.59043 3.90235 0
M  V30 7788 H 750.598 0.552564 3.21892 0
M  V30 7789 H 749.257 2.59123 2.59327 0
M  V30 7790 H 748.905 1.48168 4.80682 0
M  V30 7791 H 748.605 3.23494 4.90536 0
M  V30 7792 H 750.129 2.55653 5.54503 0
M  V30 7793 H 751.543 4.1642 3.9404 0
M  V30 7794 H 749.94 4.84617 3.5393 0
M  V30 7795 H 751.01 4.30374 2.23397 0
M  V30 7796 N 752.353 -0.854086 1.3245 0
M  V30 7797 C 753.581 -1.64074 1.26045 0
M  V30 7798 C 753.996 -1.8802 -0.171456 0
M  V30 7799 O 753.353 -1.4496 -1.10873 0
M  V30 7800 C 753.404 -2.9997 2.01743 0
M  V30 7801 O 753.125 -2.77084 3.39346 0
M  V30 7802 C 754.626 -3.94414 2.02368 0
M  V30 7803 H 751.846 -0.511015 0.434862 0
M  V30 7804 H 754.39 -1.06494 1.74583 0
M  V30 7805 H 752.545 -3.54193 1.56926 0
M  V30 7806 H 752.959 -3.63514 3.78098 0
M  V30 7807 H 754.433 -4.87032 2.59815 0
M  V30 7808 H 754.91 -4.27427 1.01009 0
M  V30 7809 H 755.516 -3.46127 2.47135 0
M  V30 7810 N 753.831 -1.1567 -1.07043 0
M  V30 7811 C 754.794 -0.858906 -2.12498 0
M  V30 7812 C 755.794 0.142735 -1.60165 0
M  V30 7813 O 756.984 -0.0872678 -1.73981 0
M  V30 7814 C 754.116 -0.283021 -3.39723 0
M  V30 7815 H 755.309 -1.79368 -2.40348 0
M  V30 7816 H 752.862 -0.964608 -1.22984 0
M  V30 7817 H 753.597 0.659796 -3.17517 0
M  V30 7818 H 753.382 -1.00467 -3.7901 0
M  V30 7819 H 754.872 -0.0923543 -4.17498 0
M  V30 7820 N 755.309 1.25446 -0.953992 0
M  V30 7821 C 756.241 2.25111 -0.431004 0
M  V30 7822 C 757.254 1.56377 0.452764 0
M  V30 7823 O 758.443 1.76579 0.261144 0
M  V30 7824 C 755.543 3.3655 0.39839 0
M  V30 7825 C 754.716 4.34843 -0.472229 0
M  V30 7826 C 753.775 5.25351 0.29886 0
M  V30 7827 O 752.801 5.68396 -0.302522 0
M  V30 7828 N 754.003 5.5824 1.59211 0
M  V30 7829 H 756.768 2.70619 -1.28785 0
M  V30 7830 H 754.329 1.39346 -0.824281 0
M  V30 7831 H 756.321 3.94059 0.921941 0
M  V30 7832 H 754.891 2.90436 1.15609 0
M  V30 7833 H 754.111 3.76222 -1.17689 0
M  V30 7834 H 755.399 4.97497 -1.06648 0
M  V30 7835 H 754.797 5.25172 2.10264 0
M  V30 7836 H 753.354 6.18336 2.06164 0
M  V30 7837 N 756.787 0.722489 1.40064 0
M  V30 7838 C 757.717 0.0892452 2.33329 0
M  V30 7839 C 758.698 -0.737992 1.53257 0
M  V30 7840 O 759.883 -0.685516 1.81698 0
M  V30 7841 C 757.013 -0.828139 3.37282 0
M  V30 7842 C 755.967 -0.106005 4.27869 0
M  V30 7843 C 755.293 -1.13957 5.22415 0
M  V30 7844 C 756.593 1.04395 5.11761 0
M  V30 7845 H 758.287 0.868269 2.86534 0
M  V30 7846 H 755.833 0.418982 1.3777 0
M  V30 7847 H 757.786 -1.28058 4.01471 0
M  V30 7848 H 756.51 -1.63914 2.82489 0
M  V30 7849 H 755.169 0.326683 3.65142 0
M  V30 7850 H 754.817 -1.9438 4.63924 0
M  V30 7851 H 754.517 -0.661233 5.83868 0
M  V30 7852 H 756.041 -1.59197 5.89482 0
M  V30 7853 H 757.455 0.670541 5.69365 0
M  V30 7854 H 755.852 1.4511 5.82291 0
M  V30 7855 H 756.922 1.87144 4.47331 0
M  V30 7856 N 758.265 -1.50454 0.469181 0
M  V30 7857 C 759.542 -1.9504 -0.147955 0
M  V30 7858 C 759.922 -1.40946 -1.57154 0
M  V30 7859 O 759.27 -0.609663 -2.20217 0
M  V30 7860 C 759.48 -3.48875 -0.0932198 0
M  V30 7861 C 760.828 -4.23655 -0.283056 0
M  V30 7862 O 761.852 -3.55795 -0.169892 0
M  V30 7863 O 760.711 -5.44102 -0.511396 0
M  V30 7864 H 757.805 -0.819283 -0.11271 0
M  V30 7865 H 760.351 -1.6123 0.529446 0
M  V30 7866 H 759.123 -3.80791 0.900784 0
M  V30 7867 H 758.746 -3.89217 -0.812161 0
M  V30 7868 N 759.743 -0.201713 -1.56304 0
M  V30 7869 C 760.653 0.728296 -2.23009 0
M  V30 7870 C 761.669 1.22945 -1.23128 0
M  V30 7871 O 762.845 1.27523 -1.55884 0
M  V30 7872 C 759.91 1.92792 -2.88153 0
M  V30 7873 C 758.971 1.47068 -4.03323 0
M  V30 7874 C 758.204 2.61312 -4.65351 0
M  V30 7875 O 758.427 3.7896 -4.26317 0
M  V30 7876 O 757.361 2.33646 -5.54701 0
M  V30 7877 H 761.187 0.190166 -3.03104 0
M  V30 7878 H 758.772 0.0278725 -1.49374 0
M  V30 7879 H 760.654 2.6289 -3.29343 0
M  V30 7880 H 759.329 2.45452 -2.11033 0
M  V30 7881 H 758.236 0.738299 -3.66742 0
M  V30 7882 H 759.569 0.990666 -4.82127 0
M  V30 7883 N 761.222 1.57436 0.0718424 0
M  V30 7884 C 762.132 2.07039 1.10326 0
M  V30 7885 C 763.148 0.999918 1.424 0
M  V30 7886 O 764.324 1.31462 1.52577 0
M  V30 7887 C 761.389 2.50439 2.39752 0
M  V30 7888 C 760.45 3.71784 2.14651 0
M  V30 7889 C 759.683 4.13104 3.37906 0
M  V30 7890 O 759.906 3.54298 4.47023 0
M  V30 7891 O 758.84 5.05894 3.26121 0
M  V30 7892 H 762.666 2.95239 0.711872 0
M  V30 7893 H 760.251 1.46638 0.28597 0
M  V30 7894 H 762.133 2.78876 3.15921 0
M  V30 7895 H 760.808 1.65368 2.78271 0
M  V30 7896 H 759.715 3.48431 1.36187 0
M  V30 7897 H 761.048 4.57707 1.81012 0
M  V30 7898 N 762.7 -0.34323 1.53817 0
M  V30 7899 C 763.63 -1.42709 1.84814 0
M  V30 7900 C 764.611 -1.5488 0.703297 0
M  V30 7901 O 765.796 -1.69082 0.955237 0
M  V30 7902 C 762.926 -2.79756 2.05801 0
M  V30 7903 C 761.88 -2.82392 3.21619 0
M  V30 7904 C 761.206 -4.22326 3.2794 0
M  V30 7905 C 762.506 -2.479 4.59721 0
M  V30 7906 H 764.2 -1.17018 2.75585 0
M  V30 7907 H 761.746 -0.561485 1.32602 0
M  V30 7908 H 763.699 -3.55627 2.26069 0
M  V30 7909 H 762.423 -3.06883 1.11761 0
M  V30 7910 H 761.082 -2.08974 3.01207 0
M  V30 7911 H 760.73 -4.46564 2.31494 0
M  V30 7912 H 760.43 -4.25001 4.05768 0
M  V30 7913 H 761.954 -5.00039 3.50419 0
M  V30 7914 H 763.368 -3.13484 4.80001 0
M  V30 7915 H 761.765 -2.61857 5.39954 0
M  V30 7916 H 762.835 -1.43087 4.63308 0
M  V30 7917 N 764.178 -1.45556 -0.604258 0
M  V30 7918 C 765.426 -1.4945 -1.36048 0
M  V30 7919 C 765.747 -0.138933 -1.94504 0
M  V30 7920 O 765.017 0.832097 -1.7735 0
M  V30 7921 H 763.597 -0.550381 -0.505064 0
M  V30 7922 H 766.259 -1.81535 -0.709308 0
M  V30 7923 H 765.355 -2.23519 -2.17821 0
M  V30 7924 N 765.656 0.84705 -1.32902 0
M  V30 7925 C 766.904 1.5986 -1.2365 0
M  V30 7926 C 767.225 1.93974 0.199789 0
M  V30 7927 O 766.495 1.60273 1.12648 0
M  V30 7928 H 765.075 0.592696 -0.454665 0
M  V30 7929 H 767.737 1.01278 -1.66519 0
M  V30 7930 H 766.833 2.53218 -1.82448 0
M  V30 7931 N 767.134 1.16236 1.06428 0
M  V30 7932 C 768.362 0.967184 1.82902 0
M  V30 7933 C 768.777 -0.484601 1.82475 0
M  V30 7934 O 768.134 -1.33631 1.24294 0
M  V30 7935 C 768.185 1.48534 3.29576 0
M  V30 7936 O 767.906 2.88026 3.3011 0
M  V30 7937 C 769.407 1.33298 4.22784 0
M  V30 7938 H 766.627 0.342923 0.576754 0
M  V30 7939 H 769.171 1.54232 1.34286 0
M  V30 7940 H 767.326 0.952513 3.75508 0
M  V30 7941 H 767.74 3.11721 4.21818 0
M  V30 7942 H 769.214 1.74385 5.23731 0
M  V30 7943 H 769.691 0.278356 4.38317 0
M  V30 7944 H 770.297 1.85535 3.82697 0
M  V30 7945 N 768.612 -1.24939 0.960631 0
M  V30 7946 C 770.023 -1.74701 0.658529 0
M  V30 7947 C 770.374 -1.77967 -0.825959 0
M  V30 7948 O 769.499 -1.40444 -1.64634 0
M  V30 7949 C 770.094 -3.17263 1.18867 0
M  V30 7950 C 768.653 -3.64561 0.936614 0
M  V30 7951 C 767.8 -2.43423 1.32817 0
M  V30 7952 H 770.751 -1.10741 1.13676 0
M  V30 7953 H 770.772 -3.76481 0.551589 0
M  V30 7954 H 770.284 -3.14854 2.26912 0
M  V30 7955 H 768.385 -3.72378 -0.128608 0
M  V30 7956 H 768.498 -4.52392 1.57729 0
M  V30 7957 H 766.862 -2.43513 0.746548 0
M  V30 7958 H 767.645 -2.437 2.41796 0
M  V30 7959 N 770.09 -0.729906 -1.39679 0
M  V30 7960 C 771.336 -0.27603 -2.00913 0
M  V30 7961 C 771.669 1.13227 -1.57776 0
M  V30 7962 O 770.944 1.7709 -0.804319 0
M  V30 7963 C 771.227 -0.372157 -3.58172 0
M  V30 7964 C 771.08 -1.81986 -4.11341 0
M  V30 7965 C 772.399 0.248378 -4.39399 0
M  V30 7966 H 769.518 -0.101773 -0.729939 0
M  V30 7967 H 772.16 -0.925104 -1.65957 0
M  V30 7968 H 770.31 0.180459 -3.88081 0
M  V30 7969 H 771.982 -2.42896 -3.92172 0
M  V30 7970 H 770.225 -2.34287 -3.65092 0
M  V30 7971 H 770.896 -1.83842 -5.20486 0
M  V30 7972 H 773.372 -0.222645 -4.15504 0
M  V30 7973 H 772.248 0.150746 -5.48693 0
M  V30 7974 H 772.509 1.33378 -4.21501 0
M  V30 7975 N 771.568 1.50203 -0.477153 0
M  V30 7976 C 772.5 2.26508 0.350239 0
M  V30 7977 C 773.513 1.32081 0.95176 0
M  V30 7978 O 774.702 1.57546 0.839139 0
M  V30 7979 C 771.802 3.0361 1.50579 0
M  V30 7980 C 770.975 4.25438 1.01595 0
M  V30 7981 C 770.034 4.84783 2.04626 0
M  V30 7982 O 769.06 5.45528 1.62442 0
M  V30 7983 N 770.262 4.72318 3.37485 0
M  V30 7984 H 773.027 2.98155 -0.30394 0
M  V30 7985 H 770.588 1.58938 -0.308289 0
M  V30 7986 H 772.58 3.4019 2.1921 0
M  V30 7987 H 771.15 2.34724 2.06455 0
M  V30 7988 H 770.37 3.93894 0.155316 0
M  V30 7989 H 771.658 5.04413 0.666694 0
M  V30 7990 H 771.056 4.24022 3.74462 0
M  V30 7991 H 769.613 5.13149 4.01897 0
M  V30 7992 N 773.046 0.209999 1.56195 0
M  V30 7993 C 774.271 -0.433064 2.02828 0
M  V30 7994 C 774.696 -1.5337 1.08901 0
M  V30 7995 O 774.054 -1.81144 0.0751132 0
M  V30 7996 C 774.102 -0.952635 3.47789 0
M  V30 7997 O 773.206 -2.0647 3.56993 0
M  V30 7998 H 772.547 -0.0994594 0.656509 0
M  V30 7999 H 775.077 0.32525 2.01998 0
M  V30 8000 H 775.087 -1.26542 3.8788 0
M  V30 8001 H 773.762 -0.147007 4.1564 0
M  V30 8002 H 772.339 -1.75942 3.28784 0
M  V30 8003 N 774.524 -1.57472 -0.0634922 0
M  V30 8004 C 775.94 -1.54016 -0.418466 0
M  V30 8005 C 776.14 -0.931376 -1.78683 0
M  V30 8006 O 775.196 -0.537465 -2.46714 0
M  V30 8007 C 776.509 -2.98634 -0.351906 0
M  V30 8008 C 778.057 -3.10012 -0.431494 0
M  V30 8009 C 778.532 -4.56296 -0.394754 0
M  V30 8010 N 780.023 -4.60964 -0.454583 0
M  V30 8011 C 780.758 -5.71643 -0.448501 0
M  V30 8012 N 780.254 -6.91663 -0.396742 0
M  V30 8013 N 782.047 -5.5991 -0.495677 0
M  V30 8014 H 774.198 -1.95409 0.832408 0
M  V30 8015 H 776.461 -0.894769 0.313197 0
M  V30 8016 H 776.167 -3.46766 0.587048 0
M  V30 8017 H 776.041 -3.58955 -1.15893 0
M  V30 8018 H 778.428 -2.61848 -1.36087 0
M  V30 8019 H 778.509 -2.52585 0.404258 0
M  V30 8020 H 778.153 -5.05119 0.530811 0
M  V30 8021 H 778.083 -5.11594 -1.24815 0
M  V30 8022 H 780.574 -3.74598 -0.498496 0
M  V30 8023 H 780.887 -7.71783 -0.396256 0
M  V30 8024 H 779.232 -6.9405 -0.363304 0
M  V30 8025 H 782.423 -4.65046 -0.533864 0
M  V30 8026 H 782.596 -6.46164 -0.487469 0
M  V30 8027 N 776.003 0.335068 -1.53997 0
M  V30 8028 C 777.249 1.07594 -1.71905 0
M  V30 8029 C 777.582 1.88039 -0.485264 0
M  V30 8030 O 776.857 1.87482 0.517752 0
M  V30 8031 C 777.14 2.01016 -2.98772 0
M  V30 8032 C 776.993 1.23977 -4.32377 0
M  V30 8033 C 778.312 3.0071 -3.21343 0
M  V30 8034 H 775.431 0.38976 -0.625505 0
M  V30 8035 H 778.073 0.353684 -1.86679 0
M  V30 8036 H 776.223 2.62603 -2.86307 0
M  V30 8037 H 777.895 0.649383 -4.56706 0
M  V30 8038 H 776.138 0.541878 -4.30402 0
M  V30 8039 H 776.809 1.92512 -5.17342 0
M  V30 8040 H 779.285 2.4924 -3.33194 0
M  V30 8041 H 778.161 3.63272 -4.11491 0
M  V30 8042 H 778.422 3.72549 -2.38033 0
M  V30 8043 N 777.481 1.45874 0.596531 0
M  V30 8044 C 778.727 1.5069 1.35722 0
M  V30 8045 C 779.06 0.152506 1.936 0
M  V30 8046 O 778.335 -0.834411 1.75692 0
M  V30 8047 C 778.618 2.59474 2.4969 0
M  V30 8048 C 778.471 4.04396 1.96937 0
M  V30 8049 C 779.79 2.64451 3.51787 0
M  V30 8050 H 776.909 0.548611 0.492133 0
M  V30 8051 H 779.551 1.77741 0.671428 0
M  V30 8052 H 777.701 2.36539 3.08191 0
M  V30 8053 H 779.373 4.38576 1.43 0
M  V30 8054 H 777.616 4.14529 1.27859 0
M  V30 8055 H 778.287 4.76218 2.79143 0
M  V30 8056 H 780.763 2.85031 3.03145 0
M  V30 8057 H 779.639 3.42411 4.29006 0
M  V30 8058 H 779.9 1.69965 4.08123 0
M  V30 8059 N 778.959 -0.83999 1.33349 0
M  V30 8060 C 779.891 -1.95678 1.19344 0
M  V30 8061 C 780.904 -1.62322 0.124692 0
M  V30 8062 O 782.093 -1.74516 0.375012 0
M  V30 8063 C 779.193 -3.29133 0.807771 0
M  V30 8064 C 778.366 -3.9063 1.96792 0
M  V30 8065 C 777.425 -5.02438 1.56341 0
M  V30 8066 O 776.451 -5.21646 2.27759 0
M  V30 8067 N 777.653 -5.78612 0.467767 0
M  V30 8068 H 780.418 -2.08229 2.15548 0
M  V30 8069 H 777.979 -1.01566 1.26079 0
M  V30 8070 H 779.971 -4.01355 0.519282 0
M  V30 8071 H 778.541 -3.12535 -0.063555 0
M  V30 8072 H 777.761 -3.11011 2.4221 0
M  V30 8073 H 779.049 -4.2845 2.74422 0
M  V30 8074 H 778.447 -5.65559 -0.126324 0
M  V30 8075 H 777.004 -6.51362 0.238945 0
M  V30 8076 N 780.437 -1.16799 -1.0581 0
M  V30 8077 C 781.685 -0.950642 -1.78346 0
M  V30 8078 C 782.006 0.522524 -1.87869 0
M  V30 8079 O 781.276 1.3795 -1.39092 0
M  V30 8080 H 779.856 -0.348736 -0.6606 0
M  V30 8081 H 782.518 -1.47158 -1.27791 0
M  V30 8082 H 781.614 -1.37359 -2.80248 0
M  V30 8083 N 781.915 1.24427 -0.967243 0
M  V30 8084 C 782.862 2.25398 -0.496419 0
M  V30 8085 C 783.832 1.59667 0.457781 0
M  V30 8086 O 785.017 1.87213 0.368246 0
M  V30 8087 C 782.157 3.44474 0.207693 0
M  V30 8088 C 781.27 4.24804 -0.785221 0
M  V30 8089 C 780.405 5.31169 -0.0572631 0
M  V30 8090 C 779.444 6.03195 -1.04027 0
M  V30 8091 N 778.581 7.01265 -0.34235 0
M  V30 8092 H 783.421 2.65039 -1.36229 0
M  V30 8093 H 780.958 1.30288 -0.682902 0
M  V30 8094 H 782.916 4.12376 0.632612 0
M  V30 8095 H 781.546 3.05672 1.03752 0
M  V30 8096 H 780.598 3.56445 -1.32858 0
M  V30 8097 H 781.91 4.74599 -1.53483 0
M  V30 8098 H 781.064 6.05205 0.425674 0
M  V30 8099 H 779.803 4.8228 0.725047 0
M  V30 8100 H 778.808 5.27964 -1.53409 0
M  V30 8101 H 780.033 6.54173 -1.82302 0
M  V30 8102 H 777.979 6.54648 0.420993 0
M  V30 8103 H 777.896 7.48939 -1.03084 0
M  V30 8104 H 779.164 7.7941 0.118634 0
M  V30 8105 N 783.393 0.737304 1.3929 0
M  V30 8106 C 784.303 0.100464 2.34385 0
M  V30 8107 C 785.319 -0.719282 1.58437 0
M  V30 8108 O 786.495 -0.647216 1.90717 0
M  V30 8109 C 783.56 -0.794325 3.37478 0
M  V30 8110 C 782.621 0.0379345 4.29283 0
M  V30 8111 C 781.854 -0.814241 5.27452 0
M  V30 8112 O 782.077 -2.05288 5.32177 0
M  V30 8113 O 781.011 -0.241679 6.01415 0
M  V30 8114 H 784.837 0.885407 2.90507 0
M  V30 8115 H 782.422 0.497999 1.40856 0
M  V30 8116 H 784.304 -1.30622 4.00644 0
M  V30 8117 H 782.979 -1.55804 2.83737 0
M  V30 8118 H 781.886 0.595405 3.69331 0
M  V30 8119 H 783.219 0.763926 4.86236 0
M  V30 8120 N 784.871 -1.49948 0.485112 0
M  V30 8121 C 786.282 -1.8667 0.0334041 0
M  V30 8122 C 786.633 -1.3988 -1.37579 0
M  V30 8123 O 785.758 -0.769788 -2.02245 0
M  V30 8124 C 786.353 -3.38757 0.0538426 0
M  V30 8125 C 784.912 -3.74839 -0.342453 0
M  V30 8126 C 784.059 -2.73894 0.433281 0
M  V30 8127 H 787.01 -1.42492 0.698699 0
M  V30 8128 H 787.031 -3.73132 -0.745146 0
M  V30 8129 H 786.543 -3.72782 1.07959 0
M  V30 8130 H 784.644 -3.46419 -1.37203 0
M  V30 8131 H 784.757 -4.79088 -0.0340503 0
M  V30 8132 H 783.121 -2.54441 -0.114849 0
M  V30 8133 H 783.904 -3.10763 1.45881 0
M  V30 8134 N 786.349 -0.21828 -1.56081 0
M  V30 8135 C 787.312 0.679633 -2.18892 0
M  V30 8136 C 788.312 1.12405 -1.14986 0
M  V30 8137 O 789.502 1.03339 -1.40238 0
M  V30 8138 C 786.634 1.93063 -2.80962 0
M  V30 8139 H 787.827 0.132066 -2.99609 0
M  V30 8140 H 785.38 0.0313374 -1.56269 0
M  V30 8141 H 786.115 2.52015 -2.04106 0
M  V30 8142 H 785.9 1.62046 -3.57048 0
M  V30 8143 H 787.39 2.57043 -3.29118 0
M  V30 8144 N 787.827 1.57504 0.0551401 0
M  V30 8145 C 788.777 2.0128 1.071 0
M  V30 8146 C 789.761 0.897592 1.33537 0
M  V30 8147 O 790.953 1.16151 1.33558 0
M  V30 8148 C 788.082 2.47414 2.37994 0
M  V30 8149 C 787.168 3.65703 2.14761 0
M  V30 8150 N 787.559 4.79323 1.61504 0
M  V30 8151 C 785.857 3.72574 2.45162 0
M  V30 8152 C 786.558 5.61089 1.53472 0
M  V30 8153 N 785.534 5.05426 2.00114 0
M  V30 8154 H 789.336 2.86558 0.652829 0
M  V30 8155 H 786.85 1.60274 0.26193 0
M  V30 8156 H 788.847 2.77023 3.11551 0
M  V30 8157 H 787.507 1.6353 2.80514 0
M  V30 8158 H 788.518 5.01284 1.30134 0
M  V30 8159 H 785.195 2.99439 2.90934 0
M  V30 8160 H 786.585 6.62328 1.13008 0
M  V30 8161 N 789.305 -0.326896 1.54172 0
M  V30 8162 C 790.235 -1.40741 1.86317 0
M  V30 8163 C 791.216 -1.54125 0.719684 0
M  V30 8164 O 792.401 -1.6806 0.973117 0
M  V30 8165 C 789.531 -2.77557 2.08757 0
M  V30 8166 C 788.485 -2.78965 3.24596 0
M  V30 8167 C 787.811 -4.18824 3.32401 0
M  V30 8168 C 789.111 -2.4301 4.62324 0
M  V30 8169 H 790.805 -1.14088 2.76811 0
M  V30 8170 H 788.351 -0.547389 1.3319 0
M  V30 8171 H 790.304 -3.53209 2.29829 0
M  V30 8172 H 789.028 -3.0568 1.15009 0
M  V30 8173 H 787.687 -2.05767 3.03406 0
M  V30 8174 H 787.335 -4.44083 2.36218 0
M  V30 8175 H 787.035 -4.20673 4.10253 0
M  V30 8176 H 788.559 -4.96294 3.55703 0
M  V30 8177 H 789.973 -3.08375 4.83299 0
M  V30 8178 H 788.37 -2.56116 5.42701 0
M  V30 8179 H 789.44 -1.38165 4.64799 0
M  V30 8180 N 790.784 -1.46188 -0.588786 0
M  V30 8181 C 791.717 -1.508 -1.71274 0
M  V30 8182 C 792.695 -0.362635 -1.58505 0
M  V30 8183 O 793.879 -0.565899 -1.79805 0
M  V30 8184 C 791.006 -1.38082 -3.09275 0
M  V30 8185 C 790.052 -2.56723 -3.40581 0
M  V30 8186 S 790.885 -4.1911 -3.33327 0
M  V30 8187 C 792.041 -4.08891 -4.73877 0
M  V30 8188 H 792.274 -2.45895 -1.67102 0
M  V30 8189 H 789.807 -1.34 -0.767025 0
M  V30 8190 H 791.765 -1.31432 -3.88891 0
M  V30 8191 H 790.426 -0.444259 -3.10942 0
M  V30 8192 H 789.619 -2.43801 -4.41109 0
M  V30 8193 H 789.221 -2.60332 -2.68521 0
M  V30 8194 H 791.513 -3.75196 -5.64123 0
M  V30 8195 H 792.456 -5.09395 -4.91856 0
M  V30 8196 H 792.864 -3.40239 -4.50441 0
M  V30 8197 N 792.262 0.832906 -1.33792 0
M  V30 8198 C 793.487 1.62568 -1.28788 0
M  V30 8199 C 793.912 1.87599 0.137246 0
M  V30 8200 O 793.27 1.44436 1.0958 0
M  V30 8201 C 793.318 2.9495 -2.07453 0
M  V30 8202 O 792.422 3.86546 -1.43722 0
M  V30 8203 H 791.763 0.494809 -0.442787 0
M  V30 8204 H 794.293 1.03578 -1.76445 0
M  V30 8205 H 794.303 3.44599 -2.1844 0
M  V30 8206 H 792.978 2.76055 -3.11073 0
M  V30 8207 H 791.555 3.45044 -1.41417 0
M  V30 8208 N 793.74 1.17359 1.05189 0
M  V30 8209 C 794.67 0.91365 2.14883 0
M  V30 8210 C 795.651 -0.144365 1.69486 0
M  V30 8211 O 796.836 0.00587861 1.94199 0
M  V30 8212 C 793.966 0.426196 3.44675 0
M  V30 8213 C 792.92 1.4234 4.03638 0
M  V30 8214 C 792.246 0.793902 5.28773 0
M  V30 8215 C 793.546 2.7966 4.41121 0
M  V30 8216 H 795.24 1.831 2.36885 0
M  V30 8217 H 792.786 0.881781 1.13845 0
M  V30 8218 H 794.739 0.231767 4.20762 0
M  V30 8219 H 793.463 -0.526693 3.22325 0
M  V30 8220 H 792.122 1.60457 3.2962 0
M  V30 8221 H 791.77 -0.165824 5.02727 0
M  V30 8222 H 791.47 1.45959 5.69183 0
M  V30 8223 H 792.994 0.609747 6.07548 0
M  V30 8224 H 794.408 2.6526 5.08242 0
M  V30 8225 H 792.805 3.42807 4.92548 0
M  V30 8226 H 793.875 3.34068 3.51464 0
M  V30 8227 N 795.218 -1.23913 0.973828 0
M  V30 8228 C 796.465 -1.92151 0.639079 0
M  V30 8229 C 796.793 -1.76064 -0.826545 0
M  V30 8230 O 796.048 -1.11126 -1.61088 0
M  V30 8231 C 796.347 -3.4406 0.967356 0
M  V30 8232 C 796.013 -3.80321 2.42212 0
M  V30 8233 C 794.675 -3.8993 2.81971 0
M  V30 8234 C 797.027 -3.97935 3.36596 0
M  V30 8235 C 794.355 -4.14575 4.15144 0
M  V30 8236 C 796.707 -4.24079 4.69404 0
M  V30 8237 C 795.371 -4.31908 5.08932 0
M  V30 8238 H 794.641 -0.70313 0.233856 0
M  V30 8239 H 797.288 -1.47072 1.22646 0
M  V30 8240 H 795.593 -3.90667 0.297807 0
M  V30 8241 H 797.29 -3.95077 0.686654 0
M  V30 8242 H 793.88 -3.73411 2.10385 0
M  V30 8243 H 798.064 -3.89908 3.07059 0
M  V30 8244 H 793.32 -4.18858 4.45385 0
M  V30 8245 H 797.494 -4.36652 5.42502 0
M  V30 8246 H 795.121 -4.50758 6.12145 0
M  V30 8247 N 796.696 -0.74468 -1.38897 0
M  V30 8248 C 797.944 -0.296298 -1.99916 0
M  V30 8249 C 798.265 1.12325 -1.59399 0
M  V30 8250 O 797.535 1.76658 -0.846689 0
M  V30 8251 H 796.115 -0.106561 -0.73936 0
M  V30 8252 H 798.777 -0.956793 -1.69798 0
M  V30 8253 H 797.873 -0.352356 -3.10105 0
M  V30 8254 N 798.174 1.49689 -0.493057 0
M  V30 8255 C 799.422 2.02027 0.0541642 0
M  V30 8256 C 799.743 1.37554 1.38217 0
M  V30 8257 O 799.013 0.528174 1.88646 0
M  V30 8258 H 797.593 0.746646 0.0230069 0
M  V30 8259 H 800.255 1.83795 -0.648489 0
M  V30 8260 H 799.351 3.11523 0.189652 0
M  V30 8261 N 799.652 0.226554 1.55963 0
M  V30 8262 C 800.599 -0.681504 2.20509 0
M  V30 8263 C 801.569 -1.1866 1.16229 0
M  V30 8264 O 802.754 -1.24478 1.44602 0
M  V30 8265 C 799.894 -1.88183 2.89277 0
M  V30 8266 C 799.007 -1.41517 4.08163 0
M  V30 8267 C 798.142 -2.57346 4.647 0
M  V30 8268 C 797.181 -2.07441 5.75877 0
M  V30 8269 N 796.318 -3.16561 6.26685 0
M  V30 8270 H 801.158 -0.124372 2.9774 0
M  V30 8271 H 798.695 -0.0496333 1.47016 0
M  V30 8272 H 800.653 -2.58666 3.27335 0
M  V30 8273 H 799.283 -2.41177 2.14555 0
M  V30 8274 H 798.335 -0.605099 3.75557 0
M  V30 8275 H 799.647 -1.00928 4.88482 0
M  V30 8276 H 798.801 -3.35903 5.05227 0
M  V30 8277 H 797.54 -3.01227 3.83554 0
M  V30 8278 H 796.545 -1.27347 5.34848 0
M  V30 8279 H 797.77 -1.64554 6.58862 0
M  V30 8280 H 795.716 -3.59914 5.48451 0
M  V30 8281 H 795.633 -2.80239 7.02141 0
M  V30 8282 H 796.901 -3.95238 6.71868 0
M  V30 8283 N 801.13 -1.57531 -0.0467866 0
M  V30 8284 C 802.541 -1.76945 -0.595603 0
M  V30 8285 C 802.892 -0.855354 -1.76573 0
M  V30 8286 O 802.017 -0.045668 -2.16352 0
M  V30 8287 C 802.612 -3.20881 -1.08725 0
M  V30 8288 C 801.171 -3.41553 -1.58172 0
M  V30 8289 C 800.318 -2.72533 -0.511968 0
M  V30 8290 H 803.269 -1.57682 0.179436 0
M  V30 8291 H 803.29 -3.26419 -1.95528 0
M  V30 8292 H 802.802 -3.87385 -0.235398 0
M  V30 8293 H 800.903 -2.80199 -2.456 0
M  V30 8294 H 801.016 -4.50104 -1.64143 0
M  V30 8295 H 799.38 -2.35797 -0.962899 0
M  V30 8296 H 800.163 -3.41709 0.330117 0
M  V30 8297 N 802.608 0.318715 -1.54344 0
M  V30 8298 C 803.541 1.41644 -1.7892 0
M  V30 8299 C 804.519 1.495 -0.639421 0
M  V30 8300 O 805.703 1.66835 -0.877404 0
M  V30 8301 C 802.83 2.79701 -1.9101 0
M  V30 8302 C 801.876 2.89354 -3.13331 0
M  V30 8303 S 802.709 2.53264 -4.71824 0
M  V30 8304 C 803.865 3.93384 -4.86826 0
M  V30 8305 H 804.098 1.20585 -2.71747 0
M  V30 8306 H 801.631 0.515828 -1.45529 0
M  V30 8307 H 803.589 3.59227 -1.98661 0
M  V30 8308 H 802.25 2.9804 -0.991516 0
M  V30 8309 H 801.443 3.90574 -3.1854 0
M  V30 8310 H 801.045 2.17805 -3.04035 0
M  V30 8311 H 803.337 4.88191 -4.69761 0
M  V30 8312 H 804.28 3.93156 -5.88926 0
M  V30 8313 H 804.688 3.82564 -4.15097 0
M  V30 8314 N 804.086 1.46499 0.581025 0
M  V30 8315 C 805.335 1.51162 1.3354 0
M  V30 8316 C 805.648 0.168433 1.94873 0
M  V30 8317 O 806.854 0.092883 2.71341 0
M  V30 8318 C 805.31 2.66362 2.42032 0
M  V30 8319 C 804.918 4.07109 1.86994 0
M  V30 8320 C 806.662 2.80297 3.188 0
M  V30 8321 C 804.569 5.13645 2.93125 0
M  V30 8322 H 803.499 0.562576 0.502021 0
M  V30 8323 H 806.15 1.72713 0.619863 0
M  V30 8324 H 804.532 2.38143 3.16392 0
M  V30 8325 H 805.706 4.45125 1.19166 0
M  V30 8326 H 804.021 3.97854 1.22887 0
M  V30 8327 H 806.618 3.5706 3.9801 0
M  V30 8328 H 806.961 1.87875 3.71495 0
M  V30 8329 H 807.494 3.0817 2.51547 0
M  V30 8330 H 804.233 6.07866 2.45315 0
M  V30 8331 H 803.753 4.80172 3.59437 0
M  V30 8332 H 805.432 5.39562 3.57046 0
M  V30 8333 N 805.565 -0.825799 1.34232 0
M  V30 8334 C 806.814 -1.57686 1.2577 0
M  V30 8335 C 807.127 -1.94848 -0.171372 0
M  V30 8336 O 808.333 -2.68854 -0.378123 0
M  V30 8337 C 806.789 -2.84478 2.20454 0
M  V30 8338 C 806.397 -2.54629 3.68603 0
M  V30 8339 C 808.141 -3.625 2.20893 0
M  V30 8340 C 806.048 -3.77597 4.55164 0
M  V30 8341 H 804.978 -0.591809 0.467203 0
M  V30 8342 H 807.629 -0.909421 1.59379 0
M  V30 8343 H 806.011 -3.52832 1.79793 0
M  V30 8344 H 807.185 -1.94404 4.17784 0
M  V30 8345 H 805.5 -1.89888 3.70582 0
M  V30 8346 H 808.097 -4.538 2.82789 0
M  V30 8347 H 808.44 -3.98404 1.20746 0
M  V30 8348 H 808.973 -3.01086 2.59985 0
M  V30 8349 H 805.712 -3.46815 5.56237 0
M  V30 8350 H 805.232 -4.37116 4.10719 0
M  V30 8351 H 806.911 -4.45039 4.69627 0
M  V30 8352 N 807.043 -1.17915 -1.04565 0
M  V30 8353 C 808.273 -0.994716 -1.81077 0
M  V30 8354 C 808.681 0.460146 -1.83519 0
M  V30 8355 O 808.024 1.33136 -1.26572 0
M  V30 8356 C 808.086 -1.46698 -3.28207 0
M  V30 8357 C 807.75 -2.94523 -3.49436 0
M  V30 8358 C 808.747 -3.92414 -3.41038 0
M  V30 8359 C 806.432 -3.32841 -3.76194 0
M  V30 8360 C 808.426 -5.2662 -3.59096 0
M  V30 8361 C 806.113 -4.67212 -3.93899 0
M  V30 8362 C 807.111 -5.6391 -3.8535 0
M  V30 8363 O 806.799 -6.95849 -4.02554 0
M  V30 8364 H 806.531 -0.351797 -0.577248 0
M  V30 8365 H 809.085 -1.56772 -1.32709 0
M  V30 8366 H 807.315 -0.837592 -3.7752 0
M  V30 8367 H 809.004 -1.24724 -3.86263 0
M  V30 8368 H 809.77 -3.64157 -3.20336 0
M  V30 8369 H 805.649 -2.58139 -3.81949 0
M  V30 8370 H 809.193 -6.02082 -3.52339 0
M  V30 8371 H 805.09 -4.95172 -4.14095 0
M  V30 8372 H 805.858 -7.02679 -4.19743 0
M  V30 8373 N 808.521 1.23394 -0.980386 0
M  V30 8374 C 809.468 2.24859 -0.520298 0
M  V30 8375 C 810.438 1.60144 0.440821 0
M  V30 8376 O 811.623 1.87593 0.348369 0
M  V30 8377 C 808.763 3.44675 0.171145 0
M  V30 8378 C 807.876 4.23947 -0.830233 0
M  V30 8379 C 807.011 5.31079 -0.113597 0
M  V30 8380 C 806.05 6.02058 -1.10419 0
M  V30 8381 N 805.187 7.00862 -0.416709 0
M  V30 8382 H 810.027 2.63579 -1.39032 0
M  V30 8383 H 807.564 1.29556 -0.696682 0
M  V30 8384 H 809.522 4.13024 0.588838 0
M  V30 8385 H 808.152 3.06755 1.00504 0
M  V30 8386 H 807.204 3.55016 -1.36631 0
M  V30 8387 H 808.516 4.72945 -1.58508 0
M  V30 8388 H 807.67 6.05622 0.36146 0
M  V30 8389 H 806.409 4.83022 0.673854 0
M  V30 8390 H 805.414 5.26307 -1.59 0
M  V30 8391 H 806.639 6.52203 -1.8923 0
M  V30 8392 H 804.585 6.55057 0.351535 0
M  V30 8393 H 804.502 7.47804 -1.11021 0
M  V30 8394 H 805.77 7.79492 0.0359606 0
M  V30 8395 N 809.999 0.752036 1.385 0
M  V30 8396 C 811.247 0.306895 1.99756 0
M  V30 8397 C 811.568 -1.11478 1.59992 0
M  V30 8398 O 810.838 -1.76206 0.856045 0
M  V30 8399 H 809.418 0.11048 0.738785 0
M  V30 8400 H 812.08 0.965785 1.69289 0
M  V30 8401 H 811.176 0.368797 3.09913 0
M  V30 8402 N 811.477 -1.49425 0.500989 0
M  V30 8403 C 812.725 -2.02053 -0.0434495 0
M  V30 8404 C 813.046 -1.38285 -1.37486 0
M  V30 8405 O 812.316 -0.538171 -1.88363 0
M  V30 8406 H 810.896 -0.746757 -0.0190469 0
M  V30 8407 H 813.558 -1.83449 0.658227 0
M  V30 8408 H 812.654 -3.11619 -0.173129 0
M  V30 8409 N 812.955 -0.234822 -1.55841 0
M  V30 8410 C 814.183 0.397745 -2.03041 0
M  V30 8411 C 814.598 1.52405 -1.11437 0
M  V30 8412 O 813.955 1.82061 -0.126466 0
M  V30 8413 C 814.006 0.916919 -3.49678 0
M  V30 8414 O 813.727 -0.164493 -4.37791 0
M  V30 8415 C 815.228 1.62139 -4.12584 0
M  V30 8416 H 812.448 0.0959214 -0.664108 0
M  V30 8417 H 814.992 -0.355156 -2.01392 0
M  V30 8418 H 813.147 1.62004 -3.519 0
M  V30 8419 H 813.561 0.227794 -5.24005 0
M  V30 8420 H 815.035 1.93651 -5.16917 0
M  V30 8421 H 815.512 2.53918 -3.58361 0
M  V30 8422 H 816.118 0.963145 -4.14251 0
M  V30 8423 N 814.433 1.57553 0.0384317 0
M  V30 8424 C 815.658 1.93485 0.746872 0
M  V30 8425 C 816.083 0.834069 1.68597 0
M  V30 8426 O 815.441 -0.210902 1.80069 0
M  V30 8427 C 815.489 3.28463 1.4881 0
M  V30 8428 O 814.593 3.20051 2.60079 0
M  V30 8429 H 813.934 0.632675 0.201539 0
M  V30 8430 H 816.464 2.046 -0.00329815 0
M  V30 8431 H 816.474 3.63132 1.86009 0
M  V30 8432 H 815.149 4.08147 0.799297 0
M  V30 8433 H 813.726 2.96998 2.25492 0
M  V30 8434 N 815.911 -0.310526 1.54511 0
M  V30 8435 C 817.327 -0.655637 1.45511 0
M  V30 8436 C 817.527 -1.91114 0.638564 0
M  V30 8437 O 816.583 -2.52098 0.142497 0
M  V30 8438 C 817.896 -0.817501 2.89374 0
M  V30 8439 C 819.444 -0.914003 2.99358 0
M  V30 8440 C 819.919 -1.10794 4.44397 0
M  V30 8441 N 821.41 -1.17437 4.48066 0
M  V30 8442 C 822.145 -1.34255 5.57461 0
M  V30 8443 N 821.641 -1.48032 6.768 0
M  V30 8444 N 823.434 -1.37067 5.45132 0
M  V30 8445 H 815.585 0.514506 2.06074 0
M  V30 8446 H 817.848 0.168478 0.932909 0
M  V30 8447 H 817.554 0.034003 3.51684 0
M  V30 8448 H 817.428 -1.7094 3.36243 0
M  V30 8449 H 819.815 -1.756 2.37168 0
M  V30 8450 H 819.896 0.00170958 2.558 0
M  V30 8451 H 819.54 -0.270743 5.07178 0
M  V30 8452 H 819.47 -2.03773 4.85576 0
M  V30 8453 H 821.961 -1.08181 3.62084 0
M  V30 8454 H 822.274 -1.60593 7.5593 0
M  V30 8455 H 820.619 -1.45105 6.79683 0
M  V30 8456 H 823.81 -1.25909 4.50849 0
M  V30 8457 H 823.983 -1.49831 6.3044 0
M  V30 8458 N 817.389 -1.46805 -0.573248 0
M  V30 8459 C 818.299 -1.60687 -1.70929 0
M  V30 8460 C 819.315 -0.490084 -1.66956 0
M  V30 8461 O 820.491 -0.755482 -1.86693 0
M  V30 8462 C 817.556 -1.60259 -3.07438 0
M  V30 8463 C 816.617 -2.83242 -3.22603 0
M  V30 8464 C 815.85 -2.82825 -4.52599 0
M  V30 8465 O 816.073 -1.92113 -5.37074 0
M  V30 8466 O 815.007 -3.74489 -4.71213 0
M  V30 8467 H 818.833 -2.56782 -1.62163 0
M  V30 8468 H 816.418 -1.29706 -0.741399 0
M  V30 8469 H 818.3 -1.6275 -3.88704 0
M  V30 8470 H 816.975 -0.673268 -3.16621 0
M  V30 8471 H 815.882 -2.86302 -2.40794 0
M  V30 8472 H 817.215 -3.75415 -3.18315 0
M  V30 8473 N 818.867 0.818669 -1.34668 0
M  V30 8474 C 820.115 1.57201 -1.27013 0
M  V30 8475 C 820.436 1.94354 0.158599 0
M  V30 8476 O 819.706 1.62626 1.09223 0
M  V30 8477 H 818.286 0.582919 -0.467135 0
M  V30 8478 H 820.948 0.977234 -1.6863 0
M  V30 8479 H 820.044 2.49291 -1.87778 0
M  V30 8480 N 820.346 1.18468 1.03938 0
M  V30 8481 C 821.594 0.978895 1.76811 0
M  V30 8482 C 821.915 -0.49257 1.88676 0
M  V30 8483 O 821.185 -1.3572 1.41269 0
M  V30 8484 H 819.765 0.359201 0.654968 0
M  V30 8485 H 822.427 1.49173 1.25433 0
M  V30 8486 H 821.523 1.418 2.78027 0
M  V30 8487 N 821.824 -1.22873 0.986916 0
M  V30 8488 C 822.756 -2.23889 0.490537 0
M  V30 8489 C 823.769 -1.57523 -0.411144 0
M  V30 8490 O 824.958 -1.7721 -0.214236 0
M  V30 8491 C 822.058 -3.37488 -0.30902 0
M  V30 8492 C 821.231 -4.33438 0.587354 0
M  V30 8493 C 820.29 -5.25958 -0.159467 0
M  V30 8494 O 819.316 -5.67394 0.453115 0
M  V30 8495 N 820.518 -5.62265 -1.44355 0
M  V30 8496 H 823.283 -2.67109 1.35914 0
M  V30 8497 H 820.844 -1.37111 0.860937 0
M  V30 8498 H 822.836 -3.96365 -0.817139 0
M  V30 8499 H 821.406 -2.934 -1.07868 0
M  V30 8500 H 820.626 -3.72969 1.27622 0
M  V30 8501 H 821.914 -4.94495 1.19801 0
M  V30 8502 H 821.312 -5.30562 -1.96266 0
M  V30 8503 H 819.869 -6.23585 -1.89698 0
M  V30 8504 N 823.302 -0.75937 -1.38099 0
M  V30 8505 C 824.53 -0.329111 -2.04266 0
M  V30 8506 C 824.945 1.04453 -1.57274 0
M  V30 8507 O 824.302 1.66449 -0.748397 0
M  V30 8508 C 824.353 -0.349192 -3.5981 0
M  V30 8509 O 824.074 -1.66863 -4.05078 0
M  V30 8510 C 825.575 0.0942106 -4.432 0
M  V30 8511 H 822.795 -0.13971 -0.656294 0
M  V30 8512 H 825.339 -1.02984 -1.76677 0
M  V30 8513 H 823.494 0.302846 -3.86214 0
M  V30 8514 H 823.908 -1.59877 -4.9954 0
M  V30 8515 H 825.382 0.0290004 -5.51992 0
M  V30 8516 H 825.859 1.1429 -4.24069 0
M  V30 8517 H 826.465 -0.529171 -4.21995 0
M  V30 8518 N 824.78 1.49157 -0.508906 0
M  V30 8519 C 825.743 2.27784 0.25434 0
M  V30 8520 C 826.743 1.34132 0.88686 0
M  V30 8521 O 827.933 1.5722 0.750168 0
M  V30 8522 C 825.065 3.12347 1.36573 0
M  V30 8523 H 826.258 2.96718 -0.435714 0
M  V30 8524 H 823.811 1.54052 -0.264128 0
M  V30 8525 H 824.546 2.47997 2.08969 0
M  V30 8526 H 824.331 3.81213 0.917543 0
M  V30 8527 H 825.821 3.71712 1.90315 0
M  V30 8528 N 826.258 0.243083 1.55714 0
M  V30 8529 C 827.669 -0.260788 1.8487 0
M  V30 8530 C 828.02 -1.57879 1.16485 0
M  V30 8531 O 827.145 -2.1184 0.441908 0
M  V30 8532 C 827.74 -0.479954 3.35383 0
M  V30 8533 C 826.299 -0.928096 3.64778 0
M  V30 8534 C 825.446 -0.00316416 2.773 0
M  V30 8535 H 828.397 0.465743 1.51712 0
M  V30 8536 H 828.418 -1.32308 3.56756 0
M  V30 8537 H 827.93 0.479468 3.85127 0
M  V30 8538 H 826.031 -1.90012 3.20509 0
M  V30 8539 H 826.144 -0.7876 4.72582 0
M  V30 8540 H 824.508 -0.513849 2.49463 0
M  V30 8541 H 825.291 0.951562 3.29849 0
M  V30 8542 N 827.736 -1.57571 -0.0300757 0
M  V30 8543 C 828.699 -2.05468 -1.01565 0
M  V30 8544 C 829.699 -0.958628 -1.29101 0
M  V30 8545 O 830.889 -1.22228 -1.24121 0
M  V30 8546 C 828.021 -2.47077 -2.34874 0
M  V30 8547 H 829.214 -2.93797 -0.601936 0
M  V30 8548 H 826.767 -1.53828 -0.276878 0
M  V30 8549 H 827.502 -1.61901 -2.80996 0
M  V30 8550 H 827.287 -3.27097 -2.16218 0
M  V30 8551 H 828.777 -2.84564 -3.05635 0
M  V30 8552 N 829.214 0.302327 -1.54673 0
M  V30 8553 C 830.439 1.06103 -1.78205 0
M  V30 8554 C 830.864 1.80204 -0.53926 0
M  V30 8555 O 830.222 1.73975 0.510142 0
M  V30 8556 C 830.27 2.01829 -2.98827 0
M  V30 8557 O 829.374 3.10108 -2.71858 0
M  V30 8558 H 828.715 0.30487 -0.589873 0
M  V30 8559 H 831.245 0.340153 -2.01753 0
M  V30 8560 H 831.255 2.44319 -3.2676 0
M  V30 8561 H 829.93 1.473 -3.88942 0
M  V30 8562 H 828.507 2.72142 -2.54937 0
M  V30 8563 N 830.692 1.47107 0.565454 0
M  V30 8564 C 831.92 1.56909 1.3486 0
M  V30 8565 C 832.335 0.216312 1.87557 0
M  V30 8566 O 831.692 -0.789168 1.64555 0
M  V30 8567 C 831.743 2.58776 2.52423 0
M  V30 8568 O 831.464 3.888 2.01906 0
M  V30 8569 C 832.965 2.78683 3.44747 0
M  V30 8570 H 830.185 0.530096 0.411387 0
M  V30 8571 H 832.729 1.92658 0.685782 0
M  V30 8572 H 830.884 2.25983 3.1466 0
M  V30 8573 H 831.298 4.44393 2.78595 0
M  V30 8574 H 832.772 3.53842 4.23674 0
M  V30 8575 H 833.249 1.86208 3.97773 0
M  V30 8576 H 833.855 3.12641 2.88333 0
M  V30 8577 N 832.17 -0.811516 1.35101 0
M  V30 8578 C 833.586 -1.10634 1.15031 0
M  V30 8579 C 833.786 -2.01459 -0.0405379 0
M  V30 8580 O 832.842 -2.42235 -0.712635 0
M  V30 8581 C 834.155 -1.74207 2.45097 0
M  V30 8582 C 835.703 -1.8665 2.51258 0
M  V30 8583 C 836.178 -2.53638 3.81355 0
M  V30 8584 N 837.669 -2.61128 3.82579 0
M  V30 8585 C 838.404 -3.13717 4.79968 0
M  V30 8586 N 837.9 -3.66782 5.87744 0
M  V30 8587 N 839.693 -3.12224 4.67411 0
M  V30 8588 H 831.844 -0.207641 2.11383 0
M  V30 8589 H 834.107 -0.154697 0.935293 0
M  V30 8590 H 833.813 -1.14936 3.32389 0
M  V30 8591 H 833.687 -2.73958 2.59281 0
M  V30 8592 H 836.074 -2.45066 1.64398 0
M  V30 8593 H 836.155 -0.857678 2.40993 0
M  V30 8594 H 835.799 -1.95873 4.68611 0
M  V30 8595 H 835.729 -3.55047 3.88907 0
M  V30 8596 H 838.22 -2.23527 3.04703 0
M  V30 8597 H 838.533 -4.05194 6.58056 0
M  V30 8598 H 836.878 -3.64994 5.91443 0
M  V30 8599 H 840.069 -2.70042 3.82354 0
M  V30 8600 H 840.242 -3.52903 5.43474 0
M  V30 8601 N 833.648 -1.19017 -1.03309 0
M  V30 8602 C 834.578 -0.94772 -2.13402 0
M  V30 8603 C 835.559 0.117383 -1.69694 0
M  V30 8604 O 836.744 -0.0367733 -1.94165 0
M  V30 8605 C 833.874 -0.480977 -3.43953 0
M  V30 8606 C 832.828 -1.48743 -4.01322 0
M  V30 8607 C 832.154 -0.877924 -5.27443 0
M  V30 8608 C 833.454 -2.86642 -4.36616 0
M  V30 8609 H 835.148 -1.86846 -2.33942 0
M  V30 8610 H 832.694 -0.899781 -1.12427 0
M  V30 8611 H 834.647 -0.298677 -4.2034 0
M  V30 8612 H 833.371 0.475348 -3.23122 0
M  V30 8613 H 832.03 -1.65681 -3.27025 0
M  V30 8614 H 831.678 0.0858232 -5.02927 0
M  V30 8615 H 831.378 -1.54996 -5.66789 0
M  V30 8616 H 832.902 -0.706326 -6.06501 0
M  V30 8617 H 834.316 -2.73312 -5.03958 0
M  V30 8618 H 832.713 -3.50599 -4.87032 0
M  V30 8619 H 833.783 -3.39617 -3.46105 0
M  V30 8620 N 835.127 1.22348 -0.993418 0
M  V30 8621 C 836.374 1.9111 -0.669568 0
M  V30 8622 C 836.702 1.77357 0.79843 0
M  V30 8623 O 835.957 1.13675 1.593 0
M  V30 8624 C 836.256 3.42477 -1.02197 0
M  V30 8625 C 835.922 3.7642 -2.48232 0
M  V30 8626 C 834.584 3.85395 -2.88139 0
M  V30 8627 C 836.936 3.9253 -3.42884 0
M  V30 8628 C 834.264 4.07918 -4.21687 0
M  V30 8629 C 836.616 4.16557 -4.76091 0
M  V30 8630 C 835.28 4.23757 -5.15739 0
M  V30 8631 H 834.55 0.699321 -0.245012 0
M  V30 8632 H 837.197 1.45102 -1.2497 0
M  V30 8633 H 835.502 3.90143 -0.359921 0
M  V30 8634 H 837.199 3.93935 -0.74942 0
M  V30 8635 H 833.789 3.70017 -2.16299 0
M  V30 8636 H 837.973 3.84974 -3.13224 0
M  V30 8637 H 833.229 4.11719 -4.51993 0
M  V30 8638 H 837.403 4.27966 -5.4938 0
M  V30 8639 H 835.03 4.40962 -6.19239 0
M  V30 8640 N 836.605 0.766683 1.37694 0
M  V30 8641 C 837.537 0.107798 2.28946 0
M  V30 8642 C 838.55 -0.669701 1.48387 0
M  V30 8643 O 839.739 -0.508629 1.711 0
M  V30 8644 C 836.839 -0.871084 3.27514 0
M  V30 8645 C 836.012 -0.148471 4.37148 0
M  V30 8646 C 835.071 -1.03998 5.1582 0
M  V30 8647 O 834.097 -0.505639 5.6695 0
M  V30 8648 N 835.299 -2.36679 5.3006 0
M  V30 8649 H 838.064 0.89154 2.86132 0
M  V30 8650 H 835.625 0.618593 1.49616 0
M  V30 8651 H 837.617 -1.47081 3.77027 0
M  V30 8652 H 836.187 -1.55582 2.71133 0
M  V30 8653 H 835.407 0.632117 3.89099 0
M  V30 8654 H 836.695 0.351045 5.07588 0
M  V30 8655 H 836.093 -2.82532 4.90094 0
M  V30 8656 H 834.65 -2.9167 5.82899 0
M  V30 8657 N 838.083 -1.48885 0.516809 0
M  V30 8658 C 839.329 -2.02788 -0.0220928 0
M  V30 8659 C 839.662 -1.39433 -1.35175 0
M  V30 8660 O 838.937 -0.535459 -1.86984 0
M  V30 8661 C 839.22 -3.59753 -0.158012 0
M  V30 8662 C 839.073 -4.33611 1.19588 0
M  V30 8663 C 840.392 -4.30984 -0.891133 0
M  V30 8664 H 837.511 -0.736971 -0.00655488 0
M  V30 8665 H 840.153 -1.77746 0.671287 0
M  V30 8666 H 838.303 -3.8122 -0.748568 0
M  V30 8667 H 839.975 -4.23598 1.82653 0
M  V30 8668 H 838.218 -3.95547 1.78116 0
M  V30 8669 H 838.889 -5.41846 1.05391 0
M  V30 8670 H 841.365 -4.14267 -0.39012 0
M  V30 8671 H 840.241 -5.40527 -0.955107 0
M  V30 8672 H 840.502 -3.97336 -1.93847 0
M  V30 8673 N 839.561 -0.251338 -1.55583 0
M  V30 8674 C 840.977 0.103409 -1.59265 0
M  V30 8675 C 841.177 1.56559 -1.26852 0
M  V30 8676 O 840.233 2.31071 -1.01796 0
M  V30 8677 C 841.546 -0.249781 -2.99661 0
M  V30 8678 C 843.094 -0.194442 -3.12395 0
M  V30 8679 C 843.569 -0.521728 -4.55019 0
M  V30 8680 N 845.06 -0.472393 -4.60785 0
M  V30 8681 C 845.795 -0.698737 -5.69127 0
M  V30 8682 N 845.291 -0.988443 -6.85713 0
M  V30 8683 N 847.084 -0.629143 -5.58568 0
M  V30 8684 H 839.235 -1.20484 -1.74921 0
M  V30 8685 H 841.498 -0.485092 -0.814488 0
M  V30 8686 H 841.204 -1.26577 -3.28133 0
M  V30 8687 H 841.078 0.420973 -3.74844 0
M  V30 8688 H 843.465 0.812229 -2.83702 0
M  V30 8689 H 843.546 -0.899111 -2.39478 0
M  V30 8690 H 843.19 -1.52597 -4.84434 0
M  V30 8691 H 843.12 0.204468 -5.26203 0
M  V30 8692 H 845.611 -0.257386 -3.77022 0
M  V30 8693 H 845.924 -1.14846 -7.64219 0
M  V30 8694 H 844.269 -1.02596 -6.87386 0
M  V30 8695 H 847.46 -0.402826 -4.66364 0
M  V30 8696 H 847.633 -0.808935 -6.42931 0
M  V30 8697 N 841.039 1.57585 0.0217189 0
M  V30 8698 C 842.002 2.06004 1.00474 0
M  V30 8699 C 843.002 0.965461 1.2859 0
M  V30 8700 O 844.192 1.22884 1.23471 0
M  V30 8701 C 841.324 2.48319 2.33561 0
M  V30 8702 H 842.517 2.94112 0.586346 0
M  V30 8703 H 840.07 1.53973 0.268716 0
M  V30 8704 H 840.805 1.63389 2.80133 0
M  V30 8705 H 840.59 3.28239 2.1448 0
M  V30 8706 H 842.08 2.86181 3.04122 0
M  V30 8707 N 842.517 -0.29412 1.54831 0
M  V30 8708 C 843.465 -1.38296 1.87021 0
M  V30 8709 C 844.459 -1.5216 0.744557 0
M  V30 8710 O 845.665 -1.54196 0.92864 0
M  V30 8711 H 842.04 -0.462088 0.593278 0
M  V30 8712 H 844.011 -1.08386 2.7802 0
M  V30 8713 C 842.76 -2.74024 2.14023 0
M  V30 8714 H 842.083 -2.6414 3.00117 0
M  V30 8715 H 843.523 -3.49205 2.40482 0
M  V30 8716 C 841.982 -3.23492 0.940982 0
M  V30 8717 O 842.512 -4.01361 0.164937 0
M  V30 8718 N 840.718 -2.80902 0.744467 0
M  V30 8719 H 840.265 -2.17694 1.37721 0
M  V30 8720 H 840.223 -3.14349 -0.0563652 0
M  V30 8721 N 843.995 -1.47404 -0.557645 0
M  V30 8722 C 845.22 -1.57868 -1.34508 0
M  V30 8723 C 845.645 -0.229151 -1.86699 0
M  V30 8724 O 845.003 0.794908 -1.62944 0
M  V30 8725 C 845.051 -2.60712 -2.49122 0
M  V30 8726 O 844.155 -2.15952 -3.51338 0
M  V30 8727 H 843.496 -0.530335 -0.399551 0
M  V30 8728 H 846.026 -1.93181 -0.673954 0
M  V30 8729 H 846.036 -2.81118 -2.95697 0
M  V30 8730 H 844.711 -3.58701 -2.10491 0
M  V30 8731 H 843.288 -2.05644 -3.11071 0
M  V30 8732 N 845.473 0.80434 -1.35529 0
M  V30 8733 C 846.436 1.89788 -1.28503 0
M  V30 8734 C 847.436 1.59601 -0.195983 0
M  V30 8735 O 848.626 1.68292 -0.449827 0
M  V30 8736 C 845.758 3.26255 -0.98847 0
M  V30 8737 H 846.951 1.97436 -2.25741 0
M  V30 8738 H 844.504 1.00046 -1.20086 0
M  V30 8739 H 845.239 3.24294 -0.0200541 0
M  V30 8740 H 845.024 3.49551 -1.77641 0
M  V30 8741 H 846.514 4.06298 -0.964975 0
M  V30 8742 N 846.951 1.19563 1.02676 0
M  V30 8743 C 848.199 0.997593 1.75763 0
M  V30 8744 C 848.52 -0.47253 1.89188 0
M  V30 8745 O 847.79 -1.34214 1.42701 0
M  V30 8746 H 846.37 0.366128 0.651122 0
M  V30 8747 H 849.032 1.50495 1.23844 0
M  V30 8748 H 848.128 1.44741 2.76508 0
M  V30 8749 N 848.429 -1.21819 0.999893 0
M  V30 8750 C 849.392 -2.22227 0.561044 0
M  V30 8751 C 850.392 -1.56722 -0.359858 0
M  V30 8752 O 851.582 -1.73546 -0.150848 0
M  V30 8753 C 848.714 -3.40409 -0.182987 0
M  V30 8754 H 849.907 -2.62567 1.44909 0
M  V30 8755 H 847.46 -1.34991 0.78785 0
M  V30 8756 H 848.195 -3.05551 -1.08671 0
M  V30 8757 H 847.98 -3.89171 0.47833 0
M  V30 8758 H 849.47 -4.14856 -0.477952 0
M  V30 8759 N 849.908 -0.773975 -1.37286 0
M  V30 8760 C 851.136 -0.350758 -2.03905 0
M  V30 8761 C 851.551 1.02779 -1.58373 0
M  V30 8762 O 850.908 1.65646 -0.766009 0
M  V30 8763 C 850.959 -0.387335 -3.59419 0
M  V30 8764 O 850.68 -1.7115 -4.03286 0
M  V30 8765 C 852.181 0.047198 -4.43275 0
M  V30 8766 H 849.401 -0.146663 -0.654775 0
M  V30 8767 H 851.945 -1.04852 -1.75574 0
M  V30 8768 H 850.1 0.261865 -3.86514 0
M  V30 8769 H 850.514 -1.65166 -4.97816 0
M  V30 8770 H 851.988 -0.0295474 -5.51992 0
M  V30 8771 H 852.465 1.09786 -4.25257 0
M  V30 8772 H 853.071 -0.573899 -4.2141 0
M  V30 8773 N 851.386 1.48609 -0.524698 0
M  V30 8774 C 852.802 1.58557 -0.182199 0
M  V30 8775 C 853.002 1.52732 1.31435 0
M  V30 8776 O 852.058 1.41362 2.0922 0
M  V30 8777 C 853.371 2.90406 -0.78004 0
M  V30 8778 C 854.919 3.03924 -0.748293 0
M  V30 8779 C 855.394 4.38427 -1.32462 0
M  V30 8780 N 856.885 4.4498 -1.28635 0
M  V30 8781 C 857.62 5.47551 -1.70223 0
M  V30 8782 N 857.116 6.57103 -2.19515 0
M  V30 8783 N 858.909 5.38402 -1.61493 0
M  V30 8784 H 851.06 1.50638 -1.4974 0
M  V30 8785 H 853.323 0.714952 -0.622533 0
M  V30 8786 H 853.029 3.00308 -1.83052 0
M  V30 8787 H 852.903 3.76343 -0.254075 0
M  V30 8788 H 855.29 2.93638 0.293407 0
M  V30 8789 H 855.371 2.19611 -1.31167 0
M  V30 8790 H 855.015 4.49466 -2.36522 0
M  V30 8791 H 854.945 5.21418 -0.736967 0
M  V30 8792 H 857.436 3.66393 -0.92545 0
M  V30 8793 H 857.749 7.31499 -2.49257 0
M  V30 8794 H 856.094 6.58081 -2.23506 0
M  V30 8795 H 859.285 4.5171 -1.22785 0
M  V30 8796 H 859.458 6.18208 -1.94225 0
M  V30 8797 N 852.864 0.259585 1.55447 0
M  V30 8798 C 853.827 -0.621359 2.20617 0
M  V30 8799 C 854.827 -1.09317 1.17925 0
M  V30 8800 O 856.017 -0.995842 1.42929 0
M  V30 8801 C 853.149 -1.85546 2.85982 0
M  V30 8802 H 854.342 -0.0525833 2.99854 0
M  V30 8803 H 851.895 0.0101055 1.56297 0
M  V30 8804 H 852.63 -2.46515 2.10715 0
M  V30 8805 H 852.415 -1.52523 3.61219 0
M  V30 8806 H 853.905 -2.48227 3.35817 0
M  V30 8807 N 854.342 -1.57594 -0.0133615 0
M  V30 8808 C 855.588 -1.90262 -0.702019 0
M  V30 8809 C 855.921 -0.859219 -1.74158 0
M  V30 8810 O 855.196 0.123778 -1.94106 0
M  V30 8811 C 855.479 -3.3354 -1.35732 0
M  V30 8812 C 855.332 -4.48586 -0.330208 0
M  V30 8813 C 856.651 -3.76004 -2.28712 0
M  V30 8814 H 853.77 -0.691943 -0.253739 0
M  V30 8815 H 856.412 -1.89967 0.0351894 0
M  V30 8816 H 854.562 -3.33921 -1.98567 0
M  V30 8817 H 856.234 -4.6034 0.297433 0
M  V30 8818 H 854.477 -4.32394 0.348926 0
M  V30 8819 H 855.148 -5.45762 -0.827508 0
M  V30 8820 H 857.624 -3.77089 -1.75906 0
M  V30 8821 H 856.5 -4.77032 -2.71535 0
M  V30 8822 H 856.761 -3.09129 -3.16056 0
M  V30 8823 N 855.82 0.285905 -1.54985 0
M  V30 8824 C 856.73 1.37534 -1.90057 0
M  V30 8825 C 857.746 1.54707 -0.796348 0
M  V30 8826 O 858.922 1.69082 -1.09423 0
M  V30 8827 C 855.987 2.7167 -2.15398 0
M  V30 8828 C 855.048 2.63354 -3.39033 0
M  V30 8829 C 854.281 3.91093 -3.63155 0
M  V30 8830 O 854.504 4.91169 -2.90015 0
M  V30 8831 O 853.438 3.92075 -4.56685 0
M  V30 8832 H 857.264 1.10791 -2.8277 0
M  V30 8833 H 854.849 0.483303 -1.41367 0
M  V30 8834 H 856.731 3.51006 -2.33179 0
M  V30 8835 H 855.406 2.98226 -1.25868 0
M  V30 8836 H 854.313 1.82438 -3.26599 0
M  V30 8837 H 855.646 2.41749 -4.2874 0
M  V30 8838 N 857.298 1.47698 0.54982 0
M  V30 8839 C 858.544 1.54931 1.30859 0
M  V30 8840 C 858.877 0.214021 1.93017 0
M  V30 8841 O 858.152 -0.778093 1.78258 0
M  V30 8842 C 858.435 2.67286 2.41309 0
M  V30 8843 C 858.288 4.10457 1.83971 0
M  V30 8844 C 859.607 2.75509 3.43195 0
M  V30 8845 H 856.726 0.56399 0.474431 0
M  V30 8846 H 859.368 1.79787 0.614541 0
M  V30 8847 H 857.518 2.46224 3.0051 0
M  V30 8848 H 859.19 4.42903 1.28974 0
M  V30 8849 H 857.433 4.18387 1.14606 0
M  V30 8850 H 858.104 4.84857 2.63851 0
M  V30 8851 H 860.58 2.94531 2.93923 0
M  V30 8852 H 859.456 3.55886 4.17895 0
M  V30 8853 H 859.717 1.82863 4.02509 0
M  V30 8854 N 858.776 -0.797141 1.35954 0
M  V30 8855 C 859.706 -1.92387 1.32323 0
M  V30 8856 C 860.687 -1.68967 0.196007 0
M  V30 8857 O 861.872 -1.90193 0.39245 0
M  V30 8858 C 859.002 -3.29286 1.10398 0
M  V30 8859 C 857.956 -3.67212 2.19862 0
M  V30 8860 C 857.282 -5.02377 1.8309 0
M  V30 8861 C 858.582 -3.76602 3.61896 0
M  V30 8862 H 860.276 -1.95683 2.26602 0
M  V30 8863 H 857.822 -0.94007 1.09081 0
M  V30 8864 H 859.775 -4.07721 1.06495 0
M  V30 8865 H 858.499 -3.26358 0.125668 0
M  V30 8866 H 857.158 -2.91069 2.22878 0
M  V30 8867 H 856.806 -4.95961 0.838527 0
M  V30 8868 H 856.506 -5.28722 2.56372 0
M  V30 8869 H 858.03 -5.8324 1.80729 0
M  V30 8870 H 859.444 -4.45246 3.6115 0
M  V30 8871 H 857.841 -4.14425 4.34018 0
M  V30 8872 H 858.911 -2.77906 3.97361 0
M  V30 8873 N 860.254 -1.20106 -1.0204 0
M  V30 8874 C 861.665 -1.00992 -1.57027 0
M  V30 8875 C 862.016 0.434782 -1.91322 0
M  V30 8876 O 861.141 1.31557 -1.71819 0
M  V30 8877 C 861.736 -1.82697 -2.85319 0
M  V30 8878 C 860.295 -1.67959 -3.36848 0
M  V30 8879 C 859.442 -1.80868 -2.10195 0
M  V30 8880 H 862.393 -1.34354 -0.844676 0
M  V30 8881 H 862.414 -1.32809 -3.5657 0
M  V30 8882 H 861.926 -2.87839 -2.60328 0
M  V30 8883 H 860.027 -0.654389 -3.66809 0
M  V30 8884 H 860.14 -2.49006 -4.09308 0
M  V30 8885 H 858.504 -1.24015 -2.22469 0
M  V30 8886 H 859.287 -2.87486 -1.87635 0
M  V30 8887 N 861.732 1.21287 -1.00634 0
M  V30 8888 C 862.679 2.23705 -0.567876 0
M  V30 8889 C 863.649 1.61043 0.406753 0
M  V30 8890 O 864.834 1.88289 0.308499 0
M  V30 8891 C 861.974 3.44961 0.097996 0
M  V30 8892 C 861.087 4.22091 -0.919972 0
M  V30 8893 C 860.222 5.30718 -0.226222 0
M  V30 8894 C 859.261 5.99581 -1.23165 0
M  V30 8895 N 858.398 6.99821 -0.565278 0
M  V30 8896 H 863.238 2.60571 -1.44592 0
M  V30 8897 H 860.775 1.28049 -0.724006 0
M  V30 8898 H 862.733 4.1418 0.501097 0
M  V30 8899 H 861.363 3.08818 0.939744 0
M  V30 8900 H 860.415 3.52038 -1.44131 0
M  V30 8901 H 861.727 4.69476 -1.68505 0
M  V30 8902 H 860.881 6.06253 0.232917 0
M  V30 8903 H 859.62 4.84343 0.571247 0
M  V30 8904 H 858.625 5.22816 -1.70128 0
M  V30 8905 H 859.85 6.48042 -2.03022 0
M  V30 8906 H 857.796 6.55656 0.212508 0
M  V30 8907 H 857.713 7.4528 -1.26858 0
M  V30 8908 H 858.981 7.79393 -0.129389 0
M  V30 8909 N 863.21 0.781244 1.36873 0
M  V30 8910 C 864.173 0.180094 2.28491 0
M  V30 8911 C 865.173 -0.617798 1.48458 0
M  V30 8912 O 866.363 -0.439991 1.68552 0
M  V30 8913 C 863.495 -0.751741 3.32508 0
M  V30 8914 H 864.688 0.987837 2.83164 0
M  V30 8915 H 862.241 0.550102 1.463 0
M  V30 8916 H 862.976 -1.58413 2.82977 0
M  V30 8917 H 862.761 -0.181649 3.91679 0
M  V30 8918 H 864.251 -1.16748 4.00949 0
M  V30 8919 N 864.689 -1.48329 0.532571 0
M  V30 8920 C 865.937 -2.021 -0.000581206 0
M  V30 8921 C 866.258 -1.4117 -1.34522 0
M  V30 8922 O 865.528 -0.578005 -1.87179 0
M  V30 8923 H 864.108 -0.746993 -0.00320281 0
M  V30 8924 H 866.77 -1.82011 0.696991 0
M  V30 8925 H 865.866 -3.11917 -0.106991 0
M  V30 8926 N 866.167 -0.267825 -1.55308 0
M  V30 8927 C 867.13 0.60965 -2.20943 0
M  V30 8928 C 868.13 1.0869 -1.18504 0
M  V30 8929 O 869.32 0.988248 -1.43455 0
M  V30 8930 C 866.452 1.84027 -2.86961 0
M  V30 8931 H 867.645 0.0366806 -2.99878 0
M  V30 8932 H 865.198 -0.0183941 -1.56289 0
M  V30 8933 H 865.933 2.45394 -2.1202 0
M  V30 8934 H 865.718 1.50605 -3.62023 0
M  V30 8935 H 867.208 2.46442 -3.37129 0
M  V30 8936 N 867.645 1.57599 0.00500368 0
M  V30 8937 C 868.575 2.11143 0.99705 0
M  V30 8938 C 869.556 1.0194 1.3617 0
M  V30 8939 O 870.741 1.29596 1.44632 0
M  V30 8940 C 867.871 2.61062 2.2905 0
M  V30 8941 C 866.825 3.74745 2.0676 0
M  V30 8942 C 866.151 4.10961 3.42075 0
M  V30 8943 C 867.451 5.02222 1.43424 0
M  V30 8944 H 869.145 2.94281 0.551251 0
M  V30 8945 H 866.691 1.41565 0.263715 0
M  V30 8946 H 868.644 2.97146 2.98801 0
M  V30 8947 H 867.368 1.75038 2.75734 0
M  V30 8948 H 866.027 3.39047 1.39436 0
M  V30 8949 H 865.675 3.21968 3.86453 0
M  V30 8950 H 865.375 4.87549 3.27979 0
M  V30 8951 H 866.899 4.49599 4.1315 0
M  V30 8952 H 868.313 5.36109 2.03125 0
M  V30 8953 H 866.71 5.83581 1.39831 0
M  V30 8954 H 867.78 4.83224 0.40285 0
M  V30 8955 N 869.123 -0.277682 1.55134 0
M  V30 8956 C 870.071 -1.36305 1.88478 0
M  V30 8957 C 871.065 -1.51362 0.760654 0
M  V30 8958 O 872.271 -1.53202 0.944943 0
M  V30 8959 H 868.646 -0.45577 0.598146 0
M  V30 8960 H 870.617 -1.05431 2.79154 0
M  V30 8961 C 869.366 -2.71739 2.16918 0
M  V30 8962 H 868.689 -2.60942 3.02901 0
M  V30 8963 H 870.129 -3.46635 2.44172 0
M  V30 8964 C 868.588 -3.22476 0.975239 0
M  V30 8965 O 869.118 -4.01164 0.207497 0
M  V30 8966 N 867.324 -2.80097 0.774219 0
M  V30 8967 H 866.871 -2.16221 1.40022 0
M  V30 8968 H 866.829 -3.14392 -0.023021 0
M  V30 8969 N 870.601 -1.47988 -0.541979 0
M  V30 8970 C 871.826 -1.59286 -1.32826 0
M  V30 8971 C 872.251 -0.24894 -1.86445 0
M  V30 8972 O 871.609 0.777581 -1.63778 0
M  V30 8973 C 871.657 -2.6334 -2.46343 0
M  V30 8974 O 870.761 -2.19667 -3.49028 0
M  V30 8975 H 870.102 -0.534543 -0.393903 0
M  V30 8976 H 872.632 -1.93885 -0.653427 0
M  V30 8977 H 872.642 -2.84238 -2.92699 0
M  V30 8978 H 871.317 -3.60913 -2.06675 0
M  V30 8979 H 869.894 -2.08932 -3.08872 0
M  V30 8980 N 872.079 0.78992 -1.36375 0
M  V30 8981 C 873.027 1.92394 -1.30719 0
M  V30 8982 C 874.021 1.68226 -0.199076 0
M  V30 8983 O 875.227 1.76239 -0.366051 0
M  V30 8984 H 871.602 0.632382 -0.406936 0
M  V30 8985 H 873.573 1.94282 -2.26488 0
M  V30 8986 C 872.322 3.2941 -1.11284 0
M  V30 8987 H 871.645 3.48573 -1.95798 0
M  V30 8988 H 873.085 4.09111 -1.11373 0
M  V30 8989 C 871.544 3.36405 0.182543 0
M  V30 8990 O 872.074 3.84206 1.17255 0
M  V30 8991 N 870.28 2.89712 0.227046 0
M  V30 8992 H 869.827 2.51004 -0.579217 0
M  V30 8993 H 869.785 2.94773 1.09344 0
M  V30 8994 N 873.557 1.20646 1.01402 0
M  V30 8995 C 874.834 0.927176 1.72229 0
M  V30 8996 C 875.214 -0.563382 2.03443 0
M  V30 8997 O 874.562 -1.52576 1.70096 0
M  V30 8998 C 874.772 1.80285 2.98828 0
M  V30 8999 C 876.12 2.04624 3.72041 0
M  V30 9000 O 877.144 1.77559 3.0879 0
M  V30 9001 O 876.003 2.50347 4.85787 0
M  V30 9002 H 873.097 0.346891 0.75073 0
M  V30 9003 H 875.643 1.31532 1.07227 0
M  V30 9004 H 874.415 2.81204 2.72102 0
M  V30 9005 H 874.038 1.41495 3.71571 0
M  V30 9006 N 875.035 -1.20752 1.01276 0
M  V30 9007 C 875.998 -2.2162 0.584583 0
M  V30 9008 C 876.998 -1.57094 -0.343215 0
M  V30 9009 O 878.188 -1.73696 -0.132433 0
M  V30 9010 C 875.32 -3.40583 -0.146872 0
M  V30 9011 H 876.513 -2.61015 1.47686 0
M  V30 9012 H 874.066 -1.34148 0.802123 0
M  V30 9013 H 874.801 -3.06686 -1.05424 0
M  V30 9014 H 874.586 -3.88642 0.51958 0
M  V30 9015 H 876.076 -4.15339 -0.433924 0
M  V30 9016 N 876.513 -0.788492 -1.36457 0
M  V30 9017 C 877.76 -0.360461 -1.99266 0
M  V30 9018 C 878.088 1.0676 -1.62581 0
M  V30 9019 O 877.343 1.75205 -0.871884 0
M  V30 9020 C 877.642 -0.470255 -3.54293 0
M  V30 9021 C 877.308 -1.85899 -4.10795 0
M  V30 9022 C 875.97 -2.23896 -4.25939 0
M  V30 9023 C 878.322 -2.76836 -4.41601 0
M  V30 9024 C 875.65 -3.52235 -4.69199 0
M  V30 9025 C 878.002 -4.04602 -4.86292 0
M  V30 9026 C 876.666 -4.42623 -4.99641 0
M  V30 9027 H 875.936 -0.131902 -0.729166 0
M  V30 9028 H 878.583 -1.00577 -1.62962 0
M  V30 9029 H 876.888 0.258559 -3.90946 0
M  V30 9030 H 878.585 -0.120119 -4.0082 0
M  V30 9031 H 875.175 -1.55372 -3.99447 0
M  V30 9032 H 879.359 -2.48735 -4.2947 0
M  V30 9033 H 874.615 -3.81565 -4.77722 0
M  V30 9034 H 878.789 -4.75182 -5.09092 0
M  V30 9035 H 876.416 -5.42125 -5.32921 0
M  V30 9036 N 877.991 1.48044 -0.54043 0
M  V30 9037 C 879.237 2.02797 -0.0101718 0
M  V30 9038 C 879.57 1.41565 1.32939 0
M  V30 9039 O 878.845 0.565139 1.86109 0
M  V30 9040 C 879.128 3.59959 0.100758 0
M  V30 9041 C 878.981 4.31654 -1.26471 0
M  V30 9042 C 880.3 4.32347 0.822455 0
M  V30 9043 H 877.419 0.736982 -0.00517052 0
M  V30 9044 H 880.061 1.76656 -0.69948 0
M  V30 9045 H 878.211 3.82363 0.687824 0
M  V30 9046 H 879.883 4.20639 -1.89369 0
M  V30 9047 H 878.126 3.92663 -1.84386 0
M  V30 9048 H 878.797 5.401 -1.13998 0
M  V30 9049 H 881.273 4.14835 0.324164 0
M  V30 9050 H 880.149 5.41978 0.868993 0
M  V30 9051 H 880.41 4.00369 1.87501 0
M  V30 9052 N 879.47 0.276058 1.55163 0
M  V30 9053 C 880.4 -0.604633 2.25536 0
M  V30 9054 C 881.381 -1.15813 1.24585 0
M  V30 9055 O 882.566 -1.1921 1.53306 0
M  V30 9056 C 879.696 -1.78836 2.97716 0
M  V30 9057 C 878.65 -1.36635 4.05604 0
M  V30 9058 C 877.976 -2.63325 4.65364 0
M  V30 9059 C 879.276 -0.515858 5.19746 0
M  V30 9060 H 880.97 -0.0177483 2.99395 0
M  V30 9061 H 878.516 -0.00709627 1.43998 0
M  V30 9062 H 880.469 -2.41036 3.45658 0
M  V30 9063 H 879.193 -2.40109 2.21394 0
M  V30 9064 H 877.852 -0.767541 3.58475 0
M  V30 9065 H 877.5 -3.22858 3.85709 0
M  V30 9066 H 877.2 -2.358 5.38212 0
M  V30 9067 H 878.724 -3.26372 5.16056 0
M  V30 9068 H 880.138 -1.04289 5.63735 0
M  V30 9069 H 878.535 -0.335449 5.99162 0
M  V30 9070 H 879.605 0.465137 4.82664 0
M  V30 9071 N 880.948 -1.576 0.00335426 0
M  V30 9072 C 881.895 -2.08632 -0.986975 0
M  V30 9073 C 882.865 -0.982491 -1.33927 0
M  V30 9074 O 884.05 -1.25513 -1.43705 0
M  V30 9075 C 881.19 -2.59705 -2.27261 0
M  V30 9076 C 880.303 -3.84002 -1.97905 0
M  V30 9077 C 879.438 -4.23563 -3.20574 0
M  V30 9078 C 878.477 -5.40688 -2.8692 0
M  V30 9079 N 877.614 -5.75526 -4.02136 0
M  V30 9080 H 882.454 -2.92977 -0.544855 0
M  V30 9081 H 879.991 -1.44831 -0.257376 0
M  V30 9082 H 881.949 -2.87395 -3.02423 0
M  V30 9083 H 880.579 -1.7823 -2.69136 0
M  V30 9084 H 879.631 -3.63199 -1.13096 0
M  V30 9085 H 880.943 -4.69261 -1.69102 0
M  V30 9086 H 880.097 -4.52554 -4.04079 0
M  V30 9087 H 878.836 -3.37019 -3.52518 0
M  V30 9088 H 877.841 -5.11417 -2.01822 0
M  V30 9089 H 879.066 -6.2891 -2.5622 0
M  V30 9090 H 877.012 -4.9194 -4.33971 0
M  V30 9091 H 876.929 -6.55367 -3.76869 0
M  V30 9092 H 878.197 -6.0911 -4.8642 0
M  V30 9093 N 882.426 0.269451 -1.5528 0
M  V30 9094 C 883.654 1.01872 -1.80082 0
M  V30 9095 C 884.069 1.79802 -0.575917 0
M  V30 9096 O 883.426 1.76735 0.455081 0
M  V30 9097 C 883.477 1.9745 -3.02813 0
M  V30 9098 O 883.198 1.22677 -4.20573 0
M  V30 9099 C 884.699 2.8416 -3.40247 0
M  V30 9100 H 881.919 0.300781 -0.59981 0
M  V30 9101 H 884.463 0.29916 -2.023 0
M  V30 9102 H 882.618 2.64864 -2.82712 0
M  V30 9103 H 883.032 1.87129 -4.89982 0
M  V30 9104 H 884.506 3.47014 -4.29284 0
M  V30 9105 H 884.983 3.54113 -2.59809 0
M  V30 9106 H 885.589 2.22232 -3.6262 0
M  V30 9107 N 883.904 1.48273 0.534124 0
M  V30 9108 C 885.315 1.49667 1.1161 0
M  V30 9109 C 885.666 0.264139 1.94414 0
M  V30 9110 O 884.791 -0.629084 2.07054 0
M  V30 9111 C 885.386 2.71191 2.03079 0
M  V30 9112 C 883.945 2.7547 2.56502 0
M  V30 9113 C 883.092 2.43119 1.33373 0
M  V30 9114 H 886.043 1.55449 0.319578 0
M  V30 9115 H 886.064 2.49473 2.87304 0
M  V30 9116 H 885.576 3.60879 1.42785 0
M  V30 9117 H 883.677 1.89979 3.20529 0
M  V30 9118 H 883.79 3.76787 2.95919 0
M  V30 9119 H 882.154 1.94187 1.64813 0
M  V30 9120 H 882.937 3.35044 0.748375 0
M  V30 9121 N 885.382 -0.782676 1.36792 0
M  V30 9122 C 886.607 -1.57676 1.34733 0
M  V30 9123 C 887.032 -1.87979 -0.0675253 0
M  V30 9124 O 886.39 -1.48404 -1.04144 0
M  V30 9125 C 886.438 -2.87047 2.18257 0
M  V30 9126 O 885.542 -3.80946 1.57969 0
M  V30 9127 H 884.883 -0.478034 0.460846 0
M  V30 9128 H 887.413 -0.969578 1.80168 0
M  V30 9129 H 887.423 -3.36254 2.31079 0
M  V30 9130 H 886.098 -2.64319 3.21104 0
M  V30 9131 H 884.675 -3.39558 1.54126 0
M  V30 9132 N 886.86 -1.21182 -1.00761 0
M  V30 9133 C 887.823 -0.970339 -2.07646 0
M  V30 9134 C 888.823 0.0576345 -1.60697 0
M  V30 9135 O 890.013 -0.179369 -1.73274 0
M  V30 9136 C 887.145 -0.462703 -3.37745 0
M  V30 9137 H 888.338 -1.91856 -2.30502 0
M  V30 9138 H 885.891 -1.02844 -1.17698 0
M  V30 9139 H 886.626 0.490559 -3.20568 0
M  V30 9140 H 886.411 -1.20416 -3.73152 0
M  V30 9141 H 887.901 -0.313531 -4.16421 0
M  V30 9142 N 888.338 1.20213 -1.01915 0
M  V30 9143 C 889.301 2.21307 -0.596327 0
M  V30 9144 C 890.301 1.57274 0.334879 0
M  V30 9145 O 891.491 1.73764 0.12322 0
M  V30 9146 C 888.623 3.40657 0.128808 0
M  V30 9147 H 889.816 2.60228 -1.49068 0
M  V30 9148 H 887.369 1.33721 -0.809226 0
M  V30 9149 H 888.104 3.07241 1.03796 0
M  V30 9150 H 887.889 3.88361 -0.540183 0
M  V30 9151 H 889.379 4.15564 0.411892 0
M  V30 9152 N 889.816 0.795718 1.36037 0
M  V30 9153 C 891.046 0.382597 2.03026 0
M  V30 9154 C 891.454 -1.00779 1.60126 0
M  V30 9155 O 890.797 -1.65884 0.78919 0
M  V30 9156 C 890.859 0.374145 3.57548 0
M  V30 9157 C 890.523 1.71318 4.23673 0
M  V30 9158 C 891.52 2.6697 4.4612 0
M  V30 9159 C 889.205 1.99421 4.61017 0
M  V30 9160 C 891.199 3.88916 5.04998 0
M  V30 9161 C 888.886 3.21632 5.19611 0
M  V30 9162 C 889.884 4.16198 5.41542 0
M  V30 9163 O 889.572 5.36254 5.98905 0
M  V30 9164 H 889.304 0.154944 0.658003 0
M  V30 9165 H 891.858 1.07756 1.74865 0
M  V30 9166 H 890.088 -0.377349 3.84854 0
M  V30 9167 H 891.777 -0.01517 4.05897 0
M  V30 9168 H 892.543 2.46548 4.17659 0
M  V30 9169 H 888.422 1.2663 4.43267 0
M  V30 9170 H 891.966 4.6274 5.22032 0
M  V30 9171 H 887.863 3.4193 5.47498 0
M  V30 9172 H 888.631 5.37403 6.17366 0
M  V30 9173 N 891.294 -1.47756 0.548274 0
M  V30 9174 C 892.224 -2.32702 -0.19284 0
M  V30 9175 C 893.205 -1.43237 -0.917457 0
M  V30 9176 O 894.39 -1.72103 -0.89967 0
M  V30 9177 C 891.52 -3.24831 -1.22891 0
M  V30 9178 C 890.474 -4.23466 -0.621312 0
M  V30 9179 C 889.8 -5.04856 -1.76137 0
M  V30 9180 C 891.1 -5.20616 0.419055 0
M  V30 9181 H 892.794 -2.94914 0.516323 0
M  V30 9182 H 890.34 -1.41818 0.24975 0
M  V30 9183 H 892.293 -3.83094 -1.75547 0
M  V30 9184 H 891.017 -2.60656 -1.9679 0
M  V30 9185 H 889.676 -3.66416 -0.116123 0
M  V30 9186 H 889.324 -4.37091 -2.48918 0
M  V30 9187 H 889.024 -5.71629 -1.36065 0
M  V30 9188 H 890.548 -5.65976 -2.29136 0
M  V30 9189 H 891.962 -5.73296 -0.0211034 0
M  V30 9190 H 890.359 -5.95543 0.738163 0
M  V30 9191 H 891.429 -4.66638 1.31822 0
M  V30 9192 N 892.772 -0.284283 -1.55015 0
M  V30 9193 C 894.018 0.3233 -2.00814 0
M  V30 9194 C 894.373 1.52796 -1.16923 0
M  V30 9195 O 893.666 1.90172 -0.233499 0
M  V30 9196 C 893.86 0.747219 -3.49502 0
M  V30 9197 C 893.689 -0.414821 -4.47783 0
M  V30 9198 C 892.459 -0.901531 -4.97193 0
M  V30 9199 C 894.657 -1.25433 -4.9877 0
M  V30 9200 N 892.639 -2.03208 -5.79292 0
M  V30 9201 C 894.01 -2.23262 -5.78406 0
M  V30 9202 C 896.065 -1.28662 -4.80989 0
M  V30 9203 C 894.768 -3.24077 -6.42158 0
M  V30 9204 C 896.794 -2.28326 -5.45547 0
M  V30 9205 C 896.156 -3.24887 -6.25002 0
M  V30 9206 H 892.255 0.0832226 -0.777559 0
M  V30 9207 H 894.839 -0.410393 -1.90326 0
M  V30 9208 H 893.01 1.45012 -3.60314 0
M  V30 9209 H 894.742 1.33292 -3.8212 0
M  V30 9210 H 891.497 -0.479291 -4.71169 0
M  V30 9211 H 891.921 -2.60125 -6.25031 0
M  V30 9212 H 896.563 -0.553858 -4.19157 0
M  V30 9213 H 894.281 -3.98281 -7.03134 0
M  V30 9214 H 897.867 -2.31578 -5.33726 0
M  V30 9215 H 896.747 -4.00745 -6.74072 0
M  V30 9216 N 894.251 1.57596 -0.0117121 0
M  V30 9217 C 895.497 1.91355 0.671661 0
M  V30 9218 C 895.83 0.886818 1.72769 0
M  V30 9219 O 895.105 -0.0928813 1.94278 0
M  V30 9220 C 895.388 3.35657 1.30409 0
M  V30 9221 C 895.241 4.49055 0.2588 0
M  V30 9222 C 896.56 3.79595 2.22701 0
M  V30 9223 H 893.679 0.695893 0.242698 0
M  V30 9224 H 896.321 1.89887 -0.0654071 0
M  V30 9225 H 894.471 3.37038 1.9323 0
M  V30 9226 H 896.143 4.59809 -0.370631 0
M  V30 9227 H 894.386 4.31785 -0.417672 0
M  V30 9228 H 895.057 5.4701 0.740578 0
M  V30 9229 H 897.533 3.7984 1.69885 0
M  V30 9230 H 896.409 4.81292 2.63912 0
M  V30 9231 H 896.67 3.14118 3.11098 0
M  V30 9232 N 895.729 -0.261212 1.5542 0
M  V30 9233 C 896.977 -0.989272 1.76232 0
M  V30 9234 C 897.298 -1.86389 0.573067 0
M  V30 9235 O 896.568 -1.91526 -0.41166 0
M  V30 9236 H 895.148 -0.368256 0.64992 0
M  V30 9237 H 897.81 -0.282603 1.9284 0
M  V30 9238 H 896.906 -1.61935 2.66802 0
M  V30 9239 N 897.207 -1.48554 -0.526253 0
M  V30 9240 C 898.435 -1.60429 -1.30652 0
M  V30 9241 C 898.85 -0.265963 -1.86917 0
M  V30 9242 O 898.207 0.745262 -1.6659 0
M  V30 9243 C 898.258 -2.65377 -2.45473 0
M  V30 9244 O 897.979 -3.94017 -1.91527 0
M  V30 9245 C 899.48 -2.87726 -3.37237 0
M  V30 9246 H 896.7 -0.540817 -0.397187 0
M  V30 9247 H 899.244 -1.94409 -0.634461 0
M  V30 9248 H 897.399 -2.34246 -3.08557 0
M  V30 9249 H 897.813 -4.51623 -2.66715 0
M  V30 9250 H 899.287 -3.64951 -4.14144 0
M  V30 9251 H 899.764 -1.96688 -3.92696 0
M  V30 9252 H 900.37 -3.20176 -2.79942 0
M  V30 9253 N 898.685 0.775411 -1.37205 0
M  V30 9254 C 899.933 1.53081 -1.3195 0
M  V30 9255 C 900.254 1.9476 0.0966864 0
M  V30 9256 O 899.524 1.66019 1.03993 0
M  V30 9257 H 898.104 0.567762 -0.485444 0
M  V30 9258 H 900.766 0.92309 -1.71654 0
M  V30 9259 H 899.862 2.4319 -1.95614 0
M  V30 9260 N 900.163 1.21714 1.00117 0
M  V30 9261 C 901.126 0.981338 2.07129 0
M  V30 9262 C 902.126 -0.0491116 1.60725 0
M  V30 9263 O 903.316 0.188555 1.73177 0
M  V30 9264 C 900.448 0.480608 3.37495 0
M  V30 9265 H 901.641 1.93075 2.29482 0
M  V30 9266 H 899.194 1.03467 1.17151 0
M  V30 9267 H 899.929 -0.473552 3.20824 0
M  V30 9268 H 899.714 1.22393 3.72508 0
M  V30 9269 H 901.204 0.33561 4.16249 0
M  V30 9270 N 901.641 -1.19671 1.02551 0
M  V30 9271 C 902.866 -1.93774 0.739363 0
M  V30 9272 C 903.291 -1.74787 -0.695064 0
M  V30 9273 O 902.649 -1.04796 -1.47944 0
M  V30 9274 C 902.697 -3.43684 1.09149 0
M  V30 9275 O 901.801 -4.11874 0.208213 0
M  V30 9276 H 901.142 -0.605064 0.273484 0
M  V30 9277 H 903.672 -1.51846 1.37128 0
M  V30 9278 H 903.682 -3.94339 1.04695 0
M  V30 9279 H 902.357 -3.56826 2.13654 0
M  V30 9280 H 900.934 -3.716 0.311045 0
M  V30 9281 N 903.119 -0.802921 -1.35613 0
M  V30 9282 C 904.029 -0.212177 -2.33639 0
M  V30 9283 C 905.045 0.642871 -1.61689 0
M  V30 9284 O 906.221 0.555485 -1.93588 0
M  V30 9285 C 903.286 0.632406 -3.40883 0
M  V30 9286 C 902.347 -0.242708 -4.28613 0
M  V30 9287 C 901.58 0.56166 -5.30736 0
M  V30 9288 O 901.803 1.79664 -5.41366 0
M  V30 9289 O 900.737 -0.0455387 -6.01883 0
M  V30 9290 H 904.563 -1.023 -2.85952 0
M  V30 9291 H 902.148 -0.564636 -1.38319 0
M  V30 9292 H 904.03 1.11358 -4.0642 0
M  V30 9293 H 902.705 1.42089 -2.90848 0
M  V30 9294 H 901.612 -0.77094 -3.6607 0
M  V30 9295 H 902.945 -0.995046 -4.82037 0
M  V30 9296 N 904.597 1.47463 -0.556102 0
M  V30 9297 C 905.56 2.28478 0.181743 0
M  V30 9298 C 906.56 1.36886 0.843738 0
M  V30 9299 O 907.75 1.59527 0.69977 0
M  V30 9300 C 904.882 3.16534 1.26566 0
M  V30 9301 H 906.075 2.95182 -0.529892 0
M  V30 9302 H 903.628 1.53134 -0.313005 0
M  V30 9303 H 904.363 2.5452 2.00973 0
M  V30 9304 H 904.148 3.83939 0.795798 0
M  V30 9305 H 905.638 3.77579 1.78393 0
M  V30 9306 N 906.075 0.2925 1.54862 0
M  V30 9307 C 906.985 -0.597036 2.26876 0
M  V30 9308 C 908.001 -1.15558 1.30086 0
M  V30 9309 O 909.177 -1.18217 1.63054 0
M  V30 9310 C 906.242 -1.75664 2.98903 0
M  V30 9311 C 905.303 -1.23303 4.11212 0
M  V30 9312 C 904.536 -2.33736 4.79795 0
M  V30 9313 O 904.759 -3.53459 4.47686 0
M  V30 9314 O 903.693 -2.00908 5.67379 0
M  V30 9315 H 907.519 -0.0131242 3.03697 0
M  V30 9316 H 905.104 0.0592642 1.49282 0
M  V30 9317 H 906.986 -2.43241 3.4411 0
M  V30 9318 H 905.661 -2.32731 2.24984 0
M  V30 9319 H 904.568 -0.523222 3.70423 0
M  V30 9320 H 905.901 -0.707887 4.87083 0
M  V30 9321 N 907.553 -1.57587 0.0200696 0
M  V30 9322 C 908.5 -2.09667 -0.964791 0
M  V30 9323 C 909.47 -0.99664 -1.32877 0
M  V30 9324 O 910.655 -1.2703 -1.42366 0
M  V30 9325 C 907.795 -2.62101 -2.24493 0
M  V30 9326 C 906.908 -3.8608 -1.93821 0
M  V30 9327 C 906.043 -4.26939 -3.16064 0
M  V30 9328 C 905.082 -5.43701 -2.81169 0
M  V30 9329 N 904.219 -5.79759 -3.9601 0
M  V30 9330 H 909.059 -2.93538 -0.513751 0
M  V30 9331 H 906.596 -1.45096 -0.242 0
M  V30 9332 H 908.554 -2.90587 -2.99358 0
M  V30 9333 H 907.184 -1.81074 -2.6723 0
M  V30 9334 H 906.236 -3.64378 -1.09237 0
M  V30 9335 H 907.548 -4.71028 -1.64115 0
M  V30 9336 H 906.702 -4.56814 -3.99257 0
M  V30 9337 H 905.441 -3.40739 -3.48924 0
M  V30 9338 H 904.446 -5.13529 -1.96387 0
M  V30 9339 H 905.671 -6.31593 -2.49535 0
M  V30 9340 H 903.617 -4.96516 -4.28729 0
M  V30 9341 H 903.534 -6.59327 -3.69896 0
M  V30 9342 H 904.802 -6.14235 -4.79933 0
M  V30 9343 N 909.032 0.252966 -1.55557 0
M  V30 9344 C 910.26 0.999565 -1.81153 0
M  V30 9345 C 910.675 1.79181 -0.594955 0
M  V30 9346 O 910.032 1.77208 0.436311 0
M  V30 9347 C 910.083 1.94227 -3.04891 0
M  V30 9348 O 909.804 1.18209 -4.21851 0
M  V30 9349 C 911.305 2.80536 -3.43241 0
M  V30 9350 H 908.525 0.294402 -0.602966 0
M  V30 9351 H 911.069 0.277686 -2.02606 0
M  V30 9352 H 909.224 2.6185 -2.85505 0
M  V30 9353 H 909.638 1.81922 -4.9194 0
M  V30 9354 H 911.112 3.42442 -4.32941 0
M  V30 9355 H 911.589 3.51337 -2.6355 0
M  V30 9356 H 912.195 2.18373 -3.64956 0
M  V30 9357 N 910.51 1.48831 0.518367 0
M  V30 9358 C 911.758 1.57128 1.27103 0
M  V30 9359 C 912.079 0.252098 1.93364 0
M  V30 9360 O 911.349 -0.727281 1.819 0
M  V30 9361 H 909.929 0.578891 0.472116 0
M  V30 9362 H 912.591 1.85361 0.602262 0
M  V30 9363 H 911.687 2.35838 2.04418 0
M  V30 9364 N 911.988 -0.768124 1.37614 0
M  V30 9365 C 912.951 -1.86314 1.3349 0
M  V30 9366 C 913.951 -1.59025 0.23823 0
M  V30 9367 O 915.141 -1.6704 0.494288 0
M  V30 9368 C 912.273 -3.23519 1.07462 0
M  V30 9369 H 913.466 -1.91382 2.30896 0
M  V30 9370 H 911.019 -0.968267 1.22696 0
M  V30 9371 H 911.754 -3.24127 0.106028 0
M  V30 9372 H 911.539 -3.44719 1.86846 0
M  V30 9373 H 913.029 -4.03597 1.07236 0
M  V30 9374 N 913.466 -1.22244 -0.994698 0
M  V30 9375 C 914.398 -0.948706 -2.08644 0
M  V30 9376 C 915.411 0.0720049 -1.62641 0
M  V30 9377 O 916.6 -0.161778 -1.77765 0
M  V30 9378 C 913.7 -0.404885 -3.36473 0
M  V30 9379 C 912.873 -1.48239 -4.11514 0
M  V30 9380 C 911.932 -0.94597 -5.17627 0
M  V30 9381 O 910.958 -1.63177 -5.45309 0
M  V30 9382 N 912.16 0.23355 -5.8003 0
M  V30 9383 H 914.925 -1.88858 -2.32707 0
M  V30 9384 H 912.486 -1.12908 -1.16032 0
M  V30 9385 H 914.478 -0.0313903 -4.04688 0
M  V30 9386 H 913.048 0.440061 -3.09487 0
M  V30 9387 H 912.268 -2.02928 -3.37955 0
M  V30 9388 H 913.556 -2.20741 -4.58422 0
M  V30 9389 H 912.954 0.80756 -5.59906 0
M  V30 9390 H 911.511 0.54845 -6.49488 0
M  V30 9391 N 914.944 1.19125 -1.03184 0
M  V30 9392 C 915.854 2.26112 -0.625329 0
M  V30 9393 C 916.87 1.7056 0.344298 0
M  V30 9394 O 918.046 2.0039 0.20144 0
M  V30 9395 C 915.111 3.46697 0.0145169 0
M  V30 9396 C 914.172 4.17419 -1.00299 0
M  V30 9397 C 913.405 5.32247 -0.393581 0
M  V30 9398 O 913.628 5.64724 0.802659 0
M  V30 9399 O 912.562 5.91428 -1.1179 0
M  V30 9400 H 916.388 2.63131 -1.51643 0
M  V30 9401 H 913.973 1.26036 -0.802197 0
M  V30 9402 H 915.855 4.19762 0.371139 0
M  V30 9403 H 914.53 3.11521 0.879581 0
M  V30 9404 H 913.437 3.4646 -1.41125 0
M  V30 9405 H 914.77 4.56573 -1.83852 0
M  V30 9406 N 916.422 0.810101 1.35185 0
M  V30 9407 C 917.352 0.237453 2.32289 0
M  V30 9408 C 918.333 -0.639032 1.5764 0
M  V30 9409 O 919.518 -0.568575 1.8569 0
M  V30 9410 C 916.648 -0.611964 3.41866 0
M  V30 9411 C 915.602 0.166318 4.27677 0
M  V30 9412 C 914.928 -0.805024 5.28605 0
M  V30 9413 C 916.228 1.36729 5.04086 0
M  V30 9414 H 917.922 1.04874 2.80432 0
M  V30 9415 H 915.468 0.505751 1.34826 0
M  V30 9416 H 917.421 -1.02267 4.08802 0
M  V30 9417 H 916.145 -1.45617 2.92341 0
M  V30 9418 H 914.804 0.558238 3.62325 0
M  V30 9419 H 914.452 -1.64483 4.75347 0
M  V30 9420 H 914.152 -0.288577 5.86891 0
M  V30 9421 H 915.676 -1.21386 5.98413 0
M  V30 9422 H 917.09 1.03128 5.63948 0
M  V30 9423 H 915.487 1.81848 5.71884 0
M  V30 9424 H 916.557 2.15214 4.34524 0
M  V30 9425 N 917.9 -1.47166 0.563914 0
M  V30 9426 C 918.83 -2.32894 -0.168148 0
M  V30 9427 C 919.811 -1.44202 -0.902214 0
M  V30 9428 O 920.996 -1.73048 -0.881365 0
M  V30 9429 C 918.126 -3.26116 -1.19439 0
M  V30 9430 C 917.08 -4.24101 -0.576363 0
M  V30 9431 C 916.406 -5.06696 -1.70772 0
M  V30 9432 C 917.706 -5.20142 0.47425 0
M  V30 9433 H 919.4 -2.9435 0.547573 0
M  V30 9434 H 916.946 -1.41545 0.264778 0
M  V30 9435 H 918.899 -3.84935 -1.71474 0
M  V30 9436 H 917.623 -2.62728 -1.94014 0
M  V30 9437 H 916.282 -3.66519 -0.0772534 0
M  V30 9438 H 915.93 -4.39707 -2.44268 0
M  V30 9439 H 915.63 -5.7304 -1.29994 0
M  V30 9440 H 917.154 -5.68375 -2.2312 0
M  V30 9441 H 918.568 -5.73286 0.0397035 0
M  V30 9442 H 916.965 -5.94726 0.801287 0
M  V30 9443 H 918.035 -4.65214 1.36764 0
M  V30 9444 N 919.378 -0.300708 -1.54705 0
M  V30 9445 C 920.794 0.0526874 -1.59513 0
M  V30 9446 C 920.994 1.52444 -1.31769 0
M  V30 9447 O 920.05 2.27716 -1.09096 0
M  V30 9448 C 921.363 -0.344989 -2.98714 0
M  V30 9449 C 922.911 -0.29373 -3.11619 0
M  V30 9450 C 923.386 -0.666225 -4.53129 0
M  V30 9451 N 924.877 -0.618749 -4.59049 0
M  V30 9452 C 925.612 -0.879447 -5.66616 0
M  V30 9453 N 925.108 -1.2061 -6.82221 0
M  V30 9454 N 926.901 -0.806528 -5.56284 0
M  V30 9455 H 919.052 -1.25988 -1.71 0
M  V30 9456 H 921.315 -0.510758 -0.798643 0
M  V30 9457 H 921.021 -1.36953 -3.2394 0
M  V30 9458 H 920.895 0.301507 -3.75993 0
M  V30 9459 H 923.282 0.72156 -2.86142 0
M  V30 9460 H 923.363 -0.974844 -2.36496 0
M  V30 9461 H 923.007 -1.67932 -4.79334 0
M  V30 9462 H 922.937 0.0369575 -5.26587 0
M  V30 9463 H 925.428 -0.377202 -3.76013 0
M  V30 9464 H 925.741 -1.391 -7.60178 0
M  V30 9465 H 924.086 -1.24413 -6.83774 0
M  V30 9466 H 927.277 -0.550993 -4.64846 0
M  V30 9467 H 927.45 -1.01307 -6.40032 0
M  V30 9468 N 920.856 1.57574 -0.0284266 0
M  V30 9469 C 922.102 1.92056 0.651327 0
M  V30 9470 C 922.435 0.905092 1.71819 0
M  V30 9471 O 921.71 -0.0722703 1.94366 0
M  V30 9472 C 921.993 3.37021 1.26841 0
M  V30 9473 C 921.846 4.49304 0.211157 0
M  V30 9474 C 923.165 3.81936 2.18662 0
M  V30 9475 H 920.284 0.698428 0.235304 0
M  V30 9476 H 922.926 1.89807 -0.0855435 0
M  V30 9477 H 921.076 3.39068 1.89644 0
M  V30 9478 H 922.748 4.5939 -0.419379 0
M  V30 9479 H 920.991 4.31317 -0.463445 0
M  V30 9480 H 921.662 5.47764 0.682518 0
M  V30 9481 H 924.138 3.8162 1.65847 0
M  V30 9482 H 923.014 4.84064 2.58792 0
M  V30 9483 H 923.275 3.174 3.07749 0
M  V30 9484 N 922.334 -0.244713 1.55689 0
M  V30 9485 C 923.264 -1.30667 1.93516 0
M  V30 9486 C 924.245 -1.50094 0.800371 0
M  V30 9487 O 925.43 -1.62665 1.06083 0
M  V30 9488 C 922.56 -2.66101 2.23176 0
M  V30 9489 C 921.514 -2.61366 3.38927 0
M  V30 9490 C 920.84 -4.00616 3.54134 0
M  V30 9491 C 922.14 -2.18161 4.74555 0
M  V30 9492 H 923.834 -0.992546 2.82469 0
M  V30 9493 H 921.38 -0.476018 1.35905 0
M  V30 9494 H 923.333 -3.4053 2.48228 0
M  V30 9495 H 922.057 -2.99154 1.31051 0
M  V30 9496 H 920.716 -1.89395 3.13887 0
M  V30 9497 H 920.364 -4.30938 2.59426 0
M  V30 9498 H 920.064 -3.98335 4.31975 0
M  V30 9499 H 921.588 -4.76741 3.8151 0
M  V30 9500 H 923.002 -2.82323 4.98965 0
M  V30 9501 H 921.399 -2.26988 5.55515 0
M  V30 9502 H 922.469 -1.13333 4.7147 0
M  V30 9503 N 923.813 -1.49104 -0.510467 0
M  V30 9504 C 925.229 -1.35657 -0.840797 0
M  V30 9505 C 925.429 -0.382425 -1.97838 0
M  V30 9506 O 924.485 0.189331 -2.51789 0
M  V30 9507 C 925.798 -2.76155 -1.18992 0
M  V30 9508 C 927.346 -2.84786 -1.29868 0
M  V30 9509 C 927.821 -4.2603 -1.68115 0
M  V30 9510 N 929.312 -4.28796 -1.75181 0
M  V30 9511 C 930.047 -5.35041 -2.062 0
M  V30 9512 N 929.543 -6.51543 -2.35508 0
M  V30 9513 N 931.336 -5.2245 -2.07371 0
M  V30 9514 H 923.487 -2.11042 0.23982 0
M  V30 9515 H 925.75 -0.946946 0.0446824 0
M  V30 9516 H 925.456 -3.49092 -0.427484 0
M  V30 9517 H 925.33 -3.10922 -2.13558 0
M  V30 9518 H 927.717 -2.12092 -2.05186 0
M  V30 9519 H 927.798 -2.53613 -0.333758 0
M  V30 9520 H 927.442 -4.99247 -0.933512 0
M  V30 9521 H 927.372 -4.5466 -2.65691 0
M  V30 9522 H 929.863 -3.44771 -1.5473 0
M  V30 9523 H 930.176 -7.28342 -2.58337 0
M  V30 9524 H 928.521 -6.54785 -2.32985 0
M  V30 9525 H 931.712 -4.30444 -1.83945 0
M  V30 9526 H 931.885 -6.05347 -2.31212 0
M  V30 9527 N 925.291 0.760815 -1.38019 0
M  V30 9528 C 926.254 1.85604 -1.34476 0
M  V30 9529 C 927.254 1.58897 -0.24666 0
M  V30 9530 O 928.444 1.66776 -0.50314 0
M  V30 9531 C 925.576 3.22945 -1.09176 0
M  V30 9532 H 926.769 1.90155 -2.31908 0
M  V30 9533 H 924.322 0.961746 -1.23208 0
M  V30 9534 H 925.057 3.24066 -0.123216 0
M  V30 9535 H 924.842 3.43723 -1.88672 0
M  V30 9536 H 926.332 4.03022 -1.09375 0
M  V30 9537 N 926.769 1.22769 0.988202 0
M  V30 9538 C 927.701 0.959757 2.08138 0
M  V30 9539 C 928.714 -0.0633787 1.62677 0
M  V30 9540 O 929.903 0.171203 1.77677 0
M  V30 9541 C 927.003 0.422724 3.36253 0
M  V30 9542 C 926.176 1.50419 4.10722 0
M  V30 9543 C 925.235 0.973407 5.17118 0
M  V30 9544 O 924.261 1.66066 5.44436 0
M  V30 9545 N 925.463 -0.202787 5.80146 0
M  V30 9546 H 928.228 1.9009 2.31702 0
M  V30 9547 H 925.789 1.13522 1.15431 0
M  V30 9548 H 927.781 0.0528514 4.04665 0
M  V30 9549 H 926.351 -0.423642 3.09716 0
M  V30 9550 H 925.571 2.04718 3.36874 0
M  V30 9551 H 926.859 2.23169 4.57245 0
M  V30 9552 H 926.257 -0.777856 5.60327 0
M  V30 9553 H 924.814 -0.513998 6.4977 0
M  V30 9554 N 928.247 -1.18576 1.03814 0
M  V30 9555 C 929.658 -1.70159 0.768299 0
M  V30 9556 C 930.009 -1.8286 -0.711106 0
M  V30 9557 O 929.134 -1.5063 -1.55369 0
M  V30 9558 C 929.729 -3.09062 1.38804 0
M  V30 9559 C 928.288 -3.57866 1.16656 0
M  V30 9560 C 927.435 -2.34484 1.48029 0
M  V30 9561 H 930.386 -1.03287 1.20488 0
M  V30 9562 H 930.407 -3.72211 0.7899 0
M  V30 9563 H 929.919 -2.99785 2.46476 0
M  V30 9564 H 928.02 -3.72442 0.108471 0
M  V30 9565 H 928.133 -4.41445 1.8618 0
M  V30 9566 H 926.497 -2.38273 0.899902 0
M  V30 9567 H 927.28 -2.27829 2.56805 0
M  V30 9568 N 929.725 -0.817259 -1.34754 0
M  V30 9569 C 930.971 -0.403244 -1.98751 0
M  V30 9570 C 931.304 1.02963 -1.64658 0
M  V30 9571 O 930.579 1.71617 -0.915314 0
M  V30 9572 C 930.862 -0.599188 -3.5508 0
M  V30 9573 C 930.715 -2.07777 -3.98934 0
M  V30 9574 C 932.034 -0.0315656 -4.40089 0
M  V30 9575 H 929.153 -0.147988 -0.721989 0
M  V30 9576 H 931.795 -1.02877 -1.59738 0
M  V30 9577 H 929.945 -0.0667116 -3.88443 0
M  V30 9578 H 931.617 -2.67345 -3.75931 0
M  V30 9579 H 929.86 -2.57031 -3.49453 0
M  V30 9580 H 930.531 -2.16571 -5.07741 0
M  V30 9581 H 933.007 -0.48644 -4.13247 0
M  V30 9582 H 931.883 -0.198507 -5.48541 0
M  V30 9583 H 932.144 1.06302 -4.2913 0
M  V30 9584 N 931.203 1.46865 -0.571711 0
M  V30 9585 C 932.135 2.28277 0.205479 0
M  V30 9586 C 933.148 1.37866 0.865835 0
M  V30 9587 O 934.337 1.62564 0.737247 0
M  V30 9588 C 931.437 3.12572 1.30965 0
M  V30 9589 C 930.61 4.31038 0.743328 0
M  V30 9590 C 929.669 4.96815 1.73382 0
M  V30 9591 O 928.695 5.54755 1.2742 0
M  V30 9592 N 929.897 4.92825 3.06764 0
M  V30 9593 H 932.662 2.95618 -0.49294 0
M  V30 9594 H 930.223 1.56655 -0.408744 0
M  V30 9595 H 932.215 3.53442 1.97131 0
M  V30 9596 H 930.785 2.47378 1.91109 0
M  V30 9597 H 930.005 3.94084 -0.0955004 0
M  V30 9598 H 931.293 5.07632 0.344556 0
M  V30 9599 H 930.691 4.46978 3.46738 0
M  V30 9600 H 929.248 5.3767 3.68449 0
M  V30 9601 N 932.681 0.308908 1.54543 0
M  V30 9602 C 933.927 -0.298478 2.00592 0
M  V30 9603 C 934.26 -1.52929 1.19692 0
M  V30 9604 O 933.535 -1.9254 0.27542 0
M  V30 9605 C 933.818 -0.647218 3.54236 0
M  V30 9606 C 933.671 0.593284 4.4587 0
M  V30 9607 C 934.99 -1.47064 4.14801 0
M  V30 9608 H 932.109 -0.107012 0.72919 0
M  V30 9609 H 934.751 0.422578 1.85241 0
M  V30 9610 H 932.901 -1.26153 3.67447 0
M  V30 9611 H 934.573 1.2317 4.44552 0
M  V30 9612 H 932.816 1.22501 4.16144 0
M  V30 9613 H 933.487 0.305018 5.51157 0
M  V30 9614 H 935.963 -0.951511 4.05075 0
M  V30 9615 H 934.839 -1.68343 5.22448 0
M  V30 9616 H 935.1 -2.4623 3.67183 0
M  V30 9617 N 934.159 -1.57557 0.0367827 0
M  V30 9618 C 935.122 -2.09591 -0.927589 0
M  V30 9619 C 936.122 -1.01252 -1.24919 0
M  V30 9620 O 937.312 -1.27382 -1.18825 0
M  V30 9621 C 934.444 -2.56816 -2.24184 0
M  V30 9622 H 935.637 -2.96086 -0.476784 0
M  V30 9623 H 933.19 -1.54864 -0.211385 0
M  V30 9624 H 933.925 -1.73673 -2.73876 0
M  V30 9625 H 933.71 -3.35973 -2.0215 0
M  V30 9626 H 935.2 -2.97271 -2.93291 0
M  V30 9627 N 935.637 0.236453 -1.55816 0
M  V30 9628 C 936.547 1.31418 -1.94336 0
M  V30 9629 C 937.563 1.52095 -0.845164 0
M  V30 9630 O 938.739 1.65515 -1.14746 0
M  V30 9631 C 935.804 2.6468 -2.23932 0
M  V30 9632 C 934.865 2.52435 -3.47239 0
M  V30 9633 C 934.098 3.79342 -3.75414 0
M  V30 9634 O 934.321 4.81694 -3.05495 0
M  V30 9635 O 933.255 3.77347 -4.68927 0
M  V30 9636 H 937.081 1.01739 -2.86152 0
M  V30 9637 H 934.666 0.438084 -1.42833 0
M  V30 9638 H 936.548 3.4341 -2.44228 0
M  V30 9639 H 935.223 2.94071 -1.35292 0
M  V30 9640 H 934.13 1.71955 -3.32238 0
M  V30 9641 H 935.463 2.27987 -4.36214 0
M  V30 9642 N 937.115 1.49373 0.502552 0
M  V30 9643 C 938.363 1.58467 1.25429 0
M  V30 9644 C 938.684 0.272593 1.93085 0
M  V30 9645 O 937.954 -0.707947 1.82661 0
M  V30 9646 H 936.534 0.583866 0.46595 0
M  V30 9647 H 939.196 1.8599 0.582568 0
M  V30 9648 H 938.292 2.37993 2.01906 0
M  V30 9649 N 938.594 -0.753485 1.38421 0
M  V30 9650 C 939.819 -1.54783 1.38047 0
M  V30 9651 C 940.244 -1.8808 -0.0276371 0
M  V30 9652 O 939.602 -1.5058 -1.00973 0
M  V30 9653 C 939.65 -2.82353 2.24297 0
M  V30 9654 O 938.754 -3.77509 1.66014 0
M  V30 9655 H 938.095 -0.468151 0.470883 0
M  V30 9656 H 940.625 -0.931144 1.82184 0
M  V30 9657 H 940.635 -3.31277 2.38159 0
M  V30 9658 H 939.31 -2.57449 3.26639 0
M  V30 9659 H 937.887 -3.36212 1.61294 0
M  V30 9660 N 940.072 -1.23292 -0.981677 0
M  V30 9661 C 940.982 -1.02964 -2.10798 0
M  V30 9662 C 941.998 0.0254674 -1.73981 0
M  V30 9663 O 943.174 -0.169706 -2.00684 0
M  V30 9664 C 940.239 -0.621934 -3.41076 0
M  V30 9665 C 939.3 -1.75194 -3.91926 0
M  V30 9666 C 938.533 -1.36359 -5.15986 0
M  V30 9667 O 938.756 -0.247265 -5.69864 0
M  V30 9668 O 937.69 -2.18421 -5.60871 0
M  V30 9669 H 941.516 -1.97354 -2.30836 0
M  V30 9670 H 939.101 -1.01986 -1.09175 0
M  V30 9671 H 940.983 -0.405446 -4.19445 0
M  V30 9672 H 939.658 0.29299 -3.22371 0
M  V30 9673 H 938.565 -2.02305 -3.1468 0
M  V30 9674 H 939.898 -2.64513 -4.15083 0
M  V30 9675 N 941.55 1.18024 -1.04442 0
M  V30 9676 C 942.961 1.69749 -0.777312 0
M  V30 9677 C 943.312 1.83234 0.701399 0
M  V30 9678 O 942.437 1.51452 1.54568 0
M  V30 9679 C 943.032 3.08321 -1.40441 0
M  V30 9680 C 941.591 3.57243 -1.18553 0
M  V30 9681 C 940.738 2.33695 -1.49271 0
M  V30 9682 H 943.689 1.02647 -1.21035 0
M  V30 9683 H 943.71 3.71787 -0.809628 0
M  V30 9684 H 943.222 2.98474 -2.48062 0
M  V30 9685 H 941.323 3.72379 -0.128221 0
M  V30 9686 H 941.436 4.40451 -1.88519 0
M  V30 9687 H 939.8 2.37792 -0.912526 0
M  V30 9688 H 940.583 2.26464 -2.5801 0
M  V30 9689 N 943.028 0.824394 1.34319 0
M  V30 9690 C 944.305 0.335692 1.92698 0
M  V30 9691 C 944.685 -1.17715 1.75232 0
M  V30 9692 O 944.033 -1.98493 1.13194 0
M  V30 9693 C 944.243 0.766647 3.40475 0
M  V30 9694 C 945.591 0.766323 4.17627 0
M  V30 9695 O 946.615 0.709321 3.49066 0
M  V30 9696 O 945.474 0.840856 5.39992 0
M  V30 9697 H 942.568 0.0919996 0.821867 0
M  V30 9698 H 945.114 0.909282 1.43283 0
M  V30 9699 H 943.886 1.80859 3.46995 0
M  V30 9700 H 943.509 0.168833 3.97241 0
M  V30 9701 N 944.506 -1.46559 0.579492 0
M  V30 9702 C 945.754 -2.02 0.0637157 0
M  V30 9703 C 946.075 -1.45378 -1.29962 0
M  V30 9704 O 945.345 -0.637262 -1.85245 0
M  V30 9705 H 943.925 -0.746717 0.0205638 0
M  V30 9706 H 946.587 -1.79702 0.754544 0
M  V30 9707 H 945.683 -3.12099 -0.00770254 0
M  V30 9708 N 945.984 -0.3171 -1.54377 0
M  V30 9709 C 947.231 0.28741 -2.0045 0
M  V30 9710 C 947.559 1.52648 -1.20535 0
M  V30 9711 O 946.814 1.93775 -0.273831 0
M  V30 9712 C 947.113 0.672917 -3.51008 0
M  V30 9713 C 946.779 -0.466245 -4.48483 0
M  V30 9714 C 945.441 -0.778933 -4.74854 0
M  V30 9715 C 947.793 -1.23176 -5.06436 0
M  V30 9716 C 945.121 -1.85997 -5.56437 0
M  V30 9717 C 947.473 -2.30284 -5.89196 0
M  V30 9718 C 946.137 -2.62141 -6.13872 0
M  V30 9719 H 945.407 0.105171 -0.733499 0
M  V30 9720 H 948.054 -0.439538 -1.86388 0
M  V30 9721 H 946.359 1.48019 -3.62764 0
M  V30 9722 H 948.056 1.15209 -3.84094 0
M  V30 9723 H 944.646 -0.212449 -4.28073 0
M  V30 9724 H 948.83 -1.00344 -4.8605 0
M  V30 9725 H 944.086 -2.11134 -5.73788 0
M  V30 9726 H 948.26 -2.90048 -6.33123 0
M  V30 9727 H 945.887 -3.46037 -6.76877 0
M  V30 9728 N 947.462 1.57535 -0.0451378 0
M  V30 9729 C 948.708 1.93558 0.62505 0
M  V30 9730 C 949.063 0.923159 1.68806 0
M  V30 9731 O 948.356 -0.0585419 1.91511 0
M  V30 9732 C 948.55 3.34065 1.27024 0
M  V30 9733 C 948.379 4.48881 0.271253 0
M  V30 9734 C 947.149 5.05121 -0.13462 0
M  V30 9735 C 949.347 5.12047 -0.480911 0
M  V30 9736 N 947.329 6.03465 -1.1271 0
M  V30 9737 C 948.7 6.0564 -1.32666 0
M  V30 9738 C 950.755 4.94964 -0.539878 0
M  V30 9739 C 949.458 6.83987 -2.22608 0
M  V30 9740 C 951.484 5.73933 -1.4267 0
M  V30 9741 C 950.846 6.67154 -2.26019 0
M  V30 9742 H 946.945 0.755846 0.20055 0
M  V30 9743 H 949.529 1.94354 -0.116059 0
M  V30 9744 H 947.7 3.34058 1.98141 0
M  V30 9745 H 949.432 3.57393 1.89875 0
M  V30 9746 H 946.187 4.72976 0.243112 0
M  V30 9747 H 946.611 6.5733 -1.62006 0
M  V30 9748 H 951.253 4.22704 0.0902834 0
M  V30 9749 H 948.971 7.55543 -2.86672 0
M  V30 9750 H 952.557 5.62744 -1.47682 0
M  V30 9751 H 951.437 7.27194 -2.93528 0
M  V30 9752 N 948.94 -0.228186 1.55939 0
M  V30 9753 C 949.85 -1.30386 1.9503 0
M  V30 9754 C 950.866 -1.51645 0.853218 0
M  V30 9755 O 952.042 -1.64904 1.15623 0
M  V30 9756 C 949.107 -2.63489 2.25332 0
M  V30 9757 C 948.168 -2.5059 3.48573 0
M  V30 9758 C 947.401 -3.77345 3.7742 0
M  V30 9759 O 947.624 -4.80067 3.08045 0
M  V30 9760 O 946.558 -3.74855 4.70922 0
M  V30 9761 H 950.384 -1.0022 2.86687 0
M  V30 9762 H 947.969 -0.430503 1.43063 0
M  V30 9763 H 949.851 -3.4211 2.46046 0
M  V30 9764 H 948.526 -2.93349 1.3685 0
M  V30 9765 H 947.433 -1.70191 3.33145 0
M  V30 9766 H 948.766 -2.2567 4.37417 0
M  V30 9767 N 950.418 -1.49637 -0.494624 0
M  V30 9768 C 951.381 -1.66252 -1.57775 0
M  V30 9769 C 952.381 -0.534054 -1.51672 0
M  V30 9770 O 953.571 -0.800637 -1.54711 0
M  V30 9771 C 950.703 -1.66584 -2.97426 0
M  V30 9772 H 951.896 -2.62864 -1.4437 0
M  V30 9773 H 949.449 -1.38764 -0.719323 0
M  V30 9774 H 950.184 -0.715798 -3.16302 0
M  V30 9775 H 949.969 -2.48543 -3.03264 0
M  V30 9776 H 951.459 -1.81474 -3.76108 0
M  V30 9777 N 951.896 0.746133 -1.38819 0
M  V30 9778 C 952.826 1.87344 -1.39372 0
M  V30 9779 C 953.807 1.68123 -0.258583 0
M  V30 9780 O 954.992 1.88606 -0.462769 0
M  V30 9781 C 952.122 3.24962 -1.22543 0
M  V30 9782 C 951.076 3.58799 -2.33339 0
M  V30 9783 C 950.402 4.95235 -2.01609 0
M  V30 9784 C 951.702 3.62911 -3.75624 0
M  V30 9785 H 953.396 1.87138 -2.33709 0
M  V30 9786 H 950.942 0.898937 -1.12495 0
M  V30 9787 H 952.895 4.03488 -1.21554 0
M  V30 9788 H 951.619 3.25667 -0.246707 0
M  V30 9789 H 950.278 2.82596 -2.33527 0
M  V30 9790 H 949.926 4.92508 -1.02202 0
M  V30 9791 H 949.626 5.18843 -2.75819 0
M  V30 9792 H 951.15 5.76131 -2.02251 0
M  V30 9793 H 952.564 4.31535 -3.77426 0
M  V30 9794 H 950.961 3.98031 -4.491 0
M  V30 9795 H 952.031 2.62967 -4.07402 0
M  V30 9796 N 953.375 1.23811 0.975125 0
M  V30 9797 C 954.623 1.07124 1.71373 0
M  V30 9798 C 954.944 -0.391864 1.91022 0
M  V30 9799 O 954.214 -1.28041 1.48265 0
M  V30 9800 H 952.794 0.393415 0.635007 0
M  V30 9801 H 955.456 1.55612 1.17349 0
M  V30 9802 H 954.552 1.56338 2.7012 0
M  V30 9803 N 954.853 -1.17469 1.05066 0
M  V30 9804 C 956.101 -1.87327 0.758485 0
M  V30 9805 C 956.422 -1.81358 -0.716549 0
M  V30 9806 O 955.692 -1.23868 -1.51768 0
M  V30 9807 H 954.272 -0.693512 0.277579 0
M  V30 9808 H 956.934 -1.4251 1.32954 0
M  V30 9809 H 956.03 -2.93101 1.0723 0
M  V30 9810 N 956.331 -0.831506 -1.3388 0
M  V30 9811 C 957.278 -0.257449 -2.2936 0
M  V30 9812 C 958.248 0.622604 -1.5399 0
M  V30 9813 O 959.433 0.562432 -1.82322 0
M  V30 9814 C 956.573 0.567587 -3.404 0
M  V30 9815 C 955.686 -0.335666 -4.30694 0
M  V30 9816 C 954.821 0.499762 -5.28844 0
M  V30 9817 C 953.86 -0.402343 -6.10776 0
M  V30 9818 N 952.997 0.39452 -7.00991 0
M  V30 9819 H 957.837 -1.077 -2.77857 0
M  V30 9820 H 955.374 -0.542589 -1.36727 0
M  V30 9821 H 957.332 1.06133 -4.03474 0
M  V30 9822 H 955.962 1.35217 -2.93115 0
M  V30 9823 H 955.014 -0.94768 -3.68406 0
M  V30 9824 H 956.326 -1.02896 -4.88072 0
M  V30 9825 H 955.48 1.05763 -5.9741 0
M  V30 9826 H 954.219 1.22652 -4.72025 0
M  V30 9827 H 953.224 -0.972288 -5.41135 0
M  V30 9828 H 954.449 -1.12735 -6.69677 0
M  V30 9829 H 952.395 1.1048 -6.4663 0
M  V30 9830 H 952.312 -0.240209 -7.55618 0
M  V30 9831 H 953.58 0.934867 -7.73874 0
M  V30 9832 N 957.809 1.4625 -0.587256 0
M  V30 9833 C 958.772 2.28812 0.133238 0
M  V30 9834 C 959.772 1.38645 0.814513 0
M  V30 9835 O 960.962 1.60975 0.665774 0
M  V30 9836 C 958.094 3.19147 1.19824 0
M  V30 9837 H 959.287 2.93991 -0.592386 0
M  V30 9838 H 956.84 1.52435 -0.345416 0
M  V30 9839 H 957.575 2.58725 1.95529 0
M  V30 9840 H 957.36 3.85541 0.71418 0
M  V30 9841 H 958.85 3.81278 1.70344 0
M  V30 9842 N 959.287 0.325282 1.54207 0
M  V30 9843 C 960.25 -0.527228 2.23054 0
M  V30 9844 C 961.25 -1.04217 1.22456 0
M  V30 9845 O 962.44 -0.934325 1.47024 0
M  V30 9846 C 959.572 -1.7325 2.93594 0
M  V30 9847 H 960.765 0.0746423 2.99807 0
M  V30 9848 H 958.318 0.0763872 1.56113 0
M  V30 9849 H 959.053 -2.37356 2.20981 0
M  V30 9850 H 958.838 -1.37065 3.67363 0
M  V30 9851 H 960.328 -2.3376 3.46043 0
M  V30 9852 N 960.765 -1.57509 0.0534917 0
M  V30 9853 C 961.995 -1.96812 -0.628386 0
M  V30 9854 C 962.403 -0.929808 -1.64776 0
M  V30 9855 O 961.746 0.0941155 -1.83459 0
M  V30 9856 C 961.808 -3.32361 -1.37027 0
M  V30 9857 C 961.472 -4.54185 -0.506465 0
M  V30 9858 C 962.469 -5.19398 0.228412 0
M  V30 9859 C 960.154 -5.00398 -0.43671 0
M  V30 9860 C 962.148 -6.29162 1.02146 0
M  V30 9861 C 959.835 -6.10039 0.360022 0
M  V30 9862 C 960.833 -6.74282 1.08779 0
M  V30 9863 O 960.521 -7.81814 1.87142 0
M  V30 9864 H 960.253 -0.65257 -0.176432 0
M  V30 9865 H 962.807 -2.05067 0.116908 0
M  V30 9866 H 961.037 -3.20667 -2.16125 0
M  V30 9867 H 962.726 -3.56395 -1.94261 0
M  V30 9868 H 963.492 -4.84651 0.184003 0
M  V30 9869 H 959.371 -4.50183 -0.992772 0
M  V30 9870 H 962.915 -6.79238 1.59002 0
M  V30 9871 H 958.812 -6.44222 0.406061 0
M  V30 9872 H 959.58 -7.98602 1.79378 0
M  V30 9873 N 962.243 0.219913 -1.56058 0
M  V30 9874 C 963.659 0.569685 -1.49086 0
M  V30 9875 C 963.859 1.87066 -0.748903 0
M  V30 9876 O 962.915 2.50838 -0.289235 0
M  V30 9877 C 964.228 0.647397 -2.93648 0
M  V30 9878 C 965.776 0.737914 -3.04177 0
M  V30 9879 C 966.251 0.846957 -4.50101 0
M  V30 9880 N 967.742 0.911136 -4.5415 0
M  V30 9881 C 968.477 1.01525 -5.64341 0
M  V30 9882 N 967.973 1.0832 -6.8428 0
M  V30 9883 N 969.766 1.05051 -5.52196 0
M  V30 9884 H 961.917 -0.633778 -2.02724 0
M  V30 9885 H 964.18 -0.222583 -0.921499 0
M  V30 9886 H 963.886 -0.238987 -3.50887 0
M  V30 9887 H 963.76 1.51046 -3.45637 0
M  V30 9888 H 966.147 1.61474 -2.47002 0
M  V30 9889 H 966.228 -0.150845 -2.55355 0
M  V30 9890 H 965.872 -0.0254166 -5.07894 0
M  V30 9891 H 965.802 1.75116 -4.96631 0
M  V30 9892 H 968.293 0.868869 -3.67776 0
M  V30 9893 H 968.606 1.16247 -7.64007 0
M  V30 9894 H 966.951 1.05231 -6.86987 0
M  V30 9895 H 970.142 0.994086 -4.57423 0
M  V30 9896 H 970.315 1.12819 -6.38103 0
M  V30 9897 N 963.721 1.49897 0.486681 0
M  V30 9898 C 964.949 1.63837 1.26353 0
M  V30 9899 C 965.364 0.315428 1.86146 0
M  V30 9900 O 964.721 -0.700831 1.68507 0
M  V30 9901 C 964.772 2.71792 2.38351 0
M  V30 9902 O 964.493 3.98956 1.81013 0
M  V30 9903 C 965.994 2.96566 3.2949 0
M  V30 9904 H 963.214 0.551158 0.382709 0
M  V30 9905 H 965.758 1.96023 0.582694 0
M  V30 9906 H 963.913 2.42344 3.02238 0
M  V30 9907 H 964.327 4.58536 2.54647 0
M  V30 9908 H 965.801 3.75803 4.04322 0
M  V30 9909 H 966.278 2.07031 3.87343 0
M  V30 9910 H 966.884 3.27485 2.71355 0
M  V30 9911 N 965.199 -0.738761 1.39212 0
M  V30 9912 C 966.424 -1.5331 1.39681 0
M  V30 9913 C 966.849 -1.88098 -0.00768715 0
M  V30 9914 O 966.207 -1.51642 -0.993699 0
M  V30 9915 C 966.255 -2.79958 2.27279 0
M  V30 9916 O 965.359 -3.75727 1.70008 0
M  V30 9917 H 964.7 -0.463131 0.475821 0
M  V30 9918 H 967.23 -0.911768 1.83161 0
M  V30 9919 H 967.24 -3.28732 2.41659 0
M  V30 9920 H 965.915 -2.5397 3.29351 0
M  V30 9921 H 964.492 -3.34483 1.64851 0
M  V30 9922 N 966.677 -1.24326 -0.968545 0
M  V30 9923 C 968.088 -1.07561 -1.52603 0
M  V30 9924 C 968.439 0.353245 -1.92994 0
M  V30 9925 O 967.564 1.24151 -1.77244 0
M  V30 9926 C 968.159 -1.94634 -2.77314 0
M  V30 9927 C 966.718 -1.82095 -3.29421 0
M  V30 9928 C 965.865 -1.8962 -2.02335 0
M  V30 9929 H 968.816 -1.37815 -0.786932 0
M  V30 9930 H 968.837 -1.47812 -3.50616 0
M  V30 9931 H 968.349 -2.98621 -2.47885 0
M  V30 9932 H 966.45 -0.809376 -3.63703 0
M  V30 9933 H 966.563 -2.66142 -3.98378 0
M  V30 9934 H 964.927 -1.33339 -2.17009 0
M  V30 9935 H 965.71 -2.95185 -1.75273 0
M  V30 9936 N 968.156 1.1691 -1.05688 0
M  V30 9937 C 969.572 1.39288 -0.779167 0
M  V30 9938 C 969.772 1.91587 0.624231 0
M  V30 9939 O 968.828 2.11072 1.38582 0
M  V30 9940 C 970.141 2.37914 -1.83895 0
M  V30 9941 C 971.689 2.51611 -1.86175 0
M  V30 9942 C 972.164 3.53514 -2.9119 0
M  V30 9943 N 973.655 3.61036 -2.90184 0
M  V30 9944 C 974.39 4.39657 -3.68088 0
M  V30 9945 N 973.886 5.21752 -4.55793 0
M  V30 9946 N 975.679 4.3458 -3.56507 0
M  V30 9947 H 967.83 0.81296 -1.96226 0
M  V30 9948 H 970.093 0.419818 -0.849975 0
M  V30 9949 H 969.799 2.06568 -2.84645 0
M  V30 9950 H 969.673 3.37483 -1.68479 0
M  V30 9951 H 972.06 2.82264 -0.86087 0
M  V30 9952 H 972.141 1.52099 -2.05668 0
M  V30 9953 H 971.785 3.23599 -3.91467 0
M  V30 9954 H 971.715 4.52742 -2.68947 0
M  V30 9955 H 974.206 3.02428 -2.26596 0
M  V30 9956 H 974.519 5.78939 -5.11907 0
M  V30 9957 H 972.864 5.21116 -4.59851 0
M  V30 9958 H 976.055 3.69501 -2.87379 0
M  V30 9959 H 976.228 4.95607 -4.17466 0
M  V30 9960 N 969.634 0.838594 1.33437 0
M  V30 9961 C 970.564 0.286672 2.31734 0
M  V30 9962 C 971.545 -0.605451 1.5896 0
M  V30 9963 O 972.73 -0.529059 1.86854 0
M  V30 9964 C 969.86 -0.539311 3.43087 0
M  V30 9965 C 968.814 0.256997 4.27228 0
M  V30 9966 C 968.14 -0.692718 5.30194 0
M  V30 9967 C 969.44 1.47391 5.01072 0
M  V30 9968 H 971.134 1.10798 2.78144 0
M  V30 9969 H 968.68 0.534235 1.33723 0
M  V30 9970 H 970.633 -0.935724 4.1088 0
M  V30 9971 H 969.357 -1.39383 2.95364 0
M  V30 9972 H 968.016 0.634967 3.61059 0
M  V30 9973 H 967.664 -1.54363 4.78729 0
M  V30 9974 H 967.364 -0.164023 5.87371 0
M  V30 9975 H 968.888 -1.08665 6.00853 0
M  V30 9976 H 970.302 1.15067 5.61634 0
M  V30 9977 H 968.699 1.93937 5.67898 0
M  V30 9978 H 969.769 2.24382 4.29861 0
M  V30 9979 N 971.112 -1.45937 0.595003 0
M  V30 9980 C 972.059 -2.30427 -0.131165 0
M  V30 9981 C 973.029 -1.41355 -0.872232 0
M  V30 9982 O 974.214 -1.70296 -0.860467 0
M  V30 9983 C 971.354 -3.26045 -1.13087 0
M  V30 9984 C 970.467 -4.30218 -0.391982 0
M  V30 9985 C 969.602 -5.12953 -1.3803 0
M  V30 9986 C 968.641 -6.08865 -0.628505 0
M  V30 9987 N 967.778 -6.84425 -1.56548 0
M  V30 9988 H 972.618 -2.91992 0.595359 0
M  V30 9989 H 970.155 -1.43895 0.305405 0
M  V30 9990 H 972.113 -3.79937 -1.72348 0
M  V30 9991 H 970.743 -2.66261 -1.82496 0
M  V30 9992 H 969.795 -3.79086 0.315895 0
M  V30 9993 H 971.107 -4.98418 0.195173 0
M  V30 9994 H 970.261 -5.71184 -2.04534 0
M  V30 9995 H 969 -4.44743 -2.00138 0
M  V30 9996 H 968.005 -5.49777 0.0502431 0
M  V30 9997 H 969.23 -6.79099 -0.012641 0
M  V30 9998 H 967.176 -6.18913 -2.17444 0
M  V30 9999 H 967.093 -7.48931 -1.03145 0
M  V30 10000 H 968.361 -7.47204 -2.22049 0
M  V30 10001 N 972.59 -0.333456 -1.54032 0
M  V30 10002 C 973.867 0.320902 -1.9295 0
M  V30 10003 C 974.247 1.69071 -1.26405 0
M  V30 10004 O 973.595 2.24768 -0.411311 0
M  V30 10005 C 973.805 0.403257 -3.46662 0
M  V30 10006 C 975.153 0.658875 -4.19457 0
M  V30 10007 O 976.177 0.485781 -3.52872 0
M  V30 10008 O 975.036 0.993475 -5.37394 0
M  V30 10009 H 972.13 0.185158 -0.806006 0
M  V30 10010 H 974.676 -0.383895 -1.65301 0
M  V30 10011 H 973.448 -0.558409 -3.87295 0
M  V30 10012 H 973.071 1.15524 -3.80447 0
M  V30 10013 N 974.068 1.57479 -0.061844 0
M  V30 10014 C 975.015 2.12152 0.908862 0
M  V30 10015 C 975.985 1.03152 1.30188 0
M  V30 10016 O 977.17 1.3076 1.38948 0
M  V30 10017 C 974.31 2.6796 2.17465 0
M  V30 10018 C 973.423 3.91083 1.83517 0
M  V30 10019 C 972.558 4.35169 3.04633 0
M  V30 10020 C 971.597 5.50964 2.66655 0
M  V30 10021 N 970.734 5.90055 3.80499 0
M  V30 10022 H 975.574 2.94797 0.435743 0
M  V30 10023 H 973.111 1.45686 0.203445 0
M  V30 10024 H 975.069 2.98421 2.91548 0
M  V30 10025 H 973.699 1.88096 2.62335 0
M  V30 10026 H 972.751 3.67146 0.995381 0
M  V30 10027 H 974.063 4.75214 1.51569 0
M  V30 10028 H 973.217 4.67239 3.87005 0
M  V30 10029 H 971.956 3.49871 3.39767 0
M  V30 10030 H 970.961 5.18556 1.82703 0
M  V30 10031 H 972.186 6.37986 2.32702 0
M  V30 10032 H 970.132 5.07708 4.15414 0
M  V30 10033 H 970.049 6.68903 3.52285 0
M  V30 10034 H 971.317 6.26744 4.63479 0
M  V30 10035 N 975.546 -0.211634 1.56173 0
M  V30 10036 C 976.493 -1.26231 1.93221 0
M  V30 10037 C 977.463 -1.46076 0.790641 0
M  V30 10038 O 978.648 -1.59482 1.04739 0
M  V30 10039 C 975.788 -2.60559 2.26281 0
M  V30 10040 C 974.901 -2.48431 3.5342 0
M  V30 10041 C 974.036 -3.7535 3.7588 0
M  V30 10042 C 973.075 -3.57985 4.96501 0
M  V30 10043 N 972.212 -4.76877 5.15299 0
M  V30 10044 H 977.052 -0.939367 2.82807 0
M  V30 10045 H 974.589 -0.452511 1.39967 0
M  V30 10046 H 976.547 -3.38796 2.43461 0
M  V30 10047 H 975.177 -2.9093 1.39855 0
M  V30 10048 H 974.229 -1.61577 3.44379 0
M  V30 10049 H 975.541 -2.31526 4.41811 0
M  V30 10050 H 974.695 -4.62029 3.9321 0
M  V30 10051 H 973.434 -3.95191 2.85788 0
M  V30 10052 H 972.439 -2.69691 4.79111 0
M  V30 10053 H 973.664 -3.39605 5.88086 0
M  V30 10054 H 971.61 -4.97013 4.28152 0
M  V30 10055 H 971.527 -4.62735 5.9784 0
M  V30 10056 H 972.795 -5.64954 5.37073 0
M  V30 10057 N 977.024 -1.50153 -0.478725 0
M  V30 10058 C 977.957 -1.63089 -1.59616 0
M  V30 10059 C 978.935 -0.479211 -1.55378 0
M  V30 10060 O 980.119 -0.697715 -1.75112 0
M  V30 10061 C 977.246 -1.60643 -2.9818 0
M  V30 10062 C 976.292 -2.81279 -3.206 0
M  V30 10063 S 977.125 -4.42681 -3.0132 0
M  V30 10064 C 978.281 -4.42915 -4.42241 0
M  V30 10065 H 978.514 -2.57612 -1.48402 0
M  V30 10066 H 976.047 -1.39321 -0.665513 0
M  V30 10067 H 978.005 -1.59917 -3.7807 0
M  V30 10068 H 976.666 -0.673684 -3.0679 0
M  V30 10069 H 975.859 -2.7585 -4.21809 0
M  V30 10070 H 975.461 -2.79533 -2.4847 0
M  V30 10071 H 977.753 -4.16007 -5.34737 0
M  V30 10072 H 978.696 -5.44477 -4.52715 0
M  V30 10073 H 979.104 -3.72715 -4.23962 0
M  V30 10074 N 978.502 0.731368 -1.39602 0
M  V30 10075 C 979.779 1.48308 -1.27531 0
M  V30 10076 C 980.159 2.10795 0.113482 0
M  V30 10077 O 979.507 1.98886 1.12501 0
M  V30 10078 C 979.717 2.53156 -2.40235 0
M  V30 10079 C 981.065 3.19436 -2.79725 0
M  V30 10080 O 982.089 2.6347 -2.39712 0
M  V30 10081 O 980.948 4.20714 -3.48801 0
M  V30 10082 H 978.042 0.658753 -0.499973 0
M  V30 10083 H 980.588 0.764884 -1.51485 0
M  V30 10084 H 979.36 2.05387 -3.33064 0
M  V30 10085 H 978.983 3.3253 -2.17966 0
M  V30 10086 N 979.98 1.24838 0.961938 0
M  V30 10087 C 980.943 1.04674 2.03902 0
M  V30 10088 C 981.943 0.00204674 1.608 0
M  V30 10089 O 983.133 0.243555 1.72489 0
M  V30 10090 C 980.265 0.587736 3.35795 0
M  V30 10091 H 981.458 2.00278 2.23223 0
M  V30 10092 H 979.011 1.07142 1.138 0
M  V30 10093 H 979.746 -0.371244 3.22168 0
M  V30 10094 H 979.531 1.34182 3.68426 0
M  V30 10095 H 981.021 0.467867 4.14971 0
M  V30 10096 N 981.458 -1.16348 1.06306 0
M  V30 10097 C 982.408 -2.18717 0.643947 0
M  V30 10098 C 983.392 -1.57574 -0.325445 0
M  V30 10099 O 984.584 -1.76439 -0.140868 0
M  V30 10100 C 981.713 -3.43285 0.0320266 0
M  V30 10101 C 980.799 -4.11504 1.02592 0
M  V30 10102 N 981.19 -4.55374 2.20155 0
M  V30 10103 C 979.488 -4.37691 0.856887 0
M  V30 10104 C 980.189 -5.08149 2.83124 0
M  V30 10105 N 979.165 -5.01042 2.10851 0
M  V30 10106 H 982.967 -2.50353 1.53951 0
M  V30 10107 H 980.481 -1.328 0.934763 0
M  V30 10108 H 982.478 -4.15917 -0.286064 0
M  V30 10109 H 981.138 -3.13137 -0.858786 0
M  V30 10110 H 982.149 -4.49101 2.57931 0
M  V30 10111 H 978.826 -4.17496 0.0180742 0
M  V30 10112 H 980.216 -5.52131 3.82885 0
M  V30 10113 N 982.937 -0.845659 -1.3299 0
M  V30 10114 C 984.348 -0.50048 -1.79867 0
M  V30 10115 C 984.699 0.981027 -1.69913 0
M  V30 10116 O 983.824 1.76477 -1.25239 0
M  V30 10117 C 984.419 -0.901679 -3.26581 0
M  V30 10118 C 982.978 -0.608536 -3.71448 0
M  V30 10119 C 982.125 -1.10632 -2.54275 0
M  V30 10120 H 985.076 -1.03372 -1.20416 0
M  V30 10121 H 985.097 -0.214433 -3.79895 0
M  V30 10122 H 984.609 -1.97998 -3.33794 0
M  V30 10123 H 982.71 0.459416 -3.69757 0
M  V30 10124 H 982.823 -1.16853 -4.64631 0
M  V30 10125 H 981.187 -0.526925 -2.4919 0
M  V30 10126 H 981.97 -2.19154 -2.64247 0
M  V30 10127 N 984.415 1.45619 -0.602734 0
M  V30 10128 C 985.826 1.85814 -0.181636 0
M  V30 10129 C 986.177 1.5037 1.26029 0
M  V30 10130 O 985.302 0.928068 1.95489 0
M  V30 10131 C 985.897 3.37258 -0.322866 0
M  V30 10132 C 984.456 3.76375 0.043504 0
M  V30 10133 C 983.603 2.69585 -0.649561 0
M  V30 10134 H 986.554 1.36489 -0.809721 0
M  V30 10135 H 986.575 3.77874 0.446279 0
M  V30 10136 H 986.087 3.63024 -1.37241 0
M  V30 10137 H 984.188 3.56226 1.09241 0
M  V30 10138 H 984.301 4.77843 -0.346765 0
M  V30 10139 H 982.665 2.54549 -0.087706 0
M  V30 10140 H 983.448 2.98188 -1.70115 0
M  V30 10141 N 985.893 0.34162 1.53853 0
M  V30 10142 C 987.309 -0.0103769 1.59597 0
M  V30 10143 C 987.509 -1.48897 1.35764 0
M  V30 10144 O 986.565 -2.24743 1.15095 0
M  V30 10145 C 987.878 0.424067 2.97695 0
M  V30 10146 C 989.426 0.376247 3.1073 0
M  V30 10147 C 989.901 0.786129 4.51203 0
M  V30 10148 N 991.392 0.74024 4.57247 0
M  V30 10149 C 992.127 1.02937 5.64085 0
M  V30 10150 N 991.623 1.38655 6.78783 0
M  V30 10151 N 993.416 0.953734 5.5395 0
M  V30 10152 H 985.567 1.30477 1.67599 0
M  V30 10153 H 987.83 0.531753 0.78482 0
M  V30 10154 H 987.536 1.45493 3.20195 0
M  V30 10155 H 987.41 -0.201713 3.7666 0
M  V30 10156 H 989.797 -0.645441 2.87955 0
M  V30 10157 H 989.878 1.0372 2.33828 0
M  V30 10158 H 989.522 1.80582 4.74713 0
M  V30 10159 H 989.452 0.102671 5.265 0
M  V30 10160 H 991.943 0.476763 3.7488 0
M  V30 10161 H 992.256 1.59206 7.56223 0
M  V30 10162 H 990.601 1.42498 6.80235 0
M  V30 10163 H 993.792 0.674044 4.63222 0
M  V30 10164 H 993.965 1.18241 6.37121 0
M  V30 10165 N 987.371 -1.57444 0.0701946 0
M  V30 10166 C 988.301 -2.15659 -0.895176 0
M  V30 10167 C 989.282 -1.08321 -1.31151 0
M  V30 10168 O 990.467 -1.36349 -1.38284 0
M  V30 10169 C 987.597 -2.71693 -2.16334 0
M  V30 10170 C 986.551 -3.84183 -1.88645 0
M  V30 10171 C 985.877 -4.26814 -3.22078 0
M  V30 10172 C 987.177 -5.08493 -1.19299 0
M  V30 10173 H 988.871 -2.96576 -0.410217 0
M  V30 10174 H 986.417 -1.42662 -0.195872 0
M  V30 10175 H 988.37 -3.11064 -2.84284 0
M  V30 10176 H 987.094 -1.87994 -2.67069 0
M  V30 10177 H 985.753 -3.45314 -1.23101 0
M  V30 10178 H 985.401 -3.40039 -3.70651 0
M  V30 10179 H 985.101 -5.02642 -3.04344 0
M  V30 10180 H 986.625 -4.68799 -3.91228 0
M  V30 10181 H 988.039 -5.4519 -1.77316 0
M  V30 10182 H 986.436 -5.89588 -1.11828 0
M  V30 10183 H 987.506 -4.84595 -0.171839 0
M  V30 10184 N 988.849 0.203349 -1.56283 0
M  V30 10185 C 990.096 0.92501 -1.80138 0
M  V30 10186 C 990.424 1.83598 -0.64204 0
M  V30 10187 O 989.679 1.92119 0.372658 0
M  V30 10188 C 989.978 1.78016 -3.09912 0
M  V30 10189 C 989.644 1.02088 -4.39191 0
M  V30 10190 C 988.306 0.811208 -4.74313 0
M  V30 10191 C 990.658 0.486037 -5.18929 0
M  V30 10192 C 987.986 0.0550856 -5.86674 0
M  V30 10193 C 990.338 -0.256833 -6.32078 0
M  V30 10194 C 989.002 -0.477594 -6.65789 0
M  V30 10195 H 988.272 0.338485 -0.659173 0
M  V30 10196 H 990.919 0.191923 -1.90536 0
M  V30 10197 H 989.224 2.58167 -2.94715 0
M  V30 10198 H 990.921 2.341 -3.25574 0
M  V30 10199 H 987.511 1.1943 -4.11624 0
M  V30 10200 H 991.695 0.635446 -4.92215 0
M  V30 10201 H 986.951 -0.126006 -6.1127 0
M  V30 10202 H 991.125 -0.678683 -6.93085 0
M  V30 10203 H 988.752 -1.0654 -7.52697 0
M  V30 10204 N 990.327 1.50405 0.470755 0
M  V30 10205 C 991.29 1.68741 1.5511 0
M  V30 10206 C 992.29 0.558116 1.50804 0
M  V30 10207 O 993.48 0.825149 1.53418 0
M  V30 10208 C 990.612 1.71295 2.94739 0
M  V30 10209 H 991.805 2.65127 1.40169 0
M  V30 10210 H 989.358 1.39891 0.697156 0
M  V30 10211 H 990.093 0.766029 3.15123 0
M  V30 10212 H 989.878 2.53336 2.99271 0
M  V30 10213 H 991.368 1.87434 3.73173 0
M  V30 10214 N 991.805 -0.723954 1.39988 0
M  V30 10215 C 993.045 -1.49624 1.39255 0
M  V30 10216 C 993.409 -1.91998 -0.00860198 0
M  V30 10217 O 994.61 -2.6843 -0.141002 0
M  V30 10218 C 992.881 -2.69514 2.34728 0
M  V30 10219 S 994.44 -3.59027 2.5228 0
M  V30 10220 H 991.258 -0.511661 0.493685 0
M  V30 10221 H 993.86 -0.847322 1.76184 0
M  V30 10222 H 992.564 -2.36541 3.35375 0
M  V30 10223 H 992.095 -3.39325 1.99053 0
M  V30 10224 H 994.11 -4.63597 1.76896 0
M  V30 10225 N 993.283 -1.25346 -0.955304 0
M  V30 10226 C 994.508 -1.12892 -1.73983 0
M  V30 10227 C 994.933 0.313455 -1.8547 0
M  V30 10228 O 994.291 1.22706 -1.33465 0
M  V30 10229 C 994.339 -1.78729 -3.1319 0
M  V30 10230 O 993.443 -1.06648 -3.98372 0
M  V30 10231 H 992.784 -0.394178 -0.534341 0
M  V30 10232 H 995.314 -1.65897 -1.19747 0
M  V30 10233 H 995.324 -1.84987 -3.63653 0
M  V30 10234 H 993.999 -2.83669 -3.04146 0
M  V30 10235 H 992.576 -1.08266 -3.56837 0
M  V30 10236 N 994.761 1.15782 -1.06922 0
M  V30 10237 C 995.709 2.22441 -0.679893 0
M  V30 10238 C 996.703 1.66591 0.307221 0
M  V30 10239 O 997.909 1.79182 0.171402 0
M  V30 10240 H 994.284 0.724427 -0.201765 0
M  V30 10241 H 996.255 2.52562 -1.58918 0
M  V30 10242 C 995.004 3.47586 -0.0891142 0
M  V30 10243 H 994.327 3.9088 -0.839805 0
M  V30 10244 H 995.767 4.2375 0.14569 0
M  V30 10245 C 994.226 3.15967 1.16903 0
M  V30 10246 O 994.756 3.32359 2.25611 0
M  V30 10247 N 992.962 2.70046 1.07349 0
M  V30 10248 H 992.509 2.56907 0.188825 0
M  V30 10249 H 992.467 2.49264 1.91611 0
M  V30 10250 N 996.239 0.8527 1.3254 0
M  V30 10251 C 997.186 0.293905 2.28921 0
M  V30 10252 C 998.156 -0.598027 1.54961 0
M  V30 10253 O 999.341 -0.533355 1.83194 0
M  V30 10254 C 996.481 -0.513361 3.4126 0
M  V30 10255 C 995.594 0.404144 4.30105 0
M  V30 10256 C 994.729 -0.415564 5.29572 0
M  V30 10257 C 993.768 0.499461 6.10059 0
M  V30 10258 N 992.905 -0.282949 7.0153 0
M  V30 10259 H 997.745 1.12107 2.76109 0
M  V30 10260 H 995.282 0.564272 1.35847 0
M  V30 10261 H 997.24 -0.997008 4.05112 0
M  V30 10262 H 995.87 -1.30537 2.95229 0
M  V30 10263 H 994.922 1.00617 3.66852 0
M  V30 10264 H 996.234 1.10648 4.86373 0
M  V30 10265 H 995.388 -0.962458 5.99017 0
M  V30 10266 H 994.127 -1.15127 4.73917 0
M  V30 10267 H 993.132 1.05825 5.39519 0
M  V30 10268 H 994.357 1.23375 6.67799 0
M  V30 10269 H 992.303 -1.00179 6.48306 0
M  V30 10270 H 992.22 0.36039 7.55141 0
M  V30 10271 H 993.488 -0.811632 7.75263 0
M  V30 10272 N 997.718 -1.45297 0.610449 0
M  V30 10273 C 998.967 -2.0143 0.104323 0
M  V30 10274 C 999.28 -1.48431 -1.27388 0
M  V30 10275 O 1000.49 -1.96558 -1.87289 0
M  V30 10276 C 998.942 -3.59644 0.135812 0
M  V30 10277 C 998.55 -4.2164 1.51405 0
M  V30 10278 C 1000.29 -4.2333 -0.314922 0
M  V30 10279 C 998.201 -5.72015 1.50176 0
M  V30 10280 H 997.131 -0.753176 0.035233 0
M  V30 10281 H 999.782 -1.66738 0.7662 0
M  V30 10282 H 998.164 -3.91538 -0.592773 0
M  V30 10283 H 999.338 -4.01315 2.26457 0
M  V30 10284 H 997.653 -3.70159 1.90712 0
M  V30 10285 H 1000.25 -5.33597 -0.343335 0
M  V30 10286 H 1000.59 -3.94206 -1.33817 0
M  V30 10287 H 1001.13 -3.96163 0.360489 0
M  V30 10288 H 997.865 -6.05842 2.50271 0
M  V30 10289 H 997.385 -5.94523 0.793869 0
M  V30 10290 H 999.064 -6.35266 1.22665 0
M  V30 10291 N 999.196 -0.349774 -1.5367 0
M  V30 10292 C 1000.44 0.244343 -2.00617 0
M  V30 10293 C 1000.76 1.50567 -1.23914 0
M  V30 10294 O 1000.03 1.92784 -0.348016 0
M  V30 10295 H 998.615 0.0932792 -0.741153 0
M  V30 10296 H 1001.28 -0.472367 -1.89089 0
M  V30 10297 H 1000.37 0.482433 -3.08349 0
M  V30 10298 N 1000.67 1.57404 -0.0785433 0
M  V30 10299 C 1002.09 1.57158 0.2781 0
M  V30 10300 C 1002.29 1.08847 1.69572 0
M  V30 10301 O 1001.35 0.757407 2.40873 0
M  V30 10302 C 1002.66 3.00589 0.0816067 0
M  V30 10303 C 1004.21 3.12637 0.150627 0
M  V30 10304 C 1004.68 4.57997 -0.0176685 0
M  V30 10305 N 1006.17 4.63185 0.0377145 0
M  V30 10306 C 1006.91 5.7336 -0.0679907 0
M  V30 10307 N 1006.4 6.92426 -0.227598 0
M  V30 10308 N 1008.2 5.62099 -0.0104424 0
M  V30 10309 H 1000.35 1.87121 -1.00496 0
M  V30 10310 H 1002.61 0.862937 -0.392484 0
M  V30 10311 H 1002.32 3.40072 -0.896869 0
M  V30 10312 H 1002.19 3.67931 0.831046 0
M  V30 10313 H 1004.58 2.73037 1.11959 0
M  V30 10314 H 1004.66 2.4792 -0.630028 0
M  V30 10315 H 1004.3 4.98288 -0.983431 0
M  V30 10316 H 1004.23 5.20754 0.782475 0
M  V30 10317 H 1006.72 3.77564 0.159208 0
M  V30 10318 H 1007.04 7.72217 -0.300217 0
M  V30 10319 H 1005.38 6.94502 -0.263049 0
M  V30 10320 H 1008.57 4.67964 0.112999 0
M  V30 10321 H 1008.75 6.47928 -0.0962747 0
M  V30 10322 N 1002.15 -0.195058 1.56388 0
M  V30 10323 C 1003.4 -0.915444 1.80626 0
M  V30 10324 C 1003.73 -1.83255 0.651768 0
M  V30 10325 O 1002.98 -1.92314 -0.362464 0
M  V30 10326 C 1003.28 -1.7637 3.10851 0
M  V30 10327 C 1002.95 -0.997572 4.39726 0
M  V30 10328 C 1001.61 -0.786043 4.74737 0
M  V30 10329 C 1003.96 -0.45851 5.19179 0
M  V30 10330 C 1001.29 -0.023972 5.86695 0
M  V30 10331 C 1003.64 0.29035 6.31933 0
M  V30 10332 C 1002.3 0.512895 6.65527 0
M  V30 10333 H 1001.57 -0.334985 0.660959 0
M  V30 10334 H 1004.22 -0.181815 1.90635 0
M  V30 10335 H 1002.53 -2.566 2.9608 0
M  V30 10336 H 1004.22 -2.3237 3.26811 0
M  V30 10337 H 1000.81 -1.17245 4.12252 0
M  V30 10338 H 1005 -0.609334 4.92545 0
M  V30 10339 H 1000.25 0.158421 6.11195 0
M  V30 10340 H 1004.43 0.715429 6.92715 0
M  V30 10341 H 1002.05 1.10531 7.52122 0
M  V30 10342 N 1003.63 -1.50653 -0.462772 0
M  V30 10343 C 1004.88 -1.62297 -1.21603 0
M  V30 10344 C 1005.21 -0.326191 -1.91441 0
M  V30 10345 O 1004.48 0.67284 -1.82491 0
M  V30 10346 C 1004.77 -2.80901 -2.25315 0
M  V30 10347 C 1004.62 -4.20484 -1.59728 0
M  V30 10348 C 1005.94 -2.95049 -3.26549 0
M  V30 10349 H 1003.06 -0.590691 -0.440741 0
M  V30 10350 H 1005.7 -1.83064 -0.508675 0
M  V30 10351 H 1003.85 -2.63325 -2.85643 0
M  V30 10352 H 1005.52 -4.49669 -1.02932 0
M  V30 10353 H 1003.76 -4.24357 -0.900181 0
M  V30 10354 H 1004.44 -4.99416 -2.35133 0
M  V30 10355 H 1006.91 -3.11166 -2.76251 0
M  V30 10356 H 1005.79 -3.79645 -3.96435 0
M  V30 10357 H 1006.05 -2.06019 -3.91163 0
M  V30 10358 N 1005.11 0.71652 -1.4037 0
M  V30 10359 C 1006.36 1.47193 -1.37903 0
M  V30 10360 C 1006.67 1.95593 0.0159939 0
M  V30 10361 O 1007.88 2.71009 0.163282 0
M  V30 10362 C 1006.33 2.6606 -2.42363 0
M  V30 10363 C 1005.94 2.24533 -3.87671 0
M  V30 10364 C 1007.68 3.438 -2.49001 0
M  V30 10365 C 1005.59 3.40234 -4.8373 0
M  V30 10366 H 1004.52 0.552811 -0.512753 0
M  V30 10367 H 1007.17 0.779894 -1.66102 0
M  V30 10368 H 1005.55 3.37429 -2.07262 0
M  V30 10369 H 1006.73 1.6059 -4.31911 0
M  V30 10370 H 1005.04 1.59839 -3.845 0
M  V30 10371 H 1007.64 4.29893 -3.17956 0
M  V30 10372 H 1007.98 3.8755 -1.52023 0
M  V30 10373 H 1008.52 2.79474 -2.83088 0
M  V30 10374 H 1005.26 3.01517 -5.82037 0
M  V30 10375 H 1004.78 4.03095 -4.44156 0
M  V30 10376 H 1006.45 4.06312 -5.03507 0
M  V30 10377 N 1006.59 1.25851 0.948643 0
M  V30 10378 C 1007.5 1.08516 2.07994 0
M  V30 10379 C 1008.51 0.0206696 1.73988 0
M  V30 10380 O 1009.69 0.222854 2.00163 0
M  V30 10381 C 1006.75 0.712145 3.39307 0
M  V30 10382 C 1005.81 1.85523 3.87143 0
M  V30 10383 C 1005.05 1.49992 5.1219 0
M  V30 10384 O 1005.27 0.398268 5.69008 0
M  V30 10385 O 1004.2 2.33215 5.54882 0
M  V30 10386 H 1008.03 2.03405 2.25522 0
M  V30 10387 H 1005.62 1.04844 1.06433 0
M  V30 10388 H 1007.5 0.516512 4.18223 0
M  V30 10389 H 1006.17 -0.207416 3.23035 0
M  V30 10390 H 1005.08 2.10578 3.09205 0
M  V30 10391 H 1006.41 2.75425 4.07924 0
M  V30 10392 N 1008.06 -1.15214 1.07534 0
M  V30 10393 C 1008.97 -2.23636 0.708818 0
M  V30 10394 C 1009.99 -1.7172 -0.280759 0
M  V30 10395 O 1011.17 -2.01 -0.126927 0
M  V30 10396 C 1008.23 -3.46512 0.114167 0
M  V30 10397 C 1007.29 -4.13409 1.15722 0
M  V30 10398 C 1006.53 -5.30419 0.59085 0
M  V30 10399 O 1006.75 -5.67314 -0.592512 0
M  V30 10400 O 1005.68 -5.86871 1.33663 0
M  V30 10401 H 1009.51 -2.57322 1.61305 0
M  V30 10402 H 1007.09 -1.22972 0.848422 0
M  V30 10403 H 1008.98 -4.20851 -0.215091 0
M  V30 10404 H 1007.65 -3.1457 -0.763356 0
M  V30 10405 H 1006.56 -3.40984 1.53886 0
M  V30 10406 H 1007.89 -4.49435 2.00671 0
M  V30 10407 N 1009.54 -0.859717 -1.32086 0
M  V30 10408 C 1010.79 -0.466271 -1.97367 0
M  V30 10409 C 1011.12 0.976728 -1.6785 0
M  V30 10410 O 1010.4 1.68618 -0.969449 0
M  V30 10411 C 1010.68 -0.711851 -3.52994 0
M  V30 10412 C 1010.53 -2.20364 -3.92122 0
M  V30 10413 C 1011.85 -0.17156 -4.39765 0
M  V30 10414 H 1008.97 -0.170883 -0.716916 0
M  V30 10415 H 1011.61 -1.07907 -1.56384 0
M  V30 10416 H 1009.76 -0.190258 -3.88034 0
M  V30 10417 H 1011.43 -2.7917 -3.67236 0
M  V30 10418 H 1009.68 -2.68019 -3.41099 0
M  V30 10419 H 1010.35 -2.32615 -5.00594 0
M  V30 10420 H 1012.82 -0.617665 -4.1149 0
M  V30 10421 H 1011.7 -0.372921 -5.47632 0
M  V30 10422 H 1011.96 0.925959 -4.32294 0
M  V30 10423 N 1011.02 1.44971 -0.618145 0
M  V30 10424 C 1012.43 1.85611 -0.201334 0
M  V30 10425 C 1012.78 1.51698 1.24427 0
M  V30 10426 O 1011.91 0.94875 1.94493 0
M  V30 10427 C 1012.5 3.36897 -0.358619 0
M  V30 10428 C 1011.06 3.764 0.00358196 0
M  V30 10429 C 1010.21 2.68881 -0.678118 0
M  V30 10430 H 1013.16 1.35622 -0.824152 0
M  V30 10431 H 1013.18 3.78326 0.406176 0
M  V30 10432 H 1012.69 3.61548 -1.41084 0
M  V30 10433 H 1010.79 3.57365 1.05457 0
M  V30 10434 H 1010.91 4.77449 -0.397427 0
M  V30 10435 H 1009.27 2.54442 -0.114699 0
M  V30 10436 H 1010.05 2.96367 -1.73268 0
M  V30 10437 N 1012.5 0.357919 1.53482 0
M  V30 10438 C 1013.75 -0.2337 2.00744 0
M  V30 10439 C 1014.07 -1.49908 1.2471 0
M  V30 10440 O 1013.34 -1.92597 0.358235 0
M  V30 10441 H 1011.92 -0.0893474 0.741637 0
M  V30 10442 H 1014.58 0.482388 1.88836 0
M  V30 10443 H 1013.68 -0.466073 3.086 0
M  V30 10444 N 1013.98 -1.5736 0.0868897 0
M  V30 10445 C 1014.89 -2.17087 -0.889402 0
M  V30 10446 C 1015.9 -1.13809 -1.31619 0
M  V30 10447 O 1017.08 -1.46143 -1.38579 0
M  V30 10448 C 1014.14 -2.73286 -2.13344 0
M  V30 10449 C 1013.2 -3.91491 -1.76164 0
M  V30 10450 C 1012.44 -4.45 -2.94637 0
M  V30 10451 O 1012.66 -3.97467 -4.09116 0
M  V30 10452 O 1011.59 -5.36133 -2.73579 0
M  V30 10453 H 1015.42 -3.00902 -0.411275 0
M  V30 10454 H 1013.01 -1.4877 -0.137015 0
M  V30 10455 H 1014.89 -3.0924 -2.86266 0
M  V30 10456 H 1013.56 -1.92521 -2.60225 0
M  V30 10457 H 1012.47 -3.60363 -1.00447 0
M  V30 10458 H 1013.8 -4.73593 -1.34053 0
M  V30 10459 N 1015.45 0.186762 -1.56489 0
M  V30 10460 C 1016.38 1.23395 -1.98232 0
M  V30 10461 C 1017.37 1.4702 -0.855526 0
M  V30 10462 O 1018.55 1.58616 -1.12048 0
M  V30 10463 C 1015.68 2.57635 -2.32898 0
M  V30 10464 C 1014.63 2.48607 -3.48394 0
M  V30 10465 C 1013.96 3.87196 -3.68759 0
M  V30 10466 C 1015.26 2.00398 -4.82325 0
M  V30 10467 H 1016.95 0.887026 -2.85958 0
M  V30 10468 H 1014.5 0.42525 -1.37578 0
M  V30 10469 H 1016.45 3.31082 -2.60696 0
M  V30 10470 H 1015.18 2.94084 -1.42064 0
M  V30 10471 H 1013.84 1.77615 -3.207 0
M  V30 10472 H 1013.48 4.21012 -2.75241 0
M  V30 10473 H 1013.18 3.82029 -4.46462 0
M  V30 10474 H 1014.71 4.62253 -3.98941 0
M  V30 10475 H 1016.12 2.6361 -5.091 0
M  V30 10476 H 1014.52 2.06214 -5.63556 0
M  V30 10477 H 1015.59 0.957562 -4.75351 0
M  V30 10478 N 1016.93 1.50896 0.454776 0
M  V30 10479 C 1017.87 1.65608 1.57001 0
M  V30 10480 C 1018.84 0.50387 1.54596 0
M  V30 10481 O 1020.03 0.725485 1.7398 0
M  V30 10482 C 1017.15 1.65366 2.95587 0
M  V30 10483 C 1016.2 2.86344 3.16085 0
M  V30 10484 S 1017.03 4.47418 2.9424 0
M  V30 10485 C 1018.19 4.49895 4.35138 0
M  V30 10486 H 1018.42 2.59941 1.44285 0
M  V30 10487 H 1015.96 1.40362 0.643264 0
M  V30 10488 H 1017.91 1.65911 3.75478 0
M  V30 10489 H 1016.57 0.722407 3.0568 0
M  V30 10490 H 1015.77 2.82526 4.17367 0
M  V30 10491 H 1015.37 2.8345 2.43992 0
M  V30 10492 H 1017.66 4.24462 5.28051 0
M  V30 10493 H 1018.6 5.5161 4.43995 0
M  V30 10494 H 1019.01 3.79412 4.17979 0
M  V30 10495 N 1018.41 -0.709066 1.40748 0
M  V30 10496 C 1019.34 -1.83412 1.37451 0
M  V30 10497 C 1020.36 -1.60394 0.27884 0
M  V30 10498 O 1021.54 -1.70147 0.539642 0
M  V30 10499 C 1018.64 -3.19935 1.1178 0
M  V30 10500 C 1017.82 -3.70095 2.33128 0
M  V30 10501 C 1016.88 -4.85249 2.03518 0
M  V30 10502 O 1015.9 -4.97563 2.76442 0
M  V30 10503 N 1017.1 -5.7152 1.01714 0
M  V30 10504 H 1019.87 -1.86736 2.34414 0
M  V30 10505 H 1017.43 -0.890863 1.35186 0
M  V30 10506 H 1019.42 -3.94578 0.899464 0
M  V30 10507 H 1017.99 -3.11718 0.234624 0
M  V30 10508 H 1017.21 -2.8651 2.70751 0
M  V30 10509 H 1018.5 -4.00344 3.1401 0
M  V30 10510 H 1017.9 -5.64188 0.413307 0
M  V30 10511 H 1016.46 -6.46119 0.858696 0
M  V30 10512 N 1019.89 -1.26353 -0.941956 0
M  V30 10513 C 1020.8 -1.09618 -2.07415 0
M  V30 10514 C 1021.82 -0.0298963 -1.73974 0
M  V30 10515 O 1022.99 -0.233466 -2.00042 0
M  V30 10516 C 1020.06 -0.73013 -3.38925 0
M  V30 10517 C 1019.12 -1.87574 -3.86153 0
M  V30 10518 C 1018.35 -1.52706 -5.11387 0
M  V30 10519 O 1018.57 -0.428438 -5.68789 0
M  V30 10520 O 1017.51 -2.36154 -5.53638 0
M  V30 10521 H 1021.33 -2.04598 -2.2444 0
M  V30 10522 H 1018.92 -1.05407 -1.05876 0
M  V30 10523 H 1020.8 -0.538684 -4.17943 0
M  V30 10524 H 1019.48 0.190282 -3.2314 0
M  V30 10525 H 1018.38 -2.12214 -3.08084 0
M  V30 10526 H 1019.72 -2.77585 -4.06457 0
M  V30 10527 N 1021.37 1.14642 -1.08144 0
M  V30 10528 C 1022.64 1.81774 -0.72232 0
M  V30 10529 C 1023.02 1.95587 0.794294 0
M  V30 10530 O 1022.37 1.51361 1.71178 0
M  V30 10531 C 1022.58 3.1763 -1.44611 0
M  V30 10532 C 1023.93 3.93161 -1.60343 0
M  V30 10533 O 1024.95 3.2721 -1.40755 0
M  V30 10534 O 1023.81 5.11422 -1.9264 0
M  V30 10535 H 1020.91 0.785733 -0.257978 0
M  V30 10536 H 1023.45 1.21683 -1.18285 0
M  V30 10537 H 1022.23 3.02723 -2.4794 0
M  V30 10538 H 1021.85 3.85412 -0.976892 0
M  V30 10539 N 1022.85 0.866709 1.31628 0
M  V30 10540 C 1023.78 0.335762 2.31073 0
M  V30 10541 C 1024.76 -0.571597 1.60209 0
M  V30 10542 O 1025.94 -0.489306 1.87935 0
M  V30 10543 C 1023.07 -0.466416 3.44154 0
M  V30 10544 C 1022.03 0.347561 4.26586 0
M  V30 10545 C 1021.35 -0.5801 5.31544 0
M  V30 10546 C 1022.65 1.57986 4.97833 0
M  V30 10547 H 1024.35 1.16673 2.75731 0
M  V30 10548 H 1021.89 0.56248 1.3256 0
M  V30 10549 H 1023.84 -0.84836 4.12772 0
M  V30 10550 H 1022.57 -1.33086 2.98254 0
M  V30 10551 H 1021.23 0.71141 3.59631 0
M  V30 10552 H 1020.88 -1.44174 4.81895 0
M  V30 10553 H 1020.58 -0.0393965 5.87587 0
M  V30 10554 H 1022.1 -0.958958 6.03023 0
M  V30 10555 H 1023.51 1.26954 5.59067 0
M  V30 10556 H 1021.91 2.05939 5.63657 0
M  V30 10557 H 1022.98 2.3345 4.25005 0
M  V30 10558 N 1024.32 -1.44642 0.625825 0
M  V30 10559 C 1025.29 -2.29085 -0.072526 0
M  V30 10560 C 1026.29 -1.40755 -0.777467 0
M  V30 10561 O 1027.48 -1.62684 -0.622861 0
M  V30 10562 C 1024.61 -3.22212 -1.1132 0
M  V30 10563 H 1025.8 -2.92317 0.670124 0
M  V30 10564 H 1023.35 -1.51466 0.38571 0
M  V30 10565 H 1024.09 -2.63819 -1.88601 0
M  V30 10566 H 1023.87 -3.87299 -0.611709 0
M  V30 10567 H 1025.36 -3.8566 -1.60175 0
M  V30 10568 N 1025.8 -0.366053 -1.5329 0
M  V30 10569 C 1027.03 0.224236 -2.05681 0
M  V30 10570 C 1027.44 1.42412 -1.23952 0
M  V30 10571 O 1026.8 1.80334 -0.280309 0
M  V30 10572 C 1026.85 0.617266 -3.56191 0
M  V30 10573 O 1026.57 -0.534931 -4.34822 0
M  V30 10574 C 1028.07 1.26589 -4.24841 0
M  V30 10575 H 1025.29 0.0392928 -0.669849 0
M  V30 10576 H 1027.84 -0.52456 -1.97658 0
M  V30 10577 H 1025.99 1.31598 -3.64364 0
M  V30 10578 H 1026.41 -0.217123 -5.2405 0
M  V30 10579 H 1027.88 1.49146 -5.31469 0
M  V30 10580 H 1028.36 2.22633 -3.78591 0
M  V30 10581 H 1028.96 0.6086 -4.20923 0
M  V30 10582 N 1027.28 1.57312 -0.0952337 0
M  V30 10583 C 1028.56 1.85822 0.610715 0
M  V30 10584 C 1028.94 0.992114 1.86334 0
M  V30 10585 O 1028.28 0.0645669 2.28409 0
M  V30 10586 C 1028.49 3.36492 0.925967 0
M  V30 10587 C 1029.84 4.0455 1.28936 0
M  V30 10588 O 1030.87 3.41374 1.01698 0
M  V30 10589 O 1029.73 5.16024 1.79949 0
M  V30 10590 H 1026.82 0.768454 0.305626 0
M  V30 10591 H 1029.37 1.69217 -0.127941 0
M  V30 10592 H 1028.14 3.91282 0.0373127 0
M  V30 10593 H 1027.76 3.58443 1.7206 0
M  V30 10594 N 1028.76 -0.17846 1.56586 0
M  V30 10595 C 1030.03 -0.923096 1.72448 0
M  V30 10596 C 1030.41 -2.00692 0.654659 0
M  V30 10597 O 1029.76 -2.26079 -0.33171 0
M  V30 10598 C 1029.97 -1.49435 3.15389 0
M  V30 10599 C 1031.32 -1.97005 3.76131 0
M  V30 10600 O 1032.34 -1.59244 3.18622 0
M  V30 10601 O 1031.2 -2.66541 4.77094 0
M  V30 10602 H 1028.3 -0.434009 0.703964 0
M  V30 10603 H 1030.84 -0.16685 1.68878 0
M  V30 10604 H 1029.62 -0.713933 3.84732 0
M  V30 10605 H 1029.24 -2.31498 3.23256 0
M  V30 10606 N 1030.24 -1.51135 -0.446768 0
M  V30 10607 C 1031.48 -1.63578 -1.19875 0
M  V30 10608 C 1031.81 -0.346478 -1.91084 0
M  V30 10609 O 1031.09 0.653447 -1.83195 0
M  V30 10610 C 1031.37 -2.83275 -2.22323 0
M  V30 10611 C 1031.23 -4.22155 -1.55259 0
M  V30 10612 C 1032.54 -2.98496 -3.23401 0
M  V30 10613 H 1029.66 -0.595333 -0.434452 0
M  V30 10614 H 1032.31 -1.83593 -0.48923 0
M  V30 10615 H 1030.46 -2.6634 -2.82834 0
M  V30 10616 H 1032.13 -4.50736 -0.981571 0
M  V30 10617 H 1030.37 -4.25288 -0.855122 0
M  V30 10618 H 1031.04 -5.01882 -2.29823 0
M  V30 10619 H 1033.52 -3.14079 -2.72935 0
M  V30 10620 H 1032.39 -3.83828 -3.92386 0
M  V30 10621 H 1032.65 -2.10157 -3.88956 0
M  V30 10622 N 1031.71 0.701592 -1.41122 0
M  V30 10623 C 1032.65 1.8257 -1.36907 0
M  V30 10624 C 1033.62 1.6086 -0.237245 0
M  V30 10625 O 1034.81 1.83688 -0.423182 0
M  V30 10626 C 1031.94 3.19149 -1.13408 0
M  V30 10627 C 1030.98 3.59661 -2.29229 0
M  V30 10628 S 1031.81 3.65161 -3.91685 0
M  V30 10629 C 1032.97 5.04477 -3.70478 0
M  V30 10630 H 1033.2 1.85867 -2.32036 0
M  V30 10631 H 1030.74 0.869726 -1.27574 0
M  V30 10632 H 1032.69 3.97998 -1.00537 0
M  V30 10633 H 1031.36 3.13468 -0.199099 0
M  V30 10634 H 1030.55 4.58866 -2.08466 0
M  V30 10635 H 1030.15 2.88105 -2.38477 0
M  V30 10636 H 1032.44 5.91803 -3.29811 0
M  V30 10637 H 1033.39 5.3028 -4.69264 0
M  V30 10638 H 1033.79 4.75731 -3.03876 0
M  V30 10639 N 1033.19 1.2685 0.935242 0
M  V30 10640 C 1034.12 1.1143 2.05196 0
M  V30 10641 C 1035.1 0.0178362 1.70091 0
M  V30 10642 O 1036.29 0.190951 1.93259 0
M  V30 10643 C 1033.42 0.752779 3.39044 0
M  V30 10644 C 1032.37 1.80164 3.88233 0
M  V30 10645 C 1031.7 1.29428 5.18799 0
M  V30 10646 C 1033 3.20431 4.12457 0
M  V30 10647 H 1034.69 2.04845 2.18355 0
M  V30 10648 H 1032.24 0.986276 1.04922 0
M  V30 10649 H 1034.19 0.631757 4.16637 0
M  V30 10650 H 1032.91 -0.217075 3.25878 0
M  V30 10651 H 1031.57 1.91144 3.12825 0
M  V30 10652 H 1031.22 0.3141 5.02018 0
M  V30 10653 H 1030.92 1.99546 5.5268 0
M  V30 10654 H 1032.45 1.18605 5.9897 0
M  V30 10655 H 1033.86 3.12495 4.80645 0
M  V30 10656 H 1032.26 3.88193 4.57631 0
M  V30 10657 H 1033.33 3.66046 3.18023 0
M  V30 10658 N 1034.67 -1.14067 1.0875 0
M  V30 10659 C 1035.6 -2.21385 0.74236 0
M  V30 10660 C 1036.58 -1.67833 -0.276805 0
M  V30 10661 O 1037.77 -1.93647 -0.1464 0
M  V30 10662 C 1034.9 -3.46956 0.154644 0
M  V30 10663 C 1033.85 -4.13555 1.10255 0
M  V30 10664 C 1033.18 -5.3337 0.376877 0
M  V30 10665 C 1034.48 -4.6169 2.44213 0
M  V30 10666 H 1036.17 -2.50512 1.63964 0
M  V30 10667 H 1033.72 -1.20408 0.789807 0
M  V30 10668 H 1035.67 -4.21284 -0.0988419 0
M  V30 10669 H 1034.39 -3.17203 -0.777789 0
M  V30 10670 H 1033.05 -3.41186 1.34119 0
M  V30 10671 H 1032.7 -4.99879 -0.559472 0
M  V30 10672 H 1032.4 -5.78875 1.00884 0
M  V30 10673 H 1033.92 -6.10458 0.131527 0
M  V30 10674 H 1035.34 -5.27475 2.24595 0
M  V30 10675 H 1033.74 -5.17909 3.03134 0
M  V30 10676 H 1034.81 -3.76574 3.05483 0
M  V30 10677 N 1036.15 -0.873678 -1.31166 0
M  V30 10678 C 1037.43 -0.40698 -1.91319 0
M  V30 10679 C 1037.81 1.1113 -1.79481 0
M  V30 10680 O 1037.15 1.94155 -1.20483 0
M  V30 10681 C 1037.36 -0.892484 -3.37396 0
M  V30 10682 C 1038.71 -0.920795 -4.14496 0
M  V30 10683 O 1039.74 -0.838386 -3.46193 0
M  V30 10684 O 1038.59 -1.04069 -5.365 0
M  V30 10685 H 1035.69 -0.122439 -0.817886 0
M  V30 10686 H 1038.23 -0.961835 -1.3981 0
M  V30 10687 H 1037.01 -1.93613 -3.40044 0
M  V30 10688 H 1036.63 -0.31615 -3.96341 0
M  V30 10689 N 1037.63 1.44308 -0.633487 0
M  V30 10690 C 1038.85 2.06384 -0.146063 0
M  V30 10691 C 1039.27 1.47357 1.18031 0
M  V30 10692 O 1038.63 0.597334 1.72448 0
M  V30 10693 C 1038.68 3.61489 -0.0276722 0
M  V30 10694 O 1038.4 4.18318 -1.3016 0
M  V30 10695 C 1039.9 4.40604 0.488168 0
M  V30 10696 H 1037.12 0.666122 -0.0807632 0
M  V30 10697 H 1039.66 1.85139 -0.868557 0
M  V30 10698 H 1037.82 3.81988 0.645273 0
M  V30 10699 H 1038.23 5.11783 -1.14797 0
M  V30 10700 H 1039.71 5.49545 0.520013 0
M  V30 10701 H 1040.18 4.12218 1.51568 0
M  V30 10702 H 1040.79 4.2503 -0.151608 0
M  V30 10703 N 1039.1 0.374177 1.53094 0
M  V30 10704 C 1040.35 -0.205669 2.02358 0
M  V30 10705 C 1040.71 -1.4572 1.25633 0
M  V30 10706 O 1040 -1.88487 0.343977 0
M  V30 10707 C 1040.19 -0.542179 3.53264 0
M  V30 10708 C 1040.02 0.675186 4.44602 0
M  V30 10709 C 1038.79 1.18987 4.91091 0
M  V30 10710 C 1040.99 1.54299 4.90608 0
M  V30 10711 N 1038.97 2.36637 5.66459 0
M  V30 10712 C 1040.34 2.56605 5.64406 0
M  V30 10713 C 1042.4 1.56486 4.7267 0
M  V30 10714 C 1041.1 3.60965 6.22171 0
M  V30 10715 C 1043.13 2.59745 5.31307 0
M  V30 10716 C 1042.49 3.60774 6.04997 0
M  V30 10717 H 1038.59 -0.0377471 0.781088 0
M  V30 10718 H 1041.17 0.520661 1.87609 0
M  V30 10719 H 1039.34 -1.23758 3.68156 0
M  V30 10720 H 1041.07 -1.10786 3.89241 0
M  V30 10721 H 1037.83 0.753181 4.67573 0
M  V30 10722 H 1038.25 2.96123 6.08802 0
M  V30 10723 H 1042.9 0.797296 4.15214 0
M  V30 10724 H 1040.61 4.38599 6.78717 0
M  V30 10725 H 1044.2 2.62301 5.19316 0
M  V30 10726 H 1043.08 4.39363 6.49561 0
M  V30 10727 N 1040.58 -1.57259 0.103575 0
M  V30 10728 C 1041.86 -1.86143 -0.600852 0
M  V30 10729 C 1042.24 -1.00198 -1.85805 0
M  V30 10730 O 1041.59 -0.0766791 -2.28371 0
M  V30 10731 C 1041.8 -3.36978 -0.908108 0
M  V30 10732 C 1043.15 -4.05228 -1.26788 0
M  V30 10733 O 1044.17 -3.41908 -0.998859 0
M  V30 10734 O 1043.03 -5.16971 -1.7721 0
M  V30 10735 H 1040.12 -0.770064 -0.301547 0
M  V30 10736 H 1042.67 -1.69147 0.136914 0
M  V30 10737 H 1041.44 -3.91296 -0.0165615 0
M  V30 10738 H 1041.06 -3.5935 -1.70156 0
M  V30 10739 N 1042.06 0.170153 -1.56679 0
M  V30 10740 C 1042.99 1.23525 -1.93066 0
M  V30 10741 C 1044.01 1.40414 -0.823879 0
M  V30 10742 O 1045.19 1.40396 -1.10232 0
M  V30 10743 C 1042.29 2.60376 -2.16928 0
M  V30 10744 C 1041.47 2.6477 -3.4816 0
M  V30 10745 C 1040.53 3.82993 -3.60837 0
M  V30 10746 O 1039.55 3.68937 -4.33444 0
M  V30 10747 N 1040.75 4.99498 -2.95773 0
M  V30 10748 H 1043.52 0.926172 -2.8503 0
M  V30 10749 H 1041.08 0.359909 -1.57849 0
M  V30 10750 H 1043.07 3.37934 -2.22672 0
M  V30 10751 H 1041.64 2.83669 -1.31342 0
M  V30 10752 H 1040.86 1.73298 -3.54064 0
M  V30 10753 H 1042.15 2.64717 -4.34514 0
M  V30 10754 H 1041.55 5.13819 -2.36657 0
M  V30 10755 H 1040.11 5.74914 -3.07111 0
M  V30 10756 N 1043.54 1.5137 0.438746 0
M  V30 10757 C 1044.78 1.64211 1.19006 0
M  V30 10758 C 1045.12 0.356607 1.90898 0
M  V30 10759 O 1044.39 -0.643722 1.83539 0
M  V30 10760 C 1044.68 2.8445 2.20817 0
M  V30 10761 C 1044.53 4.22972 1.53018 0
M  V30 10762 C 1045.85 3.00207 3.21813 0
M  V30 10763 H 1042.97 0.597628 0.431288 0
M  V30 10764 H 1045.61 1.8385 0.479487 0
M  V30 10765 H 1043.76 2.67836 2.81418 0
M  V30 10766 H 1045.43 4.5125 0.957654 0
M  V30 10767 H 1043.67 4.25736 0.832556 0
M  V30 10768 H 1044.34 5.03094 2.27158 0
M  V30 10769 H 1046.82 3.15522 2.71266 0
M  V30 10770 H 1045.7 3.85904 3.90345 0
M  V30 10771 H 1045.96 2.12216 3.87836 0
M  V30 10772 N 1045.02 -0.694098 1.41492 0
M  V30 10773 C 1046.26 -1.45415 1.40929 0
M  V30 10774 C 1046.59 -1.94491 0.0189301 0
M  V30 10775 O 1045.85 -1.7 -0.96945 0
M  V30 10776 C 1046.15 -2.6805 2.36398 0
M  V30 10777 C 1045.81 -2.37623 3.83205 0
M  V30 10778 C 1044.47 -2.29035 4.23198 0
M  V30 10779 C 1046.83 -2.12555 4.75888 0
M  V30 10780 C 1044.15 -1.93478 5.5388 0
M  V30 10781 C 1046.51 -1.78506 6.06892 0
M  V30 10782 C 1045.17 -1.68415 6.45905 0
M  V30 10783 H 1044.44 -0.53211 0.515694 0
M  V30 10784 H 1047.09 -0.793193 1.74301 0
M  V30 10785 H 1045.39 -3.39086 1.96285 0
M  V30 10786 H 1047.09 -3.26194 2.33234 0
M  V30 10787 H 1043.68 -2.45202 3.51531 0
M  V30 10788 H 1047.86 -2.18133 4.45793 0
M  V30 10789 H 1043.12 -1.84219 5.82986 0
M  V30 10790 H 1047.29 -1.58128 6.7821 0
M  V30 10791 H 1044.92 -1.40631 7.47079 0
M  V30 10792 N 1046.49 -1.27344 -0.928501 0
M  V30 10793 C 1047.74 -1.13804 -1.67859 0
M  V30 10794 C 1048.07 0.31555 -1.91619 0
M  V30 10795 O 1047.35 1.23087 -1.50599 0
M  V30 10796 C 1047.63 -1.9213 -3.04562 0
M  V30 10797 C 1047.48 -3.45468 -2.88048 0
M  V30 10798 C 1048.8 -1.72513 -4.04879 0
M  V30 10799 H 1045.92 -0.414796 -0.609191 0
M  V30 10800 H 1048.56 -1.5649 -1.07753 0
M  V30 10801 H 1046.71 -1.55853 -3.55868 0
M  V30 10802 H 1048.39 -3.9157 -2.43865 0
M  V30 10803 H 1046.63 -3.71849 -2.23407 0
M  V30 10804 H 1047.3 -3.95515 -3.85061 0
M  V30 10805 H 1049.78 -2.04143 -3.62581 0
M  V30 10806 H 1048.65 -2.29713 -4.98521 0
M  V30 10807 H 1048.91 -0.672856 -4.3695 0
M  V30 10808 N 1047.97 1.13488 -1.09353 0
M  V30 10809 C 1049.22 1.85234 -0.840227 0
M  V30 10810 C 1049.57 1.81884 0.627379 0
M  V30 10811 O 1048.87 1.24548 1.45596 0
M  V30 10812 C 1049.06 3.32584 -1.30854 0
M  V30 10813 C 1048.89 3.50283 -2.82014 0
M  V30 10814 C 1047.66 3.64569 -3.49883 0
M  V30 10815 C 1049.86 3.46388 -3.80158 0
M  V30 10816 N 1047.84 3.70522 -4.89476 0
M  V30 10817 C 1049.21 3.58701 -5.05701 0
M  V30 10818 C 1051.27 3.29784 -3.73024 0
M  V30 10819 C 1049.97 3.56126 -6.24953 0
M  V30 10820 C 1051.99 3.28516 -4.91763 0
M  V30 10821 C 1051.36 3.4138 -6.16149 0
M  V30 10822 H 1047.46 0.694046 -0.36031 0
M  V30 10823 H 1050.04 1.35949 -1.39377 0
M  V30 10824 H 1048.21 3.80437 -0.78246 0
M  V30 10825 H 1049.94 3.92134 -1.00064 0
M  V30 10826 H 1046.7 3.66211 -3.0031 0
M  V30 10827 H 1047.12 3.77191 -5.62188 0
M  V30 10828 H 1051.76 3.18741 -2.77784 0
M  V30 10829 H 1049.48 3.65942 -7.20494 0
M  V30 10830 H 1053.07 3.16867 -4.87941 0
M  V30 10831 H 1051.95 3.40359 -7.06488 0
M  V30 10832 N 1049.45 0.880621 1.30701 0
M  V30 10833 C 1050.7 0.497611 1.966 0
M  V30 10834 C 1051.03 -0.949901 1.69383 0
M  V30 10835 O 1050.31 -1.67054 0.996152 0
M  V30 10836 C 1050.59 0.767919 3.51817 0
M  V30 10837 C 1050.44 2.26574 3.88567 0
M  V30 10838 C 1051.76 0.241502 4.39437 0
M  V30 10839 H 1048.88 0.182267 0.714106 0
M  V30 10840 H 1051.52 1.10382 1.54648 0
M  V30 10841 H 1049.67 0.251967 3.87682 0
M  V30 10842 H 1051.34 2.84977 3.62748 0
M  V30 10843 H 1049.59 2.73411 3.36792 0
M  V30 10844 H 1050.26 2.40549 4.9683 0
M  V30 10845 H 1052.73 0.683051 4.10455 0
M  V30 10846 H 1051.61 0.459997 5.46969 0
M  V30 10847 H 1051.87 -0.857068 4.33713 0
M  V30 10848 N 1050.93 -1.4397 0.641131 0
M  V30 10849 C 1052.18 -2.01548 0.149333 0
M  V30 10850 C 1052.5 -1.50759 -1.23679 0
M  V30 10851 O 1051.77 -0.715257 -1.82376 0
M  V30 10852 H 1050.35 -0.745173 0.0522161 0
M  V30 10853 H 1053.01 -1.7634 0.830082 0
M  V30 10854 H 1052.11 -3.11851 0.124676 0
M  V30 10855 N 1052.41 -0.382291 -1.52893 0
M  V30 10856 C 1053.35 0.456234 -2.26246 0
M  V30 10857 C 1054.32 1.06366 -1.27575 0
M  V30 10858 O 1055.51 1.09301 -1.5639 0
M  V30 10859 C 1052.65 1.5813 -3.06739 0
M  V30 10860 C 1051.76 0.997416 -4.20328 0
M  V30 10861 C 1050.9 2.09296 -4.8823 0
M  V30 10862 C 1049.94 1.4846 -5.93823 0
M  V30 10863 N 1049.07 2.51916 -6.55349 0
M  V30 10864 H 1053.91 -0.175761 -2.97481 0
M  V30 10865 H 1051.45 -0.0985046 -1.4677 0
M  V30 10866 H 1053.41 2.24426 -3.51694 0
M  V30 10867 H 1052.04 2.18371 -2.37727 0
M  V30 10868 H 1051.09 0.224251 -3.79738 0
M  V30 10869 H 1052.4 0.512784 -4.96157 0
M  V30 10870 H 1051.56 2.83377 -5.36453 0
M  V30 10871 H 1050.3 2.61116 -4.1191 0
M  V30 10872 H 1049.3 0.729001 -5.44946 0
M  V30 10873 H 1050.53 0.97443 -6.72073 0
M  V30 10874 H 1048.47 3.02919 -5.81873 0
M  V30 10875 H 1048.39 2.08188 -7.26769 0
M  V30 10876 H 1049.66 3.25649 -7.08218 0
M  V30 10877 N 1053.89 1.57202 -0.111913 0
M  V30 10878 C 1055.16 1.86459 0.590972 0
M  V30 10879 C 1055.54 1.01182 1.85271 0
M  V30 10880 O 1054.89 0.0887891 2.28327 0
M  V30 10881 C 1055.1 3.37455 0.890225 0
M  V30 10882 C 1056.45 4.05895 1.24638 0
M  V30 10883 O 1057.47 3.42433 0.980713 0
M  V30 10884 O 1056.33 5.17903 1.74466 0
M  V30 10885 H 1053.43 0.771652 0.297459 0
M  V30 10886 H 1055.97 1.69072 -0.145882 0
M  V30 10887 H 1054.74 3.913 -0.00419012 0
M  V30 10888 H 1054.37 3.60248 1.68248 0
M  V30 10889 N 1055.36 -0.161842 1.56767 0
M  V30 10890 C 1056.59 -0.896274 1.87034 0
M  V30 10891 C 1057.01 -1.74617 0.699314 0
M  V30 10892 O 1056.37 -1.77861 -0.351435 0
M  V30 10893 C 1056.42 -1.74105 3.15784 0
M  V30 10894 O 1055.52 -2.84372 2.98674 0
M  V30 10895 H 1054.86 -0.250523 0.614926 0
M  V30 10896 H 1057.39 -0.157127 2.03996 0
M  V30 10897 H 1057.4 -2.13907 3.4743 0
M  V30 10898 H 1056.08 -1.11684 4.00624 0
M  V30 10899 H 1054.66 -2.48084 2.78404 0
M  V30 10900 N 1056.84 -1.516 -0.430713 0
M  V30 10901 C 1057.77 -1.69594 -1.54177 0
M  V30 10902 C 1058.79 -0.576518 -1.5225 0
M  V30 10903 O 1059.98 -0.85104 -1.56906 0
M  V30 10904 C 1057.08 -1.70148 -2.93092 0
M  V30 10905 C 1056.25 -2.98782 -3.1945 0
M  V30 10906 C 1055.31 -2.91435 -4.38123 0
M  V30 10907 O 1054.33 -3.65372 -4.36454 0
M  V30 10908 N 1055.54 -2.0774 -5.42056 0
M  V30 10909 H 1058.3 -2.65442 -1.39143 0
M  V30 10910 H 1055.86 -1.49569 -0.61974 0
M  V30 10911 H 1057.85 -1.62793 -3.70514 0
M  V30 10912 H 1056.42 -0.818667 -3.0169 0
M  V30 10913 H 1055.64 -3.19954 -2.30267 0
M  V30 10914 H 1056.93 -3.83919 -3.33892 0
M  V30 10915 H 1056.33 -1.47059 -5.46251 0
M  V30 10916 H 1054.89 -2.06259 -6.18305 0
M  V30 10917 N 1058.32 0.686584 -1.41858 0
M  V30 10918 C 1059.23 1.83002 -1.46791 0
M  V30 10919 C 1060.25 1.70284 -0.357675 0
M  V30 10920 O 1061.42 1.92042 -0.606781 0
M  V30 10921 C 1058.49 3.19056 -1.35661 0
M  V30 10922 C 1057.55 3.43817 -2.57077 0
M  V30 10923 C 1056.78 4.7338 -2.46469 0
M  V30 10924 O 1057 5.50483 -1.49413 0
M  V30 10925 O 1055.94 4.99124 -3.36391 0
M  V30 10926 H 1059.76 1.81797 -2.43277 0
M  V30 10927 H 1057.35 0.840812 -1.23494 0
M  V30 10928 H 1059.23 4.00267 -1.31773 0
M  V30 10929 H 1057.91 3.20925 -0.422951 0
M  V30 10930 H 1056.81 2.625 -2.66541 0
M  V30 10931 H 1058.15 3.4677 -3.49302 0
M  V30 10932 N 1059.8 1.27835 0.921735 0
M  V30 10933 C 1060.71 1.12904 2.05645 0
M  V30 10934 C 1061.72 0.0575704 1.73905 0
M  V30 10935 O 1062.9 0.265261 1.99645 0
M  V30 10936 C 1059.96 0.783957 3.3772 0
M  V30 10937 C 1059.03 1.93694 3.8312 0
M  V30 10938 C 1058.26 1.60823 5.08893 0
M  V30 10939 O 1058.48 0.518873 5.68035 0
M  V30 10940 O 1057.42 2.44932 5.49811 0
M  V30 10941 H 1061.24 2.08143 2.21157 0
M  V30 10942 H 1058.83 1.07078 1.04185 0
M  V30 10943 H 1060.71 0.605107 4.17033 0
M  V30 10944 H 1059.38 -0.138849 3.23402 0
M  V30 10945 H 1058.29 2.17089 3.04669 0
M  V30 10946 H 1059.62 2.84016 4.0199 0
M  V30 10947 N 1061.28 -1.12907 1.09954 0
M  V30 10948 C 1062.19 -2.22082 0.756095 0
M  V30 10949 C 1063.2 -1.72277 -0.244272 0
M  V30 10950 O 1064.38 -2.01224 -0.0842637 0
M  V30 10951 C 1061.44 -3.46192 0.187642 0
M  V30 10952 C 1060.5 -4.10861 1.24465 0
M  V30 10953 C 1059.74 -5.29047 0.703227 0
M  V30 10954 O 1059.96 -5.68443 -0.472043 0
M  V30 10955 O 1058.89 -5.83904 1.46082 0
M  V30 10956 H 1062.72 -2.53842 1.66727 0
M  V30 10957 H 1060.3 -1.21145 0.874316 0
M  V30 10958 H 1062.19 -4.21212 -0.125774 0
M  V30 10959 H 1060.86 -3.16119 -0.696459 0
M  V30 10960 H 1059.77 -3.37643 1.61085 0
M  V30 10961 H 1061.1 -4.45078 2.10159 0
M  V30 10962 N 1062.75 -0.88754 -1.30232 0
M  V30 10963 C 1063.7 -0.354497 -2.28061 0
M  V30 10964 C 1064.67 0.556732 -1.56492 0
M  V30 10965 O 1065.86 0.484597 -1.84543 0
M  V30 10966 C 1063 0.422701 -3.42501 0
M  V30 10967 C 1062.11 -0.518036 -4.28883 0
M  V30 10968 C 1061.24 0.275011 -5.30488 0
M  V30 10969 C 1060.28 -0.661032 -6.0852 0
M  V30 10970 N 1059.42 0.0968509 -7.02033 0
M  V30 10971 H 1064.26 -1.19388 -2.73039 0
M  V30 10972 H 1061.8 -0.600091 -1.34303 0
M  V30 10973 H 1063.75 0.889249 -4.07613 0
M  V30 10974 H 1062.38 1.22664 -2.98586 0
M  V30 10975 H 1061.44 -1.10308 -3.64055 0
M  V30 10976 H 1062.75 -1.23504 -4.83268 0
M  V30 10977 H 1061.9 0.803301 -6.01358 0
M  V30 10978 H 1060.64 1.02522 -4.76802 0
M  V30 10979 H 1059.65 -1.20093 -5.36524 0
M  V30 10980 H 1060.87 -1.41037 -6.64293 0
M  V30 10981 H 1058.82 0.829548 -6.50734 0
M  V30 10982 H 1058.73 -0.560476 -7.5392 0
M  V30 10983 H 1060 0.6058 -7.77142 0
M  V30 10984 N 1064.23 1.43628 -0.648757 0
M  V30 10985 C 1065.46 2.06217 -0.167945 0
M  V30 10986 C 1065.88 1.486 1.16462 0
M  V30 10987 O 1065.23 0.61559 1.71804 0
M  V30 10988 C 1065.28 3.6144 -0.0660114 0
M  V30 10989 O 1065 4.16914 -1.34589 0
M  V30 10990 C 1066.51 4.41097 0.441408 0
M  V30 10991 H 1063.73 0.665228 -0.0878237 0
M  V30 10992 H 1066.27 1.84207 -0.888144 0
M  V30 10993 H 1064.42 3.82651 0.604722 0
M  V30 10994 H 1064.84 5.10537 -1.20218 0
M  V30 10995 H 1066.31 5.50066 0.461697 0
M  V30 10996 H 1066.79 4.13803 1.47187 0
M  V30 10997 H 1067.4 4.24845 -0.19668 0
M  V30 10998 N 1065.71 0.390394 1.52688 0
M  V30 10999 C 1066.62 -0.451543 2.30213 0
M  V30 11000 C 1067.64 -1.07051 1.37172 0
M  V30 11001 O 1068.81 -1.07609 1.70242 0
M  V30 11002 C 1065.88 -1.56299 3.0947 0
M  V30 11003 C 1064.94 -0.969017 4.18221 0
M  V30 11004 C 1064.17 -2.0275 4.93688 0
M  V30 11005 O 1064.39 -3.24273 4.69258 0
M  V30 11006 O 1063.33 -1.64418 5.79008 0
M  V30 11007 H 1067.15 0.180042 3.03166 0
M  V30 11008 H 1064.74 0.154082 1.48603 0
M  V30 11009 H 1066.62 -2.20864 3.58883 0
M  V30 11010 H 1065.3 -2.17952 2.3933 0
M  V30 11011 H 1064.2 -0.286587 3.73001 0
M  V30 11012 H 1065.54 -0.396687 4.90599 0
M  V30 11013 N 1067.19 -1.57141 0.120249 0
M  V30 11014 C 1068.15 -2.14213 -0.815185 0
M  V30 11015 C 1069.15 -1.07731 -1.19376 0
M  V30 11016 O 1070.34 -1.33502 -1.11906 0
M  V30 11017 C 1067.47 -2.68339 -2.10255 0
M  V30 11018 H 1068.67 -2.98197 -0.319166 0
M  V30 11019 H 1066.22 -1.55767 -0.128997 0
M  V30 11020 H 1066.95 -1.87946 -2.64285 0
M  V30 11021 H 1066.74 -3.46216 -1.84057 0
M  V30 11022 H 1068.23 -3.124 -2.77121 0
M  V30 11023 N 1068.67 0.153526 -1.5685 0
M  V30 11024 C 1069.6 1.19162 -2.00805 0
M  V30 11025 C 1070.58 1.45172 -0.886518 0
M  V30 11026 O 1071.76 1.56203 -1.15387 0
M  V30 11027 C 1068.89 2.52637 -2.38311 0
M  V30 11028 C 1067.85 2.41161 -3.53589 0
M  V30 11029 C 1067.17 3.79287 -3.76889 0
M  V30 11030 C 1068.47 1.90122 -4.86468 0
M  V30 11031 H 1070.17 0.82617 -2.87776 0
M  V30 11032 H 1067.71 0.395972 -1.38449 0
M  V30 11033 H 1069.67 3.25478 -2.6766 0
M  V30 11034 H 1068.39 2.91005 -1.4827 0
M  V30 11035 H 1067.05 1.70772 -3.24395 0
M  V30 11036 H 1066.7 4.15079 -2.84109 0
M  V30 11037 H 1066.4 3.72472 -4.54465 0
M  V30 11038 H 1067.92 4.53687 -4.08657 0
M  V30 11039 H 1069.33 2.52752 -5.14577 0
M  V30 11040 H 1067.73 1.94214 -5.67804 0
M  V30 11041 H 1068.8 0.856517 -4.77275 0
M  V30 11042 N 1070.14 1.51827 0.422667 0
M  V30 11043 C 1071.37 1.69049 1.1929 0
M  V30 11044 C 1071.79 0.394095 1.84641 0
M  V30 11045 O 1071.14 -0.628731 1.71328 0
M  V30 11046 C 1071.2 2.81657 2.26609 0
M  V30 11047 O 1070.92 4.06275 1.63929 0
M  V30 11048 C 1072.42 3.10274 3.16615 0
M  V30 11049 H 1069.64 0.566894 0.358988 0
M  V30 11050 H 1072.18 1.98318 0.499029 0
M  V30 11051 H 1070.34 2.54945 2.91688 0
M  V30 11052 H 1070.75 4.68924 2.3497 0
M  V30 11053 H 1072.22 3.92613 3.88019 0
M  V30 11054 H 1072.7 2.23273 3.78214 0
M  V30 11055 H 1073.31 3.387 2.57221 0
M  V30 11056 N 1071.62 -0.679052 1.4222 0
M  V30 11057 C 1072.85 -1.47248 1.46058 0
M  V30 11058 C 1073.27 -1.87962 0.0720987 0
M  V30 11059 O 1072.63 -1.5572 -0.928488 0
M  V30 11060 C 1072.68 -2.70067 2.38948 0
M  V30 11061 O 1071.78 -3.68178 1.85791 0
M  V30 11062 H 1071.12 -0.442533 0.495036 0
M  V30 11063 H 1073.65 -0.833263 1.86863 0
M  V30 11064 H 1073.66 -3.18187 2.55385 0
M  V30 11065 H 1072.34 -2.39773 3.39826 0
M  V30 11066 H 1070.92 -3.2719 1.78889 0
M  V30 11067 N 1073.1 -1.28322 -0.914942 0
M  V30 11068 C 1074.06 -1.12169 -1.99877 0
M  V30 11069 C 1075.06 -0.0617252 -1.60681 0
M  V30 11070 O 1076.25 -0.307405 -1.71466 0
M  V30 11071 C 1073.39 -0.711959 -3.33383 0
M  V30 11072 H 1074.58 -2.08425 -2.15636 0
M  V30 11073 H 1072.13 -1.11291 -1.09745 0
M  V30 11074 H 1072.87 0.251418 -3.23324 0
M  V30 11075 H 1072.65 -1.47764 -3.63192 0
M  V30 11076 H 1074.14 -0.621558 -4.12948 0
M  V30 11077 N 1074.58 1.12322 -1.10551 0
M  V30 11078 C 1075.53 2.18087 -0.755424 0
M  V30 11079 C 1076.5 1.6391 0.268805 0
M  V30 11080 O 1077.68 1.90227 0.147813 0
M  V30 11081 C 1074.82 3.4455 -0.194713 0
M  V30 11082 C 1073.93 4.12775 -1.27439 0
M  V30 11083 C 1073.07 5.26891 -0.675194 0
M  V30 11084 C 1072.11 5.86985 -1.73536 0
M  V30 11085 N 1071.24 6.92512 -1.15635 0
M  V30 11086 H 1076.08 2.47379 -1.66155 0
M  V30 11087 H 1073.62 1.21452 -0.829924 0
M  V30 11088 H 1075.58 4.16936 0.148275 0
M  V30 11089 H 1074.21 3.15671 0.674638 0
M  V30 11090 H 1073.26 3.38556 -1.73448 0
M  V30 11091 H 1074.57 4.53506 -2.07687 0
M  V30 11092 H 1073.73 6.06046 -0.281723 0
M  V30 11093 H 1072.47 4.87442 0.158708 0
M  V30 11094 H 1071.47 5.06517 -2.13825 0
M  V30 11095 H 1072.7 6.28505 -2.57213 0
M  V30 11096 H 1070.64 6.55098 -0.343928 0
M  V30 11097 H 1070.56 7.31848 -1.89565 0
M  V30 11098 H 1071.83 7.75492 -0.789463 0
M  V30 11099 N 1076.06 0.894434 1.2976 0
M  V30 11100 C 1077.47 0.589778 1.48303 0
M  V30 11101 C 1077.67 -0.870085 1.81746 0
M  V30 11102 O 1076.73 -1.65065 1.91076 0
M  V30 11103 C 1078.04 1.51107 2.59975 0
M  V30 11104 C 1079.59 1.51571 2.73853 0
M  V30 11105 C 1080.06 2.42316 3.88648 0
M  V30 11106 N 1081.56 2.40333 3.95973 0
M  V30 11107 C 1082.29 3.07254 4.84131 0
M  V30 11108 N 1081.79 3.83435 5.77018 0
M  V30 11109 N 1083.58 2.96438 4.77578 0
M  V30 11110 H 1075.73 1.83871 1.06327 0
M  V30 11111 H 1077.99 0.78758 0.527657 0
M  V30 11112 H 1077.7 2.55097 2.42112 0
M  V30 11113 H 1077.57 1.22767 3.56662 0
M  V30 11114 H 1079.96 0.483277 2.91116 0
M  V30 11115 H 1080.04 1.83946 1.77757 0
M  V30 11116 H 1079.69 3.4565 3.72141 0
M  V30 11117 H 1079.62 2.07252 4.84101 0
M  V30 11118 H 1082.11 1.84979 3.29532 0
M  V30 11119 H 1082.42 4.31565 6.4107 0
M  V30 11120 H 1080.76 3.87542 5.7692 0
M  V30 11121 H 1083.96 2.36442 4.03996 0
M  V30 11122 H 1084.13 3.48867 5.46073 0
M  V30 11123 N 1077.53 -1.43282 0.656365 0
M  V30 11124 C 1078.76 -2.05826 0.178619 0
M  V30 11125 C 1079.17 -1.493 -1.16216 0
M  V30 11126 O 1078.52 -0.620163 -1.72915 0
M  V30 11127 C 1078.58 -3.59496 0.0164101 0
M  V30 11128 C 1078.24 -4.38621 1.28298 0
M  V30 11129 C 1079.24 -4.70477 2.21241 0
M  V30 11130 C 1076.92 -4.78577 1.52544 0
M  V30 11131 C 1078.92 -5.412 3.36721 0
M  V30 11132 C 1076.6 -5.49044 2.68316 0
M  V30 11133 C 1077.6 -5.80279 3.6023 0
M  V30 11134 O 1077.29 -6.49306 4.7398 0
M  V30 11135 H 1077.02 -0.670158 0.0886814 0
M  V30 11136 H 1079.58 -1.84722 0.89816 0
M  V30 11137 H 1077.81 -3.79188 -0.758532 0
M  V30 11138 H 1079.5 -4.03731 -0.419096 0
M  V30 11139 H 1080.26 -4.40125 2.03753 0
M  V30 11140 H 1076.14 -4.5367 0.818816 0
M  V30 11141 H 1079.68 -5.65497 4.08483 0
M  V30 11142 H 1075.58 -5.78813 2.85738 0
M  V30 11143 H 1076.35 -6.67789 4.73286 0
M  V30 11144 N 1079.01 -0.398486 -1.52479 0
M  V30 11145 C 1080.26 0.182046 -2.00877 0
M  V30 11146 C 1080.58 1.47128 -1.2889 0
M  V30 11147 O 1081.78 2.13242 -1.68048 0
M  V30 11148 C 1080.24 0.374978 -3.57941 0
M  V30 11149 C 1079.85 -0.901544 -4.38835 0
M  V30 11150 C 1081.59 0.911378 -4.14601 0
M  V30 11151 C 1079.5 -0.676385 -5.87519 0
M  V30 11152 H 1078.43 0.0718068 -0.750573 0
M  V30 11153 H 1081.08 -0.522297 -1.7591 0
M  V30 11154 H 1079.46 1.14139 -3.79194 0
M  V30 11155 H 1080.63 -1.67329 -4.29346 0
M  V30 11156 H 1078.95 -1.36357 -3.93441 0
M  V30 11157 H 1081.55 1.09569 -5.23353 0
M  V30 11158 H 1081.89 1.88306 -3.71277 0
M  V30 11159 H 1082.42 0.204296 -3.97275 0
M  V30 11160 H 1079.16 -1.61933 -6.35184 0
M  V30 11161 H 1078.68 0.0562542 -5.99774 0
M  V30 11162 H 1080.36 -0.314454 -6.46235 0
M  V30 11163 N 1080.49 1.57075 -0.12858 0
M  V30 11164 C 1081.4 2.19369 0.831533 0
M  V30 11165 C 1082.42 1.17258 1.28555 0
M  V30 11166 O 1083.59 1.49766 1.34656 0
M  V30 11167 C 1080.66 2.78846 2.06024 0
M  V30 11168 C 1079.72 3.96024 1.65722 0
M  V30 11169 C 1078.95 4.52655 2.82735 0
M  V30 11170 O 1079.18 4.08175 3.98434 0
M  V30 11171 O 1078.11 5.43198 2.59268 0
M  V30 11172 H 1081.94 3.01887 0.331352 0
M  V30 11173 H 1079.52 1.49081 0.0975226 0
M  V30 11174 H 1081.4 3.16721 2.77967 0
M  V30 11175 H 1080.08 1.99353 2.5503 0
M  V30 11176 H 1078.98 3.62899 0.908574 0
M  V30 11177 H 1080.32 4.76981 1.21449 0
M  V30 11178 N 1081.97 -0.145205 1.5693 0
M  V30 11179 C 1083.2 -0.872398 1.87608 0
M  V30 11180 C 1083.61 -1.74657 0.716975 0
M  V30 11181 O 1082.97 -1.79792 -0.3132 0
M  V30 11182 C 1083.02 -1.72762 3.17546 0
M  V30 11183 O 1082.74 -0.888681 4.28992 0
M  V30 11184 C 1084.24 -2.56224 3.61751 0
M  V30 11185 H 1081.46 -0.252166 0.621815 0
M  V30 11186 H 1084.01 -0.137456 2.04038 0
M  V30 11187 H 1082.16 -2.41561 3.02865 0
M  V30 11188 H 1082.58 -1.47601 5.03303 0
M  V30 11189 H 1084.05 -3.11804 4.55502 0
M  V30 11190 H 1084.53 -3.32347 2.87127 0
M  V30 11191 H 1085.13 -1.92714 3.79133 0
M  V30 11192 N 1083.45 -1.52049 -0.414609 0
M  V30 11193 C 1084.72 -1.56397 -1.17471 0
M  V30 11194 C 1085.1 -0.34171 -2.08316 0
M  V30 11195 O 1084.45 0.6718 -2.18401 0
M  V30 11196 C 1084.66 -2.88983 -1.95678 0
M  V30 11197 C 1086.01 -3.41781 -2.51935 0
M  V30 11198 O 1087.03 -2.90686 -2.05865 0
M  V30 11199 O 1085.89 -4.30989 -3.36022 0
M  V30 11200 H 1082.99 -0.62974 -0.536056 0
M  V30 11201 H 1085.53 -1.64374 -0.421834 0
M  V30 11202 H 1084.31 -3.69392 -1.29094 0
M  V30 11203 H 1083.93 -2.84274 -2.77983 0
M  V30 11204 N 1084.93 0.6715 -1.42579 0
M  V30 11205 C 1086.34 1.2522 -1.38481 0
M  V30 11206 C 1086.69 1.96038 -0.079719 0
M  V30 11207 O 1085.81 2.00203 0.821441 0
M  V30 11208 C 1086.41 2.27736 -2.50842 0
M  V30 11209 C 1084.97 2.81325 -2.50067 0
M  V30 11210 C 1084.11 1.55694 -2.29466 0
M  V30 11211 H 1087.06 0.464673 -1.51745 0
M  V30 11212 H 1087.09 3.09539 -2.21283 0
M  V30 11213 H 1086.6 1.76164 -3.45815 0
M  V30 11214 H 1084.7 3.37008 -1.58922 0
M  V30 11215 H 1084.81 3.30116 -3.47218 0
M  V30 11216 H 1083.18 1.82383 -1.77788 0
M  V30 11217 H 1083.96 1.06084 -3.26498 0
M  V30 11218 N 1086.4 1.28806 0.908124 0
M  V30 11219 C 1087.37 1.13228 1.99279 0
M  V30 11220 C 1088.37 0.0702456 1.60646 0
M  V30 11221 O 1089.56 0.316494 1.71301 0
M  V30 11222 C 1086.69 0.729629 3.33 0
M  V30 11223 H 1087.88 2.09566 2.14528 0
M  V30 11224 H 1085.43 1.11872 1.09153 0
M  V30 11225 H 1086.17 -0.234268 3.23453 0
M  V30 11226 H 1085.95 1.49688 3.62403 0
M  V30 11227 H 1087.44 0.643449 4.12613 0
M  V30 11228 N 1087.88 -1.11734 1.11145 0
M  V30 11229 C 1088.83 -2.19765 0.761982 0
M  V30 11230 C 1089.82 -1.67616 -0.24518 0
M  V30 11231 O 1091.03 -1.79695 -0.104781 0
M  V30 11232 H 1087.4 -0.71644 0.228513 0
M  V30 11233 H 1089.38 -2.4649 1.68183 0
M  V30 11234 C 1088.12 -3.47016 0.218057 0
M  V30 11235 H 1087.45 -3.87494 0.984299 0
M  V30 11236 H 1088.89 -4.23998 0.0116825 0
M  V30 11237 C 1087.35 -3.20088 -1.05096 0
M  V30 11238 O 1087.88 -3.40503 -2.1312 0
M  V30 11239 N 1086.08 -2.73844 -0.972523 0
M  V30 11240 H 1085.63 -2.57431 -0.0933459 0
M  V30 11241 H 1085.59 -2.56204 -1.82228 0
M  V30 11242 N 1089.36 -0.901303 -1.29284 0
M  V30 11243 C 1090.78 -0.597634 -1.47988 0
M  V30 11244 C 1090.98 0.860434 -1.82205 0
M  V30 11245 O 1090.03 1.64049 -1.91948 0
M  V30 11246 C 1091.34 -1.52484 -2.5917 0
M  V30 11247 C 1092.89 -1.53021 -2.73045 0
M  V30 11248 C 1093.37 -2.44373 -3.87357 0
M  V30 11249 N 1094.86 -2.42429 -3.94693 0
M  V30 11250 C 1095.59 -3.09817 -4.82495 0
M  V30 11251 N 1095.09 -3.86489 -5.74976 0
M  V30 11252 N 1096.88 -2.98966 -4.76 0
M  V30 11253 H 1089.03 -1.84432 -1.0535 0
M  V30 11254 H 1091.3 -0.790367 -0.523473 0
M  V30 11255 H 1091 -2.56378 -2.40756 0
M  V30 11256 H 1090.88 -1.24657 -3.56006 0
M  V30 11257 H 1093.26 -0.498709 -2.90855 0
M  V30 11258 H 1093.34 -1.84886 -1.76779 0
M  V30 11259 H 1092.99 -3.47618 -3.70302 0
M  V30 11260 H 1092.92 -2.09817 -4.82995 0
M  V30 11261 H 1095.41 -1.86724 -3.28546 0
M  V30 11262 H 1095.72 -4.34959 -6.38773 0
M  V30 11263 H 1094.07 -3.90596 -5.74857 0
M  V30 11264 H 1097.26 -2.38581 -4.02737 0
M  V30 11265 H 1097.43 -3.51758 -5.44215 0
M  V30 11266 N 1090.84 1.42931 -0.663954 0
M  V30 11267 C 1092.11 1.95284 -0.111174 0
M  V30 11268 C 1092.49 1.60484 1.37142 0
M  V30 11269 O 1091.84 0.895425 2.10225 0
M  V30 11270 C 1092.05 3.47046 -0.368789 0
M  V30 11271 C 1093.4 4.23679 -0.279473 0
M  V30 11272 O 1094.42 3.54918 -0.301937 0
M  V30 11273 O 1093.28 5.46087 -0.21236 0
M  V30 11274 H 1090.38 0.826993 0.00341718 0
M  V30 11275 H 1092.92 1.52816 -0.737935 0
M  V30 11276 H 1091.7 3.65541 -1.39626 0
M  V30 11277 H 1091.32 3.96537 0.290514 0
M  V30 11278 N 1092.32 0.406567 1.52266 0
M  V30 11279 C 1093.73 0.0573228 1.59497 0
M  V30 11280 C 1093.93 -1.43005 1.41957 0
M  V30 11281 O 1092.99 -2.19659 1.24523 0
M  V30 11282 C 1094.3 0.549947 2.95628 0
M  V30 11283 C 1095.85 0.5077 3.08855 0
M  V30 11284 C 1096.32 0.976792 4.47463 0
M  V30 11285 N 1097.81 0.933508 4.53696 0
M  V30 11286 C 1098.55 1.26769 5.59211 0
M  V30 11287 N 1098.05 1.6732 6.72292 0
M  V30 11288 N 1099.84 1.18782 5.49406 0
M  V30 11289 H 1091.99 1.37468 1.61914 0
M  V30 11290 H 1094.25 0.564562 0.76156 0
M  V30 11291 H 1093.96 1.58943 3.13736 0
M  V30 11292 H 1093.83 -0.0417767 3.77177 0
M  V30 11293 H 1096.22 -0.522728 2.90433 0
M  V30 11294 H 1096.3 1.13545 2.29219 0
M  V30 11295 H 1095.94 2.00554 4.66627 0
M  V30 11296 H 1095.87 0.325885 5.25591 0
M  V30 11297 H 1098.37 0.635333 3.72521 0
M  V30 11298 H 1098.68 1.91137 7.4879 0
M  V30 11299 H 1097.02 1.71221 6.73579 0
M  V30 11300 H 1100.21 0.869906 4.59946 0
M  V30 11301 H 1100.39 1.45157 6.31533 0
M  V30 11302 N 1093.79 -1.57004 0.136909 0
M  V30 11303 C 1095.21 -1.58082 -0.21958 0
M  V30 11304 C 1095.41 -1.15065 -1.65415 0
M  V30 11305 O 1094.47 -0.846284 -2.37896 0
M  V30 11306 C 1095.78 -3.00685 0.0300112 0
M  V30 11307 C 1097.33 -3.12981 -0.0344899 0
M  V30 11308 C 1097.8 -4.57615 0.187639 0
M  V30 11309 N 1099.29 -4.63005 0.134219 0
M  V30 11310 C 1100.03 -5.72712 0.280743 0
M  V30 11311 N 1099.52 -6.91104 0.48443 0
M  V30 11312 N 1101.32 -5.61673 0.219055 0
M  V30 11313 H 1093.47 -1.83262 1.07372 0
M  V30 11314 H 1095.73 -0.847776 0.424241 0
M  V30 11315 H 1095.44 -3.36509 1.02247 0
M  V30 11316 H 1095.31 -3.70762 -0.693918 0
M  V30 11317 H 1097.7 -2.77004 -1.01749 0
M  V30 11318 H 1097.78 -2.45411 0.721608 0
M  V30 11319 H 1097.42 -4.94295 1.16769 0
M  V30 11320 H 1097.35 -5.23299 -0.588661 0
M  V30 11321 H 1099.84 -3.77895 -0.0189681 0
M  V30 11322 H 1100.16 -7.7057 0.586613 0
M  V30 11323 H 1098.5 -6.93047 0.520627 0
M  V30 11324 H 1101.69 -4.68061 0.0607606 0
M  V30 11325 H 1101.87 -6.47125 0.336683 0
M  V30 11326 N 1095.27 0.136881 -1.57004 0
M  V30 11327 C 1096.5 0.862436 -1.88068 0
M  V30 11328 C 1096.92 1.74274 -0.726227 0
M  V30 11329 O 1096.27 1.79956 0.30366 0
M  V30 11330 C 1096.32 1.71076 -3.18458 0
M  V30 11331 O 1096.04 0.865918 -4.29457 0
M  V30 11332 C 1097.55 2.54302 -3.63105 0
M  V30 11333 H 1094.77 0.248865 -0.623143 0
M  V30 11334 H 1097.31 0.126633 -2.04108 0
M  V30 11335 H 1095.46 2.39951 -3.04142 0
M  V30 11336 H 1095.88 1.4493 -5.04079 0
M  V30 11337 H 1097.35 3.09384 -4.57149 0
M  V30 11338 H 1097.83 3.3082 -2.88886 0
M  V30 11339 H 1098.44 1.907 -3.80149 0
M  V30 11340 N 1096.75 1.52266 0.40654 0
M  V30 11341 C 1098.16 1.58587 0.985241 0
M  V30 11342 C 1098.51 0.427955 1.91476 0
M  V30 11343 O 1097.64 -0.451341 2.11641 0
M  V30 11344 C 1098.23 2.87426 1.79365 0
M  V30 11345 C 1096.79 2.96217 2.32233 0
M  V30 11346 C 1095.94 2.53548 1.12288 0
M  V30 11347 H 1098.89 1.57598 0.186685 0
M  V30 11348 H 1098.91 2.72925 2.65127 0
M  V30 11349 H 1098.42 3.71682 1.11687 0
M  V30 11350 H 1096.52 2.1646 3.03275 0
M  V30 11351 H 1096.64 4.00511 2.62922 0
M  V30 11352 H 1095 2.07457 1.47763 0
M  V30 11353 H 1095.78 3.40181 0.461731 0
M  V30 11354 N 1098.23 -0.663929 1.42933 0
M  V30 11355 C 1099.48 -1.41973 1.43271 0
M  V30 11356 C 1099.79 -1.95518 0.0566103 0
M  V30 11357 O 1101 -2.71428 -0.0625862 0
M  V30 11358 C 1099.45 -2.56882 2.52071 0
M  V30 11359 C 1099.06 -2.0999 3.95737 0
M  V30 11360 C 1100.8 -3.34322 2.61589 0
M  V30 11361 C 1098.71 -3.22046 4.96025 0
M  V30 11362 H 1097.64 -0.5334 0.532917 0
M  V30 11363 H 1100.29 -0.717709 1.68882 0
M  V30 11364 H 1098.67 -3.29504 2.19643 0
M  V30 11365 H 1099.85 -1.44449 4.37574 0
M  V30 11366 H 1098.16 -1.45459 3.90168 0
M  V30 11367 H 1100.76 -4.17796 3.33692 0
M  V30 11368 H 1101.1 -3.8164 1.66302 0
M  V30 11369 H 1101.64 -2.68775 2.93266 0
M  V30 11370 H 1098.38 -2.79708 5.92827 0
M  V30 11371 H 1097.9 -3.86333 4.5881 0
M  V30 11372 H 1099.57 -3.87345 5.1824 0
M  V30 11373 N 1099.71 -1.29285 -0.901281 0
M  V30 11374 C 1100.93 -1.20048 -1.68511 0
M  V30 11375 C 1101.35 0.239128 -1.8728 0
M  V30 11376 O 1100.71 1.16027 -1.40869 0
M  V30 11377 C 1100.76 -1.90798 -3.07048 0
M  V30 11378 O 1100.48 -3.29137 -2.89138 0
M  V30 11379 C 1101.98 -1.88017 -4.01453 0
M  V30 11380 H 1099.2 -0.416157 -0.52636 0
M  V30 11381 H 1101.74 -1.7063 -1.12719 0
M  V30 11382 H 1099.9 -1.44055 -3.5962 0
M  V30 11383 H 1100.31 -3.64747 -3.76908 0
M  V30 11384 H 1101.79 -2.42088 -4.96082 0
M  V30 11385 H 1102.26 -0.855341 -4.30791 0
M  V30 11386 H 1102.87 -2.34497 -3.54812 0
M  V30 11387 N 1101.18 1.11143 -1.11736 0
M  V30 11388 C 1102.43 1.83219 -0.869413 0
M  V30 11389 C 1102.76 1.84588 0.603402 0
M  V30 11390 O 1102.04 1.30119 1.44566 0
M  V30 11391 C 1102.32 3.30247 -1.43559 0
M  V30 11392 C 1102.17 3.37253 -2.97624 0
M  V30 11393 C 1103.49 4.26412 -1.08907 0
M  V30 11394 H 1100.61 0.665205 -0.317286 0
M  V30 11395 H 1103.25 1.30307 -1.38275 0
M  V30 11396 H 1101.4 3.75437 -0.998978 0
M  V30 11397 H 1103.08 3.00599 -3.49911 0
M  V30 11398 H 1101.32 2.77378 -3.33532 0
M  V30 11399 H 1101.99 4.40752 -3.32328 0
M  V30 11400 H 1104.47 3.89418 -1.46604 0
M  V30 11401 H 1103.34 5.27666 -1.51195 0
M  V30 11402 H 1103.6 4.421 -0.000259009 0
M  V30 11403 N 1102.66 0.908147 1.28804 0
M  V30 11404 C 1103.91 0.539201 1.95501 0
M  V30 11405 C 1104.24 -0.913759 1.7136 0
M  V30 11406 O 1103.52 -1.64904 1.03136 0
M  V30 11407 C 1103.8 0.842372 3.50109 0
M  V30 11408 C 1103.65 2.34765 3.83673 0
M  V30 11409 C 1104.97 0.334658 4.38826 0
M  V30 11410 H 1102.09 0.197373 0.71008 0
M  V30 11411 H 1104.73 1.13637 1.52272 0
M  V30 11412 H 1102.88 0.334143 3.8706 0
M  V30 11413 H 1104.55 2.92607 3.56621 0
M  V30 11414 H 1102.8 2.80494 3.30916 0
M  V30 11415 H 1103.47 2.51034 4.91616 0
M  V30 11416 H 1105.94 0.769961 4.08914 0
M  V30 11417 H 1104.82 0.575914 5.4587 0
M  V30 11418 H 1105.08 -0.764878 4.35433 0
M  V30 11419 N 1104.14 -1.42577 0.671525 0
M  V30 11420 C 1105.09 -2.30798 -0.00883676 0
M  V30 11421 C 1106.06 -1.4578 -0.796076 0
M  V30 11422 O 1107.24 -1.74617 -0.768987 0
M  V30 11423 C 1104.38 -3.31581 -0.956452 0
M  V30 11424 C 1103.5 -4.31691 -0.163381 0
M  V30 11425 C 1102.63 -5.19549 -1.10645 0
M  V30 11426 C 1101.67 -6.1134 -0.304876 0
M  V30 11427 N 1100.81 -6.91761 -1.20048 0
M  V30 11428 H 1105.65 -2.88426 0.749301 0
M  V30 11429 H 1103.18 -1.42074 0.381251 0
M  V30 11430 H 1105.14 -3.88539 -1.51966 0
M  V30 11431 H 1103.77 -2.75561 -1.68126 0
M  V30 11432 H 1102.82 -3.76879 0.516396 0
M  V30 11433 H 1104.14 -4.96683 0.459099 0
M  V30 11434 H 1103.29 -5.81223 -1.73969 0
M  V30 11435 H 1102.03 -4.54726 -1.76282 0
M  V30 11436 H 1101.03 -5.48738 0.341597 0
M  V30 11437 H 1102.26 -6.78211 0.347352 0
M  V30 11438 H 1100.2 -6.2957 -1.84331 0
M  V30 11439 H 1100.12 -7.53345 -0.633003 0
M  V30 11440 H 1101.39 -7.57924 -1.82129 0
M  V30 11441 N 1105.62 -0.414636 -1.52048 0
M  V30 11442 C 1106.55 0.443601 -2.24866 0
M  V30 11443 C 1107.56 1.00556 -1.28032 0
M  V30 11444 O 1108.75 0.903566 -1.53941 0
M  V30 11445 C 1105.85 1.63004 -2.97124 0
M  V30 11446 C 1105.03 1.191 -4.20873 0
M  V30 11447 C 1104.08 2.24497 -4.75907 0
M  V30 11448 O 1103.11 1.84861 -5.38345 0
M  V30 11449 N 1104.31 3.56727 -4.57959 0
M  V30 11450 H 1107.08 -0.180393 -2.99157 0
M  V30 11451 H 1104.64 -0.242305 -1.60077 0
M  V30 11452 H 1106.63 2.33089 -3.30835 0
M  V30 11453 H 1105.2 2.15984 -2.25986 0
M  V30 11454 H 1104.42 0.318059 -3.92915 0
M  V30 11455 H 1105.71 0.874699 -5.01225 0
M  V30 11456 H 1105.11 3.91675 -4.08175 0
M  V30 11457 H 1103.66 4.22772 -4.96092 0
M  V30 11458 N 1107.1 1.56929 -0.145233 0
M  V30 11459 C 1108.34 1.95681 0.50532 0
M  V30 11460 C 1108.67 1.03098 1.65516 0
M  V30 11461 O 1107.94 0.0921961 1.95683 0
M  V30 11462 H 1106.52 0.72252 0.189668 0
M  V30 11463 H 1109.18 1.93651 -0.220318 0
M  V30 11464 H 1108.27 2.99359 0.882631 0
M  V30 11465 N 1108.58 -0.128553 1.57075 0
M  V30 11466 C 1109.82 -0.83801 1.84347 0
M  V30 11467 C 1110.15 -1.80325 0.728906 0
M  V30 11468 O 1109.41 -1.93678 -0.280571 0
M  V30 11469 C 1109.7 -1.63027 3.18052 0
M  V30 11470 C 1109.37 -0.810171 4.43562 0
M  V30 11471 C 1108.03 -0.583984 4.77643 0
M  V30 11472 C 1110.38 -0.237896 5.20657 0
M  V30 11473 C 1107.71 0.224887 5.86269 0
M  V30 11474 C 1110.06 0.558114 6.30133 0
M  V30 11475 C 1108.73 0.794706 6.62752 0
M  V30 11476 H 1108 -0.30665 0.674572 0
M  V30 11477 H 1110.65 -0.100797 1.91235 0
M  V30 11478 H 1108.95 -2.43812 3.06697 0
M  V30 11479 H 1110.65 -2.183 3.36372 0
M  V30 11480 H 1107.24 -0.996547 4.16854 0
M  V30 11481 H 1111.42 -0.399881 4.94686 0
M  V30 11482 H 1106.68 0.417507 6.09973 0
M  V30 11483 H 1110.85 1.00859 6.89058 0
M  V30 11484 H 1108.48 1.42331 7.46757 0
M  V30 11485 N 1110.05 -1.5248 -0.398459 0
M  V30 11486 C 1110.96 -1.79492 -1.51062 0
M  V30 11487 C 1111.98 -0.681101 -1.60116 0
M  V30 11488 O 1113.16 -0.967671 -1.7663 0
M  V30 11489 C 1110.22 -1.94958 -2.86692 0
M  V30 11490 C 1109.28 -3.1887 -2.87438 0
M  V30 11491 C 1108.51 -3.33588 -4.16599 0
M  V30 11492 O 1108.74 -2.53327 -5.11059 0
M  V30 11493 O 1107.67 -4.26795 -4.24416 0
M  V30 11494 H 1111.5 -2.73913 -1.31169 0
M  V30 11495 H 1109.08 -1.37455 -0.585372 0
M  V30 11496 H 1110.96 -2.06891 -3.67116 0
M  V30 11497 H 1109.64 -1.03726 -3.06631 0
M  V30 11498 H 1108.55 -3.12386 -2.0583 0
M  V30 11499 H 1109.88 -4.09917 -2.7245 0
M  V30 11500 N 1111.53 0.65634 -1.43283 0
M  V30 11501 C 1112.94 1.23744 -1.39801 0
M  V30 11502 C 1113.29 1.95942 -0.100507 0
M  V30 11503 O 1112.42 2.01063 0.800161 0
M  V30 11504 C 1113.01 2.25062 -2.53244 0
M  V30 11505 C 1111.57 2.78657 -2.53036 0
M  V30 11506 C 1110.72 1.53251 -2.31105 0
M  V30 11507 H 1113.67 0.448553 -1.52229 0
M  V30 11508 H 1113.69 3.07174 -2.24553 0
M  V30 11509 H 1113.2 1.72487 -3.47664 0
M  V30 11510 H 1111.3 3.35304 -1.62487 0
M  V30 11511 H 1111.42 3.26414 -3.507 0
M  V30 11512 H 1109.78 1.80487 -1.79713 0
M  V30 11513 H 1110.56 1.02615 -3.27605 0
M  V30 11514 N 1113.01 1.29761 0.894412 0
M  V30 11515 C 1114.42 1.16275 1.46072 0
M  V30 11516 C 1114.77 -0.240123 1.94725 0
M  V30 11517 O 1113.9 -1.13606 1.84181 0
M  V30 11518 C 1114.49 2.10471 2.65494 0
M  V30 11519 C 1113.05 2.00992 3.18244 0
M  V30 11520 C 1112.2 2.01094 1.90936 0
M  V30 11521 H 1115.15 1.42169 0.705243 0
M  V30 11522 H 1115.17 1.68003 3.41402 0
M  V30 11523 H 1114.68 3.12566 2.30053 0
M  V30 11524 H 1112.78 1.02005 3.58365 0
M  V30 11525 H 1112.9 2.88916 3.82184 0
M  V30 11526 H 1111.26 1.45764 2.08866 0
M  V30 11527 H 1112.04 3.04902 1.57764 0
M  V30 11528 N 1114.49 -1.10549 1.12324 0
M  V30 11529 C 1115.71 -1.8681 0.900927 0
M  V30 11530 C 1116.14 -1.80049 -0.54443 0
M  V30 11531 O 1115.5 -1.16957 -1.38531 0
M  V30 11532 C 1115.54 -3.33197 1.37883 0
M  V30 11533 O 1114.65 -4.08628 0.556529 0
M  V30 11534 H 1113.99 -0.579709 0.32378 0
M  V30 11535 H 1116.52 -1.39678 1.49503 0
M  V30 11536 H 1116.53 -3.84047 1.37739 0
M  V30 11537 H 1115.2 -3.37435 2.43127 0
M  V30 11538 H 1113.78 -3.67627 0.62486 0
M  V30 11539 N 1115.97 -0.914965 -1.28321 0
M  V30 11540 C 1117.21 -0.548749 -1.94923 0
M  V30 11541 C 1117.54 0.907776 -1.72016 0
M  V30 11542 O 1116.8 1.66097 -1.03491 0
M  V30 11543 C 1117.09 -0.805805 -3.48198 0
M  V30 11544 C 1116.76 -2.24207 -3.91206 0
M  V30 11545 C 1115.42 -2.63475 -4.02659 0
M  V30 11546 C 1117.77 -3.17667 -4.13204 0
M  V30 11547 C 1115.1 -3.95353 -4.3349 0
M  V30 11548 C 1117.45 -4.4911 -4.45514 0
M  V30 11549 C 1116.12 -4.8823 -4.55179 0
M  V30 11550 H 1115.39 -0.200801 -0.713274 0
M  V30 11551 H 1118.04 -1.15652 -1.52633 0
M  V30 11552 H 1116.34 -0.115244 -3.9163 0
M  V30 11553 H 1118.04 -0.501609 -3.9785 0
M  V30 11554 H 1114.63 -1.92737 -3.82819 0
M  V30 11555 H 1118.81 -2.88537 -4.03807 0
M  V30 11556 H 1114.07 -4.25362 -4.39178 0
M  V30 11557 H 1118.24 -5.21542 -4.61483 0
M  V30 11558 H 1115.87 -5.90451 -4.78823 0
M  V30 11559 N 1117.44 1.42219 -0.679077 0
M  V30 11560 C 1118.69 2.01777 -0.20342 0
M  V30 11561 C 1119.02 1.53592 1.18841 0
M  V30 11562 O 1118.3 0.739954 1.79875 0
M  V30 11563 C 1118.58 3.59281 -0.242791 0
M  V30 11564 C 1118.43 4.17634 -1.67038 0
M  V30 11565 C 1119.75 4.38218 0.406624 0
M  V30 11566 H 1116.87 0.733134 -0.0753916 0
M  V30 11567 H 1119.51 1.69185 -0.864673 0
M  V30 11568 H 1117.66 3.87178 0.320248 0
M  V30 11569 H 1119.34 4.00674 -2.286 0
M  V30 11570 H 1117.58 3.73301 -2.20973 0
M  V30 11571 H 1118.25 5.26776 -1.64958 0
M  V30 11572 H 1120.73 4.16036 -0.0727077 0
M  V30 11573 H 1119.6 5.47793 0.348457 0
M  V30 11574 H 1119.86 4.16418 1.48487 0
M  V30 11575 N 1118.92 0.422693 1.51826 0
M  V30 11576 C 1120.17 -0.148348 2.01555 0
M  V30 11577 C 1120.49 -1.44483 1.30956 0
M  V30 11578 O 1119.76 -1.90904 0.439599 0
M  V30 11579 H 1118.34 -0.0578116 0.74476 0
M  V30 11580 H 1121 0.562046 1.8662 0
M  V30 11581 H 1120.1 -0.334766 3.10299 0
M  V30 11582 N 1120.4 -1.5685 0.153553 0
M  V30 11583 C 1121.65 -1.97404 -0.490227 0
M  V30 11584 C 1122 -1.03725 -1.62046 0
M  V30 11585 O 1121.29 -0.0735247 -1.91459 0
M  V30 11586 C 1121.49 -3.42022 -1.0371 0
M  V30 11587 C 1121.32 -4.49683 0.038616 0
M  V30 11588 C 1120.09 -5.02993 0.482267 0
M  V30 11589 C 1122.28 -5.07517 0.832507 0
M  V30 11590 N 1120.27 -5.94267 1.54014 0
M  V30 11591 C 1121.64 -5.95062 1.74072 0
M  V30 11592 C 1123.69 -4.90069 0.879566 0
M  V30 11593 C 1122.4 -6.67027 2.69198 0
M  V30 11594 C 1124.42 -5.62741 1.81868 0
M  V30 11595 C 1123.78 -6.5 2.71441 0
M  V30 11596 H 1119.88 -0.767866 -0.148005 0
M  V30 11597 H 1122.47 -1.93093 0.24967 0
M  V30 11598 H 1120.64 -3.46914 -1.74658 0
M  V30 11599 H 1122.37 -3.69624 -1.64804 0
M  V30 11600 H 1119.12 -4.73527 0.0832885 0
M  V30 11601 H 1119.55 -6.44608 2.06903 0
M  V30 11602 H 1124.19 -4.22321 0.201123 0
M  V30 11603 H 1121.91 -7.34 3.38039 0
M  V30 11604 H 1125.49 -5.51234 1.86098 0
M  V30 11605 H 1124.37 -7.05246 3.42926 0
M  V30 11606 N 1121.88 0.120221 -1.57141 0
M  V30 11607 C 1123.12 0.828222 -1.84788 0
M  V30 11608 C 1123.45 1.79936 -0.738459 0
M  V30 11609 O 1122.71 1.93824 0.270295 0
M  V30 11610 C 1123.01 1.61338 -3.18912 0
M  V30 11611 C 1122.67 0.786637 -4.43985 0
M  V30 11612 C 1121.33 0.558645 -4.77946 0
M  V30 11613 C 1123.69 0.210281 -5.20776 0
M  V30 11614 C 1121.01 -0.255975 -5.86141 0
M  V30 11615 C 1123.37 -0.591523 -6.29828 0
M  V30 11616 C 1122.03 -0.829843 -6.62322 0
M  V30 11617 H 1121.3 0.303068 -0.676188 0
M  V30 11618 H 1123.95 0.0906538 -1.91285 0
M  V30 11619 H 1122.25 2.42182 -3.07986 0
M  V30 11620 H 1123.95 2.16513 -3.37525 0
M  V30 11621 H 1120.54 0.974426 -4.17376 0
M  V30 11622 H 1124.72 0.373641 -4.94892 0
M  V30 11623 H 1119.98 -0.449849 -6.09743 0
M  V30 11624 H 1124.15 -1.04512 -6.88513 0
M  V30 11625 H 1121.78 -1.4629 -7.45992 0
M  V30 11626 N 1123.36 1.52689 0.390367 0
M  V30 11627 C 1124.29 1.80338 1.48325 0
M  V30 11628 C 1125.27 0.655338 1.56969 0
M  V30 11629 O 1126.45 0.902792 1.7194 0
M  V30 11630 C 1123.58 1.97101 2.85952 0
M  V30 11631 C 1122.54 3.12783 2.92148 0
M  V30 11632 C 1121.86 3.14798 4.32211 0
M  V30 11633 C 1123.16 4.5188 2.61919 0
M  V30 11634 H 1124.86 2.71857 1.25437 0
M  V30 11635 H 1122.4 1.30813 0.601995 0
M  V30 11636 H 1124.36 2.15027 3.62411 0
M  V30 11637 H 1123.08 1.02271 3.10174 0
M  V30 11638 H 1121.74 2.94638 2.18137 0
M  V30 11639 H 1121.39 2.17653 4.53471 0
M  V30 11640 H 1121.09 3.92507 4.37278 0
M  V30 11641 H 1122.61 3.34877 5.10578 0
M  V30 11642 H 1124.02 4.70134 3.28096 0
M  V30 11643 H 1122.42 5.31647 2.78337 0
M  V30 11644 H 1123.49 4.58689 1.57266 0
M  V30 11645 N 1124.83 -0.648732 1.43629 0
M  V30 11646 C 1126.08 -1.40579 1.45196 0
M  V30 11647 C 1126.4 -1.9484 0.0790556 0
M  V30 11648 O 1125.67 -1.74707 -0.886239 0
M  V30 11649 H 1124.25 -0.52175 0.53459 0
M  V30 11650 H 1126.92 -0.764796 1.79268 0
M  V30 11651 H 1126.01 -2.24591 2.16715 0
M  V30 11652 N 1126.31 -1.30234 -0.887518 0
M  V30 11653 C 1127.56 -1.20096 -1.6416 0
M  V30 11654 C 1127.91 0.24253 -1.90865 0
M  V30 11655 O 1127.21 1.17078 -1.51668 0
M  V30 11656 C 1127.4 -1.96046 -2.98832 0
M  V30 11657 C 1127.23 -3.47633 -2.85274 0
M  V30 11658 C 1126 -4.16989 -2.85392 0
M  V30 11659 C 1128.2 -4.42911 -2.61409 0
M  V30 11660 N 1126.18 -5.54854 -2.62699 0
M  V30 11661 C 1127.55 -5.68321 -2.47813 0
M  V30 11662 C 1129.61 -4.32535 -2.46613 0
M  V30 11663 C 1128.31 -6.84532 -2.20927 0
M  V30 11664 C 1130.33 -5.4851 -2.21112 0
M  V30 11665 C 1129.7 -6.729 -2.08291 0
M  V30 11666 H 1125.8 -0.494513 -0.605789 0
M  V30 11667 H 1128.38 -1.64213 -1.04605 0
M  V30 11668 H 1126.55 -1.54324 -3.56425 0
M  V30 11669 H 1128.28 -1.78072 -3.63418 0
M  V30 11670 H 1125.04 -3.68798 -2.97128 0
M  V30 11671 H 1125.46 -6.27395 -2.54371 0
M  V30 11672 H 1130.1 -3.37047 -2.55262 0
M  V30 11673 H 1127.82 -7.80063 -2.11015 0
M  V30 11674 H 1131.41 -5.42389 -2.1049 0
M  V30 11675 H 1130.29 -7.61125 -1.88833 0
M  V30 11676 N 1127.79 1.09952 -1.12909 0
M  V30 11677 C 1129.07 1.78547 -0.798767 0
M  V30 11678 C 1129.45 1.9878 0.710624 0
M  V30 11679 O 1128.8 1.58485 1.64604 0
M  V30 11680 C 1129.01 3.1121 -1.57953 0
M  V30 11681 C 1130.35 3.86006 -1.76874 0
M  V30 11682 O 1131.38 3.20946 -1.54506 0
M  V30 11683 O 1130.24 5.02791 -2.14158 0
M  V30 11684 H 1127.33 0.774084 -0.291072 0
M  V30 11685 H 1129.88 1.16557 -1.2334 0
M  V30 11686 H 1128.65 2.91935 -2.60557 0
M  V30 11687 H 1128.27 3.80922 -1.13948 0
M  V30 11688 N 1129.27 0.921757 1.27833 0
M  V30 11689 C 1130.55 0.477706 1.89677 0
M  V30 11690 C 1130.93 -1.04392 1.83481 0
M  V30 11691 O 1130.27 -1.89549 1.27606 0
M  V30 11692 C 1130.48 1.01709 3.33851 0
M  V30 11693 C 1131.83 1.074 4.10792 0
M  V30 11694 O 1132.86 0.966295 3.42843 0
M  V30 11695 O 1131.71 1.23909 5.32268 0
M  V30 11696 H 1128.81 0.15271 0.812778 0
M  V30 11697 H 1131.35 1.01306 1.36144 0
M  V30 11698 H 1130.13 2.061 3.32623 0
M  V30 11699 H 1129.75 0.463031 3.94895 0
M  V30 11700 N 1130.75 -1.41857 0.686609 0
M  V30 11701 C 1132.02 -1.95082 0.142228 0
M  V30 11702 C 1132.4 -1.62646 -1.34572 0
M  V30 11703 O 1131.75 -0.928757 -2.08773 0
M  V30 11704 C 1131.96 -3.46415 0.423955 0
M  V30 11705 C 1133.31 -4.23181 0.346842 0
M  V30 11706 O 1134.33 -3.54393 0.358363 0
M  V30 11707 O 1133.19 -5.4568 0.299211 0
M  V30 11708 H 1130.29 -0.826943 0.00974 0
M  V30 11709 H 1132.83 -1.51622 0.762153 0
M  V30 11710 H 1131.6 -3.63273 1.45424 0
M  V30 11711 H 1131.23 -3.96949 -0.227391 0
M  V30 11712 N 1132.22 -0.430739 -1.51599 0
M  V30 11713 C 1133.45 0.136599 -2.06148 0
M  V30 11714 C 1133.86 1.37577 -1.29881 0
M  V30 11715 O 1133.21 1.80337 -0.349875 0
M  V30 11716 C 1133.27 0.53071 -3.55561 0
M  V30 11717 C 1132.93 -0.600738 -4.53034 0
M  V30 11718 C 1133.93 -1.47089 -4.98659 0
M  V30 11719 C 1131.61 -0.77959 -4.96213 0
M  V30 11720 C 1133.61 -2.50464 -5.86128 0
M  V30 11721 C 1131.29 -1.81663 -5.83474 0
M  V30 11722 C 1132.29 -2.67755 -6.28328 0
M  V30 11723 O 1131.98 -3.69679 -7.13858 0
M  V30 11724 H 1131.71 0.0143071 -0.675849 0
M  V30 11725 H 1134.27 -0.606673 -1.96236 0
M  V30 11726 H 1132.5 1.32659 -3.63233 0
M  V30 11727 H 1134.19 1.02844 -3.92655 0
M  V30 11728 H 1134.95 -1.34421 -4.66 0
M  V30 11729 H 1130.83 -0.119082 -4.60846 0
M  V30 11730 H 1134.37 -3.17695 -6.2106 0
M  V30 11731 H 1130.27 -1.94353 -6.15546 0
M  V30 11732 H 1131.04 -3.66181 -7.3202 0
M  V30 11733 N 1133.7 1.56767 -0.161869 0
M  V30 11734 C 1134.95 1.97661 0.479751 0
M  V30 11735 C 1135.3 1.04583 1.61493 0
M  V30 11736 O 1134.6 0.0836772 1.91417 0
M  V30 11737 C 1134.79 3.42567 1.01894 0
M  V30 11738 C 1134.62 4.49657 -0.0624633 0
M  V30 11739 C 1133.39 5.0273 -0.508935 0
M  V30 11740 C 1135.59 5.07069 -0.85941 0
M  V30 11741 N 1133.57 5.93442 -1.57163 0
M  V30 11742 C 1134.94 5.94131 -1.77225 0
M  V30 11743 C 1137 4.89596 -0.905543 0
M  V30 11744 C 1135.7 6.6559 -2.72731 0
M  V30 11745 C 1137.72 5.61769 -1.8485 0
M  V30 11746 C 1137.09 6.48551 -2.74884 0
M  V30 11747 H 1133.19 0.76864 0.14393 0
M  V30 11748 H 1135.77 1.92957 -0.259906 0
M  V30 11749 H 1133.94 3.47835 1.72815 0
M  V30 11750 H 1135.67 3.70493 1.62841 0
M  V30 11751 H 1132.43 4.73476 -0.1084 0
M  V30 11752 H 1132.85 6.43502 -2.10319 0
M  V30 11753 H 1137.49 4.22209 -0.223516 0
M  V30 11754 H 1135.21 7.32197 -3.41927 0
M  V30 11755 H 1138.8 5.50239 -1.89018 0
M  V30 11756 H 1137.68 7.03417 -3.46661 0
M  V30 11757 N 1135.18 -0.111886 1.57202 0
M  V30 11758 C 1136.41 -0.836317 1.89791 0
M  V30 11759 C 1136.83 -1.72304 0.754513 0
M  V30 11760 O 1136.19 -1.78889 -0.294672 0
M  V30 11761 C 1136.24 -1.63971 3.21164 0
M  V30 11762 O 1135.34 -2.74726 3.0757 0
M  V30 11763 H 1134.68 -0.230833 0.622585 0
M  V30 11764 H 1137.21 -0.0921478 2.04392 0
M  V30 11765 H 1137.22 -2.02746 3.54059 0
M  V30 11766 H 1135.9 -0.98882 4.03974 0
M  V30 11767 H 1134.47 -2.39101 2.86156 0
M  V30 11768 N 1136.66 -1.52894 -0.382264 0
M  V30 11769 C 1137.9 -1.68515 -1.12829 0
M  V30 11770 C 1138.24 -0.427211 -1.89443 0
M  V30 11771 O 1137.51 0.57516 -1.85801 0
M  V30 11772 C 1137.8 -2.92449 -2.10108 0
M  V30 11773 C 1137.65 -4.2836 -1.37214 0
M  V30 11774 C 1138.97 -3.11944 -3.1045 0
M  V30 11775 H 1136.09 -0.613223 -0.408811 0
M  V30 11776 H 1138.73 -1.85503 -0.410921 0
M  V30 11777 H 1136.88 -2.78097 -2.71283 0
M  V30 11778 H 1138.55 -4.54493 -0.789516 0
M  V30 11779 H 1136.79 -4.28532 -0.673973 0
M  V30 11780 H 1137.46 -5.11178 -2.0833 0
M  V30 11781 H 1139.94 -3.25372 -2.59369 0
M  V30 11782 H 1138.82 -4.00125 -3.75754 0
M  V30 11783 H 1139.08 -2.26465 -3.79692 0
M  V30 11784 N 1138.14 0.641106 -1.43971 0
M  V30 11785 C 1139.41 1.39897 -1.36704 0
M  V30 11786 C 1139.79 2.1109 -0.0208051 0
M  V30 11787 O 1139.14 2.05638 0.99625 0
M  V30 11788 C 1139.35 2.37366 -2.55849 0
M  V30 11789 C 1140.7 3.01 -2.99473 0
M  V30 11790 O 1141.72 2.47692 -2.55982 0
M  V30 11791 O 1140.58 3.9768 -3.74851 0
M  V30 11792 H 1137.68 0.625623 -0.540855 0
M  V30 11793 H 1140.22 0.666997 -1.56042 0
M  V30 11794 H 1139 1.8379 -3.45452 0
M  V30 11795 H 1138.62 3.17995 -2.38673 0
M  V30 11796 N 1139.62 1.30703 0.880598 0
M  V30 11797 C 1141.03 1.17818 1.4483 0
M  V30 11798 C 1141.38 -0.219456 1.94969 0
M  V30 11799 O 1140.5 -1.11646 1.85375 0
M  V30 11800 C 1141.1 2.13275 2.63247 0
M  V30 11801 C 1139.66 2.04356 3.16094 0
M  V30 11802 C 1138.8 2.03108 1.88792 0
M  V30 11803 H 1141.75 1.42909 0.690125 0
M  V30 11804 H 1141.78 1.71615 3.39601 0
M  V30 11805 H 1141.29 3.14988 2.26725 0
M  V30 11806 H 1139.39 1.058 3.57263 0
M  V30 11807 H 1139.5 2.92953 3.79098 0
M  V30 11808 H 1137.87 1.47971 2.07308 0
M  V30 11809 H 1138.65 3.06558 1.54521 0
M  V30 11810 N 1141.09 -1.09351 1.1349 0
M  V30 11811 C 1142.02 -2.18037 0.835588 0
M  V30 11812 C 1143 -1.68856 -0.205373 0
M  V30 11813 O 1144.19 -1.94094 -0.0641357 0
M  V30 11814 C 1141.32 -3.45987 0.301661 0
M  V30 11815 C 1140.27 -4.08507 1.27696 0
M  V30 11816 C 1139.6 -5.31292 0.602758 0
M  V30 11817 C 1140.9 -4.50916 2.63575 0
M  V30 11818 H 1142.59 -2.43332 1.74441 0
M  V30 11819 H 1140.14 -1.1695 0.840166 0
M  V30 11820 H 1142.09 -4.21324 0.079928 0
M  V30 11821 H 1140.82 -3.20217 -0.642552 0
M  V30 11822 H 1139.48 -3.3519 1.4847 0
M  V30 11823 H 1139.12 -5.01802 -0.346953 0
M  V30 11824 H 1138.82 -5.74075 1.25345 0
M  V30 11825 H 1140.35 -6.09351 0.390325 0
M  V30 11826 H 1141.76 -5.17474 2.46765 0
M  V30 11827 H 1140.16 -5.04586 3.24827 0
M  V30 11828 H 1141.23 -3.63279 3.2118 0
M  V30 11829 N 1142.57 -0.928524 -1.27343 0
M  V30 11830 C 1143.85 -0.487758 -1.89421 0
M  V30 11831 C 1144.23 1.03418 -1.84032 0
M  V30 11832 O 1143.58 1.8887 -1.2861 0
M  V30 11833 C 1143.79 -1.03478 -3.33307 0
M  V30 11834 C 1145.13 -1.09577 -4.10217 0
M  V30 11835 O 1146.16 -0.984463 -3.42326 0
M  V30 11836 O 1145.02 -1.2673 -5.31603 0
M  V30 11837 H 1142.11 -0.157018 -0.811957 0
M  V30 11838 H 1144.66 -1.02027 -1.35605 0
M  V30 11839 H 1143.43 -2.07861 -3.31526 0
M  V30 11840 H 1143.05 -0.483967 -3.94644 0
M  V30 11841 N 1144.05 1.41491 -0.694123 0
M  V30 11842 C 1145.47 1.55358 -0.365532 0
M  V30 11843 C 1145.67 1.66994 1.12762 0
M  V30 11844 O 1144.72 1.64756 1.91342 0
M  V30 11845 C 1146.03 2.79352 -1.11279 0
M  V30 11846 C 1147.58 2.93147 -1.097 0
M  V30 11847 C 1148.06 4.20027 -1.82597 0
M  V30 11848 N 1149.55 4.26981 -1.7956 0
M  V30 11849 C 1150.28 5.24013 -2.32805 0
M  V30 11850 N 1149.78 6.27083 -2.94515 0
M  V30 11851 N 1151.57 5.15943 -2.23069 0
M  V30 11852 H 1143.72 1.32183 -1.66257 0
M  V30 11853 H 1145.99 0.637624 -0.701527 0
M  V30 11854 H 1145.69 2.76958 -2.16765 0
M  V30 11855 H 1145.57 3.70827 -0.690439 0
M  V30 11856 H 1147.95 2.95057 -0.0504037 0
M  V30 11857 H 1148.03 2.02849 -1.55839 0
M  V30 11858 H 1147.68 4.18878 -2.87235 0
M  V30 11859 H 1147.61 5.09294 -1.33893 0
M  V30 11860 H 1150.1 3.53129 -1.34567 0
M  V30 11861 H 1150.41 6.97511 -3.32714 0
M  V30 11862 H 1148.76 6.27589 -2.98592 0
M  V30 11863 H 1151.95 4.34346 -1.74532 0
M  V30 11864 H 1152.12 5.91396 -2.64868 0
M  V30 11865 N 1145.53 0.438773 1.51369 0
M  V30 11866 C 1146.49 -0.36032 2.2635 0
M  V30 11867 C 1147.49 -0.948465 1.29849 0
M  V30 11868 O 1148.68 -0.822692 1.53549 0
M  V30 11869 C 1145.81 -1.50994 3.05636 0
M  V30 11870 H 1147.01 0.296826 2.98427 0
M  V30 11871 H 1144.56 0.191978 1.55117 0
M  V30 11872 H 1145.29 -2.2031 2.37979 0
M  V30 11873 H 1145.08 -1.09437 3.76518 0
M  V30 11874 H 1146.57 -2.07447 3.6243 0
M  V30 11875 N 1147.01 -1.56678 0.170181 0
M  V30 11876 C 1147.94 -2.13747 -0.799203 0
M  V30 11877 C 1148.92 -1.06725 -1.22673 0
M  V30 11878 O 1150.1 -1.34694 -1.3187 0
M  V30 11879 C 1147.23 -2.67611 -2.07611 0
M  V30 11880 C 1146.27 -3.86994 -1.7927 0
M  V30 11881 S 1147.11 -5.26771 -0.962951 0
M  V30 11882 C 1148.26 -5.84039 -2.25054 0
M  V30 11883 H 1148.5 -2.95637 -0.313976 0
M  V30 11884 H 1146.03 -1.54336 -0.0444708 0
M  V30 11885 H 1147.99 -2.99291 -2.80954 0
M  V30 11886 H 1146.65 -1.85808 -2.53247 0
M  V30 11887 H 1145.84 -4.23006 -2.74011 0
M  V30 11888 H 1145.44 -3.56195 -1.14023 0
M  V30 11889 H 1147.73 -5.96883 -3.20525 0
M  V30 11890 H 1148.68 -6.81145 -1.93513 0
M  V30 11891 H 1149.09 -5.12449 -2.36763 0
M  V30 11892 N 1148.48 0.103547 -1.57259 0
M  V30 11893 C 1149.45 1.11039 -2.00507 0
M  V30 11894 C 1150.45 1.33432 -0.897361 0
M  V30 11895 O 1151.64 1.29688 -1.16304 0
M  V30 11896 C 1148.77 2.46144 -2.35851 0
M  V30 11897 H 1149.96 0.738332 -2.90669 0
M  V30 11898 H 1147.51 0.348334 -1.52369 0
M  V30 11899 H 1148.25 2.88242 -1.48617 0
M  V30 11900 H 1148.03 2.31241 -3.16654 0
M  V30 11901 H 1149.52 3.18577 -2.69997 0
M  V30 11902 N 1149.96 1.53094 0.37415 0
M  V30 11903 C 1150.87 1.81872 1.48188 0
M  V30 11904 C 1151.89 0.706487 1.59012 0
M  V30 11905 O 1153.06 0.995648 1.75068 0
M  V30 11906 C 1150.13 1.99494 2.83554 0
M  V30 11907 C 1149.19 3.23402 2.82329 0
M  V30 11908 C 1148.42 3.40174 4.11239 0
M  V30 11909 O 1148.65 2.61425 5.06965 0
M  V30 11910 O 1147.58 4.33493 4.17573 0
M  V30 11911 H 1151.41 2.75965 1.26795 0
M  V30 11912 H 1148.99 1.38368 0.56343 0
M  V30 11913 H 1150.87 2.12705 3.63778 0
M  V30 11914 H 1149.55 1.08591 3.04942 0
M  V30 11915 H 1148.45 3.15621 2.00834 0
M  V30 11916 H 1149.79 4.14199 2.65894 0
M  V30 11917 N 1151.44 -0.633461 1.44309 0
M  V30 11918 C 1152.37 -1.75676 1.53819 0
M  V30 11919 C 1153.35 -1.65537 0.391365 0
M  V30 11920 O 1154.54 -1.84332 0.611181 0
M  V30 11921 C 1151.67 -3.14197 1.47979 0
M  V30 11922 C 1150.62 -3.39122 2.61113 0
M  V30 11923 C 1149.95 -4.77648 2.40325 0
M  V30 11924 C 1151.25 -3.31914 4.03274 0
M  V30 11925 H 1152.94 -1.67974 2.47841 0
M  V30 11926 H 1150.49 -0.8067 1.19283 0
M  V30 11927 H 1152.44 -3.92553 1.53233 0
M  V30 11928 H 1151.16 -3.22677 0.504718 0
M  V30 11929 H 1149.82 -2.63145 2.55245 0
M  V30 11930 H 1149.47 -4.82829 1.41016 0
M  V30 11931 H 1149.17 -4.95284 3.16177 0
M  V30 11932 H 1150.69 -5.58237 2.47394 0
M  V30 11933 H 1152.11 -4.00178 4.10524 0
M  V30 11934 H 1150.5 -3.61085 4.7931 0
M  V30 11935 H 1151.57 -2.29761 4.2701 0
M  V30 11936 N 1152.92 -1.31168 -0.873655 0
M  V30 11937 C 1153.88 -1.18471 -1.96207 0
M  V30 11938 C 1154.88 -0.112814 -1.60404 0
M  V30 11939 O 1156.07 -0.3618 -1.70401 0
M  V30 11940 C 1153.2 -0.817662 -3.30949 0
M  V30 11941 H 1154.4 -2.1518 -2.08896 0
M  V30 11942 H 1151.95 -1.14727 -1.06149 0
M  V30 11943 H 1152.68 0.148428 -3.2396 0
M  V30 11944 H 1152.47 -1.59244 -3.58307 0
M  V30 11945 H 1153.96 -0.75262 -4.10762 0
M  V30 11946 N 1154.4 1.08748 -1.14068 0
M  V30 11947 C 1155.36 2.1375 -0.827266 0
M  V30 11948 C 1156.36 1.59936 0.166496 0
M  V30 11949 O 1157.55 1.74092 -0.0614305 0
M  V30 11950 C 1154.68 3.40106 -0.232557 0
M  V30 11951 H 1155.87 2.42985 -1.7578 0
M  V30 11952 H 1153.43 1.24402 -0.946244 0
M  V30 11953 H 1154.16 3.16503 0.706859 0
M  V30 11954 H 1153.95 3.8046 -0.948293 0
M  V30 11955 H 1155.44 4.17589 -0.0303662 0
M  V30 11956 O 1155.91 1.0662 1.21303 0
M  V30 11957 H 1156.6 0.749069 1.7863 0
M  V30 END ATOM
M  V30 BEGIN BOND
M  V30 END BOND
M  V30 END CTAB
M  END
$$$$
