drugbank_target|P06400 Retinoblastoma-associated protein (DB00030; DB00071)
 OpenBabel12092120063D

  0  0  0     0  0            999 V3000
M  V30 BEGIN CTAB
M  V30 COUNTS 15022 15179 0 0 0
M  V30 BEGIN ATOM
M  V30 1 H -0.908 1.98254 -0.117106 0
M  V30 2 N 0 1.576 0 0
M  V30 3 C 0.933 2.03868 1.02534 0
M  V30 4 C 1.911 0.928543 1.3348 0
M  V30 5 O 3.095 1.19667 1.45644 0
M  V30 6 C 0.222 2.43627 2.35294 0
M  V30 7 C -0.732 3.65373 2.2001 0
M  V30 8 S 0.101 5.13292 1.52614 0
M  V30 9 C 1.257 5.56322 2.86805 0
M  V30 10 H 1.49 2.90518 0.631377 0
M  V30 11 H -0.977 1.52953 0.210867 0
M  V30 12 H 0.981 2.67203 3.11629 0
M  V30 13 H -0.358 1.57376 2.7183 0
M  V30 14 H -1.165 3.90944 3.18086 0
M  V30 15 H -1.563 3.418 1.51819 0
M  V30 16 H 0.729 5.58782 3.83104 0
M  V30 17 H 1.672 6.56266 2.65933 0
M  V30 18 H 2.08 4.83886 2.90714 0
M  V30 19 N 1.4781 -0.272755 1.55222 0
M  V30 20 C 2.8891 -0.84378 1.66545 0
M  V30 21 C 3.2401 -1.87035 0.592641 0
M  V30 22 O 2.3651 -2.14761 -0.265818 0
M  V30 23 C 2.9601 -1.53723 3.01918 0
M  V30 24 C 1.5191 -2.05628 3.15268 0
M  V30 25 C 0.6661 -0.898424 2.62343 0
M  V30 26 H 3.6171 -0.0490998 1.58624 0
M  V30 27 H 3.6381 -2.40421 2.94921 0
M  V30 28 H 3.1501 -0.78983 3.79978 0
M  V30 29 H 1.2511 -2.83329 2.41983 0
M  V30 30 H 1.3641 -2.27142 4.21833 0
M  V30 31 H -0.2719 -1.29186 2.19506 0
M  V30 32 H 0.5111 -0.164528 3.42906 0
M  V30 33 N 2.9562 -1.48159 -0.537278 0
M  V30 34 C 4.3672 -1.49429 -1.11928 0
M  V30 35 C 4.7182 -0.26 -1.9447 0
M  V30 36 O 3.8432 0.633489 -2.0692 0
M  V30 37 C 4.4382 -2.70758 -2.03656 0
M  V30 38 C 2.9972 -2.74923 -2.57088 0
M  V30 39 C 2.1442 -2.42835 -1.3389 0
M  V30 40 H 5.0952 -1.55381 -0.322886 0
M  V30 41 H 5.1162 -2.48861 -2.87834 0
M  V30 42 H 4.6282 -3.60575 -1.43553 0
M  V30 43 H 2.7292 -1.89296 -3.20933 0
M  V30 44 H 2.8422 -3.76157 -2.9672 0
M  V30 45 H 1.2062 -1.93836 -1.65226 0
M  V30 46 H 1.9892 -3.34884 -0.755504 0
M  V30 47 N 4.4343 0.785586 -1.36625 0
M  V30 48 C 5.3813 1.89838 -1.31264 0
M  V30 49 C 6.3513 1.65115 -0.180633 0
M  V30 50 O 7.5363 1.87222 -0.36777 0
M  V30 51 C 4.6763 3.26706 -1.11163 0
M  V30 52 C 3.7893 3.63476 -2.33472 0
M  V30 53 C 2.9243 4.89481 -2.06353 0
M  V30 54 C 1.9633 5.18941 -3.24602 0
M  V30 55 N 1.1003 6.36131 -2.97123 0
M  V30 56 H 5.9403 1.93756 -2.26413 0
M  V30 57 H 3.4773 0.947454 -1.12524 0
M  V30 58 H 5.4353 4.05639 -0.975337 0
M  V30 59 H 4.0653 3.222 -0.196674 0
M  V30 60 H 3.1173 2.79636 -2.57891 0
M  V30 61 H 4.4293 3.81193 -3.21704 0
M  V30 62 H 3.5833 5.76288 -1.89675 0
M  V30 63 H 2.3223 4.73841 -1.15437 0
M  V30 64 H 1.3273 4.30615 -3.41834 0
M  V30 65 H 2.5523 5.36498 -4.16349 0
M  V30 66 H 0.4983 6.21875 -2.08823 0
M  V30 67 H 0.4153 6.54198 -3.78894 0
M  V30 68 H 1.6833 7.2591 -2.84033 0
M  V30 69 N 5.9124 1.20967 1.01018 0
M  V30 70 C 7.1404 1.04956 1.78303 0
M  V30 71 C 7.5554 -0.400915 1.84494 0
M  V30 72 O 6.9124 -1.27826 1.30257 0
M  V30 73 C 6.9634 1.63403 3.22462 0
M  V30 74 O 6.6844 3.02775 3.16637 0
M  V30 75 C 8.1854 1.52432 4.16268 0
M  V30 76 H 5.4054 0.368858 0.560522 0
M  V30 77 H 7.9494 1.60193 1.27116 0
M  V30 78 H 6.1044 1.1227 3.70775 0
M  V30 79 H 6.5184 3.30626 4.07169 0
M  V30 80 H 7.9924 1.98078 5.15237 0
M  V30 81 H 8.4694 0.477875 4.36592 0
M  V30 82 H 9.0754 2.02787 3.73841 0
M  V30 83 N 7.3905 -1.2043 1.01659 0
M  V30 84 C 8.8015 -1.71517 0.737482 0
M  V30 85 C 9.1525 -1.81547 -0.743973 0
M  V30 86 O 8.2775 -1.47803 -1.58061 0
M  V30 87 C 8.8725 -3.11515 1.33206 0
M  V30 88 C 7.4315 -3.59912 1.10183 0
M  V30 89 C 6.5785 -2.37116 1.43776 0
M  V30 90 H 9.5295 -1.05444 1.18606 0
M  V30 91 H 9.5505 -3.73575 0.722636 0
M  V30 92 H 9.0625 -3.04182 2.41028 0
M  V30 93 H 7.1635 -3.72577 0.0412756 0
M  V30 94 H 7.2765 -4.44731 1.78188 0
M  V30 95 H 5.6405 -2.39857 0.856778 0
M  V30 96 H 6.4235 -2.32424 2.52654 0
M  V30 97 N 8.8686 -0.792821 -1.36206 0
M  V30 98 C 10.2846 -0.474903 -1.52371 0
M  V30 99 C 10.4846 1.00622 -1.74578 0
M  V30 100 O 9.5406 1.79162 -1.77924 0
M  V30 101 C 10.8536 -1.3083 -2.70747 0
M  V30 102 C 12.4016 -1.30234 -2.84619 0
M  V30 103 C 12.8766 -2.11956 -4.06004 0
M  V30 104 N 14.3676 -2.09419 -4.13156 0
M  V30 105 C 15.1026 -2.69419 -5.06163 0
M  V30 106 N 14.5986 -3.3829 -6.04592 0
M  V30 107 N 16.3916 -2.59134 -4.98804 0
M  V30 108 H 8.5426 -1.75222 -1.20046 0
M  V30 109 H 10.8056 -0.745024 -0.586211 0
M  V30 110 H 10.5116 -2.35881 -2.6087 0
M  V30 111 H 10.3856 -0.95196 -3.6499 0
M  V30 112 H 12.7726 -0.259748 -2.93955 0
M  V30 113 H 12.8536 -1.69847 -1.91274 0
M  V30 114 H 12.4976 -3.16248 -3.97429 0
M  V30 115 H 12.4276 -1.69711 -4.98503 0
M  V30 116 H 14.9186 -1.59297 -3.42685 0
M  V30 117 H 15.2316 -3.81394 -6.7213 0
M  V30 118 H 13.5766 -3.42393 -6.04807 0
M  V30 119 H 16.7676 -2.04927 -4.20859 0
M  V30 120 H 16.9406 -3.06185 -5.711 0
M  V30 121 N 10.3467 1.47872 -0.545128 0
M  V30 122 C 11.2937 2.29849 0.2093 0
M  V30 123 C 12.2637 1.38313 0.919707 0
M  V30 124 O 13.4487 1.67277 0.917772 0
M  V30 125 C 10.5887 3.22019 1.24088 0
M  V30 126 C 9.7017 4.2864 0.537778 0
M  V30 127 C 8.8367 5.07973 1.5536 0
M  V30 128 C 7.8757 6.06381 0.8348 0
M  V30 129 N 7.0127 6.78717 1.79688 0
M  V30 130 H 11.8527 2.93845 -0.49591 0
M  V30 131 H 9.3897 1.44848 -0.256389 0
M  V30 132 H 11.3477 3.73868 1.85144 0
M  V30 133 H 9.9777 2.59914 1.91428 0
M  V30 134 H 9.0297 3.7994 -0.187046 0
M  V30 135 H 10.3417 4.98793 -0.0258907 0
M  V30 136 H 9.4957 5.63912 2.23803 0
M  V30 137 H 8.2347 4.37693 2.15118 0
M  V30 138 H 7.2397 5.49631 0.136388 0
M  V30 139 H 8.4647 6.78665 0.24313 0
M  V30 140 H 6.4107 6.11177 2.38326 0
M  V30 141 H 6.3277 7.44998 1.28505 0
M  V30 142 H 7.5957 7.39237 2.47282 0
M  V30 143 N 11.8248 0.280983 1.55075 0
M  V30 144 C 13.0528 -0.337293 2.04132 0
M  V30 145 C 13.4678 -1.4903 1.15912 0
M  V30 146 O 12.8248 -1.81606 0.180459 0
M  V30 147 C 12.8758 -0.812706 3.52246 0
M  V30 148 O 12.5968 0.294387 4.3711 0
M  V30 149 C 14.0978 -1.4982 4.17216 0
M  V30 150 H 11.3178 -0.0761638 0.666663 0
M  V30 151 H 13.8618 0.414787 2.00249 0
M  V30 152 H 12.0168 -1.51486 3.56554 0
M  V30 153 H 12.4308 -0.0721325 5.2445 0
M  V30 154 H 13.9048 -1.7822 5.22438 0
M  V30 155 H 14.3818 -2.43168 3.65741 0
M  V30 156 H 14.9878 -0.839742 4.16927 0
M  V30 157 N 13.3029 -1.57598 0.00835791 0
M  V30 158 C 14.2659 -2.07884 -0.965242 0
M  V30 159 C 15.2659 -0.989825 -1.26725 0
M  V30 160 O 16.4559 -1.25218 -1.21104 0
M  V30 161 C 13.5879 -2.52731 -2.28779 0
M  V30 162 H 14.7809 -2.95178 -0.530112 0
M  V30 163 H 12.3339 -1.54458 -0.239283 0
M  V30 164 H 13.0689 -1.68705 -2.76964 0
M  V30 165 H 12.8539 -3.32272 -2.08177 0
M  V30 166 H 14.3439 -2.91933 -2.98605 0
M  V30 167 N 14.781 0.264519 -1.55364 0
M  V30 168 C 15.744 1.31046 -1.88042 0
M  V30 169 C 16.744 1.41943 -0.755569 0
M  V30 170 O 17.934 1.40947 -1.02369 0
M  V30 171 C 15.066 2.69067 -2.09323 0
M  V30 172 H 16.259 1.03297 -2.81549 0
M  V30 173 H 13.812 0.502989 -1.47986 0
M  V30 174 H 14.547 3.01982 -1.18226 0
M  V30 175 H 14.332 2.62542 -2.91229 0
M  V30 176 H 15.822 3.44623 -2.35848 0
M  V30 177 N 16.2591 1.48442 0.529413 0
M  V30 178 C 17.4871 1.60151 1.30994 0
M  V30 179 C 17.9021 0.261985 1.86973 0
M  V30 180 O 17.2591 -0.748805 1.66431 0
M  V30 181 C 17.3101 2.64854 2.46038 0
M  V30 182 O 17.0311 3.93608 1.92365 0
M  V30 183 C 18.5321 2.87007 3.37849 0
M  V30 184 H 15.7521 0.539971 0.398338 0
M  V30 185 H 18.2961 1.94273 0.638597 0
M  V30 186 H 16.4511 2.33589 3.09055 0
M  V30 187 H 16.8651 4.51055 2.67675 0
M  V30 188 H 18.3391 3.64068 4.14919 0
M  V30 189 H 18.8161 1.95852 3.93114 0
M  V30 190 H 19.4221 3.19579 2.80623 0
M  V30 191 N 17.7372 -0.778329 1.37039 0
M  V30 192 C 18.7002 -1.87301 1.32102 0
M  V30 193 C 19.7002 -1.59198 0.226405 0
M  V30 194 O 20.8902 -1.67403 0.481861 0
M  V30 195 C 18.0222 -3.24309 1.05055 0
M  V30 196 H 19.2152 -1.93093 2.29467 0
M  V30 197 H 16.7682 -0.977358 1.21973 0
M  V30 198 H 17.5032 -3.24196 0.0819373 0
M  V30 199 H 17.2882 -3.46098 1.84279 0
M  V30 200 H 18.7782 -4.04382 1.04234 0
M  V30 201 N 19.2153 -1.21501 -1.00376 0
M  V30 202 C 20.1783 -0.976927 -2.07337 0
M  V30 203 C 21.1783 0.0525322 -1.60714 0
M  V30 204 O 22.3683 -0.184869 -1.73216 0
M  V30 205 C 19.5003 -0.473423 -3.37597 0
M  V30 206 H 20.6933 -1.92587 -2.29892 0
M  V30 207 H 18.2463 -1.03217 -1.17371 0
M  V30 208 H 18.9813 0.480379 -3.20722 0
M  V30 209 H 18.7663 -1.216 -3.72768 0
M  V30 210 H 20.2563 -0.32675 -4.1632 0
M  V30 211 N 20.6934 1.19889 -1.02296 0
M  V30 212 C 21.6564 2.21116 -0.603351 0
M  V30 213 C 22.6564 1.5738 0.329884 0
M  V30 214 O 23.8464 1.73802 0.117702 0
M  V30 215 C 20.9784 3.40696 0.117992 0
M  V30 216 H 22.1714 2.59754 -1.49893 0
M  V30 217 H 19.7244 1.33463 -0.813468 0
M  V30 218 H 20.4594 3.07569 1.0282 0
M  V30 219 H 20.2444 3.88188 -0.552511 0
M  V30 220 H 21.7344 4.15692 0.398696 0
M  V30 221 N 22.1715 0.800033 1.35784 0
M  V30 222 C 23.1345 0.211565 2.28221 0
M  V30 223 C 24.1345 -0.59728 1.49296 0
M  V30 224 O 25.3245 -0.416721 1.69142 0
M  V30 225 C 22.4565 -0.705846 3.33513 0
M  V30 226 H 23.6495 1.02677 2.81776 0
M  V30 227 H 21.2025 0.570211 1.45528 0
M  V30 228 H 21.9375 -1.54498 2.85133 0
M  V30 229 H 21.7225 -0.127655 3.91892 0
M  V30 230 H 23.2125 -1.11211 4.02519 0
M  V30 231 N 23.6496 -1.47581 0.552962 0
M  V30 232 C 24.6126 -2.28439 -0.186605 0
M  V30 233 C 25.6126 -1.36706 -0.84665 0
M  V30 234 O 26.8026 -1.59378 -0.703164 0
M  V30 235 C 23.9346 -3.16264 -1.2724 0
M  V30 236 H 25.1276 -2.95294 0.523609 0
M  V30 237 H 22.6806 -1.532 0.309745 0
M  V30 238 H 23.4156 -2.54091 -2.01514 0
M  V30 239 H 23.2006 -3.83769 -0.803968 0
M  V30 240 H 24.6906 -3.77198 -1.79196 0
M  V30 241 N 25.1277 -0.289203 -1.54924 0
M  V30 242 C 26.0907 0.579144 -2.21762 0
M  V30 243 C 27.0907 1.07047 -1.1999 0
M  V30 244 O 28.2807 0.968384 -1.44803 0
M  V30 245 C 25.4127 1.80055 -2.8947 0
M  V30 246 H 26.6057 -0.00464908 -2.999 0
M  V30 247 H 24.1587 -0.0399306 -1.56249 0
M  V30 248 H 24.8937 2.42449 -2.15381 0
M  V30 249 H 24.6787 1.45602 -3.64064 0
M  V30 250 H 26.1687 2.41773 -3.40493 0
M  V30 251 N 26.6058 1.57591 -0.0167156 0
M  V30 252 C 27.5158 2.1291 0.98521 0
M  V30 253 C 28.5318 1.07834 1.36557 0
M  V30 254 O 29.7078 1.39826 1.44951 0
M  V30 255 C 26.7728 2.63512 2.25305 0
M  V30 256 C 25.8338 3.83256 1.93426 0
M  V30 257 C 25.0668 4.31435 3.14165 0
M  V30 258 O 25.2898 3.78851 4.26413 0
M  V30 259 O 24.2238 5.23416 2.97186 0
M  V30 260 H 28.0498 2.98772 0.544888 0
M  V30 261 H 25.6348 1.48012 0.203141 0
M  V30 262 H 27.5168 2.96183 2.99756 0
M  V30 263 H 26.1918 1.8074 2.68542 0
M  V30 264 H 25.0988 3.55531 1.16398 0
M  V30 265 H 26.4318 4.67153 1.55013 0
M  V30 266 N 28.0839 -0.256276 1.55502 0
M  V30 267 C 29.4949 -0.826068 1.67431 0
M  V30 268 C 29.8459 -1.86396 0.612446 0
M  V30 269 O 28.9709 -2.15031 -0.243025 0
M  V30 270 C 29.5659 -1.50512 3.03532 0
M  V30 271 C 28.1249 -2.02273 3.17431 0
M  V30 272 C 27.2719 -0.870548 2.63281 0
M  V30 273 H 30.2229 -0.0322728 1.58667 0
M  V30 274 H 30.2439 -2.37279 2.97454 0
M  V30 275 H 29.7559 -0.749484 3.80794 0
M  V30 276 H 27.8569 -2.80746 2.44974 0
M  V30 277 H 27.9699 -2.22655 4.24219 0
M  V30 278 H 26.3339 -1.26851 2.20864 0
M  V30 279 H 27.1169 -0.128149 3.43061 0
M  V30 280 N 29.562 -1.4872 -0.521534 0
M  V30 281 C 30.973 -1.50607 -1.10337 0
M  V30 282 C 31.324 -0.280612 -1.94183 0
M  V30 283 O 30.449 0.611507 -2.0758 0
M  V30 284 C 31.044 -2.72903 -2.00772 0
M  V30 285 C 29.603 -2.77634 -2.54158 0
M  V30 286 C 28.75 -2.44241 -1.31307 0
M  V30 287 H 31.701 -1.55714 -0.306388 0
M  V30 288 H 31.722 -2.519 -2.85178 0
M  V30 289 H 31.234 -3.62077 -1.39721 0
M  V30 290 H 29.335 -1.92689 -3.18907 0
M  V30 291 H 29.448 -3.79283 -2.92714 0
M  V30 292 H 27.812 -1.95577 -1.63161 0
M  V30 293 H 28.595 -3.35666 -0.719943 0
M  V30 294 N 31.0401 0.771051 -1.3745 0
M  V30 295 C 32.0031 1.86598 -1.33093 0
M  V30 296 C 33.0031 1.59076 -0.234845 0
M  V30 297 O 34.1931 1.67145 -0.490732 0
M  V30 298 C 31.3251 3.23747 -1.06773 0
M  V30 299 H 32.5181 1.91873 -2.30488 0
M  V30 300 H 30.0711 0.970876 -1.2249 0
M  V30 301 H 30.8061 3.24148 -0.099129 0
M  V30 302 H 30.5911 3.45115 -1.86112 0
M  V30 303 H 32.0811 4.03824 -1.06377 0
M  V30 304 N 32.5182 1.22032 0.997298 0
M  V30 305 C 33.9292 1.0397 1.55071 0
M  V30 306 C 34.2802 -0.398192 1.92117 0
M  V30 307 O 33.4052 -1.28254 1.74298 0
M  V30 308 C 34.0002 1.88109 2.81781 0
M  V30 309 C 32.5592 1.74357 3.33581 0
M  V30 310 C 31.7062 1.84846 2.06706 0
M  V30 311 H 34.6572 1.35941 0.818883 0
M  V30 312 H 34.6782 1.39589 3.53971 0
M  V30 313 H 34.1902 2.92754 2.54787 0
M  V30 314 H 32.2912 0.72427 3.65493 0
M  V30 315 H 32.4042 2.56772 4.04481 0
M  V30 316 H 30.7682 1.28238 2.20062 0
M  V30 317 H 31.5512 2.91014 1.82114 0
M  V30 318 N 33.9963 -1.19345 1.0293 0
M  V30 319 C 35.4073 -1.70725 0.755633 0
M  V30 320 C 35.7583 -1.82326 -0.724676 0
M  V30 321 O 34.8833 -1.49471 -1.56484 0
M  V30 322 C 35.4783 -3.10084 1.36503 0
M  V30 323 C 34.0373 -3.58723 1.13994 0
M  V30 324 C 33.1843 -2.35577 1.46283 0
M  V30 325 H 36.1353 -1.0418 1.19718 0
M  V30 326 H 36.1563 -3.72787 0.762217 0
M  V30 327 H 35.6683 -3.01609 2.44241 0
M  V30 328 H 33.7693 -3.72512 0.0807901 0
M  V30 329 H 33.8823 -4.42816 1.82894 0
M  V30 330 H 32.2463 -2.38935 0.88217 0
M  V30 331 H 33.0293 -2.29731 2.55105 0
M  V30 332 N 35.4744 -0.807222 -1.35358 0
M  V30 333 C 36.8854 -0.44876 -1.81226 0
M  V30 334 C 37.2364 1.02929 -1.67033 0
M  V30 335 O 36.3614 1.79991 -1.20133 0
M  V30 336 C 36.9564 -0.807774 -3.2903 0
M  V30 337 C 35.5154 -0.501901 -3.73039 0
M  V30 338 C 34.6624 -1.03304 -2.57339 0
M  V30 339 H 37.6134 -0.998808 -1.23327 0
M  V30 340 H 37.6344 -0.10554 -3.80354 0
M  V30 341 H 37.1464 -1.88357 -3.39328 0
M  V30 342 H 35.2474 0.565128 -3.68289 0
M  V30 343 H 35.3604 -1.03497 -4.67787 0
M  V30 344 H 33.7244 -0.455339 -2.50597 0
M  V30 345 H 34.5074 -2.11496 -2.70415 0
M  V30 346 N 36.9525 1.47285 -0.560781 0
M  V30 347 C 38.3635 1.86258 -0.128343 0
M  V30 348 C 38.7145 1.46699 1.30284 0
M  V30 349 O 37.8395 0.871698 1.98067 0
M  V30 350 C 38.4345 3.38044 -0.22614 0
M  V30 351 C 36.9935 3.76096 0.151283 0
M  V30 352 C 36.1405 2.71335 -0.572084 0
M  V30 353 H 39.0915 1.38752 -0.770297 0
M  V30 354 H 39.1125 3.76441 0.554322 0
M  V30 355 H 38.6245 3.66806 -1.26788 0
M  V30 356 H 36.7255 3.52951 1.19399 0
M  V30 357 H 36.8385 4.78641 -0.209765 0
M  V30 358 H 35.2025 2.54696 -0.0147653 0
M  V30 359 H 35.9855 3.02938 -1.61504 0
M  V30 360 N 38.4306 0.297415 1.54768 0
M  V30 361 C 39.8416 -0.195947 1.85669 0
M  V30 362 C 40.1926 -1.53707 1.21937 0
M  V30 363 O 39.3176 -2.10164 0.515754 0
M  V30 364 C 39.9126 -0.362318 3.36857 0
M  V30 365 C 38.4716 -0.799901 3.67802 0
M  V30 366 C 37.6186 0.0938578 2.77141 0
M  V30 367 H 40.5696 0.518538 1.4999 0
M  V30 368 H 40.5906 -1.19745 3.61167 0
M  V30 369 H 40.1026 0.613921 3.83214 0
M  V30 370 H 38.2036 -1.78682 3.26961 0
M  V30 371 H 38.3166 -0.621773 4.75048 0
M  V30 372 H 36.6806 -0.426254 2.51108 0
M  V30 373 H 37.4636 1.06639 3.26318 0
M  V30 374 N 39.9087 -1.5758 0.0250728 0
M  V30 375 C 41.3197 -1.79476 -0.514323 0
M  V30 376 C 41.6707 -0.934956 -1.72491 0
M  V30 377 O 40.7957 -0.144245 -2.15919 0
M  V30 378 C 41.3907 -3.25503 -0.939842 0
M  V30 379 C 39.9497 -3.48408 -1.42438 0
M  V30 380 C 39.0967 -2.74583 -0.387201 0
M  V30 381 H 42.0477 -1.567 0.25113 0
M  V30 382 H 42.0687 -3.34992 -1.80445 0
M  V30 383 H 41.5807 -3.88056 -0.0585628 0
M  V30 384 H 39.6817 -2.91103 -2.32572 0
M  V30 385 H 39.7947 -4.57119 -1.43455 0
M  V30 386 H 38.1587 -2.39942 -0.854409 0
M  V30 387 H 38.9417 -3.39849 0.485543 0
M  V30 388 N 41.3868 0.248026 -1.55636 0
M  V30 389 C 42.7978 0.817177 -1.67866 0
M  V30 390 C 43.1488 1.86069 -0.622322 0
M  V30 391 O 42.2738 2.15157 0.231618 0
M  V30 392 C 42.8688 1.489 -3.04326 0
M  V30 393 C 41.4278 2.00587 -3.185 0
M  V30 394 C 40.5748 0.856573 -2.63739 0
M  V30 395 H 43.5258 0.0238579 -1.58682 0
M  V30 396 H 43.5468 2.35698 -2.98708 0
M  V30 397 H 43.0588 0.729279 -3.81186 0
M  V30 398 H 41.1598 2.79443 -2.4646 0
M  V30 399 H 41.2728 2.20402 -4.25393 0
M  V30 400 H 39.6368 1.25678 -2.21534 0
M  V30 401 H 40.4198 0.109953 -3.43124 0
M  V30 402 N 42.8649 1.48995 0.513639 0
M  V30 403 C 43.7749 1.67443 1.64317 0
M  V30 404 C 44.7909 0.556947 1.64846 0
M  V30 405 O 45.9669 0.830082 1.83498 0
M  V30 406 C 43.0319 1.72515 3.00732 0
M  V30 407 C 42.0929 2.96009 3.1093 0
M  V30 408 C 41.3259 3.00829 4.40837 0
M  V30 409 O 41.5489 2.13594 5.28898 0
M  V30 410 O 40.4829 3.93168 4.55744 0
M  V30 411 H 44.3089 2.63106 1.51687 0
M  V30 412 H 41.8939 1.32588 0.688543 0
M  V30 413 H 43.7759 1.78277 3.81831 0
M  V30 414 H 42.4509 0.800278 3.13651 0
M  V30 415 H 41.3579 2.9577 2.29065 0
M  V30 416 H 42.6909 3.87934 3.02933 0
M  V30 417 N 44.343 -0.763751 1.37857 0
M  V30 418 C 45.253 -1.90817 1.36478 0
M  V30 419 C 46.269 -1.71997 0.263248 0
M  V30 420 O 47.445 -1.95095 0.499979 0
M  V30 421 C 44.51 -3.2605 1.17864 0
M  V30 422 C 43.571 -3.57467 2.3773 0
M  V30 423 C 42.804 -4.86249 2.19995 0
M  V30 424 O 43.027 -5.57884 1.18836 0
M  V30 425 O 41.961 -5.16911 3.08361 0
M  V30 426 H 45.787 -1.94933 2.32884 0
M  V30 427 H 43.372 -0.907619 1.1867 0
M  V30 428 H 45.254 -4.06924 1.09504 0
M  V30 429 H 43.929 -3.22769 0.245372 0
M  V30 430 H 42.836 -2.76796 2.51664 0
M  V30 431 H 44.169 -3.655 3.29652 0
M  V30 432 N 45.8211 -1.22559 -0.990812 0
M  V30 433 C 47.0981 -0.959875 -1.70428 0
M  V30 434 C 47.4781 0.524455 -2.04481 0
M  V30 435 O 46.8261 1.49302 -1.72977 0
M  V30 436 C 47.0361 -1.85955 -2.95333 0
M  V30 437 C 48.3841 -2.11687 -3.68068 0
M  V30 438 O 49.4081 -1.8342 -3.05345 0
M  V30 439 O 48.2671 -2.59572 -4.80921 0
M  V30 440 H 45.3611 -0.361154 -0.743974 0
M  V30 441 H 47.9071 -1.33554 -1.04697 0
M  V30 442 H 46.6791 -2.86346 -2.66687 0
M  V30 443 H 46.3021 -1.4856 -3.68803 0
M  V30 444 N 47.2992 1.18797 -1.03562 0
M  V30 445 C 48.7102 1.70322 -0.764676 0
M  V30 446 C 49.0612 1.82708 0.714996 0
M  V30 447 O 48.1862 1.50299 1.55689 0
M  V30 448 C 48.7812 3.09356 -1.38145 0
M  V30 449 C 47.3402 3.58114 -1.15895 0
M  V30 450 C 46.4872 2.34798 -1.4753 0
M  V30 451 H 49.4382 1.03543 -1.20268 0
M  V30 452 H 49.4592 3.72378 -0.781977 0
M  V30 453 H 48.9712 3.00309 -2.45837 0
M  V30 454 H 47.0722 3.72464 -0.100544 0
M  V30 455 H 47.1852 4.4184 -1.8524 0
M  V30 456 H 45.5492 2.38464 -0.894829 0
M  V30 457 H 46.3322 2.28375 -2.56319 0
M  V30 458 N 48.7773 0.814389 1.34928 0
M  V30 459 C 49.6873 0.231978 2.3345 0
M  V30 460 C 50.7033 -0.629139 1.62228 0
M  V30 461 O 51.8793 -0.539052 1.94052 0
M  V30 462 C 48.9443 -0.603482 3.41407 0
M  V30 463 C 48.0053 0.279037 4.28392 0
M  V30 464 C 47.2383 -0.516643 5.31193 0
M  V30 465 O 47.4613 -1.75068 5.4287 0
M  V30 466 O 46.3953 0.0965652 6.01823 0
M  V30 467 H 50.2213 1.04721 2.85074 0
M  V30 468 H 47.8063 0.576343 1.37836 0
M  V30 469 H 49.6883 -1.07908 4.0735 0
M  V30 470 H 48.3633 -1.39618 2.92042 0
M  V30 471 H 47.2703 0.801948 3.65403 0
M  V30 472 H 48.6033 1.03588 4.81176 0
M  V30 473 N 50.2554 -1.46986 0.568584 0
M  V30 474 C 51.1874 -2.28233 -0.210337 0
M  V30 475 C 52.2004 -1.37682 -0.868767 0
M  V30 476 O 53.3894 -1.62406 -0.740705 0
M  V30 477 C 50.4894 -3.12293 -1.3163 0
M  V30 478 C 49.6624 -4.30878 -0.7525 0
M  V30 479 C 48.7214 -4.96445 -1.74439 0
M  V30 480 O 47.7474 -5.54482 -1.286 0
M  V30 481 N 48.9494 -4.92171 -3.07812 0
M  V30 482 H 51.7144 -2.95723 0.486648 0
M  V30 483 H 49.2754 -1.56742 0.405409 0
M  V30 484 H 51.2674 -3.53022 -1.97883 0
M  V30 485 H 49.8374 -2.46971 -1.91636 0
M  V30 486 H 49.0574 -3.94104 0.0871128 0
M  V30 487 H 50.3454 -5.07558 -0.35536 0
M  V30 488 H 49.7434 -4.46239 -3.47688 0
M  V30 489 H 48.3004 -5.36884 -3.69592 0
M  V30 490 N 51.7335 -0.305618 -1.54608 0
M  V30 491 C 53.0105 0.355652 -1.92339 0
M  V30 492 C 53.3905 1.71324 -1.23335 0
M  V30 493 O 52.7385 2.25473 -0.370702 0
M  V30 494 C 52.9485 0.46572 -3.45879 0
M  V30 495 C 54.2965 0.734426 -4.182 0
M  V30 496 O 55.3205 0.54935 -3.51938 0
M  V30 497 O 54.1795 1.09024 -5.35515 0
M  V30 498 H 51.2735 0.199666 -0.802535 0
M  V30 499 H 53.8195 -0.354017 -1.65966 0
M  V30 500 H 52.5915 -0.488461 -3.88239 0
M  V30 501 H 52.2145 1.22367 -3.78301 0
M  V30 502 N 53.2116 1.57565 -0.0334293 0
M  V30 503 C 54.4366 1.96689 0.657895 0
M  V30 504 C 54.8616 0.910057 1.64619 0
M  V30 505 O 54.2196 -0.128598 1.80843 0
M  V30 506 C 54.2676 3.34905 1.33683 0
M  V30 507 O 53.3716 3.31574 2.45219 0
M  V30 508 H 52.7126 0.641205 0.172489 0
M  V30 509 H 55.2426 2.04372 -0.0965621 0
M  V30 510 H 55.2526 3.71234 1.69262 0
M  V30 511 H 53.9276 4.11366 0.612411 0
M  V30 512 H 52.5046 3.06968 2.11719 0
M  V30 513 N 54.6897 -0.239769 1.55765 0
M  V30 514 C 55.9377 -0.964892 1.77579 0
M  V30 515 C 56.2587 -1.85582 0.598699 0
M  V30 516 O 55.5287 -1.92075 -0.385226 0
M  V30 517 H 54.1087 -0.359265 0.654933 0
M  V30 518 H 56.7707 -0.256001 1.93211 0
M  V30 519 H 55.8667 -1.58243 2.69009 0
M  V30 520 N 56.1678 -1.49265 -0.50573 0
M  V30 521 C 57.5788 -1.51769 -1.08734 0
M  V30 522 C 57.9298 -0.301192 -1.93874 0
M  V30 523 O 57.0548 0.589456 -2.08217 0
M  V30 524 C 57.6498 -2.75017 -1.97867 0
M  V30 525 C 56.2088 -2.80314 -2.51199 0
M  V30 526 C 55.3558 -2.4562 -1.28709 0
M  V30 527 H 58.3068 -1.56031 -0.289855 0
M  V30 528 H 58.3278 -2.5491 -2.82491 0
M  V30 529 H 57.8398 -3.63539 -1.35873 0
M  V30 530 H 55.9408 -1.96061 -3.16845 0
M  V30 531 H 56.0538 -3.82366 -2.88675 0
M  V30 532 H 54.4178 -1.97297 -1.61078 0
M  V30 533 H 55.2008 -3.36411 -0.6843 0
M  V30 534 N 57.6459 0.756429 -1.3826 0
M  V30 535 C 58.5559 1.9009 -1.37488 0
M  V30 536 C 59.5719 1.71855 -0.272366 0
M  V30 537 O 60.7479 1.94827 -0.510318 0
M  V30 538 C 57.8129 3.25421 -1.19592 0
M  V30 539 C 56.8739 3.56202 -2.39622 0
M  V30 540 C 56.1069 4.85075 -2.2257 0
M  V30 541 O 56.3299 5.57246 -1.21793 0
M  V30 542 O 55.2639 5.15269 -3.11098 0
M  V30 543 H 59.0899 1.93695 -2.33914 0
M  V30 544 H 56.6749 0.901313 -1.1915 0
M  V30 545 H 58.5569 4.06337 -1.11661 0
M  V30 546 H 57.2319 3.22634 -0.262486 0
M  V30 547 H 56.1389 2.75458 -2.53128 0
M  V30 548 H 57.4719 3.63747 -3.31586 0
M  V30 549 N 59.124 1.23083 0.984299 0
M  V30 550 C 60.401 0.9689 1.69917 0
M  V30 551 C 60.781 -0.513604 2.04757 0
M  V30 552 O 60.129 -1.48383 1.73767 0
M  V30 553 C 60.339 1.87518 2.94343 0
M  V30 554 C 61.687 2.13636 3.6694 0
M  V30 555 O 62.711 1.85036 3.04368 0
M  V30 556 O 61.57 2.62119 4.79537 0
M  V30 557 H 58.664 0.365095 0.742048 0
M  V30 558 H 61.21 1.34107 1.03987 0
M  V30 559 H 59.982 2.87756 2.65164 0
M  V30 560 H 59.605 1.50514 3.6801 0
M  V30 561 N 60.6021 -1.18246 1.0419 0
M  V30 562 C 61.5321 -2.24127 0.654914 0
M  V30 563 C 62.5131 -1.66617 -0.342451 0
M  V30 564 O 63.6981 -1.92924 -0.222277 0
M  V30 565 C 60.8281 -3.47295 0.0183757 0
M  V30 566 C 59.7821 -4.17563 0.939414 0
M  V30 567 C 59.1081 -5.34438 0.167286 0
M  V30 568 C 60.4081 -4.70917 2.25908 0
M  V30 569 H 62.1021 -2.56753 1.54007 0
M  V30 570 H 59.6481 -1.23414 0.74195 0
M  V30 571 H 61.6011 -4.20572 -0.264082 0
M  V30 572 H 60.3251 -3.13907 -0.901664 0
M  V30 573 H 58.9841 -3.46186 1.20628 0
M  V30 574 H 58.6321 -4.97298 -0.7552 0
M  V30 575 H 58.3321 -5.82388 0.780901 0
M  V30 576 H 59.8561 -6.10504 -0.108125 0
M  V30 577 H 61.2701 -5.35882 2.03724 0
M  V30 578 H 59.6671 -5.29406 2.82577 0
M  V30 579 H 60.7371 -3.88272 2.9047 0
M  V30 580 N 62.0802 -0.821533 -1.34494 0
M  V30 581 C 63.4912 -0.467956 -1.8074 0
M  V30 582 C 63.8422 1.01151 -1.68116 0
M  V30 583 O 62.9672 1.78707 -1.22036 0
M  V30 584 C 63.5622 -0.842627 -3.28154 0
M  V30 585 C 62.1212 -0.541439 -3.72485 0
M  V30 586 C 61.2682 -1.06028 -2.56229 0
M  V30 587 H 64.2192 -1.01183 -1.22261 0
M  V30 588 H 64.2402 -0.145876 -3.8022 0
M  V30 589 H 63.7522 -1.91945 -3.37311 0
M  V30 590 H 61.8532 0.526034 -3.68868 0
M  V30 591 H 61.9662 -1.08453 -4.66663 0
M  V30 592 H 60.3302 -0.481892 -2.501 0
M  V30 593 H 61.1132 -2.14352 -2.68157 0
M  V30 594 N 63.5583 1.46682 -0.576371 0
M  V30 595 C 64.4883 2.33028 0.148397 0
M  V30 596 C 65.4693 1.44961 0.889956 0
M  V30 597 O 66.6543 1.73789 0.866662 0
M  V30 598 C 63.7843 3.27117 1.1667 0
M  V30 599 C 62.7383 4.24575 0.540386 0
M  V30 600 C 62.0643 5.08126 1.6647 0
M  V30 601 C 63.3643 5.19722 -0.518331 0
M  V30 602 H 65.0583 2.93875 -0.572509 0
M  V30 603 H 62.6043 1.41315 -0.276768 0
M  V30 604 H 64.5573 3.86374 1.68204 0
M  V30 605 H 63.2813 2.64364 1.9178 0
M  V30 606 H 61.9403 3.66571 0.0461769 0
M  V30 607 H 61.5883 4.41762 2.40531 0
M  V30 608 H 61.2883 5.74122 1.25131 0
M  V30 609 H 62.8123 5.70246 2.18293 0
M  V30 610 H 64.2263 5.73232 -0.0883058 0
M  V30 611 H 62.6233 5.94026 -0.851679 0
M  V30 612 H 63.6933 4.64037 -1.40703 0
M  V30 613 N 65.0364 0.313813 1.54444 0
M  V30 614 C 66.2824 -0.292108 2.00685 0
M  V30 615 C 66.6154 -1.52548 1.20177 0
M  V30 616 O 65.8904 -1.92452 0.281531 0
M  V30 617 C 66.1734 -0.635968 3.5444 0
M  V30 618 C 66.0264 0.607437 4.4568 0
M  V30 619 C 67.3454 -1.45747 4.15266 0
M  V30 620 H 64.4644 -0.104697 0.729526 0
M  V30 621 H 67.1064 0.428457 1.85106 0
M  V30 622 H 65.2564 -1.24986 3.67846 0
M  V30 623 H 66.9284 1.24581 4.44159 0
M  V30 624 H 65.1714 1.23822 4.15753 0
M  V30 625 H 65.8424 0.322515 5.51057 0
M  V30 626 H 68.3184 -0.938645 4.05375 0
M  V30 627 H 67.1944 -1.66683 5.2298 0
M  V30 628 H 67.4554 -2.45063 3.67963 0
M  V30 629 N 66.5145 -1.57545 0.0417849 0
M  V30 630 C 67.9305 -1.56467 -0.314704 0
M  V30 631 C 68.1305 -1.04859 -1.72066 0
M  V30 632 O 67.1865 -0.700983 -2.42575 0
M  V30 633 C 68.4995 -3.00317 -0.15174 0
M  V30 634 C 70.0475 -3.12201 -0.223553 0
M  V30 635 C 70.5225 -4.57913 -0.0892295 0
M  V30 636 N 72.0135 -4.6297 -0.145808 0
M  V30 637 C 72.7485 -5.73362 -0.0658459 0
M  V30 638 N 72.2445 -6.92769 0.0659282 0
M  V30 639 N 74.0375 -5.6197 -0.12075 0
M  V30 640 H 66.1885 -1.89416 0.961014 0
M  V30 641 H 68.4515 -0.871862 0.372237 0
M  V30 642 H 68.1575 -3.42073 0.817254 0
M  V30 643 H 68.0315 -3.65892 -0.916692 0
M  V30 644 H 70.4185 -2.70349 -1.18301 0
M  V30 645 H 70.4995 -2.49323 0.571994 0
M  V30 646 H 70.1435 -5.00448 0.866867 0
M  V30 647 H 70.0735 -5.18786 -0.903802 0
M  V30 648 H 72.5645 -3.7709 -0.247286 0
M  V30 649 H 72.8775 -7.72707 0.119905 0
M  V30 650 H 71.2225 -6.94927 0.100885 0
M  V30 651 H 74.4135 -4.67572 -0.222187 0
M  V30 652 H 74.5865 -6.47977 -0.0549735 0
M  V30 653 N 67.9926 0.231505 -1.5589 0
M  V30 654 C 68.9226 1.29022 -1.94617 0
M  V30 655 C 69.9036 1.4941 -0.813067 0
M  V30 656 O 71.0886 1.6176 -1.07459 0
M  V30 657 C 68.2186 2.64199 -2.25424 0
M  V30 658 C 67.1726 2.58484 -3.41131 0
M  V30 659 C 66.4986 3.97599 -3.57518 0
M  V30 660 C 67.7986 2.1413 -4.76388 0
M  V30 661 H 69.4926 0.968563 -2.83301 0
M  V30 662 H 67.0386 0.464479 -1.36303 0
M  V30 663 H 68.9916 3.38413 -2.51107 0
M  V30 664 H 67.7156 2.98032 -1.33583 0
M  V30 665 H 66.3746 1.86727 -3.15481 0
M  V30 666 H 66.0226 4.28723 -2.6307 0
M  V30 667 H 65.7226 3.94659 -4.35337 0
M  V30 668 H 67.2466 4.7349 -3.85538 0
M  V30 669 H 68.6606 2.78083 -5.01341 0
M  V30 670 H 67.0576 2.2227 -5.57419 0
M  V30 671 H 68.1276 1.09331 -4.72414 0
M  V30 672 N 69.4707 1.49531 0.497807 0
M  V30 673 C 70.3807 1.69176 1.62532 0
M  V30 674 C 71.3967 0.5744 1.64246 0
M  V30 675 O 72.5727 0.849497 1.82608 0
M  V30 676 C 69.6377 1.75695 2.98885 0
M  V30 677 C 68.6987 2.9929 3.07773 0
M  V30 678 C 67.9317 3.05488 4.37622 0
M  V30 679 O 68.1547 2.19192 5.26603 0
M  V30 680 O 67.0887 3.9798 4.51548 0
M  V30 681 H 70.9147 2.647 1.48887 0
M  V30 682 H 68.4997 1.3331 0.674441 0
M  V30 683 H 70.3817 1.82317 3.79919 0
M  V30 684 H 69.0567 0.8335 3.12785 0
M  V30 685 H 67.9637 2.98183 2.25915 0
M  V30 686 H 69.2967 3.91125 2.98801 0
M  V30 687 N 70.9488 -0.749086 1.3866 0
M  V30 688 C 72.1958 -1.50833 1.35114 0
M  V30 689 C 72.5238 -1.94415 -0.0574049 0
M  V30 690 O 71.7788 -1.66065 -1.03541 0
M  V30 691 C 72.0778 -2.7712 2.25697 0
M  V30 692 C 71.7438 -2.52477 3.73585 0
M  V30 693 C 70.4058 -2.45466 4.13884 0
M  V30 694 C 72.7578 -2.31066 4.67181 0
M  V30 695 C 70.0858 -2.15064 5.45861 0
M  V30 696 C 72.4378 -2.02183 5.9942 0
M  V30 697 C 71.1018 -1.93631 6.38798 0
M  V30 698 H 70.3718 -0.551936 0.494416 0
M  V30 699 H 73.0188 -0.860979 1.71054 0
M  V30 700 H 71.3238 -3.46528 1.82827 0
M  V30 701 H 73.0208 -3.35096 2.20254 0
M  V30 702 H 69.6108 -2.58807 3.41638 0
M  V30 703 H 73.7948 -2.35459 4.3689 0
M  V30 704 H 69.0508 -2.06954 5.75308 0
M  V30 705 H 73.2248 -1.8462 6.71482 0
M  V30 706 H 70.8518 -1.69839 7.40985 0
M  V30 707 N 72.4269 -1.23603 -0.977757 0
M  V30 708 C 73.3369 -1.03632 -2.1047 0
M  V30 709 C 74.3529 0.0199435 -1.73989 0
M  V30 710 O 75.5289 -0.176076 -2.00629 0
M  V30 711 C 72.5939 -0.63276 -3.40877 0
M  V30 712 C 71.6549 -1.76437 -3.91367 0
M  V30 713 C 70.8879 -1.37997 -5.15551 0
M  V30 714 O 71.1109 -0.265357 -5.69782 0
M  V30 715 O 70.0449 -2.20201 -5.60174 0
M  V30 716 H 73.8709 -1.98086 -2.30208 0
M  V30 717 H 71.4559 -1.02332 -1.08851 0
M  V30 718 H 73.3379 -0.418761 -4.19314 0
M  V30 719 H 72.0129 0.282754 -3.22463 0
M  V30 720 H 70.9199 -2.03304 -3.14036 0
M  V30 721 H 72.2529 -2.6583 -4.14241 0
M  V30 722 N 73.905 1.17692 -1.04816 0
M  V30 723 C 74.815 2.25229 -0.65643 0
M  V30 724 C 75.831 1.71018 0.320761 0
M  V30 725 O 77.007 2.00649 0.173805 0
M  V30 726 C 74.072 3.46684 -0.0332629 0
M  V30 727 C 73.133 4.15997 -1.06042 0
M  V30 728 C 72.366 5.31654 -0.466893 0
M  V30 729 O 72.589 5.65777 0.724758 0
M  V30 730 O 71.523 5.89831 -1.1993 0
M  V30 731 H 75.349 2.61016 -1.55255 0
M  V30 732 H 72.934 1.24919 -0.81949 0
M  V30 733 H 74.816 4.20234 0.313256 0
M  V30 734 H 73.491 3.12703 0.836566 0
M  V30 735 H 72.398 3.44482 -1.45886 0
M  V30 736 H 73.731 4.53996 -1.90127 0
M  V30 737 N 75.3831 0.828654 1.34056 0
M  V30 738 C 76.6111 0.43262 2.02326 0
M  V30 739 C 77.0261 -0.963147 1.62385 0
M  V30 740 O 76.3831 -1.62425 0.832121 0
M  V30 741 C 76.4341 0.53182 3.57567 0
M  V30 742 O 76.1551 1.87258 3.96063 0
M  V30 743 C 77.6561 0.131422 4.43105 0
M  V30 744 H 74.8761 0.172923 0.648335 0
M  V30 745 H 77.4201 1.1184 1.71208 0
M  V30 746 H 75.5751 -0.105938 3.87255 0
M  V30 747 H 75.9891 1.85087 4.90758 0
M  V30 748 H 77.4631 0.251904 5.51425 0
M  V30 749 H 77.9401 -0.925645 4.29335 0
M  V30 750 H 78.5461 0.743207 4.18756 0
M  V30 751 N 76.8612 -1.46375 0.584142 0
M  V30 752 C 77.7712 -2.34115 -0.150728 0
M  V30 753 C 78.7872 -1.49838 -0.884567 0
M  V30 754 O 79.9632 -1.82704 -0.847429 0
M  V30 755 C 77.0282 -3.2705 -1.15062 0
M  V30 756 C 76.0892 -4.27228 -0.421293 0
M  V30 757 C 75.3222 -5.15722 -1.37355 0
M  V30 758 O 75.5452 -5.07176 -2.61014 0
M  V30 759 O 74.4792 -5.95383 -0.883355 0
M  V30 760 H 78.3052 -2.98309 0.569708 0
M  V30 761 H 75.8902 -1.45373 0.344535 0
M  V30 762 H 77.7722 -3.84381 -1.72712 0
M  V30 763 H 76.4472 -2.65451 -1.8525 0
M  V30 764 H 75.3542 -3.7358 0.197085 0
M  V30 765 H 76.6872 -4.91616 0.239641 0
M  V30 766 N 78.3393 -0.321999 -1.54275 0
M  V30 767 C 79.2493 0.553631 -2.27974 0
M  V30 768 C 80.2653 1.13054 -1.32268 0
M  V30 769 O 81.4413 1.15084 -1.6528 0
M  V30 770 C 78.5063 1.69927 -3.02201 0
M  V30 771 C 77.5673 1.15433 -4.1349 0
M  V30 772 C 76.8003 2.24537 -4.84168 0
M  V30 773 O 77.0233 3.44852 -4.5435 0
M  V30 774 O 75.9573 1.90044 -5.7111 0
M  V30 775 H 79.7833 -0.0448345 -3.03667 0
M  V30 776 H 77.3683 -0.0877418 -1.49142 0
M  V30 777 H 79.2503 2.3663 -3.48689 0
M  V30 778 H 77.9253 2.28395 -2.29385 0
M  V30 779 H 76.8323 0.452436 -3.71354 0
M  V30 780 H 78.1653 0.614805 -4.88345 0
M  V30 781 N 79.8174 1.5752 -0.0501392 0
M  V30 782 C 81.2284 1.80271 0.485705 0
M  V30 783 C 81.5794 0.96228 1.70981 0
M  V30 784 O 80.7044 0.178578 2.15662 0
M  V30 785 C 81.2994 3.26957 0.887938 0
M  V30 786 C 79.8584 3.5063 1.36877 0
M  V30 787 C 79.0054 2.75165 0.343468 0
M  V30 788 H 81.9564 1.56281 -0.276028 0
M  V30 789 H 81.9774 3.37821 1.75093 0
M  V30 790 H 81.4894 3.881 -0.0031809 0
M  V30 791 H 79.5904 2.94766 2.27911 0
M  V30 792 H 79.7034 4.59343 1.36164 0
M  V30 793 H 78.0674 2.4127 0.816128 0
M  V30 794 H 78.8504 3.39034 -0.539548 0
M  V30 795 N 81.2955 -0.223234 1.56011 0
M  V30 796 C 82.5725 -0.972108 1.69733 0
M  V30 797 C 82.9525 -2.02485 0.59691 0
M  V30 798 O 82.3005 -2.25037 -0.396324 0
M  V30 799 C 82.5105 -1.58407 3.10979 0
M  V30 800 C 83.8585 -2.07696 3.70334 0
M  V30 801 O 84.8825 -1.68304 3.1393 0
M  V30 802 O 83.7415 -2.80096 4.69264 0
M  V30 803 H 80.8355 -0.453993 0.691245 0
M  V30 804 H 83.3815 -0.215149 1.68331 0
M  V30 805 H 82.1535 -0.823831 3.82529 0
M  V30 806 H 81.7765 -2.40661 3.16493 0
M  V30 807 N 82.7736 -1.49793 -0.48987 0
M  V30 808 C 84.0206 -1.59841 -1.24327 0
M  V30 809 C 84.3486 -0.290135 -1.92324 0
M  V30 810 O 83.6036 0.722749 -1.81865 0
M  V30 811 C 83.9026 -2.71488 -2.32441 0
M  V30 812 C 83.5686 -4.12614 -1.81826 0
M  V30 813 C 82.2306 -4.51017 -1.67742 0
M  V30 814 C 84.5826 -5.00892 -1.4407 0
M  V30 815 C 81.9106 -5.75459 -1.14297 0
M  V30 816 C 84.2626 -6.25863 -0.920742 0
M  V30 817 C 82.9266 -6.63086 -0.766383 0
M  V30 818 H 82.1966 -0.584899 -0.454944 0
M  V30 819 H 84.8436 -1.83663 -0.542215 0
M  V30 820 H 83.1486 -2.4168 -3.0838 0
M  V30 821 H 84.8456 -2.76469 -2.90458 0
M  V30 822 H 81.4356 -3.82307 -1.93751 0
M  V30 823 H 85.6196 -4.7187 -1.53794 0
M  V30 824 H 80.8756 -6.02989 -1.01068 0
M  V30 825 H 85.0496 -6.9364 -0.619448 0
M  V30 826 H 82.6766 -7.59393 -0.350083 0
M  V30 827 N 84.2517 0.741722 -1.39055 0
M  V30 828 C 85.4797 1.53098 -1.39171 0
M  V30 829 C 85.8947 1.88794 0.0155099 0
M  V30 830 O 85.2517 1.53626 0.985159 0
M  V30 831 C 85.3027 2.82274 -2.2584 0
M  V30 832 O 85.0237 2.48097 -3.61081 0
M  V30 833 C 86.5247 3.76343 -2.34266 0
M  V30 834 H 83.7447 0.473335 -0.4756 0
M  V30 835 H 86.2887 0.917045 -1.82785 0
M  V30 836 H 84.4437 3.40015 -1.85656 0
M  V30 837 H 84.8577 3.31029 -4.06842 0
M  V30 838 H 86.3317 4.63898 -2.9917 0
M  V30 839 H 86.8087 4.17619 -1.35982 0
M  V30 840 H 87.4147 3.24523 -2.74891 0
M  V30 841 N 85.7298 1.2412 0.971189 0
M  V30 842 C 86.6928 1.03156 2.04674 0
M  V30 843 C 87.6928 -0.00990322 1.60797 0
M  V30 844 O 88.8828 0.230729 1.72665 0
M  V30 845 C 86.0148 0.562765 3.36223 0
M  V30 846 H 87.2078 1.98614 2.24705 0
M  V30 847 H 84.7608 1.06293 1.14593 0
M  V30 848 H 85.4958 -0.395176 3.21883 0
M  V30 849 H 85.2808 1.31441 3.69413 0
M  V30 850 H 86.7708 0.437015 4.15307 0
M  V30 851 N 87.2079 -1.17134 1.05439 0
M  V30 852 C 88.1379 -2.2342 0.678649 0
M  V30 853 C 89.1189 -1.66971 -0.32476 0
M  V30 854 O 90.3039 -1.93149 -0.201802 0
M  V30 855 C 87.4339 -3.47256 0.0552099 0
M  V30 856 C 86.3879 -4.16543 0.98365 0
M  V30 857 C 85.7139 -5.34231 0.223961 0
M  V30 858 C 87.0139 -4.68495 2.3089 0
M  V30 859 H 88.7079 -2.55105 1.56722 0
M  V30 860 H 86.2539 -1.2262 0.754998 0
M  V30 861 H 88.2069 -4.20828 -0.21946 0
M  V30 862 H 86.9309 -3.14846 -0.868319 0
M  V30 863 H 85.5899 -3.44887 1.24293 0
M  V30 864 H 85.2379 -4.98071 -0.702412 0
M  V30 865 H 84.9379 -5.81527 0.842627 0
M  V30 866 H 86.4619 -6.10585 -0.0433671 0
M  V30 867 H 87.8759 -5.33691 2.09396 0
M  V30 868 H 86.2729 -5.26379 2.88176 0
M  V30 869 H 87.3429 -3.85169 2.94572 0
M  V30 870 N 88.686 -0.835752 -1.33615 0
M  V30 871 C 89.926 -0.43599 -1.99696 0
M  V30 872 C 90.29 0.98557 -1.64774 0
M  V30 873 O 91.491 1.48889 -2.23798 0
M  V30 874 C 89.762 -0.646721 -3.515 0
M  V30 875 S 91.321 -0.341715 -4.37467 0
M  V30 876 H 88.139 -0.164136 -0.691795 0
M  V30 877 H 90.741 -1.08436 -1.62671 0
M  V30 878 H 89.445 -1.68077 -3.74404 0
M  V30 879 H 88.976 0.0159173 -3.93397 0
M  V30 880 H 90.991 0.839708 -4.89043 0
M  V30 881 N 90.1641 1.46063 -0.591896 0
M  V30 882 C 91.0961 2.28539 0.174001 0
M  V30 883 C 92.1091 1.39047 0.846753 0
M  V30 884 O 93.2981 1.63564 0.714774 0
M  V30 885 C 90.3981 3.14347 1.26645 0
M  V30 886 C 89.5711 4.32021 0.683856 0
M  V30 887 C 88.6301 4.99157 1.66518 0
M  V30 888 O 87.6561 5.56458 1.19763 0
M  V30 889 N 88.8581 4.97005 2.99943 0
M  V30 890 H 91.6231 2.94911 -0.533633 0
M  V30 891 H 89.1841 1.56077 -0.430294 0
M  V30 892 H 91.1761 3.56125 1.92242 0
M  V30 893 H 89.7461 2.49988 1.87682 0
M  V30 894 H 88.9661 3.93915 -0.1498 0
M  V30 895 H 90.2541 5.08059 0.274567 0
M  V30 896 H 89.6521 4.51714 3.40545 0
M  V30 897 H 88.2091 5.42696 3.61004 0
M  V30 898 N 91.6422 0.330177 1.54103 0
M  V30 899 C 92.5892 -0.532762 2.24567 0
M  V30 900 C 93.5592 -1.10635 1.23892 0
M  V30 901 O 94.7442 -1.14546 1.5259 0
M  V30 902 C 91.8842 -1.6845 3.01195 0
M  V30 903 C 90.9972 -1.13951 4.167 0
M  V30 904 C 90.1322 -2.25746 4.80845 0
M  V30 905 C 89.1712 -1.6853 5.88442 0
M  V30 906 N 88.3082 -2.74014 6.46421 0
M  V30 907 H 93.1482 0.0746905 2.97906 0
M  V30 908 H 90.6852 0.048632 1.4702 0
M  V30 909 H 92.6432 -2.36234 3.43874 0
M  V30 910 H 91.2732 -2.26314 2.30178 0
M  V30 911 H 90.3252 -0.35301 3.78758 0
M  V30 912 H 91.6372 -0.680892 4.94131 0
M  V30 913 H 90.7912 -3.01422 5.26526 0
M  V30 914 H 89.5302 -2.74947 4.0281 0
M  V30 915 H 88.5352 -0.913543 5.42157 0
M  V30 916 H 89.7602 -1.20198 6.68378 0
M  V30 917 H 87.7062 -3.22494 5.71256 0
M  V30 918 H 87.6232 -2.32735 7.19285 0
M  V30 919 H 88.8912 -3.49499 6.96757 0
M  V30 920 N 93.1203 -1.57491 0.0584922 0
M  V30 921 C 94.0503 -2.14988 -0.911178 0
M  V30 922 C 95.0313 -1.07343 -1.31952 0
M  V30 923 O 96.2163 -1.35318 -1.39294 0
M  V30 924 C 93.3463 -2.70078 -2.18347 0
M  V30 925 C 92.3003 -3.82771 -1.91495 0
M  V30 926 C 91.6263 -4.24408 -3.25241 0
M  V30 927 C 92.9263 -5.07592 -1.23075 0
M  V30 928 H 94.6203 -2.96263 -0.432246 0
M  V30 929 H 92.1663 -1.42512 -0.206469 0
M  V30 930 H 94.1193 -3.08943 -2.86587 0
M  V30 931 H 92.8433 -1.86005 -2.68458 0
M  V30 932 H 91.5023 -3.44389 -1.25664 0
M  V30 933 H 91.1503 -3.37275 -3.73168 0
M  V30 934 H 90.8503 -5.00366 -3.08071 0
M  V30 935 H 92.3743 -4.65879 -3.94701 0
M  V30 936 H 93.7883 -5.43857 -1.81362 0
M  V30 937 H 92.1853 -5.88741 -1.16207 0
M  V30 938 H 93.2553 -4.84454 -0.207847 0
M  V30 939 N 94.5984 0.214957 -1.56127 0
M  V30 940 C 95.5454 1.26642 -1.92952 0
M  V30 941 C 96.5154 1.46244 -0.78753 0
M  V30 942 O 97.7004 1.59704 -1.04399 0
M  V30 943 C 94.8404 2.6104 -2.25726 0
M  V30 944 C 93.9534 2.49183 -3.52891 0
M  V30 945 C 93.0884 3.76149 -3.7508 0
M  V30 946 C 92.1274 3.59041 -4.95738 0
M  V30 947 N 91.2644 4.77972 -5.14283 0
M  V30 948 H 96.1044 0.945384 -2.82607 0
M  V30 949 H 93.6414 0.455489 -1.3987 0
M  V30 950 H 95.5994 3.39313 -2.42739 0
M  V30 951 H 94.2294 2.91227 -1.39236 0
M  V30 952 H 93.2814 1.6231 -3.44034 0
M  V30 953 H 94.5934 2.32466 -4.41318 0
M  V30 954 H 93.7474 4.62865 -3.92226 0
M  V30 955 H 92.4864 3.95799 -2.84947 0
M  V30 956 H 91.4914 2.7071 -4.78535 0
M  V30 957 H 92.7164 3.40856 -5.87362 0
M  V30 958 H 90.6624 4.97923 -4.27093 0
M  V30 959 H 90.5794 4.64006 -5.96853 0
M  V30 960 H 91.8474 5.66096 -5.35869 0
M  V30 961 N 96.0765 1.50051 0.48192 0
M  V30 962 C 97.3255 1.59741 1.23149 0
M  V30 963 C 97.6385 0.298163 1.93314 0
M  V30 964 O 98.8445 0.273835 2.70116 0
M  V30 965 C 97.3005 2.81926 2.23708 0
M  V30 966 C 96.9085 4.18685 1.59396 0
M  V30 967 C 98.6525 3.00956 2.99375 0
M  V30 968 C 96.5595 5.3207 2.58178 0
M  V30 969 H 95.4895 0.594838 0.46334 0
M  V30 970 H 98.1405 1.76467 0.503169 0
M  V30 971 H 96.5225 2.58736 2.99786 0
M  V30 972 H 97.6965 4.52088 0.891811 0
M  V30 973 H 96.0115 4.05171 0.960503 0
M  V30 974 H 98.6085 3.82836 3.73283 0
M  V30 975 H 98.9515 2.12258 3.58123 0
M  V30 976 H 99.4845 3.24277 2.30411 0
M  V30 977 H 96.2235 6.22888 2.04184 0
M  V30 978 H 95.7435 5.03098 3.26577 0
M  V30 979 H 97.4225 5.62196 3.20225 0
M  V30 980 N 97.5546 -0.734337 1.39446 0
M  V30 981 C 98.9656 -1.31264 1.32766 0
M  V30 982 C 99.3166 -1.96198 -0.00767497 0
M  V30 983 O 98.4416 -1.96346 -0.909796 0
M  V30 984 C 99.0366 -2.38682 2.4045 0
M  V30 985 C 97.5956 -2.92184 2.37288 0
M  V30 986 C 96.7426 -1.6576 2.22304 0
M  V30 987 H 99.6936 -0.531799 1.49525 0
M  V30 988 H 99.7146 -3.19087 2.07276 0
M  V30 989 H 99.2266 -1.91392 3.37625 0
M  V30 990 H 97.3276 -3.43752 1.43754 0
M  V30 991 H 97.4406 -3.45253 3.3217 0
M  V30 992 H 95.8046 -1.9012 1.69489 0
M  V30 993 H 96.5876 -1.20521 3.21449 0
M  V30 994 N 99.0327 -1.24633 -0.964593 0
M  V30 995 C 100.31 -0.995809 -1.68354 0
M  V30 996 C 100.69 0.480964 -2.05548 0
M  V30 997 O 100.038 1.45599 -1.76105 0
M  V30 998 C 100.248 -1.92177 -2.91323 0
M  V30 999 C 101.596 -2.19446 -3.63495 0
M  V30 1000 O 102.62 -1.89855 -3.01386 0
M  V30 1001 O 101.479 -2.69714 -4.75307 0
M  V30 1002 H 98.5727 -0.376854 -0.736146 0
M  V30 1003 H 101.119 -1.35745 -1.0184 0
M  V30 1004 H 99.8907 -2.91938 -2.60553 0
M  V30 1005 H 99.5137 -1.56349 -3.65569 0
M  V30 1006 N 100.511 1.16574 -1.06058 0
M  V30 1007 C 101.461 2.18854 -0.63929 0
M  V30 1008 C 102.445 1.57505 0.328798 0
M  V30 1009 O 103.637 1.76408 0.144623 0
M  V30 1010 C 100.766 3.43291 -0.0247203 0
M  V30 1011 C 99.8518 4.11722 -1.01716 0
M  V30 1012 N 100.243 4.55841 -2.19186 0
M  V30 1013 C 98.5408 4.37872 -0.847569 0
M  V30 1014 C 99.2418 5.08751 -2.82042 0
M  V30 1015 N 98.2178 5.01489 -2.09784 0
M  V30 1016 H 102.02 2.5068 -1.53417 0
M  V30 1017 H 99.5338 1.32999 -0.931935 0
M  V30 1018 H 101.531 4.15856 0.294915 0
M  V30 1019 H 100.191 3.12954 0.865448 0
M  V30 1020 H 101.202 4.49649 -2.56975 0
M  V30 1021 H 97.8788 4.17499 -0.00918848 0
M  V30 1022 H 99.2688 5.52944 -3.81709 0
M  V30 1023 N 101.989 0.842826 1.3317 0
M  V30 1024 C 103.235 0.441099 1.97945 0
M  V30 1025 C 103.568 -0.998024 1.66593 0
M  V30 1026 O 102.843 -1.69839 0.947898 0
M  V30 1027 C 103.126 0.666841 3.53872 0
M  V30 1028 C 102.979 2.15352 3.94897 0
M  V30 1029 C 104.298 0.115544 4.39948 0
M  V30 1030 H 101.417 0.161739 0.719034 0
M  V30 1031 H 104.059 1.05907 1.57746 0
M  V30 1032 H 102.209 0.140828 3.88245 0
M  V30 1033 H 103.881 2.7447 3.70761 0
M  V30 1034 H 102.124 2.63653 3.44484 0
M  V30 1035 H 102.795 2.26221 5.03516 0
M  V30 1036 H 105.271 0.565213 4.12243 0
M  V30 1037 H 104.147 0.303152 5.48062 0
M  V30 1038 H 104.408 -0.980935 4.3108 0
M  V30 1039 N 103.467 -1.45747 0.599634 0
M  V30 1040 C 104.883 -1.57424 0.26264 0
M  V30 1041 C 105.083 -1.59222 -1.23493 0
M  V30 1042 O 104.139 -1.51825 -2.01756 0
M  V30 1043 C 105.452 -2.86061 0.926795 0
M  V30 1044 C 107 -2.99722 0.901967 0
M  V30 1045 C 107.475 -4.31119 1.54598 0
M  V30 1046 N 108.966 -4.37858 1.5111 0
M  V30 1047 C 109.701 -5.3818 1.97863 0
M  V30 1048 N 109.197 -6.45083 2.52666 0
M  V30 1049 N 110.99 -5.29487 1.88679 0
M  V30 1050 H 103.141 -1.42823 1.57211 0
M  V30 1051 H 105.404 -0.68235 0.658105 0
M  V30 1052 H 105.11 -2.90605 1.98095 0
M  V30 1053 H 104.984 -3.74563 0.445238 0
M  V30 1054 H 107.371 -2.9475 -0.143617 0
M  V30 1055 H 107.452 -2.12652 1.42171 0
M  V30 1056 H 107.096 -4.36849 2.59085 0
M  V30 1057 H 107.026 -5.16992 1.00132 0
M  V30 1058 H 109.517 -3.61209 1.11068 0
M  V30 1059 H 109.83 -7.17869 2.86155 0
M  V30 1060 H 108.175 -6.45856 2.56701 0
M  V30 1061 H 111.366 -4.44877 1.4561 0
M  V30 1062 H 111.539 -6.07524 2.25429 0
M  V30 1063 N 104.945 -0.338344 -1.53925 0
M  V30 1064 C 105.855 0.529421 -2.28548 0
M  V30 1065 C 106.871 1.11645 -1.3346 0
M  V30 1066 O 108.047 1.13325 -1.66492 0
M  V30 1067 C 105.112 1.66713 -3.03987 0
M  V30 1068 C 104.173 1.11041 -4.14691 0
M  V30 1069 C 103.406 2.19389 -4.86522 0
M  V30 1070 O 103.629 3.40013 -4.57982 0
M  V30 1071 O 102.563 1.83976 -5.73094 0
M  V30 1072 H 106.389 -0.0770399 -3.03602 0
M  V30 1073 H 103.974 -0.103555 -1.49041 0
M  V30 1074 H 105.856 2.32918 -3.5118 0
M  V30 1075 H 104.531 2.25949 -2.31794 0
M  V30 1076 H 103.438 0.413024 -3.71813 0
M  V30 1077 H 104.771 0.562975 -4.8897 0
M  V30 1078 N 106.423 1.57458 -0.0668435 0
M  V30 1079 C 107.839 1.56947 0.289772 0
M  V30 1080 C 108.039 1.07584 1.70376 0
M  V30 1081 O 107.095 0.739486 2.41429 0
M  V30 1082 C 108.408 3.0052 0.103943 0
M  V30 1083 C 109.956 3.12517 0.173857 0
M  V30 1084 C 110.431 4.57997 0.0163682 0
M  V30 1085 N 111.922 4.63144 0.0721352 0
M  V30 1086 C 112.657 5.73394 -0.0253794 0
M  V30 1087 N 112.153 6.92576 -0.176133 0
M  V30 1088 N 113.946 5.62091 0.0313305 0
M  V30 1089 H 106.097 1.87863 -0.991027 0
M  V30 1090 H 108.36 0.86583 -0.38606 0
M  V30 1091 H 108.066 3.40729 -0.871572 0
M  V30 1092 H 107.94 3.67304 0.858366 0
M  V30 1093 H 110.327 2.72197 1.13985 0
M  V30 1094 H 110.408 2.48381 -0.611586 0
M  V30 1095 H 110.052 4.99005 -0.946374 0
M  V30 1096 H 109.982 5.20158 0.821153 0
M  V30 1097 H 112.473 3.77436 0.187263 0
M  V30 1098 H 112.786 7.72418 -0.242821 0
M  V30 1099 H 111.131 6.94678 -0.211429 0
M  V30 1100 H 114.322 4.67867 0.147773 0
M  V30 1101 H 114.495 6.47982 -0.048121 0
M  V30 1102 N 107.901 -0.206675 1.56239 0
M  V30 1103 C 108.864 -1.23976 1.92776 0
M  V30 1104 C 109.864 -1.39041 0.807729 0
M  V30 1105 O 111.054 -1.37051 1.0753 0
M  V30 1106 C 108.186 -2.61112 2.19165 0
M  V30 1107 H 109.379 -0.927764 2.85189 0
M  V30 1108 H 106.932 -0.447718 1.4975 0
M  V30 1109 H 107.667 -2.97386 1.29352 0
M  V30 1110 H 107.452 -2.51552 3.00772 0
M  V30 1111 H 108.942 -3.35633 2.48476 0
M  V30 1112 N 109.379 -1.50304 -0.473955 0
M  V30 1113 C 110.625 -1.62358 -1.22521 0
M  V30 1114 C 110.98 -0.318555 -1.89745 0
M  V30 1115 O 110.273 0.683315 -1.79001 0
M  V30 1116 C 110.467 -2.73938 -2.29549 0
M  V30 1117 C 110.296 -4.15165 -1.72825 0
M  V30 1118 C 109.066 -4.81604 -1.52924 0
M  V30 1119 C 111.264 -4.99503 -1.22481 0
M  V30 1120 N 109.246 -6.07056 -0.91413 0
M  V30 1121 C 110.617 -6.15655 -0.732743 0
M  V30 1122 C 112.672 -4.85299 -1.11308 0
M  V30 1123 C 111.375 -7.19164 -0.139976 0
M  V30 1124 C 113.401 -5.88982 -0.534258 0
M  V30 1125 C 112.763 -7.0438 -0.0525562 0
M  V30 1126 H 108.862 -0.648286 -0.437321 0
M  V30 1127 H 111.446 -1.87413 -0.527692 0
M  V30 1128 H 109.617 -2.50611 -2.9673 0
M  V30 1129 H 111.349 -2.75366 -2.96573 0
M  V30 1130 H 108.104 -4.3885 -1.78067 0
M  V30 1131 H 108.528 -6.74108 -0.625071 0
M  V30 1132 H 113.17 -3.96369 -1.47144 0
M  V30 1133 H 110.888 -8.07771 0.230591 0
M  V30 1134 H 114.474 -5.80055 -0.450219 0
M  V30 1135 H 113.354 -7.83238 0.388324 0
M  V30 1136 N 110.857 0.726932 -1.39834 0
M  V30 1137 C 111.787 1.85405 -1.41941 0
M  V30 1138 C 112.768 1.67751 -0.281728 0
M  V30 1139 O 113.953 1.8795 -0.488717 0
M  V30 1140 C 111.083 3.23243 -1.2701 0
M  V30 1141 C 110.037 3.55549 -2.38262 0
M  V30 1142 C 109.363 4.9241 -2.08415 0
M  V30 1143 C 110.663 3.577 -3.80589 0
M  V30 1144 H 112.357 1.83899 -2.36266 0
M  V30 1145 H 109.903 0.883349 -1.13723 0
M  V30 1146 H 111.856 4.01775 -1.27103 0
M  V30 1147 H 110.58 3.25296 -0.291564 0
M  V30 1148 H 109.239 2.79351 -2.37399 0
M  V30 1149 H 108.887 4.91052 -1.0898 0
M  V30 1150 H 108.587 5.14992 -2.82943 0
M  V30 1151 H 110.111 5.73289 -2.10171 0
M  V30 1152 H 111.525 4.26293 -3.83337 0
M  V30 1153 H 109.922 3.91804 -4.54543 0
M  V30 1154 H 110.992 2.57328 -4.10987 0
M  V30 1155 N 112.336 1.25143 0.95797 0
M  V30 1156 C 113.564 1.12424 1.73691 0
M  V30 1157 C 113.979 -0.322304 1.86029 0
M  V30 1158 O 113.336 -1.22186 1.35561 0
M  V30 1159 C 113.387 1.76933 3.15241 0
M  V30 1160 O 113.108 3.15932 3.03511 0
M  V30 1161 C 114.609 1.6995 4.09429 0
M  V30 1162 H 111.829 0.3923 0.544373 0
M  V30 1163 H 114.373 1.6544 1.20207 0
M  V30 1164 H 112.528 1.27895 3.6568 0
M  V30 1165 H 112.942 3.47598 3.9278 0
M  V30 1166 H 114.416 2.19753 5.06372 0
M  V30 1167 H 114.893 0.662619 4.34173 0
M  V30 1168 H 115.499 2.18461 3.64904 0
M  V30 1169 N 113.814 -1.1601 1.06675 0
M  V30 1170 C 115.06 -1.87145 0.796766 0
M  V30 1171 C 115.415 -1.8037 -0.669658 0
M  V30 1172 O 114.708 -1.21116 -1.48463 0
M  V30 1173 C 114.902 -3.35547 1.23057 0
M  V30 1174 C 114.731 -3.56769 2.73762 0
M  V30 1175 C 113.501 -3.72635 3.41279 0
M  V30 1176 C 115.699 -3.55166 3.7197 0
M  V30 1177 N 113.681 -3.81845 4.80695 0
M  V30 1178 C 115.052 -3.70406 4.97191 0
M  V30 1179 C 117.107 -3.384 3.65226 0
M  V30 1180 C 115.81 -3.70615 6.16471 0
M  V30 1181 C 117.836 -3.39904 4.83962 0
M  V30 1182 C 117.198 -3.55667 6.08013 0
M  V30 1183 H 113.297 -0.702267 0.344014 0
M  V30 1184 H 115.881 -1.39165 1.36166 0
M  V30 1185 H 114.052 -3.82159 0.693456 0
M  V30 1186 H 115.784 -3.94363 0.908844 0
M  V30 1187 H 112.539 -3.73121 2.91681 0
M  V30 1188 H 112.963 -3.90209 5.53232 0
M  V30 1189 H 117.605 -3.25138 2.70269 0
M  V30 1190 H 115.323 -3.82658 7.11757 0
M  V30 1191 H 118.909 -3.28169 4.80413 0
M  V30 1192 H 117.789 -3.56755 6.98352 0
M  V30 1193 N 115.292 -0.849877 -1.32721 0
M  V30 1194 C 116.202 -0.293791 -2.32753 0
M  V30 1195 C 117.218 0.585906 -1.63839 0
M  V30 1196 O 118.394 0.487413 -1.95413 0
M  V30 1197 C 115.459 0.512752 -3.42887 0
M  V30 1198 C 114.52 -0.39252 -4.27502 0
M  V30 1199 C 113.753 0.375625 -5.32377 0
M  V30 1200 O 113.976 1.60613 -5.4732 0
M  V30 1201 O 112.91 -0.256094 -6.01355 0
M  V30 1202 H 116.736 -1.12242 -2.82197 0
M  V30 1203 H 114.321 -0.612685 -1.36259 0
M  V30 1204 H 116.203 0.970704 -4.10067 0
M  V30 1205 H 114.878 1.31826 -2.95641 0
M  V30 1206 H 113.785 -0.898547 -3.63149 0
M  V30 1207 H 115.118 -1.16309 -4.7826 0
M  V30 1208 N 116.77 1.45427 -0.607355 0
M  V30 1209 C 117.717 2.3053 0.111625 0
M  V30 1210 C 118.687 1.4209 0.860216 0
M  V30 1211 O 119.872 1.71019 0.845998 0
M  V30 1212 C 117.012 3.26992 1.10319 0
M  V30 1213 C 116.125 4.30535 0.355493 0
M  V30 1214 C 115.26 5.14105 1.33676 0
M  V30 1215 C 114.299 6.09376 0.576862 0
M  V30 1216 N 113.436 6.85727 1.5074 0
M  V30 1217 H 118.276 2.91477 -0.620093 0
M  V30 1218 H 115.813 1.43631 -0.317594 0
M  V30 1219 H 117.771 3.81385 1.6912 0
M  V30 1220 H 116.401 2.67799 1.80232 0
M  V30 1221 H 115.453 3.78805 -0.348023 0
M  V30 1222 H 116.765 4.98235 -0.237423 0
M  V30 1223 H 115.919 5.72897 1.99684 0
M  V30 1224 H 114.658 4.46423 1.9636 0
M  V30 1225 H 113.663 5.49715 -0.0968519 0
M  V30 1226 H 114.888 6.79085 -0.0449341 0
M  V30 1227 H 112.834 6.20735 2.12189 0
M  V30 1228 H 112.751 7.49778 0.967913 0
M  V30 1229 H 114.019 7.4906 2.15706 0
M  V30 1230 N 118.248 0.346503 1.53744 0
M  V30 1231 C 119.494 -0.249473 2.0126 0
M  V30 1232 C 119.827 -1.49965 1.23386 0
M  V30 1233 O 119.102 -1.91811 0.32229 0
M  V30 1234 C 119.385 -0.560643 3.55709 0
M  V30 1235 C 119.238 0.701836 4.44291 0
M  V30 1236 C 120.557 -1.36905 4.18264 0
M  V30 1237 H 117.676 -0.0891987 0.731582 0
M  V30 1238 H 120.318 0.467624 1.84156 0
M  V30 1239 H 118.468 -1.17156 3.70414 0
M  V30 1240 H 120.14 1.33974 4.41417 0
M  V30 1241 H 118.383 1.32612 4.13033 0
M  V30 1242 H 119.054 0.43933 5.50249 0
M  V30 1243 H 121.53 -0.852448 4.07275 0
M  V30 1244 H 120.406 -1.55553 5.26398 0
M  V30 1245 H 120.667 -2.37203 3.73078 0
M  V30 1246 N 119.726 -1.57421 0.075193 0
M  V30 1247 C 120.951 -1.98364 -0.605515 0
M  V30 1248 C 121.376 -0.953383 -1.62149 0
M  V30 1249 O 120.734 0.0806053 -1.81121 0
M  V30 1250 C 120.782 -3.38332 -1.24756 0
M  V30 1251 O 119.886 -3.37959 -2.36342 0
M  V30 1252 H 119.227 -0.645553 -0.155428 0
M  V30 1253 H 121.757 -2.04044 0.150714 0
M  V30 1254 H 121.767 -3.75591 -1.5936 0
M  V30 1255 H 120.442 -4.12846 -0.503129 0
M  V30 1256 H 119.019 -3.12474 -2.03506 0
M  V30 1257 N 121.204 0.198386 -1.56346 0
M  V30 1258 C 122.429 0.939682 -1.84891 0
M  V30 1259 C 122.854 1.76202 -0.658369 0
M  V30 1260 O 122.212 1.76993 0.392851 0
M  V30 1261 C 122.26 1.81428 -3.11635 0
M  V30 1262 O 121.364 2.91265 -2.91956 0
M  V30 1263 H 120.705 0.264807 -0.608912 0
M  V30 1264 H 123.235 0.204695 -2.03573 0
M  V30 1265 H 123.245 2.21958 -3.42343 0
M  V30 1266 H 121.92 1.21004 -3.97908 0
M  V30 1267 H 120.497 2.54514 -2.72538 0
M  V30 1268 N 122.682 1.50554 0.465978 0
M  V30 1269 C 123.928 1.62038 1.21949 0
M  V30 1270 C 124.261 0.322116 1.9151 0
M  V30 1271 O 123.536 -0.676723 1.82348 0
M  V30 1272 C 123.819 2.80421 2.25912 0
M  V30 1273 C 123.672 4.20144 1.60622 0
M  V30 1274 C 124.991 2.94354 3.27176 0
M  V30 1275 H 122.11 0.589752 0.441998 0
M  V30 1276 H 124.752 1.82956 0.51257 0
M  V30 1277 H 122.902 2.62717 2.86203 0
M  V30 1278 H 124.574 4.49449 1.03889 0
M  V30 1279 H 122.817 4.24165 0.909211 0
M  V30 1280 H 123.488 4.98914 2.36196 0
M  V30 1281 H 125.964 3.10578 2.76913 0
M  V30 1282 H 124.84 3.788 3.97242 0
M  V30 1283 H 125.101 2.05186 3.916 0
M  V30 1284 N 124.16 -0.719506 1.40217 0
M  V30 1285 C 125.437 -1.47221 1.28784 0
M  V30 1286 C 125.817 -2.10883 -0.0956067 0
M  V30 1287 O 125.165 -1.99833 -1.10811 0
M  V30 1288 C 125.375 -2.5111 2.42373 0
M  V30 1289 C 126.723 -3.17053 2.82423 0
M  V30 1290 O 127.747 -2.61429 2.41937 0
M  V30 1291 O 126.606 -4.17742 3.52355 0
M  V30 1292 H 123.7 -0.654491 0.50554 0
M  V30 1293 H 126.246 -0.752014 1.52128 0
M  V30 1294 H 125.018 -2.02556 3.34793 0
M  V30 1295 H 124.641 -3.3067 2.20778 0
M  V30 1296 N 125.638 -1.25649 -0.95132 0
M  V30 1297 C 126.886 -1.10375 -1.69298 0
M  V30 1298 C 127.207 0.355339 -1.91735 0
M  V30 1299 O 126.477 1.25188 -1.50681 0
M  V30 1300 H 125.057 -0.405461 -0.627384 0
M  V30 1301 H 127.719 -1.57823 -1.14358 0
M  V30 1302 H 126.815 -1.61465 -2.67087 0
M  V30 1303 N 127.117 1.15442 -1.07289 0
M  V30 1304 C 128.363 1.86489 -0.796846 0
M  V30 1305 C 128.696 1.82078 0.675371 0
M  V30 1306 O 127.971 1.24346 1.4956 0
M  V30 1307 C 128.254 3.35626 -1.30489 0
M  V30 1308 C 128.107 3.48673 -2.84161 0
M  V30 1309 C 129.426 4.30357 -0.920907 0
M  V30 1310 H 126.545 0.677144 -0.290939 0
M  V30 1311 H 129.187 1.35633 -1.33056 0
M  V30 1312 H 127.337 3.79068 -0.850883 0
M  V30 1313 H 129.009 3.14099 -3.37846 0
M  V30 1314 H 127.252 2.90253 -3.22391 0
M  V30 1315 H 127.923 4.53453 -3.14777 0
M  V30 1316 H 130.399 3.94871 -1.3121 0
M  V30 1317 H 129.275 5.33193 -1.30372 0
M  V30 1318 H 129.536 4.4176 0.173226 0
M  V30 1319 N 128.595 0.856903 1.32268 0
M  V30 1320 C 129.525 0.31858 2.31316 0
M  V30 1321 C 130.506 -0.583487 1.59779 0
M  V30 1322 O 131.691 -0.503259 1.87566 0
M  V30 1323 C 128.821 -0.491979 3.43798 0
M  V30 1324 C 127.775 0.315849 4.26833 0
M  V30 1325 C 127.101 -0.619586 5.31098 0
M  V30 1326 C 128.401 1.54282 4.98993 0
M  V30 1327 H 130.095 1.14621 2.76591 0
M  V30 1328 H 127.641 0.552613 1.32974 0
M  V30 1329 H 129.594 -0.879012 4.1213 0
M  V30 1330 H 128.318 -1.35299 2.97257 0
M  V30 1331 H 126.977 0.684664 3.6015 0
M  V30 1332 H 126.625 -1.47751 4.8081 0
M  V30 1333 H 126.325 -0.0830621 5.87541 0
M  V30 1334 H 127.849 -1.00375 6.02293 0
M  V30 1335 H 129.263 1.22796 5.59995 0
M  V30 1336 H 127.66 2.01745 5.65172 0
M  V30 1337 H 128.73 2.30285 4.26728 0
M  V30 1338 N 130.073 -1.45103 0.615059 0
M  V30 1339 C 131.321 -2.01784 0.112955 0
M  V30 1340 C 131.642 -1.48504 -1.26378 0
M  V30 1341 O 130.912 -0.682245 -1.83636 0
M  V30 1342 H 129.492 -0.745993 0.0387668 0
M  V30 1343 H 132.154 -1.77808 0.798141 0
M  V30 1344 H 131.25 -3.12025 0.0684069 0
M  V30 1345 N 131.551 -0.354651 -1.53558 0
M  V30 1346 C 132.799 0.237972 -2.00694 0
M  V30 1347 C 133.12 1.50173 -1.24391 0
M  V30 1348 O 132.39 1.92673 -0.354135 0
M  V30 1349 H 130.97 0.0909256 -0.741446 0
M  V30 1350 H 133.632 -0.478368 -1.88938 0
M  V30 1351 H 132.728 0.47264 -3.085 0
M  V30 1352 N 133.029 1.57378 -0.0835403 0
M  V30 1353 C 134.259 1.97975 0.590713 0
M  V30 1354 C 134.667 0.961083 1.62972 0
M  V30 1355 O 134.01 -0.0590879 1.83605 0
M  V30 1356 C 134.072 3.34915 1.3066 0
M  V30 1357 C 133.736 4.55069 0.419698 0
M  V30 1358 C 134.733 5.18868 -0.32749 0
M  V30 1359 C 132.418 5.0114 0.341137 0
M  V30 1360 C 134.412 6.27098 -1.14134 0
M  V30 1361 C 132.099 6.0924 -0.476374 0
M  V30 1362 C 133.097 6.72083 -1.21627 0
M  V30 1363 O 132.785 7.781 -2.02028 0
M  V30 1364 H 132.517 0.655818 0.163947 0
M  V30 1365 H 135.071 2.04807 -0.156021 0
M  V30 1366 H 133.301 3.24733 2.09966 0
M  V30 1367 H 134.99 3.60037 1.87424 0
M  V30 1368 H 135.756 4.84211 -0.276459 0
M  V30 1369 H 131.635 4.51996 0.90668 0
M  V30 1370 H 135.179 6.7608 -1.71935 0
M  V30 1371 H 131.076 6.43329 -0.528927 0
M  V30 1372 H 131.844 7.95034 -1.94586 0
M  V30 1373 N 134.507 -0.190092 1.56449 0
M  V30 1374 C 135.756 -0.907912 1.80111 0
M  V30 1375 C 136.069 -1.84214 0.657619 0
M  V30 1376 O 137.275 -2.60094 0.778663 0
M  V30 1377 C 135.731 -1.66485 3.19078 0
M  V30 1378 C 135.339 -0.7752 4.41242 0
M  V30 1379 C 137.083 -2.37201 3.52045 0
M  V30 1380 C 134.99 -1.53129 5.71231 0
M  V30 1381 H 133.92 -0.34276 0.671589 0
M  V30 1382 H 136.571 -0.161109 1.82791 0
M  V30 1383 H 134.953 -2.45572 3.10661 0
M  V30 1384 H 136.127 -0.0226298 4.60794 0
M  V30 1385 H 134.442 -0.178627 4.16017 0
M  V30 1386 H 137.039 -2.94329 4.46402 0
M  V30 1387 H 137.382 -3.11632 2.76028 0
M  V30 1388 H 137.915 -1.65075 3.61932 0
M  V30 1389 H 134.654 -0.82967 6.50228 0
M  V30 1390 H 134.174 -2.25767 5.55688 0
M  V30 1391 H 135.853 -2.08377 6.12526 0
M  V30 1392 N 135.985 -1.50799 -0.457987 0
M  V30 1393 C 136.917 -1.66786 -1.57211 0
M  V30 1394 C 137.93 -0.548962 -1.53265 0
M  V30 1395 O 139.119 -0.8226 -1.58416 0
M  V30 1396 C 136.219 -1.64834 -2.96113 0
M  V30 1397 C 135.392 -2.92971 -3.24787 0
M  V30 1398 C 134.451 -2.83485 -4.43309 0
M  V30 1399 O 133.477 -3.5744 -4.42973 0
M  V30 1400 N 134.679 -1.97929 -5.45714 0
M  V30 1401 H 137.444 -2.62889 -1.43909 0
M  V30 1402 H 135.005 -1.48427 -0.646617 0
M  V30 1403 H 136.997 -1.56084 -3.7339 0
M  V30 1404 H 135.567 -0.764118 -3.03117 0
M  V30 1405 H 134.787 -3.15749 -2.36 0
M  V30 1406 H 136.075 -3.77834 -3.40762 0
M  V30 1407 H 135.473 -1.37182 -5.48815 0
M  V30 1408 H 134.03 -1.95073 -6.21924 0
M  V30 1409 N 137.463 0.71206 -1.40597 0
M  V30 1410 C 138.41 1.82613 -1.41142 0
M  V30 1411 C 139.38 1.63925 -0.267903 0
M  V30 1412 O 140.565 1.85009 -0.466495 0
M  V30 1413 C 137.705 3.20354 -1.28324 0
M  V30 1414 C 136.818 3.50589 -2.52411 0
M  V30 1415 C 135.953 4.77855 -2.32009 0
M  V30 1416 C 134.992 5.01005 -3.51654 0
M  V30 1417 N 134.129 6.19487 -3.30425 0
M  V30 1418 H 138.969 1.81482 -2.36365 0
M  V30 1419 H 136.506 0.886475 -1.17388 0
M  V30 1420 H 138.464 3.99899 -1.18899 0
M  V30 1421 H 137.094 3.20705 -0.367189 0
M  V30 1422 H 136.146 2.65573 -2.72351 0
M  V30 1423 H 137.458 3.63604 -3.41458 0
M  V30 1424 H 136.612 5.65424 -2.19956 0
M  V30 1425 H 135.351 4.67056 -1.40392 0
M  V30 1426 H 134.356 4.1189 -3.64179 0
M  V30 1427 H 135.581 5.13674 -4.44202 0
M  V30 1428 H 133.527 6.09932 -2.41494 0
M  V30 1429 H 133.444 6.33194 -4.13039 0
M  V30 1430 H 134.712 7.09834 -3.22113 0
M  V30 1431 N 138.941 1.26152 0.944643 0
M  V30 1432 C 139.888 1.07408 2.04285 0
M  V30 1433 C 140.858 -0.0198413 1.66088 0
M  V30 1434 O 142.043 0.139264 1.90291 0
M  V30 1435 C 139.183 0.70945 3.37729 0
M  V30 1436 C 138.296 1.87926 3.88983 0
M  V30 1437 C 137.431 1.45807 5.10797 0
M  V30 1438 C 136.47 2.5964 5.54305 0
M  V30 1439 N 135.607 2.18226 6.67324 0
M  V30 1440 H 140.447 2.01389 2.1965 0
M  V30 1441 H 137.984 1.00275 1.07626 0
M  V30 1442 H 139.942 0.478948 4.14442 0
M  V30 1443 H 138.572 -0.193389 3.2222 0
M  V30 1444 H 137.624 2.22279 3.08701 0
M  V30 1445 H 138.936 2.73377 4.17213 0
M  V30 1446 H 138.09 1.18781 5.94959 0
M  V30 1447 H 136.829 0.574414 4.84305 0
M  V30 1448 H 135.834 2.87399 4.68702 0
M  V30 1449 H 137.059 3.48599 5.828 0
M  V30 1450 H 135.005 1.3229 6.42523 0
M  V30 1451 H 134.922 2.97221 6.95123 0
M  V30 1452 H 136.19 1.94403 7.54869 0
M  V30 1453 N 140.419 -1.14872 1.07899 0
M  V30 1454 C 141.366 -2.19791 0.704319 0
M  V30 1455 C 142.336 -1.63238 -0.306987 0
M  V30 1456 O 143.521 -1.8983 -0.192171 0
M  V30 1457 C 140.661 -3.44911 0.114244 0
M  V30 1458 C 139.774 -4.15637 1.1777 0
M  V30 1459 C 138.909 -5.28324 0.552037 0
M  V30 1460 C 137.948 -5.90875 1.59789 0
M  V30 1461 N 137.085 -6.95022 0.994404 0
M  V30 1462 H 141.925 -2.5119 1.60336 0
M  V30 1463 H 139.462 -1.23356 0.801352 0
M  V30 1464 H 141.42 -4.16477 -0.245544 0
M  V30 1465 H 140.05 -3.14011 -0.74813 0
M  V30 1466 H 139.102 -3.42512 1.65499 0
M  V30 1467 H 140.414 -4.5823 1.97046 0
M  V30 1468 H 139.568 -6.06538 0.1402 0
M  V30 1469 H 138.307 -4.86939 -0.272431 0
M  V30 1470 H 137.312 -5.11369 2.01945 0
M  V30 1471 H 138.537 -6.34337 2.42474 0
M  V30 1472 H 136.483 -6.55722 0.190939 0
M  V30 1473 H 136.4 -7.36073 1.72432 0
M  V30 1474 H 137.668 -7.77123 0.608253 0
M  V30 1475 N 141.898 -0.863906 -1.31812 0
M  V30 1476 C 142.808 -0.318461 -2.32428 0
M  V30 1477 C 143.824 0.568496 -1.64451 0
M  V30 1478 O 145 0.46666 -1.95919 0
M  V30 1479 C 142.065 0.476355 -3.43412 0
M  V30 1480 C 141.126 -0.43784 -4.27061 0
M  V30 1481 C 140.359 0.319138 -5.32745 0
M  V30 1482 O 140.582 1.54799 -5.48993 0
M  V30 1483 O 139.516 -0.319861 -6.01049 0
M  V30 1484 H 143.342 -1.15229 -2.80991 0
M  V30 1485 H 140.927 -0.627103 -1.35602 0
M  V30 1486 H 142.809 0.927156 -4.11074 0
M  V30 1487 H 141.484 1.28683 -2.97022 0
M  V30 1488 H 140.391 -0.937013 -3.62175 0
M  V30 1489 H 141.724 -1.21375 -4.77 0
M  V30 1490 N 143.376 1.44774 -0.622745 0
M  V30 1491 C 144.306 2.33382 0.0741861 0
M  V30 1492 C 145.287 1.47719 0.843387 0
M  V30 1493 O 146.472 1.76458 0.810934 0
M  V30 1494 C 143.602 3.30663 1.06204 0
M  V30 1495 C 142.556 4.26079 0.405037 0
M  V30 1496 C 141.882 5.13165 1.5022 0
M  V30 1497 C 143.182 5.1781 -0.683414 0
M  V30 1498 H 144.876 2.91905 -0.665713 0
M  V30 1499 H 142.422 1.40363 -0.321587 0
M  V30 1500 H 144.375 3.9153 1.55827 0
M  V30 1501 H 143.099 2.70331 1.83272 0
M  V30 1502 H 141.758 3.66532 -0.0704683 0
M  V30 1503 H 141.406 4.49191 2.26355 0
M  V30 1504 H 141.106 5.77812 1.06803 0
M  V30 1505 H 142.63 5.76902 2.00041 0
M  V30 1506 H 144.044 5.72661 -0.270631 0
M  V30 1507 H 142.441 5.91015 -1.04023 0
M  V30 1508 H 143.511 4.59326 -1.55395 0
M  V30 1509 N 144.854 0.36279 1.53368 0
M  V30 1510 C 146.1 -0.220702 2.02199 0
M  V30 1511 C 146.455 -1.46649 1.24546 0
M  V30 1512 O 145.748 -1.88737 0.32996 0
M  V30 1513 C 145.942 -0.568417 3.52851 0
M  V30 1514 C 145.771 0.642126 4.45092 0
M  V30 1515 C 144.541 1.15335 4.91961 0
M  V30 1516 C 146.739 1.50649 4.91741 0
M  V30 1517 N 144.721 2.3242 5.68202 0
M  V30 1518 C 146.092 2.52404 5.66297 0
M  V30 1519 C 148.147 1.52969 4.73819 0
M  V30 1520 C 146.85 3.56331 6.24836 0
M  V30 1521 C 148.876 2.55789 5.33222 0
M  V30 1522 C 148.238 3.56268 6.07662 0
M  V30 1523 H 144.337 -0.0435508 0.780786 0
M  V30 1524 H 146.921 0.506704 1.87991 0
M  V30 1525 H 145.092 -1.2649 3.67226 0
M  V30 1526 H 146.824 -1.13676 3.88407 0
M  V30 1527 H 143.579 0.718412 4.68119 0
M  V30 1528 H 144.003 2.91591 6.10986 0
M  V30 1529 H 148.645 0.766418 4.15795 0
M  V30 1530 H 146.363 4.33543 6.81958 0
M  V30 1531 H 149.949 2.58435 5.21251 0
M  V30 1532 H 148.829 4.34524 6.52808 0
M  V30 1533 N 146.332 -1.57332 0.0918853 0
M  V30 1534 C 147.58 -1.93853 -0.571446 0
M  V30 1535 C 147.901 -0.974212 -1.6892 0
M  V30 1536 O 147.171 -0.0257254 -1.95883 0
M  V30 1537 H 145.751 -0.715666 -0.214082 0
M  V30 1538 H 148.413 -1.94287 0.154464 0
M  V30 1539 H 147.509 -2.96191 -0.983729 0
M  V30 1540 N 147.81 0.181792 -1.56548 0
M  V30 1541 C 149.059 0.898348 -1.8059 0
M  V30 1542 C 149.372 1.83862 -0.667379 0
M  V30 1543 O 150.578 2.59678 -0.792446 0
M  V30 1544 C 149.034 1.64791 -3.19956 0
M  V30 1545 C 148.642 0.751789 -4.41647 0
M  V30 1546 C 150.386 2.35331 -3.53298 0
M  V30 1547 C 148.293 1.50098 -5.72035 0
M  V30 1548 H 147.223 0.339194 -0.673397 0
M  V30 1549 H 149.874 0.151413 -1.82874 0
M  V30 1550 H 148.256 2.43921 -3.11959 0
M  V30 1551 H 149.43 -0.0018076 -4.608 0
M  V30 1552 H 147.745 0.156562 -4.16106 0
M  V30 1553 H 150.342 2.91958 -4.47956 0
M  V30 1554 H 150.685 3.10164 -2.77676 0
M  V30 1555 H 151.218 1.63154 -3.62803 0
M  V30 1556 H 147.957 0.795175 -6.50659 0
M  V30 1557 H 147.477 2.22817 -5.56878 0
M  V30 1558 H 149.156 2.05125 -6.13622 0
M  V30 1559 N 149.288 1.51039 0.449983 0
M  V30 1560 C 150.528 1.64732 1.21007 0
M  V30 1561 C 150.892 0.349865 1.88785 0
M  V30 1562 O 152.093 0.362431 2.66345 0
M  V30 1563 C 150.364 2.80902 2.20973 0
M  V30 1564 S 151.923 3.14851 3.05638 0
M  V30 1565 H 148.741 0.5805 0.410538 0
M  V30 1566 H 151.343 1.88901 0.503634 0
M  V30 1567 H 150.047 3.73627 1.69796 0
M  V30 1568 H 149.578 2.58882 2.96215 0
M  V30 1569 H 151.593 2.60306 4.22439 0
M  V30 1570 N 150.766 -0.704594 1.40972 0
M  V30 1571 C 152.015 -1.46018 1.39146 0
M  V30 1572 C 152.328 -1.956 0.000589254 0
M  V30 1573 O 153.534 -2.71137 -0.1403 0
M  V30 1574 C 151.99 -2.63996 2.4461 0
M  V30 1575 C 151.598 -2.21238 3.89561 0
M  V30 1576 C 153.342 -3.41677 2.51907 0
M  V30 1577 C 151.249 -3.3612 4.86598 0
M  V30 1578 H 150.179 -0.548444 0.517422 0
M  V30 1579 H 152.83 -0.765784 1.66757 0
M  V30 1580 H 151.212 -3.3566 2.10115 0
M  V30 1581 H 152.386 -1.56923 4.33257 0
M  V30 1582 H 150.701 -1.56574 3.85841 0
M  V30 1583 H 153.298 -4.27182 3.2159 0
M  V30 1584 H 153.641 -3.86247 1.55303 0
M  V30 1585 H 154.174 -2.77064 2.85448 0
M  V30 1586 H 150.913 -2.96572 5.84573 0
M  V30 1587 H 150.433 -3.99315 4.47557 0
M  V30 1588 H 152.112 -4.02029 5.06934 0
M  V30 1589 N 152.244 -1.26651 -0.937939 0
M  V30 1590 C 153.491 -1.12387 -1.6845 0
M  V30 1591 C 153.819 0.332208 -1.91642 0
M  V30 1592 O 153.074 1.2602 -1.49725 0
M  V30 1593 C 153.373 -1.84168 -3.06295 0
M  V30 1594 C 153.039 -3.34056 -3.02849 0
M  V30 1595 C 151.701 -3.74942 -3.01616 0
M  V30 1596 C 154.053 -4.29741 -2.9491 0
M  V30 1597 C 151.381 -5.09894 -2.90215 0
M  V30 1598 C 153.733 -5.64738 -2.8505 0
M  V30 1599 C 152.397 -6.0493 -2.82162 0
M  V30 1600 H 151.667 -0.411252 -0.616403 0
M  V30 1601 H 154.314 -1.57134 -1.09459 0
M  V30 1602 H 152.619 -1.319 -3.6893 0
M  V30 1603 H 154.316 -1.70569 -3.62915 0
M  V30 1604 H 150.906 -3.01534 -3.0459 0
M  V30 1605 H 155.09 -3.99133 -2.94969 0
M  V30 1606 H 150.346 -5.40194 -2.86358 0
M  V30 1607 H 154.52 -6.38561 -2.77872 0
M  V30 1608 H 152.147 -7.09457 -2.73084 0
M  V30 1609 N 153.722 1.14298 -1.08507 0
M  V30 1610 C 154.971 1.84708 -0.810305 0
M  V30 1611 C 155.284 1.83903 0.666271 0
M  V30 1612 O 156.49 2.50112 1.05624 0
M  V30 1613 C 154.946 3.31572 -1.39957 0
M  V30 1614 C 154.554 3.40791 -2.90801 0
M  V30 1615 C 156.298 4.07087 -1.20334 0
M  V30 1616 C 154.205 4.81872 -3.4286 0
M  V30 1617 H 153.135 0.691985 -0.299454 0
M  V30 1618 H 155.786 1.28841 -1.30661 0
M  V30 1619 H 154.168 3.87183 -0.830976 0
M  V30 1620 H 155.342 2.95225 -3.53806 0
M  V30 1621 H 153.657 2.78732 -3.0935 0
M  V30 1622 H 156.254 5.11225 -1.56693 0
M  V30 1623 H 156.597 4.16054 -0.143237 0
M  V30 1624 H 157.13 3.57779 -1.73893 0
M  V30 1625 H 153.869 4.78094 -4.48449 0
M  V30 1626 H 153.389 5.27972 -2.84615 0
M  V30 1627 H 155.068 5.50765 -3.39509 0
M  V30 1628 N 155.201 0.870884 1.31352 0
M  V30 1629 C 156.164 0.332243 2.26779 0
M  V30 1630 C 157.164 -0.517302 1.52252 0
M  V30 1631 O 158.354 -0.326477 1.71113 0
M  V30 1632 C 155.486 -0.528066 3.36785 0
M  V30 1633 H 156.679 1.17469 2.75937 0
M  V30 1634 H 154.232 0.64655 1.423 0
M  V30 1635 H 154.967 -1.39167 2.92922 0
M  V30 1636 H 154.752 0.0802582 3.92018 0
M  V30 1637 H 156.242 -0.897179 4.07849 0
M  V30 1638 N 156.679 -1.44442 0.630414 0
M  V30 1639 C 157.642 -2.29107 -0.0652523 0
M  V30 1640 C 158.642 -1.41002 -0.772995 0
M  V30 1641 O 159.832 -1.62881 -0.617692 0
M  V30 1642 C 156.964 -3.22564 -1.10296 0
M  V30 1643 H 158.157 -2.92103 0.679401 0
M  V30 1644 H 155.71 -1.51343 0.390517 0
M  V30 1645 H 156.445 -2.64416 -1.87762 0
M  V30 1646 H 156.23 -3.87491 -0.59941 0
M  V30 1647 H 157.72 -3.86167 -1.5895 0
M  V30 1648 N 158.157 -0.370918 -1.53173 0
M  V30 1649 C 159.403 0.217423 -2.01631 0
M  V30 1650 C 159.736 1.47983 -1.25756 0
M  V30 1651 O 159.011 1.91274 -0.352764 0
M  V30 1652 C 159.294 0.503982 -3.56556 0
M  V30 1653 C 159.147 -0.77243 -4.43118 0
M  V30 1654 C 160.466 1.30234 -4.20389 0
M  V30 1655 H 157.585 0.0775486 -0.732909 0
M  V30 1656 H 160.227 -0.496863 -1.83388 0
M  V30 1657 H 158.377 1.11248 -3.72231 0
M  V30 1658 H 160.049 -1.4098 -4.39229 0
M  V30 1659 H 158.292 -1.39167 -4.10871 0
M  V30 1660 H 158.963 -0.526815 -5.4948 0
M  V30 1661 H 161.439 0.787546 -4.08579 0
M  V30 1662 H 160.315 1.47158 -5.28806 0
M  V30 1663 H 160.576 2.31237 -3.76805 0
M  V30 1664 N 159.635 1.57281 -0.100228 0
M  V30 1665 C 160.912 1.86014 0.604812 0
M  V30 1666 C 161.292 0.998025 1.86018 0
M  V30 1667 O 160.64 0.0718184 2.28387 0
M  V30 1668 C 160.85 3.36784 0.915278 0
M  V30 1669 C 162.198 4.04957 1.27651 0
M  V30 1670 O 163.222 3.41695 1.00613 0
M  V30 1671 O 162.081 5.16593 1.7831 0
M  V30 1672 H 159.175 0.76942 0.303185 0
M  V30 1673 H 161.721 1.69176 -0.133313 0
M  V30 1674 H 160.493 3.91292 0.0248896 0
M  V30 1675 H 160.116 3.58987 1.70921 0
M  V30 1676 N 161.113 -0.173488 1.56642 0
M  V30 1677 C 162.043 -1.2171 1.99271 0
M  V30 1678 C 163.024 -1.46289 0.867959 0
M  V30 1679 O 164.209 -1.5766 1.13388 0
M  V30 1680 C 161.339 -2.55651 2.35074 0
M  V30 1681 C 160.293 -2.45645 3.50489 0
M  V30 1682 C 159.619 -3.84056 3.72028 0
M  V30 1683 C 160.919 -1.96302 4.84007 0
M  V30 1684 H 162.613 -0.86275 2.867 0
M  V30 1685 H 160.159 -0.413571 1.37933 0
M  V30 1686 H 162.112 -3.2886 2.63494 0
M  V30 1687 H 160.836 -2.92869 1.44552 0
M  V30 1688 H 159.495 -1.7489 3.22194 0
M  V30 1689 H 159.143 -4.18664 2.788 0
M  V30 1690 H 158.843 -3.7823 4.49684 0
M  V30 1691 H 160.367 -4.58854 4.02846 0
M  V30 1692 H 161.781 -2.59284 5.11317 0
M  V30 1693 H 160.178 -2.01429 5.65284 0
M  V30 1694 H 161.248 -0.917226 4.76146 0
M  V30 1695 N 162.591 -1.51276 -0.441967 0
M  V30 1696 C 163.868 -1.54252 -1.20273 0
M  V30 1697 C 164.248 -0.30408 -2.08898 0
M  V30 1698 O 163.596 0.711084 -2.17154 0
M  V30 1699 C 163.806 -2.85406 -2.00859 0
M  V30 1700 C 165.154 -3.37181 -2.58059 0
M  V30 1701 O 166.178 -2.86925 -2.11074 0
M  V30 1702 O 165.037 -4.24858 -3.43741 0
M  V30 1703 H 162.131 -0.619969 -0.547328 0
M  V30 1704 H 164.677 -1.63586 -0.451413 0
M  V30 1705 H 163.449 -3.67003 -1.35736 0
M  V30 1706 H 163.072 -2.79213 -2.83065 0
M  V30 1707 N 164.069 0.697108 -1.41344 0
M  V30 1708 C 164.979 1.84088 -1.45427 0
M  V30 1709 C 165.995 1.70545 -0.34501 0
M  V30 1710 O 167.171 1.92488 -0.592492 0
M  V30 1711 C 164.236 3.20056 -1.33286 0
M  V30 1712 C 163.297 3.45718 -2.54514 0
M  V30 1713 C 162.53 4.75199 -2.42944 0
M  V30 1714 O 162.753 5.51579 -1.45318 0
M  V30 1715 O 161.687 5.0161 -3.32672 0
M  V30 1716 H 165.513 1.836 -2.41919 0
M  V30 1717 H 163.098 0.849966 -1.22866 0
M  V30 1718 H 164.98 4.01236 -1.28794 0
M  V30 1719 H 163.655 3.2123 -0.39909 0
M  V30 1720 H 162.562 2.64474 -2.64583 0
M  V30 1721 H 163.895 3.49356 -3.46715 0
M  V30 1722 N 165.547 1.27147 0.931209 0
M  V30 1723 C 166.48 1.0389 2.0318 0
M  V30 1724 C 167.458 -0.0395716 1.62552 0
M  V30 1725 O 168.642 0.104867 1.88208 0
M  V30 1726 C 165.769 0.575227 3.3378 0
M  V30 1727 C 164.815 1.64774 3.93385 0
M  V30 1728 S 165.648 3.23933 4.26413 0
M  V30 1729 C 166.804 2.79358 5.60098 0
M  V30 1730 H 167.037 1.97075 2.22596 0
M  V30 1731 H 164.57 1.10938 1.07387 0
M  V30 1732 H 166.528 0.314385 4.09294 0
M  V30 1733 H 165.189 -0.336505 3.12292 0
M  V30 1734 H 164.382 1.27454 4.87618 0
M  V30 1735 H 163.984 1.86048 3.24441 0
M  V30 1736 H 166.276 2.24443 6.39243 0
M  V30 1737 H 167.219 3.72322 6.02314 0
M  V30 1738 H 167.627 2.1861 5.20452 0
M  V30 1739 N 167.025 -1.13721 1.09112 0
M  V30 1740 C 168.25 -1.89314 0.847053 0
M  V30 1741 C 168.675 -1.78416 -0.595774 0
M  V30 1742 O 168.033 -1.12942 -1.41823 0
M  V30 1743 C 168.081 -3.3701 1.28284 0
M  V30 1744 O 167.185 -4.10054 0.439267 0
M  V30 1745 H 166.526 -0.588745 0.307044 0
M  V30 1746 H 169.056 -1.43902 1.45442 0
M  V30 1747 H 169.066 -3.87834 1.26683 0
M  V30 1748 H 167.741 -3.4426 2.33363 0
M  V30 1749 H 166.318 -3.69266 0.519312 0
M  V30 1750 N 168.503 -0.877838 -1.30888 0
M  V30 1751 C 169.75 -0.492696 -1.96415 0
M  V30 1752 C 170.078 0.956671 -1.69346 0
M  V30 1753 O 169.333 1.68993 -0.986913 0
M  V30 1754 C 169.632 -0.705748 -3.50363 0
M  V30 1755 C 169.298 -2.1291 -3.97467 0
M  V30 1756 C 167.96 -2.51834 -4.1004 0
M  V30 1757 C 170.312 -3.05702 -4.22132 0
M  V30 1758 C 167.64 -3.82775 -4.44635 0
M  V30 1759 C 169.992 -4.36166 -4.58194 0
M  V30 1760 C 168.656 -4.74993 -4.68975 0
M  V30 1761 H 167.926 -0.18029 -0.718733 0
M  V30 1762 H 170.573 -1.11233 -1.55883 0
M  V30 1763 H 168.878 -0.00303058 -3.918 0
M  V30 1764 H 170.575 -0.387456 -3.99124 0
M  V30 1765 H 167.165 -1.81694 -3.88182 0
M  V30 1766 H 171.349 -2.76853 -4.11906 0
M  V30 1767 H 166.605 -4.12609 -4.51181 0
M  V30 1768 H 170.779 -5.08111 -4.76231 0
M  V30 1769 H 168.406 -5.76495 -4.95537 0
M  V30 1770 N 169.982 1.44106 -0.638065 0
M  V30 1771 C 171.21 2.06336 -0.152615 0
M  V30 1772 C 171.625 1.47731 1.17563 0
M  V30 1773 O 170.982 0.602806 1.72257 0
M  V30 1774 C 171.033 3.61479 -0.0391491 0
M  V30 1775 O 170.754 4.17903 -1.31487 0
M  V30 1776 C 172.255 4.40757 0.474176 0
M  V30 1777 H 169.475 0.665862 -0.0828776 0
M  V30 1778 H 172.019 1.84862 -0.87443 0
M  V30 1779 H 170.174 3.82191 0.633142 0
M  V30 1780 H 170.588 5.11416 -1.16421 0
M  V30 1781 H 172.062 5.49707 0.502562 0
M  V30 1782 H 172.539 4.12697 1.50258 0
M  V30 1783 H 173.145 4.24979 -0.165102 0
M  V30 1784 N 171.46 0.379036 1.52974 0
M  V30 1785 C 172.707 -0.206421 2.01445 0
M  V30 1786 C 173.035 -1.47668 1.26587 0
M  V30 1787 O 172.29 -1.92514 0.351675 0
M  V30 1788 C 172.589 -0.53096 3.53434 0
M  V30 1789 C 172.255 0.646546 4.46241 0
M  V30 1790 C 170.917 0.969604 4.7133 0
M  V30 1791 C 173.269 1.43479 5.01062 0
M  V30 1792 C 170.597 2.08263 5.48492 0
M  V30 1793 C 172.949 2.53834 5.7944 0
M  V30 1794 C 171.613 2.86659 6.02812 0
M  V30 1795 H 170.883 -0.0755349 0.73714 0
M  V30 1796 H 173.53 0.514271 1.84465 0
M  V30 1797 H 171.835 -1.33285 3.68432 0
M  V30 1798 H 173.532 -0.996417 3.88423 0
M  V30 1799 H 170.122 0.384734 4.2687 0
M  V30 1800 H 174.306 1.19844 4.81613 0
M  V30 1801 H 169.562 2.34078 5.64816 0
M  V30 1802 H 173.736 3.15319 6.20924 0
M  V30 1803 H 171.363 3.73026 6.62387 0
M  V30 1804 N 172.938 -1.57226 0.108567 0
M  V30 1805 C 174.166 -1.99179 -0.559954 0
M  V30 1806 C 174.581 -0.988022 -1.60884 0
M  V30 1807 O 173.938 0.0205512 -1.82488 0
M  V30 1808 C 173.989 -3.41159 -1.19552 0
M  V30 1809 O 173.71 -4.37694 -0.188577 0
M  V30 1810 C 175.211 -3.98188 -1.94837 0
M  V30 1811 H 172.431 -0.654228 -0.149088 0
M  V30 1812 H 174.975 -2.03598 0.19183 0
M  V30 1813 H 173.13 -3.37711 -1.89815 0
M  V30 1814 H 173.544 -5.20469 -0.649014 0
M  V30 1815 H 175.018 -4.99644 -2.34648 0
M  V30 1816 H 175.495 -3.3675 -2.81951 0
M  V30 1817 H 176.101 -4.0515 -1.2936 0
M  V30 1818 N 174.416 0.165178 -1.56732 0
M  V30 1819 C 175.326 1.22423 -2.00125 0
M  V30 1820 C 176.342 1.48084 -0.913619 0
M  V30 1821 O 177.518 1.60112 -1.22172 0
M  V30 1822 C 174.583 2.54197 -2.35764 0
M  V30 1823 C 173.644 2.36343 -3.58386 0
M  V30 1824 C 172.877 3.61834 -3.92316 0
M  V30 1825 O 173.1 4.67267 -3.27135 0
M  V30 1826 O 172.034 3.55579 -4.85641 0
M  V30 1827 H 175.86 0.885886 -2.90492 0
M  V30 1828 H 173.445 0.372518 -1.44681 0
M  V30 1829 H 175.327 3.3192 -2.59629 0
M  V30 1830 H 174.002 2.87598 -1.48557 0
M  V30 1831 H 172.909 1.56632 -3.39731 0
M  V30 1832 H 174.242 2.07865 -4.46154 0
M  V30 1833 N 175.894 1.51508 0.433938 0
M  V30 1834 C 176.824 1.76016 1.53429 0
M  V30 1835 C 177.805 0.610112 1.58782 0
M  V30 1836 O 178.99 0.853177 1.74455 0
M  V30 1837 C 176.12 1.88831 2.9148 0
M  V30 1838 C 175.074 3.04288 3.00987 0
M  V30 1839 C 174.4 3.0229 4.4105 0
M  V30 1840 C 175.7 4.44193 2.74754 0
M  V30 1841 H 177.394 2.68152 1.33171 0
M  V30 1842 H 174.94 1.29035 0.639214 0
M  V30 1843 H 176.893 2.04559 3.6842 0
M  V30 1844 H 175.617 0.933455 3.12976 0
M  V30 1845 H 174.276 2.8827 2.26486 0
M  V30 1846 H 173.924 2.04576 4.59519 0
M  V30 1847 H 173.624 3.79822 4.4834 0
M  V30 1848 H 175.148 3.20116 5.1996 0
M  V30 1849 H 176.562 4.60544 3.41426 0
M  V30 1850 H 174.959 5.23457 2.9345 0
M  V30 1851 H 176.029 4.53996 1.70339 0
M  V30 1852 N 177.372 -0.689602 1.41712 0
M  V30 1853 C 178.304 -1.815 1.39966 0
M  V30 1854 C 179.317 -1.59995 0.300917 0
M  V30 1855 O 180.506 -1.69387 0.563039 0
M  V30 1856 C 177.606 -3.18364 1.16179 0
M  V30 1857 C 176.779 -3.66847 2.38206 0
M  V30 1858 C 175.838 -4.82398 2.10186 0
M  V30 1859 O 174.864 -4.93706 2.83272 0
M  V30 1860 N 176.066 -5.70064 1.0958 0
M  V30 1861 H 178.831 -1.83488 2.36965 0
M  V30 1862 H 176.392 -0.872149 1.36401 0
M  V30 1863 H 178.384 -3.93301 0.953756 0
M  V30 1864 H 176.954 -3.11365 0.27756 0
M  V30 1865 H 176.174 -2.82751 2.74673 0
M  V30 1866 H 177.462 -3.95978 3.19498 0
M  V30 1867 H 176.86 -5.63565 0.491019 0
M  V30 1868 H 175.417 -6.44874 0.947656 0
M  V30 1869 N 178.85 -1.27639 -0.924453 0
M  V30 1870 C 179.797 -1.10644 -2.0255 0
M  V30 1871 C 180.767 -0.00658438 -1.66099 0
M  V30 1872 O 181.952 -0.16952 -1.90045 0
M  V30 1873 C 179.092 -0.76309 -3.36557 0
M  V30 1874 C 178.205 -1.94091 -3.85944 0
M  V30 1875 C 177.34 -1.53914 -5.08413 0
M  V30 1876 C 176.379 -2.68425 -5.50104 0
M  V30 1877 N 175.516 -2.28815 -6.63768 0
M  V30 1878 H 180.356 -2.04858 -2.16419 0
M  V30 1879 H 177.893 -1.01974 -1.06017 0
M  V30 1880 H 179.851 -0.544822 -4.13627 0
M  V30 1881 H 178.481 0.142102 -3.22487 0
M  V30 1882 H 177.533 -2.27162 -3.05125 0
M  V30 1883 H 178.845 -2.7998 -4.12811 0
M  V30 1884 H 177.999 -1.28231 -5.92994 0
M  V30 1885 H 176.738 -0.651391 -4.8333 0
M  V30 1886 H 175.743 -2.94819 -4.64071 0
M  V30 1887 H 176.968 -3.57826 -5.7718 0
M  V30 1888 H 174.914 -1.42495 -6.40337 0
M  V30 1889 H 174.831 -3.08242 -6.90306 0
M  V30 1890 H 176.099 -2.06387 -7.51681 0
M  V30 1891 N 180.328 1.1314 -1.09713 0
M  V30 1892 C 181.276 2.20717 -0.733934 0
M  V30 1893 C 182.27 1.6729 0.266506 0
M  V30 1894 O 183.476 1.79547 0.127656 0
M  V30 1895 H 179.851 0.719292 -0.21937 0
M  V30 1896 H 181.822 2.48611 -1.6503 0
M  V30 1897 C 180.571 3.47265 -0.173849 0
M  V30 1898 H 179.894 3.88716 -0.934873 0
M  V30 1899 H 181.334 4.23979 0.0423126 0
M  V30 1900 C 179.793 3.18724 1.09164 0
M  V30 1901 O 180.323 3.37762 2.17439 0
M  V30 1902 N 178.529 2.72583 1.00732 0
M  V30 1903 H 178.076 2.57291 0.126121 0
M  V30 1904 H 178.034 2.53862 1.85476 0
M  V30 1905 N 181.806 0.884767 1.30421 0
M  V30 1906 C 183.055 0.499164 1.95426 0
M  V30 1907 C 183.368 -0.95645 1.70621 0
M  V30 1908 O 184.574 -1.44889 2.29607 0
M  V30 1909 C 183.03 0.84177 3.49917 0
M  V30 1910 C 182.638 2.31514 3.83543 0
M  V30 1911 C 184.382 0.525355 4.21237 0
M  V30 1912 C 182.289 2.59939 5.31212 0
M  V30 1913 H 181.219 0.182944 0.73147 0
M  V30 1914 H 183.87 1.07971 1.48373 0
M  V30 1915 H 182.252 0.190311 3.95542 0
M  V30 1916 H 183.426 3.0109 3.48829 0
M  V30 1917 H 181.741 2.59907 3.25326 0
M  V30 1918 H 184.338 0.714762 5.29901 0
M  V30 1919 H 184.681 -0.535222 4.12845 0
M  V30 1920 H 185.214 1.134 3.81294 0
M  V30 1921 H 181.953 3.64736 5.44654 0
M  V30 1922 H 181.473 1.94972 5.67227 0
M  V30 1923 H 183.152 2.45429 5.98643 0
M  V30 1924 N 183.284 -1.43765 0.645699 0
M  V30 1925 C 184.194 -2.34544 -0.0512957 0
M  V30 1926 C 185.21 -1.53455 -0.82022 0
M  V30 1927 O 186.386 -1.86133 -0.769176 0
M  V30 1928 C 183.451 -3.31636 -1.01087 0
M  V30 1929 C 182.512 -4.2863 -0.239712 0
M  V30 1930 C 181.745 -5.21084 -1.15358 0
M  V30 1931 O 181.968 -5.1779 -2.39269 0
M  V30 1932 O 180.902 -5.98593 -0.630038 0
M  V30 1933 H 184.728 -2.95624 0.695718 0
M  V30 1934 H 182.313 -1.43781 0.405882 0
M  V30 1935 H 184.195 -3.9136 -1.56254 0
M  V30 1936 H 182.87 -2.73069 -1.73824 0
M  V30 1937 H 181.777 -3.72408 0.355356 0
M  V30 1938 H 183.11 -4.90157 0.447936 0
M  V30 1939 N 184.763 -0.387143 -1.52771 0
M  V30 1940 C 186.012 0.19697 -2.00736 0
M  V30 1941 C 186.325 1.48082 -1.27793 0
M  V30 1942 O 187.531 2.14485 -1.66458 0
M  V30 1943 C 185.987 0.401568 -3.57653 0
M  V30 1944 C 185.595 -0.868907 -4.39493 0
M  V30 1945 C 187.339 0.942164 -4.13912 0
M  V30 1946 C 185.246 -0.632705 -5.88006 0
M  V30 1947 H 184.176 0.0773827 -0.750019 0
M  V30 1948 H 186.827 -0.50921 -1.76293 0
M  V30 1949 H 185.209 1.16954 -3.78335 0
M  V30 1950 H 186.383 -1.64133 -4.30577 0
M  V30 1951 H 184.698 -1.33429 -3.94443 0
M  V30 1952 H 187.295 1.13455 -5.22525 0
M  V30 1953 H 187.638 1.9106 -3.69867 0
M  V30 1954 H 188.171 0.233814 -3.97112 0
M  V30 1955 H 184.91 -1.57208 -6.36369 0
M  V30 1956 H 184.43 0.100825 -5.99715 0
M  V30 1957 H 186.109 -0.26642 -6.46451 0
M  V30 1958 N 186.241 1.57166 -0.116904 0
M  V30 1959 C 187.466 1.999 0.55271 0
M  V30 1960 C 187.891 0.996039 1.59564 0
M  V30 1961 O 187.249 -0.032556 1.81271 0
M  V30 1962 C 187.297 3.4152 1.15742 0
M  V30 1963 O 186.401 3.44106 2.27299 0
M  V30 1964 H 185.742 0.649447 0.138258 0
M  V30 1965 H 188.272 2.03573 -0.204759 0
M  V30 1966 H 188.282 3.79684 1.49346 0
M  V30 1967 H 186.957 4.14034 0.393493 0
M  V30 1968 H 185.534 3.17759 1.9515 0
M  V30 1969 N 187.719 -0.156864 1.56817 0
M  V30 1970 C 188.965 -0.872416 1.83076 0
M  V30 1971 C 189.298 -1.81261 0.697001 0
M  V30 1972 O 188.573 -1.92171 -0.30008 0
M  V30 1973 C 188.856 -1.65551 3.19789 0
M  V30 1974 C 188.709 -0.737467 4.43713 0
M  V30 1975 C 190.028 -2.62012 3.53606 0
M  V30 1976 H 187.147 -0.315715 0.665953 0
M  V30 1977 H 189.789 -0.138004 1.89498 0
M  V30 1978 H 187.939 -2.28159 3.14445 0
M  V30 1979 H 189.611 -0.123143 4.61136 0
M  V30 1980 H 187.854 -0.0464067 4.33775 0
M  V30 1981 H 188.525 -1.32122 5.35955 0
M  V30 1982 H 191.001 -2.09525 3.59497 0
M  V30 1983 H 189.877 -3.13861 4.50314 0
M  V30 1984 H 190.138 -3.42902 2.79053 0
M  V30 1985 N 189.197 -1.51736 -0.425897 0
M  V30 1986 C 190.147 -1.70258 -1.51645 0
M  V30 1987 C 191.131 -0.556488 -1.5097 0
M  V30 1988 O 192.323 -0.812879 -1.5723 0
M  V30 1989 C 189.452 -1.84143 -2.89735 0
M  V30 1990 C 188.538 -3.04572 -2.95122 0
M  V30 1991 N 188.929 -4.2756 -2.70233 0
M  V30 1992 C 187.227 -3.04061 -3.26286 0
M  V30 1993 C 187.928 -5.08908 -2.81757 0
M  V30 1994 N 186.904 -4.43797 -3.13919 0
M  V30 1995 H 190.706 -2.63004 -1.31172 0
M  V30 1996 H 188.22 -1.4954 -0.633375 0
M  V30 1997 H 190.217 -1.95525 -3.68206 0
M  V30 1998 H 188.877 -0.925857 -3.1122 0
M  V30 1999 H 189.888 -4.56315 -2.44943 0
M  V30 2000 H 186.565 -2.22179 -3.53473 0
M  V30 2001 H 187.955 -6.16843 -2.66372 0
M  V30 2002 N 190.675 0.682077 -1.42076 0
M  V30 2003 C 191.622 1.79578 -1.44984 0
M  V30 2004 C 192.592 1.6332 -0.302614 0
M  V30 2005 O 193.777 1.83978 -0.505633 0
M  V30 2006 C 190.917 3.1756 -1.35091 0
M  V30 2007 C 190.03 3.45156 -2.59791 0
M  V30 2008 C 189.165 4.72826 -2.42093 0
M  V30 2009 C 188.204 4.93433 -3.62202 0
M  V30 2010 N 187.341 6.12338 -3.43491 0
M  V30 2011 H 192.181 1.76427 -2.40161 0
M  V30 2012 H 189.718 0.861376 -1.19242 0
M  V30 2013 H 191.676 3.97287 -1.27354 0
M  V30 2014 H 190.306 3.19854 -0.435133 0
M  V30 2015 H 189.358 2.59736 -2.77923 0
M  V30 2016 H 190.67 3.5628 -3.49094 0
M  V30 2017 H 189.824 5.60631 -2.319 0
M  V30 2018 H 188.563 4.63973 -1.50268 0
M  V30 2019 H 187.568 4.04073 -3.72834 0
M  V30 2020 H 188.793 5.04136 -4.54998 0
M  V30 2021 H 186.739 6.04672 -2.54377 0
M  V30 2022 H 186.656 6.2429 -4.26377 0
M  V30 2023 H 187.924 7.02841 -3.37097 0
M  V30 2024 N 192.153 1.28127 0.917671 0
M  V30 2025 C 193.4 1.15052 1.66641 0
M  V30 2026 C 193.728 -0.301677 1.92146 0
M  V30 2027 O 192.983 -1.23622 1.51711 0
M  V30 2028 C 193.282 1.89018 3.03327 0
M  V30 2029 C 192.948 3.38832 2.97496 0
M  V30 2030 C 191.61 3.79693 2.95613 0
M  V30 2031 C 193.962 4.34378 2.88036 0
M  V30 2032 C 191.29 5.14447 2.82066 0
M  V30 2033 C 193.642 5.69201 2.7603 0
M  V30 2034 C 192.306 6.09343 2.72502 0
M  V30 2035 H 191.576 0.421006 0.609783 0
M  V30 2036 H 194.223 1.58855 1.06945 0
M  V30 2037 H 192.528 1.37752 3.66785 0
M  V30 2038 H 194.225 1.76321 3.60156 0
M  V30 2039 H 190.815 3.06342 2.99754 0
M  V30 2040 H 194.999 4.03775 2.88581 0
M  V30 2041 H 190.255 5.44681 2.77728 0
M  V30 2042 H 194.429 6.42901 2.67678 0
M  V30 2043 H 192.056 7.13712 2.61762 0
M  V30 2044 N 193.631 -1.12557 1.10312 0
M  V30 2045 C 194.878 -1.84038 0.844759 0
M  V30 2046 C 195.206 -1.84026 -0.629668 0
M  V30 2047 O 194.461 -1.28026 -1.48013 0
M  V30 2048 C 194.76 -3.31462 1.33669 0
M  V30 2049 C 194.426 -3.51647 2.82232 0
M  V30 2050 C 193.088 -3.56864 3.22802 0
M  V30 2051 C 195.44 -3.58867 3.77974 0
M  V30 2052 C 192.768 -3.66844 4.57867 0
M  V30 2053 C 195.12 -3.70375 5.1284 0
M  V30 2054 C 193.784 -3.73848 5.52986 0
M  V30 2055 H 193.054 -0.673444 0.309119 0
M  V30 2056 H 195.701 -1.32824 1.37949 0
M  V30 2057 H 194.006 -3.85091 0.721949 0
M  V30 2058 H 195.703 -3.85236 1.11329 0
M  V30 2059 H 192.293 -3.48249 2.49842 0
M  V30 2060 H 196.477 -3.54107 3.47738 0
M  V30 2061 H 191.733 -3.67804 4.88396 0
M  V30 2062 H 195.907 -3.74904 5.86873 0
M  V30 2063 H 193.534 -3.81333 6.57639 0
M  V30 2064 N 195.109 -0.891671 -1.2995 0
M  V30 2065 C 196.057 -0.353066 -2.29905 0
M  V30 2066 C 197.051 0.543509 -1.60444 0
M  V30 2067 O 198.257 0.4272 -1.74857 0
M  V30 2068 H 194.632 -0.095531 -0.745907 0
M  V30 2069 H 196.603 -1.20961 -2.72784 0
M  V30 2070 C 195.352 0.411475 -3.45257 0
M  V30 2071 H 194.675 -0.269182 -3.98893 0
M  V30 2072 H 196.115 0.753328 -4.17254 0
M  V30 2073 C 194.574 1.6111 -2.9588 0
M  V30 2074 O 195.104 2.71045 -2.96475 0
M  V30 2075 N 193.31 1.45054 -2.51809 0
M  V30 2076 H 192.857 0.556175 -2.51524 0
M  V30 2077 H 192.815 2.25453 -2.1913 0
M  V30 2078 N 196.587 1.43421 -0.653314 0
M  V30 2079 C 197.517 2.33487 0.0246656 0
M  V30 2080 C 198.498 1.49475 0.811863 0
M  V30 2081 O 199.683 1.78139 0.773322 0
M  V30 2082 C 196.813 3.32841 0.99166 0
M  V30 2083 C 195.767 4.26842 0.314568 0
M  V30 2084 C 195.093 5.16236 1.39302 0
M  V30 2085 C 196.393 5.16243 -0.793095 0
M  V30 2086 H 198.087 2.90427 -0.727481 0
M  V30 2087 H 195.633 1.39649 -0.351287 0
M  V30 2088 H 197.586 3.94747 1.47487 0
M  V30 2089 H 196.31 2.74158 1.77497 0
M  V30 2090 H 194.969 3.663 -0.148199 0
M  V30 2091 H 194.617 4.53891 2.16776 0
M  V30 2092 H 194.317 5.79948 0.945223 0
M  V30 2093 H 195.841 5.81015 1.87759 0
M  V30 2094 H 197.255 5.71958 -0.392039 0
M  V30 2095 H 195.652 5.88676 -1.16536 0
M  V30 2096 H 196.722 4.55927 -1.65103 0
M  V30 2097 N 198.065 0.39524 1.52563 0
M  V30 2098 C 198.995 -0.428384 2.29537 0
M  V30 2099 C 199.976 -1.05831 1.33169 0
M  V30 2100 O 201.161 -1.06995 1.62067 0
M  V30 2101 C 198.291 -1.55274 3.10656 0
M  V30 2102 C 197.245 -1.04855 4.14957 0
M  V30 2103 C 196.571 -2.26543 4.84337 0
M  V30 2104 C 197.871 -0.112324 5.22179 0
M  V30 2105 H 199.565 0.213867 2.98635 0
M  V30 2106 H 197.111 0.104298 1.43622 0
M  V30 2107 H 199.064 -2.1358 3.63265 0
M  V30 2108 H 197.788 -2.22266 2.39302 0
M  V30 2109 H 196.447 -0.487985 3.63338 0
M  V30 2110 H 196.095 -2.92059 4.09525 0
M  V30 2111 H 195.795 -1.93466 5.54837 0
M  V30 2112 H 197.319 -2.85481 5.39753 0
M  V30 2113 H 198.733 -0.603752 5.70112 0
M  V30 2114 H 197.13 0.128968 5.99961 0
M  V30 2115 H 198.2 0.837052 4.77621 0
M  V30 2116 N 199.544 -1.57102 0.125237 0
M  V30 2117 C 200.491 -2.15641 -0.822655 0
M  V30 2118 C 201.461 -1.08313 -1.25927 0
M  V30 2119 O 202.646 -1.36251 -1.33567 0
M  V30 2120 C 199.786 -2.76504 -2.06494 0
M  V30 2121 C 198.899 -3.98158 -1.67612 0
M  V30 2122 C 198.034 -4.47088 -2.86854 0
M  V30 2123 C 197.073 -5.6126 -2.44242 0
M  V30 2124 N 196.21 -6.04905 -3.56419 0
M  V30 2125 H 201.05 -2.96313 -0.316625 0
M  V30 2126 H 198.587 -1.46388 -0.144588 0
M  V30 2127 H 200.545 -3.09925 -2.79289 0
M  V30 2128 H 199.175 -1.98512 -2.54545 0
M  V30 2129 H 198.227 -3.70858 -0.846661 0
M  V30 2130 H 199.539 -4.80934 -1.32301 0
M  V30 2131 H 198.693 -4.82451 -3.67867 0
M  V30 2132 H 197.432 -3.63275 -3.25396 0
M  V30 2133 H 196.437 -5.25495 -1.61663 0
M  V30 2134 H 197.662 -6.46843 -2.0681 0
M  V30 2135 H 195.608 -5.24032 -3.94623 0
M  V30 2136 H 195.525 -6.82552 -3.25051 0
M  V30 2137 H 196.793 -6.44907 -4.37853 0
M  V30 2138 N 201.022 0.148545 -1.56898 0
M  V30 2139 C 201.932 1.20293 -2.01412 0
M  V30 2140 C 202.948 1.47107 -0.929273 0
M  V30 2141 O 204.124 1.58807 -1.23863 0
M  V30 2142 C 201.189 2.51682 -2.38447 0
M  V30 2143 C 200.25 2.32529 -3.60872 0
M  V30 2144 C 199.483 3.57653 -3.96132 0
M  V30 2145 O 199.706 4.63771 -3.32073 0
M  V30 2146 O 198.64 3.50408 -4.89385 0
M  V30 2147 H 202.466 0.855025 -2.91416 0
M  V30 2148 H 200.051 0.357151 -1.45068 0
M  V30 2149 H 201.933 3.29147 -2.63135 0
M  V30 2150 H 200.608 2.86006 -1.51599 0
M  V30 2151 H 199.515 1.53019 -3.41373 0
M  V30 2152 H 200.848 2.03121 -4.48333 0
M  V30 2153 N 202.5 1.5196 0.417844 0
M  V30 2154 C 203.749 1.6482 1.16264 0
M  V30 2155 C 204.062 0.379886 1.91876 0
M  V30 2156 O 205.268 0.388154 2.68711 0
M  V30 2157 C 203.724 2.91161 2.1155 0
M  V30 2158 C 203.332 4.25068 1.41495 0
M  V30 2159 C 205.076 3.13383 2.86341 0
M  V30 2160 C 202.983 5.42541 2.35379 0
M  V30 2161 H 201.913 0.613954 0.437694 0
M  V30 2162 H 204.564 1.78442 0.427871 0
M  V30 2163 H 202.946 2.71218 2.88543 0
M  V30 2164 H 204.12 4.55463 0.699263 0
M  V30 2165 H 202.435 4.0888 0.787792 0
M  V30 2166 H 205.032 3.98324 3.5671 0
M  V30 2167 H 205.375 2.27256 3.48798 0
M  V30 2168 H 205.908 3.33757 2.1645 0
M  V30 2169 H 202.647 6.30987 1.77582 0
M  V30 2170 H 202.167 5.16497 3.04945 0
M  V30 2171 H 203.846 5.75272 2.96093 0
M  V30 2172 N 203.978 -0.674533 1.42435 0
M  V30 2173 C 205.255 -1.4305 1.33402 0
M  V30 2174 C 205.635 -2.11081 -0.0284674 0
M  V30 2175 O 204.983 -2.03257 -1.04397 0
M  V30 2176 C 205.193 -2.43272 2.50239 0
M  V30 2177 C 206.541 -3.07907 2.92367 0
M  V30 2178 O 207.565 -2.53599 2.50132 0
M  V30 2179 O 206.424 -4.0632 3.65467 0
M  V30 2180 H 203.518 -0.638076 0.526106 0
M  V30 2181 H 206.064 -0.703235 1.54443 0
M  V30 2182 H 204.836 -1.91803 3.41068 0
M  V30 2183 H 204.459 -3.23479 2.31186 0
M  V30 2184 N 205.456 -1.28612 -0.910864 0
M  V30 2185 C 206.684 -1.18792 -1.69399 0
M  V30 2186 C 207.099 0.253039 -1.87097 0
M  V30 2187 O 206.456 1.17071 -1.40003 0
M  V30 2188 C 206.507 -1.88511 -3.08457 0
M  V30 2189 O 206.228 -3.26979 -2.91576 0
M  V30 2190 C 207.729 -1.85029 -4.02839 0
M  V30 2191 H 204.949 -0.412233 -0.529438 0
M  V30 2192 H 207.493 -1.69788 -1.13984 0
M  V30 2193 H 205.648 -1.41379 -3.60681 0
M  V30 2194 H 206.062 -3.61936 -3.79608 0
M  V30 2195 H 207.536 -2.38395 -4.97867 0
M  V30 2196 H 208.013 -0.823303 -4.31414 0
M  V30 2197 H 208.619 -2.31853 -3.56545 0
M  V30 2198 N 206.934 1.1197 -1.10907 0
M  V30 2199 C 208.159 1.87942 -0.877064 0
M  V30 2200 C 208.584 1.79341 0.567314 0
M  V30 2201 O 207.942 1.15184 1.40009 0
M  V30 2202 C 207.99 3.34926 -1.33629 0
M  V30 2203 O 207.094 4.09303 -0.504447 0
M  V30 2204 H 206.435 0.583785 -0.316371 0
M  V30 2205 H 208.965 1.4157 -1.47712 0
M  V30 2206 H 208.975 3.8577 -1.32837 0
M  V30 2207 H 207.65 3.40504 -2.3881 0
M  V30 2208 H 206.227 3.68393 -0.577993 0
M  V30 2209 N 208.412 0.89855 1.29475 0
M  V30 2210 C 209.64 0.539261 1.99749 0
M  V30 2211 C 210.055 -0.875716 1.67262 0
M  V30 2212 O 209.412 -1.57786 0.917049 0
M  V30 2213 C 209.463 0.72061 3.54245 0
M  V30 2214 O 209.184 2.07989 3.8558 0
M  V30 2215 C 210.685 0.366118 4.41786 0
M  V30 2216 H 207.905 0.207047 0.638258 0
M  V30 2217 H 210.449 1.20758 1.65039 0
M  V30 2218 H 208.604 0.0994862 3.87272 0
M  V30 2219 H 209.018 2.10841 4.80257 0
M  V30 2220 H 210.492 0.543848 5.49314 0
M  V30 2221 H 210.969 -0.696763 4.33638 0
M  V30 2222 H 211.575 0.964135 4.14228 0
M  V30 2223 N 209.89 -1.43072 0.660911 0
M  V30 2224 C 210.837 -2.30785 -0.0259884 0
M  V30 2225 C 211.807 -1.45184 -0.806888 0
M  V30 2226 O 212.992 -1.74041 -0.781943 0
M  V30 2227 C 210.132 -3.30861 -0.981067 0
M  V30 2228 C 209.245 -4.31558 -0.195458 0
M  V30 2229 C 208.38 -5.18712 -1.14503 0
M  V30 2230 C 207.419 -6.11097 -0.350299 0
M  V30 2231 N 206.556 -6.90849 -1.25186 0
M  V30 2232 H 211.396 -2.88975 0.727846 0
M  V30 2233 H 208.933 -1.42353 0.370682 0
M  V30 2234 H 210.891 -3.87399 -1.54849 0
M  V30 2235 H 209.521 -2.74304 -1.70169 0
M  V30 2236 H 208.573 -3.77252 0.488374 0
M  V30 2237 H 209.885 -4.9701 0.422176 0
M  V30 2238 H 209.039 -5.79914 -1.78284 0
M  V30 2239 H 207.778 -4.53404 -1.79656 0
M  V30 2240 H 206.783 -5.48976 0.300808 0
M  V30 2241 H 208.008 -6.7845 0.296941 0
M  V30 2242 H 205.954 -6.28182 -1.89005 0
M  V30 2243 H 205.871 -7.52854 -0.688971 0
M  V30 2244 H 207.139 -7.5655 -1.87757 0
M  V30 2245 N 211.368 -0.403325 -1.52352 0
M  V30 2246 C 212.614 0.174605 -2.02047 0
M  V30 2247 C 212.947 1.45282 -1.28867 0
M  V30 2248 O 212.222 1.90483 -0.393257 0
M  V30 2249 C 212.505 0.428238 -3.57545 0
M  V30 2250 C 212.358 -0.866248 -4.4138 0
M  V30 2251 C 213.677 1.21287 -4.23057 0
M  V30 2252 H 210.796 0.0619851 -0.734389 0
M  V30 2253 H 213.438 -0.53565 -1.82293 0
M  V30 2254 H 211.588 1.03327 -3.74507 0
M  V30 2255 H 213.26 -1.50265 -4.3614 0
M  V30 2256 H 211.503 -1.47851 -4.07827 0
M  V30 2257 H 212.174 -0.643249 -5.48239 0
M  V30 2258 H 214.65 0.700703 -4.10158 0
M  V30 2259 H 213.526 1.35909 -5.31808 0
M  V30 2260 H 213.787 2.23193 -3.81625 0
M  V30 2261 N 212.846 1.57033 -0.133567 0
M  V30 2262 C 214.123 1.87256 0.56522 0
M  V30 2263 C 214.503 1.03726 1.83859 0
M  V30 2264 O 213.851 0.120247 2.28183 0
M  V30 2265 C 214.061 3.3865 0.843636 0
M  V30 2266 C 215.409 4.07574 1.19032 0
M  V30 2267 O 216.433 3.43752 0.933429 0
M  V30 2268 O 215.292 5.20259 1.67312 0
M  V30 2269 H 212.386 0.775678 0.286796 0
M  V30 2270 H 214.932 1.68855 -0.169168 0
M  V30 2271 H 213.704 3.91257 -0.0581149 0
M  V30 2272 H 213.327 3.62532 1.63268 0
M  V30 2273 N 214.325 -0.140222 1.56975 0
M  V30 2274 C 215.273 -1.19207 1.99731 0
M  V30 2275 C 216.267 -1.44089 0.890777 0
M  V30 2276 O 217.473 -1.44301 1.07597 0
M  V30 2277 H 213.848 -0.40142 0.635898 0
M  V30 2278 H 215.819 -0.804813 2.87342 0
M  V30 2279 C 214.568 -2.51617 2.39967 0
M  V30 2280 H 213.891 -2.33303 3.24669 0
M  V30 2281 H 215.331 -3.23827 2.73701 0
M  V30 2282 C 213.79 -3.12654 1.25496 0
M  V30 2283 O 214.32 -3.97786 0.559371 0
M  V30 2284 N 212.526 -2.72206 1.01746 0
M  V30 2285 H 212.073 -2.03074 1.58489 0
M  V30 2286 H 212.031 -3.13377 0.253461 0
M  V30 2287 N 215.803 -1.52179 -0.40978 0
M  V30 2288 C 216.766 -1.74853 -1.48186 0
M  V30 2289 C 217.766 -0.618417 -1.48433 0
M  V30 2290 O 218.956 -0.886286 -1.49969 0
M  V30 2291 C 216.088 -1.8303 -2.87598 0
M  V30 2292 H 217.281 -2.70559 -1.29374 0
M  V30 2293 H 214.834 -1.42586 -0.640233 0
M  V30 2294 H 215.569 -0.89236 -3.11781 0
M  V30 2295 H 215.354 -2.65187 -2.88822 0
M  V30 2296 H 216.844 -2.02316 -3.65319 0
M  V30 2297 N 217.281 0.66697 -1.42791 0
M  V30 2298 C 218.214 1.79177 -1.41318 0
M  V30 2299 C 219.192 1.60234 -0.276401 0
M  V30 2300 O 220.376 1.82602 -0.46785 0
M  V30 2301 C 217.503 3.16289 -1.21157 0
M  V30 2302 C 216.549 3.53964 -2.37932 0
M  V30 2303 S 217.382 3.55501 -4.00474 0
M  V30 2304 C 218.538 4.95292 -3.8267 0
M  V30 2305 H 218.771 1.80153 -2.365 0
M  V30 2306 H 216.304 0.838357 -1.29657 0
M  V30 2307 H 218.262 3.95428 -1.10212 0
M  V30 2308 H 216.923 3.1289 -0.275481 0
M  V30 2309 H 216.116 4.53646 -2.19594 0
M  V30 2310 H 215.718 2.82204 -2.45432 0
M  V30 2311 H 218.01 5.83584 -3.44145 0
M  V30 2312 H 218.953 5.18679 -4.82055 0
M  V30 2313 H 219.361 4.68179 -3.15386 0
M  V30 2314 N 218.759 1.29093 0.90403 0
M  V30 2315 C 219.984 1.19809 1.69294 0
M  V30 2316 C 220.409 -0.238481 1.86582 0
M  V30 2317 O 219.767 -1.1723 1.383 0
M  V30 2318 C 219.815 1.91202 3.05736 0
M  V30 2319 O 218.919 1.22611 3.93752 0
M  V30 2320 H 218.26 0.415385 0.518027 0
M  V30 2321 H 220.79 1.70586 1.12967 0
M  V30 2322 H 220.8 1.99487 3.55906 0
M  V30 2323 H 219.475 2.95692 2.92471 0
M  V30 2324 H 218.052 1.22554 3.52186 0
M  V30 2325 N 220.237 -1.11381 1.11499 0
M  V30 2326 C 221.653 -1.35143 0.849031 0
M  V30 2327 C 221.853 -1.94515 -0.525938 0
M  V30 2328 O 220.909 -2.1785 -1.27662 0
M  V30 2329 C 222.222 -2.28249 1.95762 0
M  V30 2330 C 223.77 -2.41812 1.98736 0
M  V30 2331 C 224.245 -3.3824 3.088 0
M  V30 2332 N 225.736 -3.45803 3.08179 0
M  V30 2333 C 226.471 -4.20358 3.89982 0
M  V30 2334 N 225.967 -4.97884 4.8175 0
M  V30 2335 N 227.76 -4.15877 3.78157 0
M  V30 2336 H 219.911 -0.712062 2.00109 0
M  V30 2337 H 222.174 -0.376025 0.870235 0
M  V30 2338 H 221.88 -1.91817 2.94787 0
M  V30 2339 H 221.754 -3.28473 1.85433 0
M  V30 2340 H 224.141 -2.77518 1.00338 0
M  V30 2341 H 224.222 -1.41437 2.13141 0
M  V30 2342 H 223.866 -3.03261 4.07425 0
M  V30 2343 H 223.796 -4.38471 2.91635 0
M  V30 2344 H 226.287 -2.90506 2.41691 0
M  V30 2345 H 226.6 -5.52142 5.40702 0
M  V30 2346 H 224.945 -4.97043 4.85771 0
M  V30 2347 H 228.136 -3.544 3.05808 0
M  V30 2348 H 228.309 -4.73723 4.42143 0
M  V30 2349 N 221.715 -0.905404 -1.28997 0
M  V30 2350 C 222.645 -0.404212 -2.29975 0
M  V30 2351 C 223.626 0.523784 -1.61835 0
M  V30 2352 O 224.811 0.433298 -1.89304 0
M  V30 2353 C 221.941 0.364042 -3.45387 0
M  V30 2354 C 220.895 -0.474048 -4.25367 0
M  V30 2355 C 220.221 0.422045 -5.33032 0
M  V30 2356 C 221.521 -1.72696 -4.92923 0
M  V30 2357 H 223.215 -1.24807 -2.72146 0
M  V30 2358 H 220.761 -0.601585 -1.30832 0
M  V30 2359 H 222.714 0.725447 -4.15109 0
M  V30 2360 H 221.438 1.24174 -3.02074 0
M  V30 2361 H 220.097 -0.81786 -3.57361 0
M  V30 2362 H 219.745 1.29804 -4.85963 0
M  V30 2363 H 219.445 -0.135057 -5.87445 0
M  V30 2364 H 220.969 0.779517 -6.05604 0
M  V30 2365 H 222.383 -1.43495 -5.55051 0
M  V30 2366 H 220.78 -2.22582 -5.57295 0
M  V30 2367 H 221.85 -2.45964 -4.17887 0
M  V30 2368 N 223.193 1.4272 -0.668489 0
M  V30 2369 C 224.123 2.335 -0.000100175 0
M  V30 2370 C 225.104 1.50328 0.795964 0
M  V30 2371 O 226.289 1.78949 0.754385 0
M  V30 2372 C 223.419 3.33874 0.956302 0
M  V30 2373 C 222.373 4.27152 0.269278 0
M  V30 2374 C 221.699 5.17684 1.33818 0
M  V30 2375 C 222.999 5.15373 -0.847805 0
M  V30 2376 H 224.693 2.89639 -0.758244 0
M  V30 2377 H 222.239 1.39269 -0.366079 0
M  V30 2378 H 224.192 3.9629 1.43292 0
M  V30 2379 H 222.916 2.76025 1.74579 0
M  V30 2380 H 221.575 3.66123 -0.187042 0
M  V30 2381 H 221.223 4.56165 2.1195 0
M  V30 2382 H 220.923 5.80918 0.883659 0
M  V30 2383 H 222.447 5.82974 1.81586 0
M  V30 2384 H 223.861 5.7151 -0.452681 0
M  V30 2385 H 222.258 5.87407 -1.22773 0
M  V30 2386 H 223.328 4.5415 -1.69929 0
M  V30 2387 N 224.671 0.411399 1.52136 0
M  V30 2388 C 225.618 -0.412975 2.27075 0
M  V30 2389 C 226.588 -1.03912 1.29582 0
M  V30 2390 O 227.773 -1.06296 1.58448 0
M  V30 2391 C 224.913 -1.52247 3.09701 0
M  V30 2392 C 224.026 -0.917021 4.22155 0
M  V30 2393 C 223.161 -1.9994 4.92135 0
M  V30 2394 C 222.2 -1.37101 5.96548 0
M  V30 2395 N 221.337 -2.39364 6.60038 0
M  V30 2396 H 226.177 0.232499 2.97092 0
M  V30 2397 H 223.714 0.126496 1.46555 0
M  V30 2398 H 225.672 -2.17674 3.55913 0
M  V30 2399 H 224.302 -2.13794 2.41851 0
M  V30 2400 H 223.354 -0.151742 3.80097 0
M  V30 2401 H 224.666 -0.418006 4.97045 0
M  V30 2402 H 223.82 -2.73088 5.41763 0
M  V30 2403 H 222.559 -2.53208 4.16818 0
M  V30 2404 H 221.564 -0.624873 5.46237 0
M  V30 2405 H 222.789 -0.845998 6.7381 0
M  V30 2406 H 220.735 -2.91759 5.87548 0
M  V30 2407 H 220.652 -1.9428 7.3061 0
M  V30 2408 H 221.92 -3.12074 7.14304 0
M  V30 2409 N 226.149 -1.5696 0.141893 0
M  V30 2410 C 227.096 -2.16501 -0.799737 0
M  V30 2411 C 228.066 -1.09643 -1.24771 0
M  V30 2412 O 229.251 -1.3766 -1.32115 0
M  V30 2413 C 226.391 -2.78679 -2.03549 0
M  V30 2414 C 225.504 -3.99914 -1.6338 0
M  V30 2415 C 224.639 -4.50106 -2.82096 0
M  V30 2416 C 223.678 -5.63819 -2.38275 0
M  V30 2417 N 222.815 -6.08651 -3.49983 0
M  V30 2418 H 227.655 -2.96632 -0.285179 0
M  V30 2419 H 225.192 -1.46533 -0.129053 0
M  V30 2420 H 227.15 -3.1287 -2.75986 0
M  V30 2421 H 225.78 -2.012 -2.52425 0
M  V30 2422 H 224.832 -3.71735 -0.807279 0
M  V30 2423 H 226.144 -4.82311 -1.27192 0
M  V30 2424 H 225.298 -4.86325 -3.62729 0
M  V30 2425 H 224.037 -3.66706 -3.21525 0
M  V30 2426 H 223.042 -5.2718 -1.56081 0
M  V30 2427 H 224.267 -6.49 -1.99938 0
M  V30 2428 H 222.213 -5.28188 -3.89042 0
M  V30 2429 H 222.13 -6.85961 -3.17794 0
M  V30 2430 H 223.398 -6.49515 -4.30988 0
M  V30 2431 N 227.627 0.131896 -1.57047 0
M  V30 2432 C 228.857 0.855219 -1.88068 0
M  V30 2433 C 229.265 1.74557 -0.729817 0
M  V30 2434 O 228.608 1.81083 0.308962 0
M  V30 2435 C 228.67 1.75119 -3.13964 0
M  V30 2436 C 228.334 1.03646 -4.45091 0
M  V30 2437 C 229.331 0.383276 -5.18485 0
M  V30 2438 C 227.016 1.02148 -4.91804 0
M  V30 2439 C 229.01 -0.275347 -6.36805 0
M  V30 2440 C 226.697 0.359047 -6.10044 0
M  V30 2441 C 227.695 -0.288222 -6.82392 0
M  V30 2442 O 227.383 -0.94011 -7.98384 0
M  V30 2443 H 227.115 0.251864 -0.627328 0
M  V30 2444 H 229.669 0.124782 -2.05021 0
M  V30 2445 H 227.899 2.52295 -2.9306 0
M  V30 2446 H 229.588 2.3478 -3.31109 0
M  V30 2447 H 230.354 0.386562 -4.83457 0
M  V30 2448 H 226.233 1.5147 -4.35405 0
M  V30 2449 H 229.777 -0.781148 -6.93213 0
M  V30 2450 H 225.674 0.35348 -6.44531 0
M  V30 2451 H 226.442 -0.84329 -8.14144 0
M  V30 2452 N 229.106 1.52395 0.401703 0
M  V30 2453 C 230.383 1.57387 1.16141 0
M  V30 2454 C 230.763 0.359359 2.08019 0
M  V30 2455 O 230.111 -0.65326 2.18963 0
M  V30 2456 C 230.321 2.90631 1.93221 0
M  V30 2457 C 231.669 3.43904 2.49028 0
M  V30 2458 O 232.693 2.92421 2.03393 0
M  V30 2459 O 231.552 4.33823 3.32356 0
M  V30 2460 H 228.646 0.634262 0.530698 0
M  V30 2461 H 231.192 1.64725 0.407883 0
M  V30 2462 H 229.964 3.70473 1.25958 0
M  V30 2463 H 229.587 2.8662 2.75563 0
M  V30 2464 N 230.584 -0.659388 1.43143 0
M  V30 2465 C 231.83 -1.42145 1.44647 0
M  V30 2466 C 232.163 -1.9408 0.0681907 0
M  V30 2467 O 231.438 -1.71899 -0.910007 0
M  V30 2468 C 231.721 -2.60735 2.48373 0
M  V30 2469 C 231.574 -2.14332 3.95451 0
M  V30 2470 C 232.893 -3.62951 2.48906 0
M  V30 2471 H 230.012 -0.51552 0.526696 0
M  V30 2472 H 232.654 -0.748069 1.74654 0
M  V30 2473 H 230.804 -3.18184 2.22916 0
M  V30 2474 H 232.476 -1.61932 4.31944 0
M  V30 2475 H 230.719 -1.4576 4.08578 0
M  V30 2476 H 231.39 -2.99583 4.63631 0
M  V30 2477 H 233.866 -3.1525 2.71582 0
M  V30 2478 H 232.742 -4.43487 3.23435 0
M  V30 2479 H 233.003 -4.15126 1.52061 0
M  V30 2480 N 232.062 -1.29571 -0.897171 0
M  V30 2481 C 232.992 -1.17473 -2.01798 0
M  V30 2482 C 233.973 -0.068323 -1.69963 0
M  V30 2483 O 235.158 -0.248239 -1.92607 0
M  V30 2484 C 232.288 -0.853099 -3.36659 0
M  V30 2485 C 231.242 -1.9161 -3.82713 0
M  V30 2486 C 230.568 -1.44773 -5.14728 0
M  V30 2487 C 231.868 -3.32535 -4.02763 0
M  V30 2488 H 233.562 -2.11237 -2.12177 0
M  V30 2489 H 231.108 -1.01699 -1.01948 0
M  V30 2490 H 233.061 -0.755165 -4.14578 0
M  V30 2491 H 231.785 0.120236 -3.26379 0
M  V30 2492 H 230.444 -2.00346 -3.07013 0
M  V30 2493 H 230.092 -0.462995 -5.00865 0
M  V30 2494 H 229.792 -2.15865 -5.46513 0
M  V30 2495 H 231.316 -1.36334 -5.95185 0
M  V30 2496 H 232.73 -3.26626 -4.71156 0
M  V30 2497 H 231.127 -4.01607 -4.45905 0
M  V30 2498 H 232.197 -3.75326 -3.07016 0
M  V30 2499 N 233.54 1.10788 -1.12088 0
M  V30 2500 C 234.787 1.82671 -0.873931 0
M  V30 2501 C 235.115 1.85004 0.600311 0
M  V30 2502 O 234.37 1.30365 1.45957 0
M  V30 2503 C 234.669 3.29294 -1.38926 0
M  V30 2504 C 234.335 3.47113 -2.87791 0
M  V30 2505 C 232.997 3.51684 -3.28439 0
M  V30 2506 C 235.349 3.52808 -3.83635 0
M  V30 2507 C 232.677 3.59513 -4.63646 0
M  V30 2508 C 235.029 3.62169 -5.18668 0
M  V30 2509 C 233.693 3.65003 -5.58864 0
M  V30 2510 H 232.963 0.668441 -0.319794 0
M  V30 2511 H 235.61 1.30613 -1.40045 0
M  V30 2512 H 233.915 3.83894 -0.783122 0
M  V30 2513 H 235.612 3.83416 -1.17443 0
M  V30 2514 H 232.202 3.4423 -2.5535 0
M  V30 2515 H 236.386 3.4853 -3.53328 0
M  V30 2516 H 231.642 3.59987 -4.94185 0
M  V30 2517 H 235.816 3.6552 -5.92763 0
M  V30 2518 H 233.443 3.70822 -6.63623 0
M  V30 2519 N 235.018 0.912232 1.28515 0
M  V30 2520 C 235.981 0.404223 2.25607 0
M  V30 2521 C 236.981 -0.468602 1.53821 0
M  V30 2522 O 238.171 -0.271873 1.72065 0
M  V30 2523 C 235.303 -0.420653 3.38295 0
M  V30 2524 H 236.496 1.26188 2.7206 0
M  V30 2525 H 234.049 0.691495 1.40171 0
M  V30 2526 H 234.784 -1.29777 2.97201 0
M  V30 2527 H 234.569 0.204935 3.91564 0
M  V30 2528 H 236.059 -0.766971 4.10496 0
M  V30 2529 N 236.496 -1.42363 0.676048 0
M  V30 2530 C 237.426 -2.33497 0.0124832 0
M  V30 2531 C 238.407 -1.50748 -0.787981 0
M  V30 2532 O 239.592 -1.79346 -0.744884 0
M  V30 2533 C 236.722 -3.34377 -0.938582 0
M  V30 2534 C 235.676 -4.27289 -0.246622 0
M  V30 2535 C 235.002 -5.18386 -1.31071 0
M  V30 2536 C 236.302 -5.14916 0.875125 0
M  V30 2537 H 237.996 -2.89233 0.773593 0
M  V30 2538 H 235.542 -1.39073 0.37346 0
M  V30 2539 H 237.495 -3.97044 -1.41188 0
M  V30 2540 H 236.219 -2.76947 -1.73113 0
M  V30 2541 H 234.878 -3.66018 0.206456 0
M  V30 2542 H 234.526 -4.57282 -2.09528 0
M  V30 2543 H 234.226 -5.81378 -0.852839 0
M  V30 2544 H 235.75 -5.83929 -1.78492 0
M  V30 2545 H 237.164 -5.71262 0.482983 0
M  V30 2546 H 235.561 -5.86747 1.25887 0
M  V30 2547 H 236.631 -4.53242 1.72335 0
M  V30 2548 N 237.974 -0.419461 -1.51915 0
M  V30 2549 C 239.221 0.152939 -2.01922 0
M  V30 2550 C 239.549 1.4426 -1.30458 0
M  V30 2551 O 238.804 1.91514 -0.402593 0
M  V30 2552 C 239.103 0.437067 -3.54717 0
M  V30 2553 C 238.769 -0.764632 -4.44369 0
M  V30 2554 C 237.431 -1.09423 -4.68594 0
M  V30 2555 C 239.783 -1.56713 -4.97082 0
M  V30 2556 C 237.111 -2.22732 -5.42777 0
M  V30 2557 C 239.463 -2.69107 -5.72507 0
M  V30 2558 C 238.127 -3.02541 -5.95 0
M  V30 2559 H 237.397 0.0559644 -0.738884 0
M  V30 2560 H 240.044 -0.562998 -1.83037 0
M  V30 2561 H 238.349 1.23469 -3.71837 0
M  V30 2562 H 240.046 0.893083 -3.90928 0
M  V30 2563 H 236.636 -0.497775 -4.257 0
M  V30 2564 H 240.82 -1.32571 -4.78266 0
M  V30 2565 H 236.076 -2.48971 -5.58411 0
M  V30 2566 H 240.25 -3.31671 -6.12346 0
M  V30 2567 H 237.877 -3.90457 -6.52264 0
M  V30 2568 N 239.452 1.56882 -0.150215 0
M  V30 2569 C 240.677 2.01027 0.510184 0
M  V30 2570 C 241.102 1.02966 1.57415 0
M  V30 2571 O 240.46 0.00590158 1.81299 0
M  V30 2572 C 240.508 3.43899 1.08472 0
M  V30 2573 O 239.612 3.4885 2.19948 0
M  V30 2574 H 238.953 0.652233 0.124451 0
M  V30 2575 H 241.483 2.03093 -0.247894 0
M  V30 2576 H 241.493 3.82766 1.41259 0
M  V30 2577 H 240.168 4.14776 0.305582 0
M  V30 2578 H 238.745 3.21827 1.88366 0
M  V30 2579 N 240.93 -0.123565 1.57115 0
M  V30 2580 C 241.877 -1.15177 2.00007 0
M  V30 2581 C 242.847 -1.41403 0.871454 0
M  V30 2582 O 244.032 -1.53346 1.13533 0
M  V30 2583 C 241.172 -2.47436 2.40561 0
M  V30 2584 C 240.285 -2.28184 3.66819 0
M  V30 2585 C 239.42 -3.53641 3.96373 0
M  V30 2586 C 238.459 -3.29528 5.15827 0
M  V30 2587 N 237.596 -4.47175 5.41275 0
M  V30 2588 H 242.436 -0.779008 2.87638 0
M  V30 2589 H 239.973 -0.373166 1.42288 0
M  V30 2590 H 241.931 -3.24584 2.62109 0
M  V30 2591 H 240.561 -2.82614 1.55978 0
M  V30 2592 H 239.613 -1.41976 3.52912 0
M  V30 2593 H 240.925 -2.0634 4.5412 0
M  V30 2594 H 240.079 -4.39209 4.18545 0
M  V30 2595 H 238.818 -3.78512 3.07538 0
M  V30 2596 H 237.823 -2.42349 4.93505 0
M  V30 2597 H 239.048 -3.06031 6.06236 0
M  V30 2598 H 236.994 -4.72175 4.55397 0
M  V30 2599 H 236.911 -4.28419 6.22891 0
M  V30 2600 H 238.179 -5.3389 5.67963 0
M  V30 2601 N 242.408 -1.52605 -0.393616 0
M  V30 2602 C 243.338 -1.80022 -1.48709 0
M  V30 2603 C 244.319 -0.651995 -1.57108 0
M  V30 2604 O 245.504 -0.89913 -1.72132 0
M  V30 2605 C 242.634 -1.96492 -2.86371 0
M  V30 2606 C 241.588 -3.12161 -2.92813 0
M  V30 2607 C 240.914 -3.13877 -4.3288 0
M  V30 2608 C 242.214 -4.51322 -2.6288 0
M  V30 2609 H 243.908 -2.71589 -1.26015 0
M  V30 2610 H 241.454 -1.30684 -0.604778 0
M  V30 2611 H 243.407 -2.14255 -3.62867 0
M  V30 2612 H 242.131 -1.01611 -3.10391 0
M  V30 2613 H 240.79 -2.94173 -2.18764 0
M  V30 2614 H 240.438 -2.16687 -4.53933 0
M  V30 2615 H 240.138 -3.91576 -4.38112 0
M  V30 2616 H 241.662 -3.33789 -5.1129 0
M  V30 2617 H 243.076 -4.69435 -3.29096 0
M  V30 2618 H 241.473 -5.31053 -2.79468 0
M  V30 2619 H 242.543 -4.58353 -1.58242 0
M  V30 2620 N 243.887 0.651787 -1.4349 0
M  V30 2621 C 244.797 1.79368 -1.5121 0
M  V30 2622 C 245.813 1.69361 -0.399093 0
M  V30 2623 O 246.989 1.90505 -0.653431 0
M  V30 2624 C 244.054 3.15653 -1.43401 0
M  V30 2625 C 243.115 3.37446 -2.65384 0
M  V30 2626 C 242.348 4.67229 -2.57939 0
M  V30 2627 O 242.571 5.46676 -1.62792 0
M  V30 2628 O 241.505 4.90773 -3.48462 0
M  V30 2629 H 245.331 1.7581 -2.47638 0
M  V30 2630 H 242.916 0.810447 -1.25507 0
M  V30 2631 H 244.798 3.96935 -1.41494 0
M  V30 2632 H 243.473 3.19798 -0.501085 0
M  V30 2633 H 242.38 2.55923 -2.72863 0
M  V30 2634 H 243.713 3.38148 -3.57654 0
M  V30 2635 N 245.365 1.30045 0.890287 0
M  V30 2636 C 246.781 1.08261 1.17268 0
M  V30 2637 C 246.981 -0.160063 2.00863 0
M  V30 2638 O 246.037 -0.855181 2.37577 0
M  V30 2639 C 247.35 2.34323 1.8845 0
M  V30 2640 C 248.898 2.39735 2.01237 0
M  V30 2641 C 249.373 3.65625 2.7583 0
M  V30 2642 N 250.864 3.66402 2.83379 0
M  V30 2643 C 251.599 4.60498 3.41657 0
M  V30 2644 N 251.095 5.64933 4.01026 0
M  V30 2645 N 252.888 4.48051 3.39421 0
M  V30 2646 H 245.039 2.09777 0.332762 0
M  V30 2647 H 247.302 0.92446 0.209948 0
M  V30 2648 H 247.008 3.2498 1.34465 0
M  V30 2649 H 246.882 2.4256 2.88867 0
M  V30 2650 H 249.269 1.4956 2.54393 0
M  V30 2651 H 249.35 2.35476 0.999232 0
M  V30 2652 H 248.994 4.56156 2.23347 0
M  V30 2653 H 248.924 3.67144 3.77509 0
M  V30 2654 H 251.415 2.90896 2.41222 0
M  V30 2655 H 251.728 6.32841 4.43545 0
M  V30 2656 H 250.073 5.68732 3.99461 0
M  V30 2657 H 253.264 3.65649 2.92264 0
M  V30 2658 H 253.437 5.21565 3.84544 0
M  V30 2659 N 246.843 -1.10192 1.12674 0
M  V30 2660 C 248.071 -1.85983 0.906527 0
M  V30 2661 C 248.486 -1.80783 -0.544333 0
M  V30 2662 O 247.843 -1.19834 -1.37645 0
M  V30 2663 C 247.894 -3.34281 1.37618 0
M  V30 2664 O 247.615 -3.39401 2.77017 0
M  V30 2665 C 249.116 -4.26938 1.19325 0
M  V30 2666 H 246.336 -0.587716 0.323775 0
M  V30 2667 H 248.88 -1.39284 1.49734 0
M  V30 2668 H 247.035 -3.78436 0.828539 0
M  V30 2669 H 247.449 -4.31838 2.97684 0
M  V30 2670 H 248.923 -5.29181 1.57071 0
M  V30 2671 H 249.4 -4.38995 0.134097 0
M  V30 2672 H 250.006 -3.8859 1.72852 0
M  V30 2673 N 248.321 -0.919034 -1.28029 0
M  V30 2674 C 249.561 -0.562107 -1.96519 0
M  V30 2675 C 249.925 0.878784 -1.70708 0
M  V30 2676 O 251.126 1.34355 -2.32813 0
M  V30 2677 C 249.397 -0.868953 -3.46676 0
M  V30 2678 S 250.956 -0.619237 -4.34409 0
M  V30 2679 H 247.774 -0.2078 -0.679956 0
M  V30 2680 H 250.376 -1.18562 -1.55446 0
M  V30 2681 H 249.08 -1.91547 -3.62957 0
M  V30 2682 H 248.611 -0.234301 -3.92702 0
M  V30 2683 H 250.626 0.526995 -4.93394 0
M  V30 2684 N 249.799 1.42003 -0.683588 0
M  V30 2685 C 250.709 2.34597 -0.0109075 0
M  V30 2686 C 251.725 1.55576 0.779245 0
M  V30 2687 O 252.901 1.88107 0.719555 0
M  V30 2688 C 249.966 3.34199 0.922588 0
M  V30 2689 C 249.027 4.29115 0.125984 0
M  V30 2690 C 248.26 5.23959 1.01502 0
M  V30 2691 O 248.483 5.23952 2.25456 0
M  V30 2692 O 247.417 6.00053 0.47111 0
M  V30 2693 H 251.243 2.93675 -0.773853 0
M  V30 2694 H 248.828 1.42654 -0.443861 0
M  V30 2695 H 250.71 3.95365 1.45823 0
M  V30 2696 H 249.385 2.77582 1.66523 0
M  V30 2697 H 248.292 3.71335 -0.453969 0
M  V30 2698 H 249.625 4.88798 -0.577736 0
M  V30 2699 N 251.277 0.427512 1.51691 0
M  V30 2700 C 252.207 -0.3796 2.30394 0
M  V30 2701 C 253.188 -1.02982 1.35384 0
M  V30 2702 O 254.373 -1.03534 1.643 0
M  V30 2703 C 251.503 -1.48649 3.1388 0
M  V30 2704 C 250.457 -0.960294 4.17088 0
M  V30 2705 C 249.783 -2.16219 4.89033 0
M  V30 2706 C 251.083 -0.00153679 5.223 0
M  V30 2707 H 252.777 0.277164 2.98114 0
M  V30 2708 H 250.323 0.134739 1.43368 0
M  V30 2709 H 252.276 -2.05826 3.67714 0
M  V30 2710 H 251 -2.1714 2.43962 0
M  V30 2711 H 249.659 -0.410806 3.64291 0
M  V30 2712 H 249.307 -2.83307 4.15628 0
M  V30 2713 H 249.007 -1.81654 5.58816 0
M  V30 2714 H 250.531 -2.73968 5.45687 0
M  V30 2715 H 251.945 -0.482687 5.71264 0
M  V30 2716 H 250.342 0.256199 5.99553 0
M  V30 2717 H 251.412 0.938174 4.75738 0
M  V30 2718 N 252.755 -1.56801 0.158532 0
M  V30 2719 C 254.004 -1.95665 -0.489702 0
M  V30 2720 C 254.317 -1.04654 -1.65248 0
M  V30 2721 O 255.523 -1.33146 -2.3661 0
M  V30 2722 C 253.979 -3.47874 -0.922582 0
M  V30 2723 C 253.587 -4.47489 0.213893 0
M  V30 2724 C 255.331 -3.95583 -1.53996 0
M  V30 2725 C 253.238 -5.90921 -0.237903 0
M  V30 2726 H 252.168 -0.730516 -0.186716 0
M  V30 2727 H 254.819 -1.81861 0.244722 0
M  V30 2728 H 253.201 -3.57051 -1.71261 0
M  V30 2729 H 254.375 -4.50017 0.991036 0
M  V30 2730 H 252.69 -4.09764 0.740407 0
M  V30 2731 H 255.287 -5.0019 -1.8898 0
M  V30 2732 H 255.63 -3.37789 -2.43319 0
M  V30 2733 H 256.163 -3.8937 -0.814611 0
M  V30 2734 H 252.902 -6.52559 0.620236 0
M  V30 2735 H 252.422 -5.91729 -0.980676 0
M  V30 2736 H 254.101 -6.43352 -0.686067 0
M  V30 2737 N 254.233 0.115231 -1.57178 0
M  V30 2738 C 255.463 0.835224 -1.88964 0
M  V30 2739 C 255.871 1.73774 -0.74829 0
M  V30 2740 O 255.214 1.81401 0.289739 0
M  V30 2741 C 255.276 1.7178 -3.15804 0
M  V30 2742 C 254.94 0.989198 -4.46166 0
M  V30 2743 C 255.937 0.328263 -5.18863 0
M  V30 2744 C 253.622 0.969256 -4.9286 0
M  V30 2745 C 255.616 -0.342873 -6.36477 0
M  V30 2746 C 253.303 0.294324 -6.10391 0
M  V30 2747 C 254.301 -0.360582 -6.82048 0
M  V30 2748 O 253.989 -1.02474 -7.97342 0
M  V30 2749 H 253.721 0.245197 -0.629964 0
M  V30 2750 H 256.275 0.10303 -2.05141 0
M  V30 2751 H 254.505 2.49173 -2.95719 0
M  V30 2752 H 256.194 2.31255 -3.33581 0
M  V30 2753 H 256.96 0.335263 -4.8384 0
M  V30 2754 H 252.839 1.46844 -4.36987 0
M  V30 2755 H 256.383 -0.854629 -6.92345 0
M  V30 2756 H 252.28 0.285099 -6.4487 0
M  V30 2757 H 253.048 -0.929594 -8.13204 0
M  V30 2758 N 255.711 1.52812 0.385517 0
M  V30 2759 C 256.641 1.80808 1.47752 0
M  V30 2760 C 257.622 0.660318 1.5676 0
M  V30 2761 O 258.807 0.908246 1.71652 0
M  V30 2762 C 255.937 1.98008 2.85324 0
M  V30 2763 C 254.891 3.13709 2.91154 0
M  V30 2764 C 254.217 3.16169 4.31209 0
M  V30 2765 C 255.517 4.52709 2.60483 0
M  V30 2766 H 257.211 2.72253 1.24573 0
M  V30 2767 H 254.757 1.31003 0.597839 0
M  V30 2768 H 256.71 2.16176 3.61726 0
M  V30 2769 H 255.434 1.03255 3.09848 0
M  V30 2770 H 254.093 2.95329 2.17201 0
M  V30 2771 H 253.741 2.19092 4.52778 0
M  V30 2772 H 253.441 3.93894 4.36029 0
M  V30 2773 H 254.965 3.36496 5.09512 0
M  V30 2774 H 256.379 4.71173 3.26602 0
M  V30 2775 H 254.776 5.32528 2.76648 0
M  V30 2776 H 255.846 4.59186 1.55809 0
M  V30 2777 N 257.189 -0.644168 1.43834 0
M  V30 2778 C 258.417 -1.43147 1.49387 0
M  V30 2779 C 258.832 -1.88452 0.114583 0
M  V30 2780 O 258.189 -1.60047 -0.876989 0
M  V30 2781 C 258.24 -2.66046 2.44748 0
M  V30 2782 O 257.961 -2.22633 3.77314 0
M  V30 2783 C 259.462 -3.59311 2.59635 0
M  V30 2784 H 256.682 -0.439447 0.507077 0
M  V30 2785 H 259.226 -0.78895 1.88669 0
M  V30 2786 H 257.381 -3.26418 2.08638 0
M  V30 2787 H 257.795 -3.02216 4.28679 0
M  V30 2788 H 259.269 -4.42187 3.30416 0
M  V30 2789 H 259.746 -4.07259 1.64427 0
M  V30 2790 H 260.352 -3.04816 2.96593 0
M  V30 2791 N 258.668 -1.30515 -0.883378 0
M  V30 2792 C 259.6 -1.12846 -1.99496 0
M  V30 2793 C 260.613 -0.0712571 -1.62644 0
M  V30 2794 O 261.802 -0.317432 -1.75655 0
M  V30 2795 C 258.902 -0.699123 -3.3161 0
M  V30 2796 C 258.075 -1.83842 -3.96889 0
M  V30 2797 C 257.134 -1.39737 -5.07307 0
M  V30 2798 O 256.16 -2.10485 -5.28852 0
M  V30 2799 N 257.362 -0.277279 -5.79837 0
M  V30 2800 H 260.127 -2.08585 -2.15203 0
M  V30 2801 H 257.688 -1.22672 -1.05656 0
M  V30 2802 H 259.68 -0.387044 -4.02845 0
M  V30 2803 H 258.25 0.166276 -3.12157 0
M  V30 2804 H 257.47 -2.31853 -3.18807 0
M  V30 2805 H 258.758 -2.60187 -4.37241 0
M  V30 2806 H 258.156 0.3122 -5.64838 0
M  V30 2807 H 256.713 -0.0246623 -6.51795 0
M  V30 2808 N 260.146 1.09593 -1.13257 0
M  V30 2809 C 261.557 1.63229 -0.906274 0
M  V30 2810 C 261.908 1.8811 0.557578 0
M  V30 2811 O 261.033 1.62953 1.42391 0
M  V30 2812 C 261.628 2.96535 -1.63867 0
M  V30 2813 C 260.187 3.47003 -1.45828 0
M  V30 2814 C 259.334 2.2145 -1.66898 0
M  V30 2815 H 262.285 0.92978 -1.28611 0
M  V30 2816 H 262.306 3.64411 -1.09476 0
M  V30 2817 H 261.818 2.78394 -2.70404 0
M  V30 2818 H 259.919 3.70272 -0.415848 0
M  V30 2819 H 260.032 4.24551 -2.2202 0
M  V30 2820 H 258.396 2.30022 -1.09371 0
M  V30 2821 H 259.179 2.0583 -2.74752 0
M  V30 2822 N 261.624 0.925811 1.2754 0
M  V30 2823 C 262.849 0.580924 1.99098 0
M  V30 2824 C 263.274 -0.833555 1.68622 0
M  V30 2825 O 262.632 -1.55903 0.925422 0
M  V30 2826 C 262.68 0.811186 3.51358 0
M  V30 2827 O 261.784 -0.124129 4.12213 0
M  V30 2828 H 261.125 0.223873 0.625122 0
M  V30 2829 H 263.655 1.24455 1.62395 0
M  V30 2830 H 263.665 0.72601 4.01489 0
M  V30 2831 H 262.34 1.84227 3.72872 0
M  V30 2832 H 260.917 0.0108006 3.72898 0
M  V30 2833 N 263.102 -1.41638 0.69111 0
M  V30 2834 C 264.327 -2.06148 0.227583 0
M  V30 2835 C 264.752 -1.51652 -1.11281 0
M  V30 2836 O 264.11 -0.64164 -1.69566 0
M  V30 2837 C 264.158 -3.60095 0.190858 0
M  V30 2838 O 263.262 -4.03845 -0.835664 0
M  V30 2839 H 262.603 -0.654434 0.112306 0
M  V30 2840 H 265.133 -1.81484 0.944714 0
M  V30 2841 H 265.143 -4.07995 0.020207 0
M  V30 2842 H 263.818 -3.99129 1.16915 0
M  V30 2843 H 262.395 -3.67458 -0.63473 0
M  V30 2844 N 264.58 -0.43555 -1.51462 0
M  V30 2845 C 265.805 0.132627 -2.06976 0
M  V30 2846 C 266.23 1.35848 -1.30104 0
M  V30 2847 O 265.588 1.78112 -0.338493 0
M  V30 2848 C 265.636 0.43523 -3.57964 0
M  V30 2849 O 264.74 1.52198 -3.83288 0
M  V30 2850 H 264.081 0.00265 -0.663995 0
M  V30 2851 H 266.611 -0.616369 -1.95095 0
M  V30 2852 H 266.621 0.686206 -4.02188 0
M  V30 2853 H 265.296 -0.460739 -4.1334 0
M  V30 2854 H 263.873 1.2611 -3.50928 0
M  V30 2855 N 266.058 1.56714 -0.166846 0
M  V30 2856 C 267.307 1.95922 0.479318 0
M  V30 2857 C 267.62 1.05529 1.6469 0
M  V30 2858 O 268.826 1.34399 2.35901 0
M  V30 2859 C 267.282 3.48359 0.90412 0
M  V30 2860 C 266.89 4.47369 -0.237621 0
M  V30 2861 C 268.634 3.96394 1.51896 0
M  V30 2862 C 266.541 5.91039 0.206561 0
M  V30 2863 H 265.471 0.731495 0.18284 0
M  V30 2864 H 268.122 1.81728 -0.254363 0
M  V30 2865 H 266.504 3.57955 1.69365 0
M  V30 2866 H 267.678 4.49485 -1.01489 0
M  V30 2867 H 265.993 4.09366 -0.762128 0
M  V30 2868 H 268.59 5.01186 1.86325 0
M  V30 2869 H 268.933 3.39075 2.41524 0
M  V30 2870 H 269.466 3.89796 0.79395 0
M  V30 2871 H 266.205 6.52221 -0.654834 0
M  V30 2872 H 265.725 5.9224 0.949282 0
M  V30 2873 H 267.404 6.43707 0.651939 0
M  V30 2874 N 267.536 -0.106894 1.57237 0
M  V30 2875 C 268.761 -0.830287 1.90055 0
M  V30 2876 C 269.186 -1.72064 0.75998 0
M  V30 2877 O 268.544 -1.78982 -0.288991 0
M  V30 2878 C 268.592 -1.6295 3.21683 0
M  V30 2879 O 267.696 -2.73748 3.08441 0
M  V30 2880 H 267.037 -0.228855 0.623315 0
M  V30 2881 H 269.567 -0.085658 2.04421 0
M  V30 2882 H 269.577 -2.01621 3.54701 0
M  V30 2883 H 268.252 -0.975989 4.04286 0
M  V30 2884 H 266.829 -2.38192 2.86913 0
M  V30 2885 N 269.014 -1.53014 -0.377408 0
M  V30 2886 C 270.242 -1.72515 -1.14219 0
M  V30 2887 C 270.657 -0.448735 -1.8339 0
M  V30 2888 O 270.014 0.577592 -1.73119 0
M  V30 2889 C 270.065 -2.8826 -2.18148 0
M  V30 2890 O 269.786 -4.10962 -1.51795 0
M  V30 2891 C 271.287 -3.19536 -3.07264 0
M  V30 2892 H 268.507 -0.577301 -0.342001 0
M  V30 2893 H 271.051 -1.99712 -0.439935 0
M  V30 2894 H 269.206 -2.63492 -2.83991 0
M  V30 2895 H 269.62 -4.75693 -2.20945 0
M  V30 2896 H 271.094 -4.03959 -3.76193 0
M  V30 2897 H 271.571 -2.34403 -3.71419 0
M  V30 2898 H 272.177 -3.46186 -2.47053 0
M  V30 2899 N 270.492 0.636531 -1.44174 0
M  V30 2900 C 271.402 1.77754 -1.53103 0
M  V30 2901 C 272.418 1.68928 -0.417034 0
M  V30 2902 O 273.594 1.89801 -0.6736 0
M  V30 2903 C 270.659 3.14115 -1.46741 0
M  V30 2904 C 269.72 3.34612 -2.68948 0
M  V30 2905 C 268.953 4.64467 -2.6288 0
M  V30 2906 O 269.176 5.44919 -1.68581 0
M  V30 2907 O 268.11 4.87049 -3.53648 0
M  V30 2908 H 271.936 1.73174 -2.49489 0
M  V30 2909 H 269.521 0.79709 -1.2636 0
M  V30 2910 H 271.403 3.95412 -1.45696 0
M  V30 2911 H 270.078 3.19249 -0.534975 0
M  V30 2912 H 268.985 2.53014 -2.75562 0
M  V30 2913 H 270.318 3.34336 -3.61221 0
M  V30 2914 N 271.97 1.30982 0.876444 0
M  V30 2915 C 273.219 1.19658 1.62373 0
M  V30 2916 C 273.532 -0.245636 1.94052 0
M  V30 2917 O 274.738 -0.48049 2.67214 0
M  V30 2918 C 273.194 2.09433 2.92687 0
M  V30 2919 C 272.802 3.58613 2.68516 0
M  V30 2920 C 274.546 2.06893 3.70669 0
M  V30 2921 C 272.453 4.40416 3.94699 0
M  V30 2922 H 271.383 0.444268 0.609214 0
M  V30 2923 H 274.034 1.55791 0.969605 0
M  V30 2924 H 272.416 1.66191 3.59439 0
M  V30 2925 H 273.59 4.10058 2.10212 0
M  V30 2926 H 271.905 3.63063 2.03898 0
M  V30 2927 H 274.502 2.65258 4.64265 0
M  V30 2928 H 274.845 1.05448 4.02724 0
M  V30 2929 H 275.378 2.48301 3.10792 0
M  V30 2930 H 272.117 5.42591 3.67798 0
M  V30 2931 H 271.637 3.93731 4.52477 0
M  V30 2932 H 273.316 4.52294 4.62644 0
M  V30 2933 N 273.449 -1.08991 1.13837 0
M  V30 2934 C 274.397 -2.17841 0.815347 0
M  V30 2935 C 275.391 -1.68164 -0.204233 0
M  V30 2936 O 276.597 -1.79897 -0.0609304 0
M  V30 2937 H 272.972 -0.710654 0.245915 0
M  V30 2938 H 274.943 -2.42315 1.74143 0
M  V30 2939 C 273.692 -3.46381 0.302614 0
M  V30 2940 H 273.015 -3.84979 1.0785 0
M  V30 2941 H 274.455 -4.23844 0.115074 0
M  V30 2942 C 272.914 -3.22556 -0.972591 0
M  V30 2943 O 273.444 -3.45599 -2.04754 0
M  V30 2944 N 271.65 -2.76134 -0.905455 0
M  V30 2945 H 271.197 -2.57582 -0.0305421 0
M  V30 2946 H 271.155 -2.60571 -1.75926 0
M  V30 2947 N 274.927 -0.932562 -1.27047 0
M  V30 2948 C 276.152 -0.591474 -1.98787 0
M  V30 2949 C 276.577 0.824601 -1.69062 0
M  V30 2950 O 275.935 1.5541 -0.933677 0
M  V30 2951 C 275.983 -0.829808 -3.50922 0
M  V30 2952 O 275.087 0.102266 -4.12273 0
M  V30 2953 H 274.428 -0.227185 -0.623926 0
M  V30 2954 H 276.958 -1.25314 -1.61733 0
M  V30 2955 H 276.968 -0.747292 -4.01098 0
M  V30 2956 H 275.643 -1.86201 -3.7189 0
M  V30 2957 H 274.22 -0.0305761 -3.72887 0
M  V30 2958 N 276.405 1.4127 -0.698611 0
M  V30 2959 C 277.368 2.29158 -0.044132 0
M  V30 2960 C 278.368 1.44529 0.704841 0
M  V30 2961 O 279.558 1.65643 0.539276 0
M  V30 2962 C 276.69 3.27459 0.947809 0
M  V30 2963 H 277.883 2.88529 -0.817994 0
M  V30 2964 H 275.436 1.49307 -0.46228 0
M  V30 2965 H 276.171 2.73073 1.74933 0
M  V30 2966 H 275.956 3.8991 0.41385 0
M  V30 2967 H 277.446 3.93311 1.40344 0
M  V30 2968 N 277.883 0.443576 1.51229 0
M  V30 2969 C 278.813 -0.355142 2.30783 0
M  V30 2970 C 279.794 -1.0154 1.36468 0
M  V30 2971 O 280.979 -1.01785 1.65389 0
M  V30 2972 C 278.109 -1.45312 3.15439 0
M  V30 2973 C 277.063 -0.916002 4.18083 0
M  V30 2974 C 276.389 -2.1102 4.91299 0
M  V30 2975 C 277.689 0.0538602 5.22272 0
M  V30 2976 H 279.383 0.308767 2.97804 0
M  V30 2977 H 276.929 0.149937 1.43217 0
M  V30 2978 H 278.882 -2.01914 3.69876 0
M  V30 2979 H 277.606 -2.14541 2.46252 0
M  V30 2980 H 276.265 -0.372145 3.64706 0
M  V30 2981 H 275.913 -2.78882 4.18609 0
M  V30 2982 H 275.613 -1.75717 5.60712 0
M  V30 2983 H 277.137 -2.68164 5.48562 0
M  V30 2984 H 278.551 -0.422069 5.71744 0
M  V30 2985 H 276.948 0.319776 5.99247 0
M  V30 2986 H 278.018 0.98858 4.74716 0
M  V30 2987 N 279.361 -1.56624 0.175154 0
M  V30 2988 C 280.607 -1.9729 -0.469506 0
M  V30 2989 C 280.94 -1.06128 -1.62636 0
M  V30 2990 O 280.215 -0.109183 -1.94193 0
M  V30 2991 C 280.498 -3.47375 -0.948804 0
M  V30 2992 C 280.351 -4.49317 0.208491 0
M  V30 2993 C 281.67 -4.00652 -1.82116 0
M  V30 2994 H 278.789 -0.717317 -0.16919 0
M  V30 2995 H 281.431 -1.88184 0.262062 0
M  V30 2996 H 279.581 -3.55267 -1.57219 0
M  V30 2997 H 281.253 -4.53482 0.845682 0
M  V30 2998 H 279.496 -4.25121 0.863395 0
M  V30 2999 H 280.167 -5.51741 -0.169059 0
M  V30 3000 H 282.643 -3.95416 -1.2956 0
M  V30 3001 H 281.519 -5.06075 -2.12554 0
M  V30 3002 H 281.78 -3.44699 -2.7683 0
M  V30 3003 N 280.839 0.0985539 -1.57292 0
M  V30 3004 C 281.769 1.12064 -2.04851 0
M  V30 3005 C 282.75 1.41981 -0.936767 0
M  V30 3006 O 283.935 1.52071 -1.20781 0
M  V30 3007 C 281.065 2.44144 -2.47004 0
M  V30 3008 C 280.019 2.28643 -3.6181 0
M  V30 3009 C 279.345 3.65869 -3.89929 0
M  V30 3010 C 280.645 1.72986 -4.92822 0
M  V30 3011 H 282.339 0.724979 -2.9049 0
M  V30 3012 H 279.885 0.34729 -1.39749 0
M  V30 3013 H 281.838 3.15914 -2.78884 0
M  V30 3014 H 280.562 2.85639 -1.5836 0
M  V30 3015 H 279.221 1.59318 -3.30172 0
M  V30 3016 H 278.869 4.04885 -2.98458 0
M  V30 3017 H 278.569 3.56344 -4.67218 0
M  V30 3018 H 280.093 4.39112 -4.2428 0
M  V30 3019 H 281.507 2.34593 -5.23105 0
M  V30 3020 H 279.904 1.74229 -5.74251 0
M  V30 3021 H 280.974 0.689007 -4.7998 0
M  V30 3022 N 282.317 1.53212 0.369288 0
M  V30 3023 C 283.264 1.79388 1.45219 0
M  V30 3024 C 284.234 0.638059 1.53356 0
M  V30 3025 O 285.419 0.879852 1.69302 0
M  V30 3026 C 282.559 1.98623 2.82211 0
M  V30 3027 C 281.672 3.26337 2.8307 0
M  V30 3028 C 280.807 3.35779 4.11614 0
M  V30 3029 C 279.846 4.5754 4.06601 0
M  V30 3030 N 278.983 4.64155 5.26787 0
M  V30 3031 H 283.823 2.71794 1.22198 0
M  V30 3032 H 281.36 1.34642 0.592444 0
M  V30 3033 H 283.318 2.07761 3.61789 0
M  V30 3034 H 281.948 1.09558 3.03639 0
M  V30 3035 H 281 3.26171 1.95747 0
M  V30 3036 H 282.312 4.15988 2.75237 0
M  V30 3037 H 281.466 3.44208 4.99606 0
M  V30 3038 H 280.205 2.44137 4.22195 0
M  V30 3039 H 279.21 4.49215 3.16996 0
M  V30 3040 H 280.435 5.50519 3.97625 0
M  V30 3041 H 278.381 3.75413 5.3796 0
M  V30 3042 H 278.298 5.47706 5.21109 0
M  V30 3043 H 279.566 4.76863 6.16621 0
M  V30 3044 N 283.795 -0.628877 1.44509 0
M  V30 3045 C 285.041 -1.39045 1.47629 0
M  V30 3046 C 285.374 -1.93892 0.109343 0
M  V30 3047 O 284.649 -1.7379 -0.87334 0
M  V30 3048 C 284.932 -2.55408 2.53848 0
M  V30 3049 C 284.785 -2.05896 3.99909 0
M  V30 3050 C 286.104 -3.5759 2.56549 0
M  V30 3051 H 283.223 -0.504232 0.537512 0
M  V30 3052 H 285.865 -0.710854 1.76201 0
M  V30 3053 H 284.015 -3.13384 2.29615 0
M  V30 3054 H 285.687 -1.52734 4.35282 0
M  V30 3055 H 283.93 -1.37061 4.11578 0
M  V30 3056 H 284.601 -2.89681 4.69882 0
M  V30 3057 H 287.077 -3.09419 2.78207 0
M  V30 3058 H 285.953 -4.36527 3.32769 0
M  V30 3059 H 286.214 -4.11808 1.60832 0
M  V30 3060 N 285.273 -1.31445 -0.869486 0
M  V30 3061 C 286.498 -1.24256 -1.66058 0
M  V30 3062 C 286.923 0.188928 -1.87149 0
M  V30 3063 O 286.281 1.13522 -1.4136 0
M  V30 3064 C 286.329 -1.9924 -3.00559 0
M  V30 3065 O 285.433 -1.33007 -3.90362 0
M  V30 3066 H 284.774 -0.428973 -0.506831 0
M  V30 3067 H 287.304 -1.73521 -1.08404 0
M  V30 3068 H 287.314 -2.08854 -3.50491 0
M  V30 3069 H 285.989 -3.03342 -2.84528 0
M  V30 3070 H 284.566 -1.31848 -3.48813 0
M  V30 3071 N 286.751 1.08385 -1.14413 0
M  V30 3072 C 287.997 1.81212 -0.923793 0
M  V30 3073 C 288.352 1.84555 0.543814 0
M  V30 3074 O 287.645 1.31056 1.39767 0
M  V30 3075 C 287.839 3.26273 -1.45879 0
M  V30 3076 C 287.668 3.37063 -2.97689 0
M  V30 3077 C 286.438 3.4824 -3.66138 0
M  V30 3078 C 288.636 3.28698 -3.95553 0
M  V30 3079 N 286.618 3.47824 -5.05858 0
M  V30 3080 C 287.989 3.35276 -5.21527 0
M  V30 3081 C 290.044 3.12437 -3.8767 0
M  V30 3082 C 288.747 3.27267 -6.40538 0
M  V30 3083 C 290.773 3.05757 -5.06228 0
M  V30 3084 C 290.135 3.12938 -6.3107 0
M  V30 3085 H 286.234 0.6769 -0.391574 0
M  V30 3086 H 288.818 1.29455 -1.45429 0
M  V30 3087 H 286.989 3.76474 -0.95507 0
M  V30 3088 H 288.721 3.87165 -1.17835 0
M  V30 3089 H 285.476 3.52141 -3.16692 0
M  V30 3090 H 285.9 3.51171 -5.78798 0
M  V30 3091 H 290.542 3.05747 -2.92025 0
M  V30 3092 H 288.26 3.32718 -7.36427 0
M  V30 3093 H 291.846 2.94295 -5.01878 0
M  V30 3094 H 290.726 3.078 -7.21269 0
M  V30 3095 N 288.23 0.939286 1.26551 0
M  V30 3096 C 289.479 0.581601 1.93133 0
M  V30 3097 C 289.792 -0.883224 1.74524 0
M  V30 3098 O 290.998 -1.3502 2.35546 0
M  V30 3099 C 289.454 0.989425 3.46032 0
M  V30 3100 C 289.062 2.47573 3.73379 0
M  V30 3101 C 290.806 0.703544 4.18629 0
M  V30 3102 C 288.713 2.82235 5.19709 0
M  V30 3103 H 287.643 0.213803 0.723052 0
M  V30 3104 H 290.294 1.14167 1.4366 0
M  V30 3105 H 288.676 0.357902 3.94379 0
M  V30 3106 H 289.85 3.15614 3.35744 0
M  V30 3107 H 288.165 2.73471 3.1401 0
M  V30 3108 H 290.762 0.938869 5.26393 0
M  V30 3109 H 291.105 -0.359639 4.14744 0
M  V30 3110 H 291.638 1.2947 3.76141 0
M  V30 3111 H 288.377 3.87509 5.28694 0
M  V30 3112 H 287.897 2.18854 5.58447 0
M  V30 3113 H 289.576 2.70599 5.87695 0
M  V30 3114 N 289.708 -1.40897 0.706093 0
M  V30 3115 C 290.936 -2.05373 0.250887 0
M  V30 3116 C 291.351 -1.53172 -1.10381 0
M  V30 3117 O 290.708 -0.684305 -1.69185 0
M  V30 3118 C 290.759 -3.6088 0.211571 0
M  V30 3119 O 290.48 -4.11153 1.51276 0
M  V30 3120 C 291.981 -4.42517 -0.263346 0
M  V30 3121 H 289.201 -0.66115 0.114552 0
M  V30 3122 H 291.745 -1.80479 0.961635 0
M  V30 3123 H 289.9 -3.84777 -0.450073 0
M  V30 3124 H 290.314 -5.05279 1.40689 0
M  V30 3125 H 291.788 -5.51479 -0.239718 0
M  V30 3126 H 292.265 -4.19396 -1.30397 0
M  V30 3127 H 292.871 -4.23708 0.367677 0
M  V30 3128 N 291.186 -0.45159 -1.50991 0
M  V30 3129 C 292.433 0.110074 -2.02201 0
M  V30 3130 C 292.761 1.4146 -1.33489 0
M  V30 3131 O 292.016 1.90617 -0.443125 0
M  V30 3132 C 292.315 0.361728 -3.55565 0
M  V30 3133 C 291.981 -0.858717 -4.42648 0
M  V30 3134 C 290.643 -1.19338 -4.66167 0
M  V30 3135 C 292.995 -1.67221 -4.93646 0
M  V30 3136 C 290.323 -2.34195 -5.37931 0
M  V30 3137 C 292.675 -2.8119 -5.6667 0
M  V30 3138 C 291.339 -3.15094 -5.88449 0
M  V30 3139 H 290.609 0.040279 -0.739904 0
M  V30 3140 H 293.256 -0.601696 -1.81802 0
M  V30 3141 H 291.561 1.15554 -3.74372 0
M  V30 3142 H 293.258 0.80996 -3.92735 0
M  V30 3143 H 289.848 -0.58796 -4.24548 0
M  V30 3144 H 294.032 -1.42686 -4.75347 0
M  V30 3145 H 289.288 -2.6076 -5.53005 0
M  V30 3146 H 293.462 -3.44585 -6.05173 0
M  V30 3147 H 291.089 -4.04204 -6.43835 0
M  V30 3148 N 292.664 1.56529 -0.183458 0
M  V30 3149 C 293.594 2.21549 0.737456 0
M  V30 3150 C 294.575 1.17489 1.23005 0
M  V30 3151 O 295.76 1.45959 1.281 0
M  V30 3152 C 292.89 2.86575 1.96194 0
M  V30 3153 C 291.844 3.96778 1.60473 0
M  V30 3154 C 291.17 4.48911 2.90487 0
M  V30 3155 C 292.47 5.15767 0.823497 0
M  V30 3156 H 294.164 2.98761 0.195453 0
M  V30 3157 H 291.71 1.43702 0.0925686 0
M  V30 3158 H 293.663 3.30739 2.61131 0
M  V30 3159 H 292.387 2.06749 2.52828 0
M  V30 3160 H 291.046 3.53286 0.978997 0
M  V30 3161 H 290.694 3.65862 3.45186 0
M  V30 3162 H 290.394 5.23265 2.67335 0
M  V30 3163 H 291.918 4.95771 3.56432 0
M  V30 3164 H 293.332 5.56549 1.37571 0
M  V30 3165 H 291.729 5.96114 0.690551 0
M  V30 3166 H 292.799 4.84574 -0.177782 0
M  V30 3167 N 294.142 -0.090211 1.57342 0
M  V30 3168 C 295.072 -1.10976 2.05443 0
M  V30 3169 C 296.053 -1.41482 0.944284 0
M  V30 3170 O 297.238 -1.51428 1.21586 0
M  V30 3171 C 294.368 -2.42831 2.48295 0
M  V30 3172 C 293.322 -2.26721 3.63018 0
M  V30 3173 C 292.648 -3.63796 3.91863 0
M  V30 3174 C 293.948 -1.7037 4.93732 0
M  V30 3175 H 295.642 -0.709564 2.9087 0
M  V30 3176 H 293.188 -0.339874 1.39932 0
M  V30 3177 H 295.141 -3.14431 2.80555 0
M  V30 3178 H 293.865 -2.84795 1.59873 0
M  V30 3179 H 292.524 -1.57565 3.31012 0
M  V30 3180 H 292.172 -4.03297 3.00601 0
M  V30 3181 H 291.872 -3.53861 4.69101 0
M  V30 3182 H 293.396 -4.36855 4.26603 0
M  V30 3183 H 294.81 -2.31816 5.24342 0
M  V30 3184 H 293.207 -1.71181 5.75167 0
M  V30 3185 H 294.277 -0.663542 4.80339 0
M  V30 3186 N 295.62 -1.53406 -0.361157 0
M  V30 3187 C 296.583 -1.79479 -1.42548 0
M  V30 3188 C 297.583 -0.665327 -1.4639 0
M  V30 3189 O 298.773 -0.933549 -1.47073 0
M  V30 3190 C 295.905 -1.92087 -2.8163 0
M  V30 3191 H 297.098 -2.74538 -1.20701 0
M  V30 3192 H 294.651 -1.4455 -0.594546 0
M  V30 3193 H 295.386 -0.991099 -3.08784 0
M  V30 3194 H 295.171 -2.74241 -2.80239 0
M  V30 3195 H 296.661 -2.13836 -3.58697 0
M  V30 3196 N 297.098 0.621204 -1.44841 0
M  V30 3197 C 298.045 1.73267 -1.5247 0
M  V30 3198 C 299.015 1.6189 -0.371611 0
M  V30 3199 O 300.2 1.81668 -0.58321 0
M  V30 3200 C 297.34 3.11545 -1.48438 0
M  V30 3201 C 296.453 3.33827 -2.74196 0
M  V30 3202 C 295.588 4.62133 -2.61929 0
M  V30 3203 C 294.627 4.77627 -3.82804 0
M  V30 3204 N 293.764 5.97219 -3.69153 0
M  V30 3205 H 298.604 1.66082 -2.47428 0
M  V30 3206 H 296.141 0.810026 -1.22788 0
M  V30 3207 H 298.099 3.91528 -1.4409 0
M  V30 3208 H 296.729 3.1772 -0.570402 0
M  V30 3209 H 295.781 2.47715 -2.88689 0
M  V30 3210 H 297.093 3.41153 -3.6389 0
M  V30 3211 H 296.247 5.50291 -2.5547 0
M  V30 3212 H 294.986 4.57182 -1.69811 0
M  V30 3213 H 293.991 3.87896 -3.89637 0
M  V30 3214 H 295.216 4.84385 -4.75971 0
M  V30 3215 H 293.162 5.93339 -2.79794 0
M  V30 3216 H 293.079 6.05644 -4.52472 0
M  V30 3217 H 294.347 6.87912 -3.66603 0
M  V30 3218 N 298.576 1.31904 0.862503 0
M  V30 3219 C 299.824 1.21776 1.61292 0
M  V30 3220 C 300.145 -0.222413 1.93727 0
M  V30 3221 O 299.415 -1.1451 1.58947 0
M  V30 3222 H 297.995 0.447717 0.597962 0
M  V30 3223 H 300.657 1.65326 1.03215 0
M  V30 3224 H 299.753 1.7948 2.5533 0
M  V30 3225 N 300.054 -1.07777 1.14986 0
M  V30 3226 C 300.964 -2.18404 0.856546 0
M  V30 3227 C 301.98 -1.73211 -0.165485 0
M  V30 3228 O 303.156 -2.01399 0.00755219 0
M  V30 3229 C 300.221 -3.44977 0.34526 0
M  V30 3230 C 299.282 -4.0476 1.43065 0
M  V30 3231 C 298.515 -5.25291 0.943663 0
M  V30 3232 O 298.738 -5.70004 -0.212426 0
M  V30 3233 O 297.672 -5.76638 1.72547 0
M  V30 3234 H 301.498 -2.45978 1.78125 0
M  V30 3235 H 299.083 -1.17033 0.928631 0
M  V30 3236 H 300.965 -4.21348 0.0663671 0
M  V30 3237 H 299.64 -3.18965 -0.551631 0
M  V30 3238 H 298.547 -3.29949 1.76309 0
M  V30 3239 H 299.88 -4.35035 2.30229 0
M  V30 3240 N 301.532 -0.945985 -1.26051 0
M  V30 3241 C 302.778 -0.597002 -1.93814 0
M  V30 3242 C 303.111 0.862484 -1.73997 0
M  V30 3243 O 302.386 1.61769 -1.07986 0
M  V30 3244 C 302.669 -0.945937 -3.47454 0
M  V30 3245 C 302.522 -2.46052 -3.76535 0
M  V30 3246 C 303.841 -0.464785 -4.37639 0
M  V30 3247 H 300.96 -0.218366 -0.703907 0
M  V30 3248 H 303.602 -1.18107 -1.48831 0
M  V30 3249 H 301.752 -0.448902 -3.85898 0
M  V30 3250 H 303.424 -3.03065 -3.47778 0
M  V30 3251 H 301.667 -2.90194 -3.22444 0
M  V30 3252 H 302.338 -2.65517 -4.83947 0
M  V30 3253 H 304.814 -0.891016 -4.06448 0
M  V30 3254 H 303.69 -0.737712 -5.4392 0
M  V30 3255 H 303.951 0.635274 -4.37512 0
M  V30 3256 N 303.011 1.40521 -0.713556 0
M  V30 3257 C 303.941 2.33381 -0.0743864 0
M  V30 3258 C 304.922 1.52784 0.747735 0
M  V30 3259 O 306.107 1.81258 0.697071 0
M  V30 3260 C 303.237 3.36748 0.849598 0
M  V30 3261 C 302.191 4.27793 0.133247 0
M  V30 3262 C 301.517 5.21679 1.17281 0
M  V30 3263 C 302.817 5.12415 -1.01134 0
M  V30 3264 H 304.511 2.87081 -0.850007 0
M  V30 3265 H 302.057 1.38034 -0.410201 0
M  V30 3266 H 304.01 4.00648 1.30612 0
M  V30 3267 H 302.734 2.81439 1.65709 0
M  V30 3268 H 301.393 3.65342 -0.303426 0
M  V30 3269 H 301.041 4.62677 1.9733 0
M  V30 3270 H 300.741 5.83435 0.698397 0
M  V30 3271 H 302.265 5.88456 1.62947 0
M  V30 3272 H 303.679 5.69781 -0.634274 0
M  V30 3273 H 302.076 5.83203 -1.41399 0
M  V30 3274 H 303.146 4.48514 -1.84292 0
M  V30 3275 N 304.489 0.459591 1.5075 0
M  V30 3276 C 305.421 -0.37665 2.26084 0
M  V30 3277 C 306.434 -0.967109 1.30961 0
M  V30 3278 O 307.623 -0.857468 1.56556 0
M  V30 3279 C 304.723 -1.54112 3.01832 0
M  V30 3280 C 303.896 -1.06553 4.24223 0
M  V30 3281 C 302.955 -2.1027 4.82362 0
M  V30 3282 O 301.981 -1.68798 5.43595 0
M  V30 3283 N 303.183 -3.42974 4.68347 0
M  V30 3284 H 305.948 0.269124 2.98489 0
M  V30 3285 H 303.509 0.28972 1.59287 0
M  V30 3286 H 305.501 -2.23165 3.37608 0
M  V30 3287 H 304.071 -2.0918 2.32298 0
M  V30 3288 H 303.291 -0.201274 3.93686 0
M  V30 3289 H 304.579 -0.725516 5.03601 0
M  V30 3290 H 303.977 -3.79385 4.19623 0
M  V30 3291 H 302.534 -4.07858 5.08424 0
M  V30 3292 N 305.967 -1.56429 0.191757 0
M  V30 3293 C 306.9 -2.14829 -0.76967 0
M  V30 3294 C 307.878 -1.08405 -1.2119 0
M  V30 3295 O 309.062 -1.36498 -1.30002 0
M  V30 3296 C 306.189 -2.70446 -2.03903 0
M  V30 3297 C 305.235 -3.89428 -1.7392 0
M  V30 3298 S 306.068 -5.28048 -0.890265 0
M  V30 3299 C 307.224 -5.87085 -2.16984 0
M  V30 3300 H 307.457 -2.96042 -0.273204 0
M  V30 3301 H 304.99 -1.54383 -0.0231975 0
M  V30 3302 H 306.948 -3.03134 -2.76803 0
M  V30 3303 H 305.609 -1.89281 -2.50662 0
M  V30 3304 H 304.802 -4.26742 -2.68155 0
M  V30 3305 H 304.404 -3.57732 -1.09103 0
M  V30 3306 H 306.696 -6.01244 -3.12269 0
M  V30 3307 H 307.639 -6.83747 -1.84108 0
M  V30 3308 H 308.047 -5.15663 -2.29678 0
M  V30 3309 N 307.445 0.0818655 -1.57387 0
M  V30 3310 C 308.355 1.11642 -2.06333 0
M  V30 3311 C 309.371 1.43033 -0.99083 0
M  V30 3312 O 310.547 1.53411 -1.30488 0
M  V30 3313 C 307.612 2.41342 -2.48907 0
M  V30 3314 C 306.673 2.17014 -3.7041 0
M  V30 3315 C 305.906 3.4053 -4.10944 0
M  V30 3316 O 306.129 4.4927 -3.51444 0
M  V30 3317 O 305.063 3.29336 -5.03807 0
M  V30 3318 H 308.889 0.730657 -2.9478 0
M  V30 3319 H 306.474 0.295301 -1.46452 0
M  V30 3320 H 308.356 3.17691 -2.76858 0
M  V30 3321 H 307.031 2.79319 -1.63593 0
M  V30 3322 H 305.938 1.38403 -3.47556 0
M  V30 3323 H 307.271 1.83923 -4.56545 0
M  V30 3324 N 308.923 1.53595 0.353017 0
M  V30 3325 C 310.2 1.61002 1.11075 0
M  V30 3326 C 310.58 0.425356 2.0677 0
M  V30 3327 O 309.928 -0.583267 2.2093 0
M  V30 3328 C 310.138 2.96631 1.83877 0
M  V30 3329 C 311.486 3.51653 2.37961 0
M  V30 3330 O 312.51 2.98743 1.93987 0
M  V30 3331 O 311.369 4.44177 3.18386 0
M  V30 3332 H 308.463 0.650825 0.510251 0
M  V30 3333 H 311.009 1.6594 0.35527 0
M  V30 3334 H 309.781 3.74293 1.14108 0
M  V30 3335 H 309.404 2.95242 2.66304 0
M  V30 3336 N 310.401 -0.613514 1.45168 0
M  V30 3337 C 311.678 -1.37263 1.39349 0
M  V30 3338 C 312.058 -2.11012 0.0610848 0
M  V30 3339 O 311.406 -2.07502 -0.956825 0
M  V30 3340 C 311.616 -2.3244 2.60332 0
M  V30 3341 C 312.964 -2.9523 3.05163 0
M  V30 3342 O 313.988 -2.42762 2.60663 0
M  V30 3343 O 312.847 -3.90454 3.82372 0
M  V30 3344 H 309.941 -0.615188 0.552696 0
M  V30 3345 H 312.487 -0.637097 1.57287 0
M  V30 3346 H 311.259 -1.77164 3.48896 0
M  V30 3347 H 310.882 -3.13383 2.44698 0
M  V30 3348 N 311.879 -1.3236 -0.855495 0
M  V30 3349 C 312.809 -1.23833 -1.97958 0
M  V30 3350 C 313.79 -0.122361 -1.69659 0
M  V30 3351 O 314.975 -0.30939 -1.9172 0
M  V30 3352 C 312.105 -0.959772 -3.33775 0
M  V30 3353 C 311.059 -2.03689 -3.76424 0
M  V30 3354 C 310.385 -1.61075 -5.09862 0
M  V30 3355 C 311.685 -3.4518 -3.9198 0
M  V30 3356 H 313.379 -2.1788 -2.0535 0
M  V30 3357 H 310.925 -1.04891 -0.986605 0
M  V30 3358 H 312.878 -0.886678 -4.11966 0
M  V30 3359 H 311.602 0.0163404 -3.26596 0
M  V30 3360 H 310.261 -2.10012 -3.00484 0
M  V30 3361 H 309.909 -0.622107 -4.99138 0
M  V30 3362 H 309.609 -2.33143 -5.39368 0
M  V30 3363 H 311.133 -1.55201 -5.90546 0
M  V30 3364 H 312.547 -3.4145 -4.60526 0
M  V30 3365 H 310.944 -4.1559 -4.32903 0
M  V30 3366 H 312.014 -3.84903 -2.94919 0
M  V30 3367 N 313.357 1.07166 -1.15556 0
M  V30 3368 C 314.603 1.80065 -0.932984 0
M  V30 3369 C 314.936 1.86586 0.53845 0
M  V30 3370 O 314.211 1.35098 1.39924 0
M  V30 3371 C 314.494 3.25022 -1.55025 0
M  V30 3372 C 314.347 3.26634 -3.09242 0
M  V30 3373 C 315.666 4.22341 -1.2376 0
M  V30 3374 H 312.785 0.653697 -0.340366 0
M  V30 3375 H 315.427 1.25389 -1.4275 0
M  V30 3376 H 313.577 3.71712 -1.12972 0
M  V30 3377 H 315.249 2.88173 -3.60214 0
M  V30 3378 H 313.492 2.65539 -3.43033 0
M  V30 3379 H 314.163 4.28854 -3.47546 0
M  V30 3380 H 316.639 3.8405 -1.60139 0
M  V30 3381 H 315.515 5.22053 -1.69564 0
M  V30 3382 H 315.776 4.41828 -0.154938 0
M  V30 3383 N 314.835 0.952656 1.25548 0
M  V30 3384 C 316.084 0.602053 1.92505 0
M  V30 3385 C 316.397 -0.864663 1.75451 0
M  V30 3386 O 317.603 -1.32514 2.36965 0
M  V30 3387 C 316.059 1.02607 3.44963 0
M  V30 3388 C 315.667 2.51519 3.70732 0
M  V30 3389 C 317.411 0.747905 4.1786 0
M  V30 3390 C 315.318 2.87732 5.16686 0
M  V30 3391 H 314.248 0.22146 0.720744 0
M  V30 3392 H 316.899 1.15684 1.42441 0
M  V30 3393 H 315.281 0.399712 3.93978 0
M  V30 3394 H 316.455 3.19157 3.32378 0
M  V30 3395 H 314.77 2.76786 3.11092 0
M  V30 3396 H 317.367 0.994647 5.25367 0
M  V30 3397 H 317.71 -0.315629 4.15102 0
M  V30 3398 H 318.243 1.33452 3.74747 0
M  V30 3399 H 314.982 3.93095 5.24554 0
M  V30 3400 H 314.502 2.24765 5.56094 0
M  V30 3401 H 316.181 2.76817 5.84792 0
M  V30 3402 N 316.313 -1.40141 0.720998 0
M  V30 3403 C 317.538 -2.05618 0.271258 0
M  V30 3404 C 317.963 -1.53978 -1.08039 0
M  V30 3405 O 317.321 -0.677463 -1.68167 0
M  V30 3406 C 317.369 -3.59609 0.267197 0
M  V30 3407 O 316.473 -4.05526 -0.749814 0
M  V30 3408 H 315.814 -0.651904 0.126162 0
M  V30 3409 H 318.344 -1.79439 0.982997 0
M  V30 3410 H 318.354 -4.0786 0.106744 0
M  V30 3411 H 317.029 -3.96559 1.25354 0
M  V30 3412 H 315.606 -3.68722 -0.556644 0
M  V30 3413 N 317.792 -0.46758 -1.50504 0
M  V30 3414 C 319.039 0.0886219 -2.02306 0
M  V30 3415 C 319.367 1.40037 -1.34981 0
M  V30 3416 O 318.622 1.90136 -0.463318 0
M  V30 3417 C 318.921 0.323995 -3.55928 0
M  V30 3418 C 318.587 -0.905618 -4.41712 0
M  V30 3419 C 317.249 -1.24275 -4.64875 0
M  V30 3420 C 319.601 -1.72448 -4.91845 0
M  V30 3421 C 316.929 -2.39888 -5.35417 0
M  V30 3422 C 319.281 -2.87185 -5.63656 0
M  V30 3423 C 317.945 -3.21317 -5.85074 0
M  V30 3424 H 317.215 0.0324291 -0.74029 0
M  V30 3425 H 319.862 -0.620945 -1.81153 0
M  V30 3426 H 318.167 1.11577 -3.75577 0
M  V30 3427 H 319.864 0.76826 -3.93572 0
M  V30 3428 H 316.454 -0.632956 -4.239 0
M  V30 3429 H 320.638 -1.4772 -4.73806 0
M  V30 3430 H 315.894 -2.66611 -5.50208 0
M  V30 3431 H 320.068 -3.50985 -6.01484 0
M  V30 3432 H 317.695 -4.1101 -6.39511 0
M  V30 3433 N 319.27 1.56325 -0.20005 0
M  V30 3434 C 320.202 2.16555 0.750771 0
M  V30 3435 C 321.215 1.12871 1.1732 0
M  V30 3436 O 322.404 1.39943 1.10807 0
M  V30 3437 C 319.504 2.71684 2.02586 0
M  V30 3438 C 318.677 4.00321 1.76244 0
M  V30 3439 C 317.736 4.40227 2.88248 0
M  V30 3440 O 316.762 5.07552 2.57642 0
M  V30 3441 N 317.964 4.04138 4.16717 0
M  V30 3442 H 320.729 2.98772 0.235685 0
M  V30 3443 H 318.29 1.6189 -0.0182594 0
M  V30 3444 H 320.282 2.95363 2.76664 0
M  V30 3445 H 318.852 1.93893 2.45202 0
M  V30 3446 H 318.072 3.84723 0.85919 0
M  V30 3447 H 319.36 4.84279 1.56048 0
M  V30 3448 H 318.758 3.49993 4.44434 0
M  V30 3449 H 317.315 4.32756 4.87407 0
M  V30 3450 N 320.748 -0.0735177 1.57428 0
M  V30 3451 C 321.678 -1.0879 2.06608 0
M  V30 3452 C 322.659 -1.40473 0.959237 0
M  V30 3453 O 323.844 -1.5013 1.23185 0
M  V30 3454 C 320.974 -2.40183 2.50857 0
M  V30 3455 C 319.928 -2.22858 3.65402 0
M  V30 3456 C 319.254 -3.59619 3.957 0
M  V30 3457 C 320.554 -1.65123 4.95511 0
M  V30 3458 H 322.248 -0.678673 2.91607 0
M  V30 3459 H 319.794 -0.325013 1.40284 0
M  V30 3460 H 321.747 -3.11437 2.83874 0
M  V30 3461 H 320.471 -2.83083 1.62885 0
M  V30 3462 H 319.13 -1.54045 3.32664 0
M  V30 3463 H 318.778 -4.00086 3.04861 0
M  V30 3464 H 318.478 -3.48866 4.72828 0
M  V30 3465 H 320.002 -4.32306 4.31212 0
M  V30 3466 H 321.416 -2.26241 5.26771 0
M  V30 3467 H 319.813 -1.65071 5.7695 0
M  V30 3468 H 320.883 -0.612559 4.81015 0
M  V30 3469 N 322.226 -1.5378 -0.344866 0
M  V30 3470 C 323.159 -1.7649 -1.4466 0
M  V30 3471 C 324.137 -0.613954 -1.50563 0
M  V30 3472 O 325.321 -0.84896 -1.683 0
M  V30 3473 C 322.448 -1.86235 -2.82903 0
M  V30 3474 C 321.494 -3.08375 -2.94631 0
M  V30 3475 S 322.327 -4.67457 -2.61236 0
M  V30 3476 C 323.483 -4.80079 -4.0159 0
M  V30 3477 H 323.716 -2.69661 -1.2518 0
M  V30 3478 H 321.249 -1.44632 -0.540455 0
M  V30 3479 H 323.207 -1.92535 -3.62547 0
M  V30 3480 H 321.868 -0.940786 -2.9968 0
M  V30 3481 H 321.061 -3.11865 -3.95925 0
M  V30 3482 H 320.663 -3.00294 -2.22934 0
M  V30 3483 H 322.955 -4.61407 -4.96094 0
M  V30 3484 H 323.898 -5.82168 -4.03095 0
M  V30 3485 H 324.306 -4.08544 -3.89554 0
M  V30 3486 N 323.704 0.605807 -1.45491 0
M  V30 3487 C 324.634 1.72709 -1.57143 0
M  V30 3488 C 325.615 1.6476 -0.422884 0
M  V30 3489 O 326.8 1.83132 -0.646247 0
M  V30 3490 C 323.93 3.11316 -1.53948 0
M  V30 3491 C 322.884 3.34077 -2.67537 0
M  V30 3492 C 322.21 4.72975 -2.49397 0
M  V30 3493 C 323.51 3.24158 -4.09535 0
M  V30 3494 H 325.204 1.63214 -2.51001 0
M  V30 3495 H 322.75 0.78379 -1.208 0
M  V30 3496 H 324.703 3.89557 -1.60696 0
M  V30 3497 H 323.427 3.21655 -0.566205 0
M  V30 3498 H 322.086 2.58227 -2.6022 0
M  V30 3499 H 321.734 4.8005 -1.50205 0
M  V30 3500 H 321.434 4.8916 -3.25571 0
M  V30 3501 H 322.958 5.53414 -2.58002 0
M  V30 3502 H 324.372 3.92271 -4.18086 0
M  V30 3503 H 322.769 3.51872 -4.86113 0
M  V30 3504 H 323.839 2.2157 -4.31317 0
M  V30 3505 N 325.182 1.32811 0.848464 0
M  V30 3506 C 326.422 1.25046 1.61687 0
M  V30 3507 C 326.786 -0.183464 1.91121 0
M  V30 3508 O 327.987 -0.384937 2.66029 0
M  V30 3509 C 326.258 2.09201 2.89775 0
M  V30 3510 S 327.817 2.18526 3.80515 0
M  V30 3511 H 324.635 0.445023 0.554505 0
M  V30 3512 H 327.237 1.67733 1.00429 0
M  V30 3513 H 325.941 3.12433 2.66108 0
M  V30 3514 H 325.472 1.67315 3.56047 0
M  V30 3515 H 327.487 1.3393 4.77784 0
M  V30 3516 N 326.66 -1.06551 1.16123 0
M  V30 3517 C 327.906 -1.79567 0.94252 0
M  V30 3518 C 328.239 -1.86869 -0.528547 0
M  V30 3519 O 327.514 -1.35838 -1.39206 0
M  V30 3520 C 327.797 -3.24195 1.56747 0
M  V30 3521 C 327.65 -3.24989 3.10969 0
M  V30 3522 C 328.969 -4.21678 1.25998 0
M  V30 3523 H 326.088 -0.651883 0.343828 0
M  V30 3524 H 328.73 -1.2463 1.43413 0
M  V30 3525 H 326.88 -3.71107 1.14942 0
M  V30 3526 H 328.552 -2.86258 3.61737 0
M  V30 3527 H 326.795 -2.63716 3.44436 0
M  V30 3528 H 327.466 -4.27005 3.49815 0
M  V30 3529 H 329.942 -3.83196 1.62174 0
M  V30 3530 H 328.818 -5.21146 1.7233 0
M  V30 3531 H 329.079 -4.4174 0.178367 0
M  V30 3532 N 328.138 -0.959301 -1.25041 0
M  V30 3533 C 329.068 -0.501388 -2.28053 0
M  V30 3534 C 330.049 0.454673 -1.63911 0
M  V30 3535 O 331.234 0.352618 -1.90972 0
M  V30 3536 C 328.364 0.217224 -3.4662 0
M  V30 3537 C 327.318 -0.654034 -4.22973 0
M  V30 3538 C 326.644 0.195589 -5.34342 0
M  V30 3539 C 327.944 -1.93447 -4.85155 0
M  V30 3540 H 329.638 -1.36238 -2.66608 0
M  V30 3541 H 327.184 -0.656534 -1.28163 0
M  V30 3542 H 329.137 0.548732 -4.17812 0
M  V30 3543 H 327.861 1.1125 -3.07068 0
M  V30 3544 H 326.52 -0.968693 -3.5357 0
M  V30 3545 H 326.168 1.09076 -4.91031 0
M  V30 3546 H 325.868 -0.384091 -5.86343 0
M  V30 3547 H 327.392 0.521958 -6.08365 0
M  V30 3548 H 328.806 -1.66908 -5.48466 0
M  V30 3549 H 327.203 -2.46018 -5.47353 0
M  V30 3550 H 328.273 -2.63466 -4.07079 0
M  V30 3551 N 329.616 1.39756 -0.72842 0
M  V30 3552 C 330.893 1.94574 -0.200079 0
M  V30 3553 C 331.273 1.66569 1.29684 0
M  V30 3554 O 330.621 0.990326 2.05924 0
M  V30 3555 C 330.831 3.45004 -0.526608 0
M  V30 3556 C 332.179 4.21965 -0.472318 0
M  V30 3557 O 333.203 3.53173 -0.463413 0
M  V30 3558 O 332.062 5.44552 -0.461075 0
M  V30 3559 H 329.156 0.826289 -0.0342851 0
M  V30 3560 H 331.702 1.49293 -0.806829 0
M  V30 3561 H 330.474 3.58796 -1.56144 0
M  V30 3562 H 330.097 3.97449 0.109449 0
M  V30 3563 N 331.094 0.475555 1.50254 0
M  V30 3564 C 332.324 -0.0753399 2.06463 0
M  V30 3565 C 332.732 -1.33661 1.33908 0
M  V30 3566 O 332.075 -1.79219 0.403257 0
M  V30 3567 C 332.137 -0.424921 3.5698 0
M  V30 3568 C 331.801 0.734965 4.51051 0
M  V30 3569 C 332.798 1.61827 4.94073 0
M  V30 3570 C 330.483 0.926557 4.9368 0
M  V30 3571 C 332.477 2.67754 5.78434 0
M  V30 3572 C 330.164 1.98904 5.77824 0
M  V30 3573 C 331.162 2.8629 6.20103 0
M  V30 3574 O 330.85 3.90708 7.02568 0
M  V30 3575 H 330.582 0.00576308 0.675975 0
M  V30 3576 H 333.136 0.664662 1.94349 0
M  V30 3577 H 331.366 -1.21817 3.67012 0
M  V30 3578 H 333.055 -0.911422 3.95535 0
M  V30 3579 H 333.821 1.48196 4.61804 0
M  V30 3580 H 329.7 0.25584 4.6029 0
M  V30 3581 H 333.244 3.35992 6.11355 0
M  V30 3582 H 329.141 2.12541 6.09505 0
M  V30 3583 H 329.909 3.87751 7.20827 0
M  V30 3584 N 332.573 -1.56217 0.208337 0
M  V30 3585 C 333.82 -1.97949 -0.42692 0
M  V30 3586 C 334.148 -1.09562 -1.60706 0
M  V30 3587 O 333.403 -0.137616 -1.95216 0
M  V30 3588 C 333.702 -3.45441 -0.916797 0
M  V30 3589 C 333.368 -4.50646 0.151391 0
M  V30 3590 C 332.03 -4.79139 0.444867 0
M  V30 3591 C 334.382 -5.13811 0.874492 0
M  V30 3592 C 331.71 -5.68084 1.46619 0
M  V30 3593 C 334.062 -6.03861 1.88506 0
M  V30 3594 C 332.726 -6.30704 2.18559 0
M  V30 3595 H 331.996 -0.724345 -0.156221 0
M  V30 3596 H 334.643 -1.89006 0.308084 0
M  V30 3597 H 332.948 -3.51521 -1.73032 0
M  V30 3598 H 334.645 -3.75094 -1.41794 0
M  V30 3599 H 331.235 -4.28511 -0.0875068 0
M  V30 3600 H 335.419 -4.91879 0.660996 0
M  V30 3601 H 330.675 -5.87151 1.7048 0
M  V30 3602 H 334.849 -6.51861 2.45051 0
M  V30 3603 H 332.476 -6.99424 2.97843 0
M  V30 3604 N 334.051 0.0651679 -1.57465 0
M  V30 3605 C 335.3 0.761916 -1.86756 0
M  V30 3606 C 335.613 1.78406 -0.801925 0
M  V30 3607 O 336.819 2.53084 -0.982885 0
M  V30 3608 C 335.275 1.40603 -3.31299 0
M  V30 3609 C 334.883 0.422115 -4.46007 0
M  V30 3610 C 336.627 2.08476 -3.69781 0
M  V30 3611 C 334.534 1.07252 -5.81593 0
M  V30 3612 H 333.464 0.288308 -0.696702 0
M  V30 3613 H 336.115 0.015344 -1.83494 0
M  V30 3614 H 334.497 2.20109 -3.29193 0
M  V30 3615 H 335.671 -0.343613 -4.59517 0
M  V30 3616 H 333.986 -0.152527 -4.16121 0
M  V30 3617 H 336.583 2.57925 -4.68379 0
M  V30 3618 H 336.926 2.88712 -2.99919 0
M  V30 3619 H 337.459 1.35792 -3.73905 0
M  V30 3620 H 334.198 0.310342 -6.54765 0
M  V30 3621 H 333.718 1.80895 -5.71872 0
M  V30 3622 H 335.397 1.59043 -6.27148 0
M  V30 3623 N 335.529 1.53961 0.336706 0
M  V30 3624 C 336.476 1.82428 1.41381 0
M  V30 3625 C 337.446 0.670444 1.51968 0
M  V30 3626 O 338.631 0.915565 1.67398 0
M  V30 3627 C 335.771 2.04564 2.77934 0
M  V30 3628 C 334.884 3.32267 2.76084 0
M  V30 3629 C 334.019 3.44434 4.04399 0
M  V30 3630 C 333.058 4.66061 3.96804 0
M  V30 3631 N 332.195 4.75224 5.16823 0
M  V30 3632 H 337.035 2.74324 1.16405 0
M  V30 3633 H 334.572 1.35869 0.563752 0
M  V30 3634 H 336.53 2.15388 3.57301 0
M  V30 3635 H 335.16 1.15974 3.01247 0
M  V30 3636 H 334.212 3.3025 1.88784 0
M  V30 3637 H 335.524 4.21733 2.66351 0
M  V30 3638 H 334.678 3.54728 4.92192 0
M  V30 3639 H 333.417 2.53037 4.16921 0
M  V30 3640 H 332.422 4.55838 3.07396 0
M  V30 3641 H 333.647 5.58829 3.85858 0
M  V30 3642 H 331.593 3.86739 5.29876 0
M  V30 3643 H 331.51 5.58636 5.09374 0
M  V30 3644 H 332.778 4.89835 6.06367 0
M  V30 3645 N 337.007 -0.598083 1.45811 0
M  V30 3646 C 337.937 -1.71873 1.58057 0
M  V30 3647 C 338.918 -1.64533 0.431615 0
M  V30 3648 O 340.103 -1.82787 0.65595 0
M  V30 3649 C 337.233 -3.10495 1.55597 0
M  V30 3650 C 336.187 -3.32654 2.69305 0
M  V30 3651 C 335.513 -4.71646 2.51902 0
M  V30 3652 C 336.813 -3.21981 4.11248 0
M  V30 3653 H 338.507 -1.61881 2.51863 0
M  V30 3654 H 336.053 -0.777372 1.21214 0
M  V30 3655 H 338.006 -3.88699 1.6276 0
M  V30 3656 H 336.73 -3.2135 0.583255 0
M  V30 3657 H 335.389 -2.56843 2.61586 0
M  V30 3658 H 335.037 -4.79246 1.52748 0
M  V30 3659 H 334.737 -4.87426 3.2816 0
M  V30 3660 H 336.261 -5.52038 2.60933 0
M  V30 3661 H 337.675 -3.90049 4.20161 0
M  V30 3662 H 336.072 -3.49289 4.87972 0
M  V30 3663 H 337.142 -2.1928 4.32486 0
M  V30 3664 N 338.485 -1.33259 -0.841409 0
M  V30 3665 C 339.71 -1.2775 -1.63385 0
M  V30 3666 C 340.135 0.149188 -1.87507 0
M  V30 3667 O 339.493 1.10498 -1.43736 0
M  V30 3668 C 339.541 -2.05571 -2.96265 0
M  V30 3669 O 338.645 -1.41257 -3.87453 0
M  V30 3670 H 337.986 -0.439627 -0.497618 0
M  V30 3671 H 340.516 -1.75782 -1.04699 0
M  V30 3672 H 340.526 -2.16241 -3.45982 0
M  V30 3673 H 339.201 -3.09309 -2.7803 0
M  V30 3674 H 337.778 -1.39217 -3.45938 0
M  V30 3675 N 339.963 1.05934 -1.16686 0
M  V30 3676 C 341.374 1.60263 -0.957745 0
M  V30 3677 C 341.725 1.89789 0.49745 0
M  V30 3678 O 340.85 1.67401 1.37135 0
M  V30 3679 C 341.445 2.91172 -1.73218 0
M  V30 3680 C 340.004 3.42188 -1.56794 0
M  V30 3681 C 339.151 2.16028 -1.73859 0
M  V30 3682 H 342.102 0.888392 -1.31504 0
M  V30 3683 H 342.123 3.60744 -1.21014 0
M  V30 3684 H 341.635 2.6965 -2.79124 0
M  V30 3685 H 339.736 3.68762 -0.533437 0
M  V30 3686 H 339.849 4.17273 -2.35414 0
M  V30 3687 H 338.213 2.26426 -1.16633 0
M  V30 3688 H 338.996 1.96985 -2.81161 0
M  V30 3689 N 341.441 0.965919 1.2453 0
M  V30 3690 C 342.852 0.665929 1.7442 0
M  V30 3691 C 343.203 -0.818407 1.78316 0
M  V30 3692 O 342.328 -1.64037 1.41141 0
M  V30 3693 C 342.923 1.20211 3.16757 0
M  V30 3694 C 341.482 0.952059 3.6416 0
M  V30 3695 C 340.629 1.33848 2.42858 0
M  V30 3696 H 343.58 1.14144 1.10258 0
M  V30 3697 H 343.601 0.567544 3.76244 0
M  V30 3698 H 343.113 2.28244 3.13889 0
M  V30 3699 H 341.214 -0.112821 3.72429 0
M  V30 3700 H 341.327 1.59645 4.51719 0
M  V30 3701 H 339.691 0.756864 2.43195 0
M  V30 3702 H 340.474 2.42827 2.42673 0
M  V30 3703 N 342.919 -1.39368 0.735821 0
M  V30 3704 C 343.852 -2.28155 0.0451175 0
M  V30 3705 C 344.83 -1.44433 -0.746852 0
M  V30 3706 O 346.014 -1.73823 -0.729237 0
M  V30 3707 C 343.141 -3.253 -0.943266 0
M  V30 3708 C 342.187 -4.25826 -0.239685 0
M  V30 3709 S 343.02 -5.25166 1.04693 0
M  V30 3710 C 344.176 -6.2587 0.0611639 0
M  V30 3711 H 344.409 -2.86388 0.79807 0
M  V30 3712 H 341.942 -1.45104 0.527653 0
M  V30 3713 H 343.9 -3.81789 -1.50824 0
M  V30 3714 H 342.561 -2.66085 -1.66906 0
M  V30 3715 H 341.754 -4.94229 -0.987596 0
M  V30 3716 H 341.356 -3.73141 0.253274 0
M  V30 3717 H 343.648 -6.73007 -0.778941 0
M  V30 3718 H 344.591 -7.04508 0.712362 0
M  V30 3719 H 344.999 -5.63639 -0.311602 0
M  V30 3720 N 344.397 -0.483516 -1.5 0
M  V30 3721 C 345.327 0.293829 -2.31644 0
M  V30 3722 C 346.308 0.978864 -1.39112 0
M  V30 3723 O 347.493 0.973644 -1.68029 0
M  V30 3724 C 344.623 1.36897 -3.19181 0
M  V30 3725 C 343.577 0.804833 -4.20365 0
M  V30 3726 C 342.903 1.9792 -4.96721 0
M  V30 3727 C 344.203 -0.192313 -5.21946 0
M  V30 3728 H 345.897 -0.387616 -2.9688 0
M  V30 3729 H 343.443 -0.187856 -1.42769 0
M  V30 3730 H 345.396 1.92037 -3.751 0
M  V30 3731 H 344.12 2.07936 -2.51853 0
M  V30 3732 H 342.779 0.275319 -3.65565 0
M  V30 3733 H 342.427 2.67686 -4.25856 0
M  V30 3734 H 342.127 1.60789 -5.65173 0
M  V30 3735 H 343.651 2.53526 -5.55479 0
M  V30 3736 H 345.065 0.270333 -5.72662 0
M  V30 3737 H 343.462 -0.478543 -5.98189 0
M  V30 3738 H 344.532 -1.11409 -4.71928 0
M  V30 3739 N 345.875 1.56104 -0.216619 0
M  V30 3740 C 346.805 2.23063 0.690296 0
M  V30 3741 C 347.786 1.20072 1.20485 0
M  V30 3742 O 348.971 1.48643 1.24976 0
M  V30 3743 C 346.101 2.90672 1.90072 0
M  V30 3744 C 345.055 4.00092 1.5202 0
M  V30 3745 C 344.381 4.54972 2.80899 0
M  V30 3746 C 345.681 5.17398 0.71391 0
M  V30 3747 H 347.375 2.99109 0.132038 0
M  V30 3748 H 344.921 1.43866 0.0620664 0
M  V30 3749 H 346.874 3.36204 2.54057 0
M  V30 3750 H 345.598 2.12066 2.48386 0
M  V30 3751 H 344.257 3.55283 0.903839 0
M  V30 3752 H 343.905 3.73102 3.37348 0
M  V30 3753 H 343.605 5.28817 2.56176 0
M  V30 3754 H 345.129 5.0322 3.45836 0
M  V30 3755 H 346.543 5.59342 1.25735 0
M  V30 3756 H 344.94 5.97444 0.563951 0
M  V30 3757 H 346.01 4.84088 -0.280527 0
M  V30 3758 N 347.353 -0.0568162 1.57498 0
M  V30 3759 C 348.3 -1.06591 2.04712 0
M  V30 3760 C 349.27 -1.3758 0.930644 0
M  V30 3761 O 350.455 -1.48392 1.19935 0
M  V30 3762 C 347.595 -2.3701 2.50839 0
M  V30 3763 C 346.708 -2.12421 3.76167 0
M  V30 3764 C 345.843 -3.36511 4.11015 0
M  V30 3765 C 344.882 -3.07353 5.2934 0
M  V30 3766 N 344.019 -4.23816 5.59754 0
M  V30 3767 H 348.859 -0.65631 2.90683 0
M  V30 3768 H 346.396 -0.312481 1.43743 0
M  V30 3769 H 348.354 -3.13175 2.7564 0
M  V30 3770 H 346.984 -2.75744 1.67825 0
M  V30 3771 H 346.036 -1.2688 3.58616 0
M  V30 3772 H 347.348 -1.86894 4.62463 0
M  V30 3773 H 346.502 -4.21062 4.36797 0
M  V30 3774 H 345.241 -3.65128 3.23315 0
M  V30 3775 H 344.246 -2.212 5.03339 0
M  V30 3776 H 345.471 -2.80043 6.1867 0
M  V30 3777 H 343.417 -4.52436 4.75014 0
M  V30 3778 H 343.334 -4.01614 6.40501 0
M  V30 3779 H 344.602 -5.0932 5.90096 0
M  V30 3780 N 348.832 -1.54138 -0.328536 0
M  V30 3781 C 349.742 -1.86192 -1.42723 0
M  V30 3782 C 350.758 -0.753382 -1.56844 0
M  V30 3783 O 351.934 -1.04718 -1.72035 0
M  V30 3784 C 348.999 -2.07824 -2.77507 0
M  V30 3785 C 348.06 -3.31641 -2.72603 0
M  V30 3786 C 347.293 -3.52232 -4.00959 0
M  V30 3787 O 347.516 -2.7636 -4.9898 0
M  V30 3788 O 346.45 -4.45699 -4.0452 0
M  V30 3789 H 350.276 -2.79608 -1.18547 0
M  V30 3790 H 347.861 -1.3998 -0.522104 0
M  V30 3791 H 349.743 -2.23411 -3.57303 0
M  V30 3792 H 348.418 -1.17596 -3.01584 0
M  V30 3793 H 347.325 -3.21444 -1.91376 0
M  V30 3794 H 348.658 -4.2191 -2.53481 0
M  V30 3795 N 350.31 0.590341 -1.46126 0
M  V30 3796 C 351.721 1.17243 -1.45296 0
M  V30 3797 C 352.072 1.95281 -0.189723 0
M  V30 3798 O 351.197 2.04502 0.707674 0
M  V30 3799 C 351.792 2.13284 -2.6324 0
M  V30 3800 C 350.351 2.66832 -2.65476 0
M  V30 3801 C 349.498 1.42557 -2.3785 0
M  V30 3802 H 352.449 0.378692 -1.54116 0
M  V30 3803 H 352.47 2.96619 -2.38323 0
M  V30 3804 H 351.982 1.56459 -3.55165 0
M  V30 3805 H 350.083 3.27548 -1.77603 0
M  V30 3806 H 350.196 3.10088 -3.65215 0
M  V30 3807 H 348.56 1.72107 -1.87753 0
M  V30 3808 H 349.343 0.875741 -3.31942 0
M  V30 3809 N 351.788 1.33704 0.83433 0
M  V30 3810 C 353.018 1.28281 1.6195 0
M  V30 3811 C 353.426 -0.147603 1.88623 0
M  V30 3812 O 352.769 -1.1016 1.47005 0
M  V30 3813 C 352.831 1.99386 2.99141 0
M  V30 3814 C 352.495 3.48681 2.95416 0
M  V30 3815 C 353.492 4.438 2.70809 0
M  V30 3816 C 351.177 3.90925 3.15409 0
M  V30 3817 C 353.171 5.79138 2.66229 0
M  V30 3818 C 350.858 5.26366 3.10454 0
M  V30 3819 C 351.856 6.20284 2.85895 0
M  V30 3820 O 351.544 7.53245 2.80852 0
M  V30 3821 H 351.276 0.44315 0.510484 0
M  V30 3822 H 353.83 1.76711 1.04702 0
M  V30 3823 H 352.06 1.45554 3.58261 0
M  V30 3824 H 353.749 1.87403 3.60049 0
M  V30 3825 H 354.515 4.12485 2.5511 0
M  V30 3826 H 350.394 3.18229 3.33543 0
M  V30 3827 H 353.938 6.52416 2.4698 0
M  V30 3828 H 349.835 5.57304 3.25703 0
M  V30 3829 H 350.603 7.62846 2.96661 0
M  V30 3830 N 353.266 -1.05314 1.17247 0
M  V30 3831 C 354.213 -2.13031 0.888058 0
M  V30 3832 C 355.183 -1.65253 -0.167537 0
M  V30 3833 O 356.368 -1.90775 -0.0305974 0
M  V30 3834 C 353.508 -3.42702 0.406147 0
M  V30 3835 C 352.621 -4.04161 1.52572 0
M  V30 3836 C 351.756 -5.21744 0.997808 0
M  V30 3837 C 350.795 -5.75207 2.09291 0
M  V30 3838 N 349.932 -6.84094 1.57986 0
M  V30 3839 H 354.772 -2.36698 1.81048 0
M  V30 3840 H 352.309 -1.16121 0.903013 0
M  V30 3841 H 354.267 -4.17059 0.108305 0
M  V30 3842 H 352.897 -3.19222 -0.479313 0
M  V30 3843 H 351.949 -3.27253 1.93931 0
M  V30 3844 H 353.261 -4.39881 2.35172 0
M  V30 3845 H 352.415 -6.03168 0.653739 0
M  V30 3846 H 351.154 -4.87495 0.141232 0
M  V30 3847 H 350.159 -4.92414 2.44557 0
M  V30 3848 H 351.384 -6.11505 2.95362 0
M  V30 3849 H 349.33 -6.51745 0.74598 0
M  V30 3850 H 349.247 -7.18811 2.34195 0
M  V30 3851 H 350.515 -7.69172 1.26468 0
M  V30 3852 N 354.744 -0.972509 -1.24016 0
M  V30 3853 C 355.972 -0.654803 -1.96265 0
M  V30 3854 C 356.387 0.776708 -1.72083 0
M  V30 3855 O 355.744 1.52171 -1.00748 0
M  V30 3856 C 355.795 -0.92592 -3.49441 0
M  V30 3857 O 355.516 -2.30116 -3.72798 0
M  V30 3858 C 357.017 -0.623068 -4.38899 0
M  V30 3859 H 354.237 -0.243907 -0.6251 0
M  V30 3860 H 356.781 -1.30175 -1.57717 0
M  V30 3861 H 354.936 -0.325108 -3.86033 0
M  V30 3862 H 355.35 -2.38483 -4.67147 0
M  V30 3863 H 356.824 -0.863189 -5.45209 0
M  V30 3864 H 357.301 0.442754 -4.36963 0
M  V30 3865 H 357.907 -1.204 -4.07902 0
M  V30 3866 N 356.222 1.38976 -0.743202 0
M  V30 3867 C 357.185 2.28901 -0.117014 0
M  V30 3868 C 358.185 1.46698 0.658503 0
M  V30 3869 O 359.375 1.67274 0.486305 0
M  V30 3870 C 356.507 3.30309 0.84315 0
M  V30 3871 H 357.7 2.8578 -0.909373 0
M  V30 3872 H 355.253 1.47761 -0.509547 0
M  V30 3873 H 355.988 2.785 1.66157 0
M  V30 3874 H 355.773 3.91029 0.289594 0
M  V30 3875 H 357.263 3.97577 1.2776 0
M  V30 3876 N 357.7 0.491464 1.49741 0
M  V30 3877 C 358.946 -0.0565092 2.02721 0
M  V30 3878 C 359.279 -1.37522 1.37118 0
M  V30 3879 O 358.554 -1.87866 0.503645 0
M  V30 3880 C 358.837 -0.219051 3.59433 0
M  V30 3881 C 358.69 1.12211 4.35579 0
M  V30 3882 C 360.009 -0.964157 4.29409 0
M  V30 3883 H 357.128 -0.0190627 0.736753 0
M  V30 3884 H 359.77 0.641021 1.7886 0
M  V30 3885 H 357.92 -0.813165 3.79895 0
M  V30 3886 H 359.592 1.75437 4.26637 0
M  V30 3887 H 357.835 1.71377 3.98513 0
M  V30 3888 H 358.506 0.961794 5.43556 0
M  V30 3889 H 360.982 -0.460378 4.13545 0
M  V30 3890 H 359.858 -1.04671 5.38828 0
M  V30 3891 H 360.119 -2.00563 3.93988 0
M  V30 3892 N 359.178 -1.55987 0.224894 0
M  V30 3893 C 360.427 -1.97566 -0.406273 0
M  V30 3894 C 360.74 -1.11569 -1.6066 0
M  V30 3895 O 361.946 -1.43062 -2.3075 0
M  V30 3896 C 360.402 -3.51474 -0.774207 0
M  V30 3897 C 360.01 -4.46179 0.403496 0
M  V30 3898 C 361.754 -4.01758 -1.37079 0
M  V30 3899 C 359.661 -5.91399 0.0129412 0
M  V30 3900 H 358.591 -0.737777 -0.155565 0
M  V30 3901 H 361.242 -1.80659 0.321635 0
M  V30 3902 H 359.624 -3.63994 -1.55963 0
M  V30 3903 H 360.798 -4.45409 1.18101 0
M  V30 3904 H 359.113 -4.06255 0.913536 0
M  V30 3905 H 361.71 -5.07756 -1.67596 0
M  V30 3906 H 362.053 -3.47805 -2.28773 0
M  V30 3907 H 362.586 -3.92475 -0.648733 0
M  V30 3908 H 359.325 -6.49341 0.896451 0
M  V30 3909 H 358.845 -5.95356 -0.728821 0
M  V30 3910 H 360.524 -6.45683 -0.412582 0
M  V30 3911 N 360.656 0.0484629 -1.57525 0
M  V30 3912 C 362.067 0.597486 -1.76881 0
M  V30 3913 C 362.418 1.76664 -0.853475 0
M  V30 3914 O 361.543 2.16357 -0.0433656 0
M  V30 3915 C 362.138 1.09066 -3.20765 0
M  V30 3916 C 360.697 1.58535 -3.41385 0
M  V30 3917 C 359.844 0.514868 -2.72478 0
M  V30 3918 H 362.795 -0.177758 -1.57701 0
M  V30 3919 H 362.816 1.95875 -3.2621 0
M  V30 3920 H 362.328 0.239521 -3.8736 0
M  V30 3921 H 360.429 2.45898 -2.79937 0
M  V30 3922 H 360.542 1.64622 -4.49929 0
M  V30 3923 H 358.906 0.965407 -2.35695 0
M  V30 3924 H 359.689 -0.32648 -3.41744 0
M  V30 3925 N 362.134 1.5431 0.320358 0
M  V30 3926 C 363.383 1.7188 1.05546 0
M  V30 3927 C 363.696 0.501143 1.89071 0
M  V30 3928 O 364.902 0.558258 2.65699 0
M  V30 3929 C 363.358 3.04025 1.92605 0
M  V30 3930 C 362.966 4.33207 1.14176 0
M  V30 3931 C 364.71 3.30959 2.65832 0
M  V30 3932 C 362.617 5.56412 2.00399 0
M  V30 3933 H 361.547 0.640547 0.397763 0
M  V30 3934 H 364.198 1.80802 0.313522 0
M  V30 3935 H 362.58 2.89019 2.7071 0
M  V30 3936 H 363.754 4.58989 0.40819 0
M  V30 3937 H 362.069 4.13062 0.526165 0
M  V30 3938 H 364.666 4.20203 3.30656 0
M  V30 3939 H 365.009 2.48979 3.33639 0
M  V30 3940 H 365.542 3.46847 1.94787 0
M  V30 3941 H 362.281 6.41004 1.37094 0
M  V30 3942 H 361.801 5.34844 2.7148 0
M  V30 3943 H 363.48 5.92938 2.58908 0
M  V30 3944 N 363.613 -0.582584 1.46437 0
M  V30 3945 C 364.561 -1.71272 1.5738 0
M  V30 3946 C 365.555 -1.63524 0.44229 0
M  V30 3947 O 366.761 -1.69016 0.619166 0
M  V30 3948 H 363.136 -0.566273 0.494813 0
M  V30 3949 H 365.107 -1.59174 2.52401 0
M  V30 3950 C 363.856 -3.09658 1.58136 0
M  V30 3951 H 363.179 -3.16291 2.44541 0
M  V30 3952 H 364.619 -3.88494 1.69847 0
M  V30 3953 C 363.078 -3.3547 0.310026 0
M  V30 3954 O 363.608 -3.97199 -0.599683 0
M  V30 3955 N 361.814 -2.89925 0.197901 0
M  V30 3956 H 361.361 -2.39873 0.93909 0
M  V30 3957 H 361.319 -3.07568 -0.65185 0
M  V30 3958 N 365.091 -1.34144 -0.827227 0
M  V30 3959 C 366.339 -1.26009 -1.58007 0
M  V30 3960 C 366.66 0.170971 -1.94249 0
M  V30 3961 O 365.93 1.10256 -1.61927 0
M  V30 3962 H 364.51 -0.463414 -0.585881 0
M  V30 3963 H 367.172 -1.68005 -0.987951 0
M  V30 3964 H 366.268 -1.86187 -2.50481 0
M  V30 3965 N 366.569 1.04691 -1.17803 0
M  V30 3966 C 367.794 1.81984 -0.994813 0
M  V30 3967 C 368.219 1.82586 0.452112 0
M  V30 3968 O 367.577 1.23854 1.324 0
M  V30 3969 C 367.625 3.2575 -1.54659 0
M  V30 3970 O 366.729 4.05267 -0.763728 0
M  V30 3971 H 366.07 0.562483 -0.352857 0
M  V30 3972 H 368.6 1.3189 -1.56417 0
M  V30 3973 H 368.61 3.76541 -1.57102 0
M  V30 3974 H 367.285 3.24627 -2.59981 0
M  V30 3975 H 365.862 3.63972 -0.811108 0
M  V30 3976 N 368.047 0.979072 1.23499 0
M  V30 3977 C 369.458 0.684391 1.73704 0
M  V30 3978 C 369.809 -0.799448 1.79174 0
M  V30 3979 O 368.934 -1.62531 1.42873 0
M  V30 3980 C 369.529 1.23564 3.15464 0
M  V30 3981 C 368.088 0.99063 3.6313 0
M  V30 3982 C 367.235 1.36416 2.41425 0
M  V30 3983 H 370.186 1.15307 1.09041 0
M  V30 3984 H 370.207 0.607417 3.7562 0
M  V30 3985 H 369.719 2.31561 3.1145 0
M  V30 3986 H 367.82 -0.0733136 3.72528 0
M  V30 3987 H 367.933 1.64427 4.5 0
M  V30 3988 H 366.297 0.782616 2.42378 0
M  V30 3989 H 367.08 2.45387 2.40083 0
M  V30 3990 N 369.525 -1.3858 0.750561 0
M  V30 3991 C 370.941 -1.53759 0.427824 0
M  V30 3992 C 371.141 -1.71401 -1.05943 0
M  V30 3993 O 370.197 -1.72331 -1.84549 0
M  V30 3994 C 371.51 -2.74642 1.22443 0
M  V30 3995 C 373.058 -2.88489 1.2142 0
M  V30 3996 C 373.533 -4.12329 1.9937 0
M  V30 3997 N 375.024 -4.194 1.96616 0
M  V30 3998 C 375.759 -5.14209 2.53727 0
M  V30 3999 N 375.255 -6.14709 3.19539 0
M  V30 4000 N 377.048 -5.06537 2.43673 0
M  V30 4001 H 369.199 -1.25377 1.71447 0
M  V30 4002 H 371.462 -0.608844 0.726645 0
M  V30 4003 H 371.168 -2.68 2.27747 0
M  V30 4004 H 371.042 -3.67745 0.839273 0
M  V30 4005 H 373.429 -2.94614 0.169232 0
M  V30 4006 H 373.51 -1.96406 1.63885 0
M  V30 4007 H 373.154 -4.06966 3.03877 0
M  V30 4008 H 373.084 -5.03486 1.54302 0
M  V30 4009 H 375.575 -3.47421 1.48684 0
M  V30 4010 H 375.888 -6.8354 3.60545 0
M  V30 4011 H 374.233 -6.1505 3.23633 0
M  V30 4012 H 377.424 -4.26962 1.91889 0
M  V30 4013 H 377.597 -5.80245 2.88479 0
M  V30 4014 N 371.003 -0.499398 -1.49478 0
M  V30 4015 C 372.231 0.0425456 -2.06856 0
M  V30 4016 C 372.646 1.30964 -1.35992 0
M  V30 4017 O 372.003 1.77172 -0.437762 0
M  V30 4018 C 372.054 0.301735 -3.60239 0
M  V30 4019 O 371.775 -0.915127 -4.28436 0
M  V30 4020 C 373.276 0.887499 -4.34325 0
M  V30 4021 H 370.496 -0.0197482 -0.670709 0
M  V30 4022 H 373.04 -0.696297 -1.92281 0
M  V30 4023 H 371.195 0.990556 -3.74522 0
M  V30 4024 H 371.609 -0.676993 -5.20113 0
M  V30 4025 H 373.083 1.01845 -5.42523 0
M  V30 4026 H 373.56 1.88488 -3.96698 0
M  V30 4027 H 374.166 0.236196 -4.24644 0
M  V30 4028 N 372.481 1.55866 -0.233164 0
M  V30 4029 C 373.892 1.847 0.272554 0
M  V30 4030 C 374.243 1.15477 1.58617 0
M  V30 4031 O 373.368 0.42841 2.12117 0
M  V30 4032 C 373.963 3.35071 0.501299 0
M  V30 4033 C 372.522 3.6418 0.951304 0
M  V30 4034 C 371.669 2.77292 0.0208209 0
M  V30 4035 H 374.62 1.52005 -0.456074 0
M  V30 4036 H 374.641 3.55906 1.34577 0
M  V30 4037 H 374.153 3.85424 -0.454936 0
M  V30 4038 H 372.254 3.19293 1.92049 0
M  V30 4039 H 372.367 4.72071 0.817675 0
M  V30 4040 H 370.731 2.49131 0.529723 0
M  V30 4041 H 371.514 3.30448 -0.93054 0
M  V30 4042 N 373.959 -0.0401083 1.57549 0
M  V30 4043 C 375.375 -0.395556 1.54621 0
M  V30 4044 C 375.575 -1.77281 0.957799 0
M  V30 4045 O 374.631 -2.45888 0.574031 0
M  V30 4046 C 375.944 -0.307535 2.99123 0
M  V30 4047 C 377.492 -0.385425 3.10618 0
M  V30 4048 C 377.967 -0.326973 4.56831 0
M  V30 4049 N 379.458 -0.386102 4.61588 0
M  V30 4050 C 380.193 -0.363591 5.72246 0
M  V30 4051 N 379.689 -0.29402 6.92176 0
M  V30 4052 N 381.482 -0.412503 5.60584 0
M  V30 4053 H 373.633 0.861325 1.94152 0
M  V30 4054 H 375.896 0.326445 0.890021 0
M  V30 4055 H 375.602 0.638461 3.45856 0
M  V30 4056 H 375.476 -1.10552 3.60636 0
M  V30 4057 H 377.863 -1.32185 2.63839 0
M  V30 4058 H 377.944 0.44171 2.51957 0
M  V30 4059 H 377.588 0.605738 5.04275 0
M  V30 4060 H 377.518 -1.17207 5.13391 0
M  V30 4061 H 380.009 -0.442832 3.75296 0
M  V30 4062 H 380.322 -0.28164 7.72287 0
M  V30 4063 H 378.667 -0.260232 6.94513 0
M  V30 4064 H 381.858 -0.464769 4.65787 0
M  V30 4065 H 382.031 -0.391492 6.46816 0
M  V30 4066 N 375.437 -1.54477 -0.31217 0
M  V30 4067 C 376.853 -1.45442 -0.657185 0
M  V30 4068 C 377.053 -0.63653 -1.91182 0
M  V30 4069 O 376.109 -0.139815 -2.52113 0
M  V30 4070 C 377.422 -2.89287 -0.82058 0
M  V30 4071 C 378.97 -2.9926 -0.917188 0
M  V30 4072 C 379.445 -4.44279 -1.11267 0
M  V30 4073 N 380.936 -4.4794 -1.17914 0
M  V30 4074 C 381.671 -5.57318 -1.34848 0
M  V30 4075 N 381.167 -6.76642 -1.48752 0
M  V30 4076 N 382.96 -5.44986 -1.37647 0
M  V30 4077 H 375.111 -2.06129 0.512313 0
M  V30 4078 H 377.374 -0.933088 0.167485 0
M  V30 4079 H 377.08 -3.51687 0.0302604 0
M  V30 4080 H 376.954 -3.36061 -1.71298 0
M  V30 4081 H 379.341 -2.36981 -1.75852 0
M  V30 4082 H 379.422 -2.558 -0.00101257 0
M  V30 4083 H 379.066 -5.07149 -0.27614 0
M  V30 4084 H 378.996 -4.85359 -2.04289 0
M  V30 4085 H 381.487 -3.61969 -1.08567 0
M  V30 4086 H 381.8 -7.55758 -1.61397 0
M  V30 4087 H 380.145 -6.79529 -1.45828 0
M  V30 4088 H 383.336 -4.50715 -1.26388 0
M  V30 4089 H 383.509 -6.3028 -1.50501 0
M  V30 4090 N 376.915 0.57481 -1.46744 0
M  V30 4091 C 378.163 1.33009 -1.52161 0
M  V30 4092 C 378.484 1.94185 -0.178092 0
M  V30 4093 O 377.754 1.7899 0.796196 0
M  V30 4094 H 376.334 0.493873 -0.560445 0
M  V30 4095 H 378.996 0.672589 -1.82927 0
M  V30 4096 H 378.092 2.13273 -2.27862 0
M  V30 4097 N 378.394 1.34581 0.820102 0
M  V30 4098 C 379.326 1.22236 1.93884 0
M  V30 4099 C 380.339 0.148776 1.62119 0
M  V30 4100 O 381.528 0.400877 1.7394 0
M  V30 4101 C 378.628 0.856542 3.27897 0
M  V30 4102 C 377.801 2.02569 3.87666 0
M  V30 4103 C 376.86 1.63782 5.00062 0
M  V30 4104 O 375.886 2.35477 5.18208 0
M  V30 4105 N 377.088 0.553611 5.77854 0
M  V30 4106 H 379.853 2.18615 2.05006 0
M  V30 4107 H 377.414 1.27573 0.99683 0
M  V30 4108 H 379.406 0.578806 4.0054 0
M  V30 4109 H 377.976 -0.0171518 3.12595 0
M  V30 4110 H 377.196 2.468 3.07382 0
M  V30 4111 H 378.484 2.80752 4.24329 0
M  V30 4112 H 377.882 -0.0423528 5.65684 0
M  V30 4113 H 376.439 0.335614 6.50935 0
M  V30 4114 N 379.872 -1.04064 1.18357 0
M  V30 4115 C 380.82 -2.14187 0.907007 0
M  V30 4116 C 381.814 -1.68879 -0.132725 0
M  V30 4117 O 383.02 -1.79993 0.0154248 0
M  V30 4118 H 379.395 -0.699585 0.275835 0
M  V30 4119 H 381.366 -2.34711 1.84264 0
M  V30 4120 C 380.115 -3.44785 0.449254 0
M  V30 4121 H 379.438 -3.80058 1.24081 0
M  V30 4122 H 380.878 -4.22974 0.294737 0
M  V30 4123 C 379.337 -3.26391 -0.834909 0
M  V30 4124 O 379.867 -3.53973 -1.89911 0
M  V30 4125 N 378.073 -2.79726 -0.787523 0
M  V30 4126 H 377.62 -2.5748 0.0787347 0
M  V30 4127 H 377.578 -2.67798 -1.64716 0
M  V30 4128 N 381.35 -0.985608 -1.22978 0
M  V30 4129 C 382.766 -0.695104 -1.43668 0
M  V30 4130 C 382.966 0.736866 -1.87543 0
M  V30 4131 O 382.022 1.50868 -2.02473 0
M  V30 4132 C 383.335 -1.69447 -2.48412 0
M  V30 4133 C 384.883 -1.70909 -2.62219 0
M  V30 4134 C 385.358 -2.6969 -3.70178 0
M  V30 4135 N 386.849 -2.6824 -3.77626 0
M  V30 4136 C 387.584 -3.41339 -4.60733 0
M  V30 4137 N 387.08 -4.24015 -5.4789 0
M  V30 4138 N 388.873 -3.30079 -4.54977 0
M  V30 4139 H 381.024 -1.91054 -0.928016 0
M  V30 4140 H 383.287 -0.823553 -0.469536 0
M  V30 4141 H 382.993 -2.7188 -2.23102 0
M  V30 4142 H 382.867 -1.48147 -3.46889 0
M  V30 4143 H 385.254 -0.691785 -2.86877 0
M  V30 4144 H 385.335 -1.96276 -1.6404 0
M  V30 4145 H 384.979 -3.71566 -3.46268 0
M  V30 4146 H 384.909 -2.41595 -4.67909 0
M  V30 4147 H 387.4 -2.08243 -3.15346 0
M  V30 4148 H 387.713 -4.76636 -6.08308 0
M  V30 4149 H 386.058 -4.28104 -5.47496 0
M  V30 4150 H 389.249 -2.64937 -3.85909 0
M  V30 4151 H 389.422 -3.87308 -5.19516 0
M  V30 4152 N 382.828 1.3818 -0.7579 0
M  V30 4153 C 384.053 2.04827 -0.325679 0
M  V30 4154 C 384.478 1.56788 1.03919 0
M  V30 4155 O 383.836 0.721811 1.66312 0
M  V30 4156 C 383.884 3.58774 -0.362447 0
M  V30 4157 O 382.988 4.07372 0.642033 0
M  V30 4158 H 382.329 0.64833 -0.143402 0
M  V30 4159 H 384.859 1.7677 -1.03023 0
M  V30 4160 H 384.869 4.07434 -0.214844 0
M  V30 4161 H 383.544 3.93096 -1.35824 0
M  V30 4162 H 382.121 3.70068 0.458688 0
M  V30 4163 N 384.306 0.507319 1.49211 0
M  V30 4164 C 385.269 -0.256763 2.27757 0
M  V30 4165 C 386.269 -0.888287 1.34038 0
M  V30 4166 O 387.459 -0.751841 1.5714 0
M  V30 4167 C 384.591 -1.36905 3.12202 0
M  V30 4168 H 385.784 0.432557 2.96764 0
M  V30 4169 H 383.337 0.262488 1.5408 0
M  V30 4170 H 384.072 -2.09233 2.47775 0
M  V30 4171 H 383.857 -0.921599 3.81115 0
M  V30 4172 H 385.347 -1.9071 3.7151 0
M  V30 4173 N 385.784 -1.5574 0.241426 0
M  V30 4174 C 387.2 -1.59196 -0.113548 0
M  V30 4175 C 387.4 -1.25852 -1.57364 0
M  V30 4176 O 386.456 -1.00322 -2.31715 0
M  V30 4177 C 387.769 -2.99814 0.230695 0
M  V30 4178 C 389.317 -3.12513 0.174547 0
M  V30 4179 C 389.792 -4.55342 0.492744 0
M  V30 4180 N 391.283 -4.61076 0.443043 0
M  V30 4181 C 392.018 -5.6956 0.662484 0
M  V30 4182 N 391.514 -6.86328 0.944761 0
M  V30 4183 N 393.307 -5.58957 0.593564 0
M  V30 4184 H 385.458 -1.75685 1.19368 0
M  V30 4185 H 387.721 -0.81756 0.479896 0
M  V30 4186 H 387.427 -3.28932 1.24485 0
M  V30 4187 H 387.301 -3.74568 -0.444833 0
M  V30 4188 H 389.688 -2.83179 -0.830277 0
M  V30 4189 H 389.769 -2.40045 0.883845 0
M  V30 4190 H 389.413 -4.85396 1.4951 0
M  V30 4191 H 389.343 -5.26062 -0.23797 0
M  V30 4192 H 391.834 -3.77179 0.233374 0
M  V30 4193 H 392.147 -7.64935 1.09977 0
M  V30 4194 H 390.492 -6.88025 0.982175 0
M  V30 4195 H 393.683 -4.66611 0.373123 0
M  V30 4196 H 393.856 -6.43433 0.767981 0
M  V30 4197 N 387.262 0.0317525 -1.57568 0
M  V30 4198 C 388.511 0.722131 -1.8833 0
M  V30 4199 C 388.824 1.76664 -0.839587 0
M  V30 4200 O 390.03 2.50942 -1.03635 0
M  V30 4201 C 388.486 1.33544 -3.34207 0
M  V30 4202 C 388.094 0.327415 -4.46802 0
M  V30 4203 C 389.838 2.00585 -3.7412 0
M  V30 4204 C 387.745 0.948915 -5.83738 0
M  V30 4205 H 386.675 0.273466 -0.702661 0
M  V30 4206 H 389.326 -0.0235811 -1.83485 0
M  V30 4207 H 387.708 2.13077 -3.33788 0
M  V30 4208 H 388.882 -0.441006 -4.58685 0
M  V30 4209 H 387.197 -0.240758 -4.15703 0
M  V30 4210 H 389.794 2.47932 -4.73744 0
M  V30 4211 H 390.137 2.82285 -3.05975 0
M  V30 4212 H 390.67 1.27831 -3.76702 0
M  V30 4213 H 387.409 0.171387 -6.55276 0
M  V30 4214 H 386.929 1.68724 -5.7558 0
M  V30 4215 H 388.608 1.45705 -6.3038 0
M  V30 4216 N 388.74 1.54641 0.303973 0
M  V30 4217 C 389.703 1.84646 1.35789 0
M  V30 4218 C 390.703 0.7192 1.4382 0
M  V30 4219 O 391.893 0.987491 1.43507 0
M  V30 4220 C 389.025 2.02407 2.74307 0
M  V30 4221 H 390.218 2.78829 1.10429 0
M  V30 4222 H 387.771 1.46658 0.540487 0
M  V30 4223 H 388.506 1.10502 3.04893 0
M  V30 4224 H 388.291 2.84453 2.69868 0
M  V30 4225 H 389.781 2.27002 3.50514 0
M  V30 4226 N 390.218 -0.567019 1.47046 0
M  V30 4227 C 391.165 -1.67489 1.58796 0
M  V30 4228 C 392.135 -1.60399 0.43144 0
M  V30 4229 O 393.32 -1.79378 0.650233 0
M  V30 4230 C 390.46 -3.05821 1.59899 0
M  V30 4231 C 389.573 -3.2342 2.86397 0
M  V30 4232 C 388.708 -4.52093 2.789 0
M  V30 4233 C 387.747 -4.6309 4.00267 0
M  V30 4234 N 386.884 -5.83106 3.91064 0
M  V30 4235 H 391.724 -1.56785 2.53422 0
M  V30 4236 H 389.261 -0.763896 1.2571 0
M  V30 4237 H 391.219 -3.8591 1.58522 0
M  V30 4238 H 389.849 -3.15384 0.687929 0
M  V30 4239 H 388.901 -2.3683 2.97684 0
M  V30 4240 H 390.213 -3.27412 3.76301 0
M  V30 4241 H 389.367 -5.4043 2.75718 0
M  V30 4242 H 388.106 -4.50565 1.86662 0
M  V30 4243 H 387.111 -3.73168 4.03765 0
M  V30 4244 H 388.336 -4.66386 4.93621 0
M  V30 4245 H 386.282 -5.82546 3.01623 0
M  V30 4246 H 386.199 -5.88434 4.74638 0
M  V30 4247 H 387.467 -6.73831 3.91882 0
M  V30 4248 N 391.696 -1.35014 -0.812953 0
M  V30 4249 C 392.628 -1.23262 -1.93233 0
M  V30 4250 C 393.641 -0.157371 -1.62038 0
M  V30 4251 O 394.83 -0.410096 -1.73725 0
M  V30 4252 C 391.93 -0.87392 -3.27438 0
M  V30 4253 C 391.103 -2.04622 -3.86586 0
M  V30 4254 C 390.162 -1.66432 -4.99186 0
M  V30 4255 O 389.188 -2.38222 -5.16951 0
M  V30 4256 N 390.39 -0.584248 -5.77552 0
M  V30 4257 H 393.155 -2.19699 -2.03844 0
M  V30 4258 H 390.716 -1.281 -0.99005 0
M  V30 4259 H 392.708 -0.600039 -4.00227 0
M  V30 4260 H 391.278 0.00057392 -3.126 0
M  V30 4261 H 390.498 -2.48427 -3.06068 0
M  V30 4262 H 391.786 -2.82999 -4.22835 0
M  V30 4263 H 391.184 0.0123526 -5.65699 0
M  V30 4264 H 389.741 -0.37013 -6.50748 0
M  V30 4265 N 393.175 1.03435 -1.18907 0
M  V30 4266 C 394.105 2.13503 -0.945448 0
M  V30 4267 C 395.086 1.69682 0.119189 0
M  V30 4268 O 396.271 1.94169 -0.034707 0
M  V30 4269 C 393.401 3.44004 -0.477316 0
M  V30 4270 C 392.355 4.0148 -1.48316 0
M  V30 4271 C 391.681 5.27537 -0.872311 0
M  V30 4272 C 392.981 4.36921 -2.86177 0
M  V30 4273 H 394.675 2.34141 -1.86597 0
M  V30 4274 H 392.221 1.12523 -0.898584 0
M  V30 4275 H 394.174 4.20372 -0.294204 0
M  V30 4276 H 392.898 3.23072 0.478786 0
M  V30 4277 H 391.557 3.27201 -1.65332 0
M  V30 4278 H 391.205 5.02917 0.0911752 0
M  V30 4279 H 390.905 5.66954 -1.54393 0
M  V30 4280 H 392.429 6.06576 -0.699871 0
M  V30 4281 H 393.843 5.04248 -2.72776 0
M  V30 4282 H 392.24 4.87405 -3.50081 0
M  V30 4283 H 393.31 3.46466 -3.39248 0
M  V30 4284 N 394.653 0.992116 1.22453 0
M  V30 4285 C 395.563 0.55065 2.28046 0
M  V30 4286 C 396.579 -0.400189 1.69335 0
M  V30 4287 O 397.755 -0.267215 1.99619 0
M  V30 4288 C 394.82 -0.128496 3.46462 0
M  V30 4289 C 393.881 0.865208 4.20491 0
M  V30 4290 C 393.114 0.218377 5.33253 0
M  V30 4291 O 393.337 -0.987894 5.6178 0
M  V30 4292 O 392.271 0.922845 5.94783 0
M  V30 4293 H 396.097 1.4291 2.67975 0
M  V30 4294 H 393.682 0.760326 1.28606 0
M  V30 4295 H 395.564 -0.508947 4.18315 0
M  V30 4296 H 394.239 -0.981526 3.0846 0
M  V30 4297 H 393.146 1.29658 3.50913 0
M  V30 4298 H 394.479 1.68741 4.62371 0
M  V30 4299 N 396.131 -1.37776 0.765217 0
M  V30 4300 C 397.079 -2.32209 0.134798 0
M  V30 4301 C 398.073 -1.54607 -0.692315 0
M  V30 4302 O 399.279 -1.70052 -0.590109 0
M  V30 4303 H 395.654 -0.751591 0.0248005 0
M  V30 4304 H 397.625 -2.8297 0.947119 0
M  V30 4305 C 396.374 -3.39841 -0.735063 0
M  V30 4306 H 395.697 -3.99654 -0.107991 0
M  V30 4307 H 397.137 -4.08296 -1.14326 0
M  V30 4308 C 395.596 -2.79378 -1.88281 0
M  V30 4309 O 396.126 -2.69608 -2.97783 0
M  V30 4310 N 394.332 -2.37016 -1.68142 0
M  V30 4311 H 393.879 -2.45162 -0.790772 0
M  V30 4312 H 393.837 -1.96905 -2.45104 0
M  V30 4313 N 397.609 -0.515225 -1.4894 0
M  V30 4314 C 398.886 0.0879088 -1.95402 0
M  V30 4315 C 399.266 1.52745 -1.45712 0
M  V30 4316 O 398.614 2.18238 -0.677093 0
M  V30 4317 C 398.824 -0.0141055 -3.48997 0
M  V30 4318 C 400.172 0.152646 -4.24326 0
M  V30 4319 O 401.196 0.0604025 -3.56149 0
M  V30 4320 O 400.055 0.34384 -5.45417 0
M  V30 4321 H 397.149 0.0874636 -0.822362 0
M  V30 4322 H 399.695 -0.578775 -1.59525 0
M  V30 4323 H 398.467 -1.01745 -3.77841 0
M  V30 4324 H 398.09 0.692091 -3.9153 0
M  V30 4325 N 399.087 1.5561 -0.249682 0
M  V30 4326 C 400.315 2.03411 0.378352 0
M  V30 4327 C 400.73 1.12886 1.51335 0
M  V30 4328 O 400.087 0.143833 1.81932 0
M  V30 4329 C 400.138 3.50537 0.88351 0
M  V30 4330 O 399.859 4.37614 -0.20626 0
M  V30 4331 C 401.36 4.14113 1.58195 0
M  V30 4332 H 398.58 0.664994 0.08958 0
M  V30 4333 H 401.124 2.01044 -0.374357 0
M  V30 4334 H 399.279 3.5343 1.58639 0
M  V30 4335 H 399.693 5.24199 0.177782 0
M  V30 4336 H 401.167 5.18741 1.8871 0
M  V30 4337 H 401.644 3.60767 2.50487 0
M  V30 4338 H 402.25 4.15151 0.923573 0
M  V30 4339 N 400.565 -0.0233959 1.57583 0
M  V30 4340 C 401.981 -0.379134 1.55031 0
M  V30 4341 C 402.181 -1.76255 0.976548 0
M  V30 4342 O 401.237 -2.45266 0.600078 0
M  V30 4343 C 402.55 -0.275792 2.99433 0
M  V30 4344 C 404.098 -0.352458 3.11009 0
M  V30 4345 C 404.573 -0.278501 4.57152 0
M  V30 4346 N 406.064 -0.337123 4.61972 0
M  V30 4347 C 406.799 -0.302876 5.726 0
M  V30 4348 N 406.295 -0.220589 6.92449 0
M  V30 4349 N 408.088 -0.353023 5.6099 0
M  V30 4350 H 400.239 0.881869 1.93227 0
M  V30 4351 H 402.502 0.335867 0.886509 0
M  V30 4352 H 402.208 0.675108 3.4516 0
M  V30 4353 H 402.082 -1.06721 3.61788 0
M  V30 4354 H 404.469 -1.29379 2.65226 0
M  V30 4355 H 404.55 0.468409 2.51475 0
M  V30 4356 H 404.194 0.659189 5.03604 0
M  V30 4357 H 404.124 -1.11755 5.14605 0
M  V30 4358 H 406.615 -0.403002 3.75745 0
M  V30 4359 H 406.928 -0.199713 7.72542 0
M  V30 4360 H 405.273 -0.186555 6.9475 0
M  V30 4361 H 408.464 -0.415339 4.66254 0
M  V30 4362 H 408.637 -0.322866 6.47195 0
M  V30 4363 N 402.043 -1.548 -0.295768 0
M  V30 4364 C 403.292 -1.73538 -1.02798 0
M  V30 4365 C 403.605 -0.531159 -1.8825 0
M  V30 4366 O 404.811 -0.600458 -2.64777 0
M  V30 4367 C 403.267 -3.07051 -1.87744 0
M  V30 4368 C 402.875 -4.34968 -1.07269 0
M  V30 4369 C 404.619 -3.35146 -2.60533 0
M  V30 4370 C 402.526 -5.5953 -1.91521 0
M  V30 4371 H 401.456 -0.646794 -0.387522 0
M  V30 4372 H 404.107 -1.81278 -0.284718 0
M  V30 4373 H 402.489 -2.93289 -2.66078 0
M  V30 4374 H 403.663 -4.5958 -0.335117 0
M  V30 4375 H 401.978 -4.13847 -0.460384 0
M  V30 4376 H 404.575 -4.2541 -3.23929 0
M  V30 4377 H 404.918 -2.54255 -3.29636 0
M  V30 4378 H 405.451 -3.49902 -1.89244 0
M  V30 4379 H 402.19 -6.43103 -1.26878 0
M  V30 4380 H 401.71 -5.39096 -2.62937 0
M  V30 4381 H 403.389 -5.96982 -2.49442 0
M  V30 4382 N 403.521 0.559213 -1.47345 0
M  V30 4383 C 404.77 1.31281 -1.53128 0
M  V30 4384 C 405.083 1.94602 -0.197344 0
M  V30 4385 O 406.289 2.71173 -0.133154 0
M  V30 4386 C 404.745 2.38051 -2.69925 0
M  V30 4387 C 404.353 1.8093 -4.0984 0
M  V30 4388 C 406.097 3.14604 -2.84999 0
M  V30 4389 C 404.004 2.85468 -5.1794 0
M  V30 4390 H 402.934 0.493614 -0.569966 0
M  V30 4391 H 405.585 0.594155 -1.73615 0
M  V30 4392 H 403.967 3.12822 -2.42814 0
M  V30 4393 H 405.141 1.12544 -4.46845 0
M  V30 4394 H 403.456 1.16967 -3.99634 0
M  V30 4395 H 406.053 3.92666 -3.62929 0
M  V30 4396 H 406.396 3.68665 -1.93369 0
M  V30 4397 H 406.929 2.46945 -3.1187 0
M  V30 4398 H 403.668 2.36264 -6.1144 0
M  V30 4399 H 403.188 3.52269 -4.85455 0
M  V30 4400 H 404.867 3.48996 -5.44803 0
M  V30 4401 N 404.999 1.35443 0.805782 0
M  V30 4402 C 405.909 1.30546 1.94923 0
M  V30 4403 C 406.925 0.210233 1.72725 0
M  V30 4404 O 408.101 0.43975 1.9654 0
M  V30 4405 C 405.166 1.07782 3.29521 0
M  V30 4406 C 404.227 2.26625 3.64609 0
M  V30 4407 C 403.46 2.04938 4.92784 0
M  V30 4408 O 403.683 1.01624 5.61274 0
M  V30 4409 O 402.617 2.9232 5.26149 0
M  V30 4410 H 406.443 2.26779 2.02002 0
M  V30 4411 H 404.028 1.15823 0.943682 0
M  V30 4412 H 405.91 0.969392 4.10098 0
M  V30 4413 H 404.585 0.146003 3.23371 0
M  V30 4414 H 403.492 2.43033 2.84404 0
M  V30 4415 H 404.825 3.18257 3.75464 0
M  V30 4416 N 406.477 -1.02803 1.19454 0
M  V30 4417 C 407.723 -1.76478 0.999171 0
M  V30 4418 C 408.056 -1.88456 -0.468828 0
M  V30 4419 O 407.331 -1.40198 -1.34814 0
M  V30 4420 C 407.614 -3.19044 1.66981 0
M  V30 4421 C 407.467 -3.14932 3.21151 0
M  V30 4422 C 408.786 -4.17456 1.39349 0
M  V30 4423 H 405.905 -0.640614 0.364393 0
M  V30 4424 H 408.547 -1.20005 1.47305 0
M  V30 4425 H 406.697 -3.67263 1.2669 0
M  V30 4426 H 408.369 -2.74605 3.70661 0
M  V30 4427 H 406.612 -2.52625 3.52652 0
M  V30 4428 H 407.283 -4.1566 3.63223 0
M  V30 4429 H 409.759 -3.77842 1.74283 0
M  V30 4430 H 408.635 -5.154 1.88823 0
M  V30 4431 H 408.896 -4.40949 0.318813 0
M  V30 4432 N 407.956 -0.998596 -1.21925 0
M  V30 4433 C 408.886 -0.573688 -2.26343 0
M  V30 4434 C 409.867 0.402296 -1.65274 0
M  V30 4435 O 411.052 0.291683 -1.91997 0
M  V30 4436 C 408.182 0.106839 -3.47136 0
M  V30 4437 C 407.136 -0.788269 -4.20678 0
M  V30 4438 C 406.462 0.0254927 -5.34694 0
M  V30 4439 C 407.762 -2.08784 -4.78755 0
M  V30 4440 H 409.456 -1.44651 -2.62138 0
M  V30 4441 H 407.002 -0.696975 -1.26009 0
M  V30 4442 H 408.955 0.415531 -4.19346 0
M  V30 4443 H 407.679 1.01424 -3.10452 0
M  V30 4444 H 406.338 -1.08069 -3.50309 0
M  V30 4445 H 405.986 0.933989 -4.94253 0
M  V30 4446 H 405.686 -0.570437 -5.84825 0
M  V30 4447 H 407.21 0.328147 -6.09718 0
M  V30 4448 H 408.624 -1.84272 -5.42878 0
M  V30 4449 H 407.021 -2.63307 -5.39249 0
M  V30 4450 H 408.091 -2.76284 -3.98491 0
M  V30 4451 N 409.434 1.37368 -0.772513 0
M  V30 4452 C 410.674 2.01512 -0.342361 0
M  V30 4453 C 411.038 1.59997 1.06136 0
M  V30 4454 O 412.239 2.16609 1.59167 0
M  V30 4455 C 410.51 3.54134 -0.482048 0
M  V30 4456 S 412.069 4.38585 -0.137272 0
M  V30 4457 H 408.887 0.698699 -0.131686 0
M  V30 4458 H 411.489 1.67552 -1.0073 0
M  V30 4459 H 410.193 3.81837 -1.50428 0
M  V30 4460 H 409.724 3.92894 0.199413 0
M  V30 4461 H 411.739 4.84594 1.06692 0
M  V30 4462 N 410.912 0.523116 1.48665 0
M  V30 4463 C 411.859 -0.243398 2.29513 0
M  V30 4464 C 412.829 -0.940139 1.36933 0
M  V30 4465 O 414.014 -0.942503 1.65896 0
M  V30 4466 C 411.154 -1.28855 3.20141 0
M  V30 4467 C 410.267 -0.60135 4.27794 0
M  V30 4468 C 409.402 -1.62884 5.05611 0
M  V30 4469 C 408.441 -0.924726 6.05075 0
M  V30 4470 N 407.578 -1.89744 6.75975 0
M  V30 4471 H 412.418 0.452234 2.94549 0
M  V30 4472 H 409.955 0.234858 1.45213 0
M  V30 4473 H 411.913 -1.90674 3.71079 0
M  V30 4474 H 410.543 -1.95266 2.57043 0
M  V30 4475 H 409.595 0.130623 3.80176 0
M  V30 4476 H 410.907 -0.0481585 4.98777 0
M  V30 4477 H 410.061 -2.32149 5.60528 0
M  V30 4478 H 408.8 -2.21592 4.34452 0
M  V30 4479 H 407.805 -0.217966 5.49368 0
M  V30 4480 H 409.03 -0.343851 6.78229 0
M  V30 4481 H 406.976 -2.47373 6.07571 0
M  V30 4482 H 406.893 -1.3955 7.43009 0
M  V30 4483 H 408.161 -2.58229 7.35485 0
M  V30 4484 N 412.39 -1.55475 0.257931 0
M  V30 4485 C 413.3 -2.2549 -0.647425 0
M  V30 4486 C 414.316 -1.2748 -1.18427 0
M  V30 4487 O 415.492 -1.6038 -1.2182 0
M  V30 4488 C 412.557 -2.94916 -1.82278 0
M  V30 4489 C 411.618 -4.08363 -1.32432 0
M  V30 4490 C 410.851 -4.74469 -2.44366 0
M  V30 4491 O 411.074 -4.39701 -3.63344 0
M  V30 4492 O 410.008 -5.62763 -2.13497 0
M  V30 4493 H 413.834 -3.03593 -0.0807707 0
M  V30 4494 H 411.419 -1.49377 0.0259962 0
M  V30 4495 H 413.301 -3.38606 -2.50846 0
M  V30 4496 H 411.976 -2.19744 -2.37685 0
M  V30 4497 H 410.883 -3.69166 -0.605605 0
M  V30 4498 H 412.216 -4.85385 -0.816211 0
M  V30 4499 N 413.868 0.0150385 -1.57593 0
M  V30 4500 C 414.818 1.01943 -2.0394 0
M  V30 4501 C 415.802 1.31209 -0.931286 0
M  V30 4502 O 416.994 1.30559 -1.19513 0
M  V30 4503 C 414.123 2.31621 -2.53391 0
M  V30 4504 C 413.209 2.05384 -3.7105 0
M  V30 4505 N 413.6 1.49253 -4.83278 0
M  V30 4506 C 411.898 2.35601 -3.78693 0
M  V30 4507 C 412.599 1.39143 -5.64813 0
M  V30 4508 N 411.575 1.87187 -5.10355 0
M  V30 4509 H 415.377 0.57969 -2.88126 0
M  V30 4510 H 412.891 0.221056 -1.60888 0
M  V30 4511 H 414.888 3.044 -2.84862 0
M  V30 4512 H 413.548 2.76261 -1.70616 0
M  V30 4513 H 414.559 1.17334 -5.04433 0
M  V30 4514 H 411.236 2.8322 -3.06746 0
M  V30 4515 H 412.626 0.961153 -6.6499 0
M  V30 4516 N 415.346 1.54954 0.287554 0
M  V30 4517 C 416.256 1.8991 1.37736 0
M  V30 4518 C 417.272 0.794701 1.54792 0
M  V30 4519 O 418.448 1.09243 1.69198 0
M  V30 4520 C 415.513 2.15108 2.71899 0
M  V30 4521 C 414.574 3.38752 2.63715 0
M  V30 4522 C 413.807 3.62739 3.91479 0
M  V30 4523 O 414.03 2.89492 4.91478 0
M  V30 4524 O 412.964 4.56267 3.92561 0
M  V30 4525 H 416.79 2.82652 1.11092 0
M  V30 4526 H 414.375 1.41315 0.484807 0
M  V30 4527 H 416.257 2.32806 3.51254 0
M  V30 4528 H 414.932 1.25551 2.9836 0
M  V30 4529 H 413.839 3.26405 1.82786 0
M  V30 4530 H 415.172 4.28483 2.42205 0
M  V30 4531 N 416.824 -0.551391 1.4764 0
M  V30 4532 C 418.064 -1.31901 1.56145 0
M  V30 4533 C 418.428 -1.90724 0.221013 0
M  V30 4534 O 419.629 -2.6819 0.180945 0
M  V30 4535 C 417.9 -2.39517 2.65267 0
M  V30 4536 S 419.459 -3.26289 2.93395 0
M  V30 4537 H 416.277 -0.448965 0.551318 0
M  V30 4538 H 418.879 -0.630599 1.85051 0
M  V30 4539 H 417.583 -1.94747 3.6125 0
M  V30 4540 H 417.114 -3.13092 2.38195 0
M  V30 4541 H 419.129 -4.39122 2.31055 0
M  V30 4542 N 418.302 -1.35869 -0.798587 0
M  V30 4543 C 419.25 -1.29491 -1.93222 0
M  V30 4544 C 420.244 -0.18836 -1.6835 0
M  V30 4545 O 421.45 -0.354822 -1.76468 0
M  V30 4546 H 417.825 -0.402901 -0.63496 0
M  V30 4547 H 419.796 -2.25247 -1.9572 0
M  V30 4548 C 418.545 -1.09184 -3.30112 0
M  V30 4549 H 417.868 -1.93574 -3.49813 0
M  V30 4550 H 419.308 -1.08766 -4.09812 0
M  V30 4551 C 417.767 0.203959 -3.36282 0
M  V30 4552 O 418.297 1.19699 -3.83451 0
M  V30 4553 N 416.503 0.245488 -2.89561 0
M  V30 4554 H 416.05 -0.563223 -2.51367 0
M  V30 4555 H 416.008 1.11219 -2.94071 0
M  V30 4556 N 419.78 1.02168 -1.19998 0
M  V30 4557 C 421.029 1.75091 -1.0013 0
M  V30 4558 C 421.342 1.89923 0.467835 0
M  V30 4559 O 422.548 2.59888 0.785515 0
M  V30 4560 C 421.004 3.14892 -1.74273 0
M  V30 4561 C 420.612 3.0809 -3.25245 0
M  V30 4562 C 422.356 3.9206 -1.62755 0
M  V30 4563 C 420.263 4.42867 -3.91948 0
M  V30 4564 H 419.193 0.656394 -0.37103 0
M  V30 4565 H 421.844 1.14284 -1.43567 0
M  V30 4566 H 420.226 3.7621 -1.2362 0
M  V30 4567 H 421.4 2.5611 -3.83072 0
M  V30 4568 H 419.715 2.44416 -3.3712 0
M  V30 4569 H 422.312 4.91764 -2.09934 0
M  V30 4570 H 422.655 4.12199 -0.582894 0
M  V30 4571 H 423.188 3.37359 -2.10793 0
M  V30 4572 H 419.927 4.27931 -4.96543 0
M  V30 4573 H 419.447 4.94874 -3.3891 0
M  V30 4574 H 421.126 5.11728 -3.95909 0
M  V30 4575 N 421.258 1.00505 1.21394 0
M  V30 4576 C 422.535 0.603277 1.86064 0
M  V30 4577 C 422.915 -0.919095 1.90042 0
M  V30 4578 O 422.263 -1.80607 1.39977 0
M  V30 4579 C 422.473 1.23772 3.26315 0
M  V30 4580 C 423.821 1.34586 4.02705 0
M  V30 4581 O 424.845 1.19304 3.35626 0
M  V30 4582 O 423.704 1.59169 5.22807 0
M  V30 4583 H 420.798 0.206634 0.800769 0
M  V30 4584 H 423.344 1.1017 1.29076 0
M  V30 4585 H 422.116 2.27848 3.18121 0
M  V30 4586 H 421.739 0.725648 3.90922 0
M  V30 4587 N 422.737 -1.36956 0.779787 0
M  V30 4588 C 423.647 -2.33965 0.172491 0
M  V30 4589 C 424.663 -1.60574 -0.670222 0
M  V30 4590 O 425.839 -1.92617 -0.588263 0
M  V30 4591 C 422.904 -3.39761 -0.690173 0
M  V30 4592 C 421.965 -4.28964 0.169924 0
M  V30 4593 C 421.198 -5.29707 -0.651662 0
M  V30 4594 O 421.421 -5.38238 -1.88827 0
M  V30 4595 O 420.355 -6.01873 -0.0566264 0
M  V30 4596 H 424.181 -2.87647 0.974321 0
M  V30 4597 H 421.766 -1.39258 0.541078 0
M  V30 4598 H 423.648 -4.04471 -1.1824 0
M  V30 4599 H 422.323 -2.88394 -1.47006 0
M  V30 4600 H 421.23 -3.67326 0.708696 0
M  V30 4601 H 422.563 -4.83656 0.913085 0
M  V30 4602 N 424.215 -0.530993 -1.48385 0
M  V30 4603 C 425.461 0.00274135 -2.028 0
M  V30 4604 C 425.794 1.33838 -1.40716 0
M  V30 4605 O 425.069 1.86465 -0.553277 0
M  V30 4606 C 425.352 0.123676 -3.59888 0
M  V30 4607 C 425.205 -1.2372 -4.3245 0
M  V30 4608 C 426.524 0.849967 -4.31814 0
M  V30 4609 H 423.643 -0.000477758 -0.737 0
M  V30 4610 H 426.285 -0.688217 -1.77098 0
M  V30 4611 H 424.435 0.712157 -3.81917 0
M  V30 4612 H 426.107 -1.86687 -4.21836 0
M  V30 4613 H 424.35 -1.81882 -3.93829 0
M  V30 4614 H 425.021 -1.10557 -5.40815 0
M  V30 4615 H 427.497 0.350572 -4.14621 0
M  V30 4616 H 426.373 0.903486 -5.41413 0
M  V30 4617 H 426.634 1.90047 -3.99167 0
M  V30 4618 N 425.693 1.55336 -0.266172 0
M  V30 4619 C 426.64 2.22172 0.625165 0
M  V30 4620 C 427.61 1.19211 1.15663 0
M  V30 4621 O 428.795 1.47723 1.20758 0
M  V30 4622 C 425.935 2.93972 1.8076 0
M  V30 4623 C 425.048 4.11632 1.31084 0
M  V30 4624 C 424.183 4.71099 2.45436 0
M  V30 4625 C 423.222 5.8097 1.92718 0
M  V30 4626 N 422.359 6.34538 3.00509 0
M  V30 4627 H 427.199 2.9796 0.0485582 0
M  V30 4628 H 424.736 1.47095 0.0122024 0
M  V30 4629 H 426.694 3.33811 2.50251 0
M  V30 4630 H 425.324 2.20623 2.35638 0
M  V30 4631 H 424.376 3.76975 0.509326 0
M  V30 4632 H 425.688 4.90893 0.884633 0
M  V30 4633 H 424.842 5.13612 3.22936 0
M  V30 4634 H 423.581 3.91096 2.91368 0
M  V30 4635 H 422.586 5.37916 1.13695 0
M  V30 4636 H 423.811 6.62836 1.47733 0
M  V30 4637 H 421.757 5.57433 3.45839 0
M  V30 4638 H 421.674 7.09046 2.62279 0
M  V30 4639 H 422.942 6.81709 3.78011 0
M  V30 4640 N 427.171 -0.0066808 1.57599 0
M  V30 4641 C 428.119 -1.01851 2.09115 0
M  V30 4642 C 429.113 -1.36021 1.00969 0
M  V30 4643 O 430.319 -1.34663 1.19439 0
M  V30 4644 H 426.694 -0.346083 0.667631 0
M  V30 4645 H 428.665 -0.558394 2.93129 0
M  V30 4646 C 427.414 -2.30374 2.60429 0
M  V30 4647 H 426.737 -2.04947 3.43273 0
M  V30 4648 H 428.177 -2.99466 3.00161 0
M  V30 4649 C 426.636 -3.00893 1.51542 0
M  V30 4650 O 427.166 -3.91614 0.894484 0
M  V30 4651 N 425.372 -2.62603 1.2445 0
M  V30 4652 H 424.919 -1.88911 1.75129 0
M  V30 4653 H 424.877 -3.10101 0.518137 0
M  V30 4654 N 428.649 -1.55105 -0.279332 0
M  V30 4655 C 429.895 -1.75672 -1.01327 0
M  V30 4656 C 430.228 -0.552739 -1.86168 0
M  V30 4657 O 429.503 0.449827 -1.89227 0
M  V30 4658 C 429.786 -3.05825 -1.90114 0
M  V30 4659 C 429.639 -4.36565 -1.08309 0
M  V30 4660 C 430.958 -3.31975 -2.8893 0
M  V30 4661 H 428.077 -0.639149 -0.366957 0
M  V30 4662 H 430.719 -1.87833 -0.286154 0
M  V30 4663 H 428.869 -2.95588 -2.52111 0
M  V30 4664 H 430.541 -4.58751 -0.484314 0
M  V30 4665 H 428.784 -4.32076 -0.386362 0
M  V30 4666 H 429.455 -5.23946 -1.73737 0
M  V30 4667 H 431.931 -3.41963 -2.37067 0
M  V30 4668 H 430.807 -4.2432 -3.48201 0
M  V30 4669 H 431.068 -2.51309 -3.63725 0
M  V30 4670 N 430.127 0.543554 -1.4793 0
M  V30 4671 C 431.357 1.32324 -1.58663 0
M  V30 4672 C 431.765 1.8766 -0.240896 0
M  V30 4673 O 431.108 1.66411 0.778011 0
M  V30 4674 C 431.17 2.52094 -2.56299 0
M  V30 4675 C 430.834 2.17944 -4.01683 0
M  V30 4676 C 431.831 1.74422 -4.89768 0
M  V30 4677 C 429.516 2.28884 -4.47121 0
M  V30 4678 C 431.51 1.42287 -6.21316 0
M  V30 4679 C 429.197 1.96361 -5.78693 0
M  V30 4680 C 430.195 1.53132 -6.65612 0
M  V30 4681 O 429.883 1.21029 -7.94737 0
M  V30 4682 H 429.615 0.409174 -0.538101 0
M  V30 4683 H 432.169 0.663887 -1.94375 0
M  V30 4684 H 430.399 3.20965 -2.15681 0
M  V30 4685 H 432.088 3.14165 -2.57012 0
M  V30 4686 H 432.854 1.65452 -4.55907 0
M  V30 4687 H 428.733 2.61488 -3.79664 0
M  V30 4688 H 432.277 1.08472 -6.89115 0
M  V30 4689 H 428.174 2.04967 -6.12094 0
M  V30 4690 H 428.942 1.34543 -8.07366 0
M  V30 4691 N 431.605 1.3629 0.791371 0
M  V30 4692 C 432.852 1.30412 1.54916 0
M  V30 4693 C 433.18 -0.117162 1.94147 0
M  V30 4694 O 432.435 -1.08599 1.62803 0
M  V30 4695 C 432.734 2.17068 2.8393 0
M  V30 4696 C 432.4 3.65645 2.63846 0
M  V30 4697 C 431.062 4.0614 2.58077 0
M  V30 4698 C 433.414 4.59855 2.45322 0
M  V30 4699 C 430.742 5.3899 2.31748 0
M  V30 4700 C 433.094 5.9292 2.2052 0
M  V30 4701 C 431.758 6.32542 2.13183 0
M  V30 4702 H 431.028 0.47721 0.566879 0
M  V30 4703 H 433.675 1.68325 0.913172 0
M  V30 4704 H 431.98 1.72085 3.51986 0
M  V30 4705 H 433.677 2.09846 3.4171 0
M  V30 4706 H 430.267 3.33518 2.69191 0
M  V30 4707 H 434.451 4.29443 2.48782 0
M  V30 4708 H 429.707 5.68672 2.24548 0
M  V30 4709 H 433.881 6.65487 2.05182 0
M  V30 4710 H 431.508 7.35412 1.92544 0
M  V30 4711 N 433.083 -1.0153 1.20538 0
M  V30 4712 C 434.03 -2.10098 0.955383 0
M  V30 4713 C 435 -1.65702 -0.114878 0
M  V30 4714 O 436.185 -1.90776 0.0301118 0
M  V30 4715 C 433.325 -3.41236 0.514969 0
M  V30 4716 C 432.438 -3.99102 1.65353 0
M  V30 4717 C 431.573 -5.18306 1.16329 0
M  V30 4718 C 430.612 -5.68258 2.27485 0
M  V30 4719 N 429.749 -6.78722 1.7967 0
M  V30 4720 H 434.589 -2.30818 1.88486 0
M  V30 4721 H 432.126 -1.13189 0.939499 0
M  V30 4722 H 434.084 -4.16504 0.240935 0
M  V30 4723 H 432.714 -3.20585 -0.377512 0
M  V30 4724 H 431.766 -3.20918 2.04245 0
M  V30 4725 H 433.078 -4.32177 2.49047 0
M  V30 4726 H 432.232 -6.00782 0.845302 0
M  V30 4727 H 430.971 -4.86799 0.296254 0
M  V30 4728 H 429.976 -4.84385 2.60099 0
M  V30 4729 H 431.201 -6.01798 3.14667 0
M  V30 4730 H 429.147 -6.49042 0.95295 0
M  V30 4731 H 429.064 -7.10996 2.56944 0
M  V30 4732 H 430.332 -7.64759 1.50875 0
M  V30 4733 N 434.561 -1.01147 -1.20859 0
M  V30 4734 C 435.509 -0.57059 -2.25493 0
M  V30 4735 C 436.503 0.388109 -1.64894 0
M  V30 4736 O 437.709 0.258592 -1.78133 0
M  V30 4737 H 434.084 -0.166191 -0.733406 0
M  V30 4738 H 436.055 -1.46411 -2.60012 0
M  V30 4739 C 434.804 0.0805241 -3.47607 0
M  V30 4740 H 434.127 -0.648156 -3.94511 0
M  V30 4741 H 435.567 0.352197 -4.22535 0
M  V30 4742 C 434.026 1.32175 -3.09889 0
M  V30 4743 O 434.556 2.41553 -3.20959 0
M  V30 4744 N 432.762 1.20392 -2.64488 0
M  V30 4745 H 432.309 0.313905 -2.5568 0
M  V30 4746 H 432.267 2.03541 -2.39621 0
M  V30 4747 N 436.039 1.36541 -0.78704 0
M  V30 4748 C 437.286 1.99304 -0.358341 0
M  V30 4749 C 437.614 1.62467 1.06933 0
M  V30 4750 O 436.869 0.870019 1.75297 0
M  V30 4751 C 437.168 3.54343 -0.466485 0
M  V30 4752 C 436.834 4.10993 -1.85461 0
M  V30 4753 C 435.496 4.26177 -2.23443 0
M  V30 4754 C 437.848 4.41895 -2.76366 0
M  V30 4755 C 435.176 4.69573 -3.51736 0
M  V30 4756 C 437.528 4.86722 -4.04084 0
M  V30 4757 C 436.192 5.00112 -4.42091 0
M  V30 4758 H 435.462 0.729306 -0.131126 0
M  V30 4759 H 438.109 1.63068 -1.00404 0
M  V30 4760 H 436.414 3.90918 0.262719 0
M  V30 4761 H 438.111 4.00833 -0.115854 0
M  V30 4762 H 434.701 3.99612 -1.54946 0
M  V30 4763 H 438.885 4.29735 -2.48277 0
M  V30 4764 H 434.141 4.78127 -3.81057 0
M  V30 4765 H 438.315 5.09598 -4.7464 0
M  V30 4766 H 435.942 5.33498 -5.41557 0
M  V30 4767 N 437.518 0.538854 1.48102 0
M  V30 4768 C 438.767 0.0059532 2.01699 0
M  V30 4769 C 439.08 -1.34476 1.42041 0
M  V30 4770 O 440.286 -1.96653 1.87189 0
M  V30 4771 C 438.742 -0.0397627 3.59878 0
M  V30 4772 C 438.35 1.30659 4.28523 0
M  V30 4773 C 440.094 -0.521024 4.2129 0
M  V30 4774 C 438.001 1.22098 5.78659 0
M  V30 4775 H 436.931 -0.00154456 0.753998 0
M  V30 4776 H 439.582 0.683963 1.70277 0
M  V30 4777 H 437.964 -0.783037 3.88181 0
M  V30 4778 H 439.138 2.06613 4.11883 0
M  V30 4779 H 437.453 1.7243 3.79021 0
M  V30 4780 H 440.05 -0.603184 5.31287 0
M  V30 4781 H 440.393 -1.52885 3.8721 0
M  V30 4782 H 440.926 0.166834 3.9745 0
M  V30 4783 H 437.665 2.20424 6.17328 0
M  V30 4784 H 437.185 0.50295 5.97688 0
M  V30 4785 H 438.864 0.915345 6.40492 0
M  V30 4786 N 438.996 -1.55193 0.274407 0
M  V30 4787 C 440.407 -1.85358 -0.223488 0
M  V30 4788 C 440.758 -1.19642 -1.555 0
M  V30 4789 O 439.883 -0.484498 -2.10907 0
M  V30 4790 C 440.478 -3.36282 -0.412285 0
M  V30 4791 C 439.037 -3.66574 -0.854413 0
M  V30 4792 C 438.184 -2.7725 0.0527056 0
M  V30 4793 H 441.135 -1.50743 0.496215 0
M  V30 4794 H 441.156 -3.59349 -1.25094 0
M  V30 4795 H 440.668 -3.84083 0.556965 0
M  V30 4796 H 438.769 -3.24273 -1.83516 0
M  V30 4797 H 438.882 -4.74073 -0.692226 0
M  V30 4798 H 437.246 -2.50447 -0.463484 0
M  V30 4799 H 438.029 -3.27865 1.01783 0
M  V30 4800 N 440.474 -0.00167713 -1.576 0
M  V30 4801 C 441.721 0.68282 -1.90641 0
M  V30 4802 C 442.049 1.73686 -0.875415 0
M  V30 4803 O 441.304 1.95334 0.119575 0
M  V30 4804 C 441.603 1.36189 -3.30435 0
M  V30 4805 C 441.269 0.440887 -4.48739 0
M  V30 4806 C 439.931 0.187312 -4.80835 0
M  V30 4807 C 442.283 -0.193134 -5.20842 0
M  V30 4808 C 439.611 -0.70855 -5.82406 0
M  V30 4809 C 441.963 -1.07688 -6.23367 0
M  V30 4810 C 440.627 -1.33962 -6.53919 0
M  V30 4811 H 439.897 0.249862 -0.697603 0
M  V30 4812 H 442.544 -0.0575642 -1.91413 0
M  V30 4813 H 440.849 2.17636 -3.25794 0
M  V30 4814 H 442.546 1.89759 -3.5326 0
M  V30 4815 H 439.136 0.648694 -4.23663 0
M  V30 4816 H 443.32 -0.0102445 -4.96299 0
M  V30 4817 H 438.576 -0.920097 -6.04437 0
M  V30 4818 H 442.75 -1.57451 -6.78367 0
M  V30 4819 H 440.377 -2.03549 -7.32442 0
M  V30 4820 N 441.952 1.55251 0.271103 0
M  V30 4821 C 442.885 1.83191 1.36075 0
M  V30 4822 C 443.863 0.685091 1.47463 0
M  V30 4823 O 445.047 0.928292 1.64058 0
M  V30 4824 C 442.174 1.99521 2.73696 0
M  V30 4825 C 441.22 3.22081 2.79582 0
M  V30 4826 S 442.053 4.79388 2.38636 0
M  V30 4827 C 443.209 4.98693 3.78228 0
M  V30 4828 H 443.442 2.75327 1.12171 0
M  V30 4829 H 440.975 1.47046 0.470833 0
M  V30 4830 H 442.933 2.09613 3.52948 0
M  V30 4831 H 441.594 1.0827 2.9485 0
M  V30 4832 H 440.787 3.304 3.80594 0
M  V30 4833 H 440.389 3.10589 2.08352 0
M  V30 4834 H 442.681 4.84551 4.73515 0
M  V30 4835 H 443.624 6.00738 3.7486 0
M  V30 4836 H 444.032 4.26665 3.69618 0
M  V30 4837 N 443.43 -0.535701 1.48216 0
M  V30 4838 C 444.378 -1.66179 1.62749 0
M  V30 4839 C 445.372 -1.62034 0.49409 0
M  V30 4840 O 446.578 -1.6696 0.672624 0
M  V30 4841 H 442.953 -0.550244 0.512578 0
M  V30 4842 H 444.924 -1.51063 2.57337 0
M  V30 4843 C 443.673 -3.04471 1.67907 0
M  V30 4844 H 442.996 -3.08351 2.54479 0
M  V30 4845 H 444.436 -3.82894 1.82121 0
M  V30 4846 C 442.895 -3.34314 0.416596 0
M  V30 4847 O 443.425 -3.98905 -0.473014 0
M  V30 4848 N 441.631 -2.89149 0.290038 0
M  V30 4849 H 441.178 -2.36764 1.01493 0
M  V30 4850 H 441.136 -3.09486 -0.55367 0
M  V30 4851 N 444.908 -1.36708 -0.784132 0
M  V30 4852 C 446.133 -1.34565 -1.5782 0
M  V30 4853 C 446.558 0.0695257 -1.87971 0
M  V30 4854 O 445.916 1.04302 -1.48293 0
M  V30 4855 C 445.964 -2.17952 -2.87279 0
M  V30 4856 O 445.068 -1.57563 -3.81114 0
M  V30 4857 H 444.409 -0.460337 -0.478524 0
M  V30 4858 H 446.939 -1.80064 -0.971495 0
M  V30 4859 H 446.949 -2.30721 -3.365 0
M  V30 4860 H 445.624 -3.20823 -2.64661 0
M  V30 4861 H 444.201 -1.53764 -3.39722 0
M  V30 4862 N 446.386 1.0089 -1.21074 0
M  V30 4863 C 447.316 2.1145 -0.990523 0
M  V30 4864 C 448.297 1.69897 0.0831699 0
M  V30 4865 O 449.482 1.94052 -0.0758853 0
M  V30 4866 C 446.612 3.42914 -0.550177 0
M  V30 4867 C 445.566 3.98244 -1.56799 0
M  V30 4868 C 444.892 5.25568 -0.984013 0
M  V30 4869 C 446.192 4.30752 -2.95381 0
M  V30 4870 H 447.886 2.3013 -1.91521 0
M  V30 4871 H 445.432 1.10592 -0.92225 0
M  V30 4872 H 447.385 4.19653 -0.383305 0
M  V30 4873 H 446.109 3.24014 0.41015 0
M  V30 4874 H 444.768 3.23621 -1.72236 0
M  V30 4875 H 444.416 5.02998 -0.0155216 0
M  V30 4876 H 444.116 5.63551 -1.66384 0
M  V30 4877 H 445.64 6.04955 -0.828378 0
M  V30 4878 H 447.054 4.98349 -2.8341 0
M  V30 4879 H 445.451 4.79869 -3.60341 0
M  V30 4880 H 446.521 3.39192 -3.46521 0
M  V30 4881 N 447.864 1.01787 1.20321 0
M  V30 4882 C 449.112 0.706538 1.89347 0
M  V30 4883 C 449.433 -0.766289 1.79313 0
M  V30 4884 O 448.703 -1.55126 1.19635 0
M  V30 4885 H 447.283 0.258348 0.700903 0
M  V30 4886 H 449.945 1.28974 1.46122 0
M  V30 4887 H 449.041 0.991066 2.95946 0
M  V30 4888 N 449.342 -1.36122 0.79427 0
M  V30 4889 C 450.272 -2.32551 0.210328 0
M  V30 4890 C 451.253 -1.56884 -0.657386 0
M  V30 4891 O 452.438 -1.85014 -0.590207 0
M  V30 4892 C 449.568 -3.41128 -0.651819 0
M  V30 4893 C 448.522 -4.27842 0.116395 0
M  V30 4894 C 447.848 -5.2763 -0.86666 0
M  V30 4895 C 449.148 -5.05647 1.30837 0
M  V30 4896 H 450.842 -2.81636 1.01594 0
M  V30 4897 H 448.388 -1.35407 0.489981 0
M  V30 4898 H 450.341 -4.07581 -1.07031 0
M  V30 4899 H 449.065 -2.90622 -1.49019 0
M  V30 4900 H 447.724 -3.62952 0.515915 0
M  V30 4901 H 447.372 -4.73395 -1.70019 0
M  V30 4902 H 447.072 -5.86514 -0.35705 0
M  V30 4903 H 448.596 -5.96955 -1.28361 0
M  V30 4904 H 450.01 -5.65113 0.965393 0
M  V30 4905 H 448.407 -5.73967 1.75161 0
M  V30 4906 H 449.477 -4.37006 2.10128 0
M  V30 4907 N 450.82 -0.546701 -1.47814 0
M  V30 4908 C 452.066 -0.0187684 -2.02791 0
M  V30 4909 C 452.399 1.32338 -1.42128 0
M  V30 4910 O 451.674 1.85867 -0.573023 0
M  V30 4911 C 451.957 0.0854985 -3.59998 0
M  V30 4912 C 451.81 -1.283 -4.31114 0
M  V30 4913 C 453.129 0.80412 -4.32691 0
M  V30 4914 H 450.248 -0.0082946 -0.736953 0
M  V30 4915 H 452.89 -0.706962 -1.76358 0
M  V30 4916 H 451.04 0.671609 -3.82651 0
M  V30 4917 H 452.712 -1.91151 -4.19832 0
M  V30 4918 H 450.955 -1.86049 -3.91878 0
M  V30 4919 H 451.626 -1.16287 -5.39612 0
M  V30 4920 H 454.102 0.306576 -4.14969 0
M  V30 4921 H 452.978 0.846011 -5.42341 0
M  V30 4922 H 453.239 1.85802 -4.01161 0
M  V30 4923 N 452.299 1.55045 -0.282633 0
M  V30 4924 C 453.527 2.04168 0.33512 0
M  V30 4925 C 453.942 1.16071 1.48906 0
M  V30 4926 O 453.299 0.182391 1.81586 0
M  V30 4927 C 453.35 3.52332 0.808957 0
M  V30 4928 O 453.071 4.37078 -0.299038 0
M  V30 4929 C 454.572 4.17375 1.49375 0
M  V30 4930 H 451.792 0.666744 0.0754543 0
M  V30 4931 H 454.336 2.00205 -0.416918 0
M  V30 4932 H 452.491 3.56715 1.51106 0
M  V30 4933 H 452.905 5.24458 0.0665514 0
M  V30 4934 H 454.379 5.22627 1.77664 0
M  V30 4935 H 454.856 3.65999 2.42778 0
M  V30 4936 H 455.462 4.17016 0.835305 0
M  V30 4937 N 453.777 0.010035 1.57597 0
M  V30 4938 C 455.002 -0.687021 1.95691 0
M  V30 4939 C 455.427 -1.65952 0.885519 0
M  V30 4940 O 454.785 -1.80633 -0.15543 0
M  V30 4941 C 454.833 -1.3864 3.32884 0
M  V30 4942 O 453.937 -2.50115 3.27897 0
M  V30 4943 H 453.278 -0.181989 0.638573 0
M  V30 4944 H 455.808 0.0662122 2.04493 0
M  V30 4945 H 455.818 -1.74754 3.6868 0
M  V30 4946 H 454.493 -0.673411 4.10412 0
M  V30 4947 H 453.07 -2.16253 3.03791 0
M  V30 4948 N 455.255 -1.55392 -0.262866 0
M  V30 4949 C 456.203 -1.8977 -1.345 0
M  V30 4950 C 457.197 -0.775063 -1.50629 0
M  V30 4951 O 458.403 -0.959519 -1.52293 0
M  V30 4952 H 454.778 -0.602467 -0.450041 0
M  V30 4953 H 456.749 -2.80147 -1.02762 0
M  V30 4954 C 455.498 -2.19501 -2.69657 0
M  V30 4955 H 454.821 -3.05378 -2.5804 0
M  V30 4956 H 456.261 -2.47469 -3.44289 0
M  V30 4957 C 454.72 -1.00597 -3.21531 0
M  V30 4958 O 455.25 -0.245768 -4.00947 0
M  V30 4959 N 453.456 -0.800911 -2.79345 0
M  V30 4960 H 453.003 -1.42079 -2.14875 0
M  V30 4961 H 452.961 -0.00697996 -3.14399 0
M  V30 4962 N 456.733 0.527833 -1.48498 0
M  V30 4963 C 457.981 1.28101 -1.56316 0
M  V30 4964 C 458.302 1.9352 -0.239781 0
M  V30 4965 O 457.572 1.81433 0.738849 0
M  V30 4966 H 456.152 0.475793 -0.575873 0
M  V30 4967 H 458.814 0.614052 -1.84974 0
M  V30 4968 H 457.91 2.05916 -2.34532 0
M  V30 4969 N 458.211 1.37122 0.776871 0
M  V30 4970 C 459.141 1.35164 1.90402 0
M  V30 4971 C 460.122 0.221069 1.68657 0
M  V30 4972 O 461.307 0.420642 1.8959 0
M  V30 4973 C 458.437 1.15274 3.27611 0
M  V30 4974 C 457.391 2.25289 3.63908 0
M  V30 4975 C 456.717 1.90527 4.99603 0
M  V30 4976 C 458.017 3.67446 3.71188 0
M  V30 4977 H 459.711 2.29482 1.92297 0
M  V30 4978 H 457.257 1.10465 0.923773 0
M  V30 4979 H 459.21 1.12536 4.06096 0
M  V30 4980 H 457.934 0.174102 3.26136 0
M  V30 4981 H 456.593 2.27174 2.87728 0
M  V30 4982 H 456.241 0.91206 4.94662 0
M  V30 4983 H 455.941 2.64193 5.24858 0
M  V30 4984 H 457.465 1.89367 5.80493 0
M  V30 4985 H 458.879 3.67719 4.39836 0
M  V30 4986 H 457.276 4.40123 4.07936 0
M  V30 4987 H 458.346 4.01443 2.71977 0
M  V30 4988 N 459.689 -1.00246 1.21608 0
M  V30 4989 C 461.1 -1.55511 1.03312 0
M  V30 4990 C 461.451 -1.91946 -0.406332 0
M  V30 4991 O 460.576 -1.73753 -1.28992 0
M  V30 4992 C 461.171 -2.82576 1.86913 0
M  V30 4993 C 459.73 -3.34318 1.72941 0
M  V30 4994 C 458.877 -2.07487 1.83968 0
M  V30 4995 H 461.828 -0.824638 1.35593 0
M  V30 4996 H 461.849 -3.54559 1.38087 0
M  V30 4997 H 461.361 -2.56026 2.91672 0
M  V30 4998 H 459.462 -3.65797 0.70877 0
M  V30 4999 H 459.575 -4.05566 2.55055 0
M  V30 5000 H 457.939 -2.20603 1.27304 0
M  V30 5001 H 458.722 -1.83346 2.9024 0
M  V30 5002 N 461.167 -1.02423 -1.1978 0
M  V30 5003 C 462.077 -0.610919 -2.26506 0
M  V30 5004 C 463.093 0.355152 -1.70337 0
M  V30 5005 O 464.269 0.214195 -2.00258 0
M  V30 5006 C 461.334 0.0365921 -3.46681 0
M  V30 5007 C 460.395 -0.976389 -4.18049 0
M  V30 5008 C 459.628 -0.359683 -5.32487 0
M  V30 5009 O 459.851 0.838601 -5.64202 0
M  V30 5010 O 458.785 -1.08022 -5.92127 0
M  V30 5011 H 462.611 -1.49965 -2.64091 0
M  V30 5012 H 460.196 -0.794156 -1.26545 0
M  V30 5013 H 462.078 0.39786 -4.19518 0
M  V30 5014 H 460.753 0.899398 -3.10954 0
M  V30 5015 H 459.66 -1.38916 -3.47352 0
M  V30 5016 H 460.993 -1.80941 -4.57735 0
M  V30 5017 N 462.645 1.35699 -0.801477 0
M  V30 5018 C 463.891 1.99208 -0.380022 0
M  V30 5019 C 464.224 1.63445 1.04878 0
M  V30 5020 O 463.499 0.895223 1.72673 0
M  V30 5021 C 463.782 3.55755 -0.557708 0
M  V30 5022 C 463.635 4.01332 -2.03107 0
M  V30 5023 C 464.954 4.40096 0.0197968 0
M  V30 5024 H 462.073 0.723667 -0.139552 0
M  V30 5025 H 464.715 1.60928 -1.01006 0
M  V30 5026 H 462.865 3.88494 -0.0213741 0
M  V30 5027 H 464.537 3.79026 -2.62939 0
M  V30 5028 H 462.78 3.52429 -2.52936 0
M  V30 5029 H 463.451 5.10234 -2.1063 0
M  V30 5030 H 465.927 4.13786 -0.438179 0
M  V30 5031 H 464.803 5.48735 -0.134477 0
M  V30 5032 H 465.064 4.2786 1.11303 0
M  V30 5033 N 464.123 0.554532 1.47522 0
M  V30 5034 C 465.033 -0.197865 2.33764 0
M  V30 5035 C 466.049 -0.914576 1.48025 0
M  V30 5036 O 467.225 -0.884067 1.80959 0
M  V30 5037 C 464.29 -1.21628 3.24665 0
M  V30 5038 C 463.351 -0.507283 4.26292 0
M  V30 5039 C 462.584 -1.47718 5.1285 0
M  V30 5040 O 462.807 -2.7118 5.01814 0
M  V30 5041 O 461.741 -1.00313 5.93482 0
M  V30 5042 H 465.567 0.50949 2.99396 0
M  V30 5043 H 463.152 0.315176 1.46038 0
M  V30 5044 H 465.034 -1.80421 3.80823 0
M  V30 5045 H 463.709 -1.9056 2.61665 0
M  V30 5046 H 462.616 0.121778 3.73902 0
M  V30 5047 H 463.949 0.140544 4.91999 0
M  V30 5048 N 465.601 -1.54893 0.290851 0
M  V30 5049 C 466.549 -2.24579 -0.605576 0
M  V30 5050 C 467.543 -1.24824 -1.14522 0
M  V30 5051 O 468.749 -1.42706 -1.09704 0
M  V30 5052 H 465.124 -0.720946 -0.213872 0
M  V30 5053 H 467.095 -2.984 0.0048173 0
M  V30 5054 C 465.844 -2.99224 -1.77088 0
M  V30 5055 H 465.167 -3.75782 -1.36484 0
M  V30 5056 H 466.607 -3.51281 -2.3744 0
M  V30 5057 C 465.066 -2.05602 -2.66888 0
M  V30 5058 O 465.596 -1.61745 -3.67698 0
M  V30 5059 N 463.802 -1.71771 -2.34399 0
M  V30 5060 H 463.349 -2.07633 -1.52468 0
M  V30 5061 H 463.307 -1.09403 -2.94751 0
M  V30 5062 N 467.08 -0.0183926 -1.57589 0
M  V30 5063 C 468.01 0.965596 -2.12599 0
M  V30 5064 C 468.991 1.34641 -1.0395 0
M  V30 5065 O 470.176 1.42693 -1.31729 0
M  V30 5066 C 467.306 2.25149 -2.64434 0
M  V30 5067 C 466.26 2.01175 -3.77773 0
M  V30 5068 C 465.586 3.35937 -4.15994 0
M  V30 5069 C 466.886 1.35953 -5.04296 0
M  V30 5070 H 468.58 0.507504 -2.95067 0
M  V30 5071 H 466.126 0.242671 -1.41941 0
M  V30 5072 H 468.079 2.94357 -3.01549 0
M  V30 5073 H 466.803 2.73105 -1.79112 0
M  V30 5074 H 465.462 1.34388 -3.4108 0
M  V30 5075 H 465.11 3.81631 -3.27669 0
M  V30 5076 H 464.81 3.20705 -4.92364 0
M  V30 5077 H 466.334 4.0643 -4.55683 0
M  V30 5078 H 467.748 1.95144 -5.39065 0
M  V30 5079 H 466.145 1.31152 -5.85593 0
M  V30 5080 H 467.215 0.331071 -4.83768 0
M  V30 5081 N 468.558 1.5553 0.254621 0
M  V30 5082 C 469.783 1.81383 1.00573 0
M  V30 5083 C 470.208 0.594419 1.78461 0
M  V30 5084 O 469.566 -0.456403 1.75461 0
M  V30 5085 C 469.614 3.04892 1.92545 0
M  V30 5086 O 468.718 2.81266 3.01601 0
M  V30 5087 H 468.059 0.598969 0.286587 0
M  V30 5088 H 470.589 2.02703 0.277952 0
M  V30 5089 H 470.599 3.34119 2.34155 0
M  V30 5090 H 469.274 3.93287 1.3527 0
M  V30 5091 H 467.851 2.63185 2.64174 0
M  V30 5092 N 470.036 -0.519951 1.48776 0
M  V30 5093 C 470.983 -1.62352 1.64044 0
M  V30 5094 C 471.953 -1.58945 0.482251 0
M  V30 5095 O 473.138 -1.77219 0.706971 0
M  V30 5096 C 470.278 -3.00579 1.69547 0
M  V30 5097 C 469.391 -3.14145 2.96541 0
M  V30 5098 C 468.526 -4.42991 2.93142 0
M  V30 5099 C 467.565 -4.50122 4.14797 0
M  V30 5100 N 466.702 -5.7037 4.09418 0
M  V30 5101 H 471.542 -1.48643 2.58281 0
M  V30 5102 H 469.079 -0.723516 1.28077 0
M  V30 5103 H 471.037 -3.80671 1.70719 0
M  V30 5104 H 469.667 -3.13036 0.787918 0
M  V30 5105 H 468.719 -2.27239 3.05068 0
M  V30 5106 H 470.031 -3.15275 3.86527 0
M  V30 5107 H 469.185 -5.31385 2.92772 0
M  V30 5108 H 467.924 -4.44398 2.00902 0
M  V30 5109 H 466.929 -3.60133 4.15433 0
M  V30 5110 H 468.154 -4.50445 5.08208 0
M  V30 5111 H 466.1 -5.72655 3.20004 0
M  V30 5112 H 466.017 -5.73036 4.93119 0
M  V30 5113 H 467.285 -6.61023 4.13121 0
M  V30 5114 N 471.514 -1.37532 -0.769588 0
M  V30 5115 C 472.93 -1.18379 -1.07045 0
M  V30 5116 C 473.13 -0.0214312 -2.01489 0
M  V30 5117 O 472.186 0.637809 -2.44312 0
M  V30 5118 C 473.499 -2.50338 -1.66588 0
M  V30 5119 C 475.047 -2.56879 -1.78835 0
M  V30 5120 C 475.522 -3.88974 -2.41792 0
M  V30 5121 N 477.013 -3.90428 -2.4924 0
M  V30 5122 C 477.748 -4.89388 -2.98809 0
M  V30 5123 N 477.244 -5.98745 -3.48535 0
M  V30 5124 N 479.037 -4.76791 -2.97703 0
M  V30 5125 H 471.188 -2.11921 -0.142541 0
M  V30 5126 H 473.451 -0.939608 -0.125863 0
M  V30 5127 H 473.157 -3.35767 -1.0466 0
M  V30 5128 H 473.031 -2.67583 -2.65856 0
M  V30 5129 H 475.418 -1.71856 -2.39895 0
M  V30 5130 H 475.499 -2.43516 -0.783166 0
M  V30 5131 H 475.143 -4.74412 -1.81371 0
M  V30 5132 H 475.073 -3.99641 -3.4292 0
M  V30 5133 H 477.564 -3.11433 -2.14052 0
M  V30 5134 H 477.877 -6.70205 -3.84767 0
M  V30 5135 H 476.222 -6.02387 -3.46634 0
M  V30 5136 H 479.413 -3.90478 -2.58157 0
M  V30 5137 H 479.586 -5.54069 -3.36024 0
M  V30 5138 N 472.992 0.995999 -1.22138 0
M  V30 5139 C 474.222 1.76809 -1.06874 0
M  V30 5140 C 474.63 1.85265 0.383866 0
M  V30 5141 O 473.973 1.31969 1.27789 0
M  V30 5142 C 474.035 3.2186 -1.60144 0
M  V30 5143 C 473.699 3.36958 -3.0872 0
M  V30 5144 C 474.696 3.2452 -4.0618 0
M  V30 5145 C 472.381 3.62109 -3.48112 0
M  V30 5146 C 474.375 3.37013 -5.41019 0
M  V30 5147 C 472.062 3.74243 -4.831 0
M  V30 5148 C 473.06 3.61702 -5.79362 0
M  V30 5149 O 472.748 3.73436 -7.119 0
M  V30 5150 H 472.48 0.562207 -0.375365 0
M  V30 5151 H 475.034 1.26113 -1.62125 0
M  V30 5152 H 473.264 3.73734 -0.992981 0
M  V30 5153 H 474.953 3.80775 -1.40589 0
M  V30 5154 H 475.719 3.05004 -3.77091 0
M  V30 5155 H 471.598 3.70949 -2.73712 0
M  V30 5156 H 475.142 3.27141 -6.16137 0
M  V30 5157 H 471.039 3.93266 -5.11872 0
M  V30 5158 H 471.807 3.90328 -7.19435 0
M  V30 5159 N 474.47 1.03057 1.19235 0
M  V30 5160 C 475.38 0.622922 2.26179 0
M  V30 5161 C 476.396 -0.346113 1.70523 0
M  V30 5162 O 477.572 -0.203572 2.00369 0
M  V30 5163 C 474.637 -0.0182063 3.46695 0
M  V30 5164 C 473.698 0.998546 4.17526 0
M  V30 5165 C 472.931 0.387917 5.32288 0
M  V30 5166 O 473.154 -0.808668 5.64639 0
M  V30 5167 O 472.088 1.1116 5.91546 0
M  V30 5168 H 475.914 1.51363 2.63292 0
M  V30 5169 H 473.499 0.800856 1.26122 0
M  V30 5170 H 475.381 -0.375606 4.19723 0
M  V30 5171 H 474.056 -0.882895 3.11427 0
M  V30 5172 H 472.963 1.40756 3.4661 0
M  V30 5173 H 474.296 1.83366 4.56769 0
M  V30 5174 N 475.948 -1.35272 0.808662 0
M  V30 5175 C 476.858 -2.33546 0.222079 0
M  V30 5176 C 477.874 -1.6196 -0.636011 0
M  V30 5177 O 479.05 -1.93822 -0.547274 0
M  V30 5178 C 476.115 -3.41148 -0.61795 0
M  V30 5179 C 475.176 -4.28507 0.260875 0
M  V30 5180 C 474.409 -5.3097 -0.539156 0
M  V30 5181 O 474.632 -5.42123 -1.77367 0
M  V30 5182 O 473.566 -6.01858 0.0710526 0
M  V30 5183 H 477.392 -2.85515 1.03512 0
M  V30 5184 H 474.977 -1.38079 0.570495 0
M  V30 5185 H 476.859 -4.06889 -1.09634 0
M  V30 5186 H 475.534 -2.91447 -1.40855 0
M  V30 5187 H 474.441 -3.6574 0.786451 0
M  V30 5188 H 475.774 -4.81611 1.01547 0
M  V30 5189 N 477.426 -0.562348 -1.47226 0
M  V30 5190 C 478.675 -0.038041 -2.01664 0
M  V30 5191 C 478.988 1.32199 -1.44162 0
M  V30 5192 O 480.194 1.9365 -1.90294 0
M  V30 5193 C 478.65 -0.0174958 -3.59896 0
M  V30 5194 C 478.258 -1.3746 -4.2639 0
M  V30 5195 C 480.002 0.453934 -4.22066 0
M  V30 5196 C 477.909 -1.31289 -5.76643 0
M  V30 5197 H 476.839 -0.0104511 -0.753928 0
M  V30 5198 H 479.49 -0.710966 -1.69167 0
M  V30 5199 H 477.872 0.721182 -3.89378 0
M  V30 5200 H 479.046 -2.1314 -4.08544 0
M  V30 5201 H 477.361 -1.78438 -3.7623 0
M  V30 5202 H 479.958 0.518584 -5.32179 0
M  V30 5203 H 480.301 1.46706 -3.89594 0
M  V30 5204 H 480.834 -0.230044 -3.97134 0
M  V30 5205 H 477.573 -2.30217 -6.13743 0
M  V30 5206 H 477.093 -0.597973 -5.96812 0
M  V30 5207 H 478.772 -1.01713 -6.38955 0
M  V30 5208 N 478.904 1.54736 -0.299062 0
M  V30 5209 C 480.134 2.04215 0.312992 0
M  V30 5210 C 480.542 1.17596 1.48215 0
M  V30 5211 O 479.885 0.193835 1.82674 0
M  V30 5212 C 479.947 3.49696 0.833862 0
M  V30 5213 C 479.611 4.56518 -0.20977 0
M  V30 5214 C 480.608 5.09442 -1.03756 0
M  V30 5215 C 478.293 5.01073 -0.35091 0
M  V30 5216 C 480.287 6.05459 -1.99244 0
M  V30 5217 C 477.974 5.9691 -1.30924 0
M  V30 5218 C 478.972 6.48987 -2.1285 0
M  V30 5219 O 478.66 7.42947 -3.07059 0
M  V30 5220 H 478.392 0.672128 0.0722494 0
M  V30 5221 H 480.946 2.00718 -0.436043 0
M  V30 5222 H 479.176 3.5051 1.63339 0
M  V30 5223 H 480.865 3.82381 1.36159 0
M  V30 5224 H 481.631 4.75816 -0.939376 0
M  V30 5225 H 477.51 4.60168 0.276813 0
M  V30 5226 H 481.054 6.46031 -2.63229 0
M  V30 5227 H 476.951 6.29953 -1.40815 0
M  V30 5228 H 477.719 7.60743 -3.02015 0
M  V30 5229 N 480.382 0.0267497 1.57577 0
M  V30 5230 C 481.312 -0.954308 2.13108 0
M  V30 5231 C 482.293 -1.34088 1.04663 0
M  V30 5232 O 483.478 -1.41992 1.32484 0
M  V30 5233 C 480.608 -2.23744 2.65624 0
M  V30 5234 C 479.562 -1.99168 3.78835 0
M  V30 5235 C 478.888 -3.33726 4.17769 0
M  V30 5236 C 480.188 -1.33277 5.0501 0
M  V30 5237 H 481.882 -0.491848 2.95332 0
M  V30 5238 H 479.428 -0.23514 1.42067 0
M  V30 5239 H 481.381 -2.92754 3.03106 0
M  V30 5240 H 480.105 -2.72151 1.80558 0
M  V30 5241 H 478.764 -1.32577 3.41788 0
M  V30 5242 H 478.412 -3.79888 3.29688 0
M  V30 5243 H 478.112 -3.18089 4.94058 0
M  V30 5244 H 479.636 -4.04008 4.57832 0
M  V30 5245 H 481.05 -1.92283 5.40093 0
M  V30 5246 H 479.447 -1.28045 5.8628 0
M  V30 5247 H 480.517 -0.305411 4.83937 0
M  V30 5248 N 481.861 -1.55662 -0.24637 0
M  V30 5249 C 482.808 -1.90361 -1.30504 0
M  V30 5250 C 483.778 -0.757905 -1.47801 0
M  V30 5251 O 484.963 -1.01161 -1.61775 0
M  V30 5252 C 482.103 -2.2042 -2.65535 0
M  V30 5253 C 481.216 -3.47799 -2.56242 0
M  V30 5254 C 480.351 -3.67426 -3.8363 0
M  V30 5255 C 479.39 -4.88403 -3.68956 0
M  V30 5256 N 478.527 -5.04548 -4.88237 0
M  V30 5257 H 483.367 -2.80645 -1.00213 0
M  V30 5258 H 480.904 -1.38924 -0.483577 0
M  V30 5259 H 482.862 -2.35853 -3.44135 0
M  V30 5260 H 481.492 -1.3334 -2.93973 0
M  V30 5261 H 480.544 -3.40694 -1.69208 0
M  V30 5262 H 481.856 -4.36544 -2.4131 0
M  V30 5263 H 481.01 -3.82821 -4.70673 0
M  V30 5264 H 479.749 -2.76914 -4.01459 0
M  V30 5265 H 478.754 -4.72984 -2.80296 0
M  V30 5266 H 479.979 -5.80375 -3.52621 0
M  V30 5267 H 477.925 -4.16974 -5.06427 0
M  V30 5268 H 477.842 -5.87384 -4.75937 0
M  V30 5269 H 479.11 -5.24355 -5.76777 0
M  V30 5270 N 483.339 0.512053 -1.4905 0
M  V30 5271 C 484.287 1.63568 -1.65373 0
M  V30 5272 C 485.281 1.61228 -0.519806 0
M  V30 5273 O 486.487 1.65869 -0.699101 0
M  V30 5274 H 482.862 0.542019 -0.521267 0
M  V30 5275 H 484.833 1.4695 -2.59708 0
M  V30 5276 C 483.582 3.01761 -1.7273 0
M  V30 5277 H 482.905 3.04263 -2.59353 0
M  V30 5278 H 484.345 3.79948 -1.8819 0
M  V30 5279 C 482.804 3.33609 -0.46973 0
M  V30 5280 O 483.334 3.99607 0.409492 0
M  V30 5281 N 481.54 2.88651 -0.336003 0
M  V30 5282 H 481.087 2.35119 -1.05247 0
M  V30 5283 H 481.045 3.10328 0.504363 0
M  V30 5284 N 484.817 1.37938 0.762283 0
M  V30 5285 C 485.764 1.34467 1.87583 0
M  V30 5286 C 486.734 0.208633 1.64785 0
M  V30 5287 O 487.919 0.399494 1.86571 0
M  V30 5288 C 485.059 1.16692 3.24772 0
M  V30 5289 C 484.172 2.39608 3.59461 0
M  V30 5290 C 483.307 2.14631 4.85908 0
M  V30 5291 C 482.346 3.33364 5.13357 0
M  V30 5292 N 481.483 3.07877 6.30996 0
M  V30 5293 H 486.323 2.29669 1.89885 0
M  V30 5294 H 483.86 1.14116 0.928219 0
M  V30 5295 H 485.818 1.04405 4.03925 0
M  V30 5296 H 484.448 0.251333 3.2182 0
M  V30 5297 H 483.5 2.626 2.75219 0
M  V30 5298 H 484.812 3.28128 3.75678 0
M  V30 5299 H 483.966 1.99429 5.72986 0
M  V30 5300 H 482.705 1.23463 4.71814 0
M  V30 5301 H 481.71 3.49094 4.24751 0
M  V30 5302 H 482.935 4.25395 5.29354 0
M  V30 5303 H 480.881 2.19348 6.18241 0
M  V30 5304 H 480.798 3.89944 6.47673 0
M  V30 5305 H 482.066 2.96313 7.20985 0
M  V30 5306 N 486.295 -0.989507 1.22664 0
M  V30 5307 C 487.572 -1.70326 0.961688 0
M  V30 5308 C 487.952 -2.04537 -0.522279 0
M  V30 5309 O 487.3 -1.73136 -1.49118 0
M  V30 5310 C 487.51 -2.95135 1.86269 0
M  V30 5311 C 488.858 -3.67842 2.12078 0
M  V30 5312 O 489.882 -3.0515 1.83745 0
M  V30 5313 O 488.741 -4.80644 2.60083 0
M  V30 5314 H 485.835 -0.743589 0.361946 0
M  V30 5315 H 488.381 -1.04555 1.33665 0
M  V30 5316 H 487.153 -2.66382 2.8663 0
M  V30 5317 H 486.776 -3.68645 1.48952 0
M  V30 5318 N 487.773 -1.03688 -1.18687 0
M  V30 5319 C 488.703 -0.645407 -2.24403 0
M  V30 5320 C 489.684 0.349511 -1.66471 0
M  V30 5321 O 490.869 0.230453 -1.92828 0
M  V30 5322 C 487.999 -0.00365337 -3.473 0
M  V30 5323 C 486.953 -0.921705 -4.17958 0
M  V30 5324 C 486.279 -0.144629 -5.34504 0
M  V30 5325 C 487.579 -2.23909 -4.71871 0
M  V30 5326 H 489.273 -1.52917 -2.57404 0
M  V30 5327 H 486.819 -0.736711 -1.23728 0
M  V30 5328 H 488.772 0.281908 -4.20456 0
M  V30 5329 H 487.496 0.914963 -3.13522 0
M  V30 5330 H 486.155 -1.19159 -3.46694 0
M  V30 5331 H 485.803 0.776274 -4.96974 0
M  V30 5332 H 485.503 -0.756206 -5.82714 0
M  V30 5333 H 487.027 0.134004 -6.10453 0
M  V30 5334 H 488.441 -2.0145 -5.36741 0
M  V30 5335 H 486.838 -2.8033 -5.30599 0
M  V30 5336 H 487.908 -2.88822 -3.895 0
M  V30 5337 N 489.251 1.34841 -0.815825 0
M  V30 5338 C 490.528 1.92908 -0.323416 0
M  V30 5339 C 490.908 1.74479 1.18828 0
M  V30 5340 O 490.256 1.11928 1.99209 0
M  V30 5341 C 490.466 3.40957 -0.744952 0
M  V30 5342 C 491.814 4.18107 -0.739716 0
M  V30 5343 O 492.838 3.49511 -0.68708 0
M  V30 5344 O 491.697 5.40517 -0.806456 0
M  V30 5345 H 488.791 0.822436 -0.0867646 0
M  V30 5346 H 491.337 1.4386 -0.90014 0
M  V30 5347 H 490.109 3.4814 -1.78646 0
M  V30 5348 H 489.732 3.97341 -0.143535 0
M  V30 5349 N 490.729 0.570148 1.46925 0
M  V30 5350 C 491.692 -0.159933 2.28641 0
M  V30 5351 C 492.692 -0.830638 1.37685 0
M  V30 5352 O 493.882 -0.684516 1.60187 0
M  V30 5353 C 491.014 -1.2354 3.17727 0
M  V30 5354 H 492.207 0.558035 2.94662 0
M  V30 5355 H 489.76 0.327603 1.52828 0
M  V30 5356 H 490.495 -1.98535 2.56426 0
M  V30 5357 H 490.28 -0.759125 3.84681 0
M  V30 5358 H 491.77 -1.74782 3.79264 0
M  V30 5359 N 492.207 -1.54576 0.307264 0
M  V30 5360 C 493.623 -1.59534 -0.0459251 0
M  V30 5361 C 493.823 -1.32414 -1.51884 0
M  V30 5362 O 492.879 -1.1006 -2.27251 0
M  V30 5363 C 494.192 -2.98566 0.357649 0
M  V30 5364 C 495.74 -3.11491 0.306937 0
M  V30 5365 C 496.215 -4.52842 0.685427 0
M  V30 5366 N 497.706 -4.58782 0.638203 0
M  V30 5367 C 498.441 -5.66238 0.903458 0
M  V30 5368 N 497.937 -6.81703 1.23501 0
M  V30 5369 N 499.73 -5.55937 0.830102 0
M  V30 5370 H 491.881 -1.70464 1.26712 0
M  V30 5371 H 494.144 -0.79647 0.514139 0
M  V30 5372 H 493.85 -3.23356 1.38325 0
M  V30 5373 H 493.724 -3.76117 -0.285565 0
M  V30 5374 H 496.111 -2.86446 -0.709424 0
M  V30 5375 H 496.192 -2.36081 0.984861 0
M  V30 5376 H 495.836 -4.78618 1.69963 0
M  V30 5377 H 495.766 -5.26598 -0.0146346 0
M  V30 5378 H 498.257 -3.75849 0.393138 0
M  V30 5379 H 498.57 -7.59582 1.42322 0
M  V30 5380 H 496.915 -6.8324 1.27311 0
M  V30 5381 H 500.106 -4.64608 0.570693 0
M  V30 5382 H 500.279 -6.39597 1.04019 0
M  V30 5383 N 493.685 -0.035106 -1.57561 0
M  V30 5384 C 494.615 0.942993 -2.13612 0
M  V30 5385 C 495.596 1.33531 -1.05373 0
M  V30 5386 O 496.781 1.41287 -1.33235 0
M  V30 5387 C 493.911 2.22332 -2.66807 0
M  V30 5388 C 492.865 1.97156 -3.79886 0
M  V30 5389 C 492.191 3.31506 -4.19533 0
M  V30 5390 C 493.491 1.30596 -5.05709 0
M  V30 5391 H 495.185 0.476179 -2.95589 0
M  V30 5392 H 492.731 0.227602 -1.4219 0
M  V30 5393 H 494.684 2.91142 -3.04654 0
M  V30 5394 H 493.408 2.7119 -1.81999 0
M  V30 5395 H 492.067 1.30763 -3.42486 0
M  V30 5396 H 491.715 3.78134 -3.31698 0
M  V30 5397 H 491.415 3.15465 -4.95738 0
M  V30 5398 H 492.939 4.01574 -4.59968 0
M  V30 5399 H 494.353 1.89416 -5.41105 0
M  V30 5400 H 492.75 1.24934 -5.86951 0
M  V30 5401 H 493.82 0.279742 -4.84092 0
M  V30 5402 N 495.163 1.55791 0.238111 0
M  V30 5403 C 496.41 1.78033 0.964907 0
M  V30 5404 C 496.738 0.600984 1.84982 0
M  V30 5405 O 495.993 -0.41536 1.91241 0
M  V30 5406 C 496.292 3.05869 1.84875 0
M  V30 5407 C 495.958 4.36808 1.11846 0
M  V30 5408 C 494.62 4.72388 0.916662 0
M  V30 5409 C 496.972 5.17717 0.60151 0
M  V30 5410 C 494.3 5.86406 0.185756 0
M  V30 5411 C 496.652 6.32494 -0.115972 0
M  V30 5412 C 495.316 6.66688 -0.329168 0
M  V30 5413 H 494.586 0.651469 0.353085 0
M  V30 5414 H 497.233 1.90061 0.234318 0
M  V30 5415 H 495.538 2.88891 2.64668 0
M  V30 5416 H 497.235 3.20278 2.41294 0
M  V30 5417 H 493.825 4.08862 1.28569 0
M  V30 5418 H 498.009 4.90678 0.744932 0
M  V30 5419 H 493.265 6.11399 0.0101886 0
M  V30 5420 H 497.439 6.94425 -0.524127 0
M  V30 5421 H 495.066 7.54884 -0.897474 0
M  V30 5422 N 496.642 -0.504142 1.49319 0
M  V30 5423 C 497.572 -1.61473 1.68667 0
M  V30 5424 C 498.553 -1.61455 0.535378 0
M  V30 5425 O 499.738 -1.78245 0.770868 0
M  V30 5426 C 496.868 -2.99971 1.75028 0
M  V30 5427 C 495.822 -3.14854 2.89916 0
M  V30 5428 C 495.148 -4.54671 2.81387 0
M  V30 5429 C 496.448 -2.95176 4.30893 0
M  V30 5430 H 498.142 -1.45535 2.61648 0
M  V30 5431 H 495.688 -0.698711 1.25913 0
M  V30 5432 H 497.641 -3.77562 1.8715 0
M  V30 5433 H 496.365 -3.1699 0.786441 0
M  V30 5434 H 495.024 -2.39687 2.77391 0
M  V30 5435 H 494.672 -4.68562 1.82917 0
M  V30 5436 H 494.372 -4.6557 3.58494 0
M  V30 5437 H 495.896 -5.34327 2.95512 0
M  V30 5438 H 497.31 -3.62538 4.44116 0
M  V30 5439 H 495.707 -3.17549 5.09198 0
M  V30 5440 H 496.777 -1.91332 4.45556 0
M  V30 5441 N 498.12 -1.38341 -0.754957 0
M  V30 5442 C 499.397 -1.24995 -1.50451 0
M  V30 5443 C 499.777 0.149244 -2.10572 0
M  V30 5444 O 499.125 1.15861 -1.96948 0
M  V30 5445 C 499.335 -2.35904 -2.57197 0
M  V30 5446 C 500.683 -2.74262 -3.24138 0
M  V30 5447 O 501.707 -2.35205 -2.67501 0
M  V30 5448 O 500.566 -3.4161 -4.26574 0
M  V30 5449 H 497.66 -0.48872 -0.667144 0
M  V30 5450 H 500.206 -1.50165 -0.790486 0
M  V30 5451 H 498.978 -3.2953 -2.11011 0
M  V30 5452 H 498.601 -2.12291 -3.36182 0
M  V30 5453 N 499.598 0.982988 -1.23187 0
M  V30 5454 C 500.548 2.05962 -0.977942 0
M  V30 5455 C 501.532 1.60725 0.0751148 0
M  V30 5456 O 502.724 1.76471 -0.136683 0
M  V30 5457 C 499.853 3.38564 -0.568276 0
M  V30 5458 C 498.939 3.90407 -1.6566 0
M  V30 5459 N 499.33 4.15359 -2.88635 0
M  V30 5460 C 497.628 4.18915 -1.53058 0
M  V30 5461 C 498.329 4.57642 -3.5908 0
M  V30 5462 N 497.305 4.6192 -2.86584 0
M  V30 5463 H 501.107 2.23208 -1.91195 0
M  V30 5464 H 498.621 1.16555 -1.13087 0
M  V30 5465 H 500.618 4.15276 -0.36764 0
M  V30 5466 H 499.278 3.22712 0.358713 0
M  V30 5467 H 500.289 4.03258 -3.24966 0
M  V30 5468 H 496.966 4.12081 -0.670506 0
M  V30 5469 H 498.356 4.85488 -4.6449 0
M  V30 5470 N 501.076 1.04316 1.18135 0
M  V30 5471 C 502.353 0.662166 1.84051 0
M  V30 5472 C 502.733 -0.858169 1.9287 0
M  V30 5473 O 502.081 -1.76062 1.45652 0
M  V30 5474 C 502.291 1.3409 3.22212 0
M  V30 5475 C 503.639 1.4733 3.9822 0
M  V30 5476 O 504.663 1.29921 3.31661 0
M  V30 5477 O 503.522 1.75722 5.17479 0
M  V30 5478 H 500.616 0.232005 0.79379 0
M  V30 5479 H 503.162 1.1422 1.25506 0
M  V30 5480 H 501.934 2.37853 3.10711 0
M  V30 5481 H 501.557 0.849649 3.88416 0
M  V30 5482 N 502.554 -1.34406 0.822964 0
M  V30 5483 C 503.501 -2.29519 0.24284 0
M  V30 5484 C 504.471 -1.5359 -0.632397 0
M  V30 5485 O 505.656 -1.8196 -0.57403 0
M  V30 5486 C 502.796 -3.40032 -0.58925 0
M  V30 5487 C 501.909 -4.30899 0.308236 0
M  V30 5488 C 501.044 -5.28515 -0.533425 0
M  V30 5489 C 500.083 -6.1102 0.363444 0
M  V30 5490 N 499.22 -7.00725 -0.439147 0
M  V30 5491 H 504.06 -2.78537 1.05929 0
M  V30 5492 H 501.597 -1.3707 0.533872 0
M  V30 5493 H 503.555 -4.0279 -1.087 0
M  V30 5494 H 502.185 -2.92248 -1.37081 0
M  V30 5495 H 501.237 -3.69002 0.924203 0
M  V30 5496 H 502.549 -4.88717 0.997862 0
M  V30 5497 H 501.703 -5.96725 -1.09565 0
M  V30 5498 H 500.442 -4.71235 -1.25656 0
M  V30 5499 H 499.447 -5.41743 0.937812 0
M  V30 5500 H 500.672 -6.70381 1.08469 0
M  V30 5501 H 498.618 -6.45913 -1.14595 0
M  V30 5502 H 498.535 -7.55756 0.19209 0
M  V30 5503 H 499.803 -7.73263 -0.984124 0
M  V30 5504 N 504.032 -0.577932 -1.46621 0
M  V30 5505 C 505.26 -0.0671642 -2.06791 0
M  V30 5506 C 505.675 1.23571 -1.42743 0
M  V30 5507 O 505.032 1.74602 -0.531062 0
M  V30 5508 C 505.083 0.110357 -3.61332 0
M  V30 5509 O 504.804 -1.14095 -4.22982 0
M  V30 5510 C 506.305 0.656025 -4.38419 0
M  V30 5511 H 503.525 -0.0552732 -0.66872 0
M  V30 5512 H 506.069 -0.797242 -1.8832 0
M  V30 5513 H 504.224 0.790637 -3.79246 0
M  V30 5514 H 504.638 -0.951742 -5.15793 0
M  V30 5515 H 506.112 0.729438 -5.47159 0
M  V30 5516 H 506.589 1.67195 -4.06131 0
M  V30 5517 H 507.195 0.0107692 -4.25299 0
M  V30 5518 N 505.51 1.54411 -0.315457 0
M  V30 5519 C 506.44 2.27002 0.547039 0
M  V30 5520 C 507.421 1.27492 1.12605 0
M  V30 5521 O 508.606 1.5629 1.15269 0
M  V30 5522 C 505.736 3.02171 1.71201 0
M  V30 5523 C 504.69 4.0895 1.26268 0
M  V30 5524 C 504.016 4.71915 2.51396 0
M  V30 5525 C 505.316 5.20891 0.383419 0
M  V30 5526 H 507.01 2.99343 -0.0584517 0
M  V30 5527 H 504.556 1.4397 -0.0295527 0
M  V30 5528 H 506.509 3.51681 2.32161 0
M  V30 5529 H 505.233 2.27433 2.34397 0
M  V30 5530 H 503.892 3.60312 0.676062 0
M  V30 5531 H 503.54 3.93801 3.12937 0
M  V30 5532 H 503.24 5.44039 2.22026 0
M  V30 5533 H 504.764 5.24195 3.13133 0
M  V30 5534 H 506.178 5.66206 0.899082 0
M  V30 5535 H 504.575 5.99821 0.182857 0
M  V30 5536 H 505.645 4.81324 -0.587821 0
M  V30 5537 N 506.988 0.0434614 1.5754 0
M  V30 5538 C 507.92 -0.962586 2.08007 0
M  V30 5539 C 508.933 -1.27972 1.00634 0
M  V30 5540 O 510.122 -1.24186 1.28219 0
M  V30 5541 C 507.222 -2.28621 2.50171 0
M  V30 5542 C 506.395 -2.15214 3.80791 0
M  V30 5543 C 505.454 -3.30633 4.09351 0
M  V30 5544 O 504.48 -3.0688 4.79388 0
M  V30 5545 N 505.682 -4.54873 3.60654 0
M  V30 5546 H 508.447 -0.531891 2.94942 0
M  V30 5547 H 506.008 -0.142965 1.61268 0
M  V30 5548 H 508 -3.04689 2.66359 0
M  V30 5549 H 506.57 -2.63283 1.68525 0
M  V30 5550 H 505.79 -1.23785 3.74261 0
M  V30 5551 H 507.078 -2.03475 4.66343 0
M  V30 5552 H 506.476 -4.77063 3.04019 0
M  V30 5553 H 505.033 -5.2806 3.82094 0
M  V30 5554 N 508.466 -1.55915 -0.229846 0
M  V30 5555 C 509.694 -1.82617 -0.972562 0
M  V30 5556 C 510.109 -0.621488 -1.78278 0
M  V30 5557 O 509.466 0.409956 -1.77836 0
M  V30 5558 C 509.517 -3.0774 -1.89679 0
M  V30 5559 O 509.238 -4.23559 -1.11934 0
M  V30 5560 C 510.739 -3.47368 -2.75409 0
M  V30 5561 H 507.959 -0.60727 -0.285419 0
M  V30 5562 H 510.503 -2.02996 -0.247579 0
M  V30 5563 H 508.658 -2.89361 -2.57583 0
M  V30 5564 H 509.072 -4.94586 -1.74599 0
M  V30 5565 H 510.546 -4.37977 -3.35977 0
M  V30 5566 H 511.023 -2.68737 -3.47386 0
M  V30 5567 H 511.629 -3.68158 -2.12931 0
M  V30 5568 N 509.944 0.496216 -1.49584 0
M  V30 5569 C 511.221 1.25755 -1.49816 0
M  V30 5570 C 511.601 2.09859 -0.228572 0
M  V30 5571 O 510.949 2.14449 0.788908 0
M  V30 5572 C 511.159 2.11017 -2.7798 0
M  V30 5573 C 512.507 2.70047 -3.27658 0
M  V30 5574 O 513.531 2.21281 -2.79129 0
M  V30 5575 O 512.39 3.58834 -4.1219 0
M  V30 5576 H 509.484 0.569322 -0.599834 0
M  V30 5577 H 512.03 0.510094 -1.61852 0
M  V30 5578 H 510.802 1.48879 -3.61871 0
M  V30 5579 H 510.425 2.92947 -2.68827 0
M  V30 5580 N 511.423 1.38739 0.74761 0
M  V30 5581 C 512.648 1.38702 1.54197 0
M  V30 5582 C 513.073 -0.019664 1.8809 0
M  V30 5583 O 512.431 -1.00333 1.51006 0
M  V30 5584 C 512.479 2.25492 2.814 0
M  V30 5585 O 511.583 1.67613 3.76802 0
M  V30 5586 H 510.924 0.472863 0.466151 0
M  V30 5587 H 513.454 1.82577 0.923413 0
M  V30 5588 H 513.464 2.39561 3.30264 0
M  V30 5589 H 512.139 3.27727 2.56062 0
M  V30 5590 H 510.716 1.62718 3.35526 0
M  V30 5591 N 512.901 -0.976442 1.23707 0
M  V30 5592 C 514.15 -1.71254 1.06559 0
M  V30 5593 C 514.463 -1.91528 -0.397024 0
M  V30 5594 O 515.669 -2.62625 -0.688518 0
M  V30 5595 C 514.125 -3.08207 1.8584 0
M  V30 5596 C 513.733 -2.95806 3.36456 0
M  V30 5597 C 515.477 -3.85749 1.77194 0
M  V30 5598 C 513.384 -4.28015 4.08114 0
M  V30 5599 H 512.314 -0.642171 0.395136 0
M  V30 5600 H 514.965 -1.08877 1.4771 0
M  V30 5601 H 513.347 -3.71363 1.37498 0
M  V30 5602 H 514.521 -2.41716 3.92314 0
M  V30 5603 H 512.836 -2.31736 3.45959 0
M  V30 5604 H 515.433 -4.83633 2.28041 0
M  V30 5605 H 515.776 -4.09752 0.735477 0
M  V30 5606 H 516.309 -3.29303 2.23169 0
M  V30 5607 H 513.048 -4.09208 5.12083 0
M  V30 5608 H 512.568 -4.81955 3.57043 0
M  V30 5609 H 514.247 -4.96681 4.14629 0
M  V30 5610 N 514.379 -1.04941 -1.1758 0
M  V30 5611 C 515.656 -0.671918 -1.83697 0
M  V30 5612 C 516.036 0.847929 -1.93322 0
M  V30 5613 O 515.384 1.75287 -1.46583 0
M  V30 5614 C 515.594 -1.35797 -3.21497 0
M  V30 5615 C 516.942 -1.4944 -3.97433 0
M  V30 5616 O 517.966 -1.31678 -3.30967 0
M  V30 5617 O 516.825 -1.78463 -5.1654 0
M  V30 5618 H 513.919 -0.236212 -0.792548 0
M  V30 5619 H 516.465 -1.14884 -1.24899 0
M  V30 5620 H 515.237 -2.39498 -3.09446 0
M  V30 5621 H 514.86 -0.870236 -3.8796 0
M  V30 5622 N 515.857 1.33968 -0.830081 0
M  V30 5623 C 517.082 2.02813 -0.433796 0
M  V30 5624 C 517.507 1.62076 0.954614 0
M  V30 5625 O 516.865 0.808955 1.62252 0
M  V30 5626 C 516.913 3.56348 -0.552115 0
M  V30 5627 O 516.017 4.10202 0.425191 0
M  V30 5628 H 515.358 0.639817 -0.177567 0
M  V30 5629 H 517.888 1.7106 -1.12248 0
M  V30 5630 H 517.898 4.05722 -0.430513 0
M  V30 5631 H 516.573 3.85344 -1.56471 0
M  V30 5632 H 515.15 3.71979 0.261878 0
M  V30 5633 N 517.335 0.585699 1.46312 0
M  V30 5634 C 518.582 0.0724211 2.0237 0
M  V30 5635 C 518.91 -1.28868 1.45683 0
M  V30 5636 O 518.165 -1.85853 0.612945 0
M  V30 5637 C 518.464 -0.0401312 3.57377 0
M  V30 5638 C 518.13 1.25376 4.33119 0
M  V30 5639 C 516.792 1.60824 4.5353 0
M  V30 5640 C 519.144 2.10987 4.76586 0
M  V30 5641 C 516.472 2.81676 5.14661 0
M  V30 5642 C 518.824 3.31068 5.39052 0
M  V30 5643 C 517.488 3.66794 5.5769 0
M  V30 5644 H 516.758 0.0265007 0.740526 0
M  V30 5645 H 519.405 0.762935 1.75646 0
M  V30 5646 H 517.71 -0.813791 3.83255 0
M  V30 5647 H 519.407 -0.453078 3.98432 0
M  V30 5648 H 515.997 0.967808 4.1753 0
M  V30 5649 H 520.181 1.84904 4.60569 0
M  V30 5650 H 515.437 3.0949 5.27282 0
M  V30 5651 H 519.611 3.97672 5.71691 0
M  V30 5652 H 517.238 4.60529 6.04828 0
M  V30 5653 N 518.813 -1.54241 0.323641 0
M  V30 5654 C 519.723 -2.28033 -0.551205 0
M  V30 5655 C 520.739 -1.32388 -1.12913 0
M  V30 5656 O 521.915 -1.65403 -1.14908 0
M  V30 5657 C 518.98 -3.02382 -1.69606 0
M  V30 5658 C 518.041 -4.13612 -1.14993 0
M  V30 5659 C 517.274 -4.84407 -2.24022 0
M  V30 5660 O 517.497 -4.54716 -3.44368 0
M  V30 5661 O 516.431 -5.71312 -1.89436 0
M  V30 5662 H 520.257 -3.03662 0.048066 0
M  V30 5663 H 517.842 -1.49133 0.0893289 0
M  V30 5664 H 519.724 -3.48941 -2.36259 0
M  V30 5665 H 518.399 -2.29628 -2.28151 0
M  V30 5666 H 517.306 -3.71402 -0.448484 0
M  V30 5667 H 518.639 -4.8841 -0.609608 0
M  V30 5668 N 520.291 -0.0518155 -1.57515 0
M  V30 5669 C 521.519 0.631395 -1.9703 0
M  V30 5670 C 521.934 1.64341 -0.92938 0
M  V30 5671 O 521.291 1.82296 0.0863266 0
M  V30 5672 C 521.342 1.31774 -3.36627 0
M  V30 5673 O 521.063 0.346247 -4.3673 0
M  V30 5674 C 522.564 2.09065 -3.90905 0
M  V30 5675 H 519.784 0.172576 -0.648428 0
M  V30 5676 H 522.328 -0.118306 -2.04158 0
M  V30 5677 H 520.483 2.01867 -3.30649 0
M  V30 5678 H 520.897 0.836226 -5.17791 0
M  V30 5679 H 522.371 2.52508 -4.9086 0
M  V30 5680 H 522.848 2.93908 -3.26366 0
M  V30 5681 H 523.454 1.43882 -4.00223 0
M  V30 5682 N 521.769 1.56035 0.221574 0
M  V30 5683 C 522.701 1.889 1.29805 0
M  V30 5684 C 523.714 0.777269 1.43047 0
M  V30 5685 O 524.903 1.05557 1.43945 0
M  V30 5686 C 522.003 2.0825 2.67367 0
M  V30 5687 C 521.176 3.39267 2.76073 0
M  V30 5688 C 520.235 3.48049 3.94649 0
M  V30 5689 O 519.261 4.2108 3.82988 0
M  V30 5690 N 520.463 2.79191 5.08953 0
M  V30 5691 H 523.228 2.81831 1.01938 0
M  V30 5692 H 520.789 1.5658 0.411612 0
M  V30 5693 H 522.781 2.11441 3.45072 0
M  V30 5694 H 521.351 1.21944 2.87834 0
M  V30 5695 H 520.571 3.48175 1.84846 0
M  V30 5696 H 521.859 4.25575 2.7886 0
M  V30 5697 H 521.257 2.19635 5.21322 0
M  V30 5698 H 519.814 2.88043 5.84701 0
M  V30 5699 N 523.247 -0.488276 1.49845 0
M  V30 5700 C 524.663 -0.820566 1.3689 0
M  V30 5701 C 524.863 -1.97248 0.411752 0
M  V30 5702 O 523.919 -2.52042 -0.151931 0
M  V30 5703 C 525.232 -1.1488 2.77891 0
M  V30 5704 C 526.78 -1.25626 2.86683 0
M  V30 5705 C 527.255 -1.61772 4.28479 0
M  V30 5706 N 528.746 -1.68797 4.31349 0
M  V30 5707 C 529.481 -1.98235 5.38043 0
M  V30 5708 N 528.977 -2.2581 6.54967 0
M  V30 5709 N 530.77 -1.99593 5.2547 0
M  V30 5710 H 522.921 0.271123 2.10662 0
M  V30 5711 H 525.184 0.058735 0.946179 0
M  V30 5712 H 524.89 -0.375614 3.49688 0
M  V30 5713 H 524.764 -2.08919 3.14058 0
M  V30 5714 H 527.151 -2.02014 2.15114 0
M  V30 5715 H 527.232 -0.296072 2.54081 0
M  V30 5716 H 526.876 -0.859295 5.00578 0
M  V30 5717 H 526.806 -2.58912 4.58554 0
M  V30 5718 H 529.297 -1.49595 3.4703 0
M  V30 5719 H 529.61 -2.47497 7.32096 0
M  V30 5720 H 527.955 -2.23239 6.58171 0
M  V30 5721 H 531.146 -1.77535 4.33127 0
M  V30 5722 H 531.319 -2.222 6.08713 0
M  V30 5723 N 524.725 -1.39134 -0.740242 0
M  V30 5724 C 525.953 -1.39334 -1.5295 0
M  V30 5725 C 526.368 0.0135008 -1.88795 0
M  V30 5726 O 525.725 0.983524 -1.5373 0
M  V30 5727 C 525.776 -2.2614 -2.82034 0
M  V30 5728 O 525.497 -3.61345 -2.47712 0
M  V30 5729 C 526.998 -2.34666 -3.76094 0
M  V30 5730 H 524.218 -0.476103 -0.472828 0
M  V30 5731 H 526.762 -1.82883 -0.9151 0
M  V30 5732 H 524.917 -1.86018 -3.39818 0
M  V30 5733 H 525.331 -4.07194 -3.30595 0
M  V30 5734 H 526.805 -2.99663 -4.63579 0
M  V30 5735 H 527.282 -1.36426 -4.17474 0
M  V30 5736 H 527.888 -2.75236 -3.2423 0
M  V30 5737 N 526.204 0.969867 -1.24223 0
M  V30 5738 C 527.615 1.52717 -1.07399 0
M  V30 5739 C 527.966 1.92956 0.355298 0
M  V30 5740 O 527.091 1.77112 1.2434 0
M  V30 5741 C 527.686 2.77521 -1.94339 0
M  V30 5742 C 526.245 3.29615 -1.81744 0
M  V30 5743 C 525.392 2.02537 -1.89405 0
M  V30 5744 H 528.343 0.788399 -1.37732 0
M  V30 5745 H 528.364 3.50773 -1.47439 0
M  V30 5746 H 527.876 2.48203 -2.98357 0
M  V30 5747 H 525.977 3.63789 -0.805505 0
M  V30 5748 H 526.09 3.98661 -2.65718 0
M  V30 5749 H 524.454 2.17151 -1.33108 0
M  V30 5750 H 525.237 1.75587 -2.94999 0
M  V30 5751 N 527.682 1.05563 1.17022 0
M  V30 5752 C 529.098 0.777684 1.39371 0
M  V30 5753 C 529.298 -0.626269 1.91521 0
M  V30 5754 O 528.354 -1.38806 2.10924 0
M  V30 5755 C 529.667 1.83642 2.3811 0
M  V30 5756 C 531.215 1.85907 2.51809 0
M  V30 5757 C 531.69 2.90813 3.53824 0
M  V30 5758 N 533.181 2.898 3.61345 0
M  V30 5759 C 533.916 3.6762 4.40049 0
M  V30 5760 N 533.412 4.55237 5.22237 0
M  V30 5761 N 535.205 3.56044 4.34959 0
M  V30 5762 H 527.356 1.9614 0.815047 0
M  V30 5763 H 529.619 0.849527 0.420722 0
M  V30 5764 H 529.325 2.84425 2.06871 0
M  V30 5765 H 529.199 1.6812 3.37662 0
M  V30 5766 H 531.586 0.857865 2.82356 0
M  V30 5767 H 531.667 2.05506 1.52318 0
M  V30 5768 H 531.311 3.91122 3.24015 0
M  V30 5769 H 531.241 2.68465 4.53028 0
M  V30 5770 H 533.732 2.26274 3.02669 0
M  V30 5771 H 534.045 5.11291 5.79484 0
M  V30 5772 H 532.39 4.59296 5.21605 0
M  V30 5773 H 535.581 2.86986 3.69806 0
M  V30 5774 H 535.754 4.16938 4.96051 0
M  V30 5775 N 529.16 -1.33526 0.837174 0
M  V30 5776 C 530.107 -2.29248 0.267169 0
M  V30 5777 C 531.077 -1.54252 -0.616071 0
M  V30 5778 O 532.262 -1.82559 -0.554699 0
M  V30 5779 C 529.402 -3.40638 -0.553152 0
M  V30 5780 C 528.515 -4.30548 0.353921 0
M  V30 5781 C 527.65 -5.29051 -0.477339 0
M  V30 5782 C 526.689 -6.106 0.42823 0
M  V30 5783 N 525.826 -7.01152 -0.364801 0
M  V30 5784 H 530.666 -2.77398 1.08877 0
M  V30 5785 H 528.203 -1.36496 0.54838 0
M  V30 5786 H 530.161 -4.03921 -1.04422 0
M  V30 5787 H 528.791 -2.93685 -1.33973 0
M  V30 5788 H 527.843 -3.68001 0.963289 0
M  V30 5789 H 529.155 -4.87631 1.04964 0
M  V30 5790 H 528.309 -5.97853 -1.0323 0
M  V30 5791 H 527.048 -4.72541 -1.2065 0
M  V30 5792 H 526.053 -5.40718 0.995219 0
M  V30 5793 H 527.278 -6.69193 1.15573 0
M  V30 5794 H 525.224 -6.47092 -1.07738 0
M  V30 5795 H 525.141 -7.5551 0.272238 0
M  V30 5796 H 526.409 -7.74263 -0.902054 0
M  V30 5797 N 530.638 -0.59345 -1.46 0
M  V30 5798 C 531.863 -0.0872365 -2.07216 0
M  V30 5799 C 532.288 1.2131 -1.43755 0
M  V30 5800 O 531.646 1.73528 -0.525152 0
M  V30 5801 C 531.694 0.0538197 -3.6056 0
M  V30 5802 O 530.798 1.10765 -3.97247 0
M  V30 5803 H 530.139 -0.0676598 -0.660544 0
M  V30 5804 H 532.669 -0.819445 -1.87473 0
M  V30 5805 H 532.679 0.256567 -4.07193 0
M  V30 5806 H 531.354 -0.895739 -4.0614 0
M  V30 5807 H 529.931 0.882501 -3.62307 0
M  V30 5808 N 532.116 1.54067 -0.331816 0
M  V30 5809 C 533.064 2.26105 0.54582 0
M  V30 5810 C 534.058 1.27816 1.11173 0
M  V30 5811 O 535.264 1.45565 1.05882 0
M  V30 5812 H 531.639 0.726363 0.194683 0
M  V30 5813 H 533.61 2.98282 -0.083931 0
M  V30 5814 C 532.359 3.03814 1.69092 0
M  V30 5815 H 531.682 3.79269 1.26473 0
M  V30 5816 H 533.122 3.57453 2.28043 0
M  V30 5817 C 531.581 2.12606 2.61343 0
M  V30 5818 O 532.111 1.71437 3.6328 0
M  V30 5819 N 530.317 1.77925 2.29763 0
M  V30 5820 H 529.864 2.11602 1.46909 0
M  V30 5821 H 529.822 1.1718 2.91747 0
M  V30 5822 N 533.594 0.0601682 1.57485 0
M  V30 5823 C 534.524 -0.90889 2.15085 0
M  V30 5824 C 535.505 -1.31838 1.07484 0
M  V30 5825 O 536.69 -1.3915 1.35466 0
M  V30 5826 C 533.82 -2.18059 2.7031 0
M  V30 5827 C 532.774 -1.91088 3.82974 0
M  V30 5828 C 532.1 -3.24789 4.24754 0
M  V30 5829 C 533.4 -1.22535 5.07723 0
M  V30 5830 H 535.094 -0.429093 2.96309 0
M  V30 5831 H 532.64 -0.204952 1.42534 0
M  V30 5832 H 534.593 -2.86258 3.09248 0
M  V30 5833 H 533.317 -2.6826 1.8629 0
M  V30 5834 H 531.976 -1.25297 3.44523 0
M  V30 5835 H 531.624 -3.72809 3.37672 0
M  V30 5836 H 531.324 -3.07538 5.00694 0
M  V30 5837 H 532.848 -3.94205 4.66299 0
M  V30 5838 H 534.262 -1.80783 5.4405 0
M  V30 5839 H 532.659 -1.1558 5.88864 0
M  V30 5840 H 533.729 -0.202692 4.84476 0
M  V30 5841 N 535.072 -1.5615 -0.213296 0
M  V30 5842 C 536.349 -1.70349 -0.961281 0
M  V30 5843 C 536.729 -0.609791 -2.02101 0
M  V30 5844 O 536.077 0.381987 -2.25285 0
M  V30 5845 C 536.287 -3.11982 -1.56424 0
M  V30 5846 C 537.635 -3.71649 -2.05334 0
M  V30 5847 O 538.659 -3.14995 -1.66302 0
M  V30 5848 O 537.518 -4.71038 -2.77102 0
M  V30 5849 H 534.612 -0.694121 -0.449582 0
M  V30 5850 H 537.158 -1.68464 -0.204426 0
M  V30 5851 H 535.93 -3.83046 -0.799457 0
M  V30 5852 H 535.553 -3.18019 -2.38641 0
M  V30 5853 N 536.55 0.480323 -1.50102 0
M  V30 5854 C 537.46 1.60547 -1.71061 0
M  V30 5855 C 538.476 1.63564 -0.593529 0
M  V30 5856 O 539.652 1.81604 -0.870751 0
M  V30 5857 C 536.717 2.96814 -1.79171 0
M  V30 5858 C 535.778 3.04259 -3.02861 0
M  V30 5859 C 535.011 4.34027 -3.10574 0
M  V30 5860 O 535.234 5.24009 -2.25323 0
M  V30 5861 O 534.168 4.46873 -4.03223 0
M  V30 5862 H 537.994 1.45788 -2.6642 0
M  V30 5863 H 535.579 0.658838 -1.34088 0
M  V30 5864 H 537.461 3.77765 -1.86738 0
M  V30 5865 H 536.136 3.11791 -0.869947 0
M  V30 5866 H 535.043 2.22419 -3.008 0
M  V30 5867 H 536.376 2.94216 -3.94586 0
M  V30 5868 N 538.028 1.39524 0.732853 0
M  V30 5869 C 538.938 1.40695 1.87729 0
M  V30 5870 C 539.954 0.301496 1.71368 0
M  V30 5871 O 541.13 0.543313 1.93933 0
M  V30 5872 C 538.195 1.25098 3.23344 0
M  V30 5873 C 537.256 2.45634 3.52083 0
M  V30 5874 C 536.489 2.30772 4.81228 0
M  V30 5875 O 536.712 1.31233 5.55098 0
M  V30 5876 O 535.646 3.19799 5.09914 0
M  V30 5877 H 539.472 2.37168 1.89697 0
M  V30 5878 H 537.057 1.20663 0.880959 0
M  V30 5879 H 538.939 1.18541 4.04383 0
M  V30 5880 H 537.614 0.317209 3.22142 0
M  V30 5881 H 536.521 2.57767 2.71122 0
M  V30 5882 H 537.854 3.37712 3.58066 0
M  V30 5883 N 539.506 -0.963266 1.24736 0
M  V30 5884 C 540.752 -1.70933 1.09131 0
M  V30 5885 C 541.085 -1.90676 -0.368273 0
M  V30 5886 O 540.36 -1.47147 -1.27193 0
M  V30 5887 C 540.643 -3.09744 1.83658 0
M  V30 5888 C 540.496 -2.97465 3.37394 0
M  V30 5889 C 541.815 -4.09483 1.61282 0
M  V30 5890 H 538.934 -0.620398 0.397838 0
M  V30 5891 H 541.576 -1.12028 1.53459 0
M  V30 5892 H 539.726 -3.60031 1.4598 0
M  V30 5893 H 541.398 -2.54571 3.84696 0
M  V30 5894 H 539.641 -2.33576 3.65547 0
M  V30 5895 H 540.312 -3.95822 3.84745 0
M  V30 5896 H 542.788 -3.68073 1.94066 0
M  V30 5897 H 541.664 -5.04666 2.15878 0
M  V30 5898 H 541.925 -4.38639 0.552102 0
M  V30 5899 N 540.985 -1.06182 -1.16461 0
M  V30 5900 C 541.933 -0.665716 -2.2287 0
M  V30 5901 C 542.927 0.317822 -1.66392 0
M  V30 5902 O 544.133 0.182807 -1.79069 0
M  V30 5903 H 540.508 -0.197148 -0.725697 0
M  V30 5904 H 542.479 -1.57307 -2.53569 0
M  V30 5905 C 541.228 -0.0669803 -3.47635 0
M  V30 5906 H 540.551 -0.814899 -3.91407 0
M  V30 5907 H 541.991 0.172669 -4.23648 0
M  V30 5908 C 540.45 1.18913 -3.15216 0
M  V30 5909 O 540.98 2.27723 -3.30916 0
M  V30 5910 N 539.186 1.09066 -2.69357 0
M  V30 5911 H 538.733 0.20518 -2.56782 0
M  V30 5912 H 538.691 1.93195 -2.48039 0
M  V30 5913 N 542.463 1.3308 -0.844243 0
M  V30 5914 C 543.709 1.97898 -0.443206 0
M  V30 5915 C 544.042 1.66699 0.99625 0
M  V30 5916 O 543.317 0.949704 1.69738 0
M  V30 5917 C 543.6 3.53801 -0.670606 0
M  V30 5918 C 543.453 3.94667 -2.15772 0
M  V30 5919 C 544.772 4.39936 -0.120226 0
M  V30 5920 H 541.891 0.718861 -0.162504 0
M  V30 5921 H 544.533 1.57633 -1.06075 0
M  V30 5922 H 542.683 3.88229 -0.14496 0
M  V30 5923 H 544.355 3.70469 -2.74865 0
M  V30 5924 H 542.598 3.44203 -2.6402 0
M  V30 5925 H 543.269 5.03275 -2.26757 0
M  V30 5926 H 545.745 4.12183 -0.5696 0
M  V30 5927 H 544.621 5.4803 -0.308984 0
M  V30 5928 H 544.882 4.31184 0.976347 0
M  V30 5929 N 543.941 0.601185 1.45683 0
M  V30 5930 C 545.19 0.0914953 2.01492 0
M  V30 5931 C 545.503 -1.28331 1.47616 0
M  V30 5932 O 546.709 -1.88537 1.95362 0
M  V30 5933 C 545.165 0.11291 3.59723 0
M  V30 5934 C 544.773 1.48717 4.22596 0
M  V30 5935 C 546.517 -0.341871 4.23121 0
M  V30 5936 C 544.424 1.46531 5.7296 0
M  V30 5937 H 543.354 0.0304365 0.753385 0
M  V30 5938 H 546.005 0.755568 1.67223 0
M  V30 5939 H 544.387 -0.617692 3.91153 0
M  V30 5940 H 545.561 2.23897 4.02749 0
M  V30 5941 H 543.876 1.88351 3.71366 0
M  V30 5942 H 546.473 -0.377304 5.33367 0
M  V30 5943 H 546.816 -1.36325 3.93346 0
M  V30 5944 H 547.349 0.335256 3.96385 0
M  V30 5945 H 544.088 2.46408 6.07423 0
M  V30 5946 H 543.608 0.755997 5.95017 0
M  V30 5947 H 545.287 1.18618 6.36034 0
M  V30 5948 N 545.419 -1.53889 0.339982 0
M  V30 5949 C 546.83 -1.86139 -0.144671 0
M  V30 5950 C 547.181 -1.2613 -1.50285 0
M  V30 5951 O 546.306 -0.573515 -2.08662 0
M  V30 5952 C 546.901 -3.37728 -0.269285 0
M  V30 5953 C 545.46 -3.69868 -0.698168 0
M  V30 5954 C 544.607 -2.76777 0.170249 0
M  V30 5955 H 547.558 -1.48503 0.559704 0
M  V30 5956 H 547.579 -3.64331 -1.0974 0
M  V30 5957 H 547.091 -3.81375 0.719366 0
M  V30 5958 H 545.192 -3.31764 -1.69597 0
M  V30 5959 H 545.305 -4.76582 -0.490533 0
M  V30 5960 H 543.669 -2.52188 -0.356844 0
M  V30 5961 H 544.452 -3.23253 1.15597 0
M  V30 5962 N 546.897 -0.0685191 -1.57451 0
M  V30 5963 C 548.308 0.464634 -1.80826 0
M  V30 5964 C 548.659 1.69847 -0.982169 0
M  V30 5965 O 547.784 2.15439 -0.203734 0
M  V30 5966 C 548.379 0.849721 -3.27971 0
M  V30 5967 C 546.938 1.32776 -3.52204 0
M  V30 5968 C 546.085 0.311332 -2.75547 0
M  V30 5969 H 549.036 -0.294248 -1.55948 0
M  V30 5970 H 549.057 1.71138 -3.39841 0
M  V30 5971 H 548.569 -0.0484736 -3.8807 0
M  V30 5972 H 546.67 2.24456 -2.97406 0
M  V30 5973 H 546.783 1.30794 -4.60901 0
M  V30 5974 H 545.147 0.787915 -2.42206 0
M  V30 5975 H 545.93 -0.579078 -3.38381 0
M  V30 5976 N 548.375 1.56261 0.205012 0
M  V30 5977 C 549.325 1.90155 1.25798 0
M  V30 5978 C 550.309 0.766227 1.41484 0
M  V30 5979 O 551.501 1.02893 1.44021 0
M  V30 5980 C 548.63 2.23603 2.60493 0
M  V30 5981 C 547.716 3.43568 2.48639 0
M  V30 5982 N 548.107 4.61747 2.06455 0
M  V30 5983 C 546.405 3.4751 2.79558 0
M  V30 5984 C 547.106 5.43907 2.06253 0
M  V30 5985 N 546.082 4.84051 2.47377 0
M  V30 5986 H 549.884 2.79031 0.922986 0
M  V30 5987 H 547.398 1.57048 0.413501 0
M  V30 5988 H 549.395 2.46067 3.36537 0
M  V30 5989 H 548.055 1.36049 2.94823 0
M  V30 5990 H 549.066 4.86598 1.77321 0
M  V30 5991 H 545.743 2.70345 3.18151 0
M  V30 5992 H 547.133 6.48542 1.75622 0
M  V30 5993 N 549.853 -0.472356 1.50355 0
M  V30 5994 C 551.081 -1.24784 1.65035 0
M  V30 5995 C 551.496 -1.85837 0.333176 0
M  V30 5996 O 550.853 -1.69168 -0.68472 0
M  V30 5997 C 550.904 -2.35747 2.74054 0
M  V30 5998 O 550.625 -1.77197 4.00665 0
M  V30 5999 C 552.126 -3.26645 2.99696 0
M  V30 6000 H 549.346 -0.377432 0.554785 0
M  V30 6001 H 551.89 -0.563962 1.9657 0
M  V30 6002 H 550.045 -2.99912 2.45217 0
M  V30 6003 H 550.459 -2.5026 4.60945 0
M  V30 6004 H 551.933 -4.00718 3.79644 0
M  V30 6005 H 552.41 -3.8535 2.10718 0
M  V30 6006 H 553.016 -2.68218 3.3006 0
M  V30 6007 N 551.331 -1.39911 -0.725443 0
M  V30 6008 C 552.742 -1.33599 -1.30415 0
M  V30 6009 C 553.093 -0.00481792 -1.96199 0
M  V30 6010 O 552.218 0.897275 -1.96921 0
M  V30 6011 C 552.813 -2.41965 -2.37146 0
M  V30 6012 C 551.372 -2.39144 -2.90667 0
M  V30 6013 C 550.519 -2.23355 -1.64341 0
M  V30 6014 H 553.47 -1.4986 -0.522267 0
M  V30 6015 H 553.491 -2.09304 -3.17761 0
M  V30 6016 H 553.003 -3.38837 -1.89238 0
M  V30 6017 H 551.104 -1.4594 -3.4283 0
M  V30 6018 H 551.217 -3.34362 -3.43131 0
M  V30 6019 H 549.581 -1.70696 -1.89037 0
M  V30 6020 H 550.364 -3.2221 -1.18471 0
M  V30 6021 N 552.809 0.956637 -1.25245 0
M  V30 6022 C 554.055 1.70352 -1.10036 0
M  V30 6023 C 554.388 1.90869 0.358156 0
M  V30 6024 O 553.663 1.47819 1.26411 0
M  V30 6025 C 553.946 3.08766 -1.85298 0
M  V30 6026 C 553.799 2.95672 -3.38966 0
M  V30 6027 C 555.118 4.08622 -1.63451 0
M  V30 6028 H 552.237 0.618279 -0.401123 0
M  V30 6029 H 554.879 1.11212 -1.54051 0
M  V30 6030 H 553.029 3.59252 -1.47887 0
M  V30 6031 H 554.701 2.52527 -3.86041 0
M  V30 6032 H 552.944 2.31634 -3.6678 0
M  V30 6033 H 553.615 3.93776 -3.86839 0
M  V30 6034 H 556.091 3.67038 -1.96015 0
M  V30 6035 H 554.967 5.03514 -2.18551 0
M  V30 6036 H 555.228 4.3834 -0.575357 0
M  V30 6037 N 554.287 1.06798 1.15896 0
M  V30 6038 C 555.703 0.792423 1.38538 0
M  V30 6039 C 555.903 -0.60592 1.92174 0
M  V30 6040 O 554.959 -1.36561 2.12385 0
M  V30 6041 C 556.272 1.86157 2.36149 0
M  V30 6042 C 557.82 1.88567 2.49823 0
M  V30 6043 C 558.295 2.9455 3.5072 0
M  V30 6044 N 559.786 2.93616 3.58251 0
M  V30 6045 C 560.521 3.72267 4.36125 0
M  V30 6046 N 560.017 4.60751 5.17379 0
M  V30 6047 N 561.81 3.60637 4.31158 0
M  V30 6048 H 553.961 1.96993 0.794198 0
M  V30 6049 H 556.224 0.853942 0.411688 0
M  V30 6050 H 555.93 2.86603 2.03843 0
M  V30 6051 H 555.804 1.71692 3.3586 0
M  V30 6052 H 558.191 0.887765 2.8143 0
M  V30 6053 H 558.272 2.0711 1.5013 0
M  V30 6054 H 557.916 3.94537 3.19849 0
M  V30 6055 H 557.846 2.73255 4.50155 0
M  V30 6056 H 560.337 2.29472 3.00252 0
M  V30 6057 H 560.65 5.17408 5.74028 0
M  V30 6058 H 558.995 4.64803 5.16704 0
M  V30 6059 H 562.186 2.90892 3.66742 0
M  V30 6060 H 562.359 4.22176 4.91601 0
M  V30 6061 N 555.766 -1.3263 0.851289 0
M  V30 6062 C 556.994 -2.01563 0.466899 0
M  V30 6063 C 557.409 -1.63996 -0.935447 0
M  V30 6064 O 556.766 -0.85957 -1.6099 0
M  V30 6065 C 556.817 -3.56613 0.592433 0
M  V30 6066 O 556.538 -3.92828 1.93954 0
M  V30 6067 C 558.039 -4.42818 0.206612 0
M  V30 6068 H 555.259 -0.645307 0.183902 0
M  V30 6069 H 557.803 -1.69285 1.1473 0
M  V30 6070 H 555.958 -3.87379 -0.0401936 0
M  V30 6071 H 556.372 -4.87545 1.9339 0
M  V30 6072 H 557.846 -5.50918 0.345462 0
M  V30 6073 H 558.323 -4.30844 -0.85264 0
M  V30 6074 H 558.929 -4.17434 0.814176 0
M  V30 6075 N 557.244 -0.608902 -1.45362 0
M  V30 6076 C 558.49 -0.104762 -2.02529 0
M  V30 6077 C 558.823 1.26191 -1.47613 0
M  V30 6078 O 558.098 1.8327 -0.65134 0
M  V30 6079 C 558.381 -0.0672661 -3.60037 0
M  V30 6080 C 558.234 -1.4647 -4.25284 0
M  V30 6081 C 559.553 0.619877 -4.35713 0
M  V30 6082 H 556.672 -0.0395438 -0.735938 0
M  V30 6083 H 559.314 -0.781126 -1.73201 0
M  V30 6084 H 557.464 0.50871 -3.85155 0
M  V30 6085 H 559.136 -2.08785 -4.11347 0
M  V30 6086 H 557.379 -2.02502 -3.83634 0
M  V30 6087 H 558.05 -1.39069 -5.34195 0
M  V30 6088 H 560.526 0.130297 -4.15896 0
M  V30 6089 H 559.402 0.615224 -5.45441 0
M  V30 6090 H 559.663 1.68621 -4.0868 0
M  V30 6091 N 558.722 1.53707 -0.348139 0
M  V30 6092 C 559.655 2.21481 0.549667 0
M  V30 6093 C 560.633 1.20046 1.09671 0
M  V30 6094 O 561.817 1.48883 1.15612 0
M  V30 6095 C 558.944 2.89585 1.75664 0
M  V30 6096 C 557.99 4.04948 1.33864 0
M  V30 6097 S 558.823 5.34325 0.354577 0
M  V30 6098 C 559.979 6.05934 1.56828 0
M  V30 6099 H 560.212 2.97289 -0.0259755 0
M  V30 6100 H 557.745 1.53833 -0.132216 0
M  V30 6101 H 559.703 3.29441 2.44906 0
M  V30 6102 H 558.364 2.13535 2.30351 0
M  V30 6103 H 557.557 4.51552 2.23868 0
M  V30 6104 H 557.159 3.66893 0.725651 0
M  V30 6105 H 559.451 6.29606 2.50205 0
M  V30 6106 H 560.394 6.98799 1.14395 0
M  V30 6107 H 560.802 5.36151 1.76642 0
M  V30 6108 N 560.2 0.0768682 1.57412 0
M  V30 6109 C 561.148 -0.906229 2.1422 0
M  V30 6110 C 562.142 -1.30477 1.08037 0
M  V30 6111 O 563.348 -1.28143 1.2641 0
M  V30 6112 H 559.723 -0.310207 0.685037 0
M  V30 6113 H 561.694 -0.402228 2.95677 0
M  V30 6114 C 560.443 -2.16245 2.72274 0
M  V30 6115 H 559.766 -1.86463 3.53655 0
M  V30 6116 H 561.206 -2.83134 3.15613 0
M  V30 6117 C 559.665 -2.92437 1.67279 0
M  V30 6118 O 560.195 -3.86322 1.10081 0
M  V30 6119 N 558.401 -2.55637 1.38195 0
M  V30 6120 H 557.948 -1.79363 1.84897 0
M  V30 6121 H 557.906 -3.06919 0.681787 0
M  V30 6122 N 561.678 -1.56367 -0.196722 0
M  V30 6123 C 562.906 -1.84639 -0.933608 0
M  V30 6124 C 563.321 -0.659164 -1.76919 0
M  V30 6125 O 562.678 0.372142 -1.78665 0
M  V30 6126 C 562.729 -3.11694 -1.83109 0
M  V30 6127 O 562.45 -4.25838 -1.02924 0
M  V30 6128 C 563.951 -3.53132 -2.67979 0
M  V30 6129 H 561.171 -0.613188 -0.272473 0
M  V30 6130 H 563.715 -2.03475 -0.204465 0
M  V30 6131 H 561.87 -2.94759 -2.51387 0
M  V30 6132 H 562.284 -4.98178 -1.64069 0
M  V30 6133 H 563.758 -4.45005 -3.26611 0
M  V30 6134 H 564.235 -2.76045 -3.41608 0
M  V30 6135 H 564.841 -3.72592 -2.05074 0
M  V30 6136 N 563.156 0.464375 -1.50603 0
M  V30 6137 C 564.405 1.21277 -1.61167 0
M  V30 6138 C 564.718 1.92953 -0.320704 0
M  V30 6139 O 565.924 2.69778 -0.30534 0
M  V30 6140 C 564.38 2.20403 -2.84518 0
M  V30 6141 C 563.988 1.54499 -4.20516 0
M  V30 6142 C 565.732 2.95843 -3.0443 0
M  V30 6143 C 563.639 2.51951 -5.35047 0
M  V30 6144 H 562.569 0.456367 -0.600204 0
M  V30 6145 H 565.22 0.48254 -1.77042 0
M  V30 6146 H 563.602 2.96746 -2.62217 0
M  V30 6147 H 564.776 0.83899 -4.53098 0
M  V30 6148 H 563.091 0.913152 -4.06264 0
M  V30 6149 H 565.688 3.6879 -3.87167 0
M  V30 6150 H 566.031 3.55622 -2.16423 0
M  V30 6151 H 566.564 2.26611 -3.26944 0
M  V30 6152 H 563.303 1.96901 -6.25228 0
M  V30 6153 H 562.823 3.20683 -5.06875 0
M  V30 6154 H 564.502 3.13643 -5.65895 0
M  V30 6155 N 564.634 1.40294 0.718013 0
M  V30 6156 C 565.566 1.36281 1.84283 0
M  V30 6157 C 566.579 0.268621 1.60569 0
M  V30 6158 O 567.768 0.528798 1.70487 0
M  V30 6159 C 564.868 1.09741 3.2064 0
M  V30 6160 C 564.041 2.30767 3.71571 0
M  V30 6161 C 563.1 2.00424 4.86535 0
M  V30 6162 O 562.126 2.73268 4.99313 0
M  V30 6163 N 563.328 0.980724 5.72156 0
M  V30 6164 H 566.093 2.3322 1.88225 0
M  V30 6165 H 563.654 1.34616 0.899453 0
M  V30 6166 H 565.646 0.874322 3.95143 0
M  V30 6167 H 564.216 0.214771 3.11861 0
M  V30 6168 H 563.436 2.68921 2.88228 0
M  V30 6169 H 564.724 3.11455 4.02335 0
M  V30 6170 H 564.122 0.377375 5.6444 0
M  V30 6171 H 562.679 0.817538 6.46653 0
M  V30 6172 N 566.112 -0.949982 1.2575 0
M  V30 6173 C 567.044 -2.05088 1.02331 0
M  V30 6174 C 568.057 -1.62795 -0.0133247 0
M  V30 6175 O 569.246 -1.77067 0.225759 0
M  V30 6176 C 566.346 -3.34794 0.525924 0
M  V30 6177 C 565.519 -4.05903 1.62978 0
M  V30 6178 C 564.578 -5.1388 1.13196 0
M  V30 6179 O 563.604 -5.39072 1.82729 0
M  V30 6180 N 564.806 -5.80495 -0.0242926 0
M  V30 6181 H 567.571 -2.25747 1.97125 0
M  V30 6182 H 565.132 -1.11886 1.17018 0
M  V30 6183 H 567.124 -4.04312 0.177263 0
M  V30 6184 H 565.694 -3.10872 -0.328202 0
M  V30 6185 H 564.914 -3.3042 2.1498 0
M  V30 6186 H 566.202 -4.50166 2.37124 0
M  V30 6187 H 565.6 -5.62454 -0.605184 0
M  V30 6188 H 564.157 -6.51043 -0.313947 0
M  V30 6189 N 567.59 -1.07411 -1.15328 0
M  V30 6190 C 568.52 -0.716472 -2.22236 0
M  V30 6191 C 569.501 0.296373 -1.67498 0
M  V30 6192 O 570.686 0.168989 -1.93463 0
M  V30 6193 C 567.816 -0.114142 -3.47112 0
M  V30 6194 C 566.77 -1.05421 -4.14814 0
M  V30 6195 C 566.096 -0.314604 -5.33774 0
M  V30 6196 C 567.396 -2.38808 -4.64508 0
M  V30 6197 H 569.09 -1.61029 -2.52408 0
M  V30 6198 H 566.636 -0.775702 -1.21321 0
M  V30 6199 H 568.589 0.148001 -4.2114 0
M  V30 6200 H 567.313 0.814755 -3.16274 0
M  V30 6201 H 565.972 -1.30128 -3.42728 0
M  V30 6202 H 565.62 0.617772 -4.99192 0
M  V30 6203 H 565.32 -0.941209 -5.80013 0
M  V30 6204 H 566.844 -0.0602747 -6.1057 0
M  V30 6205 H 568.258 -2.18424 -5.3006 0
M  V30 6206 H 566.655 -2.97069 -5.21412 0
M  V30 6207 H 567.725 -3.01067 -3.80114 0
M  V30 6208 N 569.068 1.32177 -0.85831 0
M  V30 6209 C 570.001 2.26823 -0.25035 0
M  V30 6210 C 570.979 1.50571 0.61378 0
M  V30 6211 O 572.163 1.79682 0.569777 0
M  V30 6212 C 569.29 3.32472 0.646556 0
M  V30 6213 C 568.336 4.26255 -0.144675 0
M  V30 6214 S 569.169 5.13608 -1.5155 0
M  V30 6215 C 570.325 6.22778 -0.624408 0
M  V30 6216 H 570.558 2.7804 -1.05267 0
M  V30 6217 H 568.091 1.39764 -0.656152 0
M  V30 6218 H 570.049 3.93817 1.15837 0
M  V30 6219 H 568.71 2.80031 1.42272 0
M  V30 6220 H 567.903 5.01114 0.538613 0
M  V30 6221 H 567.505 3.69346 -0.588198 0
M  V30 6222 H 569.797 6.77287 0.169846 0
M  V30 6223 H 570.74 6.95233 -1.34376 0
M  V30 6224 H 571.148 5.64156 -0.197128 0
M  V30 6225 N 570.547 0.616602 1.45037 0
M  V30 6226 C 571.48 -0.145984 2.27733 0
M  V30 6227 C 572.458 -0.865108 1.37676 0
M  V30 6228 O 573.642 -0.872152 1.6711 0
M  V30 6229 C 570.769 -1.2122 3.16265 0
M  V30 6230 C 569.815 -0.595218 4.22326 0
M  V30 6231 S 570.648 0.603744 5.32086 0
M  V30 6232 C 571.804 -0.462842 6.24186 0
M  V30 6233 H 572.037 0.555591 2.92062 0
M  V30 6234 H 569.57 0.404364 1.49011 0
M  V30 6235 H 571.528 -1.82247 3.67827 0
M  V30 6236 H 570.189 -1.88589 2.51183 0
M  V30 6237 H 569.382 -1.39775 4.8423 0
M  V30 6238 H 568.984 -0.0598965 3.73952 0
M  V30 6239 H 571.276 -1.33945 6.64127 0
M  V30 6240 H 572.219 0.120259 7.07998 0
M  V30 6241 H 572.627 -0.782219 5.59054 0
M  V30 6242 N 572.025 -1.5352 0.356285 0
M  V30 6243 C 573.274 -2.00298 -0.237373 0
M  V30 6244 C 573.587 -1.24784 -1.50627 0
M  V30 6245 O 574.793 -1.62103 -2.17795 0
M  V30 6246 C 573.249 -3.56771 -0.473545 0
M  V30 6247 C 572.857 -4.41154 0.780183 0
M  V30 6248 C 574.601 -4.1193 -1.02537 0
M  V30 6249 C 572.508 -5.89161 0.514108 0
M  V30 6250 H 571.438 -0.748307 -0.092478 0
M  V30 6251 H 574.089 -1.77283 0.473588 0
M  V30 6252 H 572.471 -3.75902 -1.24553 0
M  V30 6253 H 573.645 -4.33797 1.55425 0
M  V30 6254 H 571.96 -3.97052 1.25455 0
M  V30 6255 H 574.557 -5.20133 -1.2396 0
M  V30 6256 H 574.9 -3.65943 -1.98473 0
M  V30 6257 H 575.433 -3.96561 -0.313775 0
M  V30 6258 H 572.172 -6.39408 1.44355 0
M  V30 6259 H 571.692 -5.9939 -0.221632 0
M  V30 6260 H 573.371 -6.46857 0.136122 0
M  V30 6261 N 573.503 -0.0852151 -1.57369 0
M  V30 6262 C 574.433 0.874556 -2.16503 0
M  V30 6263 C 575.414 1.30111 -1.09568 0
M  V30 6264 O 576.599 1.36977 -1.37662 0
M  V30 6265 C 573.729 2.13731 -2.73745 0
M  V30 6266 C 572.683 1.84971 -3.85966 0
M  V30 6267 C 572.009 3.17991 -4.29867 0
M  V30 6268 C 573.309 1.14442 -5.09608 0
M  V30 6269 H 575.003 0.381899 -2.96954 0
M  V30 6270 H 572.549 0.18225 -1.42842 0
M  V30 6271 H 574.502 2.81302 -3.13763 0
M  V30 6272 H 573.226 2.65263 -1.90534 0
M  V30 6273 H 571.885 1.19801 -3.46473 0
M  V30 6274 H 571.533 3.6739 -3.4356 0
M  V30 6275 H 571.233 2.99534 -5.05523 0
M  V30 6276 H 572.757 3.86737 -4.72511 0
M  V30 6277 H 574.171 1.72105 -5.46857 0
M  V30 6278 H 572.568 1.06197 -5.90629 0
M  V30 6279 H 573.638 0.12559 -4.84737 0
M  V30 6280 N 574.981 1.5647 0.188427 0
M  V30 6281 C 575.929 1.95971 1.25293 0
M  V30 6282 C 576.923 0.846047 1.4676 0
M  V30 6283 O 578.129 1.03109 1.47542 0
M  V30 6284 H 574.504 0.623253 0.420784 0
M  V30 6285 H 576.475 2.84731 0.892792 0
M  V30 6286 C 575.224 2.32116 2.58877 0
M  V30 6287 H 574.547 3.17341 2.43176 0
M  V30 6288 H 575.987 2.63613 3.3209 0
M  V30 6289 C 574.446 1.15823 3.16365 0
M  V30 6290 O 574.976 0.436785 3.99318 0
M  V30 6291 N 573.182 0.933278 2.75206 0
M  V30 6292 H 572.729 1.52169 2.07852 0
M  V30 6293 H 572.687 0.156976 3.14008 0
M  V30 6294 N 576.459 -0.456382 1.50847 0
M  V30 6295 C 577.684 -1.2349 1.66628 0
M  V30 6296 C 578.109 -1.84715 0.355254 0
M  V30 6297 O 577.467 -1.67961 -0.682559 0
M  V30 6298 C 577.515 -2.30865 2.77009 0
M  V30 6299 O 576.619 -3.35882 2.39285 0
M  V30 6300 H 575.96 -0.36266 0.556214 0
M  V30 6301 H 578.49 -0.541374 1.97308 0
M  V30 6302 H 578.5 -2.75949 3.00526 0
M  V30 6303 H 577.175 -1.85677 3.72152 0
M  V30 6304 H 575.752 -2.96406 2.26269 0
M  V30 6305 N 577.937 -1.40673 -0.710563 0
M  V30 6306 C 578.9 -1.4108 -1.80635 0
M  V30 6307 C 579.9 -0.303783 -1.57904 0
M  V30 6308 O 581.09 -0.562937 -1.64853 0
M  V30 6309 C 578.222 -1.20748 -3.18799 0
M  V30 6310 H 579.415 -2.38612 -1.81671 0
M  V30 6311 H 576.968 -1.26595 -0.916704 0
M  V30 6312 H 577.703 -0.239964 -3.23411 0
M  V30 6313 H 577.488 -2.00941 -3.36698 0
M  V30 6314 H 578.978 -1.23833 -3.98817 0
M  V30 6315 N 579.415 0.9433 -1.26252 0
M  V30 6316 C 580.64 1.72898 -1.14547 0
M  V30 6317 C 581.065 1.85761 0.295743 0
M  V30 6318 O 580.423 1.3463 1.21427 0
M  V30 6319 C 580.471 3.11471 -1.8171 0
M  V30 6320 O 579.575 3.97336 -1.10445 0
M  V30 6321 H 578.916 0.530555 -0.399259 0
M  V30 6322 H 581.446 1.18159 -1.67032 0
M  V30 6323 H 581.456 3.61872 -1.88449 0
M  V30 6324 H 580.131 3.01425 -2.86558 0
M  V30 6325 H 578.708 3.55788 -1.11666 0
M  V30 6326 N 580.893 1.08022 1.14757 0
M  V30 6327 C 582.17 0.720386 1.81851 0
M  V30 6328 C 582.55 -0.796375 1.95502 0
M  V30 6329 O 581.898 -1.71339 1.51179 0
M  V30 6330 C 582.108 1.44273 3.17783 0
M  V30 6331 C 583.456 1.59925 3.93331 0
M  V30 6332 O 584.48 1.40407 3.2736 0
M  V30 6333 O 583.339 1.92096 5.11626 0
M  V30 6334 H 580.433 0.257142 0.786007 0
M  V30 6335 H 582.979 1.18155 1.21809 0
M  V30 6336 H 581.751 2.47618 3.02987 0
M  V30 6337 H 581.374 0.97279 3.85516 0
M  V30 6338 N 582.371 -1.3172 0.865308 0
M  V30 6339 C 583.303 -2.27545 0.274906 0
M  V30 6340 C 584.316 -1.52887 -0.559413 0
M  V30 6341 O 585.505 -1.74361 -0.382166 0
M  V30 6342 C 582.605 -3.33006 -0.629286 0
M  V30 6343 C 581.778 -4.37063 0.171553 0
M  V30 6344 C 580.837 -5.22044 -0.660052 0
M  V30 6345 O 579.863 -5.69129 -0.0897527 0
M  V30 6346 N 581.065 -5.45946 -1.97289 0
M  V30 6347 H 583.83 -2.78848 1.09836 0
M  V30 6348 H 581.391 -1.44693 0.726331 0
M  V30 6349 H 583.383 -3.86772 -1.19121 0
M  V30 6350 H 581.953 -2.81782 -1.35342 0
M  V30 6351 H 581.173 -3.83436 0.914919 0
M  V30 6352 H 582.461 -5.03662 0.721235 0
M  V30 6353 H 581.859 -5.0944 -2.45942 0
M  V30 6354 H 580.416 -6.02665 -2.4827 0
M  V30 6355 N 583.85 -0.624285 -1.44708 0
M  V30 6356 C 585.26 -0.2092 -1.85524 0
M  V30 6357 C 585.611 1.23783 -1.52225 0
M  V30 6358 O 584.736 1.94089 -0.956986 0
M  V30 6359 C 585.332 -0.372897 -3.36742 0
M  V30 6360 C 583.891 -0.012374 -3.76398 0
M  V30 6361 C 583.038 -0.68951 -2.68591 0
M  V30 6362 H 585.989 -0.829894 -1.35272 0
M  V30 6363 H 586.01 0.390134 -3.78495 0
M  V30 6364 H 585.522 -1.42615 -3.60947 0
M  V30 6365 H 583.623 1.03941 -3.57809 0
M  V30 6366 H 583.736 -0.417663 -4.77276 0
M  V30 6367 H 582.1 -0.125484 -2.54391 0
M  V30 6368 H 582.883 -1.74522 -2.9563 0
M  V30 6369 N 585.328 1.53329 -0.364422 0
M  V30 6370 C 586.553 2.06132 0.229033 0
M  V30 6371 C 586.978 1.23625 1.41769 0
M  V30 6372 O 586.336 0.255038 1.79497 0
M  V30 6373 C 586.384 3.55544 0.60174 0
M  V30 6374 O 585.488 3.75771 1.69912 0
M  V30 6375 H 584.829 0.663148 0.0336213 0
M  V30 6376 H 587.359 1.97758 -0.524689 0
M  V30 6377 H 587.369 3.98549 0.873073 0
M  V30 6378 H 586.044 4.15039 -0.267421 0
M  V30 6379 H 584.621 3.44663 1.42343 0
M  V30 6380 N 586.806 0.0935595 1.57322 0
M  V30 6381 C 587.716 -0.880192 2.17462 0
M  V30 6382 C 588.732 -1.31135 1.14366 0
M  V30 6383 O 589.908 -1.37958 1.46729 0
M  V30 6384 C 586.973 -2.12184 2.74188 0
M  V30 6385 C 586.034 -1.74503 3.92234 0
M  V30 6386 C 585.267 -2.92748 4.46245 0
M  V30 6387 O 585.49 -4.07427 3.99198 0
M  V30 6388 O 584.424 -2.71303 5.37288 0
M  V30 6389 H 588.25 -0.398516 3.01074 0
M  V30 6390 H 585.835 -0.130707 1.48827 0
M  V30 6391 H 587.717 -2.84953 3.10451 0
M  V30 6392 H 586.392 -2.59407 1.93623 0
M  V30 6393 H 585.299 -0.989186 3.60785 0
M  V30 6394 H 586.632 -1.32044 4.74157 0
M  V30 6395 N 588.284 -1.56567 -0.180126 0
M  V30 6396 C 589.232 -1.96632 -1.24251 0
M  V30 6397 C 590.226 -0.853818 -1.46309 0
M  V30 6398 O 591.432 -1.0389 -1.46993 0
M  V30 6399 H 587.807 -0.625476 -0.417473 0
M  V30 6400 H 589.778 -2.85201 -0.877679 0
M  V30 6401 C 588.527 -2.33486 -2.57642 0
M  V30 6402 H 587.85 -3.18626 -2.4149 0
M  V30 6403 H 589.29 -2.65371 -3.30688 0
M  V30 6404 C 587.749 -1.17499 -3.15746 0
M  V30 6405 O 588.279 -0.457956 -3.99081 0
M  V30 6406 N 586.485 -0.94786 -2.74707 0
M  V30 6407 H 586.032 -1.53269 -2.07042 0
M  V30 6408 H 585.99 -0.173626 -3.1392 0
M  V30 6409 N 589.762 0.448376 -1.51087 0
M  V30 6410 C 590.692 1.55102 -1.74544 0
M  V30 6411 C 591.673 1.59357 -0.594932 0
M  V30 6412 O 592.858 1.75261 -0.836491 0
M  V30 6413 C 589.988 2.93268 -1.86041 0
M  V30 6414 C 588.942 3.03877 -3.01402 0
M  V30 6415 C 588.268 4.43914 -2.98068 0
M  V30 6416 C 589.568 2.7898 -4.41551 0
M  V30 6417 H 591.262 1.35724 -2.66869 0
M  V30 6418 H 588.808 0.651498 -1.28419 0
M  V30 6419 H 590.761 3.70356 -2.01034 0
M  V30 6420 H 589.485 3.13853 -0.903548 0
M  V30 6421 H 588.144 2.29227 -2.86096 0
M  V30 6422 H 587.792 4.6145 -2.00182 0
M  V30 6423 H 587.492 4.51944 -3.75527 0
M  V30 6424 H 589.016 5.22991 -3.1514 0
M  V30 6425 H 590.43 3.45805 -4.57265 0
M  V30 6426 H 588.827 2.98431 -5.20633 0
M  V30 6427 H 589.897 1.74663 -4.5235 0
M  V30 6428 N 591.24 1.41047 0.703093 0
M  V30 6429 C 592.489 1.39301 1.4587 0
M  V30 6430 C 592.802 0.00267077 1.956 0
M  V30 6431 O 594.008 -0.137414 2.71152 0
M  V30 6432 C 592.464 2.44891 2.63735 0
M  V30 6433 C 592.072 3.89796 2.20824 0
M  V30 6434 C 593.816 2.5227 3.41409 0
M  V30 6435 C 591.723 4.86955 3.35602 0
M  V30 6436 H 590.653 0.518005 0.547893 0
M  V30 6437 H 593.304 1.66839 0.764009 0
M  V30 6438 H 591.686 2.10472 3.35436 0
M  V30 6439 H 592.86 4.33424 1.56461 0
M  V30 6440 H 591.175 3.86008 1.56163 0
M  V30 6441 H 593.772 3.22044 4.26839 0
M  V30 6442 H 594.115 1.55714 3.86081 0
M  V30 6443 H 594.648 2.85742 2.7676 0
M  V30 6444 H 591.387 5.84888 2.9595 0
M  V30 6445 H 590.907 4.47982 3.98839 0
M  V30 6446 H 592.586 5.07361 4.01489 0
M  V30 6447 N 592.718 -0.936591 1.26751 0
M  V30 6448 C 593.943 -1.72288 1.15462 0
M  V30 6449 C 594.368 -1.85915 -0.285887 0
M  V30 6450 O 593.726 -1.35272 -1.20711 0
M  V30 6451 C 593.774 -3.10503 1.83359 0
M  V30 6452 O 592.878 -3.96745 1.1255 0
M  V30 6453 H 592.219 -0.52843 0.402067 0
M  V30 6454 H 594.749 -1.17271 1.67656 0
M  V30 6455 H 594.759 -3.60867 1.90365 0
M  V30 6456 H 593.434 -2.99901 2.88153 0
M  V30 6457 H 592.011 -3.55191 1.13551 0
M  V30 6458 N 594.196 -1.08629 -1.14182 0
M  V30 6459 C 595.426 -0.837673 -1.88856 0
M  V30 6460 C 595.834 0.614024 -1.78959 0
M  V30 6461 O 595.177 1.43384 -1.14833 0
M  V30 6462 C 595.239 -1.18355 -3.39459 0
M  V30 6463 C 594.903 -2.63848 -3.73139 0
M  V30 6464 C 595.9 -3.62099 -3.73069 0
M  V30 6465 C 593.585 -2.99761 -4.03049 0
M  V30 6466 C 595.579 -4.94292 -4.02435 0
M  V30 6467 C 593.266 -4.32147 -4.32078 0
M  V30 6468 C 594.264 -5.29223 -4.31755 0
M  V30 6469 O 593.952 -6.59229 -4.60079 0
M  V30 6470 H 593.684 -0.301609 -0.604986 0
M  V30 6471 H 596.238 -1.44961 -1.45518 0
M  V30 6472 H 594.468 -0.514628 -3.8326 0
M  V30 6473 H 596.157 -0.915391 -3.95443 0
M  V30 6474 H 596.923 -3.35698 -3.50046 0
M  V30 6475 H 592.802 -2.2484 -4.02453 0
M  V30 6476 H 596.346 -5.70055 -4.02098 0
M  V30 6477 H 592.243 -4.58296 -4.54571 0
M  V30 6478 H 593.011 -6.64578 -4.77785 0
M  V30 6479 N 595.674 1.31259 -0.872281 0
M  V30 6480 C 596.921 1.96622 -0.484365 0
M  V30 6481 C 597.249 1.68939 0.963841 0
M  V30 6482 O 596.504 0.97974 1.6941 0
M  V30 6483 C 596.803 3.50659 -0.690889 0
M  V30 6484 C 596.469 3.98366 -2.11224 0
M  V30 6485 C 595.131 4.11104 -2.50094 0
M  V30 6486 C 597.483 4.23425 -3.0391 0
M  V30 6487 C 594.811 4.46254 -3.80887 0
M  V30 6488 C 597.163 4.60039 -4.3422 0
M  V30 6489 C 595.827 4.70984 -4.73001 0
M  V30 6490 H 595.097 0.71949 -0.177242 0
M  V30 6491 H 597.744 1.56353 -1.10571 0
M  V30 6492 H 596.049 3.91798 0.0135782 0
M  V30 6493 H 597.746 3.99284 -0.370534 0
M  V30 6494 H 594.336 3.88949 -1.80047 0
M  V30 6495 H 598.52 4.13075 -2.75104 0
M  V30 6496 H 593.776 4.52926 -4.10692 0
M  V30 6497 H 597.95 4.78381 -5.06088 0
M  V30 6498 H 595.577 4.97977 -5.7439 0
M  V30 6499 N 597.152 0.631951 1.44375 0
M  V30 6500 C 598.1 -0.0846693 2.32446 0
M  V30 6501 C 599.094 -0.834957 1.47393 0
M  V30 6502 O 600.3 -0.747764 1.63733 0
M  V30 6503 H 596.675 -0.0461508 0.750583 0
M  V30 6504 H 598.646 0.67619 2.90638 0
M  V30 6505 C 597.395 -1.05211 3.314 0
M  V30 6506 H 596.718 -0.484203 3.96857 0
M  V30 6507 H 598.158 -1.523 3.95703 0
M  V30 6508 C 596.617 -2.13776 2.60387 0
M  V30 6509 O 597.147 -3.21869 2.4034 0
M  V30 6510 N 595.353 -1.89733 2.20113 0
M  V30 6511 H 594.9 -1.01833 2.36618 0
M  V30 6512 H 594.858 -2.62572 1.72926 0
M  V30 6513 N 598.631 -1.53133 0.372548 0
M  V30 6514 C 599.579 -2.27473 -0.485681 0
M  V30 6515 C 600.573 -1.30719 -1.07745 0
M  V30 6516 O 601.779 -1.48321 -1.01985 0
M  V30 6517 H 598.154 -0.731269 -0.175356 0
M  V30 6518 H 600.125 -2.97955 0.162986 0
M  V30 6519 C 598.874 -3.08191 -1.60978 0
M  V30 6520 H 598.197 -3.82488 -1.16373 0
M  V30 6521 H 599.637 -3.63373 -2.18485 0
M  V30 6522 C 598.096 -2.19461 -2.55614 0
M  V30 6523 O 598.626 -1.81008 -3.58607 0
M  V30 6524 N 596.832 -1.83955 -2.24965 0
M  V30 6525 H 596.379 -2.15423 -1.41247 0
M  V30 6526 H 596.337 -1.24874 -2.88538 0
M  V30 6527 N 600.109 -0.101901 -1.5727 0
M  V30 6528 C 601.349 0.563489 -1.96479 0
M  V30 6529 C 601.713 1.64926 -0.983021 0
M  V30 6530 O 602.914 2.37234 -1.26386 0
M  V30 6531 C 601.185 1.09809 -3.40113 0
M  V30 6532 S 602.744 1.7744 -4.01323 0
M  V30 6533 H 599.562 0.183675 -0.686866 0
M  V30 6534 H 602.164 -0.182922 -1.94642 0
M  V30 6535 H 600.868 0.296447 -4.09328 0
M  V30 6536 H 600.399 1.88018 -3.45562 0
M  V30 6537 H 602.414 3.0591 -3.90683 0
M  V30 6538 N 601.587 1.56661 0.17182 0
M  V30 6539 C 602.815 1.861 0.904115 0
M  V30 6540 C 603.23 0.687227 1.75848 0
M  V30 6541 O 602.587 -0.343671 1.79235 0
M  V30 6542 C 602.638 3.14568 1.78127 0
M  V30 6543 O 602.359 4.27422 0.961366 0
M  V30 6544 C 603.86 3.5735 2.62327 0
M  V30 6545 H 601.08 0.617445 0.262684 0
M  V30 6546 H 603.624 2.03775 0.172068 0
M  V30 6547 H 601.779 2.98721 2.46666 0
M  V30 6548 H 602.193 5.00725 1.56123 0
M  V30 6549 H 603.667 4.50144 3.1949 0
M  V30 6550 H 604.144 2.81445 3.37173 0
M  V30 6551 H 604.75 3.75807 1.99121 0
M  V30 6552 N 603.065 -0.440357 1.51323 0
M  V30 6553 C 604.311 -1.19181 1.64085 0
M  V30 6554 C 604.644 -1.90936 0.354575 0
M  V30 6555 O 603.919 -1.8347 -0.645675 0
M  V30 6556 C 604.202 -2.2112 2.84215 0
M  V30 6557 C 604.055 -1.53468 4.22809 0
M  V30 6558 C 605.374 -3.22133 2.99864 0
M  V30 6559 H 602.493 -0.431924 0.597169 0
M  V30 6560 H 605.135 -0.481443 1.83799 0
M  V30 6561 H 603.285 -2.81703 2.67537 0
M  V30 6562 H 604.957 -0.962455 4.51148 0
M  V30 6563 H 603.2 -0.837086 4.25647 0
M  V30 6564 H 603.871 -2.27694 5.02852 0
M  V30 6565 H 606.347 -2.71601 3.15233 0
M  V30 6566 H 605.223 -3.90756 3.85488 0
M  V30 6567 H 605.484 -3.88061 2.11804 0
M  V30 6568 N 604.543 -1.41418 -0.695603 0
M  V30 6569 C 605.491 -1.43467 -1.83084 0
M  V30 6570 C 606.485 -0.312719 -1.66489 0
M  V30 6571 O 607.691 -0.484744 -1.7335 0
M  V30 6572 H 604.066 -0.448891 -0.603325 0
M  V30 6573 H 606.037 -2.39144 -1.78473 0
M  V30 6574 C 604.786 -1.3337 -3.21104 0
M  V30 6575 H 604.109 -2.18989 -3.3449 0
M  V30 6576 H 605.549 -1.38865 -4.00615 0
M  V30 6577 C 604.008 -0.0460484 -3.36869 0
M  V30 6578 O 604.538 0.909258 -3.91274 0
M  V30 6579 N 602.744 0.0300222 -2.90584 0
M  V30 6580 H 602.291 -0.748129 -2.46497 0
M  V30 6581 H 602.249 0.890991 -3.01511 0
M  V30 6582 N 606.021 0.929856 -1.27246 0
M  V30 6583 C 607.432 1.49223 -1.12203 0
M  V30 6584 C 607.783 1.93989 0.293731 0
M  V30 6585 O 606.908 1.80978 1.18642 0
M  V30 6586 C 607.503 2.71198 -2.0307 0
M  V30 6587 C 606.062 3.23666 -1.92139 0
M  V30 6588 C 605.209 1.96409 -1.95752 0
M  V30 6589 H 608.16 0.744181 -1.4017 0
M  V30 6590 H 608.181 3.45905 -1.58524 0
M  V30 6591 H 607.693 2.38585 -3.06102 0
M  V30 6592 H 605.794 3.61042 -0.920834 0
M  V30 6593 H 605.907 3.90006 -2.78267 0
M  V30 6594 H 604.271 2.12806 -1.39949 0
M  V30 6595 H 605.054 1.66113 -3.00436 0
M  V30 6596 N 607.499 1.09233 1.13605 0
M  V30 6597 C 608.446 0.729921 2.18954 0
M  V30 6598 C 609.416 -0.287916 1.63586 0
M  V30 6599 O 610.601 -0.170003 1.90041 0
M  V30 6600 C 607.741 0.154489 3.44754 0
M  V30 6601 C 606.854 1.22613 4.14234 0
M  V30 6602 C 605.989 0.613657 5.27644 0
M  V30 6603 C 605.028 1.66674 5.8897 0
M  V30 6604 N 604.165 1.07545 6.93814 0
M  V30 6605 H 609.005 1.63257 2.49302 0
M  V30 6606 H 606.542 0.815693 1.22413 0
M  V30 6607 H 608.5 -0.196923 4.16735 0
M  V30 6608 H 607.13 -0.711433 3.14863 0
M  V30 6609 H 606.182 1.69485 3.40557 0
M  V30 6610 H 607.494 2.0238 4.55899 0
M  V30 6611 H 606.648 0.210976 6.06333 0
M  V30 6612 H 605.387 -0.215584 4.87223 0
M  V30 6613 H 604.392 2.07899 5.08978 0
M  V30 6614 H 605.617 2.49861 6.31464 0
M  V30 6615 H 603.563 0.267451 6.55455 0
M  V30 6616 H 603.48 1.81011 7.3401 0
M  V30 6617 H 604.748 0.698906 7.7636 0
M  V30 6618 N 608.977 -1.30795 0.87923 0
M  V30 6619 C 609.887 -2.32041 0.345565 0
M  V30 6620 C 610.903 -1.65103 -0.549265 0
M  V30 6621 O 612.079 -1.9645 -0.443763 0
M  V30 6622 C 609.144 -3.43944 -0.436245 0
M  V30 6623 C 608.205 -4.26521 0.48765 0
M  V30 6624 C 607.438 -5.33081 -0.256943 0
M  V30 6625 O 607.661 -5.50762 -1.48381 0
M  V30 6626 O 606.595 -6.00635 0.389985 0
M  V30 6627 H 610.421 -2.79627 1.18501 0
M  V30 6628 H 608.006 -1.3486 0.642885 0
M  V30 6629 H 609.888 -4.12128 -0.879119 0
M  V30 6630 H 608.563 -2.98504 -1.25208 0
M  V30 6631 H 607.47 -3.61057 0.979216 0
M  V30 6632 H 608.803 -4.75551 1.26933 0
M  V30 6633 N 610.455 -0.639598 -1.44038 0
M  V30 6634 C 611.68 -0.153117 -2.06834 0
M  V30 6635 C 612.105 1.16676 -1.47541 0
M  V30 6636 O 611.463 1.71769 -0.580093 0
M  V30 6637 C 611.511 -0.0609169 -3.60549 0
M  V30 6638 O 610.615 0.98071 -4.00569 0
M  V30 6639 H 609.956 -0.0886402 -0.658057 0
M  V30 6640 H 612.486 -0.878674 -1.84771 0
M  V30 6641 H 612.496 0.126892 -4.07803 0
M  V30 6642 H 611.171 -1.0245 -4.03084 0
M  V30 6643 H 609.748 0.766789 -3.64931 0
M  V30 6644 N 611.933 1.52934 -0.380664 0
M  V30 6645 C 613.182 2.00651 0.205477 0
M  V30 6646 C 613.495 1.27164 1.48623 0
M  V30 6647 O 614.701 1.65547 2.15189 0
M  V30 6648 C 613.157 3.57479 0.416726 0
M  V30 6649 C 612.765 4.39857 -0.850268 0
M  V30 6650 C 614.509 4.13509 0.959702 0
M  V30 6651 C 612.416 5.88269 -0.607773 0
M  V30 6652 H 611.346 0.749684 0.0805614 0
M  V30 6653 H 613.997 1.76508 -0.501732 0
M  V30 6654 H 612.379 3.77836 1.18557 0
M  V30 6655 H 613.553 4.31269 -1.62307 0
M  V30 6656 H 611.868 3.95005 -1.31756 0
M  V30 6657 H 614.465 5.22039 1.15669 0
M  V30 6658 H 614.808 3.69054 1.92626 0
M  V30 6659 H 615.341 3.9701 0.250645 0
M  V30 6660 H 612.08 6.3703 -1.54509 0
M  V30 6661 H 611.6 5.99667 0.126247 0
M  V30 6662 H 613.279 6.46558 -0.239014 0
M  V30 6663 N 613.412 0.11024 1.57214 0
M  V30 6664 C 614.342 -0.840002 2.17867 0
M  V30 6665 C 615.323 -1.28352 1.11624 0
M  V30 6666 O 616.508 -1.3477 1.39824 0
M  V30 6667 C 613.638 -2.09349 2.77111 0
M  V30 6668 C 612.592 -1.78807 3.8886 0
M  V30 6669 C 611.918 -3.11112 4.34872 0
M  V30 6670 C 613.218 -1.0632 5.11364 0
M  V30 6671 H 614.912 -0.334608 2.97524 0
M  V30 6672 H 612.458 -0.159502 1.43114 0
M  V30 6673 H 614.411 -2.76275 3.18198 0
M  V30 6674 H 613.135 -2.62198 1.9473 0
M  V30 6675 H 611.794 -1.14273 3.48335 0
M  V30 6676 H 611.442 -3.61877 3.49362 0
M  V30 6677 H 611.142 -2.91453 5.10224 0
M  V30 6678 H 612.666 -3.79171 4.78604 0
M  V30 6679 H 614.08 -1.63383 5.49526 0
M  V30 6680 H 612.477 -0.967876 5.92243 0
M  V30 6681 H 613.547 -0.0484569 4.84876 0
M  V30 6682 N 614.89 -1.56749 -0.16351 0
M  V30 6683 C 615.837 -1.97011 -1.2023 0
M  V30 6684 C 616.807 -0.835186 -1.43575 0
M  V30 6685 O 617.992 -1.09594 -1.56185 0
M  V30 6686 C 615.132 -2.34186 -2.53478 0
M  V30 6687 C 614.245 -3.60893 -2.37446 0
M  V30 6688 C 613.38 -3.87245 -3.63614 0
M  V30 6689 C 612.419 -5.07274 -3.42548 0
M  V30 6690 N 611.556 -5.29719 -4.60806 0
M  V30 6691 H 616.396 -2.85562 -0.851958 0
M  V30 6692 H 613.933 -1.41292 -0.409257 0
M  V30 6693 H 615.891 -2.53764 -3.31149 0
M  V30 6694 H 614.521 -1.48736 -2.86492 0
M  V30 6695 H 613.573 -3.49185 -1.50911 0
M  V30 6696 H 614.885 -4.48722 -2.1783 0
M  V30 6697 H 614.039 -4.07232 -4.49719 0
M  V30 6698 H 612.778 -2.97806 -3.86216 0
M  V30 6699 H 611.783 -4.87177 -2.5483 0
M  V30 6700 H 613.008 -5.98251 -3.2136 0
M  V30 6701 H 610.954 -4.43233 -4.83612 0
M  V30 6702 H 610.871 -6.11786 -4.44132 0
M  V30 6703 H 612.139 -5.54192 -5.48171 0
M  V30 6704 N 616.368 0.432326 -1.51554 0
M  V30 6705 C 617.784 0.769195 -1.39841 0
M  V30 6706 C 617.984 1.95584 -0.484675 0
M  V30 6707 O 617.04 2.52433 0.0582829 0
M  V30 6708 C 618.353 1.04487 -2.81963 0
M  V30 6709 C 619.901 1.149 -2.91148 0
M  V30 6710 C 620.376 1.45758 -4.34187 0
M  V30 6711 N 621.867 1.52671 -4.37317 0
M  V30 6712 C 622.602 1.78129 -5.4503 0
M  V30 6713 N 622.098 2.01345 -6.62897 0
M  V30 6714 N 623.891 1.79953 -5.32516 0
M  V30 6715 H 616.042 -0.349122 -2.09511 0
M  V30 6716 H 618.305 -0.0938113 -0.943347 0
M  V30 6717 H 618.011 0.24557 -3.50842 0
M  V30 6718 H 617.885 1.97119 -3.21596 0
M  V30 6719 H 620.272 1.93891 -2.22464 0
M  V30 6720 H 620.353 0.201568 -2.55005 0
M  V30 6721 H 619.997 0.672917 -5.03423 0
M  V30 6722 H 619.927 2.41715 -4.67848 0
M  V30 6723 H 622.418 1.36612 -3.52343 0
M  V30 6724 H 622.731 2.20155 -7.40778 0
M  V30 6725 H 621.076 1.98657 -6.66003 0
M  V30 6726 H 624.267 1.61337 -4.39418 0
M  V30 6727 H 624.44 1.99455 -6.1654 0
M  V30 6728 N 617.846 1.41785 0.688094 0
M  V30 6729 C 619.092 1.41753 1.4503 0
M  V30 6730 C 619.425 0.0290745 1.94178 0
M  V30 6731 O 618.7 -0.944456 1.7003 0
M  V30 6732 C 618.983 2.43069 2.65686 0
M  V30 6733 C 618.836 3.91053 2.22256 0
M  V30 6734 C 620.155 2.41543 3.67893 0
M  V30 6735 H 617.274 0.516202 0.526027 0
M  V30 6736 H 619.916 1.73111 0.783105 0
M  V30 6737 H 618.066 2.1646 3.2261 0
M  V30 6738 H 619.738 4.28594 1.70602 0
M  V30 6739 H 617.981 4.05559 1.53963 0
M  V30 6740 H 618.652 4.57501 3.08863 0
M  V30 6741 H 621.128 2.65175 3.20658 0
M  V30 6742 H 620.004 3.14434 4.49914 0
M  V30 6743 H 620.265 1.43666 4.18106 0
M  V30 6744 N 619.324 -0.923095 1.27737 0
M  V30 6745 C 620.271 -2.02432 1.1086 0
M  V30 6746 C 621.241 -1.66098 0.00835195 0
M  V30 6747 O 622.426 -1.90027 0.171542 0
M  V30 6748 C 619.566 -3.36476 0.766671 0
M  V30 6749 C 618.679 -3.85737 1.94501 0
M  V30 6750 C 617.814 -5.08249 1.54455 0
M  V30 6751 C 616.853 -5.49818 2.6901 0
M  V30 6752 N 615.99 -6.63524 2.29521 0
M  V30 6753 H 620.83 -2.16201 2.05089 0
M  V30 6754 H 618.367 -1.05909 1.02087 0
M  V30 6755 H 620.325 -4.13569 0.549223 0
M  V30 6756 H 618.955 -3.22502 -0.13867 0
M  V30 6757 H 618.007 -3.04883 2.27487 0
M  V30 6758 H 619.319 -4.12513 2.80419 0
M  V30 6759 H 618.473 -5.92857 1.28862 0
M  V30 6760 H 617.212 -4.83261 0.656534 0
M  V30 6761 H 616.217 -4.63757 2.95313 0
M  V30 6762 H 617.442 -5.76799 3.5844 0
M  V30 6763 H 615.388 -6.40185 1.43177 0
M  V30 6764 H 615.305 -6.89978 3.08977 0
M  V30 6765 H 616.573 -7.51461 2.07187 0
M  V30 6766 N 620.802 -1.09834 -1.13024 0
M  V30 6767 C 622.079 -0.749225 -1.80682 0
M  V30 6768 C 622.459 0.765171 -1.96744 0
M  V30 6769 O 621.807 1.68912 -1.53886 0
M  V30 6770 C 622.017 -1.49311 -3.15448 0
M  V30 6771 C 623.365 -1.66162 -3.90737 0
M  V30 6772 O 624.389 -1.45597 -3.25085 0
M  V30 6773 O 623.248 -2.00211 -5.08505 0
M  V30 6774 H 620.342 -0.269614 -0.781817 0
M  V30 6775 H 622.888 -1.20078 -1.19914 0
M  V30 6776 H 621.66 -2.52407 -2.99009 0
M  V30 6777 H 621.283 -1.034 -3.8392 0
M  V30 6778 N 622.28 1.30327 -0.886154 0
M  V30 6779 C 623.529 1.95373 -0.501243 0
M  V30 6780 C 623.842 1.70722 0.954634 0
M  V30 6781 O 625.048 2.29761 1.44644 0
M  V30 6782 C 623.504 3.49828 -0.845493 0
M  V30 6783 C 623.112 3.83296 -2.31922 0
M  V30 6784 C 624.856 4.2118 -0.529838 0
M  V30 6785 C 622.763 5.30935 -2.60504 0
M  V30 6786 H 621.693 0.731274 -0.183722 0
M  V30 6787 H 624.344 1.48258 -1.08129 0
M  V30 6788 H 622.726 3.95522 -0.19452 0
M  V30 6789 H 623.9 3.48508 -3.01461 0
M  V30 6790 H 622.215 3.2505 -2.60253 0
M  V30 6791 H 624.812 5.29825 -0.720401 0
M  V30 6792 H 625.155 4.12902 0.530828 0
M  V30 6793 H 625.688 3.81173 -1.13806 0
M  V30 6794 H 622.427 5.44265 -3.65316 0
M  V30 6795 H 621.947 5.67019 -1.95575 0
M  V30 6796 H 623.626 5.98381 -2.46066 0
M  V30 6797 N 623.758 0.647228 1.43697 0
M  V30 6798 C 625.006 0.157876 2.01482 0
M  V30 6799 C 625.327 -1.23039 1.51282 0
M  V30 6800 O 624.597 -1.82071 0.722982 0
M  V30 6801 H 623.177 0.0553745 0.744945 0
M  V30 6802 H 625.839 0.83755 1.75986 0
M  V30 6803 H 624.935 0.137895 3.11795 0
M  V30 6804 N 625.236 -1.5273 0.388769 0
M  V30 6805 C 626.466 -2.05693 -0.193397 0
M  V30 6806 C 626.874 -1.26038 -1.41107 0
M  V30 6807 O 626.217 -0.30001 -1.81234 0
M  V30 6808 C 626.279 -3.53962 -0.628561 0
M  V30 6809 C 625.943 -4.54519 0.475576 0
M  V30 6810 C 626.94 -5.02526 1.33281 0
M  V30 6811 C 624.625 -4.98174 0.642453 0
M  V30 6812 C 626.619 -5.92812 2.34205 0
M  V30 6813 C 624.306 -5.88262 1.65503 0
M  V30 6814 C 625.304 -6.35473 2.50325 0
M  V30 6815 O 624.992 -7.23781 3.49852 0
M  V30 6816 H 624.724 -0.675197 -0.0329395 0
M  V30 6817 H 627.278 -1.97835 0.552326 0
M  V30 6818 H 625.508 -3.59437 -1.42625 0
M  V30 6819 H 627.197 -3.89669 -1.13633 0
M  V30 6820 H 627.963 -4.6953 1.21519 0
M  V30 6821 H 623.842 -4.60999 -0.00805093 0
M  V30 6822 H 627.386 -6.29585 3.00447 0
M  V30 6823 H 623.283 -6.20672 1.77304 0
M  V30 6824 H 624.051 -7.4184 3.45855 0
M  V30 6825 N 626.714 -0.118576 -1.57153 0
M  V30 6826 C 627.963 0.539339 -1.94355 0
M  V30 6827 C 628.276 1.67858 -1.00415 0
M  V30 6828 O 629.482 2.39922 -1.27081 0
M  V30 6829 C 627.938 1.01082 -3.45414 0
M  V30 6830 C 627.546 -0.0999402 -4.47889 0
M  V30 6831 C 629.29 1.64013 -3.91535 0
M  V30 6832 C 627.197 0.388212 -5.90124 0
M  V30 6833 H 626.127 0.205247 -0.725527 0
M  V30 6834 H 628.778 -0.19836 -1.82425 0
M  V30 6835 H 627.16 1.80292 -3.52577 0
M  V30 6836 H 628.334 -0.876189 -4.52393 0
M  V30 6837 H 626.649 -0.635885 -4.11516 0
M  V30 6838 H 629.246 2.01649 -4.95219 0
M  V30 6839 H 629.589 2.51836 -3.31488 0
M  V30 6840 H 630.122 0.913439 -3.87171 0
M  V30 6841 H 626.861 -0.453963 -6.53926 0
M  V30 6842 H 626.381 1.13095 -5.89041 0
M  V30 6843 H 628.06 0.849574 -6.41398 0
M  V30 6844 N 628.193 1.56834 0.155195 0
M  V30 6845 C 629.44 1.82898 0.869179 0
M  V30 6846 C 629.768 0.698194 1.81537 0
M  V30 6847 O 629.023 -0.313404 1.93174 0
M  V30 6848 C 629.322 3.15239 1.68402 0
M  V30 6849 C 628.988 4.42123 0.885341 0
M  V30 6850 C 627.65 4.76583 0.664971 0
M  V30 6851 C 630.002 5.20178 0.326234 0
M  V30 6852 C 627.33 5.86566 -0.125346 0
M  V30 6853 C 629.682 6.3099 -0.45108 0
M  V30 6854 C 628.346 6.64006 -0.682102 0
M  V30 6855 H 627.616 0.66927 0.318055 0
M  V30 6856 H 630.263 1.91036 0.133241 0
M  V30 6857 H 628.568 3.02515 2.48982 0
M  V30 6858 H 630.265 3.32618 2.23978 0
M  V30 6859 H 626.855 4.15102 1.06716 0
M  V30 6860 H 631.039 4.93936 0.483787 0
M  V30 6861 H 626.295 6.10594 -0.313915 0
M  V30 6862 H 630.469 6.9067 -0.89149 0
M  V30 6863 H 628.096 7.49065 -1.29636 0
M  V30 6864 N 629.671 -0.424282 1.51781 0
M  V30 6865 C 630.618 -1.51591 1.74037 0
M  V30 6866 C 631.588 -1.55556 0.582358 0
M  V30 6867 O 632.773 -1.72364 0.818245 0
M  V30 6868 C 629.913 -2.89188 1.8832 0
M  V30 6869 C 629.026 -2.9465 3.1592 0
M  V30 6870 C 628.161 -4.23452 3.20721 0
M  V30 6871 C 627.2 -4.22831 4.42584 0
M  V30 6872 N 626.337 -5.43178 4.44862 0
M  V30 6873 H 631.177 -1.31917 2.67212 0
M  V30 6874 H 628.714 -0.640599 1.32419 0
M  V30 6875 H 630.672 -3.69044 1.94583 0
M  V30 6876 H 629.302 -3.07392 0.985402 0
M  V30 6877 H 628.354 -2.07378 3.18902 0
M  V30 6878 H 629.666 -2.90055 4.05795 0
M  V30 6879 H 628.82 -5.1169 3.25973 0
M  V30 6880 H 627.559 -4.30722 2.28757 0
M  V30 6881 H 626.564 -3.32984 4.37495 0
M  V30 6882 H 627.789 -4.17213 5.35826 0
M  V30 6883 H 625.735 -5.51145 3.55775 0
M  V30 6884 H 625.652 -5.40515 5.28563 0
M  V30 6885 H 626.92 -6.33412 4.54324 0
M  V30 6886 N 631.149 -1.42148 -0.680565 0
M  V30 6887 C 632.059 -1.47565 -1.82378 0
M  V30 6888 C 633.075 -0.36489 -1.70131 0
M  V30 6889 O 634.251 -0.614916 -1.91783 0
M  V30 6890 C 631.316 -1.37013 -3.18478 0
M  V30 6891 C 630.377 -2.58532 -3.42724 0
M  V30 6892 C 629.61 -2.48473 -4.72331 0
M  V30 6893 O 629.833 -1.51745 -5.49845 0
M  V30 6894 O 628.767 -3.38503 -4.97694 0
M  V30 6895 H 632.593 -2.44045 -1.80764 0
M  V30 6896 H 630.178 -1.23849 -0.835569 0
M  V30 6897 H 632.06 -1.33468 -3.99705 0
M  V30 6898 H 630.735 -0.436552 -3.20743 0
M  V30 6899 H 629.642 -2.67652 -2.61368 0
M  V30 6900 H 630.975 -3.50769 -3.45286 0
M  V30 6901 N 632.627 0.916307 -1.28225 0
M  V30 6902 C 633.574 2.01841 -1.11932 0
M  V30 6903 C 634.544 1.66091 -0.0171604 0
M  V30 6904 O 635.729 1.89934 -0.181617 0
M  V30 6905 C 632.869 3.36065 -0.784504 0
M  V30 6906 C 631.982 3.847 -1.96544 0
M  V30 6907 C 631.117 5.07423 -1.57149 0
M  V30 6908 C 630.156 5.48384 -2.71922 0
M  V30 6909 N 629.293 6.62298 -2.33037 0
M  V30 6910 H 634.133 2.1511 -2.06232 0
M  V30 6911 H 631.67 1.05366 -1.02647 0
M  V30 6912 H 633.628 4.13272 -0.571148 0
M  V30 6913 H 632.258 3.22571 0.121565 0
M  V30 6914 H 631.31 3.03673 -2.291 0
M  V30 6915 H 632.622 4.1102 -2.82603 0
M  V30 6916 H 631.776 5.92165 -1.32004 0
M  V30 6917 H 630.515 4.82906 -0.682153 0
M  V30 6918 H 629.52 4.62184 -2.97768 0
M  V30 6919 H 630.745 5.7489 -3.61494 0
M  V30 6920 H 628.691 6.39416 -1.4657 0
M  V30 6921 H 628.608 6.8833 -3.12631 0
M  V30 6922 H 629.876 7.50352 -2.11169 0
M  V30 6923 N 634.105 1.10431 1.1244 0
M  V30 6924 C 635.352 0.846717 1.83948 0
M  V30 6925 C 635.68 -0.627709 1.84093 0
M  V30 6926 O 634.935 -1.47876 1.28184 0
M  V30 6927 C 635.234 1.34022 3.3132 0
M  V30 6928 C 634.9 2.82606 3.51347 0
M  V30 6929 C 633.562 3.23182 3.56521 0
M  V30 6930 C 635.914 3.78356 3.58464 0
M  V30 6931 C 633.242 4.58258 3.66356 0
M  V30 6932 C 635.594 5.13234 3.69829 0
M  V30 6933 C 634.258 5.53384 3.73259 0
M  V30 6934 H 633.528 0.309836 0.673114 0
M  V30 6935 H 636.175 1.38091 1.32677 0
M  V30 6936 H 634.48 0.726047 3.85014 0
M  V30 6937 H 636.177 1.11739 3.85118 0
M  V30 6938 H 632.767 2.50212 3.47983 0
M  V30 6939 H 636.951 3.48115 3.53737 0
M  V30 6940 H 632.207 4.88787 3.67284 0
M  V30 6941 H 636.381 5.87272 3.74279 0
M  V30 6942 H 634.008 6.58045 3.80633 0
M  V30 6943 N 635.583 -1.29855 0.893053 0
M  V30 6944 C 636.546 -2.26183 0.370687 0
M  V30 6945 C 637.546 -1.53108 -0.491385 0
M  V30 6946 O 638.736 -1.71643 -0.297386 0
M  V30 6947 C 635.868 -3.37633 -0.470827 0
M  V30 6948 H 637.061 -2.73903 1.22135 0
M  V30 6949 H 634.614 -1.41183 0.67061 0
M  V30 6950 H 635.349 -2.95241 -1.34175 0
M  V30 6951 H 635.134 -3.91825 0.146784 0
M  V30 6952 H 636.624 -4.09313 -0.827825 0
M  V30 6953 N 637.061 -0.65484 -1.43351 0
M  V30 6954 C 638.008 0.0357713 -2.30772 0
M  V30 6955 C 638.978 0.813035 -1.44841 0
M  V30 6956 O 640.163 0.789314 -1.73708 0
M  V30 6957 C 637.303 0.995084 -3.30442 0
M  V30 6958 C 636.416 0.21375 -4.31471 0
M  V30 6959 C 635.551 1.16701 -5.18222 0
M  V30 6960 C 634.59 0.376201 -6.10943 0
M  V30 6961 N 633.727 1.28113 -6.90313 0
M  V30 6962 H 638.567 -0.71559 -2.89281 0
M  V30 6963 H 636.104 -0.364645 -1.42509 0
M  V30 6964 H 638.062 1.5649 -3.86739 0
M  V30 6965 H 636.692 1.7133 -2.7358 0
M  V30 6966 H 635.744 -0.472377 -3.77456 0
M  V30 6967 H 637.056 -0.401103 -4.97185 0
M  V30 6968 H 636.21 1.8074 -5.79153 0
M  V30 6969 H 634.949 1.81577 -4.52638 0
M  V30 6970 H 633.954 -0.277534 -5.49099 0
M  V30 6971 H 635.179 -0.268178 -6.7857 0
M  V30 6972 H 633.125 1.91666 -6.27376 0
M  V30 6973 H 633.042 0.720879 -7.52555 0
M  V30 6974 H 634.31 1.90962 -7.55747 0
M  V30 6975 N 638.539 1.52521 -0.396863 0
M  V30 6976 C 639.502 2.2527 0.422604 0
M  V30 6977 C 640.502 1.27184 0.983913 0
M  V30 6978 O 641.692 1.51222 0.864723 0
M  V30 6979 C 638.824 3.01356 1.59365 0
M  V30 6980 H 640.017 2.99133 -0.214416 0
M  V30 6981 H 637.57 1.55587 -0.149128 0
M  V30 6982 H 638.305 2.31813 2.26789 0
M  V30 6983 H 638.09 3.73357 1.19779 0
M  V30 6984 H 639.58 3.56571 2.17363 0
M  V30 6985 N 640.017 0.126909 1.57088 0
M  V30 6986 C 641.263 -0.529952 1.95753 0
M  V30 6987 C 641.596 -1.65823 1.01077 0
M  V30 6988 O 640.871 -1.94437 0.0494162 0
M  V30 6989 C 641.154 -1.05517 3.44294 0
M  V30 6990 C 641.007 0.0702253 4.49745 0
M  V30 6991 C 642.326 -1.9435 3.94862 0
M  V30 6992 H 639.445 -0.191168 0.711775 0
M  V30 6993 H 642.087 0.204071 1.88901 0
M  V30 6994 H 640.237 -1.68069 3.50264 0
M  V30 6995 H 641.909 0.705834 4.55868 0
M  V30 6996 H 640.152 0.732259 4.27575 0
M  V30 6997 H 640.823 -0.338642 5.5096 0
M  V30 6998 H 643.299 -1.41658 3.91244 0
M  V30 6999 H 642.175 -2.28015 4.993 0
M  V30 7000 H 642.436 -2.87299 3.36024 0
M  V30 7001 N 641.495 -1.56914 -0.146875 0
M  V30 7002 C 642.743 -1.82994 -0.85777 0
M  V30 7003 C 643.064 -0.707814 -1.817 0
M  V30 7004 O 642.334 0.270521 -1.94023 0
M  V30 7005 H 640.914 -0.675106 -0.319751 0
M  V30 7006 H 643.576 -1.9439 -0.140849 0
M  V30 7007 H 642.672 -2.77928 -1.41994 0
M  V30 7008 N 642.974 0.416227 -1.52004 0
M  V30 7009 C 643.906 1.52552 -1.71058 0
M  V30 7010 C 644.919 1.51693 -0.59102 0
M  V30 7011 O 646.108 1.56087 -0.865973 0
M  V30 7012 C 643.208 2.91455 -1.72937 0
M  V30 7013 C 642.381 3.16584 -3.01816 0
M  V30 7014 C 641.44 4.35322 -2.95603 0
M  V30 7015 O 640.466 4.32947 -3.6952 0
M  V30 7016 N 641.668 5.40049 -2.12903 0
M  V30 7017 H 644.433 1.36604 -2.66757 0
M  V30 7018 H 641.994 0.60544 -1.50153 0
M  V30 7019 H 643.986 3.68944 -1.66321 0
M  V30 7020 H 642.556 3.00895 -0.847418 0
M  V30 7021 H 641.776 2.27203 -3.22137 0
M  V30 7022 H 643.064 3.30213 -3.87088 0
M  V30 7023 H 642.462 5.44823 -1.52265 0
M  V30 7024 H 641.019 6.16308 -2.1215 0
M  V30 7025 N 644.452 1.42507 0.673017 0
M  V30 7026 C 645.7 1.42789 1.43023 0
M  V30 7027 C 646.021 0.0459738 1.94946 0
M  V30 7028 O 645.291 -0.915765 1.73178 0
M  V30 7029 H 643.871 0.525657 0.530748 0
M  V30 7030 H 646.533 1.77944 0.795113 0
M  V30 7031 H 645.629 2.12872 2.28237 0
M  V30 7032 N 645.93 -0.909495 1.28709 0
M  V30 7033 C 647.17 -1.67344 1.17368 0
M  V30 7034 C 647.534 -1.90058 -0.272419 0
M  V30 7035 O 648.735 -2.63944 -0.508617 0
M  V30 7036 C 647.006 -2.99219 1.95455 0
M  V30 7037 S 648.565 -3.90295 2.00538 0
M  V30 7038 H 645.383 -0.57466 0.418672 0
M  V30 7039 H 647.985 -1.08144 1.62865 0
M  V30 7040 H 646.689 -2.80393 2.9968 0
M  V30 7041 H 646.22 -3.63464 1.50524 0
M  V30 7042 H 648.235 -4.83511 1.11496 0
M  V30 7043 N 647.408 -1.11026 -1.11852 0
M  V30 7044 C 648.654 -0.857729 -1.83768 0
M  V30 7045 C 648.987 0.615143 -1.842 0
M  V30 7046 O 648.262 1.45391 -1.29196 0
M  V30 7047 C 648.545 -1.41453 -3.31154 0
M  V30 7048 C 648.398 -2.95471 -3.39142 0
M  V30 7049 C 649.717 -1.0619 -4.27097 0
M  V30 7050 H 646.836 -0.313044 -0.667212 0
M  V30 7051 H 649.478 -1.37443 -1.31185 0
M  V30 7052 H 647.628 -0.975052 -3.76065 0
M  V30 7053 H 649.3 -3.4799 -3.02821 0
M  V30 7054 H 647.543 -3.31759 -2.79497 0
M  V30 7055 H 648.214 -3.29515 -4.42859 0
M  V30 7056 H 650.69 -1.44122 -3.90344 0
M  V30 7057 H 649.566 -1.47832 -5.28618 0
M  V30 7058 H 649.827 0.0278912 -4.42091 0
M  V30 7059 N 648.886 1.2938 -0.899927 0
M  V30 7060 C 649.796 2.31462 -0.382437 0
M  V30 7061 C 650.812 1.65956 0.522929 0
M  V30 7062 O 651.988 1.97131 0.412454 0
M  V30 7063 C 649.053 3.44595 0.381472 0
M  V30 7064 C 648.114 4.25692 -0.555444 0
M  V30 7065 C 647.347 5.33422 0.172102 0
M  V30 7066 O 647.57 5.53053 1.396 0
M  V30 7067 O 646.504 5.99939 -0.485491 0
M  V30 7068 H 650.33 2.77706 -1.22934 0
M  V30 7069 H 647.915 1.33821 -0.664259 0
M  V30 7070 H 649.797 4.13474 0.813442 0
M  V30 7071 H 648.472 3.00458 1.20443 0
M  V30 7072 H 647.379 3.59453 -1.03653 0
M  V30 7073 H 648.712 4.73471 -1.34483 0
M  V30 7074 N 650.364 0.662433 1.43002 0
M  V30 7075 C 651.613 0.176873 2.00923 0
M  V30 7076 C 651.926 -1.21954 1.52927 0
M  V30 7077 O 653.132 -1.80081 2.03182 0
M  V30 7078 C 651.588 0.265379 3.5892 0
M  V30 7079 C 651.196 1.66507 4.15908 0
M  V30 7080 C 652.94 -0.162103 4.2419 0
M  V30 7081 C 650.847 1.707 5.66229 0
M  V30 7082 H 649.777 0.0623627 0.751417 0
M  V30 7083 H 652.428 0.825813 1.63868 0
M  V30 7084 H 650.81 -0.451235 3.93421 0
M  V30 7085 H 651.984 2.40777 3.92891 0
M  V30 7086 H 650.299 2.03932 3.63044 0
M  V30 7087 H 652.896 -0.150745 5.34487 0
M  V30 7088 H 653.239 -1.19519 3.98774 0
M  V30 7089 H 653.772 0.503075 3.94606 0
M  V30 7090 H 650.511 2.7195 5.96426 0
M  V30 7091 H 650.031 1.00768 5.91275 0
M  V30 7092 H 651.71 1.45487 6.3043 0
M  V30 7093 N 651.842 -1.52309 0.404946 0
M  V30 7094 C 653.09 -2.01368 -0.17186 0
M  V30 7095 C 653.411 -1.29261 -1.46002 0
M  V30 7096 O 652.681 -0.41729 -1.91404 0
M  V30 7097 H 651.261 -0.744034 -0.0664993 0
M  V30 7098 H 653.923 -1.87263 0.540228 0
M  V30 7099 H 653.019 -3.09888 -0.370957 0
M  V30 7100 N 653.32 -0.135238 -1.57019 0
M  V30 7101 C 654.545 0.529343 -2.00531 0
M  V30 7102 C 654.97 1.58391 -1.01459 0
M  V30 7103 O 654.328 1.81296 0.0113986 0
M  V30 7104 C 654.376 1.11748 -3.42848 0
M  V30 7105 O 653.48 2.23267 -3.46736 0
M  V30 7106 H 652.821 0.130669 -0.651016 0
M  V30 7107 H 655.351 -0.228503 -2.0332 0
M  V30 7108 H 655.361 1.44905 -3.81401 0
M  V30 7109 H 654.036 0.345147 -4.14465 0
M  V30 7110 H 652.613 1.91428 -3.20015 0
M  V30 7111 N 654.798 1.5699 0.138552 0
M  V30 7112 C 655.73 1.95515 1.1961 0
M  V30 7113 C 656.743 0.852002 1.38726 0
M  V30 7114 O 657.932 1.13038 1.38147 0
M  V30 7115 C 655.032 2.2213 2.55952 0
M  V30 7116 C 654.205 3.53424 2.57702 0
M  V30 7117 C 653.264 3.6848 3.75645 0
M  V30 7118 O 652.29 4.4079 3.60129 0
M  V30 7119 N 653.492 3.05777 4.93438 0
M  V30 7120 H 656.257 2.86838 0.868557 0
M  V30 7121 H 653.818 1.58542 0.328033 0
M  V30 7122 H 655.81 2.29435 3.33379 0
M  V30 7123 H 654.38 1.3703 2.80965 0
M  V30 7124 H 653.6 3.57484 1.6613 0
M  V30 7125 H 654.888 4.39759 2.55909 0
M  V30 7126 H 654.286 2.46961 5.08947 0
M  V30 7127 H 652.843 3.18631 5.6861 0
M  V30 7128 N 656.276 -0.40816 1.52223 0
M  V30 7129 C 657.692 -0.74685 1.41047 0
M  V30 7130 C 657.892 -1.94788 0.51573 0
M  V30 7131 O 656.948 -2.52494 -0.0181156 0
M  V30 7132 C 658.261 -0.999878 2.83589 0
M  V30 7133 C 659.809 -1.10253 2.92939 0
M  V30 7134 C 660.284 -1.38832 4.36451 0
M  V30 7135 N 661.775 -1.45694 4.3969 0
M  V30 7136 C 662.51 -1.69435 5.47795 0
M  V30 7137 N 662.006 -1.90774 6.66016 0
M  V30 7138 N 663.799 -1.71458 5.35312 0
M  V30 7139 H 655.95 0.382409 2.08929 0
M  V30 7140 H 658.213 0.108807 0.941735 0
M  V30 7141 H 657.919 -0.189723 3.51188 0
M  V30 7142 H 657.793 -1.91978 3.24691 0
M  V30 7143 H 660.18 -1.90328 2.2552 0
M  V30 7144 H 660.261 -0.160973 2.55293 0
M  V30 7145 H 659.905 -0.592741 5.04429 0
M  V30 7146 H 659.835 -2.34241 4.71634 0
M  V30 7147 H 662.326 -1.3099 3.54472 0
M  V30 7148 H 662.639 -2.08342 7.44186 0
M  V30 7149 H 660.984 -1.88037 6.69079 0
M  V30 7150 H 664.175 -1.54326 4.41929 0
M  V30 7151 H 664.348 -1.89621 6.19635 0
M  V30 7152 N 657.755 -1.42862 -0.66545 0
M  V30 7153 C 658.985 -1.47032 -1.45138 0
M  V30 7154 C 659.393 -0.0829977 -1.89018 0
M  V30 7155 O 658.736 0.914551 -1.59316 0
M  V30 7156 C 658.798 -2.34302 -2.72659 0
M  V30 7157 C 658.462 -3.82034 -2.50796 0
M  V30 7158 C 659.459 -4.73453 -2.14799 0
M  V30 7159 C 657.144 -4.26397 -2.655 0
M  V30 7160 C 659.138 -6.07228 -1.93785 0
M  V30 7161 C 656.825 -5.6023 -2.44103 0
M  V30 7162 C 657.823 -6.50462 -2.08299 0
M  V30 7163 O 657.511 -7.8182 -1.87116 0
M  V30 7164 H 657.243 -0.501969 -0.452772 0
M  V30 7165 H 659.797 -1.88137 -0.82423 0
M  V30 7166 H 658.027 -1.88063 -3.37889 0
M  V30 7167 H 659.716 -2.29818 -3.34572 0
M  V30 7168 H 660.482 -4.4046 -2.03026 0
M  V30 7169 H 656.361 -3.56448 -2.92345 0
M  V30 7170 H 659.905 -6.7762 -1.65763 0
M  V30 7171 H 655.802 -5.92793 -2.55475 0
M  V30 7172 H 656.57 -7.93274 -2.01639 0
M  V30 7173 N 659.233 0.902656 -1.29189 0
M  V30 7174 C 660.18 2.00643 -1.14066 0
M  V30 7175 C 661.15 1.66064 -0.0347756 0
M  V30 7176 O 662.335 1.8973 -0.201752 0
M  V30 7177 C 659.475 3.35214 -0.820104 0
M  V30 7178 C 658.588 3.82594 -2.00614 0
M  V30 7179 C 657.723 5.05727 -1.62522 0
M  V30 7180 C 656.762 5.45469 -2.77724 0
M  V30 7181 N 655.899 6.59789 -2.40048 0
M  V30 7182 H 660.739 2.1291 -2.08502 0
M  V30 7183 H 658.276 1.04271 -1.03759 0
M  V30 7184 H 660.234 4.12643 -0.614949 0
M  V30 7185 H 658.864 3.22682 0.0873452 0
M  V30 7186 H 657.916 3.01226 -2.32308 0
M  V30 7187 H 659.228 4.07999 -2.86946 0
M  V30 7188 H 658.382 5.90732 -1.38277 0
M  V30 7189 H 657.121 4.82155 -0.733333 0
M  V30 7190 H 656.126 4.59 -3.02653 0
M  V30 7191 H 657.351 5.71024 -3.67572 0
M  V30 7192 H 655.297 6.37826 -1.53343 0
M  V30 7193 H 655.214 6.84975 -3.19914 0
M  V30 7194 H 656.482 7.4807 -2.19116 0
M  V30 7195 N 660.711 1.11618 1.11262 0
M  V30 7196 C 661.641 0.79846 2.19424 0
M  V30 7197 C 662.622 -0.234003 1.68483 0
M  V30 7198 O 663.807 -0.0970704 1.93957 0
M  V30 7199 C 660.937 0.242892 3.4645 0
M  V30 7200 C 659.891 1.20744 4.10615 0
M  V30 7201 C 659.217 0.512494 5.32238 0
M  V30 7202 C 660.517 2.55884 4.55325 0
M  V30 7203 H 662.211 1.70286 2.46258 0
M  V30 7204 H 659.757 0.820195 1.18359 0
M  V30 7205 H 661.71 0.00840447 4.21399 0
M  V30 7206 H 660.434 -0.696811 3.1908 0
M  V30 7207 H 659.093 1.42759 3.37662 0
M  V30 7208 H 658.741 -0.432075 5.01141 0
M  V30 7209 H 658.441 1.15583 5.7612 0
M  V30 7210 H 659.965 0.286842 6.09926 0
M  V30 7211 H 661.379 2.37946 5.21588 0
M  V30 7212 H 659.776 3.16216 5.10027 0
M  V30 7213 H 660.846 3.14968 3.68678 0
M  V30 7214 N 662.189 -1.289 0.906776 0
M  V30 7215 C 663.437 -1.94883 0.535266 0
M  V30 7216 C 663.758 -1.71784 -0.922791 0
M  V30 7217 O 663.028 -1.05359 -1.65156 0
M  V30 7218 H 661.608 -0.721109 0.194962 0
M  V30 7219 H 664.27 -1.57018 1.15461 0
M  V30 7220 H 663.366 -3.03591 0.723821 0
M  V30 7221 N 663.667 -0.670007 -1.42649 0
M  V30 7222 C 664.913 -0.190568 -2.01903 0
M  V30 7223 C 665.246 1.19817 -1.52832 0
M  V30 7224 O 664.521 1.80342 -0.728485 0
M  V30 7225 C 664.804 -0.21991 -3.59428 0
M  V30 7226 C 664.657 -1.64376 -4.18689 0
M  V30 7227 C 665.976 0.434519 -4.3795 0
M  V30 7228 H 663.095 -0.0707219 -0.733599 0
M  V30 7229 H 665.737 -0.853883 -1.69732 0
M  V30 7230 H 663.887 0.344894 -3.86966 0
M  V30 7231 H 665.559 -2.26044 -4.02122 0
M  V30 7232 H 663.802 -2.18591 -3.747 0
M  V30 7233 H 664.473 -1.61601 -5.27815 0
M  V30 7234 H 666.949 -0.0462156 -4.16074 0
M  V30 7235 H 665.825 0.38333 -5.4756 0
M  V30 7236 H 666.086 1.51135 -4.15464 0
M  V30 7237 N 665.145 1.52092 -0.413018 0
M  V30 7238 C 666.561 1.59471 -0.0640836 0
M  V30 7239 C 666.761 1.42562 1.42402 0
M  V30 7240 O 665.817 1.25453 2.19129 0
M  V30 7241 C 667.13 2.95392 -0.562474 0
M  V30 7242 C 668.678 3.08637 -0.520788 0
M  V30 7243 C 669.153 4.47044 -0.995752 0
M  V30 7244 N 670.644 4.53296 -0.952732 0
M  V30 7245 C 671.379 5.58669 -1.29138 0
M  V30 7246 N 670.875 6.71576 -1.70168 0
M  V30 7247 N 672.668 5.48898 -1.2111 0
M  V30 7248 H 664.819 1.6133 -1.38153 0
M  V30 7249 H 667.082 0.75916 -0.567785 0
M  V30 7250 H 666.788 3.13059 -1.60271 0
M  V30 7251 H 666.662 3.77191 0.0257875 0
M  V30 7252 H 669.049 2.90652 0.510412 0
M  V30 7253 H 669.13 2.28735 -1.14515 0
M  V30 7254 H 668.774 4.65773 -2.0253 0
M  V30 7255 H 668.704 5.25448 -0.348162 0
M  V30 7256 H 671.195 3.72248 -0.651119 0
M  V30 7257 H 671.508 7.47973 -1.9431 0
M  V30 7258 H 669.853 6.72847 -1.74075 0
M  V30 7259 H 673.044 4.59573 -0.889396 0
M  V30 7260 H 673.217 6.30912 -1.47833 0
M  V30 7261 N 666.623 0.143563 1.56945 0
M  V30 7262 C 667.553 -0.7936 2.196 0
M  V30 7263 C 668.534 -1.25955 1.14321 0
M  V30 7264 O 669.719 -1.31773 1.42651 0
M  V30 7265 C 666.849 -2.03424 2.81489 0
M  V30 7266 C 665.803 -1.70519 3.92565 0
M  V30 7267 C 665.129 -3.01817 4.41373 0
M  V30 7268 C 666.429 -0.95449 5.13504 0
M  V30 7269 H 668.123 -0.271423 2.98167 0
M  V30 7270 H 665.669 -0.12911 1.4342 0
M  V30 7271 H 667.622 -2.69463 3.23987 0
M  V30 7272 H 666.346 -2.58008 2.00248 0
M  V30 7273 H 665.005 -1.06859 3.5068 0
M  V30 7274 H 664.653 -3.54386 3.56959 0
M  V30 7275 H 664.353 -2.80565 5.16292 0
M  V30 7276 H 665.877 -3.68934 4.86539 0
M  V30 7277 H 667.291 -1.5169 5.52868 0
M  V30 7278 H 665.688 -0.842035 5.94163 0
M  V30 7279 H 666.758 0.0544033 4.84869 0
M  V30 7280 N 668.101 -1.57061 -0.130224 0
M  V30 7281 C 669.331 -1.88159 -0.853217 0
M  V30 7282 C 669.739 -0.731675 -1.7448 0
M  V30 7283 O 669.082 0.307035 -1.81116 0
M  V30 7284 C 669.144 -3.1415 -1.74785 0
M  V30 7285 C 668.808 -4.45202 -1.03173 0
M  V30 7286 C 669.805 -5.18526 -0.377759 0
M  V30 7287 C 667.49 -4.91912 -1.01624 0
M  V30 7288 C 669.484 -6.36775 0.282123 0
M  V30 7289 C 667.171 -6.10082 -0.352555 0
M  V30 7290 C 668.169 -6.82361 0.295483 0
M  V30 7291 O 667.857 -7.98284 0.948606 0
M  V30 7292 H 667.589 -0.627596 -0.251197 0
M  V30 7293 H 670.143 -2.05034 -0.1226 0
M  V30 7294 H 668.373 -2.93328 -2.51983 0
M  V30 7295 H 670.062 -3.31359 -2.34427 0
M  V30 7296 H 670.828 -4.83498 -0.381417 0
M  V30 7297 H 666.707 -4.35566 -1.51007 0
M  V30 7298 H 670.251 -6.93129 0.788525 0
M  V30 7299 H 666.148 -6.44569 -0.346621 0
M  V30 7300 H 666.916 -8.14054 0.851954 0
M  V30 7301 N 669.579 0.400081 -1.52437 0
M  V30 7302 C 670.809 1.16598 -1.70553 0
M  V30 7303 C 671.217 1.8451 -0.418665 0
M  V30 7304 O 670.56 1.73069 0.615855 0
M  V30 7305 C 670.622 2.26517 -2.7916 0
M  V30 7306 C 670.286 1.78666 -4.20628 0
M  V30 7307 C 671.283 1.26946 -5.04163 0
M  V30 7308 C 668.968 1.85225 -4.66902 0
M  V30 7309 C 670.962 0.824187 -6.32049 0
M  V30 7310 C 668.649 1.40309 -5.94774 0
M  V30 7311 C 669.647 0.889922 -6.77178 0
M  V30 7312 O 669.335 0.447281 -8.02655 0
M  V30 7313 H 669.067 0.356023 -0.574651 0
M  V30 7314 H 671.621 0.475598 -1.99818 0
M  V30 7315 H 669.851 2.98946 -2.45292 0
M  V30 7316 H 671.54 2.88237 -2.85787 0
M  V30 7317 H 672.306 1.21244 -4.69601 0
M  V30 7318 H 668.185 2.24111 -4.02859 0
M  V30 7319 H 671.729 0.422958 -6.96317 0
M  V30 7320 H 667.626 1.45693 -6.28843 0
M  V30 7321 H 668.394 0.569768 -8.16514 0
M  V30 7322 N 671.057 1.43213 0.657864 0
M  V30 7323 C 672.473 1.26511 0.972992 0
M  V30 7324 C 672.673 0.181477 2.00681 0
M  V30 7325 O 671.729 -0.441649 2.48608 0
M  V30 7326 C 673.042 2.62784 1.46168 0
M  V30 7327 C 674.59 2.70278 1.57857 0
M  V30 7328 C 675.065 4.06958 2.10117 0
M  V30 7329 N 676.556 4.08999 2.17426 0
M  V30 7330 C 677.291 5.11585 2.58975 0
M  V30 7331 N 676.787 6.24548 2.99853 0
M  V30 7332 N 678.58 4.9894 2.58873 0
M  V30 7333 H 670.731 2.12384 -0.0263129 0
M  V30 7334 H 672.994 0.946638 0.0507992 0
M  V30 7335 H 672.7 3.43022 0.776474 0
M  V30 7336 H 672.574 2.87863 2.43751 0
M  V30 7337 H 674.961 1.90376 2.25479 0
M  V30 7338 H 675.042 2.4897 0.587179 0
M  V30 7339 H 674.686 4.87325 1.43098 0
M  V30 7340 H 674.616 4.25628 3.10078 0
M  V30 7341 H 677.107 3.27457 1.88627 0
M  V30 7342 H 677.42 6.98661 3.30292 0
M  V30 7343 H 675.765 6.28027 2.97669 0
M  V30 7344 H 678.956 4.09757 2.26311 0
M  V30 7345 H 679.129 5.79019 2.90932 0
M  V30 7346 N 672.536 -0.895792 1.29666 0
M  V30 7347 C 673.782 -1.64908 1.18039 0
M  V30 7348 C 674.115 -1.9236 -0.266682 0
M  V30 7349 O 673.39 -1.53682 -1.19214 0
M  V30 7350 C 673.673 -2.99574 1.99819 0
M  V30 7351 C 673.526 -2.79163 3.52687 0
M  V30 7352 C 674.845 -4.00358 1.82761 0
M  V30 7353 H 671.964 -0.598437 0.430165 0
M  V30 7354 H 674.606 -1.03736 1.59182 0
M  V30 7355 H 672.756 -3.51786 1.64859 0
M  V30 7356 H 674.428 -2.33821 3.9765 0
M  V30 7357 H 672.671 -2.13871 3.77414 0
M  V30 7358 H 673.342 -3.74871 4.05186 0
M  V30 7359 H 675.818 -3.57268 2.13304 0
M  V30 7360 H 674.694 -4.92514 2.42325 0
M  V30 7361 H 674.955 -4.35096 0.783839 0
M  V30 7362 N 674.014 -1.12206 -1.10668 0
M  V30 7363 C 674.947 -0.731468 -2.16159 0
M  V30 7364 C 675.925 0.276216 -1.60237 0
M  V30 7365 O 677.109 0.17074 -1.87725 0
M  V30 7366 C 674.236 -0.0822882 -3.386 0
M  V30 7367 C 673.282 -1.05641 -4.1321 0
M  V30 7368 S 674.115 -2.58281 -4.69096 0
M  V30 7369 C 675.271 -1.94686 -5.94851 0
M  V30 7370 H 675.504 -1.62504 -2.48957 0
M  V30 7371 H 673.037 -0.940906 -1.22419 0
M  V30 7372 H 674.995 0.285896 -4.09503 0
M  V30 7373 H 673.656 0.788358 -3.04046 0
M  V30 7374 H 672.849 -0.549764 -5.00993 0
M  V30 7375 H 672.451 -1.36741 -3.48106 0
M  V30 7376 H 674.743 -1.28815 -6.65141 0
M  V30 7377 H 675.686 -2.80499 -6.50174 0
M  V30 7378 H 676.094 -1.40369 -5.46769 0
M  V30 7379 N 675.492 1.28418 -0.913599 0
M  V30 7380 C 676.402 2.31043 -0.406965 0
M  V30 7381 C 677.418 1.66501 0.505298 0
M  V30 7382 O 678.594 1.97558 0.391522 0
M  V30 7383 C 675.659 3.4498 0.344901 0
M  V30 7384 C 674.72 4.25078 -0.600563 0
M  V30 7385 C 673.953 5.33575 0.115516 0
M  V30 7386 O 674.176 5.54503 1.33727 0
M  V30 7387 O 673.11 5.9939 -0.549095 0
M  V30 7388 H 676.936 2.76387 -1.25873 0
M  V30 7389 H 674.521 1.33109 -0.678415 0
M  V30 7390 H 676.403 4.14314 0.769542 0
M  V30 7391 H 675.078 3.01719 1.1725 0
M  V30 7392 H 673.985 3.58334 -1.0746 0
M  V30 7393 H 675.318 4.72018 -1.39497 0
M  V30 7394 N 676.97 0.677563 1.42291 0
M  V30 7395 C 678.195 0.207901 2.06355 0
M  V30 7396 C 678.62 -1.12723 1.50583 0
M  V30 7397 O 677.978 -1.70171 0.62543 0
M  V30 7398 C 678.026 0.156489 3.6026 0
M  V30 7399 O 677.13 -0.874162 4.03029 0
M  V30 7400 H 676.471 0.106056 0.655475 0
M  V30 7401 H 679.001 0.927354 1.82377 0
M  V30 7402 H 679.011 -0.0187258 4.07996 0
M  V30 7403 H 677.686 1.13101 4.00226 0
M  V30 7404 H 676.263 -0.669764 3.66836 0
M  V30 7405 N 678.448 -1.51871 0.421078 0
M  V30 7406 C 679.381 -2.23851 -0.443369 0
M  V30 7407 C 680.359 -1.25142 -1.03818 0
M  V30 7408 O 681.543 -1.5423 -1.08377 0
M  V30 7409 C 678.67 -2.97637 -1.61648 0
M  V30 7410 C 677.716 -4.10873 -1.14391 0
M  V30 7411 S 678.549 -5.35408 -0.0992403 0
M  V30 7412 C 679.705 -6.12726 -1.27739 0
M  V30 7413 H 679.938 -2.96826 0.167786 0
M  V30 7414 H 677.471 -1.53027 0.205461 0
M  V30 7415 H 679.429 -3.40751 -2.28909 0
M  V30 7416 H 678.09 -2.24282 -2.199 0
M  V30 7417 H 677.283 -4.61718 -2.02069 0
M  V30 7418 H 676.885 -3.69937 -0.549775 0
M  V30 7419 H 679.177 -6.40827 -2.19881 0
M  V30 7420 H 680.12 -7.03461 -0.809239 0
M  V30 7421 H 680.528 -5.43968 -1.5086 0
M  V30 7422 N 679.926 -0.151884 -1.56866 0
M  V30 7423 C 680.856 0.781943 -2.20018 0
M  V30 7424 C 681.837 1.25347 -1.14987 0
M  V30 7425 O 683.022 1.31015 -1.43348 0
M  V30 7426 C 680.152 2.01928 -2.82564 0
M  V30 7427 C 679.106 1.68434 -3.93464 0
M  V30 7428 C 678.432 2.99472 -4.42968 0
M  V30 7429 C 679.732 0.927244 -5.14003 0
M  V30 7430 H 681.426 0.255607 -2.98307 0
M  V30 7431 H 678.972 0.121502 -1.43486 0
M  V30 7432 H 680.925 2.67741 -3.25411 0
M  V30 7433 H 679.649 2.56943 -2.01614 0
M  V30 7434 H 678.308 1.04998 -3.51242 0
M  V30 7435 H 677.956 3.52488 -3.58834 0
M  V30 7436 H 677.656 2.77823 -5.17772 0
M  V30 7437 H 679.18 3.66348 -4.88489 0
M  V30 7438 H 680.594 1.48756 -5.53665 0
M  V30 7439 H 678.991 0.810513 -5.94601 0
M  V30 7440 H 680.061 -0.0801163 -4.84834 0
M  V30 7441 N 681.404 1.57128 0.121893 0
M  V30 7442 C 682.351 2.0013 1.14964 0
M  V30 7443 C 683.321 0.872959 1.4131 0
M  V30 7444 O 684.506 1.13696 1.53225 0
M  V30 7445 C 681.646 2.40824 2.4718 0
M  V30 7446 C 680.759 3.67061 2.27794 0
M  V30 7447 C 679.894 3.96749 3.53219 0
M  V30 7448 C 678.933 5.16178 3.28978 0
M  V30 7449 N 678.07 5.41751 4.46599 0
M  V30 7450 H 682.91 2.8772 0.775947 0
M  V30 7451 H 680.447 1.42328 0.371652 0
M  V30 7452 H 682.405 2.62454 3.24305 0
M  V30 7453 H 681.035 1.56279 2.82448 0
M  V30 7454 H 680.087 3.53063 1.416 0
M  V30 7455 H 681.399 4.5434 2.05857 0
M  V30 7456 H 680.553 4.19012 4.38764 0
M  V30 7457 H 679.292 3.07941 3.78185 0
M  V30 7458 H 678.297 4.93762 2.41824 0
M  V30 7459 H 679.522 6.06561 3.05386 0
M  V30 7460 H 677.468 4.55899 4.71691 0
M  V30 7461 H 677.385 6.23347 4.27756 0
M  V30 7462 H 678.653 5.68531 5.33285 0
M  V30 7463 N 682.882 -0.391992 1.52647 0
M  V30 7464 C 684.107 -1.16312 1.71716 0
M  V30 7465 C 684.532 -1.83042 0.433279 0
M  V30 7466 O 683.89 -1.70705 -0.610707 0
M  V30 7467 C 683.938 -2.18908 2.86551 0
M  V30 7468 O 683.042 -3.2543 2.53316 0
M  V30 7469 H 682.383 -0.338743 0.571095 0
M  V30 7470 H 684.913 -0.457202 1.99426 0
M  V30 7471 H 684.923 -2.62954 3.1196 0
M  V30 7472 H 683.598 -1.69726 3.79692 0
M  V30 7473 H 682.175 -2.86543 2.38637 0
M  V30 7474 N 684.36 -1.4356 -0.65026 0
M  V30 7475 C 685.27 -1.514 -1.79207 0
M  V30 7476 C 686.286 -0.400895 -1.69319 0
M  V30 7477 O 687.462 -0.655458 -1.90436 0
M  V30 7478 C 684.527 -1.43737 -3.155 0
M  V30 7479 C 683.588 -2.65743 -3.37163 0
M  V30 7480 C 682.821 -2.58436 -4.66954 0
M  V30 7481 O 683.044 -1.63374 -5.46503 0
M  V30 7482 O 681.978 -3.48984 -4.90402 0
M  V30 7483 H 685.804 -2.47825 -1.75547 0
M  V30 7484 H 683.389 -1.25594 -0.809111 0
M  V30 7485 H 685.271 -1.41916 -3.96784 0
M  V30 7486 H 683.946 -0.504488 -3.19745 0
M  V30 7487 H 682.853 -2.73136 -2.55632 0
M  V30 7488 H 684.186 -3.58014 -3.37768 0
M  V30 7489 N 685.838 0.888903 -1.30139 0
M  V30 7490 C 686.748 2.02705 -1.18101 0
M  V30 7491 C 687.764 1.73702 -0.101809 0
M  V30 7492 O 688.94 1.98906 -0.315984 0
M  V30 7493 C 686.005 3.35616 -0.869651 0
M  V30 7494 C 685.066 3.78067 -2.03381 0
M  V30 7495 C 684.299 5.04635 -1.73721 0
M  V30 7496 O 684.522 5.66531 -0.663267 0
M  V30 7497 O 683.456 5.43399 -2.58845 0
M  V30 7498 H 687.282 2.15788 -2.13704 0
M  V30 7499 H 684.867 1.01426 -1.09695 0
M  V30 7500 H 686.749 4.15358 -0.711043 0
M  V30 7501 H 685.424 3.23651 0.0565002 0
M  V30 7502 H 684.331 2.99046 -2.24772 0
M  V30 7503 H 685.664 3.94631 -2.94155 0
M  V30 7504 N 687.317 1.12792 1.10072 0
M  V30 7505 C 688.227 0.812369 2.20086 0
M  V30 7506 C 689.243 -0.200349 1.72843 0
M  V30 7507 O 690.419 -0.0330262 2.01373 0
M  V30 7508 C 687.484 0.275685 3.45602 0
M  V30 7509 C 686.545 1.34881 4.07561 0
M  V30 7510 C 685.778 0.837639 5.27086 0
M  V30 7511 O 686.001 -0.327224 5.69461 0
M  V30 7512 O 684.935 1.60894 5.79997 0
M  V30 7513 H 688.761 1.73133 2.49517 0
M  V30 7514 H 686.346 0.904863 1.18881 0
M  V30 7515 H 688.228 -0.0185375 4.21396 0
M  V30 7516 H 686.903 -0.615783 3.17789 0
M  V30 7517 H 685.81 1.69625 3.33434 0
M  V30 7518 H 687.143 2.21418 4.39585 0
M  V30 7519 N 688.795 -1.27931 0.920396 0
M  V30 7520 C 690.211 -1.47085 0.619537 0
M  V30 7521 C 690.411 -1.83463 -0.833291 0
M  V30 7522 O 689.467 -1.94363 -1.61181 0
M  V30 7523 C 690.78 -2.56878 1.56314 0
M  V30 7524 C 692.328 -2.70743 1.57058 0
M  V30 7525 C 692.803 -3.83687 2.50097 0
M  V30 7526 N 694.294 -3.9105 2.48262 0
M  V30 7527 C 695.029 -4.77842 3.16945 0
M  V30 7528 N 694.525 -5.69176 3.94982 0
M  V30 7529 N 696.318 -4.71509 3.06 0
M  V30 7530 H 688.469 -1.02601 1.85975 0
M  V30 7531 H 690.732 -0.511682 0.798051 0
M  V30 7532 H 690.438 -2.36923 2.59923 0
M  V30 7533 H 690.312 -3.54117 1.29928 0
M  V30 7534 H 692.699 -2.90083 0.541832 0
M  V30 7535 H 692.78 -1.74015 1.8749 0
M  V30 7536 H 692.424 -3.65101 3.53077 0
M  V30 7537 H 692.354 -4.79827 2.16964 0
M  V30 7538 H 694.845 -3.25738 1.91581 0
M  V30 7539 H 695.158 -6.32245 4.44394 0
M  V30 7540 H 693.503 -5.68995 3.99086 0
M  V30 7541 H 696.694 -3.99151 2.44533 0
M  V30 7542 H 696.867 -5.38933 3.59799 0
M  V30 7543 N 690.273 -0.685099 -1.4193 0
M  V30 7544 C 691.203 -0.0273506 -2.33484 0
M  V30 7545 C 692.184 0.778366 -1.51246 0
M  V30 7546 O 693.369 0.733449 -1.79817 0
M  V30 7547 C 690.499 0.917272 -3.34968 0
M  V30 7548 C 689.453 0.21941 -4.27437 0
M  V30 7549 C 688.779 1.27768 -5.1921 0
M  V30 7550 C 690.079 -0.907894 -5.14349 0
M  V30 7551 H 691.773 -0.791994 -2.88735 0
M  V30 7552 H 689.319 -0.382308 -1.38832 0
M  V30 7553 H 691.272 1.38657 -3.97935 0
M  V30 7554 H 689.996 1.71346 -2.78043 0
M  V30 7555 H 688.655 -0.229757 -3.65879 0
M  V30 7556 H 688.303 2.06612 -4.58607 0
M  V30 7557 H 688.003 0.815803 -5.81909 0
M  V30 7558 H 689.527 1.7477 -5.85054 0
M  V30 7559 H 690.941 -0.519348 -5.70943 0
M  V30 7560 H 689.338 -1.2962 -5.85934 0
M  V30 7561 H 690.408 -1.75218 -4.52136 0
M  V30 7562 N 691.751 1.51645 -0.429126 0
M  V30 7563 C 692.976 2.06917 0.141399 0
M  V30 7564 C 693.401 1.29527 1.36398 0
M  V30 7565 O 692.759 0.33094 1.78254 0
M  V30 7566 C 692.807 3.57776 0.4504 0
M  V30 7567 O 691.911 3.82639 1.53821 0
M  V30 7568 H 691.252 0.663978 0.0054647 0
M  V30 7569 H 693.782 1.95355 -0.608093 0
M  V30 7570 H 693.792 4.01894 0.703249 0
M  V30 7571 H 692.467 4.13532 -0.443213 0
M  V30 7572 H 691.044 3.5039 1.27597 0
M  V30 7573 N 693.229 0.160201 1.56784 0
M  V30 7574 C 694.478 -0.487619 1.95717 0
M  V30 7575 C 694.791 -1.65136 1.0483 0
M  V30 7576 O 695.997 -2.36468 1.33398 0
M  V30 7577 C 694.453 -0.91888 3.47972 0
M  V30 7578 C 694.061 0.218655 4.47466 0
M  V30 7579 C 695.805 -1.53575 3.95746 0
M  V30 7580 C 693.712 -0.231614 5.90946 0
M  V30 7581 H 692.642 -0.185939 0.730714 0
M  V30 7582 H 695.293 0.246657 1.81835 0
M  V30 7583 H 693.675 -1.70881 3.57234 0
M  V30 7584 H 694.849 0.995825 4.49911 0
M  V30 7585 H 693.164 0.744767 4.09685 0
M  V30 7586 H 695.761 -1.88448 5.00391 0
M  V30 7587 H 696.104 -2.42959 3.38048 0
M  V30 7588 H 696.637 -0.810467 3.89456 0
M  V30 7589 H 693.376 0.62718 6.52493 0
M  V30 7590 H 692.896 -0.974379 5.91833 0
M  V30 7591 H 694.575 -0.67922 6.43425 0
M  V30 7592 N 694.707 -1.5719 -0.113559 0
M  V30 7593 C 695.639 -1.97393 -1.16484 0
M  V30 7594 C 696.652 -0.873964 -1.37352 0
M  V30 7595 O 697.841 -1.15222 -1.36331 0
M  V30 7596 C 694.941 -2.26174 -2.52386 0
M  V30 7597 C 694.114 -3.57479 -2.52046 0
M  V30 7598 C 693.173 -3.74409 -3.69735 0
M  V30 7599 O 692.199 -4.46463 -3.53071 0
M  V30 7600 N 693.401 -3.13588 -4.88511 0
M  V30 7601 H 696.166 -2.88184 -0.822814 0
M  V30 7602 H 693.727 -1.59044 -0.302769 0
M  V30 7603 H 695.719 -2.3471 -3.29687 0
M  V30 7604 H 694.289 -1.41483 -2.7875 0
M  V30 7605 H 693.509 -3.60081 -1.60421 0
M  V30 7606 H 694.797 -4.43775 -2.48881 0
M  V30 7607 H 694.195 -2.55026 -5.04953 0
M  V30 7608 H 692.752 -3.27637 -5.63469 0
M  V30 7609 N 696.185 0.383891 -1.52853 0
M  V30 7610 C 697.133 1.48965 -1.7864 0
M  V30 7611 C 698.127 1.56242 -0.654577 0
M  V30 7612 O 699.333 1.59347 -0.83716 0
M  V30 7613 H 695.708 0.495892 -0.565328 0
M  V30 7614 H 697.679 1.24411 -2.71228 0
M  V30 7615 C 696.428 2.86036 -1.97683 0
M  V30 7616 H 695.751 2.81188 -2.84206 0
M  V30 7617 H 697.191 3.62632 -2.19713 0
M  V30 7618 C 695.65 3.28428 -0.750776 0
M  V30 7619 O 696.18 4.0164 0.0693491 0
M  V30 7620 N 694.386 2.84765 -0.579427 0
M  V30 7621 H 693.933 2.25353 -1.24795 0
M  V30 7622 H 693.891 3.13486 0.239544 0
M  V30 7623 N 697.663 1.43903 0.642637 0
M  V30 7624 C 698.91 1.46079 1.40239 0
M  V30 7625 C 699.238 0.0890335 1.94296 0
M  V30 7626 O 698.493 -0.907533 1.73385 0
M  V30 7627 C 698.792 2.45907 2.59354 0
M  V30 7628 C 698.458 3.91522 2.23654 0
M  V30 7629 C 697.12 4.31179 2.1363 0
M  V30 7630 C 699.472 4.83242 1.95261 0
M  V30 7631 C 696.8 5.60495 1.73384 0
M  V30 7632 C 699.152 6.12933 1.56511 0
M  V30 7633 C 697.816 6.51556 1.4502 0
M  V30 7634 H 697.086 0.534542 0.513172 0
M  V30 7635 H 699.733 1.77047 0.72984 0
M  V30 7636 H 698.038 2.08381 3.3179 0
M  V30 7637 H 699.735 2.44842 3.17574 0
M  V30 7638 H 696.325 3.60142 2.32369 0
M  V30 7639 H 700.509 4.53367 2.0192 0
M  V30 7640 H 695.765 5.89249 1.63082 0
M  V30 7641 H 699.939 6.83469 1.33576 0
M  V30 7642 H 697.566 7.51663 1.13606 0
M  V30 7643 N 699.141 -0.881989 1.30609 0
M  V30 7644 C 700.366 -1.67236 1.22665 0
M  V30 7645 C 700.791 -1.8696 -0.206777 0
M  V30 7646 O 700.149 -1.4027 -1.14865 0
M  V30 7647 C 700.197 -3.02446 1.96363 0
M  V30 7648 O 699.301 -3.91614 1.29276 0
M  V30 7649 H 698.642 -0.510902 0.424117 0
M  V30 7650 H 701.172 -1.10055 1.72479 0
M  V30 7651 H 701.182 -3.52468 2.055 0
M  V30 7652 H 699.857 -2.8741 3.00613 0
M  V30 7653 H 698.434 -3.50055 1.28514 0
M  V30 7654 N 700.619 -1.13374 -1.09472 0
M  V30 7655 C 701.566 -0.810682 -2.16094 0
M  V30 7656 C 702.536 0.227003 -1.64541 0
M  V30 7657 O 703.721 0.0993538 -1.90541 0
M  V30 7658 C 700.861 -0.282336 -3.43943 0
M  V30 7659 C 699.974 -1.37902 -4.09398 0
M  V30 7660 C 699.109 -0.809066 -5.25002 0
M  V30 7661 C 698.148 -1.88419 -5.82379 0
M  V30 7662 N 697.285 -1.33221 -6.89345 0
M  V30 7663 H 702.125 -1.72397 -2.43071 0
M  V30 7664 H 699.662 -0.860564 -1.19301 0
M  V30 7665 H 701.62 0.0421189 -4.17179 0
M  V30 7666 H 700.25 0.594083 -3.17286 0
M  V30 7667 H 699.302 -1.82008 -3.34032 0
M  V30 7668 H 700.614 -2.19161 -4.48074 0
M  V30 7669 H 699.768 -0.435867 -6.05132 0
M  V30 7670 H 698.507 0.0346058 -4.87688 0
M  V30 7671 H 697.512 -2.26646 -5.00911 0
M  V30 7672 H 698.737 -2.73125 -6.21755 0
M  V30 7673 H 696.683 -0.510535 -6.5401 0
M  V30 7674 H 696.6 -2.08129 -7.26786 0
M  V30 7675 H 697.868 -0.986565 -7.73232 0
M  V30 7676 N 702.098 1.27442 -0.927168 0
M  V30 7677 C 703.028 2.29256 -0.443188 0
M  V30 7678 C 704.009 1.62701 0.49624 0
M  V30 7679 O 705.194 1.90013 0.401105 0
M  V30 7680 C 702.324 3.45955 0.305366 0
M  V30 7681 C 701.278 4.24501 -0.546178 0
M  V30 7682 C 700.604 5.33671 0.331512 0
M  V30 7683 C 701.904 4.89921 -1.81037 0
M  V30 7684 H 703.598 2.69988 -1.29409 0
M  V30 7685 H 701.144 1.29792 -0.623705 0
M  V30 7686 H 703.097 4.1628 0.654885 0
M  V30 7687 H 701.821 3.04138 1.19029 0
M  V30 7688 H 700.48 3.55921 -0.878398 0
M  V30 7689 H 700.128 4.88096 1.21537 0
M  V30 7690 H 699.828 5.87131 -0.234746 0
M  V30 7691 H 701.352 6.0684 0.676614 0
M  V30 7692 H 702.766 5.52536 -1.52895 0
M  V30 7693 H 701.163 5.53436 -2.32009 0
M  V30 7694 H 702.233 4.13652 -2.53021 0
M  V30 7695 N 703.576 0.692616 1.41565 0
M  V30 7696 C 704.506 0.0397325 2.33466 0
M  V30 7697 C 705.487 -0.770334 1.51657 0
M  V30 7698 O 706.672 -0.723903 1.80203 0
M  V30 7699 C 703.802 -0.899495 3.3545 0
M  V30 7700 C 702.756 -0.196738 4.27548 0
M  V30 7701 C 702.082 -1.25012 5.19881 0
M  V30 7702 C 703.382 0.935158 5.1386 0
M  V30 7703 H 705.076 0.807296 2.88311 0
M  V30 7704 H 702.622 0.389665 1.38628 0
M  V30 7705 H 704.575 -1.36545 3.98665 0
M  V30 7706 H 703.299 -1.69869 2.78948 0
M  V30 7707 H 701.958 0.249158 3.65752 0
M  V30 7708 H 701.606 -2.04177 4.59696 0
M  V30 7709 H 701.306 -0.784931 5.82334 0
M  V30 7710 H 702.83 -1.71665 5.85972 0
M  V30 7711 H 704.244 0.549619 5.70659 0
M  V30 7712 H 702.641 1.32726 5.85238 0
M  V30 7713 H 703.711 1.77613 4.512 0
M  V30 7714 N 705.054 -1.51416 0.437162 0
M  V30 7715 C 706.002 -2.29328 -0.388765 0
M  V30 7716 C 706.996 -1.35171 -1.02104 0
M  V30 7717 O 708.202 -1.52513 -0.956024 0
M  V30 7718 H 704.577 -0.738048 -0.144183 0
M  V30 7719 H 706.548 -2.96995 0.289212 0
M  V30 7720 C 705.297 -3.14741 -1.47761 0
M  V30 7721 H 704.62 -3.8708 -1.00045 0
M  V30 7722 H 706.06 -3.72313 -2.02877 0
M  V30 7723 C 704.519 -2.30105 -2.46076 0
M  V30 7724 O 705.049 -1.96055 -3.50607 0
M  V30 7725 N 703.255 -1.93331 -2.1696 0
M  V30 7726 H 702.802 -2.2122 -1.31983 0
M  V30 7727 H 702.76 -1.36999 -2.82982 0
M  V30 7728 N 706.532 -0.168513 -1.56696 0
M  V30 7729 C 707.809 0.523367 -1.88468 0
M  V30 7730 C 708.189 1.81503 -1.07796 0
M  V30 7731 O 707.537 2.27859 -0.171045 0
M  V30 7732 C 707.747 0.767991 -3.40445 0
M  V30 7733 C 709.095 1.09924 -4.10124 0
M  V30 7734 O 710.119 0.856625 -3.45746 0
M  V30 7735 O 708.978 1.55681 -5.23856 0
M  V30 7736 H 706.072 0.269447 -0.781874 0
M  V30 7737 H 708.618 -0.206739 -1.68436 0
M  V30 7738 H 707.39 -0.145254 -3.9103 0
M  V30 7739 H 707.013 1.55151 -3.66079 0
M  V30 7740 N 708.01 1.57248 0.105221 0
M  V30 7741 C 708.958 2.02337 1.14728 0
M  V30 7742 C 709.952 0.922652 1.42069 0
M  V30 7743 O 711.158 1.10785 1.41869 0
M  V30 7744 H 707.533 0.644682 0.387155 0
M  V30 7745 H 709.504 2.89063 0.740607 0
M  V30 7746 C 708.253 2.45513 2.46209 0
M  V30 7747 H 707.576 3.29785 2.26013 0
M  V30 7748 H 709.016 2.80846 3.1765 0
M  V30 7749 C 707.475 1.3243 3.09781 0
M  V30 7750 O 708.005 0.647841 3.96442 0
M  V30 7751 N 706.211 1.07785 2.69872 0
M  V30 7752 H 705.758 1.62973 1.99493 0
M  V30 7753 H 705.716 0.323204 3.12734 0
M  V30 7754 N 709.488 -0.375779 1.53054 0
M  V30 7755 C 710.737 -1.11674 1.67964 0
M  V30 7756 C 711.05 -1.90755 0.432655 0
M  V30 7757 O 712.256 -2.67538 0.462109 0
M  V30 7758 C 710.712 -2.0344 2.96884 0
M  V30 7759 C 710.32 -1.29719 4.28809 0
M  V30 7760 C 712.064 -2.7759 3.2116 0
M  V30 7761 C 709.971 -2.20327 5.48826 0
M  V30 7762 H 708.901 -0.420597 0.625791 0
M  V30 7763 H 711.552 -0.378499 1.79554 0
M  V30 7764 H 709.934 -2.80953 2.79072 0
M  V30 7765 H 711.108 -0.573394 4.57219 0
M  V30 7766 H 709.423 -0.674735 4.10897 0
M  V30 7767 H 712.02 -3.4559 4.0801 0
M  V30 7768 H 712.363 -3.42399 2.36789 0
M  V30 7769 H 712.896 -2.07164 3.396 0
M  V30 7770 H 709.635 -1.60113 6.35645 0
M  V30 7771 H 709.155 -2.90585 5.2471 0
M  V30 7772 H 710.834 -2.80116 5.83219 0
M  V30 7773 N 710.966 -1.44241 -0.634997 0
M  V30 7774 C 712.213 -1.46821 -1.39463 0
M  V30 7775 C 712.541 -0.0993362 -1.94246 0
M  V30 7776 O 711.796 0.898325 -1.73864 0
M  V30 7777 C 712.095 -2.47279 -2.58046 0
M  V30 7778 C 711.761 -3.92703 -2.21574 0
M  V30 7779 C 710.423 -4.32306 -2.1134 0
M  V30 7780 C 712.775 -4.84271 -1.92695 0
M  V30 7781 C 710.103 -5.61407 -1.70409 0
M  V30 7782 C 712.455 -6.13755 -1.53258 0
M  V30 7783 C 711.119 -6.52316 -1.41562 0
M  V30 7784 H 710.389 -0.537256 -0.51033 0
M  V30 7785 H 713.036 -1.77431 -0.720441 0
M  V30 7786 H 711.341 -2.10138 -3.3068 0
M  V30 7787 H 713.038 -2.46523 -3.16271 0
M  V30 7788 H 709.628 -3.61369 -2.30456 0
M  V30 7789 H 713.812 -4.54432 -1.99513 0
M  V30 7790 H 709.068 -5.90105 -1.59955 0
M  V30 7791 H 713.242 -6.84168 -1.29949 0
M  V30 7792 H 710.869 -7.52255 -1.09619 0
M  V30 7793 N 712.444 0.87505 -1.31075 0
M  V30 7794 C 713.394 1.96933 -1.14898 0
M  V30 7795 C 714.378 1.60783 -0.0613703 0
M  V30 7796 O 715.57 1.74678 -0.285751 0
M  V30 7797 C 712.699 3.3253 -0.853166 0
M  V30 7798 C 711.785 3.74963 -1.98151 0
M  V30 7799 N 712.176 3.89403 -3.22799 0
M  V30 7800 C 710.474 4.04436 -1.8801 0
M  V30 7801 C 711.175 4.25563 -3.96574 0
M  V30 7802 N 710.151 4.3597 -3.24701 0
M  V30 7803 H 713.953 2.06201 -2.09424 0
M  V30 7804 H 711.467 1.06551 -1.22558 0
M  V30 7805 H 713.464 4.10666 -0.718266 0
M  V30 7806 H 712.124 3.24592 0.0839218 0
M  V30 7807 H 713.135 3.74266 -3.57974 0
M  V30 7808 H 709.812 4.04915 -1.01733 0
M  V30 7809 H 711.202 4.44375 -5.03965 0
M  V30 7810 N 713.922 1.13953 1.08869 0
M  V30 7811 C 714.855 0.765765 2.14968 0
M  V30 7812 C 715.833 -0.250689 1.60656 0
M  V30 7813 O 717.017 -0.140852 1.87973 0
M  V30 7814 C 714.144 0.136146 3.38426 0
M  V30 7815 C 713.19 1.12201 4.11477 0
M  V30 7816 S 714.023 2.65711 4.64928 0
M  V30 7817 C 715.179 2.04125 5.91679 0
M  V30 7818 H 715.412 1.66444 2.46341 0
M  V30 7819 H 712.945 0.960263 1.20906 0
M  V30 7820 H 714.903 -0.220712 4.09906 0
M  V30 7821 H 713.564 -0.739887 3.05261 0
M  V30 7822 H 712.757 0.629398 5.00055 0
M  V30 7823 H 712.359 1.42262 3.45886 0
M  V30 7824 H 714.651 1.39381 6.63008 0
M  V30 7825 H 715.594 2.90808 6.45629 0
M  V30 7826 H 716.002 1.4905 5.44467 0
M  V30 7827 N 715.4 -1.26948 0.933913 0
M  V30 7828 C 716.625 -1.98724 0.593589 0
M  V30 7829 C 717.05 -1.6915 -0.822801 0
M  V30 7830 O 716.408 -0.93533 -1.5531 0
M  V30 7831 C 716.456 -3.50834 0.833542 0
M  V30 7832 O 715.56 -4.12284 -0.0978788 0
M  V30 7833 H 714.901 -0.623683 0.227849 0
M  V30 7834 H 717.431 -1.61599 1.25486 0
M  V30 7835 H 717.441 -4.01018 0.75156 0
M  V30 7836 H 716.116 -3.71691 1.86597 0
M  V30 7837 H 714.693 -3.72884 0.0345443 0
M  V30 7838 N 716.879 -0.700114 -1.41195 0
M  V30 7839 C 717.809 -0.0521132 -2.33442 0
M  V30 7840 C 718.79 0.76228 -1.52063 0
M  V30 7841 O 719.975 0.714336 -1.80585 0
M  V30 7842 C 717.105 0.881693 -3.35922 0
M  V30 7843 C 716.059 0.174062 -4.27646 0
M  V30 7844 C 715.385 1.22254 -5.20536 0
M  V30 7845 C 716.685 -0.962396 -5.13357 0
M  V30 7846 H 718.379 -0.822574 -2.87879 0
M  V30 7847 H 715.925 -0.397011 -1.38419 0
M  V30 7848 H 717.878 1.34429 -3.99383 0
M  V30 7849 H 716.602 1.68387 -2.79845 0
M  V30 7850 H 715.261 -0.268551 -3.65615 0
M  V30 7851 H 714.909 2.01736 -4.60773 0
M  V30 7852 H 714.609 0.754038 -5.82742 0
M  V30 7853 H 716.133 1.68555 -5.86874 0
M  V30 7854 H 717.547 -0.579875 -5.7036 0
M  V30 7855 H 715.944 -1.35828 -5.84526 0
M  V30 7856 H 717.014 -1.80003 -4.50252 0
M  V30 7857 N 718.357 1.51182 -0.445186 0
M  V30 7858 C 719.287 2.30821 0.352686 0
M  V30 7859 C 720.268 1.36576 1.01395 0
M  V30 7860 O 721.453 1.65497 1.01609 0
M  V30 7861 C 718.583 3.15593 1.44976 0
M  V30 7862 C 717.537 4.1818 0.911553 0
M  V30 7863 C 716.863 4.91523 2.10497 0
M  V30 7864 C 718.163 5.22266 -0.059418 0
M  V30 7865 H 719.857 2.97771 -0.311936 0
M  V30 7866 H 717.403 1.43201 -0.151461 0
M  V30 7867 H 719.356 3.70091 2.01521 0
M  V30 7868 H 718.08 2.4648 2.14278 0
M  V30 7869 H 716.739 3.64746 0.368264 0
M  V30 7870 H 716.387 4.18906 2.78437 0
M  V30 7871 H 716.087 5.60898 1.7512 0
M  V30 7872 H 717.611 5.48847 2.6758 0
M  V30 7873 H 719.025 5.71789 0.415985 0
M  V30 7874 H 717.422 5.99213 -0.326152 0
M  V30 7875 H 718.492 4.7461 -0.993631 0
M  V30 7876 N 719.835 0.176821 1.56605 0
M  V30 7877 C 720.798 -0.737429 2.17013 0
M  V30 7878 C 721.798 -1.15414 1.11965 0
M  V30 7879 O 722.988 -1.0702 1.37449 0
M  V30 7880 C 720.12 -2.00445 2.75744 0
M  V30 7881 H 721.313 -0.211455 2.99154 0
M  V30 7882 H 718.866 -0.0727582 1.56131 0
M  V30 7883 H 719.601 -2.57338 1.97352 0
M  V30 7884 H 719.386 -1.71456 3.52626 0
M  V30 7885 H 720.876 -2.65679 3.22187 0
M  V30 7886 N 721.313 -1.57302 -0.09688 0
M  V30 7887 C 722.553 -1.87823 -0.806334 0
M  V30 7888 C 722.917 -0.767593 -1.75989 0
M  V30 7889 O 724.118 -0.955173 -2.51257 0
M  V30 7890 C 722.389 -3.23585 -1.51749 0
M  V30 7891 S 723.948 -3.75795 -2.26547 0
M  V30 7892 H 720.766 -0.658281 -0.268676 0
M  V30 7893 H 723.368 -1.95397 -0.0635476 0
M  V30 7894 H 722.072 -4.0234 -0.809348 0
M  V30 7895 H 721.603 -3.19145 -2.30021 0
M  V30 7896 H 723.618 -3.49068 -3.52656 0
M  V30 7897 N 722.791 0.367657 -1.53252 0
M  V30 7898 C 723.754 1.43308 -1.78873 0
M  V30 7899 C 724.754 1.46671 -0.659115 0
M  V30 7900 O 725.944 1.47468 -0.927306 0
M  V30 7901 C 723.076 2.82442 -1.90892 0
M  V30 7902 H 724.269 1.21864 -2.74024 0
M  V30 7903 H 721.822 0.600668 -1.44297 0
M  V30 7904 H 722.557 3.09202 -0.978 0
M  V30 7905 H 722.342 2.81399 -2.73051 0
M  V30 7906 H 723.832 3.59601 -2.12314 0
M  V30 7907 N 724.269 1.44576 0.627338 0
M  V30 7908 C 725.199 1.54562 1.75022 0
M  V30 7909 C 726.18 0.398378 1.65369 0
M  V30 7910 O 727.365 0.61899 1.84071 0
M  V30 7911 C 724.495 1.49309 3.13567 0
M  V30 7912 C 723.449 2.62549 3.38012 0
M  V30 7913 C 722.775 2.42348 4.76625 0
M  V30 7914 C 724.075 4.04678 3.30202 0
M  V30 7915 H 725.769 2.4855 1.66922 0
M  V30 7916 H 723.315 1.19624 0.801636 0
M  V30 7917 H 725.268 1.54895 3.919 0
M  V30 7918 H 723.992 0.518392 3.2246 0
M  V30 7919 H 722.651 2.56358 2.62061 0
M  V30 7920 H 722.299 1.43062 4.82226 0
M  V30 7921 H 721.999 3.18273 4.93939 0
M  V30 7922 H 723.523 2.49758 5.57183 0
M  V30 7923 H 724.937 4.12217 3.98435 0
M  V30 7924 H 723.334 4.80836 3.5905 0
M  V30 7925 H 724.404 4.2798 2.27949 0
M  V30 7926 N 725.747 -0.868086 1.31537 0
M  V30 7927 C 726.657 -2.00801 1.21311 0
M  V30 7928 C 727.673 -1.73518 0.129431 0
M  V30 7929 O 728.849 -1.98378 0.347588 0
M  V30 7930 C 725.914 -3.3419 0.922935 0
M  V30 7931 C 724.975 -3.74783 2.0937 0
M  V30 7932 C 724.208 -5.01807 1.81728 0
M  V30 7933 O 724.431 -5.65404 0.753313 0
M  V30 7934 O 723.365 -5.39213 2.67457 0
M  V30 7935 H 727.191 -2.12361 2.17109 0
M  V30 7936 H 724.776 -0.996684 1.11295 0
M  V30 7937 H 726.658 -4.14174 0.777033 0
M  V30 7938 H 725.333 -3.237 -0.00500301 0
M  V30 7939 H 724.24 -2.95432 2.29501 0
M  V30 7940 H 725.573 -3.89902 3.00396 0
M  V30 7941 N 727.225 -1.14528 -1.08264 0
M  V30 7942 C 728.471 -0.91576 -1.80947 0
M  V30 7943 C 728.804 0.55623 -1.86064 0
M  V30 7944 O 728.079 1.41207 -1.33756 0
M  V30 7945 C 728.362 -1.51917 -3.26486 0
M  V30 7946 C 728.215 -3.06111 -3.2957 0
M  V30 7947 C 729.534 -1.19724 -4.23502 0
M  V30 7948 H 726.653 -0.334113 -0.656915 0
M  V30 7949 H 729.295 -1.41547 -1.26746 0
M  V30 7950 H 727.445 -1.0942 -3.72773 0
M  V30 7951 H 729.117 -3.57448 -2.91597 0
M  V30 7952 H 727.36 -3.40483 -2.688 0
M  V30 7953 H 728.031 -3.43438 -4.32151 0
M  V30 7954 H 730.507 -1.56467 -3.85561 0
M  V30 7955 H 729.383 -1.64575 -5.23647 0
M  V30 7956 H 729.644 -0.112771 -4.41956 0
M  V30 7957 N 728.703 1.26451 -0.940633 0
M  V30 7958 C 729.949 1.94065 -0.58878 0
M  V30 7959 C 730.282 1.7363 0.869853 0
M  V30 7960 O 729.557 1.073 1.62225 0
M  V30 7961 C 729.84 3.47852 -0.931199 0
M  V30 7962 C 729.693 3.77575 -2.44453 0
M  V30 7963 C 731.012 4.37832 -0.446229 0
M  V30 7964 H 728.131 0.704827 -0.21538 0
M  V30 7965 H 730.773 1.4933 -1.17475 0
M  V30 7966 H 728.923 3.86085 -0.432539 0
M  V30 7967 H 730.595 3.49059 -3.01588 0
M  V30 7968 H 728.838 3.23671 -2.88825 0
M  V30 7969 H 729.509 4.85068 -2.63464 0
M  V30 7970 H 731.985 4.06822 -0.873778 0
M  V30 7971 H 730.861 5.44228 -0.714648 0
M  V30 7972 H 731.122 4.37239 0.653815 0
M  V30 7973 N 730.181 0.707592 1.40822 0
M  V30 7974 C 731.114 -0.000859377 2.282 0
M  V30 7975 C 732.092 -0.7758 1.42899 0
M  V30 7976 O 733.276 -0.76411 1.72318 0
M  V30 7977 C 730.403 -1.00861 3.23334 0
M  V30 7978 C 729.449 -0.32543 4.25257 0
M  V30 7979 S 730.282 0.940908 5.27169 0
M  V30 7980 C 731.438 -0.0649459 6.25866 0
M  V30 7981 H 731.671 0.740207 2.87938 0
M  V30 7982 H 729.204 0.498311 1.46138 0
M  V30 7983 H 731.162 -1.58485 3.78672 0
M  V30 7984 H 729.823 -1.72233 2.62668 0
M  V30 7985 H 729.016 -1.08697 4.92139 0
M  V30 7986 H 728.618 0.178044 3.73576 0
M  V30 7987 H 730.91 -0.914377 6.71301 0
M  V30 7988 H 731.853 0.570276 7.058 0
M  V30 7989 H 732.261 -0.425098 5.62897 0
M  V30 7990 N 731.66 -1.50943 0.453197 0
M  V30 7991 C 732.623 -2.26684 -0.338705 0
M  V30 7992 C 733.623 -1.30748 -0.936032 0
M  V30 7993 O 734.813 -1.54327 -0.808002 0
M  V30 7994 C 731.945 -3.07063 -1.48071 0
M  V30 7995 H 733.138 -2.98131 0.325289 0
M  V30 7996 H 730.691 -1.54926 0.206771 0
M  V30 7997 H 731.426 -2.4007 -2.18029 0
M  V30 7998 H 731.211 -3.77545 -1.0584 0
M  V30 7999 H 732.701 -3.64393 -2.0398 0
M  V30 8000 N 733.138 -0.185124 -1.56509 0
M  V30 8001 C 734.366 0.462139 -2.01673 0
M  V30 8002 C 734.781 1.55873 -1.06532 0
M  V30 8003 O 734.138 1.82371 -0.0684805 0
M  V30 8004 C 734.189 1.0277 -3.46584 0
M  V30 8005 O 733.91 -0.0251296 -4.38093 0
M  V30 8006 C 735.411 1.75183 -4.07217 0
M  V30 8007 H 732.631 0.117001 -0.660721 0
M  V30 8008 H 735.175 -0.290905 -2.0242 0
M  V30 8009 H 733.33 1.73118 -3.46568 0
M  V30 8010 H 733.744 0.394387 -5.23015 0
M  V30 8011 H 735.218 2.09999 -5.10494 0
M  V30 8012 H 735.695 2.6519 -3.50101 0
M  V30 8013 H 736.301 1.09445 -4.10977 0
M  V30 8014 N 734.616 1.57351 0.0885366 0
M  V30 8015 C 735.846 1.90355 0.80303 0
M  V30 8016 C 736.254 0.777678 1.72478 0
M  V30 8017 O 735.597 -0.258908 1.81866 0
M  V30 8018 C 735.659 3.18674 1.66395 0
M  V30 8019 C 735.323 4.4778 0.913327 0
M  V30 8020 C 736.32 5.19345 0.240148 0
M  V30 8021 C 734.005 4.94434 0.885462 0
M  V30 8022 C 735.999 6.35803 -0.450854 0
M  V30 8023 C 733.686 6.10802 0.190679 0
M  V30 8024 C 734.684 6.81337 -0.476295 0
M  V30 8025 O 734.372 7.95488 -1.15992 0
M  V30 8026 H 734.104 0.634035 0.234469 0
M  V30 8027 H 736.658 2.05287 0.0681959 0
M  V30 8028 H 734.888 2.99906 2.44117 0
M  V30 8029 H 736.577 3.37458 2.2556 0
M  V30 8030 H 737.343 4.84339 0.253092 0
M  V30 8031 H 733.222 4.39417 1.39406 0
M  V30 8032 H 736.766 6.90795 -0.972019 0
M  V30 8033 H 732.663 6.45261 0.175603 0
M  V30 8034 H 733.431 8.11509 -1.06749 0
M  V30 8035 N 736.094 -0.359525 1.53444 0
M  V30 8036 C 737.319 -1.12644 1.74144 0
M  V30 8037 C 737.744 -1.82082 0.472007 0
M  V30 8038 O 737.102 -1.71962 -0.57436 0
M  V30 8039 C 737.15 -2.12781 2.9113 0
M  V30 8040 O 736.254 -3.19984 2.60162 0
M  V30 8041 H 735.595 -0.326553 0.578152 0
M  V30 8042 H 738.125 -0.414798 2.00351 0
M  V30 8043 H 738.135 -2.56278 3.17467 0
M  V30 8044 H 736.81 -1.61634 3.83207 0
M  V30 8045 H 735.387 -2.81417 2.44661 0
M  V30 8046 N 737.572 -1.44907 -0.619662 0
M  V30 8047 C 738.988 -1.29046 -0.939107 0
M  V30 8048 C 739.188 -0.23462 -2.00129 0
M  V30 8049 O 738.244 0.37558 -2.49691 0
M  V30 8050 C 739.557 -2.66567 -1.39149 0
M  V30 8051 C 741.105 -2.74368 -1.50635 0
M  V30 8052 C 741.58 -4.12386 -1.99253 0
M  V30 8053 N 743.071 -4.1462 -2.06506 0
M  V30 8054 C 743.806 -5.18272 -2.4532 0
M  V30 8055 N 743.302 -6.32278 -2.83189 0
M  V30 8056 N 745.095 -5.05628 -2.45554 0
M  V30 8057 H 737.246 -2.12239 0.0826135 0
M  V30 8058 H 739.509 -0.947652 -0.0256829 0
M  V30 8059 H 739.215 -3.4496 -0.685254 0
M  V30 8060 H 739.089 -2.94224 -2.36034 0
M  V30 8061 H 741.476 -1.96287 -2.20353 0
M  V30 8062 H 741.557 -2.50439 -0.520963 0
M  V30 8063 H 741.201 -4.90947 -1.30127 0
M  V30 8064 H 741.131 -4.33699 -2.98684 0
M  V30 8065 H 743.622 -3.32343 -1.79878 0
M  V30 8066 H 743.935 -7.07172 -3.11652 0
M  V30 8067 H 742.28 -6.35699 -2.80913 0
M  V30 8068 H 745.471 -4.15613 -2.15367 0
M  V30 8069 H 745.644 -5.86529 -2.75478 0
M  V30 8070 N 739.05 0.861098 -1.31996 0
M  V30 8071 C 740.275 1.65264 -1.2531 0
M  V30 8072 C 740.7 1.87265 0.177007 0
M  V30 8073 O 740.058 1.4208 1.12619 0
M  V30 8074 C 740.106 2.99284 -2.0115 0
M  V30 8075 O 739.21 3.89508 -1.3549 0
M  V30 8076 H 738.551 0.50409 -0.432192 0
M  V30 8077 H 741.081 1.07297 -1.74208 0
M  V30 8078 H 741.091 3.49154 -2.11081 0
M  V30 8079 H 739.766 2.82591 -3.05148 0
M  V30 8080 H 738.343 3.47966 -1.34066 0
M  V30 8081 N 740.528 1.15101 1.07655 0
M  V30 8082 C 741.756 0.947731 1.83918 0
M  V30 8083 C 742.171 -0.503927 1.81951 0
M  V30 8084 O 741.528 -1.34941 1.2287 0
M  V30 8085 C 741.579 1.4503 3.31132 0
M  V30 8086 O 741.3 2.84508 3.33146 0
M  V30 8087 C 742.801 1.28806 4.24174 0
M  V30 8088 H 740.021 0.336786 0.580358 0
M  V30 8089 H 742.565 1.52799 1.35914 0
M  V30 8090 H 740.72 0.912632 3.76497 0
M  V30 8091 H 741.134 3.0723 4.251 0
M  V30 8092 H 742.608 1.6882 5.25551 0
M  V30 8093 H 743.085 0.231851 4.38588 0
M  V30 8094 H 743.691 1.81465 3.84643 0
M  V30 8095 N 742.006 -1.2595 0.947325 0
M  V30 8096 C 743.231 -1.98083 0.614633 0
M  V30 8097 C 743.656 -1.70013 -0.804815 0
M  V30 8098 O 743.014 -0.95175 -1.54309 0
M  V30 8099 C 743.062 -3.4993 0.870706 0
M  V30 8100 O 742.166 -4.12364 -0.0541451 0
M  V30 8101 H 741.507 -0.621232 0.234451 0
M  V30 8102 H 744.037 -1.60259 1.27193 0
M  V30 8103 H 744.047 -4.00198 0.794051 0
M  V30 8104 H 742.722 -3.69691 1.90529 0
M  V30 8105 H 741.299 -3.72826 0.0740917 0
M  V30 8106 N 743.484 -0.715051 -1.40445 0
M  V30 8107 C 744.416 -0.0227516 -2.29189 0
M  V30 8108 C 745.429 0.724313 -1.458 0
M  V30 8109 O 746.618 0.571781 -1.69094 0
M  V30 8110 C 743.718 0.992038 -3.24055 0
M  V30 8111 C 742.891 0.310613 -4.36296 0
M  V30 8112 C 741.95 1.23071 -5.11605 0
M  V30 8113 O 740.976 0.71571 -5.64682 0
M  V30 8114 N 742.178 2.56188 -5.2091 0
M  V30 8115 H 744.943 -0.78473 -2.89244 0
M  V30 8116 H 742.504 -0.562637 -1.51809 0
M  V30 8117 H 744.496 1.60973 -3.71308 0
M  V30 8118 H 743.066 1.65538 -2.65171 0
M  V30 8119 H 742.286 -0.487269 -3.91177 0
M  V30 8120 H 743.574 -0.162415 -5.08541 0
M  V30 8121 H 742.972 3.00527 -4.7927 0
M  V30 8122 H 741.529 3.13103 -5.71673 0
M  V30 8123 N 744.962 1.50701 -0.461195 0
M  V30 8124 C 745.91 2.29918 0.352231 0
M  V30 8125 C 746.904 1.36778 0.999403 0
M  V30 8126 O 748.11 1.54015 0.931639 0
M  V30 8127 H 744.485 0.740249 0.132423 0
M  V30 8128 H 746.456 2.96497 -0.336424 0
M  V30 8129 C 745.205 3.17052 1.42736 0
M  V30 8130 H 744.528 3.88623 0.938747 0
M  V30 8131 H 745.968 3.75493 1.96928 0
M  V30 8132 C 744.427 2.3399 2.42384 0
M  V30 8133 O 744.957 2.01608 3.47444 0
M  V30 8134 N 743.163 1.96758 2.13857 0
M  V30 8135 H 742.71 2.23292 1.28447 0
M  V30 8136 H 742.668 1.41484 2.80766 0
M  V30 8137 N 746.441 0.193421 1.56409 0
M  V30 8138 C 747.371 -0.723334 2.22014 0
M  V30 8139 C 748.352 -1.22254 1.1827 0
M  V30 8140 O 749.537 -1.27168 1.46771 0
M  V30 8141 C 746.667 -1.94366 2.87818 0
M  V30 8142 C 745.621 -1.57943 3.97791 0
M  V30 8143 C 744.947 -2.87623 4.50752 0
M  V30 8144 C 746.247 -0.790639 5.16281 0
M  V30 8145 H 747.941 -0.176426 2.9888 0
M  V30 8146 H 745.487 -0.0834166 1.43758 0
M  V30 8147 H 747.44 -2.5902 3.32396 0
M  V30 8148 H 746.164 -2.51507 2.08355 0
M  V30 8149 H 744.823 -0.956482 3.53903 0
M  V30 8150 H 744.471 -3.4285 3.68053 0
M  V30 8151 H 744.171 -2.63998 5.24956 0
M  V30 8152 H 745.695 -3.53268 4.9803 0
M  V30 8153 H 747.109 -1.34024 5.57414 0
M  V30 8154 H 745.506 -0.65258 5.96541 0
M  V30 8155 H 746.576 0.208633 4.84451 0
M  V30 8156 N 747.919 -1.57396 -0.0801906 0
M  V30 8157 C 749.196 -1.77883 -0.813451 0
M  V30 8158 C 749.576 -0.778879 -1.96206 0
M  V30 8159 O 748.924 0.189683 -2.27711 0
M  V30 8160 C 749.134 -3.24116 -1.2942 0
M  V30 8161 C 750.482 -3.87714 -1.73098 0
M  V30 8162 O 751.506 -3.27956 -1.39007 0
M  V30 8163 O 750.365 -4.92828 -2.36184 0
M  V30 8164 H 747.459 -0.729727 -0.389138 0
M  V30 8165 H 750.005 -1.69591 -0.0609166 0
M  V30 8166 H 748.777 -3.88443 -0.471947 0
M  V30 8167 H 748.4 -3.371 -2.1083 0
M  V30 8168 N 749.397 0.351382 -1.53633 0
M  V30 8169 C 750.622 1.11718 -1.74739 0
M  V30 8170 C 751.047 1.81829 -0.481657 0
M  V30 8171 O 750.405 1.72264 0.565233 0
M  V30 8172 C 750.453 2.11234 -2.92254 0
M  V30 8173 O 749.557 3.186 -2.61855 0
M  V30 8174 H 748.898 0.323482 -0.579875 0
M  V30 8175 H 751.428 0.404167 -2.00568 0
M  V30 8176 H 751.438 2.54591 -3.18822 0
M  V30 8177 H 750.113 1.59599 -3.84058 0
M  V30 8178 H 748.69 2.80115 -2.4615 0
M  V30 8179 N 750.875 1.45233 0.611969 0
M  V30 8180 C 752.123 1.48727 1.36838 0
M  V30 8181 C 752.444 0.128616 1.94575 0
M  V30 8182 O 751.714 -0.84149 1.76906 0
M  V30 8183 H 750.294 0.547695 0.507976 0
M  V30 8184 H 752.956 1.81156 0.718925 0
M  V30 8185 H 752.052 2.2236 2.19003 0
M  V30 8186 N 752.353 -0.854086 1.3245 0
M  V30 8187 C 753.581 -1.64074 1.26045 0
M  V30 8188 C 753.996 -1.8802 -0.171456 0
M  V30 8189 O 753.353 -1.4496 -1.10873 0
M  V30 8190 C 753.404 -2.9997 2.01743 0
M  V30 8191 O 753.125 -2.77084 3.39346 0
M  V30 8192 C 754.626 -3.94414 2.02368 0
M  V30 8193 H 751.846 -0.511015 0.434862 0
M  V30 8194 H 754.39 -1.06494 1.74583 0
M  V30 8195 H 752.545 -3.54193 1.56926 0
M  V30 8196 H 752.959 -3.63514 3.78098 0
M  V30 8197 H 754.433 -4.87032 2.59815 0
M  V30 8198 H 754.91 -4.27427 1.01009 0
M  V30 8199 H 755.516 -3.46127 2.47135 0
M  V30 8200 N 753.831 -1.1567 -1.07043 0
M  V30 8201 C 755.108 -0.843948 -1.76456 0
M  V30 8202 C 755.488 0.659806 -2.00524 0
M  V30 8203 O 754.836 1.60518 -1.62623 0
M  V30 8204 C 755.046 -1.65822 -3.0709 0
M  V30 8205 C 756.394 -1.8664 -3.8138 0
M  V30 8206 O 757.418 -1.62624 -3.1691 0
M  V30 8207 O 756.277 -2.26884 -4.97178 0
M  V30 8208 H 753.371 -0.310677 -0.766426 0
M  V30 8209 H 755.917 -1.26266 -1.1338 0
M  V30 8210 H 754.689 -2.67902 -2.85209 0
M  V30 8211 H 754.312 -1.23605 -3.77899 0
M  V30 8212 N 755.309 1.25446 -0.953992 0
M  V30 8213 C 756.239 2.28264 -0.491717 0
M  V30 8214 C 757.22 1.63717 0.461617 0
M  V30 8215 O 758.405 1.90821 0.36071 0
M  V30 8216 C 755.535 3.46525 0.231915 0
M  V30 8217 C 754.489 4.23247 -0.636098 0
M  V30 8218 C 753.815 5.34254 0.218238 0
M  V30 8219 C 755.115 4.85971 -1.91389 0
M  V30 8220 H 756.809 2.67183 -1.35106 0
M  V30 8221 H 754.355 1.2844 -0.651095 0
M  V30 8222 H 756.308 4.17576 0.566439 0
M  V30 8223 H 755.032 3.06594 1.12551 0
M  V30 8224 H 753.691 3.53978 -0.953696 0
M  V30 8225 H 753.339 4.90564 1.11156 0
M  V30 8226 H 753.039 5.86501 -0.359232 0
M  V30 8227 H 754.563 6.08138 0.547743 0
M  V30 8228 H 755.977 5.49168 -1.64581 0
M  V30 8229 H 754.374 5.48391 -2.43696 0
M  V30 8230 H 755.444 4.08192 -2.61738 0
M  V30 8231 N 756.787 0.722489 1.40064 0
M  V30 8232 C 758.012 0.273446 2.05589 0
M  V30 8233 C 758.437 -1.07875 1.54093 0
M  V30 8234 O 757.795 -1.68095 0.679252 0
M  V30 8235 C 757.843 0.271023 3.5958 0
M  V30 8236 O 756.947 -0.745499 4.05606 0
M  V30 8237 H 756.288 0.126856 0.65177 0
M  V30 8238 H 758.818 0.984906 1.79334 0
M  V30 8239 H 758.828 0.111084 4.07849 0
M  V30 8240 H 757.503 1.25776 3.96425 0
M  V30 8241 H 756.08 -0.552719 3.68781 0
M  V30 8242 N 758.265 -1.50454 0.469181 0
M  V30 8243 C 759.512 -2.02315 -0.086469 0
M  V30 8244 C 759.84 -1.3513 -1.39893 0
M  V30 8245 O 759.095 -0.465341 -1.90087 0
M  V30 8246 C 759.394 -3.55963 -0.320207 0
M  V30 8247 C 759.06 -4.41615 0.910318 0
M  V30 8248 C 757.722 -4.64743 1.2477 0
M  V30 8249 C 760.074 -4.91661 1.72971 0
M  V30 8250 C 757.402 -5.35161 2.40457 0
M  V30 8251 C 759.754 -5.6335 2.87785 0
M  V30 8252 C 758.418 -5.84732 3.2194 0
M  V30 8253 H 757.688 -0.740324 -0.0316412 0
M  V30 8254 H 760.335 -1.81087 0.622872 0
M  V30 8255 H 758.64 -3.75695 -1.11177 0
M  V30 8256 H 760.337 -3.93653 -0.764071 0
M  V30 8257 H 756.927 -4.23833 0.637467 0
M  V30 8258 H 761.111 -4.73649 1.48224 0
M  V30 8259 H 756.367 -5.49924 2.67196 0
M  V30 8260 H 760.541 -6.0111 3.51624 0
M  V30 8261 H 758.168 -6.39074 4.1169 0
M  V30 8262 N 759.743 -0.201713 -1.56304 0
M  V30 8263 C 761.154 0.309711 -1.84113 0
M  V30 8264 C 761.505 1.60912 -1.12258 0
M  V30 8265 O 760.63 2.12937 -0.385587 0
M  V30 8266 C 761.225 0.568706 -3.33993 0
M  V30 8267 C 759.784 1.02448 -3.6219 0
M  V30 8268 C 758.931 0.0766842 -2.77194 0
M  V30 8269 H 761.882 -0.425356 -1.52893 0
M  V30 8270 H 761.903 1.41721 -3.53122 0
M  V30 8271 H 761.415 -0.37719 -3.86263 0
M  V30 8272 H 759.516 1.98443 -3.15359 0
M  V30 8273 H 759.629 0.912619 -4.70328 0
M  V30 8274 H 757.993 0.579809 -2.48013 0
M  V30 8275 H 758.776 -0.863774 -3.32256 0
M  V30 8276 N 761.222 1.57436 0.0718424 0
M  V30 8277 C 762.468 1.88388 0.766904 0
M  V30 8278 C 762.823 0.7954 1.75189 0
M  V30 8279 O 762.116 -0.200438 1.90549 0
M  V30 8280 C 762.31 3.23723 1.51455 0
M  V30 8281 C 762.139 4.45632 0.603475 0
M  V30 8282 C 760.909 5.04728 0.240437 0
M  V30 8283 C 763.107 5.14203 -0.0997624 0
M  V30 8284 N 761.089 6.10163 -0.676363 0
M  V30 8285 C 762.46 6.13812 -0.873755 0
M  V30 8286 C 764.515 4.97605 -0.171238 0
M  V30 8287 C 763.218 6.98615 -1.71258 0
M  V30 8288 C 765.244 5.82935 -0.997041 0
M  V30 8289 C 764.606 6.82082 -1.75908 0
M  V30 8290 H 760.705 0.738888 0.256064 0
M  V30 8291 H 763.289 1.94679 0.0284273 0
M  V30 8292 H 761.46 3.1844 2.22375 0
M  V30 8293 H 763.192 3.42324 2.15862 0
M  V30 8294 H 759.947 4.69869 0.593284 0
M  V30 8295 H 760.371 6.67537 -1.12801 0
M  V30 8296 H 765.013 4.20869 0.403586 0
M  V30 8297 H 762.731 7.74726 -2.29838 0
M  V30 8298 H 766.317 5.72149 -1.05532 0
M  V30 8299 H 765.197 7.46964 -2.38778 0
M  V30 8300 N 762.7 -0.34323 1.53817 0
M  V30 8301 C 763.949 -1.08086 1.70295 0
M  V30 8302 C 764.262 -1.89794 0.47302 0
M  V30 8303 O 765.468 -2.66498 0.518754 0
M  V30 8304 C 763.924 -1.97097 3.01133 0
M  V30 8305 C 763.532 -1.20594 4.31464 0
M  V30 8306 C 765.276 -2.70715 3.26976 0
M  V30 8307 C 763.183 -2.08636 5.53376 0
M  V30 8308 H 762.113 -0.407228 0.634572 0
M  V30 8309 H 764.764 -0.340328 1.80316 0
M  V30 8310 H 763.146 -2.74971 2.84969 0
M  V30 8311 H 764.32 -0.476282 4.58332 0
M  V30 8312 H 762.635 -0.587426 4.12236 0
M  V30 8313 H 765.232 -3.36857 4.15248 0
M  V30 8314 H 765.575 -3.37299 2.43998 0
M  V30 8315 H 766.108 -1.99914 3.43917 0
M  V30 8316 H 762.847 -1.46594 6.38898 0
M  V30 8317 H 762.367 -2.7939 5.30755 0
M  V30 8318 H 764.046 -2.67682 5.89029 0
M  V30 8319 N 764.178 -1.45556 -0.604258 0
M  V30 8320 C 765.108 -1.57327 -1.72541 0
M  V30 8321 C 766.089 -0.424637 -1.64714 0
M  V30 8322 O 767.274 -0.648196 -1.83063 0
M  V30 8323 C 764.404 -1.54279 -3.11152 0
M  V30 8324 C 763.358 -2.67893 -3.33792 0
M  V30 8325 C 762.684 -2.499 -4.72709 0
M  V30 8326 C 763.984 -4.0988 -3.23722 0
M  V30 8327 H 765.678 -2.51175 -1.62947 0
M  V30 8328 H 763.224 -1.20884 -0.782504 0
M  V30 8329 H 765.177 -1.6111 -3.89386 0
M  V30 8330 H 763.901 -0.569627 -3.21594 0
M  V30 8331 H 762.56 -2.60495 -2.57949 0
M  V30 8332 H 762.208 -1.50715 -4.79889 0
M  V30 8333 H 761.908 -3.26091 -4.88813 0
M  V30 8334 H 763.432 -2.5859 -5.5314 0
M  V30 8335 H 764.846 -4.18503 -3.91826 0
M  V30 8336 H 763.243 -4.86487 -3.51355 0
M  V30 8337 H 764.313 -4.31553 -2.21111 0
M  V30 8338 N 765.656 0.84705 -1.32902 0
M  V30 8339 C 766.604 1.97765 -1.22441 0
M  V30 8340 C 767.598 1.68919 -0.127546 0
M  V30 8341 O 768.804 1.77633 -0.290973 0
M  V30 8342 H 765.179 0.649072 -0.379748 0
M  V30 8343 H 767.15 2.03713 -2.18044 0
M  V30 8344 C 765.899 3.33834 -0.972125 0
M  V30 8345 H 765.222 3.56564 -1.80837 0
M  V30 8346 H 766.662 4.13467 -0.939209 0
M  V30 8347 C 765.121 3.35328 0.325059 0
M  V30 8348 O 765.651 3.78887 1.33445 0
M  V30 8349 N 763.857 2.88488 0.349718 0
M  V30 8350 H 763.404 2.53234 -0.472236 0
M  V30 8351 H 763.362 2.8987 1.21748 0
M  V30 8352 N 767.134 1.16236 1.06428 0
M  V30 8353 C 768.38 0.944431 1.79467 0
M  V30 8354 C 768.713 -0.526558 1.86925 0
M  V30 8355 O 767.988 -1.39061 1.35986 0
M  V30 8356 C 768.271 1.57092 3.24028 0
M  V30 8357 C 768.124 3.11315 3.24658 0
M  V30 8358 C 769.443 1.26447 4.21544 0
M  V30 8359 H 766.562 0.344521 0.651517 0
M  V30 8360 H 769.204 1.43545 1.24478 0
M  V30 8361 H 767.354 1.15337 3.70985 0
M  V30 8362 H 769.026 3.62042 2.85873 0
M  V30 8363 H 767.269 3.44716 2.6335 0
M  V30 8364 H 767.94 3.50269 4.26633 0
M  V30 8365 H 770.416 1.62581 3.83023 0
M  V30 8366 H 769.292 1.72885 5.20963 0
M  V30 8367 H 769.553 0.183068 4.41721 0
M  V30 8368 N 768.612 -1.24939 0.960631 0
M  V30 8369 C 769.542 -2.28 0.503815 0
M  V30 8370 C 770.523 -1.63959 -0.452928 0
M  V30 8371 O 771.708 -1.91009 -0.350585 0
M  V30 8372 C 768.838 -3.46643 -0.213535 0
M  V30 8373 C 767.792 -4.22903 0.658535 0
M  V30 8374 C 767.118 -5.34363 -0.189902 0
M  V30 8375 C 768.418 -4.84949 1.93963 0
M  V30 8376 H 770.112 -2.66462 1.36521 0
M  V30 8377 H 767.658 -1.28093 0.657897 0
M  V30 8378 H 769.611 -4.1787 -0.544286 0
M  V30 8379 H 768.335 -3.07187 -1.10923 0
M  V30 8380 H 766.994 -3.53467 0.972455 0
M  V30 8381 H 766.642 -4.91147 -1.08553 0
M  V30 8382 H 766.342 -5.86302 0.390331 0
M  V30 8383 H 767.866 -6.0842 -0.515484 0
M  V30 8384 H 769.28 -5.48288 1.67491 0
M  V30 8385 H 767.677 -5.47091 2.46601 0
M  V30 8386 H 768.747 -4.06799 2.639 0
M  V30 8387 N 770.09 -0.729906 -1.39679 0
M  V30 8388 C 771.038 -0.0756589 -2.32477 0
M  V30 8389 C 772.032 0.731438 -1.52795 0
M  V30 8390 O 773.238 0.633195 -1.68495 0
M  V30 8391 H 769.613 -0.00566492 -0.751979 0
M  V30 8392 H 771.584 -0.874797 -2.85289 0
M  V30 8393 C 770.333 0.821313 -3.37861 0
M  V30 8394 H 769.656 0.209666 -3.9925 0
M  V30 8395 H 771.096 1.24679 -4.05254 0
M  V30 8396 C 769.555 1.9533 -2.74495 0
M  V30 8397 O 770.085 3.04548 -2.61942 0
M  V30 8398 N 768.291 1.74119 -2.3266 0
M  V30 8399 H 767.838 0.852908 -2.4307 0
M  V30 8400 H 767.796 2.50036 -1.90603 0
M  V30 8401 N 771.568 1.50203 -0.477153 0
M  V30 8402 C 772.498 2.31517 0.303646 0
M  V30 8403 C 773.479 1.38696 0.984753 0
M  V30 8404 O 774.664 1.67615 0.980758 0
M  V30 8405 C 771.794 3.18598 1.38249 0
M  V30 8406 C 770.748 4.2002 0.822645 0
M  V30 8407 C 770.074 4.95878 2.00024 0
M  V30 8408 C 771.374 5.22023 -0.170185 0
M  V30 8409 H 773.068 2.97042 -0.375027 0
M  V30 8410 H 770.614 1.42848 -0.181802 0
M  V30 8411 H 772.567 3.74282 1.93625 0
M  V30 8412 H 771.291 2.5097 2.09002 0
M  V30 8413 H 769.95 3.65445 0.290813 0
M  V30 8414 H 769.598 4.24717 2.69489 0
M  V30 8415 H 769.298 5.64487 1.63183 0
M  V30 8416 H 770.822 5.54399 2.55878 0
M  V30 8417 H 772.236 5.72543 0.294606 0
M  V30 8418 H 770.633 5.98386 -0.453181 0
M  V30 8419 H 771.703 4.72396 -1.09408 0
M  V30 8420 N 773.046 0.209999 1.56195 0
M  V30 8421 C 773.993 -0.704854 2.19774 0
M  V30 8422 C 774.963 -1.19886 1.14964 0
M  V30 8423 O 776.148 -1.26005 1.43274 0
M  V30 8424 C 773.288 -1.91241 2.87265 0
M  V30 8425 C 772.401 -1.45838 4.06639 0
M  V30 8426 C 771.536 -2.6226 4.61945 0
M  V30 8427 C 770.575 -2.13537 5.73645 0
M  V30 8428 N 769.712 -3.2319 6.23292 0
M  V30 8429 H 774.552 -0.155944 2.97592 0
M  V30 8430 H 772.089 -0.0652235 1.46955 0
M  V30 8431 H 774.047 -2.62123 3.24573 0
M  V30 8432 H 772.677 -2.43439 2.11985 0
M  V30 8433 H 771.729 -0.644897 3.74894 0
M  V30 8434 H 773.041 -1.06103 4.87384 0
M  V30 8435 H 772.195 -3.41243 5.01636 0
M  V30 8436 H 770.934 -3.05278 3.80338 0
M  V30 8437 H 769.939 -1.33013 5.33468 0
M  V30 8438 H 771.164 -1.71533 6.57079 0
M  V30 8439 H 769.11 -3.65711 5.44602 0
M  V30 8440 H 769.027 -2.8767 6.99129 0
M  V30 8441 H 770.295 -4.02342 6.67639 0
M  V30 8442 N 774.524 -1.57472 -0.0634922 0
M  V30 8443 C 775.487 -2.03268 -1.059 0
M  V30 8444 C 776.487 -0.931028 -1.31105 0
M  V30 8445 O 777.677 -1.19567 -1.26686 0
M  V30 8446 C 774.809 -2.42039 -2.40062 0
M  V30 8447 H 776.002 -2.92454 -0.664119 0
M  V30 8448 H 773.555 -1.53206 -0.309444 0
M  V30 8449 H 774.29 -1.55904 -2.84367 0
M  V30 8450 H 774.075 -3.22437 -2.23108 0
M  V30 8451 H 775.565 -2.78017 -3.11603 0
M  V30 8452 N 776.003 0.335068 -1.53997 0
M  V30 8453 C 777.25 1.07435 -1.71651 0
M  V30 8454 C 777.578 1.88378 -0.48413 0
M  V30 8455 O 776.833 1.8827 0.534139 0
M  V30 8456 C 777.132 2.0364 -2.9371 0
M  V30 8457 C 776.798 1.38942 -4.28959 0
M  V30 8458 C 775.46 1.21027 -4.65732 0
M  V30 8459 C 777.812 0.924083 -5.12943 0
M  V30 8460 C 775.14 0.552097 -5.84097 0
M  V30 8461 C 777.492 0.27978 -6.31981 0
M  V30 8462 C 776.156 0.0883843 -6.67441 0
M  V30 8463 H 775.426 0.393133 -0.628114 0
M  V30 8464 H 778.073 0.352712 -1.88224 0
M  V30 8465 H 776.378 2.82215 -2.71775 0
M  V30 8466 H 778.075 2.6085 -3.04562 0
M  V30 8467 H 774.665 1.53885 -4.00022 0
M  V30 8468 H 778.849 1.05032 -4.85059 0
M  V30 8469 H 774.105 0.392502 -6.10139 0
M  V30 8470 H 778.279 -0.0888479 -6.96343 0
M  V30 8471 H 775.906 -0.423657 -7.59019 0
M  V30 8472 N 777.481 1.45874 0.596531 0
M  V30 8473 C 778.758 1.40942 1.35627 0
M  V30 8474 C 779.138 0.0857066 2.10926 0
M  V30 8475 O 778.486 -0.932544 2.08605 0
M  V30 8476 C 778.696 2.63027 2.29386 0
M  V30 8477 C 780.044 3.08588 2.91649 0
M  V30 8478 O 781.068 2.63478 2.39704 0
M  V30 8479 O 779.927 3.86902 3.85965 0
M  V30 8480 H 777.021 0.559838 0.608696 0
M  V30 8481 H 779.567 1.5802 0.618698 0
M  V30 8482 H 778.339 3.5094 1.7308 0
M  V30 8483 H 777.962 2.48338 3.10506 0
M  V30 8484 N 778.959 -0.83999 1.33349 0
M  V30 8485 C 780.206 -1.59517 1.24742 0
M  V30 8486 C 780.534 -1.93598 -0.187077 0
M  V30 8487 O 779.789 -1.58782 -1.14398 0
M  V30 8488 C 780.088 -2.91571 2.06691 0
M  V30 8489 C 779.754 -2.76856 3.55895 0
M  V30 8490 C 778.416 -2.72551 3.96572 0
M  V30 8491 C 780.768 -2.61741 4.50712 0
M  V30 8492 C 778.096 -2.51028 5.30285 0
M  V30 8493 C 780.448 -2.41752 5.84584 0
M  V30 8494 C 779.112 -2.35848 6.24445 0
M  V30 8495 H 778.382 -0.583714 0.456463 0
M  V30 8496 H 781.029 -0.973261 1.64924 0
M  V30 8497 H 779.334 -3.57961 1.59284 0
M  V30 8498 H 781.031 -3.49053 1.9739 0
M  V30 8499 H 777.621 -2.81039 3.23597 0
M  V30 8500 H 781.805 -2.64102 4.20195 0
M  V30 8501 H 777.061 -2.44903 5.60208 0
M  V30 8502 H 781.235 -2.2904 6.57658 0
M  V30 8503 H 778.862 -2.18931 7.27993 0
M  V30 8504 N 780.437 -1.16799 -1.0581 0
M  V30 8505 C 781.667 -0.975454 -1.82122 0
M  V30 8506 C 782.075 0.479584 -1.83021 0
M  V30 8507 O 781.418 1.34471 -1.25153 0
M  V30 8508 C 781.48 -1.43209 -3.29744 0
M  V30 8509 C 781.144 -2.908 -3.5254 0
M  V30 8510 C 782.141 -3.88775 -3.45181 0
M  V30 8511 C 779.826 -3.28832 -3.79703 0
M  V30 8512 C 781.82 -5.22782 -3.64661 0
M  V30 8513 C 779.507 -4.63007 -3.98832 0
M  V30 8514 C 780.505 -5.59791 -3.91309 0
M  V30 8515 O 780.193 -6.9154 -4.09911 0
M  V30 8516 H 779.925 -0.345655 -0.580947 0
M  V30 8517 H 782.479 -1.55355 -1.34365 0
M  V30 8518 H 780.709 -0.797504 -3.78387 0
M  V30 8519 H 782.398 -1.2062 -3.87564 0
M  V30 8520 H 783.164 -3.60738 -3.2418 0
M  V30 8521 H 779.043 -2.54073 -3.84666 0
M  V30 8522 H 782.587 -5.98312 -3.58705 0
M  V30 8523 H 778.484 -4.90752 -4.19324 0
M  V30 8524 H 779.252 -6.98188 -4.27172 0
M  V30 8525 N 781.915 1.24427 -0.967243 0
M  V30 8526 C 782.862 2.25398 -0.496419 0
M  V30 8527 C 783.832 1.59667 0.457781 0
M  V30 8528 O 785.017 1.87213 0.368246 0
M  V30 8529 C 782.157 3.44474 0.207693 0
M  V30 8530 C 781.27 4.24804 -0.785221 0
M  V30 8531 C 780.405 5.31169 -0.0572631 0
M  V30 8532 C 779.444 6.03195 -1.04027 0
M  V30 8533 N 778.581 7.01265 -0.34235 0
M  V30 8534 H 783.421 2.65039 -1.36229 0
M  V30 8535 H 780.958 1.30288 -0.682902 0
M  V30 8536 H 782.916 4.12376 0.632612 0
M  V30 8537 H 781.546 3.05672 1.03752 0
M  V30 8538 H 780.598 3.56445 -1.32858 0
M  V30 8539 H 781.91 4.74599 -1.53483 0
M  V30 8540 H 781.064 6.05205 0.425674 0
M  V30 8541 H 779.803 4.8228 0.725047 0
M  V30 8542 H 778.808 5.27964 -1.53409 0
M  V30 8543 H 780.033 6.54173 -1.82302 0
M  V30 8544 H 777.979 6.54648 0.420993 0
M  V30 8545 H 777.896 7.48939 -1.03084 0
M  V30 8546 H 779.164 7.7941 0.118634 0
M  V30 8547 N 783.393 0.737304 1.3929 0
M  V30 8548 C 784.639 0.286681 2.00763 0
M  V30 8549 C 784.972 -1.12388 1.58375 0
M  V30 8550 O 784.247 -1.76661 0.813699 0
M  V30 8551 C 784.53 0.391147 3.57969 0
M  V30 8552 C 784.383 1.84165 4.1037 0
M  V30 8553 C 785.702 -0.225072 4.39524 0
M  V30 8554 H 782.821 0.105642 0.729389 0
M  V30 8555 H 785.463 0.933892 1.65464 0
M  V30 8556 H 783.613 -0.159875 3.88171 0
M  V30 8557 H 785.285 2.44972 3.90879 0
M  V30 8558 H 783.528 2.3622 3.63844 0
M  V30 8559 H 784.199 1.866 5.19504 0
M  V30 8560 H 786.675 0.244677 4.1538 0
M  V30 8561 H 785.551 -0.121646 5.48765 0
M  V30 8562 H 785.812 -1.31141 4.22202 0
M  V30 8563 N 784.871 -1.49948 0.485112 0
M  V30 8564 C 786.12 -2.01589 -0.066765 0
M  V30 8565 C 786.433 -1.371 -1.39509 0
M  V30 8566 O 787.639 -1.79978 -2.03274 0
M  V30 8567 C 786.095 -3.59501 -0.169476 0
M  V30 8568 C 785.703 -4.32955 1.15126 0
M  V30 8569 C 787.447 -4.19138 -0.672564 0
M  V30 8570 C 785.354 -5.82684 1.01158 0
M  V30 8571 H 784.284 -0.753453 -0.0287259 0
M  V30 8572 H 786.935 -1.72632 0.622132 0
M  V30 8573 H 785.317 -3.85106 -0.922471 0
M  V30 8574 H 786.491 -4.19064 1.9163 0
M  V30 8575 H 784.806 -3.84991 1.58654 0
M  V30 8576 H 787.403 -5.28767 -0.794325 0
M  V30 8577 H 787.746 -3.81447 -1.66745 0
M  V30 8578 H 788.279 -3.97793 0.0234415 0
M  V30 8579 H 785.018 -6.24873 1.98025 0
M  V30 8580 H 784.538 -5.99112 0.287151 0
M  V30 8581 H 786.217 -6.43376 0.683847 0
M  V30 8582 N 786.349 -0.21828 -1.56081 0
M  V30 8583 C 787.259 0.704602 -2.23769 0
M  V30 8584 C 788.275 1.21633 -1.24425 0
M  V30 8585 O 789.451 1.25862 -1.57228 0
M  V30 8586 C 786.516 1.89725 -2.90182 0
M  V30 8587 C 785.577 1.42782 -4.0486 0
M  V30 8588 C 784.81 2.56361 -4.68097 0
M  V30 8589 O 785.033 3.74417 -4.30312 0
M  V30 8590 O 783.967 2.2775 -5.57148 0
M  V30 8591 H 787.793 0.158007 -3.03289 0
M  V30 8592 H 785.378 0.0120279 -1.49395 0
M  V30 8593 H 787.26 2.59382 -3.32113 0
M  V30 8594 H 785.935 2.432 -2.13624 0
M  V30 8595 H 784.842 0.699359 -3.67505 0
M  V30 8596 H 786.175 0.939474 -4.83151 0
M  V30 8597 N 787.827 1.57504 0.0551401 0
M  V30 8598 C 789.052 1.92682 0.767352 0
M  V30 8599 C 789.477 0.81614 1.69472 0
M  V30 8600 O 788.835 -0.229989 1.79835 0
M  V30 8601 C 788.883 3.26866 1.52286 0
M  V30 8602 O 787.987 3.17274 2.63459 0
M  V30 8603 H 787.328 0.630502 0.208238 0
M  V30 8604 H 789.858 2.04592 0.0184026 0
M  V30 8605 H 789.868 3.61138 1.8985 0
M  V30 8606 H 788.543 4.07276 0.842541 0
M  V30 8607 H 787.12 2.94589 2.2863 0
M  V30 8608 N 789.305 -0.326896 1.54172 0
M  V30 8609 C 790.552 -1.06523 1.72218 0
M  V30 8610 C 790.88 -1.88119 0.494114 0
M  V30 8611 O 790.135 -1.8855 -0.524147 0
M  V30 8612 C 790.434 -2.0208 2.94785 0
M  V30 8613 C 790.1 -1.36665 4.2969 0
M  V30 8614 C 788.762 -1.18556 4.66367 0
M  V30 8615 C 791.114 -0.896868 5.13425 0
M  V30 8616 C 788.442 -0.521113 5.84381 0
M  V30 8617 C 790.794 -0.246261 6.3212 0
M  V30 8618 C 789.458 -0.052987 6.67479 0
M  V30 8619 H 788.728 -0.389796 0.63019 0
M  V30 8620 H 791.375 -0.342725 1.88408 0
M  V30 8621 H 789.68 -2.8077 2.73268 0
M  V30 8622 H 791.377 -2.59231 3.05941 0
M  V30 8623 H 787.967 -1.51762 4.00832 0
M  V30 8624 H 792.151 -1.02458 4.85609 0
M  V30 8625 H 787.407 -0.36014 6.10338 0
M  V30 8626 H 791.581 0.125775 6.96286 0
M  V30 8627 H 789.208 0.463903 7.58783 0
M  V30 8628 N 790.784 -1.46188 -0.588786 0
M  V30 8629 C 792.033 -1.50452 -1.34339 0
M  V30 8630 C 792.346 -0.158096 -1.9496 0
M  V30 8631 O 793.552 -0.0784918 -2.71387 0
M  V30 8632 C 792.008 -2.65074 -2.43441 0
M  V30 8633 C 791.616 -4.06111 -1.8915 0
M  V30 8634 C 793.36 -2.78603 -3.20282 0
M  V30 8635 C 791.267 -5.12084 -2.95845 0
M  V30 8636 H 790.197 -0.559905 -0.504997 0
M  V30 8637 H 792.848 -1.72382 -0.629014 0
M  V30 8638 H 791.23 -2.36462 -3.1765 0
M  V30 8639 H 792.404 -4.44487 -1.21524 0
M  V30 8640 H 790.719 -3.97197 -1.24995 0
M  V30 8641 H 793.316 -3.54944 -3.99898 0
M  V30 8642 H 793.659 -1.85902 -3.72486 0
M  V30 8643 H 794.192 -3.06832 -2.53178 0
M  V30 8644 H 790.931 -6.06556 -2.48535 0
M  V30 8645 H 790.451 -4.78259 -3.61979 0
M  V30 8646 H 792.13 -5.37661 -3.59902 0
M  V30 8647 N 792.262 0.832906 -1.33792 0
M  V30 8648 C 793.209 1.94314 -1.24541 0
M  V30 8649 C 794.179 1.65646 -0.122753 0
M  V30 8650 O 795.364 1.88394 -0.30204 0
M  V30 8651 C 792.504 3.30395 -0.996641 0
M  V30 8652 C 791.617 3.71422 -2.20612 0
M  V30 8653 C 790.752 4.96401 -1.89101 0
M  V30 8654 C 789.791 5.2998 -3.06247 0
M  V30 8655 N 788.928 6.46137 -2.74685 0
M  V30 8656 H 793.768 2.01559 -2.19495 0
M  V30 8657 H 791.305 0.986243 -1.09141 0
M  V30 8658 H 793.263 4.08803 -0.832817 0
M  V30 8659 H 791.893 3.22691 -0.0838242 0
M  V30 8660 H 790.945 2.88488 -2.47949 0
M  V30 8661 H 792.257 3.92215 -3.0817 0
M  V30 8662 H 791.411 5.82572 -1.69396 0
M  V30 8663 H 790.15 4.7759 -0.987882 0
M  V30 8664 H 789.155 4.42312 -3.26559 0
M  V30 8665 H 790.38 5.50737 -3.97323 0
M  V30 8666 H 788.326 6.28801 -1.86938 0
M  V30 8667 H 788.243 6.67054 -3.55774 0
M  V30 8668 H 789.511 7.35403 -2.58461 0
M  V30 8669 N 793.74 1.17359 1.05189 0
M  V30 8670 C 794.703 0.892604 2.11105 0
M  V30 8671 C 795.703 -0.117236 1.60372 0
M  V30 8672 O 796.893 0.114936 1.7382 0
M  V30 8673 C 794.025 0.337032 3.3923 0
M  V30 8674 H 795.218 1.83169 2.37464 0
M  V30 8675 H 792.771 0.984051 1.21434 0
M  V30 8676 H 793.506 -0.609198 3.18527 0
M  V30 8677 H 793.291 1.06484 3.77364 0
M  V30 8678 H 794.781 0.158763 4.17298 0
M  V30 8679 N 795.218 -1.23913 0.973828 0
M  V30 8680 C 796.128 -2.28838 0.516735 0
M  V30 8681 C 797.144 -1.68723 -0.425282 0
M  V30 8682 O 798.32 -1.99201 -0.296819 0
M  V30 8683 C 795.385 -3.46233 -0.179914 0
M  V30 8684 C 794.446 -4.21729 0.80269 0
M  V30 8685 C 793.679 -5.33518 0.139191 0
M  V30 8686 O 793.902 -5.60252 -1.07118 0
M  V30 8687 O 792.836 -5.96088 0.834447 0
M  V30 8688 H 796.662 -2.70067 1.38916 0
M  V30 8689 H 794.247 -1.2972 0.74115 0
M  V30 8690 H 796.129 -4.17514 -0.570991 0
M  V30 8691 H 794.804 -3.06969 -1.02721 0
M  V30 8692 H 793.711 -3.52799 1.24434 0
M  V30 8693 H 795.044 -4.64825 1.61859 0
M  V30 8694 N 796.696 -0.74468 -1.38897 0
M  V30 8695 C 797.944 -0.296298 -1.99916 0
M  V30 8696 C 798.265 1.12325 -1.59399 0
M  V30 8697 O 797.535 1.76658 -0.846689 0
M  V30 8698 H 796.115 -0.106561 -0.73936 0
M  V30 8699 H 798.777 -0.956793 -1.69798 0
M  V30 8700 H 797.873 -0.352356 -3.10105 0
M  V30 8701 N 798.174 1.49689 -0.493057 0
M  V30 8702 C 799.122 2.30613 0.303383 0
M  V30 8703 C 800.116 1.38867 0.970165 0
M  V30 8704 O 801.322 1.55956 0.898761 0
M  V30 8705 H 797.697 0.742891 0.116691 0
M  V30 8706 H 799.668 2.95717 -0.39924 0
M  V30 8707 C 798.417 3.20008 1.35978 0
M  V30 8708 H 797.74 3.90526 0.856103 0
M  V30 8709 H 799.18 3.79586 1.88919 0
M  V30 8710 C 797.639 2.39079 2.37367 0
M  V30 8711 O 798.169 2.08933 3.43089 0
M  V30 8712 N 796.375 2.0125 2.09635 0
M  V30 8713 H 795.922 2.25966 1.23682 0
M  V30 8714 H 795.88 1.47408 2.77702 0
M  V30 8715 N 799.652 0.226554 1.55963 0
M  V30 8716 C 800.582 -0.676079 2.23498 0
M  V30 8717 C 801.563 -1.19718 1.20837 0
M  V30 8718 O 802.748 -1.24027 1.49436 0
M  V30 8719 C 799.878 -1.88217 2.91876 0
M  V30 8720 C 798.832 -1.4947 4.01052 0
M  V30 8721 C 798.158 -2.77997 4.56751 0
M  V30 8722 C 799.458 -0.680951 5.17842 0
M  V30 8723 H 801.152 -0.112989 2.99187 0
M  V30 8724 H 798.698 -0.0529046 1.43903 0
M  V30 8725 H 800.651 -2.51911 3.37815 0
M  V30 8726 H 799.375 -2.47031 2.13643 0
M  V30 8727 H 798.034 -0.881199 3.55852 0
M  V30 8728 H 797.682 -3.34966 3.75243 0
M  V30 8729 H 797.382 -2.52803 5.30438 0
M  V30 8730 H 798.906 -3.42625 5.05411 0
M  V30 8731 H 800.32 -1.22171 5.60131 0
M  V30 8732 H 798.717 -0.525898 5.97791 0
M  V30 8733 H 799.787 0.311346 4.83899 0
M  V30 8734 N 801.13 -1.57531 -0.0467866 0
M  V30 8735 C 802.358 -1.92696 -0.753371 0
M  V30 8736 C 802.773 -0.824792 -1.69831 0
M  V30 8737 O 802.13 0.200155 -1.81399 0
M  V30 8738 C 802.181 -3.27728 -1.52566 0
M  V30 8739 O 801.902 -4.3371 -0.618674 0
M  V30 8740 C 803.403 -3.77066 -2.33101 0
M  V30 8741 H 800.623 -0.636367 -0.212788 0
M  V30 8742 H 803.167 -2.04498 -0.00959361 0
M  V30 8743 H 801.322 -3.17378 -2.22148 0
M  V30 8744 H 801.736 -5.11548 -1.15839 0
M  V30 8745 H 803.21 -4.74109 -2.82709 0
M  V30 8746 H 803.687 -3.07348 -3.13741 0
M  V30 8747 H 804.293 -3.90442 -1.68628 0
M  V30 8748 N 802.608 0.318715 -1.54344 0
M  V30 8749 C 804.024 0.663345 -1.45162 0
M  V30 8750 C 804.224 1.9145 -0.62842 0
M  V30 8751 O 803.28 2.5217 -0.129126 0
M  V30 8752 C 804.593 0.832836 -2.88937 0
M  V30 8753 C 806.141 0.929866 -2.98869 0
M  V30 8754 C 806.616 1.13149 -4.43803 0
M  V30 8755 N 808.107 1.19811 -4.47437 0
M  V30 8756 C 808.842 1.37209 -5.56742 0
M  V30 8757 N 808.338 1.51619 -6.76006 0
M  V30 8758 N 810.131 1.39956 -5.44398 0
M  V30 8759 H 802.282 -0.50357 -2.06344 0
M  V30 8760 H 804.545 -0.163528 -0.933789 0
M  V30 8761 H 804.251 -0.0153519 -3.51697 0
M  V30 8762 H 804.125 1.72721 -3.35332 0
M  V30 8763 H 806.512 1.76855 -2.36233 0
M  V30 8764 H 806.593 0.0118561 -2.55797 0
M  V30 8765 H 806.237 0.297636 -5.07027 0
M  V30 8766 H 806.167 2.06345 -4.84489 0
M  V30 8767 H 808.658 1.101 -3.61506 0
M  V30 8768 H 808.971 1.64599 -7.55067 0
M  V30 8769 H 807.316 1.48708 -6.78904 0
M  V30 8770 H 810.507 1.28298 -4.50175 0
M  V30 8771 H 810.68 1.53172 -6.29637 0
M  V30 8772 N 804.086 1.46499 0.581025 0
M  V30 8773 C 804.996 1.59778 1.71779 0
M  V30 8774 C 806.012 0.481223 1.67213 0
M  V30 8775 O 807.188 0.74557 1.87091 0
M  V30 8776 C 804.253 1.58626 3.08283 0
M  V30 8777 C 803.314 2.81527 3.241 0
M  V30 8778 C 802.547 2.80421 4.54092 0
M  V30 8779 O 802.77 1.89262 5.38085 0
M  V30 8780 O 801.704 3.71984 4.73193 0
M  V30 8781 H 805.53 2.55918 1.63523 0
M  V30 8782 H 803.115 1.29311 0.748267 0
M  V30 8783 H 804.997 1.60686 3.89561 0
M  V30 8784 H 803.672 0.656467 3.16973 0
M  V30 8785 H 802.579 2.85021 2.42309 0
M  V30 8786 H 803.912 3.73721 3.20302 0
M  V30 8787 N 805.565 -0.825799 1.34232 0
M  V30 8788 C 806.498 -1.94155 1.19914 0
M  V30 8789 C 807.476 -1.62343 0.0914533 0
M  V30 8790 O 808.66 -1.86752 0.256082 0
M  V30 8791 C 805.787 -3.28064 0.842138 0
M  V30 8792 C 804.833 -3.78839 1.95917 0
M  V30 8793 S 805.666 -3.98943 3.57218 0
M  V30 8794 C 806.822 -5.35783 3.23554 0
M  V30 8795 H 807.055 -2.06003 2.14359 0
M  V30 8796 H 804.588 -0.981053 1.19225 0
M  V30 8797 H 806.546 -4.05434 0.642952 0
M  V30 8798 H 805.207 -3.13988 -0.0839363 0
M  V30 8799 H 804.4 -4.75771 1.66306 0
M  V30 8800 H 804.002 -3.08406 2.11569 0
M  V30 8801 H 806.294 -6.19094 2.7519 0
M  V30 8802 H 807.237 -5.70376 4.19615 0
M  V30 8803 H 807.645 -5.01158 2.5981 0
M  V30 8804 N 807.043 -1.17915 -1.04565 0
M  V30 8805 C 808.292 -0.965816 -1.77073 0
M  V30 8806 C 808.605 0.506005 -1.88942 0
M  V30 8807 O 809.811 0.837717 -2.58253 0
M  V30 8808 C 808.267 -1.67894 -3.18339 0
M  V30 8809 C 807.875 -3.18972 -3.1458 0
M  V30 8810 C 809.619 -1.54823 -3.9526 0
M  V30 8811 C 807.526 -3.82946 -4.50674 0
M  V30 8812 H 806.456 -0.357729 -0.663736 0
M  V30 8813 H 809.107 -1.41235 -1.17153 0
M  V30 8814 H 807.489 -1.16016 -3.78624 0
M  V30 8815 H 808.663 -3.77835 -2.63776 0
M  V30 8816 H 806.978 -3.32127 -2.51159 0
M  V30 8817 H 809.575 -1.99984 -4.95894 0
M  V30 8818 H 809.918 -0.499727 -4.1329 0
M  V30 8819 H 810.451 -2.03953 -3.41538 0
M  V30 8820 H 807.19 -4.8782 -4.37849 0
M  V30 8821 H 806.71 -3.2887 -5.01602 0
M  V30 8822 H 808.389 -3.85518 -5.196 0
M  V30 8823 N 808.521 1.23394 -0.980386 0
M  V30 8824 C 809.468 2.24859 -0.520298 0
M  V30 8825 C 810.438 1.60144 0.440821 0
M  V30 8826 O 811.623 1.87593 0.348369 0
M  V30 8827 C 808.763 3.44675 0.171145 0
M  V30 8828 C 807.876 4.23947 -0.830233 0
M  V30 8829 C 807.011 5.31079 -0.113597 0
M  V30 8830 C 806.05 6.02058 -1.10419 0
M  V30 8831 N 805.187 7.00862 -0.416709 0
M  V30 8832 H 810.027 2.63579 -1.39032 0
M  V30 8833 H 807.564 1.29556 -0.696682 0
M  V30 8834 H 809.522 4.13024 0.588838 0
M  V30 8835 H 808.152 3.06755 1.00504 0
M  V30 8836 H 807.204 3.55016 -1.36631 0
M  V30 8837 H 808.516 4.72945 -1.58508 0
M  V30 8838 H 807.67 6.05622 0.36146 0
M  V30 8839 H 806.409 4.83022 0.673854 0
M  V30 8840 H 805.414 5.26307 -1.59 0
M  V30 8841 H 806.639 6.52203 -1.8923 0
M  V30 8842 H 804.585 6.55057 0.351535 0
M  V30 8843 H 804.502 7.47804 -1.11021 0
M  V30 8844 H 805.77 7.79492 0.0359606 0
M  V30 8845 N 809.999 0.752036 1.385 0
M  V30 8846 C 810.949 0.0990189 2.27785 0
M  V30 8847 C 811.933 -0.694867 1.45122 0
M  V30 8848 O 813.125 -0.561077 1.67872 0
M  V30 8849 C 810.254 -0.794531 3.33979 0
M  V30 8850 C 809.34 0.00611984 4.241 0
M  V30 8851 N 809.731 1.04174 4.94956 0
M  V30 8852 C 808.029 -0.220934 4.45452 0
M  V30 8853 C 808.73 1.52601 5.61327 0
M  V30 8854 N 807.706 0.84159 5.37046 0
M  V30 8855 H 811.508 0.892208 2.8003 0
M  V30 8856 H 809.022 0.587934 1.51384 0
M  V30 8857 H 811.019 -1.27797 3.96829 0
M  V30 8858 H 809.679 -1.58669 2.83292 0
M  V30 8859 H 810.69 1.42349 4.97953 0
M  V30 8860 H 807.367 -0.986556 4.05676 0
M  V30 8861 H 808.757 2.38857 6.2801 0
M  V30 8862 N 811.477 -1.49425 0.500989 0
M  V30 8863 C 812.407 -2.31971 -0.266775 0
M  V30 8864 C 813.388 -1.40245 -0.962563 0
M  V30 8865 O 814.573 -1.69154 -0.953968 0
M  V30 8866 C 811.703 -3.20757 -1.33163 0
M  V30 8867 C 810.657 -4.21275 -0.75572 0
M  V30 8868 C 809.983 -4.98997 -1.92109 0
M  V30 8869 C 811.283 -5.21686 0.253213 0
M  V30 8870 H 812.977 -2.96408 0.422237 0
M  V30 8871 H 810.523 -1.4254 0.204505 0
M  V30 8872 H 812.476 -3.77315 -1.87646 0
M  V30 8873 H 811.2 -2.54263 -2.04983 0
M  V30 8874 H 809.859 -3.65861 -0.232637 0
M  V30 8875 H 809.507 -4.28951 -2.62698 0
M  V30 8876 H 809.207 -5.67011 -1.54182 0
M  V30 8877 H 810.731 -5.584 -2.47026 0
M  V30 8878 H 812.145 -5.72939 -0.203483 0
M  V30 8879 H 810.542 -5.9759 0.548322 0
M  V30 8880 H 811.612 -4.70596 1.16909 0
M  V30 8881 N 812.955 -0.234822 -1.55841 0
M  V30 8882 C 813.865 0.680828 -2.24504 0
M  V30 8883 C 814.881 1.20306 -1.25708 0
M  V30 8884 O 816.057 1.24188 -1.58554 0
M  V30 8885 C 813.122 1.86636 -2.92178 0
M  V30 8886 C 812.183 1.3848 -4.06352 0
M  V30 8887 C 811.416 2.51382 -4.70789 0
M  V30 8888 O 811.639 3.69831 -4.34259 0
M  V30 8889 O 810.573 2.21828 -5.59532 0
M  V30 8890 H 814.399 0.12583 -3.03439 0
M  V30 8891 H 811.984 -0.00381817 -1.494 0
M  V30 8892 H 813.866 2.55845 -3.34845 0
M  V30 8893 H 812.541 2.40921 -2.16192 0
M  V30 8894 H 811.448 0.660341 -3.68226 0
M  V30 8895 H 812.781 0.888177 -4.8412 0
M  V30 8896 N 814.433 1.57553 0.0384317 0
M  V30 8897 C 815.849 1.54663 0.39391 0
M  V30 8898 C 816.049 0.959685 1.77179 0
M  V30 8899 O 815.105 0.576647 2.45827 0
M  V30 8900 C 816.418 2.99156 0.304352 0
M  V30 8901 C 817.966 3.10659 0.382119 0
M  V30 8902 C 818.441 4.56866 0.322111 0
M  V30 8903 N 819.932 4.61629 0.38119 0
M  V30 8904 C 820.667 5.72284 0.357501 0
M  V30 8905 N 820.163 6.92207 0.286654 0
M  V30 8906 N 821.956 5.60628 0.406538 0
M  V30 8907 H 814.107 1.9406 -0.86339 0
M  V30 8908 H 816.37 0.889673 -0.327392 0
M  V30 8909 H 816.076 3.45788 -0.642141 0
M  V30 8910 H 815.95 3.60753 1.10168 0
M  V30 8911 H 818.337 2.6398 1.31904 0
M  V30 8912 H 818.418 2.5191 -0.444391 0
M  V30 8913 H 818.062 5.0421 -0.611104 0
M  V30 8914 H 817.992 5.13515 1.1666 0
M  V30 8915 H 820.483 3.75343 0.438838 0
M  V30 8916 H 820.796 7.72316 0.273421 0
M  V30 8917 H 819.141 6.9454 0.252841 0
M  V30 8918 H 822.332 4.65836 0.459812 0
M  V30 8919 H 822.505 6.46858 0.384608 0
M  V30 8920 N 815.911 -0.310526 1.54511 0
M  V30 8921 C 817.151 -1.05498 1.7507 0
M  V30 8922 C 817.515 -1.84814 0.520381 0
M  V30 8923 O 818.716 -2.61937 0.603547 0
M  V30 8924 C 816.987 -1.94466 2.99863 0
M  V30 8925 S 818.546 -2.75686 3.41383 0
M  V30 8926 H 815.364 -0.355951 0.615483 0
M  V30 8927 H 817.966 -0.329464 1.92704 0
M  V30 8928 H 816.67 -1.35055 3.87541 0
M  V30 8929 H 816.201 -2.71401 2.84789 0
M  V30 8930 H 818.216 -3.96971 2.97706 0
M  V30 8931 N 817.389 -1.46805 -0.573248 0
M  V30 8932 C 818.299 -1.60687 -1.70929 0
M  V30 8933 C 819.315 -0.490084 -1.66956 0
M  V30 8934 O 820.491 -0.755482 -1.86693 0
M  V30 8935 C 817.556 -1.60259 -3.07438 0
M  V30 8936 C 816.617 -2.83242 -3.22603 0
M  V30 8937 C 815.85 -2.82825 -4.52599 0
M  V30 8938 O 816.073 -1.92113 -5.37074 0
M  V30 8939 O 815.007 -3.74489 -4.71213 0
M  V30 8940 H 818.833 -2.56782 -1.62163 0
M  V30 8941 H 816.418 -1.29706 -0.741399 0
M  V30 8942 H 818.3 -1.6275 -3.88704 0
M  V30 8943 H 816.975 -0.673268 -3.16621 0
M  V30 8944 H 815.882 -2.86302 -2.40794 0
M  V30 8945 H 817.215 -3.75415 -3.18315 0
M  V30 8946 N 818.867 0.818669 -1.34668 0
M  V30 8947 C 819.817 1.91882 -1.23147 0
M  V30 8948 C 820.801 1.60378 -0.129509 0
M  V30 8949 O 821.993 1.73309 -0.359581 0
M  V30 8950 C 819.122 3.28612 -0.993436 0
M  V30 8951 C 818.208 3.66221 -2.13876 0
M  V30 8952 N 818.599 3.75361 -3.39024 0
M  V30 8953 C 816.897 3.96098 -2.04994 0
M  V30 8954 C 817.598 4.0836 -4.14266 0
M  V30 8955 N 816.574 4.21806 -3.429 0
M  V30 8956 H 820.376 1.97133 -2.17981 0
M  V30 8957 H 817.89 1.01257 -1.26967 0
M  V30 8958 H 819.887 4.0725 -0.891797 0
M  V30 8959 H 818.547 3.24655 -0.053824 0
M  V30 8960 H 819.558 3.58747 -3.73525 0
M  V30 8961 H 816.235 4.00236 -1.18816 0
M  V30 8962 H 817.625 4.226 -5.22359 0
M  V30 8963 N 820.346 1.18468 1.03938 0
M  V30 8964 C 821.762 0.934635 1.29371 0
M  V30 8965 C 821.962 -0.399067 1.97509 0
M  V30 8966 O 821.018 -1.13309 2.25648 0
M  V30 8967 C 822.331 2.10111 2.15114 0
M  V30 8968 C 823.879 2.13955 2.28456 0
M  V30 8969 C 824.354 3.30024 3.17566 0
M  V30 8970 N 825.845 3.29893 3.25153 0
M  V30 8971 C 826.58 4.16346 3.94263 0
M  V30 8972 N 826.076 5.12934 4.65693 0
M  V30 8973 N 827.869 4.04256 3.90556 0
M  V30 8974 H 820.02 2.04294 0.581185 0
M  V30 8975 H 822.283 0.892727 0.318971 0
M  V30 8976 H 821.989 3.06572 1.72355 0
M  V30 8977 H 821.863 2.06283 3.15796 0
M  V30 8978 H 824.25 1.18072 2.7045 0
M  V30 8979 H 824.331 2.2184 1.2736 0
M  V30 8980 H 823.975 4.26181 2.76283 0
M  V30 8981 H 823.905 3.19376 4.18697 0
M  V30 8982 H 826.396 2.59969 2.74271 0
M  V30 8983 H 826.709 5.75271 5.16026 0
M  V30 8984 H 825.054 5.16893 4.64593 0
M  V30 8985 H 828.245 3.28083 3.33885 0
M  V30 8986 H 828.418 4.71848 4.44144 0
M  V30 8987 N 821.824 -1.22873 0.986916 0
M  V30 8988 C 823.073 -1.90772 0.654911 0
M  V30 8989 C 823.386 -1.77768 -0.81595 0
M  V30 8990 O 824.592 -2.40529 -1.25929 0
M  V30 8991 C 823.048 -3.42003 1.12081 0
M  V30 8992 C 822.656 -3.63655 2.61647 0
M  V30 8993 C 824.4 -4.15638 0.862854 0
M  V30 8994 C 822.307 -5.08555 3.01871 0
M  V30 8995 H 821.237 -0.714362 0.241252 0
M  V30 8996 H 823.888 -1.39196 1.19568 0
M  V30 8997 H 822.27 -3.92725 0.508207 0
M  V30 8998 H 823.444 -3.2345 3.28202 0
M  V30 8999 H 821.759 -3.03341 2.8526 0
M  V30 9000 H 824.356 -5.22425 1.13915 0
M  V30 9001 H 824.699 -4.15814 -0.201036 0
M  V30 9002 H 825.232 -3.70924 1.43736 0
M  V30 9003 H 821.971 -5.13514 4.07411 0
M  V30 9004 H 821.491 -5.49684 2.40015 0
M  V30 9005 H 823.17 -5.76936 2.92839 0
M  V30 9006 N 823.302 -0.75937 -1.38099 0
M  V30 9007 C 824.235 -0.0838362 -2.28046 0
M  V30 9008 C 825.213 0.722229 -1.4568 0
M  V30 9009 O 826.397 0.699629 -1.75036 0
M  V30 9010 C 823.524 0.887916 -3.26854 0
M  V30 9011 C 822.57 0.167374 -4.26171 0
M  V30 9012 S 823.403 -1.13592 -5.23314 0
M  V30 9013 C 824.559 -0.167385 -6.25676 0
M  V30 9014 H 824.792 -0.846564 -2.84992 0
M  V30 9015 H 822.325 -0.552206 -1.44188 0
M  V30 9016 H 824.283 1.44322 -3.84293 0
M  V30 9017 H 822.944 1.62366 -2.68879 0
M  V30 9018 H 822.137 0.903567 -4.95834 0
M  V30 9019 H 821.739 -0.316572 -3.72658 0
M  V30 9020 H 824.031 0.664598 -6.74232 0
M  V30 9021 H 824.974 -0.831836 -7.03197 0
M  V30 9022 H 825.382 0.21589 -5.64087 0
M  V30 9023 N 824.78 1.49157 -0.508906 0
M  V30 9024 C 825.69 2.33045 0.269656 0
M  V30 9025 C 826.706 1.45143 0.959662 0
M  V30 9026 O 827.882 1.78155 0.939295 0
M  V30 9027 C 824.947 3.20772 1.31554 0
M  V30 9028 C 824.008 4.24531 0.638131 0
M  V30 9029 C 823.241 5.08065 1.63418 0
M  V30 9030 O 823.464 4.93238 2.86483 0
M  V30 9031 O 822.398 5.90117 1.18516 0
M  V30 9032 H 826.224 3.00821 -0.417183 0
M  V30 9033 H 823.809 1.46938 -0.270119 0
M  V30 9034 H 825.691 3.75095 1.92047 0
M  V30 9035 H 824.366 2.55681 1.98516 0
M  V30 9036 H 823.273 3.74099 -0.00674357 0
M  V30 9037 H 824.606 4.92199 0.0108155 0
M  V30 9038 N 826.258 0.243083 1.55714 0
M  V30 9039 C 827.483 -0.389944 2.03701 0
M  V30 9040 C 827.908 -1.51025 1.12129 0
M  V30 9041 O 827.266 -1.80944 0.11352 0
M  V30 9042 C 827.314 -0.878649 3.49731 0
M  V30 9043 O 826.418 -1.98851 3.61292 0
M  V30 9044 H 825.759 -0.0855115 0.658471 0
M  V30 9045 H 828.289 0.368023 2.01263 0
M  V30 9046 H 828.299 -1.18287 3.90477 0
M  V30 9047 H 826.974 -0.0588107 4.15858 0
M  V30 9048 H 825.551 -1.68928 3.32442 0
M  V30 9049 N 827.736 -1.57571 -0.0300757 0
M  V30 9050 C 828.666 -2.0953 -1.03051 0
M  V30 9051 C 829.647 -0.99761 -1.37774 0
M  V30 9052 O 830.832 -1.27279 -1.46676 0
M  V30 9053 C 827.962 -2.57385 -2.33174 0
M  V30 9054 C 826.916 -3.71409 -2.12696 0
M  V30 9055 C 826.242 -4.05467 -3.4857 0
M  V30 9056 C 827.542 -4.99877 -1.51396 0
M  V30 9057 H 829.236 -2.93367 -0.597999 0
M  V30 9058 H 826.782 -1.41127 -0.286203 0
M  V30 9059 H 828.735 -2.92355 -3.03491 0
M  V30 9060 H 827.459 -1.70629 -2.78484 0
M  V30 9061 H 826.118 -3.36786 -1.44813 0
M  V30 9062 H 825.766 -3.15779 -3.91526 0
M  V30 9063 H 825.466 -4.82269 -3.35694 0
M  V30 9064 H 826.99 -4.4297 -4.2025 0
M  V30 9065 H 828.404 -5.3281 -2.11629 0
M  V30 9066 H 826.801 -5.81283 -1.49098 0
M  V30 9067 H 827.871 -4.82522 -0.479676 0
M  V30 9068 N 829.214 0.302327 -1.54673 0
M  V30 9069 C 830.177 1.35592 -1.8479 0
M  V30 9070 C 831.177 1.43743 -0.72073 0
M  V30 9071 O 832.367 1.43402 -0.989017 0
M  V30 9072 C 829.499 2.74091 -2.02699 0
M  V30 9073 H 830.692 1.10132 -2.78946 0
M  V30 9074 H 828.245 0.538926 -1.46715 0
M  V30 9075 H 828.98 3.04775 -1.10826 0
M  V30 9076 H 828.765 2.69565 -2.8474 0
M  V30 9077 H 830.255 3.50272 -2.27374 0
M  V30 9078 N 830.692 1.47107 0.565454 0
M  V30 9079 C 831.938 1.54519 1.3227 0
M  V30 9080 C 832.293 0.201313 1.91344 0
M  V30 9081 O 831.586 -0.792058 1.74462 0
M  V30 9082 C 831.78 2.59309 2.45954 0
M  V30 9083 C 831.609 4.03756 1.98019 0
M  V30 9084 C 830.379 4.71293 1.8224 0
M  V30 9085 C 832.577 4.91029 1.52955 0
M  V30 9086 N 830.559 6.00288 1.28557 0
M  V30 9087 C 831.93 6.09986 1.10981 0
M  V30 9088 C 833.985 4.77539 1.4093 0
M  V30 9089 C 832.688 7.16943 0.581796 0
M  V30 9090 C 834.714 5.84584 0.895307 0
M  V30 9091 C 834.076 7.02725 0.485454 0
M  V30 9092 H 830.175 0.620177 0.476345 0
M  V30 9093 H 832.759 1.83814 0.641901 0
M  V30 9094 H 830.93 2.31896 3.11575 0
M  V30 9095 H 832.662 2.56614 3.1294 0
M  V30 9096 H 829.417 4.27074 2.04707 0
M  V30 9097 H 829.841 6.68991 1.03828 0
M  V30 9098 H 834.483 3.86574 1.71231 0
M  V30 9099 H 832.201 8.07661 0.266399 0
M  V30 9100 H 835.787 5.76191 0.805939 0
M  V30 9101 H 834.667 7.84144 0.0938828 0
M  V30 9102 N 832.17 -0.811516 1.35101 0
M  V30 9103 C 833.1 -1.9378 1.30275 0
M  V30 9104 C 834.081 -1.69165 0.178075 0
M  V30 9105 O 835.266 -1.90599 0.372256 0
M  V30 9106 C 832.396 -3.30439 1.06899 0
M  V30 9107 C 831.35 -3.69523 2.15955 0
M  V30 9108 C 830.676 -5.0429 1.77751 0
M  V30 9109 C 831.976 -3.80419 3.57881 0
M  V30 9110 H 833.67 -1.98075 2.24514 0
M  V30 9111 H 831.216 -0.951586 1.08078 0
M  V30 9112 H 833.169 -4.08828 1.02164 0
M  V30 9113 H 831.893 -3.26473 0.0910462 0
M  V30 9114 H 830.552 -2.93416 2.19778 0
M  V30 9115 H 830.2 -4.96823 0.785876 0
M  V30 9116 H 829.9 -5.31411 2.5075 0
M  V30 9117 H 831.424 -5.85125 1.74533 0
M  V30 9118 H 832.838 -4.49051 3.56407 0
M  V30 9119 H 831.235 -4.19005 4.29598 0
M  V30 9120 H 832.305 -2.82105 3.94391 0
M  V30 9121 N 833.648 -1.19017 -1.03309 0
M  V30 9122 C 834.873 -1.01598 -1.80811 0
M  V30 9123 C 835.298 0.430773 -1.83101 0
M  V30 9124 O 834.656 1.30946 -1.25391 0
M  V30 9125 C 834.704 -1.5845 -3.23923 0
M  V30 9126 O 833.808 -0.810972 -4.04348 0
M  V30 9127 H 833.149 -0.359398 -0.558327 0
M  V30 9128 H 835.679 -1.57945 -1.30055 0
M  V30 9129 H 835.689 -1.61486 -3.74682 0
M  V30 9130 H 834.364 -2.63752 -3.21571 0
M  V30 9131 H 832.941 -0.85353 -3.63 0
M  V30 9132 N 835.127 1.22348 -0.993418 0
M  V30 9133 C 836.404 1.86632 -0.585495 0
M  V30 9134 C 836.784 1.89156 0.937187 0
M  V30 9135 O 836.132 1.38247 1.81934 0
M  V30 9136 C 836.342 3.27481 -1.20652 0
M  V30 9137 C 837.69 4.03971 -1.30738 0
M  V30 9138 O 838.714 3.3675 -1.16096 0
M  V30 9139 O 837.573 5.24302 -1.54173 0
M  V30 9140 H 834.667 0.802704 -0.198984 0
M  V30 9141 H 837.213 1.30122 -1.08933 0
M  V30 9142 H 835.985 3.20281 -2.24802 0
M  V30 9143 H 835.608 3.91597 -0.688312 0
M  V30 9144 N 836.605 0.766683 1.37694 0
M  V30 9145 C 837.83 0.338715 2.04615 0
M  V30 9146 C 838.255 -1.02918 1.57447 0
M  V30 9147 O 837.613 -1.65849 0.732386 0
M  V30 9148 C 837.661 0.385284 3.58536 0
M  V30 9149 O 836.765 -0.616081 4.07772 0
M  V30 9150 H 836.106 0.147527 0.647404 0
M  V30 9151 H 838.636 1.04146 1.7611 0
M  V30 9152 H 838.646 0.240782 4.07289 0
M  V30 9153 H 837.321 1.38325 3.92223 0
M  V30 9154 H 835.898 -0.435115 3.70353 0
M  V30 9155 N 838.083 -1.48885 0.516809 0
M  V30 9156 C 839.494 -1.86557 0.0729921 0
M  V30 9157 C 839.845 -1.42767 -1.34581 0
M  V30 9158 O 838.97 -0.812514 -2.00567 0
M  V30 9159 C 839.565 -3.38567 0.125686 0
M  V30 9160 C 838.124 -3.75481 -0.262867 0
M  V30 9161 C 837.271 -2.72913 0.491281 0
M  V30 9162 H 840.222 -1.40978 0.728767 0
M  V30 9163 H 840.243 -3.74629 -0.665831 0
M  V30 9164 H 839.755 -3.70408 1.15842 0
M  V30 9165 H 837.856 -3.49251 -1.29824 0
M  V30 9166 H 837.969 -4.79052 0.067579 0
M  V30 9167 H 836.333 -2.54627 -0.0608525 0
M  V30 9168 H 837.116 -3.07599 1.5244 0
M  V30 9169 N 839.561 -0.251338 -1.55583 0
M  V30 9170 C 840.491 0.640437 -2.24545 0
M  V30 9171 C 841.472 1.17781 -1.22726 0
M  V30 9172 O 842.657 1.21633 -1.5139 0
M  V30 9173 C 839.787 1.8355 -2.94834 0
M  V30 9174 C 838.741 1.4307 -4.03379 0
M  V30 9175 C 838.067 2.70695 -4.61116 0
M  V30 9176 C 839.367 0.59848 -5.1886 0
M  V30 9177 H 841.061 0.0653772 -2.99329 0
M  V30 9178 H 838.607 0.0300042 -1.43969 0
M  V30 9179 H 840.56 2.46505 -3.4178 0
M  V30 9180 H 839.284 2.43601 -2.17546 0
M  V30 9181 H 837.943 0.824474 -3.57209 0
M  V30 9182 H 837.591 3.28954 -3.80524 0
M  V30 9183 H 837.291 2.44332 -5.34393 0
M  V30 9184 H 838.815 3.34541 -5.10798 0
M  V30 9185 H 840.229 1.13244 -5.62004 0
M  V30 9186 H 838.626 0.430728 -5.98552 0
M  V30 9187 H 839.696 -0.38829 -4.83343 0
M  V30 9188 N 841.039 1.57585 0.0217189 0
M  V30 9189 C 842.286 1.89606 0.711045 0
M  V30 9190 C 842.614 0.849535 1.74966 0
M  V30 9191 O 841.869 -0.14856 1.95135 0
M  V30 9192 C 842.168 3.28377 1.41079 0
M  V30 9193 C 841.834 4.48035 0.507454 0
M  V30 9194 C 840.496 4.80504 0.258672 0
M  V30 9195 C 842.848 5.21071 -0.115793 0
M  V30 9196 C 840.176 5.83393 -0.622013 0
M  V30 9197 C 842.528 6.24897 -0.984224 0
M  V30 9198 C 841.192 6.55836 -1.2424 0
M  V30 9199 H 840.462 0.693817 0.26019 0
M  V30 9200 H 843.109 1.91478 -0.0291424 0
M  V30 9201 H 841.414 3.22528 2.22448 0
M  V30 9202 H 843.111 3.50404 1.94982 0
M  V30 9203 H 839.701 4.22653 0.711516 0
M  V30 9204 H 843.885 4.96259 0.0634327 0
M  V30 9205 H 839.141 6.05736 -0.830267 0
M  V30 9206 H 843.315 6.8063 -1.47363 0
M  V30 9207 H 840.942 7.35383 -1.92653 0
M  V30 9208 N 842.517 -0.29412 1.54831 0
M  V30 9209 C 843.794 -1.04847 1.65126 0
M  V30 9210 C 844.174 -2.04996 0.503986 0
M  V30 9211 O 843.522 -2.22996 -0.498496 0
M  V30 9212 C 843.732 -1.72418 3.03435 0
M  V30 9213 C 845.08 -2.24362 3.60481 0
M  V30 9214 O 846.104 -1.8244 3.05932 0
M  V30 9215 O 844.963 -3.01196 4.56008 0
M  V30 9216 H 842.057 -0.485032 0.669831 0
M  V30 9217 H 844.603 -0.291659 1.67175 0
M  V30 9218 H 843.375 -0.997351 3.78376 0
M  V30 9219 H 842.998 -2.54839 3.05193 0
M  V30 9220 N 843.995 -1.47404 -0.557645 0
M  V30 9221 C 844.925 -1.62736 -1.67449 0
M  V30 9222 C 845.906 -0.476824 -1.6328 0
M  V30 9223 O 847.091 -0.706108 -1.80908 0
M  V30 9224 C 844.221 -1.641 -3.06086 0
M  V30 9225 C 843.175 -2.78377 -3.25101 0
M  V30 9226 C 842.501 -2.64812 -4.6452 0
M  V30 9227 C 843.801 -4.19971 -3.10518 0
M  V30 9228 H 845.495 -2.56232 -1.54873 0
M  V30 9229 H 843.041 -1.23312 -0.743649 0
M  V30 9230 H 844.994 -1.73417 -3.84063 0
M  V30 9231 H 843.718 -0.671652 -3.19619 0
M  V30 9232 H 842.377 -2.6857 -2.49531 0
M  V30 9233 H 842.025 -1.65906 -4.74852 0
M  V30 9234 H 841.725 -3.41477 -4.78191 0
M  V30 9235 H 843.249 -2.76057 -5.44633 0
M  V30 9236 H 844.663 -4.30757 -3.78313 0
M  V30 9237 H 843.06 -4.97419 -3.35699 0
M  V30 9238 H 844.13 -4.38369 -2.0727 0
M  V30 9239 N 845.473 0.80434 -1.35529 0
M  V30 9240 C 846.722 1.55665 -1.28263 0
M  V30 9241 C 847.035 1.95096 0.140352 0
M  V30 9242 O 848.241 2.69422 0.335303 0
M  V30 9243 C 846.697 2.80935 -2.24952 0
M  V30 9244 C 846.305 2.48733 -3.72607 0
M  V30 9245 C 848.049 3.5894 -2.26632 0
M  V30 9246 C 845.956 3.70308 -4.61114 0
M  V30 9247 H 844.886 0.584301 -0.476559 0
M  V30 9248 H 847.537 0.88395 -1.60806 0
M  V30 9249 H 845.919 3.49927 -1.85383 0
M  V30 9250 H 847.093 1.87733 -4.20824 0
M  V30 9251 H 845.408 1.83969 -3.73557 0
M  V30 9252 H 848.005 4.49244 -2.89973 0
M  V30 9253 H 848.348 3.96433 -1.27069 0
M  V30 9254 H 848.881 2.96912 -2.64742 0
M  V30 9255 H 845.62 3.37922 -5.61684 0
M  V30 9256 H 845.14 4.30526 -4.17621 0
M  V30 9257 H 846.819 4.37511 -4.76648 0
M  V30 9258 N 846.951 1.19563 1.02676 0
M  V30 9259 C 847.898 0.935291 2.11 0
M  V30 9260 C 848.868 -0.130685 1.65585 0
M  V30 9261 O 850.053 0.0119062 1.90796 0
M  V30 9262 C 847.193 0.482384 3.41712 0
M  V30 9263 C 846.306 1.61537 4.00662 0
M  V30 9264 C 845.441 1.11378 5.19392 0
M  V30 9265 C 844.48 2.22052 5.70403 0
M  V30 9266 N 843.617 1.73185 6.80405 0
M  V30 9267 H 848.457 1.86275 2.32606 0
M  V30 9268 H 845.994 0.928656 1.14081 0
M  V30 9269 H 847.952 0.20118 4.16715 0
M  V30 9270 H 846.582 -0.408086 3.2021 0
M  V30 9271 H 845.634 2.01173 3.22852 0
M  V30 9272 H 846.946 2.44912 4.34534 0
M  V30 9273 H 846.1 0.787935 6.01562 0
M  V30 9274 H 844.839 0.249789 4.8706 0
M  V30 9275 H 843.844 2.55465 4.86845 0
M  V30 9276 H 845.069 3.08911 6.04774 0
M  V30 9277 H 843.015 0.890973 6.49921 0
M  V30 9278 H 842.932 2.50148 7.13416 0
M  V30 9279 H 844.2 1.4357 7.66164 0
M  V30 9280 N 848.429 -1.21819 0.999893 0
M  V30 9281 C 849.361 -2.23356 0.514256 0
M  V30 9282 C 850.374 -1.5795 -0.394413 0
M  V30 9283 O 851.563 -1.77427 -0.195428 0
M  V30 9284 C 848.663 -3.37797 -0.273207 0
M  V30 9285 C 847.836 -4.32791 0.633293 0
M  V30 9286 C 846.895 -5.26098 -0.103673 0
M  V30 9287 O 845.921 -5.66881 0.513269 0
M  V30 9288 N 847.123 -5.63764 -1.38383 0
M  V30 9289 H 849.888 -2.65653 1.3874 0
M  V30 9290 H 847.449 -1.3619 0.875431 0
M  V30 9291 H 849.441 -3.97209 -0.775053 0
M  V30 9292 H 848.011 -2.94527 -1.0475 0
M  V30 9293 H 847.231 -3.71595 1.31571 0
M  V30 9294 H 848.519 -4.93196 1.25039 0
M  V30 9295 H 847.917 -5.32614 -1.90627 0
M  V30 9296 H 846.474 -6.25562 -1.83073 0
M  V30 9297 N 849.908 -0.773975 -1.37286 0
M  V30 9298 C 851.133 -0.349561 -2.04433 0
M  V30 9299 C 851.558 1.02082 -1.5799 0
M  V30 9300 O 850.916 1.65458 -0.741172 0
M  V30 9301 C 850.964 -0.404292 -3.58326 0
M  V30 9302 O 850.068 0.594447 -4.08093 0
M  V30 9303 H 849.409 -0.150959 -0.646612 0
M  V30 9304 H 851.939 -1.05079 -1.75555 0
M  V30 9305 H 851.949 -0.262378 -4.07155 0
M  V30 9306 H 850.624 -1.40403 -3.91484 0
M  V30 9307 H 849.201 0.415468 -3.70578 0
M  V30 9308 N 851.386 1.48609 -0.524698 0
M  V30 9309 C 852.333 2.29539 0.240956 0
M  V30 9310 C 853.303 1.37033 0.938681 0
M  V30 9311 O 854.488 1.65996 0.940737 0
M  V30 9312 C 851.628 3.20278 1.28514 0
M  V30 9313 C 850.741 4.27858 0.596798 0
M  V30 9314 C 849.876 5.05784 1.62346 0
M  V30 9315 C 848.915 6.05173 0.918287 0
M  V30 9316 N 848.052 6.76176 1.89025 0
M  V30 9317 H 852.892 2.945 -0.455368 0
M  V30 9318 H 850.429 1.45188 -0.236403 0
M  V30 9319 H 852.387 3.71281 1.90279 0
M  V30 9320 H 851.017 2.57251 1.94992 0
M  V30 9321 H 850.069 3.80162 -0.134668 0
M  V30 9322 H 851.381 4.98782 0.0428506 0
M  V30 9323 H 850.535 5.60775 2.31553 0
M  V30 9324 H 849.274 4.34687 2.2113 0
M  V30 9325 H 848.279 5.49391 0.21212 0
M  V30 9326 H 849.504 6.78265 0.336633 0
M  V30 9327 H 847.45 6.07834 2.46726 0
M  V30 9328 H 847.367 7.43157 1.3876 0
M  V30 9329 H 848.635 7.35759 2.57446 0
M  V30 9330 N 852.864 0.259585 1.55447 0
M  V30 9331 C 854.141 -0.412595 1.91199 0
M  V30 9332 C 854.521 -1.74909 1.18194 0
M  V30 9333 O 853.869 -2.26474 0.303603 0
M  V30 9334 C 854.079 -0.568195 3.44344 0
M  V30 9335 C 855.427 -0.858253 4.15836 0
M  V30 9336 O 856.451 -0.653588 3.50152 0
M  V30 9337 O 855.31 -1.24874 5.32042 0
M  V30 9338 H 852.404 -0.223403 0.796254 0
M  V30 9339 H 854.95 0.30459 1.66944 0
M  V30 9340 H 853.722 0.372989 3.89518 0
M  V30 9341 H 853.345 -1.33544 3.74502 0
M  V30 9342 N 854.342 -1.57594 -0.0133615 0
M  V30 9343 C 855.758 -1.5527 -0.369255 0
M  V30 9344 C 855.958 -0.987751 -1.7563 0
M  V30 9345 O 855.014 -0.615683 -2.44879 0
M  V30 9346 C 856.327 -2.99602 -0.25672 0
M  V30 9347 C 857.875 -3.11227 -0.332647 0
M  V30 9348 C 858.35 -4.57321 -0.249387 0
M  V30 9349 N 859.841 -4.62177 -0.3077 0
M  V30 9350 C 860.576 -5.72781 -0.26641 0
M  V30 9351 N 860.072 -6.92575 -0.176494 0
M  V30 9352 N 861.865 -5.61204 -0.317295 0
M  V30 9353 H 854.016 -1.92662 0.894154 0
M  V30 9354 H 856.279 -0.884352 0.341505 0
M  V30 9355 H 855.985 -3.44723 0.697072 0
M  V30 9356 H 855.859 -3.6246 -1.04415 0
M  V30 9357 H 858.246 -2.66045 -1.27688 0
M  V30 9358 H 858.327 -2.51171 0.484412 0
M  V30 9359 H 857.971 -5.03174 0.691242 0
M  V30 9360 H 857.901 -5.15306 -1.08476 0
M  V30 9361 H 860.392 -3.75994 -0.379069 0
M  V30 9362 H 860.705 -7.72653 -0.150518 0
M  V30 9363 H 859.05 -6.94854 -0.142314 0
M  V30 9364 H 862.241 -4.66509 -0.385643 0
M  V30 9365 H 862.414 -6.47388 -0.28165 0
M  V30 9366 N 855.82 0.285905 -1.54985 0
M  V30 9367 C 856.73 1.37534 -1.90057 0
M  V30 9368 C 857.746 1.54707 -0.796348 0
M  V30 9369 O 858.922 1.69082 -1.09423 0
M  V30 9370 C 855.987 2.7167 -2.15398 0
M  V30 9371 C 855.048 2.63354 -3.39033 0
M  V30 9372 C 854.281 3.91093 -3.63155 0
M  V30 9373 O 854.504 4.91169 -2.90015 0
M  V30 9374 O 853.438 3.92075 -4.56685 0
M  V30 9375 H 857.264 1.10791 -2.8277 0
M  V30 9376 H 854.849 0.483303 -1.41367 0
M  V30 9377 H 856.731 3.51006 -2.33179 0
M  V30 9378 H 855.406 2.98226 -1.25868 0
M  V30 9379 H 854.313 1.82438 -3.26599 0
M  V30 9380 H 855.646 2.41749 -4.2874 0
M  V30 9381 N 857.298 1.47698 0.54982 0
M  V30 9382 C 858.546 1.54397 1.30407 0
M  V30 9383 C 858.867 0.211026 1.93855 0
M  V30 9384 O 858.137 -0.765701 1.80316 0
M  V30 9385 H 856.717 0.568747 0.484289 0
M  V30 9386 H 859.379 1.84042 0.641444 0
M  V30 9387 H 858.475 2.31449 2.09375 0
M  V30 9388 N 858.776 -0.797141 1.35954 0
M  V30 9389 C 860.187 -1.37179 1.26644 0
M  V30 9390 C 860.538 -1.9596 -0.0971046 0
M  V30 9391 O 859.663 -1.91994 -0.998355 0
M  V30 9392 C 860.258 -2.49395 2.2932 0
M  V30 9393 C 858.817 -3.02697 2.23722 0
M  V30 9394 C 857.964 -1.75721 2.14517 0
M  V30 9395 H 860.915 -0.599407 1.46945 0
M  V30 9396 H 860.936 -3.28204 1.92515 0
M  V30 9397 H 860.448 -2.06584 3.2855 0
M  V30 9398 H 858.549 -3.49948 1.27934 0
M  V30 9399 H 858.662 -3.60036 3.16087 0
M  V30 9400 H 857.026 -1.97649 1.60646 0
M  V30 9401 H 857.809 -1.35049 3.15621 0
M  V30 9402 N 860.254 -1.20106 -1.0204 0
M  V30 9403 C 861.482 -1.0344 -1.79186 0
M  V30 9404 C 861.897 0.416542 -1.84148 0
M  V30 9405 O 861.254 1.28925 -1.29168 0
M  V30 9406 C 861.305 -1.60663 -3.23836 0
M  V30 9407 O 861.026 -3.00079 -3.19193 0
M  V30 9408 C 862.527 -1.48897 -4.17546 0
M  V30 9409 H 859.747 -0.364093 -0.563629 0
M  V30 9410 H 862.291 -1.5911 -1.28469 0
M  V30 9411 H 860.446 -1.09122 -3.71714 0
M  V30 9412 H 860.86 -3.27162 -4.09958 0
M  V30 9413 H 862.334 -1.93703 -5.16898 0
M  V30 9414 H 862.811 -0.440843 -4.36982 0
M  V30 9415 H 863.417 -1.9961 -3.75547 0
M  V30 9416 N 861.732 1.21287 -1.00634 0
M  V30 9417 C 863.009 1.86 -0.605257 0
M  V30 9418 C 863.389 1.90139 0.917072 0
M  V30 9419 O 862.737 1.40169 1.80458 0
M  V30 9420 C 862.947 3.26183 -1.24119 0
M  V30 9421 C 864.295 4.02562 -1.35015 0
M  V30 9422 O 865.319 3.35499 -1.19661 0
M  V30 9423 O 864.178 5.22638 -1.59726 0
M  V30 9424 H 861.272 0.800549 -0.207486 0
M  V30 9425 H 863.818 1.28959 -1.10307 0
M  V30 9426 H 862.59 3.17878 -2.28186 0
M  V30 9427 H 862.213 3.90845 -0.729807 0
M  V30 9428 N 863.21 0.781244 1.36873 0
M  V30 9429 C 864.16 0.147313 2.27524 0
M  V30 9430 C 865.144 -0.663928 1.46563 0
M  V30 9431 O 866.336 -0.525343 1.69024 0
M  V30 9432 C 863.465 -0.723511 3.35589 0
M  V30 9433 C 862.551 0.0960763 4.23991 0
M  V30 9434 N 862.942 1.14649 4.92635 0
M  V30 9435 C 861.24 -0.126397 4.45821 0
M  V30 9436 C 861.941 1.64474 5.57964 0
M  V30 9437 N 860.917 0.955316 5.3514 0
M  V30 9438 H 864.719 0.951406 2.78075 0
M  V30 9439 H 862.233 0.619913 1.50103 0
M  V30 9440 H 864.23 -1.19351 3.99451 0
M  V30 9441 H 862.89 -1.52624 2.86594 0
M  V30 9442 H 863.901 1.5288 4.94821 0
M  V30 9443 H 860.578 -0.900284 4.07678 0
M  V30 9444 H 861.968 2.52124 6.22803 0
M  V30 9445 N 864.689 -1.48329 0.532571 0
M  V30 9446 C 865.619 -2.32485 -0.217511 0
M  V30 9447 C 866.6 -1.42255 -0.932598 0
M  V30 9448 O 867.785 -1.7114 -0.917873 0
M  V30 9449 C 864.915 -3.23509 -1.26329 0
M  V30 9450 C 863.869 -4.22784 -0.666191 0
M  V30 9451 C 863.195 -5.0296 -1.81482 0
M  V30 9452 C 864.495 -5.21031 0.363813 0
M  V30 9453 H 866.189 -2.95445 0.485014 0
M  V30 9454 H 863.735 -1.42075 0.234694 0
M  V30 9455 H 865.688 -3.81211 -1.79601 0
M  V30 9456 H 864.412 -2.58554 -1.99543 0
M  V30 9457 H 863.071 -3.66272 -0.15498 0
M  V30 9458 H 862.719 -4.34427 -2.5354 0
M  V30 9459 H 862.419 -5.70154 -1.4212 0
M  V30 9460 H 863.943 -5.63514 -2.35126 0
M  V30 9461 H 865.357 -5.73241 -0.0819079 0
M  V30 9462 H 863.754 -5.96292 0.674956 0
M  V30 9463 H 864.824 -4.6801 1.26865 0
M  V30 9464 N 866.167 -0.267825 -1.55308 0
M  V30 9465 C 867.077 0.633055 -2.25897 0
M  V30 9466 C 868.093 1.17613 -1.28231 0
M  V30 9467 O 869.269 1.20797 -1.61153 0
M  V30 9468 C 866.334 1.80397 -2.96071 0
M  V30 9469 C 865.395 1.29829 -4.09198 0
M  V30 9470 C 864.628 2.4134 -4.76016 0
M  V30 9471 O 864.851 3.60537 -4.42006 0
M  V30 9472 O 863.785 2.09909 -5.64111 0
M  V30 9473 H 867.611 0.0614381 -3.03638 0
M  V30 9474 H 865.196 -0.0355072 -1.49358 0
M  V30 9475 H 867.078 2.48685 -3.40197 0
M  V30 9476 H 865.753 2.36281 -2.21253 0
M  V30 9477 H 864.66 0.582086 -3.69544 0
M  V30 9478 H 865.993 0.785288 -4.85895 0
M  V30 9479 N 867.645 1.57599 0.00500368 0
M  V30 9480 C 868.87 1.95026 0.705663 0
M  V30 9481 C 869.295 0.869643 1.6679 0
M  V30 9482 O 868.653 -0.172659 1.80476 0
M  V30 9483 C 868.701 3.31545 1.4181 0
M  V30 9484 O 867.805 3.25495 2.53232 0
M  V30 9485 H 867.146 0.636808 0.188074 0
M  V30 9486 H 869.676 2.04547 -0.046696 0
M  V30 9487 H 869.686 3.66996 1.78265 0
M  V30 9488 H 868.361 4.09751 0.712543 0
M  V30 9489 H 866.938 3.01714 2.19142 0
M  V30 9490 N 869.123 -0.277682 1.55134 0
M  V30 9491 C 870.086 -1.32635 1.86924 0
M  V30 9492 C 871.086 -1.42578 0.743507 0
M  V30 9493 O 872.276 -1.4181 1.01171 0
M  V30 9494 C 869.408 -2.70832 2.07034 0
M  V30 9495 H 870.601 -1.0568 2.80663 0
M  V30 9496 H 868.154 -0.515517 1.47554 0
M  V30 9497 H 868.889 -3.02974 1.15661 0
M  V30 9498 H 868.674 -2.65001 2.88993 0
M  V30 9499 H 870.164 -3.46611 2.32918 0
M  V30 9500 N 870.601 -1.47988 -0.541979 0
M  V30 9501 C 871.841 -1.56982 -1.30905 0
M  V30 9502 C 872.205 -0.233153 -1.90579 0
M  V30 9503 O 873.406 -0.198018 -2.6807 0
M  V30 9504 C 871.677 -2.66787 -2.37823 0
M  V30 9505 S 873.236 -2.95467 -3.24414 0
M  V30 9506 H 870.054 -0.554165 -0.445446 0
M  V30 9507 H 872.656 -1.85448 -0.618803 0
M  V30 9508 H 871.36 -3.62483 -1.92443 0
M  V30 9509 H 870.891 -2.40184 -3.11569 0
M  V30 9510 H 872.906 -2.33846 -4.37642 0
M  V30 9511 N 872.079 0.78992 -1.36375 0
M  V30 9512 C 873.49 1.36506 -1.2737 0
M  V30 9513 C 873.841 1.96008 0.086711 0
M  V30 9514 O 872.966 1.92521 0.988159 0
M  V30 9515 C 873.561 2.48175 -2.30639 0
M  V30 9516 C 872.12 3.01506 -2.25325 0
M  V30 9517 C 871.267 1.74581 -2.15445 0
M  V30 9518 H 874.218 0.591606 -1.47261 0
M  V30 9519 H 874.239 3.27179 -1.94253 0
M  V30 9520 H 873.751 2.04838 -3.2964 0
M  V30 9521 H 871.852 3.49265 -1.29788 0
M  V30 9522 H 871.965 3.58355 -3.17992 0
M  V30 9523 H 870.329 1.96794 -1.61692 0
M  V30 9524 H 871.112 1.33373 -3.16333 0
M  V30 9525 N 873.557 1.20646 1.01402 0
M  V30 9526 C 874.487 0.98155 2.11867 0
M  V30 9527 C 875.468 -0.0903712 1.6986 0
M  V30 9528 O 876.653 0.0676586 1.94082 0
M  V30 9529 C 873.783 0.535636 3.43145 0
M  V30 9530 C 872.737 1.55109 3.98905 0
M  V30 9531 C 872.063 0.961725 5.2598 0
M  V30 9532 C 873.363 2.93552 4.32001 0
M  V30 9533 H 875.057 1.90544 2.3094 0
M  V30 9534 H 872.603 0.917554 1.10982 0
M  V30 9535 H 874.556 0.365512 4.19812 0
M  V30 9536 H 873.28 -0.423882 3.23838 0
M  V30 9537 H 871.939 1.70862 3.24348 0
M  V30 9538 H 871.587 -0.00580108 5.03 0
M  V30 9539 H 871.287 1.63993 5.64252 0
M  V30 9540 H 872.811 0.802726 6.053 0
M  V30 9541 H 874.225 2.81295 4.99546 0
M  V30 9542 H 872.622 3.58303 4.81393 0
M  V30 9543 H 873.692 3.4508 3.40658 0
M  V30 9544 N 875.035 -1.20752 1.01276 0
M  V30 9545 C 875.983 -2.25432 0.572989 0
M  V30 9546 C 876.977 -1.64935 -0.386354 0
M  V30 9547 O 878.183 -1.7816 -0.256696 0
M  V30 9548 H 874.558 -0.733229 0.166972 0
M  V30 9549 H 876.529 -2.59856 1.46687 0
M  V30 9550 C 875.278 -3.47615 -0.0768249 0
M  V30 9551 H 874.601 -3.94442 0.652354 0
M  V30 9552 H 876.041 -4.22572 -0.3477 0
M  V30 9553 C 874.5 -3.1003 -1.31845 0
M  V30 9554 O 875.03 -3.21216 -2.41211 0
M  V30 9555 N 873.236 -2.64616 -1.20111 0
M  V30 9556 H 872.783 -2.55714 -0.311184 0
M  V30 9557 H 872.741 -2.39838 -2.03286 0
M  V30 9558 N 876.513 -0.788492 -1.36457 0
M  V30 9559 C 877.443 -0.200468 -2.32638 0
M  V30 9560 C 878.424 0.664031 -1.56603 0
M  V30 9561 O 879.609 0.598045 -1.84762 0
M  V30 9562 C 876.739 0.666274 -3.40849 0
M  V30 9563 C 875.693 -0.0982574 -4.27887 0
M  V30 9564 C 875.019 0.889018 -5.27258 0
M  V30 9565 C 876.319 -1.28692 -5.06197 0
M  V30 9566 H 878.013 -1.00399 -2.82065 0
M  V30 9567 H 875.559 -0.484237 -1.35614 0
M  V30 9568 H 877.512 1.08757 -4.07124 0
M  V30 9569 H 876.236 1.50249 -2.89987 0
M  V30 9570 H 874.895 -0.500525 -3.63167 0
M  V30 9571 H 874.543 1.72024 -4.7267 0
M  V30 9572 H 874.243 0.381909 -5.86358 0
M  V30 9573 H 875.767 1.30891 -5.96406 0
M  V30 9574 H 877.181 -0.941429 -5.65517 0
M  V30 9575 H 875.578 -1.72726 -5.74705 0
M  V30 9576 H 876.648 -2.08273 -4.37893 0
M  V30 9577 N 877.991 1.48044 -0.54043 0
M  V30 9578 C 879.402 1.86418 -0.102662 0
M  V30 9579 C 879.753 1.4489 1.32293 0
M  V30 9580 O 878.878 0.844319 1.99249 0
M  V30 9581 C 879.473 3.38324 -0.179533 0
M  V30 9582 C 878.032 3.75852 0.203098 0
M  V30 9583 C 877.179 2.72097 -0.534637 0
M  V30 9584 H 880.13 1.398 -0.751103 0
M  V30 9585 H 880.151 3.75641 0.606147 0
M  V30 9586 H 879.663 3.68518 -1.21721 0
M  V30 9587 H 877.764 3.51272 1.24252 0
M  V30 9588 H 877.877 4.78884 -0.143784 0
M  V30 9589 H 876.241 2.54692 0.0203358 0
M  V30 9590 H 877.024 3.05135 -1.57314 0
M  V30 9591 N 879.47 0.276058 1.55163 0
M  V30 9592 C 880.4 -0.604633 2.25536 0
M  V30 9593 C 881.381 -1.15813 1.24585 0
M  V30 9594 O 882.566 -1.1921 1.53306 0
M  V30 9595 C 879.696 -1.78836 2.97716 0
M  V30 9596 C 878.65 -1.36635 4.05604 0
M  V30 9597 C 877.976 -2.63325 4.65364 0
M  V30 9598 C 879.276 -0.515858 5.19746 0
M  V30 9599 H 880.97 -0.0177483 2.99395 0
M  V30 9600 H 878.516 -0.00709627 1.43998 0
M  V30 9601 H 880.469 -2.41036 3.45658 0
M  V30 9602 H 879.193 -2.40109 2.21394 0
M  V30 9603 H 877.852 -0.767541 3.58475 0
M  V30 9604 H 877.5 -3.22858 3.85709 0
M  V30 9605 H 877.2 -2.358 5.38212 0
M  V30 9606 H 878.724 -3.26372 5.16056 0
M  V30 9607 H 880.138 -1.04289 5.63735 0
M  V30 9608 H 878.535 -0.335449 5.99162 0
M  V30 9609 H 879.605 0.465137 4.82664 0
M  V30 9610 N 880.948 -1.576 0.00335426 0
M  V30 9611 C 881.88 -2.0549 -1.01521 0
M  V30 9612 C 882.893 -0.973441 -1.30491 0
M  V30 9613 O 884.082 -1.25017 -1.27409 0
M  V30 9614 C 881.182 -2.44272 -2.34914 0
M  V30 9615 C 880.355 -3.75191 -2.24835 0
M  V30 9616 C 879.414 -4.00804 -3.40944 0
M  V30 9617 O 878.44 -4.71423 -3.18981 0
M  V30 9618 N 879.642 -3.48961 -4.63904 0
M  V30 9619 H 882.407 -2.93493 -0.60678 0
M  V30 9620 H 879.968 -1.60851 -0.18396 0
M  V30 9621 H 881.96 -2.58518 -3.11369 0
M  V30 9622 H 880.53 -1.6177 -2.67487 0
M  V30 9623 H 879.75 -3.70989 -1.3327 0
M  V30 9624 H 881.038 -4.61013 -2.15277 0
M  V30 9625 H 880.436 -2.9178 -4.84645 0
M  V30 9626 H 878.993 -3.68531 -5.37613 0
M  V30 9627 N 882.426 0.269451 -1.5528 0
M  V30 9628 C 883.374 1.35303 -1.89198 0
M  V30 9629 C 884.368 1.50956 -0.768671 0
M  V30 9630 O 885.574 1.52699 -0.953054 0
M  V30 9631 H 881.949 0.452591 -0.600554 0
M  V30 9632 H 883.92 1.03949 -2.79709 0
M  V30 9633 C 882.669 2.70585 -2.18356 0
M  V30 9634 H 881.992 2.59332 -3.04281 0
M  V30 9635 H 883.432 3.45335 -2.46007 0
M  V30 9636 C 881.891 3.21954 -0.992327 0
M  V30 9637 O 882.421 4.01048 -0.228769 0
M  V30 9638 N 880.627 2.79682 -0.789062 0
M  V30 9639 H 880.174 2.15475 -1.41167 0
M  V30 9640 H 880.132 3.14399 0.00634776 0
M  V30 9641 N 883.904 1.48273 0.534124 0
M  V30 9642 C 884.852 1.62926 1.66005 0
M  V30 9643 C 885.846 0.495814 1.61982 0
M  V30 9644 O 887.052 0.6744 1.66889 0
M  V30 9645 H 883.427 0.513163 0.549698 0
M  V30 9646 H 885.398 2.57498 1.50789 0
M  V30 9647 C 884.147 1.68231 3.04292 0
M  V30 9648 H 883.47 2.54807 3.0808 0
M  V30 9649 H 884.91 1.82528 3.827 0
M  V30 9650 C 883.369 0.420154 3.3427 0
M  V30 9651 O 883.899 -0.468769 3.98955 0
M  V30 9652 N 882.105 0.293115 2.89118 0
M  V30 9653 H 881.652 1.01745 2.36655 0
M  V30 9654 H 881.61 -0.550376 3.09545 0
M  V30 9655 N 885.382 -0.782676 1.36792 0
M  V30 9656 C 886.332 -1.8855 1.28191 0
M  V30 9657 C 887.316 -1.59978 0.171984 0
M  V30 9658 O 888.508 -1.72295 0.405405 0
M  V30 9659 C 885.637 -3.25862 1.08021 0
M  V30 9660 C 884.723 -3.60422 2.2351 0
M  V30 9661 N 885.114 -3.66241 3.48857 0
M  V30 9662 C 883.412 -3.90523 2.15424 0
M  V30 9663 C 884.113 -3.97233 4.24948 0
M  V30 9664 N 883.089 -4.12567 3.53963 0
M  V30 9665 H 886.891 -1.91285 2.23131 0
M  V30 9666 H 884.405 -0.978554 1.29607 0
M  V30 9667 H 886.402 -4.04742 0.999458 0
M  V30 9668 H 885.062 -3.24399 0.139882 0
M  V30 9669 H 886.073 -3.48717 3.82906 0
M  V30 9670 H 882.75 -3.96945 1.29386 0
M  V30 9671 H 884.14 -4.08602 5.33379 0
M  V30 9672 N 886.86 -1.21182 -1.00761 0
M  V30 9673 C 888.088 -1.05335 -1.78079 0
M  V30 9674 C 888.503 0.396988 -1.84579 0
M  V30 9675 O 887.86 1.27548 -1.30529 0
M  V30 9676 C 887.911 -1.64089 -3.22113 0
M  V30 9677 O 887.632 -3.03448 -3.15992 0
M  V30 9678 C 889.133 -1.53318 -4.15943 0
M  V30 9679 H 886.353 -0.37005 -0.559736 0
M  V30 9680 H 888.897 -1.60463 -1.26775 0
M  V30 9681 H 887.052 -1.13059 -3.70535 0
M  V30 9682 H 887.466 -3.31492 -4.06465 0
M  V30 9683 H 888.94 -1.99174 -5.14814 0
M  V30 9684 H 889.417 -0.487166 -4.3649 0
M  V30 9685 H 890.023 -2.03582 -3.73409 0
M  V30 9686 N 888.338 1.20213 -1.01915 0
M  V30 9687 C 889.301 2.21307 -0.596327 0
M  V30 9688 C 890.301 1.57274 0.334879 0
M  V30 9689 O 891.491 1.73764 0.12322 0
M  V30 9690 C 888.623 3.40657 0.128808 0
M  V30 9691 H 889.816 2.60228 -1.49068 0
M  V30 9692 H 887.369 1.33721 -0.809226 0
M  V30 9693 H 888.104 3.07241 1.03796 0
M  V30 9694 H 887.889 3.88361 -0.540183 0
M  V30 9695 H 889.379 4.15564 0.411892 0
M  V30 9696 N 889.816 0.795718 1.36037 0
M  V30 9697 C 890.779 0.204318 2.28287 0
M  V30 9698 C 891.779 -0.602017 1.49105 0
M  V30 9699 O 892.969 -0.422089 1.69009 0
M  V30 9700 C 890.101 -0.716431 3.33287 0
M  V30 9701 H 891.294 1.01781 2.821 0
M  V30 9702 H 888.847 0.565588 1.45708 0
M  V30 9703 H 889.582 -1.55403 2.84641 0
M  V30 9704 H 889.367 -0.140096 3.9185 0
M  V30 9705 H 890.857 -1.12488 4.02164 0
M  V30 9706 N 891.294 -1.47756 0.548274 0
M  V30 9707 C 892.571 -1.9555 -0.0443603 0
M  V30 9708 C 892.951 -1.49079 -1.49462 0
M  V30 9709 O 892.299 -0.725538 -2.16675 0
M  V30 9710 C 892.509 -3.48879 0.0918425 0
M  V30 9711 C 893.857 -4.2456 -0.0580879 0
M  V30 9712 O 894.881 -3.56195 0.018946 0
M  V30 9713 O 893.74 -5.46048 -0.222261 0
M  V30 9714 H 890.834 -0.824106 -0.0691235 0
M  V30 9715 H 893.38 -1.58196 0.614166 0
M  V30 9716 H 892.152 -3.7548 1.10137 0
M  V30 9717 H 891.775 -3.92975 -0.604704 0
M  V30 9718 N 892.772 -0.284283 -1.55015 0
M  V30 9719 C 893.705 0.640779 -2.19019 0
M  V30 9720 C 894.683 1.14541 -1.15409 0
M  V30 9721 O 895.867 1.21669 -1.43975 0
M  V30 9722 C 892.994 1.87488 -2.82074 0
M  V30 9723 C 892.04 1.50494 -3.99066 0
M  V30 9724 S 892.873 0.575218 -5.32402 0
M  V30 9725 C 894.029 1.81749 -5.98931 0
M  V30 9726 H 894.262 0.0969761 -2.97142 0
M  V30 9727 H 891.795 -0.0684929 -1.54248 0
M  V30 9728 H 893.753 2.58319 -3.19032 0
M  V30 9729 H 892.414 2.38984 -2.03828 0
M  V30 9730 H 891.607 2.42349 -4.41908 0
M  V30 9731 H 891.209 0.876741 -3.63578 0
M  V30 9732 H 893.501 2.76026 -6.18721 0
M  V30 9733 H 894.444 1.43192 -6.93471 0
M  V30 9734 H 894.852 1.98661 -5.28388 0
M  V30 9735 N 894.251 1.57596 -0.0117121 0
M  V30 9736 C 895.481 1.95077 0.680346 0
M  V30 9737 C 895.889 0.885793 1.67184 0
M  V30 9738 O 895.232 -0.142723 1.83145 0
M  V30 9739 C 895.294 3.28611 1.45791 0
M  V30 9740 C 894.958 4.52682 0.626706 0
M  V30 9741 C 895.955 5.19821 -0.0906223 0
M  V30 9742 C 893.64 4.99064 0.569229 0
M  V30 9743 C 895.634 6.31649 -0.854289 0
M  V30 9744 C 893.321 6.10779 -0.198155 0
M  V30 9745 C 894.319 6.76929 -0.908636 0
M  V30 9746 O 894.007 7.86501 -1.66348 0
M  V30 9747 H 893.739 0.647663 0.193672 0
M  V30 9748 H 896.293 2.05305 -0.0624969 0
M  V30 9749 H 894.523 3.14824 2.2455 0
M  V30 9750 H 896.212 3.51119 2.03642 0
M  V30 9751 H 896.978 4.84968 -0.0554421 0
M  V30 9752 H 892.857 4.47393 1.11178 0
M  V30 9753 H 896.401 6.83215 -1.40937 0
M  V30 9754 H 892.298 6.45072 -0.235114 0
M  V30 9755 H 893.066 8.03078 -1.58141 0
M  V30 9756 N 895.729 -0.261212 1.5542 0
M  V30 9757 C 896.659 -1.32712 1.92119 0
M  V30 9758 C 897.64 -1.50934 0.784406 0
M  V30 9759 O 898.825 -1.63781 1.04352 0
M  V30 9760 C 895.955 -2.68453 2.20341 0
M  V30 9761 C 894.909 -2.64947 3.36136 0
M  V30 9762 C 894.235 -4.04349 3.49865 0
M  V30 9763 C 895.535 -2.23182 4.72215 0
M  V30 9764 H 897.229 -1.02245 2.81401 0
M  V30 9765 H 894.775 -0.490406 1.35392 0
M  V30 9766 H 896.728 -3.43144 2.44603 0
M  V30 9767 H 895.452 -3.00527 1.27871 0
M  V30 9768 H 894.111 -1.92714 3.11861 0
M  V30 9769 H 893.759 -4.33665 2.5484 0
M  V30 9770 H 893.459 -4.02895 4.27726 0
M  V30 9771 H 894.983 -4.80761 3.76432 0
M  V30 9772 H 896.397 -2.87599 4.95943 0
M  V30 9773 H 894.794 -2.32867 5.53076 0
M  V30 9774 H 895.864 -1.18327 4.70241 0
M  V30 9775 N 897.207 -1.48554 -0.526253 0
M  V30 9776 C 898.432 -1.60686 -1.31129 0
M  V30 9777 C 898.857 -0.268701 -1.86171 0
M  V30 9778 O 898.215 0.760167 -1.64594 0
M  V30 9779 C 898.263 -2.65938 -2.43536 0
M  V30 9780 O 897.367 -2.23356 -3.46678 0
M  V30 9781 H 896.708 -0.538691 -0.388211 0
M  V30 9782 H 899.238 -1.94567 -0.632826 0
M  V30 9783 H 899.248 -2.87327 -2.89668 0
M  V30 9784 H 897.923 -3.63085 -2.02835 0
M  V30 9785 H 896.5 -2.12196 -3.06639 0
M  V30 9786 N 898.685 0.775411 -1.37205 0
M  V30 9787 C 900.096 1.35147 -1.28811 0
M  V30 9788 C 900.447 1.96089 0.0659168 0
M  V30 9789 O 899.572 1.93558 0.967684 0
M  V30 9790 C 900.167 2.45715 -2.33258 0
M  V30 9791 C 898.726 2.99099 -2.2851 0
M  V30 9792 C 897.873 1.72286 -2.17285 0
M  V30 9793 H 900.824 0.575954 -1.4788 0
M  V30 9794 H 900.845 3.251 -1.97712 0
M  V30 9795 H 900.357 2.01331 -3.31795 0
M  V30 9796 H 898.458 3.47868 -1.33485 0
M  V30 9797 H 898.571 3.54962 -3.21774 0
M  V30 9798 H 896.935 1.95068 -1.6377 0
M  V30 9799 H 897.718 1.3001 -3.1773 0
M  V30 9800 N 900.163 1.21714 1.00117 0
M  V30 9801 C 901.409 1.03823 1.74208 0
M  V30 9802 C 901.742 -0.426733 1.89454 0
M  V30 9803 O 901.017 -1.31658 1.43166 0
M  V30 9804 C 901.3 1.74047 3.15246 0
M  V30 9805 C 901.153 3.28087 3.077 0
M  V30 9806 C 902.472 1.48614 4.14249 0
M  V30 9807 H 899.591 0.378573 0.632338 0
M  V30 9808 H 902.233 1.49942 1.16694 0
M  V30 9809 H 900.383 1.3484 3.64349 0
M  V30 9810 H 902.055 3.76686 2.6628 0
M  V30 9811 H 900.298 3.58191 2.44707 0
M  V30 9812 H 900.969 3.72392 4.07466 0
M  V30 9813 H 903.445 1.82656 3.73866 0
M  V30 9814 H 902.321 2.00257 5.11066 0
M  V30 9815 H 902.582 0.416957 4.40129 0
M  V30 9816 N 901.641 -1.19671 1.02551 0
M  V30 9817 C 903.057 -1.41305 0.741963 0
M  V30 9818 C 903.257 -1.89865 -0.674807 0
M  V30 9819 O 902.313 -2.07323 -1.44129 0
M  V30 9820 C 903.626 -2.42706 1.77522 0
M  V30 9821 C 905.174 -2.56458 1.79438 0
M  V30 9822 C 905.649 -3.61111 2.81715 0
M  V30 9823 N 907.14 -3.68603 2.8051 0
M  V30 9824 C 907.875 -4.49262 3.56302 0
M  V30 9825 N 907.371 -5.33653 4.41799 0
M  V30 9826 N 909.164 -4.43879 3.44859 0
M  V30 9827 H 901.315 -0.8647 1.94002 0
M  V30 9828 H 903.578 -0.442206 0.838545 0
M  V30 9829 H 903.284 -2.14042 2.79068 0
M  V30 9830 H 903.158 -3.41831 1.59472 0
M  V30 9831 H 905.545 -2.84447 0.78573 0
M  V30 9832 H 905.626 -1.57499 2.01563 0
M  V30 9833 H 905.27 -3.33864 3.82749 0
M  V30 9834 H 905.2 -4.59713 2.56849 0
M  V30 9835 H 907.691 -3.08329 2.18498 0
M  V30 9836 H 908.004 -5.92308 4.96378 0
M  V30 9837 H 906.349 -5.33125 4.45873 0
M  V30 9838 H 909.54 -3.7699 2.77482 0
M  V30 9839 H 909.713 -5.06501 4.04179 0
M  V30 9840 N 903.119 -0.802921 -1.35613 0
M  V30 9841 C 904.344 -0.392846 -2.03645 0
M  V30 9842 C 904.769 0.987075 -1.6012 0
M  V30 9843 O 904.127 1.63849 -0.776101 0
M  V30 9844 C 904.175 -0.480208 -3.57388 0
M  V30 9845 O 903.279 0.507751 -4.09262 0
M  V30 9846 H 902.62 -0.16464 -0.643265 0
M  V30 9847 H 905.15 -1.08779 -1.73287 0
M  V30 9848 H 905.16 -0.348683 -4.06507 0
M  V30 9849 H 903.835 -1.48675 -3.88418 0
M  V30 9850 H 902.412 0.336769 -3.71376 0
M  V30 9851 N 904.597 1.47463 -0.556102 0
M  V30 9852 C 906.008 1.86298 -0.122429 0
M  V30 9853 C 906.359 1.46285 1.30749 0
M  V30 9854 O 905.484 0.865405 1.98342 0
M  V30 9855 C 906.079 3.38115 -0.215407 0
M  V30 9856 C 904.638 3.76046 0.163223 0
M  V30 9857 C 903.785 2.71515 -0.563466 0
M  V30 9858 H 906.736 1.38996 -0.765888 0
M  V30 9859 H 906.757 3.76263 0.566271 0
M  V30 9860 H 906.269 3.67207 -1.25622 0
M  V30 9861 H 904.37 3.5257 1.20519 0
M  V30 9862 H 904.483 4.78705 -0.194568 0
M  V30 9863 H 902.847 2.54699 -0.00667879 0
M  V30 9864 H 903.63 3.03449 -1.60542 0
M  V30 9865 N 906.075 0.2925 1.54862 0
M  V30 9866 C 907.022 -0.587365 2.23201 0
M  V30 9867 C 907.992 -1.13623 1.21157 0
M  V30 9868 O 909.177 -1.18233 1.49752 0
M  V30 9869 C 906.317 -1.75745 2.96998 0
M  V30 9870 C 905.43 -1.24078 4.13798 0
M  V30 9871 C 904.565 -2.37405 4.75197 0
M  V30 9872 C 903.604 -1.82829 5.84157 0
M  V30 9873 N 902.741 -2.89696 6.39547 0
M  V30 9874 H 907.581 0.00202207 2.98 0
M  V30 9875 H 905.118 0.012766 1.47094 0
M  V30 9876 H 907.076 -2.44549 3.38011 0
M  V30 9877 H 905.706 -2.3186 2.24591 0
M  V30 9878 H 904.758 -0.445268 3.77785 0
M  V30 9879 H 906.07 -0.801186 4.92324 0
M  V30 9880 H 905.224 -3.14172 5.19019 0
M  V30 9881 H 903.963 -2.84688 3.95985 0
M  V30 9882 H 902.968 -1.04548 5.39768 0
M  V30 9883 H 904.193 -1.36461 6.65248 0
M  V30 9884 H 902.139 -3.36328 5.63222 0
M  V30 9885 H 902.056 -2.50206 7.13395 0
M  V30 9886 H 903.324 -3.66386 6.88027 0
M  V30 9887 N 907.553 -1.57587 0.0200696 0
M  V30 9888 C 908.5 -2.09667 -0.964791 0
M  V30 9889 C 909.47 -0.99664 -1.32877 0
M  V30 9890 O 910.655 -1.2703 -1.42366 0
M  V30 9891 C 907.795 -2.62101 -2.24493 0
M  V30 9892 C 906.908 -3.8608 -1.93821 0
M  V30 9893 C 906.043 -4.26939 -3.16064 0
M  V30 9894 C 905.082 -5.43701 -2.81169 0
M  V30 9895 N 904.219 -5.79759 -3.9601 0
M  V30 9896 H 909.059 -2.93538 -0.513751 0
M  V30 9897 H 906.596 -1.45096 -0.242 0
M  V30 9898 H 908.554 -2.90587 -2.99358 0
M  V30 9899 H 907.184 -1.81074 -2.6723 0
M  V30 9900 H 906.236 -3.64378 -1.09237 0
M  V30 9901 H 907.548 -4.71028 -1.64115 0
M  V30 9902 H 906.702 -4.56814 -3.99257 0
M  V30 9903 H 905.441 -3.40739 -3.48924 0
M  V30 9904 H 904.446 -5.13529 -1.96387 0
M  V30 9905 H 905.671 -6.31593 -2.49535 0
M  V30 9906 H 903.617 -4.96516 -4.28729 0
M  V30 9907 H 903.534 -6.59327 -3.69896 0
M  V30 9908 H 904.802 -6.14235 -4.79933 0
M  V30 9909 N 909.032 0.252966 -1.55557 0
M  V30 9910 C 909.979 1.3131 -1.89806 0
M  V30 9911 C 910.949 1.48121 -0.751633 0
M  V30 9912 O 912.134 1.62202 -1.00474 0
M  V30 9913 C 909.274 2.66467 -2.19293 0
M  V30 9914 C 908.387 2.57714 -3.46709 0
M  V30 9915 C 907.522 3.85184 -3.65796 0
M  V30 9916 C 906.561 3.71023 -4.86835 0
M  V30 9917 N 905.698 4.90371 -5.02474 0
M  V30 9918 H 910.538 1.01402 -2.80217 0
M  V30 9919 H 908.075 0.489462 -1.38718 0
M  V30 9920 H 910.033 3.45132 -2.34392 0
M  V30 9921 H 908.663 2.94536 -1.32093 0
M  V30 9922 H 907.715 1.70651 -3.39974 0
M  V30 9923 H 909.027 2.43158 -4.35517 0
M  V30 9924 H 908.181 4.72292 -3.80822 0
M  V30 9925 H 906.92 4.0263 -2.7521 0
M  V30 9926 H 905.925 2.82299 -4.71792 0
M  V30 9927 H 907.15 3.55078 -5.78875 0
M  V30 9928 H 905.096 5.0819 -4.14824 0
M  V30 9929 H 905.013 4.78423 -5.85361 0
M  V30 9930 H 906.281 5.78995 -5.21905 0
M  V30 9931 N 910.51 1.48831 0.518367 0
M  V30 9932 C 911.758 1.57128 1.27103 0
M  V30 9933 C 912.079 0.252098 1.93364 0
M  V30 9934 O 911.349 -0.727281 1.819 0
M  V30 9935 H 909.929 0.578891 0.472116 0
M  V30 9936 H 912.591 1.85361 0.602262 0
M  V30 9937 H 911.687 2.35838 2.04418 0
M  V30 9938 N 911.988 -0.768124 1.37614 0
M  V30 9939 C 913.213 -1.56239 1.36397 0
M  V30 9940 C 913.638 -1.8804 -0.0475839 0
M  V30 9941 O 912.996 -1.495 -1.02564 0
M  V30 9942 C 913.044 -2.84716 2.21289 0
M  V30 9943 O 912.148 -3.79249 1.62001 0
M  V30 9944 H 911.489 -0.473119 0.465891 0
M  V30 9945 H 914.019 -0.950415 1.81186 0
M  V30 9946 H 914.029 -3.33784 2.34632 0
M  V30 9947 H 912.704 -2.60899 3.2389 0
M  V30 9948 H 911.281 -3.37904 1.57719 0
M  V30 9949 N 913.466 -1.22244 -0.994698 0
M  V30 9950 C 914.694 -1.07218 -1.76952 0
M  V30 9951 C 915.109 0.377388 -1.8499 0
M  V30 9952 O 914.466 1.26157 -1.31874 0
M  V30 9953 C 914.517 -1.67496 -3.20355 0
M  V30 9954 O 914.238 -3.06782 -3.12756 0
M  V30 9955 C 915.739 -1.57721 -4.14294 0
M  V30 9956 H 912.959 -0.375966 -0.555779 0
M  V30 9957 H 915.503 -1.61799 -1.25065 0
M  V30 9958 H 913.658 -1.16982 -3.69315 0
M  V30 9959 H 914.072 -3.35784 -4.02926 0
M  V30 9960 H 915.546 -2.04623 -5.12673 0
M  V30 9961 H 916.023 -0.533434 -4.35949 0
M  V30 9962 H 916.629 -2.07531 -3.71229 0
M  V30 9963 N 914.944 1.19125 -1.03184 0
M  V30 9964 C 916.172 1.92838 -0.74975 0
M  V30 9965 C 916.587 1.75667 0.691851 0
M  V30 9966 O 915.944 1.0805 1.47076 0
M  V30 9967 C 915.995 3.44509 -1.09525 0
M  V30 9968 O 915.716 3.6113 -2.48025 0
M  V30 9969 C 917.217 4.35338 -0.836397 0
M  V30 9970 H 914.437 0.61246 -0.274105 0
M  V30 9971 H 916.981 1.5118 -1.37712 0
M  V30 9972 H 915.136 3.83988 -0.513006 0
M  V30 9973 H 915.55 4.54959 -2.60984 0
M  V30 9974 H 917.024 5.4035 -1.12808 0
M  V30 9975 H 917.501 4.38602 0.229102 0
M  V30 9976 H 918.107 4.01544 -1.40152 0
M  V30 9977 N 916.422 0.810101 1.35185 0
M  V30 9978 C 917.838 0.494269 1.51754 0
M  V30 9979 C 918.038 -0.983907 1.75845 0
M  V30 9980 O 917.094 -1.76882 1.80191 0
M  V30 9981 C 918.407 1.34268 2.69059 0
M  V30 9982 C 919.955 1.33848 2.82938 0
M  V30 9983 C 920.43 2.17109 4.03271 0
M  V30 9984 N 921.921 2.14664 4.10456 0
M  V30 9985 C 922.656 2.75843 5.02691 0
M  V30 9986 N 922.152 3.45962 6.00235 0
M  V30 9987 N 923.945 2.65465 4.95464 0
M  V30 9988 H 916.096 1.76736 1.17805 0
M  V30 9989 H 918.359 0.752429 0.576676 0
M  V30 9990 H 918.065 2.39183 2.57845 0
M  V30 9991 H 917.939 0.998362 3.63748 0
M  V30 9992 H 920.326 0.29716 2.936 0
M  V30 9993 H 920.407 1.72269 1.89095 0
M  V30 9994 H 920.051 3.21283 3.93369 0
M  V30 9995 H 919.981 1.76046 4.96302 0
M  V30 9996 H 922.472 1.63648 3.40628 0
M  V30 9997 H 922.785 3.89922 6.67219 0
M  V30 9998 H 921.13 3.50067 6.00398 0
M  V30 9999 H 924.321 2.1027 4.18215 0
M  V30 10000 H 924.494 3.13433 5.67154 0
M  V30 10001 N 917.9 -1.47166 0.563914 0
M  V30 10002 C 919.146 -2.02756 0.0424338 0
M  V30 10003 C 919.479 -1.43662 -1.3067 0
M  V30 10004 O 918.754 -0.594676 -1.85186 0
M  V30 10005 C 919.037 -3.60074 -0.0434793 0
M  V30 10006 C 918.89 -4.29587 1.33323 0
M  V30 10007 C 920.209 -4.336 -0.753568 0
M  V30 10008 H 917.328 -0.736806 0.0168946 0
M  V30 10009 H 919.97 -1.75521 0.727496 0
M  V30 10010 H 918.12 -3.83409 -0.626906 0
M  V30 10011 H 919.792 -4.17573 1.96037 0
M  V30 10012 H 918.035 -3.8968 1.9061 0
M  V30 10013 H 918.706 -5.38218 1.22576 0
M  V30 10014 H 921.182 -4.15299 -0.258126 0
M  V30 10015 H 920.058 -5.43291 -0.782659 0
M  V30 10016 H 920.319 -4.03302 -1.81108 0
M  V30 10017 N 919.378 -0.300708 -1.54705 0
M  V30 10018 C 920.326 0.591264 -2.2496 0
M  V30 10019 C 921.32 1.13725 -1.2555 0
M  V30 10020 O 922.526 1.08793 -1.43402 0
M  V30 10021 H 918.901 0.209278 -0.722293 0
M  V30 10022 H 920.872 -0.0238175 -2.9839 0
M  V30 10023 C 919.621 1.75179 -3.00346 0
M  V30 10024 H 918.944 1.34089 -3.76643 0
M  V30 10025 H 920.384 2.35198 -3.52786 0
M  V30 10026 C 918.843 2.65574 -2.07298 0
M  V30 10027 O 919.373 3.6666 -1.64083 0
M  V30 10028 N 917.579 2.33301 -1.7326 0
M  V30 10029 H 917.126 1.51142 -2.08599 0
M  V30 10030 H 917.084 2.94049 -1.11278 0
M  V30 10031 N 920.856 1.57574 -0.0284266 0
M  V30 10032 C 922.081 1.96479 0.664137 0
M  V30 10033 C 922.506 0.904826 1.64908 0
M  V30 10034 O 921.864 -0.134339 1.80802 0
M  V30 10035 C 921.912 3.34479 1.34745 0
M  V30 10036 O 921.016 3.30794 2.46271 0
M  V30 10037 H 920.357 0.640654 0.174524 0
M  V30 10038 H 922.887 2.04402 -0.0900729 0
M  V30 10039 H 922.897 3.70694 1.7044 0
M  V30 10040 H 921.572 4.1117 0.625468 0
M  V30 10041 H 920.149 3.06294 2.12693 0
M  V30 10042 N 922.334 -0.244713 1.55689 0
M  V30 10043 C 923.562 -0.989944 1.8168 0
M  V30 10044 C 923.977 -1.78863 0.604449 0
M  V30 10045 O 923.334 -1.77437 -0.426907 0
M  V30 10046 C 923.385 -1.92607 3.05916 0
M  V30 10047 O 923.106 -1.1597 4.22472 0
M  V30 10048 C 924.607 -2.78711 3.44724 0
M  V30 10049 H 921.827 -0.2912 0.604519 0
M  V30 10050 H 924.371 -0.266938 2.0275 0
M  V30 10051 H 922.526 -2.60333 2.8689 0
M  V30 10052 H 922.94 -1.79311 4.92898 0
M  V30 10053 H 924.414 -3.40141 4.34751 0
M  V30 10054 H 924.891 -3.49935 2.6541 0
M  V30 10055 H 925.497 -2.16435 3.66109 0
M  V30 10056 N 923.813 -1.49104 -0.510467 0
M  V30 10057 C 924.776 -1.64569 -1.59529 0
M  V30 10058 C 925.776 -0.517937 -1.5223 0
M  V30 10059 O 926.966 -0.784183 -1.55551 0
M  V30 10060 C 924.098 -1.6342 -2.99177 0
M  V30 10061 H 925.291 -2.61318 -1.4715 0
M  V30 10062 H 922.844 -1.37993 -0.734001 0
M  V30 10063 H 923.579 -0.68221 -3.17043 0
M  V30 10064 H 923.364 -2.45312 -3.05883 0
M  V30 10065 H 924.854 -1.77474 -3.78011 0
M  V30 10066 N 925.291 0.760815 -1.38019 0
M  V30 10067 C 926.239 1.89578 -1.34771 0
M  V30 10068 C 927.233 1.67766 -0.234714 0
M  V30 10069 O 928.439 1.75423 -0.403352 0
M  V30 10070 H 924.814 0.623608 -0.420258 0
M  V30 10071 H 926.785 1.89434 -2.30558 0
M  V30 10072 C 925.534 3.26976 -1.18246 0
M  V30 10073 H 924.857 3.44342 -2.03147 0
M  V30 10074 H 926.297 4.06657 -1.20026 0
M  V30 10075 C 924.756 3.36717 0.111145 0
M  V30 10076 O 925.286 3.86607 1.09079 0
M  V30 10077 N 923.492 2.90128 0.165542 0
M  V30 10078 H 923.039 2.49719 -0.632328 0
M  V30 10079 H 922.997 2.97026 1.03067 0
M  V30 10080 N 926.769 1.22769 0.988202 0
M  V30 10081 C 927.732 1.00325 2.06076 0
M  V30 10082 C 928.732 -0.0320618 1.60768 0
M  V30 10083 O 929.922 0.206912 1.72967 0
M  V30 10084 C 927.054 0.516376 3.36966 0
M  V30 10085 H 928.247 1.95499 2.27421 0
M  V30 10086 H 925.8 1.04704 1.16047 0
M  V30 10087 H 926.535 -0.439498 3.21308 0
M  V30 10088 H 926.32 1.26337 3.71189 0
M  V30 10089 H 927.81 0.37974 4.1587 0
M  V30 10090 N 928.247 -1.18576 1.03814 0
M  V30 10091 C 929.157 -2.25778 0.637311 0
M  V30 10092 C 930.173 -1.7074 -0.335248 0
M  V30 10093 O 931.349 -2.00494 -0.19081 0
M  V30 10094 C 928.414 -3.467 0.00386953 0
M  V30 10095 C 927.475 -4.16881 1.02511 0
M  V30 10096 C 926.708 -5.32031 0.421802 0
M  V30 10097 O 926.931 -5.65142 -0.772699 0
M  V30 10098 O 925.865 -5.90826 1.14925 0
M  V30 10099 H 929.691 -2.62323 1.53037 0
M  V30 10100 H 927.276 -1.25609 0.80887 0
M  V30 10101 H 929.158 -4.19953 -0.348873 0
M  V30 10102 H 927.833 -3.11983 -0.863047 0
M  V30 10103 H 926.74 -3.45707 1.4296 0
M  V30 10104 H 928.073 -4.55592 1.86271 0
M  V30 10105 N 929.725 -0.817259 -1.34754 0
M  V30 10106 C 930.953 -0.415451 -2.02686 0
M  V30 10107 C 931.368 0.97688 -1.61563 0
M  V30 10108 O 930.725 1.63125 -0.818321 0
M  V30 10109 C 930.776 -0.501486 -3.58005 0
M  V30 10110 O 930.497 -1.83893 -3.97637 0
M  V30 10111 C 931.998 -0.0938504 -4.43201 0
M  V30 10112 H 929.218 -0.16742 -0.649778 0
M  V30 10113 H 931.762 -1.10384 -1.7215 0
M  V30 10114 H 929.917 0.138766 -3.87151 0
M  V30 10115 H 930.331 -1.8092 -4.92309 0
M  V30 10116 H 931.805 -0.205145 -5.51619 0
M  V30 10117 H 932.282 0.962011 -4.28535 0
M  V30 10118 H 932.888 -0.707677 -4.19371 0
M  V30 10119 N 931.203 1.46865 -0.571711 0
M  V30 10120 C 932.135 2.28277 0.205479 0
M  V30 10121 C 933.148 1.37866 0.865835 0
M  V30 10122 O 934.337 1.62564 0.737247 0
M  V30 10123 C 931.437 3.12572 1.30965 0
M  V30 10124 C 930.61 4.31038 0.743328 0
M  V30 10125 C 929.669 4.96815 1.73382 0
M  V30 10126 O 928.695 5.54755 1.2742 0
M  V30 10127 N 929.897 4.92825 3.06764 0
M  V30 10128 H 932.662 2.95618 -0.49294 0
M  V30 10129 H 930.223 1.56655 -0.408744 0
M  V30 10130 H 932.215 3.53442 1.97131 0
M  V30 10131 H 930.785 2.47378 1.91109 0
M  V30 10132 H 930.005 3.94084 -0.0955004 0
M  V30 10133 H 931.293 5.07632 0.344556 0
M  V30 10134 H 930.691 4.46978 3.46738 0
M  V30 10135 H 929.248 5.3767 3.68449 0
M  V30 10136 N 932.681 0.308908 1.54543 0
M  V30 10137 C 933.644 -0.550857 2.22482 0
M  V30 10138 C 934.644 -1.0551 1.21344 0
M  V30 10139 O 935.834 -0.949866 1.46025 0
M  V30 10140 C 932.966 -1.76354 2.9174 0
M  V30 10141 H 934.159 0.0428395 2.99869 0
M  V30 10142 H 931.712 0.059825 1.56185 0
M  V30 10143 H 932.447 -2.39686 2.18451 0
M  V30 10144 H 932.232 -1.40954 3.65889 0
M  V30 10145 H 933.722 -2.37417 3.43545 0
M  V30 10146 N 934.159 -1.57557 0.0367827 0
M  V30 10147 C 935.387 -1.96419 -0.650168 0
M  V30 10148 C 935.802 -0.913656 -1.6522 0
M  V30 10149 O 935.159 0.103718 -1.82205 0
M  V30 10150 C 935.21 -3.35355 -1.3498 0
M  V30 10151 O 934.931 -4.36379 -0.387905 0
M  V30 10152 C 936.432 -3.88892 -2.12786 0
M  V30 10153 H 933.652 -0.646751 -0.178756 0
M  V30 10154 H 936.196 -2.04261 0.0988197 0
M  V30 10155 H 934.351 -3.28708 -2.05012 0
M  V30 10156 H 934.765 -5.16969 -0.885596 0
M  V30 10157 H 936.239 -4.88428 -2.5718 0
M  V30 10158 H 936.716 -3.23547 -2.97008 0
M  V30 10159 H 937.322 -3.98831 -1.47694 0
M  V30 10160 N 935.637 0.236453 -1.55816 0
M  V30 10161 C 936.862 0.98449 -1.82545 0
M  V30 10162 C 937.287 1.77755 -0.615206 0
M  V30 10163 O 936.645 1.75982 0.435895 0
M  V30 10164 C 936.693 1.88973 -3.07118 0
M  V30 10165 O 935.797 2.98298 -2.84766 0
M  V30 10166 H 935.138 0.279577 -0.602273 0
M  V30 10167 H 937.668 0.254277 -2.03014 0
M  V30 10168 H 937.678 2.3024 -3.36829 0
M  V30 10169 H 936.353 1.30671 -3.94839 0
M  V30 10170 H 934.93 2.61085 -2.6625 0
M  V30 10171 N 937.115 1.49373 0.502552 0
M  V30 10172 C 938.078 1.65413 1.58654 0
M  V30 10173 C 939.078 0.526003 1.51953 0
M  V30 10174 O 940.268 0.792421 1.55133 0
M  V30 10175 C 937.4 1.65005 2.98306 0
M  V30 10176 H 938.593 2.62095 1.45762 0
M  V30 10177 H 936.146 1.38381 0.726672 0
M  V30 10178 H 936.881 0.699014 3.16677 0
M  V30 10179 H 936.666 2.46931 3.04578 0
M  V30 10180 H 938.156 1.79477 3.77065 0
M  V30 10181 N 938.594 -0.753485 1.38421 0
M  V30 10182 C 939.841 -1.51261 1.34634 0
M  V30 10183 C 940.169 -1.94396 -0.0635771 0
M  V30 10184 O 939.424 -1.65736 -1.04068 0
M  V30 10185 C 939.723 -2.77836 2.24816 0
M  V30 10186 C 939.389 -2.53662 3.72782 0
M  V30 10187 C 938.051 -2.46779 4.13103 0
M  V30 10188 C 940.403 -2.32548 4.66445 0
M  V30 10189 C 937.731 -2.16796 5.45176 0
M  V30 10190 C 940.083 -2.04085 5.98775 0
M  V30 10191 C 938.747 -1.95658 6.3818 0
M  V30 10192 H 938.017 -0.553503 0.492661 0
M  V30 10193 H 940.664 -0.866406 1.7078 0
M  V30 10194 H 938.969 -3.47106 1.81726 0
M  V30 10195 H 940.666 -3.35793 2.19189 0
M  V30 10196 H 937.256 -2.59891 3.40815 0
M  V30 10197 H 941.44 -2.36845 4.3614 0
M  V30 10198 H 936.696 -2.0878 5.74648 0
M  V30 10199 H 940.87 -1.86751 6.70893 0
M  V30 10200 H 938.497 -1.7219 7.40442 0
M  V30 10201 N 940.072 -1.23292 -0.981677 0
M  V30 10202 C 941.004 -0.970782 -2.07626 0
M  V30 10203 C 942.017 0.0547506 -1.62708 0
M  V30 10204 O 943.206 -0.180623 -1.77584 0
M  V30 10205 C 940.306 -0.44055 -3.36024 0
M  V30 10206 C 939.479 -1.52595 -4.09919 0
M  V30 10207 C 938.538 -1.00082 -5.16595 0
M  V30 10208 O 937.564 -1.68951 -5.43548 0
M  V30 10209 N 938.766 0.172017 -5.80245 0
M  V30 10210 H 941.531 -1.91316 -2.30691 0
M  V30 10211 H 939.092 -1.14133 -1.14828 0
M  V30 10212 H 941.084 -0.0743111 -4.04632 0
M  V30 10213 H 939.654 0.407211 -3.09936 0
M  V30 10214 H 938.874 -2.06501 -3.35784 0
M  V30 10215 H 940.162 -2.2559 -4.56055 0
M  V30 10216 H 939.56 0.748129 -5.60731 0
M  V30 10217 H 938.117 0.479532 -6.50034 0
M  V30 10218 N 941.55 1.18024 -1.04442 0
M  V30 10219 C 942.778 1.92032 -0.770161 0
M  V30 10220 C 943.193 1.76391 0.673181 0
M  V30 10221 O 942.55 1.09604 1.45922 0
M  V30 10222 C 942.601 3.43328 -1.13173 0
M  V30 10223 O 942.322 3.5848 -2.51841 0
M  V30 10224 C 943.823 4.34427 -0.882523 0
M  V30 10225 H 941.043 0.609518 -0.280586 0
M  V30 10226 H 943.587 1.49711 -1.39308 0
M  V30 10227 H 941.742 3.83423 -0.553704 0
M  V30 10228 H 942.156 4.52166 -2.65794 0
M  V30 10229 H 943.63 5.39123 -1.18533 0
M  V30 10230 H 944.107 4.3882 0.18257 0
M  V30 10231 H 944.713 4.00035 -1.44403 0
M  V30 10232 N 943.028 0.824394 1.34319 0
M  V30 10233 C 943.96 0.204805 2.28283 0
M  V30 10234 C 944.973 -0.606162 1.51094 0
M  V30 10235 O 946.162 -0.435602 1.73103 0
M  V30 10236 C 943.262 -0.73139 3.30914 0
M  V30 10237 C 942.435 0.0370723 4.37384 0
M  V30 10238 C 941.494 -0.820272 5.19767 0
M  V30 10239 O 940.52 -0.264721 5.68584 0
M  V30 10240 N 941.722 -2.13984 5.39621 0
M  V30 10241 H 944.487 1.0121 2.82093 0
M  V30 10242 H 942.048 0.681494 1.46858 0
M  V30 10243 H 944.04 -1.30958 3.82926 0
M  V30 10244 H 942.61 -1.43943 2.77487 0
M  V30 10245 H 941.83 0.796578 3.86068 0
M  V30 10246 H 943.118 0.566014 5.05642 0
M  V30 10247 H 942.516 -2.61492 5.01636 0
M  V30 10248 H 941.073 -2.66685 5.94746 0
M  V30 10249 N 944.506 -1.46559 0.579492 0
M  V30 10250 C 945.453 -2.30275 -0.155598 0
M  V30 10251 C 946.423 -1.40422 -0.887175 0
M  V30 10252 O 947.608 -1.69373 -0.878481 0
M  V30 10253 C 944.748 -3.24827 -1.16539 0
M  V30 10254 C 943.861 -4.29778 -0.43759 0
M  V30 10255 C 942.996 -5.11461 -1.43462 0
M  V30 10256 C 942.035 -6.08164 -0.693048 0
M  V30 10257 N 941.172 -6.82726 -1.63799 0
M  V30 10258 H 946.012 -2.92607 0.564356 0
M  V30 10259 H 943.549 -1.44211 0.290126 0
M  V30 10260 H 945.507 -3.78088 -1.76368 0
M  V30 10261 H 944.137 -2.64311 -1.8531 0
M  V30 10262 H 943.189 -3.794 0.27567 0
M  V30 10263 H 944.501 -4.98597 0.142298 0
M  V30 10264 H 943.655 -5.68982 -2.1058 0
M  V30 10265 H 942.394 -4.42595 -2.04844 0
M  V30 10266 H 941.399 -5.49799 -0.00807093 0
M  V30 10267 H 942.624 -6.79047 -0.0846678 0
M  V30 10268 H 940.57 -6.16572 -2.23997 0
M  V30 10269 H 940.487 -7.47795 -1.11082 0
M  V30 10270 H 941.755 -7.44807 -2.29962 0
M  V30 10271 N 945.984 -0.3171 -1.54377 0
M  V30 10272 C 947.395 0.172287 -1.85903 0
M  V30 10273 C 947.746 1.52141 -1.23885 0
M  V30 10274 O 946.871 2.0949 -0.542476 0
M  V30 10275 C 947.466 0.319392 -3.37291 0
M  V30 10276 C 946.025 0.752998 -3.68791 0
M  V30 10277 C 945.172 -0.129143 -2.76999 0
M  V30 10278 H 948.123 -0.537597 -1.49317 0
M  V30 10279 H 948.144 1.15137 -3.62662 0
M  V30 10280 H 947.656 -0.662671 -3.82401 0
M  V30 10281 H 945.757 1.74504 -3.2921 0
M  V30 10282 H 945.87 0.561228 -4.75801 0
M  V30 10283 H 944.234 0.394242 -2.5163 0
M  V30 10284 H 945.017 -1.10785 -3.24933 0
M  V30 10285 N 947.462 1.57535 -0.0451378 0
M  V30 10286 C 948.392 2.14208 0.929372 0
M  V30 10287 C 949.373 1.06221 1.32858 0
M  V30 10288 O 950.558 1.34132 1.40436 0
M  V30 10289 C 947.688 2.68217 2.20629 0
M  V30 10290 C 946.642 3.81134 1.94734 0
M  V30 10291 C 945.968 4.21636 3.28828 0
M  V30 10292 C 947.268 5.06531 1.27374 0
M  V30 10293 H 948.962 2.95886 0.457348 0
M  V30 10294 H 946.508 1.42332 0.218544 0
M  V30 10295 H 948.461 3.06502 2.89196 0
M  V30 10296 H 947.185 1.83722 2.70026 0
M  V30 10297 H 945.844 3.43312 1.28579 0
M  V30 10298 H 945.492 3.34099 3.76014 0
M  V30 10299 H 945.192 4.97736 3.12302 0
M  V30 10300 H 946.716 4.62516 3.98637 0
M  V30 10301 H 948.13 5.423 1.85967 0
M  V30 10302 H 946.527 5.87735 1.21194 0
M  V30 10303 H 947.597 4.84261 0.248913 0
M  V30 10304 N 948.94 -0.228186 1.55939 0
M  V30 10305 C 949.887 -1.28274 1.91871 0
M  V30 10306 C 950.857 -1.46906 0.775103 0
M  V30 10307 O 952.042 -1.60583 1.03042 0
M  V30 10308 C 949.182 -2.62945 2.23504 0
M  V30 10309 C 948.295 -2.52166 3.50766 0
M  V30 10310 C 947.43 -3.79316 3.71878 0
M  V30 10311 C 946.469 -3.63231 4.92676 0
M  V30 10312 N 945.606 -4.82315 5.10212 0
M  V30 10313 H 950.446 -0.96931 2.81795 0
M  V30 10314 H 947.983 -0.467331 1.39479 0
M  V30 10315 H 949.941 -3.41359 2.39854 0
M  V30 10316 H 948.571 -2.92397 1.36762 0
M  V30 10317 H 947.623 -1.65221 3.42646 0
M  V30 10318 H 948.935 -2.36199 4.39331 0
M  V30 10319 H 948.089 -4.66173 3.88288 0
M  V30 10320 H 946.828 -3.982 2.81581 0
M  V30 10321 H 945.833 -2.74757 4.76223 0
M  V30 10322 H 947.058 -3.45823 5.84451 0
M  V30 10323 H 945.004 -5.01526 4.22856 0
M  V30 10324 H 944.921 -4.6905 5.92898 0
M  V30 10325 H 946.189 -5.70618 5.31051 0
M  V30 10326 N 950.418 -1.49637 -0.494624 0
M  V30 10327 C 951.643 -1.63431 -1.27691 0
M  V30 10328 C 952.068 -0.30813 -1.85559 0
M  V30 10329 O 951.426 0.725083 -1.66169 0
M  V30 10330 C 951.474 -2.71043 -2.3784 0
M  V30 10331 O 950.578 -2.3066 -3.41862 0
M  V30 10332 H 949.919 -0.546804 -0.376698 0
M  V30 10333 H 952.449 -1.95866 -0.591413 0
M  V30 10334 H 952.459 -2.93406 -2.83508 0
M  V30 10335 H 951.134 -3.67306 -1.95088 0
M  V30 10336 H 949.711 -2.18652 -3.02069 0
M  V30 10337 N 951.896 0.746133 -1.38819 0
M  V30 10338 C 953.124 1.53539 -1.38685 0
M  V30 10339 C 953.539 1.88788 0.0215039 0
M  V30 10340 O 952.896 1.53312 0.990031 0
M  V30 10341 C 952.947 2.8299 -2.24942 0
M  V30 10342 O 952.668 2.49242 -3.60292 0
M  V30 10343 C 954.169 3.77085 -2.3307 0
M  V30 10344 H 951.389 0.474842 -0.474095 0
M  V30 10345 H 953.933 0.922844 -1.82493 0
M  V30 10346 H 952.088 3.40603 -1.84576 0
M  V30 10347 H 952.502 3.32319 -4.05789 0
M  V30 10348 H 953.976 4.64845 -2.97696 0
M  V30 10349 H 954.453 4.18049 -1.34655 0
M  V30 10350 H 955.059 3.25394 -2.73859 0
M  V30 10351 N 953.375 1.23811 0.975125 0
M  V30 10352 C 954.6 1.10109 1.75757 0
M  V30 10353 C 955.025 -0.342922 1.84948 0
M  V30 10354 O 954.383 -1.24814 1.31496 0
M  V30 10355 C 954.431 1.73724 3.15994 0
M  V30 10356 O 953.535 1.00297 4.00018 0
M  V30 10357 H 952.876 0.385627 0.540544 0
M  V30 10358 H 955.406 1.63971 1.22372 0
M  V30 10359 H 955.416 1.79178 3.6655 0
M  V30 10360 H 954.091 2.78794 3.0862 0
M  V30 10361 H 952.668 1.02575 3.58515 0
M  V30 10362 N 954.853 -1.17469 1.05066 0
M  V30 10363 C 955.783 -2.23635 0.671552 0
M  V30 10364 C 956.764 -1.66867 -0.33006 0
M  V30 10365 O 957.949 -1.93084 -0.207933 0
M  V30 10366 C 955.079 -3.47272 0.0441845 0
M  V30 10367 C 954.033 -4.16854 0.97042 0
M  V30 10368 C 953.359 -5.34299 0.206998 0
M  V30 10369 C 954.659 -4.69225 2.29401 0
M  V30 10370 H 956.353 -2.55602 1.55911 0
M  V30 10371 H 953.899 -1.2286 0.751101 0
M  V30 10372 H 955.852 -4.20756 -0.23282 0
M  V30 10373 H 954.576 -3.14568 -0.878311 0
M  V30 10374 H 953.235 -3.4528 1.23197 0
M  V30 10375 H 952.883 -4.97846 -0.718222 0
M  V30 10376 H 952.583 -5.81792 0.82416 0
M  V30 10377 H 954.107 -6.10568 -0.0627525 0
M  V30 10378 H 955.521 -5.34353 2.077 0
M  V30 10379 H 953.918 -5.27291 2.86503 0
M  V30 10380 H 954.988 -3.86102 2.93348 0
M  V30 10381 N 956.331 -0.831506 -1.3388 0
M  V30 10382 C 957.556 -0.435954 -2.02766 0
M  V30 10383 C 957.981 0.952889 -1.62178 0
M  V30 10384 O 957.339 1.62166 -0.810681 0
M  V30 10385 C 957.387 -0.555907 -3.56289 0
M  V30 10386 O 956.491 0.420826 -4.10247 0
M  V30 10387 H 955.832 -0.178248 -0.639628 0
M  V30 10388 H 958.362 -1.1243 -1.70941 0
M  V30 10389 H 958.372 -0.434831 -4.05676 0
M  V30 10390 H 957.047 -1.56881 -3.85177 0
M  V30 10391 H 955.624 0.257919 -3.72007 0
M  V30 10392 N 957.809 1.4625 -0.587256 0
M  V30 10393 C 958.739 2.33132 0.131076 0
M  V30 10394 C 959.72 1.45619 0.879158 0
M  V30 10395 O 960.905 1.74428 0.853723 0
M  V30 10396 C 958.035 3.27975 1.14236 0
M  V30 10397 C 956.989 4.24965 0.508819 0
M  V30 10398 C 956.315 5.09349 1.62689 0
M  V30 10399 C 957.615 5.19322 -0.55694 0
M  V30 10400 H 959.309 2.93442 -0.594333 0
M  V30 10401 H 956.855 1.41106 -0.287263 0
M  V30 10402 H 958.808 3.87614 1.65328 0
M  V30 10403 H 957.532 2.65781 1.8981 0
M  V30 10404 H 956.191 3.66595 0.0189337 0
M  V30 10405 H 955.839 4.43537 2.37242 0
M  V30 10406 H 955.539 5.75036 1.20861 0
M  V30 10407 H 957.063 5.71852 2.14049 0
M  V30 10408 H 958.477 5.73151 -0.130903 0
M  V30 10409 H 956.874 5.93376 -0.895801 0
M  V30 10410 H 957.944 4.62979 -1.44148 0
M  V30 10411 N 959.287 0.325282 1.54207 0
M  V30 10412 C 960.534 -0.276775 2.006 0
M  V30 10413 C 960.862 -1.52007 1.21343 0
M  V30 10414 O 960.117 -1.93627 0.284104 0
M  V30 10415 C 960.416 -0.654292 3.5136 0
M  V30 10416 C 960.082 0.490023 4.48229 0
M  V30 10417 C 958.744 0.804104 4.74434 0
M  V30 10418 C 961.096 1.2586 5.05775 0
M  V30 10419 C 958.424 1.88945 5.55443 0
M  V30 10420 C 960.776 2.33405 5.87967 0
M  V30 10421 C 959.44 2.65393 6.12473 0
M  V30 10422 H 958.71 -0.101279 0.734046 0
M  V30 10423 H 961.357 0.449416 1.86152 0
M  V30 10424 H 959.662 -1.46093 3.63544 0
M  V30 10425 H 961.359 -1.13171 3.84699 0
M  V30 10426 H 957.949 0.235147 4.27954 0
M  V30 10427 H 962.133 1.02921 4.85511 0
M  V30 10428 H 957.389 2.14174 5.7266 0
M  V30 10429 H 961.563 2.93402 6.31576 0
M  V30 10430 H 959.19 3.49622 6.75032 0
M  V30 10431 N 960.765 -1.57509 0.0534917 0
M  V30 10432 C 961.995 -1.96812 -0.628386 0
M  V30 10433 C 962.403 -0.929808 -1.64776 0
M  V30 10434 O 961.746 0.0941155 -1.83459 0
M  V30 10435 C 961.808 -3.32361 -1.37027 0
M  V30 10436 C 961.472 -4.54185 -0.506465 0
M  V30 10437 C 962.469 -5.19398 0.228412 0
M  V30 10438 C 960.154 -5.00398 -0.43671 0
M  V30 10439 C 962.148 -6.29162 1.02146 0
M  V30 10440 C 959.835 -6.10039 0.360022 0
M  V30 10441 C 960.833 -6.74282 1.08779 0
M  V30 10442 O 960.521 -7.81814 1.87142 0
M  V30 10443 H 960.253 -0.65257 -0.176432 0
M  V30 10444 H 962.807 -2.05067 0.116908 0
M  V30 10445 H 961.037 -3.20667 -2.16125 0
M  V30 10446 H 962.726 -3.56395 -1.94261 0
M  V30 10447 H 963.492 -4.84651 0.184003 0
M  V30 10448 H 959.371 -4.50183 -0.992772 0
M  V30 10449 H 962.915 -6.79238 1.59002 0
M  V30 10450 H 958.812 -6.44222 0.406061 0
M  V30 10451 H 959.58 -7.98602 1.79378 0
M  V30 10452 N 962.243 0.219913 -1.56058 0
M  V30 10453 C 963.19 1.27254 -1.92549 0
M  V30 10454 C 964.16 1.46493 -0.782883 0
M  V30 10455 O 965.345 1.60035 -1.03892 0
M  V30 10456 C 962.485 2.61756 -2.24896 0
M  V30 10457 C 961.598 2.50302 -3.52098 0
M  V30 10458 C 960.733 3.77338 -3.73884 0
M  V30 10459 C 959.772 3.60613 -4.94595 0
M  V30 10460 N 958.909 4.79603 -5.12763 0
M  V30 10461 H 963.749 0.954352 -2.82305 0
M  V30 10462 H 961.286 0.459928 -1.39725 0
M  V30 10463 H 963.244 3.40082 -2.4166 0
M  V30 10464 H 961.874 2.91668 -1.38311 0
M  V30 10465 H 960.926 1.63401 -3.43517 0
M  V30 10466 H 962.238 2.33866 -4.40577 0
M  V30 10467 H 961.392 4.64108 -3.90754 0
M  V30 10468 H 960.131 3.96702 -2.83689 0
M  V30 10469 H 959.136 2.72228 -4.77674 0
M  V30 10470 H 960.361 3.42719 -5.86277 0
M  V30 10471 H 958.307 4.99277 -4.2551 0
M  V30 10472 H 958.224 4.65899 -5.95377 0
M  V30 10473 H 959.492 5.67794 -5.34069 0
M  V30 10474 N 963.721 1.49897 0.486681 0
M  V30 10475 C 964.668 1.67619 1.58658 0
M  V30 10476 C 965.638 0.517537 1.57831 0
M  V30 10477 O 966.823 0.746272 1.756 0
M  V30 10478 C 963.963 1.762 2.96728 0
M  V30 10479 C 963.076 3.03465 3.07462 0
M  V30 10480 C 962.211 3.02937 4.36351 0
M  V30 10481 C 961.25 4.24721 4.4077 0
M  V30 10482 N 960.387 4.22021 5.61108 0
M  V30 10483 H 965.227 2.61528 1.42853 0
M  V30 10484 H 962.764 1.29657 0.694807 0
M  V30 10485 H 964.722 1.79156 3.76774 0
M  V30 10486 H 963.352 0.857452 3.11203 0
M  V30 10487 H 962.404 3.10054 2.20387 0
M  V30 10488 H 963.716 3.93454 3.06586 0
M  V30 10489 H 962.87 3.04536 5.24731 0
M  V30 10490 H 961.609 2.10751 4.39813 0
M  V30 10491 H 960.614 4.23352 3.5079 0
M  V30 10492 H 961.839 5.18116 4.39013 0
M  V30 10493 H 959.785 3.3268 5.65385 0
M  V30 10494 H 959.702 5.05761 5.61909 0
M  V30 10495 H 960.97 4.27743 6.51656 0
M  V30 10496 N 965.199 -0.738761 1.39212 0
M  V30 10497 C 966.445 -1.50046 1.36433 0
M  V30 10498 C 966.778 -1.94157 -0.0409474 0
M  V30 10499 O 966.053 -1.66515 -1.00514 0
M  V30 10500 C 966.336 -2.74277 2.33333 0
M  V30 10501 C 966.189 -2.36209 3.82786 0
M  V30 10502 C 967.508 -3.76361 2.28123 0
M  V30 10503 H 964.627 -0.544294 0.496903 0
M  V30 10504 H 967.269 -0.845005 1.70175 0
M  V30 10505 H 965.419 -3.30204 2.04689 0
M  V30 10506 H 967.091 -1.85942 4.22165 0
M  V30 10507 H 965.334 -1.68483 3.99745 0
M  V30 10508 H 966.005 -3.25156 4.46069 0
M  V30 10509 H 968.481 -3.30009 2.53443 0
M  V30 10510 H 967.357 -4.60957 2.9801 0
M  V30 10511 H 967.618 -4.23013 1.28499 0
M  V30 10512 N 966.677 -1.24326 -0.968545 0
M  V30 10513 C 967.907 -1.10786 -1.74385 0
M  V30 10514 C 968.315 0.342503 -1.86074 0
M  V30 10515 O 967.658 1.24817 -1.34782 0
M  V30 10516 C 967.72 -1.67274 -3.18213 0
M  V30 10517 C 967.384 -3.1615 -3.29998 0
M  V30 10518 C 968.381 -4.13309 -3.15392 0
M  V30 10519 C 966.066 -3.56092 -3.54265 0
M  V30 10520 C 968.06 -5.48392 -3.24878 0
M  V30 10521 C 965.747 -4.91316 -3.63389 0
M  V30 10522 C 966.745 -5.87275 -3.48707 0
M  V30 10523 O 966.433 -7.20041 -3.57485 0
M  V30 10524 H 966.165 -0.387795 -0.553706 0
M  V30 10525 H 968.719 -1.64894 -1.22471 0
M  V30 10526 H 966.949 -1.07598 -3.71429 0
M  V30 10527 H 968.638 -1.49036 -3.77549 0
M  V30 10528 H 969.404 -3.83792 -2.96528 0
M  V30 10529 H 965.283 -2.81907 -3.6476 0
M  V30 10530 H 968.827 -6.23271 -3.13335 0
M  V30 10531 H 964.724 -5.20505 -3.81766 0
M  V30 10532 H 965.492 -7.27951 -3.74205 0
M  V30 10533 N 968.156 1.1691 -1.05688 0
M  V30 10534 C 969.572 1.39288 -0.779167 0
M  V30 10535 C 969.772 1.91587 0.624231 0
M  V30 10536 O 968.828 2.11072 1.38582 0
M  V30 10537 C 970.141 2.37914 -1.83895 0
M  V30 10538 C 971.689 2.51611 -1.86175 0
M  V30 10539 C 972.164 3.53514 -2.9119 0
M  V30 10540 N 973.655 3.61036 -2.90184 0
M  V30 10541 C 974.39 4.39657 -3.68088 0
M  V30 10542 N 973.886 5.21752 -4.55793 0
M  V30 10543 N 975.679 4.3458 -3.56507 0
M  V30 10544 H 967.83 0.81296 -1.96226 0
M  V30 10545 H 970.093 0.419818 -0.849975 0
M  V30 10546 H 969.799 2.06568 -2.84645 0
M  V30 10547 H 969.673 3.37483 -1.68479 0
M  V30 10548 H 972.06 2.82264 -0.86087 0
M  V30 10549 H 972.141 1.52099 -2.05668 0
M  V30 10550 H 971.785 3.23599 -3.91467 0
M  V30 10551 H 971.715 4.52742 -2.68947 0
M  V30 10552 H 974.206 3.02428 -2.26596 0
M  V30 10553 H 974.519 5.78939 -5.11907 0
M  V30 10554 H 972.864 5.21116 -4.59851 0
M  V30 10555 H 976.055 3.69501 -2.87379 0
M  V30 10556 H 976.228 4.95607 -4.17466 0
M  V30 10557 N 969.634 0.838594 1.33437 0
M  V30 10558 C 970.564 0.286672 2.31734 0
M  V30 10559 C 971.545 -0.605451 1.5896 0
M  V30 10560 O 972.73 -0.529059 1.86854 0
M  V30 10561 C 969.86 -0.539311 3.43087 0
M  V30 10562 C 968.814 0.256997 4.27228 0
M  V30 10563 C 968.14 -0.692718 5.30194 0
M  V30 10564 C 969.44 1.47391 5.01072 0
M  V30 10565 H 971.134 1.10798 2.78144 0
M  V30 10566 H 968.68 0.534235 1.33723 0
M  V30 10567 H 970.633 -0.935724 4.1088 0
M  V30 10568 H 969.357 -1.39383 2.95364 0
M  V30 10569 H 968.016 0.634967 3.61059 0
M  V30 10570 H 967.664 -1.54363 4.78729 0
M  V30 10571 H 967.364 -0.164023 5.87371 0
M  V30 10572 H 968.888 -1.08665 6.00853 0
M  V30 10573 H 970.302 1.15067 5.61634 0
M  V30 10574 H 968.699 1.93937 5.67898 0
M  V30 10575 H 969.769 2.24382 4.29861 0
M  V30 10576 N 971.112 -1.45937 0.595003 0
M  V30 10577 C 972.075 -2.2888 -0.121102 0
M  V30 10578 C 973.075 -1.39075 -0.807149 0
M  V30 10579 O 974.265 -1.61326 -0.657228 0
M  V30 10580 C 971.397 -3.19778 -1.1813 0
M  V30 10581 H 972.59 -2.93673 0.607968 0
M  V30 10582 H 970.143 -1.5225 0.353495 0
M  V30 10583 H 970.878 -2.59759 -1.94154 0
M  V30 10584 H 970.663 -3.85914 -0.693724 0
M  V30 10585 H 972.153 -3.82176 -1.68319 0
M  V30 10586 N 972.59 -0.333456 -1.54032 0
M  V30 10587 C 973.82 0.267425 -2.04862 0
M  V30 10588 C 974.228 1.45559 -1.20869 0
M  V30 10589 O 973.571 1.82197 -0.234478 0
M  V30 10590 C 973.633 0.755759 -3.51466 0
M  V30 10591 C 973.297 -0.311409 -4.55938 0
M  V30 10592 C 974.294 -1.15078 -5.07004 0
M  V30 10593 C 971.979 -0.462439 -5.00167 0
M  V30 10594 C 973.973 -2.12682 -6.0087 0
M  V30 10595 C 971.66 -1.44188 -5.93846 0
M  V30 10596 C 972.658 -2.27253 -6.44085 0
M  V30 10597 O 972.346 -3.23532 -7.35923 0
M  V30 10598 H 972.078 0.0572596 -0.673571 0
M  V30 10599 H 974.632 -0.480646 -1.99697 0
M  V30 10600 H 972.862 1.55491 -3.54062 0
M  V30 10601 H 974.551 1.27607 -3.8532 0
M  V30 10602 H 975.317 -1.04513 -4.73605 0
M  V30 10603 H 971.196 0.17424 -4.60671 0
M  V30 10604 H 974.74 -2.77555 -6.40007 0
M  V30 10605 H 970.637 -1.54813 -6.2666 0
M  V30 10606 H 971.405 -3.18886 -7.53826 0
M  V30 10607 N 974.068 1.57479 -0.061844 0
M  V30 10608 C 974.998 2.15181 0.9066 0
M  V30 10609 C 975.979 1.07624 1.31724 0
M  V30 10610 O 977.164 1.35614 1.39006 0
M  V30 10611 C 974.294 2.70542 2.17771 0
M  V30 10612 C 973.248 3.83178 1.9068 0
M  V30 10613 C 972.574 4.25099 3.24337 0
M  V30 10614 C 973.874 5.07853 1.21994 0
M  V30 10615 H 975.568 2.96355 0.42594 0
M  V30 10616 H 973.114 1.42556 0.203435 0
M  V30 10617 H 975.067 3.09552 2.85929 0
M  V30 10618 H 973.791 1.86575 2.68062 0
M  V30 10619 H 972.45 3.44656 1.24931 0
M  V30 10620 H 972.098 3.38069 3.72449 0
M  V30 10621 H 971.798 5.01021 3.07005 0
M  V30 10622 H 973.322 4.66718 3.93709 0
M  V30 10623 H 974.736 5.44242 1.80204 0
M  V30 10624 H 973.133 5.88987 1.14954 0
M  V30 10625 H 974.203 4.84497 0.197536 0
M  V30 10626 N 975.546 -0.211634 1.56173 0
M  V30 10627 C 976.962 -0.56177 1.49386 0
M  V30 10628 C 977.162 -1.86666 0.758813 0
M  V30 10629 O 976.218 -2.50681 0.302534 0
M  V30 10630 C 977.531 -0.631815 2.93987 0
M  V30 10631 C 979.079 -0.721773 3.04564 0
M  V30 10632 C 979.554 -0.823075 4.50544 0
M  V30 10633 N 981.045 -0.887038 4.54627 0
M  V30 10634 C 981.78 -0.985304 5.64871 0
M  V30 10635 N 981.276 -1.0469 6.84844 0
M  V30 10636 N 983.069 -1.02121 5.52746 0
M  V30 10637 H 975.22 0.64452 2.02385 0
M  V30 10638 H 977.483 0.227466 0.920306 0
M  V30 10639 H 977.189 0.257592 3.50755 0
M  V30 10640 H 977.063 -1.4921 3.46433 0
M  V30 10641 H 979.45 -1.60162 2.47855 0
M  V30 10642 H 979.531 0.164385 2.55271 0
M  V30 10643 H 979.175 0.0523511 5.07873 0
M  V30 10644 H 979.105 -1.72479 4.97552 0
M  V30 10645 H 981.596 -0.849352 3.68231 0
M  V30 10646 H 981.909 -1.12193 7.64613 0
M  V30 10647 H 980.254 -1.01586 6.87536 0
M  V30 10648 H 983.445 -0.969814 4.57943 0
M  V30 10649 H 983.618 -1.09434 6.38693 0
M  V30 10650 N 977.024 -1.50153 -0.478725 0
M  V30 10651 C 977.954 -1.71384 -1.58587 0
M  V30 10652 C 978.935 -0.562705 -1.60523 0
M  V30 10653 O 980.12 -0.80101 -1.76911 0
M  V30 10654 C 977.25 -1.80094 -2.96957 0
M  V30 10655 C 976.204 -2.95218 -3.09888 0
M  V30 10656 C 975.53 -2.89063 -4.49829 0
M  V30 10657 C 976.83 -4.35841 -2.8782 0
M  V30 10658 H 978.524 -2.64081 -1.41073 0
M  V30 10659 H 976.07 -1.27081 -0.677239 0
M  V30 10660 H 978.023 -1.93531 -3.74331 0
M  V30 10661 H 976.747 -0.840131 -3.1561 0
M  V30 10662 H 975.406 -2.81419 -2.34944 0
M  V30 10663 H 975.054 -1.90844 -4.6539 0
M  V30 10664 H 974.754 -3.66345 -4.59418 0
M  V30 10665 H 976.278 -3.04539 -5.29234 0
M  V30 10666 H 977.692 -4.50205 -3.54948 0
M  V30 10667 H 976.089 -5.14515 -3.0886 0
M  V30 10668 H 977.159 -4.48739 -1.83742 0
M  V30 10669 N 978.502 0.731368 -1.39602 0
M  V30 10670 C 979.45 1.86676 -1.38761 0
M  V30 10671 C 980.444 1.6723 -0.270247 0
M  V30 10672 O 981.65 1.74528 -0.440471 0
M  V30 10673 H 978.025 0.614553 -0.433391 0
M  V30 10674 H 979.996 1.84501 -2.34525 0
M  V30 10675 C 978.745 3.24394 -1.25155 0
M  V30 10676 H 978.068 3.39955 -2.10406 0
M  V30 10677 H 979.508 4.04019 -1.28625 0
M  V30 10678 C 977.967 3.36877 0.0396976 0
M  V30 10679 O 978.497 3.88833 1.00854 0
M  V30 10680 N 976.703 2.90414 0.103965 0
M  V30 10681 H 976.25 2.48321 -0.685155 0
M  V30 10682 H 976.208 2.99146 0.967435 0
M  V30 10683 N 979.98 1.24838 0.961938 0
M  V30 10684 C 981.208 1.11871 1.74047 0
M  V30 10685 C 981.623 -0.328209 1.85925 0
M  V30 10686 O 980.98 -1.22616 1.35173 0
M  V30 10687 C 981.031 1.75931 3.15801 0
M  V30 10688 O 980.752 3.14967 3.04512 0
M  V30 10689 C 982.253 1.68649 4.09966 0
M  V30 10690 H 979.473 0.390569 0.545616 0
M  V30 10691 H 982.017 1.65058 1.20732 0
M  V30 10692 H 980.172 1.26733 3.66084 0
M  V30 10693 H 980.586 3.46349 3.93882 0
M  V30 10694 H 982.06 2.18144 5.07067 0
M  V30 10695 H 982.537 0.648831 4.34381 0
M  V30 10696 H 983.143 2.17301 3.65596 0
M  V30 10697 N 981.458 -1.16348 1.06306 0
M  V30 10698 C 982.388 -2.2291 0.695234 0
M  V30 10699 C 983.369 -1.67208 -0.312343 0
M  V30 10700 O 984.554 -1.93293 -0.187442 0
M  V30 10701 C 981.684 -3.47205 0.0810149 0
M  V30 10702 C 980.638 -4.15801 1.01458 0
M  V30 10703 C 979.964 -5.3405 0.263656 0
M  V30 10704 C 981.264 -4.66766 2.34365 0
M  V30 10705 H 982.958 -2.53934 1.58613 0
M  V30 10706 H 980.504 -1.22056 0.76409 0
M  V30 10707 H 982.457 -4.2098 -0.18818 0
M  V30 10708 H 981.181 -3.15482 -0.844897 0
M  V30 10709 H 979.84 -3.43954 1.26852 0
M  V30 10710 H 979.488 -4.9858 -0.665378 0
M  V30 10711 H 979.188 -5.80885 0.88582 0
M  V30 10712 H 980.712 -6.106 0.00200994 0
M  V30 10713 H 982.126 -5.3212 2.13356 0
M  V30 10714 H 980.523 -5.24223 2.9208 0
M  V30 10715 H 981.593 -3.82969 2.97426 0
M  V30 10716 N 982.937 -0.845659 -1.3299 0
M  V30 10717 C 984.177 -0.450819 -1.99366 0
M  V30 10718 C 984.541 0.973297 -1.65502 0
M  V30 10719 O 985.742 1.47222 -2.24898 0
M  V30 10720 C 984.013 -0.672825 -3.5101 0
M  V30 10721 S 985.572 -0.374216 -4.37201 0
M  V30 10722 H 982.39 -0.169273 -0.690556 0
M  V30 10723 H 984.992 -1.09642 -1.61861 0
M  V30 10724 H 983.696 -1.70855 -3.73145 0
M  V30 10725 H 983.227 -0.0133185 -3.93398 0
M  V30 10726 H 985.242 0.803342 -4.89654 0
M  V30 10727 N 984.415 1.45619 -0.602734 0
M  V30 10728 C 985.325 2.34288 0.120902 0
M  V30 10729 C 986.341 1.50952 0.865414 0
M  V30 10730 O 987.517 1.83768 0.824094 0
M  V30 10731 C 984.582 3.28489 1.10888 0
M  V30 10732 C 983.643 4.2773 0.366853 0
M  V30 10733 C 982.876 5.17429 1.30776 0
M  V30 10734 O 983.099 5.10459 2.54535 0
M  V30 10735 O 982.033 5.96459 0.807464 0
M  V30 10736 H 985.859 2.97559 -0.60765 0
M  V30 10737 H 983.444 1.44922 -0.363019 0
M  V30 10738 H 985.326 3.86549 1.67803 0
M  V30 10739 H 984.001 2.67789 1.81854 0
M  V30 10740 H 982.908 3.73299 -0.244643 0
M  V30 10741 H 984.241 4.91271 -0.302226 0
M  V30 10742 N 985.893 0.34162 1.53853 0
M  V30 10743 C 987.309 -0.0103769 1.59597 0
M  V30 10744 C 987.509 -1.48897 1.35764 0
M  V30 10745 O 986.565 -2.24743 1.15095 0
M  V30 10746 C 987.878 0.424067 2.97695 0
M  V30 10747 C 989.426 0.376247 3.1073 0
M  V30 10748 C 989.901 0.786129 4.51203 0
M  V30 10749 N 991.392 0.74024 4.57247 0
M  V30 10750 C 992.127 1.02937 5.64085 0
M  V30 10751 N 991.623 1.38655 6.78783 0
M  V30 10752 N 993.416 0.953734 5.5395 0
M  V30 10753 H 985.567 1.30477 1.67599 0
M  V30 10754 H 987.83 0.531753 0.78482 0
M  V30 10755 H 987.536 1.45493 3.20195 0
M  V30 10756 H 987.41 -0.201713 3.7666 0
M  V30 10757 H 989.797 -0.645441 2.87955 0
M  V30 10758 H 989.878 1.0372 2.33828 0
M  V30 10759 H 989.522 1.80582 4.74713 0
M  V30 10760 H 989.452 0.102671 5.265 0
M  V30 10761 H 991.943 0.476763 3.7488 0
M  V30 10762 H 992.256 1.59206 7.56223 0
M  V30 10763 H 990.601 1.42498 6.80235 0
M  V30 10764 H 993.792 0.674044 4.63222 0
M  V30 10765 H 993.965 1.18241 6.37121 0
M  V30 10766 N 987.371 -1.57444 0.0701946 0
M  V30 10767 C 988.301 -2.15659 -0.895176 0
M  V30 10768 C 989.282 -1.08321 -1.31151 0
M  V30 10769 O 990.467 -1.36349 -1.38284 0
M  V30 10770 C 987.597 -2.71693 -2.16334 0
M  V30 10771 C 986.551 -3.84183 -1.88645 0
M  V30 10772 C 985.877 -4.26814 -3.22078 0
M  V30 10773 C 987.177 -5.08493 -1.19299 0
M  V30 10774 H 988.871 -2.96576 -0.410217 0
M  V30 10775 H 986.417 -1.42662 -0.195872 0
M  V30 10776 H 988.37 -3.11064 -2.84284 0
M  V30 10777 H 987.094 -1.87994 -2.67069 0
M  V30 10778 H 985.753 -3.45314 -1.23101 0
M  V30 10779 H 985.401 -3.40039 -3.70651 0
M  V30 10780 H 985.101 -5.02642 -3.04344 0
M  V30 10781 H 986.625 -4.68799 -3.91228 0
M  V30 10782 H 988.039 -5.4519 -1.77316 0
M  V30 10783 H 986.436 -5.89588 -1.11828 0
M  V30 10784 H 987.506 -4.84595 -0.171839 0
M  V30 10785 N 988.849 0.203349 -1.56283 0
M  V30 10786 C 989.779 1.2549 -1.96912 0
M  V30 10787 C 990.76 1.47919 -0.839884 0
M  V30 10788 O 991.945 1.59795 -1.10359 0
M  V30 10789 C 989.075 2.6009 -2.30153 0
M  V30 10790 C 988.029 2.52289 -3.45738 0
M  V30 10791 C 987.355 3.91086 -3.64632 0
M  V30 10792 C 988.655 2.05503 -4.80173 0
M  V30 10793 H 990.349 0.917306 -2.85002 0
M  V30 10794 H 987.895 0.439818 -1.37119 0
M  V30 10795 H 989.848 3.33829 -2.5717 0
M  V30 10796 H 988.572 2.95574 -1.38937 0
M  V30 10797 H 987.231 1.81006 -3.18798 0
M  V30 10798 H 986.879 4.23908 -2.7076 0
M  V30 10799 H 986.579 3.86742 -4.42385 0
M  V30 10800 H 988.103 4.66459 -3.94016 0
M  V30 10801 H 989.517 2.68995 -5.06275 0
M  V30 10802 H 987.914 2.1218 -5.61337 0
M  V30 10803 H 988.984 1.00793 -4.74309 0
M  V30 10804 N 990.327 1.50405 0.470755 0
M  V30 10805 C 991.552 1.65442 1.25075 0
M  V30 10806 C 991.977 0.337612 1.85045 0
M  V30 10807 O 991.335 -0.698555 1.67302 0
M  V30 10808 C 991.383 2.74793 2.33498 0
M  V30 10809 O 990.487 2.36069 3.3815 0
M  V30 10810 H 989.828 0.552728 0.367951 0
M  V30 10811 H 992.358 1.96782 0.560177 0
M  V30 10812 H 992.368 2.97879 2.78804 0
M  V30 10813 H 991.043 3.70363 1.8922 0
M  V30 10814 H 989.62 2.2343 2.98552 0
M  V30 10815 N 991.805 -0.723954 1.39988 0
M  V30 10816 C 992.715 -1.86829 1.41887 0
M  V30 10817 C 993.731 -1.71173 0.312401 0
M  V30 10818 O 994.907 -1.93583 0.555651 0
M  V30 10819 C 991.972 -3.22541 1.27154 0
M  V30 10820 C 991.033 -3.50512 2.47871 0
M  V30 10821 C 990.266 -4.79749 2.33831 0
M  V30 10822 O 990.489 -5.54251 1.34765 0
M  V30 10823 O 989.423 -5.07868 3.23039 0
M  V30 10824 H 993.249 -1.88183 2.38371 0
M  V30 10825 H 990.834 -0.873259 1.21221 0
M  V30 10826 H 992.716 -4.0362 1.21114 0
M  V30 10827 H 991.391 -3.21933 0.337715 0
M  V30 10828 H 990.298 -2.69475 2.59488 0
M  V30 10829 H 991.631 -3.55909 3.39985 0
M  V30 10830 N 993.283 -1.25346 -0.955304 0
M  V30 10831 C 994.233 -1.02358 -2.03732 0
M  V30 10832 C 995.217 0.0392941 -1.60852 0
M  V30 10833 O 996.409 -0.175959 -1.76123 0
M  V30 10834 C 993.538 -0.643552 -3.37214 0
M  V30 10835 C 992.624 -1.74315 -3.8662 0
M  V30 10836 N 993.015 -2.97816 -4.08827 0
M  V30 10837 C 991.313 -1.62351 -4.15401 0
M  V30 10838 C 992.014 -3.69185 -4.4953 0
M  V30 10839 N 990.99 -2.96803 -4.55422 0
M  V30 10840 H 994.792 -1.96119 -2.18894 0
M  V30 10841 H 992.306 -1.15655 -1.14007 0
M  V30 10842 H 994.303 -0.460053 -4.14354 0
M  V30 10843 H 992.963 0.286738 -3.23431 0
M  V30 10844 H 993.974 -3.33868 -3.95919 0
M  V30 10845 H 990.651 -0.762133 -4.10485 0
M  V30 10846 H 992.041 -4.7519 -4.7502 0
M  V30 10847 N 994.761 1.15782 -1.06922 0
M  V30 10848 C 996.172 1.68062 -0.813144 0
M  V30 10849 C 996.523 1.84681 0.662374 0
M  V30 10850 O 995.648 1.54696 1.51321 0
M  V30 10851 C 996.243 3.05273 -1.46949 0
M  V30 10852 C 994.802 3.54647 -1.26104 0
M  V30 10853 C 993.949 2.30477 -1.54194 0
M  V30 10854 H 996.9 1.00056 -1.23185 0
M  V30 10855 H 996.921 3.69986 -0.888308 0
M  V30 10856 H 996.433 2.93145 -2.54337 0
M  V30 10857 H 994.534 3.72024 -0.20718 0
M  V30 10858 H 994.647 4.36354 -1.97819 0
M  V30 10859 H 993.011 2.35803 -0.96276 0
M  V30 10860 H 993.794 2.2094 -2.62755 0
M  V30 10861 N 996.239 0.8527 1.3254 0
M  V30 10862 C 997.149 0.298744 2.3269 0
M  V30 10863 C 998.165 -0.582418 1.63963 0
M  V30 10864 O 999.341 -0.483253 1.95516 0
M  V30 10865 C 996.406 -0.505453 3.42996 0
M  V30 10866 C 995.467 0.401618 4.27417 0
M  V30 10867 C 994.7 -0.364294 5.32455 0
M  V30 10868 O 994.923 -1.59448 5.47661 0
M  V30 10869 O 993.857 0.268892 6.01299 0
M  V30 10870 H 997.683 1.12843 2.81958 0
M  V30 10871 H 995.268 0.615584 1.36128 0
M  V30 10872 H 997.15 -0.961974 4.10273 0
M  V30 10873 H 995.825 -1.31197 2.95921 0
M  V30 10874 H 994.732 0.906274 3.62957 0
M  V30 10875 H 996.065 1.17327 4.78012 0
M  V30 10876 N 997.718 -1.45297 0.610449 0
M  V30 10877 C 998.648 -2.33311 -0.0939698 0
M  V30 10878 C 999.629 -1.46999 -0.85588 0
M  V30 10879 O 1000.81 -1.75764 -0.825865 0
M  V30 10880 C 997.944 -3.29751 -1.09003 0
M  V30 10881 C 996.898 -4.2572 -0.441146 0
M  V30 10882 C 996.224 -5.11873 -1.54566 0
M  V30 10883 C 997.524 -5.1837 0.639489 0
M  V30 10884 H 999.218 -2.92459 0.640941 0
M  V30 10885 H 996.764 -1.40631 0.309675 0
M  V30 10886 H 998.717 -3.90195 -1.59141 0
M  V30 10887 H 997.441 -2.68768 -1.85557 0
M  V30 10888 H 996.1 -3.66579 0.0393908 0
M  V30 10889 H 995.748 -4.47256 -2.30155 0
M  V30 10890 H 995.448 -5.76886 -1.11698 0
M  V30 10891 H 996.972 -5.75185 -2.04925 0
M  V30 10892 H 998.386 -5.7287 0.22207 0
M  V30 10893 H 996.783 -5.91876 0.990089 0
M  V30 10894 H 997.853 -4.60627 1.51495 0
M  V30 10895 N 999.196 -0.349774 -1.5367 0
M  V30 10896 C 1000.11 0.512421 -2.28935 0
M  V30 10897 C 1001.12 1.1065 -1.34286 0
M  V30 10898 O 1002.3 1.12084 -1.67329 0
M  V30 10899 C 999.363 1.64449 -3.05217 0
M  V30 10900 C 998.424 1.07956 -4.15505 0
M  V30 10901 C 997.657 2.15768 -4.88139 0
M  V30 10902 O 997.88 3.366 -4.60496 0
M  V30 10903 O 996.814 1.79712 -5.74445 0
M  V30 10904 H 1000.64 -0.0996001 -3.03537 0
M  V30 10905 H 998.225 -0.114629 -1.4896 0
M  V30 10906 H 1000.11 2.30302 -3.52901 0
M  V30 10907 H 998.782 2.24221 -2.33467 0
M  V30 10908 H 997.689 0.385381 -3.7211 0
M  V30 10909 H 999.022 0.526621 -4.89375 0
M  V30 10910 N 1000.67 1.57404 -0.0785433 0
M  V30 10911 C 1001.62 2.09632 0.896565 0
M  V30 10912 C 1002.61 1.00754 1.25449 0
M  V30 10913 O 1003.8 1.27053 1.23234 0
M  V30 10914 C 1000.93 2.66694 2.16169 0
M  V30 10915 C 1000.01 3.82588 1.82994 0
M  V30 10916 N 1000.41 4.91286 1.203 0
M  V30 10917 C 998.704 3.92011 2.12704 0
M  V30 10918 C 999.405 5.72077 1.05367 0
M  V30 10919 N 998.381 5.20567 1.56559 0
M  V30 10920 H 1002.18 2.9106 0.407621 0
M  V30 10921 H 999.697 1.61917 0.125155 0
M  V30 10922 H 1001.69 3.0243 2.86952 0
M  V30 10923 H 1000.35 1.86716 2.65645 0
M  V30 10924 H 1001.36 5.10509 0.871817 0
M  V30 10925 H 998.042 3.23018 2.6451 0
M  V30 10926 H 999.432 6.69523 0.564685 0
M  V30 10927 N 1002.15 -0.195058 1.56388 0
M  V30 10928 C 1003.4 -0.913626 1.79821 0
M  V30 10929 C 1003.71 -1.84422 0.651767 0
M  V30 10930 O 1004.92 -2.6034 0.770402 0
M  V30 10931 C 1003.38 -1.67497 3.18548 0
M  V30 10932 C 1002.98 -0.789205 4.40994 0
M  V30 10933 C 1004.73 -2.38318 3.5129 0
M  V30 10934 C 1002.63 -1.54942 5.70742 0
M  V30 10935 H 1001.56 -0.344891 0.670497 0
M  V30 10936 H 1004.22 -0.166912 1.82739 0
M  V30 10937 H 1002.6 -2.46557 3.0988 0
M  V30 10938 H 1003.77 -0.0372595 4.60785 0
M  V30 10939 H 1002.09 -0.191834 4.15958 0
M  V30 10940 H 1004.68 -2.95745 4.45465 0
M  V30 10941 H 1005.03 -3.12507 2.75037 0
M  V30 10942 H 1005.56 -1.66224 3.61406 0
M  V30 10943 H 1002.3 -0.85031 6.49962 0
M  V30 10944 H 1001.82 -2.2753 5.54969 0
M  V30 10945 H 1003.5 -2.1032 6.11861 0
M  V30 10946 N 1003.63 -1.50653 -0.462772 0
M  V30 10947 C 1004.88 -1.61296 -1.21105 0
M  V30 10948 C 1005.19 -0.322757 -1.92919 0
M  V30 10949 O 1006.4 -0.308211 -2.69745 0
M  V30 10950 C 1004.85 -2.84752 -2.201 0
M  V30 10951 C 1004.46 -4.20681 -1.54051 0
M  V30 10952 C 1006.21 -3.04744 -2.95518 0
M  V30 10953 C 1004.11 -5.35314 -2.51381 0
M  V30 10954 H 1003.04 -0.60069 -0.455728 0
M  V30 10955 H 1005.69 -1.77093 -0.480656 0
M  V30 10956 H 1004.08 -2.62532 -2.96467 0
M  V30 10957 H 1005.25 -4.53187 -0.834168 0
M  V30 10958 H 1003.56 -4.06361 -0.908828 0
M  V30 10959 H 1006.16 -3.87559 -3.68378 0
M  V30 10960 H 1006.5 -2.16802 -3.55391 0
M  V30 10961 H 1007.04 -3.27185 -2.26263 0
M  V30 10962 H 1003.78 -6.25437 -1.96235 0
M  V30 10963 H 1003.3 -5.07216 -3.20144 0
M  V30 10964 H 1004.98 -5.66229 -3.1304 0
M  V30 10965 N 1005.11 0.71652 -1.4037 0
M  V30 10966 C 1006.35 1.47736 -1.39805 0
M  V30 10967 C 1006.71 1.924 0.000340438 0
M  V30 10968 O 1006 1.652 0.970547 0
M  V30 10969 C 1006.2 2.71777 -2.32103 0
M  V30 10970 C 1006.03 2.39245 -3.80778 0
M  V30 10971 C 1004.8 2.30632 -4.49597 0
M  V30 10972 C 1006.99 2.03576 -4.72294 0
M  V30 10973 N 1004.98 1.90764 -5.83509 0
M  V30 10974 C 1006.35 1.74302 -5.94995 0
M  V30 10975 C 1008.4 1.90204 -4.60138 0
M  V30 10976 C 1007.1 1.33001 -7.06897 0
M  V30 10977 C 1009.13 1.50307 -5.71981 0
M  V30 10978 C 1008.49 1.2193 -6.93767 0
M  V30 10979 H 1004.59 0.538721 -0.566836 0
M  V30 10980 H 1007.18 0.831018 -1.76074 0
M  V30 10981 H 1005.35 3.34163 -1.97963 0
M  V30 10982 H 1007.08 3.38112 -2.22402 0
M  V30 10983 H 1003.83 2.48341 -4.03266 0
M  V30 10984 H 1004.26 1.73372 -6.54424 0
M  V30 10985 H 1008.9 2.10805 -3.66499 0
M  V30 10986 H 1006.62 1.11143 -8.0042 0
M  V30 10987 H 1010.2 1.4054 -5.6457 0
M  V30 10988 H 1009.08 0.915214 -7.78841 0
M  V30 10989 N 1006.59 1.25851 0.948643 0
M  V30 10990 C 1007.81 1.13711 1.72851 0
M  V30 10991 C 1008.23 -0.308471 1.86263 0
M  V30 10992 O 1007.59 -1.21175 1.36465 0
M  V30 10993 C 1007.64 1.79271 3.13918 0
M  V30 10994 O 1007.36 3.18179 3.01154 0
M  V30 10995 C 1008.86 1.72988 4.08154 0
M  V30 10996 H 1006.08 0.396334 0.541443 0
M  V30 10997 H 1008.62 1.66329 1.18974 0
M  V30 10998 H 1006.78 1.30609 3.64719 0
M  V30 10999 H 1007.19 3.50507 3.90186 0
M  V30 11000 H 1008.67 2.2351 5.04725 0
M  V30 11001 H 1009.14 0.694866 4.33668 0
M  V30 11002 H 1009.75 2.21166 3.63271 0
M  V30 11003 N 1008.06 -1.15214 1.07534 0
M  V30 11004 C 1008.99 -2.2216 0.718837 0
M  V30 11005 C 1009.98 -1.6753 -0.29459 0
M  V30 11006 O 1011.16 -1.93481 -0.166931 0
M  V30 11007 C 1008.29 -3.471 0.117836 0
M  V30 11008 C 1007.24 -4.14701 1.05862 0
M  V30 11009 C 1006.57 -5.3374 0.320284 0
M  V30 11010 C 1007.87 -4.64254 2.39302 0
M  V30 11011 H 1009.56 -2.52237 1.61297 0
M  V30 11012 H 1007.11 -1.21239 0.776992 0
M  V30 11013 H 1009.06 -4.21156 -0.143519 0
M  V30 11014 H 1007.79 -3.16361 -0.811389 0
M  V30 11015 H 1006.45 -3.42589 1.30493 0
M  V30 11016 H 1006.09 -4.99257 -0.61246 0
M  V30 11017 H 1005.79 -5.79912 0.947381 0
M  V30 11018 H 1007.32 -6.10563 0.0667721 0
M  V30 11019 H 1008.73 -5.29827 2.18988 0
M  V30 11020 H 1007.13 -5.21095 2.97623 0
M  V30 11021 H 1008.2 -3.79793 3.01472 0
M  V30 11022 N 1009.54 -0.859717 -1.32086 0
M  V30 11023 C 1010.79 -0.465581 -1.97075 0
M  V30 11024 C 1011.12 0.979917 -1.68012 0
M  V30 11025 O 1010.37 1.70337 -0.96353 0
M  V30 11026 C 1010.67 -0.657397 -3.51302 0
M  V30 11027 C 1010.34 -2.07413 -4.00363 0
M  V30 11028 C 1009 -2.4616 -4.13472 0
M  V30 11029 C 1011.35 -2.99855 -4.26305 0
M  V30 11030 C 1008.68 -3.76611 -4.49868 0
M  V30 11031 C 1011.03 -4.2981 -4.64161 0
M  V30 11032 C 1009.7 -4.68485 -4.75476 0
M  V30 11033 H 1008.97 -0.170368 -0.721149 0
M  V30 11034 H 1011.61 -1.09074 -1.57401 0
M  V30 11035 H 1009.92 0.0509638 -3.91767 0
M  V30 11036 H 1011.61 -0.332416 -3.9962 0
M  V30 11037 H 1008.2 -1.76327 -3.90649 0
M  V30 11038 H 1012.39 -2.7115 -4.15682 0
M  V30 11039 H 1007.64 -4.06352 -4.56824 0
M  V30 11040 H 1011.82 -5.015 -4.83188 0
M  V30 11041 H 1009.45 -5.69612 -5.03435 0
M  V30 11042 N 1011.02 1.44971 -0.618145 0
M  V30 11043 C 1011.95 2.28815 0.132751 0
M  V30 11044 C 1012.97 1.40551 0.821535 0
M  V30 11045 O 1014.15 1.64827 0.685155 0
M  V30 11046 C 1011.25 3.1658 1.20955 0
M  V30 11047 C 1010.43 4.33184 0.605821 0
M  V30 11048 C 1009.49 5.0208 1.57488 0
M  V30 11049 O 1008.51 5.58528 1.09706 0
M  V30 11050 N 1009.71 5.02335 2.9093 0
M  V30 11051 H 1012.48 2.939 -0.58674 0
M  V30 11052 H 1010.04 1.55276 -0.458375 0
M  V30 11053 H 1012.03 3.59535 1.85787 0
M  V30 11054 H 1010.6 2.53333 1.83143 0
M  V30 11055 H 1009.82 3.93581 -0.220827 0
M  V30 11056 H 1011.11 5.08471 0.182883 0
M  V30 11057 H 1010.51 4.57783 3.32342 0
M  V30 11058 H 1009.07 5.49119 3.51157 0
M  V30 11059 N 1012.5 0.357919 1.53482 0
M  V30 11060 C 1013.45 -0.50845 2.22258 0
M  V30 11061 C 1014.43 -1.05476 1.21506 0
M  V30 11062 O 1015.62 -0.986075 1.46988 0
M  V30 11063 C 1012.75 -1.65157 3.00962 0
M  V30 11064 C 1011.84 -1.11851 4.09084 0
M  V30 11065 N 1012.23 -0.307818 5.04862 0
M  V30 11066 C 1010.53 -1.39405 4.23653 0
M  V30 11067 C 1011.23 -0.016842 5.81698 0
M  V30 11068 N 1010.21 -0.612396 5.40139 0
M  V30 11069 H 1014.01 0.117836 2.93664 0
M  V30 11070 H 1011.52 0.16553 1.61554 0
M  V30 11071 H 1013.52 -2.28435 3.48745 0
M  V30 11072 H 1012.18 -2.281 2.31086 0
M  V30 11073 H 1013.19 0.0523313 5.17874 0
M  V30 11074 H 1009.87 -2.02682 3.65002 0
M  V30 11075 H 1011.26 0.638046 6.68864 0
M  V30 11076 N 1013.98 -1.5736 0.0868897 0
M  V30 11077 C 1015.2 -1.98388 -0.587349 0
M  V30 11078 C 1015.62 -0.965757 -1.6223 0
M  V30 11079 O 1014.98 0.0456981 -1.82443 0
M  V30 11080 C 1015.03 -3.39479 -1.24242 0
M  V30 11081 O 1014.75 -4.37393 -0.248878 0
M  V30 11082 C 1016.25 -3.95465 -2.00305 0
M  V30 11083 H 1013.47 -0.652111 -0.15809 0
M  V30 11084 H 1016.01 -2.03843 0.163754 0
M  V30 11085 H 1014.17 -3.35063 -1.94451 0
M  V30 11086 H 1014.58 -5.19525 -0.720678 0
M  V30 11087 H 1016.06 -4.96363 -2.41511 0
M  V30 11088 H 1016.53 -3.32832 -2.86565 0
M  V30 11089 H 1017.14 -4.03328 -1.34931 0
M  V30 11090 N 1015.45 0.186762 -1.56489 0
M  V30 11091 C 1016.38 1.23395 -1.98232 0
M  V30 11092 C 1017.37 1.4702 -0.855526 0
M  V30 11093 O 1018.55 1.58616 -1.12048 0
M  V30 11094 C 1015.68 2.57635 -2.32898 0
M  V30 11095 C 1014.63 2.48607 -3.48394 0
M  V30 11096 C 1013.96 3.87196 -3.68759 0
M  V30 11097 C 1015.26 2.00398 -4.82325 0
M  V30 11098 H 1016.95 0.887026 -2.85958 0
M  V30 11099 H 1014.5 0.42525 -1.37578 0
M  V30 11100 H 1016.45 3.31082 -2.60696 0
M  V30 11101 H 1015.18 2.94084 -1.42064 0
M  V30 11102 H 1013.84 1.77615 -3.207 0
M  V30 11103 H 1013.48 4.21012 -2.75241 0
M  V30 11104 H 1013.18 3.82029 -4.46462 0
M  V30 11105 H 1014.71 4.62253 -3.98941 0
M  V30 11106 H 1016.12 2.6361 -5.091 0
M  V30 11107 H 1014.52 2.06214 -5.63556 0
M  V30 11108 H 1015.59 0.957562 -4.75351 0
M  V30 11109 N 1016.93 1.50896 0.454776 0
M  V30 11110 C 1017.86 1.6712 1.56855 0
M  V30 11111 C 1018.88 0.552223 1.53148 0
M  V30 11112 O 1020.07 0.825969 1.5824 0
M  V30 11113 C 1017.17 1.65464 2.95762 0
M  V30 11114 C 1016.34 2.93662 3.24163 0
M  V30 11115 C 1015.4 2.84428 4.42704 0
M  V30 11116 O 1014.42 3.58382 4.42211 0
M  V30 11117 N 1015.63 1.9909 5.45292 0
M  V30 11118 H 1018.39 2.63194 1.43349 0
M  V30 11119 H 1015.95 1.48564 0.643457 0
M  V30 11120 H 1017.94 1.56878 3.73057 0
M  V30 11121 H 1016.51 0.770568 3.02954 0
M  V30 11122 H 1015.73 3.16251 2.35328 0
M  V30 11123 H 1017.02 3.78558 3.39957 0
M  V30 11124 H 1016.42 1.3835 5.48521 0
M  V30 11125 H 1014.98 1.96396 6.21508 0
M  V30 11126 N 1018.41 -0.709066 1.40748 0
M  V30 11127 C 1019.36 -1.84445 1.41714 0
M  V30 11128 C 1020.35 -1.66779 0.296818 0
M  V30 11129 O 1021.56 -1.73805 0.468181 0
M  V30 11130 H 1017.93 -0.607581 0.443114 0
M  V30 11131 H 1019.9 -1.80747 2.3743 0
M  V30 11132 C 1018.65 -3.22362 1.303 0
M  V30 11133 H 1017.98 -3.36565 2.15787 0
M  V30 11134 H 1019.42 -4.01922 1.35036 0
M  V30 11135 C 1017.88 -3.36897 0.0139015 0
M  V30 11136 O 1018.41 -3.90389 -0.946553 0
M  V30 11137 N 1016.61 -2.90543 -0.0577491 0
M  V30 11138 H 1016.16 -2.472 0.724574 0
M  V30 11139 H 1016.12 -3.00647 -0.919721 0
M  V30 11140 N 1019.89 -1.26353 -0.941956 0
M  V30 11141 C 1020.8 -1.09618 -2.07415 0
M  V30 11142 C 1021.82 -0.0298963 -1.73974 0
M  V30 11143 O 1022.99 -0.233466 -2.00042 0
M  V30 11144 C 1020.06 -0.73013 -3.38925 0
M  V30 11145 C 1019.12 -1.87574 -3.86153 0
M  V30 11146 C 1018.35 -1.52706 -5.11387 0
M  V30 11147 O 1018.57 -0.428438 -5.68789 0
M  V30 11148 O 1017.51 -2.36154 -5.53638 0
M  V30 11149 H 1021.33 -2.04598 -2.2444 0
M  V30 11150 H 1018.92 -1.05407 -1.05876 0
M  V30 11151 H 1020.8 -0.538684 -4.17943 0
M  V30 11152 H 1019.48 0.190282 -3.2314 0
M  V30 11153 H 1018.38 -2.12214 -3.08084 0
M  V30 11154 H 1019.72 -2.77585 -4.06457 0
M  V30 11155 N 1021.37 1.14642 -1.08144 0
M  V30 11156 C 1022.6 1.89209 -0.82966 0
M  V30 11157 C 1023.01 1.78697 0.621604 0
M  V30 11158 O 1022.35 1.14224 1.4387 0
M  V30 11159 C 1022.41 3.39958 -1.16915 0
M  V30 11160 C 1022.07 3.74254 -2.62264 0
M  V30 11161 C 1023.07 3.746 -3.60514 0
M  V30 11162 C 1020.76 4.04316 -2.9805 0
M  V30 11163 C 1022.75 4.04527 -4.92582 0
M  V30 11164 C 1020.44 4.33906 -4.30312 0
M  V30 11165 C 1021.44 4.33995 -5.27388 0
M  V30 11166 O 1021.12 4.62869 -6.57273 0
M  V30 11167 H 1020.86 0.606259 -0.299042 0
M  V30 11168 H 1023.41 1.46132 -1.44342 0
M  V30 11169 H 1021.64 3.83475 -0.498377 0
M  V30 11170 H 1023.33 3.95828 -0.89862 0
M  V30 11171 H 1024.09 3.51466 -3.34211 0
M  V30 11172 H 1019.97 4.03402 -2.23132 0
M  V30 11173 H 1023.52 4.04511 -5.68346 0
M  V30 11174 H 1019.41 4.5651 -4.56365 0
M  V30 11175 H 1020.18 4.80598 -6.62546 0
M  V30 11176 N 1022.85 0.866709 1.31628 0
M  V30 11177 C 1023.76 0.323408 2.3236 0
M  V30 11178 C 1024.77 -0.564995 1.64572 0
M  V30 11179 O 1025.95 -0.462489 1.96018 0
M  V30 11180 C 1023.01 -0.469045 3.43513 0
M  V30 11181 C 1022.07 0.446928 4.26967 0
M  V30 11182 C 1021.31 -0.307799 5.32812 0
M  V30 11183 O 1021.53 -1.5363 5.49321 0
M  V30 11184 O 1020.46 0.332653 6.0098 0
M  V30 11185 H 1024.29 1.15827 2.80745 0
M  V30 11186 H 1021.87 0.629987 1.35468 0
M  V30 11187 H 1023.76 -0.918405 4.1127 0
M  V30 11188 H 1022.43 -1.28051 2.97296 0
M  V30 11189 H 1021.34 0.944719 3.61975 0
M  V30 11190 H 1022.67 1.2239 4.76741 0
M  V30 11191 N 1024.32 -1.44642 0.625825 0
M  V30 11192 C 1025.25 -2.33397 -0.0692188 0
M  V30 11193 C 1026.23 -1.47898 -0.840241 0
M  V30 11194 O 1027.42 -1.7663 -0.807176 0
M  V30 11195 C 1024.55 -3.30888 -1.055 0
M  V30 11196 C 1023.5 -4.26164 -0.395968 0
M  V30 11197 C 1022.83 -5.13483 -1.49128 0
M  V30 11198 C 1024.13 -5.17663 0.694433 0
M  V30 11199 H 1025.82 -2.91763 0.671925 0
M  V30 11200 H 1023.37 -1.40294 0.324573 0
M  V30 11201 H 1025.32 -3.91861 -1.54993 0
M  V30 11202 H 1024.05 -2.7072 -1.82696 0
M  V30 11203 H 1022.71 -3.66516 0.0782691 0
M  V30 11204 H 1022.35 -4.49672 -2.25399 0
M  V30 11205 H 1022.05 -5.78038 -1.05573 0
M  V30 11206 H 1023.58 -5.77327 -1.98813 0
M  V30 11207 H 1024.99 -5.72602 0.282818 0
M  V30 11208 H 1023.39 -5.90793 1.05281 0
M  V30 11209 H 1024.46 -4.58994 1.56372 0
M  V30 11210 N 1025.8 -0.366053 -1.5329 0
M  V30 11211 C 1026.73 0.523781 -2.22108 0
M  V30 11212 C 1027.71 1.08262 -1.21318 0
M  V30 11213 O 1028.9 1.13866 -1.50222 0
M  V30 11214 C 1026.02 1.72273 -2.91616 0
M  V30 11215 C 1025.07 1.29129 -4.06482 0
M  V30 11216 S 1025.9 0.292195 -5.34702 0
M  V30 11217 C 1027.06 1.49746 -6.07723 0
M  V30 11218 H 1027.29 -0.0606687 -2.97238 0
M  V30 11219 H 1024.82 -0.15016 -1.53668 0
M  V30 11220 H 1026.78 2.41045 -3.32277 0
M  V30 11221 H 1025.44 2.27843 -2.16209 0
M  V30 11222 H 1024.64 2.18583 -4.54134 0
M  V30 11223 H 1024.24 0.682783 -3.67715 0
M  V30 11224 H 1026.53 2.4284 -6.32483 0
M  V30 11225 H 1027.47 1.06232 -7.00086 0
M  V30 11226 H 1027.88 1.70373 -5.38176 0
M  V30 11227 N 1027.28 1.57312 -0.0952337 0
M  V30 11228 C 1028.7 1.57445 0.261416 0
M  V30 11229 C 1028.9 1.10639 1.68408 0
M  V30 11230 O 1027.95 0.782912 2.40056 0
M  V30 11231 C 1029.26 3.00659 0.0497206 0
M  V30 11232 C 1030.81 3.1278 0.117459 0
M  V30 11233 C 1031.29 4.57952 -0.0662441 0
M  V30 11234 N 1032.78 4.63199 -0.0114146 0
M  V30 11235 C 1033.51 5.73255 -0.128799 0
M  V30 11236 N 1033.01 6.92146 -0.301026 0
M  V30 11237 N 1034.8 5.62056 -0.0700599 0
M  V30 11238 H 1026.95 1.86045 -1.02475 0
M  V30 11239 H 1029.22 0.858726 -0.401614 0
M  V30 11240 H 1028.92 3.39102 -0.932888 0
M  V30 11241 H 1028.8 3.68792 0.791975 0
M  V30 11242 H 1031.18 2.74209 1.09057 0
M  V30 11243 H 1031.26 2.47238 -0.656288 0
M  V30 11244 H 1030.91 4.97217 -1.03623 0
M  V30 11245 H 1030.84 5.21555 0.727198 0
M  V30 11246 H 1033.33 3.77712 0.119154 0
M  V30 11247 H 1033.64 7.71855 -0.382104 0
M  V30 11248 H 1031.99 6.94184 -0.336695 0
M  V30 11249 H 1035.18 4.68057 0.0633587 0
M  V30 11250 H 1035.35 6.4779 -0.164991 0
M  V30 11251 N 1028.76 -0.17846 1.56586 0
M  V30 11252 C 1030.03 -0.923096 1.72448 0
M  V30 11253 C 1030.41 -2.00692 0.654659 0
M  V30 11254 O 1029.76 -2.26079 -0.33171 0
M  V30 11255 C 1029.97 -1.49435 3.15389 0
M  V30 11256 C 1031.32 -1.97005 3.76131 0
M  V30 11257 O 1032.34 -1.59244 3.18622 0
M  V30 11258 O 1031.2 -2.66541 4.77094 0
M  V30 11259 H 1028.3 -0.434009 0.703964 0
M  V30 11260 H 1030.84 -0.16685 1.68878 0
M  V30 11261 H 1029.62 -0.713933 3.84732 0
M  V30 11262 H 1029.24 -2.31498 3.23256 0
M  V30 11263 N 1030.24 -1.51135 -0.446768 0
M  V30 11264 C 1031.65 -1.39101 -0.782504 0
M  V30 11265 C 1031.85 -0.46599 -1.96038 0
M  V30 11266 O 1030.91 0.0823679 -2.52366 0
M  V30 11267 C 1032.22 -2.80953 -1.07173 0
M  V30 11268 C 1033.77 -2.90038 -1.17673 0
M  V30 11269 C 1034.24 -4.32777 -1.49894 0
M  V30 11270 N 1035.73 -4.3584 -1.56837 0
M  V30 11271 C 1036.47 -5.43305 -1.83322 0
M  V30 11272 N 1035.97 -6.60945 -2.07662 0
M  V30 11273 N 1037.76 -5.30775 -1.85026 0
M  V30 11274 H 1029.91 -2.09835 0.329114 0
M  V30 11275 H 1032.17 -0.944199 0.0848054 0
M  V30 11276 H 1031.88 -3.50591 -0.279037 0
M  V30 11277 H 1031.75 -3.197 -2.00179 0
M  V30 11278 H 1034.14 -2.20603 -1.96005 0
M  V30 11279 H 1034.22 -2.54801 -0.225892 0
M  V30 11280 H 1033.86 -5.02757 -0.720924 0
M  V30 11281 H 1033.79 -4.6552 -2.46168 0
M  V30 11282 H 1036.29 -3.51023 -1.39968 0
M  V30 11283 H 1036.6 -7.38643 -2.27214 0
M  V30 11284 H 1034.94 -6.64077 -2.05003 0
M  V30 11285 H 1038.13 -4.37858 -1.65523 0
M  V30 11286 H 1038.31 -6.14609 -2.05329 0
M  V30 11287 N 1031.71 0.701592 -1.41122 0
M  V30 11288 C 1032.66 1.80755 -1.38966 0
M  V30 11289 C 1033.65 1.58703 -0.264964 0
M  V30 11290 O 1034.84 1.69638 -0.505168 0
M  V30 11291 C 1031.97 3.1901 -1.26836 0
M  V30 11292 C 1031.05 3.46777 -2.44144 0
M  V30 11293 N 1031.45 3.45278 -3.69617 0
M  V30 11294 C 1029.74 3.77299 -2.37826 0
M  V30 11295 C 1030.44 3.71782 -4.47385 0
M  V30 11296 N 1029.42 3.91228 -3.77415 0
M  V30 11297 H 1033.22 1.7795 -2.33904 0
M  V30 11298 H 1030.74 0.901325 -1.35092 0
M  V30 11299 H 1032.73 3.98227 -1.23373 0
M  V30 11300 H 1031.39 3.23031 -0.328777 0
M  V30 11301 H 1032.4 3.258 -4.02585 0
M  V30 11302 H 1029.08 3.88727 -1.52309 0
M  V30 11303 H 1030.47 3.7681 -5.56295 0
M  V30 11304 N 1033.19 1.2685 0.935242 0
M  V30 11305 C 1034.12 1.1143 2.05196 0
M  V30 11306 C 1035.1 0.0178362 1.70091 0
M  V30 11307 O 1036.29 0.190951 1.93259 0
M  V30 11308 C 1033.42 0.752779 3.39044 0
M  V30 11309 C 1032.37 1.80164 3.88233 0
M  V30 11310 C 1031.7 1.29428 5.18799 0
M  V30 11311 C 1033 3.20431 4.12457 0
M  V30 11312 H 1034.69 2.04845 2.18355 0
M  V30 11313 H 1032.24 0.986276 1.04922 0
M  V30 11314 H 1034.19 0.631757 4.16637 0
M  V30 11315 H 1032.91 -0.217075 3.25878 0
M  V30 11316 H 1031.57 1.91144 3.12825 0
M  V30 11317 H 1031.22 0.3141 5.02018 0
M  V30 11318 H 1030.92 1.99546 5.5268 0
M  V30 11319 H 1032.45 1.18605 5.9897 0
M  V30 11320 H 1033.86 3.12495 4.80645 0
M  V30 11321 H 1032.26 3.88193 4.57631 0
M  V30 11322 H 1033.33 3.66046 3.18023 0
M  V30 11323 N 1034.67 -1.14067 1.0875 0
M  V30 11324 C 1035.95 -1.81389 0.73195 0
M  V30 11325 C 1036.33 -1.96005 -0.78391 0
M  V30 11326 O 1035.68 -1.52267 -1.70373 0
M  V30 11327 C 1035.89 -3.16858 1.46294 0
M  V30 11328 C 1037.23 -3.92305 1.62426 0
M  V30 11329 O 1038.26 -3.26459 1.42488 0
M  V30 11330 O 1037.12 -5.10393 1.9535 0
M  V30 11331 H 1034.21 -0.784354 0.262141 0
M  V30 11332 H 1036.76 -1.21054 1.18929 0
M  V30 11333 H 1035.53 -3.01404 2.49542 0
M  V30 11334 H 1035.15 -3.84889 0.997318 0
M  V30 11335 N 1036.15 -0.873678 -1.31166 0
M  V30 11336 C 1037.08 -0.289389 -2.27366 0
M  V30 11337 C 1038.09 0.549667 -1.5324 0
M  V30 11338 O 1039.28 0.371056 -1.74601 0
M  V30 11339 C 1036.38 0.60807 -3.334 0
M  V30 11340 C 1035.56 -0.199379 -4.36945 0
M  V30 11341 C 1034.61 0.626798 -5.22454 0
M  V30 11342 O 1033.64 0.0535121 -5.69175 0
M  V30 11343 N 1034.84 1.93809 -5.47191 0
M  V30 11344 H 1037.61 -1.1161 -2.78143 0
M  V30 11345 H 1035.17 -0.735529 -1.44228 0
M  V30 11346 H 1037.16 1.16656 -3.87522 0
M  V30 11347 H 1035.73 1.33545 -2.82638 0
M  V30 11348 H 1034.95 -0.939316 -3.82845 0
M  V30 11349 H 1036.24 -0.75329 -5.03193 0
M  V30 11350 H 1035.64 2.42693 -5.10995 0
M  V30 11351 H 1034.19 2.44428 -6.04234 0
M  V30 11352 N 1037.63 1.44308 -0.633487 0
M  V30 11353 C 1038.88 2.01239 -0.136356 0
M  V30 11354 C 1039.19 1.50438 1.25011 0
M  V30 11355 O 1040.39 1.99513 1.84138 0
M  V30 11356 C 1038.85 3.59382 -0.193011 0
M  V30 11357 C 1038.46 4.19178 -1.58093 0
M  V30 11358 C 1040.2 4.23778 0.247534 0
M  V30 11359 C 1038.11 5.69553 -1.59258 0
M  V30 11360 H 1037.04 0.752521 -0.0472109 0
M  V30 11361 H 1039.69 1.65498 -0.79263 0
M  V30 11362 H 1038.07 3.92432 0.530408 0
M  V30 11363 H 1039.25 3.97662 -2.32813 0
M  V30 11364 H 1037.56 3.67079 -1.96576 0
M  V30 11365 H 1040.16 5.34075 0.258401 0
M  V30 11366 H 1040.5 3.96285 1.27529 0
M  V30 11367 H 1041.03 3.9554 -0.423469 0
M  V30 11368 H 1037.77 6.01784 -2.59878 0
M  V30 11369 H 1037.29 5.93185 -0.888352 0
M  V30 11370 H 1038.97 6.33234 -1.32756 0
M  V30 11371 N 1039.1 0.374177 1.53094 0
M  V30 11372 C 1040.04 -0.511995 2.22382 0
M  V30 11373 C 1041.02 -1.07617 1.2189 0
M  V30 11374 O 1042.2 -1.13068 1.50824 0
M  V30 11375 C 1039.33 -1.70724 2.92525 0
M  V30 11376 C 1038.37 -1.26972 4.07161 0
M  V30 11377 S 1039.21 -0.263835 5.3485 0
M  V30 11378 C 1040.36 -1.46521 6.08508 0
M  V30 11379 H 1040.59 0.0764311 2.97202 0
M  V30 11380 H 1038.13 0.158307 1.53586 0
M  V30 11381 H 1040.09 -2.39279 3.3355 0
M  V30 11382 H 1038.75 -2.26693 2.17414 0
M  V30 11383 H 1037.94 -2.16172 4.55286 0
M  V30 11384 H 1037.54 -0.663273 3.68072 0
M  V30 11385 H 1039.83 -2.39483 6.33762 0
M  V30 11386 H 1040.78 -1.02517 7.0064 0
M  V30 11387 H 1041.18 -1.67516 5.39072 0
M  V30 11388 N 1040.58 -1.57259 0.103575 0
M  V30 11389 C 1041.52 -2.10165 -0.889141 0
M  V30 11390 C 1042.49 -1.01426 -1.27089 0
M  V30 11391 O 1043.68 -1.2898 -1.37465 0
M  V30 11392 C 1040.8 -2.58564 -2.18774 0
M  V30 11393 C 1039.85 -3.79043 -1.95522 0
M  V30 11394 S 1040.68 -5.22213 -1.18551 0
M  V30 11395 C 1041.84 -5.73968 -2.49623 0
M  V30 11396 H 1042.07 -2.9404 -0.439083 0
M  V30 11397 H 1039.61 -1.54008 -0.10989 0
M  V30 11398 H 1041.56 -2.87106 -2.93395 0
M  V30 11399 H 1040.22 -1.749 -2.609 0
M  V30 11400 H 1039.42 -4.11004 -2.91705 0
M  V30 11401 H 1039.02 -3.51038 -1.29028 0
M  V30 11402 H 1041.31 -5.82752 -3.45553 0
M  V30 11403 H 1042.25 -6.72324 -2.22229 0
M  V30 11404 H 1042.66 -5.01946 -2.58284 0
M  V30 11405 N 1042.06 0.170153 -1.56679 0
M  V30 11406 C 1043.3 0.893073 -1.83857 0
M  V30 11407 C 1043.66 1.79378 -0.684661 0
M  V30 11408 O 1044.87 2.55439 -0.836926 0
M  V30 11409 C 1043.14 1.66679 -3.16153 0
M  V30 11410 S 1044.7 2.43831 -3.64818 0
M  V30 11411 H 1041.51 0.299091 -0.645031 0
M  V30 11412 H 1044.12 0.154628 -1.94888 0
M  V30 11413 H 1042.82 0.996152 -3.98127 0
M  V30 11414 H 1042.35 2.44658 -3.08068 0
M  V30 11415 H 1044.37 3.68555 -3.32237 0
M  V30 11416 N 1043.54 1.5137 0.438746 0
M  V30 11417 C 1044.76 1.68058 1.21537 0
M  V30 11418 C 1045.19 0.376787 1.84288 0
M  V30 11419 O 1044.55 -0.662911 1.68746 0
M  V30 11420 C 1044.59 2.79684 2.27616 0
M  V30 11421 O 1043.7 2.43189 3.33066 0
M  V30 11422 H 1043.04 0.560408 0.356144 0
M  V30 11423 H 1045.57 1.97926 0.518311 0
M  V30 11424 H 1045.58 3.03726 2.72423 0
M  V30 11425 H 1044.25 3.74293 1.81321 0
M  V30 11426 H 1042.83 2.29713 2.93746 0
M  V30 11427 N 1045.02 -0.694098 1.41492 0
M  V30 11428 C 1045.95 -1.81841 1.37873 0
M  V30 11429 C 1046.93 -1.60732 0.245772 0
M  V30 11430 O 1048.11 -1.83461 0.432917 0
M  V30 11431 C 1045.24 -3.18543 1.15099 0
M  V30 11432 C 1044.28 -3.5844 2.31133 0
M  V30 11433 S 1045.12 -3.63079 3.93617 0
M  V30 11434 C 1046.27 -5.02505 3.73148 0
M  V30 11435 H 1046.51 -1.84634 2.33018 0
M  V30 11436 H 1044.04 -0.862948 1.28033 0
M  V30 11437 H 1046 -3.9746 1.02646 0
M  V30 11438 H 1044.66 -3.13358 0.21572 0
M  V30 11439 H 1043.85 -4.57754 2.10896 0
M  V30 11440 H 1043.45 -2.86837 2.40002 0
M  V30 11441 H 1045.75 -5.90046 3.32945 0
M  V30 11442 H 1046.69 -5.27784 4.72069 0
M  V30 11443 H 1047.1 -4.74113 3.06394 0
M  V30 11444 N 1046.49 -1.27344 -0.928501 0
M  V30 11445 C 1047.72 -1.16278 -1.70772 0
M  V30 11446 C 1048.13 0.283131 -1.8707 0
M  V30 11447 O 1047.48 1.20466 -1.38685 0
M  V30 11448 C 1047.54 -1.77313 -3.1273 0
M  V30 11449 C 1047.2 -3.26488 -3.19773 0
M  V30 11450 C 1048.2 -4.23133 -3.02083 0
M  V30 11451 C 1045.88 -3.67182 -3.42757 0
M  V30 11452 C 1047.88 -5.5845 -3.07267 0
M  V30 11453 C 1045.56 -5.02629 -3.47574 0
M  V30 11454 C 1046.56 -5.98072 -3.29847 0
M  V30 11455 O 1046.25 -7.3105 -3.34397 0
M  V30 11456 H 1045.98 -0.405215 -0.541089 0
M  V30 11457 H 1048.54 -1.68707 -1.17163 0
M  V30 11458 H 1046.77 -1.19361 -3.67818 0
M  V30 11459 H 1048.46 -1.60972 -3.72616 0
M  V30 11460 H 1049.22 -3.93031 -2.84168 0
M  V30 11461 H 1045.1 -2.93369 -3.55606 0
M  V30 11462 H 1048.64 -6.32924 -2.93348 0
M  V30 11463 H 1044.54 -5.32387 -3.65013 0
M  V30 11464 H 1045.31 -7.39488 -3.50857 0
M  V30 11465 N 1047.97 1.13488 -1.09353 0
M  V30 11466 C 1049.22 1.84383 -0.827488 0
M  V30 11467 C 1049.54 1.83892 0.648745 0
M  V30 11468 O 1048.81 1.29415 1.47066 0
M  V30 11469 H 1047.39 0.682732 -0.303127 0
M  V30 11470 H 1050.05 1.37477 -1.38152 0
M  V30 11471 H 1049.15 2.88919 -1.18035 0
M  V30 11472 N 1049.45 0.880621 1.30701 0
M  V30 11473 C 1050.7 0.492957 1.95583 0
M  V30 11474 C 1051.01 -0.961863 1.70316 0
M  V30 11475 O 1052.22 -1.45617 2.29146 0
M  V30 11476 C 1050.68 0.830656 3.50183 0
M  V30 11477 C 1050.28 2.30295 3.84276 0
M  V30 11478 C 1052.03 0.511979 4.21401 0
M  V30 11479 C 1049.93 2.58251 5.32034 0
M  V30 11480 H 1048.86 0.18062 0.732047 0
M  V30 11481 H 1051.52 1.075 1.48715 0
M  V30 11482 H 1049.9 0.177752 3.95601 0
M  V30 11483 H 1051.07 2.99981 3.49783 0
M  V30 11484 H 1049.39 2.58873 3.2615 0
M  V30 11485 H 1051.98 0.697935 5.30125 0
M  V30 11486 H 1052.33 -0.548327 4.12673 0
M  V30 11487 H 1052.86 1.12189 3.81652 0
M  V30 11488 H 1049.6 3.63005 5.45809 0
M  V30 11489 H 1049.12 1.9317 5.67843 0
M  V30 11490 H 1050.8 2.43527 5.99419 0
M  V30 11491 N 1050.93 -1.4397 0.641131 0
M  V30 11492 C 1052.17 -2.03826 0.153071 0
M  V30 11493 C 1052.53 -1.4941 -1.20585 0
M  V30 11494 O 1053.73 -2.00832 -1.78661 0
M  V30 11495 C 1052.01 -3.57085 0.149914 0
M  V30 11496 S 1053.56 -4.37956 -0.272065 0
M  V30 11497 H 1050.38 -0.70793 0.0659981 0
M  V30 11498 H 1052.98 -1.76211 0.846761 0
M  V30 11499 H 1051.69 -3.94194 1.14188 0
M  V30 11500 H 1051.22 -3.89326 -0.564703 0
M  V30 11501 H 1053.23 -4.72542 -1.5139 0
M  V30 11502 N 1052.41 -0.382291 -1.52893 0
M  V30 11503 C 1053.35 0.456234 -2.26246 0
M  V30 11504 C 1054.32 1.06366 -1.27575 0
M  V30 11505 O 1055.51 1.09301 -1.5639 0
M  V30 11506 C 1052.65 1.5813 -3.06739 0
M  V30 11507 C 1051.76 0.997416 -4.20328 0
M  V30 11508 C 1050.9 2.09296 -4.8823 0
M  V30 11509 C 1049.94 1.4846 -5.93823 0
M  V30 11510 N 1049.07 2.51916 -6.55349 0
M  V30 11511 H 1053.91 -0.175761 -2.97481 0
M  V30 11512 H 1051.45 -0.0985046 -1.4677 0
M  V30 11513 H 1053.41 2.24426 -3.51694 0
M  V30 11514 H 1052.04 2.18371 -2.37727 0
M  V30 11515 H 1051.09 0.224251 -3.79738 0
M  V30 11516 H 1052.4 0.512784 -4.96157 0
M  V30 11517 H 1051.56 2.83377 -5.36453 0
M  V30 11518 H 1050.3 2.61116 -4.1191 0
M  V30 11519 H 1049.3 0.729001 -5.44946 0
M  V30 11520 H 1050.53 0.97443 -6.72073 0
M  V30 11521 H 1048.47 3.02919 -5.81873 0
M  V30 11522 H 1048.39 2.08188 -7.26769 0
M  V30 11523 H 1049.66 3.25649 -7.08218 0
M  V30 11524 N 1053.89 1.57202 -0.111913 0
M  V30 11525 C 1055.13 1.95239 0.548607 0
M  V30 11526 C 1055.46 0.994897 1.6678 0
M  V30 11527 O 1054.74 0.0308603 1.94476 0
M  V30 11528 C 1055.02 3.43271 1.08798 0
M  V30 11529 C 1054.88 4.49792 -0.0273064 0
M  V30 11530 C 1056.19 3.92989 1.98109 0
M  V30 11531 H 1053.31 0.709919 0.197951 0
M  V30 11532 H 1055.96 1.89087 -0.186036 0
M  V30 11533 H 1054.11 3.48644 1.71404 0
M  V30 11534 H 1055.78 4.56521 -0.662302 0
M  V30 11535 H 1054.02 4.28254 -0.691426 0
M  V30 11536 H 1054.69 5.50612 0.391201 0
M  V30 11537 H 1057.17 3.89875 1.45385 0
M  V30 11538 H 1056.04 4.97101 2.32769 0
M  V30 11539 H 1056.3 3.33267 2.90492 0
M  V30 11540 N 1055.36 -0.161842 1.56767 0
M  V30 11541 C 1056.31 -1.2002 1.97139 0
M  V30 11542 C 1057.28 -1.43486 0.836713 0
M  V30 11543 O 1058.47 -1.56069 1.0976 0
M  V30 11544 C 1055.61 -2.53228 2.34456 0
M  V30 11545 C 1054.72 -2.37062 3.61145 0
M  V30 11546 C 1053.85 -3.63202 3.87631 0
M  V30 11547 C 1052.89 -3.42008 5.07638 0
M  V30 11548 N 1052.03 -4.60242 5.30209 0
M  V30 11549 H 1056.87 -0.848918 2.85653 0
M  V30 11550 H 1054.41 -0.407753 1.41336 0
M  V30 11551 H 1056.36 -3.30879 2.54116 0
M  V30 11552 H 1054.99 -2.86333 1.4904 0
M  V30 11553 H 1054.05 -1.50539 3.49345 0
M  V30 11554 H 1055.36 -2.17353 4.48953 0
M  V30 11555 H 1054.51 -4.49285 4.0771 0
M  V30 11556 H 1053.25 -3.85899 2.98216 0
M  V30 11557 H 1052.26 -2.54312 4.87448 0
M  V30 11558 H 1053.48 -3.20724 5.98593 0
M  V30 11559 H 1051.43 -4.8314 4.43747 0
M  V30 11560 H 1051.34 -4.43481 6.12259 0
M  V30 11561 H 1052.61 -5.47581 5.54775 0
M  V30 11562 N 1056.84 -1.516 -0.430713 0
M  V30 11563 C 1057.79 -1.73975 -1.54387 0
M  V30 11564 C 1058.78 -0.606222 -1.58181 0
M  V30 11565 O 1059.99 -0.787764 -1.61846 0
M  V30 11566 H 1056.36 -0.549811 -0.513041 0
M  V30 11567 H 1058.34 -2.67274 -1.32692 0
M  V30 11568 C 1057.08 -1.88794 -2.9198 0
M  V30 11569 H 1056.41 -2.75425 -2.89795 0
M  V30 11570 H 1057.85 -2.08458 -3.69217 0
M  V30 11571 C 1056.31 -0.649427 -3.30581 0
M  V30 11572 O 1056.84 0.192823 -4.01237 0
M  V30 11573 N 1055.04 -0.491586 -2.86412 0
M  V30 11574 H 1054.59 -1.17806 -2.29084 0
M  V30 11575 H 1054.55 0.33583 -3.12601 0
M  V30 11576 N 1058.32 0.686584 -1.41858 0
M  V30 11577 C 1059.57 1.44235 -1.40994 0
M  V30 11578 C 1059.88 1.95583 -0.0254979 0
M  V30 11579 O 1061.09 2.71294 0.10576 0
M  V30 11580 C 1059.54 2.6086 -2.47952 0
M  V30 11581 C 1059.15 2.16259 -3.92347 0
M  V30 11582 C 1060.9 3.38441 -2.56237 0
M  V30 11583 C 1058.8 3.29896 -4.90838 0
M  V30 11584 H 1057.73 0.54181 -0.524364 0
M  V30 11585 H 1060.38 0.744486 -1.67719 0
M  V30 11586 H 1058.77 3.32957 -2.14373 0
M  V30 11587 H 1059.94 1.51392 -4.35221 0
M  V30 11588 H 1058.25 1.51648 -3.87804 0
M  V30 11589 H 1060.85 4.23052 -3.27003 0
M  V30 11590 H 1061.19 3.84238 -1.6021 0
M  V30 11591 H 1061.73 2.73406 -2.88953 0
M  V30 11592 H 1058.47 2.89104 -5.88302 0
M  V30 11593 H 1057.99 3.93584 -4.52606 0
M  V30 11594 H 1059.67 3.95541 -5.12012 0
M  V30 11595 N 1059.8 1.27835 0.921735 0
M  V30 11596 C 1061.07 1.05238 1.64877 0
M  V30 11597 C 1061.45 -0.410921 2.07062 0
M  V30 11598 O 1060.8 -1.39538 1.80946 0
M  V30 11599 C 1061.01 2.01955 2.84632 0
M  V30 11600 C 1062.36 2.31657 3.55837 0
M  V30 11601 O 1063.38 1.99975 2.94768 0
M  V30 11602 O 1062.24 2.85692 4.65878 0
M  V30 11603 H 1059.34 0.401622 0.72293 0
M  V30 11604 H 1061.88 1.39123 0.971744 0
M  V30 11605 H 1060.66 3.00614 2.50494 0
M  V30 11606 H 1060.28 1.68667 3.60052 0
M  V30 11607 N 1061.28 -1.12907 1.09954 0
M  V30 11608 C 1062.21 -2.20585 0.765799 0
M  V30 11609 C 1063.19 -1.68117 -0.258989 0
M  V30 11610 O 1064.37 -1.93792 -0.125853 0
M  V30 11611 C 1061.5 -3.46772 0.191435 0
M  V30 11612 C 1060.46 -4.12363 1.14635 0
M  V30 11613 C 1059.78 -5.3294 0.433426 0
M  V30 11614 C 1061.08 -4.59073 2.49096 0
M  V30 11615 H 1062.78 -2.48759 1.66612 0
M  V30 11616 H 1060.32 -1.19563 0.802534 0
M  V30 11617 H 1062.27 -4.21365 -0.0541535 0
M  V30 11618 H 1061 -3.18011 -0.744101 0
M  V30 11619 H 1059.66 -3.39744 1.37731 0
M  V30 11620 H 1059.31 -5.00444 -0.506422 0
M  V30 11621 H 1059.01 -5.77772 1.07018 0
M  V30 11622 H 1060.53 -6.10284 0.196267 0
M  V30 11623 H 1061.94 -5.25063 2.30177 0
M  V30 11624 H 1060.34 -5.14665 3.0861 0
M  V30 11625 H 1061.41 -3.73313 3.0946 0
M  V30 11626 N 1062.75 -0.88754 -1.30232 0
M  V30 11627 C 1063.7 -0.354497 -2.28061 0
M  V30 11628 C 1064.67 0.556732 -1.56492 0
M  V30 11629 O 1065.86 0.484597 -1.84543 0
M  V30 11630 C 1063 0.422701 -3.42501 0
M  V30 11631 C 1062.11 -0.518036 -4.28883 0
M  V30 11632 C 1061.24 0.275011 -5.30488 0
M  V30 11633 C 1060.28 -0.661032 -6.0852 0
M  V30 11634 N 1059.42 0.0968509 -7.02033 0
M  V30 11635 H 1064.26 -1.19388 -2.73039 0
M  V30 11636 H 1061.8 -0.600091 -1.34303 0
M  V30 11637 H 1063.75 0.889249 -4.07613 0
M  V30 11638 H 1062.38 1.22664 -2.98586 0
M  V30 11639 H 1061.44 -1.10308 -3.64055 0
M  V30 11640 H 1062.75 -1.23504 -4.83268 0
M  V30 11641 H 1061.9 0.803301 -6.01358 0
M  V30 11642 H 1060.64 1.02522 -4.76802 0
M  V30 11643 H 1059.65 -1.20093 -5.36524 0
M  V30 11644 H 1060.87 -1.41037 -6.64293 0
M  V30 11645 H 1058.82 0.829548 -6.50734 0
M  V30 11646 H 1058.73 -0.560476 -7.5392 0
M  V30 11647 H 1060 0.6058 -7.77142 0
M  V30 11648 N 1064.23 1.43628 -0.648757 0
M  V30 11649 C 1065.48 2.01864 -0.160336 0
M  V30 11650 C 1065.81 1.51148 1.22412 0
M  V30 11651 O 1065.06 0.693168 1.83013 0
M  V30 11652 C 1065.36 3.57214 -0.115282 0
M  V30 11653 C 1065.03 4.27258 -1.44088 0
M  V30 11654 C 1063.69 4.46109 -1.8039 0
M  V30 11655 C 1066.04 4.66962 -2.31508 0
M  V30 11656 C 1063.37 5.01928 -3.03785 0
M  V30 11657 C 1065.72 5.24148 -3.54191 0
M  V30 11658 C 1064.39 5.41216 -3.90694 0
M  V30 11659 H 1063.66 0.738674 -0.0586712 0
M  V30 11660 H 1066.3 1.72163 -0.838578 0
M  V30 11661 H 1064.61 3.86431 0.646395 0
M  V30 11662 H 1066.3 4.00025 0.279425 0
M  V30 11663 H 1062.89 4.12928 -1.14842 0
M  V30 11664 H 1067.08 4.52095 -2.04753 0
M  V30 11665 H 1062.33 5.13328 -3.32122 0
M  V30 11666 H 1066.51 5.53861 -4.22151 0
M  V30 11667 H 1064.14 5.84234 -4.8639 0
M  V30 11668 N 1065.71 0.390394 1.52688 0
M  V30 11669 C 1066.66 -0.444229 2.26485 0
M  V30 11670 C 1067.63 -1.05688 1.28138 0
M  V30 11671 O 1068.81 -1.0847 1.56968 0
M  V30 11672 C 1065.95 -1.56501 3.07574 0
M  V30 11673 C 1065.07 -0.975111 4.20851 0
M  V30 11674 C 1064.2 -2.06704 4.89333 0
M  V30 11675 C 1063.24 -1.45309 5.94602 0
M  V30 11676 N 1062.38 -2.48437 6.56676 0
M  V30 11677 H 1067.22 0.191535 2.97384 0
M  V30 11678 H 1064.75 0.106287 1.46716 0
M  V30 11679 H 1066.71 -2.22558 3.52879 0
M  V30 11680 H 1065.34 -2.17107 2.38881 0
M  V30 11681 H 1064.39 -0.204109 3.79852 0
M  V30 11682 H 1065.71 -0.486465 4.96422 0
M  V30 11683 H 1064.86 -2.80528 5.37949 0
M  V30 11684 H 1063.6 -2.58928 4.13289 0
M  V30 11685 H 1062.6 -0.700091 5.45324 0
M  V30 11686 H 1063.83 -0.938775 6.7258 0
M  V30 11687 H 1061.77 -2.99829 5.83471 0
M  V30 11688 H 1061.69 -2.04331 7.27863 0
M  V30 11689 H 1062.96 -3.21888 7.09935 0
M  V30 11690 N 1067.19 -1.57141 0.120249 0
M  V30 11691 C 1068.44 -1.94413 -0.53727 0
M  V30 11692 C 1068.75 -1.00594 -1.67751 0
M  V30 11693 O 1069.96 -1.27336 -2.39787 0
M  V30 11694 C 1068.41 -3.45521 -1.00714 0
M  V30 11695 C 1068.02 -4.47878 0.104706 0
M  V30 11696 C 1069.76 -3.9171 -1.63596 0
M  V30 11697 C 1067.67 -5.90165 -0.381932 0
M  V30 11698 H 1066.6 -0.725745 -0.204475 0
M  V30 11699 H 1069.25 -1.82404 0.200302 0
M  V30 11700 H 1067.63 -3.52769 -1.79917 0
M  V30 11701 H 1068.81 -4.523 0.881002 0
M  V30 11702 H 1067.12 -4.11448 0.640264 0
M  V30 11703 H 1069.72 -4.95433 -2.01122 0
M  V30 11704 H 1070.06 -3.31756 -2.51483 0
M  V30 11705 H 1070.6 -3.87268 -0.909319 0
M  V30 11706 H 1067.34 -6.53877 0.460921 0
M  V30 11707 H 1066.86 -5.89161 -1.12468 0
M  V30 11708 H 1068.53 -6.41488 -0.842748 0
M  V30 11709 N 1068.67 0.153526 -1.5685 0
M  V30 11710 C 1069.92 0.865628 -1.82181 0
M  V30 11711 C 1070.23 1.82629 -0.700434 0
M  V30 11712 O 1071.43 2.58206 -0.839155 0
M  V30 11713 C 1069.89 1.58993 -3.22877 0
M  V30 11714 C 1069.5 0.672006 -4.42931 0
M  V30 11715 C 1071.24 2.2892 -3.57486 0
M  V30 11716 C 1069.15 1.39755 -5.7465 0
M  V30 11717 H 1068.08 0.326993 -0.679406 0
M  V30 11718 H 1070.73 0.118403 -1.83118 0
M  V30 11719 H 1069.11 2.38255 -3.16308 0
M  V30 11720 H 1070.29 -0.0849226 -4.60722 0
M  V30 11721 H 1068.6 0.0814825 -4.1632 0
M  V30 11722 H 1071.2 2.8383 -4.5315 0
M  V30 11723 H 1071.54 3.05105 -2.83226 0
M  V30 11724 H 1072.07 1.56583 -3.65686 0
M  V30 11725 H 1068.81 0.677686 -6.51987 0
M  V30 11726 H 1068.33 2.12736 -5.60806 0
M  V30 11727 H 1070.01 1.94024 -6.17223 0
M  V30 11728 N 1070.14 1.51827 0.422667 0
M  V30 11729 C 1071.39 1.65464 1.17258 0
M  V30 11730 C 1071.72 0.376834 1.90509 0
M  V30 11731 O 1071 -0.624219 1.84211 0
M  V30 11732 C 1071.28 2.86776 2.17788 0
M  V30 11733 C 1071.13 4.24571 1.48523 0
M  V30 11734 C 1072.45 3.03603 3.18611 0
M  V30 11735 H 1069.57 0.602169 0.424925 0
M  V30 11736 H 1072.21 1.84349 0.45996 0
M  V30 11737 H 1070.36 2.70806 2.78561 0
M  V30 11738 H 1072.04 4.5224 0.909739 0
M  V30 11739 H 1070.28 4.26595 0.787354 0
M  V30 11740 H 1070.95 5.05475 2.2181 0
M  V30 11741 H 1073.43 3.18381 2.67904 0
M  V30 11742 H 1072.3 3.90022 3.8623 0
M  V30 11743 H 1072.56 2.16318 3.85563 0
M  V30 11744 N 1071.62 -0.679052 1.4222 0
M  V30 11745 C 1072.85 -1.46747 1.45852 0
M  V30 11746 C 1073.27 -1.88675 0.0685937 0
M  V30 11747 O 1072.62 -1.57861 -0.915757 0
M  V30 11748 C 1072.67 -2.71935 2.38188 0
M  V30 11749 O 1072.39 -2.31768 3.71773 0
M  V30 11750 C 1073.9 -3.65536 2.50796 0
M  V30 11751 H 1071.12 -0.451682 0.49621 0
M  V30 11752 H 1073.66 -0.834723 1.86689 0
M  V30 11753 H 1071.81 -3.31409 2.00616 0
M  V30 11754 H 1072.23 -3.12579 4.21182 0
M  V30 11755 H 1073.7 -4.50113 3.19535 0
M  V30 11756 H 1074.18 -4.11148 1.54447 0
M  V30 11757 H 1074.79 -3.11957 2.89072 0
M  V30 11758 N 1073.1 -1.28322 -0.914942 0
M  V30 11759 C 1074.06 -1.12169 -1.99877 0
M  V30 11760 C 1075.06 -0.0617252 -1.60681 0
M  V30 11761 O 1076.25 -0.307405 -1.71466 0
M  V30 11762 C 1073.39 -0.711959 -3.33383 0
M  V30 11763 H 1074.58 -2.08425 -2.15636 0
M  V30 11764 H 1072.13 -1.11291 -1.09745 0
M  V30 11765 H 1072.87 0.251418 -3.23324 0
M  V30 11766 H 1072.65 -1.47764 -3.63192 0
M  V30 11767 H 1074.14 -0.621558 -4.12948 0
M  V30 11768 N 1074.58 1.12322 -1.10551 0
M  V30 11769 C 1075.81 1.87407 -0.869607 0
M  V30 11770 C 1076.22 1.79976 0.58356 0
M  V30 11771 O 1075.56 1.1725 1.41415 0
M  V30 11772 C 1075.62 3.37401 -1.24099 0
M  V30 11773 C 1075.29 3.68607 -2.70144 0
M  V30 11774 C 1076.28 3.66869 -3.68379 0
M  V30 11775 C 1073.97 3.97903 -3.06559 0
M  V30 11776 C 1075.96 3.93987 -5.01052 0
M  V30 11777 C 1073.65 4.24681 -4.39419 0
M  V30 11778 C 1074.65 4.2271 -5.36475 0
M  V30 11779 O 1074.33 4.48823 -6.66943 0
M  V30 11780 H 1074.07 0.59978 -0.311834 0
M  V30 11781 H 1076.62 1.43037 -1.4741 0
M  V30 11782 H 1074.85 3.82332 -0.579606 0
M  V30 11783 H 1076.54 3.93833 -0.982378 0
M  V30 11784 H 1077.31 3.44297 -3.41591 0
M  V30 11785 H 1073.18 3.98578 -2.31638 0
M  V30 11786 H 1076.73 3.92364 -5.76798 0
M  V30 11787 H 1072.63 4.46727 -4.65945 0
M  V30 11788 H 1073.39 4.66436 -6.72592 0
M  V30 11789 N 1076.06 0.894434 1.2976 0
M  V30 11790 C 1077 0.366586 2.2787 0
M  V30 11791 C 1077.97 -0.548425 1.56785 0
M  V30 11792 O 1079.16 -0.474804 1.84798 0
M  V30 11793 C 1076.3 -0.404531 3.42721 0
M  V30 11794 C 1075.41 0.540774 4.28602 0
M  V30 11795 C 1074.55 -0.246875 5.30626 0
M  V30 11796 C 1073.59 0.693294 6.08161 0
M  V30 11797 N 1072.72 -0.059619 7.02075 0
M  V30 11798 H 1077.56 1.20834 2.72402 0
M  V30 11799 H 1075.1 0.607205 1.33983 0
M  V30 11800 H 1077.06 -0.86762 4.08079 0
M  V30 11801 H 1075.69 -1.21078 2.99232 0
M  V30 11802 H 1074.74 1.12237 3.63465 0
M  V30 11803 H 1076.05 1.26065 4.82606 0
M  V30 11804 H 1075.21 -0.771398 6.01776 0
M  V30 11805 H 1073.94 -0.999918 4.77339 0
M  V30 11806 H 1072.95 1.22936 5.35879 0
M  V30 11807 H 1074.17 1.44558 6.63536 0
M  V30 11808 H 1072.12 -0.795026 6.51165 0
M  V30 11809 H 1072.04 0.60045 7.53612 0
M  V30 11810 H 1073.31 -0.564577 7.77453 0
M  V30 11811 N 1077.53 -1.43282 0.656365 0
M  V30 11812 C 1078.81 -1.9534 0.100816 0
M  V30 11813 C 1079.19 -1.59755 -1.37992 0
M  V30 11814 O 1078.54 -0.884264 -2.10697 0
M  V30 11815 C 1078.75 -3.47237 0.35038 0
M  V30 11816 C 1080.1 -4.23822 0.257001 0
M  V30 11817 O 1081.12 -3.55073 0.283111 0
M  V30 11818 O 1079.98 -5.46192 0.183397 0
M  V30 11819 H 1077.07 -0.826963 -0.00780287 0
M  V30 11820 H 1079.62 -1.53205 0.72982 0
M  V30 11821 H 1078.39 -3.66276 1.37685 0
M  V30 11822 H 1078.02 -3.96378 -0.311539 0
M  V30 11823 N 1079.01 -0.398486 -1.52479 0
M  V30 11824 C 1079.94 0.423498 -2.29627 0
M  V30 11825 C 1080.92 1.05547 -1.33394 0
M  V30 11826 O 1082.11 1.0665 -1.62294 0
M  V30 11827 C 1079.24 1.54612 -3.10986 0
M  V30 11828 C 1078.19 1.03971 -4.15179 0
M  V30 11829 C 1077.52 2.25512 -4.84818 0
M  V30 11830 C 1078.82 0.10121 -5.22202 0
M  V30 11831 H 1080.51 -0.220222 -2.98589 0
M  V30 11832 H 1078.06 -0.107355 -1.43599 0
M  V30 11833 H 1080.01 2.12806 -3.63719 0
M  V30 11834 H 1078.74 2.21756 -2.39774 0
M  V30 11835 H 1077.4 0.480251 -3.63441 0
M  V30 11836 H 1077.04 2.91187 -4.10145 0
M  V30 11837 H 1076.74 1.92285 -5.55248 0
M  V30 11838 H 1078.27 2.84331 -5.40359 0
M  V30 11839 H 1079.68 0.591617 -5.70239 0
M  V30 11840 H 1078.08 -0.141737 -5.99933 0
M  V30 11841 H 1079.15 -0.847216 -4.77441 0
M  V30 11842 N 1080.49 1.57075 -0.12858 0
M  V30 11843 C 1081.9 1.82468 0.39526 0
M  V30 11844 C 1082.25 1.0463 1.65973 0
M  V30 11845 O 1081.38 0.285835 2.14504 0
M  V30 11846 C 1081.97 3.30976 0.723889 0
M  V30 11847 C 1080.53 3.57016 1.19232 0
M  V30 11848 C 1079.68 2.76534 0.205907 0
M  V30 11849 H 1082.63 1.54711 -0.353571 0
M  V30 11850 H 1082.65 3.46127 1.58039 0
M  V30 11851 H 1082.16 3.87602 -0.196595 0
M  V30 11852 H 1080.26 3.05758 2.12938 0
M  V30 11853 H 1080.38 4.65558 1.13103 0
M  V30 11854 H 1078.74 2.45038 0.694872 0
M  V30 11855 H 1079.52 3.35923 -0.707842 0
M  V30 11856 N 1081.97 -0.145205 1.5693 0
M  V30 11857 C 1082.92 -1.18446 1.94819 0
M  V30 11858 C 1083.9 -1.38456 0.819684 0
M  V30 11859 O 1085.1 -1.39988 1.08316 0
M  V30 11860 C 1082.22 -2.51766 2.33385 0
M  V30 11861 C 1081.31 -2.35341 3.5281 0
M  V30 11862 N 1081.7 -1.88676 4.69292 0
M  V30 11863 C 1080 -2.66087 3.5793 0
M  V30 11864 C 1080.7 -1.85337 5.51385 0
M  V30 11865 N 1079.68 -2.28717 4.93142 0
M  V30 11866 H 1083.48 -0.815785 2.82351 0
M  V30 11867 H 1080.99 -0.353242 1.58512 0
M  V30 11868 H 1082.99 -3.26897 2.58735 0
M  V30 11869 H 1081.65 -2.89414 1.47206 0
M  V30 11870 H 1082.66 -1.58614 4.93013 0
M  V30 11871 H 1079.34 -3.07597 2.82294 0
M  V30 11872 H 1080.73 -1.50734 6.54774 0
M  V30 11873 N 1083.45 -1.52049 -0.414609 0
M  V30 11874 C 1084.41 -1.74382 -1.4874 0
M  V30 11875 C 1085.41 -0.613701 -1.48628 0
M  V30 11876 O 1086.6 -0.88152 -1.50249 0
M  V30 11877 C 1083.73 -1.82116 -2.88178 0
M  V30 11878 H 1084.93 -2.70147 -1.30233 0
M  V30 11879 H 1082.48 -1.42382 -0.644756 0
M  V30 11880 H 1083.21 -0.882457 -3.12063 0
M  V30 11881 H 1083 -2.64268 -2.89663 0
M  V30 11882 H 1084.49 -2.01155 -3.65959 0
M  V30 11883 N 1084.93 0.6715 -1.42579 0
M  V30 11884 C 1086.17 1.43366 -1.43436 0
M  V30 11885 C 1086.5 1.94131 -0.0517339 0
M  V30 11886 O 1085.78 1.71121 0.924548 0
M  V30 11887 C 1086.06 2.62832 -2.46154 0
M  V30 11888 C 1085.92 2.17677 -3.9362 0
M  V30 11889 C 1087.23 3.65049 -2.4582 0
M  V30 11890 H 1084.35 0.519967 -0.522306 0
M  V30 11891 H 1087 0.762849 -1.74013 0
M  V30 11892 H 1085.15 3.20062 -2.2021 0
M  V30 11893 H 1086.82 1.65588 -4.30556 0
M  V30 11894 H 1085.06 1.49219 -4.07328 0
M  V30 11895 H 1085.73 3.03503 -4.61075 0
M  V30 11896 H 1088.21 3.17541 -2.68899 0
M  V30 11897 H 1087.08 4.46213 -3.19664 0
M  V30 11898 H 1087.34 4.16401 -1.48536 0
M  V30 11899 N 1086.4 1.28806 0.908124 0
M  V30 11900 C 1087.34 1.09018 2.01613 0
M  V30 11901 C 1088.35 0.0402059 1.6275 0
M  V30 11902 O 1089.54 0.283853 1.76229 0
M  V30 11903 C 1086.64 0.635712 3.32884 0
M  V30 11904 C 1085.81 1.76235 4.00325 0
M  V30 11905 C 1084.87 1.3003 5.09881 0
M  V30 11906 O 1083.9 2.00354 5.32773 0
M  V30 11907 N 1085.1 0.166575 5.80261 0
M  V30 11908 H 1087.86 2.0444 2.19144 0
M  V30 11909 H 1085.42 1.20633 1.07978 0
M  V30 11910 H 1087.42 0.310097 4.0351 0
M  V30 11911 H 1085.99 -0.225816 3.11783 0
M  V30 11912 H 1085.21 2.25727 3.23173 0
M  V30 11913 H 1086.49 2.51796 4.42127 0
M  V30 11914 H 1085.89 -0.419934 5.64139 0
M  V30 11915 H 1084.45 -0.0997281 6.51724 0
M  V30 11916 N 1087.88 -1.11734 1.11145 0
M  V30 11917 C 1088.79 -2.21267 0.779607 0
M  V30 11918 C 1089.81 -1.72526 -0.225986 0
M  V30 11919 O 1090.98 -2.01302 -0.0629166 0
M  V30 11920 C 1088.05 -3.45973 0.22435 0
M  V30 11921 C 1087.11 -4.09518 1.28816 0
M  V30 11922 C 1086.34 -5.28271 0.7593 0
M  V30 11923 O 1086.57 -5.68912 -0.411725 0
M  V30 11924 O 1085.5 -5.82322 1.52266 0
M  V30 11925 H 1089.33 -2.5206 1.6941 0
M  V30 11926 H 1086.91 -1.20211 0.887115 0
M  V30 11927 H 1088.79 -4.21322 -0.0810921 0
M  V30 11928 H 1087.47 -3.1684 -0.662891 0
M  V30 11929 H 1086.37 -3.35915 1.64657 0
M  V30 11930 H 1087.71 -4.42824 2.14868 0
M  V30 11931 N 1089.36 -0.901303 -1.29284 0
M  V30 11932 C 1090.59 -0.543511 -1.99634 0
M  V30 11933 C 1091 0.872154 -1.67448 0
M  V30 11934 O 1090.36 1.57591 -0.920406 0
M  V30 11935 C 1090.41 -0.728148 -3.54091 0
M  V30 11936 O 1090.13 -2.08809 -3.85137 0
M  V30 11937 C 1091.63 -0.375519 -4.41707 0
M  V30 11938 H 1088.85 -0.208405 -0.637815 0
M  V30 11939 H 1091.4 -1.21109 -1.64781 0
M  V30 11940 H 1089.55 -0.107728 -3.8725 0
M  V30 11941 H 1089.97 -2.11863 -4.79807 0
M  V30 11942 H 1091.44 -0.555538 -5.49197 0
M  V30 11943 H 1091.92 0.687532 -4.33785 0
M  V30 11944 H 1092.52 -0.972949 -4.14021 0
M  V30 11945 N 1090.84 1.42931 -0.663954 0
M  V30 11946 C 1092.08 2.01683 -0.181738 0
M  V30 11947 C 1092.41 1.52437 1.20802 0
M  V30 11948 O 1091.67 0.71254 1.82267 0
M  V30 11949 C 1091.97 3.57072 -0.153163 0
M  V30 11950 C 1091.63 4.25706 -1.48612 0
M  V30 11951 C 1090.29 4.4417 -1.85111 0
M  V30 11952 C 1092.65 4.6448 -2.36448 0
M  V30 11953 C 1089.97 4.98677 -3.09092 0
M  V30 11954 C 1092.33 5.20362 -3.5973 0
M  V30 11955 C 1090.99 5.37041 -3.96412 0
M  V30 11956 H 1090.26 0.73801 -0.0665026 0
M  V30 11957 H 1092.91 1.71264 -0.856791 0
M  V30 11958 H 1091.21 3.87095 0.605372 0
M  V30 11959 H 1092.91 4.00299 0.236981 0
M  V30 11960 H 1089.5 4.11686 -1.19215 0
M  V30 11961 H 1093.68 4.49898 -2.09537 0
M  V30 11962 H 1088.94 5.09776 -3.37547 0
M  V30 11963 H 1093.11 5.49352 -4.28001 0
M  V30 11964 H 1090.74 5.79042 -4.92559 0
M  V30 11965 N 1092.32 0.406567 1.52266 0
M  V30 11966 C 1093.26 -0.420182 2.26943 0
M  V30 11967 C 1094.23 -1.04323 1.29251 0
M  V30 11968 O 1095.42 -1.06799 1.5811 0
M  V30 11969 C 1092.56 -1.5323 3.09216 0
M  V30 11970 C 1091.67 -0.930419 4.21862 0
M  V30 11971 C 1090.81 -2.01502 4.91498 0
M  V30 11972 C 1089.84 -1.38994 5.9611 0
M  V30 11973 N 1088.98 -2.41458 6.59274 0
M  V30 11974 H 1093.82 0.223066 2.97164 0
M  V30 11975 H 1091.36 0.121842 1.46595 0
M  V30 11976 H 1093.32 -2.18803 3.5522 0
M  V30 11977 H 1091.95 -2.14561 2.41171 0
M  V30 11978 H 1091 -0.163809 3.80047 0
M  V30 11979 H 1092.31 -0.433785 4.9691 0
M  V30 11980 H 1091.46 -2.74807 5.40894 0
M  V30 11981 H 1090.2 -2.5453 4.16012 0
M  V30 11982 H 1089.21 -0.642213 5.46036 0
M  V30 11983 H 1090.43 -0.867386 6.73538 0
M  V30 11984 H 1088.38 -2.93623 5.86619 0
M  V30 11985 H 1088.3 -1.96599 7.2999 0
M  V30 11986 H 1089.56 -3.14341 7.13309 0
M  V30 11987 N 1093.79 -1.57004 0.136909 0
M  V30 11988 C 1095.21 -1.58082 -0.21958 0
M  V30 11989 C 1095.41 -1.15065 -1.65415 0
M  V30 11990 O 1094.47 -0.846284 -2.37896 0
M  V30 11991 C 1095.78 -3.00685 0.0300112 0
M  V30 11992 C 1097.33 -3.12981 -0.0344899 0
M  V30 11993 C 1097.8 -4.57615 0.187639 0
M  V30 11994 N 1099.29 -4.63005 0.134219 0
M  V30 11995 C 1100.03 -5.72712 0.280743 0
M  V30 11996 N 1099.52 -6.91104 0.48443 0
M  V30 11997 N 1101.32 -5.61673 0.219055 0
M  V30 11998 H 1093.47 -1.83262 1.07372 0
M  V30 11999 H 1095.73 -0.847776 0.424241 0
M  V30 12000 H 1095.44 -3.36509 1.02247 0
M  V30 12001 H 1095.31 -3.70762 -0.693918 0
M  V30 12002 H 1097.7 -2.77004 -1.01749 0
M  V30 12003 H 1097.78 -2.45411 0.721608 0
M  V30 12004 H 1097.42 -4.94295 1.16769 0
M  V30 12005 H 1097.35 -5.23299 -0.588661 0
M  V30 12006 H 1099.84 -3.77895 -0.0189681 0
M  V30 12007 H 1100.16 -7.7057 0.586613 0
M  V30 12008 H 1098.5 -6.93047 0.520627 0
M  V30 12009 H 1101.69 -4.68061 0.0607606 0
M  V30 12010 H 1101.87 -6.47125 0.336683 0
M  V30 12011 N 1095.27 0.136881 -1.57004 0
M  V30 12012 C 1096.52 0.849031 -1.84172 0
M  V30 12013 C 1096.85 1.80359 -0.720027 0
M  V30 12014 O 1096.13 1.92538 0.275584 0
M  V30 12015 C 1096.41 1.61465 -3.21871 0
M  V30 12016 C 1096.26 0.680902 -4.44616 0
M  V30 12017 C 1097.58 2.57488 -3.56914 0
M  V30 12018 H 1094.7 0.307209 -0.669919 0
M  V30 12019 H 1097.34 0.113862 -1.89659 0
M  V30 12020 H 1095.49 2.24137 -3.17325 0
M  V30 12021 H 1097.16 0.0644094 -4.61255 0
M  V30 12022 H 1095.41 -0.00883629 -4.33799 0
M  V30 12023 H 1096.08 1.25286 -5.37594 0
M  V30 12024 H 1098.55 2.0493 -3.62136 0
M  V30 12025 H 1097.43 3.08101 -4.54274 0
M  V30 12026 H 1097.69 3.39321 -2.83397 0
M  V30 12027 N 1096.75 1.52266 0.40654 0
M  V30 12028 C 1097.68 1.78755 1.50229 0
M  V30 12029 C 1098.66 0.638652 1.57655 0
M  V30 12030 O 1099.85 0.884505 1.72888 0
M  V30 12031 C 1096.98 1.94057 2.88026 0
M  V30 12032 C 1095.93 3.09667 2.95449 0
M  V30 12033 C 1095.26 3.10196 4.35526 0
M  V30 12034 C 1096.56 4.49077 2.66697 0
M  V30 12035 H 1098.25 2.70511 1.28313 0
M  V30 12036 H 1095.8 1.30167 0.615836 0
M  V30 12037 H 1097.75 2.11171 3.64671 0
M  V30 12038 H 1096.47 0.989755 3.11242 0
M  V30 12039 H 1095.13 2.92308 2.2125 0
M  V30 12040 H 1094.78 2.12831 4.55754 0
M  V30 12041 H 1094.48 3.87847 4.41416 0
M  V30 12042 H 1096 3.29443 5.14101 0
M  V30 12043 H 1097.42 4.66628 3.33064 0
M  V30 12044 H 1095.82 5.28665 2.8396 0
M  V30 12045 H 1096.89 4.56995 1.62122 0
M  V30 12046 N 1098.23 -0.663929 1.42933 0
M  V30 12047 C 1099.48 -1.41973 1.43271 0
M  V30 12048 C 1099.79 -1.95518 0.0566103 0
M  V30 12049 O 1101 -2.71428 -0.0625862 0
M  V30 12050 C 1099.45 -2.56882 2.52071 0
M  V30 12051 C 1099.06 -2.0999 3.95737 0
M  V30 12052 C 1100.8 -3.34322 2.61589 0
M  V30 12053 C 1098.71 -3.22046 4.96025 0
M  V30 12054 H 1097.64 -0.5334 0.532917 0
M  V30 12055 H 1100.29 -0.717709 1.68882 0
M  V30 12056 H 1098.67 -3.29504 2.19643 0
M  V30 12057 H 1099.85 -1.44449 4.37574 0
M  V30 12058 H 1098.16 -1.45459 3.90168 0
M  V30 12059 H 1100.76 -4.17796 3.33692 0
M  V30 12060 H 1101.1 -3.8164 1.66302 0
M  V30 12061 H 1101.64 -2.68775 2.93266 0
M  V30 12062 H 1098.38 -2.79708 5.92827 0
M  V30 12063 H 1097.9 -3.86333 4.5881 0
M  V30 12064 H 1099.57 -3.87345 5.1824 0
M  V30 12065 N 1099.71 -1.29285 -0.901281 0
M  V30 12066 C 1100.65 -1.1428 -2.00521 0
M  V30 12067 C 1101.62 -0.0365428 -1.6606 0
M  V30 12068 O 1102.81 -0.203771 -1.89709 0
M  V30 12069 C 1099.95 -0.823671 -3.35126 0
M  V30 12070 C 1099.06 -2.01021 -3.8238 0
M  V30 12071 C 1098.2 -1.6306 -5.05554 0
M  V30 12072 C 1097.24 -2.78304 -5.45173 0
M  V30 12073 N 1096.37 -2.4075 -6.59533 0
M  V30 12074 H 1101.21 -2.08729 -2.12688 0
M  V30 12075 H 1098.75 -1.0387 -1.04161 0
M  V30 12076 H 1100.71 -0.61934 -4.12577 0
M  V30 12077 H 1099.34 0.0839113 -3.22691 0
M  V30 12078 H 1098.39 -2.32629 -3.00978 0
M  V30 12079 H 1099.7 -2.8738 -4.07694 0
M  V30 12080 H 1098.86 -1.38906 -5.90584 0
M  V30 12081 H 1097.59 -0.738464 -4.82077 0
M  V30 12082 H 1096.6 -3.03142 -4.58678 0
M  V30 12083 H 1097.82 -3.68179 -5.70632 0
M  V30 12084 H 1095.77 -1.54022 -6.37662 0
M  V30 12085 H 1095.69 -3.20643 -6.84634 0
M  V30 12086 H 1096.96 -2.19912 -7.47836 0
M  V30 12087 N 1101.18 1.11143 -1.11736 0
M  V30 12088 C 1102.09 2.20851 -0.791331 0
M  V30 12089 C 1103.11 1.72644 0.216833 0
M  V30 12090 O 1104.29 2.01332 0.0522401 0
M  V30 12091 C 1101.35 3.4585 -0.242694 0
M  V30 12092 C 1100.41 4.08829 -1.30986 0
M  V30 12093 C 1099.65 5.27861 -0.787305 0
M  V30 12094 O 1099.87 5.69122 0.381549 0
M  V30 12095 O 1098.8 5.81506 -1.55352 0
M  V30 12096 H 1102.63 2.51158 -1.70744 0
M  V30 12097 H 1100.21 1.19739 -0.893478 0
M  V30 12098 H 1102.1 4.21359 0.0587472 0
M  V30 12099 H 1100.77 3.17187 0.646079 0
M  V30 12100 H 1099.68 3.35037 -1.66436 0
M  V30 12101 H 1101.01 4.41678 -2.17213 0
M  V30 12102 N 1102.66 0.908147 1.28804 0
M  V30 12103 C 1103.57 0.397167 2.31214 0
M  V30 12104 C 1104.59 -0.512352 1.66286 0
M  V30 12105 O 1105.76 -0.399893 1.9739 0
M  V30 12106 C 1102.83 -0.359522 3.44831 0
M  V30 12107 C 1101.89 0.582539 4.25329 0
M  V30 12108 C 1101.12 -0.138133 5.33521 0
M  V30 12109 O 1101.35 -1.36076 5.53931 0
M  V30 12110 O 1100.28 0.523682 5.99618 0
M  V30 12111 H 1104.11 1.247 2.76918 0
M  V30 12112 H 1101.69 0.672766 1.33395 0
M  V30 12113 H 1103.57 -0.787098 4.13984 0
M  V30 12114 H 1102.25 -1.18528 3.01219 0
M  V30 12115 H 1101.16 1.0594 3.58786 0
M  V30 12116 H 1102.49 1.37495 4.72605 0
M  V30 12117 N 1104.14 -1.42577 0.671525 0
M  V30 12118 C 1105.05 -2.34598 -0.00898225 0
M  V30 12119 C 1106.07 -1.54909 -0.792407 0
M  V30 12120 O 1107.24 -1.87491 -0.735477 0
M  V30 12121 C 1104.31 -3.33405 -0.950888 0
M  V30 12122 C 1103.37 -4.28993 -0.16236 0
M  V30 12123 C 1102.6 -5.2308 -1.0594 0
M  V30 12124 O 1102.82 -5.22022 -2.2989 0
M  V30 12125 O 1101.76 -5.99632 -0.521966 0
M  V30 12126 H 1105.58 -2.94321 0.748927 0
M  V30 12127 H 1103.17 -1.43025 0.43175 0
M  V30 12128 H 1105.05 -3.94115 -1.49169 0
M  V30 12129 H 1103.73 -2.7616 -1.68871 0
M  V30 12130 H 1102.63 -3.71707 0.42247 0
M  V30 12131 H 1103.97 -4.8927 0.536274 0
M  V30 12132 N 1105.62 -0.414636 -1.52048 0
M  V30 12133 C 1106.85 0.158456 -2.05991 0
M  V30 12134 C 1107.26 1.38947 -1.28415 0
M  V30 12135 O 1106.6 1.80698 -0.330728 0
M  V30 12136 C 1106.66 0.568392 -3.54978 0
M  V30 12137 C 1106.33 -0.552654 -4.53646 0
M  V30 12138 C 1107.32 -1.41791 -5.00191 0
M  V30 12139 C 1105.01 -0.726917 -4.97012 0
M  V30 12140 C 1107 -2.44234 -5.88752 0
M  V30 12141 C 1104.69 -1.75464 -5.85368 0
M  V30 12142 C 1105.69 -2.61075 -6.31133 0
M  V30 12143 O 1105.37 -3.62087 -7.17738 0
M  V30 12144 H 1105.11 0.0214746 -0.675659 0
M  V30 12145 H 1107.66 -0.585825 -1.96869 0
M  V30 12146 H 1105.89 1.36504 -3.61806 0
M  V30 12147 H 1107.58 1.07003 -3.91542 0
M  V30 12148 H 1108.35 -1.29471 -4.67399 0
M  V30 12149 H 1104.22 -0.0701964 -4.60947 0
M  V30 12150 H 1107.77 -3.1109 -6.24395 0
M  V30 12151 H 1103.67 -1.87813 -6.17573 0
M  V30 12152 H 1104.43 -3.58396 -7.35863 0
M  V30 12153 N 1107.1 1.56929 -0.145233 0
M  V30 12154 C 1108.37 1.8767 0.551288 0
M  V30 12155 C 1108.75 1.05089 1.83083 0
M  V30 12156 O 1108.1 0.137201 2.28088 0
M  V30 12157 C 1108.31 3.39268 0.818445 0
M  V30 12158 C 1109.66 4.08447 1.16 0
M  V30 12159 O 1110.68 3.44436 0.907857 0
M  V30 12160 O 1109.54 5.21488 1.63441 0
M  V30 12161 H 1106.64 0.777788 0.281024 0
M  V30 12162 H 1109.18 1.68724 -0.181712 0
M  V30 12163 H 1107.95 3.91203 -0.0871897 0
M  V30 12164 H 1107.58 3.63735 1.60569 0
M  V30 12165 N 1108.58 -0.128553 1.57075 0
M  V30 12166 C 1109.8 -0.8564 1.88893 0
M  V30 12167 C 1110.23 -1.73095 0.736196 0
M  V30 12168 O 1109.58 -1.78567 -0.313629 0
M  V30 12169 C 1109.63 -1.67368 3.19406 0
M  V30 12170 O 1108.74 -2.77973 3.04639 0
M  V30 12171 H 1108.08 -0.237424 0.620102 0
M  V30 12172 H 1110.61 -0.113821 2.04283 0
M  V30 12173 H 1110.62 -2.0649 3.51889 0
M  V30 12174 H 1109.29 -1.03161 4.02903 0
M  V30 12175 H 1107.87 -2.42123 2.83603 0
M  V30 12176 N 1110.05 -1.5248 -0.398459 0
M  V30 12177 C 1111.3 -1.66287 -1.14155 0
M  V30 12178 C 1111.62 -0.40429 -1.91376 0
M  V30 12179 O 1112.82 -0.422341 -2.68195 0
M  V30 12180 C 1111.28 -2.93831 -2.07825 0
M  V30 12181 C 1110.89 -4.26836 -1.3607 0
M  V30 12182 C 1112.63 -3.17004 -2.82327 0
M  V30 12183 C 1110.54 -5.45495 -2.28451 0
M  V30 12184 H 1109.47 -0.619478 -0.42984 0
M  V30 12185 H 1112.12 -1.78972 -0.405112 0
M  V30 12186 H 1110.5 -2.7487 -2.85065 0
M  V30 12187 H 1111.67 -4.56317 -0.641205 0
M  V30 12188 H 1109.99 -4.0985 -0.735659 0
M  V30 12189 H 1112.59 -4.02834 -3.51609 0
M  V30 12190 H 1112.93 -2.3168 -3.45876 0
M  V30 12191 H 1113.46 -3.36487 -2.12183 0
M  V30 12192 H 1110.2 -6.33198 -1.69532 0
M  V30 12193 H 1109.72 -5.20338 -2.98343 0
M  V30 12194 H 1111.4 -5.78996 -2.88743 0
M  V30 12195 N 1111.53 0.65634 -1.43283 0
M  V30 12196 C 1112.78 1.41212 -1.44021 0
M  V30 12197 C 1113.09 1.95485 -0.0669783 0
M  V30 12198 O 1114.3 2.71457 0.0481909 0
M  V30 12199 C 1112.76 2.55541 -2.5343 0
M  V30 12200 C 1112.36 2.07889 -3.96845 0
M  V30 12201 C 1114.11 3.3293 -2.63359 0
M  V30 12202 C 1112.01 3.19411 -4.97726 0
M  V30 12203 H 1110.94 0.530566 -0.535739 0
M  V30 12204 H 1113.6 0.708743 -1.6926 0
M  V30 12205 H 1111.98 3.28335 -2.21387 0
M  V30 12206 H 1113.15 1.42127 -4.38334 0
M  V30 12207 H 1111.47 1.43388 -3.90933 0
M  V30 12208 H 1114.06 4.1602 -3.35903 0
M  V30 12209 H 1114.41 3.80753 -1.68324 0
M  V30 12210 H 1114.94 2.67216 -2.94687 0
M  V30 12211 H 1111.68 2.7656 -5.94302 0
M  V30 12212 H 1111.2 3.83895 -4.60853 0
M  V30 12213 H 1112.88 3.84591 -5.20287 0
M  V30 12214 N 1113.01 1.29761 0.894412 0
M  V30 12215 C 1114.26 1.18214 1.64782 0
M  V30 12216 C 1114.59 -0.264635 1.92388 0
M  V30 12217 O 1113.86 -1.19051 1.53809 0
M  V30 12218 C 1114.15 2.00138 2.99361 0
M  V30 12219 C 1114 3.52984 2.78787 0
M  V30 12220 C 1115.32 1.83187 4.00163 0
M  V30 12221 H 1112.44 0.430802 0.597979 0
M  V30 12222 H 1115.08 1.59292 1.03566 0
M  V30 12223 H 1113.23 1.65233 3.51611 0
M  V30 12224 H 1114.9 3.97898 2.33398 0
M  V30 12225 H 1113.14 3.77642 2.13469 0
M  V30 12226 H 1113.82 4.05585 3.7444 0
M  V30 12227 H 1116.29 2.13684 3.57041 0
M  V30 12228 H 1115.17 2.42849 4.92255 0
M  V30 12229 H 1115.43 0.788469 4.35012 0
M  V30 12230 N 1114.49 -1.10549 1.12324 0
M  V30 12231 C 1115.73 -1.82485 0.877817 0
M  V30 12232 C 1116.06 -1.85131 -0.596373 0
M  V30 12233 O 1115.32 -1.30675 -1.45679 0
M  V30 12234 C 1115.62 -3.28997 1.39626 0
M  V30 12235 C 1115.28 -3.465 2.88529 0
M  V30 12236 C 1113.94 -3.50984 3.29186 0
M  V30 12237 C 1116.3 -3.51991 3.84385 0
M  V30 12238 C 1113.62 -3.58525 4.6441 0
M  V30 12239 C 1115.98 -3.61065 5.19437 0
M  V30 12240 C 1114.64 -3.63813 5.5964 0
M  V30 12241 H 1113.91 -0.667758 0.321216 0
M  V30 12242 H 1116.56 -1.30314 1.40323 0
M  V30 12243 H 1114.86 -3.83726 0.791291 0
M  V30 12244 H 1116.56 -3.83165 1.18259 0
M  V30 12245 H 1113.15 -3.43686 2.56082 0
M  V30 12246 H 1117.33 -3.47777 3.54069 0
M  V30 12247 H 1112.59 -3.58934 4.94951 0
M  V30 12248 H 1116.76 -3.64257 5.9354 0
M  V30 12249 H 1114.39 -3.69409 6.6441 0
M  V30 12250 N 1115.97 -0.914965 -1.28321 0
M  V30 12251 C 1117.2 -0.563835 -1.98757 0
M  V30 12252 C 1117.6 0.859528 -1.68549 0
M  V30 12253 O 1116.95 1.58105 -0.935336 0
M  V30 12254 C 1117.01 -0.694539 -3.52727 0
M  V30 12255 C 1116.67 -2.08767 -4.06528 0
M  V30 12256 C 1117.67 -3.06052 -4.20272 0
M  V30 12257 C 1115.35 -2.40118 -4.4119 0
M  V30 12258 C 1117.35 -4.32803 -4.67932 0
M  V30 12259 C 1115.04 -3.67108 -4.88544 0
M  V30 12260 C 1116.03 -4.63265 -5.01871 0
M  V30 12261 O 1115.72 -5.87997 -5.48192 0
M  V30 12262 H 1115.45 -0.213557 -0.641381 0
M  V30 12263 H 1118.01 -1.23062 -1.64453 0
M  V30 12264 H 1116.24 0.0293186 -3.86689 0
M  V30 12265 H 1117.93 -0.350335 -4.04385 0
M  V30 12266 H 1118.69 -2.8315 -3.93765 0
M  V30 12267 H 1114.57 -1.66025 -4.30066 0
M  V30 12268 H 1118.12 -5.07861 -4.78249 0
M  V30 12269 H 1114.01 -3.89834 -5.14489 0
M  V30 12270 H 1114.78 -5.90804 -5.66474 0
M  V30 12271 N 1117.44 1.42219 -0.679077 0
M  V30 12272 C 1118.39 2.32599 0.00820028 0
M  V30 12273 C 1119.39 1.50059 0.786046 0
M  V30 12274 O 1120.59 1.66103 0.693528 0
M  V30 12275 H 1116.97 0.751694 0.0214483 0
M  V30 12276 H 1118.94 2.88257 -0.77138 0
M  V30 12277 C 1117.69 3.3468 0.942581 0
M  V30 12278 H 1117.01 3.98234 0.353463 0
M  V30 12279 H 1118.45 4.00496 1.39208 0
M  V30 12280 C 1116.91 2.67275 2.05099 0
M  V30 12281 O 1117.44 2.50793 3.13793 0
M  V30 12282 N 1115.64 2.26232 1.82394 0
M  V30 12283 H 1115.19 2.39838 0.939983 0
M  V30 12284 H 1115.15 1.81465 2.56744 0
M  V30 12285 N 1118.92 0.422693 1.51826 0
M  V30 12286 C 1120.15 -0.15017 2.06856 0
M  V30 12287 C 1120.57 -1.36946 1.28948 0
M  V30 12288 O 1119.93 -1.78393 0.32338 0
M  V30 12289 C 1119.98 -0.465563 3.57582 0
M  V30 12290 O 1119.08 -1.55442 3.81984 0
M  V30 12291 H 1118.42 -0.00827931 0.663948 0
M  V30 12292 H 1120.95 0.599806 1.95611 0
M  V30 12293 H 1120.96 -0.720279 4.01592 0
M  V30 12294 H 1119.64 0.425679 4.13716 0
M  V30 12295 H 1118.21 -1.29081 3.49846 0
M  V30 12296 N 1120.4 -1.5685 0.153553 0
M  V30 12297 C 1121.65 -1.96625 -0.49665 0
M  V30 12298 C 1121.98 -1.03877 -1.64083 0
M  V30 12299 O 1121.25 -0.0824112 -1.94325 0
M  V30 12300 C 1121.54 -3.46035 -0.996585 0
M  V30 12301 C 1121.39 -4.49561 0.146551 0
M  V30 12302 C 1122.71 -3.98104 -1.8762 0
M  V30 12303 H 1119.83 -0.714917 -0.179059 0
M  V30 12304 H 1122.47 -1.88527 0.236104 0
M  V30 12305 H 1120.62 -3.53066 -1.621 0
M  V30 12306 H 1122.29 -4.54604 0.783108 0
M  V30 12307 H 1120.53 -4.26271 0.804727 0
M  V30 12308 H 1121.21 -5.51456 -0.245078 0
M  V30 12309 H 1123.68 -3.93593 -1.34997 0
M  V30 12310 H 1122.56 -5.03098 -2.19508 0
M  V30 12311 H 1122.82 -3.40852 -2.81554 0
M  V30 12312 N 1121.88 0.120221 -1.57141 0
M  V30 12313 C 1123.12 0.828222 -1.84788 0
M  V30 12314 C 1123.45 1.79936 -0.738459 0
M  V30 12315 O 1122.71 1.93824 0.270295 0
M  V30 12316 C 1123.01 1.61338 -3.18912 0
M  V30 12317 C 1122.67 0.786637 -4.43985 0
M  V30 12318 C 1121.33 0.558645 -4.77946 0
M  V30 12319 C 1123.69 0.210281 -5.20776 0
M  V30 12320 C 1121.01 -0.255975 -5.86141 0
M  V30 12321 C 1123.37 -0.591523 -6.29828 0
M  V30 12322 C 1122.03 -0.829843 -6.62322 0
M  V30 12323 H 1121.3 0.303068 -0.676188 0
M  V30 12324 H 1123.95 0.0906538 -1.91285 0
M  V30 12325 H 1122.25 2.42182 -3.07986 0
M  V30 12326 H 1123.95 2.16513 -3.37525 0
M  V30 12327 H 1120.54 0.974426 -4.17376 0
M  V30 12328 H 1124.72 0.373641 -4.94892 0
M  V30 12329 H 1119.98 -0.449849 -6.09743 0
M  V30 12330 H 1124.15 -1.04512 -6.88513 0
M  V30 12331 H 1121.78 -1.4629 -7.45992 0
M  V30 12332 N 1123.36 1.52689 0.390367 0
M  V30 12333 C 1124.29 1.72118 1.49836 0
M  V30 12334 C 1125.27 0.568986 1.5232 0
M  V30 12335 O 1126.45 0.798623 1.70746 0
M  V30 12336 C 1123.58 1.77754 2.88307 0
M  V30 12337 C 1122.62 2.99492 3.03655 0
M  V30 12338 S 1123.46 4.59496 2.74998 0
M  V30 12339 C 1124.61 4.67946 4.15665 0
M  V30 12340 H 1124.85 2.65826 1.3313 0
M  V30 12341 H 1122.38 1.42964 0.583153 0
M  V30 12342 H 1124.34 1.81687 3.68103 0
M  V30 12343 H 1123 0.851406 3.02341 0
M  V30 12344 H 1122.19 2.99973 4.05009 0
M  V30 12345 H 1121.79 2.93544 2.3175 0
M  V30 12346 H 1124.09 4.46476 5.09573 0
M  V30 12347 H 1125.03 5.69945 4.202 0
M  V30 12348 H 1125.44 3.96799 4.01511 0
M  V30 12349 N 1124.83 -0.648732 1.43629 0
M  V30 12350 C 1125.77 -1.77417 1.45107 0
M  V30 12351 C 1126.78 -1.59067 0.346618 0
M  V30 12352 O 1127.97 -1.67705 0.611322 0
M  V30 12353 C 1125.07 -3.14906 1.25249 0
M  V30 12354 C 1124.24 -3.59874 2.48616 0
M  V30 12355 C 1123.3 -4.76181 2.23916 0
M  V30 12356 O 1122.33 -4.8539 2.97296 0
M  V30 12357 N 1123.53 -5.66691 1.25862 0
M  V30 12358 H 1126.29 -1.76626 2.42123 0
M  V30 12359 H 1123.85 -0.832725 1.38843 0
M  V30 12360 H 1125.85 -3.90408 1.06601 0
M  V30 12361 H 1124.42 -3.10443 0.366623 0
M  V30 12362 H 1123.64 -2.74768 2.82659 0
M  V30 12363 H 1124.92 -3.86665 3.30708 0
M  V30 12364 H 1124.32 -5.61927 0.652227 0
M  V30 12365 H 1122.88 -6.41895 1.13196 0
M  V30 12366 N 1126.31 -1.30234 -0.887518 0
M  V30 12367 C 1127.73 -1.0851 -1.17037 0
M  V30 12368 C 1127.93 0.155788 -2.00897 0
M  V30 12369 O 1126.98 0.850123 -2.37759 0
M  V30 12370 C 1128.3 -2.34723 -1.87951 0
M  V30 12371 C 1129.85 -2.40163 -2.00726 0
M  V30 12372 C 1130.32 -3.66211 -2.75051 0
M  V30 12373 N 1131.81 -3.67004 -2.82599 0
M  V30 12374 C 1132.55 -4.61224 -3.40676 0
M  V30 12375 N 1132.04 -5.65786 -3.99823 0
M  V30 12376 N 1133.84 -4.48772 -3.38467 0
M  V30 12377 H 1125.99 -2.09847 -0.328297 0
M  V30 12378 H 1128.25 -0.924904 -0.20798 0
M  V30 12379 H 1127.96 -3.25265 -1.33773 0
M  V30 12380 H 1127.83 -2.43175 -2.8835 0
M  V30 12381 H 1130.22 -1.50101 -2.54074 0
M  V30 12382 H 1130.3 -2.35688 -0.994218 0
M  V30 12383 H 1129.94 -4.56631 -2.22376 0
M  V30 12384 H 1129.87 -3.67947 -3.76726 0
M  V30 12385 H 1132.36 -2.91409 -2.40602 0
M  V30 12386 H 1132.68 -6.33783 -4.42197 0
M  V30 12387 H 1131.02 -5.69581 -3.9825 0
M  V30 12388 H 1134.21 -3.6627 -2.91485 0
M  V30 12389 H 1134.38 -5.22382 -3.83433 0
M  V30 12390 N 1127.79 1.09952 -1.12909 0
M  V30 12391 C 1128.72 2.18477 -0.824014 0
M  V30 12392 C 1129.7 1.68744 0.214324 0
M  V30 12393 O 1130.89 1.94057 0.0744281 0
M  V30 12394 C 1128.02 3.46143 -0.283308 0
M  V30 12395 C 1126.97 4.09178 -1.25528 0
M  V30 12396 C 1126.3 5.31604 -0.574574 0
M  V30 12397 C 1127.6 4.52308 -2.6118 0
M  V30 12398 H 1129.29 2.44254 -1.73148 0
M  V30 12399 H 1126.84 1.17394 -0.833952 0
M  V30 12400 H 1128.79 4.21361 -0.057583 0
M  V30 12401 H 1127.51 3.19872 0.659525 0
M  V30 12402 H 1126.17 3.35973 -1.4669 0
M  V30 12403 H 1125.82 5.01611 0.37356 0
M  V30 12404 H 1125.52 5.74732 -1.22299 0
M  V30 12405 H 1127.04 6.0955 -0.358004 0
M  V30 12406 H 1128.46 5.18776 -2.44017 0
M  V30 12407 H 1126.86 5.06302 -3.22147 0
M  V30 12408 H 1127.93 3.64977 -3.19249 0
M  V30 12409 N 1129.27 0.921757 1.27833 0
M  V30 12410 C 1130.22 0.414838 2.27041 0
M  V30 12411 C 1131.19 -0.515045 1.57913 0
M  V30 12412 O 1132.37 -0.435499 1.85763 0
M  V30 12413 C 1129.51 -0.331744 3.43502 0
M  V30 12414 C 1128.62 0.631565 4.27358 0
M  V30 12415 C 1127.76 -0.134265 5.3103 0
M  V30 12416 C 1126.8 0.822138 6.06554 0
M  V30 12417 N 1125.93 0.0893149 7.02043 0
M  V30 12418 H 1130.77 1.26585 2.69778 0
M  V30 12419 H 1128.31 0.635488 1.32665 0
M  V30 12420 H 1130.27 -0.780866 4.09827 0
M  V30 12421 H 1128.9 -1.14704 3.01733 0
M  V30 12422 H 1127.95 1.19922 3.61003 0
M  V30 12423 H 1129.26 1.36274 4.79824 0
M  V30 12424 H 1128.42 -0.643579 6.03277 0
M  V30 12425 H 1127.16 -0.898443 4.79353 0
M  V30 12426 H 1126.16 1.34275 5.33151 0
M  V30 12427 H 1127.39 1.586 6.6032 0
M  V30 12428 H 1125.33 -0.656725 6.52704 0
M  V30 12429 H 1125.25 0.760167 7.52169 0
M  V30 12430 H 1126.52 -0.399541 7.78475 0
M  V30 12431 N 1130.75 -1.41857 0.686609 0
M  V30 12432 C 1131.97 -2.05699 0.222561 0
M  V30 12433 C 1132.39 -1.51636 -1.12481 0
M  V30 12434 O 1131.75 -0.660925 -1.70112 0
M  V30 12435 C 1131.8 -3.61138 0.161818 0
M  V30 12436 O 1131.52 -4.13199 1.45596 0
M  V30 12437 C 1133.02 -4.42112 -0.324304 0
M  V30 12438 H 1130.24 -0.662665 0.10543 0
M  V30 12439 H 1132.78 -1.81788 0.936671 0
M  V30 12440 H 1130.94 -3.8412 -0.503056 0
M  V30 12441 H 1131.35 -5.0717 1.33712 0
M  V30 12442 H 1132.83 -5.51097 -0.315694 0
M  V30 12443 H 1133.3 -4.1756 -1.36164 0
M  V30 12444 H 1133.91 -4.24174 0.309251 0
M  V30 12445 N 1132.22 -0.430739 -1.51599 0
M  V30 12446 C 1133.17 0.398482 -2.29161 0
M  V30 12447 C 1134.17 1.02676 -1.34737 0
M  V30 12448 O 1135.37 0.96248 -1.52106 0
M  V30 12449 H 1131.75 0.14731 -0.737431 0
M  V30 12450 H 1133.72 -0.276619 -2.97115 0
M  V30 12451 C 1132.47 1.49094 -3.14112 0
M  V30 12452 H 1131.79 1.01685 -3.86652 0
M  V30 12453 H 1133.23 2.04453 -3.7145 0
M  V30 12454 C 1131.69 2.47049 -2.29059 0
M  V30 12455 O 1132.22 3.51435 -1.94567 0
M  V30 12456 N 1130.43 2.17778 -1.92409 0
M  V30 12457 H 1129.97 1.3292 -2.20658 0
M  V30 12458 H 1129.93 2.8356 -1.35798 0
M  V30 12459 N 1133.7 1.56767 -0.161869 0
M  V30 12460 C 1134.95 1.95769 0.485536 0
M  V30 12461 C 1135.26 1.05006 1.65025 0
M  V30 12462 O 1136.47 1.33649 2.36326 0
M  V30 12463 C 1134.93 3.4807 0.915176 0
M  V30 12464 C 1134.53 4.47443 -0.223416 0
M  V30 12465 C 1136.28 3.95909 1.53153 0
M  V30 12466 C 1134.19 5.90971 0.225325 0
M  V30 12467 H 1133.12 0.730911 0.185161 0
M  V30 12468 H 1135.77 1.81808 -0.248592 0
M  V30 12469 H 1134.15 3.57415 1.705 0
M  V30 12470 H 1135.32 4.49805 -1.00061 0
M  V30 12471 H 1133.64 4.09606 -0.749127 0
M  V30 12472 H 1136.23 5.00592 1.87915 0
M  V30 12473 H 1136.58 3.38307 2.42599 0
M  V30 12474 H 1137.11 3.89542 0.806322 0
M  V30 12475 H 1133.85 6.52426 -0.634124 0
M  V30 12476 H 1133.37 5.91936 0.96808 0
M  V30 12477 H 1135.05 6.43497 0.672373 0
M  V30 12478 N 1135.18 -0.111886 1.57202 0
M  V30 12479 C 1136.11 -1.13796 2.03894 0
M  V30 12480 C 1137.09 -1.4277 0.924696 0
M  V30 12481 O 1138.28 -1.53089 1.19488 0
M  V30 12482 C 1135.41 -2.46229 2.44925 0
M  V30 12483 C 1134.36 -2.31702 3.59859 0
M  V30 12484 C 1133.69 -3.69161 3.86813 0
M  V30 12485 C 1134.99 -1.77158 4.91337 0
M  V30 12486 H 1136.68 -0.749581 2.89865 0
M  V30 12487 H 1134.23 -0.359126 1.3945 0
M  V30 12488 H 1136.18 -3.18267 2.76195 0
M  V30 12489 H 1134.9 -2.86971 1.55933 0
M  V30 12490 H 1133.56 -1.62112 3.28809 0
M  V30 12491 H 1133.21 -4.07401 2.95015 0
M  V30 12492 H 1132.91 -3.60292 4.6418 0
M  V30 12493 H 1134.43 -4.42693 4.20542 0
M  V30 12494 H 1135.85 -2.3902 5.21097 0
M  V30 12495 H 1134.25 -1.79091 5.72753 0
M  V30 12496 H 1135.32 -0.729675 4.79379 0
M  V30 12497 N 1136.66 -1.52894 -0.382264 0
M  V30 12498 C 1137.59 -1.74413 -1.48703 0
M  V30 12499 C 1138.6 -0.624663 -1.50339 0
M  V30 12500 O 1139.79 -0.900527 -1.54119 0
M  V30 12501 C 1136.89 -1.79387 -2.8753 0
M  V30 12502 C 1136.07 -3.08794 -3.09783 0
M  V30 12503 C 1135.12 -3.05226 -4.2863 0
M  V30 12504 O 1134.15 -3.79073 -4.24609 0
M  V30 12505 N 1135.35 -2.2488 -5.35172 0
M  V30 12506 H 1138.12 -2.69734 -1.30628 0
M  V30 12507 H 1135.68 -1.51465 -0.571842 0
M  V30 12508 H 1137.67 -1.74498 -3.65147 0
M  V30 12509 H 1136.24 -0.914233 -2.98932 0
M  V30 12510 H 1135.46 -3.27118 -2.19971 0
M  V30 12511 H 1136.75 -3.94347 -3.21509 0
M  V30 12512 H 1136.15 -1.64363 -5.41296 0
M  V30 12513 H 1134.7 -2.25825 -6.1143 0
M  V30 12514 N 1138.14 0.641106 -1.43971 0
M  V30 12515 C 1139.37 1.42622 -1.49475 0
M  V30 12516 C 1139.78 1.8885 -0.115068 0
M  V30 12517 O 1139.12 1.60846 0.887378 0
M  V30 12518 C 1139.18 2.68643 -2.38896 0
M  V30 12519 C 1138.84 2.44276 -3.86236 0
M  V30 12520 C 1139.84 2.06732 -4.7703 0
M  V30 12521 C 1137.53 2.58225 -4.30842 0
M  V30 12522 C 1139.52 1.83451 -6.1043 0
M  V30 12523 C 1137.21 2.34559 -5.64292 0
M  V30 12524 C 1138.21 1.97229 -6.53903 0
M  V30 12525 O 1137.89 1.73819 -7.84884 0
M  V30 12526 H 1137.63 0.444187 -0.509582 0
M  V30 12527 H 1140.18 0.792179 -1.89509 0
M  V30 12528 H 1138.41 3.34649 -1.93771 0
M  V30 12529 H 1140.1 3.30623 -2.35464 0
M  V30 12530 H 1140.86 1.95521 -4.43843 0
M  V30 12531 H 1136.74 2.86253 -3.61359 0
M  V30 12532 H 1140.29 1.54238 -6.80335 0
M  V30 12533 H 1136.18 2.45376 -5.97043 0
M  V30 12534 H 1136.95 1.88146 -7.96582 0
M  V30 12535 N 1139.62 1.30703 0.880598 0
M  V30 12536 C 1140.58 1.17429 1.96832 0
M  V30 12537 C 1141.58 0.104305 1.60461 0
M  V30 12538 O 1142.77 0.352758 1.70591 0
M  V30 12539 C 1139.9 0.800099 3.31378 0
M  V30 12540 H 1141.09 2.14069 2.10034 0
M  V30 12541 H 1138.65 1.14162 1.06755 0
M  V30 12542 H 1139.38 -0.165606 3.23877 0
M  V30 12543 H 1139.17 1.57341 3.59146 0
M  V30 12544 H 1140.66 0.730826 4.11155 0
M  V30 12545 N 1141.09 -1.09351 1.1349 0
M  V30 12546 C 1142.32 -1.85844 0.92069 0
M  V30 12547 C 1142.74 -1.80616 -0.525303 0
M  V30 12548 O 1142.1 -1.1842 -1.37282 0
M  V30 12549 C 1142.15 -3.31716 1.4141 0
M  V30 12550 O 1141.25 -4.08014 0.599838 0
M  V30 12551 H 1140.59 -0.576242 0.32991 0
M  V30 12552 H 1143.12 -1.38084 1.50976 0
M  V30 12553 H 1143.13 -3.82564 1.41805 0
M  V30 12554 H 1141.81 -3.34837 2.46692 0
M  V30 12555 H 1140.39 -3.66944 0.663816 0
M  V30 12556 N 1142.57 -0.928524 -1.27343 0
M  V30 12557 C 1143.8 -0.585734 -1.98436 0
M  V30 12558 C 1144.21 0.83644 -1.69261 0
M  V30 12559 O 1143.57 1.55603 -0.953626 0
M  V30 12560 C 1143.62 -0.803092 -3.52467 0
M  V30 12561 O 1143.34 -2.16932 -3.80621 0
M  V30 12562 C 1144.84 -0.469127 -4.40811 0
M  V30 12563 H 1142.06 -0.221887 -0.633251 0
M  V30 12564 H 1144.61 -1.24577 -1.62175 0
M  V30 12565 H 1142.76 -0.189846 -3.86935 0
M  V30 12566 H 1143.18 -2.21992 -4.75205 0
M  V30 12567 H 1144.65 -0.671906 -5.47895 0
M  V30 12568 H 1145.13 0.595365 -4.35146 0
M  V30 12569 H 1145.73 -1.06055 -4.11865 0
M  V30 12570 N 1144.05 1.41491 -0.694123 0
M  V30 12571 C 1145.47 1.55358 -0.365532 0
M  V30 12572 C 1145.67 1.66994 1.12762 0
M  V30 12573 O 1144.72 1.64756 1.91342 0
M  V30 12574 C 1146.03 2.79352 -1.11279 0
M  V30 12575 C 1147.58 2.93147 -1.097 0
M  V30 12576 C 1148.06 4.20027 -1.82597 0
M  V30 12577 N 1149.55 4.26981 -1.7956 0
M  V30 12578 C 1150.28 5.24013 -2.32805 0
M  V30 12579 N 1149.78 6.27083 -2.94515 0
M  V30 12580 N 1151.57 5.15943 -2.23069 0
M  V30 12581 H 1143.72 1.32183 -1.66257 0
M  V30 12582 H 1145.99 0.637624 -0.701527 0
M  V30 12583 H 1145.69 2.76958 -2.16765 0
M  V30 12584 H 1145.57 3.70827 -0.690439 0
M  V30 12585 H 1147.95 2.95057 -0.0504037 0
M  V30 12586 H 1148.03 2.02849 -1.55839 0
M  V30 12587 H 1147.68 4.18878 -2.87235 0
M  V30 12588 H 1147.61 5.09294 -1.33893 0
M  V30 12589 H 1150.1 3.53129 -1.34567 0
M  V30 12590 H 1150.41 6.97511 -3.32714 0
M  V30 12591 H 1148.76 6.27589 -2.98592 0
M  V30 12592 H 1151.95 4.34346 -1.74532 0
M  V30 12593 H 1152.12 5.91396 -2.64868 0
M  V30 12594 N 1145.53 0.438773 1.51369 0
M  V30 12595 C 1146.94 -0.0240139 1.86685 0
M  V30 12596 C 1147.29 -1.41816 1.35583 0
M  V30 12597 O 1146.41 -2.04517 0.707232 0
M  V30 12598 C 1147.01 -0.0503527 3.38763 0
M  V30 12599 C 1145.57 -0.457556 3.73609 0
M  V30 12600 C 1144.72 0.348852 2.75097 0
M  V30 12601 H 1147.67 0.654552 1.44573 0
M  V30 12602 H 1147.69 -0.859534 3.70665 0
M  V30 12603 H 1147.2 0.964451 3.75925 0
M  V30 12604 H 1145.3 -1.47791 3.42036 0
M  V30 12605 H 1145.41 -0.181357 4.78757 0
M  V30 12606 H 1143.78 -0.193037 2.53967 0
M  V30 12607 H 1144.56 1.36256 3.15102 0
M  V30 12608 N 1147.01 -1.56678 0.170181 0
M  V30 12609 C 1148.42 -1.83452 -0.346742 0
M  V30 12610 C 1148.77 -1.08993 -1.63141 0
M  V30 12611 O 1147.89 -0.342607 -2.13671 0
M  V30 12612 C 1148.49 -3.32779 -0.635882 0
M  V30 12613 C 1147.05 -3.60052 -1.09725 0
M  V30 12614 C 1146.19 -2.76983 -0.132516 0
M  V30 12615 H 1149.14 -1.53719 0.394465 0
M  V30 12616 H 1149.17 -3.50195 -1.48806 0
M  V30 12617 H 1148.68 -3.86944 0.299291 0
M  V30 12618 H 1146.78 -3.11297 -2.04756 0
M  V30 12619 H 1146.89 -4.68393 -1.00719 0
M  V30 12620 H 1145.26 -2.46794 -0.62966 0
M  V30 12621 H 1146.04 -3.33929 0.796658 0
M  V30 12622 N 1148.48 0.103547 -1.57259 0
M  V30 12623 C 1149.71 0.82235 -1.89855 0
M  V30 12624 C 1150.13 1.72694 -0.76303 0
M  V30 12625 O 1149.48 1.8056 0.265421 0
M  V30 12626 C 1149.53 1.64282 -3.22015 0
M  V30 12627 O 1149.26 0.774628 -4.31197 0
M  V30 12628 C 1150.76 2.46543 -3.68418 0
M  V30 12629 H 1147.98 0.235591 -0.628282 0
M  V30 12630 H 1150.52 0.0833106 -2.0433 0
M  V30 12631 H 1148.68 2.33446 -3.09163 0
M  V30 12632 H 1149.09 1.34205 -5.0704 0
M  V30 12633 H 1150.56 2.99618 -4.63609 0
M  V30 12634 H 1151.04 3.24618 -2.95838 0
M  V30 12635 H 1151.65 1.82594 -3.84109 0
M  V30 12636 N 1149.96 1.53094 0.37415 0
M  V30 12637 C 1150.89 1.81901 1.46404 0
M  V30 12638 C 1151.87 0.671949 1.56265 0
M  V30 12639 O 1153.06 0.920978 1.70973 0
M  V30 12640 C 1150.19 2.00123 2.83845 0
M  V30 12641 C 1149.14 3.15864 2.88814 0
M  V30 12642 C 1148.47 3.19364 4.28848 0
M  V30 12643 C 1149.77 4.54633 2.57112 0
M  V30 12644 H 1151.46 2.73172 1.22546 0
M  V30 12645 H 1149.01 1.31444 0.588087 0
M  V30 12646 H 1150.96 2.18859 3.6011 0
M  V30 12647 H 1149.68 1.05555 3.09072 0
M  V30 12648 H 1148.34 2.96935 2.15 0
M  V30 12649 H 1147.99 2.2245 4.51137 0
M  V30 12650 H 1147.69 3.97123 4.3309 0
M  V30 12651 H 1149.22 3.40273 5.06997 0
M  V30 12652 H 1150.63 4.73587 3.23091 0
M  V30 12653 H 1149.03 5.34569 2.72683 0
M  V30 12654 H 1150.1 4.60331 1.52392 0
M  V30 12655 N 1151.44 -0.633461 1.44309 0
M  V30 12656 C 1152.66 -1.42527 1.50668 0
M  V30 12657 C 1153.09 -1.87637 0.131861 0
M  V30 12658 O 1152.45 -1.58595 -0.878477 0
M  V30 12659 C 1152.5 -2.62328 2.47419 0
M  V30 12660 O 1151.6 -3.62081 1.97411 0
M  V30 12661 H 1150.94 -0.426559 0.508864 0
M  V30 12662 H 1153.47 -0.773392 1.8942 0
M  V30 12663 H 1153.48 -3.09901 2.65378 0
M  V30 12664 H 1152.16 -2.2884 3.47283 0
M  V30 12665 H 1150.73 -3.21333 1.89208 0
M  V30 12666 N 1152.92 -1.31168 -0.873655 0
M  V30 12667 C 1154.33 -1.18584 -1.44203 0
M  V30 12668 C 1154.68 0.209114 -1.95082 0
M  V30 12669 O 1153.81 1.10662 -1.85965 0
M  V30 12670 C 1154.4 -2.14668 -2.62112 0
M  V30 12671 C 1152.96 -2.06029 -3.15006 0
M  V30 12672 C 1152.11 -2.04106 -1.87712 0
M  V30 12673 H 1155.06 -1.43273 -0.682536 0
M  V30 12674 H 1155.08 -1.73413 -3.38686 0
M  V30 12675 H 1154.59 -3.16186 -2.25051 0
M  V30 12676 H 1152.69 -1.07693 -3.56697 0
M  V30 12677 H 1152.8 -2.9496 -3.77539 0
M  V30 12678 H 1151.17 -1.49069 -2.0652 0
M  V30 12679 H 1151.95 -3.07373 -1.52894 0
M  V30 12680 N 1154.4 1.08748 -1.14068 0
M  V30 12681 C 1155.65 1.8044 -0.901352 0
M  V30 12682 C 1155.96 1.86995 0.573791 0
M  V30 12683 O 1157.16 2.55065 0.930275 0
M  V30 12684 C 1155.62 3.24185 -1.56308 0
M  V30 12685 C 1155.23 3.25875 -3.07424 0
M  V30 12686 C 1156.97 4.00584 -1.40473 0
M  V30 12687 C 1154.88 4.64186 -3.66449 0
M  V30 12688 H 1153.81 0.676201 -0.333569 0
M  V30 12689 H 1156.46 1.22169 -1.3692 0
M  V30 12690 H 1154.84 3.82561 -1.0229 0
M  V30 12691 H 1156.02 2.77225 -3.6808 0
M  V30 12692 H 1154.33 2.62969 -3.22856 0
M  V30 12693 H 1156.93 5.02781 -1.81976 0
M  V30 12694 H 1157.27 4.14823 -0.350408 0
M  V30 12695 H 1157.8 3.48668 -1.91508 0
M  V30 12696 H 1154.54 4.5515 -4.71719 0
M  V30 12697 H 1154.06 5.13132 -3.10574 0
M  V30 12698 H 1155.74 5.33161 -3.66536 0
M  V30 12699 N 1155.87 0.935264 1.26849 0
M  V30 12700 C 1157.29 0.623198 1.75992 0
M  V30 12701 C 1157.64 -0.861647 1.76267 0
M  V30 12702 O 1156.76 -1.6743 1.37099 0
M  V30 12703 C 1157.36 1.12451 3.19594 0
M  V30 12704 C 1155.92 0.862974 3.66374 0
M  V30 12705 C 1155.06 1.27886 2.4605 0
M  V30 12706 H 1158.01 1.11422 1.13008 0
M  V30 12707 H 1158.03 0.475626 3.77516 0
M  V30 12708 H 1157.55 2.20522 3.19361 0
M  V30 12709 H 1155.65 -0.203606 3.72043 0
M  V30 12710 H 1155.76 1.48582 4.55478 0
M  V30 12711 H 1154.12 0.697335 2.44968 0
M  V30 12712 H 1154.91 2.36837 2.48522 0
M  V30 12713 N 1157.35 -1.41121 0.701616 0
M  V30 12714 C 1158.3 -2.27994 0.0168361 0
M  V30 12715 C 1159.29 -1.42523 -0.746733 0
M  V30 12716 O 1160.48 -1.6574 -0.621232 0
M  V30 12717 C 1157.61 -3.30898 -0.914417 0
M  V30 12718 C 1156.69 -4.23846 -0.146776 0
M  V30 12719 N 1157.08 -4.9839 0.862624 0
M  V30 12720 C 1155.38 -4.44366 -0.38138 0
M  V30 12721 C 1156.08 -5.66463 1.32266 0
M  V30 12722 N 1155.06 -5.39731 0.647433 0
M  V30 12723 H 1158.86 -2.83065 0.790675 0
M  V30 12724 H 1156.38 -1.53405 0.532977 0
M  V30 12725 H 1158.37 -3.91964 -1.4202 0
M  V30 12726 H 1157.03 -2.77387 -1.68779 0
M  V30 12727 H 1158.04 -5.02761 1.24305 0
M  V30 12728 H 1154.72 -4.01856 -1.13216 0
M  V30 12729 H 1156.11 -6.36213 2.16061 0
M  V30 12730 N 1158.83 -0.446794 -1.51134 0
M  V30 12731 C 1160.08 0.118047 -2.01354 0
M  V30 12732 C 1160.39 1.42953 -1.33505 0
M  V30 12733 O 1161.6 2.07788 -1.74747 0
M  V30 12734 C 1160.05 0.260912 -3.58953 0
M  V30 12735 C 1159.66 -1.0407 -4.35745 0
M  V30 12736 C 1161.41 0.779014 -4.17291 0
M  V30 12737 C 1159.31 -0.862958 -5.8507 0
M  V30 12738 H 1158.24 0.0478915 -0.752478 0
M  V30 12739 H 1160.89 -0.577997 -1.74159 0
M  V30 12740 H 1159.28 1.02018 -3.82633 0
M  V30 12741 H 1160.45 -1.80903 -4.23805 0
M  V30 12742 H 1158.77 -1.48805 -3.88904 0
M  V30 12743 H 1161.36 0.928636 -5.26574 0
M  V30 12744 H 1161.71 1.76399 -3.7708 0
M  V30 12745 H 1162.24 0.0778022 -3.97724 0
M  V30 12746 H 1158.98 -1.82059 -6.2971 0
M  V30 12747 H 1158.5 -0.134588 -5.99649 0
M  V30 12748 H 1160.18 -0.51989 -6.44908 0
M  V30 12749 N 1160.31 1.56586 -0.178487 0
M  V30 12750 C 1161.72 1.83633 0.337009 0
M  V30 12751 C 1162.07 1.09857 1.6256 0
M  V30 12752 O 1161.2 0.353933 2.13486 0
M  V30 12753 C 1161.79 3.33112 0.618225 0
M  V30 12754 C 1160.35 3.60629 1.07814 0
M  V30 12755 C 1159.5 2.7705 0.117825 0
M  V30 12756 H 1162.45 1.53508 -0.402612 0
M  V30 12757 H 1162.47 3.5098 1.46947 0
M  V30 12758 H 1161.98 3.8678 -0.319808 0
M  V30 12759 H 1160.08 3.12378 2.03103 0
M  V30 12760 H 1160.19 4.68921 0.982339 0
M  V30 12761 H 1158.56 2.47125 0.616563 0
M  V30 12762 H 1159.34 3.33501 -0.814356 0
M  V30 12763 N 1161.79 -0.095206 1.57312 0
M  V30 12764 C 1163.2 -0.449411 1.53142 0
M  V30 12765 C 1163.4 -1.80523 0.895187 0
M  V30 12766 O 1162.46 -2.47746 0.487649 0
M  V30 12767 C 1163.77 -0.412002 2.97864 0
M  V30 12768 C 1165.32 -0.493866 3.09079 0
M  V30 12769 C 1165.79 -0.486606 4.55408 0
M  V30 12770 N 1167.29 -0.547363 4.59955 0
M  V30 12771 C 1168.02 -0.563582 5.70624 0
M  V30 12772 N 1167.52 -0.536015 6.90723 0
M  V30 12773 N 1169.31 -0.608385 5.58798 0
M  V30 12774 H 1161.46 0.792869 1.97047 0
M  V30 12775 H 1163.72 0.295106 0.900898 0
M  V30 12776 H 1163.43 0.517064 3.47878 0
M  V30 12777 H 1163.3 -1.23102 3.56547 0
M  V30 12778 H 1165.69 -1.41335 2.59053 0
M  V30 12779 H 1165.77 0.353286 2.53349 0
M  V30 12780 H 1165.42 0.428935 5.06086 0
M  V30 12781 H 1165.35 -1.35097 5.08976 0
M  V30 12782 H 1167.84 -0.573867 3.73517 0
M  V30 12783 H 1168.15 -0.551671 7.70828 0
M  V30 12784 H 1166.49 -0.503064 6.93177 0
M  V30 12785 H 1169.69 -0.627451 4.63876 0
M  V30 12786 H 1169.86 -0.617556 6.45051 0
M  V30 12787 N 1163.26 -1.53291 -0.366026 0
M  V30 12788 C 1164.49 -1.73665 -1.13381 0
M  V30 12789 C 1164.91 -0.464284 -1.8228 0
M  V30 12790 O 1164.27 0.581645 -1.71717 0
M  V30 12791 C 1164.32 -2.90225 -2.14013 0
M  V30 12792 O 1163.42 -2.58803 -3.21084 0
M  V30 12793 H 1162.77 -0.576762 -0.329 0
M  V30 12794 H 1165.3 -2.00174 -0.423287 0
M  V30 12795 H 1165.31 -3.16378 -2.57622 0
M  V30 12796 H 1163.98 -3.82518 -1.63257 0
M  V30 12797 H 1162.56 -2.43466 -2.82451 0
M  V30 12798 N 1164.74 0.6258 -1.44643 0
M  V30 12799 C 1166.15 1.20751 -1.42394 0
M  V30 12800 C 1166.5 1.95685 -0.142047 0
M  V30 12801 O 1165.63 2.02715 0.757332 0
M  V30 12802 C 1166.22 2.1964 -2.57961 0
M  V30 12803 C 1164.78 2.73227 -2.5889 0
M  V30 12804 C 1163.93 1.48315 -2.34303 0
M  V30 12805 H 1166.88 0.416162 -1.53146 0
M  V30 12806 H 1166.9 3.02342 -2.31019 0
M  V30 12807 H 1166.41 1.65073 -3.51244 0
M  V30 12808 H 1164.52 3.31782 -1.69563 0
M  V30 12809 H 1164.63 3.18902 -3.57545 0
M  V30 12810 H 1162.99 1.76634 -1.83501 0
M  V30 12811 H 1163.78 0.956427 -3.29708 0
M  V30 12812 N 1166.22 1.31629 0.866686 0
M  V30 12813 C 1167.45 1.24293 1.6503 0
M  V30 12814 C 1167.86 -0.193556 1.88207 0
M  V30 12815 O 1167.2 -1.13712 1.44275 0
M  V30 12816 C 1167.26 1.92032 3.03914 0
M  V30 12817 C 1166.93 3.41373 3.03831 0
M  V30 12818 C 1167.92 4.37064 2.81551 0
M  V30 12819 C 1165.61 3.83118 3.24848 0
M  V30 12820 C 1167.6 5.72474 2.80272 0
M  V30 12821 C 1165.29 5.18639 3.23197 0
M  V30 12822 C 1166.29 6.13128 3.00936 0
M  V30 12823 O 1165.98 7.46172 2.99137 0
M  V30 12824 H 1165.71 0.430569 0.521139 0
M  V30 12825 H 1168.26 1.74105 1.0898 0
M  V30 12826 H 1166.49 1.36774 3.61704 0
M  V30 12827 H 1168.18 1.78567 3.64512 0
M  V30 12828 H 1168.95 4.06142 2.65093 0
M  V30 12829 H 1164.83 3.10001 3.41204 0
M  V30 12830 H 1168.37 6.46199 2.62816 0
M  V30 12831 H 1164.27 5.49196 3.39197 0
M  V30 12832 H 1165.04 7.55385 3.15175 0
M  V30 12833 N 1167.7 -1.08142 1.14644 0
M  V30 12834 C 1168.65 -2.15133 0.835845 0
M  V30 12835 C 1169.62 -1.64795 -0.207785 0
M  V30 12836 O 1170.8 -1.90644 -0.07711 0
M  V30 12837 C 1167.94 -3.4359 0.322456 0
M  V30 12838 C 1167.05 -4.07761 1.42671 0
M  V30 12839 C 1166.19 -5.24022 0.870281 0
M  V30 12840 C 1165.23 -5.8014 1.95202 0
M  V30 12841 N 1164.37 -6.87743 1.41257 0
M  V30 12842 H 1169.21 -2.41042 1.75222 0
M  V30 12843 H 1166.74 -1.18288 0.874428 0
M  V30 12844 H 1168.7 -4.17199 0.00657059 0
M  V30 12845 H 1167.33 -3.17958 -0.557014 0
M  V30 12846 H 1166.38 -3.31885 1.85893 0
M  V30 12847 H 1167.69 -4.45485 2.24375 0
M  V30 12848 H 1166.85 -6.04582 0.506459 0
M  V30 12849 H 1165.59 -4.87695 0.0223118 0
M  V30 12850 H 1164.59 -4.98232 2.32476 0
M  V30 12851 H 1165.82 -6.18525 2.80363 0
M  V30 12852 H 1163.76 -6.5337 0.586826 0
M  V30 12853 H 1163.68 -7.24308 2.16596 0
M  V30 12854 H 1164.95 -7.72028 1.07674 0
M  V30 12855 N 1169.18 -0.941978 -1.26351 0
M  V30 12856 C 1170.42 -0.589971 -1.93715 0
M  V30 12857 C 1170.75 0.871085 -1.73903 0
M  V30 12858 O 1170.01 1.63864 -1.06991 0
M  V30 12859 C 1170.31 -0.879481 -3.4641 0
M  V30 12860 C 1169.97 -2.32454 -3.86362 0
M  V30 12861 C 1168.63 -2.71957 -3.9698 0
M  V30 12862 C 1170.99 -3.2636 -4.06373 0
M  V30 12863 C 1168.31 -4.04459 -4.25006 0
M  V30 12864 C 1170.67 -4.58459 -4.35887 0
M  V30 12865 C 1169.33 -4.97775 -4.4472 0
M  V30 12866 H 1168.6 -0.215886 -0.708854 0
M  V30 12867 H 1171.25 -1.18863 -1.50146 0
M  V30 12868 H 1169.55 -0.198289 -3.91298 0
M  V30 12869 H 1171.25 -0.585887 -3.96697 0
M  V30 12870 H 1167.84 -2.00814 -3.78645 0
M  V30 12871 H 1172.02 -2.97037 -3.97596 0
M  V30 12872 H 1167.28 -4.34582 -4.30057 0
M  V30 12873 H 1171.45 -5.31213 -4.50317 0
M  V30 12874 H 1169.08 -6.00475 -4.66191 0
M  V30 12875 N 1170.66 1.40747 -0.709091 0
M  V30 12876 C 1172.07 1.83955 -0.318968 0
M  V30 12877 C 1172.42 1.59304 1.14527 0
M  V30 12878 O 1171.54 1.07052 1.88066 0
M  V30 12879 C 1172.14 3.33934 -0.572147 0
M  V30 12880 C 1170.7 3.75661 -0.235802 0
M  V30 12881 C 1169.84 2.64024 -0.847743 0
M  V30 12882 H 1172.79 1.30107 -0.908734 0
M  V30 12883 H 1172.82 3.80143 0.164752 0
M  V30 12884 H 1172.33 3.51844 -1.63791 0
M  V30 12885 H 1170.43 3.63348 0.825164 0
M  V30 12886 H 1170.54 4.73955 -0.700263 0
M  V30 12887 H 1168.91 2.53197 -0.276283 0
M  V30 12888 H 1169.69 2.84748 -1.91765 0
M  V30 12889 N 1172.13 0.454803 1.50895 0
M  V30 12890 C 1173.36 -0.106259 2.07128 0
M  V30 12891 C 1173.78 -1.3418 1.31823 0
M  V30 12892 O 1173.14 -1.77667 0.361147 0
M  V30 12893 C 1173.19 -0.389609 3.58489 0
M  V30 12894 O 1172.29 -1.47305 3.85195 0
M  V30 12895 H 1171.63 0.00580588 0.663975 0
M  V30 12896 H 1174.16 0.641163 1.94294 0
M  V30 12897 H 1174.17 -0.634934 4.03029 0
M  V30 12898 H 1172.85 0.513338 4.1272 0
M  V30 12899 H 1171.43 -1.21631 3.52506 0
M  V30 12900 N 1173.61 -1.56489 0.186789 0
M  V30 12901 C 1174.84 -2.02163 -0.463126 0
M  V30 12902 C 1175.26 -1.06612 -1.54969 0
M  V30 12903 O 1174.62 -0.0482139 -1.81236 0
M  V30 12904 C 1174.67 -3.46337 -1.00416 0
M  V30 12905 O 1173.77 -3.53889 -2.11747 0
M  V30 12906 H 1173.11 -0.65496 -0.109194 0
M  V30 12907 H 1175.64 -2.02459 0.295227 0
M  V30 12908 H 1175.65 -3.85959 -1.32287 0
M  V30 12909 H 1174.33 -4.15376 -0.208693 0
M  V30 12910 H 1172.9 -3.26136 -1.80803 0
M  V30 12911 N 1175.09 0.086862 -1.5736 0
M  V30 12912 C 1176.5 0.640442 -1.75372 0
M  V30 12913 C 1176.85 1.78693 -0.81014 0
M  V30 12914 O 1175.98 2.16398 0.00940712 0
M  V30 12915 C 1176.57 1.16856 -3.1801 0
M  V30 12916 C 1175.13 1.66813 -3.37417 0
M  V30 12917 C 1174.28 0.58116 -2.71142 0
M  V30 12918 H 1177.23 -0.139249 -1.58088 0
M  V30 12919 H 1177.25 2.03772 -3.21337 0
M  V30 12920 H 1176.76 0.333909 -3.86661 0
M  V30 12921 H 1174.86 2.52652 -2.73858 0
M  V30 12922 H 1174.98 1.75545 -4.45781 0
M  V30 12923 H 1173.34 1.0226 -2.3327 0
M  V30 12924 H 1174.12 -0.243047 -3.42439 0
M  V30 12925 N 1176.57 1.53483 0.357892 0
M  V30 12926 C 1177.5 1.83444 1.44466 0
M  V30 12927 C 1178.48 0.688486 1.55544 0
M  V30 12928 O 1179.66 0.93906 1.69986 0
M  V30 12929 C 1176.79 2.03122 2.81707 0
M  V30 12930 C 1175.75 3.1891 2.85448 0
M  V30 12931 C 1175.07 3.23895 4.25436 0
M  V30 12932 C 1176.37 4.57334 2.52275 0
M  V30 12933 H 1178.07 2.74456 1.19642 0
M  V30 12934 H 1175.61 1.3206 0.574112 0
M  V30 12935 H 1177.57 2.22666 3.57768 0
M  V30 12936 H 1176.29 1.08827 3.07935 0
M  V30 12937 H 1174.95 2.99199 2.11838 0
M  V30 12938 H 1174.6 2.27223 4.48753 0
M  V30 12939 H 1174.3 4.01694 4.28854 0
M  V30 12940 H 1175.82 3.45632 5.0336 0
M  V30 12941 H 1177.24 4.76988 3.1805 0
M  V30 12942 H 1175.63 5.37431 2.66998 0
M  V30 12943 H 1176.7 4.61921 1.47501 0
M  V30 12944 N 1178.05 -0.61812 1.44973 0
M  V30 12945 C 1179.46 -0.937734 1.29146 0
M  V30 12946 C 1179.66 -2.00104 0.236749 0
M  V30 12947 O 1178.72 -2.49731 -0.372923 0
M  V30 12948 C 1180.03 -1.38865 2.66715 0
M  V30 12949 C 1181.58 -1.50343 2.74529 0
M  V30 12950 C 1182.05 -1.98814 4.12598 0
M  V30 12951 N 1183.54 -2.06064 4.14839 0
M  V30 12952 C 1184.28 -2.44768 5.18533 0
M  V30 12953 N 1183.78 -2.82516 6.32579 0
M  V30 12954 N 1185.57 -2.45016 5.05889 0
M  V30 12955 H 1177.72 0.084872 2.1223 0
M  V30 12956 H 1179.98 -0.0246744 0.947679 0
M  V30 12957 H 1179.69 -0.681583 3.45032 0
M  V30 12958 H 1179.56 -2.3572 2.94475 0
M  V30 12959 H 1181.95 -2.20144 1.96522 0
M  V30 12960 H 1182.03 -0.518297 2.50494 0
M  V30 12961 H 1181.67 -1.29604 4.91086 0
M  V30 12962 H 1181.6 -2.98223 4.34017 0
M  V30 12963 H 1184.1 -1.79525 3.32535 0
M  V30 12964 H 1184.41 -3.109 7.07504 0
M  V30 12965 H 1182.75 -2.80237 6.35997 0
M  V30 12966 H 1185.94 -2.14925 4.15842 0
M  V30 12967 H 1186.12 -2.74854 5.86821 0
M  V30 12968 N 1179.52 -1.32087 -0.859693 0
M  V30 12969 C 1180.77 -1.21716 -1.60836 0
M  V30 12970 C 1181.09 0.220904 -1.94349 0
M  V30 12971 O 1182.29 0.446422 -2.67805 0
M  V30 12972 C 1180.75 -2.13143 -2.89997 0
M  V30 12973 C 1180.36 -3.62003 -2.63928 0
M  V30 12974 C 1182.1 -2.11596 -3.68004 0
M  V30 12975 C 1180.01 -4.45407 -3.89059 0
M  V30 12976 H 1178.94 -0.45199 -0.603507 0
M  V30 12977 H 1181.59 -1.57013 -0.949687 0
M  V30 12978 H 1179.97 -1.70755 -3.57294 0
M  V30 12979 H 1181.14 -4.12701 -2.04974 0
M  V30 12980 H 1179.46 -3.6563 -1.99258 0
M  V30 12981 H 1182.06 -2.71149 -4.6085 0
M  V30 12982 H 1182.4 -1.10568 -4.01348 0
M  V30 12983 H 1182.93 -2.52238 -3.07605 0
M  V30 12984 H 1179.67 -5.4723 -3.60859 0
M  V30 12985 H 1179.19 -3.99462 -4.47427 0
M  V30 12986 H 1180.87 -4.58149 -4.56846 0
M  V30 12987 N 1181 1.07532 -1.15215 0
M  V30 12988 C 1182.41 1.61567 -0.935568 0
M  V30 12989 C 1182.76 1.89085 0.523557 0
M  V30 12990 O 1181.89 1.65495 1.39429 0
M  V30 12991 C 1182.48 2.93531 -1.69189 0
M  V30 12992 C 1181.04 3.44316 -1.52063 0
M  V30 12993 C 1180.19 2.18404 -1.70866 0
M  V30 12994 H 1183.14 0.906431 -1.30267 0
M  V30 12995 H 1183.16 3.62377 -1.16031 0
M  V30 12996 H 1182.67 2.73471 -2.75381 0
M  V30 12997 H 1180.77 3.69462 -0.482567 0
M  V30 12998 H 1180.89 4.20478 -2.29642 0
M  V30 12999 H 1179.25 2.28012 -1.13502 0
M  V30 13000 H 1180.03 2.00841 -2.7842 0
M  V30 13001 N 1182.48 0.948665 1.2585 0
M  V30 13002 C 1183.73 0.59905 1.93018 0
M  V30 13003 C 1184.05 -0.865813 1.74725 0
M  V30 13004 O 1183.32 -1.61602 1.10732 0
M  V30 13005 H 1181.9 0.218565 0.71431 0
M  V30 13006 H 1184.56 1.20561 1.53137 0
M  V30 13007 H 1183.66 0.823244 3.01047 0
M  V30 13008 N 1183.96 -1.40369 0.716545 0
M  V30 13009 C 1185.21 -2.00473 0.255959 0
M  V30 13010 C 1185.53 -1.57104 -1.15514 0
M  V30 13011 O 1184.8 -0.810925 -1.78328 0
M  V30 13012 H 1183.38 -0.741357 0.0916427 0
M  V30 13013 H 1186.04 -1.71692 0.922389 0
M  V30 13014 H 1185.14 -3.10752 0.289806 0
M  V30 13015 N 1185.44 -0.462799 -1.50652 0
M  V30 13016 C 1186.38 0.349784 -2.29955 0
M  V30 13017 C 1187.38 0.997947 -1.36885 0
M  V30 13018 O 1188.58 0.93 -1.54114 0
M  V30 13019 H 1184.96 0.131635 -0.740389 0
M  V30 13020 H 1186.93 -0.33958 -2.96461 0
M  V30 13021 C 1185.68 1.42398 -3.17204 0
M  V30 13022 H 1185 0.934611 -3.88722 0
M  V30 13023 H 1186.44 1.96528 -3.75703 0
M  V30 13024 C 1184.9 2.42135 -2.34248 0
M  V30 13025 O 1185.43 3.47229 -2.01978 0
M  V30 13026 N 1183.64 2.13647 -1.96985 0
M  V30 13027 H 1183.18 1.28209 -2.23428 0
M  V30 13028 H 1183.14 2.80615 -1.41783 0
M  V30 13029 N 1186.91 1.56388 -0.195085 0
M  V30 13030 C 1188.16 1.96755 0.443901 0
M  V30 13031 C 1188.48 1.08483 1.6276 0
M  V30 13032 O 1189.68 1.38632 2.33438 0
M  V30 13033 C 1188.14 3.49933 0.841139 0
M  V30 13034 C 1187.75 4.46868 -0.318275 0
M  V30 13035 C 1189.49 3.99069 1.44721 0
M  V30 13036 C 1187.4 5.91316 0.0999211 0
M  V30 13037 H 1186.33 0.734674 0.169616 0
M  V30 13038 H 1188.98 1.8124 -0.287101 0
M  V30 13039 H 1187.36 3.60951 1.62881 0
M  V30 13040 H 1188.53 4.47581 -1.0958 0
M  V30 13041 H 1186.85 4.07925 -0.835842 0
M  V30 13042 H 1189.45 5.04465 1.77255 0
M  V30 13043 H 1189.79 3.43376 2.35369 0
M  V30 13044 H 1190.32 3.91165 0.723513 0
M  V30 13045 H 1187.06 6.50934 -0.77237 0
M  V30 13046 H 1186.58 5.93856 0.842304 0
M  V30 13047 H 1188.26 6.44778 0.535726 0
M  V30 13048 N 1188.39 -0.0785156 1.57404 0
M  V30 13049 C 1189.62 -0.790893 1.90862 0
M  V30 13050 C 1190.03 -1.7198 0.788644 0
M  V30 13051 O 1189.37 -1.82027 -0.247322 0
M  V30 13052 C 1189.44 -1.64362 3.19727 0
M  V30 13053 C 1189.1 -0.884796 4.48353 0
M  V30 13054 C 1190.1 -0.207074 5.19487 0
M  V30 13055 C 1187.78 -0.853962 4.94988 0
M  V30 13056 C 1189.78 0.491329 6.35504 0
M  V30 13057 C 1187.46 -0.151783 6.10911 0
M  V30 13058 C 1188.46 0.519669 6.8102 0
M  V30 13059 O 1188.15 1.21055 7.94733 0
M  V30 13060 H 1187.88 -0.230427 0.635515 0
M  V30 13061 H 1190.43 -0.0551231 2.05326 0
M  V30 13062 H 1188.66 -2.42203 3.01454 0
M  V30 13063 H 1190.35 -2.23406 3.38887 0
M  V30 13064 H 1191.12 -0.222247 4.84491 0
M  V30 13065 H 1187 -1.36605 4.40296 0
M  V30 13066 H 1190.54 1.01598 6.90162 0
M  V30 13067 H 1186.44 -0.134514 6.4536 0
M  V30 13068 H 1187.21 1.11914 8.10813 0
M  V30 13069 N 1189.87 -1.5367 -0.349747 0
M  V30 13070 C 1191.12 -1.69835 -1.08807 0
M  V30 13071 C 1191.43 -0.46497 -1.89993 0
M  V30 13072 O 1192.64 -0.507452 -2.66716 0
M  V30 13073 C 1191.09 -3.00294 -1.98372 0
M  V30 13074 C 1190.7 -4.30949 -1.22422 0
M  V30 13075 C 1192.45 -3.25826 -2.72099 0
M  V30 13076 C 1190.35 -5.52486 -2.1098 0
M  V30 13077 H 1189.28 -0.63284 -0.409915 0
M  V30 13078 H 1191.93 -1.80171 -0.347968 0
M  V30 13079 H 1190.32 -2.838 -2.76176 0
M  V30 13080 H 1191.49 -4.58126 -0.495707 0
M  V30 13081 H 1189.81 -4.11983 -0.604896 0
M  V30 13082 H 1192.4 -4.13817 -3.38615 0
M  V30 13083 H 1192.75 -2.42566 -3.3833 0
M  V30 13084 H 1193.28 -3.43067 -2.0137 0
M  V30 13085 H 1190.02 -6.38271 -1.49301 0
M  V30 13086 H 1189.54 -5.29566 -2.81638 0
M  V30 13087 H 1191.22 -5.87889 -2.70176 0
M  V30 13088 N 1191.35 0.610423 -1.45298 0
M  V30 13089 C 1192.57 1.40112 -1.52917 0
M  V30 13090 C 1193 1.87404 -0.161696 0
M  V30 13091 O 1192.36 1.59973 0.853135 0
M  V30 13092 C 1192.4 2.58359 -2.51561 0
M  V30 13093 O 1191.51 3.58895 -2.03146 0
M  V30 13094 H 1190.85 0.41841 -0.515586 0
M  V30 13095 H 1193.38 0.743159 -1.90626 0
M  V30 13096 H 1193.39 3.0564 -2.70275 0
M  V30 13097 H 1192.06 2.23286 -3.50879 0
M  V30 13098 H 1190.64 3.18282 -1.94296 0
M  V30 13099 N 1192.83 1.32541 0.852676 0
M  V30 13100 C 1194.24 1.20863 1.42299 0
M  V30 13101 C 1194.59 -0.178051 1.9539 0
M  V30 13102 O 1193.71 -1.07689 1.87702 0
M  V30 13103 C 1194.31 2.18811 2.58664 0
M  V30 13104 C 1192.87 2.11015 3.11689 0
M  V30 13105 C 1192.01 2.07067 1.84441 0
M  V30 13106 H 1194.97 1.44341 0.659657 0
M  V30 13107 H 1194.99 1.78779 3.35884 0
M  V30 13108 H 1194.5 3.19726 2.19993 0
M  V30 13109 H 1192.6 1.13354 3.54939 0
M  V30 13110 H 1192.71 3.00929 3.72799 0
M  V30 13111 H 1191.08 1.52335 2.04123 0
M  V30 13112 H 1191.86 3.09767 1.47984 0
M  V30 13113 N 1194.3 -1.0692 1.15784 0
M  V30 13114 C 1195.23 -2.16216 0.881649 0
M  V30 13115 C 1196.22 -1.69253 -0.16951 0
M  V30 13116 O 1197.4 -1.94186 -0.0229511 0
M  V30 13117 C 1194.53 -3.4527 0.374982 0
M  V30 13118 C 1193.48 -4.05706 1.36332 0
M  V30 13119 C 1192.81 -5.29894 0.715317 0
M  V30 13120 C 1194.11 -4.45224 2.7308 0
M  V30 13121 H 1195.8 -2.39577 1.79563 0
M  V30 13122 H 1193.35 -1.15141 0.864784 0
M  V30 13123 H 1195.3 -4.2106 0.169279 0
M  V30 13124 H 1194.03 -3.21508 -0.574485 0
M  V30 13125 H 1192.69 -3.31965 1.55546 0
M  V30 13126 H 1192.33 -5.02425 -0.240436 0
M  V30 13127 H 1192.03 -5.71287 1.37494 0
M  V30 13128 H 1193.56 -6.08386 0.519489 0
M  V30 13129 H 1194.97 -5.12124 2.57686 0
M  V30 13130 H 1193.37 -4.97583 3.35457 0
M  V30 13131 H 1194.44 -3.56384 3.28813 0
M  V30 13132 N 1195.78 -0.955326 -1.25345 0
M  V30 13133 C 1196.73 -0.474888 -2.25862 0
M  V30 13134 C 1197.7 0.472996 -1.59223 0
M  V30 13135 O 1198.88 0.386094 -1.86853 0
M  V30 13136 C 1196.02 0.240554 -3.44261 0
M  V30 13137 C 1195.14 -0.74465 -4.25534 0
M  V30 13138 C 1194.27 -0.00657513 -5.312 0
M  V30 13139 C 1193.31 -0.982666 -6.04161 0
M  V30 13140 N 1192.45 -0.275418 -7.0156 0
M  V30 13141 H 1197.29 -1.33693 -2.66327 0
M  V30 13142 H 1194.83 -0.670439 -1.30933 0
M  V30 13143 H 1196.78 0.671933 -4.11753 0
M  V30 13144 H 1195.41 1.06664 -3.04668 0
M  V30 13145 H 1194.47 -1.29451 -3.57696 0
M  V30 13146 H 1195.78 -1.48948 -4.76042 0
M  V30 13147 H 1194.93 0.483404 -6.04771 0
M  V30 13148 H 1193.67 0.771035 -4.81567 0
M  V30 13149 H 1192.68 -1.48364 -5.29404 0
M  V30 13150 H 1193.9 -1.76052 -6.55883 0
M  V30 13151 H 1191.85 0.483441 -6.54216 0
M  V30 13152 H 1191.76 -0.959324 -7.49889 0
M  V30 13153 H 1193.03 0.193002 -7.79261 0
M  V30 13154 N 1197.26 1.39987 -0.723979 0
M  V30 13155 C 1198.49 2.0556 -0.275634 0
M  V30 13156 C 1198.91 1.54207 1.07711 0
M  V30 13157 O 1198.27 0.681041 1.68022 0
M  V30 13158 C 1198.32 3.59551 -0.27485 0
M  V30 13159 O 1197.42 4.05685 0.741182 0
M  V30 13160 H 1196.76 0.651634 -0.12755 0
M  V30 13161 H 1199.29 1.79229 -0.986814 0
M  V30 13162 H 1199.3 4.07837 -0.115425 0
M  V30 13163 H 1197.98 3.96291 -1.26198 0
M  V30 13164 H 1196.55 3.6884 0.548795 0
M  V30 13165 N 1198.74 0.470782 1.50404 0
M  V30 13166 C 1200.15 0.0155901 1.86693 0
M  V30 13167 C 1200.5 -1.38908 1.38561 0
M  V30 13168 O 1199.63 -2.02971 0.750454 0
M  V30 13169 C 1200.22 0.0215152 3.38793 0
M  V30 13170 C 1198.78 -0.378206 3.74495 0
M  V30 13171 C 1197.93 0.407126 2.74295 0
M  V30 13172 H 1200.88 0.68507 1.43152 0
M  V30 13173 H 1200.9 -0.780717 3.72404 0
M  V30 13174 H 1200.41 1.04397 3.73795 0
M  V30 13175 H 1198.51 -1.40503 3.45094 0
M  V30 13176 H 1198.63 -0.0797643 4.79034 0
M  V30 13177 H 1196.99 -0.139123 2.5432 0
M  V30 13178 H 1197.77 1.42909 3.12141 0
M  V30 13179 N 1200.22 -1.56282 0.203376 0
M  V30 13180 C 1201.45 -2.01905 -0.437936 0
M  V30 13181 C 1201.86 -1.08263 -1.55164 0
M  V30 13182 O 1201.2 -0.0811746 -1.83521 0
M  V30 13183 C 1201.26 -3.43908 -1.04725 0
M  V30 13184 C 1200.92 -4.56944 -0.0712582 0
M  V30 13185 C 1201.92 -5.14856 0.72243 0
M  V30 13186 C 1199.61 -5.02282 0.0422267 0
M  V30 13187 C 1201.6 -6.16562 1.61649 0
M  V30 13188 C 1199.29 -6.0383 0.939835 0
M  V30 13189 C 1200.29 -6.60844 1.72552 0
M  V30 13190 O 1199.97 -7.60417 2.60808 0
M  V30 13191 H 1199.71 -0.666416 -0.11343 0
M  V30 13192 H 1202.26 -2.03019 0.311833 0
M  V30 13193 H 1200.49 -3.39806 -1.84577 0
M  V30 13194 H 1202.18 -3.73288 -1.59407 0
M  V30 13195 H 1202.94 -4.80691 0.645105 0
M  V30 13196 H 1198.82 -4.57596 -0.559165 0
M  V30 13197 H 1202.37 -6.6099 2.23019 0
M  V30 13198 H 1198.26 -6.37418 1.01824 0
M  V30 13199 H 1199.03 -7.77869 2.54679 0
M  V30 13200 N 1201.7 0.070167 -1.57444 0
M  V30 13201 C 1202.64 1.08322 -2.03801 0
M  V30 13202 C 1203.61 1.38364 -0.918946 0
M  V30 13203 O 1204.8 1.49404 -1.18672 0
M  V30 13204 C 1201.94 2.39128 -2.48821 0
M  V30 13205 C 1201.05 2.15603 -3.74352 0
M  V30 13206 C 1200.19 3.39984 -4.08148 0
M  V30 13207 C 1199.22 3.1183 -5.26715 0
M  V30 13208 N 1198.36 4.28546 -5.56141 0
M  V30 13209 H 1203.2 0.680931 -2.90116 0
M  V30 13210 H 1200.74 0.324657 -1.43473 0
M  V30 13211 H 1202.7 3.15501 -2.72975 0
M  V30 13212 H 1201.33 2.77157 -1.65481 0
M  V30 13213 H 1200.38 1.29915 -3.57528 0
M  V30 13214 H 1201.69 1.90808 -4.60862 0
M  V30 13215 H 1200.84 4.2475 -4.33211 0
M  V30 13216 H 1199.58 3.67856 -3.20208 0
M  V30 13217 H 1198.59 2.2546 -5.01446 0
M  V30 13218 H 1199.81 2.85278 -6.16273 0
M  V30 13219 H 1197.76 4.56447 -4.71161 0
M  V30 13220 H 1197.68 4.0703 -6.37073 0
M  V30 13221 H 1198.94 5.14305 -5.85757 0
M  V30 13222 N 1203.17 1.53854 0.341593 0
M  V30 13223 C 1204.42 1.7041 1.07905 0
M  V30 13224 C 1204.74 0.475039 1.89744 0
M  V30 13225 O 1205.94 0.521589 2.66443 0
M  V30 13226 C 1204.4 3.01342 1.96776 0
M  V30 13227 C 1204.01 4.31592 1.20135 0
M  V30 13228 C 1205.75 3.27264 2.70367 0
M  V30 13229 C 1203.66 5.53598 2.08047 0
M  V30 13230 H 1202.59 0.635005 0.406553 0
M  V30 13231 H 1205.24 1.80353 0.338409 0
M  V30 13232 H 1203.62 2.85261 2.74667 0
M  V30 13233 H 1204.79 4.58382 0.471404 0
M  V30 13234 H 1203.11 4.12298 0.583039 0
M  V30 13235 H 1205.71 4.15607 3.36415 0
M  V30 13236 H 1206.05 2.44357 3.37039 0
M  V30 13237 H 1206.58 3.4413 1.99548 0
M  V30 13238 H 1203.32 6.39053 1.45914 0
M  V30 13239 H 1202.84 5.31052 2.78825 0
M  V30 13240 H 1204.52 5.89314 2.67055 0
M  V30 13241 N 1204.65 -0.602709 1.4562 0
M  V30 13242 C 1205.88 -1.39299 1.53657 0
M  V30 13243 C 1206.3 -1.87315 0.171632 0
M  V30 13244 O 1205.66 -1.60423 -0.844639 0
M  V30 13245 C 1205.71 -2.57021 2.52928 0
M  V30 13246 O 1204.81 -3.57812 2.05047 0
M  V30 13247 H 1204.15 -0.41567 0.517798 0
M  V30 13248 H 1206.68 -0.73304 1.91018 0
M  V30 13249 H 1206.69 -3.04202 2.71892 0
M  V30 13250 H 1205.37 -2.21422 3.52058 0
M  V30 13251 H 1203.94 -3.17247 1.95981 0
M  V30 13252 N 1206.13 -1.32992 -0.845635 0
M  V30 13253 C 1207.04 -1.24701 -1.98713 0
M  V30 13254 C 1208.06 -0.158864 -1.73273 0
M  V30 13255 O 1209.23 -0.381209 -1.97759 0
M  V30 13256 C 1206.3 -0.979524 -3.32575 0
M  V30 13257 C 1205.36 -2.15701 -3.71176 0
M  V30 13258 C 1204.59 -1.90219 -4.98651 0
M  V30 13259 O 1204.81 -0.849171 -5.64044 0
M  V30 13260 O 1203.75 -2.76571 -5.34595 0
M  V30 13261 H 1207.57 -2.20683 -2.08645 0
M  V30 13262 H 1205.16 -1.12971 -0.97765 0
M  V30 13263 H 1207.04 -0.847219 -4.12796 0
M  V30 13264 H 1205.72 -0.0499398 -3.23661 0
M  V30 13265 H 1204.62 -2.34483 -2.91494 0
M  V30 13266 H 1205.96 -3.0697 -3.84747 0
M  V30 13267 N 1207.61 1.06304 -1.1635 0
M  V30 13268 C 1208.86 1.78747 -0.943074 0
M  V30 13269 C 1209.18 1.87646 0.530483 0
M  V30 13270 O 1208.45 1.38506 1.38538 0
M  V30 13271 H 1207.03 0.662072 -0.345932 0
M  V30 13272 H 1209.69 1.28413 -1.46615 0
M  V30 13273 H 1208.78 2.80828 -1.3617 0
M  V30 13274 N 1209.09 0.96196 1.24836 0
M  V30 13275 C 1210.02 0.506241 2.27946 0
M  V30 13276 C 1211 -0.451183 1.64007 0
M  V30 13277 O 1212.18 -0.348552 1.91046 0
M  V30 13278 C 1209.31 -0.209846 3.46665 0
M  V30 13279 C 1208.27 0.663035 4.22833 0
M  V30 13280 C 1207.59 -0.184216 5.34383 0
M  V30 13281 C 1208.89 1.94479 4.84742 0
M  V30 13282 H 1210.59 1.36805 2.66317 0
M  V30 13283 H 1208.13 0.65926 1.28023 0
M  V30 13284 H 1210.08 -0.539838 4.17928 0
M  V30 13285 H 1208.81 -1.10596 3.07305 0
M  V30 13286 H 1207.47 0.976216 3.53363 0
M  V30 13287 H 1207.12 -1.08031 4.91262 0
M  V30 13288 H 1206.82 0.39657 5.8626 0
M  V30 13289 H 1208.34 -0.509009 6.08475 0
M  V30 13290 H 1209.75 1.68074 5.48109 0
M  V30 13291 H 1208.15 2.47183 5.46828 0
M  V30 13292 H 1209.22 2.64332 4.06517 0
M  V30 13293 N 1210.56 -1.39601 0.731392 0
M  V30 13294 C 1211.97 -1.83424 0.348194 0
M  V30 13295 C 1212.33 -1.61106 -1.11979 0
M  V30 13296 O 1211.45 -1.1003 -1.86339 0
M  V30 13297 C 1212.05 -3.32982 0.6252 0
M  V30 13298 C 1210.6 -3.75238 0.295536 0
M  V30 13299 C 1209.75 -2.62642 0.88964 0
M  V30 13300 H 1212.7 -1.28644 0.929318 0
M  V30 13301 H 1212.72 -3.80357 -0.104254 0
M  V30 13302 H 1212.24 -3.49193 1.69368 0
M  V30 13303 H 1210.34 -3.64615 -0.767254 0
M  V30 13304 H 1210.45 -4.72781 0.775576 0
M  V30 13305 H 1208.81 -2.52726 0.316529 0
M  V30 13306 H 1209.6 -2.81661 1.96271 0
M  V30 13307 N 1212.04 -0.478751 -1.50152 0
M  V30 13308 C 1213.27 0.0710485 -2.06778 0
M  V30 13309 C 1213.69 1.32826 -1.34174 0
M  V30 13310 O 1213.04 1.77758 -0.413304 0
M  V30 13311 C 1213.09 0.351351 -3.59789 0
M  V30 13312 O 1212.81 -0.855998 -4.29656 0
M  V30 13313 C 1214.32 0.947269 -4.33061 0
M  V30 13314 H 1211.54 -0.0105032 -0.670918 0
M  V30 13315 H 1214.08 -0.669732 -1.93222 0
M  V30 13316 H 1212.23 1.04207 -3.73121 0
M  V30 13317 H 1212.65 -0.605252 -5.20996 0
M  V30 13318 H 1214.12 1.09312 -5.41068 0
M  V30 13319 H 1214.6 1.93937 -3.94062 0
M  V30 13320 H 1215.21 0.294693 -4.24278 0
M  V30 13321 N 1213.52 1.56172 -0.211661 0
M  V30 13322 C 1214.93 1.84307 0.297982 0
M  V30 13323 C 1215.28 1.1328 1.60194 0
M  V30 13324 O 1214.41 0.399137 2.12687 0
M  V30 13325 C 1215 3.34348 0.547428 0
M  V30 13326 C 1213.56 3.62835 1.0014 0
M  V30 13327 C 1212.71 2.77237 0.0590326 0
M  V30 13328 H 1215.66 1.5262 -0.435083 0
M  V30 13329 H 1215.68 3.54018 1.39469 0
M  V30 13330 H 1215.19 3.86015 -0.401778 0
M  V30 13331 H 1213.29 3.16616 1.96431 0
M  V30 13332 H 1213.41 4.70899 0.882653 0
M  V30 13333 H 1211.77 2.48377 0.564005 0
M  V30 13334 H 1212.55 3.31699 -0.884913 0
M  V30 13335 N 1215 -0.0618163 1.57479 0
M  V30 13336 C 1216.23 -0.771724 1.91969 0
M  V30 13337 C 1216.64 -1.7061 0.808549 0
M  V30 13338 O 1216 -1.812 -0.217455 0
M  V30 13339 C 1216.05 -1.55687 3.26257 0
M  V30 13340 O 1215.77 -0.660032 4.331 0
M  V30 13341 C 1217.27 -2.36688 3.74825 0
M  V30 13342 H 1214.49 -0.21885 0.634307 0
M  V30 13343 H 1217.04 -0.0291068 2.04479 0
M  V30 13344 H 1215.19 -2.25167 3.15244 0
M  V30 13345 H 1215.6 -1.20715 5.1042 0
M  V30 13346 H 1217.08 -2.8722 4.7139 0
M  V30 13347 H 1217.56 -3.1666 3.0434 0
M  V30 13348 H 1218.16 -1.72346 3.88815 0
M  V30 13349 N 1216.48 -1.54033 -0.333429 0
M  V30 13350 C 1217.42 -1.82729 -1.40992 0
M  V30 13351 C 1218.39 -0.673677 -1.51825 0
M  V30 13352 O 1219.58 -0.919126 -1.67203 0
M  V30 13353 C 1216.72 -2.05155 -2.77498 0
M  V30 13354 C 1215.83 -3.32854 -2.75376 0
M  V30 13355 C 1214.97 -3.45294 -4.03665 0
M  V30 13356 C 1214.01 -4.66905 -3.95811 0
M  V30 13357 N 1213.14 -4.76323 -5.1581 0
M  V30 13358 H 1217.98 -2.74572 -1.15821 0
M  V30 13359 H 1215.52 -1.35988 -0.560859 0
M  V30 13360 H 1217.48 -2.16148 -3.56841 0
M  V30 13361 H 1216.11 -1.16615 -3.01 0
M  V30 13362 H 1215.16 -3.30651 -1.88081 0
M  V30 13363 H 1216.47 -4.22299 -2.65453 0
M  V30 13364 H 1215.63 -3.55775 -4.91436 0
M  V30 13365 H 1214.36 -2.53924 -4.16382 0
M  V30 13366 H 1213.37 -4.56491 -3.06425 0
M  V30 13367 H 1214.59 -5.59649 -3.84668 0
M  V30 13368 H 1212.54 -3.87866 -5.29052 0
M  V30 13369 H 1212.46 -5.59719 -5.08184 0
M  V30 13370 H 1213.73 -4.91125 -6.05324 0
M  V30 13371 N 1217.95 0.594978 -1.45938 0
M  V30 13372 C 1218.89 1.71911 -1.50072 0
M  V30 13373 C 1219.87 1.58657 -0.355913 0
M  V30 13374 O 1221.05 1.80043 -0.558272 0
M  V30 13375 C 1218.18 3.09858 -1.3677 0
M  V30 13376 C 1217.22 3.41667 -2.55277 0
M  V30 13377 S 1218.06 3.35101 -4.17693 0
M  V30 13378 C 1219.21 4.75606 -4.06878 0
M  V30 13379 H 1219.44 1.68143 -2.45184 0
M  V30 13380 H 1216.98 0.772698 -1.33674 0
M  V30 13381 H 1218.94 3.89444 -1.29782 0
M  V30 13382 H 1217.6 3.11128 -0.431073 0
M  V30 13383 H 1216.79 4.42138 -2.41929 0
M  V30 13384 H 1216.39 2.69622 -2.59191 0
M  V30 13385 H 1218.68 5.65708 -3.72801 0
M  V30 13386 H 1219.63 4.9401 -5.07306 0
M  V30 13387 H 1220.03 4.5188 -3.38327 0
M  V30 13388 N 1219.43 1.33438 0.838571 0
M  V30 13389 C 1220.66 1.27951 1.62592 0
M  V30 13390 C 1221.08 -0.149502 1.88207 0
M  V30 13391 O 1220.43 -1.09174 1.46244 0
M  V30 13392 C 1220.48 2.0523 2.97595 0
M  V30 13393 O 1220.2 3.42557 2.73105 0
M  V30 13394 C 1221.71 2.06957 3.92025 0
M  V30 13395 H 1218.93 0.440796 0.505905 0
M  V30 13396 H 1221.47 1.75814 1.0445 0
M  V30 13397 H 1219.62 1.61049 3.52338 0
M  V30 13398 H 1220.04 3.82314 3.59076 0
M  V30 13399 H 1221.51 2.65481 4.83967 0
M  V30 13400 H 1221.99 1.0599 4.26219 0
M  V30 13401 H 1222.6 2.51158 3.4322 0
M  V30 13402 N 1220.91 -1.05686 1.16912 0
M  V30 13403 C 1222.32 -1.60059 0.961153 0
M  V30 13404 C 1222.67 -1.89894 -0.493409 0
M  V30 13405 O 1221.8 -1.67692 -1.36778 0
M  V30 13406 C 1222.39 -2.90803 1.73837 0
M  V30 13407 C 1220.95 -3.41854 1.57522 0
M  V30 13408 C 1220.1 -2.15658 1.74319 0
M  V30 13409 H 1223.05 -0.885592 1.31693 0
M  V30 13410 H 1223.07 -3.60485 1.21781 0
M  V30 13411 H 1222.58 -2.69056 2.79697 0
M  V30 13412 H 1220.68 -3.68647 0.541284 0
M  V30 13413 H 1220.8 -4.16771 2.36302 0
M  V30 13414 H 1219.16 -2.26177 1.17115 0
M  V30 13415 H 1219.94 -1.96386 2.8158 0
M  V30 13416 N 1222.39 -0.968567 -1.24324 0
M  V30 13417 C 1223.8 -0.675239 -1.44612 0
M  V30 13418 C 1224 0.762641 -1.8651 0
M  V30 13419 O 1223.06 1.53644 -2.00374 0
M  V30 13420 C 1224.37 -1.66007 -2.50723 0
M  V30 13421 C 1225.92 -1.6728 -2.6455 0
M  V30 13422 C 1226.4 -2.64563 -3.73859 0
M  V30 13423 N 1227.89 -2.6301 -3.81287 0
M  V30 13424 C 1228.62 -3.34957 -4.65394 0
M  V30 13425 N 1228.12 -4.16424 -5.53681 0
M  V30 13426 N 1229.91 -3.23778 -4.59483 0
M  V30 13427 H 1222.06 -1.89757 -0.954257 0
M  V30 13428 H 1224.33 -0.817004 -0.480841 0
M  V30 13429 H 1224.03 -2.68779 -2.26827 0
M  V30 13430 H 1223.91 -1.43353 -3.48898 0
M  V30 13431 H 1226.29 -0.652184 -2.87803 0
M  V30 13432 H 1226.37 -1.93997 -1.6673 0
M  V30 13433 H 1226.02 -3.66759 -3.51355 0
M  V30 13434 H 1225.95 -2.35124 -4.71194 0
M  V30 13435 H 1228.44 -2.03877 -3.18186 0
M  V30 13436 H 1228.75 -4.68207 -6.14818 0
M  V30 13437 H 1227.1 -4.20518 -5.53344 0
M  V30 13438 H 1230.29 -2.59594 -3.89524 0
M  V30 13439 H 1230.46 -3.80112 -5.24804 0
M  V30 13440 N 1223.87 1.39211 -0.738786 0
M  V30 13441 C 1225.09 2.05256 -0.297421 0
M  V30 13442 C 1225.52 1.55341 1.06069 0
M  V30 13443 O 1224.87 0.698823 1.67291 0
M  V30 13444 C 1224.92 3.59239 -0.312969 0
M  V30 13445 O 1224.03 4.06448 0.698112 0
M  V30 13446 H 1223.37 0.650245 -0.134454 0
M  V30 13447 H 1225.9 1.78173 -1.00577 0
M  V30 13448 H 1225.91 4.07691 -0.158675 0
M  V30 13449 H 1224.58 3.94931 -1.30394 0
M  V30 13450 H 1223.16 3.69401 0.509643 0
M  V30 13451 N 1225.34 0.486708 1.49896 0
M  V30 13452 C 1226.76 0.141788 1.58969 0
M  V30 13453 C 1226.96 -1.35279 1.49338 0
M  V30 13454 O 1226.02 -2.1275 1.35992 0
M  V30 13455 C 1227.33 0.70588 2.92297 0
M  V30 13456 C 1228.88 0.670704 3.0573 0
M  V30 13457 C 1229.35 1.21261 4.41656 0
M  V30 13458 N 1230.84 1.17269 4.4811 0
M  V30 13459 C 1231.58 1.56233 5.51705 0
M  V30 13460 N 1231.07 2.02721 6.62477 0
M  V30 13461 N 1232.87 1.47738 5.42337 0
M  V30 13462 H 1225.02 1.45858 1.544 0
M  V30 13463 H 1227.28 0.604137 0.730563 0
M  V30 13464 H 1226.99 1.7535 3.04869 0
M  V30 13465 H 1226.86 0.158215 3.76868 0
M  V30 13466 H 1229.25 -0.368041 2.92796 0
M  V30 13467 H 1229.33 1.25535 2.22878 0
M  V30 13468 H 1228.97 2.25006 4.5534 0
M  V30 13469 H 1228.9 0.604031 5.23124 0
M  V30 13470 H 1231.39 0.831905 3.6863 0
M  V30 13471 H 1231.71 2.3056 7.37606 0
M  V30 13472 H 1230.05 2.06686 6.63556 0
M  V30 13473 H 1233.24 1.11249 4.54688 0
M  V30 13474 H 1233.42 1.78429 6.2295 0
M  V30 13475 N 1226.82 -1.56058 0.219941 0
M  V30 13476 C 1228.07 -1.97436 -0.412543 0
M  V30 13477 C 1228.39 -1.11058 -1.61014 0
M  V30 13478 O 1229.59 -1.42328 -2.31203 0
M  V30 13479 C 1228.05 -3.51227 -0.785362 0
M  V30 13480 C 1227.66 -4.46305 0.389328 0
M  V30 13481 C 1229.4 -4.01321 -1.38354 0
M  V30 13482 C 1227.31 -5.914 -0.00583531 0
M  V30 13483 H 1226.24 -0.73728 -0.157906 0
M  V30 13484 H 1228.89 -1.8076 0.315898 0
M  V30 13485 H 1227.27 -3.63497 -1.57118 0
M  V30 13486 H 1228.44 -4.45781 1.16686 0
M  V30 13487 H 1226.76 -4.06543 0.900633 0
M  V30 13488 H 1229.36 -5.07221 -1.69207 0
M  V30 13489 H 1229.7 -3.47077 -2.29876 0
M  V30 13490 H 1230.23 -3.92267 -0.66119 0
M  V30 13491 H 1226.97 -6.49623 0.87583 0
M  V30 13492 H 1226.49 -5.95121 -0.74772 0
M  V30 13493 H 1228.17 -6.45549 -0.43308 0
M  V30 13494 N 1228.3 0.053464 -1.57509 0
M  V30 13495 C 1229.23 1.06151 -2.07977 0
M  V30 13496 C 1230.21 1.3924 -0.977047 0
M  V30 13497 O 1231.4 1.48549 -1.25087 0
M  V30 13498 C 1228.53 2.36969 -2.53895 0
M  V30 13499 C 1227.48 2.18186 -3.6821 0
M  V30 13500 C 1226.81 3.54551 -4.00247 0
M  V30 13501 C 1228.11 1.588 -4.97574 0
M  V30 13502 H 1229.8 0.641483 -2.92447 0
M  V30 13503 H 1227.35 0.307122 -1.40687 0
M  V30 13504 H 1229.3 3.07797 -2.87817 0
M  V30 13505 H 1228.02 2.80986 -1.66476 0
M  V30 13506 H 1226.68 1.49796 -3.34599 0
M  V30 13507 H 1226.33 3.96171 -3.09932 0
M  V30 13508 H 1226.03 3.42816 -4.77232 0
M  V30 13509 H 1227.56 4.2678 -4.36682 0
M  V30 13510 H 1228.97 2.19515 -5.29609 0
M  V30 13511 H 1227.37 1.57711 -5.79006 0
M  V30 13512 H 1228.44 0.551254 -4.81756 0
M  V30 13513 N 1229.78 1.54207 0.325255 0
M  V30 13514 C 1231.03 1.72587 1.06497 0
M  V30 13515 C 1231.36 0.497228 1.87727 0
M  V30 13516 O 1230.63 -0.505804 1.87808 0
M  V30 13517 C 1230.92 3.00046 1.99109 0
M  V30 13518 C 1230.77 4.33158 1.21221 0
M  V30 13519 C 1232.09 3.23251 2.98658 0
M  V30 13520 H 1229.21 0.627974 0.38577 0
M  V30 13521 H 1231.85 1.869 0.34179 0
M  V30 13522 H 1230 2.87973 2.60775 0
M  V30 13523 H 1231.67 4.57111 0.620289 0
M  V30 13524 H 1229.91 4.30739 0.514462 0
M  V30 13525 H 1230.59 5.18558 1.89214 0
M  V30 13526 H 1233.06 3.34774 2.47114 0
M  V30 13527 H 1231.94 4.13796 3.60645 0
M  V30 13528 H 1232.2 2.40401 3.71026 0
M  V30 13529 N 1231.26 -0.58723 1.46251 0
M  V30 13530 C 1232.48 -1.37661 1.55126 0
M  V30 13531 C 1232.91 -1.87123 0.191489 0
M  V30 13532 O 1232.27 -1.6131 -0.827576 0
M  V30 13533 C 1232.31 -2.54324 2.5564 0
M  V30 13534 O 1231.42 -3.55617 2.0883 0
M  V30 13535 H 1230.76 -0.410154 0.522178 0
M  V30 13536 H 1233.29 -0.712738 1.91784 0
M  V30 13537 H 1233.3 -3.01301 2.75103 0
M  V30 13538 H 1231.97 -2.17675 3.54387 0
M  V30 13539 H 1230.55 -3.15151 1.99335 0
M  V30 13540 N 1232.74 -1.33881 -0.831482 0
M  V30 13541 C 1233.98 -1.251 -1.58218 0
M  V30 13542 C 1234.3 0.17963 -1.94773 0
M  V30 13543 O 1235.5 0.389516 -2.68691 0
M  V30 13544 C 1233.96 -2.19246 -2.8541 0
M  V30 13545 C 1233.57 -3.6752 -2.5619 0
M  V30 13546 C 1235.31 -2.19355 -3.63433 0
M  V30 13547 C 1233.22 -4.53559 -3.79523 0
M  V30 13548 H 1232.15 -0.46469 -0.593784 0
M  V30 13549 H 1234.8 -1.58992 -0.916169 0
M  V30 13550 H 1233.18 -1.78295 -3.53591 0
M  V30 13551 H 1234.36 -4.16956 -1.96173 0
M  V30 13552 H 1232.67 -3.69774 -1.91458 0
M  V30 13553 H 1235.27 -2.80863 -4.54995 0
M  V30 13554 H 1235.61 -1.19056 -3.98913 0
M  V30 13555 H 1236.14 -2.58706 -3.02185 0
M  V30 13556 H 1232.88 -5.54762 -3.4917 0
M  V30 13557 H 1232.4 -4.08862 -4.38853 0
M  V30 13558 H 1234.08 -4.67736 -4.47025 0
M  V30 13559 N 1234.21 1.05064 -1.1747 0
M  V30 13560 C 1235.46 1.77737 -0.961979 0
M  V30 13561 C 1235.78 1.88198 0.510551 0
M  V30 13562 O 1235.05 1.39968 1.37062 0
M  V30 13563 H 1233.63 0.658366 -0.352935 0
M  V30 13564 H 1236.29 1.26851 -1.47969 0
M  V30 13565 H 1235.39 2.79368 -1.39141 0
M  V30 13566 N 1235.69 0.975146 1.23809 0
M  V30 13567 C 1236.6 0.51917 2.28783 0
M  V30 13568 C 1237.62 -0.423487 1.68768 0
M  V30 13569 O 1238.79 -0.294699 1.99232 0
M  V30 13570 C 1235.86 -0.176229 3.46252 0
M  V30 13571 C 1234.92 0.807177 4.21643 0
M  V30 13572 C 1234.15 0.144869 5.33503 0
M  V30 13573 O 1234.38 -1.06522 5.60365 0
M  V30 13574 O 1233.31 0.84079 5.95999 0
M  V30 13575 H 1237.14 1.39204 2.69919 0
M  V30 13576 H 1234.72 0.74253 1.29641 0
M  V30 13577 H 1236.6 -0.566547 4.17574 0
M  V30 13578 H 1235.28 -1.02394 3.07078 0
M  V30 13579 H 1234.18 1.2481 3.52666 0
M  V30 13580 H 1235.52 1.62354 4.64653 0
M  V30 13581 N 1237.17 -1.38817 0.746158 0
M  V30 13582 C 1238.39 -2.05096 0.308302 0
M  V30 13583 C 1238.82 -1.55902 -1.05244 0
M  V30 13584 O 1238.18 -0.707685 -1.66918 0
M  V30 13585 C 1238.23 -3.59068 0.332016 0
M  V30 13586 O 1237.33 -4.06813 -0.676547 0
M  V30 13587 H 1236.67 -0.649523 0.1379 0
M  V30 13588 H 1239.2 -1.77637 1.0152 0
M  V30 13589 H 1239.21 -4.07601 0.180293 0
M  V30 13590 H 1237.89 -3.94234 1.32487 0
M  V30 13591 H 1236.46 -3.69666 -0.490046 0
M  V30 13592 N 1238.65 -0.49465 -1.49636 0
M  V30 13593 C 1239.89 0.0521172 -2.02433 0
M  V30 13594 C 1240.22 1.37579 -1.37485 0
M  V30 13595 O 1239.48 1.8927 -0.497538 0
M  V30 13596 C 1239.78 0.259743 -3.56455 0
M  V30 13597 C 1239.44 -0.985143 -4.40007 0
M  V30 13598 C 1238.1 -1.3264 -4.62558 0
M  V30 13599 C 1240.46 -1.81291 -4.88654 0
M  V30 13600 C 1237.78 -2.49506 -5.31003 0
M  V30 13601 C 1240.14 -2.97305 -5.58384 0
M  V30 13602 C 1238.8 -3.31818 -5.79183 0
M  V30 13603 H 1238.07 0.0190711 -0.740755 0
M  V30 13604 H 1240.72 -0.653519 -1.80004 0
M  V30 13605 H 1239.02 1.04785 -3.77528 0
M  V30 13606 H 1240.72 0.697146 -3.94893 0
M  V30 13607 H 1237.31 -0.709313 -4.2269 0
M  V30 13608 H 1241.49 -1.56242 -4.71065 0
M  V30 13609 H 1236.75 -2.76491 -5.4531 0
M  V30 13610 H 1240.92 -3.61777 -5.95055 0
M  V30 13611 H 1238.55 -4.22478 -6.31994 0
M  V30 13612 N 1240.13 1.55939 -0.228214 0
M  V30 13613 C 1241.37 1.98084 0.400884 0
M  V30 13614 C 1241.69 1.11727 1.59819 0
M  V30 13615 O 1240.96 0.195794 1.94919 0
M  V30 13616 H 1239.54 0.731558 0.151102 0
M  V30 13617 H 1242.21 1.92211 -0.322659 0
M  V30 13618 H 1241.3 3.03617 0.722706 0
M  V30 13619 N 1241.6 -0.0451101 1.57535 0
M  V30 13620 C 1242.83 -0.75132 1.92777 0
M  V30 13621 C 1243.25 -1.69743 0.826599 0
M  V30 13622 O 1242.6 -1.8142 -0.198224 0
M  V30 13623 C 1242.66 -1.52218 3.2789 0
M  V30 13624 O 1242.38 -0.614059 4.33775 0
M  V30 13625 C 1243.88 -2.32699 3.77314 0
M  V30 13626 H 1241.1 -0.21211 0.636593 0
M  V30 13627 H 1243.64 -0.0074174 2.04499 0
M  V30 13628 H 1241.8 -2.2181 3.17614 0
M  V30 13629 H 1242.21 -1.15294 5.11671 0
M  V30 13630 H 1243.68 -2.82205 4.7441 0
M  V30 13631 H 1244.16 -3.13414 3.07682 0
M  V30 13632 H 1244.77 -1.68212 3.90621 0
M  V30 13633 N 1243.08 -1.54377 -0.317073 0
M  V30 13634 C 1244.31 -1.77184 -1.07798 0
M  V30 13635 C 1244.73 -0.52204 -1.80711 0
M  V30 13636 O 1244.09 0.52672 -1.7348 0
M  V30 13637 C 1244.14 -2.96887 -2.04671 0
M  V30 13638 O 1243.24 -2.68887 -3.12688 0
M  V30 13639 H 1242.58 -0.586937 -0.310485 0
M  V30 13640 H 1245.11 -2.01419 -0.35939 0
M  V30 13641 H 1245.12 -3.24414 -2.47426 0
M  V30 13642 H 1243.8 -3.87518 -1.51005 0
M  V30 13643 H 1242.38 -2.52329 -2.74562 0
M  V30 13644 N 1244.56 0.579466 -1.4656 0
M  V30 13645 C 1245.47 1.71609 -1.59961 0
M  V30 13646 C 1246.49 1.67162 -0.483002 0
M  V30 13647 O 1247.66 1.87012 -0.747561 0
M  V30 13648 C 1244.73 3.08114 -1.58954 0
M  V30 13649 C 1243.79 3.238 -2.81872 0
M  V30 13650 C 1243.02 4.53794 -2.80904 0
M  V30 13651 O 1243.24 5.37884 -1.89835 0
M  V30 13652 O 1242.18 4.72796 -3.72488 0
M  V30 13653 H 1246 1.6325 -2.56092 0
M  V30 13654 H 1243.59 0.746891 -1.2939 0
M  V30 13655 H 1245.47 3.8939 -1.611 0
M  V30 13656 H 1244.15 3.16903 -0.65984 0
M  V30 13657 H 1243.05 2.42006 -2.85279 0
M  V30 13658 H 1244.39 3.19904 -3.74062 0
M  V30 13659 N 1246.04 1.3432 0.824371 0
M  V30 13660 C 1246.99 1.25776 1.93517 0
M  V30 13661 C 1247.96 0.133298 1.65564 0
M  V30 13662 O 1249.14 0.31403 1.88198 0
M  V30 13663 C 1246.28 1.01766 3.29754 0
M  V30 13664 C 1245.39 2.22973 3.7001 0
M  V30 13665 C 1244.53 1.92258 4.95187 0
M  V30 13666 C 1243.57 3.09616 5.2802 0
M  V30 13667 N 1242.7 2.78793 6.44375 0
M  V30 13668 H 1247.54 2.20774 2.00157 0
M  V30 13669 H 1245.08 1.09766 0.979274 0
M  V30 13670 H 1247.04 0.858831 4.08265 0
M  V30 13671 H 1245.67 0.10437 3.22631 0
M  V30 13672 H 1244.72 2.49781 2.86903 0
M  V30 13673 H 1246.03 3.10661 3.90245 0
M  V30 13674 H 1245.19 1.73102 5.81481 0
M  V30 13675 H 1243.93 1.01827 4.76951 0
M  V30 13676 H 1242.93 3.29368 4.40223 0
M  V30 13677 H 1244.16 4.00822 5.48196 0
M  V30 13678 H 1242.1 1.90938 6.27598 0
M  V30 13679 H 1242.02 3.60014 6.64775 0
M  V30 13680 H 1243.29 2.63139 7.33743 0
M  V30 13681 N 1247.52 -1.0444 1.18026 0
M  V30 13682 C 1248.76 -1.77575 0.973314 0
M  V30 13683 C 1249.09 -1.88032 -0.4974 0
M  V30 13684 O 1248.35 -1.38214 -1.38548 0
M  V30 13685 C 1248.65 -3.21134 1.56869 0
M  V30 13686 C 1248.31 -3.30718 3.0649 0
M  V30 13687 C 1246.97 -3.33041 3.47328 0
M  V30 13688 C 1249.33 -3.3112 4.02503 0
M  V30 13689 C 1246.65 -3.33404 4.82762 0
M  V30 13690 C 1249.01 -3.33023 5.37846 0
M  V30 13691 C 1247.67 -3.33636 5.78138 0
M  V30 13692 H 1246.94 -0.649793 0.356161 0
M  V30 13693 H 1249.59 -1.22693 1.47033 0
M  V30 13694 H 1247.89 -3.78992 0.993584 0
M  V30 13695 H 1249.59 -3.76358 1.38404 0
M  V30 13696 H 1246.18 -3.29628 2.7394 0
M  V30 13697 H 1250.36 -3.2852 3.72006 0
M  V30 13698 H 1245.62 -3.32194 5.13281 0
M  V30 13699 H 1249.79 -3.32283 6.12014 0
M  V30 13700 H 1247.42 -3.33671 6.83058 0
M  V30 13701 N 1248.99 -0.981699 -1.2329 0
M  V30 13702 C 1249.93 -0.481042 -2.24095 0
M  V30 13703 C 1250.94 0.417818 -1.57347 0
M  V30 13704 O 1252.13 0.221746 -1.77117 0
M  V30 13705 C 1249.23 0.323324 -3.37354 0
M  V30 13706 C 1248.4 -0.568975 -4.33684 0
M  V30 13707 C 1247.46 0.181761 -5.25886 0
M  V30 13708 O 1246.49 -0.429059 -5.67581 0
M  V30 13709 N 1247.69 1.46737 -5.61648 0
M  V30 13710 H 1250.45 -1.34781 -2.67683 0
M  V30 13711 H 1248.01 -0.855117 -1.37475 0
M  V30 13712 H 1250.01 0.833934 -3.96015 0
M  V30 13713 H 1248.58 1.09111 -2.9294 0
M  V30 13714 H 1247.8 -1.2604 -3.73507 0
M  V30 13715 H 1249.08 -1.17704 -4.94998 0
M  V30 13716 H 1248.48 1.98513 -5.29725 0
M  V30 13717 H 1247.04 1.92339 -6.22775 0
M  V30 13718 N 1250.47 1.3842 -0.753509 0
M  V30 13719 C 1251.42 2.30457 -0.12574 0
M  V30 13720 C 1252.39 1.50173 0.709728 0
M  V30 13721 O 1253.57 1.78804 0.665872 0
M  V30 13722 C 1250.71 3.36593 0.761503 0
M  V30 13723 C 1249.83 4.31909 -0.0885848 0
M  V30 13724 C 1248.96 5.25116 0.801655 0
M  V30 13725 C 1248 6.12078 -0.0520719 0
M  V30 13726 N 1247.14 6.97583 0.795124 0
M  V30 13727 H 1251.98 2.83567 -0.916187 0
M  V30 13728 H 1249.52 1.39609 -0.463436 0
M  V30 13729 H 1251.47 3.96738 1.29054 0
M  V30 13730 H 1250.1 2.84894 1.51774 0
M  V30 13731 H 1249.16 3.73227 -0.735249 0
M  V30 13732 H 1250.47 4.93161 -0.747899 0
M  V30 13733 H 1249.62 5.90377 1.39786 0
M  V30 13734 H 1248.36 4.6423 1.4947 0
M  V30 13735 H 1247.37 5.45813 -0.660946 0
M  V30 13736 H 1248.59 6.75032 -0.742178 0
M  V30 13737 H 1246.54 6.39246 1.47312 0
M  V30 13738 H 1246.45 7.55754 0.192705 0
M  V30 13739 H 1247.72 7.67254 1.3763 0
M  V30 13740 N 1251.95 0.502579 1.49372 0
M  V30 13741 C 1253.2 -0.0432341 2.01654 0
M  V30 13742 C 1253.51 -1.379 1.38719 0
M  V30 13743 O 1254.72 -2.01159 1.82338 0
M  V30 13744 C 1253.17 -0.127509 3.59674 0
M  V30 13745 C 1252.78 1.20171 4.31582 0
M  V30 13746 C 1254.53 -0.623603 4.19895 0
M  V30 13747 C 1252.43 1.07951 5.81464 0
M  V30 13748 H 1251.36 -0.0199308 0.753737 0
M  V30 13749 H 1254.01 0.642237 1.71894 0
M  V30 13750 H 1252.4 -0.877465 3.86156 0
M  V30 13751 H 1253.57 1.96508 4.16799 0
M  V30 13752 H 1251.89 1.63136 3.83113 0
M  V30 13753 H 1254.48 -0.732562 5.29658 0
M  V30 13754 H 1254.83 -1.62282 3.83367 0
M  V30 13755 H 1255.36 0.0698641 3.97739 0
M  V30 13756 H 1252.1 2.05304 6.22519 0
M  V30 13757 H 1251.62 0.357051 5.98736 0
M  V30 13758 H 1253.3 0.758885 6.42534 0
M  V30 13759 N 1253.43 -1.55816 0.23648 0
M  V30 13760 C 1254.38 -2.22322 -0.68378 0
M  V30 13761 C 1255.37 -1.2074 -1.1882 0
M  V30 13762 O 1256.58 -1.38781 -1.14629 0
M  V30 13763 H 1252.95 -0.713021 -0.238966 0
M  V30 13764 H 1254.92 -2.98234 -0.0995879 0
M  V30 13765 C 1253.67 -2.92845 -1.87449 0
M  V30 13766 H 1252.99 -3.70777 -1.49548 0
M  V30 13767 H 1254.43 -3.42758 -2.49585 0
M  V30 13768 C 1252.89 -1.96139 -2.73918 0
M  V30 13769 O 1253.42 -1.48781 -3.73132 0
M  V30 13770 N 1251.63 -1.63465 -2.40266 0
M  V30 13771 H 1251.18 -2.02171 -1.59639 0
M  V30 13772 H 1251.13 -0.990239 -2.98398 0
M  V30 13773 N 1254.91 0.036755 -1.57557 0
M  V30 13774 C 1255.84 1.06718 -2.0284 0
M  V30 13775 C 1256.85 1.32926 -0.939917 0
M  V30 13776 O 1258.04 1.30549 -1.21734 0
M  V30 13777 C 1255.14 2.41054 -2.38214 0
M  V30 13778 C 1254.31 2.3431 -3.69347 0
M  V30 13779 C 1253.37 3.51034 -3.91997 0
M  V30 13780 O 1252.4 3.30875 -4.63152 0
M  V30 13781 N 1253.6 4.72634 -3.37042 0
M  V30 13782 H 1256.37 0.681275 -2.91854 0
M  V30 13783 H 1253.93 0.224836 -1.60331 0
M  V30 13784 H 1255.92 3.17847 -2.5051 0
M  V30 13785 H 1254.49 2.71517 -1.5491 0
M  V30 13786 H 1253.71 1.42668 -3.67477 0
M  V30 13787 H 1255 2.2694 -4.55385 0
M  V30 13788 H 1254.39 4.91914 -2.79352 0
M  V30 13789 H 1252.95 5.46818 -3.5473 0
M  V30 13790 N 1256.39 1.54543 0.308881 0
M  V30 13791 C 1257.32 1.79818 1.40502 0
M  V30 13792 C 1258.3 0.648927 1.4909 0
M  V30 13793 O 1259.48 0.888009 1.66273 0
M  V30 13794 C 1256.61 1.92787 2.7848 0
M  V30 13795 C 1255.65 3.15167 2.87353 0
M  V30 13796 S 1256.49 4.73427 2.50255 0
M  V30 13797 C 1257.64 4.89321 3.90276 0
M  V30 13798 H 1257.88 2.7251 1.18852 0
M  V30 13799 H 1255.41 1.45854 0.506551 0
M  V30 13800 H 1257.37 2.00944 3.57955 0
M  V30 13801 H 1256.03 1.01047 2.97403 0
M  V30 13802 H 1255.22 3.2102 3.88538 0
M  V30 13803 H 1254.82 3.05416 2.15864 0
M  V30 13804 H 1257.11 4.7286 4.8519 0
M  V30 13805 H 1258.06 5.91418 3.89398 0
M  V30 13806 H 1258.47 4.17524 3.79913 0
M  V30 13807 N 1257.86 -0.571685 1.46866 0
M  V30 13808 C 1259.11 -1.33145 1.52972 0
M  V30 13809 C 1259.44 -1.93314 0.185344 0
M  V30 13810 O 1258.72 -1.77083 -0.80447 0
M  V30 13811 C 1259 -2.4525 2.63675 0
M  V30 13812 C 1258.85 -1.90044 4.0768 0
M  V30 13813 C 1260.17 -3.47247 2.70384 0
M  V30 13814 H 1257.29 -0.482751 0.556885 0
M  V30 13815 H 1259.93 -0.641163 1.78855 0
M  V30 13816 H 1258.08 -3.04132 2.41735 0
M  V30 13817 H 1259.76 -1.35535 4.4094 0
M  V30 13818 H 1258 -1.20805 4.1664 0
M  V30 13819 H 1258.67 -2.71019 4.80887 0
M  V30 13820 H 1261.15 -2.98263 2.90135 0
M  V30 13821 H 1260.02 -4.23132 3.49643 0
M  V30 13822 H 1260.28 -4.05179 1.76868 0
M  V30 13823 N 1259.34 -1.34755 -0.817236 0
M  V30 13824 C 1260.58 -1.28786 -1.58725 0
M  V30 13825 C 1260.95 0.138807 -1.91498 0
M  V30 13826 O 1262.15 0.322743 -2.66855 0
M  V30 13827 C 1260.42 -2.15907 -2.84814 0
M  V30 13828 S 1261.98 -2.27347 -3.75311 0
M  V30 13829 H 1258.79 -0.457844 -0.543967 0
M  V30 13830 H 1261.4 -1.70031 -0.96487 0
M  V30 13831 H 1260.1 -3.18559 -2.58744 0
M  V30 13832 H 1259.63 -1.7558 -3.52044 0
M  V30 13833 H 1261.65 -1.45044 -4.74528 0
M  V30 13834 N 1260.82 1.03812 -1.18578 0
M  V30 13835 C 1261.77 2.13994 -0.911563 0
M  V30 13836 C 1262.76 1.68907 0.129131 0
M  V30 13837 O 1263.97 1.7999 -0.0192557 0
M  V30 13838 H 1260.34 0.698996 -0.277324 0
M  V30 13839 H 1262.31 2.34318 -1.84763 0
M  V30 13840 C 1261.06 3.44689 -0.456591 0
M  V30 13841 H 1260.39 3.79793 -1.2489 0
M  V30 13842 H 1261.83 4.22911 -0.303738 0
M  V30 13843 C 1260.28 3.26568 0.827961 0
M  V30 13844 O 1260.81 3.54376 1.89158 0
M  V30 13845 N 1259.02 2.79893 0.781567 0
M  V30 13846 H 1258.57 2.57462 -0.0842145 0
M  V30 13847 H 1258.53 2.68148 1.64146 0
M  V30 13848 N 1262.3 0.988223 1.22768 0
M  V30 13849 C 1263.52 0.679426 1.95955 0
M  V30 13850 C 1263.95 -0.748483 1.72567 0
M  V30 13851 O 1263.31 -1.51097 1.00197 0
M  V30 13852 C 1263.35 0.985284 3.46878 0
M  V30 13853 O 1262.46 0.0814607 4.1232 0
M  V30 13854 H 1261.8 0.254749 0.613188 0
M  V30 13855 H 1264.33 1.32393 1.55991 0
M  V30 13856 H 1264.34 0.925198 3.97371 0
M  V30 13857 H 1263.01 2.02581 3.63227 0
M  V30 13858 H 1261.59 0.196629 3.72381 0
M  V30 13859 N 1263.78 -1.38018 0.760839 0
M  V30 13860 C 1265.05 -1.94054 0.245437 0
M  V30 13861 C 1265.43 -1.6955 -1.25761 0
M  V30 13862 O 1264.78 -1.03812 -2.03557 0
M  V30 13863 C 1264.99 -3.43681 0.606986 0
M  V30 13864 C 1266.34 -4.20748 0.570673 0
M  V30 13865 O 1267.36 -3.51995 0.545715 0
M  V30 13866 O 1266.22 -5.43327 0.588043 0
M  V30 13867 H 1263.32 -0.825264 0.0535607 0
M  V30 13868 H 1265.86 -1.47369 0.841453 0
M  V30 13869 H 1264.63 -3.55054 1.64476 0
M  V30 13870 H 1264.26 -3.97597 -0.0166576 0
M  V30 13871 N 1265.25 -0.510493 -1.49103 0
M  V30 13872 C 1266.67 -0.167061 -1.58723 0
M  V30 13873 C 1266.87 1.32886 -1.51471 0
M  V30 13874 O 1265.93 2.10559 -1.39359 0
M  V30 13875 C 1267.24 -0.752293 -2.91137 0
M  V30 13876 C 1268.79 -0.719258 -3.04624 0
M  V30 13877 C 1269.26 -1.28272 -4.39671 0
M  V30 13878 N 1270.75 -1.24383 -4.46187 0
M  V30 13879 C 1271.49 -1.6499 -5.4915 0
M  V30 13880 N 1270.98 -2.13235 -6.59168 0
M  V30 13881 N 1272.78 -1.56348 -5.39918 0
M  V30 13882 H 1264.93 -1.48296 -1.5206 0
M  V30 13883 H 1267.19 -0.615683 -0.72086 0
M  V30 13884 H 1266.9 -1.80178 -3.02041 0
M  V30 13885 H 1266.77 -0.218152 -3.76569 0
M  V30 13886 H 1269.16 0.321413 -2.93344 0
M  V30 13887 H 1269.24 -1.29065 -2.20852 0
M  V30 13888 H 1268.88 -2.32222 -4.51703 0
M  V30 13889 H 1268.81 -0.687179 -5.22097 0
M  V30 13890 H 1271.3 -0.890446 -3.67259 0
M  V30 13891 H 1271.62 -2.42266 -7.33844 0
M  V30 13892 H 1269.96 -2.17216 -6.60183 0
M  V30 13893 H 1273.15 -1.18469 -4.52861 0
M  V30 13894 H 1273.33 -1.88317 -6.20033 0
M  V30 13895 N 1266.73 1.55688 -0.24474 0
M  V30 13896 C 1267.98 1.99186 0.381167 0
M  V30 13897 C 1268.31 1.13266 1.57748 0
M  V30 13898 O 1267.59 0.195568 1.93514 0
M  V30 13899 C 1267.87 3.51257 0.793142 0
M  V30 13900 C 1267.72 4.47942 -0.408409 0
M  V30 13901 C 1269.04 4.08365 1.64091 0
M  V30 13902 H 1266.16 0.724141 0.137073 0
M  V30 13903 H 1268.8 1.8683 -0.345619 0
M  V30 13904 H 1266.95 3.61917 1.4124 0
M  V30 13905 H 1268.62 4.49265 -1.04682 0
M  V30 13906 H 1266.87 4.20854 -1.05189 0
M  V30 13907 H 1267.54 5.51946 -0.0768531 0
M  V30 13908 H 1270.01 4.00794 1.1182 0
M  V30 13909 H 1268.89 5.1504 1.89802 0
M  V30 13910 H 1269.15 3.56687 2.61202 0
M  V30 13911 N 1268.21 -0.0283989 1.57574 0
M  V30 13912 C 1269.14 -1.02828 2.09639 0
M  V30 13913 C 1270.12 -1.37668 0.999076 0
M  V30 13914 O 1271.31 -1.4654 1.27435 0
M  V30 13915 C 1268.44 -2.329 2.57633 0
M  V30 13916 C 1267.39 -2.12301 3.71635 0
M  V30 13917 C 1266.72 -3.48138 4.05837 0
M  V30 13918 C 1268.02 -1.50864 5.00037 0
M  V30 13919 H 1269.71 -0.594876 2.93431 0
M  V30 13920 H 1267.26 -0.284701 1.41158 0
M  V30 13921 H 1269.21 -3.03179 2.92678 0
M  V30 13922 H 1267.93 -2.78302 1.70926 0
M  V30 13923 H 1266.59 -1.44454 3.3694 0
M  V30 13924 H 1266.24 -3.9119 3.16195 0
M  V30 13925 H 1265.94 -3.3518 4.82626 0
M  V30 13926 H 1267.46 -4.19779 4.43417 0
M  V30 13927 H 1268.88 -2.11062 5.33035 0
M  V30 13928 H 1267.27 -1.48479 5.81441 0
M  V30 13929 H 1268.34 -0.474541 4.82572 0
M  V30 13930 N 1269.69 -1.54705 -0.300681 0
M  V30 13931 C 1270.63 -1.85678 -1.37084 0
M  V30 13932 C 1271.6 -0.70573 -1.50362 0
M  V30 13933 O 1272.79 -0.954385 -1.65215 0
M  V30 13934 C 1269.93 -2.10995 -2.73084 0
M  V30 13935 C 1269.04 -3.38621 -2.68254 0
M  V30 13936 C 1268.18 -3.53779 -3.9625 0
M  V30 13937 C 1267.22 -4.75195 -3.85818 0
M  V30 13938 N 1266.35 -4.87157 -5.05591 0
M  V30 13939 H 1271.19 -2.76967 -1.09971 0
M  V30 13940 H 1268.73 -1.37147 -0.531887 0
M  V30 13941 H 1270.69 -2.23669 -3.52176 0
M  V30 13942 H 1269.32 -1.22973 -2.98458 0
M  V30 13943 H 1268.37 -3.34566 -1.81025 0
M  V30 13944 H 1269.68 -4.27834 -2.56436 0
M  V30 13945 H 1268.84 -3.66119 -4.83779 0
M  V30 13946 H 1267.58 -2.62699 -4.10902 0
M  V30 13947 H 1266.58 -4.62888 -2.96673 0
M  V30 13948 H 1267.81 -5.67683 -3.72711 0
M  V30 13949 H 1265.75 -3.99001 -5.20706 0
M  V30 13950 H 1265.67 -5.70372 -4.96197 0
M  V30 13951 H 1266.94 -5.03854 -5.9477 0
M  V30 13952 N 1271.17 0.563888 -1.47167 0
M  V30 13953 C 1272.58 0.889156 -1.32537 0
M  V30 13954 C 1272.78 1.99088 -0.310854 0
M  V30 13955 O 1271.84 2.50943 0.27998 0
M  V30 13956 C 1273.15 1.28871 -2.71685 0
M  V30 13957 C 1274.7 1.40051 -2.79919 0
M  V30 13958 C 1275.17 1.83364 -4.19692 0
M  V30 13959 N 1276.67 1.90526 -4.22201 0
M  V30 13960 C 1277.4 2.25355 -5.2726 0
M  V30 13961 N 1276.9 2.58844 -6.42629 0
M  V30 13962 N 1278.69 2.26071 -5.14634 0
M  V30 13963 H 1270.84 -0.163581 -2.11769 0
M  V30 13964 H 1273.1 -0.0105151 -0.947942 0
M  V30 13965 H 1272.81 0.553057 -3.47324 0
M  V30 13966 H 1272.68 2.24629 -3.03021 0
M  V30 13967 H 1275.07 2.12698 -2.04557 0
M  V30 13968 H 1275.15 0.424971 -2.52245 0
M  V30 13969 H 1274.8 1.11289 -4.95557 0
M  V30 13970 H 1274.73 2.81909 -4.44786 0
M  V30 13971 H 1277.22 1.67059 -3.38968 0
M  V30 13972 H 1277.53 2.84427 -7.18555 0
M  V30 13973 H 1275.87 2.56439 -6.4596 0
M  V30 13974 H 1279.07 1.99343 -4.23533 0
M  V30 13975 H 1279.24 2.52885 -5.96618 0
M  V30 13976 N 1272.64 1.35187 0.810078 0
M  V30 13977 C 1273.87 1.31528 1.60359 0
M  V30 13978 C 1274.29 -0.105385 1.87805 0
M  V30 13979 O 1273.65 -1.07113 1.46276 0
M  V30 13980 C 1273.7 2.12429 2.91386 0
M  V30 13981 O 1272.8 1.50262 3.84051 0
M  V30 13982 H 1272.15 0.451122 0.487222 0
M  V30 13983 H 1274.68 1.78178 1.00568 0
M  V30 13984 H 1274.69 2.24257 3.40841 0
M  V30 13985 H 1273.36 3.15714 2.70735 0
M  V30 13986 H 1271.94 1.47253 3.42594 0
M  V30 13987 N 1274.12 -1.03182 1.19127 0
M  V30 13988 C 1275.09 -2.09559 0.928307 0
M  V30 13989 C 1276.09 -1.60548 -0.0899992 0
M  V30 13990 O 1277.28 -1.736 0.144422 0
M  V30 13991 C 1274.41 -3.38609 0.394561 0
M  V30 13992 H 1275.6 -2.34321 1.87173 0
M  V30 13993 H 1273.15 -1.19746 1.00452 0
M  V30 13994 H 1273.89 -3.19515 -0.555046 0
M  V30 13995 H 1273.67 -3.75502 1.12873 0
M  V30 13996 H 1275.16 -4.16969 0.229569 0
M  V30 13997 N 1275.6 -0.99472 -1.22242 0
M  V30 13998 C 1276.51 -0.555502 -2.27928 0
M  V30 13999 C 1277.53 0.396584 -1.6942 0
M  V30 14000 O 1278.7 0.262965 -1.99676 0
M  V30 14001 C 1275.77 0.121121 -3.46488 0
M  V30 14002 C 1274.83 -0.874155 -4.20306 0
M  V30 14003 C 1274.06 -0.229726 -5.33205 0
M  V30 14004 O 1274.28 0.975935 -5.61989 0
M  V30 14005 O 1273.22 -0.935501 -5.94586 0
M  V30 14006 H 1277.04 -1.4348 -2.6767 0
M  V30 14007 H 1274.63 -0.763061 -1.28444 0
M  V30 14008 H 1276.51 0.500043 -4.18423 0
M  V30 14009 H 1275.19 0.974959 -3.08668 0
M  V30 14010 H 1274.09 -1.30404 -3.50636 0
M  V30 14011 H 1275.43 -1.69725 -4.62011 0
M  V30 14012 N 1277.08 1.37613 -0.768148 0
M  V30 14013 C 1278.33 1.99384 -0.330187 0
M  V30 14014 C 1278.65 1.61283 1.09604 0
M  V30 14015 O 1277.92 0.876551 1.75195 0
M  V30 14016 H 1276.5 0.737445 -0.119095 0
M  V30 14017 H 1279.16 1.6815 -0.985476 0
M  V30 14018 H 1278.26 3.09462 -0.40494 0
M  V30 14019 N 1278.56 0.518393 1.4883 0
M  V30 14020 C 1279.78 -0.0183131 2.07392 0
M  V30 14021 C 1280.21 -1.28468 1.37396 0
M  V30 14022 O 1279.56 -1.75975 0.436177 0
M  V30 14023 C 1279.61 -0.237211 3.59819 0
M  V30 14024 O 1278.72 -1.30835 3.91096 0
M  V30 14025 H 1278.06 0.0339621 0.663131 0
M  V30 14026 H 1280.59 0.722993 1.914 0
M  V30 14027 H 1280.6 -0.463424 4.0536 0
M  V30 14028 H 1279.27 0.687925 4.10171 0
M  V30 14029 H 1277.85 -1.06571 3.57347 0
M  V30 14030 N 1280.03 -1.55556 0.252993 0
M  V30 14031 C 1280.98 -2.23035 -0.660161 0
M  V30 14032 C 1281.98 -1.21994 -1.17532 0
M  V30 14033 O 1283.18 -1.39989 -1.13151 0
M  V30 14034 H 1279.56 -0.715516 -0.23139 0
M  V30 14035 H 1281.53 -2.98323 -0.0679506 0
M  V30 14036 C 1280.28 -2.94817 -1.84332 0
M  V30 14037 H 1279.6 -3.72342 -1.45607 0
M  V30 14038 H 1281.04 -3.45386 -2.45936 0
M  V30 14039 C 1279.5 -1.99033 -2.71822 0
M  V30 14040 O 1280.03 -1.5273 -3.71533 0
M  V30 14041 N 1278.24 -1.66004 -2.38518 0
M  V30 14042 H 1277.78 -2.03853 -1.57485 0
M  V30 14043 H 1277.74 -1.02183 -2.97331 0
M  V30 14044 N 1281.51 0.0200419 -1.57587 0
M  V30 14045 C 1282.92 0.565484 -1.7793 0
M  V30 14046 C 1283.27 1.75096 -0.885201 0
M  V30 14047 O 1282.4 2.16243 -0.0823831 0
M  V30 14048 C 1282.99 1.03263 -3.2268 0
M  V30 14049 C 1281.55 1.52352 -3.44189 0
M  V30 14050 C 1280.7 0.465637 -2.73363 0
M  V30 14051 H 1283.65 -0.206174 -1.57355 0
M  V30 14052 H 1283.67 1.89959 -3.2969 0
M  V30 14053 H 1283.18 0.169613 -3.87729 0
M  V30 14054 H 1281.29 2.40809 -2.84327 0
M  V30 14055 H 1281.4 1.5648 -4.52825 0
M  V30 14056 H 1279.76 0.922738 -2.37398 0
M  V30 14057 H 1280.55 -0.388068 -3.411 0
M  V30 14058 N 1282.99 1.54862 0.292472 0
M  V30 14059 C 1284.4 1.65459 0.864891 0
M  V30 14060 C 1284.75 0.568808 1.87774 0
M  V30 14061 O 1283.88 -0.293107 2.14406 0
M  V30 14062 C 1284.47 2.99939 1.5755 0
M  V30 14063 C 1283.03 3.12628 2.09621 0
M  V30 14064 C 1282.18 2.61179 0.931713 0
M  V30 14065 H 1285.13 1.58549 0.0692679 0
M  V30 14066 H 1285.15 2.91839 2.44152 0
M  V30 14067 H 1284.66 3.78943 0.838088 0
M  V30 14068 H 1282.76 2.3836 2.86383 0
M  V30 14069 H 1282.88 4.18911 2.32488 0
M  V30 14070 H 1281.24 2.17846 1.31967 0
M  V30 14071 H 1282.02 3.42669 0.208121 0
M  V30 14072 N 1284.47 -0.556076 1.47464 0
M  V30 14073 C 1285.42 -1.66304 1.60036 0
M  V30 14074 C 1286.39 -1.60074 0.443348 0
M  V30 14075 O 1287.57 -1.7889 0.663545 0
M  V30 14076 C 1284.71 -3.04624 1.62167 0
M  V30 14077 C 1283.82 -3.21283 2.88793 0
M  V30 14078 C 1282.96 -4.50008 2.82252 0
M  V30 14079 C 1282 -4.60103 4.03698 0
M  V30 14080 N 1281.13 -5.80184 3.95387 0
M  V30 14081 H 1285.97 -1.54897 2.5458 0
M  V30 14082 H 1283.51 -0.754533 1.26274 0
M  V30 14083 H 1285.47 -3.84721 1.61386 0
M  V30 14084 H 1284.1 -3.14865 0.711348 0
M  V30 14085 H 1283.15 -2.34611 2.99436 0
M  V30 14086 H 1284.46 -3.24607 3.78724 0
M  V30 14087 H 1283.62 -5.38366 2.79726 0
M  V30 14088 H 1282.36 -4.49165 1.90005 0
M  V30 14089 H 1281.36 -3.70157 4.06527 0
M  V30 14090 H 1282.59 -4.62704 4.97073 0
M  V30 14091 H 1280.53 -5.80288 3.05944 0
M  V30 14092 H 1280.45 -5.8489 4.78998 0
M  V30 14093 H 1281.72 -6.709 3.96879 0
M  V30 14094 N 1285.95 -1.35615 -0.802897 0
M  V30 14095 C 1287.36 -1.26062 -1.37715 0
M  V30 14096 C 1287.71 0.105411 -1.95917 0
M  V30 14097 O 1286.83 1.00648 -1.91569 0
M  V30 14098 C 1287.43 -2.28261 -2.50365 0
M  V30 14099 C 1285.99 -2.22437 -3.03642 0
M  V30 14100 C 1285.14 -2.1377 -1.76629 0
M  V30 14101 H 1288.09 -1.46689 -0.605631 0
M  V30 14102 H 1288.11 -1.91122 -3.29017 0
M  V30 14103 H 1287.62 -3.27671 -2.07975 0
M  V30 14104 H 1285.72 -1.2645 -3.50487 0
M  V30 14105 H 1285.83 -3.14558 -3.61373 0
M  V30 14106 H 1284.2 -1.59806 -1.98328 0
M  V30 14107 H 1284.98 -3.15046 -1.36385 0
M  V30 14108 N 1287.43 1.02549 -1.19673 0
M  V30 14109 C 1288.36 2.12794 -0.961289 0
M  V30 14110 C 1289.34 1.69766 0.106575 0
M  V30 14111 O 1290.52 1.94138 -0.0491358 0
M  V30 14112 C 1287.65 3.4364 -0.502868 0
M  V30 14113 C 1286.61 4.00367 -1.51296 0
M  V30 14114 C 1285.93 5.26874 -0.911491 0
M  V30 14115 C 1287.23 4.34782 -2.89416 0
M  V30 14116 H 1288.93 2.32748 -1.88331 0
M  V30 14117 H 1286.47 1.11852 -0.906922 0
M  V30 14118 H 1288.42 4.20141 -0.325436 0
M  V30 14119 H 1287.15 3.23418 0.454764 0
M  V30 14120 H 1285.81 3.25964 -1.67759 0
M  V30 14121 H 1285.46 5.02971 0.0537982 0
M  V30 14122 H 1285.16 5.65791 -1.58602 0
M  V30 14123 H 1286.68 6.06039 -0.74493 0
M  V30 14124 H 1288.09 5.02207 -2.76516 0
M  V30 14125 H 1286.49 4.8479 -3.53693 0
M  V30 14126 H 1287.56 3.43935 -3.41814 0
M  V30 14127 N 1288.9 1.00119 1.21713 0
M  V30 14128 C 1289.85 0.558388 2.23943 0
M  V30 14129 C 1290.82 -0.413576 1.60869 0
M  V30 14130 O 1292.01 -0.316478 1.88157 0
M  V30 14131 C 1289.15 -0.112618 3.44916 0
M  V30 14132 C 1288.26 0.902071 4.22477 0
M  V30 14133 C 1287.39 0.203722 5.30809 0
M  V30 14134 C 1286.43 1.20622 6.00097 0
M  V30 14135 N 1285.57 0.535607 7.00054 0
M  V30 14136 H 1290.41 1.43486 2.61182 0
M  V30 14137 H 1287.95 0.718572 1.28355 0
M  V30 14138 H 1289.9 -0.51865 4.13964 0
M  V30 14139 H 1288.53 -0.952827 3.08417 0
M  V30 14140 H 1287.59 1.42637 3.52645 0
M  V30 14141 H 1288.9 1.66513 4.70186 0
M  V30 14142 H 1288.05 -0.258614 6.06149 0
M  V30 14143 H 1286.79 -0.591773 4.84096 0
M  V30 14144 H 1285.8 1.6791 5.23532 0
M  V30 14145 H 1287.02 2.00273 6.48897 0
M  V30 14146 H 1284.97 -0.2403 6.5556 0
M  V30 14147 H 1284.88 1.23698 7.45812 0
M  V30 14148 H 1286.15 0.0963489 7.7944 0
M  V30 14149 N 1290.38 -1.37203 0.775435 0
M  V30 14150 C 1291.33 -2.30228 0.162388 0
M  V30 14151 C 1292.3 -1.51284 -0.685747 0
M  V30 14152 O 1293.48 -1.7984 -0.637342 0
M  V30 14153 C 1290.62 -3.37762 -0.707858 0
M  V30 14154 C 1289.74 -4.31714 0.157287 0
M  V30 14155 C 1288.87 -5.26325 -0.718012 0
M  V30 14156 C 1287.91 -6.11918 0.149442 0
M  V30 14157 N 1287.05 -6.9876 -0.684043 0
M  V30 14158 H 1291.89 -2.82073 0.961184 0
M  V30 14159 H 1289.42 -1.38854 0.485587 0
M  V30 14160 H 1291.38 -3.98741 -1.22726 0
M  V30 14161 H 1290.01 -2.87273 -1.47222 0
M  V30 14162 H 1289.06 -3.7201 0.794533 0
M  V30 14163 H 1290.38 -4.91909 0.826262 0
M  V30 14164 H 1289.53 -5.92526 -1.30376 0
M  V30 14165 H 1288.27 -4.6655 -1.42066 0
M  V30 14166 H 1287.27 -5.44692 0.747697 0
M  V30 14167 H 1288.5 -6.73766 0.849476 0
M  V30 14168 H 1286.45 -6.41508 -1.37124 0
M  V30 14169 H 1286.36 -7.55965 -0.0724464 0
M  V30 14170 H 1287.63 -7.69346 -1.25407 0
M  V30 14171 N 1291.86 -0.526279 -1.48553 0
M  V30 14172 C 1292.79 0.227364 -2.3239 0
M  V30 14173 C 1293.77 0.93862 -1.41859 0
M  V30 14174 O 1294.96 0.925119 -1.70749 0
M  V30 14175 C 1292.09 1.277 -3.22971 0
M  V30 14176 C 1291.04 0.684107 -4.22497 0
M  V30 14177 C 1290.37 1.83612 -5.02186 0
M  V30 14178 C 1291.67 -0.341723 -5.21181 0
M  V30 14179 H 1293.36 -0.472486 -2.95648 0
M  V30 14180 H 1290.91 -0.228669 -1.42173 0
M  V30 14181 H 1292.86 1.81215 -3.80446 0
M  V30 14182 H 1291.58 2.00638 -2.57705 0
M  V30 14183 H 1290.24 0.170505 -3.66203 0
M  V30 14184 H 1289.89 2.55379 -4.33348 0
M  V30 14185 H 1289.59 1.44536 -5.69547 0
M  V30 14186 H 1291.11 2.37513 -5.62512 0
M  V30 14187 H 1292.53 0.106207 -5.73202 0
M  V30 14188 H 1290.92 -0.649673 -5.96573 0
M  V30 14189 H 1291.99 -1.2488 -4.68543 0
M  V30 14190 N 1293.34 1.5542 -0.261239 0
M  V30 14191 C 1294.75 1.59327 0.0932655 0
M  V30 14192 C 1294.95 1.27846 1.55748 0
M  V30 14193 O 1294.01 1.03265 2.30418 0
M  V30 14194 C 1295.32 2.99496 -0.268856 0
M  V30 14195 C 1296.87 3.12265 -0.21433 0
M  V30 14196 C 1297.35 4.54677 -0.55069 0
M  V30 14197 N 1298.84 4.60475 -0.501723 0
M  V30 14198 C 1299.57 5.6867 -0.734961 0
M  V30 14199 N 1299.07 6.85069 -1.03209 0
M  V30 14200 N 1300.86 5.58156 -0.664696 0
M  V30 14201 H 1293.01 1.7415 -1.21595 0
M  V30 14202 H 1295.27 0.811382 -0.490268 0
M  V30 14203 H 1294.98 3.2732 -1.28664 0
M  V30 14204 H 1294.85 3.75104 0.397097 0
M  V30 14205 H 1297.24 2.84213 0.794148 0
M  V30 14206 H 1297.32 2.389 -0.914342 0
M  V30 14207 H 1296.97 4.83453 -1.55679 0
M  V30 14208 H 1296.9 5.26322 0.170959 0
M  V30 14209 H 1299.39 3.76851 -0.281387 0
M  V30 14210 H 1299.7 7.63472 -1.19709 0
M  V30 14211 H 1298.05 6.86718 -1.06971 0
M  V30 14212 H 1301.24 4.66098 -0.432513 0
M  V30 14213 H 1301.41 6.42403 -0.849857 0
M  V30 14214 N 1294.82 -0.0116844 1.57596 0
M  V30 14215 C 1296.06 -0.698958 1.90055 0
M  V30 14216 C 1296.39 -1.74422 0.860659 0
M  V30 14217 O 1295.65 -1.95226 -0.136132 0
M  V30 14218 C 1295.94 -1.38985 3.29269 0
M  V30 14219 C 1295.61 -0.478916 4.48349 0
M  V30 14220 C 1294.27 -0.228071 4.80659 0
M  V30 14221 C 1296.62 0.14897 5.20987 0
M  V30 14222 C 1293.95 0.659147 5.82986 0
M  V30 14223 C 1296.3 1.02399 6.24257 0
M  V30 14224 C 1294.97 1.28413 6.55032 0
M  V30 14225 H 1294.24 -0.255767 0.69546 0
M  V30 14226 H 1296.89 0.0413339 1.91455 0
M  V30 14227 H 1295.19 -2.2039 3.23937 0
M  V30 14228 H 1296.89 -1.92747 3.51638 0
M  V30 14229 H 1293.48 -0.68459 4.23097 0
M  V30 14230 H 1297.66 -0.0318326 4.9629 0
M  V30 14231 H 1292.92 0.86882 6.05195 0
M  V30 14232 H 1297.09 1.51694 6.79678 0
M  V30 14233 H 1294.72 1.97332 7.34142 0
M  V30 14234 N 1296.29 -1.55015 -0.284256 0
M  V30 14235 C 1297.57 -1.6579 -1.03794 0
M  V30 14236 C 1297.95 -0.517029 -2.04671 0
M  V30 14237 O 1297.3 0.484287 -2.23309 0
M  V30 14238 C 1297.51 -3.04527 -1.70483 0
M  V30 14239 C 1298.86 -3.61903 -2.22062 0
M  V30 14240 O 1299.88 -3.07087 -1.80488 0
M  V30 14241 O 1298.74 -4.57917 -2.98286 0
M  V30 14242 H 1295.83 -0.672906 -0.480757 0
M  V30 14243 H 1298.38 -1.67357 -0.281009 0
M  V30 14244 H 1297.15 -3.79004 -0.973238 0
M  V30 14245 H 1296.77 -3.0681 -2.5289 0
M  V30 14246 N 1297.77 0.548248 -1.47757 0
M  V30 14247 C 1299.02 1.30139 -1.54099 0
M  V30 14248 C 1299.33 1.9445 -0.2118 0
M  V30 14249 O 1300.54 2.71067 -0.153302 0
M  V30 14250 C 1299 2.36039 -2.71687 0
M  V30 14251 C 1298.6 1.77879 -4.11173 0
M  V30 14252 C 1300.35 3.12478 -2.87329 0
M  V30 14253 C 1298.25 2.81611 -5.20047 0
M  V30 14254 H 1297.18 0.489364 -0.573619 0
M  V30 14255 H 1299.84 0.581237 -1.74051 0
M  V30 14256 H 1298.22 3.11008 -2.45132 0
M  V30 14257 H 1299.39 1.09221 -4.47669 0
M  V30 14258 H 1297.71 1.13994 -4.00493 0
M  V30 14259 H 1300.3 3.89958 -3.65837 0
M  V30 14260 H 1300.65 3.67218 -1.96103 0
M  V30 14261 H 1301.18 2.4462 -3.13697 0
M  V30 14262 H 1297.92 2.31714 -6.13179 0
M  V30 14263 H 1297.44 3.48652 -4.88059 0
M  V30 14264 H 1299.12 3.44938 -5.47382 0
M  V30 14265 N 1299.25 1.36039 0.795694 0
M  V30 14266 C 1300.16 1.31991 1.93948 0
M  V30 14267 C 1301.18 0.223064 1.72564 0
M  V30 14268 O 1302.35 0.454344 1.96208 0
M  V30 14269 C 1299.42 1.10228 3.28711 0
M  V30 14270 C 1298.48 2.29328 3.62914 0
M  V30 14271 C 1297.71 2.08595 4.91247 0
M  V30 14272 O 1297.93 1.05793 5.60503 0
M  V30 14273 O 1296.87 2.96222 5.23962 0
M  V30 14274 H 1300.69 2.28274 2.00311 0
M  V30 14275 H 1298.28 1.16521 0.935048 0
M  V30 14276 H 1300.16 0.999842 4.09367 0
M  V30 14277 H 1298.84 0.17003 3.23253 0
M  V30 14278 H 1297.74 2.4514 2.8259 0
M  V30 14279 H 1299.08 3.21038 3.73089 0
M  V30 14280 N 1300.73 -1.01913 1.20215 0
M  V30 14281 C 1301.98 -1.75124 1.00876 0
M  V30 14282 C 1302.3 -1.89485 -0.460475 0
M  V30 14283 O 1301.57 -1.43552 -1.33302 0
M  V30 14284 H 1300.15 -0.648777 0.370266 0
M  V30 14285 H 1302.81 -1.22883 1.5128 0
M  V30 14286 H 1301.91 -2.7558 1.46499 0
M  V30 14287 N 1302.21 -1.00763 -1.2118 0
M  V30 14288 C 1303.43 -0.710515 -1.9485 0
M  V30 14289 C 1303.86 0.720934 -1.73736 0
M  V30 14290 O 1303.21 1.49484 -1.02588 0
M  V30 14291 C 1303.26 -1.04035 -3.45267 0
M  V30 14292 O 1302.37 -0.147047 -4.12138 0
M  V30 14293 H 1301.71 -0.264472 -0.609057 0
M  V30 14294 H 1304.24 -1.34858 -1.53865 0
M  V30 14295 H 1304.25 -0.9883 -3.95849 0
M  V30 14296 H 1302.92 -2.08334 -3.59958 0
M  V30 14297 H 1301.5 -0.255847 -3.72021 0
M  V30 14298 N 1303.68 1.3679 -0.7827 0
M  V30 14299 C 1304.96 1.93639 -0.276278 0
M  V30 14300 C 1305.34 1.7153 1.23048 0
M  V30 14301 O 1304.69 1.07037 2.01879 0
M  V30 14302 C 1304.9 3.42672 -0.661586 0
M  V30 14303 C 1306.25 4.19786 -0.637538 0
M  V30 14304 O 1307.27 3.51082 -0.601645 0
M  V30 14305 O 1306.13 5.42323 -0.674408 0
M  V30 14306 H 1303.22 0.824307 -0.0666832 0
M  V30 14307 H 1305.77 1.46012 -0.864792 0
M  V30 14308 H 1304.54 3.52393 -1.70103 0
M  V30 14309 H 1304.17 3.97573 -0.0465987 0
M  V30 14310 N 1305.16 0.53415 1.48272 0
M  V30 14311 C 1306.07 -0.230062 2.33469 0
M  V30 14312 C 1307.09 -0.934889 1.46751 0
M  V30 14313 O 1308.26 -0.908921 1.79724 0
M  V30 14314 C 1305.33 -1.2609 3.22958 0
M  V30 14315 C 1304.39 -0.565983 4.25553 0
M  V30 14316 C 1303.62 -1.54771 5.10766 0
M  V30 14317 O 1303.85 -2.7807 4.9803 0
M  V30 14318 O 1302.78 -1.08482 5.92043 0
M  V30 14319 H 1306.61 0.468182 3.0007 0
M  V30 14320 H 1304.19 0.29502 1.46458 0
M  V30 14321 H 1306.07 -1.85652 3.783 0
M  V30 14322 H 1304.75 -1.94148 2.59014 0
M  V30 14323 H 1303.66 0.0702391 3.74034 0
M  V30 14324 H 1304.99 0.0727277 4.92146 0
M  V30 14325 N 1306.64 -1.55279 0.269478 0
M  V30 14326 C 1307.6 -2.21008 -0.607299 0
M  V30 14327 C 1308.6 -1.18619 -1.08564 0
M  V30 14328 O 1309.79 -1.4356 -0.986721 0
M  V30 14329 C 1306.93 -2.87157 -1.83721 0
M  V30 14330 H 1308.12 -2.99881 -0.0334894 0
M  V30 14331 H 1305.67 -1.56287 0.0200573 0
M  V30 14332 H 1306.41 -2.12281 -2.45168 0
M  V30 14333 H 1306.19 -3.62183 -1.5022 0
M  V30 14334 H 1307.68 -3.37391 -2.46083 0
M  V30 14335 N 1308.12 0.00332656 -1.576 0
M  V30 14336 C 1309.4 0.725722 -1.81639 0
M  V30 14337 C 1309.78 1.92173 -0.87365 0
M  V30 14338 O 1309.12 2.28365 0.0783931 0
M  V30 14339 C 1309.33 1.13458 -3.30043 0
M  V30 14340 C 1310.68 1.53982 -3.95695 0
M  V30 14341 O 1311.71 1.22846 -3.34346 0
M  V30 14342 O 1310.56 2.11866 -5.03761 0
M  V30 14343 H 1307.66 0.353083 -0.747838 0
M  V30 14344 H 1310.2 -0.0218724 -1.69686 0
M  V30 14345 H 1308.98 0.281925 -3.90283 0
M  V30 14346 H 1308.6 1.94138 -3.46982 0
M  V30 14347 N 1309.6 1.55164 0.276031 0
M  V30 14348 C 1310.84 1.7528 1.00604 0
M  V30 14349 C 1311.17 0.555256 1.86928 0
M  V30 14350 O 1310.44 -0.429917 1.91124 0
M  V30 14351 H 1309.02 0.646377 0.374441 0
M  V30 14352 H 1311.68 1.92562 0.300992 0
M  V30 14353 H 1310.77 2.65245 1.64473 0
M  V30 14354 N 1311.07 -0.540404 1.48045 0
M  V30 14355 C 1312.3 -1.32656 1.59427 0
M  V30 14356 C 1312.72 -1.86419 0.250924 0
M  V30 14357 O 1312.08 -1.63861 -0.775838 0
M  V30 14358 C 1312.13 -2.46062 2.63602 0
M  V30 14359 O 1311.23 -3.48794 2.20038 0
M  V30 14360 H 1310.58 -0.393334 0.534962 0
M  V30 14361 H 1313.11 -0.651363 1.93955 0
M  V30 14362 H 1313.12 -2.92396 2.84549 0
M  V30 14363 H 1311.79 -2.06291 3.61133 0
M  V30 14364 H 1310.37 -3.0865 2.0926 0
M  V30 14365 N 1312.55 -1.36459 -0.788468 0
M  V30 14366 C 1313.5 -1.30863 -1.90115 0
M  V30 14367 C 1314.47 -0.177148 -1.65153 0
M  V30 14368 O 1315.65 -0.363817 -1.87299 0
M  V30 14369 C 1312.79 -1.10473 -3.2694 0
M  V30 14370 C 1311.91 -2.32704 -3.63968 0
M  V30 14371 C 1311.04 -2.05319 -4.89916 0
M  V30 14372 C 1310.08 -3.23506 -5.19625 0
M  V30 14373 N 1309.22 -2.9578 -6.36756 0
M  V30 14374 H 1314.06 -2.26003 -1.94233 0
M  V30 14375 H 1311.6 -1.12324 -0.949827 0
M  V30 14376 H 1313.55 -0.966773 -4.05844 0
M  V30 14377 H 1312.18 -0.189873 -3.22241 0
M  V30 14378 H 1311.24 -2.573 -2.8018 0
M  V30 14379 H 1312.55 -3.20899 -3.81871 0
M  V30 14380 H 1311.7 -1.88459 -5.76687 0
M  V30 14381 H 1310.44 -1.14437 -4.74084 0
M  V30 14382 H 1309.45 -3.40924 -4.31336 0
M  V30 14383 H 1310.67 -4.15216 -5.37376 0
M  V30 14384 H 1308.62 -2.0751 -6.22315 0
M  V30 14385 H 1308.53 -3.77513 -6.54996 0
M  V30 14386 H 1309.8 -2.825 -7.26508 0
M  V30 14387 N 1314.03 1.01274 -1.20754 0
M  V30 14388 C 1314.98 2.08285 -0.927426 0
M  V30 14389 C 1315.96 1.60494 0.114286 0
M  V30 14390 O 1317.16 1.76752 -0.0936086 0
M  V30 14391 C 1314.29 3.39849 -0.485546 0
M  V30 14392 C 1313.37 3.94331 -1.5609 0
M  V30 14393 N 1313.76 4.22274 -2.78421 0
M  V30 14394 C 1312.06 4.22522 -1.42797 0
M  V30 14395 C 1312.76 4.66262 -3.47813 0
M  V30 14396 N 1311.74 4.68771 -2.75235 0
M  V30 14397 H 1315.54 2.27804 -1.85695 0
M  V30 14398 H 1313.05 1.19278 -1.10211 0
M  V30 14399 H 1315.05 4.16049 -0.266263 0
M  V30 14400 H 1313.71 3.21742 0.437301 0
M  V30 14401 H 1314.72 4.11063 -3.15036 0
M  V30 14402 H 1311.4 4.13593 -0.569819 0
M  V30 14403 H 1312.79 4.9667 -4.52513 0
M  V30 14404 N 1315.51 1.01404 1.20644 0
M  V30 14405 C 1316.44 0.602465 2.25594 0
M  V30 14406 C 1317.42 -0.381216 1.65773 0
M  V30 14407 O 1318.61 -0.267209 1.92353 0
M  V30 14408 C 1315.74 -0.0626245 3.47244 0
M  V30 14409 C 1314.69 0.841776 4.1964 0
M  V30 14410 C 1314.02 0.0426002 5.34683 0
M  V30 14411 C 1315.32 2.14864 4.76058 0
M  V30 14412 H 1317.01 1.47977 2.60275 0
M  V30 14413 H 1314.56 0.712966 1.25111 0
M  V30 14414 H 1316.51 -0.362095 4.19841 0
M  V30 14415 H 1315.23 -0.974627 3.11719 0
M  V30 14416 H 1313.89 1.12521 3.48905 0
M  V30 14417 H 1313.54 -0.870973 4.95402 0
M  V30 14418 H 1313.24 0.644866 5.84051 0
M  V30 14419 H 1314.76 -0.250476 6.10086 0
M  V30 14420 H 1316.18 1.9117 5.40488 0
M  V30 14421 H 1314.57 2.70153 5.35852 0
M  V30 14422 H 1315.64 2.81336 3.9494 0
M  V30 14423 N 1316.99 -1.36373 0.789944 0
M  V30 14424 C 1318.4 -1.81783 0.425677 0
M  V30 14425 C 1318.75 -1.65711 -1.05045 0
M  V30 14426 O 1317.87 -1.17835 -1.81505 0
M  V30 14427 C 1318.47 -3.3003 0.765866 0
M  V30 14428 C 1317.03 -3.73647 0.454421 0
M  V30 14429 C 1316.18 -2.58632 1.00023 0
M  V30 14430 H 1319.13 -1.24587 0.983044 0
M  V30 14431 H 1319.15 -3.80457 0.0571624 0
M  V30 14432 H 1318.66 -3.41696 1.84026 0
M  V30 14433 H 1316.76 -3.67541 -0.611918 0
M  V30 14434 H 1316.87 -4.69066 0.975401 0
M  V30 14435 H 1315.24 -2.51156 0.423434 0
M  V30 14436 H 1316.02 -2.73083 2.0804 0
M  V30 14437 N 1318.47 -0.542005 -1.47987 0
M  V30 14438 C 1319.71 -0.0122873 -2.02096 0
M  V30 14439 C 1320.03 1.3362 -1.42024 0
M  V30 14440 O 1319.3 1.86807 -0.589911 0
M  V30 14441 H 1317.88 -0.00155365 -0.746998 0
M  V30 14442 H 1320.55 -0.708566 -1.81564 0
M  V30 14443 H 1319.64 0.0871275 -3.11978 0
M  V30 14444 N 1319.94 1.55134 -0.277709 0
M  V30 14445 C 1320.85 2.26296 0.618658 0
M  V30 14446 C 1321.87 1.28978 1.16794 0
M  V30 14447 O 1323.05 1.61918 1.19768 0
M  V30 14448 C 1320.11 2.97214 1.78508 0
M  V30 14449 C 1319.17 4.10016 1.27221 0
M  V30 14450 C 1318.4 4.77543 2.38304 0
M  V30 14451 O 1318.63 4.44293 3.57715 0
M  V30 14452 O 1317.56 5.65437 2.06313 0
M  V30 14453 H 1321.39 3.03671 0.0421031 0
M  V30 14454 H 1318.97 1.49332 -0.0450166 0
M  V30 14455 H 1320.85 3.41773 2.46513 0
M  V30 14456 H 1319.53 2.22753 2.34867 0
M  V30 14457 H 1318.44 3.69907 0.558544 0
M  V30 14458 H 1319.77 4.86385 0.754333 0
M  V30 14459 N 1321.42 0.00503138 1.57599 0
M  V30 14460 C 1322.65 -0.693231 1.95471 0
M  V30 14461 C 1323.07 -1.66233 0.880246 0
M  V30 14462 O 1322.43 -1.80582 -0.161164 0
M  V30 14463 C 1322.48 -1.39696 3.32442 0
M  V30 14464 O 1321.58 -2.51154 3.27101 0
M  V30 14465 H 1320.92 -0.184015 0.637992 0
M  V30 14466 H 1323.45 0.0597194 2.04513 0
M  V30 14467 H 1323.46 -1.75924 3.68123 0
M  V30 14468 H 1322.14 -0.686438 4.10196 0
M  V30 14469 H 1320.71 -2.17216 3.03103 0
M  V30 14470 N 1322.9 -1.55308 -0.267798 0
M  V30 14471 C 1323.85 -1.88544 -1.33115 0
M  V30 14472 C 1324.82 -0.737465 -1.48831 0
M  V30 14473 O 1326 -0.989215 -1.63154 0
M  V30 14474 C 1323.14 -2.1674 -2.68547 0
M  V30 14475 C 1322.25 -3.44234 -2.61011 0
M  V30 14476 C 1321.39 -3.62104 -3.88657 0
M  V30 14477 C 1320.43 -4.83272 -3.75652 0
M  V30 14478 N 1319.57 -4.97772 -4.95144 0
M  V30 14479 H 1324.41 -2.79237 -1.04071 0
M  V30 14480 H 1321.94 -1.38245 -0.502677 0
M  V30 14481 H 1323.9 -2.31088 -3.47353 0
M  V30 14482 H 1322.53 -1.29276 -2.95783 0
M  V30 14483 H 1321.58 -3.3833 -1.73887 0
M  V30 14484 H 1322.89 -4.33177 -2.47303 0
M  V30 14485 H 1322.05 -3.76298 -4.75904 0
M  V30 14486 H 1320.79 -2.71356 -4.05238 0
M  V30 14487 H 1319.79 -4.69076 -2.86788 0
M  V30 14488 H 1321.02 -5.75461 -3.60585 0
M  V30 14489 H 1318.96 -4.09956 -5.12125 0
M  V30 14490 H 1318.88 -5.80769 -4.83987 0
M  V30 14491 H 1320.15 -5.16357 -5.83949 0
M  V30 14492 N 1324.38 0.532545 -1.4833 0
M  V30 14493 C 1325.62 1.28851 -1.56217 0
M  V30 14494 C 1325.95 1.93076 -0.234967 0
M  V30 14495 O 1325.21 1.79722 0.774508 0
M  V30 14496 C 1325.51 2.40117 -2.64724 0
M  V30 14497 C 1325.17 1.93562 -4.0724 0
M  V30 14498 C 1323.83 1.80583 -4.46031 0
M  V30 14499 C 1326.19 1.58349 -4.96563 0
M  V30 14500 C 1323.51 1.30722 -5.71952 0
M  V30 14501 C 1325.87 1.09951 -6.22972 0
M  V30 14502 C 1324.53 0.955866 -6.60621 0
M  V30 14503 H 1323.8 0.4715 -0.571637 0
M  V30 14504 H 1326.45 0.594564 -1.82036 0
M  V30 14505 H 1324.75 3.15171 -2.32754 0
M  V30 14506 H 1326.45 2.98252 -2.68042 0
M  V30 14507 H 1323.04 2.04614 -3.76605 0
M  V30 14508 H 1327.22 1.67237 -4.67274 0
M  V30 14509 H 1322.48 1.18286 -5.99849 0
M  V30 14510 H 1326.65 0.817736 -6.91582 0
M  V30 14511 H 1324.28 0.567302 -7.5808 0
M  V30 14512 N 1325.86 1.36875 0.78122 0
M  V30 14513 C 1326.79 1.27738 1.90304 0
M  V30 14514 C 1327.8 0.195147 1.61626 0
M  V30 14515 O 1328.99 0.450531 1.72721 0
M  V30 14516 C 1326.09 0.950103 3.25309 0
M  V30 14517 C 1325.26 2.13589 3.81705 0
M  V30 14518 C 1324.32 1.78037 4.95166 0
M  V30 14519 O 1323.35 2.50223 5.11251 0
M  V30 14520 N 1324.55 0.718886 5.76031 0
M  V30 14521 H 1327.31 2.24397 1.98661 0
M  V30 14522 H 1324.88 1.30376 0.959883 0
M  V30 14523 H 1326.87 0.693286 3.98717 0
M  V30 14524 H 1325.44 0.0723849 3.12516 0
M  V30 14525 H 1324.66 2.55502 3.00187 0
M  V30 14526 H 1325.95 2.9279 4.16114 0
M  V30 14527 H 1325.34 0.119681 5.65573 0
M  V30 14528 H 1323.9 0.521909 6.49707 0
M  V30 14529 N 1327.33 -1.00632 1.21289 0
M  V30 14530 C 1328.27 -2.0954 0.928753 0
M  V30 14531 C 1329.28 -1.62565 -0.0875212 0
M  V30 14532 O 1330.47 -1.77912 0.144808 0
M  V30 14533 C 1327.57 -3.36844 0.37276 0
M  V30 14534 C 1326.74 -4.1291 1.44305 0
M  V30 14535 C 1325.8 -5.18506 0.896534 0
M  V30 14536 O 1324.83 -5.46841 1.57966 0
M  V30 14537 N 1326.03 -5.79781 -0.288888 0
M  V30 14538 H 1328.79 -2.34499 1.86629 0
M  V30 14539 H 1326.35 -1.17104 1.11796 0
M  V30 14540 H 1328.35 -4.04699 -0.00722737 0
M  V30 14541 H 1326.92 -3.09053 -0.469572 0
M  V30 14542 H 1326.14 -3.39876 1.99694 0
M  V30 14543 H 1327.42 -4.60508 2.16356 0
M  V30 14544 H 1326.82 -5.5911 -0.860951 0
M  V30 14545 H 1325.38 -6.48936 -0.6104 0
M  V30 14546 N 1328.81 -1.02043 -1.20104 0
M  V30 14547 C 1329.76 -0.593945 -2.23027 0
M  V30 14548 C 1330.73 0.387931 -1.61506 0
M  V30 14549 O 1331.91 0.286504 -1.88637 0
M  V30 14550 C 1329.05 0.0577309 -3.45052 0
M  V30 14551 C 1328.17 -0.969169 -4.20988 0
M  V30 14552 C 1327.3 -0.288143 -5.30418 0
M  V30 14553 C 1326.34 -1.30154 -5.98102 0
M  V30 14554 N 1325.48 -0.646912 -6.99113 0
M  V30 14555 H 1330.32 -1.47623 -2.58866 0
M  V30 14556 H 1327.85 -0.738901 -1.27195 0
M  V30 14557 H 1329.81 0.452726 -4.14736 0
M  V30 14558 H 1328.44 0.90364 -3.09894 0
M  V30 14559 H 1327.49 -1.48229 -3.50332 0
M  V30 14560 H 1328.81 -1.73972 -4.67477 0
M  V30 14561 H 1327.96 0.162149 -6.06483 0
M  V30 14562 H 1326.7 0.514683 -4.84977 0
M  V30 14563 H 1325.7 -1.76218 -5.20795 0
M  V30 14564 H 1326.93 -2.10571 -6.45629 0
M  V30 14565 H 1324.88 0.135976 -6.55859 0
M  V30 14566 H 1324.79 -1.35548 -7.43749 0
M  V30 14567 H 1326.06 -0.220339 -7.79189 0
M  V30 14568 N 1330.29 1.35952 -0.797165 0
M  V30 14569 C 1331.22 2.32506 -0.215277 0
M  V30 14570 C 1332.2 1.57023 0.654046 0
M  V30 14571 O 1333.39 1.85139 0.586268 0
M  V30 14572 C 1330.52 3.41266 0.644557 0
M  V30 14573 C 1329.47 4.27816 -0.125501 0
M  V30 14574 C 1328.8 5.27813 0.855428 0
M  V30 14575 C 1330.1 5.05367 -1.31913 0
M  V30 14576 H 1331.79 2.8142 -1.02193 0
M  V30 14577 H 1329.34 1.35303 -0.492862 0
M  V30 14578 H 1331.29 4.07808 1.06163 0
M  V30 14579 H 1330.01 2.90938 1.484 0
M  V30 14580 H 1328.67 3.62841 -0.523639 0
M  V30 14581 H 1328.32 4.73755 1.69011 0
M  V30 14582 H 1328.02 5.86589 0.344566 0
M  V30 14583 H 1329.54 5.97227 1.2709 0
M  V30 14584 H 1330.96 5.64907 -0.977418 0
M  V30 14585 H 1329.36 5.73593 -1.76382 0
M  V30 14586 H 1330.43 4.36558 -2.11057 0
M  V30 14587 N 1331.77 0.549846 1.47697 0
M  V30 14588 C 1332.73 -0.191427 2.28399 0
M  V30 14589 C 1333.73 -0.849533 1.36527 0
M  V30 14590 O 1334.92 -0.706526 1.59229 0
M  V30 14591 C 1332.05 -1.27907 3.15995 0
M  V30 14592 H 1333.25 0.517375 2.95404 0
M  V30 14593 H 1330.8 0.30651 1.53265 0
M  V30 14594 H 1331.53 -2.0205 2.53665 0
M  V30 14595 H 1331.32 -0.812066 3.83599 0
M  V30 14596 H 1332.81 -1.79992 3.76819 0
M  V30 14597 N 1333.25 -1.54984 0.285932 0
M  V30 14598 C 1334.16 -2.26621 -0.606648 0
M  V30 14599 C 1335.17 -1.29595 -1.16108 0
M  V30 14600 O 1336.35 -1.62551 -1.18908 0
M  V30 14601 C 1333.41 -2.98156 -1.76929 0
M  V30 14602 C 1332.47 -4.10685 -1.25045 0
M  V30 14603 C 1331.71 -4.788 -2.35768 0
M  V30 14604 O 1331.93 -4.46183 -3.55354 0
M  V30 14605 O 1330.86 -5.66523 -2.03312 0
M  V30 14606 H 1334.69 -3.03689 -0.0259981 0
M  V30 14607 H 1332.28 -1.49306 0.0529355 0
M  V30 14608 H 1334.16 -3.43076 -2.44697 0
M  V30 14609 H 1332.83 -2.23996 -2.33683 0
M  V30 14610 H 1331.74 -3.70198 -0.538919 0
M  V30 14611 H 1333.07 -4.86778 -0.728528 0
M  V30 14612 N 1334.72 -0.0133892 -1.57594 0
M  V30 14613 C 1335.66 1.00798 -2.04731 0
M  V30 14614 C 1336.64 1.32686 -0.93985 0
M  V30 14615 O 1337.82 1.44622 -1.209 0
M  V30 14616 C 1334.95 2.33216 -2.45618 0
M  V30 14617 C 1333.99 2.16898 -3.67229 0
M  V30 14618 S 1334.83 1.48248 -5.14571 0
M  V30 14619 C 1335.98 2.82068 -5.58738 0
M  V30 14620 H 1336.21 0.606673 -2.91044 0
M  V30 14621 H 1333.75 0.197865 -1.53127 0
M  V30 14622 H 1335.71 3.09348 -2.69841 0
M  V30 14623 H 1334.37 2.70483 -1.59679 0
M  V30 14624 H 1333.56 3.14753 -3.93632 0
M  V30 14625 H 1333.16 1.4891 -3.43077 0
M  V30 14626 H 1335.45 3.78343 -5.62017 0
M  V30 14627 H 1336.4 2.60348 -6.58502 0
M  V30 14628 H 1336.8 2.86592 -4.86338 0
M  V30 14629 N 1336.2 1.55448 0.259558 0
M  V30 14630 C 1337.43 1.80727 1.00723 0
M  V30 14631 C 1337.85 0.587354 1.79431 0
M  V30 14632 O 1337.2 -0.443819 1.77021 0
M  V30 14633 C 1337.25 3.04064 1.95517 0
M  V30 14634 O 1336.97 4.21346 1.19996 0
M  V30 14635 C 1338.48 3.42049 2.81988 0
M  V30 14636 H 1335.7 0.601713 0.296956 0
M  V30 14637 H 1338.24 2.02486 0.286273 0
M  V30 14638 H 1336.39 2.84392 2.63058 0
M  V30 14639 H 1336.81 4.91164 1.84006 0
M  V30 14640 H 1338.28 4.31485 3.44274 0
M  V30 14641 H 1338.76 2.62059 3.52451 0
M  V30 14642 H 1339.37 3.64027 2.19918 0
M  V30 14643 N 1337.68 -0.524672 1.4861 0
M  V30 14644 C 1338.91 -1.30958 1.60825 0
M  V30 14645 C 1339.33 -1.86142 0.270682 0
M  V30 14646 O 1338.69 -1.64675 -0.758415 0
M  V30 14647 C 1338.74 -2.43252 2.66197 0
M  V30 14648 O 1337.84 -3.4644 2.23725 0
M  V30 14649 H 1337.18 -0.387638 0.539104 0
M  V30 14650 H 1339.71 -0.630755 1.94635 0
M  V30 14651 H 1339.72 -2.89362 2.87635 0
M  V30 14652 H 1338.4 -2.02449 3.63301 0
M  V30 14653 H 1336.97 -3.06413 2.12522 0
M  V30 14654 N 1339.16 -1.37287 -0.77395 0
M  V30 14655 C 1340.39 -1.35563 -1.56302 0
M  V30 14656 C 1340.8 0.0595356 -1.88706 0
M  V30 14657 O 1340.16 1.02072 -1.51286 0
M  V30 14658 C 1340.21 -2.19195 -2.87464 0
M  V30 14659 O 1339.93 -3.55197 -2.5645 0
M  V30 14660 C 1341.43 -2.25425 -3.81704 0
M  V30 14661 H 1338.65 -0.464431 -0.484298 0
M  V30 14662 H 1341.2 -1.80597 -0.959425 0
M  V30 14663 H 1339.35 -1.77676 -3.44253 0
M  V30 14664 H 1339.76 -3.99011 -3.40427 0
M  V30 14665 H 1341.24 -2.8827 -4.70749 0
M  V30 14666 H 1341.72 -1.26205 -4.20677 0
M  V30 14667 H 1342.32 -2.67247 -3.30846 0
M  V30 14668 N 1340.64 0.999871 -1.21821 0
M  V30 14669 C 1342.05 1.26228 -0.976664 0
M  V30 14670 C 1342.25 1.98714 0.333915 0
M  V30 14671 O 1341.31 2.29252 1.05829 0
M  V30 14672 C 1342.62 2.08089 -2.1707 0
M  V30 14673 C 1344.17 2.21298 -2.21351 0
M  V30 14674 C 1344.64 3.06544 -3.40287 0
M  V30 14675 N 1346.14 3.14131 -3.40405 0
M  V30 14676 C 1346.87 3.80362 -4.29083 0
M  V30 14677 N 1346.37 4.48577 -5.27968 0
M  V30 14678 N 1348.16 3.77053 -4.16878 0
M  V30 14679 H 1340.31 0.513704 -2.06094 0
M  V30 14680 H 1342.57 0.289447 -0.902732 0
M  V30 14681 H 1342.28 1.62183 -3.12073 0
M  V30 14682 H 1342.15 3.08843 -2.16554 0
M  V30 14683 H 1344.54 2.66422 -1.269 0
M  V30 14684 H 1344.62 1.19997 -2.25908 0
M  V30 14685 H 1344.27 2.62122 -4.35034 0
M  V30 14686 H 1344.2 4.0797 -3.32969 0
M  V30 14687 H 1346.69 2.65576 -2.68846 0
M  V30 14688 H 1347 4.96833 -5.91926 0
M  V30 14689 H 1345.34 4.47348 -5.31888 0
M  V30 14690 H 1348.54 3.22918 -3.38883 0
M  V30 14691 H 1348.71 4.2839 -4.86195 0
M  V30 14692 N 1342.11 1.02678 1.19562 0
M  V30 14693 C 1343.34 0.741569 1.93154 0
M  V30 14694 C 1343.76 -0.699292 1.75372 0
M  V30 14695 O 1343.11 -1.47533 1.07426 0
M  V30 14696 C 1343.17 1.08064 3.4497 0
M  V30 14697 O 1342.89 2.46492 3.62179 0
M  V30 14698 C 1344.39 0.817935 4.35689 0
M  V30 14699 H 1341.61 0.271506 0.613617 0
M  V30 14700 H 1344.15 1.3707 1.51763 0
M  V30 14701 H 1342.31 0.496723 3.84202 0
M  V30 14702 H 1342.72 2.59053 4.56061 0
M  V30 14703 H 1344.19 1.10517 5.40823 0
M  V30 14704 H 1344.67 -0.247693 4.38501 0
M  V30 14705 H 1345.28 1.38449 4.02134 0
M  V30 14706 N 1343.59 -1.35528 0.804364 0
M  V30 14707 C 1345.01 -1.51962 0.487831 0
M  V30 14708 C 1345.21 -1.75426 -0.991353 0
M  V30 14709 O 1344.26 -1.7944 -1.77644 0
M  V30 14710 C 1345.58 -2.69626 1.33126 0
M  V30 14711 C 1347.13 -2.83502 1.32648 0
M  V30 14712 C 1347.6 -4.04188 2.15397 0
M  V30 14713 N 1349.09 -4.11362 2.12922 0
M  V30 14714 C 1349.83 -5.03856 2.73709 0
M  V30 14715 N 1349.32 -6.01696 3.43415 0
M  V30 14716 N 1351.12 -4.96585 2.63363 0
M  V30 14717 H 1343.27 -1.18553 1.76235 0
M  V30 14718 H 1345.53 -0.57986 0.749977 0
M  V30 14719 H 1345.24 -2.58857 2.38088 0
M  V30 14720 H 1345.11 -3.64168 0.982934 0
M  V30 14721 H 1347.5 -2.93723 0.284712 0
M  V30 14722 H 1347.58 -1.89824 1.71466 0
M  V30 14723 H 1347.22 -3.94728 3.19613 0
M  V30 14724 H 1347.15 -4.97044 1.7394 0
M  V30 14725 H 1349.64 -3.41319 1.62203 0
M  V30 14726 H 1349.96 -6.68866 3.8709 0
M  V30 14727 H 1348.3 -6.01877 3.47519 0
M  V30 14728 H 1351.49 -4.19103 2.08496 0
M  V30 14729 H 1351.66 -5.68478 3.11026 0
M  V30 14730 N 1345.07 -0.557671 -1.47404 0
M  V30 14731 C 1346 0.237612 -2.2696 0
M  V30 14732 C 1346.98 0.919871 -1.34079 0
M  V30 14733 O 1348.17 0.938767 -1.63461 0
M  V30 14734 C 1345.29 1.33863 -3.11124 0
M  V30 14735 C 1344.34 0.764877 -4.19585 0
M  V30 14736 S 1345.17 -0.388893 -5.34086 0
M  V30 14737 C 1346.33 0.713932 -6.21815 0
M  V30 14738 H 1346.56 -0.437477 -2.94064 0
M  V30 14739 H 1344.09 -0.344004 -1.50519 0
M  V30 14740 H 1346.05 1.96917 -3.60186 0
M  V30 14741 H 1344.71 1.98556 -2.43381 0
M  V30 14742 H 1343.91 1.5917 -4.78206 0
M  V30 14743 H 1343.51 0.210502 -3.73407 0
M  V30 14744 H 1345.8 1.60592 -6.58192 0
M  V30 14745 H 1346.74 0.165069 -7.07908 0
M  V30 14746 H 1347.15 1.00681 -5.55449 0
M  V30 14747 N 1346.55 1.54831 -0.294147 0
M  V30 14748 C 1347.48 2.20696 0.61854 0
M  V30 14749 C 1348.49 1.19754 1.10285 0
M  V30 14750 O 1349.68 1.46383 1.02148 0
M  V30 14751 C 1346.78 2.83429 1.85798 0
M  V30 14752 C 1345.96 4.10239 1.51731 0
M  V30 14753 C 1345.02 4.56841 2.61119 0
M  V30 14754 O 1344.04 5.22194 2.26501 0
M  V30 14755 N 1345.24 4.2858 3.91534 0
M  V30 14756 H 1348.01 2.9965 0.054714 0
M  V30 14757 H 1345.57 1.61484 -0.116052 0
M  V30 14758 H 1347.56 3.11541 2.5831 0
M  V30 14759 H 1346.13 2.08356 2.33038 0
M  V30 14760 H 1345.35 3.89212 0.625142 0
M  V30 14761 H 1346.64 4.92824 1.26499 0
M  V30 14762 H 1346.04 3.7621 4.22472 0
M  V30 14763 H 1344.59 4.61418 4.60366 0
M  V30 14764 N 1348.03 0.0217466 1.57585 0
M  V30 14765 C 1348.97 -0.962559 2.0977 0
M  V30 14766 C 1349.94 -1.32771 0.998053 0
M  V30 14767 O 1351.13 -1.42231 1.27181 0
M  V30 14768 C 1348.27 -2.24214 2.62339 0
M  V30 14769 C 1347.38 -1.9341 3.86286 0
M  V30 14770 C 1346.52 -3.15609 4.27275 0
M  V30 14771 C 1345.56 -2.8059 5.43999 0
M  V30 14772 N 1344.69 -3.95392 5.8018 0
M  V30 14773 H 1349.53 -0.510626 2.93593 0
M  V30 14774 H 1347.07 -0.240456 1.45121 0
M  V30 14775 H 1349.03 -2.99049 2.90905 0
M  V30 14776 H 1347.66 -2.67037 1.81358 0
M  V30 14777 H 1346.71 -1.08849 3.64494 0
M  V30 14778 H 1348.02 -1.63614 4.71203 0
M  V30 14779 H 1347.18 -3.9877 4.57239 0
M  V30 14780 H 1345.92 -3.48561 3.41111 0
M  V30 14781 H 1344.92 -1.9584 5.13738 0
M  V30 14782 H 1346.15 -2.48863 6.31858 0
M  V30 14783 H 1344.09 -4.282 4.96971 0
M  V30 14784 H 1344.01 -3.69195 6.59721 0
M  V30 14785 H 1345.28 -4.79279 6.14746 0
M  V30 14786 N 1349.51 -1.55583 -0.251311 0
M  V30 14787 C 1350.44 -1.86388 -1.33387 0
M  V30 14788 C 1351.45 -0.749829 -1.44504 0
M  V30 14789 O 1352.64 -1.0279 -1.45933 0
M  V30 14790 C 1349.74 -2.0311 -2.71293 0
M  V30 14791 C 1348.91 -3.33937 -2.82498 0
M  V30 14792 C 1347.97 -3.40455 -4.01219 0
M  V30 14793 O 1347 -4.13695 -3.90954 0
M  V30 14794 N 1348.2 -2.69427 -5.14188 0
M  V30 14795 H 1350.96 -2.79834 -1.07298 0
M  V30 14796 H 1348.53 -1.55766 -0.441418 0
M  V30 14797 H 1350.52 -2.04817 -3.49045 0
M  V30 14798 H 1349.09 -1.16429 -2.90109 0
M  V30 14799 H 1348.31 -3.44584 -1.91456 0
M  V30 14800 H 1349.6 -4.20176 -2.86931 0
M  V30 14801 H 1348.99 -2.09647 -5.25419 0
M  V30 14802 H 1347.55 -2.76832 -5.90091 0
M  V30 14803 N 1350.98 0.516783 -1.48886 0
M  V30 14804 C 1351.93 1.62003 -1.64389 0
M  V30 14805 C 1352.9 1.58842 -0.485633 0
M  V30 14806 O 1354.09 1.77068 -0.710742 0
M  V30 14807 C 1351.23 3.00218 -1.70186 0
M  V30 14808 C 1350.34 3.13513 -2.97209 0
M  V30 14809 C 1349.47 4.42366 -2.94084 0
M  V30 14810 C 1348.51 4.49238 -4.15754 0
M  V30 14811 N 1347.65 5.69497 -4.10631 0
M  V30 14812 H 1352.49 1.48093 -2.58597 0
M  V30 14813 H 1350.03 0.720788 -1.2823 0
M  V30 14814 H 1351.98 3.80307 -1.71529 0
M  V30 14815 H 1350.61 3.12868 -0.794578 0
M  V30 14816 H 1349.67 2.26589 -3.05551 0
M  V30 14817 H 1350.98 3.14451 -3.87197 0
M  V30 14818 H 1350.13 5.3076 -2.93902 0
M  V30 14819 H 1348.87 4.43969 -2.01847 0
M  V30 14820 H 1347.88 3.59248 -4.16198 0
M  V30 14821 H 1349.1 4.49363 -5.09166 0
M  V30 14822 H 1347.05 5.71973 -3.21222 0
M  V30 14823 H 1346.96 5.71985 -4.94337 0
M  V30 14824 H 1348.23 6.60142 -4.14527 0
M  V30 14825 N 1352.46 1.37696 0.766659 0
M  V30 14826 C 1353.39 1.28241 1.88758 0
M  V30 14827 C 1354.37 0.161948 1.61791 0
M  V30 14828 O 1355.56 0.337034 1.85462 0
M  V30 14829 C 1352.68 0.983972 3.24092 0
M  V30 14830 C 1351.73 2.12202 3.69963 0
M  V30 14831 S 1352.56 3.74225 3.83035 0
M  V30 14832 C 1353.72 3.46542 5.2121 0
M  V30 14833 H 1353.95 2.23113 1.96489 0
M  V30 14834 H 1351.48 1.23378 0.92829 0
M  V30 14835 H 1353.44 0.818612 4.02255 0
M  V30 14836 H 1352.1 0.0526544 3.14056 0
M  V30 14837 H 1351.3 1.86834 4.68091 0
M  V30 14838 H 1350.9 2.24778 2.98916 0
M  V30 14839 H 1353.19 3.01845 6.06544 0
M  V30 14840 H 1354.13 4.44016 5.51593 0
M  V30 14841 H 1354.54 2.81353 4.89388 0
M  V30 14842 N 1353.94 -0.993397 1.22349 0
M  V30 14843 C 1354.89 -2.10463 0.990358 0
M  V30 14844 C 1355.88 -1.6927 -0.0663528 0
M  V30 14845 O 1357.09 -1.79794 0.0860444 0
M  V30 14846 H 1353.46 -0.688222 0.303075 0
M  V30 14847 H 1355.43 -2.273 1.93333 0
M  V30 14848 C 1354.18 -3.42757 0.584205 0
M  V30 14849 H 1353.51 -3.74896 1.38899 0
M  V30 14850 H 1354.95 -4.21492 0.46049 0
M  V30 14851 C 1353.4 -3.29416 -0.706187 0
M  V30 14852 O 1353.93 -3.61152 -1.75875 0
M  V30 14853 N 1352.14 -2.82601 -0.677148 0
M  V30 14854 H 1351.69 -2.56972 0.179712 0
M  V30 14855 H 1351.65 -2.74056 -1.54081 0
M  V30 14856 N 1355.42 -1.03311 -1.19015 0
M  V30 14857 C 1356.69 -0.646539 -1.84606 0
M  V30 14858 C 1357.07 0.87449 -1.92135 0
M  V30 14859 O 1356.42 1.77291 -1.44154 0
M  V30 14860 C 1356.63 -1.31354 -3.23338 0
M  V30 14861 C 1357.98 -1.43949 -3.99455 0
M  V30 14862 O 1359 -1.27104 -3.32751 0
M  V30 14863 O 1357.86 -1.71328 -5.1895 0
M  V30 14864 H 1354.96 -0.225267 -0.795728 0
M  V30 14865 H 1357.5 -1.13152 -1.2647 0
M  V30 14866 H 1356.28 -2.3521 -3.12717 0
M  V30 14867 H 1355.9 -0.816688 -3.89122 0
M  V30 14868 N 1356.9 1.35099 -0.81154 0
M  V30 14869 C 1358.12 2.03391 -0.405805 0
M  V30 14870 C 1358.55 1.60745 0.97686 0
M  V30 14871 O 1357.9 0.786518 1.63351 0
M  V30 14872 C 1357.95 3.57075 -0.502954 0
M  V30 14873 O 1357.06 4.09577 0.481681 0
M  V30 14874 H 1356.4 0.642203 -0.168733 0
M  V30 14875 H 1358.93 1.72591 -1.0988 0
M  V30 14876 H 1358.94 4.06277 -0.37456 0
M  V30 14877 H 1357.61 3.87463 -1.51145 0
M  V30 14878 H 1356.19 3.71583 0.313115 0
M  V30 14879 N 1358.37 0.56548 1.47106 0
M  V30 14880 C 1359.31 -0.225573 2.27082 0
M  V30 14881 C 1360.28 -0.912747 1.34565 0
M  V30 14882 O 1361.47 -0.930085 1.63956 0
M  V30 14883 C 1358.6 -1.32211 3.1183 0
M  V30 14884 C 1357.64 -0.742615 4.19985 0
M  V30 14885 S 1358.47 0.417211 5.33872 0
M  V30 14886 C 1359.63 -0.680945 6.22185 0
M  V30 14887 H 1359.86 0.453066 2.93828 0
M  V30 14888 H 1357.4 0.351982 1.50334 0
M  V30 14889 H 1359.35 -1.95004 3.61225 0
M  V30 14890 H 1358.02 -1.97262 2.44431 0
M  V30 14891 H 1357.21 -1.56632 4.79043 0
M  V30 14892 H 1356.81 -0.190696 3.73514 0
M  V30 14893 H 1359.1 -1.57099 6.59034 0
M  V30 14894 H 1360.05 -0.127524 7.07985 0
M  V30 14895 H 1360.45 -0.977339 5.55975 0
M  V30 14896 N 1359.85 -1.54672 0.302354 0
M  V30 14897 C 1361.13 -1.92264 -0.359711 0
M  V30 14898 C 1361.51 -1.22973 -1.71583 0
M  V30 14899 O 1360.86 -0.365942 -2.25551 0
M  V30 14900 C 1361.07 -3.4578 -0.473019 0
M  V30 14901 C 1362.42 -4.18044 -0.743252 0
M  V30 14902 O 1363.44 -3.51822 -0.556778 0
M  V30 14903 O 1362.3 -5.35283 -1.10155 0
M  V30 14904 H 1359.39 -0.802112 -0.201359 0
M  V30 14905 H 1361.94 -1.66041 0.350513 0
M  V30 14906 H 1360.71 -3.88342 0.480265 0
M  V30 14907 H 1360.33 -3.78042 -1.23166 0
M  V30 14908 N 1361.33 -0.0301034 -1.57571 0
M  V30 14909 C 1362.56 0.658488 -1.96142 0
M  V30 14910 C 1362.97 1.65606 -0.906644 0
M  V30 14911 O 1362.33 1.82159 0.111441 0
M  V30 14912 C 1362.38 1.364 -3.34779 0
M  V30 14913 O 1362.1 0.4064 -4.36211 0
M  V30 14914 C 1363.6 2.14432 -3.87987 0
M  V30 14915 H 1360.82 0.181496 -0.645988 0
M  V30 14916 H 1363.37 -0.09016 -2.04301 0
M  V30 14917 H 1361.52 2.06404 -3.27836 0
M  V30 14918 H 1361.94 0.907503 -5.16589 0
M  V30 14919 H 1363.41 2.59248 -4.87334 0
M  V30 14920 H 1363.89 2.98377 -3.22285 0
M  V30 14921 H 1364.49 1.49383 -3.98202 0
M  V30 14922 N 1362.81 1.55714 0.243056 0
M  V30 14923 C 1364.03 1.82126 0.992219 0
M  V30 14924 C 1364.46 0.607665 1.78014 0
M  V30 14925 O 1363.82 -0.443351 1.75796 0
M  V30 14926 C 1363.86 3.06314 1.90274 0
M  V30 14927 O 1362.97 2.83499 2.99503 0
M  V30 14928 H 1362.31 0.601082 0.282128 0
M  V30 14929 H 1364.84 2.02904 0.262881 0
M  V30 14930 H 1364.85 3.35849 2.31666 0
M  V30 14931 H 1363.52 3.94282 1.32344 0
M  V30 14932 H 1362.1 2.65141 2.62211 0
M  V30 14933 N 1364.29 -0.50888 1.49158 0
M  V30 14934 C 1365.23 -1.63216 1.6572 0
M  V30 14935 C 1366.23 -1.61117 0.523236 0
M  V30 14936 O 1367.43 -1.6572 0.702629 0
M  V30 14937 H 1363.81 -0.540909 0.522419 0
M  V30 14938 H 1365.78 -1.46397 2.6002 0
M  V30 14939 C 1364.53 -3.01393 1.73372 0
M  V30 14940 H 1363.85 -3.03711 2.6 0
M  V30 14941 H 1365.29 -3.79547 1.88998 0
M  V30 14942 C 1363.75 -3.33509 0.47683 0
M  V30 14943 O 1364.28 -3.99694 -0.400986 0
M  V30 14944 N 1362.49 -2.88579 0.342145 0
M  V30 14945 H 1362.03 -2.34894 1.05747 0
M  V30 14946 H 1361.99 -3.10435 -0.497757 0
M  V30 14947 N 1365.76 -1.381 -0.759346 0
M  V30 14948 C 1366.71 -1.34866 -1.87296 0
M  V30 14949 C 1367.68 -0.212139 -1.6474 0
M  V30 14950 O 1368.87 -0.403464 -1.86485 0
M  V30 14951 C 1366.01 -1.17383 -3.24523 0
M  V30 14952 C 1365.12 -2.40372 -3.5895 0
M  V30 14953 C 1364.25 -2.15665 -4.8545 0
M  V30 14954 C 1363.29 -3.34455 -5.12646 0
M  V30 14955 N 1362.43 -3.0922 -6.30339 0
M  V30 14956 H 1367.27 -2.30072 -1.89396 0
M  V30 14957 H 1364.81 -1.14314 -0.925788 0
M  V30 14958 H 1366.77 -1.05264 -4.03702 0
M  V30 14959 H 1365.4 -0.258182 -3.21766 0
M  V30 14960 H 1364.45 -2.63185 -2.74659 0
M  V30 14961 H 1365.76 -3.28926 -3.74978 0
M  V30 14962 H 1364.91 -2.00649 -5.7256 0
M  V30 14963 H 1363.65 -1.24467 -4.7155 0
M  V30 14964 H 1362.66 -3.49997 -4.24007 0
M  V30 14965 H 1363.88 -4.26521 -5.28448 0
M  V30 14966 H 1361.83 -2.20664 -6.17773 0
M  V30 14967 H 1361.75 -3.91321 -6.46841 0
M  V30 14968 H 1363.01 -2.97847 -7.20352 0
M  V30 14969 N 1367.24 0.986894 -1.22875 0
M  V30 14970 C 1368.15 2.11232 -1.02069 0
M  V30 14971 C 1369.17 1.73969 0.0328424 0
M  V30 14972 O 1370.34 2.00754 -0.161197 0
M  V30 14973 C 1367.41 3.41337 -0.60747 0
M  V30 14974 C 1366.47 3.92665 -1.73531 0
M  V30 14975 C 1365.7 5.1656 -1.34171 0
M  V30 14976 O 1365.93 5.69964 -0.223106 0
M  V30 14977 O 1364.86 5.61791 -2.16041 0
M  V30 14978 H 1368.69 2.3167 -1.96374 0
M  V30 14979 H 1366.27 1.09607 -1.01522 0
M  V30 14980 H 1368.15 4.19613 -0.387661 0
M  V30 14981 H 1366.83 3.22244 0.306653 0
M  V30 14982 H 1365.74 3.15534 -2.0097 0
M  V30 14983 H 1367.07 4.162 -2.62751 0
M  V30 14984 N 1368.72 1.0394 1.18466 0
M  V30 14985 C 1369.63 0.639714 2.2571 0
M  V30 14986 C 1370.65 -0.333431 1.70775 0
M  V30 14987 O 1371.82 -0.188676 2.00514 0
M  V30 14988 C 1368.89 0.007559 3.46699 0
M  V30 14989 C 1367.95 1.02955 4.16772 0
M  V30 14990 C 1367.18 0.427464 5.31985 0
M  V30 14991 O 1367.4 -0.766684 5.65224 0
M  V30 14992 O 1366.34 1.15553 5.90704 0
M  V30 14993 H 1370.16 1.53316 2.6216 0
M  V30 14994 H 1367.75 0.810206 1.25523 0
M  V30 14995 H 1369.63 -0.344404 4.1999 0
M  V30 14996 H 1368.31 -0.859727 3.12074 0
M  V30 14997 H 1367.21 1.43328 3.45554 0
M  V30 14998 H 1368.55 1.86756 4.55393 0
M  V30 14999 N 1370.2 -1.34667 0.818693 0
M  V30 15000 C 1371.15 -2.29595 0.235551 0
M  V30 15001 C 1372.12 -1.53389 -0.63727 0
M  V30 15002 O 1373.3 -1.81777 -0.579804 0
M  V30 15003 C 1370.44 -3.39843 -0.600043 0
M  V30 15004 C 1369.55 -4.30995 0.294553 0
M  V30 15005 C 1368.69 -5.28343 -0.550203 0
M  V30 15006 C 1367.73 -6.11132 0.344043 0
M  V30 15007 N 1366.86 -7.00582 -0.461392 0
M  V30 15008 H 1371.7 -2.78872 1.05044 0
M  V30 15009 H 1369.24 -1.37239 0.529517 0
M  V30 15010 H 1371.2 -4.02443 -1.09978 0
M  V30 15011 H 1369.83 -2.91811 -1.38008 0
M  V30 15012 H 1368.88 -3.69294 0.912483 0
M  V30 15013 H 1370.19 -4.89031 0.982341 0
M  V30 15014 H 1369.35 -5.96374 -1.11459 0
M  V30 15015 H 1368.09 -4.70833 -1.27151 0
M  V30 15016 H 1367.09 -5.42038 0.920608 0
M  V30 15017 H 1368.32 -6.70722 1.0634 0
M  V30 15018 H 1366.26 -6.45546 -1.16645 0
M  V30 15019 H 1366.18 -7.55813 0.168095 0
M  V30 15020 H 1367.45 -7.72946 -1.00867 0
M  V30 15021 O 1371.72 -0.714128 -1.44853 0
M  V30 15022 H 1372.41 -0.258845 -1.91963 0
M  V30 END ATOM
M  V30 BEGIN BOND
M  V30 END BOND
M  V30 END CTAB
M  END
$$$$
