drugbank_target|P06632 2,5-diketo-D-gluconic acid reductase A (DB03461)
 OpenBabel12092120233D

  0  0  0     0  0            999 V3000
M  V30 BEGIN CTAB
M  V30 COUNTS 4193 4245 0 0 0
M  V30 BEGIN ATOM
M  V30 1 H -0.908 1.98254 -0.117106 0
M  V30 2 N 0 1.576 0 0
M  V30 3 C 0.933 2.03868 1.02534 0
M  V30 4 C 1.911 0.928543 1.3348 0
M  V30 5 O 3.095 1.19667 1.45644 0
M  V30 6 C 0.222 2.43627 2.35294 0
M  V30 7 C -0.732 3.65373 2.2001 0
M  V30 8 S 0.101 5.13292 1.52614 0
M  V30 9 C 1.257 5.56322 2.86805 0
M  V30 10 H 1.49 2.90518 0.631377 0
M  V30 11 H -0.977 1.52953 0.210867 0
M  V30 12 H 0.981 2.67203 3.11629 0
M  V30 13 H -0.358 1.57376 2.7183 0
M  V30 14 H -1.165 3.90944 3.18086 0
M  V30 15 H -1.563 3.418 1.51819 0
M  V30 16 H 0.729 5.58782 3.83104 0
M  V30 17 H 1.672 6.56266 2.65933 0
M  V30 18 H 2.08 4.83886 2.90714 0
M  V30 19 N 1.4781 -0.272755 1.55222 0
M  V30 20 C 2.7061 -1.02255 1.79865 0
M  V30 21 C 3.1211 -1.79924 0.572088 0
M  V30 22 O 2.4781 -1.76638 -0.458842 0
M  V30 23 C 2.5291 -1.98094 3.02392 0
M  V30 24 O 2.2501 -1.23572 4.20311 0
M  V30 25 C 3.7511 -2.84884 3.39641 0
M  V30 26 H 0.9711 -0.302057 0.599168 0
M  V30 27 H 3.5151 -0.303465 2.02236 0
M  V30 28 H 1.6701 -2.65465 2.82147 0
M  V30 29 H 2.0841 -1.88172 4.89583 0
M  V30 30 H 3.5581 -3.47927 4.28545 0
M  V30 31 H 4.0351 -3.54665 2.59055 0
M  V30 32 H 4.6411 -2.23003 3.62146 0
M  V30 33 N 2.9562 -1.48159 -0.537278 0
M  V30 34 C 4.2022 -1.56035 -1.29541 0
M  V30 35 C 4.5352 -0.230377 -1.92829 0
M  V30 36 O 3.8102 0.762952 -1.78911 0
M  V30 37 C 4.0932 -2.69323 -2.39034 0
M  V30 38 C 3.9462 -4.12002 -1.80485 0
M  V30 39 C 5.2652 -2.78408 -3.40847 0
M  V30 40 H 2.3842 -0.567992 -0.469632 0
M  V30 41 H 5.0262 -1.80302 -0.599277 0
M  V30 42 H 3.1762 -2.48763 -2.98412 0
M  V30 43 H 4.8482 -4.43981 -1.25215 0
M  V30 44 H 3.0912 -4.19344 -1.11055 0
M  V30 45 H 3.7622 -4.87077 -2.59731 0
M  V30 46 H 6.2382 -2.97012 -2.91416 0
M  V30 47 H 5.1142 -3.59416 -4.14863 0
M  V30 48 H 5.3752 -1.86269 -4.00944 0
M  V30 49 N 4.4343 0.785586 -1.36625 0
M  V30 50 C 5.8453 1.36101 -1.27803 0
M  V30 51 C 6.1963 1.96035 0.0804875 0
M  V30 52 O 5.3213 1.92834 0.982042 0
M  V30 53 C 5.9163 2.47442 -2.31426 0
M  V30 54 C 4.4753 3.00789 -2.26281 0
M  V30 55 C 3.6223 1.73896 -2.15999 0
M  V30 56 H 6.5733 0.586928 -1.47448 0
M  V30 57 H 6.5943 3.2656 -1.95291 0
M  V30 58 H 6.1063 2.03791 -3.30289 0
M  V30 59 H 4.2073 3.48851 -1.30896 0
M  V30 60 H 4.3203 3.57343 -3.19128 0
M  V30 61 H 2.6843 1.9628 -1.62316 0
M  V30 62 H 3.4673 1.32368 -3.16755 0
M  V30 63 N 5.9124 1.20967 1.01018 0
M  V30 64 C 7.1374 1.0503 1.78839 0
M  V30 65 C 7.5624 -0.395752 1.8389 0
M  V30 66 O 6.9204 -1.28529 1.27867 0
M  V30 67 C 6.9684 1.64602 3.2084 0
M  V30 68 O 6.0724 0.887988 4.02726 0
M  V30 69 H 5.4134 0.369987 0.551367 0
M  V30 70 H 7.9434 1.60399 1.27018 0
M  V30 71 H 7.9534 1.68607 3.71532 0
M  V30 72 H 6.6284 2.69841 3.16479 0
M  V30 73 H 5.2054 0.922648 3.61305 0
M  V30 74 N 7.3905 -1.2043 1.01659 0
M  V30 75 C 8.6395 -1.89118 0.701237 0
M  V30 76 C 8.9525 -1.79705 -0.772358 0
M  V30 77 O 10.1585 -2.43528 -1.20026 0
M  V30 78 C 8.6145 -3.39168 1.20388 0
M  V30 79 C 8.2225 -3.57166 2.70438 0
M  V30 80 C 9.9665 -4.1341 0.963953 0
M  V30 81 C 7.8735 -5.01042 3.14183 0
M  V30 82 H 6.8035 -0.708267 0.2586 0
M  V30 83 H 9.4545 -1.36239 1.22927 0
M  V30 84 H 7.8365 -3.91369 0.603824 0
M  V30 85 H 9.0105 -3.15351 3.35992 0
M  V30 86 H 7.3255 -2.96294 2.92572 0
M  V30 87 H 9.9225 -5.19491 1.26621 0
M  V30 88 H 10.2655 -4.16181 -0.099578 0
M  V30 89 H 10.7985 -3.67309 1.52738 0
M  V30 90 H 7.5375 -5.03426 4.19812 0
M  V30 91 H 7.0575 -5.43668 2.53348 0
M  V30 92 H 8.7365 -5.69623 3.0682 0
M  V30 93 N 8.8686 -0.792821 -1.36206 0
M  V30 94 C 10.1146 -0.36733 -1.99446 0
M  V30 95 C 10.4476 1.05917 -1.62774 0
M  V30 96 O 9.7226 1.7324 -0.88421 0
M  V30 97 C 10.0056 -0.535044 -3.56103 0
M  V30 98 C 9.8586 -2.00548 -4.02617 0
M  V30 99 C 11.1776 0.0478191 -4.40074 0
M  V30 100 H 8.2966 -0.134941 -0.724541 0
M  V30 101 H 10.9386 -0.999794 -1.61568 0
M  V30 102 H 9.0886 0.00336329 -3.885 0
M  V30 103 H 10.7606 -2.60521 -3.80692 0
M  V30 104 H 9.0036 -2.50686 -3.54032 0
M  V30 105 H 9.6746 -2.07377 -5.11565 0
M  V30 106 H 12.1506 -0.411822 -4.14057 0
M  V30 107 H 11.0266 -0.0995336 -5.4881 0
M  V30 108 H 11.2876 1.14025 -4.27142 0
M  V30 109 N 10.3467 1.47872 -0.545128 0
M  V30 110 C 11.2767 2.32661 0.197793 0
M  V30 111 C 12.2577 1.43041 0.920504 0
M  V30 112 O 13.4427 1.71912 0.90333 0
M  V30 113 C 10.5727 3.24569 1.23582 0
M  V30 114 C 9.5267 4.23333 0.630323 0
M  V30 115 C 8.8527 5.0448 1.77211 0
M  V30 116 C 10.1527 5.20704 -0.407974 0
M  V30 117 H 11.8467 2.95024 -0.510045 0
M  V30 118 H 9.3927 1.4187 -0.246731 0
M  V30 119 H 11.3457 3.8272 1.76362 0
M  V30 120 H 10.0697 2.60236 1.97344 0
M  V30 121 H 8.7287 3.6639 0.123922 0
M  V30 122 H 8.3767 4.36561 2.49847 0
M  V30 123 H 8.0767 5.71339 1.37281 0
M  V30 124 H 9.6007 5.65487 2.3034 0
M  V30 125 H 11.0147 5.7329 0.033305 0
M  V30 126 H 9.4117 5.95699 -0.725486 0
M  V30 127 H 10.4817 4.66917 -1.30828 0
M  V30 128 N 11.8248 0.280983 1.55075 0
M  V30 129 C 12.7728 -0.619864 2.24188 0
M  V30 130 C 13.7668 -1.15315 1.24092 0
M  V30 131 O 14.9728 -1.1061 1.42005 0
M  V30 132 H 11.3478 -0.218459 0.719569 0
M  V30 133 H 13.3188 -0.0141831 2.98397 0
M  V30 134 C 12.0678 -1.7899 2.98091 0
M  V30 135 H 11.3908 -1.38874 3.74905 0
M  V30 136 H 12.8308 -2.39672 3.49762 0
M  V30 137 C 11.2898 -2.68192 2.03899 0
M  V30 138 O 11.8198 -3.6872 1.594 0
M  V30 139 N 10.0258 -2.35488 1.70275 0
M  V30 140 H 9.5728 -1.53787 2.06658 0
M  V30 141 H 9.5308 -2.95442 1.07524 0
M  V30 142 N 13.3029 -1.57598 0.00835791 0
M  V30 143 C 14.5799 -1.82172 -0.712235 0
M  V30 144 C 14.9599 -0.887873 -1.9152 0
M  V30 145 O 14.3079 0.06146 -2.28417 0
M  V30 146 C 14.5179 -3.30875 -1.11008 0
M  V30 147 C 15.8659 -3.96826 -1.51044 0
M  V30 148 O 16.8899 -3.35248 -1.20364 0
M  V30 149 O 15.7489 -5.05318 -2.08125 0
M  V30 150 H 12.8429 -0.750435 -0.347529 0
M  V30 151 H 15.3889 -1.69665 0.0344523 0
M  V30 152 H 14.1609 -3.90481 -0.252982 0
M  V30 153 H 13.7839 -3.48412 -1.9156 0
M  V30 154 N 14.781 0.264519 -1.55364 0
M  V30 155 C 16.029 0.993021 -1.76021 0
M  V30 156 C 16.35 1.86511 -0.569099 0
M  V30 157 O 15.62 1.91438 0.415735 0
M  V30 158 H 14.2 0.369639 -0.649135 0
M  V30 159 H 16.862 0.286707 -1.9278 0
M  V30 160 H 15.958 1.62502 -2.66457 0
M  V30 161 N 16.2591 1.48442 0.529413 0
M  V30 162 C 17.2071 1.63452 1.65487 0
M  V30 163 C 18.2011 0.500955 1.61823 0
M  V30 164 O 19.4071 0.679695 1.66674 0
M  V30 165 H 15.7821 0.514905 0.548066 0
M  V30 166 H 17.7531 2.57975 1.49971 0
M  V30 167 C 16.5021 1.69196 3.03756 0
M  V30 168 H 15.8251 2.55784 3.07269 0
M  V30 169 H 17.2651 1.83743 3.82119 0
M  V30 170 C 15.7241 0.430765 3.34135 0
M  V30 171 O 16.2541 -0.4561 3.99102 0
M  V30 172 N 14.4601 0.302293 2.89023 0
M  V30 173 H 14.0071 1.02496 2.36331 0
M  V30 174 H 13.9651 -0.540546 3.09718 0
M  V30 175 N 17.7372 -0.778329 1.37039 0
M  V30 176 C 18.9622 -1.57248 1.35233 0
M  V30 177 C 19.3872 -1.87999 -0.0615568 0
M  V30 178 O 18.7452 -1.48734 -1.03672 0
M  V30 179 C 18.7932 -2.86353 2.19167 0
M  V30 180 O 17.8972 -3.80442 1.59178 0
M  V30 181 H 17.2382 -0.476569 0.462362 0
M  V30 182 H 19.7682 -0.963853 1.80474 0
M  V30 183 H 19.7782 -3.35519 2.32145 0
M  V30 184 H 18.4532 -2.63299 3.21942 0
M  V30 185 H 17.0302 -3.39067 1.55203 0
M  V30 186 N 19.2153 -1.21501 -1.00376 0
M  V30 187 C 20.4643 -1.02718 -1.73586 0
M  V30 188 C 20.7773 0.439589 -1.90596 0
M  V30 189 O 21.9833 0.746848 -2.61026 0
M  V30 190 C 20.4393 -1.78929 -3.1227 0
M  V30 191 C 20.0473 -3.29783 -3.03228 0
M  V30 192 C 21.7913 -1.68557 -3.89601 0
M  V30 193 C 19.6983 -3.98479 -4.36999 0
M  V30 194 H 18.6283 -0.380733 -0.650814 0
M  V30 195 H 21.2793 -1.45248 -1.1214 0
M  V30 196 H 19.6613 -1.29192 -3.74333 0
M  V30 197 H 20.8353 -3.86832 -2.50395 0
M  V30 198 H 19.1503 -3.40711 -2.39385 0
M  V30 199 H 21.7473 -2.17211 -4.88593 0
M  V30 200 H 22.0903 -0.644021 -4.11288 0
M  V30 201 H 22.6233 -2.15778 -3.34193 0
M  V30 202 H 19.3623 -5.02841 -4.20513 0
M  V30 203 H 18.8823 -3.46219 -4.89788 0
M  V30 204 H 20.5613 -4.03462 -5.05794 0
M  V30 205 N 20.6934 1.19889 -1.02296 0
M  V30 206 C 22.1044 1.71124 -0.746568 0
M  V30 207 C 22.4554 1.81939 0.734335 0
M  V30 208 O 21.5804 1.48639 1.57275 0
M  V30 209 C 22.1754 3.10804 -1.34857 0
M  V30 210 C 20.7344 3.59323 -1.1209 0
M  V30 211 C 19.8814 2.3635 -1.45031 0
M  V30 212 H 22.8324 1.04813 -1.19163 0
M  V30 213 H 22.8534 3.73186 -0.742437 0
M  V30 214 H 22.3654 3.029 -2.42638 0
M  V30 215 H 20.4664 3.7255 -0.0610337 0
M  V30 216 H 20.5794 4.4378 -1.80544 0
M  V30 217 H 18.9434 2.39399 -0.869487 0
M  V30 218 H 19.7264 2.31081 -2.53883 0
M  V30 219 N 22.1715 0.800033 1.35784 0
M  V30 220 C 23.1035 0.163596 2.28615 0
M  V30 221 C 24.1165 -0.633317 1.49976 0
M  V30 222 O 25.3055 -0.466754 1.72289 0
M  V30 223 C 22.4055 -0.790958 3.29541 0
M  V30 224 C 21.5785 -0.0418255 4.3738 0
M  V30 225 C 20.6375 -0.91389 5.18203 0
M  V30 226 O 19.6635 -0.367234 5.68014 0
M  V30 227 N 20.8655 -2.23682 5.35674 0
M  V30 228 H 23.6305 0.96105 2.83873 0
M  V30 229 H 21.1915 0.654894 1.48063 0
M  V30 230 H 23.1835 -1.37844 3.80501 0
M  V30 231 H 21.7535 -1.48925 2.74846 0
M  V30 232 H 20.9735 0.726813 3.87442 0
M  V30 233 H 22.2615 0.474719 5.06581 0
M  V30 234 H 21.6595 -2.70497 4.96838 0
M  V30 235 H 20.2165 -2.77369 5.89839 0
M  V30 236 N 23.6496 -1.47581 0.552962 0
M  V30 237 C 24.5796 -2.32762 -0.185451 0
M  V30 238 C 25.5606 -1.43527 -0.912905 0
M  V30 239 O 26.7456 -1.72388 -0.894201 0
M  V30 240 C 23.8756 -3.25219 -1.21859 0
M  V30 241 C 22.8296 -4.23661 -0.607864 0
M  V30 242 C 22.1556 -5.05413 -1.74533 0
M  V30 243 C 23.4556 -5.20481 0.435582 0
M  V30 244 H 25.1496 -2.94749 0.525684 0
M  V30 245 H 22.6956 -1.41738 0.254251 0
M  V30 246 H 24.6486 -3.8365 -1.7433 0
M  V30 247 H 23.3726 -2.61279 -1.95961 0
M  V30 248 H 22.0316 -3.66451 -0.104489 0
M  V30 249 H 21.6796 -4.3788 -2.47529 0
M  V30 250 H 21.3796 -5.72059 -1.34249 0
M  V30 251 H 22.9036 -5.66701 -2.27338 0
M  V30 252 H 24.3176 -5.733 -0.00290157 0
M  V30 253 H 22.7146 -5.95305 0.757067 0
M  V30 254 H 23.7846 -4.66217 1.33303 0
M  V30 255 N 25.1277 -0.289203 -1.54924 0
M  V30 256 C 26.3757 0.322879 -1.99504 0
M  V30 257 C 26.6967 1.55313 -1.1791 0
M  V30 258 O 25.9667 1.94001 -0.272097 0
M  V30 259 H 24.5467 0.122291 -0.736922 0
M  V30 260 H 27.2087 -0.397802 -1.90797 0
M  V30 261 H 26.3047 0.603061 -3.06218 0
M  V30 262 N 26.6058 1.57591 -0.0167156 0
M  V30 263 C 27.8358 1.95292 0.674149 0
M  V30 264 C 28.2438 0.891097 1.66901 0
M  V30 265 O 27.5868 -0.136908 1.83189 0
M  V30 266 C 27.6488 3.29072 1.44747 0
M  V30 267 C 27.3128 4.52879 0.612331 0
M  V30 268 C 28.3098 5.1979 -0.107126 0
M  V30 269 C 25.9948 4.99242 0.553381 0
M  V30 270 C 27.9888 6.31375 -0.874339 0
M  V30 271 C 25.6758 6.10713 -0.217546 0
M  V30 272 C 26.6738 6.76637 -0.930123 0
M  V30 273 O 26.3618 7.85969 -1.68844 0
M  V30 274 H 26.0938 0.648275 0.191615 0
M  V30 275 H 28.6478 2.05284 -0.0690148 0
M  V30 276 H 26.8778 3.15535 2.2355 0
M  V30 277 H 28.5668 3.51764 2.02526 0
M  V30 278 H 29.3328 4.84948 -0.0708392 0
M  V30 279 H 25.2118 4.47744 1.09757 0
M  V30 280 H 28.7558 6.82764 -1.43106 0
M  V30 281 H 24.6528 6.44994 -0.255593 0
M  V30 282 H 25.4208 8.02571 -1.6069 0
M  V30 283 N 28.0839 -0.256276 1.55502 0
M  V30 284 C 29.3319 -0.983672 1.76545 0
M  V30 285 C 29.6529 -1.86206 0.578982 0
M  V30 286 O 28.9229 -1.91656 -0.405577 0
M  V30 287 H 27.5029 -0.366191 0.651086 0
M  V30 288 H 30.1649 -0.276479 1.92929 0
M  V30 289 H 29.2609 -1.61087 2.67315 0
M  V30 290 N 29.562 -1.4872 -0.521534 0
M  V30 291 C 30.808 -1.574 -1.27879 0
M  V30 292 C 31.141 -0.250817 -1.92573 0
M  V30 293 O 30.416 0.743934 -1.79711 0
M  V30 294 C 30.699 -2.71843 -2.36164 0
M  V30 295 C 30.552 -4.13893 -1.76105 0
M  V30 296 C 31.871 -2.82008 -3.37875 0
M  V30 297 H 28.99 -0.572941 -0.463581 0
M  V30 298 H 31.632 -1.80927 -0.580119 0
M  V30 299 H 29.782 -2.51914 -2.95756 0
M  V30 300 H 31.454 -4.45284 -1.20499 0
M  V30 301 H 29.697 -4.20498 -1.06601 0
M  V30 302 H 30.368 -4.89804 -2.5455 0
M  V30 303 H 32.844 -3.00086 -2.88249 0
M  V30 304 H 31.72 -3.63796 -4.11028 0
M  V30 305 H 31.981 -1.90511 -3.98946 0
M  V30 306 N 31.0401 0.771051 -1.3745 0
M  V30 307 C 32.2871 1.52963 -1.32697 0
M  V30 308 C 32.6151 1.94299 0.0883274 0
M  V30 309 O 31.8701 1.64397 1.0617 0
M  V30 310 C 32.1691 2.80676 -2.2126 0
M  V30 311 C 31.8351 2.58389 -3.69521 0
M  V30 312 C 30.4971 2.52019 -4.09927 0
M  V30 313 C 32.8491 2.38469 -4.63446 0
M  V30 314 C 30.1771 2.23721 -5.42371 0
M  V30 315 C 32.5291 2.11694 -5.96128 0
M  V30 316 C 31.1931 2.03769 -6.35637 0
M  V30 317 H 30.4631 0.559732 -0.485573 0
M  V30 318 H 33.1101 0.888083 -1.69662 0
M  V30 319 H 31.4151 3.49392 -1.77291 0
M  V30 320 H 33.1121 3.38557 -2.14895 0
M  V30 321 H 29.7021 2.6421 -3.37478 0
M  V30 322 H 33.8861 2.4238 -4.33089 0
M  V30 323 H 29.1421 2.16081 -5.71943 0
M  V30 324 H 33.3161 1.9528 -6.6846 0
M  V30 325 H 30.9431 1.81606 -7.38189 0
M  V30 326 N 32.5182 1.22032 0.997298 0
M  V30 327 C 33.4652 0.986467 2.08656 0
M  V30 328 C 34.4352 -0.0902671 1.65855 0
M  V30 329 O 35.6202 0.0584294 1.90711 0
M  V30 330 C 32.7602 0.565569 3.40434 0
M  V30 331 C 31.8732 1.71259 3.96604 0
M  V30 332 C 31.0082 1.24011 5.16522 0
M  V30 333 C 30.0472 2.35896 5.64818 0
M  V30 334 N 29.1842 1.89726 6.7598 0
M  V30 335 H 34.0242 1.91892 2.27994 0
M  V30 336 H 31.5612 0.956199 1.11782 0
M  V30 337 H 33.5192 0.302738 4.161 0
M  V30 338 H 32.1492 -0.329879 3.2111 0
M  V30 339 H 31.2012 2.08986 3.17851 0
M  V30 340 H 32.5132 2.55436 4.28432 0
M  V30 341 H 31.6672 0.934395 5.99461 0
M  V30 342 H 30.4062 0.368487 4.86306 0
M  V30 343 H 29.4112 2.67261 4.8047 0
M  V30 344 H 30.6362 3.23567 5.97061 0
M  V30 345 H 28.5822 1.0492 6.47555 0
M  V30 346 H 28.4992 2.67471 7.07103 0
M  V30 347 H 29.7672 1.62211 7.62435 0
M  V30 348 N 33.9963 -1.19345 1.0293 0
M  V30 349 C 35.2423 -1.89318 0.727083 0
M  V30 350 C 35.5753 -1.79446 -0.742483 0
M  V30 351 O 34.8503 -1.1871 -1.54072 0
M  V30 352 C 35.1333 -3.40238 1.17942 0
M  V30 353 C 34.9863 -3.58979 2.71024 0
M  V30 354 C 36.3053 -4.33479 0.760548 0
M  V30 355 H 33.4243 -0.687475 0.265606 0
M  V30 356 H 36.0663 -1.40477 1.2793 0
M  V30 357 H 34.2163 -3.81964 0.709608 0
M  V30 358 H 35.8883 -3.26421 3.25955 0
M  V30 359 H 34.1313 -3.02018 3.11396 0
M  V30 360 H 34.8023 -4.64823 2.9773 0
M  V30 361 H 37.2783 -3.99469 1.16464 0
M  V30 362 H 36.1543 -5.37664 1.10493 0
M  V30 363 H 36.4153 -4.40813 -0.337063 0
M  V30 364 N 35.4744 -0.807222 -1.35358 0
M  V30 365 C 36.8854 -0.44876 -1.81226 0
M  V30 366 C 37.2364 1.02929 -1.67033 0
M  V30 367 O 36.3614 1.79991 -1.20133 0
M  V30 368 C 36.9564 -0.807774 -3.2903 0
M  V30 369 C 35.5154 -0.501901 -3.73039 0
M  V30 370 C 34.6624 -1.03304 -2.57339 0
M  V30 371 H 37.6134 -0.998808 -1.23327 0
M  V30 372 H 37.6344 -0.10554 -3.80354 0
M  V30 373 H 37.1464 -1.88357 -3.39328 0
M  V30 374 H 35.2474 0.565128 -3.68289 0
M  V30 375 H 35.3604 -1.03497 -4.67787 0
M  V30 376 H 33.7244 -0.455339 -2.50597 0
M  V30 377 H 34.5074 -2.11496 -2.70415 0
M  V30 378 N 36.9525 1.47285 -0.560781 0
M  V30 379 C 38.3635 1.86258 -0.128343 0
M  V30 380 C 38.7145 1.46699 1.30284 0
M  V30 381 O 37.8395 0.871698 1.98067 0
M  V30 382 C 38.4345 3.38044 -0.22614 0
M  V30 383 C 36.9935 3.76096 0.151283 0
M  V30 384 C 36.1405 2.71335 -0.572084 0
M  V30 385 H 39.0915 1.38752 -0.770297 0
M  V30 386 H 39.1125 3.76441 0.554322 0
M  V30 387 H 38.6245 3.66806 -1.26788 0
M  V30 388 H 36.7255 3.52951 1.19399 0
M  V30 389 H 36.8385 4.78641 -0.209765 0
M  V30 390 H 35.2025 2.54696 -0.0147653 0
M  V30 391 H 35.9855 3.02938 -1.61504 0
M  V30 392 N 38.4306 0.297415 1.54768 0
M  V30 393 C 39.3936 -0.567375 2.22066 0
M  V30 394 C 40.3936 -1.06409 1.20556 0
M  V30 395 O 41.5836 -0.960691 1.45315 0
M  V30 396 C 38.7156 -1.78517 2.90421 0
M  V30 397 H 39.9086 0.0205534 2.99893 0
M  V30 398 H 37.4616 0.0482163 1.56226 0
M  V30 399 H 38.1966 -2.41303 2.16664 0
M  V30 400 H 37.9816 -1.43669 3.64831 0
M  V30 401 H 39.4716 -2.39964 3.41771 0
M  V30 402 N 39.9087 -1.5758 0.0250728 0
M  V30 403 C 41.1857 -1.82917 -0.692873 0
M  V30 404 C 41.5657 -0.908137 -1.90568 0
M  V30 405 O 40.9137 0.0372298 -2.2847 0
M  V30 406 C 41.1237 -3.32034 -1.07492 0
M  V30 407 C 42.4717 -3.98406 -1.46826 0
M  V30 408 O 43.4957 -3.36505 -1.16801 0
M  V30 409 O 42.3547 -5.07497 -2.02754 0
M  V30 410 H 39.4487 -0.754079 -0.33955 0
M  V30 411 H 41.9947 -1.69619 0.0524456 0
M  V30 412 H 40.7667 -3.90728 -0.211552 0
M  V30 413 H 40.3897 -3.50424 -1.87854 0
M  V30 414 N 41.3868 0.248026 -1.55636 0
M  V30 415 C 42.6148 0.993808 -1.81469 0
M  V30 416 C 43.0298 1.78991 -0.60064 0
M  V30 417 O 42.3868 1.77345 0.430682 0
M  V30 418 C 42.4378 1.93258 -3.05506 0
M  V30 419 O 42.1588 1.16869 -4.22224 0
M  V30 420 C 43.6598 2.79444 -3.4413 0
M  V30 421 H 40.8798 0.292486 -0.603898 0
M  V30 422 H 43.4238 0.271253 -2.02693 0
M  V30 423 H 41.5788 2.60943 -2.86335 0
M  V30 424 H 41.9928 1.80359 -4.92515 0
M  V30 425 H 43.4668 3.41066 -4.34026 0
M  V30 426 H 43.9438 3.50499 -2.64665 0
M  V30 427 H 44.5498 2.17214 -3.65648 0
M  V30 428 N 42.8649 1.48995 0.513639 0
M  V30 429 C 43.7969 1.60836 1.63293 0
M  V30 430 C 44.8099 0.491701 1.55197 0
M  V30 431 O 45.9989 0.763238 1.6136 0
M  V30 432 C 43.0989 1.53731 3.02027 0
M  V30 433 C 42.2719 2.80715 3.35437 0
M  V30 434 C 41.3309 2.66837 4.53525 0
M  V30 435 O 40.3569 3.40753 4.55934 0
M  V30 436 N 41.5589 1.77539 5.52684 0
M  V30 437 H 44.3239 2.57366 1.53566 0
M  V30 438 H 41.8849 1.45925 0.701259 0
M  V30 439 H 43.8769 1.42118 3.78926 0
M  V30 440 H 42.4469 0.651092 3.05744 0
M  V30 441 H 41.6669 3.06772 2.47557 0
M  V30 442 H 42.9549 3.64927 3.54551 0
M  V30 443 H 42.3529 1.16719 5.53528 0
M  V30 444 H 40.9099 1.71856 6.28736 0
M  V30 445 N 44.343 -0.763751 1.37857 0
M  V30 446 C 45.759 -1.06542 1.18832 0
M  V30 447 C 45.959 -2.01478 0.0299722 0
M  V30 448 O 45.015 -2.4458 -0.627447 0
M  V30 449 C 46.328 -1.65525 2.51042 0
M  V30 450 C 47.876 -1.77745 2.57635 0
M  V30 451 C 48.351 -2.4014 3.89996 0
M  V30 452 N 49.842 -2.47582 3.91481 0
M  V30 453 C 50.577 -2.96732 4.9065 0
M  V30 454 N 50.073 -3.45993 6.00217 0
M  V30 455 N 51.866 -2.95679 4.78048 0
M  V30 456 H 44.017 -0.133556 2.1198 0
M  V30 457 H 46.28 -0.121879 0.940133 0
M  V30 458 H 45.986 -1.03236 3.36207 0
M  V30 459 H 45.86 -2.64719 2.68707 0
M  V30 460 H 48.247 -2.39164 1.72872 0
M  V30 461 H 48.328 -0.772836 2.43846 0
M  V30 462 H 47.972 -1.79358 4.75177 0
M  V30 463 H 47.902 -3.41223 4.01092 0
M  V30 464 H 50.393 -2.1273 3.12337 0
M  V30 465 H 50.706 -3.81922 6.7183 0
M  V30 466 H 49.051 -3.44077 6.03851 0
M  V30 467 H 52.242 -2.56499 3.91568 0
M  V30 468 H 52.415 -3.33672 5.55488 0
M  V30 469 N 45.8211 -1.22559 -0.990812 0
M  V30 470 C 46.7841 -0.998863 -2.0629 0
M  V30 471 C 47.7841 0.0354834 -1.60761 0
M  V30 472 O 48.9741 -0.203231 -1.7301 0
M  V30 473 C 46.1061 -0.509203 -3.37076 0
M  V30 474 H 47.2991 -1.95014 -2.27837 0
M  V30 475 H 44.8521 -1.04456 -1.16269 0
M  V30 476 H 45.5871 0.446335 -3.21214 0
M  V30 477 H 45.3721 -1.25547 -3.71457 0
M  V30 478 H 46.8621 -0.370888 -4.1595 0
M  V30 479 N 47.2992 1.18797 -1.03562 0
M  V30 480 C 48.5452 1.8893 -0.737113 0
M  V30 481 C 48.8782 1.79837 0.732956 0
M  V30 482 O 48.1532 1.19525 1.5344 0
M  V30 483 C 48.4362 3.39607 -1.19745 0
M  V30 484 C 48.2892 3.57537 -2.72924 0
M  V30 485 C 49.6082 4.33069 -0.783526 0
M  V30 486 H 46.7272 0.686057 -0.269249 0
M  V30 487 H 49.3692 1.39797 -1.28673 0
M  V30 488 H 47.5192 3.81583 -0.729855 0
M  V30 489 H 49.1912 3.24688 -3.27682 0
M  V30 490 H 47.4342 3.00363 -3.12993 0
M  V30 491 H 48.1052 4.63238 -3.00191 0
M  V30 492 H 50.5812 3.98846 -1.18581 0
M  V30 493 H 49.4572 5.3707 -1.13343 0
M  V30 494 H 49.7182 4.40986 0.313681 0
M  V30 495 N 48.7773 0.814389 1.34928 0
M  V30 496 C 49.6873 0.231978 2.3345 0
M  V30 497 C 50.7033 -0.629139 1.62228 0
M  V30 498 O 51.8793 -0.539052 1.94052 0
M  V30 499 C 48.9443 -0.603482 3.41407 0
M  V30 500 C 48.0053 0.279037 4.28392 0
M  V30 501 C 47.2383 -0.516643 5.31193 0
M  V30 502 O 47.4613 -1.75068 5.4287 0
M  V30 503 O 46.3953 0.0965652 6.01823 0
M  V30 504 H 50.2213 1.04721 2.85074 0
M  V30 505 H 47.8063 0.576343 1.37836 0
M  V30 506 H 49.6883 -1.07908 4.0735 0
M  V30 507 H 48.3633 -1.39618 2.92042 0
M  V30 508 H 47.2703 0.801948 3.65403 0
M  V30 509 H 48.6033 1.03588 4.81176 0
M  V30 510 N 50.2554 -1.46986 0.568584 0
M  V30 511 C 51.1654 -2.33942 -0.17555 0
M  V30 512 C 52.1814 -1.48891 -0.90041 0
M  V30 513 O 53.3574 -1.81794 -0.86676 0
M  V30 514 C 50.4224 -3.25811 -1.18524 0
M  V30 515 C 49.4834 -4.26757 -0.466582 0
M  V30 516 C 48.7164 -5.14236 -1.42817 0
M  V30 517 O 48.9394 -5.04379 -2.66379 0
M  V30 518 O 47.8734 -5.94412 -0.946453 0
M  V30 519 H 51.6994 -2.98896 0.538036 0
M  V30 520 H 49.2844 -1.4573 0.329097 0
M  V30 521 H 51.1664 -3.82527 -1.76779 0
M  V30 522 H 49.8414 -2.63471 -1.88055 0
M  V30 523 H 48.7484 -3.73769 0.157451 0
M  V30 524 H 50.0814 -4.91843 0.187485 0
M  V30 525 N 51.7335 -0.305618 -1.54608 0
M  V30 526 C 52.6965 0.555591 -2.22364 0
M  V30 527 C 53.6965 1.05768 -1.21119 0
M  V30 528 O 54.8865 0.952972 -1.45822 0
M  V30 529 C 52.0185 1.76974 -2.91364 0
M  V30 530 H 53.2115 -0.0364572 -2.99878 0
M  V30 531 H 50.7645 -0.0565007 -1.56198 0
M  V30 532 H 51.4995 2.40151 -2.17941 0
M  V30 533 H 51.2845 1.41732 -3.65588 0
M  V30 534 H 52.7745 2.38148 -3.43038 0
M  V30 535 N 53.2116 1.57565 -0.0334293 0
M  V30 536 C 54.1416 2.13511 0.945265 0
M  V30 537 C 55.1226 1.05231 1.33643 0
M  V30 538 O 56.3076 1.33084 1.41429 0
M  V30 539 C 53.4376 2.6657 2.22616 0
M  V30 540 C 52.3916 3.79676 1.97561 0
M  V30 541 C 51.7176 4.1918 3.31952 0
M  V30 542 C 53.0176 5.0557 1.31135 0
M  V30 543 H 54.7116 2.95538 0.479325 0
M  V30 544 H 52.2576 1.42166 0.229115 0
M  V30 545 H 54.2106 3.04344 2.91466 0
M  V30 546 H 52.9346 1.8171 2.71384 0
M  V30 547 H 51.5936 3.42347 1.31127 0
M  V30 548 H 51.2416 3.31296 3.78487 0
M  V30 549 H 50.9416 4.95402 3.15992 0
M  V30 550 H 52.4656 4.59541 4.02063 0
M  V30 551 H 53.8796 5.40903 1.89992 0
M  V30 552 H 52.2766 5.86818 1.25559 0
M  V30 553 H 53.3466 4.84062 0.284894 0
M  V30 554 N 54.6897 -0.239769 1.55765 0
M  V30 555 C 55.5997 -1.31831 1.94056 0
M  V30 556 C 56.6157 -1.52275 0.841925 0
M  V30 557 O 57.7917 -1.65759 1.14394 0
M  V30 558 C 54.8567 -2.65156 2.23368 0
M  V30 559 C 53.9177 -2.53173 3.46701 0
M  V30 560 C 53.1507 -3.8014 3.74606 0
M  V30 561 O 53.3737 -4.82343 3.04469 0
M  V30 562 O 52.3077 -3.78344 4.68123 0
M  V30 563 H 56.1337 -1.02347 2.85935 0
M  V30 564 H 53.7187 -0.441123 1.42739 0
M  V30 565 H 55.6007 -3.43929 2.43497 0
M  V30 566 H 54.2757 -2.94358 1.34666 0
M  V30 567 H 53.1827 -1.72662 3.31871 0
M  V30 568 H 54.5157 -2.28915 4.35728 0
M  V30 569 N 56.1678 -1.49265 -0.50573 0
M  V30 570 C 57.4138 -1.58748 -1.26202 0
M  V30 571 C 57.7468 -0.271227 -1.92297 0
M  V30 572 O 57.0218 0.724831 -1.80489 0
M  V30 573 C 57.3048 -2.74332 -2.33268 0
M  V30 574 C 57.1578 -4.15737 -1.71705 0
M  V30 575 C 58.4768 -2.85576 -3.34865 0
M  V30 576 H 55.5958 -0.577826 -0.457478 0
M  V30 577 H 58.2378 -1.81532 -0.560897 0
M  V30 578 H 56.3878 -2.55036 -2.93068 0
M  V30 579 H 58.0598 -4.46537 -1.15769 0
M  V30 580 H 56.3028 -4.21605 -1.02135 0
M  V30 581 H 56.9738 -4.92477 -2.49341 0
M  V30 582 H 59.4498 -3.03127 -2.8505 0
M  V30 583 H 58.3258 -3.68135 -4.07146 0
M  V30 584 H 58.5868 -1.94732 -3.96903 0
M  V30 585 N 57.6459 0.756429 -1.3826 0
M  V30 586 C 58.8939 1.51248 -1.34047 0
M  V30 587 C 59.2149 1.94875 0.0698372 0
M  V30 588 O 58.4849 1.67436 1.01696 0
M  V30 589 H 57.0649 0.561018 -0.493222 0
M  V30 590 H 59.7269 0.899347 -1.7291 0
M  V30 591 H 58.8229 2.40472 -1.98947 0
M  V30 592 N 59.124 1.23083 0.984299 0
M  V30 593 C 60.354 1.08556 1.75781 0
M  V30 594 C 60.762 -0.366171 1.85623 0
M  V30 595 O 60.105 -1.26524 1.33182 0
M  V30 596 C 60.167 1.63208 3.20318 0
M  V30 597 C 59.831 3.11922 3.33997 0
M  V30 598 C 60.828 4.09259 3.2063 0
M  V30 599 C 58.513 3.51552 3.58771 0
M  V30 600 C 60.507 5.4421 3.31835 0
M  V30 601 C 58.194 4.86649 3.69616 0
M  V30 602 C 59.192 5.82787 3.56157 0
M  V30 603 O 58.88 7.15431 3.66626 0
M  V30 604 H 58.612 0.380713 0.5586 0
M  V30 605 H 61.166 1.63321 1.2456 0
M  V30 606 H 59.396 1.0286 3.72769 0
M  V30 607 H 61.085 1.44216 3.79416 0
M  V30 608 H 61.851 3.79984 3.01392 0
M  V30 609 H 57.73 2.77239 3.6832 0
M  V30 610 H 61.274 6.1923 3.21247 0
M  V30 611 H 57.171 5.15601 3.88363 0
M  V30 612 H 57.939 7.23127 3.83445 0
M  V30 613 N 60.6021 -1.18246 1.0419 0
M  V30 614 C 62.0181 -1.40269 0.761366 0
M  V30 615 C 62.2181 -1.90777 -0.648578 0
M  V30 616 O 61.2741 -2.0929 -1.41258 0
M  V30 617 C 62.5871 -2.40237 1.8085 0
M  V30 618 C 64.1351 -2.53961 1.82955 0
M  V30 619 C 64.6101 -3.57194 2.86664 0
M  V30 620 N 66.1011 -3.64702 2.85563 0
M  V30 621 C 66.8361 -4.44309 3.6246 0
M  V30 622 N 66.3321 -5.27514 4.49111 0
M  V30 623 N 68.1251 -4.39084 3.50944 0
M  V30 624 H 60.2761 -0.837882 1.95175 0
M  V30 625 H 62.5391 -0.430608 0.84456 0
M  V30 626 H 62.2451 -2.10176 2.81991 0
M  V30 627 H 62.1191 -3.39601 1.64168 0
M  V30 628 H 64.5061 -2.83338 0.824855 0
M  V30 629 H 64.5871 -1.54706 2.03715 0
M  V30 630 H 64.2311 -3.28558 3.87314 0
M  V30 631 H 64.1611 -4.5613 2.6316 0
M  V30 632 H 66.6521 -3.05289 2.22727 0
M  V30 633 H 66.9651 -5.85411 5.04493 0
M  V30 634 H 65.3101 -5.2693 4.53178 0
M  V30 635 H 68.5011 -3.7313 2.82651 0
M  V30 636 H 68.6741 -5.00883 4.11121 0
M  V30 637 N 62.0802 -0.821533 -1.34494 0
M  V30 638 C 63.0302 -0.214793 -2.26986 0
M  V30 639 C 64.0142 0.620125 -1.4847 0
M  V30 640 O 65.2062 0.474933 -1.70509 0
M  V30 641 C 62.3352 0.623566 -3.37589 0
M  V30 642 C 61.4212 -0.221904 -4.23519 0
M  V30 643 N 61.8122 -1.29223 -4.89014 0
M  V30 644 C 60.1102 -0.00600922 -4.46 0
M  V30 645 C 60.8112 -1.80965 -5.52835 0
M  V30 646 N 59.7872 -1.11376 -5.32068 0
M  V30 647 H 63.5892 -1.03354 -2.75128 0
M  V30 648 H 61.1032 -0.6642 -1.48196 0
M  V30 649 H 63.1002 1.0744 -4.02818 0
M  V30 650 H 61.7602 1.44049 -2.90998 0
M  V30 651 H 62.7712 -1.67502 -4.90065 0
M  V30 652 H 59.4482 0.77886 -4.10171 0
M  V30 653 H 60.8382 -2.70502 -6.15043 0
M  V30 654 N 63.5583 1.46682 -0.576371 0
M  V30 655 C 64.8073 2.01619 -0.0572825 0
M  V30 656 C 65.1203 1.45417 1.30818 0
M  V30 657 O 66.3263 1.92133 1.91825 0
M  V30 658 C 64.7823 3.59863 -0.0518371 0
M  V30 659 C 64.3903 4.25059 -1.41523 0
M  V30 660 C 66.1343 4.2248 0.413639 0
M  V30 661 C 64.0413 5.75364 -1.36785 0
M  V30 662 H 62.9713 0.753794 -0.0176448 0
M  V30 663 H 65.6223 1.68481 -0.727076 0
M  V30 664 H 64.0043 3.90048 0.683994 0
M  V30 665 H 65.1783 4.06491 -2.17029 0
M  V30 666 H 63.4933 3.7451 -1.8202 0
M  V30 667 H 66.0903 5.3265 0.467779 0
M  V30 668 H 66.4333 3.90976 1.42982 0
M  V30 669 H 66.9663 3.96897 -0.267929 0
M  V30 670 H 63.7053 6.11518 -2.36063 0
M  V30 671 H 63.2253 5.96214 -0.654895 0
M  V30 672 H 64.9043 6.37955 -1.07805 0
M  V30 673 N 65.0364 0.313813 1.54444 0
M  V30 674 C 66.3134 -0.345447 1.92525 0
M  V30 675 C 66.6934 -1.70667 1.24242 0
M  V30 676 O 66.0414 -2.25273 0.382654 0
M  V30 677 C 66.2514 -0.44737 3.46121 0
M  V30 678 C 67.5994 -0.712238 4.18584 0
M  V30 679 O 68.6234 -0.530678 3.52225 0
M  V30 680 O 67.4824 -1.06183 5.36085 0
M  V30 681 H 64.5764 -0.195407 0.803583 0
M  V30 682 H 67.1224 0.362813 1.65776 0
M  V30 683 H 65.8944 0.509043 3.87975 0
M  V30 684 H 65.5174 -1.20359 3.78945 0
M  V30 685 N 66.5145 -1.57545 0.0417849 0
M  V30 686 C 67.7425 -1.96624 -0.643928 0
M  V30 687 C 68.1575 -0.918897 -1.64929 0
M  V30 688 O 67.5145 0.0979323 -1.82237 0
M  V30 689 C 67.5655 -3.35781 -1.33914 0
M  V30 690 O 67.2865 -4.365 -0.374048 0
M  V30 691 C 68.7875 -3.89566 -2.1155 0
M  V30 692 H 66.0075 -0.647316 -0.176702 0
M  V30 693 H 68.5515 -2.04229 0.105304 0
M  V30 694 H 66.7065 -3.29357 -2.03968 0
M  V30 695 H 67.1205 -5.17248 -0.869179 0
M  V30 696 H 68.5945 -4.89242 -2.55628 0
M  V30 697 H 69.0715 -3.24488 -2.9598 0
M  V30 698 H 69.6775 -3.99298 -1.46427 0
M  V30 699 N 67.9926 0.231505 -1.5589 0
M  V30 700 C 68.9556 1.27028 -1.90779 0
M  V30 701 C 69.9556 1.40308 -0.785507 0
M  V30 702 O 71.1456 1.38744 -1.05336 0
M  V30 703 C 68.2776 2.64566 -2.14983 0
M  V30 704 H 69.4706 0.973017 -2.83677 0
M  V30 705 H 67.0236 0.471486 -1.49019 0
M  V30 706 H 67.7586 2.99406 -1.24604 0
M  V30 707 H 67.5436 2.56305 -2.96732 0
M  V30 708 H 69.0336 3.39543 -2.43105 0
M  V30 709 N 69.4707 1.49531 0.497807 0
M  V30 710 C 70.4337 1.65916 1.58128 0
M  V30 711 C 71.4337 0.530825 1.51786 0
M  V30 712 O 72.6237 0.797342 1.54881 0
M  V30 713 C 69.7557 1.65951 2.9778 0
M  V30 714 H 70.9487 2.62556 1.44929 0
M  V30 715 H 68.5017 1.38611 0.722275 0
M  V30 716 H 69.2367 0.709065 3.16453 0
M  V30 717 H 69.0217 2.47897 3.03792 0
M  V30 718 H 70.5117 1.80673 3.76493 0
M  V30 719 N 70.9488 -0.749086 1.3866 0
M  V30 720 C 72.1978 -1.50371 1.3443 0
M  V30 721 C 72.5108 -1.95503 -0.0616397 0
M  V30 722 O 73.7168 -2.70554 -0.226489 0
M  V30 723 C 72.1728 -2.71644 2.36088 0
M  V30 724 C 71.7808 -2.3352 3.82325 0
M  V30 725 C 73.5248 -3.49518 2.40909 0
M  V30 726 C 71.4318 -3.51431 4.75658 0
M  V30 727 H 70.3618 -0.564628 0.499712 0
M  V30 728 H 73.0128 -0.818449 1.64237 0
M  V30 729 H 71.3948 -3.42175 1.9933 0
M  V30 730 H 72.5688 -1.70627 4.28046 0
M  V30 731 H 70.8838 -1.6877 3.80665 0
M  V30 732 H 73.4808 -4.37197 3.07836 0
M  V30 733 H 73.8238 -3.90992 1.42937 0
M  V30 734 H 74.3568 -2.86005 2.76489 0
M  V30 735 H 71.0958 -3.15019 5.74842 0
M  V30 736 H 70.6158 -4.13352 4.34627 0
M  V30 737 H 72.2948 -4.17953 4.93887 0
M  V30 738 N 72.4269 -1.23603 -0.977757 0
M  V30 739 C 73.6569 -1.09487 -1.75203 0
M  V30 740 C 74.0649 0.356321 -1.85814 0
M  V30 741 O 73.4079 1.25816 -1.33851 0
M  V30 742 C 73.4699 -1.64905 -3.19447 0
M  V30 743 C 73.1339 -3.13688 -3.32338 0
M  V30 744 C 74.1309 -4.10953 -3.18455 0
M  V30 745 C 71.8159 -3.53449 -3.56902 0
M  V30 746 C 73.8099 -5.45962 -3.28944 0
M  V30 747 C 71.4969 -4.88602 -3.6703 0
M  V30 748 C 72.4949 -5.84668 -3.53062 0
M  V30 749 O 72.1829 -7.17365 -3.62826 0
M  V30 750 H 71.9149 -0.38367 -0.556573 0
M  V30 751 H 74.4689 -1.6398 -1.23693 0
M  V30 752 H 72.6989 -1.04835 -3.72218 0
M  V30 753 H 74.3879 -1.46226 -3.78646 0
M  V30 754 H 75.1539 -3.81577 -2.99372 0
M  V30 755 H 71.0329 -2.79188 -3.66844 0
M  V30 756 H 74.5769 -6.20925 -3.17958 0
M  V30 757 H 70.4739 -5.17653 -3.85623 0
M  V30 758 H 71.2419 -7.2515 -3.79605 0
M  V30 759 N 73.905 1.17692 -1.04816 0
M  V30 760 C 75.153 1.87488 -0.754497 0
M  V30 761 C 75.474 1.81205 0.720407 0
M  V30 762 O 74.744 1.23544 1.52032 0
M  V30 763 H 73.324 0.694101 -0.276102 0
M  V30 764 H 75.986 1.42793 -1.32651 0
M  V30 765 H 75.082 2.93328 -1.06606 0
M  V30 766 N 75.3831 0.828654 1.34056 0
M  V30 767 C 76.3311 0.242973 2.31327 0
M  V30 768 C 77.3251 -0.61944 1.57668 0
M  V30 769 O 78.5311 -0.51014 1.7262 0
M  V30 770 H 74.9061 0.059834 0.749616 0
M  V30 771 H 76.8771 1.07809 2.78244 0
M  V30 772 C 75.6261 -0.575733 3.429 0
M  V30 773 H 74.9491 0.0785582 3.99723 0
M  V30 774 H 76.3891 -0.951547 4.13185 0
M  V30 775 C 74.8481 -1.75044 2.87856 0
M  V30 776 O 75.3781 -2.84882 2.83205 0
M  V30 777 N 73.5841 -1.56903 2.44602 0
M  V30 778 H 73.1311 -0.675547 2.48584 0
M  V30 779 H 73.0891 -2.35652 2.08124 0
M  V30 780 N 76.8612 -1.46375 0.584142 0
M  V30 781 C 77.7712 -2.34115 -0.150728 0
M  V30 782 C 78.7872 -1.49838 -0.884567 0
M  V30 783 O 79.9632 -1.82704 -0.847429 0
M  V30 784 C 77.0282 -3.2705 -1.15062 0
M  V30 785 C 76.0892 -4.27228 -0.421293 0
M  V30 786 C 75.3222 -5.15722 -1.37355 0
M  V30 787 O 75.5452 -5.07176 -2.61014 0
M  V30 788 O 74.4792 -5.95383 -0.883355 0
M  V30 789 H 78.3052 -2.98309 0.569708 0
M  V30 790 H 75.8902 -1.45373 0.344535 0
M  V30 791 H 77.7722 -3.84381 -1.72712 0
M  V30 792 H 76.4472 -2.65451 -1.8525 0
M  V30 793 H 75.3542 -3.7358 0.197085 0
M  V30 794 H 76.6872 -4.91616 0.239641 0
M  V30 795 N 78.3393 -0.321999 -1.54275 0
M  V30 796 C 79.2493 0.553631 -2.27974 0
M  V30 797 C 80.2653 1.13054 -1.32268 0
M  V30 798 O 81.4413 1.15084 -1.6528 0
M  V30 799 C 78.5063 1.69927 -3.02201 0
M  V30 800 C 77.5673 1.15433 -4.1349 0
M  V30 801 C 76.8003 2.24537 -4.84168 0
M  V30 802 O 77.0233 3.44852 -4.5435 0
M  V30 803 O 75.9573 1.90044 -5.7111 0
M  V30 804 H 79.7833 -0.0448345 -3.03667 0
M  V30 805 H 77.3683 -0.0877418 -1.49142 0
M  V30 806 H 79.2503 2.3663 -3.48689 0
M  V30 807 H 77.9253 2.28395 -2.29385 0
M  V30 808 H 76.8323 0.452436 -3.71354 0
M  V30 809 H 78.1653 0.614805 -4.88345 0
M  V30 810 N 79.8174 1.5752 -0.0501392 0
M  V30 811 C 81.0654 1.9227 0.622642 0
M  V30 812 C 81.3864 0.929083 1.71444 0
M  V30 813 O 80.6564 -0.0262186 1.95882 0
M  V30 814 H 79.2364 0.709739 0.232981 0
M  V30 815 H 81.8984 1.94628 -0.102898 0
M  V30 816 H 80.9944 2.93479 1.06191 0
M  V30 817 N 81.2955 -0.223234 1.56011 0
M  V30 818 C 82.5415 -0.949279 1.79211 0
M  V30 819 C 82.8745 -1.84054 0.619494 0
M  V30 820 O 82.1495 -1.90726 -0.381317 0
M  V30 821 C 82.4325 -1.78965 3.12479 0
M  V30 822 C 82.2855 -0.924997 4.40186 0
M  V30 823 C 83.6045 -2.76774 3.42175 0
M  V30 824 H 80.7235 -0.343676 0.651963 0
M  V30 825 H 83.3655 -0.218253 1.88742 0
M  V30 826 H 81.5155 -2.41291 3.04485 0
M  V30 827 H 83.1875 -0.318615 4.60198 0
M  V30 828 H 81.4305 -0.230344 4.33188 0
M  V30 829 H 82.1015 -1.54735 5.29869 0
M  V30 830 H 84.5775 -2.24584 3.50287 0
M  V30 831 H 83.4535 -3.32678 4.36597 0
M  V30 832 H 83.7145 -3.54429 2.64258 0
M  V30 833 N 82.7736 -1.49793 -0.48987 0
M  V30 834 C 84.0216 -1.59525 -1.24081 0
M  V30 835 C 84.3426 -0.288953 -1.92847 0
M  V30 836 O 83.6126 0.692436 -1.83254 0
M  V30 837 H 82.1926 -0.587796 -0.460983 0
M  V30 838 H 84.8546 -1.86477 -0.566778 0
M  V30 839 H 83.9506 -2.39696 -1.99881 0
M  V30 840 N 84.2517 0.741722 -1.39055 0
M  V30 841 C 85.2147 1.83733 -1.37021 0
M  V30 842 C 86.2147 1.58542 -0.268534 0
M  V30 843 O 87.4047 1.66067 -0.526076 0
M  V30 844 C 84.5367 3.2141 -1.13617 0
M  V30 845 H 85.7297 1.86941 -2.34506 0
M  V30 846 H 83.2827 0.944676 -1.24521 0
M  V30 847 H 84.0177 3.23865 -0.167863 0
M  V30 848 H 83.8027 3.4109 -1.93391 0
M  V30 849 H 85.2927 4.01477 -1.14918 0
M  V30 850 N 85.7298 1.2412 0.971189 0
M  V30 851 C 86.6928 1.03156 2.04674 0
M  V30 852 C 87.6928 -0.00990322 1.60797 0
M  V30 853 O 88.8828 0.230729 1.72665 0
M  V30 854 C 86.0148 0.562765 3.36223 0
M  V30 855 H 87.2078 1.98614 2.24705 0
M  V30 856 H 84.7608 1.06293 1.14593 0
M  V30 857 H 85.4958 -0.395176 3.21883 0
M  V30 858 H 85.2808 1.31441 3.69413 0
M  V30 859 H 86.7708 0.437015 4.15307 0
M  V30 860 N 87.2079 -1.17134 1.05439 0
M  V30 861 C 88.4569 -1.86791 0.761049 0
M  V30 862 C 88.7699 -1.82072 -0.714795 0
M  V30 863 O 89.9759 -2.47223 -1.12218 0
M  V30 864 C 88.4319 -3.35166 1.31117 0
M  V30 865 C 88.0399 -3.48381 2.81664 0
M  V30 866 C 89.7839 -4.10134 1.09499 0
M  V30 867 C 87.6909 -4.90793 3.29964 0
M  V30 868 H 86.6209 -0.699681 0.281002 0
M  V30 869 H 89.2719 -1.3226 1.27199 0
M  V30 870 H 87.6539 -3.8925 0.72803 0
M  V30 871 H 88.8279 -3.04502 3.45855 0
M  V30 872 H 87.1429 -2.86836 3.01851 0
M  V30 873 H 89.7399 -5.152 1.43084 0
M  V30 874 H 90.0829 -4.16287 0.0328772 0
M  V30 875 H 90.6159 -3.62264 1.64346 0
M  V30 876 H 87.3549 -4.89816 4.35616 0
M  V30 877 H 86.8749 -5.35333 2.70516 0
M  V30 878 H 88.5539 -5.59573 3.24787 0
M  V30 879 N 88.686 -0.835752 -1.33615 0
M  V30 880 C 89.649 -0.272 -2.2758 0
M  V30 881 C 90.649 0.557487 -1.50827 0
M  V30 882 O 91.839 0.37173 -1.70188 0
M  V30 883 C 88.971 0.617173 -3.35267 0
M  V30 884 H 90.164 -1.10111 -2.78954 0
M  V30 885 H 87.717 -0.608594 -1.43965 0
M  V30 886 H 88.452 1.46884 -2.89129 0
M  V30 887 H 88.237 0.0237066 -3.92093 0
M  V30 888 H 89.727 1.005 -4.05326 0
M  V30 889 N 90.1641 1.46063 -0.591896 0
M  V30 890 C 91.1271 2.28854 0.125973 0
M  V30 891 C 92.1271 1.38903 0.810107 0
M  V30 892 O 93.3171 1.61186 0.66066 0
M  V30 893 C 90.4491 3.19526 1.1881 0
M  V30 894 H 91.6421 2.93802 -0.601717 0
M  V30 895 H 89.1951 1.52325 -0.350254 0
M  V30 896 H 89.9301 2.59345 1.94707 0
M  V30 897 H 89.7151 3.85766 0.701936 0
M  V30 898 H 91.2051 3.81817 1.69132 0
M  V30 899 N 91.6422 0.330177 1.54103 0
M  V30 900 C 92.8672 -0.274893 2.0557 0
M  V30 901 C 93.2922 -1.44487 1.20437 0
M  V30 902 O 92.6502 -1.80021 0.214991 0
M  V30 903 C 92.6982 -0.68079 3.54115 0
M  V30 904 O 91.8022 -1.7824 3.71893 0
M  V30 905 H 91.1432 -0.0483849 0.662235 0
M  V30 906 H 93.6732 0.480508 1.98878 0
M  V30 907 H 93.6832 -0.961635 3.96505 0
M  V30 908 H 92.3582 0.174903 4.15532 0
M  V30 909 H 90.9352 -1.49985 3.41407 0
M  V30 910 N 93.1203 -1.57491 0.0584922 0
M  V30 911 C 94.3683 -1.92597 -0.612436 0
M  V30 912 C 94.6893 -0.938162 -1.70949 0
M  V30 913 O 93.9593 0.0158301 -1.95894 0
M  V30 914 H 92.5393 -0.710964 -0.229214 0
M  V30 915 H 95.2013 -1.94571 0.113218 0
M  V30 916 H 94.2973 -2.94038 -1.04633 0
M  V30 917 N 94.5984 0.214957 -1.56127 0
M  V30 918 C 95.8474 0.936451 -1.78643 0
M  V30 919 C 96.1604 1.85237 -0.628229 0
M  V30 920 O 97.3664 2.613 -0.737186 0
M  V30 921 C 95.8224 1.7154 -3.16389 0
M  V30 922 C 95.4304 0.845299 -4.39953 0
M  V30 923 C 97.1744 2.42772 -3.48227 0
M  V30 924 C 95.0814 1.62198 -5.68723 0
M  V30 925 H 94.0114 0.353401 -0.666051 0
M  V30 926 H 96.6624 0.190169 -1.82512 0
M  V30 927 H 95.0444 2.50484 -3.06715 0
M  V30 928 H 96.2184 0.0959353 -4.607 0
M  V30 929 H 94.5334 0.244789 -4.1568 0
M  V30 930 H 97.1304 3.01394 -4.41663 0
M  V30 931 H 97.4734 3.15984 -2.71035 0
M  V30 932 H 98.0064 1.70813 -3.5926 0
M  V30 933 H 94.7454 0.933011 -6.48826 0
M  V30 934 H 94.2654 2.34579 -5.52026 0
M  V30 935 H 95.9444 2.18095 -6.09133 0
M  V30 936 N 96.0765 1.50051 0.48192 0
M  V30 937 C 97.0395 1.67584 1.5636 0
M  V30 938 C 98.0395 0.546894 1.51214 0
M  V30 939 O 99.2295 0.813725 1.54026 0
M  V30 940 C 96.3615 1.691 2.96003 0
M  V30 941 H 97.5545 2.64078 1.42136 0
M  V30 942 H 95.1075 1.39369 0.707533 0
M  V30 943 H 95.8425 0.742589 3.15684 0
M  V30 944 H 95.6275 2.51105 3.01146 0
M  V30 945 H 97.1175 1.84656 3.74556 0
M  V30 946 N 97.5546 -0.734337 1.39446 0
M  V30 947 C 98.9706 -1.03997 1.21065 0
M  V30 948 C 99.1706 -2.01369 0.0727019 0
M  V30 949 O 98.2266 -2.45856 -0.575426 0
M  V30 950 C 99.5396 -1.60163 2.54496 0
M  V30 951 C 101.088 -1.7224 2.61347 0
M  V30 952 C 101.563 -2.31814 3.95002 0
M  V30 953 N 103.054 -2.39223 3.96644 0
M  V30 954 C 103.789 -2.86258 4.96834 0
M  V30 955 N 103.285 -3.33184 6.07421 0
M  V30 956 N 105.078 -2.85473 4.84213 0
M  V30 957 H 97.2286 -0.0885624 2.12215 0
M  V30 958 H 99.4916 -0.10191 0.942506 0
M  V30 959 H 99.1976 -0.960811 3.38321 0
M  V30 960 H 99.0716 -2.5896 2.74262 0
M  V30 961 H 101.459 -2.35443 1.77906 0
M  V30 962 H 101.54 -0.720939 2.4543 0
M  V30 963 H 101.184 -1.69238 4.78875 0
M  V30 964 H 101.114 -3.32638 4.08239 0
M  V30 965 H 103.605 -2.06057 3.16779 0
M  V30 966 H 103.918 -3.67586 6.7978 0
M  V30 967 H 102.263 -3.31191 6.11013 0
M  V30 968 H 105.454 -2.48136 3.96921 0
M  V30 969 H 105.627 -3.21814 5.62441 0
M  V30 970 N 99.0327 -1.24633 -0.964593 0
M  V30 971 C 100.31 -0.995809 -1.68354 0
M  V30 972 C 100.69 0.480964 -2.05548 0
M  V30 973 O 100.038 1.45599 -1.76105 0
M  V30 974 C 100.248 -1.92177 -2.91323 0
M  V30 975 C 101.596 -2.19446 -3.63495 0
M  V30 976 O 102.62 -1.89855 -3.01386 0
M  V30 977 O 101.479 -2.69714 -4.75307 0
M  V30 978 H 98.5727 -0.376854 -0.736146 0
M  V30 979 H 101.119 -1.35745 -1.0184 0
M  V30 980 H 99.8907 -2.91938 -2.60553 0
M  V30 981 H 99.5137 -1.56349 -3.65569 0
M  V30 982 N 100.511 1.16574 -1.06058 0
M  V30 983 C 101.788 1.83048 -0.689416 0
M  V30 984 C 102.168 1.94122 0.829443 0
M  V30 985 O 101.516 1.48249 1.7388 0
M  V30 986 C 101.726 3.20186 -1.38859 0
M  V30 987 C 103.074 3.95989 -1.53226 0
M  V30 988 O 104.098 3.29696 -1.3483 0
M  V30 989 O 102.957 5.14813 -1.83384 0
M  V30 990 H 100.051 0.790258 -0.243764 0
M  V30 991 H 102.597 1.23797 -1.16071 0
M  V30 992 H 101.369 3.07146 -2.4244 0
M  V30 993 H 100.992 3.87112 -0.907216 0
M  V30 994 N 101.989 0.842826 1.3317 0
M  V30 995 C 102.919 0.294028 2.31641 0
M  V30 996 C 103.9 -0.600401 1.59151 0
M  V30 997 O 105.085 -0.523124 1.87022 0
M  V30 998 C 102.215 -0.528416 3.43257 0
M  V30 999 C 101.169 0.27056 4.27144 0
M  V30 1000 C 100.495 -0.675881 5.30411 0
M  V30 1001 C 101.795 1.48981 5.00602 0
M  V30 1002 H 103.489 1.11681 2.77791 0
M  V30 1003 H 101.035 0.538478 1.33553 0
M  V30 1004 H 102.988 -0.922674 4.11175 0
M  V30 1005 H 101.712 -1.38445 2.95805 0
M  V30 1006 H 100.371 0.646427 3.60856 0
M  V30 1007 H 100.019 -1.52842 4.79216 0
M  V30 1008 H 99.7189 -0.145374 5.8742 0
M  V30 1009 H 101.243 -1.06757 6.01195 0
M  V30 1010 H 102.657 1.16849 5.61266 0
M  V30 1011 H 101.054 1.95739 5.6728 0
M  V30 1012 H 102.124 2.25746 4.29147 0
M  V30 1013 N 103.467 -1.45747 0.599634 0
M  V30 1014 C 104.714 -2.02292 0.0917284 0
M  V30 1015 C 105.042 -1.46906 -1.27472 0
M  V30 1016 O 104.297 -0.630652 -1.8526 0
M  V30 1017 C 104.596 -3.57399 -0.00602758 0
M  V30 1018 C 104.262 -4.31902 1.29503 0
M  V30 1019 C 102.924 -4.51974 1.65144 0
M  V30 1020 C 105.276 -4.74551 2.15525 0
M  V30 1021 C 102.604 -5.11949 2.86574 0
M  V30 1022 C 104.956 -5.35868 3.36196 0
M  V30 1023 C 103.62 -5.54165 3.72099 0
M  V30 1024 H 102.89 -0.740239 0.0335658 0
M  V30 1025 H 105.537 -1.7491 0.779661 0
M  V30 1026 H 103.842 -3.84014 -0.777183 0
M  V30 1027 H 105.539 -3.98846 -0.415038 0
M  V30 1028 H 102.129 -4.16588 1.00761 0
M  V30 1029 H 106.313 -4.58784 1.8929 0
M  V30 1030 H 101.569 -5.24305 3.14507 0
M  V30 1031 H 105.743 -5.6787 4.03109 0
M  V30 1032 H 103.37 -6.00406 4.6628 0
M  V30 1033 N 104.945 -0.338344 -1.53925 0
M  V30 1034 C 106.194 0.260732 -2.00008 0
M  V30 1035 C 106.507 1.52073 -1.23017 0
M  V30 1036 O 107.713 2.19672 -1.5955 0
M  V30 1037 C 106.169 0.51515 -3.56194 0
M  V30 1038 C 105.777 -0.728645 -4.42035 0
M  V30 1039 C 107.521 1.07337 -4.10706 0
M  V30 1040 C 105.428 -0.445315 -5.89721 0
M  V30 1041 H 104.358 0.101205 -0.747177 0
M  V30 1042 H 107.009 -0.452866 -1.77824 0
M  V30 1043 H 105.391 1.28932 -3.74423 0
M  V30 1044 H 106.565 -1.50352 -4.35581 0
M  V30 1045 H 104.88 -1.20813 -3.98489 0
M  V30 1046 H 107.477 1.30022 -5.18651 0
M  V30 1047 H 107.82 2.0273 -3.63602 0
M  V30 1048 H 108.353 0.360034 -3.96167 0
M  V30 1049 H 105.092 -1.36883 -6.41049 0
M  V30 1050 H 104.612 0.291569 -5.99091 0
M  V30 1051 H 106.291 -0.0606218 -6.46972 0
M  V30 1052 N 106.423 1.57458 -0.0668435 0
M  V30 1053 C 107.651 1.97624 0.612565 0
M  V30 1054 C 108.066 0.94502 1.63447 0
M  V30 1055 O 107.423 -0.0689276 1.8237 0
M  V30 1056 C 107.474 3.37869 1.28555 0
M  V30 1057 O 107.195 4.3704 0.304557 0
M  V30 1058 C 108.696 3.92882 2.05325 0
M  V30 1059 H 105.916 0.650045 0.166381 0
M  V30 1060 H 108.46 2.04035 -0.137782 0
M  V30 1061 H 106.615 3.3256 1.98702 0
M  V30 1062 H 107.029 5.18565 0.786779 0
M  V30 1063 H 108.503 4.93247 2.47812 0
M  V30 1064 H 108.98 3.29156 2.9078 0
M  V30 1065 H 109.586 4.01577 1.40056 0
M  V30 1066 N 107.901 -0.206675 1.56239 0
M  V30 1067 C 109.129 -0.945345 1.8404 0
M  V30 1068 C 109.544 -1.77336 0.647885 0
M  V30 1069 O 108.901 -1.78425 -0.383511 0
M  V30 1070 C 108.952 -1.8509 3.10522 0
M  V30 1071 O 108.673 -1.05634 4.25174 0
M  V30 1072 C 110.174 -2.70222 3.51418 0
M  V30 1073 H 107.394 -0.276372 0.61144 0
M  V30 1074 H 109.938 -0.217417 2.03341 0
M  V30 1075 H 108.093 -2.53259 2.93153 0
M  V30 1076 H 108.507 -1.67238 4.97124 0
M  V30 1077 H 109.981 -3.29438 4.42916 0
M  V30 1078 H 110.458 -3.43358 2.73864 0
M  V30 1079 H 111.064 -2.07443 3.71278 0
M  V30 1080 N 109.379 -1.50304 -0.473955 0
M  V30 1081 C 110.326 -1.68959 -1.57231 0
M  V30 1082 C 111.296 -0.530899 -1.57387 0
M  V30 1083 O 112.481 -0.761133 -1.74961 0
M  V30 1084 C 109.621 -1.7871 -2.95223 0
M  V30 1085 C 108.734 -3.06061 -3.04878 0
M  V30 1086 C 107.869 -3.06626 -4.33767 0
M  V30 1087 C 106.908 -4.28443 -4.37154 0
M  V30 1088 N 106.045 -4.26763 -5.5751 0
M  V30 1089 H 110.885 -2.6273 -1.40631 0
M  V30 1090 H 108.422 -1.30241 -0.683789 0
M  V30 1091 H 110.38 -1.82344 -3.75242 0
M  V30 1092 H 109.01 -0.883806 -3.10465 0
M  V30 1093 H 108.062 -3.11911 -2.17751 0
M  V30 1094 H 109.374 -3.96039 -3.0324 0
M  V30 1095 H 108.528 -3.08973 -5.22131 0
M  V30 1096 H 107.267 -2.14473 -4.3801 0
M  V30 1097 H 106.272 -4.2631 -3.47188 0
M  V30 1098 H 107.497 -5.2182 -4.34605 0
M  V30 1099 H 105.443 -3.37462 -5.62544 0
M  V30 1100 H 105.36 -5.10507 -5.57601 0
M  V30 1101 H 106.628 -4.33253 -6.48006 0
M  V30 1102 N 110.857 0.726932 -1.39834 0
M  V30 1103 C 111.787 1.85405 -1.41941 0
M  V30 1104 C 112.768 1.67751 -0.281728 0
M  V30 1105 O 113.953 1.8795 -0.488717 0
M  V30 1106 C 111.083 3.23243 -1.2701 0
M  V30 1107 C 110.037 3.55549 -2.38262 0
M  V30 1108 C 109.363 4.9241 -2.08415 0
M  V30 1109 C 110.663 3.577 -3.80589 0
M  V30 1110 H 112.357 1.83899 -2.36266 0
M  V30 1111 H 109.903 0.883349 -1.13723 0
M  V30 1112 H 111.856 4.01775 -1.27103 0
M  V30 1113 H 110.58 3.25296 -0.291564 0
M  V30 1114 H 109.239 2.79351 -2.37399 0
M  V30 1115 H 108.887 4.91052 -1.0898 0
M  V30 1116 H 108.587 5.14992 -2.82943 0
M  V30 1117 H 110.111 5.73289 -2.10171 0
M  V30 1118 H 111.525 4.26293 -3.83337 0
M  V30 1119 H 109.922 3.91804 -4.54543 0
M  V30 1120 H 110.992 2.57328 -4.10987 0
M  V30 1121 N 112.336 1.25143 0.95797 0
M  V30 1122 C 113.582 1.10863 1.70531 0
M  V30 1123 C 113.937 -0.347391 1.89238 0
M  V30 1124 O 113.23 -1.25262 1.44983 0
M  V30 1125 C 113.424 1.79272 3.09187 0
M  V30 1126 C 113.253 3.31376 3.04006 0
M  V30 1127 C 112.023 4.0062 3.07948 0
M  V30 1128 C 114.221 4.27825 2.8543 0
M  V30 1129 N 112.203 5.39526 2.9289 0
M  V30 1130 C 113.574 5.53794 2.78769 0
M  V30 1131 C 115.629 4.1828 2.70085 0
M  V30 1132 C 114.332 6.7131 2.58331 0
M  V30 1133 C 116.358 5.35485 2.51017 0
M  V30 1134 C 115.72 6.60393 2.45073 0
M  V30 1135 H 111.819 0.460362 0.632132 0
M  V30 1136 H 114.403 1.58196 1.13499 0
M  V30 1137 H 112.574 1.34439 3.64391 0
M  V30 1138 H 114.306 1.57764 3.72683 0
M  V30 1139 H 111.061 3.51855 3.17009 0
M  V30 1140 H 111.485 6.12416 2.88574 0
M  V30 1141 H 116.127 3.22461 2.73457 0
M  V30 1142 H 113.845 7.67243 2.53701 0
M  V30 1143 H 117.431 5.29959 2.40073 0
M  V30 1144 H 116.311 7.49557 2.30509 0
M  V30 1145 N 113.814 -1.1601 1.06675 0
M  V30 1146 C 114.762 -2.22586 0.675157 0
M  V30 1147 C 115.756 -1.66525 -0.310766 0
M  V30 1148 O 116.962 -1.79145 -0.175215 0
M  V30 1149 H 113.337 -0.724855 0.200223 0
M  V30 1150 H 115.308 -2.52899 1.58381 0
M  V30 1151 C 114.057 -3.47604 0.0817162 0
M  V30 1152 H 113.38 -3.91058 0.831484 0
M  V30 1153 H 114.82 -4.23718 -0.154708 0
M  V30 1154 C 113.279 -3.15718 -1.17576 0
M  V30 1155 O 113.809 -3.31878 -2.26318 0
M  V30 1156 N 112.015 -2.69816 -1.07923 0
M  V30 1157 H 111.562 -2.56866 -0.194293 0
M  V30 1158 H 111.52 -2.48855 -1.92141 0
M  V30 1159 N 115.292 -0.849877 -1.32721 0
M  V30 1160 C 116.569 -0.372405 -1.92022 0
M  V30 1161 C 116.949 1.1435 -1.77447 0
M  V30 1162 O 116.297 1.96296 -1.16962 0
M  V30 1163 C 116.507 -0.831482 -3.3895 0
M  V30 1164 C 117.855 -0.845882 -4.16089 0
M  V30 1165 O 118.879 -0.775806 -3.47649 0
M  V30 1166 O 117.738 -0.943753 -5.38289 0
M  V30 1167 H 114.832 -0.107667 -0.819961 0
M  V30 1168 H 117.378 -0.93646 -1.41522 0
M  V30 1169 H 116.15 -1.87448 -3.4348 0
M  V30 1170 H 115.773 -0.24461 -3.96847 0
M  V30 1171 N 116.77 1.45427 -0.607355 0
M  V30 1172 C 118.186 1.57283 -0.270985 0
M  V30 1173 C 118.386 1.59875 1.22647 0
M  V30 1174 O 117.442 1.52893 2.00948 0
M  V30 1175 C 118.755 2.85566 -0.941952 0
M  V30 1176 C 120.303 2.9924 -0.917849 0
M  V30 1177 C 120.778 4.30293 -1.56882 0
M  V30 1178 N 122.269 4.37051 -1.5343 0
M  V30 1179 C 123.004 5.37123 -2.00715 0
M  V30 1180 N 122.5 6.43734 -2.56084 0
M  V30 1181 N 124.293 5.28479 -1.91484 0
M  V30 1182 H 116.444 1.41988 -1.57966 0
M  V30 1183 H 118.707 0.67885 -0.661715 0
M  V30 1184 H 118.413 2.8955 -1.99633 0
M  V30 1185 H 118.287 3.74322 -0.465096 0
M  V30 1186 H 120.674 2.94822 0.127984 0
M  V30 1187 H 120.755 2.11895 -1.43297 0
M  V30 1188 H 120.399 4.35469 -2.61398 0
M  V30 1189 H 120.329 5.16454 -1.02873 0
M  V30 1190 H 122.82 3.60615 -1.12982 0
M  V30 1191 H 123.133 7.16341 -2.89958 0
M  V30 1192 H 121.478 6.44485 -2.60122 0
M  V30 1193 H 124.669 4.44098 -1.47967 0
M  V30 1194 H 124.842 6.0632 -2.28648 0
M  V30 1195 N 118.248 0.346503 1.53744 0
M  V30 1196 C 119.198 -0.524953 2.21874 0
M  V30 1197 C 120.182 -1.06376 1.20718 0
M  V30 1198 O 121.374 -0.996972 1.46251 0
M  V30 1199 C 118.503 -1.6739 2.99726 0
M  V30 1200 C 117.589 -1.14888 4.08242 0
M  V30 1201 N 117.98 -0.345329 5.0462 0
M  V30 1202 C 116.278 -1.4255 4.22606 0
M  V30 1203 C 116.979 -0.0600706 5.81669 0
M  V30 1204 N 115.955 -0.65252 5.39669 0
M  V30 1205 H 119.757 0.0960091 2.93743 0
M  V30 1206 H 117.271 0.15352 1.61673 0
M  V30 1207 H 119.268 -2.3102 3.47038 0
M  V30 1208 H 117.928 -2.29811 2.29384 0
M  V30 1209 H 118.939 0.0138439 5.17898 0
M  V30 1210 H 115.616 -2.05389 3.63486 0
M  V30 1211 H 117.006 0.588321 6.69319 0
M  V30 1212 N 119.726 -1.57421 0.075193 0
M  V30 1213 C 121.003 -1.85029 -0.634329 0
M  V30 1214 C 121.383 -0.968305 -1.87582 0
M  V30 1215 O 120.731 -0.0354749 -2.28472 0
M  V30 1216 C 120.941 -3.35286 -0.968742 0
M  V30 1217 C 122.289 -4.02875 -1.34077 0
M  V30 1218 O 123.313 -3.40051 -1.06037 0
M  V30 1219 O 122.172 -5.13691 -1.86506 0
M  V30 1220 H 119.266 -0.7645 -0.315387 0
M  V30 1221 H 121.812 -1.69366 0.106382 0
M  V30 1222 H 120.584 -3.91203 -0.0871376 0
M  V30 1223 H 120.207 -3.56223 -1.7661 0
M  V30 1224 N 121.204 0.198386 -1.56346 0
M  V30 1225 C 122.452 0.91747 -1.80075 0
M  V30 1226 C 122.773 1.83929 -0.647692 0
M  V30 1227 O 122.043 1.93029 0.334166 0
M  V30 1228 H 120.623 0.341774 -0.664228 0
M  V30 1229 H 123.285 0.204684 -1.93822 0
M  V30 1230 H 122.381 1.51055 -2.7311 0
M  V30 1231 N 122.682 1.50554 0.465978 0
M  V30 1232 C 123.959 1.5232 1.22712 0
M  V30 1233 C 124.339 0.270807 2.09356 0
M  V30 1234 O 123.687 -0.745541 2.15995 0
M  V30 1235 C 123.897 2.82175 2.05374 0
M  V30 1236 C 125.245 3.33033 2.6339 0
M  V30 1237 O 126.269 2.83531 2.15612 0
M  V30 1238 O 125.128 4.19336 3.50456 0
M  V30 1239 H 122.222 0.611183 0.557122 0
M  V30 1240 H 124.768 1.62847 0.477381 0
M  V30 1241 H 123.54 3.64797 1.41558 0
M  V30 1242 H 123.163 2.74675 2.87471 0
M  V30 1243 N 124.16 -0.719506 1.40217 0
M  V30 1244 C 125.07 -1.86378 1.42479 0
M  V30 1245 C 126.086 -1.71073 0.317834 0
M  V30 1246 O 127.262 -1.93406 0.561794 0
M  V30 1247 C 124.327 -3.22136 1.28178 0
M  V30 1248 C 123.388 -3.49723 2.48982 0
M  V30 1249 C 122.621 -4.79004 2.35353 0
M  V30 1250 O 122.844 -5.53821 1.36524 0
M  V30 1251 O 121.778 -5.06839 3.2465 0
M  V30 1252 H 125.604 -1.87425 2.38968 0
M  V30 1253 H 123.189 -0.869405 1.21498 0
M  V30 1254 H 125.071 -4.03234 1.22395 0
M  V30 1255 H 123.746 -3.21825 0.347934 0
M  V30 1256 H 122.653 -2.6865 2.60342 0
M  V30 1257 H 123.986 -3.54828 3.41113 0
M  V30 1258 N 125.638 -1.25649 -0.95132 0
M  V30 1259 C 127.049 -1.09654 -1.51106 0
M  V30 1260 C 127.4 0.326615 -1.93462 0
M  V30 1261 O 126.525 1.21697 -1.78938 0
M  V30 1262 C 127.12 -1.98437 -2.74605 0
M  V30 1263 C 125.679 -1.86618 -3.2688 0
M  V30 1264 C 124.826 -1.9239 -1.99703 0
M  V30 1265 H 127.777 -1.38887 -0.767865 0
M  V30 1266 H 127.798 -1.5263 -3.48546 0
M  V30 1267 H 127.31 -3.02009 -2.43746 0
M  V30 1268 H 125.411 -0.859421 -3.62553 0
M  V30 1269 H 125.524 -2.71607 -3.94673 0
M  V30 1270 H 123.888 -1.36317 -2.15151 0
M  V30 1271 H 124.671 -2.97573 -1.71188 0
M  V30 1272 N 127.117 1.15442 -1.07289 0
M  V30 1273 C 128.08 2.18358 -0.696591 0
M  V30 1274 C 129.08 1.58637 0.262837 0
M  V30 1275 O 130.27 1.74145 0.0438809 0
M  V30 1276 C 127.402 3.4089 -0.0266151 0
M  V30 1277 H 128.595 2.53162 -1.60776 0
M  V30 1278 H 126.148 1.29893 -0.869342 0
M  V30 1279 H 126.883 3.11653 0.896822 0
M  V30 1280 H 126.668 3.85495 -0.716657 0
M  V30 1281 H 128.158 4.17009 0.222028 0
M  V30 1282 N 128.595 0.856903 1.32268 0
M  V30 1283 C 129.558 0.308171 2.27119 0
M  V30 1284 C 130.558 -0.533421 1.51695 0
M  V30 1285 O 131.748 -0.344607 1.70757 0
M  V30 1286 C 128.88 -0.563757 3.36206 0
M  V30 1287 H 130.073 1.14535 2.77167 0
M  V30 1288 H 127.626 0.631421 1.42978 0
M  V30 1289 H 128.361 -1.42266 2.91429 0
M  V30 1290 H 128.146 0.0386749 3.92081 0
M  V30 1291 H 129.636 -0.940386 4.06874 0
M  V30 1292 N 130.073 -1.45103 0.615059 0
M  V30 1293 C 131.036 -2.29025 -0.0895485 0
M  V30 1294 C 132.036 -1.40174 -0.787906 0
M  V30 1295 O 133.226 -1.62217 -0.634933 0
M  V30 1296 C 130.358 -3.21376 -1.13711 0
M  V30 1297 H 131.551 -2.92807 0.648382 0
M  V30 1298 H 129.104 -1.51749 0.374444 0
M  V30 1299 H 129.839 -2.6241 -1.90556 0
M  V30 1300 H 129.624 -3.86834 -0.640475 0
M  V30 1301 H 131.114 -3.84459 -1.63036 0
M  V30 1302 N 131.551 -0.354651 -1.53558 0
M  V30 1303 C 132.8 0.239504 -2.00273 0
M  V30 1304 C 133.113 1.50759 -1.24623 0
M  V30 1305 O 134.319 2.17968 -1.61871 0
M  V30 1306 C 132.775 0.477341 -3.5672 0
M  V30 1307 C 132.383 -0.775488 -4.41237 0
M  V30 1308 C 134.127 1.02975 -4.11821 0
M  V30 1309 C 132.034 -0.507838 -5.89216 0
M  V30 1310 H 130.964 0.0932743 -0.748208 0
M  V30 1311 H 133.615 -0.471701 -1.77334 0
M  V30 1312 H 131.997 1.24953 -3.7577 0
M  V30 1313 H 133.171 -1.54963 -4.33962 0
M  V30 1314 H 131.486 -1.25033 -3.97185 0
M  V30 1315 H 134.083 1.24513 -5.2 0
M  V30 1316 H 134.426 1.98862 -3.65731 0
M  V30 1317 H 134.959 0.317994 -3.96527 0
M  V30 1318 H 131.698 -1.43674 -6.39561 0
M  V30 1319 H 131.218 0.228011 -5.99366 0
M  V30 1320 H 132.897 -0.129238 -6.46871 0
M  V30 1321 N 133.029 1.57378 -0.0835403 0
M  V30 1322 C 133.992 2.12252 0.864959 0
M  V30 1323 C 134.992 1.04916 1.21858 0
M  V30 1324 O 136.182 1.30853 1.14991 0
M  V30 1325 C 133.314 2.63358 2.16461 0
M  V30 1326 H 134.507 2.97371 0.388676 0
M  V30 1327 H 132.06 1.55423 0.165317 0
M  V30 1328 H 132.795 1.81727 2.686 0
M  V30 1329 H 132.58 3.41826 1.92087 0
M  V30 1330 H 134.07 3.05847 2.84337 0
M  V30 1331 N 134.507 -0.190092 1.56449 0
M  V30 1332 C 135.417 -1.25591 1.98152 0
M  V30 1333 C 136.433 -1.49519 0.889944 0
M  V30 1334 O 137.609 -1.62036 1.19609 0
M  V30 1335 C 134.674 -2.57916 2.3169 0
M  V30 1336 C 133.735 -2.42015 3.5458 0
M  V30 1337 C 132.968 -3.6803 3.8651 0
M  V30 1338 O 133.191 -4.72413 3.1966 0
M  V30 1339 O 132.125 -3.6326 4.79923 0
M  V30 1340 H 135.951 -0.931988 2.89046 0
M  V30 1341 H 133.536 -0.395488 1.4407 0
M  V30 1342 H 135.418 -3.36008 2.54316 0
M  V30 1343 H 134.093 -2.89925 1.43963 0
M  V30 1344 H 133 -1.62017 3.37196 0
M  V30 1345 H 134.333 -2.14937 4.4279 0
M  V30 1346 N 135.985 -1.50799 -0.457987 0
M  V30 1347 C 137.21 -1.66496 -1.23668 0
M  V30 1348 C 137.635 -0.353288 -1.84752 0
M  V30 1349 O 136.993 0.684346 -1.67888 0
M  V30 1350 C 137.041 -2.76763 -2.3116 0
M  V30 1351 O 136.145 -2.38928 -3.36136 0
M  V30 1352 H 135.486 -0.555828 -0.363252 0
M  V30 1353 H 138.016 -1.9725 -0.543474 0
M  V30 1354 H 138.026 -3.00232 -2.76269 0
M  V30 1355 H 136.701 -3.71954 -1.86073 0
M  V30 1356 H 135.278 -2.25953 -2.96647 0
M  V30 1357 N 137.463 0.71206 -1.40597 0
M  V30 1358 C 138.393 1.83889 -1.43899 0
M  V30 1359 C 139.374 1.67442 -0.299504 0
M  V30 1360 O 140.559 1.87421 -0.508624 0
M  V30 1361 C 137.689 3.21877 -1.30431 0
M  V30 1362 C 136.643 3.53002 -2.42019 0
M  V30 1363 C 135.969 4.90172 -2.13626 0
M  V30 1364 C 137.269 3.53643 -3.84362 0
M  V30 1365 H 138.963 1.81383 -2.38203 0
M  V30 1366 H 136.509 0.871237 -1.14654 0
M  V30 1367 H 138.462 4.00404 -1.31357 0
M  V30 1368 H 137.186 3.24968 -0.326049 0
M  V30 1369 H 135.845 2.76818 -2.40349 0
M  V30 1370 H 135.493 4.89869 -1.14182 0
M  V30 1371 H 135.193 5.11962 -2.88389 0
M  V30 1372 H 136.717 5.71028 -2.1624 0
M  V30 1373 H 138.131 4.22203 -3.87837 0
M  V30 1374 H 136.528 3.86961 -4.58673 0
M  V30 1375 H 137.598 2.52954 -4.13693 0
M  V30 1376 N 138.941 1.26152 0.944643 0
M  V30 1377 C 139.904 1.07474 2.0244 0
M  V30 1378 C 140.904 0.0242064 1.60782 0
M  V30 1379 O 142.094 0.267302 1.72137 0
M  V30 1380 C 139.226 0.633956 3.34953 0
M  V30 1381 H 140.419 2.03336 2.20442 0
M  V30 1382 H 137.972 1.087 1.12312 0
M  V30 1383 H 138.707 -0.326811 3.22649 0
M  V30 1384 H 138.492 1.39247 3.66542 0
M  V30 1385 H 139.982 0.52501 4.14287 0
M  V30 1386 N 140.419 -1.14872 1.07899 0
M  V30 1387 C 141.366 -2.19791 0.704319 0
M  V30 1388 C 142.336 -1.63238 -0.306987 0
M  V30 1389 O 143.521 -1.8983 -0.192171 0
M  V30 1390 C 140.661 -3.44911 0.114244 0
M  V30 1391 C 139.774 -4.15637 1.1777 0
M  V30 1392 C 138.909 -5.28324 0.552037 0
M  V30 1393 C 137.948 -5.90875 1.59789 0
M  V30 1394 N 137.085 -6.95022 0.994404 0
M  V30 1395 H 141.925 -2.5119 1.60336 0
M  V30 1396 H 139.462 -1.23356 0.801352 0
M  V30 1397 H 141.42 -4.16477 -0.245544 0
M  V30 1398 H 140.05 -3.14011 -0.74813 0
M  V30 1399 H 139.102 -3.42512 1.65499 0
M  V30 1400 H 140.414 -4.5823 1.97046 0
M  V30 1401 H 139.568 -6.06538 0.1402 0
M  V30 1402 H 138.307 -4.86939 -0.272431 0
M  V30 1403 H 137.312 -5.11369 2.01945 0
M  V30 1404 H 138.537 -6.34337 2.42474 0
M  V30 1405 H 136.483 -6.55722 0.190939 0
M  V30 1406 H 136.4 -7.36073 1.72432 0
M  V30 1407 H 137.668 -7.77123 0.608253 0
M  V30 1408 N 141.898 -0.863906 -1.31812 0
M  V30 1409 C 142.828 -0.330843 -2.31144 0
M  V30 1410 C 143.809 0.575005 -1.60087 0
M  V30 1411 O 144.994 0.493304 -1.8783 0
M  V30 1412 C 142.124 0.47374 -3.44054 0
M  V30 1413 C 141.078 -0.338481 -4.26659 0
M  V30 1414 C 140.404 0.591412 -5.31419 0
M  V30 1415 C 141.704 -1.56926 -4.98168 0
M  V30 1416 H 143.398 -1.16086 -2.75979 0
M  V30 1417 H 140.944 -0.559657 -1.32679 0
M  V30 1418 H 142.897 0.857143 -4.12591 0
M  V30 1419 H 141.621 1.33721 -2.9797 0
M  V30 1420 H 140.28 -0.703754 -3.59782 0
M  V30 1421 H 139.928 1.45199 -4.81587 0
M  V30 1422 H 139.628 0.0519022 -5.87577 0
M  V30 1423 H 141.152 0.97179 -6.02817 0
M  V30 1424 H 142.566 -1.25764 -5.59336 0
M  V30 1425 H 140.963 -2.04739 -5.64094 0
M  V30 1426 H 142.033 -2.32544 -4.25501 0
M  V30 1427 N 143.376 1.44774 -0.622745 0
M  V30 1428 C 144.339 2.29069 0.0774015 0
M  V30 1429 C 145.339 1.4059 0.780461 0
M  V30 1430 O 146.529 1.62551 0.626322 0
M  V30 1431 C 143.661 3.21974 1.12006 0
M  V30 1432 H 144.854 2.92459 -0.663901 0
M  V30 1433 H 142.407 1.51548 -0.382486 0
M  V30 1434 H 143.142 2.63417 1.89162 0
M  V30 1435 H 142.927 3.87168 0.619951 0
M  V30 1436 H 144.417 3.85318 1.60995 0
M  V30 1437 N 144.854 0.36279 1.53368 0
M  V30 1438 C 145.784 -0.476976 2.28576 0
M  V30 1439 C 146.765 -1.08631 1.30894 0
M  V30 1440 O 147.95 -1.10409 1.59761 0
M  V30 1441 C 145.08 -1.61828 3.07293 0
M  V30 1442 C 144.034 -1.13633 4.1264 0
M  V30 1443 C 143.36 -2.36766 4.79423 0
M  V30 1444 C 144.66 -0.223061 5.21823 0
M  V30 1445 H 146.354 0.150474 2.99022 0
M  V30 1446 H 143.9 0.0738103 1.43811 0
M  V30 1447 H 145.853 -2.21237 3.58653 0
M  V30 1448 H 144.577 -2.27292 2.34533 0
M  V30 1449 H 143.236 -0.564945 3.62221 0
M  V30 1450 H 142.884 -3.0068 4.03238 0
M  V30 1451 H 142.584 -2.05192 5.50609 0
M  V30 1452 H 144.108 -2.96865 5.33576 0
M  V30 1453 H 145.522 -0.724545 5.68703 0
M  V30 1454 H 143.919 0.001678 6.001 0
M  V30 1455 H 144.989 0.735553 4.79289 0
M  V30 1456 N 146.332 -1.57332 0.0918853 0
M  V30 1457 C 147.609 -1.85691 -0.614668 0
M  V30 1458 C 147.989 -0.988146 -1.86545 0
M  V30 1459 O 147.337 -0.0597055 -2.28422 0
M  V30 1460 C 147.547 -3.36294 -0.933126 0
M  V30 1461 C 148.895 -4.04275 -1.29796 0
M  V30 1462 O 149.919 -3.41157 -1.02424 0
M  V30 1463 O 148.778 -5.1564 -1.81047 0
M  V30 1464 H 145.872 -0.767802 -0.307261 0
M  V30 1465 H 148.418 -1.69244 0.12434 0
M  V30 1466 H 147.19 -3.91273 -0.0456404 0
M  V30 1467 H 146.813 -3.58076 -1.72822 0
M  V30 1468 N 147.81 0.181792 -1.56548 0
M  V30 1469 C 148.742 1.24956 -1.92142 0
M  V30 1470 C 149.755 1.41022 -0.813422 0
M  V30 1471 O 150.944 1.41212 -1.09186 0
M  V30 1472 C 148.044 2.61981 -2.14987 0
M  V30 1473 C 147.217 2.6735 -3.46183 0
M  V30 1474 C 146.276 3.85664 -3.5798 0
M  V30 1475 O 145.302 3.72148 -4.30691 0
M  V30 1476 N 146.504 5.01683 -2.92053 0
M  V30 1477 H 149.269 0.947329 -2.84334 0
M  V30 1478 H 146.83 0.371629 -1.57577 0
M  V30 1479 H 148.822 3.3958 -2.20154 0
M  V30 1480 H 147.392 2.84637 -1.2923 0
M  V30 1481 H 146.612 1.75925 -3.52766 0
M  V30 1482 H 147.9 2.67939 -4.32534 0
M  V30 1483 H 147.298 5.15564 -2.32832 0
M  V30 1484 H 145.855 5.77181 -3.0283 0
M  V30 1485 N 149.288 1.51039 0.449983 0
M  V30 1486 C 150.534 1.63322 1.20223 0
M  V30 1487 C 150.867 0.34241 1.91158 0
M  V30 1488 O 150.142 -0.657344 1.83055 0
M  V30 1489 C 150.425 2.82801 2.22925 0
M  V30 1490 C 150.278 4.21823 1.56157 0
M  V30 1491 C 151.597 2.97807 3.24035 0
M  V30 1492 H 148.716 0.594407 0.435718 0
M  V30 1493 H 151.358 1.83489 0.493136 0
M  V30 1494 H 149.508 2.65738 2.834 0
M  V30 1495 H 151.18 4.50526 0.991162 0
M  V30 1496 H 149.423 4.25105 0.864172 0
M  V30 1497 H 150.094 5.01391 2.30891 0
M  V30 1498 H 152.57 3.13497 2.73603 0
M  V30 1499 H 151.446 3.82992 3.93202 0
M  V30 1500 H 151.707 2.09328 3.89402 0
M  V30 1501 N 150.766 -0.704594 1.40972 0
M  V30 1502 C 152.043 -1.45847 1.30338 0
M  V30 1503 C 152.423 -2.10973 -0.0732344 0
M  V30 1504 O 151.771 -2.00997 -1.08685 0
M  V30 1505 C 151.981 -2.48525 2.45023 0
M  V30 1506 C 153.329 -3.1404 2.8577 0
M  V30 1507 O 154.353 -2.58848 2.44696 0
M  V30 1508 O 153.212 -4.13981 3.56766 0
M  V30 1509 H 150.306 -0.649092 0.512454 0
M  V30 1510 H 152.852 -0.735836 1.52917 0
M  V30 1511 H 151.624 -1.98994 3.36923 0
M  V30 1512 H 151.247 -3.2831 2.24272 0
M  V30 1513 N 152.244 -1.26651 -0.937939 0
M  V30 1514 C 153.174 -1.10993 -2.05433 0
M  V30 1515 C 154.155 -0.0142161 -1.70094 0
M  V30 1516 O 155.34 -0.186837 -1.93299 0
M  V30 1517 C 152.47 -0.745561 -3.39203 0
M  V30 1518 C 151.424 -1.79337 -3.88616 0
M  V30 1519 C 150.75 -1.28324 -5.19073 0
M  V30 1520 C 152.05 -3.19553 -4.13138 0
M  V30 1521 H 153.744 -2.0438 -2.1879 0
M  V30 1522 H 151.29 -0.984041 -1.05131 0
M  V30 1523 H 153.243 -0.622888 -4.16771 0
M  V30 1524 H 151.967 0.22401 -3.25831 0
M  V30 1525 H 150.626 -1.90477 -3.13231 0
M  V30 1526 H 150.274 -0.303414 -5.02084 0
M  V30 1527 H 149.974 -1.98369 -5.53103 0
M  V30 1528 H 151.498 -1.1733 -5.99221 0
M  V30 1529 H 152.912 -3.11471 -4.81309 0
M  V30 1530 H 151.309 -3.87218 -4.58457 0
M  V30 1531 H 152.379 -3.65368 -3.18801 0
M  V30 1532 N 153.722 1.14298 -1.08507 0
M  V30 1533 C 154.952 1.88945 -0.835663 0
M  V30 1534 C 155.36 1.78894 0.615928 0
M  V30 1535 O 154.703 1.1468 1.43506 0
M  V30 1536 C 154.765 3.39585 -1.17994 0
M  V30 1537 C 154.429 3.7342 -2.63451 0
M  V30 1538 C 155.426 3.73454 -3.61702 0
M  V30 1539 C 153.111 4.03368 -2.99332 0
M  V30 1540 C 155.105 4.02961 -4.93864 0
M  V30 1541 C 152.792 4.32538 -4.31687 0
M  V30 1542 C 153.79 4.32318 -5.28763 0
M  V30 1543 O 153.478 4.6078 -6.58739 0
M  V30 1544 H 153.21 0.605307 -0.300965 0
M  V30 1545 H 155.764 1.45673 -1.44806 0
M  V30 1546 H 153.994 3.83315 -0.51055 0
M  V30 1547 H 155.683 3.9554 -0.911182 0
M  V30 1548 H 156.449 3.50403 -3.35325 0
M  V30 1549 H 152.328 4.02692 -2.24411 0
M  V30 1550 H 155.872 4.02704 -5.69627 0
M  V30 1551 H 151.769 4.55059 -4.57812 0
M  V30 1552 H 152.537 4.78492 -6.64069 0
M  V30 1553 N 155.201 0.870884 1.31352 0
M  V30 1554 C 156.131 0.343096 2.30966 0
M  V30 1555 C 157.112 -0.566507 1.60389 0
M  V30 1556 O 158.297 -0.483336 1.88089 0
M  V30 1557 C 155.427 -0.455487 3.443 0
M  V30 1558 C 154.381 0.361103 4.26474 0
M  V30 1559 C 153.707 -0.563221 5.31725 0
M  V30 1560 C 155.007 1.59566 4.97329 0
M  V30 1561 H 156.701 1.17548 2.75359 0
M  V30 1562 H 154.247 0.566686 1.32381 0
M  V30 1563 H 156.2 -0.83525 4.13039 0
M  V30 1564 H 154.924 -1.32139 2.98675 0
M  V30 1565 H 153.583 0.722825 3.59403 0
M  V30 1566 H 153.231 -1.42643 4.82351 0
M  V30 1567 H 152.931 -0.0207409 5.87596 0
M  V30 1568 H 154.455 -0.939808 6.03324 0
M  V30 1569 H 155.869 1.28728 5.58661 0
M  V30 1570 H 154.266 2.07728 5.63 0
M  V30 1571 H 155.336 2.34798 4.24262 0
M  V30 1572 N 156.679 -1.44442 0.630414 0
M  V30 1573 C 157.925 -2.02351 0.134816 0
M  V30 1574 C 158.258 -1.4947 -1.23986 0
M  V30 1575 O 157.533 -0.678475 -1.82283 0
M  V30 1576 C 157.816 -3.59898 0.120707 0
M  V30 1577 C 157.669 -4.23063 1.52767 0
M  V30 1578 C 158.988 -4.36585 -0.555127 0
M  V30 1579 H 156.107 -0.73527 0.0504646 0
M  V30 1580 H 158.749 -1.72022 0.806751 0
M  V30 1581 H 156.899 -3.85868 -0.451477 0
M  V30 1582 H 158.571 -4.08202 2.14869 0
M  V30 1583 H 156.814 -3.80586 2.08175 0
M  V30 1584 H 157.485 -5.32071 1.46984 0
M  V30 1585 H 159.961 -4.16044 -0.0685429 0
M  V30 1586 H 158.837 -5.46294 -0.534185 0
M  V30 1587 H 159.098 -4.11138 -1.62535 0
M  V30 1588 N 158.157 -0.370918 -1.53173 0
M  V30 1589 C 159.107 0.489588 -2.22681 0
M  V30 1590 C 160.091 1.04442 -1.22395 0
M  V30 1591 O 161.283 0.973578 -1.47819 0
M  V30 1592 C 158.412 1.626 -3.02351 0
M  V30 1593 C 157.498 1.08379 -4.10018 0
M  V30 1594 N 157.889 0.265004 -5.05105 0
M  V30 1595 C 156.187 1.35809 -4.2482 0
M  V30 1596 C 156.888 -0.0324755 -5.81691 0
M  V30 1597 N 155.864 0.566581 -5.40639 0
M  V30 1598 H 159.666 -0.142729 -2.93553 0
M  V30 1599 H 157.18 -0.179221 -1.61408 0
M  V30 1600 H 159.177 2.2547 -3.50669 0
M  V30 1601 H 157.837 2.26132 -2.33011 0
M  V30 1602 H 158.848 -0.0962352 -5.17811 0
M  V30 1603 H 155.525 1.9958 -3.66707 0
M  V30 1604 H 156.915 -0.69473 -6.68299 0
M  V30 1605 N 159.635 1.57281 -0.100228 0
M  V30 1606 C 160.881 1.95626 0.556946 0
M  V30 1607 C 161.236 0.981655 1.65473 0
M  V30 1608 O 160.529 0.00849847 1.91598 0
M  V30 1609 C 160.723 3.38305 1.15259 0
M  V30 1610 C 160.552 4.49555 0.114035 0
M  V30 1611 C 159.322 5.0434 -0.311266 0
M  V30 1612 C 161.52 5.10051 -0.659768 0
M  V30 1613 N 159.502 5.99152 -1.33755 0
M  V30 1614 C 160.873 6.00628 -1.53774 0
M  V30 1615 C 162.928 4.92772 -0.712723 0
M  V30 1616 C 161.631 6.7578 -2.46403 0
M  V30 1617 C 163.657 5.6859 -1.62663 0
M  V30 1618 C 163.019 6.58838 -2.49222 0
M  V30 1619 H 159.118 0.7624 0.173982 0
M  V30 1620 H 161.702 1.93829 -0.183988 0
M  V30 1621 H 159.873 3.40786 1.86332 0
M  V30 1622 H 161.605 3.63817 1.77254 0
M  V30 1623 H 158.36 4.73537 0.0774812 0
M  V30 1624 H 158.784 6.5126 -1.84905 0
M  V30 1625 H 163.426 4.22761 -0.0576648 0
M  V30 1626 H 161.144 7.4505 -3.12931 0
M  V30 1627 H 164.73 5.57233 -1.67281 0
M  V30 1628 H 163.61 7.16479 -3.18791 0
M  V30 1629 N 161.113 -0.173488 1.56642 0
M  V30 1630 C 162.524 -0.736155 1.71574 0
M  V30 1631 C 162.875 -1.82888 0.710389 0
M  V30 1632 O 162 -2.16017 -0.1287 0
M  V30 1633 C 162.595 -1.34211 3.11083 0
M  V30 1634 C 161.154 -1.85162 3.27707 0
M  V30 1635 C 160.301 -0.729765 2.67525 0
M  V30 1636 H 163.252 0.0518786 1.58615 0
M  V30 1637 H 163.273 -2.21178 3.09613 0
M  V30 1638 H 162.785 -0.546579 3.84232 0
M  V30 1639 H 160.886 -2.67366 2.59512 0
M  V30 1640 H 160.999 -1.99855 4.35425 0
M  V30 1641 H 159.363 -1.14965 2.27278 0
M  V30 1642 H 160.146 0.0538806 3.43258 0
M  V30 1643 N 162.591 -1.51276 -0.441967 0
M  V30 1644 C 163.819 -1.67516 -1.21434 0
M  V30 1645 C 164.234 -0.37055 -1.85128 0
M  V30 1646 O 163.591 0.650498 -1.70513 0
M  V30 1647 C 163.642 -2.78748 -2.30177 0
M  V30 1648 O 163.363 -4.04154 -1.69089 0
M  V30 1649 C 164.864 -3.06217 -3.20541 0
M  V30 1650 H 162.084 -0.562276 -0.366178 0
M  V30 1651 H 164.628 -1.97666 -0.524244 0
M  V30 1652 H 162.783 -2.5121 -2.94911 0
M  V30 1653 H 163.197 -4.65894 -2.40922 0
M  V30 1654 H 164.671 -3.8764 -3.92987 0
M  V30 1655 H 165.148 -2.18439 -3.81026 0
M  V30 1656 H 165.754 -3.35397 -2.61513 0
M  V30 1657 N 164.069 0.697108 -1.41344 0
M  V30 1658 C 165.48 1.27697 -1.36199 0
M  V30 1659 C 165.831 1.9615 -0.0443463 0
M  V30 1660 O 164.956 1.98689 0.857419 0
M  V30 1661 C 165.551 2.32223 -2.46694 0
M  V30 1662 C 164.11 2.8579 -2.44952 0
M  V30 1663 C 163.257 1.59807 -2.26621 0
M  V30 1664 H 166.208 0.491968 -1.50882 0
M  V30 1665 H 166.229 3.1348 -2.15664 0
M  V30 1666 H 165.741 1.82373 -3.42581 0
M  V30 1667 H 163.842 3.3982 -1.52817 0
M  V30 1668 H 163.955 3.36325 -3.41207 0
M  V30 1669 H 162.319 1.8556 -1.7447 0
M  V30 1670 H 163.102 1.11956 -3.24532 0
M  V30 1671 N 165.547 1.27147 0.931209 0
M  V30 1672 C 166.51 1.09615 2.01289 0
M  V30 1673 C 167.51 0.0412581 1.60747 0
M  V30 1674 O 168.7 0.285545 1.71844 0
M  V30 1675 C 165.832 0.669447 3.34262 0
M  V30 1676 H 167.025 2.05662 2.18273 0
M  V30 1677 H 164.578 1.09885 1.11153 0
M  V30 1678 H 165.313 -0.292572 3.22978 0
M  V30 1679 H 165.098 1.43127 3.65044 0
M  V30 1680 H 166.588 0.568921 4.13706 0
M  V30 1681 N 167.025 -1.13721 1.09112 0
M  V30 1682 C 167.988 -2.17222 0.731241 0
M  V30 1683 C 168.988 -1.59035 -0.237566 0
M  V30 1684 O 170.178 -1.74192 -0.0161704 0
M  V30 1685 C 167.31 -3.40804 0.0808443 0
M  V30 1686 H 168.503 -2.50573 1.64783 0
M  V30 1687 H 166.056 -1.28493 0.889897 0
M  V30 1688 H 166.791 -3.1304 -0.847127 0
M  V30 1689 H 166.576 -3.84306 0.777896 0
M  V30 1690 H 168.066 -4.1731 -0.155657 0
M  V30 1691 N 168.503 -0.877838 -1.30888 0
M  V30 1692 C 169.78 -0.413052 -1.91189 0
M  V30 1693 C 170.16 1.1056 -1.79832 0
M  V30 1694 O 169.508 1.93771 -1.21099 0
M  V30 1695 C 169.718 -0.903191 -3.3711 0
M  V30 1696 C 171.066 -0.93395 -4.14201 0
M  V30 1697 O 172.09 -0.849373 -3.45925 0
M  V30 1698 O 170.949 -1.05772 -5.36167 0
M  V30 1699 H 168.043 -0.125035 -0.817493 0
M  V30 1700 H 170.589 -0.966269 -1.39504 0
M  V30 1701 H 169.361 -1.94692 -3.39427 0
M  V30 1702 H 168.984 -0.328732 -3.96239 0
M  V30 1703 N 169.982 1.44106 -0.638065 0
M  V30 1704 C 170.93 2.3248 0.0748149 0
M  V30 1705 C 171.924 1.47746 0.828702 0
M  V30 1706 O 173.13 1.64049 0.740816 0
M  V30 1707 H 169.505 0.750771 0.0429686 0
M  V30 1708 H 171.476 2.90348 -0.688504 0
M  V30 1709 C 170.225 3.31843 1.03805 0
M  V30 1710 H 169.548 3.97059 0.467375 0
M  V30 1711 H 170.988 3.96345 1.50622 0
M  V30 1712 C 169.447 2.61291 2.1267 0
M  V30 1713 O 169.977 2.41702 3.20847 0
M  V30 1714 N 168.183 2.20915 1.88798 0
M  V30 1715 H 167.73 2.37047 1.00829 0
M  V30 1716 H 167.688 1.74038 2.61836 0
M  V30 1717 N 171.46 0.379036 1.52974 0
M  V30 1718 C 172.69 -0.20649 2.05566 0
M  V30 1719 C 173.098 -1.41906 1.25137 0
M  V30 1720 O 172.441 -1.81421 0.288464 0
M  V30 1721 C 172.503 -0.651086 3.53555 0
M  V30 1722 C 172.167 0.446626 4.54812 0
M  V30 1723 C 173.164 1.30079 5.03364 0
M  V30 1724 C 170.849 0.610719 4.98573 0
M  V30 1725 C 172.843 2.30426 5.94292 0
M  V30 1726 C 170.53 1.61754 5.89304 0
M  V30 1727 C 171.528 2.46274 6.37054 0
M  V30 1728 O 171.216 3.45237 7.25994 0
M  V30 1729 H 170.948 -0.0372381 0.674974 0
M  V30 1730 H 173.502 0.539718 1.98182 0
M  V30 1731 H 171.732 -1.44911 3.58522 0
M  V30 1732 H 173.421 -1.16112 3.88938 0
M  V30 1733 H 174.187 1.18527 4.70294 0
M  V30 1734 H 170.066 -0.0374044 4.60985 0
M  V30 1735 H 173.61 2.96432 6.31485 0
M  V30 1736 H 169.507 1.73348 6.21788 0
M  V30 1737 H 170.275 3.41124 7.44027 0
M  V30 1738 N 172.938 -1.57226 0.108567 0
M  V30 1739 C 174.184 -1.95121 -0.552761 0
M  V30 1740 C 174.517 -0.991345 -1.66991 0
M  V30 1741 O 173.792 -0.0267211 -1.94482 0
M  V30 1742 C 174.075 -3.43039 -1.09528 0
M  V30 1743 C 173.928 -4.49797 0.0177332 0
M  V30 1744 C 175.247 -3.92567 -1.98945 0
M  V30 1745 H 172.366 -0.709496 -0.199461 0
M  V30 1746 H 175.008 -1.89126 0.182011 0
M  V30 1747 H 173.158 -3.48279 -1.72146 0
M  V30 1748 H 174.83 -4.56661 0.652584 0
M  V30 1749 H 173.073 -4.284 0.682309 0
M  V30 1750 H 173.744 -5.50528 -0.402919 0
M  V30 1751 H 176.22 -3.89565 -1.46214 0
M  V30 1752 H 175.096 -4.96605 -2.33827 0
M  V30 1753 H 175.357 -3.32648 -2.91201 0
M  V30 1754 N 174.416 0.165178 -1.56732 0
M  V30 1755 C 175.366 1.20917 -1.93295 0
M  V30 1756 C 176.35 1.39488 -0.801985 0
M  V30 1757 O 177.542 1.41356 -1.06525 0
M  V30 1758 C 174.671 2.54718 -2.3016 0
M  V30 1759 C 173.757 2.39815 -3.49785 0
M  V30 1760 N 174.148 1.94637 -4.66851 0
M  V30 1761 C 172.446 2.70623 -3.54513 0
M  V30 1762 C 173.147 1.92344 -5.4898 0
M  V30 1763 N 172.123 2.34978 -4.9019 0
M  V30 1764 H 175.925 0.851675 -2.81289 0
M  V30 1765 H 173.439 0.373399 -1.58049 0
M  V30 1766 H 175.436 3.30165 -2.54552 0
M  V30 1767 H 174.096 2.91265 -1.43508 0
M  V30 1768 H 175.107 1.6488 -4.90953 0
M  V30 1769 H 171.784 3.11167 -2.78354 0
M  V30 1770 H 173.174 1.5906 -6.52801 0
M  V30 1771 N 175.894 1.51508 0.433938 0
M  V30 1772 C 176.857 1.72473 1.50949 0
M  V30 1773 C 177.857 0.594725 1.49398 0
M  V30 1774 O 179.047 0.862315 1.5136 0
M  V30 1775 C 176.179 1.78431 2.90474 0
M  V30 1776 H 177.372 2.68467 1.33662 0
M  V30 1777 H 174.925 1.41549 0.662836 0
M  V30 1778 H 175.66 0.842645 3.13161 0
M  V30 1779 H 175.445 2.60558 2.93005 0
M  V30 1780 H 176.935 1.96479 3.68491 0
M  V30 1781 N 177.372 -0.689602 1.41712 0
M  V30 1782 C 178.618 -1.45041 1.42599 0
M  V30 1783 C 178.973 -1.92366 0.0363764 0
M  V30 1784 O 178.266 -1.67022 -0.938844 0
M  V30 1785 C 178.46 -2.67298 2.37247 0
M  V30 1786 C 178.289 -2.31935 3.85274 0
M  V30 1787 C 177.059 -2.2201 4.53916 0
M  V30 1788 C 179.257 -1.94526 4.76093 0
M  V30 1789 N 177.239 -1.79594 5.87043 0
M  V30 1790 C 178.61 -1.62915 5.98213 0
M  V30 1791 C 180.665 -1.81388 4.63684 0
M  V30 1792 C 179.368 -1.19486 7.09306 0
M  V30 1793 C 181.394 -1.39364 5.74745 0
M  V30 1794 C 180.756 -1.08668 6.95967 0
M  V30 1795 H 176.855 -0.527806 0.577014 0
M  V30 1796 H 179.439 -0.797266 1.77628 0
M  V30 1797 H 177.61 -3.30325 2.04304 0
M  V30 1798 H 179.342 -3.33806 2.28814 0
M  V30 1799 H 176.097 -2.406 4.07932 0
M  V30 1800 H 176.521 -1.60851 6.57614 0
M  V30 1801 H 181.163 -2.03772 3.70455 0
M  V30 1802 H 178.881 -0.958477 8.02396 0
M  V30 1803 H 182.467 -1.2974 5.6715 0
M  V30 1804 H 181.347 -0.766417 7.80446 0
M  V30 1805 N 178.85 -1.27639 -0.924453 0
M  V30 1806 C 179.76 -1.12466 -2.05885 0
M  V30 1807 C 180.776 -0.053869 -1.73917 0
M  V30 1808 O 181.952 -0.261012 -1.99702 0
M  V30 1809 C 179.017 -0.776768 -3.37886 0
M  V30 1810 C 178.078 -1.92878 -3.83532 0
M  V30 1811 C 177.311 -1.59739 -5.09234 0
M  V30 1812 O 177.534 -0.506782 -5.68144 0
M  V30 1813 O 176.468 -2.43761 -5.50331 0
M  V30 1814 H 180.294 -2.07671 -2.21599 0
M  V30 1815 H 177.879 -1.06857 -1.04413 0
M  V30 1816 H 179.761 -0.596229 -4.17161 0
M  V30 1817 H 178.436 0.145732 -3.23372 0
M  V30 1818 H 177.343 -2.1644 -3.0513 0
M  V30 1819 H 178.676 -2.8316 -4.02593 0
M  V30 1820 N 180.328 1.1314 -1.09713 0
M  V30 1821 C 181.275 2.18642 -0.739196 0
M  V30 1822 C 182.245 1.63706 0.280978 0
M  V30 1823 O 183.43 1.90111 0.161946 0
M  V30 1824 C 180.57 3.44685 -0.169102 0
M  V30 1825 C 179.683 4.13711 -1.24367 0
M  V30 1826 C 178.818 5.27379 -0.636019 0
M  V30 1827 C 177.857 5.88259 -1.69169 0
M  V30 1828 N 176.994 6.93352 -1.10485 0
M  V30 1829 H 181.834 2.48607 -1.64312 0
M  V30 1830 H 179.371 1.22066 -0.820875 0
M  V30 1831 H 181.329 4.16815 0.179256 0
M  V30 1832 H 179.959 3.15161 0.698079 0
M  V30 1833 H 179.011 3.39835 -1.70927 0
M  V30 1834 H 180.323 4.55037 -2.04311 0
M  V30 1835 H 179.477 6.06238 -0.236677 0
M  V30 1836 H 178.216 4.8731 0.194928 0
M  V30 1837 H 177.221 5.08092 -2.10055 0
M  V30 1838 H 178.446 6.30399 -2.52536 0
M  V30 1839 H 176.392 6.55335 -0.295234 0
M  V30 1840 H 176.309 7.33236 -1.84121 0
M  V30 1841 H 177.577 7.76057 -0.73181 0
M  V30 1842 N 181.806 0.884767 1.30421 0
M  V30 1843 C 182.739 0.295999 2.26272 0
M  V30 1844 C 183.717 -0.58332 1.51777 0
M  V30 1845 O 184.901 -0.53346 1.80794 0
M  V30 1846 C 182.028 -0.57944 3.33707 0
M  V30 1847 C 181.074 0.230525 4.25877 0
M  V30 1848 S 181.907 1.61867 5.1045 0
M  V30 1849 C 183.063 0.749756 6.21393 0
M  V30 1850 H 183.296 1.10848 2.75862 0
M  V30 1851 H 180.829 0.684178 1.38414 0
M  V30 1852 H 182.787 -1.07879 3.96071 0
M  V30 1853 H 181.448 -1.36601 2.82841 0
M  V30 1854 H 180.641 -0.437542 5.02097 0
M  V30 1855 H 180.243 0.662493 3.68086 0
M  V30 1856 H 182.535 -0.0333547 6.77492 0
M  V30 1857 H 183.478 1.48356 6.92384 0
M  V30 1858 H 183.886 0.310751 5.63644 0
M  V30 1859 N 183.284 -1.43765 0.645699 0
M  V30 1860 C 184.533 -2.01116 0.153412 0
M  V30 1861 C 184.846 -1.51493 -1.23731 0
M  V30 1862 O 186.052 -2.01067 -1.8244 0
M  V30 1863 C 184.508 -3.59206 0.223473 0
M  V30 1864 C 184.116 -4.17823 1.61642 0
M  V30 1865 C 185.86 -4.23972 -0.211597 0
M  V30 1866 C 183.767 -5.68183 1.64081 0
M  V30 1867 H 182.697 -0.752093 0.0535891 0
M  V30 1868 H 185.348 -1.6482 0.806633 0
M  V30 1869 H 183.73 -3.92867 -0.497118 0
M  V30 1870 H 184.904 -3.95674 2.36176 0
M  V30 1871 H 183.219 -3.65399 1.99681 0
M  V30 1872 H 185.816 -5.34275 -0.213112 0
M  V30 1873 H 186.159 -3.97352 -1.24165 0
M  V30 1874 H 186.692 -3.95166 0.456988 0
M  V30 1875 H 183.431 -5.99559 2.64971 0
M  V30 1876 H 182.951 -5.9241 0.938611 0
M  V30 1877 H 184.63 -6.32085 1.3812 0
M  V30 1878 N 184.763 -0.387143 -1.52771 0
M  V30 1879 C 185.673 0.456442 -2.30117 0
M  V30 1880 C 186.689 1.07342 -1.36944 0
M  V30 1881 O 187.865 1.07971 -1.70013 0
M  V30 1882 C 184.93 1.56957 -3.09136 0
M  V30 1883 C 183.991 0.977916 -4.18014 0
M  V30 1884 C 183.224 2.038 -4.93256 0
M  V30 1885 O 183.447 3.25271 -4.68567 0
M  V30 1886 O 182.381 1.6565 -5.78657 0
M  V30 1887 H 186.207 -0.17359 -3.03203 0
M  V30 1888 H 183.792 -0.150919 -1.48636 0
M  V30 1889 H 185.674 2.21628 -3.58412 0
M  V30 1890 H 184.349 2.18461 -2.38865 0
M  V30 1891 H 183.256 0.294525 -3.72939 0
M  V30 1892 H 184.589 0.407128 -4.90513 0
M  V30 1893 N 186.241 1.57166 -0.116904 0
M  V30 1894 C 187.171 2.18222 0.830759 0
M  V30 1895 C 188.152 1.12167 1.27877 0
M  V30 1896 O 189.337 1.40394 1.34176 0
M  V30 1897 C 186.467 2.77996 2.08172 0
M  V30 1898 C 185.421 3.89614 1.77157 0
M  V30 1899 C 184.747 4.36187 3.09265 0
M  V30 1900 C 186.047 5.1181 1.04151 0
M  V30 1901 H 187.741 2.97664 0.321992 0
M  V30 1902 H 185.287 1.4318 0.153434 0
M  V30 1903 H 187.24 3.19366 2.74924 0
M  V30 1904 H 185.964 1.9584 2.6137 0
M  V30 1905 H 184.623 3.48816 1.12796 0
M  V30 1906 H 184.271 3.50893 3.60393 0
M  V30 1907 H 183.971 5.11455 2.89288 0
M  V30 1908 H 185.495 4.80207 3.77139 0
M  V30 1909 H 186.909 5.50214 1.61052 0
M  V30 1910 H 185.306 5.92648 0.942762 0
M  V30 1911 H 186.376 4.84892 0.0279022 0
M  V30 1912 N 187.719 -0.156864 1.56817 0
M  V30 1913 C 189.135 -0.50916 1.5126 0
M  V30 1914 C 189.335 -1.83897 0.823658 0
M  V30 1915 O 188.391 -2.49469 0.390055 0
M  V30 1916 C 189.704 -0.52857 2.96018 0
M  V30 1917 C 191.252 -0.614771 3.06903 0
M  V30 1918 C 191.727 -0.664938 4.53147 0
M  V30 1919 N 193.218 -0.727433 4.57452 0
M  V30 1920 C 193.953 -0.787067 5.67973 0
M  V30 1921 N 193.449 -0.806649 6.88088 0
M  V30 1922 N 195.242 -0.827195 5.5598 0
M  V30 1923 H 187.393 0.714935 2.00006 0
M  V30 1924 H 189.656 0.259526 0.911784 0
M  V30 1925 H 189.362 0.380154 3.49639 0
M  V30 1926 H 189.236 -1.36998 3.51442 0
M  V30 1927 H 191.623 -1.51392 2.53307 0
M  V30 1928 H 191.704 0.253597 2.5454 0
M  V30 1929 H 191.348 0.230011 5.07379 0
M  V30 1930 H 191.278 -1.54966 5.03282 0
M  V30 1931 H 193.769 -0.719998 3.70978 0
M  V30 1932 H 194.082 -0.853727 7.6807 0
M  V30 1933 H 192.427 -0.774687 6.90669 0
M  V30 1934 H 195.618 -0.808998 4.61056 0
M  V30 1935 H 195.791 -0.870206 6.4213 0
M  V30 1936 N 189.197 -1.51736 -0.425897 0
M  V30 1937 C 190.16 -1.73271 -1.50032 0
M  V30 1938 C 191.16 -0.602639 -1.4908 0
M  V30 1939 O 192.35 -0.87033 -1.509 0
M  V30 1940 C 189.482 -1.79969 -2.89523 0
M  V30 1941 H 190.675 -2.69172 -1.32237 0
M  V30 1942 H 188.228 -1.41899 -0.65532 0
M  V30 1943 H 188.963 -0.859241 -3.1271 0
M  V30 1944 H 188.748 -2.62109 -2.91619 0
M  V30 1945 H 190.238 -1.9843 -3.67444 0
M  V30 1946 N 190.675 0.682077 -1.42076 0
M  V30 1947 C 191.638 1.77756 -1.44691 0
M  V30 1948 C 192.638 1.5726 -0.335535 0
M  V30 1949 O 193.828 1.63686 -0.596037 0
M  V30 1950 C 190.96 3.16301 -1.27146 0
M  V30 1951 H 192.153 1.76826 -2.42224 0
M  V30 1952 H 189.706 0.891012 -1.28416 0
M  V30 1953 H 190.441 3.22862 -0.305075 0
M  V30 1954 H 190.226 3.32581 -2.07683 0
M  V30 1955 H 191.716 3.96241 -1.31843 0
M  V30 1956 N 192.153 1.28127 0.917671 0
M  V30 1957 C 193.401 1.14825 1.66312 0
M  V30 1958 C 193.722 -0.304379 1.9261 0
M  V30 1959 O 192.992 -1.21149 1.53947 0
M  V30 1960 H 191.572 0.421953 0.616413 0
M  V30 1961 H 194.234 1.608 1.10134 0
M  V30 1962 H 193.33 1.68489 2.62712 0
M  V30 1963 N 193.631 -1.12557 1.10312 0
M  V30 1964 C 194.561 -2.20341 0.772798 0
M  V30 1965 C 195.542 -1.68198 -0.25365 0
M  V30 1966 O 196.727 -1.93831 -0.119699 0
M  V30 1967 C 193.857 -3.46709 0.202443 0
M  V30 1968 C 192.811 -4.11996 1.15943 0
M  V30 1969 C 192.137 -5.328 0.450345 0
M  V30 1970 C 193.437 -4.5828 2.50552 0
M  V30 1971 H 195.131 -2.48229 1.674 0
M  V30 1972 H 192.677 -1.19308 0.806326 0
M  V30 1973 H 194.63 -4.2138 -0.0407752 0
M  V30 1974 H 193.354 -3.18245 -0.734001 0
M  V30 1975 H 192.013 -3.39305 1.38808 0
M  V30 1976 H 191.661 -5.00602 -0.490531 0
M  V30 1977 H 191.361 -5.7743 1.08851 0
M  V30 1978 H 192.885 -6.10219 0.215642 0
M  V30 1979 H 194.299 -5.2433 2.31843 0
M  V30 1980 H 192.696 -5.13683 3.10242 0
M  V30 1981 H 193.766 -3.72329 3.10643 0
M  V30 1982 N 195.109 -0.891671 -1.2995 0
M  V30 1983 C 196.337 -0.52866 -2.00032 0
M  V30 1984 C 196.752 0.884574 -1.66795 0
M  V30 1985 O 196.109 1.5827 -0.908669 0
M  V30 1986 C 196.16 -0.701814 -3.54622 0
M  V30 1987 O 195.881 -2.05942 -3.86678 0
M  V30 1988 C 197.382 -0.342683 -4.41973 0
M  V30 1989 H 194.602 -0.203659 -0.639347 0
M  V30 1990 H 197.146 -1.19881 -1.65677 0
M  V30 1991 H 195.301 -0.0789468 -3.8732 0
M  V30 1992 H 195.715 -2.08291 -4.81368 0
M  V30 1993 H 197.189 -0.514709 -5.49595 0
M  V30 1994 H 197.666 0.71975 -4.33262 0
M  V30 1995 H 198.272 -0.942154 -4.14733 0
M  V30 1996 N 196.587 1.43421 -0.653314 0
M  V30 1997 C 198.003 1.56341 -0.320886 0
M  V30 1998 C 198.203 1.63696 1.17499 0
M  V30 1999 O 197.259 1.59208 1.95982 0
M  V30 2000 C 198.572 2.82424 -1.03233 0
M  V30 2001 C 200.12 2.96168 -1.01259 0
M  V30 2002 C 200.595 4.25084 -1.70492 0
M  V30 2003 N 202.086 4.31948 -1.67257 0
M  V30 2004 C 202.821 5.30466 -2.17701 0
M  V30 2005 N 202.317 6.35261 -2.76434 0
M  V30 2006 N 204.11 5.2212 -2.082 0
M  V30 2007 H 196.261 1.3689 -1.62403 0
M  V30 2008 H 198.524 0.657455 -0.682977 0
M  V30 2009 H 198.23 2.83053 -2.08744 0
M  V30 2010 H 198.104 3.72653 -0.583948 0
M  V30 2011 H 200.491 2.9508 0.0341235 0
M  V30 2012 H 200.572 2.07229 -1.49966 0
M  V30 2013 H 200.216 4.26932 -2.7512 0
M  V30 2014 H 200.146 5.1292 -1.19251 0
M  V30 2015 H 202.637 3.56838 -1.24398 0
M  V30 2016 H 202.95 7.06754 -3.12601 0
M  V30 2017 H 201.295 6.35884 -2.80495 0
M  V30 2018 H 204.486 4.39166 -1.62021 0
M  V30 2019 H 204.659 5.98739 -2.47822 0
M  V30 2020 N 198.065 0.39524 1.52563 0
M  V30 2021 C 199.29 -0.187456 2.06551 0
M  V30 2022 C 199.715 -1.39249 1.26457 0
M  V30 2023 O 199.073 -1.78947 0.291151 0
M  V30 2024 C 199.121 -0.529985 3.56684 0
M  V30 2025 O 198.225 -1.62307 3.79118 0
M  V30 2026 H 197.566 -0.0202537 0.663691 0
M  V30 2027 H 200.096 0.564426 1.96661 0
M  V30 2028 H 200.106 -0.792598 4.00227 0
M  V30 2029 H 198.781 0.350987 4.14416 0
M  V30 2030 H 197.358 -1.3537 3.47461 0
M  V30 2031 N 199.544 -1.57102 0.125237 0
M  V30 2032 C 200.793 -1.94582 -0.531095 0
M  V30 2033 C 201.106 -1.01126 -1.6743 0
M  V30 2034 O 202.312 -1.28097 -2.39381 0
M  V30 2035 C 200.768 -3.45839 -0.996164 0
M  V30 2036 C 200.376 -4.47842 0.118926 0
M  V30 2037 C 202.12 -3.92227 -1.62352 0
M  V30 2038 C 200.027 -5.90284 -0.363192 0
M  V30 2039 H 198.957 -0.726391 -0.20217 0
M  V30 2040 H 201.608 -1.82339 0.206092 0
M  V30 2041 H 199.99 -3.53338 -1.78796 0
M  V30 2042 H 201.164 -4.52018 0.895358 0
M  V30 2043 H 199.479 -4.11243 0.653324 0
M  V30 2044 H 202.076 -4.96069 -1.99548 0
M  V30 2045 H 202.419 -3.32552 -2.50429 0
M  V30 2046 H 202.952 -3.87554 -0.897019 0
M  V30 2047 H 199.691 -6.53728 0.481679 0
M  V30 2048 H 199.211 -5.89515 -1.10597 0
M  V30 2049 H 200.89 -6.41752 -0.822377 0
M  V30 2050 N 201.022 0.148545 -1.56898 0
M  V30 2051 C 202.27 0.859717 -1.82902 0
M  V30 2052 C 202.591 1.81775 -0.70588 0
M  V30 2053 O 201.861 1.93994 0.272586 0
M  V30 2054 H 200.441 0.320469 -0.674766 0
M  V30 2055 H 203.103 0.142918 -1.94375 0
M  V30 2056 H 202.199 1.4229 -2.77777 0
M  V30 2057 N 202.5 1.5196 0.417844 0
M  V30 2058 C 203.746 1.65836 1.16732 0
M  V30 2059 C 204.079 0.382881 1.90388 0
M  V30 2060 O 203.354 -0.618368 1.84408 0
M  V30 2061 C 203.637 2.87466 2.16876 0
M  V30 2062 C 203.49 4.25041 1.47174 0
M  V30 2063 C 204.809 3.04613 3.17646 0
M  V30 2064 H 201.928 0.603515 0.423011 0
M  V30 2065 H 204.57 1.84494 0.454105 0
M  V30 2066 H 202.72 2.71689 2.777 0
M  V30 2067 H 204.392 4.52527 0.895376 0
M  V30 2068 H 202.635 4.26843 0.773806 0
M  V30 2069 H 203.306 5.06176 2.20204 0
M  V30 2070 H 205.782 3.1923 2.66892 0
M  V30 2071 H 204.658 3.91247 3.8499 0
M  V30 2072 H 204.919 2.17541 3.84874 0
M  V30 2073 N 203.978 -0.674533 1.42435 0
M  V30 2074 C 205.203 -1.46784 1.46524 0
M  V30 2075 C 205.628 -1.87938 0.078066 0
M  V30 2076 O 204.986 -1.56014 -0.92354 0
M  V30 2077 C 205.034 -2.69307 2.39805 0
M  V30 2078 O 204.138 -3.67587 1.86959 0
M  V30 2079 H 203.479 -0.440959 0.496439 0
M  V30 2080 H 206.009 -0.827326 1.87127 0
M  V30 2081 H 206.019 -3.17374 2.56393 0
M  V30 2082 H 204.694 -2.38692 3.40586 0
M  V30 2083 H 203.271 -3.2662 1.79927 0
M  V30 2084 N 205.456 -1.28612 -0.910864 0
M  V30 2085 C 206.404 -1.1265 -2.03501 0
M  V30 2086 C 207.398 -0.0450054 -1.6934 0
M  V30 2087 O 208.604 -0.203988 -1.7884 0
M  V30 2088 H 204.979 -0.347639 -0.666822 0
M  V30 2089 H 206.95 -2.07849 -2.14106 0
M  V30 2090 C 205.699 -0.808143 -3.38178 0
M  V30 2091 H 205.022 -1.63231 -3.6496 0
M  V30 2092 H 206.462 -0.736426 -4.17556 0
M  V30 2093 C 204.921 0.488226 -3.33344 0
M  V30 2094 O 205.451 1.51766 -3.71927 0
M  V30 2095 N 203.657 0.490009 -2.86439 0
M  V30 2096 H 203.204 -0.348161 -2.55236 0
M  V30 2097 H 203.162 1.35741 -2.83587 0
M  V30 2098 N 206.934 1.1197 -1.10907 0
M  V30 2099 C 207.884 2.15946 -0.731538 0
M  V30 2100 C 208.868 1.58758 0.261699 0
M  V30 2101 O 210.06 1.76863 0.0696722 0
M  V30 2102 C 207.189 3.42877 -0.170299 0
M  V30 2103 C 206.275 4.07037 -1.19087 0
M  V30 2104 N 206.666 4.46135 -2.38322 0
M  V30 2105 C 204.964 4.33884 -1.03252 0
M  V30 2106 C 205.665 4.96331 -3.03366 0
M  V30 2107 N 204.641 4.9214 -2.30865 0
M  V30 2108 H 208.443 2.43947 -1.63912 0
M  V30 2109 H 205.957 1.28927 -0.987505 0
M  V30 2110 H 207.954 4.16732 0.118271 0
M  V30 2111 H 206.614 3.16343 0.731935 0
M  V30 2112 H 207.625 4.38345 -2.75815 0
M  V30 2113 H 204.302 4.17084 -0.186256 0
M  V30 2114 H 205.692 5.36257 -4.04818 0
M  V30 2115 N 208.412 0.89855 1.29475 0
M  V30 2116 C 209.342 0.39201 2.30186 0
M  V30 2117 C 210.323 -0.532359 1.61555 0
M  V30 2118 O 211.508 -0.443331 1.89072 0
M  V30 2119 C 208.638 -0.382353 3.45189 0
M  V30 2120 C 207.592 0.451483 4.25612 0
M  V30 2121 C 206.918 -0.450307 5.328 0
M  V30 2122 C 208.218 1.70079 4.93832 0
M  V30 2123 H 209.912 1.23362 2.72804 0
M  V30 2124 H 207.458 0.594638 1.31149 0
M  V30 2125 H 209.411 -0.747451 4.14718 0
M  V30 2126 H 208.135 -1.25774 3.01411 0
M  V30 2127 H 206.794 0.798897 3.57789 0
M  V30 2128 H 206.442 -1.32379 4.85268 0
M  V30 2129 H 206.142 0.103902 5.87508 0
M  V30 2130 H 207.666 -0.811623 6.05182 0
M  V30 2131 H 209.08 1.40549 5.55805 0
M  V30 2132 H 207.477 2.19623 5.58467 0
M  V30 2133 H 208.547 2.43744 4.19186 0
M  V30 2134 N 209.89 -1.43072 0.660911 0
M  V30 2135 C 211.136 -2.0202 0.177708 0
M  V30 2136 C 211.469 -1.52066 -1.20787 0
M  V30 2137 O 210.744 -0.716987 -1.80802 0
M  V30 2138 C 211.027 -3.59561 0.197019 0
M  V30 2139 C 210.88 -4.19727 1.61706 0
M  V30 2140 C 212.199 -4.37664 -0.462396 0
M  V30 2141 H 209.318 -0.734034 0.0660494 0
M  V30 2142 H 211.96 -1.70272 0.843058 0
M  V30 2143 H 210.11 -3.86739 -0.369527 0
M  V30 2144 H 211.782 -4.03553 2.23479 0
M  V30 2145 H 210.025 -3.76084 2.16201 0
M  V30 2146 H 210.696 -5.28834 1.58237 0
M  V30 2147 H 213.172 -4.16095 0.0197215 0
M  V30 2148 H 212.048 -5.47305 -0.418188 0
M  V30 2149 H 212.309 -4.14493 -1.53778 0
M  V30 2150 N 211.368 -0.403325 -1.52352 0
M  V30 2151 C 212.779 0.0675782 -1.86578 0
M  V30 2152 C 213.13 1.44941 -1.32236 0
M  V30 2153 O 212.255 2.06112 -0.659307 0
M  V30 2154 C 212.85 0.129404 -3.38553 0
M  V30 2155 C 211.409 0.544629 -3.72439 0
M  V30 2156 C 210.556 -0.284551 -2.75836 0
M  V30 2157 H 213.507 -0.620631 -1.46061 0
M  V30 2158 H 213.528 0.94581 -3.68558 0
M  V30 2159 H 213.04 -0.87645 -3.78074 0
M  V30 2160 H 211.141 1.55734 -3.38493 0
M  V30 2161 H 211.254 0.293046 -4.78203 0
M  V30 2162 H 209.618 0.252258 -2.53448 0
M  V30 2163 H 210.401 -1.28865 -3.18196 0
M  V30 2164 N 212.846 1.57033 -0.133567 0
M  V30 2165 C 213.796 2.12641 0.822671 0
M  V30 2166 C 214.78 1.05081 1.21847 0
M  V30 2167 O 215.972 1.31287 1.18713 0
M  V30 2168 C 213.101 2.74094 2.06706 0
M  V30 2169 C 212.187 3.88757 1.69497 0
M  V30 2170 N 212.578 4.95194 1.03037 0
M  V30 2171 C 210.876 3.99213 1.98859 0
M  V30 2172 C 211.577 5.75414 0.852873 0
M  V30 2173 N 210.553 5.25726 1.3825 0
M  V30 2174 H 214.355 2.92308 0.305537 0
M  V30 2175 H 211.869 1.62256 0.0684276 0
M  V30 2176 H 213.866 3.12285 2.76195 0
M  V30 2177 H 212.526 1.95896 2.5895 0
M  V30 2178 H 213.537 5.13247 0.692669 0
M  V30 2179 H 210.214 3.32075 2.53047 0
M  V30 2180 H 211.604 6.71089 0.330091 0
M  V30 2181 N 214.325 -0.140222 1.56975 0
M  V30 2182 C 215.255 -1.17456 2.01808 0
M  V30 2183 C 216.236 -1.44415 0.898794 0
M  V30 2184 O 217.421 -1.5522 1.16707 0
M  V30 2185 C 214.551 -2.50607 2.40444 0
M  V30 2186 C 213.505 -2.38155 3.55621 0
M  V30 2187 C 212.831 -3.76078 3.80091 0
M  V30 2188 C 214.131 -1.85991 4.88062 0
M  V30 2189 H 215.825 -0.801743 2.88466 0
M  V30 2190 H 213.371 -0.38422 1.38779 0
M  V30 2191 H 215.324 -3.23197 2.7041 0
M  V30 2192 H 214.048 -2.89737 1.50732 0
M  V30 2193 H 212.707 -1.68016 3.25832 0
M  V30 2194 H 212.355 -4.12656 2.87618 0
M  V30 2195 H 212.055 -3.68606 4.57606 0
M  V30 2196 H 213.579 -4.50206 4.12488 0
M  V30 2197 H 214.993 -2.4838 5.16701 0
M  V30 2198 H 213.39 -1.89393 5.6943 0
M  V30 2199 H 214.46 -0.816023 4.77984 0
M  V30 2200 N 215.803 -1.52179 -0.40978 0
M  V30 2201 C 216.713 -1.78364 -1.52392 0
M  V30 2202 C 217.729 -0.669183 -1.60617 0
M  V30 2203 O 218.905 -0.954518 -1.77344 0
M  V30 2204 C 215.97 -1.92822 -2.88133 0
M  V30 2205 C 215.031 -3.16725 -2.898 0
M  V30 2206 C 214.264 -3.30483 -4.19067 0
M  V30 2207 O 214.487 -2.49522 -5.12928 0
M  V30 2208 O 213.421 -4.2363 -4.27576 0
M  V30 2209 H 217.247 -2.72931 -1.33201 0
M  V30 2210 H 214.832 -1.37016 -0.59557 0
M  V30 2211 H 216.714 -2.04157 -3.68643 0
M  V30 2212 H 215.389 -1.01444 -3.07393 0
M  V30 2213 H 214.296 -3.10848 -2.08146 0
M  V30 2214 H 215.629 -4.07881 -2.75489 0
M  V30 2215 N 217.281 0.66697 -1.42791 0
M  V30 2216 C 218.697 0.981027 -1.25889 0
M  V30 2217 C 218.897 2.00793 -0.168695 0
M  V30 2218 O 217.953 2.48321 0.45747 0
M  V30 2219 C 219.266 1.47838 -2.61848 0
M  V30 2220 C 220.814 1.59575 -2.69267 0
M  V30 2221 C 221.289 2.12704 -4.05612 0
M  V30 2222 N 222.78 2.20026 -4.07606 0
M  V30 2223 C 223.515 2.62227 -5.09926 0
M  V30 2224 N 223.011 3.03824 -6.22626 0
M  V30 2225 N 224.804 2.62045 -4.97281 0
M  V30 2226 H 216.955 -0.0127891 -2.12396 0
M  V30 2227 H 219.218 0.0568258 -0.946295 0
M  V30 2228 H 218.924 0.798299 -3.4252 0
M  V30 2229 H 218.798 2.45579 -2.86305 0
M  V30 2230 H 221.185 2.26687 -1.88936 0
M  V30 2231 H 221.266 0.60302 -2.48591 0
M  V30 2232 H 220.91 1.46198 -4.86404 0
M  V30 2233 H 220.84 3.12782 -4.23645 0
M  V30 2234 H 223.331 1.90708 -3.2625 0
M  V30 2235 H 223.644 3.34734 -6.96544 0
M  V30 2236 H 221.989 3.01662 -6.26119 0
M  V30 2237 H 225.18 2.28916 -4.08308 0
M  V30 2238 H 225.353 2.94613 -5.77154 0
M  V30 2239 N 218.759 1.29093 0.90403 0
M  V30 2240 C 220.008 1.16187 1.64874 0
M  V30 2241 C 220.321 -0.286742 1.93487 0
M  V30 2242 O 221.527 -0.537062 2.66135 0
M  V30 2243 C 219.983 2.03177 2.97064 0
M  V30 2244 C 219.591 3.52836 2.76062 0
M  V30 2245 C 221.335 1.98984 3.74974 0
M  V30 2246 C 219.242 4.31945 4.03952 0
M  V30 2247 H 218.172 0.431246 0.618501 0
M  V30 2248 H 220.823 1.53699 1.00243 0
M  V30 2249 H 219.205 1.5853 3.62883 0
M  V30 2250 H 220.379 4.05507 2.18863 0
M  V30 2251 H 218.694 3.58656 2.11553 0
M  V30 2252 H 221.291 2.55351 4.69787 0
M  V30 2253 H 221.634 0.968815 4.0487 0
M  V30 2254 H 222.167 2.41652 3.15989 0
M  V30 2255 H 218.906 5.34667 3.79225 0
M  V30 2256 H 218.426 3.84045 4.60727 0
M  V30 2257 H 220.105 4.42379 4.72133 0
M  V30 2258 N 220.237 -1.11381 1.11499 0
M  V30 2259 C 221.483 -1.83403 0.865512 0
M  V30 2260 C 221.816 -1.84459 -0.607329 0
M  V30 2261 O 221.091 -1.29811 -1.44842 0
M  V30 2262 C 221.374 -3.30552 1.42855 0
M  V30 2263 C 221.227 -3.37886 2.96906 0
M  V30 2264 C 222.546 -4.26643 1.08 0
M  V30 2265 H 219.665 -0.665879 0.31587 0
M  V30 2266 H 222.307 -1.30601 1.37998 0
M  V30 2267 H 220.457 -3.75648 0.990985 0
M  V30 2268 H 222.129 -3.01343 3.49271 0
M  V30 2269 H 220.372 -2.78088 3.32941 0
M  V30 2270 H 221.043 -4.41458 3.31389 0
M  V30 2271 H 223.519 -3.89729 1.45775 0
M  V30 2272 H 222.395 -5.27986 1.50072 0
M  V30 2273 H 222.656 -4.42099 -0.00915037 0
M  V30 2274 N 221.715 -0.905404 -1.28997 0
M  V30 2275 C 222.678 -0.392253 -2.25819 0
M  V30 2276 C 223.678 0.476753 -1.5357 0
M  V30 2277 O 224.868 0.280994 -1.71919 0
M  V30 2278 C 222 0.438588 -3.38067 0
M  V30 2279 H 223.193 -1.24743 -2.72725 0
M  V30 2280 H 220.746 -0.684051 -1.40536 0
M  V30 2281 H 221.481 1.31352 -2.96508 0
M  V30 2282 H 221.266 -0.184167 -3.91667 0
M  V30 2283 H 222.756 0.78873 -4.10084 0
M  V30 2284 N 223.193 1.4272 -0.668489 0
M  V30 2285 C 224.156 2.292 0.00448567 0
M  V30 2286 C 225.156 1.43001 0.735339 0
M  V30 2287 O 226.346 1.64461 0.57429 0
M  V30 2288 C 223.478 3.25375 1.01705 0
M  V30 2289 H 224.671 2.90199 -0.756608 0
M  V30 2290 H 222.224 1.50254 -0.430506 0
M  V30 2291 H 222.959 2.69301 1.80686 0
M  V30 2292 H 222.744 3.88944 0.496463 0
M  V30 2293 H 224.234 3.90245 1.48655 0
M  V30 2294 N 224.671 0.411399 1.52136 0
M  V30 2295 C 225.899 -0.163076 2.06256 0
M  V30 2296 C 226.314 -1.3867 1.28125 0
M  V30 2297 O 225.671 -1.79423 0.333721 0
M  V30 2298 C 225.722 -0.511252 3.57867 0
M  V30 2299 O 225.443 0.66378 4.33042 0
M  V30 2300 C 226.944 -1.13921 4.28412 0
M  V30 2301 H 224.164 -0.0193897 0.67072 0
M  V30 2302 H 226.708 0.583007 1.96013 0
M  V30 2303 H 224.863 -1.20723 3.6811 0
M  V30 2304 H 225.277 0.372601 5.23175 0
M  V30 2305 H 226.751 -1.33302 5.35663 0
M  V30 2306 H 227.228 -2.11296 3.85033 0
M  V30 2307 H 227.834 -0.483373 4.22544 0
M  V30 2308 N 226.149 -1.5696 0.141893 0
M  V30 2309 C 227.397 -1.95573 -0.509484 0
M  V30 2310 C 227.718 -1.02746 -1.65736 0
M  V30 2311 O 226.988 -0.0880311 -1.95702 0
M  V30 2312 H 225.568 -0.722115 -0.191205 0
M  V30 2313 H 228.23 -1.93697 0.216196 0
M  V30 2314 H 227.326 -2.99171 -0.889 0
M  V30 2315 N 227.627 0.131896 -1.57047 0
M  V30 2316 C 228.873 0.843179 -1.84441 0
M  V30 2317 C 229.206 1.80129 -0.725749 0
M  V30 2318 O 228.481 1.92624 0.269469 0
M  V30 2319 C 228.764 1.60442 -3.22382 0
M  V30 2320 C 228.617 0.666782 -4.4483 0
M  V30 2321 C 229.936 2.56354 -3.5773 0
M  V30 2322 H 227.055 0.305081 -0.670891 0
M  V30 2323 H 229.697 0.107839 -1.89694 0
M  V30 2324 H 227.847 2.23128 -3.18035 0
M  V30 2325 H 229.519 0.0497646 -4.61273 0
M  V30 2326 H 227.762 -0.022609 -4.33794 0
M  V30 2327 H 228.433 1.23579 -5.37989 0
M  V30 2328 H 230.909 2.0378 -3.62785 0
M  V30 2329 H 229.785 3.06657 -4.5525 0
M  V30 2330 H 230.046 3.38419 -2.84473 0
M  V30 2331 N 229.106 1.52395 0.401703 0
M  V30 2332 C 230.352 1.67065 1.14966 0
M  V30 2333 C 230.685 0.403052 1.89971 0
M  V30 2334 O 229.96 -0.598774 1.85054 0
M  V30 2335 C 230.243 2.8975 2.13815 0
M  V30 2336 C 230.096 4.26578 1.42658 0
M  V30 2337 C 231.415 3.07965 3.14397 0
M  V30 2338 H 228.534 0.607968 0.416587 0
M  V30 2339 H 231.176 1.84965 0.434511 0
M  V30 2340 H 229.326 2.74619 2.74803 0
M  V30 2341 H 230.998 4.53451 0.847329 0
M  V30 2342 H 229.241 4.27639 0.72849 0
M  V30 2343 H 229.912 5.08483 2.14823 0
M  V30 2344 H 232.388 3.22043 2.63491 0
M  V30 2345 H 231.264 3.95308 3.80819 0
M  V30 2346 H 231.525 2.21611 3.82545 0
M  V30 2347 N 230.584 -0.659388 1.43143 0
M  V30 2348 C 231.995 -1.24041 1.39537 0
M  V30 2349 C 232.346 -1.95963 0.0963364 0
M  V30 2350 O 231.471 -2.00892 -0.804438 0
M  V30 2351 C 232.066 -2.25601 2.52764 0
M  V30 2352 C 230.625 -2.79195 2.52443 0
M  V30 2353 C 229.772 -1.53743 2.30778 0
M  V30 2354 H 232.723 -0.451792 1.52133 0
M  V30 2355 H 232.744 -3.07651 2.23899 0
M  V30 2356 H 232.256 -1.73226 3.47296 0
M  V30 2357 H 230.357 -3.35649 1.61773 0
M  V30 2358 H 230.47 -3.2716 3.50004 0
M  V30 2359 H 228.834 -1.80869 1.79328 0
M  V30 2360 H 229.617 -1.03312 3.27386 0
M  V30 2361 N 232.062 -1.29571 -0.897171 0
M  V30 2362 C 233.025 -1.14913 -1.98312 0
M  V30 2363 C 234.025 -0.0838629 -1.60581 0
M  V30 2364 O 235.215 -0.331006 -1.71026 0
M  V30 2365 C 232.347 -0.757835 -3.3237 0
M  V30 2366 H 233.54 -2.11377 -2.12743 0
M  V30 2367 H 231.093 -1.12793 -1.08201 0
M  V30 2368 H 231.828 0.206837 -3.2364 0
M  V30 2369 H 231.613 -1.52755 -3.61121 0
M  V30 2370 H 233.103 -0.678408 -4.12053 0
M  V30 2371 N 233.54 1.10788 -1.12088 0
M  V30 2372 C 234.786 1.82942 -0.875226 0
M  V30 2373 C 235.119 1.84779 0.597538 0
M  V30 2374 O 234.394 1.30578 1.44152 0
M  V30 2375 C 234.677 3.29789 -1.44606 0
M  V30 2376 C 234.53 3.36307 -2.98693 0
M  V30 2377 C 235.849 4.26064 -1.10261 0
M  V30 2378 H 232.968 0.664195 -0.319397 0
M  V30 2379 H 235.61 1.29867 -1.38689 0
M  V30 2380 H 233.76 3.75118 -1.01089 0
M  V30 2381 H 235.432 2.99487 -3.50864 0
M  V30 2382 H 233.675 2.76318 -3.34411 0
M  V30 2383 H 234.346 4.39694 -3.33726 0
M  V30 2384 H 236.822 3.88951 -1.4784 0
M  V30 2385 H 235.698 5.27183 -1.52869 0
M  V30 2386 H 235.959 4.42098 -0.0142953 0
M  V30 2387 N 235.018 0.912232 1.28515 0
M  V30 2388 C 235.966 0.389597 2.29314 0
M  V30 2389 C 236.96 -0.517915 1.61289 0
M  V30 2390 O 238.166 -0.399328 1.75515 0
M  V30 2391 H 234.541 0.107386 0.744293 0
M  V30 2392 H 236.512 1.25286 2.70825 0
M  V30 2393 C 235.261 -0.356496 3.45868 0
M  V30 2394 H 234.584 0.332608 3.98414 0
M  V30 2395 H 236.024 -0.686851 4.184 0
M  V30 2396 C 234.483 -1.56383 2.98406 0
M  V30 2397 O 235.013 -2.66294 3.00749 0
M  V30 2398 N 233.219 -1.41029 2.54085 0
M  V30 2399 H 232.766 -0.516089 2.52377 0
M  V30 2400 H 232.724 -2.21939 2.22689 0
M  V30 2401 N 236.496 -1.42363 0.676048 0
M  V30 2402 C 237.428 -2.29164 -0.0404605 0
M  V30 2403 C 238.441 -1.43747 -0.764245 0
M  V30 2404 O 239.63 -1.67453 -0.618195 0
M  V30 2405 C 236.73 -3.21196 -1.08103 0
M  V30 2406 C 235.903 -4.35273 -0.430812 0
M  V30 2407 C 234.962 -5.08017 -1.37133 0
M  V30 2408 O 233.988 -5.62494 -0.87116 0
M  V30 2409 N 235.19 -5.13647 -2.70456 0
M  V30 2410 H 237.955 -2.91298 0.704667 0
M  V30 2411 H 235.516 -1.53303 0.520559 0
M  V30 2412 H 237.508 -3.66728 -1.71152 0
M  V30 2413 H 236.078 -2.60505 -1.72788 0
M  V30 2414 H 235.298 -3.92372 0.379209 0
M  V30 2415 H 236.586 -5.08795 0.0221132 0
M  V30 2416 H 235.984 -4.708 -3.1363 0
M  V30 2417 H 234.541 -5.62821 -3.28749 0
M  V30 2418 N 237.974 -0.419461 -1.51915 0
M  V30 2419 C 239.223 0.154346 -2.01109 0
M  V30 2420 C 239.536 1.45338 -1.30905 0
M  V30 2421 O 240.742 2.10906 -1.7097 0
M  V30 2422 C 239.198 0.325615 -3.58424 0
M  V30 2423 C 238.806 -0.961934 -4.37551 0
M  V30 2424 C 240.55 0.854155 -4.15818 0
M  V30 2425 C 238.457 -0.757287 -5.86531 0
M  V30 2426 H 237.387 0.0614563 -0.751491 0
M  V30 2427 H 240.038 -0.54649 -1.75173 0
M  V30 2428 H 238.42 1.08903 -3.80731 0
M  V30 2429 H 239.594 -1.7323 -4.26999 0
M  V30 2430 H 237.909 -1.41766 -3.91524 0
M  V30 2431 H 240.506 1.02346 -5.24814 0
M  V30 2432 H 240.849 1.83172 -3.73837 0
M  V30 2433 H 241.382 0.149528 -3.97519 0
M  V30 2434 H 238.121 -1.70671 -6.32892 0
M  V30 2435 H 237.641 -0.0264061 -5.99794 0
M  V30 2436 H 239.32 -0.403482 -6.45741 0
M  V30 2437 N 239.452 1.56882 -0.150215 0
M  V30 2438 C 240.362 2.20494 0.801222 0
M  V30 2439 C 241.378 1.19019 1.26927 0
M  V30 2440 O 242.554 1.51607 1.32579 0
M  V30 2441 C 239.619 2.81659 2.02161 0
M  V30 2442 C 238.68 3.9827 1.60249 0
M  V30 2443 C 237.913 4.56508 2.7647 0
M  V30 2444 O 238.136 4.13627 3.92771 0
M  V30 2445 O 237.07 5.46719 2.51757 0
M  V30 2446 H 240.896 3.02315 0.289717 0
M  V30 2447 H 238.481 1.49202 0.0769684 0
M  V30 2448 H 240.363 3.20522 2.73576 0
M  V30 2449 H 239.038 2.02849 2.52258 0
M  V30 2450 H 237.945 3.64117 0.858477 0
M  V30 2451 H 239.278 4.78609 1.14864 0
M  V30 2452 N 240.93 -0.123565 1.57115 0
M  V30 2453 C 241.86 -1.15309 2.03042 0
M  V30 2454 C 242.841 -1.43454 0.914061 0
M  V30 2455 O 244.026 -1.53973 1.18347 0
M  V30 2456 C 241.156 -2.48043 2.43089 0
M  V30 2457 C 240.11 -2.3437 3.58127 0
M  V30 2458 C 239.436 -3.72026 3.84059 0
M  V30 2459 C 240.736 -1.80804 4.90007 0
M  V30 2460 H 242.43 -0.771102 2.893 0
M  V30 2461 H 239.976 -0.369479 1.39179 0
M  V30 2462 H 241.929 -3.20311 2.73823 0
M  V30 2463 H 240.653 -2.88122 1.53796 0
M  V30 2464 H 239.312 -1.64551 3.27595 0
M  V30 2465 H 238.96 -4.09582 2.91979 0
M  V30 2466 H 238.66 -3.63732 4.6149 0
M  V30 2467 H 240.184 -4.45806 4.1724 0
M  V30 2468 H 241.598 -2.42886 5.19307 0
M  V30 2469 H 239.995 -1.83343 5.71407 0
M  V30 2470 H 241.065 -0.76528 4.78823 0
M  V30 2471 N 242.408 -1.52605 -0.393616 0
M  V30 2472 C 243.358 -1.73436 -1.48 0
M  V30 2473 C 244.342 -0.588386 -1.49756 0
M  V30 2474 O 245.534 -0.846047 -1.5547 0
M  V30 2475 C 242.663 -1.90247 -2.85764 0
M  V30 2476 C 241.749 -3.10763 -2.88595 0
M  V30 2477 N 242.14 -4.33196 -2.61103 0
M  V30 2478 C 240.438 -3.10914 -3.19763 0
M  V30 2479 C 241.139 -5.1477 -2.70899 0
M  V30 2480 N 240.115 -4.50356 -3.04435 0
M  V30 2481 H 243.917 -2.65727 -1.25563 0
M  V30 2482 H 241.431 -1.5085 -0.601513 0
M  V30 2483 H 243.428 -2.03291 -3.63976 0
M  V30 2484 H 242.088 -0.991663 -3.09186 0
M  V30 2485 H 243.099 -4.61408 -2.35209 0
M  V30 2486 H 239.776 -2.29626 -3.4868 0
M  V30 2487 H 241.166 -6.22355 -2.53227 0
M  V30 2488 N 243.887 0.651787 -1.4349 0
M  V30 2489 C 245.298 1.233 -1.40193 0
M  V30 2490 C 245.649 1.9591 -0.106727 0
M  V30 2491 O 244.774 2.01316 0.793773 0
M  V30 2492 C 245.369 2.24257 -2.53957 0
M  V30 2493 C 243.928 2.77852 -2.5392 0
M  V30 2494 C 243.075 1.52517 -2.3159 0
M  V30 2495 H 246.026 0.443717 -1.52371 0
M  V30 2496 H 246.047 3.0646 -2.25528 0
M  V30 2497 H 245.559 1.71382 -3.4821 0
M  V30 2498 H 243.66 3.34786 -1.63551 0
M  V30 2499 H 243.773 3.25299 -3.51735 0
M  V30 2500 H 242.137 1.79915 -1.80285 0
M  V30 2501 H 242.92 1.01574 -3.27929 0
M  V30 2502 N 245.365 1.30045 0.890287 0
M  V30 2503 C 246.328 1.15963 1.977 0
M  V30 2504 C 247.328 0.0923777 1.60534 0
M  V30 2505 O 248.518 0.340071 1.70848 0
M  V30 2506 C 245.65 0.775451 3.31963 0
M  V30 2507 H 246.843 2.12502 2.11619 0
M  V30 2508 H 244.396 1.13366 1.07601 0
M  V30 2509 H 245.131 -0.189671 3.23745 0
M  V30 2510 H 244.916 1.54668 3.60306 0
M  V30 2511 H 246.406 0.700251 4.11687 0
M  V30 2512 N 246.843 -1.10192 1.12674 0
M  V30 2513 C 248.073 -1.85713 0.905213 0
M  V30 2514 C 248.481 -1.81056 -0.549108 0
M  V30 2515 O 247.824 -1.19927 -1.39151 0
M  V30 2516 C 247.886 -3.34972 1.30516 0
M  V30 2517 C 247.55 -3.63385 2.77129 0
M  V30 2518 C 248.547 -3.59772 3.75313 0
M  V30 2519 C 246.232 -3.91981 3.14096 0
M  V30 2520 C 248.226 -3.84354 5.08479 0
M  V30 2521 C 245.913 -4.16218 4.47443 0
M  V30 2522 C 246.911 -4.12395 5.44444 0
M  V30 2523 O 246.599 -4.36014 6.75387 0
M  V30 2524 H 246.331 -0.593719 0.323223 0
M  V30 2525 H 248.885 -1.40198 1.50112 0
M  V30 2526 H 247.115 -3.81156 0.652463 0
M  V30 2527 H 248.804 -3.91886 1.05736 0
M  V30 2528 H 249.57 -3.37716 3.48099 0
M  V30 2529 H 245.449 -3.94085 2.39202 0
M  V30 2530 H 248.993 -3.81285 5.84181 0
M  V30 2531 H 244.89 -4.37754 4.74386 0
M  V30 2532 H 245.658 -4.53516 6.8137 0
M  V30 2533 N 248.321 -0.919034 -1.28029 0
M  V30 2534 C 249.253 -0.368762 -2.26214 0
M  V30 2535 C 250.266 0.495716 -1.55069 0
M  V30 2536 O 251.455 0.30974 -1.75792 0
M  V30 2537 C 248.555 0.491049 -3.35324 0
M  V30 2538 C 247.728 -0.352133 -4.3598 0
M  V30 2539 C 246.787 0.443622 -5.24327 0
M  V30 2540 O 245.813 -0.14566 -5.69014 0
M  V30 2541 N 247.015 1.74545 -5.53637 0
M  V30 2542 H 249.78 -1.21273 -2.74068 0
M  V30 2543 H 247.341 -0.785541 -1.41566 0
M  V30 2544 H 249.333 1.03026 -3.91366 0
M  V30 2545 H 247.903 1.23574 -2.87138 0
M  V30 2546 H 247.123 -1.07269 -3.79324 0
M  V30 2547 H 248.411 -0.928883 -5.00249 0
M  V30 2548 H 247.809 2.24666 -5.19174 0
M  V30 2549 H 246.366 2.23138 -6.12416 0
M  V30 2550 N 249.799 1.42003 -0.683588 0
M  V30 2551 C 250.731 2.29183 0.0283068 0
M  V30 2552 C 251.744 1.4415 0.756611 0
M  V30 2553 O 252.933 1.67779 0.609306 0
M  V30 2554 C 250.033 3.21765 1.06398 0
M  V30 2555 C 249.206 4.35496 0.407723 0
M  V30 2556 C 248.265 5.08737 1.34437 0
M  V30 2557 O 247.291 5.62948 0.841318 0
M  V30 2558 N 248.493 5.15075 2.67728 0
M  V30 2559 H 251.258 2.9092 -0.720105 0
M  V30 2560 H 248.819 1.53025 -0.528682 0
M  V30 2561 H 250.811 3.6763 1.69204 0
M  V30 2562 H 249.381 2.61418 1.71404 0
M  V30 2563 H 248.601 3.92165 -0.400012 0
M  V30 2564 H 249.889 5.08776 -0.0490956 0
M  V30 2565 H 249.287 4.72457 3.11129 0
M  V30 2566 H 247.844 5.64556 3.2576 0
M  V30 2567 N 251.277 0.427512 1.51691 0
M  V30 2568 C 252.693 0.0792977 1.59403 0
M  V30 2569 C 252.893 -1.41035 1.43914 0
M  V30 2570 O 251.949 -2.17922 1.27539 0
M  V30 2571 C 253.262 0.590636 2.94842 0
M  V30 2572 C 254.81 0.550215 3.08126 0
M  V30 2573 C 255.285 1.03836 4.46074 0
M  V30 2574 N 256.776 0.995943 4.52366 0
M  V30 2575 C 257.511 1.34463 5.57411 0
M  V30 2576 N 257.007 1.76569 6.69922 0
M  V30 2577 N 258.8 1.26343 5.47717 0
M  V30 2578 H 250.951 1.39687 1.60004 0
M  V30 2579 H 253.214 0.575003 0.753708 0
M  V30 2580 H 252.92 1.63251 3.11516 0
M  V30 2581 H 252.794 0.0102061 3.77199 0
M  V30 2582 H 255.181 -0.482654 2.91126 0
M  V30 2583 H 255.262 1.16693 2.27632 0
M  V30 2584 H 254.906 2.06965 4.63819 0
M  V30 2585 H 254.836 0.398286 5.25092 0
M  V30 2586 H 257.327 0.68661 3.7161 0
M  V30 2587 H 257.64 2.01438 7.46085 0
M  V30 2588 H 255.985 1.80488 6.71155 0
M  V30 2589 H 259.176 0.933209 4.58703 0
M  V30 2590 H 259.349 1.53846 6.29472 0
M  V30 2591 N 252.755 -1.56801 0.158532 0
M  V30 2592 C 253.665 -2.20916 -0.789518 0
M  V30 2593 C 254.681 -1.1969 -1.26294 0
M  V30 2594 O 255.857 -1.52308 -1.31773 0
M  V30 2595 C 252.922 -2.82727 -2.00665 0
M  V30 2596 C 251.983 -3.99114 -1.58134 0
M  V30 2597 C 251.216 -4.57968 -2.74045 0
M  V30 2598 O 251.439 -4.15704 -3.90572 0
M  V30 2599 O 250.373 -5.48047 -2.48855 0
M  V30 2600 H 254.199 -3.02464 -0.273681 0
M  V30 2601 H 251.784 -1.4924 -0.0690548 0
M  V30 2602 H 253.666 -3.21968 -2.71872 0
M  V30 2603 H 252.341 -2.04184 -2.51179 0
M  V30 2604 H 251.248 -3.64567 -0.839155 0
M  V30 2605 H 252.581 -4.79212 -1.12325 0
M  V30 2606 N 254.233 0.115231 -1.57178 0
M  V30 2607 C 255.482 0.820945 -1.84237 0
M  V30 2608 C 255.795 1.80866 -0.744761 0
M  V30 2609 O 257.001 2.56083 -0.901871 0
M  V30 2610 C 255.457 1.51072 -3.26658 0
M  V30 2611 C 255.065 0.563795 -4.44438 0
M  V30 2612 C 256.809 2.20134 -3.62962 0
M  V30 2613 C 254.716 1.25701 -5.77887 0
M  V30 2614 H 253.646 0.310328 -0.687177 0
M  V30 2615 H 256.297 0.0737134 -1.83352 0
M  V30 2616 H 254.679 2.30471 -3.22024 0
M  V30 2617 H 255.853 -0.197247 -4.60378 0
M  V30 2618 H 254.168 -0.0200638 -4.16395 0
M  V30 2619 H 256.765 2.72696 -4.59936 0
M  V30 2620 H 257.108 2.98107 -2.90582 0
M  V30 2621 H 257.641 1.47619 -3.69396 0
M  V30 2622 H 254.38 0.518493 -6.53446 0
M  V30 2623 H 253.9 1.98997 -5.65827 0
M  V30 2624 H 255.579 1.78915 -6.2177 0
M  V30 2625 N 255.711 1.52812 0.385517 0
M  V30 2626 C 256.939 1.71907 1.15133 0
M  V30 2627 C 257.354 0.439004 1.83625 0
M  V30 2628 O 256.711 -0.586765 1.7281 0
M  V30 2629 C 256.762 2.87099 2.19673 0
M  V30 2630 O 256.483 4.10151 1.53973 0
M  V30 2631 C 257.984 3.17902 3.08955 0
M  V30 2632 H 255.204 0.575479 0.345057 0
M  V30 2633 H 257.748 1.99476 0.45052 0
M  V30 2634 H 255.903 2.61982 2.85384 0
M  V30 2635 H 256.317 4.74514 2.23465 0
M  V30 2636 H 257.791 4.01959 3.7833 0
M  V30 2637 H 258.268 2.3243 3.72657 0
M  V30 2638 H 258.874 3.44871 2.48885 0
M  V30 2639 N 257.189 -0.644168 1.43834 0
M  V30 2640 C 258.466 -1.40188 1.36406 0
M  V30 2641 C 258.846 -2.11094 0.0163124 0
M  V30 2642 O 258.194 -2.05426 -1.00062 0
M  V30 2643 C 258.404 -2.3791 2.55343 0
M  V30 2644 C 259.752 -3.01637 2.98832 0
M  V30 2645 O 260.776 -2.48237 2.55455 0
M  V30 2646 O 259.635 -3.98477 3.74003 0
M  V30 2647 H 256.729 -0.626773 0.539523 0
M  V30 2648 H 259.275 -0.670317 1.559 0
M  V30 2649 H 258.047 -1.84525 3.4506 0
M  V30 2650 H 257.67 -3.18503 2.37995 0
M  V30 2651 N 258.668 -1.30515 -0.883378 0
M  V30 2652 C 259.914 -1.20617 -1.63778 0
M  V30 2653 C 260.269 0.236469 -1.90941 0
M  V30 2654 O 259.562 1.16596 -1.52039 0
M  V30 2655 C 259.756 -1.96994 -2.98209 0
M  V30 2656 C 259.585 -3.48537 -2.84169 0
M  V30 2657 C 258.355 -4.17893 -2.84067 0
M  V30 2658 C 260.553 -4.43738 -2.60001 0
M  V30 2659 N 258.535 -5.55685 -2.60936 0
M  V30 2660 C 259.906 -5.69105 -2.46007 0
M  V30 2661 C 261.961 -4.33316 -2.45239 0
M  V30 2662 C 260.664 -6.8523 -2.18752 0
M  V30 2663 C 262.69 -5.4921 -2.19369 0
M  V30 2664 C 262.052 -6.73558 -2.06153 0
M  V30 2665 H 258.151 -0.496434 -0.604216 0
M  V30 2666 H 260.735 -1.64544 -1.04083 0
M  V30 2667 H 258.906 -1.55455 -3.55933 0
M  V30 2668 H 260.638 -1.79225 -3.62851 0
M  V30 2669 H 257.393 -3.69739 -2.95956 0
M  V30 2670 H 257.817 -6.28199 -2.52378 0
M  V30 2671 H 262.459 -3.37856 -2.54191 0
M  V30 2672 H 260.177 -7.80729 -2.08537 0
M  V30 2673 H 263.763 -5.43054 -2.08766 0
M  V30 2674 H 262.643 -7.61721 -1.86416 0
M  V30 2675 N 260.146 1.09593 -1.13257 0
M  V30 2676 C 261.109 2.14359 -0.811358 0
M  V30 2677 C 262.109 1.59808 0.178377 0
M  V30 2678 O 263.299 1.74132 -0.0484911 0
M  V30 2679 C 260.431 3.40269 -0.207276 0
M  V30 2680 H 261.624 2.44284 -1.73969 0
M  V30 2681 H 259.177 1.25102 -0.936973 0
M  V30 2682 H 259.912 3.15969 0.73036 0
M  V30 2683 H 259.697 3.81154 -0.919992 0
M  V30 2684 H 261.187 4.176 0.000667944 0
M  V30 2685 N 261.624 0.925811 1.2754 0
M  V30 2686 C 262.587 0.428129 2.25166 0
M  V30 2687 C 263.587 -0.452261 1.54309 0
M  V30 2688 O 264.777 -0.253608 1.72344 0
M  V30 2689 C 261.909 -0.384749 3.38722 0
M  V30 2690 H 263.102 1.29066 2.70706 0
M  V30 2691 H 260.655 0.706323 1.3943 0
M  V30 2692 H 261.39 -1.26618 2.98561 0
M  V30 2693 H 261.175 0.246454 3.91325 0
M  V30 2694 H 262.665 -0.723389 4.11287 0
M  V30 2695 N 263.102 -1.41638 0.69111 0
M  V30 2696 C 264.065 -2.29178 0.0319786 0
M  V30 2697 C 265.065 -1.44153 -0.712496 0
M  V30 2698 O 266.255 -1.65354 -0.548053 0
M  V30 2699 C 263.387 -3.26952 -0.965161 0
M  V30 2700 H 264.58 -2.88959 0.802681 0
M  V30 2701 H 262.133 -1.4955 0.454356 0
M  V30 2702 H 262.868 -2.72142 -1.76378 0
M  V30 2703 H 262.653 -3.89685 -0.434522 0
M  V30 2704 H 264.143 -3.92561 -1.42428 0
M  V30 2705 N 264.58 -0.43555 -1.51462 0
M  V30 2706 C 265.53 0.394701 -2.24558 0
M  V30 2707 C 266.514 0.99157 -1.26715 0
M  V30 2708 O 267.706 0.910007 -1.51815 0
M  V30 2709 C 264.835 1.4963 -3.08975 0
M  V30 2710 C 263.921 0.908912 -4.14246 0
M  V30 2711 N 264.312 0.0505335 -5.05775 0
M  V30 2712 C 262.61 1.17668 -4.30198 0
M  V30 2713 C 263.311 -0.279161 -5.8103 0
M  V30 2714 N 262.287 0.336767 -5.42556 0
M  V30 2715 H 266.089 -0.267106 -2.92684 0
M  V30 2716 H 263.603 -0.247518 -1.60503 0
M  V30 2717 H 265.6 2.10394 -3.59917 0
M  V30 2718 H 264.26 2.16046 -2.42393 0
M  V30 2719 H 265.271 -0.31577 -5.16936 0
M  V30 2720 H 261.948 1.83847 -3.74842 0
M  V30 2721 H 263.338 -0.977553 -6.64751 0
M  V30 2722 N 266.058 1.56714 -0.166846 0
M  V30 2723 C 267.335 1.88412 0.525373 0
M  V30 2724 C 267.715 1.07602 1.81618 0
M  V30 2725 O 267.063 0.168621 2.27877 0
M  V30 2726 C 267.273 3.40363 0.771613 0
M  V30 2727 C 268.621 4.10007 1.1036 0
M  V30 2728 O 269.645 3.45655 0.860304 0
M  V30 2729 O 268.504 5.2369 1.56239 0
M  V30 2730 H 265.598 0.781587 0.270278 0
M  V30 2731 H 268.144 1.68458 -0.204946 0
M  V30 2732 H 266.916 3.91046 -0.141093 0
M  V30 2733 H 266.539 3.65914 1.55541 0
M  V30 2734 N 267.536 -0.106894 1.57237 0
M  V30 2735 C 268.782 -0.81373 1.85759 0
M  V30 2736 C 269.115 -1.78952 0.754315 0
M  V30 2737 O 268.39 -1.93029 -0.23879 0
M  V30 2738 C 268.673 -1.55293 3.24894 0
M  V30 2739 C 268.526 -0.595929 4.45835 0
M  V30 2740 C 269.845 -2.5063 3.61763 0
M  V30 2741 H 266.964 -0.294369 0.67566 0
M  V30 2742 H 269.606 -0.0776472 1.89841 0
M  V30 2743 H 267.756 -2.1804 3.21544 0
M  V30 2744 H 269.428 0.0236262 4.61294 0
M  V30 2745 H 267.671 0.0916191 4.33703 0
M  V30 2746 H 268.342 -1.15004 5.39887 0
M  V30 2747 H 270.818 -1.97982 3.65981 0
M  V30 2748 H 269.694 -2.99376 4.60071 0
M  V30 2749 H 269.955 -3.3385 2.89821 0
M  V30 2750 N 269.014 -1.53014 -0.377408 0
M  V30 2751 C 269.961 -1.78616 -1.46168 0
M  V30 2752 C 270.931 -0.629917 -1.53692 0
M  V30 2753 O 272.116 -0.870861 -1.69766 0
M  V30 2754 C 269.256 -1.97123 -2.8326 0
M  V30 2755 C 268.369 -3.24831 -2.84796 0
M  V30 2756 C 267.504 -3.33591 -4.13389 0
M  V30 2757 C 266.543 -4.55377 -4.09021 0
M  V30 2758 N 265.68 -4.61355 -5.29241 0
M  V30 2759 H 270.52 -2.71142 -1.23637 0
M  V30 2760 H 268.057 -1.34326 -0.599577 0
M  V30 2761 H 270.015 -2.05839 -3.62886 0
M  V30 2762 H 268.645 -1.07946 -3.04216 0
M  V30 2763 H 267.697 -3.25128 -1.97474 0
M  V30 2764 H 269.009 -4.14523 -2.77439 0
M  V30 2765 H 268.163 -3.41554 -5.01424 0
M  V30 2766 H 266.902 -2.41894 -4.23484 0
M  V30 2767 H 265.907 -4.47527 -3.19373 0
M  V30 2768 H 267.132 -5.48402 -4.00539 0
M  V30 2769 H 265.078 -3.72554 -5.39944 0
M  V30 2770 H 264.995 -5.44935 -5.24006 0
M  V30 2771 H 266.263 -4.73586 -6.19141 0
M  V30 2772 N 270.492 0.636531 -1.44174 0
M  V30 2773 C 271.741 1.39213 -1.45954 0
M  V30 2774 C 272.054 1.95374 -0.0939119 0
M  V30 2775 O 273.26 2.71498 0.0107767 0
M  V30 2776 C 271.716 2.52025 -2.56927 0
M  V30 2777 C 271.324 2.024 -3.99673 0
M  V30 2778 C 273.068 3.29269 -2.67922 0
M  V30 2779 C 270.975 3.12521 -5.0208 0
M  V30 2780 H 269.905 0.523132 -0.542999 0
M  V30 2781 H 272.556 0.685349 -1.70221 0
M  V30 2782 H 270.938 3.25253 -2.25891 0
M  V30 2783 H 272.112 1.36073 -4.40251 0
M  V30 2784 H 270.427 1.37987 -3.92872 0
M  V30 2785 H 273.024 4.11352 -3.41605 0
M  V30 2786 H 273.367 3.78397 -1.73555 0
M  V30 2787 H 273.9 2.63129 -2.98342 0
M  V30 2788 H 270.639 2.68343 -5.98057 0
M  V30 2789 H 270.159 3.77507 -4.66099 0
M  V30 2790 H 271.838 3.77385 -5.25538 0
M  V30 2791 N 271.97 1.30982 0.876444 0
M  V30 2792 C 272.88 1.2003 2.01569 0
M  V30 2793 C 273.896 0.11838 1.73597 0
M  V30 2794 O 275.072 0.33495 1.98595 0
M  V30 2795 C 272.137 0.901637 3.34771 0
M  V30 2796 C 271.198 2.06979 3.76109 0
M  V30 2797 C 270.431 1.78529 5.02954 0
M  V30 2798 O 270.654 0.717296 5.65872 0
M  V30 2799 O 269.588 2.64019 5.40905 0
M  V30 2800 H 273.414 2.15753 2.13739 0
M  V30 2801 H 270.999 1.10658 1.00375 0
M  V30 2802 H 272.881 0.750645 4.1466 0
M  V30 2803 H 271.556 -0.0256141 3.2369 0
M  V30 2804 H 270.463 2.27616 2.96887 0
M  V30 2805 H 271.796 2.97907 3.91807 0
M  V30 2806 N 273.449 -1.08991 1.13837 0
M  V30 2807 C 274.674 -1.85551 0.926585 0
M  V30 2808 C 275.099 -1.80782 -0.519566 0
M  V30 2809 O 274.457 -1.18855 -1.36906 0
M  V30 2810 C 274.505 -3.31266 1.42462 0
M  V30 2811 O 273.609 -4.07822 0.612789 0
M  V30 2812 H 272.95 -0.575192 0.331738 0
M  V30 2813 H 275.48 -1.37604 1.51414 0
M  V30 2814 H 275.49 -3.82112 1.43019 0
M  V30 2815 H 274.165 -3.34052 2.47754 0
M  V30 2816 H 272.742 -3.66731 0.675463 0
M  V30 2817 N 274.927 -0.932562 -1.27047 0
M  V30 2818 C 276.173 -0.585913 -1.94778 0
M  V30 2819 C 276.528 0.864142 -1.71902 0
M  V30 2820 O 275.821 1.60894 -1.04037 0
M  V30 2821 C 276.015 -0.853713 -3.47054 0
M  V30 2822 C 275.844 -2.32825 -3.84737 0
M  V30 2823 C 274.614 -2.98184 -4.07939 0
M  V30 2824 C 276.812 -3.30612 -3.93954 0
M  V30 2825 N 274.794 -4.3574 -4.3244 0
M  V30 2826 C 276.165 -4.53395 -4.22887 0
M  V30 2827 C 278.22 -3.25755 -3.76548 0
M  V30 2828 C 276.923 -5.71927 -4.36224 0
M  V30 2829 C 278.949 -4.43604 -3.91113 0
M  V30 2830 C 278.311 -5.65166 -4.20437 0
M  V30 2831 H 274.41 -0.264617 -0.735868 0
M  V30 2832 H 276.994 -1.20019 -1.53309 0
M  V30 2833 H 275.165 -0.268557 -3.8747 0
M  V30 2834 H 276.897 -0.469202 -4.01971 0
M  V30 2835 H 273.652 -2.48835 -4.02961 0
M  V30 2836 H 274.076 -5.06915 -4.48738 0
M  V30 2837 H 278.718 -2.32835 -3.52913 0
M  V30 2838 H 276.436 -6.65308 -4.58683 0
M  V30 2839 H 280.022 -4.41368 -3.79059 0
M  V30 2840 H 278.902 -6.54836 -4.31462 0
M  V30 2841 N 276.405 1.4127 -0.698611 0
M  V30 2842 C 277.653 2.00782 -0.230409 0
M  V30 2843 C 277.974 1.5562 1.17505 0
M  V30 2844 O 277.244 0.78815 1.79346 0
M  V30 2845 H 275.824 0.742464 -0.0821944 0
M  V30 2846 H 278.486 1.72852 -0.90045 0
M  V30 2847 H 277.582 3.11095 -0.25021 0
M  V30 2848 N 277.883 0.443576 1.51229 0
M  V30 2849 C 279.294 -0.0180867 1.86691 0
M  V30 2850 C 279.645 -1.41384 1.36033 0
M  V30 2851 O 278.77 -2.04291 0.713722 0
M  V30 2852 C 279.365 -0.039597 3.38777 0
M  V30 2853 C 277.924 -0.445692 3.73752 0
M  V30 2854 C 277.071 0.357584 2.74985 0
M  V30 2855 H 280.022 0.659138 1.44364 0
M  V30 2856 H 280.043 -0.847761 3.70936 0
M  V30 2857 H 279.555 0.976382 3.75617 0
M  V30 2858 H 277.656 -1.46704 3.42503 0
M  V30 2859 H 277.769 -0.166155 4.78812 0
M  V30 2860 H 276.133 -0.184973 2.54027 0
M  V30 2861 H 276.916 1.37256 3.14668 0
M  V30 2862 N 279.361 -1.56624 0.175154 0
M  V30 2863 C 280.291 -2.21155 -0.749195 0
M  V30 2864 C 281.272 -1.16836 -1.23626 0
M  V30 2865 O 282.457 -1.45277 -1.28873 0
M  V30 2866 C 279.587 -2.8553 -1.97711 0
M  V30 2867 C 278.541 -3.95921 -1.62575 0
M  V30 2868 C 277.867 -4.47365 -2.92864 0
M  V30 2869 C 279.167 -5.15323 -0.850838 0
M  V30 2870 H 280.861 -2.98653 -0.211295 0
M  V30 2871 H 278.407 -1.43651 -0.100188 0
M  V30 2872 H 280.36 -3.2935 -2.62881 0
M  V30 2873 H 279.084 -2.05406 -2.53921 0
M  V30 2874 H 277.743 -3.52762 -0.997719 0
M  V30 2875 H 277.391 -3.64027 -3.47122 0
M  V30 2876 H 277.091 -5.21839 -2.70106 0
M  V30 2877 H 278.615 -4.93873 -3.59056 0
M  V30 2878 H 280.029 -5.55812 -1.40521 0
M  V30 2879 H 278.426 -5.95739 -0.722154 0
M  V30 2880 H 279.496 -4.84661 0.152082 0
M  V30 2881 N 280.839 0.0985539 -1.57292 0
M  V30 2882 C 282.087 0.801092 -1.85545 0
M  V30 2883 C 282.408 1.79438 -0.763353 0
M  V30 2884 O 281.678 1.94763 0.21073 0
M  V30 2885 H 280.258 0.29884 -0.684619 0
M  V30 2886 H 282.92 0.0810064 -1.94732 0
M  V30 2887 H 282.016 1.3338 -2.82163 0
M  V30 2888 N 282.317 1.53212 0.369288 0
M  V30 2889 C 283.249 1.75668 1.47219 0
M  V30 2890 C 284.262 0.637387 1.49804 0
M  V30 2891 O 285.451 0.913561 1.5335 0
M  V30 2892 C 282.551 1.81818 2.85999 0
M  V30 2893 C 281.724 3.11409 3.07153 0
M  V30 2894 C 280.783 3.08849 4.26026 0
M  V30 2895 O 279.809 3.82659 4.2138 0
M  V30 2896 N 281.011 2.29409 5.33246 0
M  V30 2897 H 283.776 2.70832 1.28337 0
M  V30 2898 H 281.337 1.51944 0.55898 0
M  V30 2899 H 283.329 1.77588 3.63655 0
M  V30 2900 H 281.899 0.939544 2.98146 0
M  V30 2901 H 281.119 3.28971 2.1719 0
M  V30 2902 H 282.407 3.97059 3.18154 0
M  V30 2903 H 281.805 1.68946 5.39883 0
M  V30 2904 H 280.362 2.31001 6.09493 0
M  V30 2905 N 283.795 -0.628877 1.44509 0
M  V30 2906 C 285.043 -1.38565 1.4712 0
M  V30 2907 C 285.364 -1.94712 0.105899 0
M  V30 2908 O 284.634 -1.75912 -0.862079 0
M  V30 2909 H 283.214 -0.514333 0.541729 0
M  V30 2910 H 285.876 -0.740018 1.80305 0
M  V30 2911 H 284.972 -2.21583 2.19789 0
M  V30 2912 N 285.273 -1.31445 -0.869486 0
M  V30 2913 C 286.22 -1.19135 -1.97675 0
M  V30 2914 C 287.19 -0.0770266 -1.65921 0
M  V30 2915 O 288.375 -0.249972 -1.89155 0
M  V30 2916 C 285.515 -0.905149 -3.33018 0
M  V30 2917 C 284.628 -2.10285 -3.77365 0
M  V30 2918 C 283.763 -1.75339 -5.01427 0
M  V30 2919 C 282.802 -2.91515 -5.38224 0
M  V30 2920 N 281.939 -2.56762 -6.53466 0
M  V30 2921 H 286.779 -2.13853 -2.07535 0
M  V30 2922 H 284.316 -1.06379 -1.01597 0
M  V30 2923 H 286.274 -0.719765 -4.10944 0
M  V30 2924 H 284.904 0.00519624 -3.228 0
M  V30 2925 H 283.956 -2.39899 -2.95216 0
M  V30 2926 H 285.268 -2.97237 -4.00564 0
M  V30 2927 H 284.422 -1.53266 -5.87022 0
M  V30 2928 H 283.161 -0.855801 -4.80133 0
M  V30 2929 H 282.166 -3.14237 -4.51149 0
M  V30 2930 H 283.391 -3.81985 -5.61484 0
M  V30 2931 H 281.337 -1.69526 -6.33717 0
M  V30 2932 H 281.254 -3.37243 -6.76612 0
M  V30 2933 H 282.522 -2.38083 -7.42251 0
M  V30 2934 N 286.751 1.08385 -1.14413 0
M  V30 2935 C 287.981 1.8425 -0.934644 0
M  V30 2936 C 288.389 1.81907 0.520234 0
M  V30 2937 O 287.732 1.22126 1.37226 0
M  V30 2938 C 287.794 3.32853 -1.35828 0
M  V30 2939 C 287.458 3.5893 -2.82875 0
M  V30 2940 C 288.455 3.53756 -3.80989 0
M  V30 2941 C 286.14 3.86934 -3.20293 0
M  V30 2942 C 288.134 3.76216 -5.14529 0
M  V30 2943 C 285.821 4.09047 -4.54008 0
M  V30 2944 C 286.819 4.03682 -5.50936 0
M  V30 2945 O 286.507 4.25214 -6.82238 0
M  V30 2946 H 286.239 0.588502 -0.332628 0
M  V30 2947 H 288.793 1.37792 -1.52324 0
M  V30 2948 H 287.023 3.8007 -0.713019 0
M  V30 2949 H 288.712 3.90154 -1.11957 0
M  V30 2950 H 289.478 3.32135 -3.53428 0
M  V30 2951 H 285.357 3.9023 -2.45442 0
M  V30 2952 H 288.901 3.71943 -5.90173 0
M  V30 2953 H 284.798 4.30151 -4.8129 0
M  V30 2954 H 285.566 4.42619 -6.88499 0
M  V30 2955 N 288.23 0.939286 1.26551 0
M  V30 2956 C 289.507 0.5038 1.89001 0
M  V30 2957 C 289.887 -1.01854 1.84903 0
M  V30 2958 O 289.235 -1.87773 1.30206 0
M  V30 2959 C 289.445 1.063 3.32417 0
M  V30 2960 C 290.793 1.13051 4.09273 0
M  V30 2961 O 291.817 1.01345 3.41479 0
M  V30 2962 O 290.676 1.31233 5.30509 0
M  V30 2963 H 287.77 0.163897 0.810597 0
M  V30 2964 H 290.316 1.03173 1.34735 0
M  V30 2965 H 289.088 2.10665 3.29752 0
M  V30 2966 H 288.711 0.517408 3.94219 0
M  V30 2967 N 289.708 -1.40897 0.706093 0
M  V30 2968 C 290.638 -2.33418 0.0620085 0
M  V30 2969 C 291.619 -1.52385 -0.755827 0
M  V30 2970 O 292.804 -1.80886 -0.706674 0
M  V30 2971 C 289.934 -3.36293 -0.867445 0
M  V30 2972 C 288.888 -4.27716 -0.155932 0
M  V30 2973 C 288.214 -5.2105 -1.20046 0
M  V30 2974 C 289.514 -5.12944 0.984149 0
M  V30 2975 H 291.208 -2.87527 0.83477 0
M  V30 2976 H 288.754 -1.38249 0.402875 0
M  V30 2977 H 290.707 -3.99949 -1.32735 0
M  V30 2978 H 289.431 -2.80556 -1.67199 0
M  V30 2979 H 288.09 -3.65498 0.284047 0
M  V30 2980 H 287.738 -4.61624 -1.99781 0
M  V30 2981 H 287.438 -5.83056 -0.729328 0
M  V30 2982 H 288.962 -5.87584 -1.66066 0
M  V30 2983 H 290.376 -5.70109 0.604048 0
M  V30 2984 H 288.773 -5.83945 1.38304 0
M  V30 2985 H 289.843 -4.49485 1.81911 0
M  V30 2986 N 291.186 -0.45159 -1.50991 0
M  V30 2987 C 292.433 0.110074 -2.02201 0
M  V30 2988 C 292.761 1.4146 -1.33489 0
M  V30 2989 O 292.016 1.90617 -0.443125 0
M  V30 2990 C 292.315 0.361728 -3.55565 0
M  V30 2991 C 291.981 -0.858717 -4.42648 0
M  V30 2992 C 290.643 -1.19338 -4.66167 0
M  V30 2993 C 292.995 -1.67221 -4.93646 0
M  V30 2994 C 290.323 -2.34195 -5.37931 0
M  V30 2995 C 292.675 -2.8119 -5.6667 0
M  V30 2996 C 291.339 -3.15094 -5.88449 0
M  V30 2997 H 290.609 0.040279 -0.739904 0
M  V30 2998 H 293.256 -0.601696 -1.81802 0
M  V30 2999 H 291.561 1.15554 -3.74372 0
M  V30 3000 H 293.258 0.80996 -3.92735 0
M  V30 3001 H 289.848 -0.58796 -4.24548 0
M  V30 3002 H 294.032 -1.42686 -4.75347 0
M  V30 3003 H 289.288 -2.6076 -5.53005 0
M  V30 3004 H 293.462 -3.44585 -6.05173 0
M  V30 3005 H 291.089 -4.04204 -6.43835 0
M  V30 3006 N 292.664 1.56529 -0.183458 0
M  V30 3007 C 293.912 1.96855 0.457452 0
M  V30 3008 C 294.233 1.07104 1.62953 0
M  V30 3009 O 293.503 0.139887 1.954 0
M  V30 3010 H 292.083 0.72693 0.171992 0
M  V30 3011 H 294.745 1.93056 -0.267476 0
M  V30 3012 H 293.841 3.01423 0.809368 0
M  V30 3013 N 294.142 -0.090211 1.57342 0
M  V30 3014 C 295.105 -1.09335 2.01441 0
M  V30 3015 C 296.105 -1.32666 0.908641 0
M  V30 3016 O 297.295 -1.28697 1.174 0
M  V30 3017 C 294.427 -2.44136 2.3793 0
M  V30 3018 H 295.62 -0.713662 2.91285 0
M  V30 3019 H 293.173 -0.335404 1.52659 0
M  V30 3020 H 293.908 -2.86972 1.51055 0
M  V30 3021 H 293.693 -2.28548 3.18603 0
M  V30 3022 H 295.183 -3.16277 2.72688 0
M  V30 3023 N 295.62 -1.53406 -0.361157 0
M  V30 3024 C 296.53 -1.83122 -1.4664 0
M  V30 3025 C 297.546 -0.719943 -1.58407 0
M  V30 3026 O 298.722 -1.01046 -1.74218 0
M  V30 3027 C 295.787 -2.01891 -2.81853 0
M  V30 3028 C 294.848 -3.25784 -2.79577 0
M  V30 3029 C 294.081 -3.43648 -4.0834 0
M  V30 3030 O 294.304 -2.65714 -5.0473 0
M  V30 3031 O 293.238 -4.37018 -4.13883 0
M  V30 3032 H 297.064 -2.7703 -1.24451 0
M  V30 3033 H 294.649 -1.38841 -0.551678 0
M  V30 3034 H 296.531 -2.15782 -3.61962 0
M  V30 3035 H 295.206 -1.11173 -3.0401 0
M  V30 3036 H 294.113 -3.17312 -1.98151 0
M  V30 3037 H 295.446 -4.16439 -2.62373 0
M  V30 3038 N 297.098 0.621204 -1.44841 0
M  V30 3039 C 298.509 1.20298 -1.42777 0
M  V30 3040 C 298.86 1.95639 -0.148259 0
M  V30 3041 O 297.985 2.02955 0.750892 0
M  V30 3042 C 298.58 2.1882 -2.58657 0
M  V30 3043 C 297.139 2.72403 -2.59756 0
M  V30 3044 C 296.286 1.4757 -2.34773 0
M  V30 3045 H 299.237 0.411297 -1.53278 0
M  V30 3046 H 299.258 3.01607 -2.31977 0
M  V30 3047 H 298.77 1.63957 -3.51766 0
M  V30 3048 H 296.871 3.31242 -1.70615 0
M  V30 3049 H 296.984 3.17765 -3.58556 0
M  V30 3050 H 295.348 1.76051 -1.8406 0
M  V30 3051 H 296.131 0.945954 -3.3001 0
M  V30 3052 N 298.576 1.31904 0.862503 0
M  V30 3053 C 299.822 1.22197 1.61851 0
M  V30 3054 C 300.155 -0.217641 1.92977 0
M  V30 3055 O 299.43 -1.15264 1.56666 0
M  V30 3056 C 299.713 2.07378 2.94391 0
M  V30 3057 C 299.566 3.59678 2.70096 0
M  V30 3058 C 300.885 1.92891 3.95577 0
M  V30 3059 H 298.004 0.445255 0.587296 0
M  V30 3060 H 300.646 1.6177 0.99651 0
M  V30 3061 H 298.796 1.73758 3.47477 0
M  V30 3062 H 300.468 4.03472 2.23625 0
M  V30 3063 H 298.711 3.82735 2.04197 0
M  V30 3064 H 299.382 4.14595 3.64438 0
M  V30 3065 H 301.858 2.22327 3.51724 0
M  V30 3066 H 300.734 2.54781 4.86187 0
M  V30 3067 H 300.995 0.894315 4.3296 0
M  V30 3068 N 300.054 -1.07777 1.14986 0
M  V30 3069 C 301.282 -1.84018 0.945773 0
M  V30 3070 C 301.697 -1.81897 -0.505863 0
M  V30 3071 O 301.054 -1.22726 -1.35072 0
M  V30 3072 C 301.105 -3.31287 1.44677 0
M  V30 3073 O 300.826 -3.33449 2.84154 0
M  V30 3074 C 302.327 -4.24311 1.28355 0
M  V30 3075 H 299.547 -0.580716 0.336169 0
M  V30 3076 H 302.091 -1.36077 1.52654 0
M  V30 3077 H 300.246 -3.76594 0.908625 0
M  V30 3078 H 300.66 -4.25427 3.06777 0
M  V30 3079 H 302.134 -5.2573 1.68261 0
M  V30 3080 H 302.611 -4.38612 0.227184 0
M  V30 3081 H 303.217 -3.84836 1.81056 0
M  V30 3082 N 301.532 -0.945985 -1.26051 0
M  V30 3083 C 302.495 -0.463897 -2.24456 0
M  V30 3084 C 303.495 0.427655 -1.55009 0
M  V30 3085 O 304.685 0.226157 -1.72726 0
M  V30 3086 C 301.817 0.330812 -3.39291 0
M  V30 3087 H 303.01 -1.33357 -2.68619 0
M  V30 3088 H 300.563 -0.728416 -1.38289 0
M  V30 3089 H 301.298 1.21852 -3.00537 0
M  V30 3090 H 301.083 -0.308679 -3.90883 0
M  V30 3091 H 302.573 0.657865 -4.12386 0
M  V30 3092 N 303.011 1.40521 -0.713556 0
M  V30 3093 C 303.974 2.29098 -0.0684347 0
M  V30 3094 C 304.974 1.45268 0.689472 0
M  V30 3095 O 306.164 1.66205 0.521677 0
M  V30 3096 C 303.296 3.28446 0.913024 0
M  V30 3097 H 304.489 2.87645 -0.84855 0
M  V30 3098 H 302.042 1.48809 -0.47809 0
M  V30 3099 H 302.777 2.74913 1.72027 0
M  V30 3100 H 302.562 3.90327 0.372472 0
M  V30 3101 H 304.052 3.94777 1.36165 0
M  V30 3102 N 304.489 0.459591 1.5075 0
M  V30 3103 C 305.452 -0.329093 2.26825 0
M  V30 3104 C 306.452 -0.930481 1.31144 0
M  V30 3105 O 307.642 -0.801453 1.54669 0
M  V30 3106 C 304.774 -1.46768 3.07688 0
M  V30 3107 H 305.967 0.337924 2.9799 0
M  V30 3108 H 303.52 0.213336 1.54837 0
M  V30 3109 H 304.255 -2.17009 2.40993 0
M  V30 3110 H 304.04 -1.04238 3.77991 0
M  V30 3111 H 305.53 -2.02433 3.65254 0
M  V30 3112 N 305.967 -1.56429 0.191757 0
M  V30 3113 C 306.93 -2.17707 -0.716688 0
M  V30 3114 C 307.93 -1.13061 -1.14341 0
M  V30 3115 O 309.12 -1.38464 -1.05704 0
M  V30 3116 C 306.252 -2.77644 -1.97804 0
M  V30 3117 H 307.445 -2.99342 -0.1829 0
M  V30 3118 H 304.998 -1.56193 -0.0578566 0
M  V30 3119 H 305.733 -1.99799 -2.55443 0
M  V30 3120 H 305.518 -3.54246 -1.68083 0
M  V30 3121 H 307.008 -3.24708 -2.62592 0
M  V30 3122 N 307.445 0.0818655 -1.57387 0
M  V30 3123 C 308.408 1.08265 -2.02018 0
M  V30 3124 C 309.408 1.32183 -0.915664 0
M  V30 3125 O 310.598 1.28073 -1.18081 0
M  V30 3126 C 307.73 2.42871 -2.39221 0
M  V30 3127 H 308.923 0.698204 -2.91659 0
M  V30 3128 H 306.476 0.327303 -1.52835 0
M  V30 3129 H 307.211 2.86167 -1.52575 0
M  V30 3130 H 306.996 2.26855 -3.19811 0
M  V30 3131 H 308.486 3.14826 -2.74362 0
M  V30 3132 N 308.923 1.53595 0.353017 0
M  V30 3133 C 309.873 1.77299 1.43349 0
M  V30 3134 C 310.857 0.627884 1.48143 0
M  V30 3135 O 312.049 0.88697 1.53173 0
M  V30 3136 C 309.178 1.97757 2.80619 0
M  V30 3137 C 308.264 3.18305 2.80254 0
M  V30 3138 N 308.655 4.39967 2.49526 0
M  V30 3139 C 306.953 3.19283 3.11407 0
M  V30 3140 C 307.654 5.21772 2.57156 0
M  V30 3141 N 306.63 4.58269 2.92388 0
M  V30 3142 H 310.432 2.68963 1.18474 0
M  V30 3143 H 307.946 1.52391 0.561306 0
M  V30 3144 H 309.943 2.1287 3.58458 0
M  V30 3145 H 308.603 1.07329 3.06448 0
M  V30 3146 H 309.614 4.67482 2.22893 0
M  V30 3147 H 306.291 2.3879 3.4247 0
M  V30 3148 H 307.681 6.2885 2.36638 0
M  V30 3149 N 310.401 -0.613514 1.45168 0
M  V30 3150 C 311.649 -1.36997 1.48581 0
M  V30 3151 C 311.97 -1.94589 0.126545 0
M  V30 3152 O 311.24 -1.76816 -0.843372 0
M  V30 3153 H 309.82 -0.508558 0.547154 0
M  V30 3154 H 312.482 -0.720853 1.81079 0
M  V30 3155 H 311.578 -2.1924 2.22127 0
M  V30 3156 N 311.879 -1.3236 -0.855495 0
M  V30 3157 C 312.826 -1.21225 -1.964 0
M  V30 3158 C 313.796 -0.0946204 -1.6583 0
M  V30 3159 O 314.981 -0.27002 -1.8888 0
M  V30 3160 C 312.121 -0.940419 -3.32039 0
M  V30 3161 C 311.234 -2.14276 -3.75113 0
M  V30 3162 C 310.369 -1.80648 -4.9954 0
M  V30 3163 C 309.408 -2.97208 -5.35102 0
M  V30 3164 N 308.545 -2.63678 -6.50706 0
M  V30 3165 H 313.385 -2.16042 -2.05255 0
M  V30 3166 H 310.922 -1.07451 -1.00463 0
M  V30 3167 H 312.88 -0.763311 -4.10158 0
M  V30 3168 H 311.51 -0.0290413 -3.22787 0
M  V30 3169 H 310.562 -2.43017 -2.92655 0
M  V30 3170 H 311.874 -3.01468 -3.97389 0
M  V30 3171 H 311.028 -1.59484 -5.85363 0
M  V30 3172 H 309.767 -0.906678 -4.79198 0
M  V30 3173 H 308.772 -3.19004 -4.47791 0
M  V30 3174 H 309.997 -3.87918 -5.57401 0
M  V30 3175 H 307.943 -1.76238 -6.31883 0
M  V30 3176 H 307.86 -3.444 -6.72997 0
M  V30 3177 H 309.128 -2.45942 -7.39684 0
M  V30 3178 N 313.357 1.07166 -1.15556 0
M  V30 3179 C 314.585 1.83514 -0.955519 0
M  V30 3180 C 315 1.82163 0.49621 0
M  V30 3181 O 314.357 1.23441 1.34419 0
M  V30 3182 C 314.408 3.30515 -1.46432 0
M  V30 3183 O 314.129 3.31937 -2.85918 0
M  V30 3184 C 315.63 4.23625 -1.30603 0
M  V30 3185 H 312.85 0.578926 -0.339244 0
M  V30 3186 H 315.394 1.35265 -1.53374 0
M  V30 3187 H 313.549 3.76106 -0.928584 0
M  V30 3188 H 313.963 4.23794 -3.09029 0
M  V30 3189 H 315.437 5.24831 -1.71047 0
M  V30 3190 H 315.914 4.38485 -0.250441 0
M  V30 3191 H 316.52 3.83871 -1.83094 0
M  V30 3192 N 314.835 0.952656 1.25548 0
M  V30 3193 C 316.246 0.647392 1.75116 0
M  V30 3194 C 316.597 -0.837274 1.77438 0
M  V30 3195 O 315.722 -1.65525 1.39393 0
M  V30 3196 C 316.317 1.16845 3.18014 0
M  V30 3197 C 314.876 0.913382 3.6515 0
M  V30 3198 C 314.023 1.31265 2.44264 0
M  V30 3199 H 316.974 1.12968 1.11462 0
M  V30 3200 H 316.995 0.527606 3.76824 0
M  V30 3201 H 316.507 2.24902 3.16292 0
M  V30 3202 H 314.608 -0.152316 3.72289 0
M  V30 3203 H 314.721 1.54845 4.53387 0
M  V30 3204 H 313.085 0.731028 2.43984 0
M  V30 3205 H 313.868 2.40239 2.45234 0
M  V30 3206 N 316.313 -1.40141 0.720998 0
M  V30 3207 C 317.276 -2.29058 0.0805834 0
M  V30 3208 C 318.276 -1.45632 -0.681758 0
M  V30 3209 O 319.466 -1.6648 -0.512856 0
M  V30 3210 C 316.598 -3.28925 -0.895593 0
M  V30 3211 H 317.791 -2.87191 0.863793 0
M  V30 3212 H 315.344 -1.48553 0.485975 0
M  V30 3213 H 316.079 -2.75822 -1.70566 0
M  V30 3214 H 315.864 -3.90519 -0.351766 0
M  V30 3215 H 317.354 -3.95494 -1.34069 0
M  V30 3216 N 317.792 -0.46758 -1.50504 0
M  V30 3217 C 318.724 0.364655 -2.26281 0
M  V30 3218 C 319.737 0.960151 -1.31472 0
M  V30 3219 O 320.926 0.849153 -1.57008 0
M  V30 3220 C 318.026 1.52509 -3.02645 0
M  V30 3221 C 317.199 1.04302 -4.24782 0
M  V30 3222 C 316.258 2.07709 -4.8347 0
M  V30 3223 O 315.284 1.65913 -5.44483 0
M  V30 3224 N 316.486 3.40485 -4.70159 0
M  V30 3225 H 319.251 -0.28495 -2.98342 0
M  V30 3226 H 316.812 -0.298163 -1.59131 0
M  V30 3227 H 318.804 2.21371 -3.38787 0
M  V30 3228 H 317.374 2.07945 -2.33404 0
M  V30 3229 H 316.594 0.180393 -3.93787 0
M  V30 3230 H 317.882 0.698798 -5.03978 0
M  V30 3231 H 317.28 3.77155 -4.21629 0
M  V30 3232 H 315.837 4.05156 -5.1058 0
M  V30 3233 N 319.27 1.56325 -0.20005 0
M  V30 3234 C 320.233 2.18084 0.705132 0
M  V30 3235 C 321.233 1.13666 1.1374 0
M  V30 3236 O 322.423 1.39023 1.04968 0
M  V30 3237 C 319.555 2.78689 1.96329 0
M  V30 3238 H 320.748 2.99435 0.167023 0
M  V30 3239 H 318.301 1.56221 0.0495725 0
M  V30 3240 H 319.036 2.0115 2.5438 0
M  V30 3241 H 318.821 3.55133 1.66202 0
M  V30 3242 H 320.311 3.26096 2.60866 0
M  V30 3243 N 320.748 -0.0735177 1.57428 0
M  V30 3244 C 321.994 -0.774145 1.87443 0
M  V30 3245 C 322.327 -1.77311 0.792103 0
M  V30 3246 O 321.602 -1.93492 -0.197793 0
M  V30 3247 C 321.885 -1.48367 3.28115 0
M  V30 3248 C 321.738 -0.501227 4.46999 0
M  V30 3249 C 323.057 -2.429 3.66998 0
M  V30 3250 H 320.176 -0.279971 0.681752 0
M  V30 3251 H 322.818 -0.0373616 1.89963 0
M  V30 3252 H 320.968 -2.11171 3.26097 0
M  V30 3253 H 322.64 0.121468 4.6114 0
M  V30 3254 H 320.883 0.183593 4.33411 0
M  V30 3255 H 321.554 -1.03526 5.42205 0
M  V30 3256 H 324.03 -1.90175 3.70098 0
M  V30 3257 H 322.906 -2.89549 4.66318 0
M  V30 3258 H 323.167 -3.27628 2.96837 0
M  V30 3259 N 322.226 -1.5378 -0.344866 0
M  V30 3260 C 323.156 -1.84662 -1.42906 0
M  V30 3261 C 324.137 -0.701648 -1.54955 0
M  V30 3262 O 325.322 -0.953438 -1.69184 0
M  V30 3263 C 322.452 -2.05503 -2.79974 0
M  V30 3264 C 321.406 -3.21318 -2.82734 0
M  V30 3265 C 320.732 -3.2749 -4.22675 0
M  V30 3266 C 322.032 -4.59456 -2.48389 0
M  V30 3267 H 323.726 -2.75461 -1.17311 0
M  V30 3268 H 321.272 -1.32542 -0.562896 0
M  V30 3269 H 323.225 -2.25691 -3.55867 0
M  V30 3270 H 321.949 -1.11434 -3.07002 0
M  V30 3271 H 320.608 -3.00984 -2.09294 0
M  V30 3272 H 320.256 -2.31019 -4.4681 0
M  V30 3273 H 319.956 -4.05316 -4.25433 0
M  V30 3274 H 321.48 -3.49887 -5.00412 0
M  V30 3275 H 322.894 -4.79667 -3.13995 0
M  V30 3276 H 321.291 -5.39675 -2.62432 0
M  V30 3277 H 322.361 -4.63155 -1.4358 0
M  V30 3278 N 323.704 0.605807 -1.45491 0
M  V30 3279 C 325.12 0.926751 -1.29936 0
M  V30 3280 C 325.32 1.99896 -0.253706 0
M  V30 3281 O 324.376 2.50038 0.351737 0
M  V30 3282 C 325.689 1.36599 -2.67883 0
M  V30 3283 C 327.237 1.4801 -2.75793 0
M  V30 3284 C 327.712 1.95309 -4.14268 0
M  V30 3285 N 329.203 2.0254 -4.16571 0
M  V30 3286 C 329.938 2.40363 -5.20589 0
M  V30 3287 N 329.434 2.77143 -6.34952 0
M  V30 3288 N 331.227 2.40718 -5.07948 0
M  V30 3289 H 323.378 -0.102862 -2.12151 0
M  V30 3290 H 325.641 0.016639 -0.947854 0
M  V30 3291 H 325.347 0.652306 -3.45598 0
M  V30 3292 H 325.221 2.33215 -2.96463 0
M  V30 3293 H 327.608 2.1847 -1.98381 0
M  V30 3294 H 327.689 0.497041 -2.50925 0
M  V30 3295 H 327.333 1.25436 -4.92167 0
M  V30 3296 H 327.263 2.94532 -4.3653 0
M  V30 3297 H 329.754 1.76699 -3.34045 0
M  V30 3298 H 330.067 3.0489 -7.10114 0
M  V30 3299 H 328.412 2.74834 -6.3835 0
M  V30 3300 H 331.603 2.11392 -4.1765 0
M  V30 3301 H 331.776 2.69869 -5.89131 0
M  V30 3302 N 325.182 1.32811 0.848464 0
M  V30 3303 C 326.428 1.24917 1.60522 0
M  V30 3304 C 326.783 -0.185761 1.91501 0
M  V30 3305 O 326.076 -1.12524 1.55077 0
M  V30 3306 C 326.27 2.04831 2.92881 0
M  V30 3307 C 326.099 3.55949 2.74828 0
M  V30 3308 C 324.869 4.25277 2.72887 0
M  V30 3309 C 327.067 4.50476 2.48145 0
M  V30 3310 N 325.049 5.62408 2.46111 0
M  V30 3311 C 326.42 5.75427 2.30832 0
M  V30 3312 C 328.475 4.39665 2.33664 0
M  V30 3313 C 327.178 6.90789 2.00508 0
M  V30 3314 C 329.204 5.54833 2.04731 0
M  V30 3315 C 328.566 6.78787 1.88223 0
M  V30 3316 H 324.665 0.512279 0.590842 0
M  V30 3317 H 327.249 1.67246 0.996839 0
M  V30 3318 H 325.42 1.64837 3.51686 0
M  V30 3319 H 327.152 1.88782 3.57971 0
M  V30 3320 H 323.907 3.77456 2.86049 0
M  V30 3321 H 324.331 6.3467 2.35634 0
M  V30 3322 H 328.973 3.44477 2.45144 0
M  V30 3323 H 326.691 7.85984 1.87765 0
M  V30 3324 H 330.277 5.48398 1.94295 0
M  V30 3325 H 329.157 7.66396 1.66155 0
M  V30 3326 N 326.66 -1.06551 1.16123 0
M  V30 3327 C 327.61 -2.12209 0.833736 0
M  V30 3328 C 328.594 -1.59825 -0.185656 0
M  V30 3329 O 329.786 -1.76994 0.0147906 0
M  V30 3330 C 326.915 -3.41674 0.333697 0
M  V30 3331 C 326.001 -4.00892 1.38372 0
M  V30 3332 N 326.392 -4.34256 2.59337 0
M  V30 3333 C 324.69 -4.28463 1.23836 0
M  V30 3334 C 325.391 -4.81291 3.26701 0
M  V30 3335 N 324.367 -4.80565 2.54083 0
M  V30 3336 H 328.169 -2.35849 1.75364 0
M  V30 3337 H 325.683 -1.24068 1.04789 0
M  V30 3338 H 327.68 -4.16822 0.0806918 0
M  V30 3339 H 326.34 -3.19475 -0.58017 0
M  V30 3340 H 327.351 -4.24687 2.96415 0
M  V30 3341 H 324.028 -4.15721 0.38504 0
M  V30 3342 H 325.418 -5.16332 4.29943 0
M  V30 3343 N 328.138 -0.959301 -1.25041 0
M  V30 3344 C 329.068 -0.501388 -2.28053 0
M  V30 3345 C 330.049 0.454673 -1.63911 0
M  V30 3346 O 331.234 0.352618 -1.90972 0
M  V30 3347 C 328.364 0.217224 -3.4662 0
M  V30 3348 C 327.318 -0.654034 -4.22973 0
M  V30 3349 C 326.644 0.195589 -5.34342 0
M  V30 3350 C 327.944 -1.93447 -4.85155 0
M  V30 3351 H 329.638 -1.36238 -2.66608 0
M  V30 3352 H 327.184 -0.656534 -1.28163 0
M  V30 3353 H 329.137 0.548732 -4.17812 0
M  V30 3354 H 327.861 1.1125 -3.07068 0
M  V30 3355 H 326.52 -0.968693 -3.5357 0
M  V30 3356 H 326.168 1.09076 -4.91031 0
M  V30 3357 H 325.868 -0.384091 -5.86343 0
M  V30 3358 H 327.392 0.521958 -6.08365 0
M  V30 3359 H 328.806 -1.66908 -5.48466 0
M  V30 3360 H 327.203 -2.46018 -5.47353 0
M  V30 3361 H 328.273 -2.63466 -4.07079 0
M  V30 3362 N 329.616 1.39756 -0.72842 0
M  V30 3363 C 330.548 2.29157 -0.0446202 0
M  V30 3364 C 331.561 1.46484 0.710367 0
M  V30 3365 O 332.75 1.69632 0.55562 0
M  V30 3366 C 329.85 3.24987 0.961071 0
M  V30 3367 C 329.023 4.36572 0.268967 0
M  V30 3368 C 328.082 5.12756 1.18184 0
M  V30 3369 O 327.108 5.6534 0.661794 0
M  V30 3370 N 328.31 5.23331 2.51206 0
M  V30 3371 H 331.075 2.88482 -0.812295 0
M  V30 3372 H 328.636 1.51265 -0.577098 0
M  V30 3373 H 330.628 3.72827 1.57423 0
M  V30 3374 H 329.198 2.66739 1.63 0
M  V30 3375 H 328.418 3.90694 -0.524574 0
M  V30 3376 H 329.706 5.08363 -0.210934 0
M  V30 3377 H 329.104 4.82116 2.9594 0
M  V30 3378 H 327.661 5.74634 3.07634 0
M  V30 3379 N 331.094 0.475555 1.50254 0
M  V30 3380 C 332.041 -0.316293 2.28622 0
M  V30 3381 C 333.011 -0.983227 1.33873 0
M  V30 3382 O 334.196 -0.994805 1.62814 0
M  V30 3383 C 331.336 -1.38975 3.1588 0
M  V30 3384 C 330.449 -0.737146 4.25664 0
M  V30 3385 C 329.584 -1.78887 5.00173 0
M  V30 3386 C 328.623 -1.11676 6.01826 0
M  V30 3387 N 327.76 -2.11154 6.69596 0
M  V30 3388 H 332.6 0.358297 2.95838 0
M  V30 3389 H 330.137 0.188541 1.45887 0
M  V30 3390 H 332.095 -2.02383 3.64825 0
M  V30 3391 H 330.725 -2.03344 2.50701 0
M  V30 3392 H 329.777 0.0096065 3.80399 0
M  V30 3393 H 331.089 -0.206816 4.98371 0
M  V30 3394 H 330.243 -2.49865 5.52859 0
M  V30 3395 H 328.982 -2.35302 4.27182 0
M  V30 3396 H 327.987 -0.392633 5.48396 0
M  V30 3397 H 329.212 -0.55945 6.76792 0
M  V30 3398 H 327.158 -2.66577 5.99394 0
M  V30 3399 H 327.075 -1.63118 7.38193 0
M  V30 3400 H 328.343 -2.81497 7.26897 0
M  V30 3401 N 332.573 -1.56217 0.208337 0
M  V30 3402 C 333.821 -1.97558 -0.426076 0
M  V30 3403 C 334.142 -1.09683 -1.61229 0
M  V30 3404 O 333.412 -0.170956 -1.95153 0
M  V30 3405 H 331.992 -0.729575 -0.160405 0
M  V30 3406 H 334.654 -1.92606 0.298155 0
M  V30 3407 H 333.75 -3.02672 -0.761312 0
M  V30 3408 N 334.051 0.0651679 -1.57465 0
M  V30 3409 C 335.298 0.763063 -1.87573 0
M  V30 3410 C 335.626 1.77242 -0.800961 0
M  V30 3411 O 334.881 1.94651 0.202316 0
M  V30 3412 C 335.18 1.50081 -3.24362 0
M  V30 3413 C 334.846 0.630816 -4.46466 0
M  V30 3414 C 333.508 0.391082 -4.79608 0
M  V30 3415 C 335.86 0.0279465 -5.21193 0
M  V30 3416 C 333.188 -0.460894 -5.84887 0
M  V30 3417 C 335.54 -0.811522 -6.27373 0
M  V30 3418 C 334.204 -1.06106 -6.59013 0
M  V30 3419 H 333.474 0.279224 -0.686378 0
M  V30 3420 H 336.121 0.0236726 -1.91485 0
M  V30 3421 H 334.426 2.31258 -3.16271 0
M  V30 3422 H 336.123 2.04571 -3.44894 0
M  V30 3423 H 332.713 0.8278 -4.2053 0
M  V30 3424 H 336.897 0.200262 -4.95896 0
M  V30 3425 H 332.153 -0.662907 -6.07796 0
M  V30 3426 H 336.327 -1.28537 -6.84435 0
M  V30 3427 H 333.954 -1.723 -7.40417 0
M  V30 3428 N 335.529 1.53961 0.336706 0
M  V30 3429 C 336.775 1.7179 1.07777 0
M  V30 3430 C 337.108 0.483263 1.88091 0
M  V30 3431 O 336.383 -0.519747 1.87427 0
M  V30 3432 C 336.666 2.98558 2.01334 0
M  V30 3433 C 336.519 4.32245 1.24437 0
M  V30 3434 C 337.838 3.21023 3.01052 0
M  V30 3435 H 334.957 0.625089 0.390426 0
M  V30 3436 H 337.599 1.86641 0.35567 0
M  V30 3437 H 335.749 2.86028 2.62908 0
M  V30 3438 H 337.421 4.56637 0.654243 0
M  V30 3439 H 335.664 4.30344 0.546458 0
M  V30 3440 H 336.335 5.17137 1.93063 0
M  V30 3441 H 338.811 3.32929 2.49595 0
M  V30 3442 H 337.687 4.11104 3.6371 0
M  V30 3443 H 337.948 2.37637 3.72802 0
M  V30 3444 N 337.007 -0.598083 1.45811 0
M  V30 3445 C 338.253 -1.35882 1.50545 0
M  V30 3446 C 338.586 -1.93616 0.150445 0
M  V30 3447 O 337.861 -1.75604 -0.83628 0
M  V30 3448 C 338.144 -2.49966 2.59208 0
M  V30 3449 C 337.997 -1.97367 4.04186 0
M  V30 3450 C 339.316 -3.52068 2.64076 0
M  V30 3451 H 336.435 -0.492717 0.548087 0
M  V30 3452 H 339.077 -0.673319 1.77669 0
M  V30 3453 H 337.227 -3.08443 2.3621 0
M  V30 3454 H 338.899 -1.43466 4.38423 0
M  V30 3455 H 337.142 -1.283 4.14393 0
M  V30 3456 H 337.813 -2.79649 4.75921 0
M  V30 3457 H 340.289 -3.03448 2.84708 0
M  V30 3458 H 339.165 -4.2937 3.41954 0
M  V30 3459 H 339.426 -4.08304 1.69531 0
M  V30 3460 N 338.485 -1.33259 -0.841409 0
M  V30 3461 C 339.732 -1.24572 -1.5965 0
M  V30 3462 C 340.06 0.189137 -1.93578 0
M  V30 3463 O 339.315 1.14566 -1.5866 0
M  V30 3464 C 339.614 -2.06381 -2.9179 0
M  V30 3465 C 339.28 -3.556 -2.77235 0
M  V30 3466 C 337.942 -3.96282 -2.72973 0
M  V30 3467 C 340.294 -4.50433 -2.62221 0
M  V30 3468 C 337.622 -5.30017 -2.51592 0
M  V30 3469 C 339.974 -5.84327 -2.42374 0
M  V30 3470 C 338.638 -6.24194 -2.36512 0
M  V30 3471 H 337.908 -0.455842 -0.5842 0
M  V30 3472 H 340.555 -1.6482 -0.975016 0
M  V30 3473 H 338.86 -1.58903 -3.5813 0
M  V30 3474 H 340.557 -1.97019 -3.49263 0
M  V30 3475 H 337.147 -3.23298 -2.81384 0
M  V30 3476 H 341.331 -4.19914 -2.64549 0
M  V30 3477 H 336.587 -5.59947 -2.45499 0
M  V30 3478 H 340.761 -6.57414 -2.29739 0
M  V30 3479 H 338.388 -7.27759 -2.19706 0
M  V30 3480 N 339.963 1.05934 -1.16686 0
M  V30 3481 C 341.374 1.60263 -0.957745 0
M  V30 3482 C 341.725 1.89789 0.49745 0
M  V30 3483 O 340.85 1.67401 1.37135 0
M  V30 3484 C 341.445 2.91172 -1.73218 0
M  V30 3485 C 340.004 3.42188 -1.56794 0
M  V30 3486 C 339.151 2.16028 -1.73859 0
M  V30 3487 H 342.102 0.888392 -1.31504 0
M  V30 3488 H 342.123 3.60744 -1.21014 0
M  V30 3489 H 341.635 2.6965 -2.79124 0
M  V30 3490 H 339.736 3.68762 -0.533437 0
M  V30 3491 H 339.849 4.17273 -2.35414 0
M  V30 3492 H 338.213 2.26426 -1.16633 0
M  V30 3493 H 338.996 1.96985 -2.81161 0
M  V30 3494 N 341.441 0.965919 1.2453 0
M  V30 3495 C 342.388 0.49402 2.25451 0
M  V30 3496 C 343.358 -0.45948 1.59618 0
M  V30 3497 O 344.543 -0.370238 1.87173 0
M  V30 3498 C 341.683 -0.211359 3.44452 0
M  V30 3499 C 340.796 0.7807 4.24887 0
M  V30 3500 C 339.931 0.0516105 5.31175 0
M  V30 3501 C 338.97 1.03385 6.03306 0
M  V30 3502 N 338.107 0.334887 7.01301 0
M  V30 3503 H 342.947 1.35946 2.65184 0
M  V30 3504 H 340.484 0.681515 1.3036 0
M  V30 3505 H 342.442 -0.637 4.12308 0
M  V30 3506 H 341.072 -1.04077 3.05562 0
M  V30 3507 H 340.124 1.32479 3.56586 0
M  V30 3508 H 341.436 1.52978 4.74762 0
M  V30 3509 H 340.59 -0.432114 6.05159 0
M  V30 3510 H 339.329 -0.730179 4.82203 0
M  V30 3511 H 338.334 1.52847 5.28127 0
M  V30 3512 H 339.559 1.81606 6.54367 0
M  V30 3513 H 337.505 -0.427959 6.54603 0
M  V30 3514 H 337.422 1.02287 7.49048 0
M  V30 3515 H 338.69 -0.126928 7.79397 0
M  V30 3516 N 342.919 -1.39368 0.735821 0
M  V30 3517 C 344.144 -2.05319 0.293052 0
M  V30 3518 C 344.569 -1.55115 -1.064 0
M  V30 3519 O 343.927 -0.695261 -1.67439 0
M  V30 3520 C 343.975 -3.59305 0.305323 0
M  V30 3521 O 343.079 -4.06299 -0.706761 0
M  V30 3522 H 342.42 -0.650529 0.13307 0
M  V30 3523 H 344.95 -1.78386 1.00197 0
M  V30 3524 H 344.96 -4.07724 0.149997 0
M  V30 3525 H 343.635 -3.95207 1.29553 0
M  V30 3526 H 342.212 -3.69292 -0.517504 0
M  V30 3527 N 344.397 -0.483516 -1.5 0
M  V30 3528 C 345.643 0.0672592 -2.02688 0
M  V30 3529 C 345.976 1.38247 -1.36387 0
M  V30 3530 O 345.251 1.88131 -0.493675 0
M  V30 3531 C 345.534 0.238109 -3.59312 0
M  V30 3532 C 345.387 -1.099 -4.36168 0
M  V30 3533 C 346.706 0.986916 -4.28892 0
M  V30 3534 H 343.825 0.0229696 -0.736642 0
M  V30 3535 H 346.467 -0.631527 -1.79197 0
M  V30 3536 H 344.617 0.8333 -3.79458 0
M  V30 3537 H 346.289 -1.73172 -4.27562 0
M  V30 3538 H 344.532 -1.69261 -3.99416 0
M  V30 3539 H 345.203 -0.932954 -5.44059 0
M  V30 3540 H 347.679 0.482302 -4.13295 0
M  V30 3541 H 346.555 1.07527 -5.38265 0
M  V30 3542 H 346.816 2.0265 -3.92919 0
M  V30 3543 N 345.875 1.56104 -0.216619 0
M  V30 3544 C 347.291 1.58995 0.13886 0
M  V30 3545 C 347.491 1.23333 1.59346 0
M  V30 3546 O 346.547 0.966234 2.33281 0
M  V30 3547 C 347.86 3.00143 -0.182968 0
M  V30 3548 C 349.408 3.12751 -0.124807 0
M  V30 3549 C 349.883 4.56068 -0.420241 0
M  V30 3550 N 351.374 4.61723 -0.369634 0
M  V30 3551 C 352.109 5.70542 -0.571789 0
M  V30 3552 N 351.605 6.87744 -0.835453 0
M  V30 3553 N 353.398 5.59831 -0.504563 0
M  V30 3554 H 345.549 1.77562 -1.16557 0
M  V30 3555 H 347.812 0.825091 -0.466828 0
M  V30 3556 H 347.518 3.30871 -1.19237 0
M  V30 3557 H 347.392 3.73813 0.504367 0
M  V30 3558 H 349.779 2.81822 0.875223 0
M  V30 3559 H 349.86 2.41421 -0.845544 0
M  V30 3560 H 349.504 4.87713 -1.41769 0
M  V30 3561 H 349.434 5.25617 0.321631 0
M  V30 3562 H 351.925 3.77502 -0.173338 0
M  V30 3563 H 352.238 7.66587 -0.977938 0
M  V30 3564 H 350.583 6.895 -0.872592 0
M  V30 3565 H 353.774 4.67145 -0.298842 0
M  V30 3566 H 353.947 6.44573 -0.665519 0
M  V30 3567 N 347.353 -0.0568162 1.57498 0
M  V30 3568 C 348.769 -0.411933 1.54192 0
M  V30 3569 C 348.969 -1.78287 0.938942 0
M  V30 3570 O 348.025 -2.46483 0.547919 0
M  V30 3571 C 349.338 -0.339244 2.9878 0
M  V30 3572 C 350.886 -0.418348 3.10192 0
M  V30 3573 C 351.361 -0.375407 4.56459 0
M  V30 3574 N 352.852 -0.435038 4.61153 0
M  V30 3575 C 353.587 -0.424265 5.71828 0
M  V30 3576 N 353.083 -0.367418 6.91825 0
M  V30 3577 N 354.876 -0.471938 5.60115 0
M  V30 3578 H 347.027 0.840684 1.95055 0
M  V30 3579 H 349.29 0.316987 0.893433 0
M  V30 3580 H 348.996 0.601742 3.46514 0
M  V30 3581 H 348.87 -1.14371 3.59443 0
M  V30 3582 H 351.257 -1.34976 2.62422 0
M  V30 3583 H 351.338 0.414962 2.52412 0
M  V30 3584 H 350.982 0.552219 5.04889 0
M  V30 3585 H 350.912 -1.22645 5.12119 0
M  V30 3586 H 353.403 -0.482612 3.74806 0
M  V30 3587 H 353.716 -0.363535 7.71944 0
M  V30 3588 H 352.061 -0.333879 6.94198 0
M  V30 3589 H 355.252 -0.514145 4.65268 0
M  V30 3590 H 355.425 -0.460073 6.46365 0
M  V30 3591 N 348.832 -1.54138 -0.328536 0
M  V30 3592 C 349.742 -1.86192 -1.42723 0
M  V30 3593 C 350.758 -0.753382 -1.56844 0
M  V30 3594 O 351.934 -1.04718 -1.72035 0
M  V30 3595 C 348.999 -2.07824 -2.77507 0
M  V30 3596 C 348.06 -3.31641 -2.72603 0
M  V30 3597 C 347.293 -3.52232 -4.00959 0
M  V30 3598 O 347.516 -2.7636 -4.9898 0
M  V30 3599 O 346.45 -4.45699 -4.0452 0
M  V30 3600 H 350.276 -2.79608 -1.18547 0
M  V30 3601 H 347.861 -1.3998 -0.522104 0
M  V30 3602 H 349.743 -2.23411 -3.57303 0
M  V30 3603 H 348.418 -1.17596 -3.01584 0
M  V30 3604 H 347.325 -3.21444 -1.91376 0
M  V30 3605 H 348.658 -4.2191 -2.53481 0
M  V30 3606 N 350.31 0.590341 -1.46126 0
M  V30 3607 C 351.726 0.912917 -1.30912 0
M  V30 3608 C 351.926 1.99616 -0.274893 0
M  V30 3609 O 350.982 2.50397 0.325197 0
M  V30 3610 C 352.295 1.3375 -2.69317 0
M  V30 3611 C 353.843 1.45077 -2.77348 0
M  V30 3612 C 354.318 1.90904 -4.16317 0
M  V30 3613 N 355.809 1.9811 -4.18696 0
M  V30 3614 C 356.544 2.34828 -5.23109 0
M  V30 3615 N 356.04 2.70393 -6.37856 0
M  V30 3616 N 357.833 2.35317 -5.10473 0
M  V30 3617 H 349.984 -0.125358 -2.1203 0
M  V30 3618 H 352.247 0.00658481 -0.947977 0
M  V30 3619 H 351.953 0.615614 -3.4627 0
M  V30 3620 H 351.827 2.30058 -2.9892 0
M  V30 3621 H 354.214 2.16353 -2.00687 0
M  V30 3622 H 354.295 0.4704 -2.51438 0
M  V30 3623 H 353.939 1.20209 -4.9347 0
M  V30 3624 H 353.869 2.89886 -4.39629 0
M  V30 3625 H 356.36 1.73146 -3.359 0
M  V30 3626 H 356.673 2.97341 -7.13308 0
M  V30 3627 H 355.018 2.68048 -6.41229 0
M  V30 3628 H 358.209 2.0695 -4.19868 0
M  V30 3629 H 358.382 2.63605 -5.9196 0
M  V30 3630 N 351.788 1.33704 0.83433 0
M  V30 3631 C 352.718 1.26967 1.95963 0
M  V30 3632 C 353.699 0.149337 1.69443 0
M  V30 3633 O 354.884 0.339852 1.91203 0
M  V30 3634 C 352.014 1.01275 3.32206 0
M  V30 3635 C 350.968 2.09652 3.73136 0
M  V30 3636 C 350.294 1.69166 5.07235 0
M  V30 3637 C 351.594 3.51372 3.86439 0
M  V30 3638 H 353.288 2.2112 2.01857 0
M  V30 3639 H 350.834 1.06447 0.969793 0
M  V30 3640 H 352.787 0.952106 4.10503 0
M  V30 3641 H 351.511 0.0356203 3.26581 0
M  V30 3642 H 350.17 2.14766 2.97104 0
M  V30 3643 H 349.818 0.701437 4.98085 0
M  V30 3644 H 349.518 2.41694 5.35591 0
M  V30 3645 H 351.042 1.64576 5.88003 0
M  V30 3646 H 352.456 3.48734 4.55036 0
M  V30 3647 H 350.853 4.22425 4.26236 0
M  V30 3648 H 351.923 3.89546 2.88759 0
M  V30 3649 N 353.266 -1.05314 1.17247 0
M  V30 3650 C 354.176 -2.16538 0.90268 0
M  V30 3651 C 355.192 -1.73523 -0.128707 0
M  V30 3652 O 356.368 -2.01337 0.0502701 0
M  V30 3653 C 353.433 -3.44167 0.418356 0
M  V30 3654 C 352.494 -4.01635 1.51618 0
M  V30 3655 C 351.727 -5.23171 1.05487 0
M  V30 3656 O 351.95 -5.70327 -0.0914715 0
M  V30 3657 O 350.884 -5.72848 1.8474 0
M  V30 3658 H 354.71 -2.42145 1.83302 0
M  V30 3659 H 352.295 -1.15037 0.953246 0
M  V30 3660 H 354.177 -4.21112 0.155726 0
M  V30 3661 H 352.852 -3.20063 -0.48385 0
M  V30 3662 H 351.759 -3.26135 1.83268 0
M  V30 3663 H 353.092 -4.30053 2.39405 0
M  V30 3664 N 354.744 -0.972509 -1.24016 0
M  V30 3665 C 355.654 -0.5143 -2.28893 0
M  V30 3666 C 356.67 0.427078 -1.68677 0
M  V30 3667 O 357.846 0.298939 -1.99169 0
M  V30 3668 C 354.911 0.183598 -3.46214 0
M  V30 3669 C 353.972 -0.798202 -4.21814 0
M  V30 3670 C 353.205 -0.133514 -5.33533 0
M  V30 3671 O 353.428 1.07714 -5.60137 0
M  V30 3672 O 352.362 -0.828103 -5.96176 0
M  V30 3673 H 356.188 -1.38629 -2.70214 0
M  V30 3674 H 353.773 -0.739769 -1.29799 0
M  V30 3675 H 355.655 0.575433 -4.17453 0
M  V30 3676 H 354.33 1.03048 -3.0686 0
M  V30 3677 H 353.237 -1.24059 -3.52931 0
M  V30 3678 H 354.57 -1.61364 -4.64997 0
M  V30 3679 N 356.222 1.38976 -0.743202 0
M  V30 3680 C 357.17 2.32394 -0.0978389 0
M  V30 3681 C 358.164 1.53486 0.716824 0
M  V30 3682 O 359.37 1.69092 0.617088 0
M  V30 3683 H 355.745 0.75189 -0.0128402 0
M  V30 3684 H 357.716 2.84441 -0.901981 0
M  V30 3685 C 356.465 3.38629 0.789036 0
M  V30 3686 H 355.788 3.99432 0.171559 0
M  V30 3687 H 357.228 4.06426 1.20807 0
M  V30 3688 C 355.687 2.76347 1.92702 0
M  V30 3689 O 356.217 2.64836 3.02034 0
M  V30 3690 N 354.423 2.34311 1.71891 0
M  V30 3691 H 353.97 2.43873 0.829675 0
M  V30 3692 H 353.928 1.9298 2.48205 0
M  V30 3693 N 357.7 0.491464 1.49741 0
M  V30 3694 C 358.63 -0.28154 2.31796 0
M  V30 3695 C 359.611 -0.971473 1.3963 0
M  V30 3696 O 360.796 -0.964719 1.68543 0
M  V30 3697 C 357.926 -1.35203 3.19902 0
M  V30 3698 C 356.88 -0.782529 4.20786 0
M  V30 3699 C 356.206 -1.95283 4.97764 0
M  V30 3700 C 357.506 0.21999 5.21837 0
M  V30 3701 H 359.2 0.403355 2.96671 0
M  V30 3702 H 356.746 0.195425 1.42668 0
M  V30 3703 H 358.699 -1.90045 3.76113 0
M  V30 3704 H 357.423 -2.06598 2.52953 0
M  V30 3705 H 356.082 -0.255928 3.65706 0
M  V30 3706 H 355.73 -2.65423 4.2727 0
M  V30 3707 H 355.43 -1.57789 5.66018 0
M  V30 3708 H 356.954 -2.50577 5.56816 0
M  V30 3709 H 358.368 -0.23996 5.72798 0
M  V30 3710 H 356.765 0.51026 5.97927 0
M  V30 3711 H 357.835 1.13911 4.7133 0
M  V30 3712 N 359.178 -1.55987 0.224894 0
M  V30 3713 C 360.455 -1.90232 -0.455083 0
M  V30 3714 C 360.835 -1.14269 -1.77499 0
M  V30 3715 O 360.183 -0.253079 -2.27094 0
M  V30 3716 C 360.393 -3.42993 -0.644758 0
M  V30 3717 C 361.741 -4.13821 -0.950669 0
M  V30 3718 O 362.765 -3.4861 -0.731423 0
M  V30 3719 O 361.624 -5.29128 -1.36695 0
M  V30 3720 H 358.718 -0.79108 -0.241084 0
M  V30 3721 H 361.264 -1.67581 0.267327 0
M  V30 3722 H 360.036 -3.90252 0.28613 0
M  V30 3723 H 359.659 -3.71434 -1.41853 0
M  V30 3724 N 360.656 0.0484629 -1.57525 0
M  V30 3725 C 361.902 0.744226 -1.88651 0
M  V30 3726 C 362.235 1.76029 -0.820212 0
M  V30 3727 O 361.51 1.93782 0.166985 0
M  V30 3728 C 361.793 1.43128 -3.30434 0
M  V30 3729 C 361.646 0.43005 -4.47739 0
M  V30 3730 C 362.965 2.37031 -3.70816 0
M  V30 3731 H 360.084 0.269089 -0.68612 0
M  V30 3732 H 362.726 0.00713532 -1.89999 0
M  V30 3733 H 360.876 2.05956 -3.29415 0
M  V30 3734 H 362.548 -0.194816 -4.60888 0
M  V30 3735 H 360.791 -0.252522 -4.33064 0
M  V30 3736 H 361.462 0.948874 -5.43783 0
M  V30 3737 H 363.938 1.84263 -3.73077 0
M  V30 3738 H 362.814 2.82094 -4.70865 0
M  V30 3739 H 363.075 3.22864 -3.02012 0
M  V30 3740 N 362.134 1.5431 0.320358 0
M  V30 3741 C 363.381 1.72668 1.05792 0
M  V30 3742 C 363.709 0.502084 1.87908 0
M  V30 3743 O 362.964 -0.516149 1.88771 0
M  V30 3744 C 363.263 2.95639 2.00828 0
M  V30 3745 C 362.929 4.30265 1.34843 0
M  V30 3746 C 361.591 4.66865 1.16578 0
M  V30 3747 C 363.943 5.13801 0.875095 0
M  V30 3748 C 361.271 5.84597 0.496336 0
M  V30 3749 C 363.623 6.32219 0.219463 0
M  V30 3750 C 362.287 6.67495 0.0246915 0
M  V30 3751 H 361.557 0.631837 0.387121 0
M  V30 3752 H 364.204 1.88552 0.334735 0
M  V30 3753 H 362.509 2.74456 2.79609 0
M  V30 3754 H 364.206 3.07038 2.57932 0
M  V30 3755 H 360.796 4.01472 1.50061 0
M  V30 3756 H 364.98 4.86039 1.00398 0
M  V30 3757 H 360.236 6.10486 0.334264 0
M  V30 3758 H 364.41 6.96227 -0.155291 0
M  V30 3759 H 362.037 7.5858 -0.496065 0
M  V30 3760 N 363.613 -0.582584 1.46437 0
M  V30 3761 C 364.89 -1.34276 1.4223 0
M  V30 3762 C 365.27 -2.10835 0.10583 0
M  V30 3763 O 364.618 -2.09485 -0.912596 0
M  V30 3764 C 364.828 -2.26865 2.65204 0
M  V30 3765 C 366.176 -2.88691 3.11356 0
M  V30 3766 O 367.2 -2.37178 2.65753 0
M  V30 3767 O 366.059 -3.82255 3.90568 0
M  V30 3768 H 363.153 -0.603326 0.565621 0
M  V30 3769 H 365.699 -0.603591 1.58603 0
M  V30 3770 H 364.471 -1.69724 3.52576 0
M  V30 3771 H 364.094 -3.08122 2.5129 0
M  V30 3772 N 365.091 -1.34144 -0.827227 0
M  V30 3773 C 366.338 -1.26258 -1.58319 0
M  V30 3774 C 366.666 0.168595 -1.93768 0
M  V30 3775 O 365.921 1.12877 -1.59866 0
M  V30 3776 C 366.22 -2.09464 -2.89585 0
M  V30 3777 C 365.886 -3.58521 -2.73448 0
M  V30 3778 C 364.548 -3.99155 -2.68754 0
M  V30 3779 C 366.9 -4.53189 -2.57428 0
M  V30 3780 C 364.228 -5.32656 -2.45957 0
M  V30 3781 C 366.58 -5.86864 -2.36163 0
M  V30 3782 C 365.244 -6.26667 -2.29879 0
M  V30 3783 H 364.514 -0.462013 -0.579332 0
M  V30 3784 H 367.161 -1.65845 -0.95748 0
M  V30 3785 H 365.466 -1.62692 -3.56425 0
M  V30 3786 H 367.163 -2.00712 -3.47154 0
M  V30 3787 H 363.753 -3.26264 -2.77939 0
M  V30 3788 H 367.937 -4.22696 -2.60081 0
M  V30 3789 H 363.193 -5.62519 -2.39546 0
M  V30 3790 H 367.367 -6.59813 -2.22754 0
M  V30 3791 H 364.994 -7.30049 -2.11975 0
M  V30 3792 N 366.569 1.04691 -1.17803 0
M  V30 3793 C 367.846 1.7472 -0.879328 0
M  V30 3794 C 368.226 2.01812 0.619271 0
M  V30 3795 O 367.574 1.65824 1.57209 0
M  V30 3796 C 367.784 3.03686 -1.71976 0
M  V30 3797 C 369.132 3.77542 -1.94286 0
M  V30 3798 O 370.156 3.13569 -1.68976 0
M  V30 3799 O 369.015 4.92506 -2.36855 0
M  V30 3800 H 366.109 0.760011 -0.326056 0
M  V30 3801 H 368.655 1.10813 -1.28525 0
M  V30 3802 H 367.427 2.79754 -2.73594 0
M  V30 3803 H 367.05 3.75332 -1.31194 0
M  V30 3804 N 368.047 0.979072 1.23499 0
M  V30 3805 C 368.977 0.537606 2.27227 0
M  V30 3806 C 369.958 -0.428539 1.64613 0
M  V30 3807 O 371.143 -0.322191 1.91509 0
M  V30 3808 C 368.273 -0.162052 3.46922 0
M  V30 3809 C 367.227 0.721242 4.21879 0
M  V30 3810 C 366.553 -0.110555 5.34586 0
M  V30 3811 C 367.853 2.01141 4.82016 0
M  V30 3812 H 369.547 1.40462 2.64406 0
M  V30 3813 H 367.093 0.67684 1.27102 0
M  V30 3814 H 369.046 -0.482192 4.18632 0
M  V30 3815 H 367.77 -1.06351 3.08799 0
M  V30 3816 H 366.429 1.02482 3.51984 0
M  V30 3817 H 366.077 -1.0125 4.92704 0
M  V30 3818 H 365.777 0.477325 5.85658 0
M  V30 3819 H 367.301 -0.425107 6.09118 0
M  V30 3820 H 368.715 1.75612 5.45741 0
M  V30 3821 H 367.112 2.54695 5.43369 0
M  V30 3822 H 368.182 2.69909 4.02836 0
M  V30 3823 N 369.525 -1.3858 0.750561 0
M  V30 3824 C 370.753 -2.04471 0.316098 0
M  V30 3825 C 371.168 -1.56606 -1.05452 0
M  V30 3826 O 370.525 -0.737784 -1.66922 0
M  V30 3827 C 370.576 -3.60025 0.326275 0
M  V30 3828 O 370.297 -4.06133 1.6428 0
M  V30 3829 C 371.798 -4.43131 -0.122429 0
M  V30 3830 H 369.018 -0.65717 0.135528 0
M  V30 3831 H 371.562 -1.77329 1.01857 0
M  V30 3832 H 369.717 -3.86014 -0.327431 0
M  V30 3833 H 370.131 -5.00547 1.56693 0
M  V30 3834 H 371.605 -5.51963 -0.0641473 0
M  V30 3835 H 372.082 -4.23333 -1.16988 0
M  V30 3836 H 372.688 -4.22323 0.50229 0
M  V30 3837 N 371.003 -0.499398 -1.49478 0
M  V30 3838 C 372.28 0.108629 -1.95298 0
M  V30 3839 C 372.66 1.54282 -1.44084 0
M  V30 3840 O 372.008 2.18944 -0.653908 0
M  V30 3841 C 372.218 0.0229111 -3.48992 0
M  V30 3842 C 373.566 0.197643 -4.2414 0
M  V30 3843 O 374.59 0.0981735 -3.56065 0
M  V30 3844 O 373.449 0.401669 -5.45022 0
M  V30 3845 H 370.543 0.096181 -0.821388 0
M  V30 3846 H 373.089 -0.561822 -1.6013 0
M  V30 3847 H 371.861 -0.977321 -3.78899 0
M  V30 3848 H 371.484 0.733579 -3.90774 0
M  V30 3849 N 372.481 1.55866 -0.233164 0
M  V30 3850 C 373.709 2.02998 0.399905 0
M  V30 3851 C 374.124 1.11274 1.52524 0
M  V30 3852 O 373.481 0.124528 1.82075 0
M  V30 3853 C 373.532 3.4958 0.920639 0
M  V30 3854 O 373.253 4.37808 -0.159834 0
M  V30 3855 C 374.754 4.12411 1.62578 0
M  V30 3856 H 371.974 0.664006 0.0966281 0
M  V30 3857 H 374.518 2.0143 -0.353013 0
M  V30 3858 H 372.673 3.51727 1.62379 0
M  V30 3859 H 373.087 5.23981 0.23337 0
M  V30 3860 H 374.561 5.16711 1.94201 0
M  V30 3861 H 375.038 3.5809 2.54299 0
M  V30 3862 H 375.644 4.14148 0.967553 0
M  V30 3863 N 373.959 -0.0401083 1.57549 0
M  V30 3864 C 374.869 -1.06133 2.0922 0
M  V30 3865 C 375.885 -1.40356 1.0284 0
M  V30 3866 O 377.061 -1.49897 1.34509 0
M  V30 3867 C 374.126 -2.34658 2.55218 0
M  V30 3868 C 373.187 -2.07117 3.76033 0
M  V30 3869 C 372.42 -3.29514 4.19829 0
M  V30 3870 O 372.643 -4.39794 3.63232 0
M  V30 3871 O 371.577 -3.15863 5.12362 0
M  V30 3872 H 375.403 -0.652244 2.96613 0
M  V30 3873 H 372.988 -0.256368 1.47184 0
M  V30 3874 H 374.87 -3.10239 2.85184 0
M  V30 3875 H 373.545 -2.74883 1.70941 0
M  V30 3876 H 372.452 -1.29139 3.51104 0
M  V30 3877 H 373.785 -1.71754 4.61261 0
M  V30 3878 N 375.437 -1.54477 -0.31217 0
M  V30 3879 C 376.686 -1.72438 -1.04633 0
M  V30 3880 C 376.999 -0.511163 -1.88803 0
M  V30 3881 O 378.205 -0.572341 -2.65399 0
M  V30 3882 C 376.661 -3.05043 -1.9099 0
M  V30 3883 C 376.269 -4.33806 -1.11877 0
M  V30 3884 C 378.013 -3.32364 -2.64073 0
M  V30 3885 C 375.92 -5.57467 -1.97445 0
M  V30 3886 H 374.85 -0.642647 -0.394361 0
M  V30 3887 H 377.501 -1.80966 -0.303929 0
M  V30 3888 H 375.883 -2.90451 -2.69173 0
M  V30 3889 H 377.057 -4.59199 -0.383843 0
M  V30 3890 H 375.372 -4.13336 -0.504252 0
M  V30 3891 H 377.969 -4.21951 -3.28423 0
M  V30 3892 H 378.312 -2.50745 -3.32314 0
M  V30 3893 H 378.845 -3.47875 -1.92944 0
M  V30 3894 H 375.584 -6.41722 -1.33692 0
M  V30 3895 H 375.104 -5.36277 -2.6864 0
M  V30 3896 H 376.783 -5.94303 -2.5576 0
M  V30 3897 N 376.915 0.57481 -1.46744 0
M  V30 3898 C 377.878 1.66533 -1.57478 0
M  V30 3899 C 378.878 1.54338 -0.451263 0
M  V30 3900 O 380.068 1.58814 -0.715813 0
M  V30 3901 C 377.2 3.05999 -1.50259 0
M  V30 3902 H 378.393 1.58372 -2.54673 0
M  V30 3903 H 375.946 0.793301 -1.34672 0
M  V30 3904 H 376.681 3.19709 -0.543725 0
M  V30 3905 H 376.466 3.16259 -2.31781 0
M  V30 3906 H 377.956 3.8537 -1.60872 0
M  V30 3907 N 378.394 1.34581 0.820102 0
M  V30 3908 C 379.357 1.2628 1.91275 0
M  V30 3909 C 380.357 0.177344 1.59819 0
M  V30 3910 O 381.547 0.430156 1.68806 0
M  V30 3911 C 378.679 0.950327 3.27386 0
M  V30 3912 H 379.872 2.23421 2.00057 0
M  V30 3913 H 377.425 1.1891 1.0144 0
M  V30 3914 H 378.16 -0.0177938 3.24295 0
M  V30 3915 H 377.945 1.73549 3.51601 0
M  V30 3916 H 379.435 0.917492 4.07396 0
M  V30 3917 N 379.872 -1.04064 1.18357 0
M  V30 3918 C 381.121 -1.76662 0.973313 0
M  V30 3919 C 381.434 -1.89154 -0.497991 0
M  V30 3920 O 382.64 -2.58606 -0.826762 0
M  V30 3921 C 381.096 -3.17624 1.69242 0
M  V30 3922 C 380.704 -3.13225 3.20303 0
M  V30 3923 C 382.448 -3.946 1.56497 0
M  V30 3924 C 380.355 -4.49046 3.84853 0
M  V30 3925 H 379.285 -0.662214 0.36054 0
M  V30 3926 H 381.936 -1.16553 1.41731 0
M  V30 3927 H 380.318 -3.78129 1.1762 0
M  V30 3928 H 381.492 -2.62172 3.78949 0
M  V30 3929 H 379.807 -2.49749 3.33189 0
M  V30 3930 H 382.404 -4.95042 2.02084 0
M  V30 3931 H 382.747 -4.13074 0.517243 0
M  V30 3932 H 383.28 -3.4067 2.05399 0
M  V30 3933 H 380.019 -4.35777 4.89672 0
M  V30 3934 H 379.539 -5.00203 3.30994 0
M  V30 3935 H 381.218 -5.17961 3.87718 0
M  V30 3936 N 381.35 -0.985608 -1.22978 0
M  V30 3937 C 382.627 -0.573599 -1.87001 0
M  V30 3938 C 383.007 0.949213 -1.88555 0
M  V30 3939 O 382.355 1.82811 -1.37086 0
M  V30 3940 C 382.565 -1.18564 -3.28243 0
M  V30 3941 C 383.913 -1.28163 -4.04796 0
M  V30 3942 O 384.937 -1.13949 -3.37482 0
M  V30 3943 O 383.796 -1.50832 -5.25273 0
M  V30 3944 H 380.89 -0.193868 -0.803955 0
M  V30 3945 H 383.436 -1.08102 -1.30813 0
M  V30 3946 H 382.208 -2.22758 -3.21706 0
M  V30 3947 H 381.831 -0.663363 -3.92027 0
M  V30 3948 N 382.828 1.3818 -0.7579 0
M  V30 3949 C 383.791 2.28764 -0.141286 0
M  V30 3950 C 384.791 1.47388 0.642907 0
M  V30 3951 O 385.981 1.67781 0.468536 0
M  V30 3952 C 383.113 3.31184 0.808069 0
M  V30 3953 H 384.306 2.848 -0.939633 0
M  V30 3954 H 381.859 1.47212 -0.525191 0
M  V30 3955 H 382.594 2.80247 1.63193 0
M  V30 3956 H 382.379 3.91314 0.248104 0
M  V30 3957 H 383.869 3.98909 1.23536 0
M  V30 3958 N 384.306 0.507319 1.49211 0
M  V30 3959 C 385.239 -0.314509 2.26022 0
M  V30 3960 C 386.217 -0.964849 1.30879 0
M  V30 3961 O 387.401 -0.993707 1.6018 0
M  V30 3962 C 384.528 -1.44346 3.06402 0
M  V30 3963 C 383.574 -0.90685 4.16748 0
M  V30 3964 S 384.407 0.207392 5.35098 0
M  V30 3965 C 385.563 -0.924573 6.19033 0
M  V30 3966 H 385.796 0.337416 2.95379 0
M  V30 3967 H 383.329 0.292718 1.516 0
M  V30 3968 H 385.287 -2.09029 3.53295 0
M  V30 3969 H 383.948 -2.06702 2.36502 0
M  V30 3970 H 383.141 -1.75309 4.72528 0
M  V30 3971 H 382.743 -0.33712 3.72478 0
M  V30 3972 H 385.035 -1.82839 6.52362 0
M  V30 3973 H 385.978 -0.405248 7.06939 0
M  V30 3974 H 386.386 -1.19476 5.51712 0
M  V30 3975 N 385.784 -1.5574 0.241426 0
M  V30 3976 C 387.061 -1.90704 -0.434881 0
M  V30 3977 C 387.441 -1.16145 -1.76277 0
M  V30 3978 O 386.789 -0.277152 -2.26813 0
M  V30 3979 C 386.999 -3.43657 -0.608343 0
M  V30 3980 C 388.347 -4.14806 -0.906725 0
M  V30 3981 O 389.371 -3.49366 -0.694408 0
M  V30 3982 O 388.23 -5.30548 -1.31075 0
M  V30 3983 H 385.324 -0.793592 -0.23268 0
M  V30 3984 H 387.87 -1.67288 0.285086 0
M  V30 3985 H 386.642 -3.89927 0.327505 0
M  V30 3986 H 386.265 -3.72918 -1.37906 0
M  V30 3987 N 387.262 0.0317525 -1.57568 0
M  V30 3988 C 388.673 0.578692 -1.77505 0
M  V30 3989 C 389.024 1.75749 -0.872164 0
M  V30 3990 O 388.149 2.16298 -0.0663106 0
M  V30 3991 C 388.744 1.05658 -3.21904 0
M  V30 3992 C 387.303 1.54906 -3.43047 0
M  V30 3993 C 386.45 0.485939 -2.73009 0
M  V30 3994 H 389.401 -0.194475 -1.57504 0
M  V30 3995 H 389.422 1.92404 -3.28269 0
M  V30 3996 H 388.934 0.198422 -3.87592 0
M  V30 3997 H 387.035 2.42915 -2.82529 0
M  V30 3998 H 387.148 1.59841 -4.5165 0
M  V30 3999 H 385.512 0.940354 -2.36705 0
M  V30 4000 H 386.295 -0.362709 -3.41379 0
M  V30 4001 N 388.74 1.54641 0.303973 0
M  V30 4002 C 389.988 1.73437 1.0375 0
M  V30 4003 C 390.309 0.521449 1.87899 0
M  V30 4004 O 389.579 -0.46432 1.90318 0
M  V30 4005 H 388.159 0.639518 0.386039 0
M  V30 4006 H 390.821 1.91988 0.335675 0
M  V30 4007 H 389.917 2.62235 1.69231 0
M  V30 4008 N 390.218 -0.567019 1.47046 0
M  V30 4009 C 391.495 -1.3276 1.43646 0
M  V30 4010 C 391.875 -2.1071 0.128186 0
M  V30 4011 O 391.223 -2.10441 -0.890326 0
M  V30 4012 C 391.433 -2.2404 2.67595 0
M  V30 4013 C 392.781 -2.85372 3.14401 0
M  V30 4014 O 393.805 -2.34346 2.68254 0
M  V30 4015 O 392.664 -3.78091 3.946 0
M  V30 4016 H 389.758 -0.597293 0.571988 0
M  V30 4017 H 392.304 -0.586735 1.59234 0
M  V30 4018 H 391.076 -1.65975 3.54356 0
M  V30 4019 H 390.699 -3.05439 2.54544 0
M  V30 4020 N 391.696 -1.35014 -0.812953 0
M  V30 4021 C 392.944 -1.27678 -1.56661 0
M  V30 4022 C 393.265 0.150359 -1.94419 0
M  V30 4023 O 392.535 1.08532 -1.63088 0
M  V30 4024 H 391.115 -0.469602 -0.580933 0
M  V30 4025 H 393.777 -1.69043 -0.970076 0
M  V30 4026 H 392.873 -1.88833 -2.48492 0
M  V30 4027 N 393.175 1.03435 -1.18907 0
M  V30 4028 C 394.4 1.80919 -1.01406 0
M  V30 4029 C 394.825 1.83055 0.432721 0
M  V30 4030 O 394.183 1.25252 1.31079 0
M  V30 4031 C 394.231 3.24091 -1.58105 0
M  V30 4032 O 393.335 4.04434 -0.806669 0
M  V30 4033 H 392.676 0.558709 -0.358803 0
M  V30 4034 H 395.206 1.30223 -1.57807 0
M  V30 4035 H 395.216 3.74853 -1.61087 0
M  V30 4036 H 393.891 3.21851 -2.6341 0
M  V30 4037 H 392.468 3.63091 -0.849666 0
M  V30 4038 N 394.653 0.992116 1.22453 0
M  V30 4039 C 395.901 0.666215 1.90804 0
M  V30 4040 C 396.222 -0.804152 1.77647 0
M  V30 4041 O 395.492 -1.57629 1.16318 0
M  V30 4042 H 394.072 0.243423 0.706225 0
M  V30 4043 H 396.734 1.25845 1.48825 0
M  V30 4044 H 395.83 0.928069 2.97982 0
M  V30 4045 N 396.131 -1.37776 0.765217 0
M  V30 4046 C 397.547 -1.53297 0.444108 0
M  V30 4047 C 397.747 -1.72515 -1.04119 0
M  V30 4048 O 396.803 -1.74278 -1.82711 0
M  V30 4049 C 398.116 -2.73328 1.25349 0
M  V30 4050 C 399.664 -2.87185 1.24473 0
M  V30 4051 C 400.139 -4.10191 2.03733 0
M  V30 4052 N 401.63 -4.17291 2.01053 0
M  V30 4053 C 402.365 -5.11488 2.59166 0
M  V30 4054 N 401.861 -6.11285 3.26041 0
M  V30 4055 N 403.654 -5.03924 2.49032 0
M  V30 4056 H 395.805 -1.23552 1.72768 0
M  V30 4057 H 398.068 -0.601103 0.733062 0
M  V30 4058 H 397.774 -2.6557 2.30577 0
M  V30 4059 H 397.648 -3.66834 0.87823 0
M  V30 4060 H 400.035 -2.94418 0.20047 0
M  V30 4061 H 400.116 -1.94657 1.65959 0
M  V30 4062 H 399.76 -4.0372 3.08176 0
M  V30 4063 H 399.69 -5.01821 1.59633 0
M  V30 4064 H 402.181 -3.45825 1.5236 0
M  V30 4065 H 402.494 -6.79678 3.67774 0
M  V30 4066 H 400.839 -6.11583 3.30138 0
M  V30 4067 H 404.03 -4.24902 1.96407 0
M  V30 4068 H 404.203 -5.77152 2.94617 0
M  V30 4069 N 397.609 -0.515225 -1.4894 0
M  V30 4070 C 398.855 0.0242508 -2.02785 0
M  V30 4071 C 399.188 1.35323 -1.39289 0
M  V30 4072 O 398.463 1.87041 -0.533469 0
M  V30 4073 C 398.746 0.16184 -3.59736 0
M  V30 4074 C 398.599 -1.19127 -4.33738 0
M  V30 4075 C 399.918 0.895719 -4.30888 0
M  V30 4076 H 397.037 0.00733914 -0.736963 0
M  V30 4077 H 399.679 -0.669395 -1.77818 0
M  V30 4078 H 397.829 0.752624 -3.8114 0
M  V30 4079 H 399.501 -1.82202 -4.23792 0
M  V30 4080 H 397.744 -1.77695 -3.95736 0
M  V30 4081 H 398.415 -1.04815 -5.41957 0
M  V30 4082 H 400.891 0.394528 -4.14225 0
M  V30 4083 H 399.767 0.960859 -5.40425 0
M  V30 4084 H 400.028 1.9427 -3.97129 0
M  V30 4085 N 399.087 1.5561 -0.249682 0
M  V30 4086 C 400.312 2.03865 0.381305 0
M  V30 4087 C 400.737 1.12769 1.50548 0
M  V30 4088 O 400.095 0.121189 1.80895 0
M  V30 4089 C 400.143 3.50101 0.863816 0
M  V30 4090 O 399.247 3.62132 1.97318 0
M  V30 4091 H 398.588 0.658827 0.0827194 0
M  V30 4092 H 401.118 2.01105 -0.376552 0
M  V30 4093 H 401.128 3.90975 1.1663 0
M  V30 4094 H 399.803 4.1588 0.0411816 0
M  V30 4095 H 398.38 3.33155 1.67517 0
M  V30 4096 N 400.565 -0.0233959 1.57583 0
M  V30 4097 C 401.528 -1.00693 2.05897 0
M  V30 4098 C 402.528 -1.28693 0.964092 0
M  V30 4099 O 403.718 -1.23602 1.22753 0
M  V30 4100 C 400.85 -2.33825 2.4807 0
M  V30 4101 H 402.043 -0.589476 2.9405 0
M  V30 4102 H 399.596 -0.270354 1.53944 0
M  V30 4103 H 400.331 -2.80307 1.6309 0
M  V30 4104 H 400.116 -2.1483 3.2801 0
M  V30 4105 H 401.606 -3.04426 2.85857 0
M  V30 4106 N 402.043 -1.548 -0.295768 0
M  V30 4107 C 402.993 -1.82497 -1.3667 0
M  V30 4108 C 403.977 -0.682434 -1.45711 0
M  V30 4109 O 405.169 -0.943207 -1.49775 0
M  V30 4110 C 402.298 -2.08036 -2.73086 0
M  V30 4111 C 401.384 -3.28488 -2.68247 0
M  V30 4112 N 401.775 -4.48924 -2.33025 0
M  V30 4113 C 400.073 -3.3062 -2.99343 0
M  V30 4114 C 400.774 -5.30956 -2.37613 0
M  V30 4115 N 399.75 -4.68805 -2.75178 0
M  V30 4116 H 403.552 -2.73175 -1.0841 0
M  V30 4117 H 401.066 -1.5437 -0.504361 0
M  V30 4118 H 403.063 -2.26027 -3.5031 0
M  V30 4119 H 401.723 -1.18629 -3.02254 0
M  V30 4120 H 402.734 -4.75432 -2.05389 0
M  V30 4121 H 399.411 -2.51336 -3.33371 0
M  V30 4122 H 400.801 -6.37199 -2.13135 0
M  V30 4123 N 403.521 0.559213 -1.47345 0
M  V30 4124 C 404.932 1.14134 -1.47751 0
M  V30 4125 C 405.283 1.94834 -0.231103 0
M  V30 4126 O 404.408 2.05957 0.664137 0
M  V30 4127 C 405.003 2.07653 -2.67705 0
M  V30 4128 C 403.562 2.61141 -2.71076 0
M  V30 4129 C 402.709 1.3748 -2.40821 0
M  V30 4130 H 405.66 0.345917 -1.54884 0
M  V30 4131 H 405.681 2.91497 -2.44561 0
M  V30 4132 H 405.193 1.4889 -3.58404 0
M  V30 4133 H 403.294 3.23707 -1.84511 0
M  V30 4134 H 403.407 3.02272 -3.7171 0
M  V30 4135 H 401.771 1.68086 -1.91362 0
M  V30 4136 H 402.554 0.805135 -3.33725 0
M  V30 4137 N 404.999 1.35443 0.805782 0
M  V30 4138 C 406.276 1.19325 1.54987 0
M  V30 4139 C 406.656 -0.227294 2.09873 0
M  V30 4140 O 406.004 -1.2309 1.92512 0
M  V30 4141 C 406.214 2.26196 2.65775 0
M  V30 4142 C 407.562 2.62043 3.34094 0
M  V30 4143 O 408.586 2.25115 2.76046 0
M  V30 4144 O 407.445 3.25542 4.38958 0
M  V30 4145 H 404.539 0.463623 0.684823 0
M  V30 4146 H 407.085 1.47127 0.845674 0
M  V30 4147 H 405.857 3.21471 2.23096 0
M  V30 4148 H 405.48 1.99667 3.43829 0
M  V30 4149 N 406.477 -1.02803 1.19454 0
M  V30 4150 C 407.387 -2.14575 0.948408 0
M  V30 4151 C 408.403 -1.73757 -0.091871 0
M  V30 4152 O 409.579 -2.01185 0.0929654 0
M  V30 4153 C 406.644 -3.43202 0.491265 0
M  V30 4154 C 405.705 -3.98328 1.60103 0
M  V30 4155 C 404.938 -5.20816 1.16561 0
M  V30 4156 O 405.161 -5.70392 0.0295238 0
M  V30 4157 O 404.095 -5.68801 1.96849 0
M  V30 4158 H 407.921 -2.38202 1.88397 0
M  V30 4159 H 405.506 -1.12989 0.977433 0
M  V30 4160 H 407.388 -4.20687 0.245015 0
M  V30 4161 H 406.063 -3.21018 -0.415851 0
M  V30 4162 H 404.97 -3.22174 1.90144 0
M  V30 4163 H 406.303 -4.24879 2.48473 0
M  V30 4164 N 407.956 -0.998596 -1.21925 0
M  V30 4165 C 409.202 -0.678667 -1.91107 0
M  V30 4166 C 409.535 0.78791 -1.77498 0
M  V30 4167 O 408.81 1.57043 -1.1475 0
M  V30 4168 C 409.093 -1.09245 -3.43129 0
M  V30 4169 C 408.946 -2.61801 -3.6576 0
M  V30 4170 C 410.265 -0.649984 -4.35274 0
M  V30 4171 H 407.384 -0.248025 -0.694012 0
M  V30 4172 H 410.026 -1.24314 -1.43688 0
M  V30 4173 H 408.176 -0.612171 -3.83647 0
M  V30 4174 H 409.848 -3.17543 -3.34611 0
M  V30 4175 H 408.091 -3.03609 -3.09845 0
M  V30 4176 H 408.762 -2.85804 -4.7225 0
M  V30 4177 H 411.238 -1.0626 -4.02303 0
M  V30 4178 H 410.114 -0.967743 -5.40302 0
M  V30 4179 H 410.375 0.449139 -4.39813 0
M  V30 4180 N 409.434 1.37368 -0.772513 0
M  V30 4181 C 410.711 1.93839 -0.26188 0
M  V30 4182 C 411.091 1.7061 1.24319 0
M  V30 4183 O 410.439 1.05534 2.02669 0
M  V30 4184 C 410.649 3.43154 -0.636102 0
M  V30 4185 C 411.997 4.20249 -0.606324 0
M  V30 4186 O 413.021 3.5152 -0.575538 0
M  V30 4187 O 411.88 5.42809 -0.634086 0
M  V30 4188 H 408.974 0.82478 -0.0605555 0
M  V30 4189 H 411.52 1.4665 -0.853917 0
M  V30 4190 H 410.292 3.53647 -1.6748 0
M  V30 4191 H 409.915 3.97596 -0.0170516 0
M  V30 4192 O 410.951 0.664551 1.47194 0
M  V30 4193 H 411.642 0.193541 1.92731 0
M  V30 END ATOM
M  V30 BEGIN BOND
M  V30 END BOND
M  V30 END CTAB
M  END
$$$$
