drugbank_target|P06653 Autolysin (DB01912; DB02613; DB03034)
 OpenBabel12092119593D

  0  0  0     0  0            999 V3000
M  V30 BEGIN CTAB
M  V30 COUNTS 4977 5063 0 0 0
M  V30 BEGIN ATOM
M  V30 1 H -0.908 1.98254 -0.117106 0
M  V30 2 N 0 1.576 0 0
M  V30 3 C 0.933 2.03868 1.02534 0
M  V30 4 C 1.911 0.928543 1.3348 0
M  V30 5 O 3.095 1.19667 1.45644 0
M  V30 6 C 0.222 2.43627 2.35294 0
M  V30 7 C -0.732 3.65373 2.2001 0
M  V30 8 S 0.101 5.13292 1.52614 0
M  V30 9 C 1.257 5.56322 2.86805 0
M  V30 10 H 1.49 2.90518 0.631377 0
M  V30 11 H -0.977 1.52953 0.210867 0
M  V30 12 H 0.981 2.67203 3.11629 0
M  V30 13 H -0.358 1.57376 2.7183 0
M  V30 14 H -1.165 3.90944 3.18086 0
M  V30 15 H -1.563 3.418 1.51819 0
M  V30 16 H 0.729 5.58782 3.83104 0
M  V30 17 H 1.672 6.56266 2.65933 0
M  V30 18 H 2.08 4.83886 2.90714 0
M  V30 19 N 1.4781 -0.272755 1.55222 0
M  V30 20 C 2.3881 -1.35918 1.91216 0
M  V30 21 C 3.4041 -1.54026 0.809436 0
M  V30 22 O 4.5801 -1.68148 1.10852 0
M  V30 23 C 1.6451 -2.69834 2.17693 0
M  V30 24 C 0.7061 -2.6047 3.41253 0
M  V30 25 C -0.0609 -3.88 3.66458 0
M  V30 26 O 0.1621 -4.88693 2.94169 0
M  V30 27 O -0.9039 -3.88189 4.59992 0
M  V30 28 H 2.9221 -1.0839 2.83699 0
M  V30 29 H 0.5071 -0.471301 1.41771 0
M  V30 30 H 2.3891 -3.49017 2.36147 0
M  V30 31 H 1.0641 -2.97148 1.28392 0
M  V30 32 H -0.0289 -1.79663 3.28134 0
M  V30 33 H 1.3041 -2.38106 4.30774 0
M  V30 34 N 2.9562 -1.48159 -0.537278 0
M  V30 35 C 4.2052 -1.5506 -1.28993 0
M  V30 36 C 4.5182 -0.226211 -1.94288 0
M  V30 37 O 5.7242 -0.173395 -2.70946 0
M  V30 38 C 4.1802 -2.73429 -2.34018 0
M  V30 39 C 3.7882 -4.1248 -1.74825 0
M  V30 40 C 5.5322 -2.89638 -3.10339 0
M  V30 41 C 3.4392 -5.22121 -2.77747 0
M  V30 42 H 2.3692 -0.577231 -0.485098 0
M  V30 43 H 5.0202 -1.74478 -0.568317 0
M  V30 44 H 3.4022 -2.47431 -3.09182 0
M  V30 45 H 4.5762 -4.48466 -1.05899 0
M  V30 46 H 2.8912 -4.01327 -1.11022 0
M  V30 47 H 5.4882 -3.68718 -3.87235 0
M  V30 48 H 5.8312 -1.9882 -3.65754 0
M  V30 49 H 6.3642 -3.15502 -2.42288 0
M  V30 50 H 3.1032 -6.1488 -2.27161 0
M  V30 51 H 2.6232 -4.90631 -3.45024 0
M  V30 52 H 4.3022 -5.49924 -3.4087 0
M  V30 53 N 4.4343 0.785586 -1.36625 0
M  V30 54 C 5.3823 1.91978 -1.31329 0
M  V30 55 C 6.3763 1.68162 -0.204416 0
M  V30 56 O 7.5823 1.76122 -0.371645 0
M  V30 57 H 3.9573 0.631087 -0.408942 0
M  V30 58 H 5.9283 1.93562 -2.27104 0
M  V30 59 C 4.6773 3.29055 -1.12329 0
M  V30 60 H 4.0003 3.4795 -1.96903 0
M  V30 61 H 5.4403 4.08756 -1.12671 0
M  V30 62 C 3.8993 3.36461 0.171861 0
M  V30 63 O 4.4293 3.84576 1.16035 0
M  V30 64 N 2.6353 2.89782 0.217846 0
M  V30 65 H 2.1823 2.50819 -0.587183 0
M  V30 66 H 2.1403 2.95119 1.08408 0
M  V30 67 N 5.9124 1.20967 1.01018 0
M  V30 68 C 7.1584 1.02526 1.74975 0
M  V30 69 C 7.4914 -0.4408 1.89131 0
M  V30 70 O 6.7664 -1.32718 1.42184 0
M  V30 71 C 7.0494 1.71699 3.1653 0
M  V30 72 C 6.9024 3.25791 3.10129 0
M  V30 73 C 8.2214 1.45531 4.15342 0
M  V30 74 H 5.3404 0.373863 0.635134 0
M  V30 75 H 7.9824 1.49071 1.17805 0
M  V30 76 H 6.1324 1.32128 3.65341 0
M  V30 77 H 7.8044 3.74697 2.69072 0
M  V30 78 H 6.0474 3.56363 2.47362 0
M  V30 79 H 6.7184 3.69353 4.10222 0
M  V30 80 H 9.1944 1.79872 3.75213 0
M  V30 81 H 8.0704 1.96453 5.1254 0
M  V30 82 H 8.3314 0.384237 4.40427 0
M  V30 83 N 7.3905 -1.2043 1.01659 0
M  V30 84 C 8.6155 -1.94318 0.724942 0
M  V30 85 C 9.0405 -1.74266 -0.708034 0
M  V30 86 O 8.3985 -1.03694 -1.48719 0
M  V30 87 C 8.4465 -3.44486 1.06591 0
M  V30 88 O 7.5505 -4.12017 0.177599 0
M  V30 89 H 6.8915 -0.60708 0.26898 0
M  V30 90 H 9.4215 -1.52861 1.35995 0
M  V30 91 H 9.4315 -3.95106 1.01762 0
M  V30 92 H 8.1065 -3.58404 2.10997 0
M  V30 93 H 6.6835 -3.71821 0.283421 0
M  V30 94 N 8.8686 -0.792821 -1.36206 0
M  V30 95 C 9.8156 -0.191653 -2.30003 0
M  V30 96 C 10.7856 0.666453 -1.52143 0
M  V30 97 O 11.9706 0.61442 -1.80636 0
M  V30 98 C 9.1106 0.664848 -3.38635 0
M  V30 99 C 8.2236 -0.212175 -4.31479 0
M  V30 100 C 7.3586 0.651022 -5.27196 0
M  V30 101 C 6.3976 -0.227247 -6.11678 0
M  V30 102 N 5.5346 0.595127 -6.99573 0
M  V30 103 H 10.3746 -0.996978 -2.80828 0
M  V30 104 H 7.9116 -0.503206 -1.38225 0
M  V30 105 H 9.8696 1.17645 -4.00269 0
M  V30 106 H 8.4996 1.43557 -2.89122 0
M  V30 107 H 7.5516 -0.841777 -3.70969 0
M  V30 108 H 8.8636 -0.888751 -4.90818 0
M  V30 109 H 8.0176 1.2283 -5.94136 0
M  V30 110 H 6.7566 1.36121 -4.68319 0
M  V30 111 H 5.7616 -0.816904 -5.43697 0
M  V30 112 H 6.9866 -0.93509 -6.72631 0
M  V30 113 H 4.9326 1.28955 -6.432 0
M  V30 114 H 4.8496 -0.0236952 -7.55996 0
M  V30 115 H 6.1176 1.15613 -7.70879 0
M  V30 116 N 10.3467 1.47872 -0.545128 0
M  V30 117 C 11.2767 2.32661 0.197793 0
M  V30 118 C 12.2577 1.43041 0.920504 0
M  V30 119 O 13.4427 1.71912 0.90333 0
M  V30 120 C 10.5727 3.24569 1.23582 0
M  V30 121 C 9.5267 4.23333 0.630323 0
M  V30 122 C 8.8527 5.0448 1.77211 0
M  V30 123 C 10.1527 5.20704 -0.407974 0
M  V30 124 H 11.8467 2.95024 -0.510045 0
M  V30 125 H 9.3927 1.4187 -0.246731 0
M  V30 126 H 11.3457 3.8272 1.76362 0
M  V30 127 H 10.0697 2.60236 1.97344 0
M  V30 128 H 8.7287 3.6639 0.123922 0
M  V30 129 H 8.3767 4.36561 2.49847 0
M  V30 130 H 8.0767 5.71339 1.37281 0
M  V30 131 H 9.6007 5.65487 2.3034 0
M  V30 132 H 11.0147 5.7329 0.033305 0
M  V30 133 H 9.4117 5.95699 -0.725486 0
M  V30 134 H 10.4817 4.66917 -1.30828 0
M  V30 135 N 11.8248 0.280983 1.55075 0
M  V30 136 C 13.2408 -0.0729964 1.59433 0
M  V30 137 C 13.4408 -1.5411 1.29817 0
M  V30 138 O 12.4968 -2.29086 1.06187 0
M  V30 139 C 13.8098 0.306921 2.9913 0
M  V30 140 C 15.3578 0.254023 3.11968 0
M  V30 141 C 15.8328 0.608467 4.5394 0
M  V30 142 N 17.3238 0.560241 4.59799 0
M  V30 143 C 18.0588 0.80722 5.6769 0
M  V30 144 N 17.5548 1.11912 6.83701 0
M  V30 145 N 19.3478 0.735623 5.57266 0
M  V30 146 H 11.4988 1.238 1.7259 0
M  V30 147 H 13.7618 0.500547 0.805082 0
M  V30 148 H 13.4678 1.32816 3.25657 0
M  V30 149 H 13.3418 -0.349363 3.75579 0
M  V30 150 H 15.7288 -0.75794 2.852 0
M  V30 151 H 15.8098 0.944649 2.37718 0
M  V30 152 H 15.4538 1.61814 4.81434 0
M  V30 153 H 15.3838 -0.104013 5.26497 0
M  V30 154 H 17.8748 0.329288 3.76463 0
M  V30 155 H 18.1878 1.29409 7.61888 0
M  V30 156 H 16.5328 1.15695 6.85303 0
M  V30 157 H 19.7238 0.491752 4.6551 0
M  V30 158 H 19.8968 0.931482 6.4127 0
M  V30 159 N 13.3029 -1.57598 0.00835791 0
M  V30 160 C 14.5309 -1.95214 -0.68549 0
M  V30 161 C 14.9459 -0.883706 -1.66841 0
M  V30 162 O 14.3029 0.136565 -1.81988 0
M  V30 163 C 14.3539 -3.32865 -1.41007 0
M  V30 164 O 14.0749 -4.35609 -0.466552 0
M  V30 165 C 15.5759 -3.84991 -2.19765 0
M  V30 166 H 12.7959 -0.643422 -0.190392 0
M  V30 167 H 15.3399 -2.04406 0.0619607 0
M  V30 168 H 13.4949 -3.24956 -2.10908 0
M  V30 169 H 13.9089 -5.15288 -0.978699 0
M  V30 170 H 15.3829 -4.8371 -2.65948 0
M  V30 171 H 15.8599 -3.18137 -3.02796 0
M  V30 172 H 16.4659 -3.96103 -1.54864 0
M  V30 173 N 14.781 0.264519 -1.55364 0
M  V30 174 C 16.058 1.01677 -1.67096 0
M  V30 175 C 16.438 2.03996 -0.543015 0
M  V30 176 O 15.786 2.23907 0.45585 0
M  V30 177 C 15.996 1.66596 -3.0667 0
M  V30 178 C 17.344 2.17442 -3.64697 0
M  V30 179 O 18.368 1.76568 -3.09358 0
M  V30 180 O 17.227 2.92439 -4.61673 0
M  V30 181 H 14.321 0.472161 -0.678965 0
M  V30 182 H 16.867 0.259703 -1.67701 0
M  V30 183 H 15.639 0.924962 -3.80211 0
M  V30 184 H 15.262 2.48968 -3.10001 0
M  V30 185 N 16.2591 1.48442 0.529413 0
M  V30 186 C 17.1891 1.65902 1.64313 0
M  V30 187 C 18.1701 0.507897 1.6234 0
M  V30 188 O 19.3551 0.740503 1.79528 0
M  V30 189 C 16.4851 1.69911 3.02898 0
M  V30 190 C 15.4391 2.8453 3.19729 0
M  V30 191 C 14.7651 2.73629 4.59381 0
M  V30 192 C 16.0651 4.25821 3.02447 0
M  V30 193 H 17.7591 2.5914 1.49955 0
M  V30 194 H 15.3051 1.24709 0.719982 0
M  V30 195 H 17.2581 1.80715 3.80684 0
M  V30 196 H 15.9821 0.732524 3.18279 0
M  V30 197 H 14.6411 2.73283 2.44361 0
M  V30 198 H 14.2891 1.74938 4.71599 0
M  V30 199 H 13.9891 3.50541 4.71588 0
M  V30 200 H 15.5131 2.86401 5.39265 0
M  V30 201 H 16.9271 4.37898 3.70024 0
M  V30 202 H 15.3241 5.03735 3.26146 0
M  V30 203 H 16.3941 4.42244 1.98867 0
M  V30 204 N 17.7372 -0.778329 1.37039 0
M  V30 205 C 19.1482 -1.35421 1.28523 0
M  V30 206 C 19.4992 -1.96075 -0.0700901 0
M  V30 207 O 18.6242 -1.93352 -0.971801 0
M  V30 208 C 19.2192 -2.46211 2.32735 0
M  V30 209 C 17.7782 -2.99585 2.27873 0
M  V30 210 C 16.9252 -1.72748 2.16918 0
M  V30 211 H 19.8762 -0.5791 1.47757 0
M  V30 212 H 19.8972 -3.2552 1.9702 0
M  V30 213 H 19.4092 -2.02036 3.31365 0
M  V30 214 H 17.5102 -3.48152 1.32745 0
M  V30 215 H 17.6232 -3.55646 3.21018 0
M  V30 216 H 15.9872 -1.95416 1.63354 0
M  V30 217 H 16.7702 -1.30686 3.17452 0
M  V30 218 N 19.2153 -1.21501 -1.00376 0
M  V30 219 C 20.1473 -0.933174 -2.09343 0
M  V30 220 C 21.1603 0.0840896 -1.62583 0
M  V30 221 O 22.3493 -0.148563 -1.77881 0
M  V30 222 C 19.4493 -0.379869 -3.36764 0
M  V30 223 C 18.6223 -1.45176 -4.12605 0
M  V30 224 C 17.6813 -0.907476 -5.18316 0
M  V30 225 O 16.7073 -1.5912 -5.46507 0
M  V30 226 N 17.9093 0.276649 -5.7984 0
M  V30 227 H 20.6743 -1.87124 -2.34104 0
M  V30 228 H 18.2353 -1.12043 -1.16867 0
M  V30 229 H 20.2273 -0.00131488 -4.047 0
M  V30 230 H 18.7973 0.463048 -3.09151 0
M  V30 231 H 18.0173 -2.00411 -3.39454 0
M  V30 232 H 19.3053 -2.17328 -4.6005 0
M  V30 233 H 18.7033 0.849147 -5.59291 0
M  V30 234 H 17.2603 0.596702 -6.49063 0
M  V30 235 N 20.6934 1.19889 -1.02296 0
M  V30 236 C 21.9394 1.89701 -0.717033 0
M  V30 237 C 22.2724 1.7905 0.751989 0
M  V30 238 O 21.5474 1.17891 1.547 0
M  V30 239 C 21.8304 3.40858 -1.16136 0
M  V30 240 C 21.6834 3.60411 -2.69117 0
M  V30 241 C 23.0024 4.33876 -0.737549 0
M  V30 242 H 20.1214 0.688874 -0.261957 0
M  V30 243 H 22.7634 1.41154 -1.27183 0
M  V30 244 H 20.9134 3.82335 -0.689342 0
M  V30 245 H 22.5854 3.28145 -3.2422 0
M  V30 246 H 20.8284 3.03665 -3.0979 0
M  V30 247 H 21.4994 4.66396 -2.95261 0
M  V30 248 H 23.9754 4.00081 -1.14344 0
M  V30 249 H 22.8514 5.38242 -1.0764 0
M  V30 250 H 23.1124 4.40628 0.360436 0
M  V30 251 N 22.1715 0.800033 1.35784 0
M  V30 252 C 23.4195 0.376597 1.9856 0
M  V30 253 C 23.7405 -1.05812 1.63795 0
M  V30 254 O 23.0105 -1.73103 0.917171 0
M  V30 255 H 21.5905 0.136261 0.734467 0
M  V30 256 H 24.2525 1.02442 1.65806 0
M  V30 257 H 23.3485 0.477002 3.08433 0
M  V30 258 N 23.6496 -1.47581 0.552962 0
M  V30 259 C 24.8956 -2.02782 0.0273648 0
M  V30 260 C 25.2286 -1.42687 -1.31734 0
M  V30 261 O 24.5036 -0.580897 -1.85623 0
M  V30 262 C 24.7866 -3.60031 -0.0702371 0
M  V30 263 C 24.6396 -4.30566 1.30126 0
M  V30 264 C 25.9586 -4.33028 -0.785771 0
M  V30 265 H 23.0776 -0.736912 0.0114185 0
M  V30 266 H 25.7196 -1.76056 0.714432 0
M  V30 267 H 23.8696 -3.82932 -0.655382 0
M  V30 268 H 25.5416 -4.19018 1.92929 0
M  V30 269 H 23.7846 -3.91086 1.87709 0
M  V30 270 H 24.4556 -5.39114 1.18573 0
M  V30 271 H 26.9316 -4.15095 -0.288982 0
M  V30 272 H 25.8076 -5.42695 -0.823013 0
M  V30 273 H 26.0686 -4.01945 -1.841 0
M  V30 274 N 25.1277 -0.289203 -1.54924 0
M  V30 275 C 26.0597 0.625583 -2.20497 0
M  V30 276 C 27.0727 1.10667 -1.19402 0
M  V30 277 O 28.2617 1.02615 -1.46056 0
M  V30 278 C 25.3617 1.86702 -2.82835 0
M  V30 279 C 24.5347 1.5304 -4.09753 0
M  V30 280 C 23.5937 2.62576 -4.56005 0
M  V30 281 O 22.6197 2.28167 -5.21468 0
M  V30 282 N 23.8217 3.92901 -4.27328 0
M  V30 283 H 26.5867 0.0642801 -2.99631 0
M  V30 284 H 24.1477 -0.110896 -1.6152 0
M  V30 285 H 26.1397 2.59304 -3.10715 0
M  V30 286 H 24.7097 2.33702 -2.07611 0
M  V30 287 H 23.9297 0.637564 -3.8901 0
M  V30 288 H 25.2177 1.28072 -4.92418 0
M  V30 289 H 24.6157 4.23671 -3.74859 0
M  V30 290 H 23.1727 4.61837 -4.59946 0
M  V30 291 N 26.6058 1.57591 -0.0167156 0
M  V30 292 C 28.0168 1.79201 0.523834 0
M  V30 293 C 28.3678 0.925796 1.72984 0
M  V30 294 O 27.4928 0.132792 2.15992 0
M  V30 295 C 28.0878 3.25 0.957091 0
M  V30 296 C 26.6468 3.47648 1.44283 0
M  V30 297 C 25.7938 2.74374 0.401757 0
M  V30 298 H 28.7448 1.56831 -0.242816 0
M  V30 299 H 28.7658 3.34031 1.82219 0
M  V30 300 H 28.2778 3.88019 0.0791415 0
M  V30 301 H 26.3788 2.89866 2.34113 0
M  V30 302 H 26.4918 4.56352 1.45877 0
M  V30 303 H 24.8558 2.39485 0.867121 0
M  V30 304 H 25.6388 3.40102 -0.467513 0
M  V30 305 N 28.0839 -0.256276 1.55502 0
M  V30 306 C 29.3139 -1.00196 1.80677 0
M  V30 307 C 29.7219 -1.79805 0.588797 0
M  V30 308 O 29.0649 -1.78055 -0.451883 0
M  V30 309 C 29.1269 -1.99515 2.99055 0
M  V30 310 C 28.7909 -1.38688 4.35448 0
M  V30 311 C 29.7879 -0.794079 5.138 0
M  V30 312 C 27.4729 -1.40906 4.82132 0
M  V30 313 C 29.4669 -0.231562 6.36979 0
M  V30 314 C 27.1539 -0.842684 6.05262 0
M  V30 315 C 28.1519 -0.254953 6.82524 0
M  V30 316 O 27.8399 0.3027 8.0333 0
M  V30 317 H 27.5719 -0.300919 0.60533 0
M  V30 318 H 30.1259 -0.287307 2.03381 0
M  V30 319 H 28.3559 -2.74785 2.72084 0
M  V30 320 H 30.0449 -2.60349 3.11405 0
M  V30 321 H 30.8109 -0.769519 4.78856 0
M  V30 322 H 26.6899 -1.85591 4.21992 0
M  V30 323 H 30.2339 0.227816 6.97228 0
M  V30 324 H 26.1309 -0.86454 6.39684 0
M  V30 325 H 26.8989 0.193662 8.18271 0
M  V30 326 N 29.562 -1.4872 -0.521534 0
M  V30 327 C 30.978 -1.35028 -0.850855 0
M  V30 328 C 31.178 -0.367712 -1.98116 0
M  V30 329 O 30.234 0.208037 -2.51642 0
M  V30 330 C 31.547 -2.75263 -1.21041 0
M  V30 331 C 33.095 -2.83813 -1.31981 0
M  V30 332 C 33.57 -4.24769 -1.71276 0
M  V30 333 N 35.061 -4.27482 -1.78363 0
M  V30 334 C 35.796 -5.33494 -2.1017 0
M  V30 335 N 35.292 -6.49775 -2.40343 0
M  V30 336 N 37.085 -5.20894 -2.11248 0
M  V30 337 H 29.236 -2.11214 0.22413 0
M  V30 338 H 31.499 -0.947252 0.0376439 0
M  V30 339 H 31.205 -3.48765 -0.453415 0
M  V30 340 H 31.079 -3.09327 -2.15863 0
M  V30 341 H 33.466 -2.10561 -2.06756 0
M  V30 342 H 33.547 -2.53358 -0.352596 0
M  V30 343 H 33.191 -4.9854 -0.970588 0
M  V30 344 H 33.121 -4.52673 -2.69062 0
M  V30 345 H 35.612 -3.43611 -1.57288 0
M  V30 346 H 35.925 -7.26402 -2.63743 0
M  V30 347 H 34.27 -6.53035 -2.37844 0
M  V30 348 H 37.461 -4.29065 -1.87139 0
M  V30 349 H 37.634 -6.03612 -2.35704 0
M  V30 350 N 31.0401 0.771051 -1.3745 0
M  V30 351 C 31.9721 1.89352 -1.29146 0
M  V30 352 C 32.9851 1.61477 -0.207124 0
M  V30 353 O 34.1741 1.72382 -0.463324 0
M  V30 354 C 31.2741 3.24596 -0.974195 0
M  V30 355 C 30.4471 3.80111 -2.16413 0
M  V30 356 C 29.5061 4.93832 -1.81703 0
M  V30 357 O 28.5321 5.09382 -2.54006 0
M  V30 358 N 29.7341 5.75483 -0.761573 0
M  V30 359 H 32.4991 1.96991 -2.25864 0
M  V30 360 H 30.0601 0.950191 -1.31084 0
M  V30 361 H 32.0521 3.98193 -0.722828 0
M  V30 362 H 30.6221 3.12454 -0.0955527 0
M  V30 363 H 29.8421 2.98284 -2.57721 0
M  V30 364 H 31.1301 4.13932 -2.95867 0
M  V30 365 H 30.5281 5.65469 -0.161609 0
M  V30 366 H 29.0851 6.49302 -0.570064 0
M  V30 367 N 32.5182 1.22032 0.997298 0
M  V30 368 C 33.7642 1.04376 1.73878 0
M  V30 369 C 34.0972 -0.420716 1.89588 0
M  V30 370 O 33.3722 -1.31202 1.43583 0
M  V30 371 C 33.6552 1.75047 3.14691 0
M  V30 372 C 33.5082 3.29062 3.06656 0
M  V30 373 C 34.8272 1.49928 4.13775 0
M  V30 374 H 31.9462 0.380578 0.631133 0
M  V30 375 H 34.5882 1.50312 1.16217 0
M  V30 376 H 32.7382 1.35996 3.63919 0
M  V30 377 H 34.4102 3.7753 2.65083 0
M  V30 378 H 32.6532 3.58967 2.43568 0
M  V30 379 H 33.3242 3.73683 4.06282 0
M  V30 380 H 35.8002 1.83842 3.73285 0
M  V30 381 H 34.6762 2.01878 5.10428 0
M  V30 382 H 34.9372 0.430929 4.39995 0
M  V30 383 N 33.9963 -1.19345 1.0293 0
M  V30 384 C 34.9463 -2.20472 0.58104 0
M  V30 385 C 35.9303 -1.56578 -0.370442 0
M  V30 386 O 37.1223 -1.75963 -0.191344 0
M  V30 387 C 34.2513 -3.43236 -0.066306 0
M  V30 388 C 33.3373 -4.14274 0.907642 0
M  V30 389 N 33.7283 -4.61492 2.07023 0
M  V30 390 C 32.0263 -4.39966 0.731177 0
M  V30 391 C 32.7273 -5.1605 2.68454 0
M  V30 392 N 31.7033 -5.06875 1.96414 0
M  V30 393 H 35.5053 -2.54659 1.46717 0
M  V30 394 H 33.0193 -1.35423 0.896345 0
M  V30 395 H 35.0163 -4.14927 -0.405068 0
M  V30 396 H 33.6763 -3.10549 -0.948118 0
M  V30 397 H 34.6873 -4.56304 2.44963 0
M  V30 398 H 31.3643 -4.17377 -0.101507 0
M  V30 399 H 32.7543 -5.6287 3.66915 0
M  V30 400 N 35.4744 -0.807222 -1.35358 0
M  V30 401 C 36.4374 -0.223665 -2.28106 0
M  V30 402 C 37.4374 0.589354 -1.4961 0
M  V30 403 O 38.6274 0.407745 -1.69361 0
M  V30 404 C 35.7594 0.688149 -3.33882 0
M  V30 405 H 36.9524 -1.04169 -2.81227 0
M  V30 406 H 34.5054 -0.577921 -1.45223 0
M  V30 407 H 35.2404 1.52984 -2.85948 0
M  V30 408 H 35.0254 0.10687 -3.91954 0
M  V30 409 H 36.5154 1.09075 -4.03104 0
M  V30 410 N 36.9525 1.47285 -0.560781 0
M  V30 411 C 37.9025 2.27073 0.205384 0
M  V30 412 C 38.8865 1.34569 0.882044 0
M  V30 413 O 40.0785 1.58899 0.77976 0
M  V30 414 C 37.2075 3.20414 1.23247 0
M  V30 415 C 36.2935 4.20399 0.559041 0
M  V30 416 N 36.6845 5.04423 -0.372927 0
M  V30 417 C 34.9825 4.38536 0.812522 0
M  V30 418 C 35.6835 5.76655 -0.764446 0
M  V30 419 N 34.6595 5.43471 -0.11848 0
M  V30 420 H 38.4615 2.89422 -0.511117 0
M  V30 421 H 35.9755 1.57868 -0.380975 0
M  V30 422 H 37.9725 3.76262 1.79534 0
M  V30 423 H 36.6325 2.59623 1.95002 0
M  V30 424 H 37.6435 5.1248 -0.747287 0
M  V30 425 H 34.3205 3.88913 1.51832 0
M  V30 426 H 35.7105 6.54238 -1.53045 0
M  V30 427 N 38.4306 0.297415 1.54768 0
M  V30 428 C 39.6556 -0.318435 2.04941 0
M  V30 429 C 40.0806 -1.4701 1.17345 0
M  V30 430 O 39.4386 -1.80436 0.176758 0
M  V30 431 C 39.4866 -0.755749 3.52592 0
M  V30 432 O 38.5906 -1.86088 3.68028 0
M  V30 433 H 37.9316 -0.062421 0.661059 0
M  V30 434 H 40.4616 0.438215 1.99852 0
M  V30 435 H 40.4716 -1.04552 3.94376 0
M  V30 436 H 39.1466 0.0867233 4.1581 0
M  V30 437 H 37.7236 -1.57193 3.38149 0
M  V30 438 N 39.9087 -1.5758 0.0250728 0
M  V30 439 C 41.1367 -1.9593 -0.664747 0
M  V30 440 C 41.5517 -0.901352 -1.65895 0
M  V30 441 O 40.9087 0.117255 -1.82123 0
M  V30 442 C 40.9597 -3.34342 -1.37468 0
M  V30 443 O 40.6807 -4.36079 -0.420324 0
M  V30 444 C 42.1817 -3.873 -2.1567 0
M  V30 445 H 39.4017 -0.645405 -0.183557 0
M  V30 446 H 41.9457 -2.04329 0.0836372 0
M  V30 447 H 40.1007 -3.27175 -2.0745 0
M  V30 448 H 40.5147 -5.16297 -0.923991 0
M  V30 449 H 41.9887 -4.86504 -2.60803 0
M  V30 450 H 42.4657 -3.21331 -2.99405 0
M  V30 451 H 43.0717 -3.97723 -1.50654 0
M  V30 452 N 41.3868 0.248026 -1.55636 0
M  V30 453 C 42.6348 0.974295 -1.77065 0
M  V30 454 C 42.9558 1.85897 -0.588849 0
M  V30 455 O 42.2258 1.91868 0.395407 0
M  V30 456 H 40.8058 0.362733 -0.653019 0
M  V30 457 H 43.4678 0.266244 -1.93073 0
M  V30 458 H 42.5638 1.59667 -2.68166 0
M  V30 459 N 42.8649 1.48995 0.513639 0
M  V30 460 C 43.8129 1.65199 1.63744 0
M  V30 461 C 44.8069 0.51809 1.61283 0
M  V30 462 O 46.0129 0.697335 1.65943 0
M  V30 463 H 42.3879 0.52069 0.542574 0
M  V30 464 H 44.3589 2.59552 1.47226 0
M  V30 465 C 43.1079 1.72409 3.01945 0
M  V30 466 H 42.4309 2.59029 3.04539 0
M  V30 467 H 43.8709 1.87785 3.80148 0
M  V30 468 C 42.3299 0.46618 3.33659 0
M  V30 469 O 42.8599 -0.413744 3.99564 0
M  V30 470 N 41.0659 0.332931 2.88687 0
M  V30 471 H 40.6129 1.04996 2.35231 0
M  V30 472 H 40.5709 -0.507665 3.10274 0
M  V30 473 N 44.343 -0.763751 1.37857 0
M  V30 474 C 45.754 -1.3405 1.29952 0
M  V30 475 C 46.105 -1.96138 -0.0492898 0
M  V30 476 O 45.23 -1.94372 -0.951239 0
M  V30 477 C 45.825 -2.43729 2.35333 0
M  V30 478 C 44.384 -2.97151 2.31037 0
M  V30 479 C 43.531 -1.70438 2.18738 0
M  V30 480 H 46.482 -0.563396 1.48363 0
M  V30 481 H 46.503 -3.23412 2.00462 0
M  V30 482 H 46.015 -1.9851 3.33489 0
M  V30 483 H 44.116 -3.46724 1.3643 0
M  V30 484 H 44.229 -3.52221 3.24772 0
M  V30 485 H 42.593 -1.93673 1.65418 0
M  V30 486 H 43.376 -1.27312 3.18821 0
M  V30 487 N 45.8211 -1.22559 -0.990812 0
M  V30 488 C 46.7711 -0.964807 -2.0658 0
M  V30 489 C 47.7551 0.0853472 -1.60673 0
M  V30 490 O 48.9471 -0.125443 -1.76555 0
M  V30 491 C 46.0761 -0.546707 -3.38919 0
M  V30 492 C 45.1621 -1.6317 -3.91454 0
M  V30 493 N 45.5531 -2.85985 -4.17189 0
M  V30 494 C 43.8511 -1.50387 -4.19881 0
M  V30 495 C 44.5521 -3.56159 -4.59919 0
M  V30 496 N 43.5281 -2.83637 -4.63736 0
M  V30 497 H 47.3301 -1.89769 -2.24421 0
M  V30 498 H 44.8441 -1.12343 -1.17273 0
M  V30 499 H 46.8411 -0.34119 -4.15502 0
M  V30 500 H 45.5011 0.379254 -3.22478 0
M  V30 501 H 46.5121 -3.22392 -4.05319 0
M  V30 502 H 43.1891 -0.644254 -4.12499 0
M  V30 503 H 44.5791 -4.6139 -4.88435 0
M  V30 504 N 47.2992 1.18797 -1.03562 0
M  V30 505 C 48.5242 1.9314 -0.755764 0
M  V30 506 C 48.9492 1.7537 0.68022 0
M  V30 507 O 48.3072 1.06046 1.47051 0
M  V30 508 C 48.3552 3.42747 -1.12058 0
M  V30 509 O 47.4592 4.11683 -0.243124 0
M  V30 510 H 46.8002 0.602724 -0.278604 0
M  V30 511 H 49.3302 1.50678 -1.3841 0
M  V30 512 H 49.3402 3.93437 -1.08035 0
M  V30 513 H 48.0152 3.55002 -2.16672 0
M  V30 514 H 46.5922 3.71323 -0.342539 0
M  V30 515 N 48.7773 0.814389 1.34928 0
M  V30 516 C 50.0053 0.411136 2.02774 0
M  V30 517 C 50.4203 -0.980316 1.61354 0
M  V30 518 O 49.7773 -1.63299 0.814847 0
M  V30 519 C 49.8283 0.493865 3.58111 0
M  V30 520 O 49.5493 1.83047 3.98027 0
M  V30 521 C 51.0503 0.0844174 4.4322 0
M  V30 522 H 48.2703 0.166037 0.650133 0
M  V30 523 H 50.8143 1.10018 1.72384 0
M  V30 524 H 48.9693 -0.147006 3.87121 0
M  V30 525 H 49.3833 1.79872 4.92693 0
M  V30 526 H 50.8573 0.193404 5.51661 0
M  V30 527 H 51.3343 -0.97113 4.28329 0
M  V30 528 H 51.9403 0.69875 4.19521 0
M  V30 529 N 50.2554 -1.46986 0.568584 0
M  V30 530 C 51.5014 -2.02741 0.0488709 0
M  V30 531 C 51.8344 -1.44077 -1.30214 0
M  V30 532 O 51.1094 -0.600552 -1.84996 0
M  V30 533 C 51.3924 -3.60086 -0.032047 0
M  V30 534 C 51.2454 -4.29162 1.34686 0
M  V30 535 C 52.5644 -4.33838 -0.739798 0
M  V30 536 H 49.6834 -0.736749 0.0192338 0
M  V30 537 H 52.3254 -1.75289 0.733065 0
M  V30 538 H 50.4754 -3.83606 -0.61473 0
M  V30 539 H 52.1474 -4.16948 1.97362 0
M  V30 540 H 50.3904 -3.89073 1.91846 0
M  V30 541 H 51.0614 -5.37826 1.24285 0
M  V30 542 H 53.5374 -4.15378 -0.244939 0
M  V30 543 H 52.4134 -5.43537 -0.765406 0
M  V30 544 H 52.6744 -4.03875 -1.79827 0
M  V30 545 N 51.7335 -0.305618 -1.54608 0
M  V30 546 C 52.6655 0.602161 -2.21149 0
M  V30 547 C 53.6785 1.09394 -1.20569 0
M  V30 548 O 54.8675 1.0106 -1.47136 0
M  V30 549 C 51.9675 1.83692 -2.84799 0
M  V30 550 C 51.1405 1.48686 -4.11353 0
M  V30 551 C 50.1995 2.57725 -4.58764 0
M  V30 552 O 49.2255 2.22623 -5.23858 0
M  V30 553 N 50.4275 3.88346 -4.31471 0
M  V30 554 H 53.1925 0.0324966 -2.99682 0
M  V30 555 H 50.7535 -0.128021 -1.61393 0
M  V30 556 H 52.7455 2.55994 -3.13448 0
M  V30 557 H 51.3155 2.31486 -2.10078 0
M  V30 558 H 50.5355 0.596269 -3.89664 0
M  V30 559 H 51.8235 1.22842 -4.93748 0
M  V30 560 H 51.2215 4.19671 -3.79331 0
M  V30 561 H 49.7785 4.56932 -4.64818 0
M  V30 562 N 53.2116 1.57565 -0.0334293 0
M  V30 563 C 54.1596 2.1164 0.96496 0
M  V30 564 C 55.1536 1.04398 1.33407 0
M  V30 565 O 56.3596 1.22828 1.3158 0
M  V30 566 H 52.7346 0.676222 0.32898 0
M  V30 567 H 54.7056 2.94455 0.483614 0
M  V30 568 C 53.4546 2.66207 2.23672 0
M  V30 569 H 52.7776 3.48378 1.96145 0
M  V30 570 H 54.2176 3.07685 2.9173 0
M  V30 571 C 52.6766 1.59151 2.96939 0
M  V30 572 O 53.2066 0.993858 3.89211 0
M  V30 573 N 51.4126 1.31093 2.59351 0
M  V30 574 H 50.9596 1.7988 1.84393 0
M  V30 575 H 50.9176 0.596889 3.08682 0
M  V30 576 N 54.6897 -0.239769 1.55765 0
M  V30 577 C 55.5997 -1.31831 1.94056 0
M  V30 578 C 56.6157 -1.52275 0.841925 0
M  V30 579 O 57.7917 -1.65759 1.14394 0
M  V30 580 C 54.8567 -2.65156 2.23368 0
M  V30 581 C 53.9177 -2.53173 3.46701 0
M  V30 582 C 53.1507 -3.8014 3.74606 0
M  V30 583 O 53.3737 -4.82343 3.04469 0
M  V30 584 O 52.3077 -3.78344 4.68123 0
M  V30 585 H 56.1337 -1.02347 2.85935 0
M  V30 586 H 53.7187 -0.441123 1.42739 0
M  V30 587 H 55.6007 -3.43929 2.43497 0
M  V30 588 H 54.2757 -2.94358 1.34666 0
M  V30 589 H 53.1827 -1.72662 3.31871 0
M  V30 590 H 54.5157 -2.28915 4.35728 0
M  V30 591 N 56.1678 -1.49265 -0.50573 0
M  V30 592 C 57.1308 -1.65075 -1.59006 0
M  V30 593 C 58.1308 -0.522768 -1.52065 0
M  V30 594 O 59.3208 -0.789117 -1.55302 0
M  V30 595 C 56.4528 -1.64369 -2.98656 0
M  V30 596 H 57.6458 -2.61784 -1.46319 0
M  V30 597 H 55.1988 -1.38226 -0.729616 0
M  V30 598 H 55.9338 -0.692272 -3.16825 0
M  V30 599 H 55.7188 -2.46282 -3.05103 0
M  V30 600 H 57.2088 -1.78674 -3.77446 0
M  V30 601 N 57.6459 0.756429 -1.3826 0
M  V30 602 C 58.9229 1.50584 -1.24835 0
M  V30 603 C 59.3029 2.10556 0.151485 0
M  V30 604 O 58.6509 1.96825 1.1607 0
M  V30 605 C 58.8609 2.57448 -2.3563 0
M  V30 606 C 60.2089 3.24429 -2.73917 0
M  V30 607 O 61.2329 2.67751 -2.34921 0
M  V30 608 O 60.0919 4.26937 -3.41156 0
M  V30 609 H 57.1859 0.667664 -0.48801 0
M  V30 610 H 59.7319 0.792083 -1.5008 0
M  V30 611 H 58.5039 2.11362 -3.29305 0
M  V30 612 H 58.1269 3.36408 -2.11933 0
M  V30 613 N 59.124 1.23083 0.984299 0
M  V30 614 C 60.354 1.08556 1.75781 0
M  V30 615 C 60.762 -0.366171 1.85623 0
M  V30 616 O 60.105 -1.26524 1.33182 0
M  V30 617 C 60.167 1.63208 3.20318 0
M  V30 618 C 59.831 3.11922 3.33997 0
M  V30 619 C 60.828 4.09259 3.2063 0
M  V30 620 C 58.513 3.51552 3.58771 0
M  V30 621 C 60.507 5.4421 3.31835 0
M  V30 622 C 58.194 4.86649 3.69616 0
M  V30 623 C 59.192 5.82787 3.56157 0
M  V30 624 O 58.88 7.15431 3.66626 0
M  V30 625 H 58.612 0.380713 0.5586 0
M  V30 626 H 61.166 1.63321 1.2456 0
M  V30 627 H 59.396 1.0286 3.72769 0
M  V30 628 H 61.085 1.44216 3.79416 0
M  V30 629 H 61.851 3.79984 3.01392 0
M  V30 630 H 57.73 2.77239 3.6832 0
M  V30 631 H 61.274 6.1923 3.21247 0
M  V30 632 H 57.171 5.15601 3.88363 0
M  V30 633 H 57.939 7.23127 3.83445 0
M  V30 634 N 60.6021 -1.18246 1.0419 0
M  V30 635 C 61.5521 -2.19843 0.604392 0
M  V30 636 C 62.5361 -1.56962 -0.353814 0
M  V30 637 O 63.7281 -1.76156 -0.17267 0
M  V30 638 C 60.8571 -3.43287 -0.0298975 0
M  V30 639 C 59.9431 -4.13288 0.951531 0
M  V30 640 N 60.3341 -4.59271 2.11906 0
M  V30 641 C 58.6321 -4.39165 0.7778 0
M  V30 642 C 59.3331 -5.13173 2.73912 0
M  V30 643 N 58.3091 -5.04763 2.01779 0
M  V30 644 H 62.1111 -2.53089 1.4941 0
M  V30 645 H 59.6251 -1.34465 0.910658 0
M  V30 646 H 61.6221 -4.15334 -0.361037 0
M  V30 647 H 60.2821 -3.11537 -0.915127 0
M  V30 648 H 61.2931 -4.5368 2.49789 0
M  V30 649 H 57.9701 -4.17461 -0.0572331 0
M  V30 650 H 59.3601 -5.58947 3.72864 0
M  V30 651 N 62.0802 -0.821533 -1.34494 0
M  V30 652 C 63.3262 -0.418729 -1.99043 0
M  V30 653 C 63.6812 1.00672 -1.6396 0
M  V30 654 O 62.9742 1.69132 -0.900271 0
M  V30 655 C 63.1682 -0.556512 -3.53041 0
M  V30 656 C 62.9972 -1.9938 -4.03085 0
M  V30 657 C 61.7672 -2.62539 -4.31742 0
M  V30 658 C 63.9652 -2.96035 -4.20556 0
M  V30 659 N 61.9472 -3.97523 -4.67813 0
M  V30 660 C 63.3182 -4.15924 -4.59791 0
M  V30 661 C 65.3732 -2.9267 -4.02801 0
M  V30 662 C 64.0762 -5.32899 -4.83126 0
M  V30 663 C 66.1022 -4.08861 -4.27302 0
M  V30 664 C 65.4642 -5.275 -4.66822 0
M  V30 665 H 61.5632 -0.201299 -0.755647 0
M  V30 666 H 64.1472 -1.06594 -1.62929 0
M  V30 667 H 62.3182 0.0607924 -3.88352 0
M  V30 668 H 64.0502 -0.126842 -4.04501 0
M  V30 669 H 60.8052 -2.13789 -4.22601 0
M  V30 670 H 61.2292 -4.67061 -4.90085 0
M  V30 671 H 65.8712 -2.02088 -3.71376 0
M  V30 672 H 63.5892 -6.24041 -5.13418 0
M  V30 673 H 67.1752 -4.07654 -4.15101 0
M  V30 674 H 66.0552 -6.15913 -4.85408 0
M  V30 675 N 63.5583 1.46682 -0.576371 0
M  V30 676 C 64.9743 1.57822 -0.237562 0
M  V30 677 C 65.1743 1.57237 1.26011 0
M  V30 678 O 64.2303 1.48596 2.04146 0
M  V30 679 C 65.5433 2.87499 -0.881168 0
M  V30 680 C 67.0913 3.01119 -0.85417 0
M  V30 681 C 67.5663 4.33524 -1.4772 0
M  V30 682 N 69.0573 4.40207 -1.44125 0
M  V30 683 C 69.7923 5.4126 -1.89276 0
M  V30 684 N 69.2883 6.49021 -2.42371 0
M  V30 685 N 71.0813 5.32422 -1.80231 0
M  V30 686 H 63.2323 1.45306 -1.54919 0
M  V30 687 H 65.4953 0.692733 -0.647167 0
M  V30 688 H 65.2013 2.9372 -1.93447 0
M  V30 689 H 65.0753 3.75224 -0.385592 0
M  V30 690 H 67.4623 2.94485 0.190491 0
M  V30 691 H 67.5433 2.14887 -1.3877 0
M  V30 692 H 67.1873 4.40916 -2.52103 0
M  V30 693 H 67.1173 5.1852 -0.918947 0
M  V30 694 H 69.6083 3.62931 -1.05307 0
M  V30 695 H 69.9213 7.2233 -2.74698 0
M  V30 696 H 68.2663 6.49858 -2.46393 0
M  V30 697 H 71.4573 4.47137 -1.38514 0
M  V30 698 H 71.6303 6.11034 -2.15735 0
M  V30 699 N 65.0364 0.313813 1.54444 0
M  V30 700 C 65.9834 -0.55655 2.23989 0
M  V30 701 C 66.9534 -1.11943 1.22711 0
M  V30 702 O 68.1384 -1.16158 1.51367 0
M  V30 703 C 65.2784 -1.71635 2.99392 0
M  V30 704 C 64.3914 -1.18364 4.15468 0
M  V30 705 C 63.5264 -2.30834 4.78424 0
M  V30 706 C 62.5654 -1.74762 5.86622 0
M  V30 707 N 61.7024 -2.80855 6.43479 0
M  V30 708 H 66.5424 0.0430893 2.97969 0
M  V30 709 H 64.0794 0.0330359 1.47063 0
M  V30 710 H 66.0374 -2.39868 3.41349 0
M  V30 711 H 64.6674 -2.28742 2.27765 0
M  V30 712 H 63.7194 -0.393163 3.78363 0
M  V30 713 H 65.0314 -0.733262 4.93381 0
M  V30 714 H 64.1854 -3.0699 5.23299 0
M  V30 715 H 62.9244 -2.79204 3.99871 0
M  V30 716 H 61.9294 -0.970995 5.41158 0
M  V30 717 H 63.1544 -1.2728 6.67066 0
M  V30 718 H 61.1004 -3.28535 5.67804 0
M  V30 719 H 61.0174 -2.40351 7.16776 0
M  V30 720 H 62.2854 -3.5687 6.93011 0
M  V30 721 N 66.5145 -1.57545 0.0417849 0
M  V30 722 C 67.7915 -1.83642 -0.673433 0
M  V30 723 C 68.1715 -0.928298 -1.89594 0
M  V30 724 O 67.5195 0.0129955 -2.28496 0
M  V30 725 C 67.7295 -3.33155 -1.03964 0
M  V30 726 C 69.0775 -3.99941 -1.42592 0
M  V30 727 O 70.1015 -3.37725 -1.13226 0
M  V30 728 O 68.9605 -5.09619 -1.9736 0
M  V30 729 H 66.0545 -0.757638 -0.331533 0
M  V30 730 H 68.6005 -1.69554 0.070433 0
M  V30 731 H 67.3725 -3.9093 -0.170098 0
M  V30 732 H 66.9955 -3.52396 -1.84126 0
M  V30 733 N 67.9926 0.231505 -1.5589 0
M  V30 734 C 69.4036 0.799327 -1.68724 0
M  V30 735 C 69.7546 1.85398 -0.642022 0
M  V30 736 O 68.8796 2.1539 0.208784 0
M  V30 737 C 69.4746 1.45664 -3.05888 0
M  V30 738 C 68.0336 1.97197 -3.20609 0
M  V30 739 C 67.1806 0.828552 -2.64632 0
M  V30 740 H 70.1316 0.00702616 -1.58698 0
M  V30 741 H 70.1526 2.32517 -3.01191 0
M  V30 742 H 69.6646 0.688808 -3.81939 0
M  V30 743 H 67.7656 2.76813 -2.4941 0
M  V30 744 H 67.8786 2.15878 -4.27707 0
M  V30 745 H 66.2426 1.23321 -2.22854 0
M  V30 746 H 67.0256 0.0735544 -3.43221 0
M  V30 747 N 69.4707 1.49531 0.497807 0
M  V30 748 C 70.3807 1.69176 1.62532 0
M  V30 749 C 71.3967 0.5744 1.64246 0
M  V30 750 O 72.5727 0.849497 1.82608 0
M  V30 751 C 69.6377 1.75695 2.98885 0
M  V30 752 C 68.6987 2.9929 3.07773 0
M  V30 753 C 67.9317 3.05488 4.37622 0
M  V30 754 O 68.1547 2.19192 5.26603 0
M  V30 755 O 67.0887 3.9798 4.51548 0
M  V30 756 H 70.9147 2.647 1.48887 0
M  V30 757 H 68.4997 1.3331 0.674441 0
M  V30 758 H 70.3817 1.82317 3.79919 0
M  V30 759 H 69.0567 0.8335 3.12785 0
M  V30 760 H 67.9637 2.98183 2.25915 0
M  V30 761 H 69.2967 3.91125 2.98801 0
M  V30 762 N 70.9488 -0.749086 1.3866 0
M  V30 763 C 71.8788 -1.8764 1.38973 0
M  V30 764 C 72.8598 -1.68178 0.255004 0
M  V30 765 O 74.0448 -1.88704 0.458754 0
M  V30 766 C 71.1748 -3.25222 1.21851 0
M  V30 767 C 70.1288 -3.59295 2.32575 0
M  V30 768 C 69.4548 -4.95663 2.00555 0
M  V30 769 C 70.7548 -3.63709 3.7485 0
M  V30 770 H 72.4488 -1.87635 2.3331 0
M  V30 771 H 69.9948 -0.901329 1.12303 0
M  V30 772 H 71.9478 -4.03746 1.20695 0
M  V30 773 H 70.6718 -3.25719 0.239775 0
M  V30 774 H 69.3308 -2.83093 2.32925 0
M  V30 775 H 68.9788 -4.92724 1.01154 0
M  V30 776 H 68.6788 -5.19429 2.74714 0
M  V30 777 H 70.2028 -5.7656 2.01024 0
M  V30 778 H 71.6168 -4.32338 3.76506 0
M  V30 779 H 70.0138 -3.98986 4.48252 0
M  V30 780 H 71.0838 -2.63834 4.06841 0
M  V30 781 N 72.4269 -1.23603 -0.977757 0
M  V30 782 C 73.6749 -1.06759 -1.71601 0
M  V30 783 C 73.9959 0.395929 -1.90938 0
M  V30 784 O 73.2659 1.28356 -1.47992 0
M  V30 785 H 71.8459 -0.392062 -0.635843 0
M  V30 786 H 74.5079 -1.55362 -1.1768 0
M  V30 787 H 73.6039 -1.55763 -2.70452 0
M  V30 788 N 73.905 1.17692 -1.04816 0
M  V30 789 C 75.152 1.87859 -0.75599 0
M  V30 790 C 75.48 1.80812 0.716752 0
M  V30 791 O 74.735 1.20819 1.53952 0
M  V30 792 C 75.034 3.37462 -1.17703 0
M  V30 793 C 74.7 3.64713 -2.65133 0
M  V30 794 C 73.362 3.71859 -3.05408 0
M  V30 795 C 75.714 3.76492 -3.60421 0
M  V30 796 C 73.042 3.88271 -4.39843 0
M  V30 797 C 75.394 3.94421 -4.94585 0
M  V30 798 C 74.058 3.99806 -5.3452 0
M  V30 799 H 73.328 0.687425 -0.276636 0
M  V30 800 H 75.975 1.39255 -1.31455 0
M  V30 801 H 74.28 3.88097 -0.537395 0
M  V30 802 H 75.977 3.90109 -0.928218 0
M  V30 803 H 72.567 3.59772 -2.32942 0
M  V30 804 H 76.751 3.70295 -3.30447 0
M  V30 805 H 72.007 3.90687 -4.70291 0
M  V30 806 H 76.181 4.02477 -5.68318 0
M  V30 807 H 73.808 4.12276 -6.38696 0
M  V30 808 N 75.3831 0.828654 1.34056 0
M  V30 809 C 76.6301 0.419458 1.98108 0
M  V30 810 C 76.9581 -1.01886 1.65679 0
M  V30 811 O 76.2131 -1.72539 0.923512 0
M  V30 812 C 76.5121 0.575226 3.52741 0
M  V30 813 C 76.1781 1.98012 4.05095 0
M  V30 814 C 74.8401 2.36442 4.19104 0
M  V30 815 C 77.1921 2.89824 4.33188 0
M  V30 816 C 74.5201 3.66009 4.58535 0
M  V30 817 C 76.8721 4.1886 4.74066 0
M  V30 818 C 75.5361 4.5726 4.86281 0
M  V30 819 H 74.8061 0.153491 0.724929 0
M  V30 820 H 77.4531 1.05371 1.59904 0
M  V30 821 H 75.7581 -0.142385 3.91541 0
M  V30 822 H 77.4551 0.239057 4.00287 0
M  V30 823 H 74.0451 1.67162 3.94658 0
M  V30 824 H 78.2291 2.61375 4.21897 0
M  V30 825 H 73.4851 3.95579 4.66184 0
M  V30 826 H 77.6591 4.90086 4.94761 0
M  V30 827 H 75.2861 5.57707 5.16592 0
M  V30 828 N 76.8612 -1.46375 0.584142 0
M  V30 829 C 78.0862 -2.07268 0.0740405 0
M  V30 830 C 78.5112 -1.42979 -1.22223 0
M  V30 831 O 77.8692 -0.514092 -1.73859 0
M  V30 832 C 77.9172 -3.60518 -0.0767769 0
M  V30 833 O 77.0212 -3.96533 -1.13292 0
M  V30 834 H 76.3622 -0.660961 0.0634524 0
M  V30 835 H 78.8922 -1.87991 0.807492 0
M  V30 836 H 78.9022 -4.07021 -0.282489 0
M  V30 837 H 77.5772 -4.06702 0.86986 0
M  V30 838 H 76.1542 -3.61738 -0.905553 0
M  V30 839 N 78.3393 -0.321999 -1.54275 0
M  V30 840 C 79.2893 0.560185 -2.21011 0
M  V30 841 C 80.2733 1.08283 -1.19011 0
M  V30 842 O 81.4653 1.02011 -1.44647 0
M  V30 843 C 78.5943 1.72137 -2.97025 0
M  V30 844 C 77.6803 1.21369 -4.06363 0
M  V30 845 N 78.0713 0.425566 -5.04007 0
M  V30 846 C 76.3693 1.49255 -4.20284 0
M  V30 847 C 77.0703 0.152601 -5.815 0
M  V30 848 N 76.0463 0.738294 -5.38563 0
M  V30 849 H 79.8483 -0.049265 -2.93859 0
M  V30 850 H 77.3623 -0.127779 -1.61897 0
M  V30 851 H 79.3593 2.36512 -3.43319 0
M  V30 852 H 78.0193 2.33431 -2.25699 0
M  V30 853 H 79.0303 0.068551 -5.17855 0
M  V30 854 H 75.7073 2.11145 -3.60172 0
M  V30 855 H 77.0973 -0.481764 -6.70171 0
M  V30 856 N 79.8174 1.5752 -0.0501392 0
M  V30 857 C 81.0664 1.91827 0.623328 0
M  V30 858 C 81.3794 0.930222 1.72065 0
M  V30 859 O 82.5854 1.1653 2.4522 0
M  V30 860 C 81.0414 3.40692 1.16003 0
M  V30 861 C 80.6494 4.479 0.0948811 0
M  V30 862 C 82.3934 3.84034 1.80881 0
M  V30 863 C 80.3004 5.87879 0.644411 0
M  V30 864 H 79.2304 0.715918 0.236596 0
M  V30 865 H 81.8814 1.83115 -0.118861 0
M  V30 866 H 80.2634 3.44405 1.9545 0
M  V30 867 H 81.4374 4.55775 -0.678675 0
M  V30 868 H 79.7524 4.13892 -0.45637 0
M  V30 869 H 82.3494 4.85984 2.22988 0
M  V30 870 H 82.6924 3.20225 2.6601 0
M  V30 871 H 83.2254 3.82833 1.0809 0
M  V30 872 H 79.9644 6.55282 -0.169229 0
M  V30 873 H 79.4844 5.83567 1.38598 0
M  V30 874 H 81.1634 6.37098 1.12763 0
M  V30 875 N 81.2955 -0.223234 1.56011 0
M  V30 876 C 82.5415 -0.949279 1.79211 0
M  V30 877 C 82.8745 -1.84054 0.619494 0
M  V30 878 O 82.1495 -1.90726 -0.381317 0
M  V30 879 C 82.4325 -1.78965 3.12479 0
M  V30 880 C 82.2855 -0.924997 4.40186 0
M  V30 881 C 83.6045 -2.76774 3.42175 0
M  V30 882 H 80.7235 -0.343676 0.651963 0
M  V30 883 H 83.3655 -0.218253 1.88742 0
M  V30 884 H 81.5155 -2.41291 3.04485 0
M  V30 885 H 83.1875 -0.318615 4.60198 0
M  V30 886 H 81.4305 -0.230344 4.33188 0
M  V30 887 H 82.1015 -1.54735 5.29869 0
M  V30 888 H 84.5775 -2.24584 3.50287 0
M  V30 889 H 83.4535 -3.32678 4.36597 0
M  V30 890 H 83.7145 -3.54429 2.64258 0
M  V30 891 N 82.7736 -1.49793 -0.48987 0
M  V30 892 C 84.0216 -1.59525 -1.24081 0
M  V30 893 C 84.3426 -0.288953 -1.92847 0
M  V30 894 O 83.6126 0.692436 -1.83254 0
M  V30 895 H 82.1926 -0.587796 -0.460983 0
M  V30 896 H 84.8546 -1.86477 -0.566778 0
M  V30 897 H 83.9506 -2.39696 -1.99881 0
M  V30 898 N 84.2517 0.741722 -1.39055 0
M  V30 899 C 85.1997 1.87702 -1.3737 0
M  V30 900 C 86.1937 1.67427 -0.257812 0
M  V30 901 O 87.3997 1.7485 -0.427489 0
M  V30 902 H 83.7747 0.617757 -0.428812 0
M  V30 903 H 85.7457 1.86239 -2.33147 0
M  V30 904 C 84.4947 3.25315 -1.22741 0
M  V30 905 H 83.8177 3.41509 -2.07873 0
M  V30 906 H 85.2577 4.04964 -1.25618 0
M  V30 907 C 83.7167 3.36838 0.0647316 0
M  V30 908 O 84.2467 3.88073 1.03741 0
M  V30 909 N 82.4527 2.90329 0.125544 0
M  V30 910 H 81.9997 2.48823 -0.666682 0
M  V30 911 H 81.9577 2.98418 0.989639 0
M  V30 912 N 85.7298 1.2412 0.971189 0
M  V30 913 C 86.9778 1.07668 1.71032 0
M  V30 914 C 87.2988 -0.385797 1.91146 0
M  V30 915 O 86.5688 -1.27569 1.4867 0
M  V30 916 H 85.1488 0.395429 0.633755 0
M  V30 917 H 87.8108 1.55984 1.16855 0
M  V30 918 H 86.9068 1.57195 2.69622 0
M  V30 919 N 87.2079 -1.17134 1.05439 0
M  V30 920 C 88.4479 -1.89137 0.77502 0
M  V30 921 C 88.8119 -1.79345 -0.685526 0
M  V30 922 O 90.0129 -2.46188 -1.0791 0
M  V30 923 C 88.2839 -3.35003 1.2453 0
M  V30 924 S 89.8429 -4.24952 1.09367 0
M  V30 925 H 86.6609 -0.652949 0.281387 0
M  V30 926 H 89.2629 -1.4145 1.34953 0
M  V30 927 H 87.9669 -3.39666 2.30338 0
M  V30 928 H 87.4979 -3.87736 0.665166 0
M  V30 929 H 89.5129 -4.96196 0.0193397 0
M  V30 930 N 88.686 -0.835752 -1.33615 0
M  V30 931 C 89.935 -0.426289 -1.97144 0
M  V30 932 C 90.248 1.01912 -1.66953 0
M  V30 933 O 91.454 1.53311 -2.24072 0
M  V30 934 C 89.91 -0.711321 -3.52801 0
M  V30 935 C 89.518 -2.1712 -3.91871 0
M  V30 936 C 91.262 -0.368654 -4.22896 0
M  V30 937 C 89.169 -2.40044 -5.40493 0
M  V30 938 H 88.099 -0.15567 -0.737755 0
M  V30 939 H 90.75 -1.0239 -1.52278 0
M  V30 940 H 89.132 -0.0433766 -3.95976 0
M  V30 941 H 90.306 -2.87936 -3.59763 0
M  V30 942 H 88.621 -2.47654 -3.34749 0
M  V30 943 H 91.218 -0.517601 -5.32189 0
M  V30 944 H 91.561 0.688078 -4.10574 0
M  V30 945 H 92.094 -0.991702 -3.8524 0
M  V30 946 H 88.833 -3.44271 -5.57815 0
M  V30 947 H 88.353 -1.73785 -5.74072 0
M  V30 948 H 90.032 -2.23042 -6.0734 0
M  V30 949 N 90.1641 1.46063 -0.591896 0
M  V30 950 C 91.0971 2.27452 0.184617 0
M  V30 951 C 92.0751 1.36188 0.888351 0
M  V30 952 O 93.2591 1.65606 0.90039 0
M  V30 953 C 90.3861 3.14162 1.26571 0
M  V30 954 C 89.4321 4.21255 0.666814 0
M  V30 955 S 90.2651 5.33034 -0.513345 0
M  V30 956 C 91.4211 6.23311 0.56872 0
M  V30 957 H 91.6541 2.92963 -0.505939 0
M  V30 958 H 89.1871 1.49676 -0.379014 0
M  V30 959 H 91.1451 3.6468 1.88463 0
M  V30 960 H 89.8061 2.47946 1.92826 0
M  V30 961 H 88.9991 4.81788 1.47974 0
M  V30 962 H 88.6011 3.73797 0.123359 0
M  V30 963 H 90.8931 6.61758 1.45198 0
M  V30 964 H 91.8361 7.081 -7.23824e-05 0
M  V30 965 H 92.2441 5.57646 0.876996 0
M  V30 966 N 91.6422 0.330177 1.54103 0
M  V30 967 C 92.5742 -0.566902 2.22079 0
M  V30 968 C 93.5872 -1.07462 1.22294 0
M  V30 969 O 94.7762 -0.987065 1.48726 0
M  V30 970 C 91.8762 -1.79138 2.87685 0
M  V30 971 C 91.0492 -1.42123 4.13666 0
M  V30 972 C 90.1082 -2.50394 4.62806 0
M  V30 973 O 89.1342 -2.14261 5.27334 0
M  V30 974 N 90.3362 -3.81433 4.37595 0
M  V30 975 H 93.1012 0.0151844 2.99696 0
M  V30 976 H 90.6622 0.153681 1.61169 0
M  V30 977 H 92.6542 -2.50975 3.1748 0
M  V30 978 H 91.2242 -2.28115 2.13734 0
M  V30 979 H 90.4442 -0.534201 3.90564 0
M  V30 980 H 91.7322 -1.14971 4.9564 0
M  V30 981 H 91.1302 -4.13584 3.8596 0
M  V30 982 H 89.6872 -4.4948 4.72029 0
M  V30 983 N 93.1203 -1.57491 0.0584922 0
M  V30 984 C 94.3663 -1.93264 -0.614558 0
M  V30 985 C 94.6993 -0.937717 -1.7006 0
M  V30 986 O 93.9743 0.0351652 -1.94468 0
M  V30 987 C 94.2573 -3.3938 -1.20386 0
M  V30 988 C 94.1103 -4.49625 -0.125375 0
M  V30 989 C 95.4293 -3.86039 -2.11334 0
M  V30 990 H 92.5483 -0.702791 -0.221933 0
M  V30 991 H 95.1903 -1.8961 0.12175 0
M  V30 992 H 93.3403 -3.42626 -1.83139 0
M  V30 993 H 95.0123 -4.58506 0.506971 0
M  V30 994 H 93.2553 -4.30354 0.545672 0
M  V30 995 H 93.9263 -5.48967 -0.577861 0
M  V30 996 H 96.4023 -3.84716 -1.58534 0
M  V30 997 H 95.2783 -4.88914 -2.49507 0
M  V30 998 H 95.5393 -3.23215 -3.01636 0
M  V30 999 N 94.5984 0.214957 -1.56127 0
M  V30 1000 C 95.8464 0.936518 -1.79091 0
M  V30 1001 C 96.1674 1.84606 -0.628148 0
M  V30 1002 O 95.4374 1.92664 0.35462 0
M  V30 1003 H 94.0174 0.3488 -0.660566 0
M  V30 1004 H 96.6794 0.22523 -1.93594 0
M  V30 1005 H 95.7754 1.53943 -2.71492 0
M  V30 1006 N 96.0765 1.50051 0.48192 0
M  V30 1007 C 97.4875 1.5348 1.06305 0
M  V30 1008 C 97.8385 0.331997 1.93371 0
M  V30 1009 O 96.9635 -0.556256 2.09129 0
M  V30 1010 C 97.5585 2.7813 1.93466 0
M  V30 1011 C 96.1175 2.84275 2.46707 0
M  V30 1012 C 95.2645 2.47637 1.24785 0
M  V30 1013 H 98.2155 1.56472 0.264995 0
M  V30 1014 H 98.2365 2.59372 2.78399 0
M  V30 1015 H 97.7485 3.65654 1.30072 0
M  V30 1016 H 95.8495 2.01077 3.13686 0
M  V30 1017 H 95.9625 3.8691 2.82555 0
M  V30 1018 H 94.3265 1.99835 1.57918 0
M  V30 1019 H 95.1095 3.37457 0.630694 0
M  V30 1020 N 97.5546 -0.734337 1.39446 0
M  V30 1021 C 98.8006 -1.49613 1.36908 0
M  V30 1022 C 99.1336 -1.94169 -0.0347829 0
M  V30 1023 O 98.4086 -1.66833 -0.999847 0
M  V30 1024 C 98.6916 -2.73534 2.34203 0
M  V30 1025 C 98.5446 -2.34993 3.83534 0
M  V30 1026 C 99.8636 -3.75635 2.29317 0
M  V30 1027 H 96.9826 -0.542714 0.498629 0
M  V30 1028 H 99.6246 -0.839597 1.70443 0
M  V30 1029 H 97.7746 -3.29553 2.05736 0
M  V30 1030 H 99.4466 -1.84601 4.22753 0
M  V30 1031 H 97.6896 -1.67213 4.00278 0
M  V30 1032 H 98.3606 -3.23738 4.47099 0
M  V30 1033 H 100.837 -3.29203 2.54489 0
M  V30 1034 H 99.7126 -4.60008 2.99472 0
M  V30 1035 H 99.9736 -4.22603 1.29842 0
M  V30 1036 N 99.0327 -1.24633 -0.964593 0
M  V30 1037 C 100.31 -0.995809 -1.68354 0
M  V30 1038 C 100.69 0.480964 -2.05548 0
M  V30 1039 O 100.038 1.45599 -1.76105 0
M  V30 1040 C 100.248 -1.92177 -2.91323 0
M  V30 1041 C 101.596 -2.19446 -3.63495 0
M  V30 1042 O 102.62 -1.89855 -3.01386 0
M  V30 1043 O 101.479 -2.69714 -4.75307 0
M  V30 1044 H 98.5727 -0.376854 -0.736146 0
M  V30 1045 H 101.119 -1.35745 -1.0184 0
M  V30 1046 H 99.8907 -2.91938 -2.60553 0
M  V30 1047 H 99.5137 -1.56349 -3.65569 0
M  V30 1048 N 100.511 1.16574 -1.06058 0
M  V30 1049 C 101.459 2.22941 -0.663343 0
M  V30 1050 C 102.453 1.66358 0.319593 0
M  V30 1051 O 103.659 1.7905 0.184713 0
M  V30 1052 H 100.034 0.725907 -0.196376 0
M  V30 1053 H 102.005 2.53736 -1.57037 0
M  V30 1054 C 100.754 3.47642 -0.0632808 0
M  V30 1055 H 100.077 3.91493 -0.810733 0
M  V30 1056 H 101.517 4.2363 0.177177 0
M  V30 1057 C 99.9758 3.1509 1.19248 0
M  V30 1058 O 100.506 3.30673 2.28075 0
M  V30 1059 N 98.7118 2.6924 1.09353 0
M  V30 1060 H 98.2588 2.5676 0.207912 0
M  V30 1061 H 98.2168 2.47833 1.93458 0
M  V30 1062 N 101.989 0.842826 1.3317 0
M  V30 1063 C 103.237 0.439577 1.97262 0
M  V30 1064 C 103.558 -1.00548 1.67078 0
M  V30 1065 O 102.828 -1.70098 0.971779 0
M  V30 1066 H 101.408 0.159558 0.72976 0
M  V30 1067 H 104.07 1.07665 1.62463 0
M  V30 1068 H 103.166 0.574886 3.0676 0
M  V30 1069 N 103.467 -1.45747 0.599634 0
M  V30 1070 C 104.43 -2.28917 -0.113835 0
M  V30 1071 C 105.43 -1.3933 -0.802729 0
M  V30 1072 O 106.62 -1.61534 -0.652103 0
M  V30 1073 C 103.752 -3.20152 -1.17114 0
M  V30 1074 H 104.945 -2.93478 0.617289 0
M  V30 1075 H 102.498 -1.52137 0.358327 0
M  V30 1076 H 103.233 -2.60374 -1.93329 0
M  V30 1077 H 103.018 -3.86133 -0.681468 0
M  V30 1078 H 104.508 -3.82708 -1.67105 0
M  V30 1079 N 104.945 -0.338344 -1.53925 0
M  V30 1080 C 106.191 0.252842 -2.01822 0
M  V30 1081 C 106.546 1.48612 -1.22197 0
M  V30 1082 O 105.839 1.89238 -0.299892 0
M  V30 1083 C 106.033 0.62448 -3.51902 0
M  V30 1084 C 105.862 -0.571235 -4.46057 0
M  V30 1085 C 104.632 -1.07493 -4.93734 0
M  V30 1086 C 106.83 -1.42807 -4.94076 0
M  V30 1087 N 104.812 -2.23351 -5.71828 0
M  V30 1088 C 106.183 -2.43362 -5.70241 0
M  V30 1089 C 108.238 -1.45412 -4.76193 0
M  V30 1090 C 106.941 -3.46346 -6.30426 0
M  V30 1091 C 108.967 -2.47274 -5.37224 0
M  V30 1092 C 108.329 -3.46555 -6.13253 0
M  V30 1093 H 104.428 0.0559669 -0.779995 0
M  V30 1094 H 107.012 -0.476732 -1.88773 0
M  V30 1095 H 105.183 1.32317 -3.65167 0
M  V30 1096 H 106.915 1.19841 -3.86549 0
M  V30 1097 H 103.67 -0.643848 -4.69203 0
M  V30 1098 H 104.094 -2.81834 -6.15548 0
M  V30 1099 H 108.736 -0.700171 -4.16962 0
M  V30 1100 H 106.454 -4.22638 -6.88769 0
M  V30 1101 H 110.04 -2.50109 -5.25297 0
M  V30 1102 H 108.92 -4.24083 -6.59638 0
M  V30 1103 N 106.423 1.57458 -0.0668435 0
M  V30 1104 C 107.7 1.8469 0.644132 0
M  V30 1105 C 108.08 0.958343 1.88093 0
M  V30 1106 O 107.428 0.0233579 2.28488 0
M  V30 1107 C 107.638 3.34767 0.986509 0
M  V30 1108 C 108.986 4.02159 1.36212 0
M  V30 1109 O 110.01 3.39484 1.07839 0
M  V30 1110 O 108.869 5.12694 1.89227 0
M  V30 1111 H 105.963 0.762816 0.319437 0
M  V30 1112 H 108.509 1.6942 -0.0973986 0
M  V30 1113 H 107.281 3.91151 0.107883 0
M  V30 1114 H 106.904 3.55281 1.78497 0
M  V30 1115 N 107.901 -0.206675 1.56239 0
M  V30 1116 C 109.147 -0.930218 1.80208 0
M  V30 1117 C 109.48 -1.83387 0.638981 0
M  V30 1118 O 108.755 -1.91119 -0.361066 0
M  V30 1119 C 109.038 -1.75641 3.1436 0
M  V30 1120 C 108.891 -0.878257 4.41142 0
M  V30 1121 C 110.21 -2.73129 3.45092 0
M  V30 1122 H 107.329 -0.336742 0.655571 0
M  V30 1123 H 109.971 -0.198222 1.88963 0
M  V30 1124 H 108.121 -2.38048 3.07027 0
M  V30 1125 H 109.793 -0.269787 4.6051 0
M  V30 1126 H 108.036 -0.184385 4.33408 0
M  V30 1127 H 108.707 -1.49106 5.3148 0
M  V30 1128 H 111.183 -2.20856 3.52649 0
M  V30 1129 H 110.059 -3.28028 4.40101 0
M  V30 1130 H 110.32 -3.51606 2.68003 0
M  V30 1131 N 109.379 -1.50304 -0.473955 0
M  V30 1132 C 110.627 -1.60832 -1.22382 0
M  V30 1133 C 110.948 -0.30939 -1.9253 0
M  V30 1134 O 110.218 0.67296 -1.83978 0
M  V30 1135 H 108.798 -0.592652 -0.454723 0
M  V30 1136 H 111.46 -1.87068 -0.546968 0
M  V30 1137 H 110.556 -2.41803 -1.97327 0
M  V30 1138 N 110.857 0.726932 -1.39834 0
M  V30 1139 C 112.105 1.4837 -1.37225 0
M  V30 1140 C 112.426 1.94979 0.0284857 0
M  V30 1141 O 111.696 1.69555 0.981213 0
M  V30 1142 H 110.276 0.55043 -0.505011 0
M  V30 1143 H 112.938 0.862468 -1.74778 0
M  V30 1144 H 112.034 2.36198 -2.04003 0
M  V30 1145 N 112.336 1.25143 0.95797 0
M  V30 1146 C 113.584 1.09476 1.69881 0
M  V30 1147 C 113.905 -0.365502 1.91544 0
M  V30 1148 O 113.175 -1.25985 1.50015 0
M  V30 1149 H 111.755 0.402128 0.629525 0
M  V30 1150 H 114.417 1.57214 1.15194 0
M  V30 1151 H 113.513 1.60046 2.6794 0
M  V30 1152 N 113.814 -1.1601 1.06675 0
M  V30 1153 C 115.06 -1.87145 0.796766 0
M  V30 1154 C 115.415 -1.8037 -0.669658 0
M  V30 1155 O 114.708 -1.21116 -1.48463 0
M  V30 1156 C 114.902 -3.35547 1.23057 0
M  V30 1157 C 114.731 -3.56769 2.73762 0
M  V30 1158 C 113.501 -3.72635 3.41279 0
M  V30 1159 C 115.699 -3.55166 3.7197 0
M  V30 1160 N 113.681 -3.81845 4.80695 0
M  V30 1161 C 115.052 -3.70406 4.97191 0
M  V30 1162 C 117.107 -3.384 3.65226 0
M  V30 1163 C 115.81 -3.70615 6.16471 0
M  V30 1164 C 117.836 -3.39904 4.83962 0
M  V30 1165 C 117.198 -3.55667 6.08013 0
M  V30 1166 H 113.297 -0.702267 0.344014 0
M  V30 1167 H 115.881 -1.39165 1.36166 0
M  V30 1168 H 114.052 -3.82159 0.693456 0
M  V30 1169 H 115.784 -3.94363 0.908844 0
M  V30 1170 H 112.539 -3.73121 2.91681 0
M  V30 1171 H 112.963 -3.90209 5.53232 0
M  V30 1172 H 117.605 -3.25138 2.70269 0
M  V30 1173 H 115.323 -3.82658 7.11757 0
M  V30 1174 H 118.909 -3.28169 4.80413 0
M  V30 1175 H 117.789 -3.56755 6.98352 0
M  V30 1176 N 115.292 -0.849877 -1.32721 0
M  V30 1177 C 116.24 -0.279745 -2.30912 0
M  V30 1178 C 117.234 0.594278 -1.58634 0
M  V30 1179 O 118.44 0.482613 -1.73409 0
M  V30 1180 H 114.815 -0.0717521 -0.748569 0
M  V30 1181 H 116.786 -1.12222 -2.76494 0
M  V30 1182 C 115.535 0.521108 -3.43773 0
M  V30 1183 H 114.858 -0.142141 -3.99547 0
M  V30 1184 H 116.298 0.885693 -4.14646 0
M  V30 1185 C 114.757 1.70442 -2.90605 0
M  V30 1186 O 115.287 2.8034 -2.87702 0
M  V30 1187 N 113.493 1.52991 -2.47067 0
M  V30 1188 H 113.04 0.635914 -2.49628 0
M  V30 1189 H 112.998 2.32311 -2.11847 0
M  V30 1190 N 116.77 1.45427 -0.607355 0
M  V30 1191 C 117.733 2.28974 0.101693 0
M  V30 1192 C 118.733 1.39754 0.795329 0
M  V30 1193 O 119.923 1.61878 0.643527 0
M  V30 1194 C 117.055 3.20768 1.15414 0
M  V30 1195 H 118.248 2.93147 -0.632844 0
M  V30 1196 H 115.801 1.51945 -0.366391 0
M  V30 1197 H 116.536 2.61395 1.91945 0
M  V30 1198 H 116.321 3.86489 0.66098 0
M  V30 1199 H 117.811 3.83589 1.65073 0
M  V30 1200 N 118.248 0.346503 1.53744 0
M  V30 1201 C 119.158 -0.517293 2.28826 0
M  V30 1202 C 120.174 -1.10935 1.3405 0
M  V30 1203 O 121.35 -1.1244 1.6709 0
M  V30 1204 C 118.415 -1.65098 3.04866 0
M  V30 1205 C 117.476 -1.0884 4.15274 0
M  V30 1206 C 116.709 -2.16806 4.87679 0
M  V30 1207 O 116.932 -3.3758 4.59778 0
M  V30 1208 O 115.866 -1.80934 5.74061 0
M  V30 1209 H 119.692 0.0931396 3.03557 0
M  V30 1210 H 117.277 0.111458 1.48984 0
M  V30 1211 H 119.159 -2.31053 3.5241 0
M  V30 1212 H 117.834 -2.24717 2.32989 0
M  V30 1213 H 116.741 -0.3933 3.72027 0
M  V30 1214 H 118.074 -0.537036 4.89261 0
M  V30 1215 N 119.726 -1.57421 0.075193 0
M  V30 1216 C 120.954 -1.97946 -0.602076 0
M  V30 1217 C 121.369 -0.953674 -1.62943 0
M  V30 1218 O 120.726 0.0592551 -1.82404 0
M  V30 1219 C 120.777 -3.38546 -1.26762 0
M  V30 1220 O 120.498 -4.37195 -0.281376 0
M  V30 1221 C 121.999 -3.93966 -2.03239 0
M  V30 1222 H 119.219 -0.650918 -0.162931 0
M  V30 1223 H 121.763 -2.03959 0.148601 0
M  V30 1224 H 119.918 -3.33609 -1.96936 0
M  V30 1225 H 120.332 -5.18975 -0.759267 0
M  V30 1226 H 121.806 -4.94555 -2.45193 0
M  V30 1227 H 122.283 -3.30693 -2.8903 0
M  V30 1228 H 122.889 -4.02315 -1.37924 0
M  V30 1229 N 121.204 0.198386 -1.56346 0
M  V30 1230 C 122.434 0.934215 -1.84271 0
M  V30 1231 C 122.842 1.77496 -0.655125 0
M  V30 1232 O 122.185 1.7961 0.385488 0
M  V30 1233 C 122.247 1.88278 -3.06254 0
M  V30 1234 C 121.911 1.22431 -4.40295 0
M  V30 1235 C 122.908 0.602839 -5.16393 0
M  V30 1236 C 120.593 1.22915 -4.87029 0
M  V30 1237 C 122.587 -0.0050083 -6.374 0
M  V30 1238 C 120.274 0.617465 -6.07973 0
M  V30 1239 C 121.272 0.00146341 -6.83 0
M  V30 1240 O 120.96 -0.600642 -8.01653 0
M  V30 1241 H 120.692 0.278245 -0.616081 0
M  V30 1242 H 123.246 0.211626 -2.04307 0
M  V30 1243 H 121.476 2.64498 -2.82095 0
M  V30 1244 H 123.165 2.48612 -3.20853 0
M  V30 1245 H 123.931 0.591265 -4.81382 0
M  V30 1246 H 119.81 1.69801 -4.28589 0
M  V30 1247 H 123.354 -0.48643 -6.95902 0
M  V30 1248 H 119.251 0.62653 -6.42452 0
M  V30 1249 H 120.019 -0.497225 -8.16988 0
M  V30 1250 N 122.682 1.50554 0.465978 0
M  V30 1251 C 123.645 1.69233 1.54574 0
M  V30 1252 C 124.645 0.562901 1.50626 0
M  V30 1253 O 125.835 0.830016 1.53155 0
M  V30 1254 C 122.967 1.7223 2.94193 0
M  V30 1255 H 124.16 2.65571 1.39327 0
M  V30 1256 H 121.713 1.40111 0.692711 0
M  V30 1257 H 122.448 0.77603 3.14878 0
M  V30 1258 H 122.233 2.54285 2.98466 0
M  V30 1259 H 123.723 1.88618 3.72576 0
M  V30 1260 N 124.16 -0.719506 1.40217 0
M  V30 1261 C 125.123 -1.8153 1.39927 0
M  V30 1262 C 126.123 -1.58095 0.293723 0
M  V30 1263 O 127.313 -1.65209 0.552429 0
M  V30 1264 C 124.445 -3.19561 1.18716 0
M  V30 1265 H 125.638 -1.83186 2.37451 0
M  V30 1266 H 123.191 -0.924746 1.26008 0
M  V30 1267 H 123.926 -3.23557 0.219366 0
M  V30 1268 H 123.711 -3.3797 1.98793 0
M  V30 1269 H 125.201 -3.99598 1.21291 0
M  V30 1270 N 125.638 -1.25649 -0.95132 0
M  V30 1271 C 126.884 -1.10757 -1.69884 0
M  V30 1272 C 127.217 0.350061 -1.91019 0
M  V30 1273 O 126.492 1.25783 -1.48354 0
M  V30 1274 C 126.775 -1.86606 -3.07978 0
M  V30 1275 C 126.628 -3.40217 -2.94232 0
M  V30 1276 C 127.947 -1.65182 -4.07925 0
M  V30 1277 H 125.066 -0.40374 -0.616574 0
M  V30 1278 H 127.708 -1.54521 -1.10558 0
M  V30 1279 H 125.858 -1.49409 -3.58621 0
M  V30 1280 H 127.53 -3.87108 -2.50889 0
M  V30 1281 H 125.773 -3.67759 -2.30078 0
M  V30 1282 H 126.444 -3.88505 -3.92133 0
M  V30 1283 H 128.92 -1.9757 -3.66204 0
M  V30 1284 H 127.796 -2.20683 -5.02583 0
M  V30 1285 H 128.057 -0.593933 -4.38092 0
M  V30 1286 N 127.117 1.15442 -1.07289 0
M  V30 1287 C 128.027 2.23786 -0.704057 0
M  V30 1288 C 129.043 1.7166 0.284413 0
M  V30 1289 O 130.219 2.00972 0.131205 0
M  V30 1290 C 127.284 3.46535 -0.106792 0
M  V30 1291 C 126.345 4.13654 -1.14842 0
M  V30 1292 C 125.578 5.30544 -0.57956 0
M  V30 1293 O 125.801 5.67187 0.604585 0
M  V30 1294 O 124.735 5.87154 -1.32414 0
M  V30 1295 H 128.561 2.57664 -1.60757 0
M  V30 1296 H 126.146 1.23152 -0.845803 0
M  V30 1297 H 128.028 4.20804 0.224048 0
M  V30 1298 H 126.703 3.14407 0.770049 0
M  V30 1299 H 125.61 3.4131 -1.5316 0
M  V30 1300 H 126.943 4.49861 -1.99714 0
M  V30 1301 N 128.595 0.856903 1.32268 0
M  V30 1302 C 129.525 0.31858 2.31316 0
M  V30 1303 C 130.506 -0.583487 1.59779 0
M  V30 1304 O 131.691 -0.503259 1.87566 0
M  V30 1305 C 128.821 -0.491979 3.43798 0
M  V30 1306 C 127.775 0.315849 4.26833 0
M  V30 1307 C 127.101 -0.619586 5.31098 0
M  V30 1308 C 128.401 1.54282 4.98993 0
M  V30 1309 H 130.095 1.14621 2.76591 0
M  V30 1310 H 127.641 0.552613 1.32974 0
M  V30 1311 H 129.594 -0.879012 4.1213 0
M  V30 1312 H 128.318 -1.35299 2.97257 0
M  V30 1313 H 126.977 0.684664 3.6015 0
M  V30 1314 H 126.625 -1.47751 4.8081 0
M  V30 1315 H 126.325 -0.0830621 5.87541 0
M  V30 1316 H 127.849 -1.00375 6.02293 0
M  V30 1317 H 129.263 1.22796 5.59995 0
M  V30 1318 H 127.66 2.01745 5.65172 0
M  V30 1319 H 128.73 2.30285 4.26728 0
M  V30 1320 N 130.073 -1.45103 0.615059 0
M  V30 1321 C 131.322 -2.01396 0.110718 0
M  V30 1322 C 131.635 -1.48834 -1.26916 0
M  V30 1323 O 132.841 -1.97152 -1.86664 0
M  V30 1324 C 131.297 -3.59599 0.14723 0
M  V30 1325 C 130.905 -4.21158 1.52743 0
M  V30 1326 C 132.649 -4.23428 -0.30148 0
M  V30 1327 C 130.556 -5.71535 1.51992 0
M  V30 1328 H 129.486 -0.753061 0.0376241 0
M  V30 1329 H 132.137 -1.66494 0.77149 0
M  V30 1330 H 130.519 -3.91724 -0.580339 0
M  V30 1331 H 131.693 -4.00594 2.2773 0
M  V30 1332 H 130.008 -3.69552 1.91886 0
M  V30 1333 H 132.605 -5.33703 -0.326392 0
M  V30 1334 H 132.948 -3.94629 -1.32565 0
M  V30 1335 H 133.481 -3.96047 0.373065 0
M  V30 1336 H 130.22 -6.05044 2.52193 0
M  V30 1337 H 129.74 -5.94268 0.81274 0
M  V30 1338 H 131.419 -6.34873 1.24681 0
M  V30 1339 N 131.551 -0.354651 -1.53558 0
M  V30 1340 C 132.461 0.50515 -2.29097 0
M  V30 1341 C 133.477 1.10223 -1.34636 0
M  V30 1342 O 134.653 1.11553 -1.67684 0
M  V30 1343 C 131.718 1.63479 -3.05738 0
M  V30 1344 C 130.779 1.06636 -4.15845 0
M  V30 1345 C 130.012 2.14217 -4.88822 0
M  V30 1346 O 130.235 3.35137 -4.61562 0
M  V30 1347 O 129.169 1.77887 -5.75013 0
M  V30 1348 H 132.995 -0.109237 -3.03503 0
M  V30 1349 H 130.58 -0.119357 -1.48922 0
M  V30 1350 H 132.462 2.2918 -3.5363 0
M  V30 1351 H 131.137 2.23478 -2.34178 0
M  V30 1352 H 130.044 0.373565 -3.7223 0
M  V30 1353 H 131.377 0.511081 -4.89539 0
M  V30 1354 N 133.029 1.57378 -0.0835403 0
M  V30 1355 C 134.254 1.98682 0.594987 0
M  V30 1356 C 134.679 0.961969 1.61641 0
M  V30 1357 O 134.037 -0.0709989 1.81161 0
M  V30 1358 C 134.085 3.38988 1.2296 0
M  V30 1359 O 133.189 3.39208 2.34546 0
M  V30 1360 H 132.53 0.646368 0.152002 0
M  V30 1361 H 135.06 2.03961 -0.161533 0
M  V30 1362 H 135.07 3.76431 1.57366 0
M  V30 1363 H 133.745 4.13107 0.481228 0
M  V30 1364 H 132.322 3.13548 2.01846 0
M  V30 1365 N 134.507 -0.190092 1.56449 0
M  V30 1366 C 135.457 -1.23977 1.91347 0
M  V30 1367 C 136.441 -1.40747 0.779693 0
M  V30 1368 O 137.633 -1.43033 1.04262 0
M  V30 1369 C 134.762 -2.58347 2.26079 0
M  V30 1370 C 133.848 -2.4535 3.45925 0
M  V30 1371 N 134.239 -2.02039 4.63696 0
M  V30 1372 C 132.537 -2.76229 3.50162 0
M  V30 1373 C 133.238 -2.01053 5.4585 0
M  V30 1374 N 132.214 -2.42747 4.8639 0
M  V30 1375 H 136.016 -0.896318 2.79899 0
M  V30 1376 H 133.53 -0.398496 1.57435 0
M  V30 1377 H 135.527 -3.34173 2.49267 0
M  V30 1378 H 134.187 -2.93512 1.38856 0
M  V30 1379 H 135.198 -1.7267 4.88268 0
M  V30 1380 H 131.875 -3.15556 2.73369 0
M  V30 1381 H 133.265 -1.69426 6.50188 0
M  V30 1382 N 135.985 -1.50799 -0.457987 0
M  V30 1383 C 137.21 -1.66496 -1.23668 0
M  V30 1384 C 137.635 -0.353288 -1.84752 0
M  V30 1385 O 136.993 0.684346 -1.67888 0
M  V30 1386 C 137.041 -2.76763 -2.3116 0
M  V30 1387 O 136.145 -2.38928 -3.36136 0
M  V30 1388 H 135.486 -0.555828 -0.363252 0
M  V30 1389 H 138.016 -1.9725 -0.543474 0
M  V30 1390 H 138.026 -3.00232 -2.76269 0
M  V30 1391 H 136.701 -3.71954 -1.86073 0
M  V30 1392 H 135.278 -2.25953 -2.96647 0
M  V30 1393 N 137.463 0.71206 -1.40597 0
M  V30 1394 C 138.691 1.50111 -1.42388 0
M  V30 1395 C 139.106 1.88784 -0.0245395 0
M  V30 1396 O 138.463 1.55681 0.952351 0
M  V30 1397 C 138.514 2.7742 -2.31776 0
M  V30 1398 O 138.235 2.40382 -3.66262 0
M  V30 1399 C 139.736 3.7129 -2.42196 0
M  V30 1400 H 136.956 0.46314 -0.485533 0
M  V30 1401 H 139.5 0.878068 -1.8469 0
M  V30 1402 H 137.655 3.36001 -1.92827 0
M  V30 1403 H 138.069 3.22324 -4.13772 0
M  V30 1404 H 139.543 4.57448 -3.08943 0
M  V30 1405 H 140.02 4.14641 -1.44809 0
M  V30 1406 H 140.626 3.18619 -2.81712 0
M  V30 1407 N 138.941 1.26152 0.944643 0
M  V30 1408 C 139.888 1.07408 2.04285 0
M  V30 1409 C 140.858 -0.0198413 1.66088 0
M  V30 1410 O 142.043 0.139264 1.90291 0
M  V30 1411 C 139.183 0.70945 3.37729 0
M  V30 1412 C 138.296 1.87926 3.88983 0
M  V30 1413 C 137.431 1.45807 5.10797 0
M  V30 1414 C 136.47 2.5964 5.54305 0
M  V30 1415 N 135.607 2.18226 6.67324 0
M  V30 1416 H 140.447 2.01389 2.1965 0
M  V30 1417 H 137.984 1.00275 1.07626 0
M  V30 1418 H 139.942 0.478948 4.14442 0
M  V30 1419 H 138.572 -0.193389 3.2222 0
M  V30 1420 H 137.624 2.22279 3.08701 0
M  V30 1421 H 138.936 2.73377 4.17213 0
M  V30 1422 H 138.09 1.18781 5.94959 0
M  V30 1423 H 136.829 0.574414 4.84305 0
M  V30 1424 H 135.834 2.87399 4.68702 0
M  V30 1425 H 137.059 3.48599 5.828 0
M  V30 1426 H 135.005 1.3229 6.42523 0
M  V30 1427 H 134.922 2.97221 6.95123 0
M  V30 1428 H 136.19 1.94403 7.54869 0
M  V30 1429 N 140.419 -1.14872 1.07899 0
M  V30 1430 C 141.329 -2.2341 0.715915 0
M  V30 1431 C 142.345 -1.71808 -0.275306 0
M  V30 1432 O 143.521 -2.01039 -0.120545 0
M  V30 1433 C 140.586 -3.46474 0.125168 0
M  V30 1434 C 139.647 -4.13039 1.17034 0
M  V30 1435 C 138.88 -5.30229 0.607688 0
M  V30 1436 O 139.103 -5.675 -0.574497 0
M  V30 1437 O 138.037 -5.86444 1.35526 0
M  V30 1438 H 141.863 -2.56808 1.62121 0
M  V30 1439 H 139.448 -1.22702 0.852322 0
M  V30 1440 H 141.33 -4.20917 -0.201729 0
M  V30 1441 H 140.005 -3.14811 -0.753364 0
M  V30 1442 H 138.912 -3.40493 1.54968 0
M  V30 1443 H 140.245 -4.48796 2.02097 0
M  V30 1444 N 141.898 -0.863906 -1.31812 0
M  V30 1445 C 142.808 -0.318461 -2.32428 0
M  V30 1446 C 143.824 0.568496 -1.64451 0
M  V30 1447 O 145 0.46666 -1.95919 0
M  V30 1448 C 142.065 0.476355 -3.43412 0
M  V30 1449 C 141.126 -0.43784 -4.27061 0
M  V30 1450 C 140.359 0.319138 -5.32745 0
M  V30 1451 O 140.582 1.54799 -5.48993 0
M  V30 1452 O 139.516 -0.319861 -6.01049 0
M  V30 1453 H 143.342 -1.15229 -2.80991 0
M  V30 1454 H 140.927 -0.627103 -1.35602 0
M  V30 1455 H 142.809 0.927156 -4.11074 0
M  V30 1456 H 141.484 1.28683 -2.97022 0
M  V30 1457 H 140.391 -0.937013 -3.62175 0
M  V30 1458 H 141.724 -1.21375 -4.77 0
M  V30 1459 N 143.376 1.44774 -0.622745 0
M  V30 1460 C 144.623 2.02121 -0.1239 0
M  V30 1461 C 144.951 1.48915 1.25118 0
M  V30 1462 O 144.206 0.660045 1.84233 0
M  V30 1463 C 144.505 3.57364 -0.0508323 0
M  V30 1464 C 144.171 4.29787 -1.36358 0
M  V30 1465 C 142.833 4.4929 -1.72314 0
M  V30 1466 C 145.185 4.71062 -2.23048 0
M  V30 1467 C 142.513 5.07325 -2.94682 0
M  V30 1468 C 144.865 5.30452 -3.44679 0
M  V30 1469 C 143.529 5.48175 -3.80868 0
M  V30 1470 H 142.799 0.739612 -0.0453381 0
M  V30 1471 H 145.446 1.73648 -0.807389 0
M  V30 1472 H 143.751 3.85202 0.715991 0
M  V30 1473 H 145.448 3.99456 0.351533 0
M  V30 1474 H 142.038 4.14932 -1.07375 0
M  V30 1475 H 146.222 4.55715 -1.96565 0
M  V30 1476 H 141.478 5.19235 -3.22809 0
M  V30 1477 H 145.652 5.61385 -4.12092 0
M  V30 1478 H 143.279 5.92912 -4.75773 0
M  V30 1479 N 144.854 0.36279 1.53368 0
M  V30 1480 C 145.787 -0.528507 2.21996 0
M  V30 1481 C 146.765 -1.0852 1.21087 0
M  V30 1482 O 147.949 -1.14186 1.4998 0
M  V30 1483 C 145.076 -1.72893 2.91249 0
M  V30 1484 C 144.122 -1.29994 4.06207 0
M  V30 1485 S 144.955 -0.303575 5.34639 0
M  V30 1486 C 146.111 -1.51039 6.07403 0
M  V30 1487 H 146.344 0.0543423 2.9725 0
M  V30 1488 H 143.877 0.146889 1.537 0
M  V30 1489 H 145.835 -2.41751 3.31763 0
M  V30 1490 H 144.496 -2.28303 2.15724 0
M  V30 1491 H 143.689 -2.19549 4.53667 0
M  V30 1492 H 143.291 -0.690608 3.67569 0
M  V30 1493 H 145.583 -2.44186 6.31965 0
M  V30 1494 H 146.526 -1.07721 6.99858 0
M  V30 1495 H 146.934 -1.71518 5.37812 0
M  V30 1496 N 146.332 -1.57332 0.0918853 0
M  V30 1497 C 147.56 -1.98574 -0.581048 0
M  V30 1498 C 147.975 -0.970903 -1.61923 0
M  V30 1499 O 147.332 0.0399054 -1.82456 0
M  V30 1500 C 147.383 -3.39872 -1.23164 0
M  V30 1501 O 147.104 -4.37469 -0.234989 0
M  V30 1502 C 148.605 -3.96099 -1.99049 0
M  V30 1503 H 145.825 -0.65261 -0.156018 0
M  V30 1504 H 148.369 -2.0379 0.170225 0
M  V30 1505 H 146.524 -3.35679 -1.93386 0
M  V30 1506 H 146.938 -5.19751 -0.70418 0
M  V30 1507 H 148.412 -4.97127 -2.39934 0
M  V30 1508 H 148.889 -3.3374 -2.85507 0
M  V30 1509 H 149.495 -4.03755 -1.3365 0
M  V30 1510 N 147.81 0.181792 -1.56548 0
M  V30 1511 C 149.087 0.926765 -1.72251 0
M  V30 1512 C 149.467 2.00831 -0.650386 0
M  V30 1513 O 148.815 2.26008 0.336521 0
M  V30 1514 C 149.025 1.50106 -3.1507 0
M  V30 1515 C 150.373 1.97805 -3.75711 0
M  V30 1516 O 151.397 1.59922 -3.18282 0
M  V30 1517 O 150.256 2.67555 -4.76525 0
M  V30 1518 H 147.35 0.435506 -0.703039 0
M  V30 1519 H 149.896 0.170443 -1.68842 0
M  V30 1520 H 148.668 0.72212 -3.84579 0
M  V30 1521 H 148.291 2.32186 -3.22763 0
M  V30 1522 N 149.288 1.51039 0.449983 0
M  V30 1523 C 150.518 1.66627 1.22143 0
M  V30 1524 C 150.926 0.357776 1.85786 0
M  V30 1525 O 150.269 -0.672424 1.70951 0
M  V30 1526 C 150.331 2.71562 2.35573 0
M  V30 1527 C 149.995 4.14526 1.92399 0
M  V30 1528 C 150.992 4.99717 1.43453 0
M  V30 1529 C 148.677 4.60559 2.00475 0
M  V30 1530 C 150.671 6.28998 1.03155 0
M  V30 1531 C 148.358 5.8984 1.59788 0
M  V30 1532 C 149.356 6.73886 1.11208 0
M  V30 1533 O 149.044 8.0075 0.710935 0
M  V30 1534 H 148.776 0.562635 0.374724 0
M  V30 1535 H 151.33 1.98146 0.541036 0
M  V30 1536 H 149.56 2.3533 3.06849 0
M  V30 1537 H 151.249 2.76156 2.97478 0
M  V30 1538 H 152.015 4.65361 1.36618 0
M  V30 1539 H 147.894 3.95273 2.37235 0
M  V30 1540 H 151.438 6.9455 0.651663 0
M  V30 1541 H 147.335 6.23713 1.66289 0
M  V30 1542 H 148.103 8.142 0.837913 0
M  V30 1543 N 150.766 -0.704594 1.40972 0
M  V30 1544 C 152.182 -1.01406 1.23244 0
M  V30 1545 C 152.382 -2.01169 0.115399 0
M  V30 1546 O 151.438 -2.47021 -0.523147 0
M  V30 1547 C 152.751 -1.54728 2.57836 0
M  V30 1548 C 154.299 -1.66658 2.64942 0
M  V30 1549 C 154.774 -2.23383 3.9983 0
M  V30 1550 N 156.265 -2.30756 4.01629 0
M  V30 1551 C 157 -2.75655 5.02794 0
M  V30 1552 N 156.496 -3.20225 6.14352 0
M  V30 1553 N 158.289 -2.75138 4.90159 0
M  V30 1554 H 150.44 -0.0435285 2.12355 0
M  V30 1555 H 152.703 -0.0818951 0.944456 0
M  V30 1556 H 152.409 -0.888832 3.40283 0
M  V30 1557 H 152.283 -2.53084 2.79693 0
M  V30 1558 H 154.67 -2.31617 1.8286 0
M  V30 1559 H 154.751 -0.668717 2.46904 0
M  V30 1560 H 154.395 -1.59043 4.82357 0
M  V30 1561 H 154.325 -3.23904 4.15203 0
M  V30 1562 H 156.816 -1.99291 3.21079 0
M  V30 1563 H 157.129 -3.53084 6.87424 0
M  V30 1564 H 155.474 -3.18156 6.17901 0
M  V30 1565 H 158.665 -2.39661 4.02095 0
M  V30 1566 H 158.838 -3.09812 5.6914 0
M  V30 1567 N 152.244 -1.26651 -0.937939 0
M  V30 1568 C 153.174 -1.10993 -2.05433 0
M  V30 1569 C 154.155 -0.0142161 -1.70094 0
M  V30 1570 O 155.34 -0.186837 -1.93299 0
M  V30 1571 C 152.47 -0.745561 -3.39203 0
M  V30 1572 C 151.424 -1.79337 -3.88616 0
M  V30 1573 C 150.75 -1.28324 -5.19073 0
M  V30 1574 C 152.05 -3.19553 -4.13138 0
M  V30 1575 H 153.744 -2.0438 -2.1879 0
M  V30 1576 H 151.29 -0.984041 -1.05131 0
M  V30 1577 H 153.243 -0.622888 -4.16771 0
M  V30 1578 H 151.967 0.22401 -3.25831 0
M  V30 1579 H 150.626 -1.90477 -3.13231 0
M  V30 1580 H 150.274 -0.303414 -5.02084 0
M  V30 1581 H 149.974 -1.98369 -5.53103 0
M  V30 1582 H 151.498 -1.1733 -5.99221 0
M  V30 1583 H 152.912 -3.11471 -4.81309 0
M  V30 1584 H 151.309 -3.87218 -4.58457 0
M  V30 1585 H 152.379 -3.65368 -3.18801 0
M  V30 1586 N 153.722 1.14298 -1.08507 0
M  V30 1587 C 154.952 1.88945 -0.835663 0
M  V30 1588 C 155.36 1.78894 0.615928 0
M  V30 1589 O 154.703 1.1468 1.43506 0
M  V30 1590 C 154.765 3.39585 -1.17994 0
M  V30 1591 C 154.429 3.7342 -2.63451 0
M  V30 1592 C 155.426 3.73454 -3.61702 0
M  V30 1593 C 153.111 4.03368 -2.99332 0
M  V30 1594 C 155.105 4.02961 -4.93864 0
M  V30 1595 C 152.792 4.32538 -4.31687 0
M  V30 1596 C 153.79 4.32318 -5.28763 0
M  V30 1597 O 153.478 4.6078 -6.58739 0
M  V30 1598 H 153.21 0.605307 -0.300965 0
M  V30 1599 H 155.764 1.45673 -1.44806 0
M  V30 1600 H 153.994 3.83315 -0.51055 0
M  V30 1601 H 155.683 3.9554 -0.911182 0
M  V30 1602 H 156.449 3.50403 -3.35325 0
M  V30 1603 H 152.328 4.02692 -2.24411 0
M  V30 1604 H 155.872 4.02704 -5.69627 0
M  V30 1605 H 151.769 4.55059 -4.57812 0
M  V30 1606 H 152.537 4.78492 -6.64069 0
M  V30 1607 N 155.201 0.870884 1.31352 0
M  V30 1608 C 156.45 0.478408 1.95944 0
M  V30 1609 C 156.763 -0.974493 1.69597 0
M  V30 1610 O 157.969 -1.47316 2.28058 0
M  V30 1611 C 156.425 0.804609 3.50791 0
M  V30 1612 C 156.033 2.27433 3.85977 0
M  V30 1613 C 157.777 0.480648 4.2177 0
M  V30 1614 C 155.684 2.5429 5.33939 0
M  V30 1615 H 154.614 0.175175 0.733369 0
M  V30 1616 H 157.265 1.06391 1.4951 0
M  V30 1617 H 155.647 0.148347 3.95722 0
M  V30 1618 H 156.821 2.97373 3.52002 0
M  V30 1619 H 155.136 2.56442 3.28065 0
M  V30 1620 H 157.733 0.658519 5.30629 0
M  V30 1621 H 158.076 -0.578979 4.12254 0
M  V30 1622 H 158.609 1.09349 3.82476 0
M  V30 1623 H 155.348 3.58939 5.48491 0
M  V30 1624 H 154.868 1.88945 5.69263 0
M  V30 1625 H 156.547 2.39066 6.01212 0
M  V30 1626 N 156.679 -1.44442 0.630414 0
M  V30 1627 C 157.589 -2.34476 -0.0761693 0
M  V30 1628 C 158.605 -1.52576 -0.836449 0
M  V30 1629 O 159.781 -1.85307 -0.788874 0
M  V30 1630 C 156.846 -3.30545 -1.04599 0
M  V30 1631 C 155.907 -4.28352 -0.28516 0
M  V30 1632 C 155.14 -5.19831 -1.20878 0
M  V30 1633 O 155.363 -5.15223 -2.44747 0
M  V30 1634 O 154.297 -5.97892 -0.693491 0
M  V30 1635 H 158.123 -2.96345 0.664324 0
M  V30 1636 H 155.708 -1.44203 0.39061 0
M  V30 1637 H 157.59 -3.89681 -1.60396 0
M  V30 1638 H 156.265 -2.7121 -1.76711 0
M  V30 1639 H 155.172 -3.72764 0.315837 0
M  V30 1640 H 156.505 -4.90605 0.395924 0
M  V30 1641 N 158.157 -0.370918 -1.53173 0
M  V30 1642 C 159.087 0.464847 -2.28826 0
M  V30 1643 C 160.068 1.07936 -1.31468 0
M  V30 1644 O 161.253 1.0956 -1.60344 0
M  V30 1645 C 158.383 1.60196 -3.08147 0
M  V30 1646 C 157.337 1.11443 -4.13237 0
M  V30 1647 C 156.663 2.3422 -4.80672 0
M  V30 1648 C 157.963 0.195384 -5.21934 0
M  V30 1649 H 159.657 -0.166329 -2.98938 0
M  V30 1650 H 157.203 -0.0814359 -1.4377 0
M  V30 1651 H 159.156 2.19332 -3.59822 0
M  V30 1652 H 157.88 2.26045 -2.35735 0
M  V30 1653 H 156.539 0.545727 -3.62515 0
M  V30 1654 H 156.187 2.98537 -4.04827 0
M  V30 1655 H 155.887 2.02269 -5.51689 0
M  V30 1656 H 157.411 2.94032 -5.35143 0
M  V30 1657 H 158.825 0.694375 -5.69079 0
M  V30 1658 H 157.222 -0.0335027 -6.00091 0
M  V30 1659 H 158.292 -0.760961 -4.78892 0
M  V30 1660 N 159.635 1.57281 -0.100228 0
M  V30 1661 C 160.565 2.17328 0.853857 0
M  V30 1662 C 161.546 1.10804 1.2906 0
M  V30 1663 O 162.731 1.38963 1.35657 0
M  V30 1664 C 159.861 2.75772 2.11109 0
M  V30 1665 C 158.815 3.87713 1.81279 0
M  V30 1666 C 158.141 4.32882 3.13874 0
M  V30 1667 C 159.441 5.10677 1.09574 0
M  V30 1668 H 161.135 2.97305 0.353545 0
M  V30 1669 H 158.681 1.43009 0.168612 0
M  V30 1670 H 160.634 3.16433 2.78296 0
M  V30 1671 H 159.358 1.93057 2.63432 0
M  V30 1672 H 158.017 3.476 1.16489 0
M  V30 1673 H 157.665 3.47051 3.64095 0
M  V30 1674 H 157.365 5.08358 2.94696 0
M  V30 1675 H 158.889 4.7618 3.82211 0
M  V30 1676 H 160.303 5.48474 1.66879 0
M  V30 1677 H 158.7 5.91615 1.00557 0
M  V30 1678 H 159.77 4.84835 0.0793299 0
M  V30 1679 N 161.113 -0.173488 1.56642 0
M  V30 1680 C 162.529 -0.525174 1.50712 0
M  V30 1681 C 162.729 -1.8476 0.804107 0
M  V30 1682 O 161.785 -2.49869 0.363574 0
M  V30 1683 C 163.098 -0.559937 2.95441 0
M  V30 1684 C 164.646 -0.647288 3.06234 0
M  V30 1685 C 165.121 -0.712963 4.52417 0
M  V30 1686 N 166.612 -0.775911 4.56655 0
M  V30 1687 C 167.347 -0.847264 5.67106 0
M  V30 1688 N 166.843 -0.879585 6.87194 0
M  V30 1689 N 168.636 -0.886117 5.55071 0
M  V30 1690 H 160.787 0.693681 2.00753 0
M  V30 1691 H 163.05 0.249841 0.914485 0
M  V30 1692 H 162.756 0.343049 3.50023 0
M  V30 1693 H 162.63 -1.40718 3.49969 0
M  V30 1694 H 165.017 -1.5407 2.51687 0
M  V30 1695 H 165.098 0.226586 2.54794 0
M  V30 1696 H 164.742 0.176183 5.07594 0
M  V30 1697 H 164.672 -1.60295 5.0161 0
M  V30 1698 H 167.163 -0.759304 3.70193 0
M  V30 1699 H 167.476 -0.935144 7.67121 0
M  V30 1700 H 165.821 -0.847898 6.89808 0
M  V30 1701 H 169.012 -0.857853 4.60172 0
M  V30 1702 H 169.185 -0.938263 6.41171 0
M  V30 1703 N 162.591 -1.51276 -0.441967 0
M  V30 1704 C 163.539 -1.72823 -1.55676 0
M  V30 1705 C 164.533 -0.59445 -1.58627 0
M  V30 1706 O 165.739 -0.775715 -1.62427 0
M  V30 1707 H 162.114 -0.545983 -0.517113 0
M  V30 1708 H 164.085 -2.6628 -1.34675 0
M  V30 1709 C 162.834 -1.86619 -2.93375 0
M  V30 1710 H 162.157 -2.73264 -2.91834 0
M  V30 1711 H 163.597 -2.05709 -3.70756 0
M  V30 1712 C 162.056 -0.624842 -3.31055 0
M  V30 1713 O 162.586 0.222636 -4.01083 0
M  V30 1714 N 160.792 -0.470288 -2.86769 0
M  V30 1715 H 160.339 -1.161 -2.29953 0
M  V30 1716 H 160.297 0.359051 -3.12343 0
M  V30 1717 N 164.069 0.697108 -1.41344 0
M  V30 1718 C 164.999 1.82353 -1.45841 0
M  V30 1719 C 165.98 1.67115 -0.317247 0
M  V30 1720 O 167.165 1.86871 -0.528474 0
M  V30 1721 C 164.295 3.20476 -1.33838 0
M  V30 1722 C 163.249 3.50415 -2.4575 0
M  V30 1723 C 162.575 4.87878 -2.18813 0
M  V30 1724 C 163.875 3.49546 -3.88091 0
M  V30 1725 H 165.569 1.78846 -2.40113 0
M  V30 1726 H 163.115 0.859028 -1.15571 0
M  V30 1727 H 165.068 3.98988 -1.35596 0
M  V30 1728 H 163.792 3.24604 -0.360498 0
M  V30 1729 H 162.451 2.74253 -2.43271 0
M  V30 1730 H 162.099 4.8863 -1.19371 0
M  V30 1731 H 161.799 5.08875 -2.93803 0
M  V30 1732 H 163.323 5.68702 -2.22284 0
M  V30 1733 H 164.737 4.18066 -3.92293 0
M  V30 1734 H 163.134 3.82075 -4.62751 0
M  V30 1735 H 164.204 2.48552 -4.16353 0
M  V30 1736 N 165.547 1.27147 0.931209 0
M  V30 1737 C 166.51 1.09615 2.01289 0
M  V30 1738 C 167.51 0.0412581 1.60747 0
M  V30 1739 O 168.7 0.285545 1.71844 0
M  V30 1740 C 165.832 0.669447 3.34262 0
M  V30 1741 H 167.025 2.05662 2.18273 0
M  V30 1742 H 164.578 1.09885 1.11153 0
M  V30 1743 H 165.313 -0.292572 3.22978 0
M  V30 1744 H 165.098 1.43127 3.65044 0
M  V30 1745 H 166.588 0.568921 4.13706 0
M  V30 1746 N 167.025 -1.13721 1.09112 0
M  V30 1747 C 168.302 -1.81155 0.737706 0
M  V30 1748 C 168.682 -1.96253 -0.777683 0
M  V30 1749 O 168.03 -1.52807 -1.69889 0
M  V30 1750 C 168.24 -3.16392 1.47299 0
M  V30 1751 C 169.588 -3.91787 1.63671 0
M  V30 1752 O 170.612 -3.26005 1.43524 0
M  V30 1753 O 169.471 -5.0977 1.96969 0
M  V30 1754 H 166.565 -0.783518 0.26463 0
M  V30 1755 H 169.111 -1.20676 1.19312 0
M  V30 1756 H 167.883 -3.0061 2.50498 0
M  V30 1757 H 167.506 -3.8457 1.00953 0
M  V30 1758 N 168.503 -0.877838 -1.30888 0
M  V30 1759 C 169.413 -0.343096 -2.32078 0
M  V30 1760 C 170.429 0.551022 -1.65045 0
M  V30 1761 O 171.605 0.445854 -1.96403 0
M  V30 1762 C 168.67 0.439905 -3.43898 0
M  V30 1763 C 167.731 -0.483111 -4.26573 0
M  V30 1764 C 166.964 0.262616 -5.33053 0
M  V30 1765 O 167.187 1.48967 -5.50604 0
M  V30 1766 O 166.121 -0.383593 -6.00676 0
M  V30 1767 H 169.947 -1.18203 -2.79753 0
M  V30 1768 H 167.532 -0.64145 -1.34929 0
M  V30 1769 H 169.414 0.883504 -4.12034 0
M  V30 1770 H 168.089 1.25526 -2.98371 0
M  V30 1771 H 166.996 -0.975374 -3.61161 0
M  V30 1772 H 168.329 -1.26427 -4.75686 0
M  V30 1773 N 169.982 1.44106 -0.638065 0
M  V30 1774 C 170.945 2.29138 0.0531013 0
M  V30 1775 C 171.945 1.41409 0.765506 0
M  V30 1776 O 173.135 1.63206 0.609046 0
M  V30 1777 C 170.267 3.23144 1.08584 0
M  V30 1778 H 171.46 2.91739 -0.694883 0
M  V30 1779 H 169.013 1.51134 -0.398538 0
M  V30 1780 H 169.748 2.65408 1.86357 0
M  V30 1781 H 169.533 3.87804 0.578852 0
M  V30 1782 H 171.023 3.87004 1.56899 0
M  V30 1783 N 171.46 0.379036 1.52974 0
M  V30 1784 C 172.708 -0.206014 2.01047 0
M  V30 1785 C 173.029 -1.48175 1.26765 0
M  V30 1786 O 172.299 -1.92085 0.384743 0
M  V30 1787 H 170.879 -0.0791184 0.742798 0
M  V30 1788 H 173.541 0.508366 1.88153 0
M  V30 1789 H 172.637 -0.423501 3.09213 0
M  V30 1790 N 172.938 -1.57226 0.108567 0
M  V30 1791 C 173.868 -2.17778 -0.84232 0
M  V30 1792 C 174.849 -1.11487 -1.2847 0
M  V30 1793 O 176.034 -1.39681 -1.34918 0
M  V30 1794 C 173.164 -2.76888 -2.09644 0
M  V30 1795 C 172.118 -3.88669 -1.79221 0
M  V30 1796 C 171.444 -4.34541 -3.11574 0
M  V30 1797 C 172.744 -5.11251 -1.06864 0
M  V30 1798 H 174.438 -2.97489 -0.337774 0
M  V30 1799 H 171.984 -1.43097 -0.161025 0
M  V30 1800 H 173.937 -3.17904 -2.76614 0
M  V30 1801 H 172.661 -1.94451 -2.62405 0
M  V30 1802 H 171.32 -3.48213 -1.14644 0
M  V30 1803 H 170.968 -3.48977 -3.62249 0
M  V30 1804 H 170.668 -5.09914 -2.91996 0
M  V30 1805 H 172.192 -4.782 -3.7968 0
M  V30 1806 H 173.606 -5.49352 -1.63968 0
M  V30 1807 H 172.003 -5.9214 -0.974178 0
M  V30 1808 H 173.073 -4.8487 -0.0536168 0
M  V30 1809 N 174.416 0.165178 -1.56732 0
M  V30 1810 C 175.827 0.727046 -1.71962 0
M  V30 1811 C 176.178 1.82508 -0.720078 0
M  V30 1812 O 175.303 2.16082 0.117242 0
M  V30 1813 C 175.898 1.32559 -3.11791 0
M  V30 1814 C 174.457 1.83422 -3.28684 0
M  V30 1815 C 173.604 0.715567 -2.67908 0
M  V30 1816 H 176.555 -0.0602896 -1.58585 0
M  V30 1817 H 176.576 2.19533 -3.10782 0
M  V30 1818 H 176.088 0.526195 -3.84516 0
M  V30 1819 H 174.189 2.65986 -2.60926 0
M  V30 1820 H 174.302 1.97543 -4.36478 0
M  V30 1821 H 172.666 1.13758 -2.27884 0
M  V30 1822 H 173.449 -0.0720836 -3.43224 0
M  V30 1823 N 175.894 1.51508 0.433938 0
M  V30 1824 C 176.841 1.73068 1.52696 0
M  V30 1825 C 177.811 0.572441 1.55924 0
M  V30 1826 O 178.996 0.807253 1.72882 0
M  V30 1827 C 176.136 1.86474 2.90381 0
M  V30 1828 C 175.249 3.14037 2.96656 0
M  V30 1829 C 174.384 3.18019 4.25485 0
M  V30 1830 C 173.423 4.39882 4.2564 0
M  V30 1831 N 172.56 4.41394 5.45999 0
M  V30 1832 H 177.4 2.66366 1.33615 0
M  V30 1833 H 174.937 1.32008 0.649018 0
M  V30 1834 H 176.895 1.92229 3.70275 0
M  V30 1835 H 175.525 0.965809 3.08013 0
M  V30 1836 H 174.577 3.17575 2.09404 0
M  V30 1837 H 175.889 4.0394 2.92633 0
M  V30 1838 H 175.043 3.22708 5.13755 0
M  V30 1839 H 173.782 2.2601 4.3217 0
M  V30 1840 H 172.787 4.35366 3.35763 0
M  V30 1841 H 174.012 5.33159 4.20617 0
M  V30 1842 H 171.958 3.52258 5.53399 0
M  V30 1843 H 171.875 5.25111 5.4387 0
M  V30 1844 H 173.143 4.50281 6.36292 0
M  V30 1845 N 177.372 -0.689602 1.41712 0
M  V30 1846 C 178.6 -1.47827 1.44758 0
M  V30 1847 C 179.015 -1.88721 0.0545703 0
M  V30 1848 O 178.372 -1.57176 -0.927463 0
M  V30 1849 C 178.423 -2.73698 2.3616 0
M  V30 1850 O 178.144 -2.34524 3.7004 0
M  V30 1851 C 179.645 -3.67389 2.48072 0
M  V30 1852 H 176.865 -0.455357 0.49284 0
M  V30 1853 H 179.409 -0.848574 1.86063 0
M  V30 1854 H 177.564 -3.32891 1.98148 0
M  V30 1855 H 177.978 -3.15701 4.18847 0
M  V30 1856 H 179.452 -4.52475 3.16181 0
M  V30 1857 H 179.929 -4.12284 1.51388 0
M  V30 1858 H 180.535 -3.14097 2.86746 0
M  V30 1859 N 178.85 -1.27639 -0.924453 0
M  V30 1860 C 179.78 -1.13166 -2.04244 0
M  V30 1861 C 180.761 -0.032256 -1.70069 0
M  V30 1862 O 181.946 -0.207328 -1.9309 0
M  V30 1863 C 179.076 -0.781496 -3.38393 0
M  V30 1864 C 178.03 -1.83449 -3.86692 0
M  V30 1865 C 177.356 -1.33822 -5.17683 0
M  V30 1866 C 178.656 -3.23917 -4.09726 0
M  V30 1867 H 180.35 -2.06689 -2.1661 0
M  V30 1868 H 177.896 -0.995136 -1.04082 0
M  V30 1869 H 179.849 -0.667057 -4.16087 0
M  V30 1870 H 178.573 0.189439 -3.2605 0
M  V30 1871 H 177.232 -1.93789 -3.11193 0
M  V30 1872 H 176.88 -0.35665 -5.01734 0
M  V30 1873 H 176.58 -2.04224 -5.50968 0
M  V30 1874 H 178.104 -1.23679 -5.97943 0
M  V30 1875 H 179.518 -3.16559 -4.77978 0
M  V30 1876 H 177.915 -3.92059 -4.54324 0
M  V30 1877 H 178.985 -3.68729 -3.14908 0
M  V30 1878 N 180.328 1.1314 -1.09713 0
M  V30 1879 C 181.605 1.80762 -0.747302 0
M  V30 1880 C 181.985 1.96663 0.767265 0
M  V30 1881 O 181.333 1.53706 1.69076 0
M  V30 1882 C 181.543 3.15606 -1.48975 0
M  V30 1883 C 182.891 3.90914 -1.65746 0
M  V30 1884 O 183.915 3.25239 -1.45251 0
M  V30 1885 O 182.774 5.08718 -1.9967 0
M  V30 1886 H 179.868 0.782103 -0.268782 0
M  V30 1887 H 182.414 1.20041 -1.19951 0
M  V30 1888 H 181.186 2.99278 -2.52088 0
M  V30 1889 H 180.809 3.84029 -1.02991 0
M  V30 1890 N 181.806 0.884767 1.30421 0
M  V30 1891 C 183.034 0.518044 2.0031 0
M  V30 1892 C 183.449 -0.893408 1.66324 0
M  V30 1893 O 182.806 -1.5875 0.900262 0
M  V30 1894 C 182.857 0.682997 3.54989 0
M  V30 1895 O 182.578 2.03888 3.87764 0
M  V30 1896 C 184.079 0.31924 4.42149 0
M  V30 1897 H 181.299 0.200265 0.640418 0
M  V30 1898 H 183.843 1.19001 1.6631 0
M  V30 1899 H 181.998 0.0584052 3.87356 0
M  V30 1900 H 182.412 2.05735 4.82466 0
M  V30 1901 H 183.886 0.485555 5.4986 0
M  V30 1902 H 184.363 -0.742717 4.32875 0
M  V30 1903 H 184.969 0.920147 4.15227 0
M  V30 1904 N 183.284 -1.43765 0.645699 0
M  V30 1905 C 184.532 -2.01499 0.155731 0
M  V30 1906 C 184.853 -1.51151 -1.232 0
M  V30 1907 O 184.123 -0.721044 -1.82148 0
M  V30 1908 H 182.703 -0.745003 0.0545817 0
M  V30 1909 H 185.365 -1.76075 0.835677 0
M  V30 1910 H 184.461 -3.1181 0.134577 0
M  V30 1911 N 184.763 -0.387143 -1.52771 0
M  V30 1912 C 185.988 0.198407 -2.06449 0
M  V30 1913 C 186.413 1.39918 -1.25716 0
M  V30 1914 O 185.771 1.79099 -0.281657 0
M  V30 1915 C 185.819 0.548893 -3.56398 0
M  V30 1916 O 184.923 1.64315 -3.78252 0
M  V30 1917 H 184.264 0.0237731 -0.663574 0
M  V30 1918 H 186.794 -0.553989 -1.96957 0
M  V30 1919 H 186.804 0.813812 -3.99801 0
M  V30 1920 H 185.479 -0.329005 -4.14597 0
M  V30 1921 H 184.056 1.37211 -3.46738 0
M  V30 1922 N 186.241 1.57166 -0.116904 0
M  V30 1923 C 187.171 2.18222 0.830759 0
M  V30 1924 C 188.152 1.12167 1.27877 0
M  V30 1925 O 189.337 1.40394 1.34176 0
M  V30 1926 C 186.467 2.77996 2.08172 0
M  V30 1927 C 185.421 3.89614 1.77157 0
M  V30 1928 C 184.747 4.36187 3.09265 0
M  V30 1929 C 186.047 5.1181 1.04151 0
M  V30 1930 H 187.741 2.97664 0.321992 0
M  V30 1931 H 185.287 1.4318 0.153434 0
M  V30 1932 H 187.24 3.19366 2.74924 0
M  V30 1933 H 185.964 1.9584 2.6137 0
M  V30 1934 H 184.623 3.48816 1.12796 0
M  V30 1935 H 184.271 3.50893 3.60393 0
M  V30 1936 H 183.971 5.11455 2.89288 0
M  V30 1937 H 185.495 4.80207 3.77139 0
M  V30 1938 H 186.909 5.50214 1.61052 0
M  V30 1939 H 185.306 5.92648 0.942762 0
M  V30 1940 H 186.376 4.84892 0.0279022 0
M  V30 1941 N 187.719 -0.156864 1.56817 0
M  V30 1942 C 188.682 -1.17781 1.96622 0
M  V30 1943 C 189.682 -1.36401 0.851555 0
M  V30 1944 O 190.872 -1.33561 1.11836 0
M  V30 1945 C 188.004 -2.54008 2.27361 0
M  V30 1946 H 189.197 -0.836564 2.87996 0
M  V30 1947 H 186.75 -0.39985 1.51099 0
M  V30 1948 H 187.485 -2.9312 1.38748 0
M  V30 1949 H 187.27 -2.41856 3.08623 0
M  V30 1950 H 188.76 -3.27558 2.59029 0
M  V30 1951 N 189.197 -1.51736 -0.425897 0
M  V30 1952 C 190.445 -1.64644 -1.17204 0
M  V30 1953 C 190.766 -0.370486 -1.91448 0
M  V30 1954 O 190.036 0.614088 -1.86026 0
M  V30 1955 H 188.616 -0.606819 -0.435638 0
M  V30 1956 H 191.278 -1.88713 -0.487177 0
M  V30 1957 H 190.374 -2.47958 -1.89534 0
M  V30 1958 N 190.675 0.682077 -1.42076 0
M  V30 1959 C 191.924 1.43786 -1.41451 0
M  V30 1960 C 192.237 1.95574 -0.0317074 0
M  V30 1961 O 193.443 2.71326 0.0971462 0
M  V30 1962 C 191.899 2.60071 -2.48779 0
M  V30 1963 C 191.507 2.15013 -3.93031 0
M  V30 1964 C 193.251 3.37626 -2.57311 0
M  V30 1965 C 191.158 3.28336 -4.91883 0
M  V30 1966 H 190.088 0.540143 -0.526082 0
M  V30 1967 H 192.739 0.739157 -1.67955 0
M  V30 1968 H 191.121 3.32275 -2.15429 0
M  V30 1969 H 192.295 1.5001 -4.35699 0
M  V30 1970 H 190.61 1.50416 -3.88284 0
M  V30 1971 H 193.207 4.22012 -3.28345 0
M  V30 1972 H 193.55 3.83727 -1.61429 0
M  V30 1973 H 194.083 2.72488 -2.89819 0
M  V30 1974 H 190.822 2.87234 -5.89217 0
M  V30 1975 H 190.342 3.92145 -4.53853 0
M  V30 1976 H 192.021 3.93913 -5.13265 0
M  V30 1977 N 192.153 1.28127 0.917671 0
M  V30 1978 C 193.1 1.11717 2.0196 0
M  V30 1979 C 194.07 0.0153929 1.66093 0
M  V30 1980 O 195.255 0.179596 1.89953 0
M  V30 1981 C 192.395 0.780927 3.36148 0
M  V30 1982 C 191.508 1.96135 3.84909 0
M  V30 1983 C 190.643 1.56609 5.0759 0
M  V30 1984 C 189.682 2.71339 5.48673 0
M  V30 1985 N 188.819 2.32332 6.62545 0
M  V30 1986 H 193.659 2.06003 2.15329 0
M  V30 1987 H 191.196 1.02535 1.05475 0
M  V30 1988 H 193.154 0.56675 4.13333 0
M  V30 1989 H 191.784 -0.124998 3.22558 0
M  V30 1990 H 190.836 2.28777 3.03916 0
M  V30 1991 H 192.148 2.82165 4.1132 0
M  V30 1992 H 191.302 1.31374 5.92305 0
M  V30 1993 H 190.041 0.677014 4.82978 0
M  V30 1994 H 189.046 2.97276 4.62501 0
M  V30 1995 H 190.271 3.60882 5.75274 0
M  V30 1996 H 188.217 1.45889 6.39572 0
M  V30 1997 H 188.134 3.11899 6.88662 0
M  V30 1998 H 189.402 2.10371 7.50576 0
M  V30 1999 N 193.631 -1.12557 1.10312 0
M  V30 2000 C 194.859 -1.87864 0.866873 0
M  V30 2001 C 195.274 -1.79588 -0.582557 0
M  V30 2002 O 194.631 -1.16887 -1.40156 0
M  V30 2003 C 194.682 -3.37125 1.30496 0
M  V30 2004 O 194.403 -3.45201 2.69755 0
M  V30 2005 C 195.904 -4.29373 1.10243 0
M  V30 2006 H 193.124 -0.594452 0.311236 0
M  V30 2007 H 195.668 -1.42429 1.46745 0
M  V30 2008 H 193.823 -3.80109 0.748081 0
M  V30 2009 H 194.237 -4.38056 2.88457 0
M  V30 2010 H 195.711 -5.32394 1.45811 0
M  V30 2011 H 196.188 -4.39181 0.0409492 0
M  V30 2012 H 196.794 -3.92169 1.64571 0
M  V30 2013 N 195.109 -0.891671 -1.2995 0
M  V30 2014 C 196.059 -0.334811 -2.25528 0
M  V30 2015 C 197.043 0.540553 -1.51548 0
M  V30 2016 O 198.235 0.383882 -1.72787 0
M  V30 2017 C 195.364 0.44374 -3.4042 0
M  V30 2018 C 194.45 -0.44609 -4.21747 0
M  V30 2019 N 194.841 -1.54963 -4.81477 0
M  V30 2020 C 193.139 -0.242415 -4.45341 0
M  V30 2021 C 193.84 -2.10015 -5.42465 0
M  V30 2022 N 192.816 -1.39423 -5.25416 0
M  V30 2023 H 196.618 -1.17792 -2.69262 0
M  V30 2024 H 194.132 -0.741822 -1.44467 0
M  V30 2025 H 196.129 0.859362 -4.07947 0
M  V30 2026 H 194.789 1.28421 -2.98225 0
M  V30 2027 H 195.8 -1.93244 -4.80497 0
M  V30 2028 H 192.477 0.560342 -4.13723 0
M  V30 2029 H 193.867 -3.02724 -5.9984 0
M  V30 2030 N 196.587 1.43421 -0.653314 0
M  V30 2031 C 197.497 2.34568 0.0388565 0
M  V30 2032 C 198.513 1.53888 0.81207 0
M  V30 2033 O 199.689 1.86539 0.759294 0
M  V30 2034 C 196.754 3.32167 0.993269 0
M  V30 2035 C 195.815 4.28751 0.216977 0
M  V30 2036 C 195.048 5.21688 1.12593 0
M  V30 2037 O 195.271 5.19052 2.36519 0
M  V30 2038 O 194.205 5.98919 0.598284 0
M  V30 2039 H 198.031 2.95251 -0.711386 0
M  V30 2040 H 195.616 1.43564 -0.413502 0
M  V30 2041 H 197.498 3.92183 1.54176 0
M  V30 2042 H 196.173 2.73987 1.72374 0
M  V30 2043 H 195.08 3.72215 -0.375101 0
M  V30 2044 H 196.413 4.89913 -0.473924 0
M  V30 2045 N 198.065 0.39524 1.52563 0
M  V30 2046 C 199.295 -0.184675 2.05773 0
M  V30 2047 C 199.703 -1.40571 1.26635 0
M  V30 2048 O 199.046 -1.81105 0.30769 0
M  V30 2049 C 199.108 -0.613551 3.54226 0
M  V30 2050 C 198.772 0.49484 4.54313 0
M  V30 2051 C 199.769 1.3541 5.01956 0
M  V30 2052 C 197.454 0.663565 4.97898 0
M  V30 2053 C 199.448 2.36716 5.91814 0
M  V30 2054 C 197.135 1.67996 5.87555 0
M  V30 2055 C 198.133 2.53017 6.34406 0
M  V30 2056 O 197.821 3.52917 7.22291 0
M  V30 2057 H 197.553 -0.030077 0.675331 0
M  V30 2058 H 200.107 0.560708 1.97599 0
M  V30 2059 H 198.337 -1.411 3.60038 0
M  V30 2060 H 200.026 -1.11981 3.90148 0
M  V30 2061 H 200.792 1.23509 4.6901 0
M  V30 2062 H 196.671 0.0114913 4.60999 0
M  V30 2063 H 200.215 3.03113 6.28306 0
M  V30 2064 H 196.112 1.79933 6.19915 0
M  V30 2065 H 196.88 3.48996 7.40367 0
M  V30 2066 N 199.544 -1.57102 0.125237 0
M  V30 2067 C 200.784 -1.97294 -0.534259 0
M  V30 2068 C 201.148 -1.0074 -1.63449 0
M  V30 2069 O 202.349 -1.29893 -2.35332 0
M  V30 2070 C 200.62 -3.41705 -1.04748 0
M  V30 2071 S 202.179 -4.03913 -1.71463 0
M  V30 2072 H 198.997 -0.689517 -0.173458 0
M  V30 2073 H 201.599 -1.94349 0.211797 0
M  V30 2074 H 200.303 -4.09723 -0.235649 0
M  V30 2075 H 199.834 -3.48315 -1.82867 0
M  V30 2076 H 201.849 -3.95182 -3.00077 0
M  V30 2077 N 201.022 0.148545 -1.56898 0
M  V30 2078 C 202.25 0.876389 -1.87422 0
M  V30 2079 C 202.665 1.74809 -0.713256 0
M  V30 2080 O 202.022 1.79725 0.317025 0
M  V30 2081 C 202.073 1.73438 -3.17178 0
M  V30 2082 O 201.794 0.897809 -4.28802 0
M  V30 2083 C 203.295 2.56993 -3.61205 0
M  V30 2084 H 200.515 0.253489 -0.621277 0
M  V30 2085 H 203.059 0.141798 -2.04008 0
M  V30 2086 H 201.214 2.42205 -3.0235 0
M  V30 2087 H 201.628 1.48672 -5.02988 0
M  V30 2088 H 203.102 3.12773 -4.54838 0
M  V30 2089 H 203.579 3.32958 -2.86419 0
M  V30 2090 H 204.185 1.9352 -3.78722 0
M  V30 2091 N 202.5 1.5196 0.417844 0
M  V30 2092 C 203.448 1.75278 1.52907 0
M  V30 2093 C 204.442 0.619611 1.57662 0
M  V30 2094 O 205.648 0.801457 1.61173 0
M  V30 2095 H 202.023 0.554141 0.508362 0
M  V30 2096 H 203.994 2.68389 1.30422 0
M  V30 2097 C 202.743 1.91262 2.90369 0
M  V30 2098 H 202.066 2.77872 2.8745 0
M  V30 2099 H 203.506 2.11581 3.67436 0
M  V30 2100 C 201.965 0.677431 3.30019 0
M  V30 2101 O 202.495 -0.158799 4.01386 0
M  V30 2102 N 200.701 0.515851 2.85985 0
M  V30 2103 H 200.248 1.19744 2.28077 0
M  V30 2104 H 200.206 -0.309315 3.12875 0
M  V30 2105 N 203.978 -0.674533 1.42435 0
M  V30 2106 C 204.926 -1.80934 1.46169 0
M  V30 2107 C 205.92 -1.66006 0.3374 0
M  V30 2108 O 207.126 -1.72611 0.510425 0
M  V30 2109 H 203.501 -0.596594 0.457798 0
M  V30 2110 H 205.472 -1.74903 2.41767 0
M  V30 2111 C 204.221 -3.19088 1.38123 0
M  V30 2112 H 203.544 -3.31203 2.23931 0
M  V30 2113 H 204.984 -3.9851 1.44797 0
M  V30 2114 C 203.443 -3.36763 0.0960517 0
M  V30 2115 O 203.973 -3.92581 -0.851073 0
M  V30 2116 N 202.179 -2.90597 0.0131186 0
M  V30 2117 H 201.726 -2.45359 0.784639 0
M  V30 2118 H 201.684 -3.028 -0.846133 0
M  V30 2119 N 205.456 -1.28612 -0.910864 0
M  V30 2120 C 206.388 -1.08589 -2.01844 0
M  V30 2121 C 207.401 -0.0367419 -1.62759 0
M  V30 2122 O 208.59 -0.280101 -1.76289 0
M  V30 2123 C 205.69 -0.628626 -3.33019 0
M  V30 2124 C 204.863 -1.75382 -4.00699 0
M  V30 2125 C 203.922 -1.28945 -5.10156 0
M  V30 2126 O 202.948 -1.9922 -5.33198 0
M  V30 2127 N 204.15 -0.154224 -5.80295 0
M  V30 2128 H 206.915 -2.03973 -2.19579 0
M  V30 2129 H 204.476 -1.20403 -1.08234 0
M  V30 2130 H 206.468 -0.301508 -4.03575 0
M  V30 2131 H 205.038 0.232451 -3.11735 0
M  V30 2132 H 204.258 -2.25039 -3.23653 0
M  V30 2133 H 205.546 -2.50854 -4.42662 0
M  V30 2134 H 204.944 0.43194 -5.64049 0
M  V30 2135 H 203.501 0.113599 -6.51701 0
M  V30 2136 N 206.934 1.1197 -1.10907 0
M  V30 2137 C 208.345 1.65114 -0.871446 0
M  V30 2138 C 208.696 1.86885 0.597353 0
M  V30 2139 O 207.821 1.59896 1.45816 0
M  V30 2140 C 208.416 2.99944 -1.5754 0
M  V30 2141 C 206.975 3.50018 -1.38435 0
M  V30 2142 C 206.122 2.24941 -1.62164 0
M  V30 2143 H 209.073 0.956851 -1.2661 0
M  V30 2144 H 209.094 3.66651 -1.01721 0
M  V30 2145 H 208.606 2.84067 -2.64438 0
M  V30 2146 H 206.707 3.71071 -0.337214 0
M  V30 2147 H 206.82 4.29165 -2.12965 0
M  V30 2148 H 205.184 2.3229 -1.04467 0
M  V30 2149 H 205.967 2.11612 -2.70324 0
M  V30 2150 N 208.412 0.89855 1.29475 0
M  V30 2151 C 209.36 0.365253 2.29714 0
M  V30 2152 C 210.354 -0.534993 1.6073 0
M  V30 2153 O 211.56 -0.417921 1.75081 0
M  V30 2154 H 207.935 0.0994853 0.74539 0
M  V30 2155 H 209.906 1.22406 2.72138 0
M  V30 2156 C 208.655 -0.393159 3.4547 0
M  V30 2157 H 207.978 0.290332 3.98744 0
M  V30 2158 H 209.418 -0.731189 4.17648 0
M  V30 2159 C 207.877 -1.59539 2.9673 0
M  V30 2160 O 208.407 -2.69469 2.97908 0
M  V30 2161 N 206.613 -1.43716 2.52575 0
M  V30 2162 H 206.16 -0.542828 2.51816 0
M  V30 2163 H 206.118 -2.24288 2.20323 0
M  V30 2164 N 209.89 -1.43072 0.660911 0
M  V30 2165 C 210.838 -2.32569 -0.0378199 0
M  V30 2166 C 211.832 -1.49046 -0.805092 0
M  V30 2167 O 213.038 -1.65206 -0.714624 0
M  V30 2168 H 209.413 -0.75136 -0.031019 0
M  V30 2169 H 211.384 -2.89216 0.734609 0
M  V30 2170 C 210.133 -3.33453 -0.985124 0
M  V30 2171 H 209.456 -3.97752 -0.404147 0
M  V30 2172 H 210.896 -3.98691 -1.44297 0
M  V30 2173 C 209.355 -2.64642 -2.08486 0
M  V30 2174 O 209.885 -2.46776 -3.16961 0
M  V30 2175 N 208.091 -2.23891 -1.8526 0
M  V30 2176 H 207.638 -2.38621 -0.970449 0
M  V30 2177 H 207.596 -1.78181 -2.59034 0
M  V30 2178 N 211.368 -0.403325 -1.52352 0
M  V30 2179 C 212.318 0.442244 -2.2367 0
M  V30 2180 C 213.302 1.01823 -1.24583 0
M  V30 2181 O 214.494 0.942005 -1.49851 0
M  V30 2182 C 211.623 1.5615 -3.05732 0
M  V30 2183 C 210.709 0.996575 -4.12225 0
M  V30 2184 N 211.1 0.157804 -5.05554 0
M  V30 2185 C 209.398 1.26767 -4.27605 0
M  V30 2186 C 210.099 -0.155853 -5.81491 0
M  V30 2187 N 209.075 0.451775 -5.41719 0
M  V30 2188 H 212.877 -0.204964 -2.93184 0
M  V30 2189 H 210.391 -0.213418 -1.60992 0
M  V30 2190 H 212.388 2.17981 -3.55373 0
M  V30 2191 H 211.048 2.21139 -2.37755 0
M  V30 2192 H 212.059 -0.206049 -5.1749 0
M  V30 2193 H 208.736 1.91757 -3.70858 0
M  V30 2194 H 210.126 -0.836329 -6.66675 0
M  V30 2195 N 212.846 1.57033 -0.133567 0
M  V30 2196 C 214.071 2.00475 0.531477 0
M  V30 2197 C 214.496 1.01291 1.58499 0
M  V30 2198 O 213.854 -0.0133279 1.81295 0
M  V30 2199 C 213.902 3.42729 1.12113 0
M  V30 2200 O 213.006 3.46498 2.23636 0
M  V30 2201 H 212.347 0.650876 0.131362 0
M  V30 2202 H 214.877 2.03344 -0.22634 0
M  V30 2203 H 214.887 3.81246 1.4531 0
M  V30 2204 H 213.562 4.14428 0.349557 0
M  V30 2205 H 212.139 3.19811 1.91769 0
M  V30 2206 N 214.325 -0.140222 1.56975 0
M  V30 2207 C 215.602 -0.880769 1.74648 0
M  V30 2208 C 215.982 -1.99036 0.703404 0
M  V30 2209 O 215.33 -2.26821 -0.27648 0
M  V30 2210 C 215.54 -1.417 3.18939 0
M  V30 2211 C 216.888 -1.87774 3.80823 0
M  V30 2212 O 217.912 -1.51427 3.2241 0
M  V30 2213 O 216.771 -2.54827 4.83452 0
M  V30 2214 H 213.865 -0.416713 0.714338 0
M  V30 2215 H 216.411 -0.125618 1.69234 0
M  V30 2216 H 215.183 -0.619902 3.86359 0
M  V30 2217 H 214.806 -2.23546 3.28805 0
M  V30 2218 N 215.803 -1.52179 -0.40978 0
M  V30 2219 C 216.753 -1.71857 -1.49831 0
M  V30 2220 C 217.737 -0.572469 -1.50372 0
M  V30 2221 O 218.929 -0.829509 -1.56359 0
M  V30 2222 C 216.058 -1.87206 -2.87765 0
M  V30 2223 C 215.144 -3.07685 -2.91875 0
M  V30 2224 N 215.535 -4.30403 -2.65683 0
M  V30 2225 C 213.833 -3.07505 -3.23043 0
M  V30 2226 C 214.534 -5.11868 -2.76344 0
M  V30 2227 N 213.51 -4.47101 -3.09195 0
M  V30 2228 H 217.312 -2.64381 -1.28375 0
M  V30 2229 H 214.826 -1.50203 -0.617479 0
M  V30 2230 H 216.823 -1.99419 -3.66111 0
M  V30 2231 H 215.483 -0.958814 -3.10221 0
M  V30 2232 H 216.494 -4.58887 -2.4009 0
M  V30 2233 H 213.171 -2.25915 -3.51096 0
M  V30 2234 H 214.561 -6.19634 -2.59814 0
M  V30 2235 N 217.281 0.66697 -1.42791 0
M  V30 2236 C 218.527 1.4291 -1.43891 0
M  V30 2237 C 218.86 1.94114 -0.0578972 0
M  V30 2238 O 218.135 1.71414 0.91911 0
M  V30 2239 C 218.418 2.62049 -2.46987 0
M  V30 2240 C 218.271 2.16426 -3.94309 0
M  V30 2241 C 219.59 3.64266 -2.46978 0
M  V30 2242 H 216.709 0.518306 -0.523954 0
M  V30 2243 H 219.351 0.757321 -1.74255 0
M  V30 2244 H 217.501 3.19361 -2.21225 0
M  V30 2245 H 219.173 1.64221 -4.31079 0
M  V30 2246 H 217.416 1.47925 -4.078 0
M  V30 2247 H 218.087 3.02038 -4.62036 0
M  V30 2248 H 220.563 3.16686 -2.69906 0
M  V30 2249 H 219.439 4.45196 -3.21079 0
M  V30 2250 H 219.7 4.15927 -1.49857 0
M  V30 2251 N 218.759 1.29093 0.90403 0
M  V30 2252 C 220.036 1.075 1.63411 0
M  V30 2253 C 220.416 -0.382346 2.07609 0
M  V30 2254 O 219.764 -1.37031 1.82851 0
M  V30 2255 C 219.974 2.05858 2.81822 0
M  V30 2256 C 221.322 2.36539 3.52611 0
M  V30 2257 O 222.346 2.04019 2.91984 0
M  V30 2258 O 221.205 2.92085 4.61897 0
M  V30 2259 H 218.299 0.411547 0.717327 0
M  V30 2260 H 220.845 1.40449 0.952479 0
M  V30 2261 H 219.617 3.04037 2.46327 0
M  V30 2262 H 219.24 1.73613 3.57693 0
M  V30 2263 N 220.237 -1.11381 1.11499 0
M  V30 2264 C 221.648 -1.6465 0.880191 0
M  V30 2265 C 221.999 -1.87199 -0.587434 0
M  V30 2266 O 221.124 -1.60667 -1.44966 0
M  V30 2267 C 221.719 -2.99105 1.59128 0
M  V30 2268 C 220.278 -3.49279 1.40289 0
M  V30 2269 C 219.425 -2.24077 1.63354 0
M  V30 2270 H 222.376 -0.950123 1.27116 0
M  V30 2271 H 222.397 -3.66107 1.03664 0
M  V30 2272 H 221.909 -2.82661 2.65941 0
M  V30 2273 H 220.01 -3.70887 0.356888 0
M  V30 2274 H 220.123 -4.2803 2.15238 0
M  V30 2275 H 218.487 -2.31733 1.05698 0
M  V30 2276 H 219.27 -2.10175 2.71443 0
M  V30 2277 N 221.715 -0.905404 -1.28997 0
M  V30 2278 C 222.945 -0.549049 -1.99171 0
M  V30 2279 C 223.353 0.87203 -1.67906 0
M  V30 2280 O 222.696 1.58796 -0.923561 0
M  V30 2281 C 222.758 -0.668306 -3.53234 0
M  V30 2282 C 222.422 -2.0574 -4.08069 0
M  V30 2283 C 223.419 -3.0292 -4.22534 0
M  V30 2284 C 221.104 -2.36833 -4.42962 0
M  V30 2285 C 223.098 -4.29314 -4.71135 0
M  V30 2286 C 220.785 -3.63467 -4.91258 0
M  V30 2287 C 221.783 -4.59522 -5.053 0
M  V30 2288 O 221.471 -5.83907 -5.52546 0
M  V30 2289 H 221.203 -0.208784 -0.64295 0
M  V30 2290 H 223.757 -1.21836 -1.65363 0
M  V30 2291 H 221.987 0.0580547 -3.86656 0
M  V30 2292 H 223.676 -0.320273 -4.04634 0
M  V30 2293 H 224.442 -2.80216 -3.95859 0
M  V30 2294 H 220.321 -1.62824 -4.31288 0
M  V30 2295 H 223.865 -5.04293 -4.8201 0
M  V30 2296 H 219.762 -3.86 -5.17372 0
M  V30 2297 H 220.53 -5.86578 -5.70849 0
M  V30 2298 N 223.193 1.4272 -0.668489 0
M  V30 2299 C 224.604 1.84793 -0.266151 0
M  V30 2300 C 224.955 1.55959 1.19043 0
M  V30 2301 O 224.08 1.01622 1.91055 0
M  V30 2302 C 224.675 3.35436 -0.476271 0
M  V30 2303 C 223.234 3.76182 -0.128113 0
M  V30 2304 C 222.381 2.66344 -0.771777 0
M  V30 2305 H 225.332 1.32656 -0.871098 0
M  V30 2306 H 225.353 3.79515 0.273561 0
M  V30 2307 H 224.865 3.5639 -1.53647 0
M  V30 2308 H 222.966 3.60836 0.928891 0
M  V30 2309 H 223.079 4.75766 -0.564231 0
M  V30 2310 H 221.443 2.53885 -0.203652 0
M  V30 2311 H 222.226 2.90123 -1.83531 0
M  V30 2312 N 224.671 0.411399 1.52136 0
M  V30 2313 C 225.901 -0.16284 2.05957 0
M  V30 2314 C 226.309 -1.3922 1.28119 0
M  V30 2315 O 225.652 -1.80768 0.326881 0
M  V30 2316 C 225.714 -0.575946 3.54856 0
M  V30 2317 C 225.378 0.542998 4.53763 0
M  V30 2318 C 226.375 1.40726 5.00492 0
M  V30 2319 C 224.06 0.716337 4.97166 0
M  V30 2320 C 226.054 2.4298 5.8927 0
M  V30 2321 C 223.741 1.74218 5.8574 0
M  V30 2322 C 224.739 2.59731 6.31687 0
M  V30 2323 O 224.427 3.60558 7.18507 0
M  V30 2324 H 224.159 -0.0229125 0.675612 0
M  V30 2325 H 226.713 0.581634 1.96993 0
M  V30 2326 H 224.943 -1.37274 3.61515 0
M  V30 2327 H 226.632 -1.07836 3.91313 0
M  V30 2328 H 227.398 1.28476 4.67674 0
M  V30 2329 H 223.277 0.0603857 4.6096 0
M  V30 2330 H 226.821 3.0976 6.25055 0
M  V30 2331 H 222.718 1.86498 6.17971 0
M  V30 2332 H 223.486 3.56829 7.36624 0
M  V30 2333 N 226.149 -1.5696 0.141893 0
M  V30 2334 C 227.079 -2.19516 -0.795936 0
M  V30 2335 C 228.06 -1.14187 -1.26077 0
M  V30 2336 O 229.245 -1.42511 -1.31925 0
M  V30 2337 C 226.375 -2.81272 -2.03723 0
M  V30 2338 C 225.329 -3.92384 -1.70936 0
M  V30 2339 C 224.655 -4.41052 -3.02287 0
M  V30 2340 C 225.955 -5.13403 -0.959954 0
M  V30 2341 H 227.649 -2.98138 -0.274596 0
M  V30 2342 H 225.195 -1.43406 -0.130636 0
M  V30 2343 H 227.148 -3.237 -2.69808 0
M  V30 2344 H 225.872 -1.99973 -2.58221 0
M  V30 2345 H 224.531 -3.50566 -1.07232 0
M  V30 2346 H 224.179 -3.56582 -3.54765 0
M  V30 2347 H 223.879 -5.15993 -2.81114 0
M  V30 2348 H 225.403 -4.86146 -3.69451 0
M  V30 2349 H 226.817 -5.52706 -1.52279 0
M  V30 2350 H 225.214 -5.94073 -0.848357 0
M  V30 2351 H 226.284 -4.84875 0.0492434 0
M  V30 2352 N 227.627 0.131896 -1.57047 0
M  V30 2353 C 228.59 1.14638 -1.98471 0
M  V30 2354 C 229.59 1.35029 -0.873148 0
M  V30 2355 O 230.78 1.31764 -1.13946 0
M  V30 2356 C 227.912 2.50358 -2.31373 0
M  V30 2357 H 229.105 0.79064 -2.8929 0
M  V30 2358 H 226.658 0.375761 -1.51716 0
M  V30 2359 H 227.393 2.90876 -1.43393 0
M  V30 2360 H 227.178 2.36915 -3.12432 0
M  V30 2361 H 228.668 3.23395 -2.64207 0
M  V30 2362 N 229.106 1.52395 0.401703 0
M  V30 2363 C 230.053 1.76268 1.48991 0
M  V30 2364 C 231.023 0.605386 1.54675 0
M  V30 2365 O 232.208 0.843742 1.7113 0
M  V30 2366 C 229.348 1.92592 2.86361 0
M  V30 2367 C 228.461 3.20259 2.89928 0
M  V30 2368 C 227.596 3.26972 4.18644 0
M  V30 2369 C 226.635 4.48812 4.16214 0
M  V30 2370 N 225.772 4.52877 5.36514 0
M  V30 2371 H 230.612 2.6914 1.27935 0
M  V30 2372 H 228.149 1.33355 0.620871 0
M  V30 2373 H 230.107 2.0004 3.66115 0
M  V30 2374 H 228.737 1.03093 3.05895 0
M  V30 2375 H 227.789 3.21945 2.02621 0
M  V30 2376 H 229.101 4.10056 2.83999 0
M  V30 2377 H 228.255 3.33533 5.06794 0
M  V30 2378 H 226.994 2.35126 4.27278 0
M  V30 2379 H 225.999 4.4239 3.26453 0
M  V30 2380 H 227.224 5.41961 4.09213 0
M  V30 2381 H 225.17 3.63917 5.45802 0
M  V30 2382 H 225.087 5.36529 5.32609 0
M  V30 2383 H 226.355 4.63676 6.26597 0
M  V30 2384 N 230.584 -0.659388 1.43143 0
M  V30 2385 C 231.83 -1.41984 1.45644 0
M  V30 2386 C 232.185 -1.92245 0.0771718 0
M  V30 2387 O 231.478 -1.68976 -0.903205 0
M  V30 2388 C 231.672 -2.62206 2.42864 0
M  V30 2389 C 231.501 -2.23711 3.90107 0
M  V30 2390 C 230.271 -2.12332 4.58523 0
M  V30 2391 C 232.469 -1.84384 4.80112 0
M  V30 2392 N 230.451 -1.67102 5.9072 0
M  V30 2393 C 231.822 -1.5019 6.01534 0
M  V30 2394 C 233.877 -1.71512 4.67427 0
M  V30 2395 C 232.58 -1.04414 7.11681 0
M  V30 2396 C 234.606 -1.27142 5.77572 0
M  V30 2397 C 233.968 -0.938808 6.98116 0
M  V30 2398 H 230.067 -0.515448 0.588079 0
M  V30 2399 H 232.651 -0.759409 1.79279 0
M  V30 2400 H 230.822 -3.25917 2.11265 0
M  V30 2401 H 232.554 -3.28877 2.35843 0
M  V30 2402 H 229.309 -2.31893 4.12944 0
M  V30 2403 H 229.733 -1.46866 6.60878 0
M  V30 2404 H 234.375 -1.95868 3.74694 0
M  V30 2405 H 232.093 -0.788061 8.04248 0
M  V30 2406 H 235.679 -1.17681 5.69774 0
M  V30 2407 H 234.559 -0.6007 7.81896 0
M  V30 2408 N 232.062 -1.29571 -0.897171 0
M  V30 2409 C 233.31 -1.17456 -1.64464 0
M  V30 2410 C 233.631 0.273698 -1.9307 0
M  V30 2411 O 232.901 1.18684 -1.55855 0
M  V30 2412 H 231.481 -0.431706 -0.609622 0
M  V30 2413 H 234.143 -1.62531 -1.07562 0
M  V30 2414 H 233.239 -1.72648 -2.59998 0
M  V30 2415 N 233.54 1.10788 -1.12088 0
M  V30 2416 C 234.789 1.82036 -0.868659 0
M  V30 2417 C 235.102 1.85929 0.607426 0
M  V30 2418 O 236.308 2.53346 0.97613 0
M  V30 2419 C 234.764 3.26951 -1.50435 0
M  V30 2420 C 234.372 3.31367 -3.01496 0
M  V30 2421 C 236.116 4.03053 -1.33225 0
M  V30 2422 C 234.023 4.7072 -3.58017 0
M  V30 2423 H 232.953 0.682108 -0.321318 0
M  V30 2424 H 235.604 1.24618 -1.34694 0
M  V30 2425 H 233.986 3.84343 -0.953735 0
M  V30 2426 H 235.16 2.83819 -3.6302 0
M  V30 2427 H 233.475 2.6875 -3.18061 0
M  V30 2428 H 236.072 5.05981 -1.72878 0
M  V30 2429 H 236.415 4.15387 -0.275529 0
M  V30 2430 H 236.948 3.52066 -1.85188 0
M  V30 2431 H 233.687 4.63585 -4.63432 0
M  V30 2432 H 233.207 5.1865 -3.01268 0
M  V30 2433 H 234.886 5.39685 -3.56859 0
M  V30 2434 N 235.018 0.912232 1.28515 0
M  V30 2435 C 236.243 0.559774 1.99703 0
M  V30 2436 C 236.668 -0.851393 1.67729 0
M  V30 2437 O 236.026 -1.56875 0.908834 0
M  V30 2438 C 236.074 0.773874 3.52198 0
M  V30 2439 O 235.178 -0.167842 4.12058 0
M  V30 2440 H 234.519 0.21723 0.627461 0
M  V30 2441 H 237.049 1.22725 1.63706 0
M  V30 2442 H 237.059 0.683386 4.02236 0
M  V30 2443 H 235.734 1.80261 3.74805 0
M  V30 2444 H 234.311 -0.0287509 3.72889 0
M  V30 2445 N 236.496 -1.42363 0.676048 0
M  V30 2446 C 237.912 -1.55811 0.345718 0
M  V30 2447 C 238.112 -1.65544 -1.14879 0
M  V30 2448 O 237.168 -1.62306 -1.93424 0
M  V30 2449 C 238.481 -2.80746 1.07713 0
M  V30 2450 C 240.029 -2.9452 1.05958 0
M  V30 2451 C 240.504 -4.22318 1.77233 0
M  V30 2452 N 241.995 -4.29233 1.74108 0
M  V30 2453 C 242.73 -5.26935 2.26113 0
M  V30 2454 N 242.226 -6.30783 2.86505 0
M  V30 2455 N 244.019 -5.18741 2.1648 0
M  V30 2456 H 236.17 -1.34289 1.6456 0
M  V30 2457 H 238.433 -0.646506 0.69335 0
M  V30 2458 H 238.139 -2.79696 2.13221 0
M  V30 2459 H 238.013 -3.71676 0.64316 0
M  V30 2460 H 240.4 -2.95097 0.0128255 0
M  V30 2461 H 240.481 -2.04817 1.53244 0
M  V30 2462 H 240.125 -4.22502 2.81877 0
M  V30 2463 H 240.055 -5.10958 1.27396 0
M  V30 2464 H 242.546 -3.54814 1.30059 0
M  V30 2465 H 242.859 -7.01691 3.23805 0
M  V30 2466 H 241.204 -6.31341 2.90575 0
M  V30 2467 H 244.395 -4.36533 1.68987 0
M  V30 2468 H 244.568 -5.94721 2.57316 0
M  V30 2469 N 237.974 -0.419461 -1.51915 0
M  V30 2470 C 238.884 0.407528 -2.31033 0
M  V30 2471 C 239.9 1.04413 -1.3919 0
M  V30 2472 O 241.076 1.0434 -1.72265 0
M  V30 2473 C 238.141 1.50365 -3.12396 0
M  V30 2474 C 237.202 0.889029 -4.19994 0
M  V30 2475 C 236.435 1.93291 -4.97468 0
M  V30 2476 O 236.658 3.15259 -4.75361 0
M  V30 2477 O 235.592 1.53339 -5.8204 0
M  V30 2478 H 239.418 -0.237865 -3.02767 0
M  V30 2479 H 237.003 -0.182413 -1.48282 0
M  V30 2480 H 238.885 2.13975 -3.63032 0
M  V30 2481 H 237.56 2.13345 -2.43445 0
M  V30 2482 H 236.467 0.215353 -3.7348 0
M  V30 2483 H 237.8 0.302991 -4.91267 0
M  V30 2484 N 239.452 1.56882 -0.150215 0
M  V30 2485 C 240.384 2.14057 0.819286 0
M  V30 2486 C 241.397 1.09082 1.20851 0
M  V30 2487 O 242.586 1.36347 1.15203 0
M  V30 2488 C 239.686 2.65102 2.11127 0
M  V30 2489 C 238.859 3.94511 1.88891 0
M  V30 2490 C 237.918 4.30834 3.02107 0
M  V30 2491 O 236.944 4.99099 2.73659 0
M  V30 2492 N 238.146 3.90676 4.29363 0
M  V30 2493 H 240.911 2.97871 0.330618 0
M  V30 2494 H 238.472 1.61866 0.0332538 0
M  V30 2495 H 240.464 2.86411 2.85921 0
M  V30 2496 H 239.034 1.85994 2.51247 0
M  V30 2497 H 238.254 3.81795 0.981152 0
M  V30 2498 H 239.542 4.7907 1.71376 0
M  V30 2499 H 238.94 3.35677 4.55343 0
M  V30 2500 H 237.497 4.1703 5.00928 0
M  V30 2501 N 240.93 -0.123565 1.57115 0
M  V30 2502 C 242.177 -0.832153 1.84612 0
M  V30 2503 C 242.505 -1.80093 0.734627 0
M  V30 2504 O 241.76 -1.93766 -0.27442 0
M  V30 2505 C 242.059 -1.62016 3.18568 0
M  V30 2506 C 241.725 -0.796084 4.43817 0
M  V30 2507 C 240.387 -0.568816 4.77826 0
M  V30 2508 C 242.739 -0.221364 5.2073 0
M  V30 2509 C 240.067 0.243499 5.86194 0
M  V30 2510 C 242.419 0.578117 6.29953 0
M  V30 2511 C 241.083 0.815744 6.62497 0
M  V30 2512 H 240.353 -0.304507 0.675542 0
M  V30 2513 H 243 -0.0947248 1.91266 0
M  V30 2514 H 241.305 -2.42837 3.0747 0
M  V30 2515 H 243.002 -2.17231 3.37064 0
M  V30 2516 H 239.592 -0.983307 4.17168 0
M  V30 2517 H 243.776 -0.384173 4.94811 0
M  V30 2518 H 239.032 0.436871 6.09837 0
M  V30 2519 H 243.206 1.03046 6.88734 0
M  V30 2520 H 240.833 1.44701 7.46301 0
M  V30 2521 N 242.408 -1.52605 -0.393616 0
M  V30 2522 C 243.355 -1.77055 -1.48054 0
M  V30 2523 C 244.325 -0.61358 -1.54352 0
M  V30 2524 O 245.51 -0.852806 -1.70681 0
M  V30 2525 C 242.65 -1.94108 -2.85335 0
M  V30 2526 C 241.763 -3.21792 -2.88226 0
M  V30 2527 C 240.898 -3.29188 -4.16904 0
M  V30 2528 C 239.937 -4.51013 -4.13828 0
M  V30 2529 N 239.074 -4.55716 -5.34105 0
M  V30 2530 H 243.914 -2.69815 -1.26506 0
M  V30 2531 H 241.451 -1.33683 -0.61379 0
M  V30 2532 H 243.409 -2.01979 -3.65049 0
M  V30 2533 H 242.039 -1.04713 -3.05344 0
M  V30 2534 H 241.091 -3.23015 -2.00911 0
M  V30 2535 H 242.403 -4.11557 -2.8182 0
M  V30 2536 H 241.557 -3.36216 -5.05018 0
M  V30 2537 H 240.296 -2.37389 -4.26026 0
M  V30 2538 H 239.301 -4.44115 -3.24102 0
M  V30 2539 H 240.526 -5.44123 -4.06333 0
M  V30 2540 H 238.472 -3.66807 -5.43865 0
M  V30 2541 H 238.389 -5.39346 -5.29756 0
M  V30 2542 H 239.657 -4.66993 -6.2413 0
M  V30 2543 N 243.887 0.651787 -1.4349 0
M  V30 2544 C 244.837 1.75783 -1.45205 0
M  V30 2545 C 245.821 1.57679 -0.320328 0
M  V30 2546 O 247.013 1.67767 -0.564211 0
M  V30 2547 C 244.142 3.14377 -1.3792 0
M  V30 2548 C 243.228 3.38023 -2.56127 0
M  V30 2549 N 243.619 3.32135 -3.81471 0
M  V30 2550 C 241.917 3.68747 -2.50882 0
M  V30 2551 C 242.618 3.55902 -4.60118 0
M  V30 2552 N 241.594 3.77783 -3.90872 0
M  V30 2553 H 245.396 1.69657 -2.39987 0
M  V30 2554 H 242.91 0.853508 -1.38163 0
M  V30 2555 H 244.907 3.93666 -1.37231 0
M  V30 2556 H 243.567 3.21683 -0.441596 0
M  V30 2557 H 244.578 3.11515 -4.13738 0
M  V30 2558 H 241.255 3.8316 -1.65816 0
M  V30 2559 H 242.645 3.57116 -5.69138 0
M  V30 2560 N 245.365 1.30045 0.890287 0
M  V30 2561 C 246.642 1.09227 1.62262 0
M  V30 2562 C 247.022 -0.360305 2.08002 0
M  V30 2563 O 246.37 -1.35084 1.84295 0
M  V30 2564 C 246.58 2.08835 2.79623 0
M  V30 2565 C 247.928 2.40266 3.50082 0
M  V30 2566 O 248.952 2.07104 2.89804 0
M  V30 2567 O 247.811 2.96967 4.58773 0
M  V30 2568 H 244.905 0.419132 0.712922 0
M  V30 2569 H 247.451 1.41451 0.937529 0
M  V30 2570 H 246.223 3.06633 2.43089 0
M  V30 2571 H 245.846 1.77397 3.55832 0
M  V30 2572 N 246.843 -1.10192 1.12674 0
M  V30 2573 C 248.092 -1.81573 0.8783 0
M  V30 2574 C 248.405 -1.86249 -0.597557 0
M  V30 2575 O 249.611 -2.5386 -0.962681 0
M  V30 2576 C 248.067 -3.26149 1.52167 0
M  V30 2577 C 247.675 -3.29763 3.03249 0
M  V30 2578 C 249.419 -4.0234 1.3536 0
M  V30 2579 C 247.326 -4.68815 3.60508 0
M  V30 2580 H 246.256 -0.680394 0.324931 0
M  V30 2581 H 248.907 -1.23902 1.35353 0
M  V30 2582 H 247.289 -3.83832 0.974104 0
M  V30 2583 H 248.463 -2.8189 3.6452 0
M  V30 2584 H 246.778 -2.67059 3.19481 0
M  V30 2585 H 249.375 -5.05058 1.75559 0
M  V30 2586 H 249.718 -4.15235 0.297554 0
M  V30 2587 H 250.251 -3.51079 1.87052 0
M  V30 2588 H 246.99 -4.61121 4.65884 0
M  V30 2589 H 246.51 -5.17045 3.04014 0
M  V30 2590 H 248.189 -5.37785 3.59717 0
M  V30 2591 N 248.321 -0.919034 -1.28029 0
M  V30 2592 C 249.231 -0.416756 -2.30869 0
M  V30 2593 C 250.247 0.498235 -1.66714 0
M  V30 2594 O 251.423 0.383144 -1.97722 0
M  V30 2595 C 248.488 0.330274 -3.45123 0
M  V30 2596 C 247.549 -0.618578 -4.2482 0
M  V30 2597 C 246.782 0.0928959 -5.33619 0
M  V30 2598 O 247.005 1.31375 -5.55065 0
M  V30 2599 O 245.939 -0.574499 -5.99152 0
M  V30 2600 H 249.765 -1.27043 -2.75851 0
M  V30 2601 H 247.35 -0.684052 -1.3282 0
M  V30 2602 H 249.232 0.751972 -4.14636 0
M  V30 2603 H 247.907 1.1597 -3.02213 0
M  V30 2604 H 246.814 -1.08978 -3.57875 0
M  V30 2605 H 248.147 -1.41497 -4.71423 0
M  V30 2606 N 249.799 1.42003 -0.683588 0
M  V30 2607 C 250.747 2.326 0.000815408 0
M  V30 2608 C 251.741 1.50308 0.781278 0
M  V30 2609 O 252.947 1.66322 0.688251 0
M  V30 2610 H 249.322 0.751758 0.0190616 0
M  V30 2611 H 251.293 2.88011 -0.780528 0
M  V30 2612 C 250.042 3.34978 0.93195 0
M  V30 2613 H 249.365 3.98345 0.340817 0
M  V30 2614 H 250.805 4.00936 1.37936 0
M  V30 2615 C 249.264 2.67925 2.04249 0
M  V30 2616 O 249.794 2.51788 3.12995 0
M  V30 2617 N 248 2.2681 1.81675 0
M  V30 2618 H 247.547 2.40135 0.932363 0
M  V30 2619 H 247.505 1.8228 2.56167 0
M  V30 2620 N 251.277 0.427512 1.51691 0
M  V30 2621 C 252.525 -0.141948 2.01601 0
M  V30 2622 C 252.846 -1.44067 1.31414 0
M  V30 2623 O 252.116 -1.90763 0.445658 0
M  V30 2624 H 250.696 -0.0554468 0.744939 0
M  V30 2625 H 253.358 0.567968 1.86441 0
M  V30 2626 H 252.454 -0.324913 3.10404 0
M  V30 2627 N 252.755 -1.56801 0.158532 0
M  V30 2628 C 253.685 -2.20347 -0.772609 0
M  V30 2629 C 254.666 -1.15518 -1.24859 0
M  V30 2630 O 255.851 -1.43902 -1.30406 0
M  V30 2631 C 252.981 -2.83417 -2.00729 0
M  V30 2632 C 251.935 -3.94174 -1.66765 0
M  V30 2633 C 251.261 -4.44233 -2.97592 0
M  V30 2634 C 252.561 -5.14392 -0.905447 0
M  V30 2635 H 254.255 -2.98413 -0.242959 0
M  V30 2636 H 251.801 -1.43537 -0.115419 0
M  V30 2637 H 253.754 -3.26543 -2.6636 0
M  V30 2638 H 252.478 -2.02701 -2.56086 0
M  V30 2639 H 251.137 -3.51684 -1.03508 0
M  V30 2640 H 250.785 -3.60325 -3.50963 0
M  V30 2641 H 250.485 -5.18945 -2.75626 0
M  V30 2642 H 252.009 -4.90037 -3.64274 0
M  V30 2643 H 253.423 -5.5429 -1.46408 0
M  V30 2644 H 251.82 -5.9494 -0.7853 0
M  V30 2645 H 252.89 -4.84795 0.100668 0
M  V30 2646 N 254.233 0.115231 -1.57178 0
M  V30 2647 C 255.461 0.836437 -1.89239 0
M  V30 2648 C 255.876 1.73256 -0.750175 0
M  V30 2649 O 255.233 1.80357 0.278832 0
M  V30 2650 C 255.284 1.66671 -3.20785 0
M  V30 2651 O 255.005 0.806652 -4.3061 0
M  V30 2652 C 256.506 2.49274 -3.66575 0
M  V30 2653 H 253.726 0.240253 -0.626514 0
M  V30 2654 H 256.27 0.0984932 -2.04263 0
M  V30 2655 H 254.425 2.35737 -3.0742 0
M  V30 2656 H 254.839 1.37969 -5.06028 0
M  V30 2657 H 256.313 3.03055 -4.6137 0
M  V30 2658 H 256.79 3.26807 -2.93417 0
M  V30 2659 H 257.396 1.85443 -3.82741 0
M  V30 2660 N 255.711 1.52812 0.385517 0
M  V30 2661 C 256.96 1.67249 1.12741 0
M  V30 2662 C 257.273 0.4205 1.91027 0
M  V30 2663 O 258.479 0.445064 2.67827 0
M  V30 2664 C 256.935 2.95583 2.05326 0
M  V30 2665 C 256.543 4.27974 1.32447 0
M  V30 2666 C 258.287 3.19386 2.7963 0
M  V30 2667 C 256.194 5.47412 2.23818 0
M  V30 2668 H 255.124 0.6231 0.424573 0
M  V30 2669 H 257.775 1.79309 0.389924 0
M  V30 2670 H 256.157 2.77277 2.82725 0
M  V30 2671 H 257.331 4.56844 0.602495 0
M  V30 2672 H 255.646 4.10459 0.700885 0
M  V30 2673 H 258.243 4.05801 3.48181 0
M  V30 2674 H 258.586 2.34604 3.43899 0
M  V30 2675 H 259.119 3.38274 2.09322 0
M  V30 2676 H 255.858 6.34612 1.64157 0
M  V30 2677 H 255.378 5.22849 2.93921 0
M  V30 2678 H 257.057 5.81423 2.83824 0
M  V30 2679 N 257.189 -0.644168 1.43834 0
M  V30 2680 C 258.099 -1.78563 1.52159 0
M  V30 2681 C 259.115 -1.69147 0.408069 0
M  V30 2682 O 260.291 -1.90156 0.663524 0
M  V30 2683 C 257.356 -3.14888 1.45073 0
M  V30 2684 C 256.417 -3.36034 2.6717 0
M  V30 2685 C 255.65 -4.65855 2.60413 0
M  V30 2686 O 255.873 -5.45805 1.65689 0
M  V30 2687 O 254.807 -4.88918 3.5106 0
M  V30 2688 H 258.633 -1.74494 2.48567 0
M  V30 2689 H 256.218 -0.80378 1.25935 0
M  V30 2690 H 258.1 -3.96179 1.43597 0
M  V30 2691 H 256.775 -3.19528 0.518037 0
M  V30 2692 H 255.682 -2.54472 2.74217 0
M  V30 2693 H 257.015 -3.36247 3.59442 0
M  V30 2694 N 258.668 -1.30515 -0.883378 0
M  V30 2695 C 259.896 -1.22359 -1.66841 0
M  V30 2696 C 260.311 0.213296 -1.87591 0
M  V30 2697 O 259.668 1.14075 -1.42454 0
M  V30 2698 C 259.719 -1.95011 -3.04389 0
M  V30 2699 O 259.44 -3.3309 -2.84575 0
M  V30 2700 C 260.941 -1.93532 -3.98824 0
M  V30 2701 H 258.161 -0.423371 -0.520575 0
M  V30 2702 H 260.705 -1.72167 -1.10357 0
M  V30 2703 H 258.86 -1.48997 -3.57601 0
M  V30 2704 H 259.274 -3.69907 -3.71846 0
M  V30 2705 H 260.748 -2.48902 -4.92699 0
M  V30 2706 H 261.225 -0.914627 -4.29571 0
M  V30 2707 H 261.831 -2.39364 -3.51547 0
M  V30 2708 N 260.146 1.09593 -1.13257 0
M  V30 2709 C 261.394 1.81375 -0.891492 0
M  V30 2710 C 261.715 1.86049 0.584009 0
M  V30 2711 O 260.985 1.34481 1.42449 0
M  V30 2712 H 259.565 0.671708 -0.326828 0
M  V30 2713 H 262.227 1.3256 -1.42877 0
M  V30 2714 H 261.323 2.84612 -1.28071 0
M  V30 2715 N 261.624 0.925811 1.2754 0
M  V30 2716 C 262.87 0.575575 1.95086 0
M  V30 2717 C 263.225 -0.873246 1.71441 0
M  V30 2718 O 262.518 -1.61443 1.03183 0
M  V30 2719 C 262.712 0.835296 3.47502 0
M  V30 2720 C 262.541 2.30781 3.85967 0
M  V30 2721 C 261.311 2.96017 4.09514 0
M  V30 2722 C 263.509 3.28519 3.95702 0
M  V30 2723 N 261.491 4.3344 4.34744 0
M  V30 2724 C 262.862 4.51146 4.25285 0
M  V30 2725 C 264.917 3.23753 3.7827 0
M  V30 2726 C 263.62 5.69606 4.39251 0
M  V30 2727 C 265.646 4.41523 3.9346 0
M  V30 2728 C 265.008 5.62928 4.23428 0
M  V30 2729 H 261.107 0.260711 0.737261 0
M  V30 2730 H 263.691 1.19204 1.53943 0
M  V30 2731 H 261.862 0.248005 3.87607 0
M  V30 2732 H 263.594 0.447878 4.02214 0
M  V30 2733 H 260.349 2.46695 4.04275 0
M  V30 2734 H 260.773 5.04528 4.5142 0
M  V30 2735 H 265.415 2.3096 3.54143 0
M  V30 2736 H 263.133 6.62866 4.62205 0
M  V30 2737 H 266.719 4.39351 3.81394 0
M  V30 2738 H 265.599 6.52538 4.34929 0
M  V30 2739 N 263.102 -1.41638 0.69111 0
M  V30 2740 C 264.034 -2.29194 -0.0161523 0
M  V30 2741 C 265.047 -1.44549 -0.748955 0
M  V30 2742 O 266.236 -1.681 -0.6004 0
M  V30 2743 C 263.336 -3.22325 -1.0469 0
M  V30 2744 C 262.509 -4.35706 -0.384621 0
M  V30 2745 C 261.568 -5.09443 -1.31737 0
M  V30 2746 O 260.594 -5.63386 -0.811451 0
M  V30 2747 N 261.796 -5.16487 -2.64993 0
M  V30 2748 H 264.561 -2.90534 0.735523 0
M  V30 2749 H 262.122 -1.52742 0.53679 0
M  V30 2750 H 264.114 -3.68522 -1.67252 0
M  V30 2751 H 262.684 -2.62323 -1.70015 0
M  V30 2752 H 261.904 -3.91948 0.420804 0
M  V30 2753 H 263.192 -5.08743 0.0760765 0
M  V30 2754 H 262.59 -4.741 -3.08619 0
M  V30 2755 H 261.147 -5.66276 -3.22761 0
M  V30 2756 N 264.58 -0.43555 -1.51462 0
M  V30 2757 C 265.527 0.376797 -2.27703 0
M  V30 2758 C 266.497 1.01838 -1.31219 0
M  V30 2759 O 267.682 1.03762 -1.60119 0
M  V30 2760 C 264.822 1.47301 -3.12084 0
M  V30 2761 C 263.935 0.849744 -4.2356 0
M  V30 2762 C 263.07 1.92086 -4.95254 0
M  V30 2763 C 262.109 1.27593 -5.98654 0
M  V30 2764 N 261.246 2.28833 -6.63762 0
M  V30 2765 H 266.086 -0.279734 -2.96684 0
M  V30 2766 H 263.623 -0.149795 -1.46335 0
M  V30 2767 H 265.581 2.11984 -3.59331 0
M  V30 2768 H 264.211 2.0992 -2.45221 0
M  V30 2769 H 263.263 0.0912529 -3.80291 0
M  V30 2770 H 264.575 0.338878 -4.97648 0
M  V30 2771 H 263.729 2.64435 -5.46039 0
M  V30 2772 H 262.468 2.46545 -4.20793 0
M  V30 2773 H 261.473 0.537893 -5.47162 0
M  V30 2774 H 262.698 0.738693 -6.7507 0
M  V30 2775 H 260.644 2.82375 -5.92115 0
M  V30 2776 H 260.561 1.82632 -7.33608 0
M  V30 2777 H 261.829 3.00671 -7.19178 0
M  V30 2778 N 266.058 1.56714 -0.166846 0
M  V30 2779 C 267.006 2.19056 0.782123 0
M  V30 2780 C 268 1.15328 1.24079 0
M  V30 2781 O 269.206 1.33537 1.20697 0
M  V30 2782 H 265.581 0.70167 0.270486 0
M  V30 2783 H 267.552 2.97494 0.232322 0
M  V30 2784 C 266.301 2.84206 2.00306 0
M  V30 2785 H 265.624 3.63748 1.65914 0
M  V30 2786 H 267.064 3.31302 2.64604 0
M  V30 2787 C 265.523 1.83744 2.82382 0
M  V30 2788 O 266.053 1.32014 3.79388 0
M  V30 2789 N 264.259 1.52601 2.47308 0
M  V30 2790 H 263.806 1.9486 1.68485 0
M  V30 2791 H 263.764 0.856351 3.02513 0
M  V30 2792 N 267.536 -0.106894 1.57237 0
M  V30 2793 C 268.813 -0.843526 1.76477 0
M  V30 2794 C 269.193 -1.97499 0.745464 0
M  V30 2795 O 268.541 -2.27357 -0.228306 0
M  V30 2796 C 268.751 -1.34903 3.21873 0
M  V30 2797 C 270.099 -1.79654 3.8472 0
M  V30 2798 O 271.123 -1.44554 3.2555 0
M  V30 2799 O 269.982 -2.44515 4.88748 0
M  V30 2800 H 267.076 -0.401468 0.723016 0
M  V30 2801 H 269.622 -0.0896927 1.69463 0
M  V30 2802 H 268.394 -0.53781 3.87586 0
M  V30 2803 H 268.017 -2.16522 3.33473 0
M  V30 2804 N 269.014 -1.53014 -0.377408 0
M  V30 2805 C 270.242 -1.72515 -1.14219 0
M  V30 2806 C 270.657 -0.448735 -1.8339 0
M  V30 2807 O 270.014 0.577592 -1.73119 0
M  V30 2808 C 270.065 -2.8826 -2.18148 0
M  V30 2809 O 269.786 -4.10962 -1.51795 0
M  V30 2810 C 271.287 -3.19536 -3.07264 0
M  V30 2811 H 268.507 -0.577301 -0.342001 0
M  V30 2812 H 271.051 -1.99712 -0.439935 0
M  V30 2813 H 269.206 -2.63492 -2.83991 0
M  V30 2814 H 269.62 -4.75693 -2.20945 0
M  V30 2815 H 271.094 -4.03959 -3.76193 0
M  V30 2816 H 271.571 -2.34403 -3.71419 0
M  V30 2817 H 272.177 -3.46186 -2.47053 0
M  V30 2818 N 270.492 0.636531 -1.44174 0
M  V30 2819 C 271.74 1.39343 -1.46383 0
M  V30 2820 C 272.061 1.94766 -0.0955715 0
M  V30 2821 O 271.331 1.75452 0.871395 0
M  V30 2822 H 269.911 0.517199 -0.538994 0
M  V30 2823 H 272.573 0.74957 -1.7991 0
M  V30 2824 H 271.669 2.22746 -2.18611 0
M  V30 2825 N 271.97 1.30982 0.876444 0
M  V30 2826 C 273.2 1.23063 1.65949 0
M  V30 2827 C 273.608 -0.207537 1.88058 0
M  V30 2828 O 272.951 -1.14781 1.43426 0
M  V30 2829 C 273.013 1.89768 3.05333 0
M  V30 2830 C 272.677 3.39106 3.0636 0
M  V30 2831 C 273.674 4.3496 2.84791 0
M  V30 2832 C 271.359 3.80693 3.27686 0
M  V30 2833 C 273.353 5.70375 2.84519 0
M  V30 2834 C 271.04 5.16223 3.27043 0
M  V30 2835 C 272.038 6.10875 3.05485 0
M  V30 2836 O 271.726 7.43928 3.04674 0
M  V30 2837 H 271.458 0.426685 0.524324 0
M  V30 2838 H 274.012 1.7329 1.10271 0
M  V30 2839 H 272.242 1.34082 3.6271 0
M  V30 2840 H 273.931 1.75853 3.65829 0
M  V30 2841 H 274.697 4.0416 2.68103 0
M  V30 2842 H 270.576 3.07457 3.43499 0
M  V30 2843 H 274.12 6.44228 2.67611 0
M  V30 2844 H 270.017 5.4666 3.43269 0
M  V30 2845 H 270.785 7.53022 3.2078 0
M  V30 2846 N 273.449 -1.08991 1.13837 0
M  V30 2847 C 274.695 -1.81699 0.91417 0
M  V30 2848 C 275.05 -1.84264 -0.553594 0
M  V30 2849 O 274.343 -1.30313 -1.4046 0
M  V30 2850 C 274.537 -3.27042 1.44147 0
M  V30 2851 C 274.366 -3.38637 2.95897 0
M  V30 2852 C 273.136 -3.50177 3.64286 0
M  V30 2853 C 275.334 -3.30791 3.93804 0
M  V30 2854 N 273.316 -3.50501 5.04006 0
M  V30 2855 C 274.687 -3.38037 5.19741 0
M  V30 2856 C 276.742 -3.14488 3.86007 0
M  V30 2857 C 275.445 -3.30659 6.38793 0
M  V30 2858 C 277.471 -3.08438 5.04599 0
M  V30 2859 C 276.833 -3.1628 6.29402 0
M  V30 2860 H 272.932 -0.678967 0.387979 0
M  V30 2861 H 275.516 -1.30224 1.4474 0
M  V30 2862 H 273.687 -3.76976 0.935091 0
M  V30 2863 H 275.419 -3.87785 1.1578 0
M  V30 2864 H 272.174 -3.53815 3.1482 0
M  V30 2865 H 272.598 -3.54236 5.76928 0
M  V30 2866 H 277.24 -3.07291 2.90399 0
M  V30 2867 H 274.958 -3.36618 7.34652 0
M  V30 2868 H 278.544 -2.96952 5.0031 0
M  V30 2869 H 277.424 -3.1162 7.19627 0
M  V30 2870 N 274.927 -0.932562 -1.27047 0
M  V30 2871 C 276.157 -0.591173 -1.97961 0
M  V30 2872 C 276.565 0.836219 -1.69717 0
M  V30 2873 O 275.908 1.56801 -0.957036 0
M  V30 2874 C 275.97 -0.743082 -3.51736 0
M  V30 2875 C 275.634 -2.1435 -4.03613 0
M  V30 2876 C 276.631 -3.11815 -4.16014 0
M  V30 2877 C 274.316 -2.46175 -4.37839 0
M  V30 2878 C 276.31 -4.39211 -4.61923 0
M  V30 2879 C 273.997 -3.73806 -4.83438 0
M  V30 2880 C 274.995 -4.70137 -4.95439 0
M  V30 2881 O 274.683 -5.95496 -5.40037 0
M  V30 2882 H 274.415 -0.222375 -0.638377 0
M  V30 2883 H 276.969 -1.25317 -1.62742 0
M  V30 2884 H 275.199 -0.0239739 -3.86693 0
M  V30 2885 H 276.888 -0.40603 -4.03864 0
M  V30 2886 H 277.654 -2.88549 -3.89826 0
M  V30 2887 H 273.533 -1.71936 -4.27737 0
M  V30 2888 H 277.077 -5.14404 -4.71205 0
M  V30 2889 H 272.974 -3.96888 -5.09068 0
M  V30 2890 H 273.742 -5.98554 -5.58279 0
M  V30 2891 N 276.405 1.4127 -0.698611 0
M  V30 2892 C 277.651 2.01478 -0.231207 0
M  V30 2893 C 277.984 1.55215 1.16713 0
M  V30 2894 O 277.259 0.764672 1.78838 0
M  V30 2895 C 277.542 3.58912 -0.292281 0
M  V30 2896 C 277.395 4.15293 -1.72778 0
M  V30 2897 C 278.714 4.38736 0.346194 0
M  V30 2898 H 275.833 0.732025 -0.0854878 0
M  V30 2899 H 278.475 1.67977 -0.887906 0
M  V30 2900 H 276.625 3.87582 0.26686 0
M  V30 2901 H 278.297 3.97486 -2.341 0
M  V30 2902 H 276.54 3.7022 -2.26096 0
M  V30 2903 H 277.211 5.24452 -1.72202 0
M  V30 2904 H 279.687 4.15897 -0.130035 0
M  V30 2905 H 278.563 5.48221 0.272932 0
M  V30 2906 H 278.824 4.18425 1.42734 0
M  V30 2907 N 277.883 0.443576 1.51229 0
M  V30 2908 C 278.833 -0.382787 2.24764 0
M  V30 2909 C 279.817 -0.984836 1.27239 0
M  V30 2910 O 281.009 -0.901943 1.52296 0
M  V30 2911 C 278.138 -1.47989 3.09765 0
M  V30 2912 C 277.224 -0.886931 4.14722 0
M  V30 2913 N 277.615 -0.0237103 5.05794 0
M  V30 2914 C 275.913 -1.15385 4.30816 0
M  V30 2915 C 276.614 0.309971 5.80874 0
M  V30 2916 N 275.59 -0.307989 5.42727 0
M  V30 2917 H 279.392 0.282624 2.92538 0
M  V30 2918 H 276.906 0.256027 1.60369 0
M  V30 2919 H 278.903 -2.08482 3.61027 0
M  V30 2920 H 277.563 -2.14758 2.43535 0
M  V30 2921 H 278.574 0.34318 5.16762 0
M  V30 2922 H 275.251 -1.81857 3.75812 0
M  V30 2923 H 276.641 1.01279 6.64223 0
M  V30 2924 N 279.361 -1.56624 0.175154 0
M  V30 2925 C 280.586 -2.01813 -0.478137 0
M  V30 2926 C 281.011 -1.05457 -1.55757 0
M  V30 2927 O 280.369 -0.0347439 -1.81267 0
M  V30 2928 C 280.417 -3.45581 -1.02987 0
M  V30 2929 O 279.521 -3.52305 -2.14371 0
M  V30 2930 H 278.862 -0.65413 -0.114059 0
M  V30 2931 H 281.392 -2.02673 0.280173 0
M  V30 2932 H 281.402 -3.84965 -1.35151 0
M  V30 2933 H 280.077 -4.1521 -0.239556 0
M  V30 2934 H 278.654 -3.24783 -1.83222 0
M  V30 2935 N 280.839 0.0985539 -1.57292 0
M  V30 2936 C 282.116 0.834155 -1.76921 0
M  V30 2937 C 282.496 1.97101 -0.755928 0
M  V30 2938 O 281.844 2.27474 0.216245 0
M  V30 2939 C 282.054 1.33194 -3.22584 0
M  V30 2940 C 283.402 1.77611 -3.85668 0
M  V30 2941 O 284.426 1.42825 -3.26312 0
M  V30 2942 O 283.285 2.4192 -4.90038 0
M  V30 2943 H 280.379 0.397628 -0.725135 0
M  V30 2944 H 282.925 0.0807044 -1.69508 0
M  V30 2945 H 281.697 0.517248 -3.87866 0
M  V30 2946 H 281.32 2.1475 -3.34616 0
M  V30 2947 N 282.317 1.53212 0.369288 0
M  V30 2948 C 283.565 1.68881 1.11012 0
M  V30 2949 C 283.886 0.441285 1.89941 0
M  V30 2950 O 283.156 -0.544623 1.88177 0
M  V30 2951 H 281.736 0.622569 0.412816 0
M  V30 2952 H 284.398 1.90391 0.416802 0
M  V30 2953 H 283.494 2.54822 1.80201 0
M  V30 2954 N 283.795 -0.628877 1.44509 0
M  V30 2955 C 285.02 -1.42048 1.5112 0
M  V30 2956 C 285.445 -1.87594 0.137818 0
M  V30 2957 O 284.803 -1.58873 -0.873437 0
M  V30 2958 C 284.851 -2.61541 2.48251 0
M  V30 2959 O 283.955 -3.61453 1.98559 0
M  V30 2960 H 283.296 -0.424942 0.510216 0
M  V30 2961 H 285.826 -0.767374 1.89664 0
M  V30 2962 H 285.836 -3.09057 2.66361 0
M  V30 2963 H 284.511 -2.27736 3.48007 0
M  V30 2964 H 283.088 -3.20731 1.90227 0
M  V30 2965 N 285.273 -1.31445 -0.869486 0
M  V30 2966 C 286.503 -1.23942 -1.65294 0
M  V30 2967 C 286.911 0.197561 -1.88166 0
M  V30 2968 O 286.254 1.14019 -1.44033 0
M  V30 2969 C 286.316 -1.91385 -3.04322 0
M  V30 2970 C 285.98 -3.40726 -3.04557 0
M  V30 2971 C 286.977 -4.36464 -2.82481 0
M  V30 2972 C 284.662 -3.82425 -3.25663 0
M  V30 2973 C 286.656 -5.71876 -2.8149 0
M  V30 2974 C 284.343 -5.1795 -3.243 0
M  V30 2975 C 285.341 -6.12486 -3.02241 0
M  V30 2976 O 285.029 -7.45534 -3.00724 0
M  V30 2977 H 284.761 -0.429459 -0.522054 0
M  V30 2978 H 287.315 -1.73873 -1.0935 0
M  V30 2979 H 285.545 -1.36004 -3.61994 0
M  V30 2980 H 287.234 -1.77791 -3.64891 0
M  V30 2981 H 288 -4.05576 -2.65956 0
M  V30 2982 H 283.879 -3.09274 -3.41863 0
M  V30 2983 H 287.423 -6.45638 -2.64191 0
M  V30 2984 H 283.32 -5.48473 -3.40365 0
M  V30 2985 H 284.088 -7.54713 -3.16782 0
M  V30 2986 N 286.751 1.08385 -1.14413 0
M  V30 2987 C 288.162 1.62258 -0.923535 0
M  V30 2988 C 288.513 1.88691 0.537595 0
M  V30 2989 O 287.638 1.64454 1.40655 0
M  V30 2990 C 288.233 2.94781 -1.67002 0
M  V30 2991 C 286.792 3.45437 -1.495 0
M  V30 2992 C 285.939 2.19668 -1.69238 0
M  V30 2993 H 288.89 0.916086 -1.2959 0
M  V30 2994 H 288.911 3.63229 -1.13334 0
M  V30 2995 H 288.423 2.7551 -2.73342 0
M  V30 2996 H 286.524 3.6981 -0.455097 0
M  V30 2997 H 286.637 4.22173 -2.2651 0
M  V30 2998 H 285.001 2.28849 -1.11804 0
M  V30 2999 H 285.784 2.02905 -2.7692 0
M  V30 3000 N 288.23 0.939286 1.26551 0
M  V30 3001 C 289.177 0.446088 2.26448 0
M  V30 3002 C 290.147 -0.493234 1.58608 0
M  V30 3003 O 291.332 -0.409857 1.86346 0
M  V30 3004 C 288.472 -0.284375 3.43926 0
M  V30 3005 C 287.585 0.690399 4.26448 0
M  V30 3006 C 286.72 -0.0610712 5.31165 0
M  V30 3007 C 285.759 0.905649 6.05363 0
M  V30 3008 N 284.896 0.186055 7.01853 0
M  V30 3009 H 289.736 1.30291 2.68008 0
M  V30 3010 H 287.273 0.65371 1.31776 0
M  V30 3011 H 289.231 -0.724313 4.10864 0
M  V30 3012 H 287.861 -1.10535 3.03285 0
M  V30 3013 H 286.913 1.24885 3.59316 0
M  V30 3014 H 288.225 1.42873 4.779 0
M  V30 3015 H 287.379 -0.56038 6.04106 0
M  V30 3016 H 286.118 -0.832297 4.80546 0
M  V30 3017 H 285.123 1.4161 5.3125 0
M  V30 3018 H 286.348 1.67685 6.58072 0
M  V30 3019 H 284.294 -0.566714 6.53548 0
M  V30 3020 H 284.211 0.863752 7.51049 0
M  V30 3021 H 285.479 -0.292221 7.78952 0
M  V30 3022 N 289.708 -1.40897 0.706093 0
M  V30 3023 C 290.985 -1.94868 0.169099 0
M  V30 3024 C 291.365 -1.64485 -1.32318 0
M  V30 3025 O 290.713 -0.95744 -2.07474 0
M  V30 3026 C 290.923 -3.45798 0.471654 0
M  V30 3027 C 292.271 -4.22663 0.405127 0
M  V30 3028 O 293.295 -3.53865 0.407168 0
M  V30 3029 O 292.154 -5.45216 0.374383 0
M  V30 3030 H 289.248 -0.82673 0.0211352 0
M  V30 3031 H 291.794 -1.50558 0.782976 0
M  V30 3032 H 290.566 -3.61235 1.50416 0
M  V30 3033 H 290.189 -3.97225 -0.172666 0
M  V30 3034 N 291.186 -0.45159 -1.50991 0
M  V30 3035 C 292.133 0.352625 -2.2809 0
M  V30 3036 C 293.103 1.0044 -1.32291 0
M  V30 3037 O 294.288 1.02058 -1.6121 0
M  V30 3038 C 291.428 1.43983 -3.13629 0
M  V30 3039 C 290.541 0.804772 -4.24438 0
M  V30 3040 C 289.676 1.86822 -4.97263 0
M  V30 3041 C 288.715 1.21236 -5.99973 0
M  V30 3042 N 287.852 2.2178 -6.66152 0
M  V30 3043 H 292.692 -0.311186 -2.96371 0
M  V30 3044 H 290.229 -0.165308 -1.46168 0
M  V30 3045 H 292.187 2.08161 -3.61559 0
M  V30 3046 H 290.817 2.07307 -2.47434 0
M  V30 3047 H 289.869 0.0509129 -3.80366 0
M  V30 3048 H 291.181 0.286076 -4.97979 0
M  V30 3049 H 290.335 2.58628 -5.48813 0
M  V30 3050 H 289.074 2.42068 -4.23385 0
M  V30 3051 H 288.079 0.479828 -5.47702 0
M  V30 3052 H 289.304 0.667051 -6.75816 0
M  V30 3053 H 287.25 2.76079 -5.95077 0
M  V30 3054 H 287.167 1.74841 -7.35504 0
M  V30 3055 H 288.435 2.93026 -7.22327 0
M  V30 3056 N 292.664 1.56529 -0.183458 0
M  V30 3057 C 293.911 1.97244 0.458357 0
M  V30 3058 C 294.239 1.06992 1.62428 0
M  V30 3059 O 293.494 0.106542 1.9541 0
M  V30 3060 C 293.793 3.43939 0.971637 0
M  V30 3061 C 293.459 4.5083 -0.0796784 0
M  V30 3062 C 292.121 4.79786 -0.368584 0
M  V30 3063 C 294.473 5.15138 -0.792638 0
M  V30 3064 C 291.801 5.70345 -1.37563 0
M  V30 3065 C 294.153 6.06784 -1.78875 0
M  V30 3066 C 292.817 6.34102 -2.08497 0
M  V30 3067 H 292.087 0.721768 0.167725 0
M  V30 3068 H 294.734 1.89472 -0.277976 0
M  V30 3069 H 293.039 3.48724 1.78602 0
M  V30 3070 H 294.736 3.72791 1.47744 0
M  V30 3071 H 291.326 4.28317 0.155668 0
M  V30 3072 H 295.51 4.92868 -0.582659 0
M  V30 3073 H 290.766 5.89789 -1.61118 0
M  V30 3074 H 294.94 6.55677 -2.3465 0
M  V30 3075 H 292.567 7.04074 -2.86678 0
M  V30 3076 N 294.142 -0.090211 1.57342 0
M  V30 3077 C 295.052 -1.12735 2.05738 0
M  V30 3078 C 296.068 -1.43557 0.983231 0
M  V30 3079 O 297.244 -1.54101 1.29672 0
M  V30 3080 C 294.309 -2.42659 2.47624 0
M  V30 3081 C 293.37 -2.18975 3.69254 0
M  V30 3082 C 292.603 -3.42704 4.09133 0
M  V30 3083 O 292.826 -4.51127 3.49057 0
M  V30 3084 O 291.76 -3.32003 5.02053 0
M  V30 3085 H 295.586 -0.746279 2.94388 0
M  V30 3086 H 293.171 -0.303064 1.46294 0
M  V30 3087 H 295.053 -3.19155 2.7517 0
M  V30 3088 H 293.728 -2.80182 1.62109 0
M  V30 3089 H 292.635 -1.40244 3.46818 0
M  V30 3090 H 293.968 -1.86342 4.55563 0
M  V30 3091 N 295.62 -1.53406 -0.361157 0
M  V30 3092 C 296.567 -1.80156 -1.44265 0
M  V30 3093 C 297.537 -0.646183 -1.53015 0
M  V30 3094 O 298.722 -0.888818 -1.68833 0
M  V30 3095 C 295.862 -2.00116 -2.81154 0
M  V30 3096 C 294.975 -3.27833 -2.81335 0
M  V30 3097 C 294.11 -3.37957 -4.09828 0
M  V30 3098 C 293.149 -4.59689 -4.04168 0
M  V30 3099 N 292.286 -4.66942 -5.24318 0
M  V30 3100 H 297.126 -2.72438 -1.20754 0
M  V30 3101 H 294.663 -1.34954 -0.585296 0
M  V30 3102 H 296.621 -2.09677 -3.60682 0
M  V30 3103 H 295.251 -1.11167 -3.03054 0
M  V30 3104 H 294.303 -3.27204 -1.94014 0
M  V30 3105 H 295.615 -4.17442 -2.73027 0
M  V30 3106 H 294.769 -3.46853 -4.97773 0
M  V30 3107 H 293.508 -2.46372 -4.20894 0
M  V30 3108 H 292.513 -4.50889 -3.14609 0
M  V30 3109 H 293.738 -5.5262 -3.947 0
M  V30 3110 H 291.684 -3.7826 -5.35962 0
M  V30 3111 H 291.601 -5.50462 -5.18197 0
M  V30 3112 H 292.869 -4.80127 -6.14084 0
M  V30 3113 N 297.098 0.621204 -1.44841 0
M  V30 3114 C 298.347 1.37658 -1.47422 0
M  V30 3115 C 298.66 1.95264 -0.114629 0
M  V30 3116 O 299.866 2.71494 -0.0180199 0
M  V30 3117 C 298.322 2.49285 -2.59586 0
M  V30 3118 C 297.93 1.98149 -4.01797 0
M  V30 3119 C 299.674 3.26409 -2.71399 0
M  V30 3120 C 297.581 3.07178 -5.05367 0
M  V30 3121 H 296.511 0.517344 -0.548517 0
M  V30 3122 H 299.162 0.667257 -1.70938 0
M  V30 3123 H 297.544 3.22839 -2.29328 0
M  V30 3124 H 298.718 1.31395 -4.41669 0
M  V30 3125 H 297.033 1.33812 -3.94314 0
M  V30 3126 H 299.63 4.07706 -3.45948 0
M  V30 3127 H 299.973 3.76535 -1.77559 0
M  V30 3128 H 300.506 2.5995 -3.01116 0
M  V30 3129 H 297.245 2.61985 -6.00869 0
M  V30 3130 H 296.765 3.72542 -4.70077 0
M  V30 3131 H 298.444 3.71789 -5.29511 0
M  V30 3132 N 298.576 1.31904 0.862503 0
M  V30 3133 C 299.524 1.20125 1.9918 0
M  V30 3134 C 300.518 0.107824 1.69056 0
M  V30 3135 O 301.724 0.270223 1.7796 0
M  V30 3136 H 298.099 0.372148 0.65346 0
M  V30 3137 H 300.07 2.15652 2.06244 0
M  V30 3138 C 298.819 0.933099 3.34946 0
M  V30 3139 H 298.142 1.76664 3.5865 0
M  V30 3140 H 299.582 0.890892 4.14535 0
M  V30 3141 C 298.041 -0.364172 3.34926 0
M  V30 3142 O 298.571 -1.37858 3.77304 0
M  V30 3143 N 296.777 -0.383362 2.8806 0
M  V30 3144 H 296.324 0.442651 2.53768 0
M  V30 3145 H 296.282 -1.25123 2.8843 0
M  V30 3146 N 300.054 -1.07777 1.14986 0
M  V30 3147 C 301.302 -1.79934 0.920235 0
M  V30 3148 C 301.623 -1.86955 -0.554336 0
M  V30 3149 O 300.893 -1.36731 -1.40291 0
M  V30 3150 H 299.473 -0.666424 0.337473 0
M  V30 3151 H 302.135 -1.3027 1.44968 0
M  V30 3152 H 301.231 -2.82539 1.32583 0
M  V30 3153 N 301.532 -0.945985 -1.26051 0
M  V30 3154 C 302.76 -0.613025 -1.9761 0
M  V30 3155 C 303.175 0.813035 -1.70397 0
M  V30 3156 O 302.532 1.54274 -0.974979 0
M  V30 3157 C 302.583 -0.85159 -3.51326 0
M  V30 3158 O 302.304 -2.22157 -3.77595 0
M  V30 3159 C 303.805 -0.529831 -4.40122 0
M  V30 3160 H 301.025 -0.230593 -0.630133 0
M  V30 3161 H 303.569 -1.268 -1.60443 0
M  V30 3162 H 301.724 -0.243151 -3.86636 0
M  V30 3163 H 302.138 -2.2852 -4.721 0
M  V30 3164 H 303.612 -0.747348 -5.46917 0
M  V30 3165 H 304.089 0.535341 -4.35925 0
M  V30 3166 H 304.695 -1.11721 -4.10364 0
M  V30 3167 N 303.011 1.40521 -0.713556 0
M  V30 3168 C 304.257 2.01714 -0.261382 0
M  V30 3169 C 304.612 1.55562 1.13217 0
M  V30 3170 O 303.905 0.764893 1.7567 0
M  V30 3171 C 304.099 3.56317 -0.278 0
M  V30 3172 C 303.928 4.17476 -1.67163 0
M  V30 3173 C 302.698 4.50998 -2.2788 0
M  V30 3174 C 304.896 4.42472 -2.6215 0
M  V30 3175 N 302.878 4.9754 -3.5962 0
M  V30 3176 C 304.249 4.90985 -3.78594 0
M  V30 3177 C 306.304 4.24508 -2.60188 0
M  V30 3178 C 305.007 5.2342 -4.9338 0
M  V30 3179 C 307.033 4.58043 -3.741 0
M  V30 3180 C 306.395 5.06743 -4.89276 0
M  V30 3181 H 302.494 0.769104 -0.141434 0
M  V30 3182 H 305.078 1.70785 -0.934915 0
M  V30 3183 H 303.249 3.8668 0.36509 0
M  V30 3184 H 304.981 4.0425 0.190695 0
M  V30 3185 H 301.736 4.38062 -1.79997 0
M  V30 3186 H 302.16 5.25196 -4.27198 0
M  V30 3187 H 306.802 3.86078 -1.72348 0
M  V30 3188 H 304.52 5.60765 -5.81866 0
M  V30 3189 H 308.106 4.45785 -3.73854 0
M  V30 3190 H 306.986 5.32204 -5.75959 0
M  V30 3191 N 304.489 0.459591 1.5075 0
M  V30 3192 C 305.719 -0.0972338 2.06371 0
M  V30 3193 C 306.127 -1.35074 1.32483 0
M  V30 3194 O 305.47 -1.79637 0.384226 0
M  V30 3195 C 305.532 -0.462759 3.56509 0
M  V30 3196 C 305.196 0.687084 4.51805 0
M  V30 3197 C 306.193 1.56578 4.95761 0
M  V30 3198 C 303.878 0.874144 4.94635 0
M  V30 3199 C 305.872 2.61604 5.81242 0
M  V30 3200 C 303.559 1.92765 5.79901 0
M  V30 3201 C 304.557 2.79697 6.23104 0
M  V30 3202 O 304.245 3.83235 7.06673 0
M  V30 3203 H 303.977 -0.00140687 0.675999 0
M  V30 3204 H 306.531 0.644011 1.95043 0
M  V30 3205 H 304.761 -1.25703 3.65699 0
M  V30 3206 H 306.45 -0.953323 3.94546 0
M  V30 3207 H 307.216 1.4329 4.6335 0
M  V30 3208 H 303.095 0.207006 4.60535 0
M  V30 3209 H 306.639 3.29489 6.14884 0
M  V30 3210 H 302.536 2.06064 6.11725 0
M  V30 3211 H 303.304 3.80084 7.24899 0
M  V30 3212 N 305.967 -1.56429 0.191757 0
M  V30 3213 C 307.197 -2.01574 -0.452928 0
M  V30 3214 C 307.605 -1.07107 -1.55964 0
M  V30 3215 O 306.948 -0.067534 -1.83576 0
M  V30 3216 C 307.01 -3.43121 -1.07278 0
M  V30 3217 C 306.674 -4.56879 -0.105214 0
M  V30 3218 C 307.671 -5.15379 0.684149 0
M  V30 3219 C 305.356 -5.023 0.00489824 0
M  V30 3220 C 307.35 -6.17746 1.57062 0
M  V30 3221 C 305.037 -6.04511 0.894935 0
M  V30 3222 C 306.035 -6.62108 1.67637 0
M  V30 3223 O 305.723 -7.62335 2.55149 0
M  V30 3224 H 305.455 -0.665554 -0.118379 0
M  V30 3225 H 308.009 -2.03245 0.296737 0
M  V30 3226 H 306.239 -3.38425 -1.87097 0
M  V30 3227 H 307.928 -3.72093 -1.62177 0
M  V30 3228 H 308.694 -4.81157 0.609365 0
M  V30 3229 H 304.573 -4.57168 -0.593156 0
M  V30 3230 H 308.117 -6.6263 2.181 0
M  V30 3231 H 304.014 -6.38157 0.970847 0
M  V30 3232 H 304.782 -7.79741 2.48892 0
M  V30 3233 N 307.445 0.0818655 -1.57387 0
M  V30 3234 C 308.692 0.782914 -1.86753 0
M  V30 3235 C 309.02 1.78082 -0.782118 0
M  V30 3236 O 308.275 1.94426 0.22295 0
M  V30 3237 C 308.574 1.53513 -3.22752 0
M  V30 3238 C 308.24 0.678134 -4.45771 0
M  V30 3239 C 306.902 0.441929 -4.79166 0
M  V30 3240 C 309.254 0.0832243 -5.21134 0
M  V30 3241 C 306.582 -0.398833 -5.85343 0
M  V30 3242 C 308.934 -0.744935 -6.28199 0
M  V30 3243 C 307.598 -0.991107 -6.60101 0
M  V30 3244 H 306.868 0.286489 -0.683378 0
M  V30 3245 H 309.515 0.0439808 -1.91449 0
M  V30 3246 H 307.82 2.34599 -3.138 0
M  V30 3247 H 309.517 2.08218 -3.42705 0
M  V30 3248 H 306.107 0.872357 -4.19628 0
M  V30 3249 H 310.291 0.252847 -4.95655 0
M  V30 3250 H 305.547 -0.598405 -6.08465 0
M  V30 3251 H 309.721 -1.21271 -6.8576 0
M  V30 3252 H 307.348 -1.64437 -7.42202 0
M  V30 3253 N 308.923 1.53595 0.353017 0
M  V30 3254 C 310.2 1.61002 1.11075 0
M  V30 3255 C 310.58 0.425356 2.0677 0
M  V30 3256 O 309.928 -0.583267 2.2093 0
M  V30 3257 C 310.138 2.96631 1.83877 0
M  V30 3258 C 311.486 3.51653 2.37961 0
M  V30 3259 O 312.51 2.98743 1.93987 0
M  V30 3260 O 311.369 4.44177 3.18386 0
M  V30 3261 H 308.463 0.650825 0.510251 0
M  V30 3262 H 311.009 1.6594 0.35527 0
M  V30 3263 H 309.781 3.74293 1.14108 0
M  V30 3264 H 309.404 2.95242 2.66304 0
M  V30 3265 N 310.401 -0.613514 1.45168 0
M  V30 3266 C 311.626 -1.40437 1.52618 0
M  V30 3267 C 312.051 -1.87438 0.157707 0
M  V30 3268 O 311.409 -1.59791 -0.856537 0
M  V30 3269 C 311.457 -2.58894 2.51011 0
M  V30 3270 O 310.561 -3.59326 2.02382 0
M  V30 3271 H 309.902 -0.419506 0.514695 0
M  V30 3272 H 312.432 -0.747215 1.90467 0
M  V30 3273 H 312.442 -3.06214 2.69624 0
M  V30 3274 H 311.117 -2.24032 3.50403 0
M  V30 3275 H 309.694 -3.18695 1.93618 0
M  V30 3276 N 311.879 -1.3236 -0.855495 0
M  V30 3277 C 313.104 -1.2601 -1.64731 0
M  V30 3278 C 313.529 0.169068 -1.87339 0
M  V30 3279 O 312.887 1.12016 -1.42556 0
M  V30 3280 C 312.935 -2.02417 -2.98429 0
M  V30 3281 O 312.039 -1.3714 -3.8893 0
M  V30 3282 H 311.38 -0.434325 -0.502253 0
M  V30 3283 H 313.91 -1.74661 -1.06558 0
M  V30 3284 H 313.92 -2.12559 -3.48257 0
M  V30 3285 H 312.595 -3.06343 -2.81295 0
M  V30 3286 H 311.172 -1.3554 -3.47395 0
M  V30 3287 N 313.357 1.07166 -1.15556 0
M  V30 3288 C 314.605 1.79443 -0.929764 0
M  V30 3289 C 314.926 1.87246 0.544414 0
M  V30 3290 O 314.196 1.37473 1.39564 0
M  V30 3291 H 312.776 0.664625 -0.341003 0
M  V30 3292 H 315.438 1.29499 -1.45657 0
M  V30 3293 H 314.534 2.81832 -1.34079 0
M  V30 3294 N 314.835 0.952656 1.25548 0
M  V30 3295 C 316.065 0.622592 1.96996 0
M  V30 3296 C 316.473 -0.809112 1.71026 0
M  V30 3297 O 315.816 -1.55258 0.981861 0
M  V30 3298 C 315.878 0.798946 3.5051 0
M  V30 3299 C 315.542 2.20744 4.00151 0
M  V30 3300 C 316.539 3.18394 4.11001 0
M  V30 3301 C 314.224 2.5311 4.33867 0
M  V30 3302 C 316.218 4.46504 4.54877 0
M  V30 3303 C 313.905 3.8145 4.7743 0
M  V30 3304 C 314.903 4.77959 4.87897 0
M  V30 3305 O 314.591 6.04012 5.30494 0
M  V30 3306 H 314.323 0.232503 0.634758 0
M  V30 3307 H 316.877 1.2789 1.60728 0
M  V30 3308 H 315.107 0.0854903 3.86605 0
M  V30 3309 H 316.796 0.47023 4.03167 0
M  V30 3310 H 317.562 2.94715 3.85186 0
M  V30 3311 H 313.441 1.78719 4.24948 0
M  V30 3312 H 316.985 5.21835 4.62962 0
M  V30 3313 H 312.882 4.04936 5.0269 0
M  V30 3314 H 313.65 6.0736 5.48685 0
M  V30 3315 N 316.313 -1.40141 0.720998 0
M  V30 3316 C 317.246 -2.2819 0.020916 0
M  V30 3317 C 318.224 -1.43633 -0.762129 0
M  V30 3318 O 319.408 -1.7304 -0.747633 0
M  V30 3319 C 316.535 -3.24281 -0.977715 0
M  V30 3320 C 315.581 -4.25548 -0.284836 0
M  V30 3321 S 316.414 -5.26247 0.991169 0
M  V30 3322 C 317.57 -6.259 -0.0052214 0
M  V30 3323 H 317.803 -2.87218 0.767649 0
M  V30 3324 H 315.336 -1.45656 0.512233 0
M  V30 3325 H 317.294 -3.80167 -1.54865 0
M  V30 3326 H 315.955 -2.643 -1.69719 0
M  V30 3327 H 315.148 -4.93154 -1.03996 0
M  V30 3328 H 314.75 -3.73389 0.213684 0
M  V30 3329 H 317.042 -6.72143 -0.850279 0
M  V30 3330 H 317.985 -7.05224 0.637599 0
M  V30 3331 H 318.393 -5.63277 -0.371366 0
M  V30 3332 N 317.792 -0.46758 -1.50504 0
M  V30 3333 C 318.722 0.318381 -2.31319 0
M  V30 3334 C 319.703 0.993564 -1.38066 0
M  V30 3335 O 320.888 0.991411 -1.66987 0
M  V30 3336 C 318.018 1.40275 -3.17711 0
M  V30 3337 C 316.972 0.849373 -4.19487 0
M  V30 3338 C 316.298 2.03177 -4.94594 0
M  V30 3339 C 317.598 -0.136942 -5.2212 0
M  V30 3340 H 319.292 -0.356106 -2.97275 0
M  V30 3341 H 316.838 -0.172703 -1.42961 0
M  V30 3342 H 318.791 1.96004 -3.73042 0
M  V30 3343 H 317.515 2.10596 -2.49634 0
M  V30 3344 H 316.174 0.314076 -3.65252 0
M  V30 3345 H 315.822 2.72187 -4.22993 0
M  V30 3346 H 315.522 1.66774 -5.63436 0
M  V30 3347 H 317.046 2.59403 -5.52759 0
M  V30 3348 H 318.46 0.331056 -5.72343 0
M  V30 3349 H 316.857 -0.41507 -5.98663 0
M  V30 3350 H 317.927 -1.06398 -4.73083 0
M  V30 3351 N 319.27 1.56325 -0.20005 0
M  V30 3352 C 320.233 2.18084 0.705132 0
M  V30 3353 C 321.233 1.13666 1.1374 0
M  V30 3354 O 322.423 1.39023 1.04968 0
M  V30 3355 C 319.555 2.78689 1.96329 0
M  V30 3356 H 320.748 2.99435 0.167023 0
M  V30 3357 H 318.301 1.56221 0.0495725 0
M  V30 3358 H 319.036 2.0115 2.5438 0
M  V30 3359 H 318.821 3.55133 1.66202 0
M  V30 3360 H 320.311 3.26096 2.60866 0
M  V30 3361 N 320.748 -0.0735177 1.57428 0
M  V30 3362 C 322.025 -0.805903 1.78226 0
M  V30 3363 C 322.405 -1.95874 0.787189 0
M  V30 3364 O 321.753 -2.2779 -0.180029 0
M  V30 3365 C 321.963 -1.28045 3.24662 0
M  V30 3366 C 323.311 -1.71453 3.88444 0
M  V30 3367 O 324.335 -1.37616 3.28543 0
M  V30 3368 O 323.194 -2.34093 4.93825 0
M  V30 3369 H 320.288 -0.386041 0.73137 0
M  V30 3370 H 322.834 -0.0537269 1.69615 0
M  V30 3371 H 321.606 -0.455476 3.8864 0
M  V30 3372 H 321.229 -2.094 3.37991 0
M  V30 3373 N 322.226 -1.5378 -0.344866 0
M  V30 3374 C 323.642 -1.44015 -0.687888 0
M  V30 3375 C 323.842 -0.595834 -1.92489 0
M  V30 3376 O 322.898 -0.0863064 -2.52352 0
M  V30 3377 C 324.211 -2.87481 -0.881758 0
M  V30 3378 C 325.759 -2.97247 -0.980459 0
M  V30 3379 C 326.234 -4.41819 -1.20665 0
M  V30 3380 N 327.725 -4.45339 -1.27389 0
M  V30 3381 C 328.46 -5.54333 -1.46639 0
M  V30 3382 N 327.956 -6.73335 -1.63071 0
M  V30 3383 N 329.749 -5.41944 -1.49176 0
M  V30 3384 H 321.9 -2.07169 0.468475 0
M  V30 3385 H 324.163 -0.93643 0.147655 0
M  V30 3386 H 323.869 -3.51672 -0.0443444 0
M  V30 3387 H 323.743 -3.32352 -1.78388 0
M  V30 3388 H 326.13 -2.33197 -1.8084 0
M  V30 3389 H 326.211 -2.5574 -0.0552713 0
M  V30 3390 H 325.855 -5.06449 -0.383652 0
M  V30 3391 H 325.785 -4.80917 -2.14539 0
M  V30 3392 H 328.276 -3.59585 -1.1622 0
M  V30 3393 H 328.589 -7.52165 -1.77391 0
M  V30 3394 H 326.934 -6.76282 -1.60209 0
M  V30 3395 H 330.125 -4.47932 -1.3592 0
M  V30 3396 H 330.298 -6.26946 -1.63837 0
M  V30 3397 N 323.704 0.605807 -1.45491 0
M  V30 3398 C 324.95 1.36481 -1.50813 0
M  V30 3399 C 325.305 1.91826 -0.148469 0
M  V30 3400 O 324.598 1.72211 0.839869 0
M  V30 3401 C 324.792 2.53012 -2.52428 0
M  V30 3402 C 324.621 2.09078 -3.98141 0
M  V30 3403 C 323.391 1.95167 -4.66088 0
M  V30 3404 C 325.589 1.66438 -4.86624 0
M  V30 3405 N 323.571 1.45062 -5.96515 0
M  V30 3406 C 324.942 1.27761 -6.06694 0
M  V30 3407 C 326.997 1.54046 -4.7347 0
M  V30 3408 C 325.7 0.779286 -7.15066 0
M  V30 3409 C 327.726 1.05618 -5.81892 0
M  V30 3410 C 327.088 0.67906 -7.01119 0
M  V30 3411 H 323.187 0.493267 -0.606805 0
M  V30 3412 H 325.771 0.692347 -1.81974 0
M  V30 3413 H 323.942 3.17851 -2.23215 0
M  V30 3414 H 325.674 3.19897 -2.47887 0
M  V30 3415 H 322.429 2.16407 -4.21266 0
M  V30 3416 H 322.853 1.22237 -6.65873 0
M  V30 3417 H 327.495 1.81827 -3.81705 0
M  V30 3418 H 325.213 0.489026 -8.06619 0
M  V30 3419 H 328.799 0.964529 -5.73749 0
M  V30 3420 H 327.679 0.310091 -7.83587 0
M  V30 3421 N 325.182 1.32811 0.848464 0
M  V30 3422 C 326.598 1.11937 1.13764 0
M  V30 3423 C 326.798 -0.0960789 2.01271 0
M  V30 3424 O 325.854 -0.779165 2.40178 0
M  V30 3425 C 327.167 2.402 1.809 0
M  V30 3426 C 328.715 2.46016 1.93508 0
M  V30 3427 C 329.19 3.74215 2.64059 0
M  V30 3428 N 330.681 3.75232 2.71579 0
M  V30 3429 C 331.416 4.71134 3.26833 0
M  V30 3430 N 330.912 5.77406 3.8285 0
M  V30 3431 N 332.705 4.58623 3.24995 0
M  V30 3432 H 324.856 2.1073 0.265855 0
M  V30 3433 H 327.119 0.930671 0.180431 0
M  V30 3434 H 326.825 3.29093 1.24058 0
M  V30 3435 H 326.699 2.51628 2.81004 0
M  V30 3436 H 329.086 1.57577 2.49506 0
M  V30 3437 H 329.167 2.38536 0.923811 0
M  V30 3438 H 328.811 4.63031 2.08722 0
M  V30 3439 H 328.741 3.78968 3.65637 0
M  V30 3440 H 331.232 2.98423 2.31845 0
M  V30 3441 H 331.545 6.46632 4.23187 0
M  V30 3442 H 329.89 5.81152 3.81165 0
M  V30 3443 H 333.081 3.74762 2.80484 0
M  V30 3444 H 333.254 5.33535 3.67756 0
M  V30 3445 N 326.66 -1.06551 1.16123 0
M  V30 3446 C 327.607 -2.13961 0.865414 0
M  V30 3447 C 328.577 -1.65066 -0.185055 0
M  V30 3448 O 329.762 -1.90732 -0.05083 0
M  V30 3449 C 326.902 -3.43113 0.369776 0
M  V30 3450 C 326.015 -4.05756 1.48276 0
M  V30 3451 C 325.15 -5.22773 0.942414 0
M  V30 3452 C 324.189 -5.77395 2.03179 0
M  V30 3453 N 323.326 -6.85731 1.50721 0
M  V30 3454 H 328.166 -2.38605 1.78527 0
M  V30 3455 H 325.703 -1.17072 0.890646 0
M  V30 3456 H 327.661 -4.17151 0.0640643 0
M  V30 3457 H 326.291 -3.18695 -0.513143 0
M  V30 3458 H 325.343 -3.29292 1.9045 0
M  V30 3459 H 326.655 -4.42351 2.30493 0
M  V30 3460 H 325.809 -6.03827 0.589729 0
M  V30 3461 H 324.548 -4.87618 0.0895191 0
M  V30 3462 H 323.553 -4.94981 2.3932 0
M  V30 3463 H 324.778 -6.14603 2.8886 0
M  V30 3464 H 322.724 -6.52499 0.676811 0
M  V30 3465 H 322.641 -7.21254 2.26557 0
M  V30 3466 H 323.909 -7.7047 1.18303 0
M  V30 3467 N 328.138 -0.959301 -1.25041 0
M  V30 3468 C 329.088 -0.453888 -2.23436 0
M  V30 3469 C 330.072 0.459461 -1.542 0
M  V30 3470 O 331.264 0.291752 -1.74579 0
M  V30 3471 C 328.393 0.262667 -3.42294 0
M  V30 3472 C 327.479 -0.669022 -4.1879 0
M  V30 3473 N 327.87 -1.80267 -4.72586 0
M  V30 3474 C 326.168 -0.47814 -4.4343 0
M  V30 3475 C 326.869 -2.38475 -5.3057 0
M  V30 3476 N 325.845 -1.67078 -5.17287 0
M  V30 3477 H 329.647 -1.319 -2.6264 0
M  V30 3478 H 327.161 -0.817358 -1.40332 0
M  V30 3479 H 329.158 0.641911 -4.11929 0
M  V30 3480 H 327.818 1.12432 -3.04613 0
M  V30 3481 H 328.829 -2.18442 -4.69578 0
M  V30 3482 H 325.506 0.340249 -4.16111 0
M  V30 3483 H 326.896 -3.34094 -5.8295 0
M  V30 3484 N 329.616 1.39756 -0.72842 0
M  V30 3485 C 330.844 2.04948 -0.283528 0
M  V30 3486 C 331.259 1.54908 1.0793 0
M  V30 3487 O 330.616 0.711135 1.68075 0
M  V30 3488 C 330.667 3.60498 -0.268957 0
M  V30 3489 O 330.388 4.08695 -1.57798 0
M  V30 3490 C 331.889 4.4288 0.192912 0
M  V30 3491 H 329.109 0.659243 -0.125056 0
M  V30 3492 H 331.653 1.78927 -0.990226 0
M  V30 3493 H 329.808 3.85444 0.388801 0
M  V30 3494 H 330.222 5.02977 -1.48709 0
M  V30 3495 H 331.696 5.51791 0.151952 0
M  V30 3496 H 332.173 4.21418 1.23708 0
M  V30 3497 H 332.779 4.23069 -0.435039 0
M  V30 3498 N 331.094 0.475555 1.50254 0
M  V30 3499 C 332.371 -0.139685 1.95101 0
M  V30 3500 C 332.751 -1.56555 1.41611 0
M  V30 3501 O 332.099 -2.19956 0.618993 0
M  V30 3502 C 332.309 -0.0784298 3.48912 0
M  V30 3503 C 333.657 -0.265095 4.23772 0
M  V30 3504 O 334.681 -0.154808 3.55863 0
M  V30 3505 O 333.54 -0.488327 5.44314 0
M  V30 3506 H 330.634 -0.109236 0.819754 0
M  V30 3507 H 333.18 0.536276 1.61004 0
M  V30 3508 H 331.952 0.916918 3.80405 0
M  V30 3509 H 331.575 -0.795655 3.89558 0
M  V30 3510 N 332.573 -1.56217 0.208337 0
M  V30 3511 C 333.821 -1.97558 -0.426076 0
M  V30 3512 C 334.142 -1.09683 -1.61229 0
M  V30 3513 O 333.412 -0.170956 -1.95153 0
M  V30 3514 H 331.992 -0.729575 -0.160405 0
M  V30 3515 H 334.654 -1.92606 0.298155 0
M  V30 3516 H 333.75 -3.02672 -0.761312 0
M  V30 3517 N 334.051 0.0651679 -1.57465 0
M  V30 3518 C 334.999 1.09542 -2.05191 0
M  V30 3519 C 335.993 1.39675 -0.958509 0
M  V30 3520 O 337.199 1.39003 -1.14359 0
M  V30 3521 H 333.574 0.370623 -0.654326 0
M  V30 3522 H 335.545 0.666802 -2.90854 0
M  V30 3523 C 334.294 2.39881 -2.51699 0
M  V30 3524 H 333.617 2.17547 -3.3543 0
M  V30 3525 H 335.057 3.104 -2.88839 0
M  V30 3526 C 333.516 3.0631 -1.40271 0
M  V30 3527 O 334.046 3.94664 -0.748523 0
M  V30 3528 N 332.252 2.67041 -1.14618 0
M  V30 3529 H 331.799 1.95281 -1.67997 0
M  V30 3530 H 331.757 3.1181 -0.402688 0
M  V30 3531 N 335.529 1.53961 0.336706 0
M  V30 3532 C 336.775 1.7273 1.07406 0
M  V30 3533 C 337.13 0.488095 1.86106 0
M  V30 3534 O 336.423 -0.519379 1.84426 0
M  V30 3535 C 336.617 2.93493 2.03953 0
M  V30 3536 C 336.446 4.29039 1.34744 0
M  V30 3537 C 335.216 4.93416 1.08942 0
M  V30 3538 C 337.414 5.08501 0.770115 0
M  V30 3539 N 335.396 6.12821 0.363864 0
M  V30 3540 C 336.767 6.19752 0.175472 0
M  V30 3541 C 338.822 4.93349 0.671633 0
M  V30 3542 C 337.525 7.17503 -0.508081 0
M  V30 3543 C 339.551 5.914 0.0018076 0
M  V30 3544 C 338.913 7.01993 -0.581835 0
M  V30 3545 H 335.012 0.685026 0.377177 0
M  V30 3546 H 337.596 1.91403 0.356815 0
M  V30 3547 H 335.767 2.76308 2.72962 0
M  V30 3548 H 337.499 3.00949 2.70577 0
M  V30 3549 H 334.254 4.53099 1.37833 0
M  V30 3550 H 334.678 6.76998 0.0156092 0
M  V30 3551 H 339.32 4.08007 1.1086 0
M  V30 3552 H 337.038 8.02414 -0.956918 0
M  V30 3553 H 340.624 5.81753 -0.0738538 0
M  V30 3554 H 339.504 7.76561 -1.09192 0
M  V30 3555 N 337.007 -0.598083 1.45811 0
M  V30 3556 C 338.237 -1.38121 1.53643 0
M  V30 3557 C 338.645 -1.88425 0.171081 0
M  V30 3558 O 337.988 -1.63409 -0.839237 0
M  V30 3559 C 338.05 -2.61432 2.46766 0
M  V30 3560 C 337.714 -2.32702 3.93318 0
M  V30 3561 C 338.711 -1.92479 4.82957 0
M  V30 3562 C 336.396 -2.45321 4.38318 0
M  V30 3563 C 338.39 -1.65248 6.15607 0
M  V30 3564 C 336.077 -2.17703 5.71007 0
M  V30 3565 C 337.075 -1.7773 6.5947 0
M  V30 3566 O 336.763 -1.50441 7.89698 0
M  V30 3567 H 336.495 -0.428863 0.522544 0
M  V30 3568 H 339.049 -0.73557 1.91777 0
M  V30 3569 H 337.279 -3.28749 2.0362 0
M  V30 3570 H 338.968 -3.23487 2.45175 0
M  V30 3571 H 339.734 -1.82258 4.49452 0
M  V30 3572 H 335.613 -2.75399 3.69697 0
M  V30 3573 H 339.157 -1.33973 6.84614 0
M  V30 3574 H 335.054 -2.27544 6.04065 0
M  V30 3575 H 335.822 -1.64415 8.01817 0
M  V30 3576 N 338.485 -1.33259 -0.841409 0
M  V30 3577 C 339.731 -1.25766 -1.59857 0
M  V30 3578 C 340.086 0.175602 -1.91597 0
M  V30 3579 O 339.379 1.117 -1.55672 0
M  V30 3580 C 339.573 -2.06381 -2.9179 0
M  V30 3581 C 339.402 -3.57401 -2.72937 0
M  V30 3582 C 338.172 -4.26718 -2.70628 0
M  V30 3583 C 340.37 -4.51786 -2.45753 0
M  V30 3584 N 338.352 -5.63705 -2.43125 0
M  V30 3585 C 339.723 -5.76643 -2.27777 0
M  V30 3586 C 341.778 -4.40898 -2.31329 0
M  V30 3587 C 340.481 -6.91842 -1.96841 0
M  V30 3588 C 342.507 -5.55911 -2.01786 0
M  V30 3589 C 341.869 -6.79776 -1.8462 0
M  V30 3590 H 337.968 -0.515406 -0.588117 0
M  V30 3591 H 340.552 -1.67772 -0.987955 0
M  V30 3592 H 338.723 -1.667 -3.50807 0
M  V30 3593 H 340.455 -1.90678 -3.56965 0
M  V30 3594 H 337.21 -3.78968 -2.84043 0
M  V30 3595 H 337.634 -6.35911 -2.32265 0
M  V30 3596 H 342.276 -3.45772 -2.43314 0
M  V30 3597 H 339.994 -7.86968 -1.83594 0
M  V30 3598 H 343.58 -5.49421 -1.91384 0
M  V30 3599 H 342.46 -7.67266 -1.62088 0
M  V30 3600 N 339.963 1.05934 -1.16686 0
M  V30 3601 C 341.21 1.788 -0.950622 0
M  V30 3602 C 341.538 1.87384 0.521305 0
M  V30 3603 O 340.793 1.36438 1.40297 0
M  V30 3604 C 341.092 3.23105 -1.52767 0
M  V30 3605 C 340.758 3.34594 -3.02254 0
M  V30 3606 C 339.42 3.37437 -3.43059 0
M  V30 3607 C 341.772 3.36219 -3.98254 0
M  V30 3608 C 339.1 3.39525 -4.78477 0
M  V30 3609 C 341.452 3.39845 -5.33562 0
M  V30 3610 C 340.116 3.40971 -5.73842 0
M  V30 3611 H 339.386 0.654275 -0.347857 0
M  V30 3612 H 342.033 1.24555 -1.45459 0
M  V30 3613 H 340.338 3.80227 -0.94524 0
M  V30 3614 H 342.035 3.7809 -1.336 0
M  V30 3615 H 338.625 3.3309 -2.6972 0
M  V30 3616 H 342.809 3.33231 -3.67792 0
M  V30 3617 H 338.065 3.38703 -5.09009 0
M  V30 3618 H 342.239 3.4005 -6.07733 0
M  V30 3619 H 339.866 3.42342 -6.78753 0
M  V30 3620 N 341.441 0.965919 1.2453 0
M  V30 3621 C 342.718 0.543777 1.87889 0
M  V30 3622 C 343.098 -0.97909 1.87021 0
M  V30 3623 O 342.446 -1.84969 1.3416 0
M  V30 3624 C 342.656 1.13327 3.30088 0
M  V30 3625 C 344.004 1.21707 4.06783 0
M  V30 3626 O 345.028 1.08566 3.39252 0
M  V30 3627 O 343.887 1.42456 5.27606 0
M  V30 3628 H 340.981 0.181054 0.806938 0
M  V30 3629 H 343.527 1.06007 1.32516 0
M  V30 3630 H 342.299 2.17612 3.25209 0
M  V30 3631 H 341.922 0.600911 3.93033 0
M  V30 3632 N 342.919 -1.39368 0.735821 0
M  V30 3633 C 343.867 -2.32443 0.0855131 0
M  V30 3634 C 344.861 -1.53104 -0.724954 0
M  V30 3635 O 346.067 -1.68762 -0.626047 0
M  V30 3636 H 342.442 -0.751948 0.00885257 0
M  V30 3637 H 344.413 -2.84916 0.886883 0
M  V30 3638 C 343.162 -3.38206 -0.806983 0
M  V30 3639 H 342.485 -3.99335 -0.19274 0
M  V30 3640 H 343.925 -4.05779 -1.2296 0
M  V30 3641 C 342.384 -2.75321 -1.94165 0
M  V30 3642 O 342.914 -2.63231 -3.03435 0
M  V30 3643 N 341.12 -2.33396 -1.73132 0
M  V30 3644 H 340.667 -2.4343 -0.842596 0
M  V30 3645 H 340.625 -1.91661 -2.49225 0
M  V30 3646 N 344.397 -0.483516 -1.5 0
M  V30 3647 C 345.622 0.0667119 -2.07293 0
M  V30 3648 C 346.047 1.3164 -1.3436 0
M  V30 3649 O 345.405 1.76945 -0.394987 0
M  V30 3650 C 345.453 0.321126 -3.59167 0
M  V30 3651 O 344.557 1.39927 -3.87936 0
M  V30 3652 H 343.898 -0.0184758 -0.663743 0
M  V30 3653 H 346.428 -0.678125 -1.93035 0
M  V30 3654 H 346.438 0.557906 -4.04168 0
M  V30 3655 H 345.113 -0.592007 -4.11665 0
M  V30 3656 H 343.69 1.14882 -3.54763 0
M  V30 3657 N 345.875 1.56104 -0.216619 0
M  V30 3658 C 347.123 1.97781 0.415593 0
M  V30 3659 C 347.444 1.10536 1.60645 0
M  V30 3660 O 346.714 0.181303 1.95059 0
M  V30 3661 H 345.294 0.730415 0.156534 0
M  V30 3662 H 347.956 1.92445 -0.308366 0
M  V30 3663 H 347.052 3.03072 0.74525 0
M  V30 3664 N 347.353 -0.0568162 1.57498 0
M  V30 3665 C 348.263 -1.08346 2.08083 0
M  V30 3666 C 349.279 -1.41439 1.01346 0
M  V30 3667 O 350.455 -1.51316 1.32912 0
M  V30 3668 C 347.52 -2.37352 2.52715 0
M  V30 3669 C 346.581 -2.11093 3.73816 0
M  V30 3670 C 345.814 -3.33949 4.1631 0
M  V30 3671 O 346.037 -4.43622 3.58547 0
M  V30 3672 O 344.971 -3.21279 5.08983 0
M  V30 3673 H 348.797 -0.683667 2.95905 0
M  V30 3674 H 346.382 -0.271965 1.46904 0
M  V30 3675 H 348.264 -3.13246 2.81877 0
M  V30 3676 H 346.939 -2.76681 1.68016 0
M  V30 3677 H 345.846 -1.32856 3.49714 0
M  V30 3678 H 347.179 -1.76637 4.59413 0
M  V30 3679 N 348.832 -1.54138 -0.328536 0
M  V30 3680 C 349.765 -1.78014 -1.4278 0
M  V30 3681 C 350.743 -0.629889 -1.49904 0
M  V30 3682 O 351.927 -0.866763 -1.6739 0
M  V30 3683 C 349.054 -1.89225 -2.80912 0
M  V30 3684 C 348.1 -3.11483 -2.91343 0
M  V30 3685 S 348.933 -4.70201 -2.56263 0
M  V30 3686 C 350.089 -4.84312 -3.96476 0
M  V30 3687 H 350.322 -2.70974 -1.22313 0
M  V30 3688 H 347.855 -1.45197 -0.525084 0
M  V30 3689 H 349.813 -1.9637 -3.60485 0
M  V30 3690 H 348.474 -0.972518 -2.98665 0
M  V30 3691 H 347.667 -3.16046 -3.92595 0
M  V30 3692 H 347.269 -3.02642 -2.19736 0
M  V30 3693 H 349.561 -4.66643 -4.91173 0
M  V30 3694 H 350.504 -5.86411 -3.96898 0
M  V30 3695 H 350.912 -4.12652 -3.85199 0
M  V30 3696 N 350.31 0.590341 -1.46126 0
M  V30 3697 C 351.273 1.68194 -1.55703 0
M  V30 3698 C 352.273 1.54808 -0.434868 0
M  V30 3699 O 353.463 1.59564 -0.698928 0
M  V30 3700 C 350.595 3.07575 -1.47005 0
M  V30 3701 H 351.788 1.61064 -2.52979 0
M  V30 3702 H 349.341 0.807541 -1.33823 0
M  V30 3703 H 350.076 3.20268 -0.509785 0
M  V30 3704 H 349.861 3.187 -2.28414 0
M  V30 3705 H 351.351 3.87055 -1.56776 0
M  V30 3706 N 351.788 1.33704 0.83433 0
M  V30 3707 C 353.016 1.28467 1.62185 0
M  V30 3708 C 353.431 -0.143526 1.88254 0
M  V30 3709 O 352.788 -1.08709 1.4659 0
M  V30 3710 C 352.839 2.06174 2.96942 0
M  V30 3711 O 352.56 3.43422 2.72016 0
M  V30 3712 C 354.061 2.08201 3.91366 0
M  V30 3713 H 351.281 0.4424 0.504503 0
M  V30 3714 H 353.825 1.76145 1.03891 0
M  V30 3715 H 351.98 1.62167 3.51825 0
M  V30 3716 H 352.394 3.83453 3.57861 0
M  V30 3717 H 353.868 2.67017 4.83121 0
M  V30 3718 H 354.345 1.07343 4.2588 0
M  V30 3719 H 354.951 2.52246 3.42421 0
M  V30 3720 N 353.266 -1.05314 1.17247 0
M  V30 3721 C 354.514 -1.77941 0.958194 0
M  V30 3722 C 354.835 -1.88089 -0.514556 0
M  V30 3723 O 354.105 -1.39676 -1.37359 0
M  V30 3724 H 352.685 -0.659116 0.351533 0
M  V30 3725 H 355.347 -1.27166 1.47699 0
M  V30 3726 H 354.443 -2.79663 1.38546 0
M  V30 3727 N 354.744 -0.972509 -1.24016 0
M  V30 3728 C 355.99 -0.647583 -1.92816 0
M  V30 3729 C 356.345 0.809015 -1.74564 0
M  V30 3730 O 355.638 1.57502 -1.09103 0
M  V30 3731 C 355.832 -0.963694 -3.44162 0
M  V30 3732 C 355.661 -2.44947 -3.77135 0
M  V30 3733 C 354.431 -3.11012 -3.98246 0
M  V30 3734 C 356.629 -3.42978 -3.83237 0
M  V30 3735 N 354.611 -4.49277 -4.18358 0
M  V30 3736 C 355.982 -4.66619 -4.08248 0
M  V30 3737 C 358.037 -3.37569 -3.65994 0
M  V30 3738 C 356.74 -5.85516 -4.17808 0
M  V30 3739 C 358.766 -4.55822 -3.76802 0
M  V30 3740 C 358.128 -5.78256 -4.02243 0
M  V30 3741 H 354.227 -0.287894 -0.727077 0
M  V30 3742 H 356.811 -1.24835 -1.49413 0
M  V30 3743 H 354.982 -0.391692 -3.8642 0
M  V30 3744 H 356.714 -0.596849 -4.00275 0
M  V30 3745 H 353.469 -2.61529 -3.94841 0
M  V30 3746 H 353.893 -5.20935 -4.32384 0
M  V30 3747 H 358.535 -2.43945 -3.45327 0
M  V30 3748 H 356.253 -6.79564 -4.37285 0
M  V30 3749 H 359.839 -4.53204 -3.64825 0
M  V30 3750 H 358.719 -6.68231 -4.10411 0
M  V30 3751 N 356.222 1.38976 -0.743202 0
M  V30 3752 C 357.169 2.30544 -0.10861 0
M  V30 3753 C 358.139 1.49642 0.720869 0
M  V30 3754 O 359.324 1.78304 0.679142 0
M  V30 3755 C 356.464 3.36018 0.786496 0
M  V30 3756 C 355.577 4.31963 -0.0564849 0
M  V30 3757 C 354.712 5.24506 0.840657 0
M  V30 3758 C 353.751 6.121 -0.00658363 0
M  V30 3759 N 352.888 6.96973 0.846943 0
M  V30 3760 H 357.728 2.8424 -0.895088 0
M  V30 3761 H 355.265 1.3995 -0.453048 0
M  V30 3762 H 357.223 3.95768 1.31999 0
M  V30 3763 H 355.853 2.83758 1.53887 0
M  V30 3764 H 354.905 3.73763 -0.707492 0
M  V30 3765 H 356.217 4.93703 -0.711229 0
M  V30 3766 H 355.371 5.89322 1.4417 0
M  V30 3767 H 354.11 4.63107 1.52916 0
M  V30 3768 H 353.115 5.46289 -0.620366 0
M  V30 3769 H 354.34 6.75565 -0.691992 0
M  V30 3770 H 352.286 6.38133 1.52059 0
M  V30 3771 H 352.203 7.5559 0.248864 0
M  V30 3772 H 353.471 7.6621 1.43328 0
M  V30 3773 N 357.7 0.491464 1.49741 0
M  V30 3774 C 358.647 -0.292027 2.28945 0
M  V30 3775 C 359.617 -0.968973 1.34908 0
M  V30 3776 O 360.802 -0.97748 1.6386 0
M  V30 3777 C 357.942 -1.35617 3.17336 0
M  V30 3778 C 357.055 -0.691957 4.26422 0
M  V30 3779 C 356.19 -1.73572 5.02042 0
M  V30 3780 C 355.229 -1.05286 6.02977 0
M  V30 3781 N 354.366 -2.0404 6.71798 0
M  V30 3782 H 359.206 0.389654 2.95442 0
M  V30 3783 H 356.743 0.204003 1.45679 0
M  V30 3784 H 358.701 -1.98502 3.66951 0
M  V30 3785 H 357.331 -2.00674 2.52844 0
M  V30 3786 H 356.383 0.0499523 3.80367 0
M  V30 3787 H 357.695 -0.153946 4.98562 0
M  V30 3788 H 356.849 -2.43987 5.55478 0
M  V30 3789 H 355.588 -2.30757 4.29654 0
M  V30 3790 H 354.593 -0.334446 5.48782 0
M  V30 3791 H 355.818 -0.487636 6.77347 0
M  V30 3792 H 353.764 -2.60205 6.02187 0
M  V30 3793 H 353.681 -1.55279 7.39881 0
M  V30 3794 H 354.949 -2.73772 7.29842 0
M  V30 3795 N 359.178 -1.55987 0.224894 0
M  V30 3796 C 360.427 -1.97566 -0.406273 0
M  V30 3797 C 360.74 -1.11569 -1.6066 0
M  V30 3798 O 361.946 -1.43062 -2.3075 0
M  V30 3799 C 360.402 -3.51474 -0.774207 0
M  V30 3800 C 360.01 -4.46179 0.403496 0
M  V30 3801 C 361.754 -4.01758 -1.37079 0
M  V30 3802 C 359.661 -5.91399 0.0129412 0
M  V30 3803 H 358.591 -0.737777 -0.155565 0
M  V30 3804 H 361.242 -1.80659 0.321635 0
M  V30 3805 H 359.624 -3.63994 -1.55963 0
M  V30 3806 H 360.798 -4.45409 1.18101 0
M  V30 3807 H 359.113 -4.06255 0.913536 0
M  V30 3808 H 361.71 -5.07756 -1.67596 0
M  V30 3809 H 362.053 -3.47805 -2.28773 0
M  V30 3810 H 362.586 -3.92475 -0.648733 0
M  V30 3811 H 359.325 -6.49341 0.896451 0
M  V30 3812 H 358.845 -5.95356 -0.728821 0
M  V30 3813 H 360.524 -6.45683 -0.412582 0
M  V30 3814 N 360.656 0.0484629 -1.57525 0
M  V30 3815 C 361.619 1.03956 -2.04269 0
M  V30 3816 C 362.619 1.30211 -0.943496 0
M  V30 3817 O 363.809 1.25539 -1.20771 0
M  V30 3818 C 360.941 2.37742 -2.44319 0
M  V30 3819 H 362.134 0.636182 -2.93075 0
M  V30 3820 H 359.687 0.294811 -1.53494 0
M  V30 3821 H 360.422 2.82866 -1.5861 0
M  V30 3822 H 360.207 2.20021 -3.24551 0
M  V30 3823 H 361.697 3.08936 -2.80978 0
M  V30 3824 N 362.134 1.5431 0.320358 0
M  V30 3825 C 363.411 1.63322 1.07635 0
M  V30 3826 C 363.791 0.46912 2.05821 0
M  V30 3827 O 363.139 -0.536274 2.22118 0
M  V30 3828 C 363.349 3.00465 1.77544 0
M  V30 3829 C 364.697 3.56621 2.30449 0
M  V30 3830 O 365.721 3.02791 1.87606 0
M  V30 3831 O 364.58 4.5083 3.08892 0
M  V30 3832 H 361.674 0.661502 0.496331 0
M  V30 3833 H 364.22 1.66656 0.319992 0
M  V30 3834 H 362.992 3.76629 1.06143 0
M  V30 3835 H 362.615 3.00824 2.59982 0
M  V30 3836 N 363.613 -0.582584 1.46437 0
M  V30 3837 C 364.56 -1.69164 1.5701 0
M  V30 3838 C 365.53 -1.60847 0.414403 0
M  V30 3839 O 366.715 -1.80058 0.631171 0
M  V30 3840 C 363.855 -3.075 1.56646 0
M  V30 3841 C 362.968 -3.2644 2.82951 0
M  V30 3842 C 362.103 -4.55026 2.7409 0
M  V30 3843 C 361.142 -4.6731 3.95333 0
M  V30 3844 N 360.279 -5.87221 3.84858 0
M  V30 3845 H 365.119 -1.59464 2.51744 0
M  V30 3846 H 362.656 -0.777186 1.24893 0
M  V30 3847 H 364.614 -3.8757 1.5442 0
M  V30 3848 H 363.244 -3.16096 0.654439 0
M  V30 3849 H 362.296 -2.39974 2.95155 0
M  V30 3850 H 363.608 -3.31385 3.72808 0
M  V30 3851 H 362.762 -5.43324 2.6997 0
M  V30 3852 H 361.501 -4.52519 1.81873 0
M  V30 3853 H 360.506 -3.77429 3.99784 0
M  V30 3854 H 361.731 -4.71595 4.88646 0
M  V30 3855 H 359.677 -5.85712 2.95427 0
M  V30 3856 H 359.594 -5.93435 4.6837 0
M  V30 3857 H 360.862 -6.7795 3.84713 0
M  V30 3858 N 365.091 -1.34144 -0.827227 0
M  V30 3859 C 366.337 -1.27455 -1.58515 0
M  V30 3860 C 366.692 0.155271 -1.91772 0
M  V30 3861 O 365.985 1.10042 -1.56848 0
M  V30 3862 C 366.179 -2.09464 -2.89585 0
M  V30 3863 C 366.008 -3.60276 -2.69131 0
M  V30 3864 C 364.778 -4.29565 -2.66087 0
M  V30 3865 C 366.976 -4.54367 -2.40947 0
M  V30 3866 N 364.958 -5.66252 -2.37132 0
M  V30 3867 C 366.329 -5.79027 -2.21648 0
M  V30 3868 C 368.384 -4.43327 -2.26639 0
M  V30 3869 C 367.087 -6.93891 -1.89492 0
M  V30 3870 C 369.113 -5.58019 -1.95878 0
M  V30 3871 C 368.475 -6.81695 -1.774 0
M  V30 3872 H 364.574 -0.521614 -0.582617 0
M  V30 3873 H 367.158 -1.68811 -0.970105 0
M  V30 3874 H 365.329 -1.70411 -3.49019 0
M  V30 3875 H 367.061 -1.94453 -3.54923 0
M  V30 3876 H 363.816 -3.81959 -2.80008 0
M  V30 3877 H 364.24 -6.38338 -2.25507 0
M  V30 3878 H 368.882 -3.48333 -2.39633 0
M  V30 3879 H 366.6 -7.88871 -1.75236 0
M  V30 3880 H 370.186 -5.5142 -1.85546 0
M  V30 3881 H 369.066 -7.68942 -1.53941 0
M  V30 3882 N 366.569 1.04691 -1.17803 0
M  V30 3883 C 367.799 1.81183 -0.992788 0
M  V30 3884 C 368.207 1.8347 0.462098 0
M  V30 3885 O 367.55 1.2643 1.33271 0
M  V30 3886 C 367.612 3.28363 -1.46349 0
M  V30 3887 C 367.276 3.49749 -2.94151 0
M  V30 3888 C 368.273 3.41456 -3.92051 0
M  V30 3889 C 365.958 3.76548 -3.32441 0
M  V30 3890 C 367.952 3.59656 -5.26238 0
M  V30 3891 C 365.639 3.94396 -4.66792 0
M  V30 3892 C 366.637 3.8595 -5.635 0
M  V30 3893 O 366.325 4.03294 -6.9542 0
M  V30 3894 H 366.057 0.577622 -0.351182 0
M  V30 3895 H 368.611 1.32876 -1.5663 0
M  V30 3896 H 366.841 3.77609 -0.833574 0
M  V30 3897 H 368.53 3.86395 -1.24313 0
M  V30 3898 H 369.296 3.20723 -3.63815 0
M  V30 3899 H 365.175 3.82224 -2.57732 0
M  V30 3900 H 368.719 3.52979 -6.01707 0
M  V30 3901 H 364.616 4.14622 -4.94731 0
M  V30 3902 H 365.384 4.2049 -7.02232 0
M  V30 3903 N 368.047 0.979072 1.23499 0
M  V30 3904 C 369.277 0.664237 1.95631 0
M  V30 3905 C 369.685 -0.772653 1.72704 0
M  V30 3906 O 369.028 -1.53141 1.01457 0
M  V30 3907 C 369.09 0.873115 3.48736 0
M  V30 3908 C 368.754 2.29182 3.95379 0
M  V30 3909 C 369.751 3.2704 4.04155 0
M  V30 3910 C 367.436 2.62256 4.28401 0
M  V30 3911 C 369.43 4.56052 4.45304 0
M  V30 3912 C 367.117 3.91491 4.69231 0
M  V30 3913 C 368.115 4.88201 4.77649 0
M  V30 3914 O 367.803 6.15129 5.17563 0
M  V30 3915 H 367.535 0.245915 0.629684 0
M  V30 3916 H 370.089 1.3127 1.57979 0
M  V30 3917 H 368.319 0.167476 3.86337 0
M  V30 3918 H 370.008 0.555642 4.02079 0
M  V30 3919 H 370.774 3.02819 3.78848 0
M  V30 3920 H 366.653 1.87692 4.21061 0
M  V30 3921 H 370.197 5.31538 4.51789 0
M  V30 3922 H 366.094 4.15508 4.93987 0
M  V30 3923 H 366.862 6.18862 5.35679 0
M  V30 3924 N 369.525 -1.3858 0.750561 0
M  V30 3925 C 370.772 -2.00184 0.305373 0
M  V30 3926 C 371.1 -1.59575 -1.11203 0
M  V30 3927 O 370.355 -0.823236 -1.77542 0
M  V30 3928 C 370.654 -3.55455 0.372373 0
M  V30 3929 C 370.32 -4.15765 1.745 0
M  V30 3930 C 368.982 -4.31951 2.12065 0
M  V30 3931 C 371.334 -4.49067 2.64553 0
M  V30 3932 C 368.662 -4.78734 3.39162 0
M  V30 3933 C 371.014 -4.97265 3.91038 0
M  V30 3934 C 369.678 -5.11658 4.28676 0
M  V30 3935 H 368.948 -0.732526 0.111744 0
M  V30 3936 H 371.595 -1.65673 0.960451 0
M  V30 3937 H 369.9 -3.90084 -0.366272 0
M  V30 3938 H 371.597 -4.00999 0.00953918 0
M  V30 3939 H 368.187 -4.03579 1.44297 0
M  V30 3940 H 372.371 -4.36166 2.36796 0
M  V30 3941 H 367.627 -4.88062 3.68246 0
M  V30 3942 H 371.801 -5.22003 4.60962 0
M  V30 3943 H 369.428 -5.47668 5.27222 0
M  V30 3944 N 371.003 -0.499398 -1.49478 0
M  V30 3945 C 371.951 0.293604 -2.3074 0
M  V30 3946 C 372.945 0.96427 -1.39277 0
M  V30 3947 O 374.151 0.892141 -1.56336 0
M  V30 3948 H 370.526 0.113541 -0.743379 0
M  V30 3949 H 372.497 -0.411772 -2.95545 0
M  V30 3950 C 371.246 1.3462 -3.20582 0
M  V30 3951 H 370.569 0.83954 -3.90886 0
M  V30 3952 H 372.009 1.87308 -3.80384 0
M  V30 3953 C 370.468 2.36351 -2.40083 0
M  V30 3954 O 370.998 3.422 -2.10385 0
M  V30 3955 N 369.204 2.0878 -2.02137 0
M  V30 3956 H 368.751 1.22723 -2.26488 0
M  V30 3957 H 368.709 2.77075 -1.48583 0
M  V30 3958 N 372.481 1.55866 -0.233164 0
M  V30 3959 C 373.391 2.24431 0.683217 0
M  V30 3960 C 374.407 1.2558 1.2044 0
M  V30 3961 O 375.583 1.58422 1.24356 0
M  V30 3962 C 372.648 2.91979 1.86947 0
M  V30 3963 C 371.709 4.06204 1.38912 0
M  V30 3964 C 370.942 4.70522 2.51883 0
M  V30 3965 O 371.165 4.33865 3.70293 0
M  V30 3966 O 370.099 5.59296 2.22423 0
M  V30 3967 H 373.925 3.03426 0.129059 0
M  V30 3968 H 371.51 1.494 -0.0022283 0
M  V30 3969 H 373.392 3.34573 2.56201 0
M  V30 3970 H 372.067 2.15935 2.41151 0
M  V30 3971 H 370.974 3.68155 0.664259 0
M  V30 3972 H 372.307 4.84025 0.893328 0
M  V30 3973 N 373.959 -0.0401083 1.57549 0
M  V30 3974 C 374.869 -1.06133 2.0922 0
M  V30 3975 C 375.885 -1.40356 1.0284 0
M  V30 3976 O 377.061 -1.49897 1.34509 0
M  V30 3977 C 374.126 -2.34658 2.55218 0
M  V30 3978 C 373.187 -2.07117 3.76033 0
M  V30 3979 C 372.42 -3.29514 4.19829 0
M  V30 3980 O 372.643 -4.39794 3.63232 0
M  V30 3981 O 371.577 -3.15863 5.12362 0
M  V30 3982 H 375.403 -0.652244 2.96613 0
M  V30 3983 H 372.988 -0.256368 1.47184 0
M  V30 3984 H 374.87 -3.10239 2.85184 0
M  V30 3985 H 373.545 -2.74883 1.70941 0
M  V30 3986 H 372.452 -1.29139 3.51104 0
M  V30 3987 H 373.785 -1.71754 4.61261 0
M  V30 3988 N 375.437 -1.54477 -0.31217 0
M  V30 3989 C 376.685 -1.72884 -1.04668 0
M  V30 3990 C 377.006 -0.511477 -1.88173 0
M  V30 3991 O 376.276 0.474407 -1.90069 0
M  V30 3992 H 374.856 -0.637461 -0.389425 0
M  V30 3993 H 377.518 -1.91807 -0.345852 0
M  V30 3994 H 376.614 -2.61334 -1.70619 0
M  V30 3995 N 376.915 0.57481 -1.46744 0
M  V30 3996 C 377.878 1.66533 -1.57478 0
M  V30 3997 C 378.878 1.54338 -0.451263 0
M  V30 3998 O 380.068 1.58814 -0.715813 0
M  V30 3999 C 377.2 3.05999 -1.50259 0
M  V30 4000 H 378.393 1.58372 -2.54673 0
M  V30 4001 H 375.946 0.793301 -1.34672 0
M  V30 4002 H 376.681 3.19709 -0.543725 0
M  V30 4003 H 376.466 3.16259 -2.31781 0
M  V30 4004 H 377.956 3.8537 -1.60872 0
M  V30 4005 N 378.394 1.34581 0.820102 0
M  V30 4006 C 379.327 1.20735 1.93644 0
M  V30 4007 C 380.305 0.0983343 1.62302 0
M  V30 4008 O 381.489 0.263997 1.86642 0
M  V30 4009 C 378.616 0.856037 3.27704 0
M  V30 4010 C 377.662 1.97521 3.78005 0
M  V30 4011 S 378.495 3.58906 3.97425 0
M  V30 4012 C 379.651 3.25822 5.34407 0
M  V30 4013 H 379.884 2.15231 2.05093 0
M  V30 4014 H 377.417 1.1964 0.97599 0
M  V30 4015 H 379.375 0.660133 4.05157 0
M  V30 4016 H 378.036 -0.0706253 3.14021 0
M  V30 4017 H 377.229 1.68321 4.75062 0
M  V30 4018 H 376.831 2.12875 3.07507 0
M  V30 4019 H 379.123 2.77812 6.17922 0
M  V30 4020 H 380.066 4.22029 5.68592 0
M  V30 4021 H 380.474 2.61932 5.00052 0
M  V30 4022 N 379.872 -1.04064 1.18357 0
M  V30 4023 C 380.819 -2.12077 0.910603 0
M  V30 4024 C 381.789 -1.65421 -0.15 0
M  V30 4025 O 382.974 -1.90797 -0.0103614 0
M  V30 4026 C 380.114 -3.42252 0.442472 0
M  V30 4027 C 379.227 -4.0252 1.5685 0
M  V30 4028 C 378.362 -5.20657 1.05309 0
M  V30 4029 C 377.401 -5.72955 2.1538 0
M  V30 4030 N 376.538 -6.8238 1.65233 0
M  V30 4031 H 381.378 -2.34764 1.83548 0
M  V30 4032 H 378.915 -1.15157 0.915279 0
M  V30 4033 H 380.873 -4.16921 0.152534 0
M  V30 4034 H 379.503 -3.19712 -0.445428 0
M  V30 4035 H 378.555 -3.25178 1.97391 0
M  V30 4036 H 379.867 -4.37362 2.39824 0
M  V30 4037 H 379.021 -6.0244 0.717677 0
M  V30 4038 H 377.76 -4.87318 0.19293 0
M  V30 4039 H 376.765 -4.89793 2.49766 0
M  V30 4040 H 377.99 -6.08337 3.01832 0
M  V30 4041 H 375.936 -6.50917 0.815064 0
M  V30 4042 H 375.853 -7.16286 2.41805 0
M  V30 4043 H 377.121 -7.67788 1.34619 0
M  V30 4044 N 381.35 -0.985608 -1.22978 0
M  V30 4045 C 382.578 -0.675582 -1.95559 0
M  V30 4046 C 382.993 0.758413 -1.72897 0
M  V30 4047 O 382.35 1.51094 -1.02357 0
M  V30 4048 C 382.401 -0.96293 -3.48439 0
M  V30 4049 O 382.122 -2.34057 -3.70336 0
M  V30 4050 C 383.623 -0.669585 -4.38214 0
M  V30 4051 H 380.843 -0.250523 -0.622478 0
M  V30 4052 H 383.387 -1.3184 -1.56328 0
M  V30 4053 H 381.542 -0.366033 -3.85667 0
M  V30 4054 H 381.956 -2.43424 -4.64591 0
M  V30 4055 H 383.43 -0.920967 -5.44263 0
M  V30 4056 H 383.907 0.396383 -4.37408 0
M  V30 4057 H 384.513 -1.2472 -4.06602 0
M  V30 4058 N 382.828 1.3818 -0.7579 0
M  V30 4059 C 384.076 1.99624 -0.315361 0
M  V30 4060 C 384.397 1.60464 1.10799 0
M  V30 4061 O 383.667 0.863507 1.75842 0
M  V30 4062 H 382.247 0.73831 -0.113611 0
M  V30 4063 H 384.909 1.68878 -0.972952 0
M  V30 4064 H 384.005 3.09754 -0.381931 0
M  V30 4065 N 384.306 0.507319 1.49211 0
M  V30 4066 C 385.552 -0.0269732 2.03382 0
M  V30 4067 C 385.907 -1.34111 1.37957 0
M  V30 4068 O 385.2 -1.84733 0.508351 0
M  V30 4069 C 385.394 -0.229513 3.56662 0
M  V30 4070 C 385.223 1.06344 4.36945 0
M  V30 4071 C 383.993 1.617 4.78729 0
M  V30 4072 C 386.191 1.96833 4.75143 0
M  V30 4073 N 384.173 2.8552 5.43463 0
M  V30 4074 C 385.544 3.0523 5.39661 0
M  V30 4075 C 387.599 1.97434 4.57082 0
M  V30 4076 C 386.302 4.14265 5.88028 0
M  V30 4077 C 388.328 3.05448 5.06414 0
M  V30 4078 C 387.69 4.12564 5.70938 0
M  V30 4079 H 383.789 0.0310673 0.781383 0
M  V30 4080 H 386.373 0.683579 1.82305 0
M  V30 4081 H 384.544 -0.909127 3.7761 0
M  V30 4082 H 386.276 -0.761377 3.97473 0
M  V30 4083 H 383.031 1.16132 4.59141 0
M  V30 4084 H 383.455 3.48499 5.80412 0
M  V30 4085 H 388.097 1.15924 4.06597 0
M  V30 4086 H 385.815 4.96569 6.3753 0
M  V30 4087 H 389.401 3.06941 4.94246 0
M  V30 4088 H 388.281 4.94767 6.0842 0
M  V30 4089 N 385.784 -1.5574 0.241426 0
M  V30 4090 C 387.03 -1.99104 -0.385406 0
M  V30 4091 C 387.363 -1.1293 -1.57988 0
M  V30 4092 O 386.638 -0.191449 -1.93555 0
M  V30 4093 C 386.921 -3.51087 -0.800616 0
M  V30 4094 C 386.774 -4.48028 0.398874 0
M  V30 4095 C 388.093 -4.08015 -1.64959 0
M  V30 4096 H 385.212 -0.723848 -0.138614 0
M  V30 4097 H 387.854 -1.86903 0.341642 0
M  V30 4098 H 386.004 -3.61615 -1.4201 0
M  V30 4099 H 387.676 -4.49487 1.03726 0
M  V30 4100 H 385.919 -4.21077 1.04293 0
M  V30 4101 H 386.59 -5.51962 0.0651056 0
M  V30 4102 H 389.066 -4.00555 -1.12672 0
M  V30 4103 H 387.942 -5.14635 -1.90898 0
M  V30 4104 H 388.203 -3.56131 -2.61961 0
M  V30 4105 N 387.262 0.0317525 -1.57568 0
M  V30 4106 C 388.209 1.0332 -2.06382 0
M  V30 4107 C 389.179 1.36082 -0.952414 0
M  V30 4108 O 390.364 1.46466 -1.2228 0
M  V30 4109 C 387.504 2.32989 -2.54578 0
M  V30 4110 C 386.617 2.0641 -3.79498 0
M  V30 4111 C 385.752 3.2993 -4.16317 0
M  V30 4112 C 384.791 2.98893 -5.34162 0
M  V30 4113 N 383.928 4.14857 -5.66426 0
M  V30 4114 H 388.768 0.609982 -2.9169 0
M  V30 4115 H 386.305 0.289573 -1.44222 0
M  V30 4116 H 388.263 3.0875 -2.80587 0
M  V30 4117 H 386.893 2.73039 -1.7219 0
M  V30 4118 H 385.945 1.21158 -3.6059 0
M  V30 4119 H 387.257 1.79513 -4.65378 0
M  V30 4120 H 386.411 4.1406 -4.4344 0
M  V30 4121 H 385.15 3.59938 -3.29083 0
M  V30 4122 H 384.155 2.13164 -5.06795 0
M  V30 4123 H 385.38 2.70165 -6.23047 0
M  V30 4124 H 383.326 4.44821 -4.82151 0
M  V30 4125 H 383.243 3.91374 -6.4681 0
M  V30 4126 H 384.511 4.99868 -5.98124 0
M  V30 4127 N 388.74 1.54641 0.303973 0
M  V30 4128 C 389.97 1.77511 1.05705 0
M  V30 4129 C 390.378 0.533228 1.81531 0
M  V30 4130 O 389.721 -0.506423 1.76582 0
M  V30 4131 C 389.783 2.92779 2.08617 0
M  V30 4132 C 389.447 4.30977 1.52013 0
M  V30 4133 C 390.444 5.11115 0.9517 0
M  V30 4134 C 388.129 4.77571 1.55665 0
M  V30 4135 C 390.123 6.35966 0.427327 0
M  V30 4136 C 387.81 6.02384 1.02841 0
M  V30 4137 C 388.808 6.81417 0.464713 0
M  V30 4138 O 388.496 8.03881 -0.0555283 0
M  V30 4139 H 388.228 0.59579 0.319391 0
M  V30 4140 H 390.782 2.02401 0.349712 0
M  V30 4141 H 389.012 2.63506 2.83022 0
M  V30 4142 H 390.701 3.03252 2.69802 0
M  V30 4143 H 391.467 4.76264 0.916407 0
M  V30 4144 H 387.346 4.16085 1.9848 0
M  V30 4145 H 390.89 6.97599 -0.0133062 0
M  V30 4146 H 386.787 6.36723 1.06084 0
M  V30 4147 H 387.555 8.18479 0.0580522 0
M  V30 4148 N 390.218 -0.567019 1.47046 0
M  V30 4149 C 391.165 -1.67489 1.58796 0
M  V30 4150 C 392.135 -1.60399 0.43144 0
M  V30 4151 O 393.32 -1.79378 0.650233 0
M  V30 4152 C 390.46 -3.05821 1.59899 0
M  V30 4153 C 389.573 -3.2342 2.86397 0
M  V30 4154 C 388.708 -4.52093 2.789 0
M  V30 4155 C 387.747 -4.6309 4.00267 0
M  V30 4156 N 386.884 -5.83106 3.91064 0
M  V30 4157 H 391.724 -1.56785 2.53422 0
M  V30 4158 H 389.261 -0.763896 1.2571 0
M  V30 4159 H 391.219 -3.8591 1.58522 0
M  V30 4160 H 389.849 -3.15384 0.687929 0
M  V30 4161 H 388.901 -2.3683 2.97684 0
M  V30 4162 H 390.213 -3.27412 3.76301 0
M  V30 4163 H 389.367 -5.4043 2.75718 0
M  V30 4164 H 388.106 -4.50565 1.86662 0
M  V30 4165 H 387.111 -3.73168 4.03765 0
M  V30 4166 H 388.336 -4.66386 4.93621 0
M  V30 4167 H 386.282 -5.82546 3.01623 0
M  V30 4168 H 386.199 -5.88434 4.74638 0
M  V30 4169 H 387.467 -6.73831 3.91882 0
M  V30 4170 N 391.696 -1.35014 -0.812953 0
M  V30 4171 C 392.973 -1.18502 -1.55617 0
M  V30 4172 C 393.353 0.238421 -2.09749 0
M  V30 4173 O 392.701 1.2411 -1.91857 0
M  V30 4174 C 392.911 -2.24783 -2.66971 0
M  V30 4175 C 394.259 -2.60268 -3.35478 0
M  V30 4176 O 395.283 -2.23648 -2.77236 0
M  V30 4177 O 394.142 -3.2321 -4.40678 0
M  V30 4178 H 391.236 -0.459984 -0.687272 0
M  V30 4179 H 393.782 -1.46677 -0.853464 0
M  V30 4180 H 392.554 -3.20284 -2.24798 0
M  V30 4181 H 392.177 -1.97841 -3.44884 0
M  V30 4182 N 393.175 1.03435 -1.18907 0
M  V30 4183 C 394.403 1.80381 -1.01342 0
M  V30 4184 C 394.818 1.83649 0.438005 0
M  V30 4185 O 394.175 1.27655 1.30424 0
M  V30 4186 C 394.226 3.25689 -1.56873 0
M  V30 4187 O 393.947 3.22673 -2.96334 0
M  V30 4188 C 395.448 4.19255 -1.44014 0
M  V30 4189 H 392.668 0.56784 -0.35749 0
M  V30 4190 H 395.212 1.30317 -1.576 0
M  V30 4191 H 393.367 3.72962 -1.04777 0
M  V30 4192 H 393.781 4.13748 -3.22355 0
M  V30 4193 H 395.255 5.19123 -1.87657 0
M  V30 4194 H 395.732 4.37467 -0.389815 0
M  V30 4195 H 396.338 3.77851 -1.95214 0
M  V30 4196 N 394.653 0.992116 1.22453 0
M  V30 4197 C 395.899 0.678177 1.91761 0
M  V30 4198 C 396.254 -0.781141 1.75829 0
M  V30 4199 O 395.547 -1.55747 1.11595 0
M  V30 4200 C 395.741 1.01832 3.42586 0
M  V30 4201 C 395.57 2.50916 3.73191 0
M  V30 4202 C 394.34 3.17308 3.93248 0
M  V30 4203 C 396.538 3.49032 3.77732 0
M  V30 4204 N 394.52 4.55876 4.11157 0
M  V30 4205 C 395.891 4.73055 4.00773 0
M  V30 4206 C 397.946 3.43349 3.60577 0
M  V30 4207 C 396.649 5.92089 4.0844 0
M  V30 4208 C 398.675 4.61759 3.69503 0
M  V30 4209 C 398.037 5.84582 3.92993 0
M  V30 4210 H 394.136 0.299425 0.722405 0
M  V30 4211 H 396.72 1.27197 1.47408 0
M  V30 4212 H 394.891 0.453118 3.85748 0
M  V30 4213 H 396.623 0.660454 3.99274 0
M  V30 4214 H 393.378 2.67778 3.9063 0
M  V30 4215 H 393.802 5.27748 4.24042 0
M  V30 4216 H 398.444 2.49408 3.41402 0
M  V30 4217 H 396.162 6.86435 4.26418 0
M  V30 4218 H 399.748 4.58951 3.57569 0
M  V30 4219 H 398.628 6.74676 3.99728 0
M  V30 4220 N 396.131 -1.37776 0.765217 0
M  V30 4221 C 397.361 -2.03828 0.337277 0
M  V30 4222 C 397.769 -1.57841 -1.04321 0
M  V30 4223 O 397.112 -0.752043 -1.67601 0
M  V30 4224 C 397.174 -3.58292 0.294407 0
M  V30 4225 C 396.838 -4.27384 1.61838 0
M  V30 4226 C 397.835 -4.51956 2.56967 0
M  V30 4227 C 395.52 -4.65345 1.89102 0
M  V30 4228 C 397.514 -5.13536 3.77571 0
M  V30 4229 C 395.201 -5.26647 3.09978 0
M  V30 4230 C 396.199 -5.50679 4.04032 0
M  V30 4231 O 395.887 -6.10702 5.2278 0
M  V30 4232 H 395.619 -0.661292 0.140248 0
M  V30 4233 H 398.173 -1.77222 1.03834 0
M  V30 4234 H 396.403 -3.83918 -0.462983 0
M  V30 4235 H 398.092 -4.05763 -0.105581 0
M  V30 4236 H 398.858 -4.23048 2.37183 0
M  V30 4237 H 394.737 -4.45978 1.16725 0
M  V30 4238 H 398.281 -5.3221 4.50997 0
M  V30 4239 H 394.178 -5.54979 3.29649 0
M  V30 4240 H 394.946 -6.29183 5.23517 0
M  V30 4241 N 397.609 -0.515225 -1.4894 0
M  V30 4242 C 398.839 0.0205735 -2.0659 0
M  V30 4243 C 399.247 1.30064 -1.37405 0
M  V30 4244 O 398.59 1.78087 -0.450632 0
M  V30 4245 C 398.652 0.330124 -3.57981 0
M  V30 4246 C 398.316 -0.854295 -4.48944 0
M  V30 4247 C 399.313 -1.7487 -4.89609 0
M  V30 4248 C 396.998 -1.05712 -4.9105 0
M  V30 4249 C 398.992 -2.82996 -5.71132 0
M  V30 4250 C 396.679 -2.14154 -5.72347 0
M  V30 4251 C 397.677 -3.0263 -6.12294 0
M  V30 4252 O 397.365 -4.09198 -6.91962 0
M  V30 4253 H 397.097 -0.0236833 -0.675585 0
M  V30 4254 H 399.651 -0.715956 -1.92518 0
M  V30 4255 H 397.881 1.12044 -3.70112 0
M  V30 4256 H 399.57 0.806233 -3.97812 0
M  V30 4257 H 400.336 -1.60388 -4.57712 0
M  V30 4258 H 396.215 -0.377788 -4.59449 0
M  V30 4259 H 399.759 -3.52083 -6.02232 0
M  V30 4260 H 395.656 -2.28626 -6.03656 0
M  V30 4261 H 396.424 -4.06726 -7.10293 0
M  V30 4262 N 399.087 1.5561 -0.249682 0
M  V30 4263 C 400.017 2.24477 0.642826 0
M  V30 4264 C 400.998 1.22601 1.17911 0
M  V30 4265 O 402.183 1.5126 1.21795 0
M  V30 4266 C 399.313 2.94638 1.83863 0
M  V30 4267 C 398.267 4.03227 1.435 0
M  V30 4268 C 397.593 4.60828 2.71186 0
M  V30 4269 C 398.893 5.18796 0.604002 0
M  V30 4270 H 400.587 2.99321 0.0685625 0
M  V30 4271 H 398.133 1.43965 0.0315363 0
M  V30 4272 H 400.086 3.41517 2.46868 0
M  V30 4273 H 398.81 2.17287 2.43832 0
M  V30 4274 H 397.469 3.57121 0.828275 0
M  V30 4275 H 397.117 3.80174 3.29358 0
M  V30 4276 H 396.817 5.34132 2.44901 0
M  V30 4277 H 398.341 5.10442 3.35084 0
M  V30 4278 H 399.755 5.61883 1.13842 0
M  V30 4279 H 398.152 5.98506 0.437097 0
M  V30 4280 H 399.222 4.83384 -0.383147 0
M  V30 4281 N 400.565 -0.0233959 1.57583 0
M  V30 4282 C 401.842 -0.748794 1.807 0
M  V30 4283 C 402.222 -1.9327 0.849106 0
M  V30 4284 O 401.57 -2.28247 -0.107468 0
M  V30 4285 C 401.78 -1.17651 3.28571 0
M  V30 4286 C 403.128 -1.59008 3.93702 0
M  V30 4287 O 404.152 -1.27094 3.32755 0
M  V30 4288 O 403.011 -2.18264 5.01022 0
M  V30 4289 H 400.105 -0.362578 0.743281 0
M  V30 4290 H 402.651 0.000261958 1.697 0
M  V30 4291 H 401.423 -0.331603 3.89892 0
M  V30 4292 H 401.046 -1.98541 3.44481 0
M  V30 4293 N 402.043 -1.548 -0.295768 0
M  V30 4294 C 403.006 -1.85363 -1.34808 0
M  V30 4295 C 404.006 -0.726817 -1.43436 0
M  V30 4296 O 405.196 -0.995088 -1.42981 0
M  V30 4297 C 402.328 -2.03859 -2.73229 0
M  V30 4298 H 403.521 -2.7941 -1.08949 0
M  V30 4299 H 401.074 -1.46942 -0.532702 0
M  V30 4300 H 401.809 -1.12117 -3.04303 0
M  V30 4301 H 401.594 -2.8588 -2.68356 0
M  V30 4302 H 403.084 -2.28857 -3.49305 0
M  V30 4303 N 403.521 0.559213 -1.47345 0
M  V30 4304 C 404.468 1.66645 -1.59682 0
M  V30 4305 C 405.438 1.60168 -0.43994 0
M  V30 4306 O 406.623 1.79031 -0.659736 0
M  V30 4307 C 403.763 3.04969 -1.61518 0
M  V30 4308 C 402.876 3.21897 -2.88108 0
M  V30 4309 C 402.011 4.50608 -2.81294 0
M  V30 4310 C 401.05 4.60961 -4.02717 0
M  V30 4311 N 400.187 5.81024 -3.94151 0
M  V30 4312 H 405.027 1.55439 -2.54249 0
M  V30 4313 H 402.564 0.757219 -1.26113 0
M  V30 4314 H 404.522 3.85064 -1.60566 0
M  V30 4315 H 403.152 3.15015 -0.704645 0
M  V30 4316 H 402.204 2.35248 -2.98936 0
M  V30 4317 H 403.516 3.25412 -3.78032 0
M  V30 4318 H 402.67 5.3896 -2.7858 0
M  V30 4319 H 401.409 4.49568 -1.89049 0
M  V30 4320 H 400.414 3.71021 -4.05738 0
M  V30 4321 H 401.639 4.63761 -4.96087 0
M  V30 4322 H 399.585 5.80938 -3.04708 0
M  V30 4323 H 399.502 5.85909 -4.77752 0
M  V30 4324 H 400.77 6.71744 -3.9545 0
M  V30 4325 N 404.999 1.35443 0.805782 0
M  V30 4326 C 405.909 1.30546 1.94923 0
M  V30 4327 C 406.925 0.210233 1.72725 0
M  V30 4328 O 408.101 0.43975 1.9654 0
M  V30 4329 C 405.166 1.07782 3.29521 0
M  V30 4330 C 404.227 2.26625 3.64609 0
M  V30 4331 C 403.46 2.04938 4.92784 0
M  V30 4332 O 403.683 1.01624 5.61274 0
M  V30 4333 O 402.617 2.9232 5.26149 0
M  V30 4334 H 406.443 2.26779 2.02002 0
M  V30 4335 H 404.028 1.15823 0.943682 0
M  V30 4336 H 405.91 0.969392 4.10098 0
M  V30 4337 H 404.585 0.146003 3.23371 0
M  V30 4338 H 403.492 2.43033 2.84404 0
M  V30 4339 H 404.825 3.18257 3.75464 0
M  V30 4340 N 406.477 -1.02803 1.19454 0
M  V30 4341 C 407.725 -1.75869 0.995722 0
M  V30 4342 C 408.046 -1.89138 -0.474543 0
M  V30 4343 O 407.316 -1.42558 -1.34366 0
M  V30 4344 H 405.896 -0.651511 0.365435 0
M  V30 4345 H 408.558 -1.24004 1.50363 0
M  V30 4346 H 407.654 -2.76661 1.44447 0
M  V30 4347 N 407.956 -0.998596 -1.21925 0
M  V30 4348 C 408.919 -0.558679 -2.22287 0
M  V30 4349 C 409.919 0.361525 -1.56683 0
M  V30 4350 O 411.109 0.152695 -1.73529 0
M  V30 4351 C 408.241 0.18661 -3.40389 0
M  V30 4352 H 409.434 -1.4463 -2.62721 0
M  V30 4353 H 406.987 -0.786413 -1.35075 0
M  V30 4354 H 407.722 1.08996 -3.05435 0
M  V30 4355 H 407.507 -0.474188 -3.89222 0
M  V30 4356 H 408.997 0.482367 -4.14805 0
M  V30 4357 N 409.434 1.37368 -0.772513 0
M  V30 4358 C 410.367 2.27956 -0.105593 0
M  V30 4359 C 411.345 1.46362 0.708295 0
M  V30 4360 O 412.529 1.75695 0.682895 0
M  V30 4361 C 409.656 3.27687 0.856686 0
M  V30 4362 C 408.702 4.26312 0.1267 0
M  V30 4363 S 409.535 5.22206 -1.1858 0
M  V30 4364 C 410.691 6.25488 -0.227081 0
M  V30 4365 H 410.924 2.84171 -0.87372 0
M  V30 4366 H 408.457 1.43654 -0.565939 0
M  V30 4367 H 410.415 3.85653 1.40648 0
M  V30 4368 H 409.076 2.70417 1.59793 0
M  V30 4369 H 408.269 4.96674 0.856212 0
M  V30 4370 H 407.871 3.72339 -0.352117 0
M  V30 4371 H 410.163 6.74836 0.600231 0
M  V30 4372 H 411.106 7.02371 -0.898899 0
M  V30 4373 H 411.514 5.64267 0.162053 0
M  V30 4374 N 410.912 0.523116 1.48665 0
M  V30 4375 C 412.158 -0.0134963 2.02796 0
M  V30 4376 C 412.491 -1.34582 1.40004 0
M  V30 4377 O 411.766 -1.86756 0.543381 0
M  V30 4378 C 412.049 -0.14276 3.59817 0
M  V30 4379 C 411.902 1.21425 4.331 0
M  V30 4380 C 413.221 -0.872856 4.31357 0
M  V30 4381 H 410.34 -0.00343074 0.736992 0
M  V30 4382 H 412.982 0.678816 1.7746 0
M  V30 4383 H 411.132 -0.732401 3.81534 0
M  V30 4384 H 412.804 1.84447 4.2282 0
M  V30 4385 H 411.047 1.79791 3.94788 0
M  V30 4386 H 411.718 1.07687 5.41394 0
M  V30 4387 H 414.194 -0.372555 4.14429 0
M  V30 4388 H 413.07 -0.932185 5.40927 0
M  V30 4389 H 413.331 -1.92161 3.98154 0
M  V30 4390 N 412.39 -1.55475 0.257931 0
M  V30 4391 C 413.615 -2.04064 -0.370488 0
M  V30 4392 C 414.04 -1.13565 -1.49948 0
M  V30 4393 O 413.398 -0.130781 -1.80828 0
M  V30 4394 C 413.446 -3.50554 -0.845237 0
M  V30 4395 O 412.55 -3.63173 -1.95394 0
M  V30 4396 H 411.891 -0.659257 -0.0792243 0
M  V30 4397 H 414.421 -2.00903 0.387212 0
M  V30 4398 H 414.431 -3.91588 -1.14555 0
M  V30 4399 H 413.106 -4.15896 -0.0191259 0
M  V30 4400 H 411.683 -3.34039 -1.65748 0
M  V30 4401 N 413.868 0.0150385 -1.57593 0
M  V30 4402 C 414.816 1.02958 -2.08572 0
M  V30 4403 C 415.81 1.36554 -1.00246 0
M  V30 4404 O 417.016 1.35295 -1.18724 0
M  V30 4405 H 413.391 0.349619 -0.665786 0
M  V30 4406 H 415.362 0.573932 -2.92829 0
M  V30 4407 C 414.111 2.31752 -2.59203 0
M  V30 4408 H 413.434 2.06765 -3.42182 0
M  V30 4409 H 414.874 3.01053 -2.98568 0
M  V30 4410 C 413.333 3.01692 -1.49945 0
M  V30 4411 O 413.863 3.92083 -0.873704 0
M  V30 4412 N 412.069 2.6326 -1.23056 0
M  V30 4413 H 411.616 1.89838 -1.74125 0
M  V30 4414 H 411.574 3.10372 -0.501685 0
M  V30 4415 N 415.346 1.54954 0.287554 0
M  V30 4416 C 416.309 1.86076 1.33823 0
M  V30 4417 C 417.309 0.734414 1.43049 0
M  V30 4418 O 418.499 1.00266 1.42452 0
M  V30 4419 C 415.631 2.05305 2.72144 0
M  V30 4420 H 416.824 2.79984 1.07465 0
M  V30 4421 H 414.377 1.47223 0.524902 0
M  V30 4422 H 415.112 1.1373 3.03704 0
M  V30 4423 H 414.897 2.873 2.66836 0
M  V30 4424 H 416.387 2.30706 3.48087 0
M  V30 4425 N 416.824 -0.551391 1.4764 0
M  V30 4426 C 418.071 -1.3083 1.54563 0
M  V30 4427 C 418.399 -1.93359 0.210361 0
M  V30 4428 O 417.654 -1.78721 -0.797332 0
M  V30 4429 C 417.953 -2.43469 2.61644 0
M  V30 4430 C 417.619 -1.98732 4.04742 0
M  V30 4431 C 416.281 -1.86248 4.43695 0
M  V30 4432 C 418.633 -1.64659 4.94507 0
M  V30 4433 C 415.961 -1.37995 5.70241 0
M  V30 4434 C 418.313 -1.17875 6.21521 0
M  V30 4435 C 416.977 -1.03992 6.5935 0
M  V30 4436 H 416.247 -0.478741 0.565587 0
M  V30 4437 H 418.894 -0.617697 1.81264 0
M  V30 4438 H 417.199 -3.18109 2.28722 0
M  V30 4439 H 418.896 -3.01642 2.64222 0
M  V30 4440 H 415.486 -2.09393 3.73968 0
M  V30 4441 H 419.67 -1.73174 4.65107 0
M  V30 4442 H 414.926 -1.25915 5.98294 0
M  V30 4443 H 419.1 -0.905739 6.90485 0
M  V30 4444 H 416.727 -0.663794 7.57296 0
M  V30 4445 N 418.302 -1.35869 -0.798587 0
M  V30 4446 C 419.551 -1.28921 -1.5512 0
M  V30 4447 C 419.864 0.13208 -1.95154 0
M  V30 4448 O 421.07 0.323879 -2.69561 0
M  V30 4449 C 419.526 -2.26141 -2.79979 0
M  V30 4450 C 419.134 -3.73658 -2.47151 0
M  V30 4451 C 420.878 -2.28152 -3.57976 0
M  V30 4452 C 418.785 -4.62679 -3.6835 0
M  V30 4453 H 417.715 -0.479031 -0.582276 0
M  V30 4454 H 420.366 -1.61179 -0.877125 0
M  V30 4455 H 418.748 -1.86865 -3.49138 0
M  V30 4456 H 419.922 -4.21616 -1.85947 0
M  V30 4457 H 418.237 -3.74333 -1.82383 0
M  V30 4458 H 420.834 -2.91875 -4.4801 0
M  V30 4459 H 421.177 -1.28748 -3.95891 0
M  V30 4460 H 421.71 -2.65998 -2.95787 0
M  V30 4461 H 418.449 -5.63111 -3.35538 0
M  V30 4462 H 417.969 -4.19442 -4.28752 0
M  V30 4463 H 419.648 -4.78498 -4.35487 0
M  V30 4464 N 419.78 1.02168 -1.19998 0
M  V30 4465 C 420.712 2.10705 -0.901994 0
M  V30 4466 C 421.725 1.6244 0.108216 0
M  V30 4467 O 422.914 1.78082 -0.12214 0
M  V30 4468 C 420.014 3.37291 -0.329834 0
M  V30 4469 C 419.187 4.14714 -1.39035 0
M  V30 4470 C 418.246 5.19606 -0.830432 0
M  V30 4471 O 417.272 5.48809 -1.50989 0
M  V30 4472 N 418.474 5.79366 0.362696 0
M  V30 4473 H 421.239 2.36856 -1.83628 0
M  V30 4474 H 418.8 1.18518 -1.10296 0
M  V30 4475 H 420.792 4.04657 0.0587633 0
M  V30 4476 H 419.362 3.0843 0.508891 0
M  V30 4477 H 418.582 3.42392 -1.9535 0
M  V30 4478 H 419.87 4.63226 -2.10474 0
M  V30 4479 H 419.268 5.57968 0.932081 0
M  V30 4480 H 417.825 6.48106 0.69299 0
M  V30 4481 N 421.258 1.00505 1.21394 0
M  V30 4482 C 422.483 0.706367 1.95001 0
M  V30 4483 C 422.908 -0.72463 1.73582 0
M  V30 4484 O 422.266 -1.49702 1.0227 0
M  V30 4485 C 422.314 1.03299 3.45487 0
M  V30 4486 O 421.418 0.138275 4.12168 0
M  V30 4487 H 420.759 0.263175 0.609619 0
M  V30 4488 H 423.289 1.34531 1.54151 0
M  V30 4489 H 423.299 0.979872 3.96059 0
M  V30 4490 H 421.974 2.07567 3.60401 0
M  V30 4491 H 420.551 0.247928 3.72075 0
M  V30 4492 N 422.737 -1.36956 0.779787 0
M  V30 4493 C 423.7 -2.2851 0.177662 0
M  V30 4494 C 424.7 -1.48393 -0.619377 0
M  V30 4495 O 425.89 -1.68505 -0.441785 0
M  V30 4496 C 423.022 -3.32428 -0.755279 0
M  V30 4497 H 424.215 -2.83269 0.984823 0
M  V30 4498 H 421.768 -1.46358 0.548544 0
M  V30 4499 H 422.503 -2.82808 -1.58714 0
M  V30 4500 H 422.288 -3.91659 -0.185817 0
M  V30 4501 H 423.778 -4.00824 -1.17174 0
M  V30 4502 N 424.215 -0.530993 -1.48385 0
M  V30 4503 C 425.492 0.0671788 -1.95485 0
M  V30 4504 C 425.872 1.51191 -1.47324 0
M  V30 4505 O 425.22 2.17507 -0.700202 0
M  V30 4506 C 425.43 -0.0511206 -3.48963 0
M  V30 4507 C 426.778 0.107632 -4.24464 0
M  V30 4508 O 427.802 0.0226248 -3.56193 0
M  V30 4509 O 426.661 0.285972 -5.45751 0
M  V30 4510 H 423.755 0.0787365 -0.823243 0
M  V30 4511 H 426.301 -0.595662 -1.58902 0
M  V30 4512 H 425.073 -1.05747 -3.7674 0
M  V30 4513 H 424.696 0.650525 -3.92242 0
M  V30 4514 N 425.693 1.55336 -0.266172 0
M  V30 4515 C 426.941 1.99003 0.35246 0
M  V30 4516 C 427.262 1.15591 1.57047 0
M  V30 4517 O 426.532 0.243268 1.94384 0
M  V30 4518 H 425.112 0.735025 0.133217 0
M  V30 4519 H 427.774 1.91367 -0.369434 0
M  V30 4520 H 426.87 3.05289 0.648453 0
M  V30 4521 N 427.171 -0.0066808 1.57599 0
M  V30 4522 C 428.399 -0.704087 1.94551 0
M  V30 4523 C 428.814 -1.67677 0.867746 0
M  V30 4524 O 428.171 -1.8185 -0.153925 0
M  V30 4525 C 428.222 -1.44177 3.31505 0
M  V30 4526 O 427.943 -0.508097 4.35144 0
M  V30 4527 C 429.444 -2.23429 3.82876 0
M  V30 4528 H 426.664 -0.196523 0.641576 0
M  V30 4529 H 429.208 0.042453 2.04456 0
M  V30 4530 H 427.363 -2.13999 3.22929 0
M  V30 4531 H 427.777 -1.02782 5.14331 0
M  V30 4532 H 429.251 -2.70552 4.8115 0
M  V30 4533 H 429.728 -3.05818 3.15233 0
M  V30 4534 H 430.334 -1.58636 3.94607 0
M  V30 4535 N 428.649 -1.55105 -0.279332 0
M  V30 4536 C 429.897 -1.75066 -1.00977 0
M  V30 4537 C 430.218 -0.551276 -1.87045 0
M  V30 4538 O 429.488 0.433984 -1.91032 0
M  V30 4539 H 428.068 -0.645578 -0.375816 0
M  V30 4540 H 430.73 -1.92497 -0.305089 0
M  V30 4541 H 429.826 -2.64894 -1.65038 0
M  V30 4542 N 430.127 0.543554 -1.4793 0
M  V30 4543 C 431.373 1.29961 -1.56466 0
M  V30 4544 C 431.728 1.91024 -0.229696 0
M  V30 4545 O 431.021 1.75619 0.766072 0
M  V30 4546 C 431.215 2.42078 -2.62932 0
M  V30 4547 C 431.044 1.92003 -4.06651 0
M  V30 4548 C 429.814 1.75223 -4.73946 0
M  V30 4549 C 432.012 1.45648 -4.93245 0
M  V30 4550 N 429.994 1.19632 -6.02131 0
M  V30 4551 C 431.365 1.01914 -6.11566 0
M  V30 4552 C 433.42 1.33826 -4.79578 0
M  V30 4553 C 432.123 0.475301 -7.17728 0
M  V30 4554 C 434.149 0.808427 -5.85848 0
M  V30 4555 C 433.511 0.381081 -7.03368 0
M  V30 4556 H 429.61 0.467086 -0.62718 0
M  V30 4557 H 432.194 0.614543 -1.84747 0
M  V30 4558 H 430.365 3.08098 -2.36496 0
M  V30 4559 H 432.097 3.09096 -2.61231 0
M  V30 4560 H 428.852 1.98345 -4.30065 0
M  V30 4561 H 429.276 0.93885 -6.70458 0
M  V30 4562 H 433.918 1.65474 -3.89074 0
M  V30 4563 H 431.636 0.146472 -8.07967 0
M  V30 4564 H 435.222 0.720315 -5.77324 0
M  V30 4565 H 434.102 -0.0225344 -7.84197 0
M  V30 4566 N 431.605 1.3629 0.791371 0
M  V30 4567 C 432.835 1.33368 1.57786 0
M  V30 4568 C 433.243 -0.0875188 1.88997 0
M  V30 4569 O 432.586 -1.05427 1.50435 0
M  V30 4570 C 432.648 2.08802 2.92646 0
M  V30 4571 C 432.312 3.57903 2.84174 0
M  V30 4572 C 433.309 4.52191 2.56553 0
M  V30 4573 C 430.994 4.00762 3.02812 0
M  V30 4574 C 432.988 5.87315 2.47669 0
M  V30 4575 C 430.675 5.35977 2.93551 0
M  V30 4576 C 431.673 6.29066 2.66017 0
M  V30 4577 O 431.361 7.61798 2.56746 0
M  V30 4578 H 431.093 0.459166 0.496128 0
M  V30 4579 H 433.647 1.79952 0.990269 0
M  V30 4580 H 431.877 1.56878 3.53449 0
M  V30 4581 H 433.566 1.98762 3.53904 0
M  V30 4582 H 434.332 4.20393 2.41858 0
M  V30 4583 H 430.211 3.2868 3.2325 0
M  V30 4584 H 433.755 6.59943 2.26099 0
M  V30 4585 H 429.652 5.67384 3.07808 0
M  V30 4586 H 430.42 7.71898 2.72242 0
M  V30 4587 N 433.083 -1.0153 1.20538 0
M  V30 4588 C 434.313 -1.78487 1.04048 0
M  V30 4589 C 434.721 -1.84631 -0.413292 0
M  V30 4590 O 434.064 -1.29919 -1.29872 0
M  V30 4591 C 434.126 -3.24367 1.55003 0
M  V30 4592 C 433.79 -3.41827 3.0332 0
M  V30 4593 C 434.787 -3.30941 4.00966 0
M  V30 4594 C 432.472 -3.67602 3.42307 0
M  V30 4595 C 434.466 -3.45577 5.35589 0
M  V30 4596 C 432.153 -3.81881 4.77085 0
M  V30 4597 C 433.151 -3.70874 5.73534 0
M  V30 4598 O 432.839 -3.84714 7.05868 0
M  V30 4599 H 432.571 -0.568108 0.366373 0
M  V30 4600 H 435.125 -1.28677 1.60098 0
M  V30 4601 H 433.355 -3.75266 0.933397 0
M  V30 4602 H 435.044 -3.82963 1.34514 0
M  V30 4603 H 435.81 -3.10964 3.72191 0
M  V30 4604 H 431.689 -3.75256 2.67776 0
M  V30 4605 H 435.233 -3.36902 6.10854 0
M  V30 4606 H 431.13 -4.01359 5.0555 0
M  V30 4607 H 431.898 -4.01724 7.13134 0
M  V30 4608 N 434.561 -1.01147 -1.20859 0
M  V30 4609 C 435.491 -0.597663 -2.25722 0
M  V30 4610 C 436.472 0.384744 -1.65692 0
M  V30 4611 O 437.657 0.271303 -1.92296 0
M  V30 4612 C 434.787 0.0700149 -3.47229 0
M  V30 4613 C 433.741 -0.832843 -4.19819 0
M  V30 4614 C 433.067 -0.0312202 -5.34691 0
M  V30 4615 C 434.367 -2.1385 -4.76514 0
M  V30 4616 H 436.061 -1.47423 -2.60589 0
M  V30 4617 H 433.607 -0.710301 -1.25263 0
M  V30 4618 H 435.56 0.37103 -4.19763 0
M  V30 4619 H 434.284 0.981259 -3.11511 0
M  V30 4620 H 432.943 -1.11778 -3.49144 0
M  V30 4621 H 432.591 0.881515 -4.95215 0
M  V30 4622 H 432.291 -0.632434 -5.84187 0
M  V30 4623 H 433.815 0.26346 -6.10031 0
M  V30 4624 H 435.229 -1.9002 -5.40893 0
M  V30 4625 H 433.626 -2.69012 -5.36426 0
M  V30 4626 H 434.696 -2.80495 -3.95538 0
M  V30 4627 N 436.039 1.36541 -0.78704 0
M  V30 4628 C 436.986 2.30082 -0.181901 0
M  V30 4629 C 437.956 1.5186 0.672896 0
M  V30 4630 O 439.141 1.80374 0.622072 0
M  V30 4631 C 436.281 3.3835 0.679197 0
M  V30 4632 C 435.394 4.31565 -0.193882 0
M  V30 4633 C 434.529 5.26915 0.673364 0
M  V30 4634 C 433.568 6.11769 -0.201315 0
M  V30 4635 N 432.705 6.99315 0.624777 0
M  V30 4636 H 437.545 2.81248 -0.985064 0
M  V30 4637 H 435.082 1.38437 -0.497342 0
M  V30 4638 H 437.04 3.99767 1.19341 0
M  V30 4639 H 435.67 2.8851 1.44781 0
M  V30 4640 H 434.722 3.71323 -0.826044 0
M  V30 4641 H 436.034 4.91191 -0.867937 0
M  V30 4642 H 435.188 5.9361 1.25348 0
M  V30 4643 H 433.927 4.67737 1.38105 0
M  V30 4644 H 432.932 5.44039 -0.793849 0
M  V30 4645 H 434.157 6.73022 -0.906568 0
M  V30 4646 H 432.103 6.42648 1.3168 0
M  V30 4647 H 432.02 7.56 0.00835237 0
M  V30 4648 H 433.288 7.70382 1.18879 0
M  V30 4649 N 437.518 0.538854 1.48102 0
M  V30 4650 C 438.929 0.100679 1.86428 0
M  V30 4651 C 439.28 -1.32447 1.44749 0
M  V30 4652 O 438.405 -1.99339 0.842199 0
M  V30 4653 C 439 0.175933 3.38343 0
M  V30 4654 C 437.559 -0.207098 3.7583 0
M  V30 4655 C 436.706 0.531741 2.72154 0
M  V30 4656 H 439.657 0.749614 1.3988 0
M  V30 4657 H 439.678 -0.610144 3.75576 0
M  V30 4658 H 439.19 1.21328 3.68648 0
M  V30 4659 H 437.291 -1.24626 3.5114 0
M  V30 4660 H 437.404 0.138687 4.78899 0
M  V30 4661 H 435.768 -0.0230462 2.5469 0
M  V30 4662 H 436.551 1.56989 3.05302 0
M  V30 4663 N 438.996 -1.55193 0.274407 0
M  V30 4664 C 440.273 -1.91584 -0.394331 0
M  V30 4665 C 440.653 -1.19858 -1.73774 0
M  V30 4666 O 440.001 -0.3252 -2.26174 0
M  V30 4667 C 440.211 -3.4487 -0.535311 0
M  V30 4668 C 441.559 -4.16636 -0.818534 0
M  V30 4669 O 442.583 -3.5076 -0.620146 0
M  V30 4670 O 441.442 -5.33209 -1.19792 0
M  V30 4671 H 438.536 -0.798349 -0.215794 0
M  V30 4672 H 441.082 -1.66646 0.320507 0
M  V30 4673 H 439.854 -3.89145 0.410141 0
M  V30 4674 H 439.477 -3.75759 -1.29964 0
M  V30 4675 N 440.474 -0.00167713 -1.576 0
M  V30 4676 C 441.722 0.681471 -1.90264 0
M  V30 4677 C 442.043 1.7422 -0.875924 0
M  V30 4678 O 441.313 1.95709 0.0864412 0
M  V30 4679 H 439.893 0.254696 -0.702239 0
M  V30 4680 H 442.555 -0.0429996 -1.94853 0
M  V30 4681 H 441.651 1.15166 -2.90075 0
M  V30 4682 N 441.952 1.55251 0.271103 0
M  V30 4683 C 443.18 1.79974 1.02064 0
M  V30 4684 C 443.595 0.574003 1.79863 0
M  V30 4685 O 442.952 -0.456962 1.76686 0
M  V30 4686 C 443.003 3.02603 1.97772 0
M  V30 4687 O 442.724 4.20443 1.23124 0
M  V30 4688 C 444.225 3.39944 2.84522 0
M  V30 4689 H 441.445 0.599489 0.301419 0
M  V30 4690 H 443.989 2.02268 0.301313 0
M  V30 4691 H 442.144 2.8243 2.65165 0
M  V30 4692 H 442.558 4.89783 1.87651 0
M  V30 4693 H 444.032 4.28915 3.47471 0
M  V30 4694 H 444.509 2.59432 3.54389 0
M  V30 4695 H 445.115 3.62383 2.22618 0
M  V30 4696 N 443.43 -0.535701 1.48216 0
M  V30 4697 C 444.36 -1.65014 1.65204 0
M  V30 4698 C 445.341 -1.62554 0.501011 0
M  V30 4699 O 446.526 -1.7984 0.732886 0
M  V30 4700 C 443.656 -3.03616 1.68626 0
M  V30 4701 C 442.61 -3.20932 2.83172 0
M  V30 4702 C 441.936 -4.60537 2.71679 0
M  V30 4703 C 443.236 -3.04249 4.24535 0
M  V30 4704 H 444.93 -1.51053 2.58502 0
M  V30 4705 H 442.476 -0.725262 1.24402 0
M  V30 4706 H 444.429 -3.81446 1.79099 0
M  V30 4707 H 443.153 -3.18587 0.719026 0
M  V30 4708 H 441.812 -2.45517 2.72244 0
M  V30 4709 H 441.46 -4.72336 1.72937 0
M  V30 4710 H 441.16 -4.73069 3.48538 0
M  V30 4711 H 442.684 -5.40475 2.84112 0
M  V30 4712 H 444.098 -3.71877 4.36326 0
M  V30 4713 H 442.495 -3.28278 5.02348 0
M  V30 4714 H 443.565 -2.00739 4.41397 0
M  V30 4715 N 444.908 -1.36708 -0.784132 0
M  V30 4716 C 445.871 -1.31307 -1.87859 0
M  V30 4717 C 446.871 -0.219654 -1.59293 0
M  V30 4718 O 448.061 -0.47476 -1.67606 0
M  V30 4719 C 445.193 -1.03679 -3.24751 0
M  V30 4720 H 446.386 -2.28647 -1.94064 0
M  V30 4721 H 443.939 -1.21558 -0.98252 0
M  V30 4722 H 444.674 -0.0681936 -3.24228 0
M  V30 4723 H 444.459 -1.82811 -3.46876 0
M  V30 4724 H 445.949 -1.02518 -4.04821 0
M  V30 4725 N 446.386 1.0089 -1.21074 0
M  V30 4726 C 447.663 1.71834 -0.934469 0
M  V30 4727 C 448.043 2.0368 0.554753 0
M  V30 4728 O 447.391 1.70742 1.51854 0
M  V30 4729 C 447.601 2.98061 -1.8155 0
M  V30 4730 C 448.949 3.7117 -2.06199 0
M  V30 4731 O 449.973 3.08034 -1.78867 0
M  V30 4732 O 448.832 4.84721 -2.52404 0
M  V30 4733 H 445.926 0.749253 -0.35007 0
M  V30 4734 H 448.472 1.06668 -1.31985 0
M  V30 4735 H 447.244 2.70908 -2.82355 0
M  V30 4736 H 446.867 3.70968 -1.43068 0
M  V30 4737 N 447.864 1.01787 1.20321 0
M  V30 4738 C 448.811 0.589197 2.23153 0
M  V30 4739 C 449.781 -0.391367 1.61423 0
M  V30 4740 O 450.966 -0.290518 1.88575 0
M  V30 4741 C 448.106 -0.0650747 3.45039 0
M  V30 4742 C 447.219 0.960207 4.21194 0
M  V30 4743 C 446.354 0.276854 5.30478 0
M  V30 4744 C 445.393 1.2888 5.98378 0
M  V30 4745 N 444.53 0.632031 6.99249 0
M  V30 4746 H 449.37 1.47071 2.59179 0
M  V30 4747 H 446.907 0.736192 1.27352 0
M  V30 4748 H 448.865 -0.461552 4.14639 0
M  V30 4749 H 447.495 -0.910233 3.09701 0
M  V30 4750 H 446.547 1.47484 3.50646 0
M  V30 4751 H 447.859 1.72977 4.67847 0
M  V30 4752 H 447.013 -0.175056 6.06447 0
M  V30 4753 H 445.752 -0.525004 4.84866 0
M  V30 4754 H 444.757 1.75109 5.21169 0
M  V30 4755 H 445.982 2.09196 6.46076 0
M  V30 4756 H 443.928 -0.149935 6.55829 0
M  V30 4757 H 443.845 1.33964 7.44036 0
M  V30 4758 H 445.113 0.203755 7.79234 0
M  V30 4759 N 449.342 -1.36122 0.79427 0
M  V30 4760 C 450.753 -1.81646 0.431446 0
M  V30 4761 C 451.104 -1.66043 -1.04518 0
M  V30 4762 O 450.229 -1.1841 -1.8113 0
M  V30 4763 C 450.824 -3.29785 0.776341 0
M  V30 4764 C 449.383 -3.73501 0.466282 0
M  V30 4765 C 448.53 -2.58313 1.00844 0
M  V30 4766 H 451.481 -1.24274 0.986995 0
M  V30 4767 H 451.502 -3.80437 0.0692413 0
M  V30 4768 H 451.014 -3.4111 1.8511 0
M  V30 4769 H 449.115 -3.67733 -0.600245 0
M  V30 4770 H 449.228 -4.68754 0.990288 0
M  V30 4771 H 447.592 -2.5102 0.431406 0
M  V30 4772 H 448.375 -2.72421 2.08906 0
M  V30 4773 N 450.82 -0.546701 -1.47814 0
M  V30 4774 C 451.73 0.21026 -2.33656 0
M  V30 4775 C 452.746 0.922413 -1.47538 0
M  V30 4776 O 453.922 0.893652 -1.80488 0
M  V30 4777 C 450.987 1.23348 -3.24016 0
M  V30 4778 C 450.048 0.529883 -4.26017 0
M  V30 4779 C 449.281 1.50435 -5.12059 0
M  V30 4780 O 449.504 2.73837 -5.00369 0
M  V30 4781 O 448.438 1.03459 -5.92942 0
M  V30 4782 H 452.264 -0.493605 -2.99662 0
M  V30 4783 H 449.849 -0.307427 -1.46203 0
M  V30 4784 H 451.731 1.82438 -3.79861 0
M  V30 4785 H 450.406 1.91945 -2.60651 0
M  V30 4786 H 449.313 -0.101948 -3.73961 0
M  V30 4787 H 450.646 -0.11445 -4.92067 0
M  V30 4788 N 452.299 1.55045 -0.282633 0
M  V30 4789 C 453.546 1.9976 0.33199 0
M  V30 4790 C 453.874 1.17105 1.55295 0
M  V30 4791 O 453.129 0.230599 1.94337 0
M  V30 4792 C 453.428 3.49422 0.750938 0
M  V30 4793 C 453.094 4.4941 -0.366228 0
M  V30 4794 C 451.756 4.76471 -0.672964 0
M  V30 4795 C 454.108 5.09054 -1.11864 0
M  V30 4796 C 451.436 5.60442 -1.73556 0
M  V30 4797 C 453.788 5.9418 -2.17102 0
M  V30 4798 C 452.452 6.19558 -2.48402 0
M  V30 4799 H 451.722 0.730974 0.121484 0
M  V30 4800 H 454.369 1.8732 -0.39791 0
M  V30 4801 H 452.674 3.59377 1.56063 0
M  V30 4802 H 454.371 3.81432 1.23736 0
M  V30 4803 H 450.961 4.2844 -0.117041 0
M  V30 4804 H 455.145 4.88165 -0.894925 0
M  V30 4805 H 450.401 5.78349 -1.983 0
M  V30 4806 H 454.575 6.39427 -2.75873 0
M  V30 4807 H 452.202 6.84417 -3.30874 0
M  V30 4808 N 453.777 0.010035 1.57597 0
M  V30 4809 C 455.005 -0.683413 1.95287 0
M  V30 4810 C 455.42 -1.66747 0.885481 0
M  V30 4811 O 454.777 -1.82003 -0.134629 0
M  V30 4812 C 454.828 -1.40652 3.33015 0
M  V30 4813 O 454.549 -0.461916 4.35658 0
M  V30 4814 C 456.05 -2.19356 3.85225 0
M  V30 4815 H 453.27 -0.189708 0.643624 0
M  V30 4816 H 455.814 0.0641359 2.04399 0
M  V30 4817 H 453.969 -2.10562 3.2518 0
M  V30 4818 H 454.383 -0.973215 5.15392 0
M  V30 4819 H 455.857 -2.65433 4.83993 0
M  V30 4820 H 456.334 -3.02457 3.18459 0
M  V30 4821 H 456.94 -1.54442 3.96267 0
M  V30 4822 N 455.255 -1.55392 -0.262866 0
M  V30 4823 C 456.501 -1.76737 -0.99458 0
M  V30 4824 C 456.834 -0.572453 -1.85571 0
M  V30 4825 O 456.109 0.429732 -1.89693 0
M  V30 4826 C 456.392 -3.07824 -1.8686 0
M  V30 4827 C 456.245 -4.3769 -1.03672 0
M  V30 4828 C 457.564 -3.35021 -2.85393 0
M  V30 4829 H 454.683 -0.643005 -0.360157 0
M  V30 4830 H 457.325 -1.88126 -0.266216 0
M  V30 4831 H 455.475 -2.98245 -2.48962 0
M  V30 4832 H 457.147 -4.59238 -0.43563 0
M  V30 4833 H 455.39 -4.32461 -0.340513 0
M  V30 4834 H 456.061 -5.25759 -1.6817 0
M  V30 4835 H 458.537 -3.44458 -2.33426 0
M  V30 4836 H 457.413 -4.27989 -3.43681 0
M  V30 4837 H 457.674 -2.55153 -3.61039 0
M  V30 4838 N 456.733 0.527833 -1.48498 0
M  V30 4839 C 457.643 1.65907 -1.65867 0
M  V30 4840 C 458.659 1.6537 -0.541192 0
M  V30 4841 O 459.835 1.84282 -0.812534 0
M  V30 4842 C 456.9 3.02364 -1.69637 0
M  V30 4843 C 455.961 3.1374 -2.93028 0
M  V30 4844 C 455.194 4.43688 -2.96609 0
M  V30 4845 O 455.417 5.30913 -2.08538 0
M  V30 4846 O 454.351 4.59475 -3.88802 0
M  V30 4847 H 458.177 1.5419 -2.61647 0
M  V30 4848 H 455.762 0.701163 -1.31924 0
M  V30 4849 H 457.644 3.83515 -1.74625 0
M  V30 4850 H 456.319 3.14401 -0.770312 0
M  V30 4851 H 455.226 2.31877 -2.93571 0
M  V30 4852 H 456.559 3.06621 -3.85026 0
M  V30 4853 N 458.211 1.37122 0.776871 0
M  V30 4854 C 459.622 1.28667 1.35284 0
M  V30 4855 C 459.973 -0.0680035 1.96082 0
M  V30 4856 O 459.098 -0.969743 1.93455 0
M  V30 4857 C 459.693 2.32997 2.45963 0
M  V30 4858 C 458.252 2.28191 2.99342 0
M  V30 4859 C 457.399 2.17101 1.72517 0
M  V30 4860 H 460.35 1.47819 0.577527 0
M  V30 4861 H 460.371 1.97366 3.2531 0
M  V30 4862 H 459.883 3.3158 2.01684 0
M  V30 4863 H 457.984 1.33115 3.4801 0
M  V30 4864 H 458.097 3.21397 3.55304 0
M  V30 4865 H 456.461 1.63562 1.95242 0
M  V30 4866 H 457.244 3.17591 1.30348 0
M  V30 4867 N 459.689 -1.00246 1.21608 0
M  V30 4868 C 460.966 -1.71336 0.943568 0
M  V30 4869 C 461.346 -2.03972 -0.543943 0
M  V30 4870 O 460.694 -1.71545 -1.50946 0
M  V30 4871 C 460.904 -2.97094 1.83128 0
M  V30 4872 C 462.252 -3.70071 2.08165 0
M  V30 4873 O 463.276 -3.07081 1.80498 0
M  V30 4874 O 462.135 -4.83376 2.54971 0
M  V30 4875 H 459.229 -0.747386 0.354039 0
M  V30 4876 H 461.775 -1.05967 1.32549 0
M  V30 4877 H 460.547 -2.69407 2.83788 0
M  V30 4878 H 460.17 -3.70204 1.45034 0
M  V30 4879 N 461.167 -1.02423 -1.1978 0
M  V30 4880 C 462.415 -0.716569 -1.8897 0
M  V30 4881 C 462.736 0.756769 -1.79716 0
M  V30 4882 O 462.006 1.5449 -1.20456 0
M  V30 4883 H 460.586 -0.262062 -0.699523 0
M  V30 4884 H 463.248 -1.29747 -1.45436 0
M  V30 4885 H 462.344 -1.00675 -2.95417 0
M  V30 4886 N 462.645 1.35699 -0.801477 0
M  V30 4887 C 463.575 2.32436 -0.222658 0
M  V30 4888 C 464.556 1.5723 0.649057 0
M  V30 4889 O 465.741 1.85324 0.580387 0
M  V30 4890 C 462.871 3.41469 0.633719 0
M  V30 4891 C 461.825 4.27774 -0.139083 0
M  V30 4892 C 461.151 5.28082 0.838666 0
M  V30 4893 C 462.451 5.04946 -1.33517 0
M  V30 4894 H 464.145 2.81094 -1.03086 0
M  V30 4895 H 461.691 1.35146 -0.497155 0
M  V30 4896 H 463.644 4.08143 1.04868 0
M  V30 4897 H 462.368 2.91408 1.47475 0
M  V30 4898 H 461.027 3.62673 -0.535156 0
M  V30 4899 H 460.675 4.7429 1.67506 0
M  V30 4900 H 460.375 5.86695 0.32594 0
M  V30 4901 H 461.899 5.97628 1.25194 0
M  V30 4902 H 463.313 5.64593 -0.995349 0
M  V30 4903 H 461.71 5.7303 -1.78202 0
M  V30 4904 H 462.78 4.35886 -2.12442 0
M  V30 4905 N 464.123 0.554532 1.47522 0
M  V30 4906 C 465.372 0.0273458 2.01681 0
M  V30 4907 C 465.685 -1.32962 1.43459 0
M  V30 4908 O 466.891 -1.94657 1.89265 0
M  V30 4909 C 465.347 -0.00159057 3.599 0
M  V30 4910 C 464.955 1.35197 4.27113 0
M  V30 4911 C 466.699 -0.476311 4.21819 0
M  V30 4912 C 464.606 1.28229 5.77331 0
M  V30 4913 H 463.536 0.00645269 0.753972 0
M  V30 4914 H 466.187 0.701985 1.69542 0
M  V30 4915 H 464.569 -0.741821 3.8899 0
M  V30 4916 H 465.743 2.1097 4.09668 0
M  V30 4917 H 464.058 1.76441 3.77171 0
M  V30 4918 H 466.655 -0.5468 5.31897 0
M  V30 4919 H 466.998 -1.4877 3.8881 0
M  V30 4920 H 467.531 0.20898 3.97251 0
M  V30 4921 H 464.27 2.26959 6.14955 0
M  V30 4922 H 463.79 0.566314 5.97121 0
M  V30 4923 H 465.469 0.983226 6.39485 0
M  V30 4924 N 465.601 -1.54893 0.290851 0
M  V30 4925 C 466.829 -2.04343 -0.324288 0
M  V30 4926 C 467.244 -1.16859 -1.48289 0
M  V30 4927 O 466.601 -0.192018 -1.81487 0
M  V30 4928 C 466.652 -3.52756 -0.79026 0
M  V30 4929 O 466.373 -4.36913 0.322213 0
M  V30 4930 C 467.874 -4.18161 -1.4716 0
M  V30 4931 H 465.094 -0.667135 -0.0719173 0
M  V30 4932 H 467.638 -1.99981 0.427529 0
M  V30 4933 H 465.793 -3.57511 -1.49213 0
M  V30 4934 H 466.207 -5.24486 -0.0387372 0
M  V30 4935 H 467.681 -5.23562 -1.7489 0
M  V30 4936 H 468.158 -3.67282 -2.40834 0
M  V30 4937 H 468.764 -4.17454 -0.813178 0
M  V30 4938 N 467.08 -0.0183926 -1.57589 0
M  V30 4939 C 468.326 0.663543 -1.91638 0
M  V30 4940 C 468.659 1.72392 -0.894134 0
M  V30 4941 O 467.934 1.94316 0.0846449 0
M  V30 4942 C 468.217 1.28984 -3.36207 0
M  V30 4943 C 468.07 0.239761 -4.49161 0
M  V30 4944 C 469.389 2.2109 -3.80536 0
M  V30 4945 H 466.508 0.239746 -0.696915 0
M  V30 4946 H 469.15 -0.073456 -1.89858 0
M  V30 4947 H 467.3 1.91799 -3.37854 0
M  V30 4948 H 468.972 -0.390119 -4.59647 0
M  V30 4949 H 467.215 -0.435972 -4.31604 0
M  V30 4950 H 467.886 0.717383 -5.47319 0
M  V30 4951 H 470.362 1.68273 -3.80557 0
M  V30 4952 H 469.238 2.61869 -4.82406 0
M  V30 4953 H 469.499 3.09764 -3.15434 0
M  V30 4954 N 468.558 1.5553 0.254621 0
M  V30 4955 C 469.505 1.89666 1.31512 0
M  V30 4956 C 470.475 0.750057 1.482 0
M  V30 4957 O 471.66 1.00301 1.62309 0
M  V30 4958 C 468.8 2.19009 2.667 0
M  V30 4959 C 467.913 3.46435 2.58083 0
M  V30 4960 C 467.048 3.65386 3.85573 0
M  V30 4961 C 466.087 4.8644 3.71541 0
M  V30 4962 N 465.224 5.01952 4.90906 0
M  V30 4963 H 470.064 2.80109 1.017 0
M  V30 4964 H 467.601 1.38666 0.490938 0
M  V30 4965 H 469.559 2.34025 3.45381 0
M  V30 4966 H 468.189 1.31779 2.94676 0
M  V30 4967 H 467.241 3.39792 1.71013 0
M  V30 4968 H 468.553 4.35258 2.43622 0
M  V30 4969 H 467.707 3.80319 4.72697 0
M  V30 4970 H 466.446 2.74781 4.02922 0
M  V30 4971 H 465.451 4.71491 2.82801 0
M  V30 4972 H 466.676 5.78497 3.55694 0
M  V30 4973 H 464.622 4.14283 5.08631 0
M  V30 4974 H 464.539 5.84851 4.79046 0
M  V30 4975 H 465.807 5.21289 5.7955 0
M  V30 4976 O 470.075 -0.400303 1.5646 0
M  V30 4977 H 470.766 -1.05256 1.62607 0
M  V30 END ATOM
M  V30 BEGIN BOND
M  V30 END BOND
M  V30 END CTAB
M  END
$$$$
