drugbank_target|P06608 L-asparaginase (DB02233; DB02655; DB03412)
 OpenBabel12092119553D

  0  0  0     0  0            999 V3000
M  V30 BEGIN CTAB
M  V30 COUNTS 5336 5379 0 0 0
M  V30 BEGIN ATOM
M  V30 1 H -0.908 1.98254 -0.117106 0
M  V30 2 N 0 1.576 0 0
M  V30 3 C 0.933 2.03868 1.02534 0
M  V30 4 C 1.911 0.928543 1.3348 0
M  V30 5 O 3.095 1.19667 1.45644 0
M  V30 6 C 0.222 2.43627 2.35294 0
M  V30 7 C -0.732 3.65373 2.2001 0
M  V30 8 S 0.101 5.13292 1.52614 0
M  V30 9 C 1.257 5.56322 2.86805 0
M  V30 10 H 1.49 2.90518 0.631377 0
M  V30 11 H -0.977 1.52953 0.210867 0
M  V30 12 H 0.981 2.67203 3.11629 0
M  V30 13 H -0.358 1.57376 2.7183 0
M  V30 14 H -1.165 3.90944 3.18086 0
M  V30 15 H -1.563 3.418 1.51819 0
M  V30 16 H 0.729 5.58782 3.83104 0
M  V30 17 H 1.672 6.56266 2.65933 0
M  V30 18 H 2.08 4.83886 2.90714 0
M  V30 19 N 1.4781 -0.272755 1.55222 0
M  V30 20 C 2.3881 -1.35918 1.91216 0
M  V30 21 C 3.4041 -1.54026 0.809436 0
M  V30 22 O 4.5801 -1.68148 1.10852 0
M  V30 23 C 1.6451 -2.69834 2.17693 0
M  V30 24 C 0.7061 -2.6047 3.41253 0
M  V30 25 C -0.0609 -3.88 3.66458 0
M  V30 26 O 0.1621 -4.88693 2.94169 0
M  V30 27 O -0.9039 -3.88189 4.59992 0
M  V30 28 H 2.9221 -1.0839 2.83699 0
M  V30 29 H 0.5071 -0.471301 1.41771 0
M  V30 30 H 2.3891 -3.49017 2.36147 0
M  V30 31 H 1.0641 -2.97148 1.28392 0
M  V30 32 H -0.0289 -1.79663 3.28134 0
M  V30 33 H 1.3041 -2.38106 4.30774 0
M  V30 34 N 2.9562 -1.48159 -0.537278 0
M  V30 35 C 4.3722 -1.34118 -0.865129 0
M  V30 36 C 4.5722 -0.346678 -1.98495 0
M  V30 37 O 3.6282 0.234715 -2.51407 0
M  V30 38 C 4.9412 -2.73963 -1.23954 0
M  V30 39 C 6.4892 -2.82397 -1.34984 0
M  V30 40 C 6.9642 -4.22928 -1.75772 0
M  V30 41 N 8.4552 -4.25566 -1.82887 0
M  V30 42 C 9.1902 -5.31235 -2.15817 0
M  V30 43 N 8.6862 -6.47189 -2.47222 0
M  V30 44 N 10.4792 -5.18624 -2.16761 0
M  V30 45 H 2.6302 -2.1144 0.201715 0
M  V30 46 H 4.8932 -0.947598 0.0275949 0
M  V30 47 H 4.5992 -3.48264 -0.490381 0
M  V30 48 H 4.4732 -3.0702 -2.19132 0
M  V30 49 H 6.8602 -2.08356 -2.08978 0
M  V30 50 H 6.9412 -2.5297 -0.379448 0
M  V30 51 H 6.5852 -4.97482 -1.02341 0
M  V30 52 H 6.5152 -4.49794 -2.73848 0
M  V30 53 H 9.0062 -3.41924 -1.60924 0
M  V30 54 H 9.3192 -7.23564 -2.71433 0
M  V30 55 H 7.6642 -6.50476 -2.44757 0
M  V30 56 H 10.8552 -4.27056 -1.91679 0
M  V30 57 H 11.0282 -6.01078 -2.42093 0
M  V30 58 N 4.4343 0.785586 -1.36625 0
M  V30 59 C 5.6803 1.5452 -1.32269 0
M  V30 60 C 6.0353 1.92159 0.0962266 0
M  V30 61 O 5.3283 1.60158 1.05167 0
M  V30 62 C 5.5223 2.83007 -2.1827 0
M  V30 63 C 5.3513 2.57925 -3.68382 0
M  V30 64 C 4.1213 2.52752 -4.37544 0
M  V30 65 C 6.3193 2.26861 -4.61561 0
M  V30 66 N 4.3013 2.19608 -5.73276 0
M  V30 67 C 5.6723 2.03738 -5.85569 0
M  V30 68 C 7.7273 2.129 -4.50087 0
M  V30 69 C 6.4303 1.68065 -6.9939 0
M  V30 70 C 8.4563 1.78626 -5.63779 0
M  V30 71 C 7.8183 1.56353 -6.86828 0
M  V30 72 H 3.9173 0.566301 -0.539283 0
M  V30 73 H 6.5013 0.917736 -1.71714 0
M  V30 74 H 4.6723 3.43614 -1.81063 0
M  V30 75 H 6.4043 3.48775 -2.05275 0
M  V30 76 H 3.1593 2.6813 -3.90389 0
M  V30 77 H 3.5833 2.05771 -6.44971 0
M  V30 78 H 8.2253 2.28808 -3.55537 0
M  V30 79 H 5.9433 1.50895 -7.93887 0
M  V30 80 H 9.5293 1.68502 -5.56865 0
M  V30 81 H 8.4093 1.30223 -7.73312 0
M  V30 82 N 5.9124 1.20967 1.01018 0
M  V30 83 C 7.1594 1.02374 1.74716 0
M  V30 84 C 7.4874 -0.443375 1.89379 0
M  V30 85 O 6.7424 -1.34535 1.42123 0
M  V30 86 C 7.0414 1.65997 3.16512 0
M  V30 87 C 6.7074 3.15831 3.2181 0
M  V30 88 C 5.3694 3.56719 3.22963 0
M  V30 89 C 7.7214 4.11816 3.19464 0
M  V30 90 C 5.0494 4.92107 3.19449 0
M  V30 91 C 7.4014 5.47158 3.17491 0
M  V30 92 C 6.0654 5.87451 3.16951 0
M  V30 93 H 5.3354 0.374614 0.639332 0
M  V30 94 H 7.9824 1.50485 1.18434 0
M  V30 95 H 6.2874 1.10166 3.75993 0
M  V30 96 H 7.9844 1.49119 3.72242 0
M  V30 97 H 4.5744 2.83263 3.21652 0
M  V30 98 H 8.7584 3.81257 3.17737 0
M  V30 99 H 4.0144 5.22579 3.17366 0
M  V30 100 H 8.1884 6.21274 3.14629 0
M  V30 101 H 5.8154 6.92329 3.13983 0
M  V30 102 N 7.3905 -1.2043 1.01659 0
M  V30 103 C 8.3375 -2.23215 0.586822 0
M  V30 104 C 9.3075 -1.61382 -0.393085 0
M  V30 105 O 10.4925 -1.88544 -0.292525 0
M  V30 106 C 7.6325 -3.45032 -0.0687464 0
M  V30 107 C 6.7455 -4.21296 0.955724 0
M  V30 108 C 5.8805 -5.30507 0.271208 0
M  V30 109 C 4.9195 -5.98515 1.28244 0
M  V30 110 N 4.0565 -6.99316 0.62459 0
M  V30 111 H 8.8965 -2.59336 1.46796 0
M  V30 112 H 6.4335 -1.27431 0.734836 0
M  V30 113 H 8.3915 -4.1459 -0.465965 0
M  V30 114 H 7.0215 -3.09604 -0.913529 0
M  V30 115 H 6.0735 -3.50803 1.4711 0
M  V30 116 H 7.3855 -4.6803 1.72479 0
M  V30 117 H 6.5395 -6.06428 -0.18151 0
M  V30 118 H 5.2785 -4.8481 -0.530163 0
M  V30 119 H 4.2835 -5.21355 1.74554 0
M  V30 120 H 5.5085 -6.46298 2.08509 0
M  V30 121 H 3.4545 -6.55812 -0.156914 0
M  V30 122 H 3.3715 -7.44178 1.33172 0
M  V30 123 H 4.6395 -7.79255 0.195462 0
M  V30 124 N 8.8686 -0.792821 -1.36206 0
M  V30 125 C 10.0936 -0.377701 -2.03932 0
M  V30 126 C 10.5186 0.998947 -1.59382 0
M  V30 127 O 9.8766 1.64421 -0.763903 0
M  V30 128 C 9.9246 -0.453635 -3.57735 0
M  V30 129 O 9.0286 0.538151 -4.08874 0
M  V30 130 H 8.3696 -0.159855 -0.644471 0
M  V30 131 H 10.8996 -1.07488 -1.7409 0
M  V30 132 H 10.9096 -0.318464 -4.06755 0
M  V30 133 H 9.5846 -1.45784 -3.89512 0
M  V30 134 H 8.1616 0.364359 -3.71116 0
M  V30 135 N 10.3467 1.47872 -0.545128 0
M  V30 136 C 11.2767 2.32661 0.197793 0
M  V30 137 C 12.2577 1.43041 0.920504 0
M  V30 138 O 13.4427 1.71912 0.90333 0
M  V30 139 C 10.5727 3.24569 1.23582 0
M  V30 140 C 9.5267 4.23333 0.630323 0
M  V30 141 C 8.8527 5.0448 1.77211 0
M  V30 142 C 10.1527 5.20704 -0.407974 0
M  V30 143 H 11.8467 2.95024 -0.510045 0
M  V30 144 H 9.3927 1.4187 -0.246731 0
M  V30 145 H 11.3457 3.8272 1.76362 0
M  V30 146 H 10.0697 2.60236 1.97344 0
M  V30 147 H 8.7287 3.6639 0.123922 0
M  V30 148 H 8.3767 4.36561 2.49847 0
M  V30 149 H 8.0767 5.71339 1.37281 0
M  V30 150 H 9.6007 5.65487 2.3034 0
M  V30 151 H 11.0147 5.7329 0.033305 0
M  V30 152 H 9.4117 5.95699 -0.725486 0
M  V30 153 H 10.4817 4.66917 -1.30828 0
M  V30 154 N 11.8248 0.280983 1.55075 0
M  V30 155 C 13.0718 -0.334115 1.99725 0
M  V30 156 C 13.3998 -1.5542 1.1694 0
M  V30 157 O 12.6548 -1.94361 0.228531 0
M  V30 158 C 12.9538 -0.754656 3.49342 0
M  V30 159 C 12.6198 0.361445 4.49449 0
M  V30 160 C 11.2818 0.667893 4.76542 0
M  V30 161 C 13.6338 1.11322 5.09173 0
M  V30 162 C 10.9618 1.7296 5.60626 0
M  V30 163 C 13.3138 2.1647 5.9441 0
M  V30 164 C 11.9778 2.47742 6.19822 0
M  V30 165 H 11.2478 -0.122261 0.730844 0
M  V30 166 H 13.8948 0.395917 1.87363 0
M  V30 167 H 12.1998 -1.56446 3.5921 0
M  V30 168 H 13.8968 -1.24142 3.813 0
M  V30 169 H 10.4868 0.112481 4.28452 0
M  V30 170 H 14.6708 0.88973 4.8826 0
M  V30 171 H 9.9268 1.97684 5.78559 0
M  V30 172 H 14.1008 2.75193 6.3972 0
M  V30 173 H 11.7278 3.30145 6.84769 0
M  V30 174 N 13.3029 -1.57598 0.00835791 0
M  V30 175 C 14.5489 -1.91211 -0.675732 0
M  V30 176 C 14.8819 -0.883139 -1.72958 0
M  V30 177 O 14.1569 0.097016 -1.94258 0
M  V30 178 C 14.4399 -3.35379 -1.31123 0
M  V30 179 C 14.2929 -4.48999 -0.268356 0
M  V30 180 C 15.6119 -3.7912 -2.23508 0
M  V30 181 H 12.7309 -0.695374 -0.244179 0
M  V30 182 H 15.3729 -1.89901 0.0613655 0
M  V30 183 H 13.5229 -3.36626 -1.93946 0
M  V30 184 H 15.1949 -4.59887 0.360844 0
M  V30 185 H 13.4379 -4.31873 0.408482 0
M  V30 186 H 14.1089 -5.46851 -0.752218 0
M  V30 187 H 16.5849 -3.79477 -1.70693 0
M  V30 188 H 15.4609 -4.80729 -2.64936 0
M  V30 189 H 15.7219 -3.13455 -3.11766 0
M  V30 190 N 14.781 0.264519 -1.55364 0
M  V30 191 C 15.711 1.33121 -1.91836 0
M  V30 192 C 16.692 1.51101 -0.781192 0
M  V30 193 O 17.877 1.64003 -1.04003 0
M  V30 194 C 15.007 2.68921 -2.19769 0
M  V30 195 C 13.961 2.65661 -3.35571 0
M  V30 196 C 13.287 4.05093 -3.49004 0
M  V30 197 C 14.587 2.24187 -4.71739 0
M  V30 198 H 16.281 1.02844 -2.81182 0
M  V30 199 H 13.827 0.493286 -1.35287 0
M  V30 200 H 15.78 3.43663 -2.43872 0
M  V30 201 H 14.504 3.00799 -1.27231 0
M  V30 202 H 13.163 1.93377 -3.1145 0
M  V30 203 H 12.811 4.34206 -2.53917 0
M  V30 204 H 12.511 4.03804 -4.26868 0
M  V30 205 H 14.035 4.81561 -3.75408 0
M  V30 206 H 15.449 2.88654 -4.9533 0
M  V30 207 H 13.846 2.34044 -5.52579 0
M  V30 208 H 14.916 1.19327 -4.69988 0
M  V30 209 N 16.2591 1.48442 0.529413 0
M  V30 210 C 17.5051 1.5672 1.28711 0
M  V30 211 C 17.8381 0.2406 1.92704 0
M  V30 212 O 17.1131 -0.753454 1.79313 0
M  V30 213 C 17.3961 2.70587 2.37603 0
M  V30 214 C 17.2491 4.12953 1.78297 0
M  V30 215 C 18.5681 2.80212 3.39366 0
M  V30 216 H 15.6871 0.570474 0.466613 0
M  V30 217 H 18.3291 1.80617 0.589706 0
M  V30 218 H 16.4791 2.50342 2.97088 0
M  V30 219 H 18.1511 4.44639 1.22858 0
M  V30 220 H 16.3941 4.19927 1.0883 0
M  V30 221 H 17.0651 4.88448 2.57144 0
M  V30 222 H 19.5411 2.98553 2.89836 0
M  V30 223 H 18.4171 3.61611 4.12951 0
M  V30 224 H 18.6781 1.88393 3.99951 0
M  V30 225 N 17.7372 -0.778329 1.37039 0
M  V30 226 C 18.6672 -1.90546 1.34962 0
M  V30 227 C 19.6482 -1.68681 0.219274 0
M  V30 228 O 20.8332 -1.89634 0.418624 0
M  V30 229 C 17.9632 -3.27734 1.14925 0
M  V30 230 C 16.9172 -3.64147 2.24902 0
M  V30 231 C 16.2432 -4.99806 1.89996 0
M  V30 232 C 17.5432 -3.71579 3.67051 0
M  V30 233 H 19.2372 -1.92541 2.29277 0
M  V30 234 H 16.7832 -0.924948 1.10366 0
M  V30 235 H 18.7362 -4.06215 1.12104 0
M  V30 236 H 17.4602 -3.26154 0.170631 0
M  V30 237 H 16.1192 -2.8797 2.26868 0
M  V30 238 H 15.7672 -4.94759 0.906796 0
M  V30 239 H 15.4672 -5.25139 2.63634 0
M  V30 240 H 16.9912 -5.80694 1.88749 0
M  V30 241 H 18.4052 -4.40227 3.67251 0
M  V30 242 H 16.8022 -4.08405 4.39688 0
M  V30 243 H 17.8722 -2.72404 4.01154 0
M  V30 244 N 19.2153 -1.21501 -1.00376 0
M  V30 245 C 20.4623 -1.03299 -1.74171 0
M  V30 246 C 20.7903 0.433326 -1.89612 0
M  V30 247 O 20.0453 1.33779 -1.42834 0
M  V30 248 C 20.3443 -1.67673 -3.15627 0
M  V30 249 C 20.0103 -3.17533 -3.2013 0
M  V30 250 C 18.6723 -3.58427 -3.21067 0
M  V30 251 C 21.0243 -4.13504 -3.17275 0
M  V30 252 C 18.3523 -4.93794 -3.16835 0
M  V30 253 C 20.7043 -5.48834 -3.14585 0
M  V30 254 C 19.3683 -5.89123 -3.13831 0
M  V30 255 H 18.6383 -0.377999 -0.637336 0
M  V30 256 H 21.2853 -1.51111 -1.17634 0
M  V30 257 H 19.5903 -1.12158 -3.75404 0
M  V30 258 H 21.2873 -1.51091 -3.71446 0
M  V30 259 H 17.8773 -2.84965 -3.20145 0
M  V30 260 H 22.0613 -3.82936 -3.15711 0
M  V30 261 H 17.3173 -5.24255 -3.1459 0
M  V30 262 H 21.4913 -6.22934 -3.1133 0
M  V30 263 H 19.1183 -6.93984 -3.10307 0
M  V30 264 N 20.6934 1.19889 -1.02296 0
M  V30 265 C 21.9404 1.8942 -0.715972 0
M  V30 266 C 22.2684 1.79251 0.754944 0
M  V30 267 O 21.5234 1.17526 1.56481 0
M  V30 268 C 21.8224 3.39883 -1.10518 0
M  V30 269 C 21.4884 3.70254 -2.57337 0
M  V30 270 C 20.1504 3.78254 -2.97452 0
M  V30 271 C 22.5024 3.84052 -3.52354 0
M  V30 272 C 19.8304 3.97514 -4.31509 0
M  V30 273 C 22.1824 4.04824 -4.86108 0
M  V30 274 C 20.8464 4.11054 -5.25919 0
M  V30 275 H 20.1164 0.693138 -0.261993 0
M  V30 276 H 22.7634 1.42012 -1.28472 0
M  V30 277 H 21.0684 3.8915 -0.454953 0
M  V30 278 H 22.7654 3.9199 -0.845261 0
M  V30 279 H 19.3554 3.64632 -2.25258 0
M  V30 280 H 23.5394 3.77221 -3.22518 0
M  V30 281 H 18.7954 4.00574 -4.61898 0
M  V30 282 H 22.9694 4.14442 -5.59653 0
M  V30 283 H 20.5964 4.2573 -6.29808 0
M  V30 284 N 22.1715 0.800033 1.35784 0
M  V30 285 C 23.4175 0.377901 1.99248 0
M  V30 286 C 23.7505 -1.05052 1.63333 0
M  V30 287 O 23.0255 -1.72768 0.893385 0
M  V30 288 C 23.3085 0.553922 3.55814 0
M  V30 289 C 23.1615 2.0268 4.01548 0
M  V30 290 C 24.4805 -0.0244802 4.40093 0
M  V30 291 H 21.5995 0.138782 0.723815 0
M  V30 292 H 24.2415 1.00835 1.61035 0
M  V30 293 H 22.3915 0.0172398 3.88496 0
M  V30 294 H 24.0635 2.62536 3.79305 0
M  V30 295 H 22.3065 2.5256 3.52698 0
M  V30 296 H 22.9775 2.10087 5.10458 0
M  V30 297 H 25.4535 0.433775 4.13833 0
M  V30 298 H 24.3295 0.128637 5.48749 0
M  V30 299 H 24.5905 -1.11758 4.27741 0
M  V30 300 N 23.6496 -1.47581 0.552962 0
M  V30 301 C 24.8966 -2.02482 0.0273243 0
M  V30 302 C 25.2246 -1.42776 -1.32081 0
M  V30 303 O 24.4796 -0.571393 -1.87173 0
M  V30 304 C 24.7786 -3.57199 -0.119728 0
M  V30 305 C 24.4446 -4.35804 1.15697 0
M  V30 306 C 23.1066 -4.57 1.50681 0
M  V30 307 C 25.4586 -4.81167 2.00319 0
M  V30 308 C 22.7866 -5.20807 2.70142 0
M  V30 309 C 25.1386 -5.46293 3.18978 0
M  V30 310 C 23.8026 -5.65722 3.54281 0
M  V30 311 H 23.0726 -0.740933 0.00999866 0
M  V30 312 H 25.7196 -1.77302 0.72362 0
M  V30 313 H 24.0246 -3.81348 -0.89896 0
M  V30 314 H 25.7216 -3.97324 -0.541718 0
M  V30 315 H 22.3116 -4.19582 0.874561 0
M  V30 316 H 26.4956 -4.64574 1.74599 0
M  V30 317 H 21.7516 -5.34045 2.97668 0
M  V30 318 H 25.9256 -5.80407 3.84838 0
M  V30 319 H 23.5526 -6.14936 4.46942 0
M  V30 320 N 25.1277 -0.289203 -1.54924 0
M  V30 321 C 26.3557 0.326463 -2.04308 0
M  V30 322 C 26.7707 1.48413 -1.16701 0
M  V30 323 O 26.1277 1.81507 -0.190087 0
M  V30 324 C 26.1787 0.794014 -3.52672 0
M  V30 325 O 25.8997 -0.317564 -4.36948 0
M  V30 326 C 27.4007 1.47605 -4.18004 0
M  V30 327 H 24.6207 0.0726272 -0.667058 0
M  V30 328 H 27.1647 -0.425401 -2.00026 0
M  V30 329 H 25.3197 1.49593 -3.57352 0
M  V30 330 H 25.7337 0.0443186 -5.24481 0
M  V30 331 H 27.2077 1.75447 -5.23376 0
M  V30 332 H 27.6847 2.41224 -3.67025 0
M  V30 333 H 28.2907 0.81762 -4.17367 0
M  V30 334 N 26.6058 1.57591 -0.0167156 0
M  V30 335 C 27.5688 2.08393 0.954204 0
M  V30 336 C 28.5688 0.996531 1.26198 0
M  V30 337 O 29.7588 1.25858 1.20438 0
M  V30 338 C 26.8908 2.5394 2.27436 0
M  V30 339 H 28.0838 2.95455 0.514451 0
M  V30 340 H 25.6368 1.54582 0.231089 0
M  V30 341 H 26.3718 1.70171 2.76066 0
M  V30 342 H 26.1568 3.33371 2.06412 0
M  V30 343 H 27.6468 2.93512 2.97053 0
M  V30 344 N 28.0839 -0.256276 1.55502 0
M  V30 345 C 29.3089 -1.00766 1.81276 0
M  V30 346 C 29.7339 -1.78524 0.59252 0
M  V30 347 O 29.0919 -1.75413 -0.45827 0
M  V30 348 C 29.1399 -1.92869 3.04687 0
M  V30 349 O 28.2439 -3.019 2.80945 0
M  V30 350 H 27.5849 -0.287224 0.598664 0
M  V30 351 H 30.1149 -0.280109 2.02674 0
M  V30 352 H 30.1249 -2.34511 3.33869 0
M  V30 353 H 28.7999 -1.35689 3.93143 0
M  V30 354 H 27.3769 -2.64454 2.62904 0
M  V30 355 N 29.562 -1.4872 -0.521534 0
M  V30 356 C 30.525 -1.63379 -1.60748 0
M  V30 357 C 31.525 -0.50661 -1.52611 0
M  V30 358 O 32.715 -0.772601 -1.5613 0
M  V30 359 C 29.847 -1.61192 -3.00383 0
M  V30 360 H 31.04 -2.60217 -1.49087 0
M  V30 361 H 28.593 -1.37444 -0.744235 0
M  V30 362 H 29.328 -0.65863 -3.17541 0
M  V30 363 H 29.113 -2.43032 -3.07698 0
M  V30 364 H 30.603 -1.7466 -3.7932 0
M  V30 365 N 31.0401 0.771051 -1.3745 0
M  V30 366 C 32.0031 1.86598 -1.33093 0
M  V30 367 C 33.0031 1.59076 -0.234845 0
M  V30 368 O 34.1931 1.67145 -0.490732 0
M  V30 369 C 31.3251 3.23747 -1.06773 0
M  V30 370 H 32.5181 1.91873 -2.30488 0
M  V30 371 H 30.0711 0.970876 -1.2249 0
M  V30 372 H 30.8061 3.24148 -0.099129 0
M  V30 373 H 30.5911 3.45115 -1.86112 0
M  V30 374 H 32.0811 4.03824 -1.06377 0
M  V30 375 N 32.5182 1.22032 0.997298 0
M  V30 376 C 33.7952 0.950823 1.70935 0
M  V30 377 C 34.1752 -0.535292 2.042 0
M  V30 378 O 33.5232 -1.50217 1.72183 0
M  V30 379 C 33.7332 1.84386 2.96315 0
M  V30 380 C 35.0812 2.09732 3.69185 0
M  V30 381 O 36.1052 1.81798 3.06314 0
M  V30 382 O 34.9642 2.57018 4.82291 0
M  V30 383 H 32.0582 0.357204 0.745878 0
M  V30 384 H 34.6042 1.32997 1.05404 0
M  V30 385 H 33.3762 2.84928 2.68201 0
M  V30 386 H 32.9992 1.46602 3.69586 0
M  V30 387 N 33.9963 -1.19345 1.0293 0
M  V30 388 C 34.9433 -2.2258 0.610464 0
M  V30 389 C 35.9133 -1.6179 -0.375946 0
M  V30 390 O 37.0983 -1.88844 -0.272511 0
M  V30 391 C 34.2383 -3.45085 -0.0321473 0
M  V30 392 C 33.3513 -4.20258 1.00035 0
M  V30 393 C 32.4863 -5.3019 0.32746 0
M  V30 394 C 31.5253 -5.97121 1.34584 0
M  V30 395 N 30.6623 -6.98615 0.698726 0
M  V30 396 H 35.5023 -2.57764 1.49538 0
M  V30 397 H 33.0393 -1.26644 0.748311 0
M  V30 398 H 34.9973 -4.15061 -0.421966 0
M  V30 399 H 33.6273 -3.10555 -0.88064 0
M  V30 400 H 32.6793 -3.49223 1.50823 0
M  V30 401 H 33.9913 -4.66175 1.77433 0
M  V30 402 H 33.1453 -6.06587 -0.11718 0
M  V30 403 H 31.8843 -4.85345 -0.478713 0
M  V30 404 H 30.8893 -5.19474 1.80074 0
M  V30 405 H 32.1143 -6.4405 2.15352 0
M  V30 406 H 30.0603 -6.55942 -0.0873471 0
M  V30 407 H 29.9773 -7.42724 1.41058 0
M  V30 408 H 31.2453 -7.79004 0.278102 0
M  V30 409 N 35.4744 -0.807222 -1.35358 0
M  V30 410 C 36.4044 -0.232509 -2.3234 0
M  V30 411 C 37.3854 0.642386 -1.57504 0
M  V30 412 O 38.5704 0.572526 -1.85569 0
M  V30 413 C 35.7004 0.619238 -3.41735 0
M  V30 414 C 34.6544 -0.157215 -4.27711 0
M  V30 415 C 33.9804 0.816273 -5.28433 0
M  V30 416 C 35.2804 -1.35656 -5.04376 0
M  V30 417 H 36.9744 -1.04276 -2.80654 0
M  V30 418 H 34.5204 -0.50288 -1.34934 0
M  V30 419 H 36.4734 1.03137 -4.08584 0
M  V30 420 H 35.1974 1.46239 -2.92031 0
M  V30 421 H 33.8564 -0.550525 -3.62443 0
M  V30 422 H 33.5044 1.65494 -4.74996 0
M  V30 423 H 33.2044 0.301067 -5.86828 0
M  V30 424 H 34.7284 1.22659 -5.98153 0
M  V30 425 H 36.1424 -1.01927 -5.64166 0
M  V30 426 H 34.5394 -1.8063 -5.7227 0
M  V30 427 H 35.6094 -2.14288 -4.34981 0
M  V30 428 N 36.9525 1.47285 -0.560781 0
M  V30 429 C 38.3635 1.86258 -0.128343 0
M  V30 430 C 38.7145 1.46699 1.30284 0
M  V30 431 O 37.8395 0.871698 1.98067 0
M  V30 432 C 38.4345 3.38044 -0.22614 0
M  V30 433 C 36.9935 3.76096 0.151283 0
M  V30 434 C 36.1405 2.71335 -0.572084 0
M  V30 435 H 39.0915 1.38752 -0.770297 0
M  V30 436 H 39.1125 3.76441 0.554322 0
M  V30 437 H 38.6245 3.66806 -1.26788 0
M  V30 438 H 36.7255 3.52951 1.19399 0
M  V30 439 H 36.8385 4.78641 -0.209765 0
M  V30 440 H 35.2025 2.54696 -0.0147653 0
M  V30 441 H 35.9855 3.02938 -1.61504 0
M  V30 442 N 38.4306 0.297415 1.54768 0
M  V30 443 C 39.3786 -0.596051 2.24833 0
M  V30 444 C 40.3726 -1.13992 1.25308 0
M  V30 445 O 41.5786 -1.09098 1.4317 0
M  V30 446 H 37.9536 -0.210814 0.721846 0
M  V30 447 H 39.9246 0.0174667 2.98395 0
M  V30 448 C 38.6736 -1.75818 2.99972 0
M  V30 449 H 37.9966 -1.3489 3.76357 0
M  V30 450 H 39.4366 -2.35949 3.52284 0
M  V30 451 C 37.8956 -2.66014 2.06732 0
M  V30 452 O 38.4256 -3.67009 1.63302 0
M  V30 453 N 36.6316 -2.33669 1.72763 0
M  V30 454 H 36.1786 -1.51586 2.08277 0
M  V30 455 H 36.1366 -2.94285 1.10652 0
M  V30 456 N 39.9087 -1.5758 0.0250728 0
M  V30 457 C 41.1577 -1.90811 -0.653767 0
M  V30 458 C 41.4707 -0.90273 -1.73523 0
M  V30 459 O 42.6767 -1.12614 -2.47043 0
M  V30 460 C 41.1327 -3.38804 -1.21409 0
M  V30 461 C 40.7407 -4.47692 -0.166126 0
M  V30 462 C 42.4847 -3.81108 -1.86967 0
M  V30 463 C 40.3917 -5.86779 -0.737856 0
M  V30 464 H 39.3217 -0.712063 -0.247956 0
M  V30 465 H 41.9727 -1.83281 0.0897137 0
M  V30 466 H 40.3547 -3.41252 -2.00905 0
M  V30 467 H 41.5287 -4.56797 0.606079 0
M  V30 468 H 39.8437 -4.14565 0.390466 0
M  V30 469 H 42.4407 -4.82375 -2.30692 0
M  V30 470 H 42.7837 -3.15953 -2.71071 0
M  V30 471 H 43.3167 -3.81065 -1.14167 0
M  V30 472 H 40.0557 -6.55468 0.0649577 0
M  V30 473 H 39.5757 -5.81288 -1.47864 0
M  V30 474 H 41.2547 -6.35223 -1.22884 0
M  V30 475 N 41.3868 0.248026 -1.55636 0
M  V30 476 C 42.6328 0.97767 -1.77678 0
M  V30 477 C 42.9658 1.85016 -0.590135 0
M  V30 478 O 42.2408 1.90095 0.411611 0
M  V30 479 C 42.5238 1.83914 -3.09593 0
M  V30 480 C 42.3768 0.99491 -4.38659 0
M  V30 481 C 43.6958 2.82183 -3.37729 0
M  V30 482 H 40.8148 0.354005 -0.646413 0
M  V30 483 H 43.4568 0.248253 -1.88371 0
M  V30 484 H 41.6068 2.46104 -3.00608 0
M  V30 485 H 43.2788 0.391789 -4.59633 0
M  V30 486 H 41.5218 0.299231 -4.32767 0
M  V30 487 H 42.1928 1.63145 -5.2734 0
M  V30 488 H 44.6688 2.30129 -3.4667 0
M  V30 489 H 43.5448 3.39582 -4.31249 0
M  V30 490 H 43.8058 3.58588 -2.58586 0
M  V30 491 N 42.8649 1.48995 0.513639 0
M  V30 492 C 44.1139 1.57093 1.2651 0
M  V30 493 C 44.4269 0.257091 1.93903 0
M  V30 494 O 45.6329 0.216478 2.70636 0
M  V30 495 C 44.0889 2.77118 2.29638 0
M  V30 496 C 43.6969 4.15209 1.68241 0
M  V30 497 C 45.4409 2.94538 3.05692 0
M  V30 498 C 43.3479 5.26474 2.69406 0
M  V30 499 H 42.2779 0.584876 0.475854 0
M  V30 500 H 44.9289 1.7536 0.540487 0
M  V30 501 H 43.3109 2.52319 3.05207 0
M  V30 502 H 44.4849 4.50094 0.987505 0
M  V30 503 H 42.7999 4.03042 1.04623 0
M  V30 504 H 45.3969 3.74832 3.8132 0
M  V30 505 H 45.7399 2.04614 3.62545 0
M  V30 506 H 46.2729 3.19316 2.37238 0
M  V30 507 H 43.0119 6.18417 2.17351 0
M  V30 508 H 42.5319 4.96058 3.37175 0
M  V30 509 H 44.2109 5.55277 3.32078 0
M  V30 510 N 44.343 -0.763751 1.37857 0
M  V30 511 C 45.273 -1.89103 1.36975 0
M  V30 512 C 46.254 -1.68439 0.237152 0
M  V30 513 O 47.439 -1.8918 0.438713 0
M  V30 514 C 44.569 -3.26496 1.18395 0
M  V30 515 C 43.523 -3.61741 2.28751 0
M  V30 516 C 42.849 -4.97762 1.95286 0
M  V30 517 C 44.149 -3.67665 3.70972 0
M  V30 518 H 45.843 -1.90099 2.31307 0
M  V30 519 H 43.389 -0.91319 1.11341 0
M  V30 520 H 45.342 -4.05003 1.16406 0
M  V30 521 H 44.066 -3.25955 0.205215 0
M  V30 522 H 42.725 -2.85547 2.29909 0
M  V30 523 H 42.373 -4.93769 0.959221 0
M  V30 524 H 42.073 -5.22313 2.69189 0
M  V30 525 H 43.597 -5.7866 1.94898 0
M  V30 526 H 45.011 -4.36307 3.719 0
M  V30 527 H 43.408 -4.03718 4.43995 0
M  V30 528 H 44.478 -2.68134 4.0402 0
M  V30 529 N 45.8211 -1.22559 -0.990812 0
M  V30 530 C 46.7841 -0.998863 -2.0629 0
M  V30 531 C 47.7841 0.0354834 -1.60761 0
M  V30 532 O 48.9741 -0.203231 -1.7301 0
M  V30 533 C 46.1061 -0.509203 -3.37076 0
M  V30 534 H 47.2991 -1.95014 -2.27837 0
M  V30 535 H 44.8521 -1.04456 -1.16269 0
M  V30 536 H 45.5871 0.446335 -3.21214 0
M  V30 537 H 45.3721 -1.25547 -3.71457 0
M  V30 538 H 46.8621 -0.370888 -4.1595 0
M  V30 539 N 47.2992 1.18797 -1.03562 0
M  V30 540 C 48.5272 1.92599 -0.755869 0
M  V30 541 C 48.9422 1.75886 0.686271 0
M  V30 542 O 48.2992 1.08517 1.46732 0
M  V30 543 C 48.3502 3.44159 -1.10619 0
M  V30 544 O 48.0712 3.60341 -2.4917 0
M  V30 545 C 49.5722 4.3507 -0.850214 0
M  V30 546 H 46.7922 0.611587 -0.276048 0
M  V30 547 H 49.3362 1.50742 -1.38192 0
M  V30 548 H 47.4912 3.83823 -0.525194 0
M  V30 549 H 47.9052 4.54128 -2.62427 0
M  V30 550 H 49.3792 5.39989 -1.14523 0
M  V30 551 H 49.8562 4.38673 0.215176 0
M  V30 552 H 50.4622 4.01097 -1.41426 0
M  V30 553 N 48.7773 0.814389 1.34928 0
M  V30 554 C 50.0253 0.397636 1.9815 0
M  V30 555 C 50.3463 -1.04069 1.64908 0
M  V30 556 O 49.6163 -1.72121 0.93548 0
M  V30 557 H 48.1963 0.144043 0.732981 0
M  V30 558 H 50.8583 1.04195 1.6471 0
M  V30 559 H 49.9543 0.509688 3.0791 0
M  V30 560 N 50.2554 -1.46986 0.568584 0
M  V30 561 C 51.5034 -2.02041 0.0487022 0
M  V30 562 C 51.8244 -1.44408 -1.31039 0
M  V30 563 O 51.0944 -0.623477 -1.85714 0
M  V30 564 H 49.6744 -0.746849 0.015014 0
M  V30 565 H 52.3364 -1.80257 0.741168 0
M  V30 566 H 51.4324 -3.12085 -0.0308961 0
M  V30 567 N 51.7335 -0.305618 -1.54608 0
M  V30 568 C 52.9615 0.304775 -2.04643 0
M  V30 569 C 53.3765 1.47167 -1.18268 0
M  V30 570 O 52.7335 1.81296 -0.209328 0
M  V30 571 C 52.7845 0.756564 -3.53495 0
M  V30 572 O 52.5055 -0.36389 -4.36586 0
M  V30 573 C 54.0065 1.43163 -4.19546 0
M  V30 574 H 51.2265 0.0655481 -0.667791 0
M  V30 575 H 53.7705 -0.446592 -1.99564 0
M  V30 576 H 51.9255 1.45794 -3.58919 0
M  V30 577 H 52.3395 -0.0113121 -5.24499 0
M  V30 578 H 53.8135 1.69886 -5.25207 0
M  V30 579 H 54.2905 2.37318 -3.69563 0
M  V30 580 H 54.8965 0.773307 -4.18211 0
M  V30 581 N 53.2116 1.57565 -0.0334293 0
M  V30 582 C 54.4606 1.91155 0.643639 0
M  V30 583 C 54.7736 0.91192 1.73042 0
M  V30 584 O 55.9796 1.13923 2.46442 0
M  V30 585 C 54.4356 3.39443 1.1961 0
M  V30 586 C 54.0436 4.47774 0.142381 0
M  V30 587 C 55.7876 3.82094 1.84944 0
M  V30 588 C 53.6946 5.87162 0.706727 0
M  V30 589 H 52.6246 0.713368 0.244176 0
M  V30 590 H 55.2756 1.8323 -0.0994323 0
M  V30 591 H 53.6576 3.42313 1.99092 0
M  V30 592 H 54.8316 4.56469 -0.630296 0
M  V30 593 H 53.1466 4.14352 -0.412446 0
M  V30 594 H 55.7436 4.83591 2.2813 0
M  V30 595 H 56.0866 3.17386 2.69392 0
M  V30 596 H 56.6196 3.81665 1.12145 0
M  V30 597 H 53.3586 6.55424 -0.0997178 0
M  V30 598 H 52.8786 5.82064 1.44779 0
M  V30 599 H 54.5576 6.35866 1.19514 0
M  V30 600 N 54.6897 -0.239769 1.55765 0
M  V30 601 C 55.6527 -1.28038 1.90103 0
M  V30 602 C 56.6527 -1.40723 0.778055 0
M  V30 603 O 57.8427 -1.39301 1.04599 0
M  V30 604 C 54.9747 -2.65702 2.13577 0
M  V30 605 H 56.1677 -0.988048 2.83157 0
M  V30 606 H 53.7207 -0.479382 1.48767 0
M  V30 607 H 54.4557 -3.00063 1.23015 0
M  V30 608 H 54.2407 -2.57875 2.95369 0
M  V30 609 H 55.7307 -3.40828 2.41301 0
M  V30 610 N 56.1678 -1.49265 -0.50573 0
M  V30 611 C 57.4158 -1.582 -1.25766 0
M  V30 612 C 57.7368 -0.268482 -1.93143 0
M  V30 613 O 57.0068 0.711833 -1.8251 0
M  V30 614 H 55.5868 -0.582873 -0.467191 0
M  V30 615 H 58.2488 -1.85865 -0.586525 0
M  V30 616 H 57.3448 -2.37563 -2.02412 0
M  V30 617 N 57.6459 0.756429 -1.3826 0
M  V30 618 C 58.8709 1.55077 -1.37717 0
M  V30 619 C 59.2959 1.88073 0.03164 0
M  V30 620 O 58.6539 1.50364 1.01293 0
M  V30 621 C 58.7019 2.8283 -2.23695 0
M  V30 622 O 57.8059 3.77862 -1.6521 0
M  V30 623 H 57.1469 0.469152 -0.469885 0
M  V30 624 H 59.6769 0.935019 -1.81985 0
M  V30 625 H 59.6869 3.31783 -2.37453 0
M  V30 626 H 58.3619 2.58144 -3.2609 0
M  V30 627 H 56.9389 3.36555 -1.60578 0
M  V30 628 N 59.124 1.23083 0.984299 0
M  V30 629 C 60.087 1.00979 2.05757 0
M  V30 630 C 61.087 -0.0269573 1.60777 0
M  V30 631 O 62.277 0.212403 1.729 0
M  V30 632 C 59.409 0.527072 3.36801 0
M  V30 633 H 60.602 1.9622 2.26799 0
M  V30 634 H 58.155 1.05072 1.15714 0
M  V30 635 H 58.89 -0.429294 3.21446 0
M  V30 636 H 58.675 1.27515 3.70786 0
M  V30 637 H 60.165 0.392942 4.15747 0
M  V30 638 N 60.6021 -1.18246 1.0419 0
M  V30 639 C 61.5651 -2.20128 0.638452 0
M  V30 640 C 62.5651 -1.57885 -0.304805 0
M  V30 641 O 63.7551 -1.73967 -0.0900369 0
M  V30 642 C 60.8871 -3.4084 -0.0637751 0
M  V30 643 H 62.0801 -2.57336 1.54007 0
M  V30 644 H 59.6331 -1.32152 0.834598 0
M  V30 645 H 60.3681 -3.09166 -0.979136 0
M  V30 646 H 60.1531 -3.8726 0.614198 0
M  V30 647 H 61.6431 -4.16274 -0.332512 0
M  V30 648 N 62.0802 -0.821533 -1.34494 0
M  V30 649 C 63.3082 -0.421884 -2.02553 0
M  V30 650 C 63.7232 0.971745 -1.61872 0
M  V30 651 O 63.0802 1.62864 -0.823496 0
M  V30 652 C 63.1312 -0.51285 -3.57844 0
M  V30 653 O 62.8522 -1.85155 -3.97051 0
M  V30 654 C 64.3532 -0.107921 -4.43169 0
M  V30 655 H 61.5732 -0.169482 -0.649243 0
M  V30 656 H 64.1172 -1.1093 -1.71798 0
M  V30 657 H 62.2722 0.126474 -3.87193 0
M  V30 658 H 62.6862 -1.82482 -4.91732 0
M  V30 659 H 64.1602 -0.222657 -5.51551 0
M  V30 660 H 64.6372 0.948401 -4.28838 0
M  V30 661 H 65.2432 -0.720989 -4.19144 0
M  V30 662 N 63.5583 1.46682 -0.576371 0
M  V30 663 C 64.8063 2.02013 -0.0594163 0
M  V30 664 C 65.1273 1.45101 1.30271 0
M  V30 665 O 64.3973 0.633317 1.8538 0
M  V30 666 H 62.9773 0.746759 -0.0189745 0
M  V30 667 H 65.6393 1.79862 -0.750717 0
M  V30 668 H 64.7353 3.12097 0.014345 0
M  V30 669 N 65.0364 0.313813 1.54444 0
M  V30 670 C 66.2644 -0.293918 2.04802 0
M  V30 671 C 66.6794 -1.46537 1.19047 0
M  V30 672 O 66.0364 -1.81182 0.218939 0
M  V30 673 C 66.0874 -0.737806 3.53891 0
M  V30 674 O 65.8084 0.387038 4.36387 0
M  V30 675 C 67.3094 -1.40936 4.203 0
M  V30 676 H 64.5294 -0.0620057 0.668129 0
M  V30 677 H 67.0734 0.457169 1.99324 0
M  V30 678 H 65.2284 -1.43889 3.59687 0
M  V30 679 H 65.6424 0.0391274 5.24485 0
M  V30 680 H 67.1164 -1.67099 5.26101 0
M  V30 681 H 67.5934 -2.35355 3.70816 0
M  V30 682 H 68.1994 -0.751117 4.18615 0
M  V30 683 N 66.5145 -1.57545 0.0417849 0
M  V30 684 C 67.4465 -2.07904 -0.964799 0
M  V30 685 C 68.4595 -1.00497 -1.28079 0
M  V30 686 O 69.6485 -1.28087 -1.24322 0
M  V30 687 C 66.7485 -2.49928 -2.28887 0
M  V30 688 C 65.9215 -3.80562 -2.15619 0
M  V30 689 C 64.9805 -4.08999 -3.31069 0
M  V30 690 O 64.0065 -4.79061 -3.0739 0
M  V30 691 N 65.2085 -3.6017 -4.55256 0
M  V30 692 H 67.9735 -2.94886 -0.535029 0
M  V30 693 H 65.5345 -1.61252 -0.144681 0
M  V30 694 H 67.5265 -2.66034 -3.04972 0
M  V30 695 H 66.0965 -1.68245 -2.63463 0
M  V30 696 H 65.3165 -3.74129 -1.24183 0
M  V30 697 H 66.6045 -4.66126 -2.03971 0
M  V30 698 H 66.0025 -3.03512 -4.77386 0
M  V30 699 H 64.5595 -3.81532 -5.28466 0
M  V30 700 N 67.9926 0.231505 -1.5589 0
M  V30 701 C 69.2206 0.974505 -1.82513 0
M  V30 702 C 69.6356 1.78344 -0.619591 0
M  V30 703 O 68.9926 1.77792 0.411848 0
M  V30 704 C 69.0436 1.90007 -3.07538 0
M  V30 705 O 68.7646 1.12385 -4.2344 0
M  V30 706 C 70.2656 2.75779 -3.47075 0
M  V30 707 H 67.4856 0.286065 -0.606966 0
M  V30 708 H 70.0296 0.249739 -2.02969 0
M  V30 709 H 68.1846 2.57891 -2.89086 0
M  V30 710 H 68.5986 1.75125 -4.944 0
M  V30 711 H 70.0726 3.36443 -4.37619 0
M  V30 712 H 70.5496 3.47672 -2.68367 0
M  V30 713 H 71.1556 2.13323 -3.67931 0
M  V30 714 N 69.4707 1.49531 0.497807 0
M  V30 715 C 70.6987 1.62893 1.27567 0
M  V30 716 C 71.1137 0.301585 1.86376 0
M  V30 717 O 70.4707 -0.713335 1.67982 0
M  V30 718 C 70.5217 2.70013 2.40364 0
M  V30 719 O 70.2427 3.976 1.83972 0
M  V30 720 C 71.7437 2.94109 3.31685 0
M  V30 721 H 68.9637 0.548298 0.386794 0
M  V30 722 H 71.5077 1.95584 0.597245 0
M  V30 723 H 69.6627 2.40092 3.04031 0
M  V30 724 H 70.0767 4.56631 2.58047 0
M  V30 725 H 71.5507 3.72788 4.07104 0
M  V30 726 H 72.0277 2.04147 3.88871 0
M  V30 727 H 72.6337 3.2546 2.73781 0
M  V30 728 N 70.9488 -0.749086 1.3866 0
M  V30 729 C 72.1968 -1.50535 1.34847 0
M  V30 730 C 72.5178 -1.94909 -0.0595016 0
M  V30 731 O 71.7878 -1.67973 -1.00806 0
M  V30 732 H 70.3678 -0.558395 0.49619 0
M  V30 733 H 73.0298 -0.890165 1.73384 0
M  V30 734 H 72.1258 -2.39413 2.00219 0
M  V30 735 N 72.4269 -1.23603 -0.977757 0
M  V30 736 C 73.6569 -1.09487 -1.75203 0
M  V30 737 C 74.0649 0.356321 -1.85814 0
M  V30 738 O 73.4079 1.25816 -1.33851 0
M  V30 739 C 73.4699 -1.64905 -3.19447 0
M  V30 740 C 73.1339 -3.13688 -3.32338 0
M  V30 741 C 74.1309 -4.10953 -3.18455 0
M  V30 742 C 71.8159 -3.53449 -3.56902 0
M  V30 743 C 73.8099 -5.45962 -3.28944 0
M  V30 744 C 71.4969 -4.88602 -3.6703 0
M  V30 745 C 72.4949 -5.84668 -3.53062 0
M  V30 746 O 72.1829 -7.17365 -3.62826 0
M  V30 747 H 71.9149 -0.38367 -0.556573 0
M  V30 748 H 74.4689 -1.6398 -1.23693 0
M  V30 749 H 72.6989 -1.04835 -3.72218 0
M  V30 750 H 74.3879 -1.46226 -3.78646 0
M  V30 751 H 75.1539 -3.81577 -2.99372 0
M  V30 752 H 71.0329 -2.79188 -3.66844 0
M  V30 753 H 74.5769 -6.20925 -3.17958 0
M  V30 754 H 70.4739 -5.17653 -3.85623 0
M  V30 755 H 71.2419 -7.2515 -3.79605 0
M  V30 756 N 73.905 1.17692 -1.04816 0
M  V30 757 C 74.852 2.21581 -0.645797 0
M  V30 758 C 75.822 1.62367 0.350159 0
M  V30 759 O 77.007 1.89254 0.242433 0
M  V30 760 C 74.147 3.45092 -0.0227568 0
M  V30 761 C 73.26 4.18613 -1.06709 0
M  V30 762 C 72.395 5.29602 -0.411767 0
M  V30 763 C 71.434 5.94904 -1.44067 0
M  V30 764 N 70.571 6.97414 -0.809781 0
M  V30 765 H 75.411 2.55353 -1.5362 0
M  V30 766 H 72.948 1.25438 -0.768364 0
M  V30 767 H 74.906 4.15679 0.35588 0
M  V30 768 H 73.536 3.11917 0.831122 0
M  V30 769 H 72.588 3.46779 -1.5636 0
M  V30 770 H 73.9 4.63293 -1.84827 0
M  V30 771 H 73.054 6.06696 0.0206623 0
M  V30 772 H 71.793 4.86045 0.401438 0
M  V30 773 H 70.798 5.16544 -1.88316 0
M  V30 774 H 72.023 6.40542 -2.25571 0
M  V30 775 H 69.969 6.55998 -0.0170186 0
M  V30 776 H 69.886 7.40386 -1.52856 0
M  V30 777 H 71.154 7.78463 -0.401999 0
M  V30 778 N 75.3831 0.828654 1.34056 0
M  V30 779 C 76.3461 0.259927 2.27721 0
M  V30 780 C 77.3461 -0.565478 1.50529 0
M  V30 781 O 78.5361 -0.38075 1.69988 0
M  V30 782 C 75.6681 -0.634944 3.34935 0
M  V30 783 H 76.8611 1.0863 2.79534 0
M  V30 784 H 74.4141 0.600951 1.44285 0
M  V30 785 H 75.1491 -1.48416 2.88346 0
M  V30 786 H 74.9341 -0.0444999 3.92075 0
M  V30 787 H 76.4241 -1.02648 4.04788 0
M  V30 788 N 76.8612 -1.46375 0.584142 0
M  V30 789 C 78.1092 -2.01978 0.0701287 0
M  V30 790 C 78.4302 -1.4579 -1.295 0
M  V30 791 O 77.7002 -0.64314 -1.85042 0
M  V30 792 H 76.2802 -0.746648 0.0229345 0
M  V30 793 H 78.9422 -1.79461 0.760245 0
M  V30 794 H 78.0382 -3.121 0.0022064 0
M  V30 795 N 78.3393 -0.321999 -1.54275 0
M  V30 796 C 79.3023 0.531975 -2.22941 0
M  V30 797 C 80.3023 1.04478 -1.22234 0
M  V30 798 O 81.4923 0.937452 -1.46825 0
M  V30 799 C 78.6243 1.73874 -2.93224 0
M  V30 800 H 79.8173 -0.0682612 -2.99822 0
M  V30 801 H 77.3703 -0.0730644 -1.56129 0
M  V30 802 H 78.1053 2.37825 -2.20476 0
M  V30 803 H 77.8903 1.37847 -3.6707 0
M  V30 804 H 79.3803 2.34496 -3.45545 0
M  V30 805 N 79.8174 1.5752 -0.0501392 0
M  V30 806 C 80.7474 2.14502 0.922566 0
M  V30 807 C 81.7284 1.06642 1.3252 0
M  V30 808 O 82.9134 1.34577 1.4001 0
M  V30 809 C 80.0434 2.68916 2.19776 0
M  V30 810 C 78.9974 3.8175 1.93523 0
M  V30 811 C 78.3234 4.22677 3.27487 0
M  V30 812 C 79.6234 5.06932 1.25765 0
M  V30 813 H 81.3174 2.9603 0.447952 0
M  V30 814 H 78.8634 1.42401 0.214024 0
M  V30 815 H 80.8164 3.07419 2.88222 0
M  V30 816 H 79.5404 1.84578 2.69441 0
M  V30 817 H 78.1994 3.43718 1.27489 0
M  V30 818 H 77.8474 3.35291 3.74952 0
M  V30 819 H 77.5474 4.98725 3.1072 0
M  V30 820 H 79.0714 4.63779 3.97166 0
M  V30 821 H 80.4854 5.42888 1.84244 0
M  V30 822 H 78.8824 5.88116 1.19328 0
M  V30 823 H 79.9524 4.84337 0.233536 0
M  V30 824 N 81.2955 -0.223234 1.56011 0
M  V30 825 C 82.5435 -0.946003 1.78592 0
M  V30 826 C 82.8645 -1.84936 0.618349 0
M  V30 827 O 82.1345 -1.92473 -0.364833 0
M  V30 828 H 80.7145 -0.352298 0.658707 0
M  V30 829 H 83.3765 -0.235494 1.93472 0
M  V30 830 H 82.4725 -1.55381 2.70672 0
M  V30 831 N 82.7736 -1.49793 -0.48987 0
M  V30 832 C 84.0196 -1.60078 -1.24511 0
M  V30 833 C 84.3526 -0.291608 -1.91998 0
M  V30 834 O 83.6276 0.705647 -1.81248 0
M  V30 835 C 83.9106 -2.76791 -2.30345 0
M  V30 836 C 83.7636 -4.17535 -1.67286 0
M  V30 837 C 85.0826 -2.89111 -3.31817 0
M  V30 838 H 82.2016 -0.582645 -0.451324 0
M  V30 839 H 84.8436 -1.82117 -0.541612 0
M  V30 840 H 82.9936 -2.5813 -2.90346 0
M  V30 841 H 84.6656 -4.4774 -1.11026 0
M  V30 842 H 82.9086 -4.22665 -0.976577 0
M  V30 843 H 83.5796 -4.95094 -2.44103 0
M  V30 844 H 86.0556 -3.06133 -2.81819 0
M  V30 845 H 84.9316 -3.72433 -4.03219 0
M  V30 846 H 85.1926 -1.9893 -3.94815 0
M  V30 847 N 84.2517 0.741722 -1.39055 0
M  V30 848 C 85.5287 1.49252 -1.26425 0
M  V30 849 C 85.9087 2.10705 0.129144 0
M  V30 850 O 85.2567 1.98045 1.13976 0
M  V30 851 C 85.4667 2.54934 -2.38347 0
M  V30 852 C 86.8147 3.21506 -2.77343 0
M  V30 853 O 87.8387 2.65245 -2.37747 0
M  V30 854 O 86.6977 4.23294 -3.45665 0
M  V30 855 H 83.7917 0.662451 -0.495064 0
M  V30 856 H 86.3377 0.776121 -1.50912 0
M  V30 857 H 85.1097 2.07857 -3.31529 0
M  V30 858 H 84.7327 3.34141 -2.15489 0
M  V30 859 N 85.7298 1.2412 0.971189 0
M  V30 860 C 86.9578 1.10575 1.74874 0
M  V30 861 C 87.3728 -0.342017 1.85676 0
M  V30 862 O 86.7298 -1.23617 1.34258 0
M  V30 863 C 86.7808 1.73579 3.171 0
M  V30 864 O 86.5018 3.12695 3.06844 0
M  V30 865 C 88.0028 1.65598 4.11208 0
M  V30 866 H 85.2228 0.386504 0.548503 0
M  V30 867 H 87.7668 1.64156 1.21955 0
M  V30 868 H 85.9218 1.24009 3.67016 0
M  V30 869 H 86.3358 3.43412 3.96445 0
M  V30 870 H 87.8098 2.1437 5.08674 0
M  V30 871 H 88.2868 0.616532 4.34851 0
M  V30 872 H 88.8928 2.14578 3.67201 0
M  V30 873 N 87.2079 -1.17134 1.05439 0
M  V30 874 C 88.1379 -2.2342 0.678649 0
M  V30 875 C 89.1189 -1.66971 -0.32476 0
M  V30 876 O 90.3039 -1.93149 -0.201802 0
M  V30 877 C 87.4339 -3.47256 0.0552099 0
M  V30 878 C 86.3879 -4.16543 0.98365 0
M  V30 879 C 85.7139 -5.34231 0.223961 0
M  V30 880 C 87.0139 -4.68495 2.3089 0
M  V30 881 H 88.7079 -2.55105 1.56722 0
M  V30 882 H 86.2539 -1.2262 0.754998 0
M  V30 883 H 88.2069 -4.20828 -0.21946 0
M  V30 884 H 86.9309 -3.14846 -0.868319 0
M  V30 885 H 85.5899 -3.44887 1.24293 0
M  V30 886 H 85.2379 -4.98071 -0.702412 0
M  V30 887 H 84.9379 -5.81527 0.842627 0
M  V30 888 H 86.4619 -6.10585 -0.0433671 0
M  V30 889 H 87.8759 -5.33691 2.09396 0
M  V30 890 H 86.2729 -5.26379 2.88176 0
M  V30 891 H 87.3429 -3.85169 2.94572 0
M  V30 892 N 88.686 -0.835752 -1.33615 0
M  V30 893 C 89.935 -0.426289 -1.97144 0
M  V30 894 C 90.248 1.01912 -1.66953 0
M  V30 895 O 91.454 1.53311 -2.24072 0
M  V30 896 C 89.91 -0.711321 -3.52801 0
M  V30 897 C 89.518 -2.1712 -3.91871 0
M  V30 898 C 91.262 -0.368654 -4.22896 0
M  V30 899 C 89.169 -2.40044 -5.40493 0
M  V30 900 H 88.099 -0.15567 -0.737755 0
M  V30 901 H 90.75 -1.0239 -1.52278 0
M  V30 902 H 89.132 -0.0433766 -3.95976 0
M  V30 903 H 90.306 -2.87936 -3.59763 0
M  V30 904 H 88.621 -2.47654 -3.34749 0
M  V30 905 H 91.218 -0.517601 -5.32189 0
M  V30 906 H 91.561 0.688078 -4.10574 0
M  V30 907 H 92.094 -0.991702 -3.8524 0
M  V30 908 H 88.833 -3.44271 -5.57815 0
M  V30 909 H 88.353 -1.73785 -5.74072 0
M  V30 910 H 90.032 -2.23042 -6.0734 0
M  V30 911 N 90.1641 1.46063 -0.591896 0
M  V30 912 C 91.1121 2.32124 0.148739 0
M  V30 913 C 92.1061 1.45035 0.875286 0
M  V30 914 O 93.3121 1.61609 0.792632 0
M  V30 915 H 89.6871 0.749024 0.066832 0
M  V30 916 H 91.6581 2.92392 -0.595783 0
M  V30 917 C 90.4071 3.28373 1.1431 0
M  V30 918 H 89.7301 3.95371 0.59346 0
M  V30 919 H 91.1701 3.91352 1.63155 0
M  V30 920 C 89.6291 2.54393 2.20875 0
M  V30 921 O 90.1591 2.31373 3.28374 0
M  V30 922 N 88.3651 2.14797 1.95731 0
M  V30 923 H 87.9121 2.33719 1.08319 0
M  V30 924 H 87.8701 1.65619 2.67241 0
M  V30 925 N 91.6422 0.330177 1.54103 0
M  V30 926 C 92.6052 -0.520144 2.2322 0
M  V30 927 C 93.6052 -1.03828 1.22786 0
M  V30 928 O 94.7952 -0.929652 1.4732 0
M  V30 929 C 91.9272 -1.72317 2.94142 0
M  V30 930 H 93.1202 0.0841605 2.99782 0
M  V30 931 H 90.6732 0.0813433 1.56088 0
M  V30 932 H 91.4082 -2.36653 2.21734 0
M  V30 933 H 91.1932 -1.35898 3.67796 0
M  V30 934 H 92.6832 -2.3266 3.46784 0
M  V30 935 N 93.1203 -1.57491 0.0584922 0
M  V30 936 C 94.3663 -1.93264 -0.614558 0
M  V30 937 C 94.6993 -0.937717 -1.7006 0
M  V30 938 O 93.9743 0.0351652 -1.94468 0
M  V30 939 C 94.2573 -3.3938 -1.20386 0
M  V30 940 C 94.1103 -4.49625 -0.125375 0
M  V30 941 C 95.4293 -3.86039 -2.11334 0
M  V30 942 H 92.5483 -0.702791 -0.221933 0
M  V30 943 H 95.1903 -1.8961 0.12175 0
M  V30 944 H 93.3403 -3.42626 -1.83139 0
M  V30 945 H 95.0123 -4.58506 0.506971 0
M  V30 946 H 93.2553 -4.30354 0.545672 0
M  V30 947 H 93.9263 -5.48967 -0.577861 0
M  V30 948 H 96.4023 -3.84716 -1.58534 0
M  V30 949 H 95.2783 -4.88914 -2.49507 0
M  V30 950 H 95.5393 -3.23215 -3.01636 0
M  V30 951 N 94.5984 0.214957 -1.56127 0
M  V30 952 C 96.0094 0.781386 -1.69562 0
M  V30 953 C 96.3604 1.84707 -0.66165 0
M  V30 954 O 95.4854 2.156 0.185927 0
M  V30 955 C 96.0804 1.42411 -3.07416 0
M  V30 956 C 94.6394 1.93786 -3.22683 0
M  V30 957 C 93.7864 0.800438 -2.65496 0
M  V30 958 H 96.7374 -0.00980633 -1.58697 0
M  V30 959 H 96.7584 2.29309 -3.0364 0
M  V30 960 H 96.2704 0.64826 -3.82648 0
M  V30 961 H 94.3714 2.74152 -2.52332 0
M  V30 962 H 94.4844 2.1133 -4.29973 0
M  V30 963 H 92.8484 1.2095 -2.2415 0
M  V30 964 H 93.6314 0.0371471 -3.4328 0
M  V30 965 N 96.0765 1.50051 0.48192 0
M  V30 966 C 96.9865 1.7089 1.60728 0
M  V30 967 C 98.0025 0.591788 1.63627 0
M  V30 968 O 99.1785 0.868817 1.81696 0
M  V30 969 C 96.2435 1.78855 2.97005 0
M  V30 970 C 95.3045 3.02537 3.04581 0
M  V30 971 C 94.5375 3.10112 4.34357 0
M  V30 972 O 94.7605 2.24765 5.24249 0
M  V30 973 O 93.6945 4.02747 4.47301 0
M  V30 974 H 97.5205 2.66264 1.46072 0
M  V30 975 H 95.1055 1.34018 0.660264 0
M  V30 976 H 96.9875 1.86336 3.77964 0
M  V30 977 H 95.6625 0.866628 3.11883 0
M  V30 978 H 94.5695 3.00563 2.22739 0
M  V30 979 H 95.9025 3.94272 2.94636 0
M  V30 980 N 97.5546 -0.734337 1.39446 0
M  V30 981 C 98.8006 -1.49613 1.36908 0
M  V30 982 C 99.1336 -1.94169 -0.0347829 0
M  V30 983 O 98.4086 -1.66833 -0.999847 0
M  V30 984 C 98.6916 -2.73534 2.34203 0
M  V30 985 C 98.5446 -2.34993 3.83534 0
M  V30 986 C 99.8636 -3.75635 2.29317 0
M  V30 987 H 96.9826 -0.542714 0.498629 0
M  V30 988 H 99.6246 -0.839597 1.70443 0
M  V30 989 H 97.7746 -3.29553 2.05736 0
M  V30 990 H 99.4466 -1.84601 4.22753 0
M  V30 991 H 97.6896 -1.67213 4.00278 0
M  V30 992 H 98.3606 -3.23738 4.47099 0
M  V30 993 H 100.837 -3.29203 2.54489 0
M  V30 994 H 99.7126 -4.60008 2.99472 0
M  V30 995 H 99.9736 -4.22603 1.29842 0
M  V30 996 N 99.0327 -1.24633 -0.964593 0
M  V30 997 C 99.9797 -1.04144 -2.05968 0
M  V30 998 C 100.95 0.046262 -1.66036 0
M  V30 999 O 102.135 -0.108972 -1.90489 0
M  V30 1000 C 99.2747 -0.65563 -3.38815 0
M  V30 1001 C 98.3877 -1.81714 -3.91923 0
M  V30 1002 C 97.5227 -1.37662 -5.13052 0
M  V30 1003 C 96.5617 -2.50788 -5.58365 0
M  V30 1004 N 95.6987 -2.07582 -6.70712 0
M  V30 1005 H 100.539 -1.9787 -2.22827 0
M  V30 1006 H 98.0757 -0.9855 -1.09208 0
M  V30 1007 H 100.034 -0.412954 -4.15151 0
M  V30 1008 H 98.6637 0.244627 -3.21872 0
M  V30 1009 H 97.7157 -2.1734 -3.12198 0
M  V30 1010 H 99.0277 -2.66705 -4.21509 0
M  V30 1011 H 98.1817 -1.093 -5.96773 0
M  V30 1012 H 96.9207 -0.497293 -4.85158 0
M  V30 1013 H 95.9257 -2.79906 -4.73215 0
M  V30 1014 H 97.1507 -3.39283 -5.88272 0
M  V30 1015 H 95.0967 -1.22051 -6.44546 0
M  V30 1016 H 95.0137 -2.86125 -6.99763 0
M  V30 1017 H 96.2817 -1.82369 -7.57867 0
M  V30 1018 N 100.511 1.16574 -1.06058 0
M  V30 1019 C 101.458 2.20883 -0.669263 0
M  V30 1020 C 102.428 1.62729 0.332918 0
M  V30 1021 O 103.613 1.895 0.222346 0
M  V30 1022 C 100.753 3.45049 -0.0593572 0
M  V30 1023 C 99.8658 4.17458 -1.11143 0
M  V30 1024 C 99.0008 5.29135 -0.467916 0
M  V30 1025 C 98.0398 5.93343 -1.50369 0
M  V30 1026 N 97.1768 6.96516 -0.883706 0
M  V30 1027 H 102.017 2.53709 -1.5632 0
M  V30 1028 H 99.5538 1.24616 -0.781625 0
M  V30 1029 H 101.512 4.16033 0.311771 0
M  V30 1030 H 100.142 3.12781 0.797992 0
M  V30 1031 H 99.1938 3.45101 -1.60029 0
M  V30 1032 H 100.506 4.61307 -1.89731 0
M  V30 1033 H 99.6598 6.06684 -0.0436871 0
M  V30 1034 H 98.3988 4.86443 0.349864 0
M  V30 1035 H 97.4038 5.14517 -1.93784 0
M  V30 1036 H 98.6288 6.38114 -2.32352 0
M  V30 1037 H 96.5748 6.55943 -0.086595 0
M  V30 1038 H 96.4918 7.38723 -1.607 0
M  V30 1039 H 97.7598 7.77993 -0.484543 0
M  V30 1040 N 101.989 0.842826 1.3317 0
M  V30 1041 C 102.919 0.294028 2.31641 0
M  V30 1042 C 103.9 -0.600401 1.59151 0
M  V30 1043 O 105.085 -0.523124 1.87022 0
M  V30 1044 C 102.215 -0.528416 3.43257 0
M  V30 1045 C 101.169 0.27056 4.27144 0
M  V30 1046 C 100.495 -0.675881 5.30411 0
M  V30 1047 C 101.795 1.48981 5.00602 0
M  V30 1048 H 103.489 1.11681 2.77791 0
M  V30 1049 H 101.035 0.538478 1.33553 0
M  V30 1050 H 102.988 -0.922674 4.11175 0
M  V30 1051 H 101.712 -1.38445 2.95805 0
M  V30 1052 H 100.371 0.646427 3.60856 0
M  V30 1053 H 100.019 -1.52842 4.79216 0
M  V30 1054 H 99.7189 -0.145374 5.8742 0
M  V30 1055 H 101.243 -1.06757 6.01195 0
M  V30 1056 H 102.657 1.16849 5.61266 0
M  V30 1057 H 101.054 1.95739 5.6728 0
M  V30 1058 H 102.124 2.25746 4.29147 0
M  V30 1059 N 103.467 -1.45747 0.599634 0
M  V30 1060 C 104.43 -2.28917 -0.113835 0
M  V30 1061 C 105.43 -1.3933 -0.802729 0
M  V30 1062 O 106.62 -1.61534 -0.652103 0
M  V30 1063 C 103.752 -3.20152 -1.17114 0
M  V30 1064 H 104.945 -2.93478 0.617289 0
M  V30 1065 H 102.498 -1.52137 0.358327 0
M  V30 1066 H 103.233 -2.60374 -1.93329 0
M  V30 1067 H 103.018 -3.86133 -0.681468 0
M  V30 1068 H 104.508 -3.82708 -1.67105 0
M  V30 1069 N 104.945 -0.338344 -1.53925 0
M  V30 1070 C 105.893 0.536231 -2.26335 0
M  V30 1071 C 106.887 1.1063 -1.28286 0
M  V30 1072 O 108.093 1.05264 -1.46012 0
M  V30 1073 H 104.468 0.191602 -0.727181 0
M  V30 1074 H 106.439 -0.0965747 -2.98244 0
M  V30 1075 C 105.188 1.67803 -3.04528 0
M  V30 1076 H 104.511 1.24864 -3.79801 0
M  V30 1077 H 105.951 2.26526 -3.58416 0
M  V30 1078 C 104.41 2.60439 -2.13712 0
M  V30 1079 O 104.94 3.6255 -1.72975 0
M  V30 1080 N 103.146 2.29006 -1.78898 0
M  V30 1081 H 102.693 1.46011 -2.12223 0
M  V30 1082 H 102.651 2.91248 -1.18416 0
M  V30 1083 N 106.423 1.57458 -0.0668435 0
M  V30 1084 C 107.669 1.93587 0.6043 0
M  V30 1085 C 108.002 0.946722 1.69561 0
M  V30 1086 O 107.277 -0.0248516 1.94484 0
M  V30 1087 C 107.56 3.40014 1.18585 0
M  V30 1088 C 107.413 4.49685 0.101529 0
M  V30 1089 C 108.732 3.87154 2.09284 0
M  V30 1090 H 105.851 0.703958 0.218202 0
M  V30 1091 H 108.493 1.89542 -0.131804 0
M  V30 1092 H 106.643 3.43592 1.81319 0
M  V30 1093 H 108.315 4.5823 -0.531279 0
M  V30 1094 H 106.558 4.30059 -0.568487 0
M  V30 1095 H 107.229 5.49266 0.54874 0
M  V30 1096 H 109.705 3.85551 1.56491 0
M  V30 1097 H 108.581 4.90231 2.46911 0
M  V30 1098 H 108.842 3.2481 2.99918 0
M  V30 1099 N 107.901 -0.206675 1.56239 0
M  V30 1100 C 108.848 -1.25617 1.93621 0
M  V30 1101 C 109.818 -1.45824 0.795274 0
M  V30 1102 O 111.003 -1.59148 1.05245 0
M  V30 1103 C 108.143 -2.59839 2.27107 0
M  V30 1104 C 107.256 -2.47308 3.54207 0
M  V30 1105 C 106.391 -3.74155 3.7707 0
M  V30 1106 C 105.43 -3.56407 4.97635 0
M  V30 1107 N 104.567 -4.75238 5.1681 0
M  V30 1108 H 109.407 -0.930383 2.83104 0
M  V30 1109 H 106.944 -0.448065 1.4011 0
M  V30 1110 H 108.902 -3.38021 2.44535 0
M  V30 1111 H 107.532 -2.90485 1.40778 0
M  V30 1112 H 106.584 -1.60483 3.4489 0
M  V30 1113 H 107.896 -2.30122 4.42544 0
M  V30 1114 H 107.05 -4.60778 3.94675 0
M  V30 1115 H 105.789 -3.94282 2.87042 0
M  V30 1116 H 104.794 -2.68168 4.79964 0
M  V30 1117 H 106.019 -3.37736 5.89161 0
M  V30 1118 H 103.965 -4.95651 4.29728 0
M  V30 1119 H 103.882 -4.60835 5.99306 0
M  V30 1120 H 105.15 -5.63246 5.38864 0
M  V30 1121 N 109.379 -1.50304 -0.473955 0
M  V30 1122 C 110.627 -1.60832 -1.22382 0
M  V30 1123 C 110.948 -0.30939 -1.9253 0
M  V30 1124 O 110.218 0.67296 -1.83978 0
M  V30 1125 H 108.798 -0.592652 -0.454723 0
M  V30 1126 H 111.46 -1.87068 -0.546968 0
M  V30 1127 H 110.556 -2.41803 -1.97327 0
M  V30 1128 N 110.857 0.726932 -1.39834 0
M  V30 1129 C 111.767 1.87131 -1.41489 0
M  V30 1130 C 112.783 1.71239 -0.308757 0
M  V30 1131 O 113.959 1.93701 -0.551529 0
M  V30 1132 C 111.024 3.22811 -1.26468 0
M  V30 1133 C 110.085 3.51039 -2.47124 0
M  V30 1134 C 109.318 4.80245 -2.3281 0
M  V30 1135 O 109.541 5.54537 -1.33585 0
M  V30 1136 O 108.475 5.08554 -3.21957 0
M  V30 1137 H 112.301 1.8869 -2.3797 0
M  V30 1138 H 109.886 0.875837 -1.21035 0
M  V30 1139 H 111.768 4.03877 -1.20255 0
M  V30 1140 H 110.443 3.22005 -0.330862 0
M  V30 1141 H 109.35 2.70027 -2.58914 0
M  V30 1142 H 110.683 3.56632 -3.39227 0
M  V30 1143 N 112.336 1.25143 0.95797 0
M  V30 1144 C 113.268 1.01023 2.05735 0
M  V30 1145 C 114.281 -0.0236902 1.62783 0
M  V30 1146 O 115.47 0.21448 1.77207 0
M  V30 1147 C 112.57 0.504595 3.35122 0
M  V30 1148 C 111.743 1.6039 4.06932 0
M  V30 1149 C 110.802 1.09922 5.14591 0
M  V30 1150 O 109.828 1.79293 5.40225 0
M  V30 1151 N 111.03 -0.0612545 5.80468 0
M  V30 1152 H 113.795 1.95683 2.26998 0
M  V30 1153 H 111.356 1.16303 1.12629 0
M  V30 1154 H 113.348 0.151516 4.04416 0
M  V30 1155 H 111.918 -0.347989 3.10657 0
M  V30 1156 H 111.138 2.12872 3.31782 0
M  V30 1157 H 112.426 2.34252 4.51667 0
M  V30 1158 H 111.824 -0.640985 5.62057 0
M  V30 1159 H 110.381 -0.355395 6.5083 0
M  V30 1160 N 113.814 -1.1601 1.06675 0
M  V30 1161 C 115.061 -1.86633 0.785781 0
M  V30 1162 C 115.389 -1.81929 -0.687896 0
M  V30 1163 O 114.644 -1.23253 -1.52011 0
M  V30 1164 C 114.943 -3.35547 1.23057 0
M  V30 1165 C 114.609 -3.60448 2.70902 0
M  V30 1166 C 113.271 -3.66954 3.11285 0
M  V30 1167 C 115.623 -3.7071 3.66365 0
M  V30 1168 C 112.951 -3.81225 4.45965 0
M  V30 1169 C 115.303 -3.86503 5.00797 0
M  V30 1170 C 113.967 -3.91252 5.40813 0
M  V30 1171 H 113.237 -0.682937 0.287538 0
M  V30 1172 H 115.884 -1.37146 1.33654 0
M  V30 1173 H 114.189 -3.87193 0.59907 0
M  V30 1174 H 115.886 -3.88583 0.990163 0
M  V30 1175 H 112.476 -3.56021 2.38636 0
M  V30 1176 H 116.66 -3.64991 3.36296 0
M  V30 1177 H 111.916 -3.83155 4.76447 0
M  V30 1178 H 116.09 -3.93385 5.74649 0
M  V30 1179 H 113.717 -4.02062 6.45174 0
M  V30 1180 N 115.292 -0.849877 -1.32721 0
M  V30 1181 C 116.517 -0.463856 -2.02146 0
M  V30 1182 C 116.942 0.930449 -1.63476 0
M  V30 1183 O 116.3 1.61033 -0.832952 0
M  V30 1184 C 116.348 -0.604955 -3.55489 0
M  V30 1185 O 115.452 0.36425 -4.10788 0
M  V30 1186 H 114.793 -0.187046 -0.637111 0
M  V30 1187 H 117.323 -1.14775 -1.69375 0
M  V30 1188 H 117.333 -0.490696 -4.05038 0
M  V30 1189 H 116.008 -1.62174 -3.82978 0
M  V30 1190 H 114.585 0.206628 -3.72327 0
M  V30 1191 N 116.77 1.45427 -0.607355 0
M  V30 1192 C 117.718 2.32269 0.12411 0
M  V30 1193 C 118.712 1.45955 0.859854 0
M  V30 1194 O 119.918 1.6244 0.775447 0
M  V30 1195 H 116.293 0.749691 0.0588839 0
M  V30 1196 H 118.264 2.91743 -0.626762 0
M  V30 1197 C 117.013 3.29567 1.1082 0
M  V30 1198 H 116.336 3.95978 0.551492 0
M  V30 1199 H 117.776 3.93061 1.58995 0
M  V30 1200 C 116.235 2.56722 2.18164 0
M  V30 1201 O 116.765 2.34842 3.25902 0
M  V30 1202 N 114.971 2.16861 1.93442 0
M  V30 1203 H 114.518 2.34855 1.05834 0
M  V30 1204 H 114.476 1.68444 2.65469 0
M  V30 1205 N 118.248 0.346503 1.53744 0
M  V30 1206 C 119.181 -0.552023 2.21423 0
M  V30 1207 C 120.159 -1.09798 1.19929 0
M  V30 1208 O 121.343 -1.1577 1.4876 0
M  V30 1209 C 118.47 -1.75972 2.89398 0
M  V30 1210 C 117.516 -1.34295 4.04805 0
M  V30 1211 S 118.349 -0.360263 5.34287 0
M  V30 1212 C 119.505 -1.57473 6.05767 0
M  V30 1213 H 119.738 0.0228119 2.97291 0
M  V30 1214 H 117.271 0.130579 1.53847 0
M  V30 1215 H 119.229 -2.45256 3.2918 0
M  V30 1216 H 117.89 -2.30578 2.1329 0
M  V30 1217 H 117.083 -2.24349 4.51313 0
M  V30 1218 H 116.685 -0.729555 3.66815 0
M  V30 1219 H 118.977 -2.50875 6.29339 0
M  V30 1220 H 119.92 -1.15138 6.98676 0
M  V30 1221 H 120.328 -1.77212 5.35963 0
M  V30 1222 N 119.726 -1.57421 0.075193 0
M  V30 1223 C 120.689 -2.11791 -0.876203 0
M  V30 1224 C 121.689 -1.04268 -1.22412 0
M  V30 1225 O 122.879 -1.30242 -1.15684 0
M  V30 1226 C 120.011 -2.62207 -2.17854 0
M  V30 1227 H 121.204 -2.9716 -0.40444 0
M  V30 1228 H 118.757 -1.55333 -0.173557 0
M  V30 1229 H 119.492 -1.803 -2.6956 0
M  V30 1230 H 119.277 -3.40802 -1.93897 0
M  V30 1231 H 120.767 -3.04335 -2.85955 0
M  V30 1232 N 121.204 0.198386 -1.56346 0
M  V30 1233 C 122.429 0.939682 -1.84891 0
M  V30 1234 C 122.854 1.76202 -0.658369 0
M  V30 1235 O 122.212 1.76993 0.392851 0
M  V30 1236 C 122.26 1.81428 -3.11635 0
M  V30 1237 O 121.364 2.91265 -2.91956 0
M  V30 1238 H 120.705 0.264807 -0.608912 0
M  V30 1239 H 123.235 0.204695 -2.03573 0
M  V30 1240 H 123.245 2.21958 -3.42343 0
M  V30 1241 H 121.92 1.21004 -3.97908 0
M  V30 1242 H 120.497 2.54514 -2.72538 0
M  V30 1243 N 122.682 1.50554 0.465978 0
M  V30 1244 C 123.592 1.72585 1.58907 0
M  V30 1245 C 124.608 0.60911 1.6299 0
M  V30 1246 O 125.784 0.88804 1.80765 0
M  V30 1247 C 122.849 1.81995 2.95091 0
M  V30 1248 C 121.91 3.05751 3.01355 0
M  V30 1249 C 121.143 3.14702 4.31043 0
M  V30 1250 O 121.366 2.30313 5.21835 0
M  V30 1251 O 120.3 4.07468 4.43005 0
M  V30 1252 H 124.126 2.67799 1.43239 0
M  V30 1253 H 121.711 1.34711 0.646013 0
M  V30 1254 H 123.593 1.90335 3.75966 0
M  V30 1255 H 122.268 0.899659 3.10947 0
M  V30 1256 H 121.175 3.02908 2.19539 0
M  V30 1257 H 122.508 3.97375 2.90437 0
M  V30 1258 N 124.16 -0.719506 1.40217 0
M  V30 1259 C 125.108 -1.85493 1.40339 0
M  V30 1260 C 126.102 -1.66995 0.284415 0
M  V30 1261 O 127.308 -1.74148 0.455252 0
M  V30 1262 H 123.683 -0.610857 0.438586 0
M  V30 1263 H 125.654 -1.82506 2.36081 0
M  V30 1264 C 124.403 -3.23321 1.27901 0
M  V30 1265 H 123.726 -3.38159 2.1328 0
M  V30 1266 H 125.166 -4.02914 1.32045 0
M  V30 1267 C 123.625 -3.36898 -0.0111355 0
M  V30 1268 O 124.155 -3.89674 -0.975538 0
M  V30 1269 N 122.361 -2.90492 -0.0793393 0
M  V30 1270 H 121.908 -2.47731 0.706183 0
M  V30 1271 H 121.866 -2.99955 -0.942038 0
M  V30 1272 N 125.638 -1.25649 -0.95132 0
M  V30 1273 C 126.571 -1.00644 -2.04807 0
M  V30 1274 C 127.549 0.0654271 -1.62468 0
M  V30 1275 O 128.733 -0.074911 -1.88351 0
M  V30 1276 C 125.86 -0.522052 -3.34653 0
M  V30 1277 C 124.906 -1.58495 -3.95957 0
M  V30 1278 S 125.739 -3.17108 -4.31512 0
M  V30 1279 C 126.895 -2.70412 -5.64471 0
M  V30 1280 H 127.128 -1.93508 -2.25703 0
M  V30 1281 H 124.661 -1.09216 -1.09139 0
M  V30 1282 H 126.619 -0.24923 -4.09743 0
M  V30 1283 H 125.28 0.386146 -3.11717 0
M  V30 1284 H 124.473 -1.1968 -4.89584 0
M  V30 1285 H 124.075 -1.80862 -3.2736 0
M  V30 1286 H 126.367 -2.14245 -6.42733 0
M  V30 1287 H 127.31 -3.62693 -6.08161 0
M  V30 1288 H 127.718 -2.10302 -5.23864 0
M  V30 1289 N 127.117 1.15442 -1.07289 0
M  V30 1290 C 128.345 1.90096 -0.81676 0
M  V30 1291 C 128.76 1.7798 0.629966 0
M  V30 1292 O 128.117 1.1313 1.43206 0
M  V30 1293 C 128.168 3.40466 -1.21512 0
M  V30 1294 O 127.889 3.52232 -2.60508 0
M  V30 1295 C 129.39 4.32145 -0.988198 0
M  V30 1296 H 126.61 0.602495 -0.295366 0
M  V30 1297 H 129.154 1.4627 -1.42918 0
M  V30 1298 H 127.309 3.81958 -0.647039 0
M  V30 1299 H 127.723 4.45549 -2.76742 0
M  V30 1300 H 129.197 5.36072 -1.31645 0
M  V30 1301 H 129.674 4.39135 0.0755063 0
M  V30 1302 H 130.28 3.96395 -1.54115 0
M  V30 1303 N 128.595 0.856903 1.32268 0
M  V30 1304 C 129.843 0.460474 1.96784 0
M  V30 1305 C 130.164 -0.987701 1.68135 0
M  V30 1306 O 129.434 -1.69058 0.989765 0
M  V30 1307 H 128.014 0.167289 0.728027 0
M  V30 1308 H 130.676 1.09383 1.61312 0
M  V30 1309 H 129.772 0.60739 3.06133 0
M  V30 1310 N 130.073 -1.45103 0.615059 0
M  V30 1311 C 131.35 -1.95549 0.0448276 0
M  V30 1312 C 131.73 -1.55737 -1.4251 0
M  V30 1313 O 131.078 -0.823556 -2.13143 0
M  V30 1314 C 131.288 -3.48098 0.250785 0
M  V30 1315 C 132.636 -4.24384 0.135509 0
M  V30 1316 O 133.66 -3.55738 0.181299 0
M  V30 1317 O 132.519 -5.46493 0.0268878 0
M  V30 1318 H 129.613 -0.8264 -0.0314845 0
M  V30 1319 H 132.159 -1.55232 0.685642 0
M  V30 1320 H 130.931 -3.7007 1.27139 0
M  V30 1321 H 130.554 -3.95323 -0.424937 0
M  V30 1322 N 131.551 -0.354651 -1.53558 0
M  V30 1323 C 132.797 0.238797 -2.01389 0
M  V30 1324 C 133.13 1.49309 -1.2418 0
M  V30 1325 O 132.405 1.91638 -0.332457 0
M  V30 1326 C 132.688 0.541771 -3.56001 0
M  V30 1327 C 132.541 -0.725388 -4.43912 0
M  V30 1328 C 133.86 1.34685 -4.18984 0
M  V30 1329 H 130.979 0.0853177 -0.732045 0
M  V30 1330 H 133.621 -0.477384 -1.83905 0
M  V30 1331 H 131.771 1.15189 -3.71031 0
M  V30 1332 H 133.443 -1.36313 -4.407 0
M  V30 1333 H 131.686 -1.34801 -4.12324 0
M  V30 1334 H 132.357 -0.468505 -5.50008 0
M  V30 1335 H 134.833 0.830837 -4.07721 0
M  V30 1336 H 133.709 1.52759 -5.27215 0
M  V30 1337 H 133.97 2.35221 -3.74331 0
M  V30 1338 N 133.029 1.57378 -0.0835403 0
M  V30 1339 C 134.275 1.94217 0.583733 0
M  V30 1340 C 134.608 0.964653 1.68547 0
M  V30 1341 O 133.883 -0.00422258 1.945 0
M  V30 1342 C 134.166 3.41253 1.14972 0
M  V30 1343 C 134.019 4.49768 0.0538277 0
M  V30 1344 C 135.338 3.89352 2.05166 0
M  V30 1345 H 132.457 0.706233 0.210724 0
M  V30 1346 H 135.099 1.89392 -0.1519 0
M  V30 1347 H 133.249 3.45496 1.77665 0
M  V30 1348 H 134.921 4.57641 -0.579851 0
M  V30 1349 H 133.164 4.29432 -0.614068 0
M  V30 1350 H 133.835 5.49817 0.490452 0
M  V30 1351 H 136.311 3.87189 1.52393 0
M  V30 1352 H 135.187 4.92822 2.41698 0
M  V30 1353 H 135.448 3.27973 2.96456 0
M  V30 1354 N 134.507 -0.190092 1.56449 0
M  V30 1355 C 135.437 -1.23816 1.97969 0
M  V30 1356 C 136.418 -1.47201 0.852395 0
M  V30 1357 O 137.603 -1.58854 1.1171 0
M  V30 1358 C 134.733 -2.5813 2.3235 0
M  V30 1359 C 133.687 -2.49348 3.47864 0
M  V30 1360 C 133.013 -3.8798 3.67934 0
M  V30 1361 C 134.313 -2.01424 4.81898 0
M  V30 1362 H 136.007 -0.89311 2.85769 0
M  V30 1363 H 133.553 -0.428177 1.37487 0
M  V30 1364 H 135.506 -3.31637 2.59991 0
M  V30 1365 H 134.23 -2.94386 1.41438 0
M  V30 1366 H 132.889 -1.78297 3.20321 0
M  V30 1367 H 132.537 -4.21597 2.74344 0
M  V30 1368 H 132.237 -3.82978 4.45648 0
M  V30 1369 H 133.761 -4.63101 3.97957 0
M  V30 1370 H 135.175 -2.64693 5.08538 0
M  V30 1371 H 133.572 -2.07413 5.63116 0
M  V30 1372 H 134.642 -0.967677 4.75146 0
M  V30 1373 N 135.985 -1.50799 -0.457987 0
M  V30 1374 C 136.932 -1.70617 -1.5543 0
M  V30 1375 C 137.902 -0.547562 -1.56815 0
M  V30 1376 O 139.087 -0.779647 -1.74144 0
M  V30 1377 C 136.227 -1.81831 -2.93311 0
M  V30 1378 C 135.34 -3.09278 -3.01615 0
M  V30 1379 C 134.475 -3.11209 -4.30491 0
M  V30 1380 C 133.514 -4.33055 -4.32585 0
M  V30 1381 N 132.651 -4.32652 -5.52952 0
M  V30 1382 H 137.491 -2.64207 -1.37836 0
M  V30 1383 H 135.028 -1.30959 -0.669937 0
M  V30 1384 H 136.986 -1.86314 -3.73287 0
M  V30 1385 H 135.616 -0.916685 -3.0951 0
M  V30 1386 H 134.668 -3.14203 -2.1443 0
M  V30 1387 H 135.98 -3.99233 -2.99022 0
M  V30 1388 H 135.134 -3.14494 -5.18824 0
M  V30 1389 H 133.873 -2.19106 -4.35711 0
M  V30 1390 H 132.878 -4.29969 -3.42647 0
M  V30 1391 H 134.103 -5.264 -4.29046 0
M  V30 1392 H 132.049 -3.43409 -5.58933 0
M  V30 1393 H 131.966 -5.16392 -5.52155 0
M  V30 1394 H 133.234 -4.40101 -6.43375 0
M  V30 1395 N 137.463 0.71206 -1.40597 0
M  V30 1396 C 138.393 1.83889 -1.43899 0
M  V30 1397 C 139.374 1.67442 -0.299504 0
M  V30 1398 O 140.559 1.87421 -0.508624 0
M  V30 1399 C 137.689 3.21877 -1.30431 0
M  V30 1400 C 136.643 3.53002 -2.42019 0
M  V30 1401 C 135.969 4.90172 -2.13626 0
M  V30 1402 C 137.269 3.53643 -3.84362 0
M  V30 1403 H 138.963 1.81383 -2.38203 0
M  V30 1404 H 136.509 0.871237 -1.14654 0
M  V30 1405 H 138.462 4.00404 -1.31357 0
M  V30 1406 H 137.186 3.24968 -0.326049 0
M  V30 1407 H 135.845 2.76818 -2.40349 0
M  V30 1408 H 135.493 4.89869 -1.14182 0
M  V30 1409 H 135.193 5.11962 -2.88389 0
M  V30 1410 H 136.717 5.71028 -2.1624 0
M  V30 1411 H 138.131 4.22203 -3.87837 0
M  V30 1412 H 136.528 3.86961 -4.58673 0
M  V30 1413 H 137.598 2.52954 -4.13693 0
M  V30 1414 N 138.941 1.26152 0.944643 0
M  V30 1415 C 140.166 1.14363 1.7302 0
M  V30 1416 C 140.591 -0.29772 1.85729 0
M  V30 1417 O 139.949 -1.2157 1.34501 0
M  V30 1418 C 139.997 1.81378 3.11664 0
M  V30 1419 O 139.101 1.10022 3.97453 0
M  V30 1420 H 138.442 0.398694 0.53098 0
M  V30 1421 H 140.972 1.66906 1.18337 0
M  V30 1422 H 140.982 1.88064 3.62072 0
M  V30 1423 H 139.657 2.86237 3.0173 0
M  V30 1424 H 138.234 1.11287 3.55907 0
M  V30 1425 N 140.419 -1.14872 1.07899 0
M  V30 1426 C 141.351 -2.19425 0.662231 0
M  V30 1427 C 142.364 -1.60231 -0.288079 0
M  V30 1428 O 143.553 -1.78336 -0.076534 0
M  V30 1429 C 140.653 -3.38867 -0.0470695 0
M  V30 1430 C 139.826 -4.27597 0.920831 0
M  V30 1431 C 138.885 -5.25616 0.247805 0
M  V30 1432 O 137.911 -5.62189 0.890599 0
M  V30 1433 N 139.113 -5.71746 -1.00435 0
M  V30 1434 H 141.878 -2.55797 1.56166 0
M  V30 1435 H 139.439 -1.30042 0.964404 0
M  V30 1436 H 141.431 -4.01497 -0.50813 0
M  V30 1437 H 140.001 -3.00864 -0.848523 0
M  V30 1438 H 139.221 -3.61982 1.56087 0
M  V30 1439 H 140.509 -4.83748 1.57688 0
M  V30 1440 H 139.907 -5.44153 -1.54642 0
M  V30 1441 H 138.464 -6.36389 -1.40899 0
M  V30 1442 N 141.898 -0.863906 -1.31812 0
M  V30 1443 C 143.314 -0.555004 -1.49639 0
M  V30 1444 C 143.514 0.912266 -1.79666 0
M  V30 1445 O 142.57 1.69479 -1.87171 0
M  V30 1446 C 143.883 -1.44998 -2.63431 0
M  V30 1447 C 145.431 -1.45138 -2.77316 0
M  V30 1448 C 145.906 -2.33179 -3.94197 0
M  V30 1449 N 147.397 -2.31025 -4.01474 0
M  V30 1450 C 148.132 -2.95871 -4.9117 0
M  V30 1451 N 147.628 -3.69863 -5.8581 0
M  V30 1452 N 149.421 -2.85211 -4.84367 0
M  V30 1453 H 141.572 -1.81339 -1.10589 0
M  V30 1454 H 143.835 -0.77505 -0.545895 0
M  V30 1455 H 143.541 -2.49377 -2.48 0
M  V30 1456 H 143.415 -1.14409 -3.59431 0
M  V30 1457 H 145.802 -0.415201 -2.92164 0
M  V30 1458 H 145.883 -1.79747 -1.82001 0
M  V30 1459 H 145.527 -3.3687 -3.80107 0
M  V30 1460 H 145.457 -1.95897 -4.88807 0
M  V30 1461 H 147.948 -1.77238 -3.33759 0
M  V30 1462 H 148.261 -4.16486 -6.50968 0
M  V30 1463 H 146.606 -3.73971 -5.85808 0
M  V30 1464 H 149.797 -2.26948 -4.09405 0
M  V30 1465 H 149.97 -3.36027 -5.54066 0
M  V30 1466 N 143.376 1.44774 -0.622745 0
M  V30 1467 C 144.622 2.0242 -0.124083 0
M  V30 1468 C 144.955 1.4881 1.24777 0
M  V30 1469 O 144.23 0.668799 1.8264 0
M  V30 1470 C 144.513 3.59957 -0.101619 0
M  V30 1471 C 144.366 4.23867 -1.50521 0
M  V30 1472 C 145.685 4.36284 0.578272 0
M  V30 1473 H 142.804 0.735528 -0.0465645 0
M  V30 1474 H 145.446 1.72447 -0.797617 0
M  V30 1475 H 143.596 3.85623 0.471934 0
M  V30 1476 H 145.268 4.09336 -2.12701 0
M  V30 1477 H 143.511 3.81684 -2.06154 0
M  V30 1478 H 144.182 5.32843 -1.4416 0
M  V30 1479 H 146.658 4.16001 0.0906057 0
M  V30 1480 H 145.534 5.46004 0.563149 0
M  V30 1481 H 145.795 4.10271 1.64713 0
M  V30 1482 N 144.854 0.36279 1.53368 0
M  V30 1483 C 145.802 -0.500155 2.27159 0
M  V30 1484 C 146.796 -1.08575 1.3003 0
M  V30 1485 O 148.002 -1.02927 1.47668 0
M  V30 1486 H 144.377 -0.180009 0.730138 0
M  V30 1487 H 146.348 0.14401 2.98052 0
M  V30 1488 C 145.097 -1.62937 3.07159 0
M  V30 1489 H 144.42 -1.18806 3.8174 0
M  V30 1490 H 145.86 -2.20795 3.61975 0
M  V30 1491 C 144.319 -2.57007 2.17829 0
M  V30 1492 O 144.849 -3.59752 1.78721 0
M  V30 1493 N 143.055 -2.26131 1.82518 0
M  V30 1494 H 142.602 -1.42616 2.14519 0
M  V30 1495 H 142.56 -2.89327 1.23034 0
M  V30 1496 N 146.332 -1.57332 0.0918853 0
M  V30 1497 C 147.242 -2.17368 -0.882505 0
M  V30 1498 C 148.258 -1.14226 -1.31257 0
M  V30 1499 O 149.434 -1.46582 -1.38115 0
M  V30 1500 C 146.499 -2.73962 -2.12476 0
M  V30 1501 C 145.56 -3.92048 -1.7492 0
M  V30 1502 C 144.793 -4.45933 -2.93223 0
M  V30 1503 O 145.016 -3.98764 -4.07852 0
M  V30 1504 O 143.95 -5.36999 -2.71875 0
M  V30 1505 H 147.776 -3.01031 -0.40172 0
M  V30 1506 H 145.361 -1.48813 -0.132291 0
M  V30 1507 H 147.243 -3.10147 -2.85283 0
M  V30 1508 H 145.918 -1.93347 -2.59613 0
M  V30 1509 H 144.825 -3.6068 -0.993025 0
M  V30 1510 H 146.158 -4.74017 -1.32548 0
M  V30 1511 N 147.81 0.181792 -1.56548 0
M  V30 1512 C 148.74 1.22765 -1.98623 0
M  V30 1513 C 149.721 1.46747 -0.860189 0
M  V30 1514 O 150.906 1.58259 -1.12551 0
M  V30 1515 C 148.036 2.56894 -2.33715 0
M  V30 1516 C 146.99 2.475 -3.49182 0
M  V30 1517 C 146.316 3.86023 -3.69986 0
M  V30 1518 C 147.616 1.98866 -4.82959 0
M  V30 1519 H 149.31 0.877942 -2.86239 0
M  V30 1520 H 146.856 0.42088 -1.37712 0
M  V30 1521 H 148.809 3.30253 -2.61746 0
M  V30 1522 H 147.533 2.93632 -1.42997 0
M  V30 1523 H 146.192 1.76596 -3.21262 0
M  V30 1524 H 145.84 4.20136 -2.76576 0
M  V30 1525 H 145.54 3.80609 -4.47672 0
M  V30 1526 H 147.064 4.60984 -4.00407 0
M  V30 1527 H 148.478 2.61992 -5.09934 0
M  V30 1528 H 146.875 2.04424 -5.64208 0
M  V30 1529 H 147.945 0.942465 -4.75653 0
M  V30 1530 N 149.288 1.51039 0.449983 0
M  V30 1531 C 150.218 1.74379 1.55288 0
M  V30 1532 C 151.199 0.593236 1.5942 0
M  V30 1533 O 152.384 0.834625 1.7535 0
M  V30 1534 C 149.514 1.85728 2.93466 0
M  V30 1535 C 148.468 3.01078 3.04197 0
M  V30 1536 C 147.794 2.97595 4.44231 0
M  V30 1537 C 149.094 4.41254 2.7945 0
M  V30 1538 H 150.788 2.66725 1.36008 0
M  V30 1539 H 148.334 1.2835 0.652864 0
M  V30 1540 H 150.287 2.0064 3.70569 0
M  V30 1541 H 149.011 0.900207 3.13949 0
M  V30 1542 H 147.67 2.85851 2.29531 0
M  V30 1543 H 147.318 1.99691 4.61663 0
M  V30 1544 H 147.018 3.75046 4.52343 0
M  V30 1545 H 148.542 3.14583 5.23326 0
M  V30 1546 H 149.956 4.56897 3.46292 0
M  V30 1547 H 148.353 5.20315 2.98985 0
M  V30 1548 H 149.423 4.52164 1.75144 0
M  V30 1549 N 150.766 -0.704594 1.40972 0
M  V30 1550 C 151.729 -1.80035 1.41845 0
M  V30 1551 C 152.729 -1.57774 0.310474 0
M  V30 1552 O 153.919 -1.64613 0.56992 0
M  V30 1553 C 151.051 -3.18284 1.22098 0
M  V30 1554 H 152.244 -1.80658 2.3938 0
M  V30 1555 H 149.797 -0.911329 1.26982 0
M  V30 1556 H 150.532 -3.23306 0.253672 0
M  V30 1557 H 150.317 -3.35843 2.02366 0
M  V30 1558 H 151.807 -3.98289 1.25522 0
M  V30 1559 N 152.244 -1.26651 -0.937939 0
M  V30 1560 C 153.66 -1.03834 -1.21205 0
M  V30 1561 C 153.86 0.234502 -2.00131 0
M  V30 1562 O 152.916 0.942767 -2.3424 0
M  V30 1563 C 154.229 -2.27167 -1.97017 0
M  V30 1564 C 155.777 -2.32101 -2.09996 0
M  V30 1565 C 156.252 -3.55136 -2.8921 0
M  V30 1566 N 157.743 -3.55632 -2.96783 0
M  V30 1567 C 158.478 -4.475 -3.58512 0
M  V30 1568 N 157.974 -5.4966 -4.21717 0
M  V30 1569 N 159.767 -4.35145 -3.55816 0
M  V30 1570 H 151.918 -2.08398 -0.410391 0
M  V30 1571 H 154.181 -0.916031 -0.244114 0
M  V30 1572 H 153.887 -3.19765 -1.46434 0
M  V30 1573 H 153.761 -2.31672 -2.97671 0
M  V30 1574 H 156.148 -1.40015 -2.59769 0
M  V30 1575 H 156.229 -2.31605 -1.08594 0
M  V30 1576 H 155.873 -4.47553 -2.40123 0
M  V30 1577 H 155.803 -3.5288 -3.90875 0
M  V30 1578 H 158.294 -2.81743 -2.51852 0
M  V30 1579 H 158.607 -6.15943 -4.66727 0
M  V30 1580 H 156.952 -5.53514 -4.20294 0
M  V30 1581 H 160.143 -3.5455 -3.05634 0
M  V30 1582 H 160.316 -5.06934 -4.03636 0
M  V30 1583 N 153.722 1.14298 -1.08507 0
M  V30 1584 C 154.999 1.81544 -0.728088 0
M  V30 1585 C 155.379 1.95838 0.78808 0
M  V30 1586 O 154.727 1.51904 1.70697 0
M  V30 1587 C 154.937 3.17169 -1.45619 0
M  V30 1588 C 156.285 3.9265 -1.61591 0
M  V30 1589 O 157.309 3.26762 -1.41793 0
M  V30 1590 O 156.168 5.10807 -1.94263 0
M  V30 1591 H 153.262 0.78491 -0.260471 0
M  V30 1592 H 155.808 1.21307 -1.18671 0
M  V30 1593 H 154.58 3.01934 -2.489 0
M  V30 1594 H 154.203 3.851 -0.989124 0
M  V30 1595 N 155.201 0.870884 1.31352 0
M  V30 1596 C 156.478 0.402907 1.91405 0
M  V30 1597 C 156.858 -1.11512 1.79244 0
M  V30 1598 O 156.206 -1.94411 1.2007 0
M  V30 1599 C 156.416 0.885301 3.37585 0
M  V30 1600 C 157.764 0.911971 4.14691 0
M  V30 1601 O 158.788 0.831016 3.46371 0
M  V30 1602 O 157.647 1.02927 5.3672 0
M  V30 1603 H 154.741 0.120698 0.818145 0
M  V30 1604 H 157.287 0.958857 1.40014 0
M  V30 1605 H 156.059 1.92889 3.40455 0
M  V30 1606 H 155.682 0.307714 3.96407 0
M  V30 1607 N 156.679 -1.44442 0.630414 0
M  V30 1608 C 157.925 -2.02351 0.134816 0
M  V30 1609 C 158.258 -1.4947 -1.23986 0
M  V30 1610 O 157.533 -0.678475 -1.82283 0
M  V30 1611 C 157.816 -3.59898 0.120707 0
M  V30 1612 C 157.669 -4.23063 1.52767 0
M  V30 1613 C 158.988 -4.36585 -0.555127 0
M  V30 1614 H 156.107 -0.73527 0.0504646 0
M  V30 1615 H 158.749 -1.72022 0.806751 0
M  V30 1616 H 156.899 -3.85868 -0.451477 0
M  V30 1617 H 158.571 -4.08202 2.14869 0
M  V30 1618 H 156.814 -3.80586 2.08175 0
M  V30 1619 H 157.485 -5.32071 1.46984 0
M  V30 1620 H 159.961 -4.16044 -0.0685429 0
M  V30 1621 H 158.837 -5.46294 -0.534185 0
M  V30 1622 H 159.098 -4.11138 -1.62535 0
M  V30 1623 N 158.157 -0.370918 -1.53173 0
M  V30 1624 C 159.434 0.273754 -1.93675 0
M  V30 1625 C 159.814 1.65938 -1.3049 0
M  V30 1626 O 159.162 2.23698 -0.465999 0
M  V30 1627 C 159.372 0.318602 -3.47543 0
M  V30 1628 C 160.72 0.556392 -4.20939 0
M  V30 1629 O 161.744 0.399587 -3.53952 0
M  V30 1630 O 160.603 0.862133 -5.39657 0
M  V30 1631 H 157.697 0.165448 -0.810281 0
M  V30 1632 H 160.243 -0.42409 -1.64315 0
M  V30 1633 H 159.015 -0.652687 -3.85818 0
M  V30 1634 H 158.638 1.06212 -3.83151 0
M  V30 1635 N 159.635 1.57281 -0.100228 0
M  V30 1636 C 160.883 1.94153 0.561157 0
M  V30 1637 C 161.204 0.983157 1.68401 0
M  V30 1638 O 160.474 0.0361132 1.95867 0
M  V30 1639 H 159.054 0.716791 0.210283 0
M  V30 1640 H 161.716 1.94202 -0.164765 0
M  V30 1641 H 160.812 2.96709 0.968008 0
M  V30 1642 N 161.113 -0.173488 1.56642 0
M  V30 1643 C 162.359 -0.891784 1.8214 0
M  V30 1644 C 162.692 -1.8199 0.677736 0
M  V30 1645 O 161.967 -1.91842 -0.320446 0
M  V30 1646 C 162.25 -1.68933 3.18015 0
M  V30 1647 C 162.103 -0.784487 4.42906 0
M  V30 1648 C 163.422 -2.65748 3.50808 0
M  V30 1649 H 160.541 -0.322761 0.662567 0
M  V30 1650 H 163.183 -0.158095 1.89341 0
M  V30 1651 H 161.333 -2.31482 3.12007 0
M  V30 1652 H 163.005 -0.172046 4.60979 0
M  V30 1653 H 161.248 -0.0924117 4.33702 0
M  V30 1654 H 161.919 -1.37799 5.34524 0
M  V30 1655 H 164.395 -2.13327 3.57255 0
M  V30 1656 H 163.271 -3.18619 4.4696 0
M  V30 1657 H 163.532 -3.45842 2.75401 0
M  V30 1658 N 162.591 -1.51276 -0.441967 0
M  V30 1659 C 163.837 -1.63958 -1.19355 0
M  V30 1660 C 164.17 -0.352543 -1.90973 0
M  V30 1661 O 163.445 0.647627 -1.83401 0
M  V30 1662 C 163.728 -2.83979 -2.21422 0
M  V30 1663 C 163.581 -4.22646 -1.53918 0
M  V30 1664 C 164.9 -2.99521 -3.22451 0
M  V30 1665 H 162.019 -0.596709 -0.432559 0
M  V30 1666 H 164.661 -1.83748 -0.483398 0
M  V30 1667 H 162.811 -2.67237 -2.81987 0
M  V30 1668 H 164.483 -4.51045 -0.967256 0
M  V30 1669 H 162.726 -4.25558 -0.841615 0
M  V30 1670 H 163.397 -5.02609 -2.28229 0
M  V30 1671 H 165.873 -3.14944 -2.71937 0
M  V30 1672 H 164.749 -3.85072 -3.91166 0
M  V30 1673 H 165.01 -2.11391 -3.88287 0
M  V30 1674 N 164.069 0.697108 -1.41344 0
M  V30 1675 C 165.318 1.45279 -1.39918 0
M  V30 1676 C 165.631 1.95597 -0.0109624 0
M  V30 1677 O 166.837 2.71208 0.125919 0
M  V30 1678 C 165.293 2.62695 -2.46007 0
M  V30 1679 C 164.901 2.19169 -3.90729 0
M  V30 1680 C 166.645 3.40336 -2.53715 0
M  V30 1681 C 164.552 3.33535 -4.88373 0
M  V30 1682 H 163.482 0.545692 -0.520323 0
M  V30 1683 H 166.133 0.756929 -1.67161 0
M  V30 1684 H 164.515 3.34541 -2.11892 0
M  V30 1685 H 165.689 1.54623 -4.34083 0
M  V30 1686 H 164.004 1.54525 -3.86666 0
M  V30 1687 H 166.601 4.2547 -3.2385 0
M  V30 1688 H 166.944 3.85418 -1.5735 0
M  V30 1689 H 167.477 2.75546 -2.86913 0
M  V30 1690 H 164.216 2.93468 -5.86137 0
M  V30 1691 H 163.736 3.96936 -4.49668 0
M  V30 1692 H 165.415 3.99335 -5.09059 0
M  V30 1693 N 165.547 1.27147 0.931209 0
M  V30 1694 C 166.775 1.16082 1.71267 0
M  V30 1695 C 167.19 -0.282772 1.8667 0
M  V30 1696 O 166.547 -1.19283 1.38122 0
M  V30 1697 C 166.598 1.8358 3.11417 0
M  V30 1698 O 166.319 3.22299 2.96741 0
M  V30 1699 C 167.82 1.78597 4.05732 0
M  V30 1700 H 165.04 0.403758 0.535929 0
M  V30 1701 H 167.584 1.67953 1.16671 0
M  V30 1702 H 165.739 1.35623 3.62885 0
M  V30 1703 H 166.153 3.55851 3.85319 0
M  V30 1704 H 167.627 2.30444 5.01597 0
M  V30 1705 H 168.104 0.754564 4.3267 0
M  V30 1706 H 168.71 2.26152 3.60188 0
M  V30 1707 N 167.025 -1.13721 1.09112 0
M  V30 1708 C 167.975 -2.17082 0.697091 0
M  V30 1709 C 168.959 -1.58321 -0.286923 0
M  V30 1710 O 170.151 -1.7673 -0.0978008 0
M  V30 1711 C 167.28 -3.43105 0.115729 0
M  V30 1712 C 166.366 -4.0888 1.12596 0
M  V30 1713 N 166.757 -4.4987 2.31195 0
M  V30 1714 C 165.055 -4.35471 0.963366 0
M  V30 1715 C 165.756 -5.01094 2.95431 0
M  V30 1716 N 164.732 -4.95751 2.23006 0
M  V30 1717 H 168.534 -2.46524 1.6001 0
M  V30 1718 H 166.048 -1.30481 0.966869 0
M  V30 1719 H 168.045 -4.16491 -0.184555 0
M  V30 1720 H 166.705 -3.15138 -0.78217 0
M  V30 1721 H 167.716 -4.42678 2.68806 0
M  V30 1722 H 164.393 -4.17328 0.119878 0
M  V30 1723 H 165.783 -5.4263 3.96236 0
M  V30 1724 N 168.503 -0.877838 -1.30888 0
M  V30 1725 C 169.751 -0.491723 -1.96027 0
M  V30 1726 C 170.072 0.960827 -1.69685 0
M  V30 1727 O 169.342 1.67462 -1.01654 0
M  V30 1728 H 167.922 -0.17885 -0.725273 0
M  V30 1729 H 170.584 -1.11935 -1.59551 0
M  V30 1730 H 169.68 -0.656016 -3.05128 0
M  V30 1731 N 169.982 1.44106 -0.638065 0
M  V30 1732 C 171.21 2.06336 -0.152615 0
M  V30 1733 C 171.625 1.47731 1.17563 0
M  V30 1734 O 170.982 0.602806 1.72257 0
M  V30 1735 C 171.033 3.61479 -0.0391491 0
M  V30 1736 O 170.754 4.17903 -1.31487 0
M  V30 1737 C 172.255 4.40757 0.474176 0
M  V30 1738 H 169.475 0.665862 -0.0828776 0
M  V30 1739 H 172.019 1.84862 -0.87443 0
M  V30 1740 H 170.174 3.82191 0.633142 0
M  V30 1741 H 170.588 5.11416 -1.16421 0
M  V30 1742 H 172.062 5.49707 0.502562 0
M  V30 1743 H 172.539 4.12697 1.50258 0
M  V30 1744 H 173.145 4.24979 -0.165102 0
M  V30 1745 N 171.46 0.379036 1.52974 0
M  V30 1746 C 172.737 -0.263479 1.93817 0
M  V30 1747 C 173.117 -1.65244 1.31368 0
M  V30 1748 O 172.465 -2.23448 0.477856 0
M  V30 1749 C 172.675 -0.300166 3.47707 0
M  V30 1750 C 174.023 -0.534061 4.21228 0
M  V30 1751 O 175.047 -0.38081 3.54159 0
M  V30 1752 O 173.906 -0.833501 5.40106 0
M  V30 1753 H 171 -0.161149 0.811147 0
M  V30 1754 H 173.546 0.432798 1.64088 0
M  V30 1755 H 172.318 0.673138 3.85467 0
M  V30 1756 H 171.941 -1.04179 3.83709 0
M  V30 1757 N 172.938 -1.57226 0.108567 0
M  V30 1758 C 174.166 -1.99179 -0.559954 0
M  V30 1759 C 174.581 -0.988022 -1.60884 0
M  V30 1760 O 173.938 0.0205512 -1.82488 0
M  V30 1761 C 173.989 -3.41159 -1.19552 0
M  V30 1762 O 173.71 -4.37694 -0.188577 0
M  V30 1763 C 175.211 -3.98188 -1.94837 0
M  V30 1764 H 172.431 -0.654228 -0.149088 0
M  V30 1765 H 174.975 -2.03598 0.19183 0
M  V30 1766 H 173.13 -3.37711 -1.89815 0
M  V30 1767 H 173.544 -5.20469 -0.649014 0
M  V30 1768 H 175.018 -4.99644 -2.34648 0
M  V30 1769 H 175.495 -3.3675 -2.81951 0
M  V30 1770 H 176.101 -4.0515 -1.2936 0
M  V30 1771 N 174.416 0.165178 -1.56732 0
M  V30 1772 C 175.662 0.882112 -1.82611 0
M  V30 1773 C 175.995 1.81628 -0.687378 0
M  V30 1774 O 175.27 1.92009 0.310267 0
M  V30 1775 C 175.553 1.67245 -3.18906 0
M  V30 1776 C 175.406 0.760987 -4.43316 0
M  V30 1777 C 176.725 2.63884 -3.52212 0
M  V30 1778 H 173.844 0.319242 -0.664269 0
M  V30 1779 H 176.486 0.148052 -1.89422 0
M  V30 1780 H 174.636 2.29824 -3.1323 0
M  V30 1781 H 176.308 0.147596 -4.61064 0
M  V30 1782 H 174.551 0.0694102 -4.33744 0
M  V30 1783 H 175.222 1.34962 -5.35247 0
M  V30 1784 H 177.698 2.11429 -3.58381 0
M  V30 1785 H 176.574 3.16245 -4.48643 0
M  V30 1786 H 176.835 3.44377 -2.77231 0
M  V30 1787 N 175.894 1.51508 0.433938 0
M  V30 1788 C 176.804 1.75917 1.5521 0
M  V30 1789 C 177.82 0.643545 1.61662 0
M  V30 1790 O 178.996 0.926183 1.7884 0
M  V30 1791 C 176.061 1.88213 2.91164 0
M  V30 1792 C 175.122 3.12074 2.94802 0
M  V30 1793 C 174.355 3.23774 4.24271 0
M  V30 1794 O 174.578 2.4133 5.16833 0
M  V30 1795 O 173.512 4.16774 4.34262 0
M  V30 1796 H 177.338 2.70777 1.37527 0
M  V30 1797 H 174.923 1.36051 0.617293 0
M  V30 1798 H 176.805 1.98267 3.71845 0
M  V30 1799 H 175.48 0.965413 3.08968 0
M  V30 1800 H 174.387 3.07497 2.13065 0
M  V30 1801 H 175.72 4.03446 2.81943 0
M  V30 1802 N 177.372 -0.689602 1.41712 0
M  V30 1803 C 178.282 -1.83314 1.46401 0
M  V30 1804 C 179.298 -1.7036 0.35405 0
M  V30 1805 O 180.474 -1.92171 0.602692 0
M  V30 1806 C 177.539 -3.19344 1.34982 0
M  V30 1807 C 176.6 -3.44363 2.56344 0
M  V30 1808 C 175.833 -4.73904 2.45461 0
M  V30 1809 O 176.056 -5.508 1.48241 0
M  V30 1810 O 174.99 -4.99839 3.35328 0
M  V30 1811 H 178.816 -1.82314 2.42889 0
M  V30 1812 H 176.401 -0.843438 1.23315 0
M  V30 1813 H 178.283 -4.00547 1.3092 0
M  V30 1814 H 176.958 -3.21014 0.41612 0
M  V30 1815 H 175.865 -2.63067 2.65982 0
M  V30 1816 H 177.198 -3.47512 3.48563 0
M  V30 1817 N 178.85 -1.27639 -0.924453 0
M  V30 1818 C 180.075 -1.17101 -1.71179 0
M  V30 1819 C 180.5 0.268134 -1.86179 0
M  V30 1820 O 179.858 1.19415 -1.36418 0
M  V30 1821 C 179.906 -1.86313 -3.08739 0
M  V30 1822 O 179.01 -1.16331 -3.95652 0
M  V30 1823 H 178.351 -0.407091 -0.524569 0
M  V30 1824 H 180.881 -1.68767 -1.15666 0
M  V30 1825 H 180.891 -1.938 -3.59034 0
M  V30 1826 H 179.566 -2.91001 -2.97138 0
M  V30 1827 H 178.143 -1.16935 -3.54091 0
M  V30 1828 N 180.328 1.1314 -1.09713 0
M  V30 1829 C 181.291 2.16831 -0.742751 0
M  V30 1830 C 182.291 1.59159 0.229129 0
M  V30 1831 O 183.481 1.74199 0.00693237 0
M  V30 1832 C 180.613 3.40756 -0.0989168 0
M  V30 1833 H 181.806 2.49695 -1.66109 0
M  V30 1834 H 179.359 1.2802 -0.896699 0
M  V30 1835 H 180.094 3.13485 0.830514 0
M  V30 1836 H 179.879 3.83888 -0.798265 0
M  V30 1837 H 181.369 4.17386 0.133524 0
M  V30 1838 N 181.806 0.884767 1.30421 0
M  V30 1839 C 183.036 0.517293 2.00019 0
M  V30 1840 C 183.444 -0.898632 1.66497 0
M  V30 1841 O 182.787 -1.60245 0.898181 0
M  V30 1842 C 182.849 0.612025 3.54252 0
M  V30 1843 C 182.513 1.99222 4.1129 0
M  V30 1844 C 183.51 2.9616 4.273 0
M  V30 1845 C 181.195 2.29755 4.46674 0
M  V30 1846 C 183.189 4.21764 4.77906 0
M  V30 1847 C 180.876 3.55606 4.96979 0
M  V30 1848 C 181.874 4.51425 5.12547 0
M  V30 1849 O 181.562 5.75043 5.61766 0
M  V30 1850 H 181.294 0.198529 0.64619 0
M  V30 1851 H 183.848 1.1919 1.67281 0
M  V30 1852 H 182.078 -0.119561 3.86515 0
M  V30 1853 H 183.767 0.255859 4.05093 0
M  V30 1854 H 184.533 2.73882 4.00267 0
M  V30 1855 H 180.412 1.55942 4.33824 0
M  V30 1856 H 183.956 4.96561 4.89972 0
M  V30 1857 H 179.853 3.7772 5.23448 0
M  V30 1858 H 180.621 5.77422 5.80109 0
M  V30 1859 N 183.284 -1.43765 0.645699 0
M  V30 1860 C 184.531 -2.01898 0.15604 0
M  V30 1861 C 184.859 -1.50887 -1.22733 0
M  V30 1862 O 184.114 -0.689271 -1.8316 0
M  V30 1863 C 184.413 -3.57238 0.107679 0
M  V30 1864 C 184.079 -4.27564 1.43178 0
M  V30 1865 C 182.741 -4.46492 1.7944 0
M  V30 1866 C 185.093 -4.67454 2.30513 0
M  V30 1867 C 182.421 -5.02573 3.02716 0
M  V30 1868 C 184.773 -5.24901 3.53074 0
M  V30 1869 C 183.437 -5.42046 3.89541 0
M  V30 1870 H 182.707 -0.738797 0.057099 0
M  V30 1871 H 185.354 -1.72341 0.834912 0
M  V30 1872 H 183.659 -3.86293 -0.654618 0
M  V30 1873 H 185.356 -3.99965 -0.287938 0
M  V30 1874 H 181.946 -4.13171 1.13963 0
M  V30 1875 H 186.13 -4.5253 2.0379 0
M  V30 1876 H 181.386 -5.14033 3.31028 0
M  V30 1877 H 185.56 -5.54758 4.20971 0
M  V30 1878 H 183.187 -5.85268 4.85145 0
M  V30 1879 N 184.763 -0.387143 -1.52771 0
M  V30 1880 C 185.693 0.440551 -2.29306 0
M  V30 1881 C 186.674 1.06535 -1.32606 0
M  V30 1882 O 187.859 1.07853 -1.61497 0
M  V30 1883 C 184.989 1.56919 -3.09829 0
M  V30 1884 C 183.943 1.07054 -4.14395 0
M  V30 1885 C 183.269 2.29109 -4.83129 0
M  V30 1886 C 184.569 0.140015 -5.22112 0
M  V30 1887 H 186.263 -0.198026 -2.98744 0
M  V30 1888 H 183.809 -0.09668 -1.43675 0
M  V30 1889 H 185.762 2.15503 -3.62128 0
M  V30 1890 H 184.486 2.23532 -2.3812 0
M  V30 1891 H 183.145 0.507247 -3.63074 0
M  V30 1892 H 182.793 2.94227 -4.0797 0
M  V30 1893 H 182.493 1.96406 -5.53804 0
M  V30 1894 H 184.017 2.88339 -5.38231 0
M  V30 1895 H 185.431 0.633978 -5.69784 0
M  V30 1896 H 183.828 -0.0971485 -6.00021 0
M  V30 1897 H 184.898 -0.811711 -4.78058 0
M  V30 1898 N 186.241 1.57166 -0.116904 0
M  V30 1899 C 187.191 2.11756 0.845178 0
M  V30 1900 C 188.175 1.03783 1.22955 0
M  V30 1901 O 189.367 1.3002 1.20099 0
M  V30 1902 C 186.496 2.71886 2.09602 0
M  V30 1903 C 185.582 3.86937 1.7361 0
M  V30 1904 N 185.973 4.94073 1.08284 0
M  V30 1905 C 184.271 3.97082 2.03082 0
M  V30 1906 C 184.972 5.74477 0.913855 0
M  V30 1907 N 183.948 5.2423 1.43818 0
M  V30 1908 H 187.75 2.91967 0.336523 0
M  V30 1909 H 185.264 1.62174 0.0856332 0
M  V30 1910 H 187.261 3.09338 2.79492 0
M  V30 1911 H 185.921 1.93138 2.61013 0
M  V30 1912 H 186.932 5.12483 0.747067 0
M  V30 1913 H 183.609 3.29372 2.56554 0
M  V30 1914 H 184.999 6.70701 0.40125 0
M  V30 1915 N 187.719 -0.156864 1.56817 0
M  V30 1916 C 188.649 -1.19589 2.00551 0
M  V30 1917 C 189.63 -1.4536 0.883426 0
M  V30 1918 O 190.815 -1.56449 1.15054 0
M  V30 1919 C 187.945 -2.53143 2.37773 0
M  V30 1920 C 186.899 -2.41913 3.53075 0
M  V30 1921 C 186.225 -3.80088 3.76081 0
M  V30 1922 C 187.525 -1.91157 4.86062 0
M  V30 1923 H 189.219 -0.832293 2.87599 0
M  V30 1924 H 186.765 -0.398918 1.38364 0
M  V30 1925 H 188.718 -3.26047 2.66967 0
M  V30 1926 H 187.442 -2.91319 1.4765 0
M  V30 1927 H 186.101 -1.71462 3.24031 0
M  V30 1928 H 185.749 -4.15683 2.83225 0
M  V30 1929 H 185.449 -3.73439 4.53671 0
M  V30 1930 H 186.973 -4.54556 4.0769 0
M  V30 1931 H 188.387 -2.53846 5.14038 0
M  V30 1932 H 186.784 -1.95422 5.67389 0
M  V30 1933 H 187.854 -0.866673 4.77092 0
M  V30 1934 N 189.197 -1.51736 -0.425897 0
M  V30 1935 C 190.425 -1.68794 -1.1965 0
M  V30 1936 C 190.84 -0.390164 -1.84725 0
M  V30 1937 O 190.197 0.632376 -1.71194 0
M  V30 1938 C 190.248 -2.81174 -2.27208 0
M  V30 1939 O 189.969 -4.05925 -1.64793 0
M  V30 1940 C 191.47 -3.09599 -3.17275 0
M  V30 1941 H 188.69 -0.566128 -0.360194 0
M  V30 1942 H 191.234 -1.98211 -0.503249 0
M  V30 1943 H 189.389 -2.54324 -2.9223 0
M  V30 1944 H 189.803 -4.68423 -2.35967 0
M  V30 1945 H 191.277 -3.91786 -3.88854 0
M  V30 1946 H 191.754 -2.22468 -3.78688 0
M  V30 1947 H 192.36 -3.38151 -2.57941 0
M  V30 1948 N 190.675 0.682077 -1.42076 0
M  V30 1949 C 191.921 1.44428 -1.42367 0
M  V30 1950 C 192.254 1.94164 -0.0373056 0
M  V30 1951 O 191.529 1.70429 0.937239 0
M  V30 1952 C 191.812 2.64654 -2.44194 0
M  V30 1953 C 191.665 2.20596 -3.91991 0
M  V30 1954 C 192.984 3.66865 -2.431 0
M  V30 1955 H 190.103 0.523834 -0.518428 0
M  V30 1956 H 192.745 0.77576 -1.73442 0
M  V30 1957 H 190.895 3.2169 -2.17826 0
M  V30 1958 H 192.567 1.68783 -4.29313 0
M  V30 1959 H 190.81 1.52242 -4.06208 0
M  V30 1960 H 191.481 3.06921 -4.58807 0
M  V30 1961 H 193.957 3.19531 -2.66532 0
M  V30 1962 H 192.833 4.48577 -3.16339 0
M  V30 1963 H 193.094 4.17493 -1.45437 0
M  V30 1964 N 192.153 1.28127 0.917671 0
M  V30 1965 C 193.1 1.11717 2.0196 0
M  V30 1966 C 194.07 0.0153929 1.66093 0
M  V30 1967 O 195.255 0.179596 1.89953 0
M  V30 1968 C 192.395 0.780927 3.36148 0
M  V30 1969 C 191.508 1.96135 3.84909 0
M  V30 1970 C 190.643 1.56609 5.0759 0
M  V30 1971 C 189.682 2.71339 5.48673 0
M  V30 1972 N 188.819 2.32332 6.62545 0
M  V30 1973 H 193.659 2.06003 2.15329 0
M  V30 1974 H 191.196 1.02535 1.05475 0
M  V30 1975 H 193.154 0.56675 4.13333 0
M  V30 1976 H 191.784 -0.124998 3.22558 0
M  V30 1977 H 190.836 2.28777 3.03916 0
M  V30 1978 H 192.148 2.82165 4.1132 0
M  V30 1979 H 191.302 1.31374 5.92305 0
M  V30 1980 H 190.041 0.677014 4.82978 0
M  V30 1981 H 189.046 2.97276 4.62501 0
M  V30 1982 H 190.271 3.60882 5.75274 0
M  V30 1983 H 188.217 1.45889 6.39572 0
M  V30 1984 H 188.134 3.11899 6.88662 0
M  V30 1985 H 189.402 2.10371 7.50576 0
M  V30 1986 N 193.631 -1.12557 1.10312 0
M  V30 1987 C 194.856 -1.88405 0.867085 0
M  V30 1988 C 195.281 -1.79038 -0.576817 0
M  V30 1989 O 194.639 -1.14439 -1.40618 0
M  V30 1990 C 194.687 -3.3563 1.31851 0
M  V30 1991 O 193.791 -4.09565 0.482734 0
M  V30 1992 H 193.132 -0.585455 0.313271 0
M  V30 1993 H 195.662 -1.42352 1.4696 0
M  V30 1994 H 195.672 -3.86469 1.3079 0
M  V30 1995 H 194.347 -3.41765 2.37001 0
M  V30 1996 H 192.924 -3.68695 0.558448 0
M  V30 1997 N 195.109 -0.891671 -1.2995 0
M  V30 1998 C 196.386 -0.433307 -1.9074 0
M  V30 1999 C 196.766 1.08646 -1.80995 0
M  V30 2000 O 196.114 1.92476 -1.23147 0
M  V30 2001 C 196.324 -0.938895 -3.36134 0
M  V30 2002 C 197.672 -0.977829 -4.13187 0
M  V30 2003 O 198.696 -0.886015 -3.45005 0
M  V30 2004 O 197.555 -1.11453 -5.35015 0
M  V30 2005 H 194.649 -0.133699 -0.816121 0
M  V30 2006 H 197.195 -0.981011 -1.38471 0
M  V30 2007 H 195.967 -1.98281 -3.37343 0
M  V30 2008 H 195.59 -0.37074 -3.95868 0
M  V30 2009 N 196.587 1.43421 -0.653314 0
M  V30 2010 C 197.534 2.30768 0.0382271 0
M  V30 2011 C 198.504 1.44755 0.814576 0
M  V30 2012 O 199.689 1.73624 0.791162 0
M  V30 2013 C 196.829 3.30336 0.998599 0
M  V30 2014 C 195.942 4.31448 0.218342 0
M  V30 2015 C 195.077 5.18098 1.17252 0
M  V30 2016 C 194.116 6.10902 0.382702 0
M  V30 2017 N 193.253 6.90176 1.28848 0
M  V30 2018 H 198.093 2.89357 -0.712511 0
M  V30 2019 H 195.63 1.42548 -0.363128 0
M  V30 2020 H 197.588 3.86572 1.56901 0
M  V30 2021 H 196.218 2.73397 1.71621 0
M  V30 2022 H 195.27 3.77506 -0.46836 0
M  V30 2023 H 196.582 4.97227 -0.395812 0
M  V30 2024 H 195.736 5.7896 1.81356 0
M  V30 2025 H 194.475 4.52444 1.82058 0
M  V30 2026 H 193.48 5.49128 -0.27169 0
M  V30 2027 H 194.705 6.78598 -0.260957 0
M  V30 2028 H 192.651 6.27171 1.92334 0
M  V30 2029 H 192.568 7.52478 0.728887 0
M  V30 2030 H 193.836 7.55543 1.91766 0
M  V30 2031 N 198.065 0.39524 1.52563 0
M  V30 2032 C 199.476 -0.0774719 1.86539 0
M  V30 2033 C 199.827 -1.45641 1.31466 0
M  V30 2034 O 198.952 -2.06459 0.648367 0
M  V30 2035 C 199.547 -0.147356 3.38479 0
M  V30 2036 C 198.106 -0.564373 3.72145 0
M  V30 2037 C 197.253 0.269919 2.75983 0
M  V30 2038 H 200.204 0.612876 1.46388 0
M  V30 2039 H 200.225 -0.965343 3.68051 0
M  V30 2040 H 199.737 0.856387 3.78534 0
M  V30 2041 H 197.838 -1.57527 3.37663 0
M  V30 2042 H 197.951 -0.318402 4.78041 0
M  V30 2043 H 196.315 -0.265696 2.5331 0
M  V30 2044 H 197.098 1.27175 3.18875 0
M  V30 2045 N 199.544 -1.57102 0.125237 0
M  V30 2046 C 200.79 -1.95697 -0.532035 0
M  V30 2047 C 201.123 -1.009 -1.6593 0
M  V30 2048 O 200.398 -0.047347 -1.94442 0
M  V30 2049 C 200.681 -3.44181 -1.05884 0
M  V30 2050 C 200.534 -4.49752 0.0654392 0
M  V30 2051 C 201.853 -3.94655 -1.9477 0
M  V30 2052 H 198.972 -0.711571 -0.191925 0
M  V30 2053 H 201.614 -1.88923 0.20206 0
M  V30 2054 H 199.764 -3.50085 -1.68442 0
M  V30 2055 H 201.436 -4.55943 0.700982 0
M  V30 2056 H 199.679 -4.27653 0.727709 0
M  V30 2057 H 200.35 -5.50924 -0.344505 0
M  V30 2058 H 202.826 -3.91094 -1.42074 0
M  V30 2059 H 201.702 -4.99057 -2.28546 0
M  V30 2060 H 201.963 -3.35718 -2.87656 0
M  V30 2061 N 201.022 0.148545 -1.56898 0
M  V30 2062 C 202.268 0.862694 -1.83536 0
M  V30 2063 C 202.601 1.80889 -0.706604 0
M  V30 2064 O 201.876 1.92328 0.289885 0
M  V30 2065 C 202.159 1.63853 -3.20662 0
M  V30 2066 C 202.012 0.713925 -4.44098 0
M  V30 2067 C 203.331 2.60133 -3.54991 0
M  V30 2068 H 200.45 0.312179 -0.667618 0
M  V30 2069 H 203.092 0.127953 -1.89569 0
M  V30 2070 H 201.242 2.26489 -3.1565 0
M  V30 2071 H 202.914 0.098686 -4.61194 0
M  V30 2072 H 201.157 0.0234019 -4.33794 0
M  V30 2073 H 201.828 1.29278 -5.36648 0
M  V30 2074 H 204.304 2.07616 -3.60603 0
M  V30 2075 H 203.18 3.11468 -4.51972 0
M  V30 2076 H 203.441 3.41417 -2.80868 0
M  V30 2077 N 202.5 1.5196 0.417844 0
M  V30 2078 C 203.747 1.65591 1.16559 0
M  V30 2079 C 204.075 0.381565 1.90721 0
M  V30 2080 O 203.33 -0.635156 1.85106 0
M  V30 2081 C 203.629 2.82269 2.19223 0
M  V30 2082 C 203.295 4.20819 1.61933 0
M  V30 2083 C 201.957 4.58506 1.46033 0
M  V30 2084 C 204.309 5.07196 1.20008 0
M  V30 2085 C 201.637 5.80257 0.867113 0
M  V30 2086 C 203.989 6.29544 0.621086 0
M  V30 2087 C 202.653 6.65987 0.449144 0
M  V30 2088 H 201.923 0.605939 0.42652 0
M  V30 2089 H 204.57 1.86041 0.45397 0
M  V30 2090 H 202.875 2.56118 2.96498 0
M  V30 2091 H 204.572 2.90012 2.76936 0
M  V30 2092 H 201.162 3.91116 1.7529 0
M  V30 2093 H 205.346 4.7867 1.31105 0
M  V30 2094 H 200.602 6.07124 0.721833 0
M  V30 2095 H 204.776 6.95805 0.287798 0
M  V30 2096 H 202.403 7.60199 -0.012632 0
M  V30 2097 N 203.978 -0.674533 1.42435 0
M  V30 2098 C 205.224 -1.43671 1.43131 0
M  V30 2099 C 205.557 -1.94142 0.0476021 0
M  V30 2100 O 204.832 -1.70924 -0.928188 0
M  V30 2101 C 205.115 -2.63355 2.45594 0
M  V30 2102 C 204.968 -2.18514 3.93156 0
M  V30 2103 C 206.287 -3.65571 2.45043 0
M  V30 2104 H 203.406 -0.521077 0.521198 0
M  V30 2105 H 206.048 -0.766551 1.7385 0
M  V30 2106 H 204.198 -3.2053 2.19528 0
M  V30 2107 H 205.87 -1.66504 4.30202 0
M  V30 2108 H 204.113 -1.50086 4.07009 0
M  V30 2109 H 204.784 -3.04484 4.60428 0
M  V30 2110 H 207.26 -3.18113 2.68223 0
M  V30 2111 H 206.136 -4.46893 3.18713 0
M  V30 2112 H 206.397 -4.16716 1.47649 0
M  V30 2113 N 205.456 -1.28612 -0.910864 0
M  V30 2114 C 206.419 -1.12803 -1.9952 0
M  V30 2115 C 207.419 -0.0668264 -1.60661 0
M  V30 2116 O 208.609 -0.312847 -1.71368 0
M  V30 2117 C 205.741 -0.72254 -3.33155 0
M  V30 2118 H 206.934 -2.09109 -2.14973 0
M  V30 2119 H 204.487 -1.11639 -1.09391 0
M  V30 2120 H 205.222 0.241152 -3.23402 0
M  V30 2121 H 205.007 -1.48916 -3.62721 0
M  V30 2122 H 206.497 -0.634666 -4.12749 0
M  V30 2123 N 206.934 1.1197 -1.10907 0
M  V30 2124 C 207.897 2.16031 -0.765707 0
M  V30 2125 C 208.897 1.59393 0.212235 0
M  V30 2126 O 210.087 1.74196 -0.0115441 0
M  V30 2127 C 207.219 3.40632 -0.135053 0
M  V30 2128 H 208.412 2.47919 -1.68748 0
M  V30 2129 H 205.965 1.27061 -0.910226 0
M  V30 2130 H 206.7 3.14348 0.797218 0
M  V30 2131 H 206.485 3.8302 -0.838937 0
M  V30 2132 H 207.975 4.17505 0.0892469 0
M  V30 2133 N 208.412 0.89855 1.29475 0
M  V30 2134 C 209.345 0.319981 2.25945 0
M  V30 2135 C 210.323 -0.567189 1.52387 0
M  V30 2136 O 211.507 -0.514254 1.8135 0
M  V30 2137 C 208.634 -0.544013 3.34303 0
M  V30 2138 C 207.68 0.275682 4.25608 0
M  V30 2139 S 208.513 1.67272 5.08704 0
M  V30 2140 C 209.669 0.815621 6.20563 0
M  V30 2141 H 209.902 1.13767 2.74671 0
M  V30 2142 H 207.435 0.69882 1.3768 0
M  V30 2143 H 209.393 -1.03673 3.97193 0
M  V30 2144 H 208.054 -1.33593 2.84274 0
M  V30 2145 H 207.247 -0.384263 5.02533 0
M  V30 2146 H 206.849 0.701496 3.67362 0
M  V30 2147 H 209.141 0.0385042 6.77489 0
M  V30 2148 H 210.084 1.55691 6.90772 0
M  V30 2149 H 210.492 0.370516 5.63283 0
M  V30 2150 N 209.89 -1.43072 0.660911 0
M  V30 2151 C 211.306 -1.56169 0.329173 0
M  V30 2152 C 211.506 -1.64317 -1.16629 0
M  V30 2153 O 210.562 -1.60245 -1.95135 0
M  V30 2154 C 211.875 -2.81873 1.04729 0
M  V30 2155 C 213.423 -2.95627 1.02828 0
M  V30 2156 C 213.898 -4.24174 1.72744 0
M  V30 2157 N 215.389 -4.31055 1.69545 0
M  V30 2158 C 216.124 -5.29304 2.20511 0
M  V30 2159 N 215.62 -6.33786 2.79799 0
M  V30 2160 N 217.413 -5.21008 2.10966 0
M  V30 2161 H 209.564 -1.36027 1.63127 0
M  V30 2162 H 211.827 -0.653823 0.686454 0
M  V30 2163 H 211.533 -2.81942 2.10242 0
M  V30 2164 H 211.407 -3.72338 0.603702 0
M  V30 2165 H 213.794 -2.95094 -0.0184742 0
M  V30 2166 H 213.875 -2.06431 1.51063 0
M  V30 2167 H 213.519 -4.25467 2.7738 0
M  V30 2168 H 213.449 -5.1228 1.2197 0
M  V30 2169 H 215.94 -3.56174 1.26288 0
M  V30 2170 H 216.253 -7.05086 3.16344 0
M  V30 2171 H 214.598 -6.34387 2.83863 0
M  V30 2172 H 217.789 -4.38301 1.64347 0
M  V30 2173 H 217.962 -5.97416 2.50993 0
M  V30 2174 N 211.368 -0.403325 -1.52352 0
M  V30 2175 C 212.779 0.0675782 -1.86578 0
M  V30 2176 C 213.13 1.44941 -1.32236 0
M  V30 2177 O 212.255 2.06112 -0.659307 0
M  V30 2178 C 212.85 0.129404 -3.38553 0
M  V30 2179 C 211.409 0.544629 -3.72439 0
M  V30 2180 C 210.556 -0.284551 -2.75836 0
M  V30 2181 H 213.507 -0.620631 -1.46061 0
M  V30 2182 H 213.528 0.94581 -3.68558 0
M  V30 2183 H 213.04 -0.87645 -3.78074 0
M  V30 2184 H 211.141 1.55734 -3.38493 0
M  V30 2185 H 211.254 0.293046 -4.78203 0
M  V30 2186 H 209.618 0.252258 -2.53448 0
M  V30 2187 H 210.401 -1.28865 -3.18196 0
M  V30 2188 N 212.846 1.57033 -0.133567 0
M  V30 2189 C 213.809 2.14897 0.796995 0
M  V30 2190 C 214.809 1.0874 1.18458 0
M  V30 2191 O 215.999 1.34446 1.1077 0
M  V30 2192 C 213.131 2.70112 2.07973 0
M  V30 2193 H 214.324 2.98457 0.293873 0
M  V30 2194 H 211.877 1.55871 0.115787 0
M  V30 2195 H 212.612 1.9018 2.62682 0
M  V30 2196 H 212.397 3.47764 1.81115 0
M  V30 2197 H 213.887 3.14738 2.74462 0
M  V30 2198 N 214.325 -0.140222 1.56975 0
M  V30 2199 C 215.553 -0.866437 1.87884 0
M  V30 2200 C 215.968 -1.74428 0.722517 0
M  V30 2201 O 215.325 -1.79891 -0.30749 0
M  V30 2202 C 215.376 -1.71753 3.18093 0
M  V30 2203 O 215.097 -0.875056 4.29272 0
M  V30 2204 C 216.598 -2.55074 3.62563 0
M  V30 2205 H 213.818 -0.25019 0.622612 0
M  V30 2206 H 216.362 -0.130977 2.0408 0
M  V30 2207 H 214.517 -2.40598 3.03631 0
M  V30 2208 H 214.931 -1.46002 5.03769 0
M  V30 2209 H 216.405 -3.10356 4.5649 0
M  V30 2210 H 216.882 -3.31434 2.88181 0
M  V30 2211 H 217.488 -1.91509 3.79743 0
M  V30 2212 N 215.803 -1.52179 -0.40978 0
M  V30 2213 C 216.766 -1.74853 -1.48186 0
M  V30 2214 C 217.766 -0.618417 -1.48433 0
M  V30 2215 O 218.956 -0.886286 -1.49969 0
M  V30 2216 C 216.088 -1.8303 -2.87598 0
M  V30 2217 H 217.281 -2.70559 -1.29374 0
M  V30 2218 H 214.834 -1.42586 -0.640233 0
M  V30 2219 H 215.569 -0.89236 -3.11781 0
M  V30 2220 H 215.354 -2.65187 -2.88822 0
M  V30 2221 H 216.844 -2.02316 -3.65319 0
M  V30 2222 N 217.281 0.66697 -1.42791 0
M  V30 2223 C 218.53 1.42278 -1.42968 0
M  V30 2224 C 218.843 1.9553 -0.0524489 0
M  V30 2225 O 220.049 2.71414 0.068363 0
M  V30 2226 C 218.505 2.57418 -2.51524 0
M  V30 2227 C 218.113 2.10832 -3.9529 0
M  V30 2228 C 219.857 3.34878 -2.60877 0
M  V30 2229 C 217.764 3.23101 -4.95338 0
M  V30 2230 H 216.694 0.534533 -0.531781 0
M  V30 2231 H 219.345 0.721302 -1.68729 0
M  V30 2232 H 217.727 3.29971 -2.18941 0
M  V30 2233 H 218.901 1.4538 -4.37266 0
M  V30 2234 H 217.216 1.46289 -3.89857 0
M  V30 2235 H 219.813 4.18505 -3.32802 0
M  V30 2236 H 220.156 3.81993 -1.6549 0
M  V30 2237 H 220.689 2.69398 -2.92693 0
M  V30 2238 H 217.428 2.80969 -5.9223 0
M  V30 2239 H 216.948 3.87309 -4.57987 0
M  V30 2240 H 218.627 3.88447 -5.17415 0
M  V30 2241 N 218.759 1.29093 0.90403 0
M  V30 2242 C 219.984 1.19809 1.69294 0
M  V30 2243 C 220.409 -0.238481 1.86582 0
M  V30 2244 O 219.767 -1.1723 1.383 0
M  V30 2245 C 219.815 1.91202 3.05736 0
M  V30 2246 O 218.919 1.22611 3.93752 0
M  V30 2247 H 218.26 0.415385 0.518027 0
M  V30 2248 H 220.79 1.70586 1.12967 0
M  V30 2249 H 220.8 1.99487 3.55906 0
M  V30 2250 H 219.475 2.95692 2.92471 0
M  V30 2251 H 218.052 1.22554 3.52186 0
M  V30 2252 N 220.237 -1.11381 1.11499 0
M  V30 2253 C 221.2 -2.15622 0.777153 0
M  V30 2254 C 222.2 -1.59504 -0.203779 0
M  V30 2255 O 223.39 -1.74188 0.020782 0
M  V30 2256 C 220.522 -3.40556 0.153116 0
M  V30 2257 H 221.715 -2.47021 1.70061 0
M  V30 2258 H 219.268 -1.26577 0.916952 0
M  V30 2259 H 220.003 -3.14767 -0.780536 0
M  V30 2260 H 219.788 -3.8257 0.859238 0
M  V30 2261 H 221.278 -4.17546 -0.0671044 0
M  V30 2262 N 221.715 -0.905404 -1.28997 0
M  V30 2263 C 222.992 -0.453513 -1.9027 0
M  V30 2264 C 223.372 1.06721 -1.82137 0
M  V30 2265 O 222.72 1.91159 -1.25182 0
M  V30 2266 C 222.93 -0.974494 -3.35119 0
M  V30 2267 C 224.278 -1.0216 -4.12127 0
M  V30 2268 O 225.302 -0.922557 -3.44046 0
M  V30 2269 O 224.161 -1.17121 -5.33802 0
M  V30 2270 H 221.255 -0.142347 -0.814657 0
M  V30 2271 H 223.801 -0.995642 -1.37423 0
M  V30 2272 H 222.573 -2.01848 -3.35221 0
M  V30 2273 H 222.196 -0.412706 -3.95452 0
M  V30 2274 N 223.193 1.4272 -0.668489 0
M  V30 2275 C 224.441 2.01226 -0.187769 0
M  V30 2276 C 224.762 1.53092 1.2078 0
M  V30 2277 O 224.032 0.74993 1.80977 0
M  V30 2278 H 222.612 0.744041 -0.0664272 0
M  V30 2279 H 225.274 1.74723 -0.863583 0
M  V30 2280 H 224.37 3.11556 -0.184166 0
M  V30 2281 N 224.671 0.411399 1.52136 0
M  V30 2282 C 226.082 -0.0576826 1.86611 0
M  V30 2283 C 226.433 -1.44238 1.33003 0
M  V30 2284 O 225.558 -2.05759 0.670228 0
M  V30 2285 C 226.153 -0.111448 3.38617 0
M  V30 2286 C 224.712 -0.52487 3.72723 0
M  V30 2287 C 223.859 0.299176 2.75681 0
M  V30 2288 H 226.81 0.628368 1.4573 0
M  V30 2289 H 226.831 -0.926252 3.69054 0
M  V30 2290 H 226.343 0.896488 3.77604 0
M  V30 2291 H 224.444 -1.53936 3.39315 0
M  V30 2292 H 224.557 -0.267681 4.78352 0
M  V30 2293 H 222.921 -0.238814 2.53578 0
M  V30 2294 H 223.704 1.3055 3.17508 0
M  V30 2295 N 226.149 -1.5696 0.141893 0
M  V30 2296 C 227.082 -2.12271 -0.837627 0
M  V30 2297 C 228.06 -1.04495 -1.24578 0
M  V30 2298 O 229.244 -1.32293 -1.34278 0
M  V30 2299 C 226.371 -2.63822 -2.12404 0
M  V30 2300 C 225.417 -3.83698 -1.86221 0
M  V30 2301 S 226.25 -5.24948 -1.05781 0
M  V30 2302 C 227.406 -5.79884 -2.35552 0
M  V30 2303 H 227.639 -2.95023 -0.367249 0
M  V30 2304 H 225.172 -1.54231 -0.0723014 0
M  V30 2305 H 227.13 -2.94175 -2.86307 0
M  V30 2306 H 225.791 -1.8121 -2.56557 0
M  V30 2307 H 224.984 -4.17995 -2.81596 0
M  V30 2308 H 224.586 -3.5408 -1.20429 0
M  V30 2309 H 226.878 -5.91005 -3.31239 0
M  V30 2310 H 227.821 -6.77544 -2.05767 0
M  V30 2311 H 228.229 -5.08095 -2.45967 0
M  V30 2312 N 227.627 0.131896 -1.57047 0
M  V30 2313 C 228.575 1.18146 -2.0036 0
M  V30 2314 C 229.569 1.43614 -0.898406 0
M  V30 2315 O 230.775 1.43729 -1.08361 0
M  V30 2316 H 227.15 0.398042 -0.638018 0
M  V30 2317 H 229.121 0.789564 -2.87765 0
M  V30 2318 C 227.87 2.50341 -2.41298 0
M  V30 2319 H 227.193 2.31578 -3.25902 0
M  V30 2320 H 228.633 3.22371 -2.75414 0
M  V30 2321 C 227.092 3.11984 -1.27153 0
M  V30 2322 O 227.622 3.97484 -0.580459 0
M  V30 2323 N 225.828 2.71662 -1.03189 0
M  V30 2324 H 225.375 2.02231 -1.59564 0
M  V30 2325 H 225.333 3.13238 -0.270077 0
M  V30 2326 N 229.106 1.52395 0.401703 0
M  V30 2327 C 230.036 1.79231 1.49661 0
M  V30 2328 C 231.017 0.643654 1.57452 0
M  V30 2329 O 232.202 0.889989 1.72606 0
M  V30 2330 C 229.332 1.94971 2.87409 0
M  V30 2331 C 228.286 3.10604 2.94465 0
M  V30 2332 C 227.612 3.11577 4.34538 0
M  V30 2333 C 228.912 4.49921 2.6527 0
M  V30 2334 H 230.606 2.70917 1.27454 0
M  V30 2335 H 228.152 1.30362 0.6117 0
M  V30 2336 H 230.105 2.12328 3.63999 0
M  V30 2337 H 228.829 0.999632 3.10926 0
M  V30 2338 H 227.488 2.93009 2.20321 0
M  V30 2339 H 227.136 2.14277 4.55076 0
M  V30 2340 H 226.836 3.89247 4.40183 0
M  V30 2341 H 228.36 3.31073 5.13053 0
M  V30 2342 H 229.774 4.67683 3.31581 0
M  V30 2343 H 228.171 5.29564 2.82281 0
M  V30 2344 H 229.241 4.57507 1.60671 0
M  V30 2345 N 230.584 -0.659388 1.43143 0
M  V30 2346 C 231.514 -1.78422 1.50625 0
M  V30 2347 C 232.495 -1.66216 0.361443 0
M  V30 2348 O 233.68 -1.85404 0.577834 0
M  V30 2349 C 230.81 -3.16815 1.42287 0
M  V30 2350 C 229.764 -3.43777 2.54954 0
M  V30 2351 C 229.09 -4.81905 2.31671 0
M  V30 2352 C 230.39 -3.39134 3.97222 0
M  V30 2353 H 232.084 -1.72417 2.44771 0
M  V30 2354 H 229.63 -0.828084 1.17808 0
M  V30 2355 H 231.583 -3.95253 1.46127 0
M  V30 2356 H 230.307 -3.23534 0.446435 0
M  V30 2357 H 228.966 -2.67707 2.50457 0
M  V30 2358 H 228.614 -4.85294 1.32284 0
M  V30 2359 H 228.314 -5.00906 3.07192 0
M  V30 2360 H 229.838 -5.62609 2.37284 0
M  V30 2361 H 231.252 -4.07518 4.03239 0
M  V30 2362 H 229.649 -3.69671 4.72719 0
M  V30 2363 H 230.719 -2.37426 4.22797 0
M  V30 2364 N 232.062 -1.29571 -0.897171 0
M  V30 2365 C 232.972 -1.16808 -2.03453 0
M  V30 2366 C 233.988 -0.0907471 -1.73763 0
M  V30 2367 O 235.164 -0.303312 -1.99103 0
M  V30 2368 C 232.229 -0.848264 -3.36163 0
M  V30 2369 C 231.29 -2.0097 -3.79354 0
M  V30 2370 C 230.523 -1.70505 -5.05731 0
M  V30 2371 O 230.746 -0.62718 -5.66941 0
M  V30 2372 O 229.68 -2.5538 -5.45036 0
M  V30 2373 H 233.506 -2.12325 -2.17144 0
M  V30 2374 H 231.091 -1.09047 -1.02123 0
M  V30 2375 H 232.973 -0.684581 -4.15802 0
M  V30 2376 H 231.648 0.0771071 -3.23608 0
M  V30 2377 H 230.555 -2.22863 -3.00471 0
M  V30 2378 H 231.888 -2.91636 -3.96496 0
M  V30 2379 N 233.54 1.10788 -1.12088 0
M  V30 2380 C 234.503 2.15207 -0.788577 0
M  V30 2381 C 235.503 1.59609 0.195317 0
M  V30 2382 O 236.693 1.74174 -0.0300193 0
M  V30 2383 C 233.825 3.4047 -0.171174 0
M  V30 2384 H 235.018 2.46116 -1.71368 0
M  V30 2385 H 232.571 1.26089 -0.923652 0
M  V30 2386 H 233.306 3.15176 0.763832 0
M  V30 2387 H 233.091 3.82109 -0.879514 0
M  V30 2388 H 234.581 4.17576 0.04496 0
M  V30 2389 N 235.018 0.912232 1.28515 0
M  V30 2390 C 236.264 0.545405 1.95328 0
M  V30 2391 C 236.597 -0.908313 1.71649 0
M  V30 2392 O 235.872 -1.64575 1.03659 0
M  V30 2393 C 236.155 0.853483 3.4984 0
M  V30 2394 C 236.008 2.35982 3.82926 0
M  V30 2395 C 237.327 0.348589 4.38717 0
M  V30 2396 H 234.446 0.199626 0.709449 0
M  V30 2397 H 237.088 1.1412 1.5191 0
M  V30 2398 H 235.238 0.34643 3.86952 0
M  V30 2399 H 236.91 2.93738 3.55691 0
M  V30 2400 H 235.153 2.81543 3.30024 0
M  V30 2401 H 235.824 2.52593 4.90816 0
M  V30 2402 H 238.3 0.78294 4.08668 0
M  V30 2403 H 237.176 0.593242 5.45685 0
M  V30 2404 H 237.437 -0.751049 4.35674 0
M  V30 2405 N 236.496 -1.42363 0.676048 0
M  V30 2406 C 237.912 -1.55811 0.345718 0
M  V30 2407 C 238.112 -1.65544 -1.14879 0
M  V30 2408 O 237.168 -1.62306 -1.93424 0
M  V30 2409 C 238.481 -2.80746 1.07713 0
M  V30 2410 C 240.029 -2.9452 1.05958 0
M  V30 2411 C 240.504 -4.22318 1.77233 0
M  V30 2412 N 241.995 -4.29233 1.74108 0
M  V30 2413 C 242.73 -5.26935 2.26113 0
M  V30 2414 N 242.226 -6.30783 2.86505 0
M  V30 2415 N 244.019 -5.18741 2.1648 0
M  V30 2416 H 236.17 -1.34289 1.6456 0
M  V30 2417 H 238.433 -0.646506 0.69335 0
M  V30 2418 H 238.139 -2.79696 2.13221 0
M  V30 2419 H 238.013 -3.71676 0.64316 0
M  V30 2420 H 240.4 -2.95097 0.0128255 0
M  V30 2421 H 240.481 -2.04817 1.53244 0
M  V30 2422 H 240.125 -4.22502 2.81877 0
M  V30 2423 H 240.055 -5.10958 1.27396 0
M  V30 2424 H 242.546 -3.54814 1.30059 0
M  V30 2425 H 242.859 -7.01691 3.23805 0
M  V30 2426 H 241.204 -6.31341 2.90575 0
M  V30 2427 H 244.395 -4.36533 1.68987 0
M  V30 2428 H 244.568 -5.94721 2.57316 0
M  V30 2429 N 237.974 -0.419461 -1.51915 0
M  V30 2430 C 239.22 0.153166 -2.02221 0
M  V30 2431 C 239.553 1.43907 -1.30401 0
M  V30 2432 O 238.828 1.90055 -0.413438 0
M  V30 2433 C 239.111 0.390291 -3.57979 0
M  V30 2434 C 238.964 -0.913014 -4.40436 0
M  V30 2435 C 240.283 1.16794 -4.2432 0
M  V30 2436 H 237.402 0.0541924 -0.735005 0
M  V30 2437 H 240.044 -0.554955 -1.81715 0
M  V30 2438 H 238.194 0.993491 -3.75582 0
M  V30 2439 H 239.866 -1.54882 -4.34522 0
M  V30 2440 H 238.109 -1.52168 -4.06236 0
M  V30 2441 H 238.78 -0.701361 -5.47526 0
M  V30 2442 H 241.256 0.657161 -4.10878 0
M  V30 2443 H 240.132 1.3026 -5.3322 0
M  V30 2444 H 240.393 2.19132 -3.83971 0
M  V30 2445 N 239.452 1.56882 -0.150215 0
M  V30 2446 C 240.415 2.1573 0.774157 0
M  V30 2447 C 241.415 1.0999 1.17298 0
M  V30 2448 O 242.605 1.35613 1.09338 0
M  V30 2449 C 239.737 2.72302 2.05096 0
M  V30 2450 H 240.93 2.98752 0.262201 0
M  V30 2451 H 238.483 1.55985 0.099248 0
M  V30 2452 H 239.218 1.92956 2.6065 0
M  V30 2453 H 239.003 3.49665 1.77416 0
M  V30 2454 H 240.493 3.17632 2.71109 0
M  V30 2455 N 240.93 -0.123565 1.57115 0
M  V30 2456 C 242.178 -0.83051 1.84247 0
M  V30 2457 C 242.499 -1.80629 0.73471 0
M  V30 2458 O 241.769 -1.94403 -0.241688 0
M  V30 2459 H 240.349 -0.309694 0.679778 0
M  V30 2460 H 243.011 -0.111976 1.94578 0
M  V30 2461 H 242.107 -1.37852 2.80006 0
M  V30 2462 N 242.408 -1.52605 -0.393616 0
M  V30 2463 C 243.685 -1.58001 -1.15304 0
M  V30 2464 C 244.065 -0.370385 -2.07825 0
M  V30 2465 O 243.413 0.641638 -2.19306 0
M  V30 2466 C 243.623 -2.91652 -1.91677 0
M  V30 2467 C 244.971 -3.4522 -2.47201 0
M  V30 2468 O 245.995 -2.93495 -2.01839 0
M  V30 2469 O 244.854 -4.35579 -3.3005 0
M  V30 2470 H 241.948 -0.637068 -0.527327 0
M  V30 2471 H 244.494 -1.64939 -0.399141 0
M  V30 2472 H 243.266 -3.71136 -1.23992 0
M  V30 2473 H 242.889 -2.88077 -2.74039 0
M  V30 2474 N 243.887 0.651787 -1.4349 0
M  V30 2475 C 244.834 1.76462 -1.4876 0
M  V30 2476 C 245.804 1.62641 -0.337189 0
M  V30 2477 O 246.989 1.82864 -0.544544 0
M  V30 2478 C 244.129 3.14623 -1.41796 0
M  V30 2479 C 243.242 3.39568 -2.67053 0
M  V30 2480 C 242.377 4.67585 -2.52068 0
M  V30 2481 C 241.416 4.85639 -3.72587 0
M  V30 2482 N 240.553 6.04915 -3.56402 0
M  V30 2483 H 245.393 1.71293 -2.43849 0
M  V30 2484 H 242.93 0.835889 -1.21043 0
M  V30 2485 H 244.888 3.94496 -1.35753 0
M  V30 2486 H 243.518 3.18859 -0.50288 0
M  V30 2487 H 242.57 2.53783 -2.8337 0
M  V30 2488 H 243.882 3.48795 -3.56572 0
M  V30 2489 H 243.036 5.55586 -2.4374 0
M  V30 2490 H 241.775 4.60681 -1.60075 0
M  V30 2491 H 240.78 3.96073 -3.81321 0
M  V30 2492 H 242.005 4.94372 -4.65589 0
M  V30 2493 H 239.951 5.9914 -2.67146 0
M  V30 2494 H 239.868 6.15106 -4.39524 0
M  V30 2495 H 241.136 6.95533 -3.51929 0
M  V30 2496 N 245.365 1.30045 0.890287 0
M  V30 2497 C 246.297 1.11786 2.00091 0
M  V30 2498 C 247.31 0.0626307 1.62679 0
M  V30 2499 O 248.499 0.308112 1.75821 0
M  V30 2500 C 245.599 0.681527 3.31977 0
M  V30 2501 C 244.772 1.81735 3.97858 0
M  V30 2502 C 243.831 1.37045 5.08041 0
M  V30 2503 O 242.857 2.07677 5.29961 0
M  V30 2504 N 244.059 0.246525 5.79976 0
M  V30 2505 H 246.824 2.07441 2.16306 0
M  V30 2506 H 244.385 1.2211 1.06305 0
M  V30 2507 H 246.377 0.365675 4.03045 0
M  V30 2508 H 244.947 -0.182828 3.12065 0
M  V30 2509 H 244.167 2.30159 3.20032 0
M  V30 2510 H 245.455 2.57865 4.38615 0
M  V30 2511 H 244.853 -0.34215 5.64664 0
M  V30 2512 H 243.41 -0.00990438 6.51799 0
M  V30 2513 N 246.843 -1.10192 1.12674 0
M  V30 2514 C 248.068 -1.86523 0.906853 0
M  V30 2515 C 248.493 -1.80221 -0.538711 0
M  V30 2516 O 247.851 -1.17396 -1.38158 0
M  V30 2517 C 247.899 -3.32758 1.3894 0
M  V30 2518 O 247.003 -4.08449 0.5695 0
M  V30 2519 H 246.344 -0.578678 0.325619 0
M  V30 2520 H 248.874 -1.39203 1.49946 0
M  V30 2521 H 248.884 -3.83608 1.38958 0
M  V30 2522 H 247.559 -3.36661 2.44197 0
M  V30 2523 H 246.136 -3.67427 0.636528 0
M  V30 2524 N 248.321 -0.919034 -1.28029 0
M  V30 2525 C 249.737 -0.617972 -1.4715 0
M  V30 2526 C 249.937 0.835242 -1.83374 0
M  V30 2527 O 248.993 1.61388 -1.94191 0
M  V30 2528 C 250.306 -1.56041 -2.57044 0
M  V30 2529 C 251.854 -1.56769 -2.7091 0
M  V30 2530 C 252.329 -2.49688 -3.83953 0
M  V30 2531 N 253.82 -2.47845 -3.91314 0
M  V30 2532 C 254.555 -3.16437 -4.78179 0
M  V30 2533 N 254.051 -3.94376 -5.69596 0
M  V30 2534 N 255.844 -3.05498 -4.71834 0
M  V30 2535 H 247.995 -1.85866 -1.02798 0
M  V30 2536 H 250.258 -0.797506 -0.512531 0
M  V30 2537 H 249.964 -2.59671 -2.372 0
M  V30 2538 H 249.838 -1.29551 -3.54255 0
M  V30 2539 H 252.225 -0.538745 -2.90141 0
M  V30 2540 H 252.306 -1.87305 -1.74214 0
M  V30 2541 H 251.95 -3.52688 -3.65477 0
M  V30 2542 H 251.88 -2.16453 -4.80058 0
M  V30 2543 H 254.371 -1.91234 -3.25941 0
M  V30 2544 H 254.684 -4.43721 -6.32718 0
M  V30 2545 H 253.029 -3.98481 -5.69419 0
M  V30 2546 H 256.22 -2.44108 -3.99411 0
M  V30 2547 H 256.393 -3.59225 -5.39316 0
M  V30 2548 N 249.799 1.42003 -0.683588 0
M  V30 2549 C 251.047 2.01015 -0.209101 0
M  V30 2550 C 251.368 1.54365 1.19149 0
M  V30 2551 O 250.638 0.769083 1.80172 0
M  V30 2552 H 249.218 0.743294 -0.074315 0
M  V30 2553 H 251.88 1.73798 -0.882066 0
M  V30 2554 H 250.976 3.11343 -0.2172 0
M  V30 2555 N 251.277 0.427512 1.51691 0
M  V30 2556 C 252.693 0.0792977 1.59403 0
M  V30 2557 C 252.893 -1.41035 1.43914 0
M  V30 2558 O 251.949 -2.17922 1.27539 0
M  V30 2559 C 253.262 0.590636 2.94842 0
M  V30 2560 C 254.81 0.550215 3.08126 0
M  V30 2561 C 255.285 1.03836 4.46074 0
M  V30 2562 N 256.776 0.995943 4.52366 0
M  V30 2563 C 257.511 1.34463 5.57411 0
M  V30 2564 N 257.007 1.76569 6.69922 0
M  V30 2565 N 258.8 1.26343 5.47717 0
M  V30 2566 H 250.951 1.39687 1.60004 0
M  V30 2567 H 253.214 0.575003 0.753708 0
M  V30 2568 H 252.92 1.63251 3.11516 0
M  V30 2569 H 252.794 0.0102061 3.77199 0
M  V30 2570 H 255.181 -0.482654 2.91126 0
M  V30 2571 H 255.262 1.16693 2.27632 0
M  V30 2572 H 254.906 2.06965 4.63819 0
M  V30 2573 H 254.836 0.398286 5.25092 0
M  V30 2574 H 257.327 0.68661 3.7161 0
M  V30 2575 H 257.64 2.01438 7.46085 0
M  V30 2576 H 255.985 1.80488 6.71155 0
M  V30 2577 H 259.176 0.933209 4.58703 0
M  V30 2578 H 259.349 1.53846 6.29472 0
M  V30 2579 N 252.755 -1.56801 0.158532 0
M  V30 2580 C 254.003 -1.96102 -0.488712 0
M  V30 2581 C 254.324 -1.04498 -1.64636 0
M  V30 2582 O 253.594 -0.108783 -1.95598 0
M  V30 2583 H 252.174 -0.724102 -0.183535 0
M  V30 2584 H 254.836 -1.93457 0.236728 0
M  V30 2585 H 253.932 -3.00097 -0.857219 0
M  V30 2586 N 254.233 0.115231 -1.57178 0
M  V30 2587 C 255.479 0.82357 -1.85325 0
M  V30 2588 C 255.812 1.79349 -0.744814 0
M  V30 2589 O 255.087 1.92899 0.249024 0
M  V30 2590 C 255.37 1.57014 -3.24066 0
M  V30 2591 C 255.223 0.619565 -4.45513 0
M  V30 2592 C 256.542 2.52545 -3.60429 0
M  V30 2593 H 253.661 0.297948 -0.674089 0
M  V30 2594 H 256.303 0.0877138 -1.89797 0
M  V30 2595 H 254.453 2.19742 -3.20383 0
M  V30 2596 H 256.125 0.000837639 -4.613 0
M  V30 2597 H 254.368 -0.0686174 -4.33746 0
M  V30 2598 H 255.039 1.17866 -5.3927 0
M  V30 2599 H 257.515 1.9992 -3.64926 0
M  V30 2600 H 256.391 3.01811 -4.58477 0
M  V30 2601 H 256.652 3.35383 -2.88047 0
M  V30 2602 N 255.711 1.52812 0.385517 0
M  V30 2603 C 256.644 1.72592 1.49289 0
M  V30 2604 C 257.622 0.573819 1.52138 0
M  V30 2605 O 258.806 0.80404 1.70492 0
M  V30 2606 C 255.933 1.78669 2.87741 0
M  V30 2607 C 254.979 3.00455 3.02703 0
M  V30 2608 S 255.812 4.60366 2.73538 0
M  V30 2609 C 256.968 4.69263 4.14177 0
M  V30 2610 H 257.201 2.66248 1.32285 0
M  V30 2611 H 254.734 1.43148 0.578611 0
M  V30 2612 H 256.692 1.82855 3.67524 0
M  V30 2613 H 255.353 0.861 3.02069 0
M  V30 2614 H 254.546 3.01258 4.04054 0
M  V30 2615 H 254.148 2.94278 2.30817 0
M  V30 2616 H 256.44 4.48092 5.08153 0
M  V30 2617 H 257.383 5.71276 4.18388 0
M  V30 2618 H 257.791 3.98072 4.00249 0
M  V30 2619 N 257.189 -0.644168 1.43834 0
M  V30 2620 C 258.435 -1.40603 1.46146 0
M  V30 2621 C 258.768 -1.93997 0.0887717 0
M  V30 2622 O 258.043 -1.72854 -0.891724 0
M  V30 2623 C 258.326 -2.58086 2.51124 0
M  V30 2624 C 258.179 -2.10126 3.97702 0
M  V30 2625 C 259.498 -3.60291 2.52742 0
M  V30 2626 H 256.617 -0.509905 0.532134 0
M  V30 2627 H 259.259 -0.729502 1.75437 0
M  V30 2628 H 257.409 -3.15801 2.26278 0
M  V30 2629 H 259.081 -1.57342 4.33637 0
M  V30 2630 H 257.324 -1.41419 4.10101 0
M  V30 2631 H 257.995 -2.94649 4.66783 0
M  V30 2632 H 260.471 -3.12352 2.7491 0
M  V30 2633 H 259.347 -4.40032 3.28121 0
M  V30 2634 H 259.608 -4.1349 1.56455 0
M  V30 2635 N 258.668 -1.30515 -0.883378 0
M  V30 2636 C 259.914 -1.19607 -1.63774 0
M  V30 2637 C 260.247 0.248314 -1.92606 0
M  V30 2638 O 259.522 1.17742 -1.54813 0
M  V30 2639 C 259.805 -2.02669 -2.97653 0
M  V30 2640 C 259.658 -3.55335 -2.75784 0
M  V30 2641 C 260.977 -1.86573 -3.98596 0
M  V30 2642 H 258.096 -0.435856 -0.594305 0
M  V30 2643 H 260.738 -1.60165 -1.02212 0
M  V30 2644 H 258.888 -1.68208 -3.50197 0
M  V30 2645 H 260.56 -3.99863 -2.30016 0
M  V30 2646 H 258.803 -3.79438 -2.1026 0
M  V30 2647 H 259.474 -4.08745 -3.70988 0
M  V30 2648 H 261.95 -2.16703 -3.55217 0
M  V30 2649 H 260.826 -2.47014 -4.90179 0
M  V30 2650 H 261.087 -0.825321 -4.34328 0
M  V30 2651 N 260.146 1.09593 -1.13257 0
M  V30 2652 C 261.076 2.18214 -0.830946 0
M  V30 2653 C 262.057 1.68812 0.208966 0
M  V30 2654 O 263.242 1.9408 0.0682666 0
M  V30 2655 C 260.372 3.46051 -0.294296 0
M  V30 2656 C 259.326 4.08778 -1.26826 0
M  V30 2657 C 258.652 5.31419 -0.591449 0
M  V30 2658 C 259.952 4.51476 -2.62615 0
M  V30 2659 H 261.646 2.43703 -1.73923 0
M  V30 2660 H 259.192 1.17128 -0.837675 0
M  V30 2661 H 261.145 4.2134 -0.0709606 0
M  V30 2662 H 259.869 3.20079 0.649366 0
M  V30 2663 H 258.528 3.35505 -1.47756 0
M  V30 2664 H 258.176 5.01727 0.357633 0
M  V30 2665 H 257.876 5.74341 -1.24123 0
M  V30 2666 H 259.4 6.09433 -0.377355 0
M  V30 2667 H 260.814 5.17999 -2.45663 0
M  V30 2668 H 259.211 5.05277 -3.23752 0
M  V30 2669 H 260.281 3.63962 -3.20406 0
M  V30 2670 N 261.624 0.925811 1.2754 0
M  V30 2671 C 262.572 0.413897 2.28888 0
M  V30 2672 C 263.566 -0.500779 1.61829 0
M  V30 2673 O 264.772 -0.38069 1.75928 0
M  V30 2674 H 261.147 0.115274 0.743112 0
M  V30 2675 H 263.118 1.28151 2.69481 0
M  V30 2676 C 261.867 -0.319792 3.46226 0
M  V30 2677 H 261.19 0.374846 3.98039 0
M  V30 2678 H 262.63 -0.642435 4.19105 0
M  V30 2679 C 261.089 -1.53209 3.00048 0
M  V30 2680 O 261.619 -2.6309 3.03557 0
M  V30 2681 N 259.825 -1.38326 2.55566 0
M  V30 2682 H 259.372 -0.489292 2.5291 0
M  V30 2683 H 259.33 -2.19564 2.25031 0
M  V30 2684 N 263.102 -1.41638 0.69111 0
M  V30 2685 C 264.379 -1.95036 0.148421 0
M  V30 2686 C 264.759 -1.63072 -1.34055 0
M  V30 2687 O 264.107 -0.93538 -2.08478 0
M  V30 2688 C 264.317 -3.46279 0.434951 0
M  V30 2689 C 265.665 -4.23069 0.360275 0
M  V30 2690 O 266.689 -3.54277 0.369613 0
M  V30 2691 O 265.548 -5.45583 0.316534 0
M  V30 2692 H 262.642 -0.826908 0.0123654 0
M  V30 2693 H 265.188 -1.5138 0.766963 0
M  V30 2694 H 263.96 -3.6281 1.46576 0
M  V30 2695 H 263.583 -3.97019 -0.214787 0
M  V30 2696 N 264.58 -0.43555 -1.51462 0
M  V30 2697 C 265.996 -0.0877501 -1.59359 0
M  V30 2698 C 266.196 1.4027 -1.4466 0
M  V30 2699 O 265.252 2.17243 -1.28693 0
M  V30 2700 C 266.565 -0.606264 -2.94525 0
M  V30 2701 C 268.113 -0.566548 -3.0783 0
M  V30 2702 C 268.588 -1.06201 -4.45517 0
M  V30 2703 N 270.079 -1.01992 -4.51832 0
M  V30 2704 C 270.814 -1.37417 -5.5669 0
M  V30 2705 N 270.31 -1.80119 -6.68976 0
M  V30 2706 N 272.103 -1.29245 -5.47039 0
M  V30 2707 H 264.254 -1.40533 -1.59261 0
M  V30 2708 H 266.517 -0.578992 -0.750648 0
M  V30 2709 H 266.223 -1.64901 -3.10645 0
M  V30 2710 H 266.097 -0.0302097 -3.77188 0
M  V30 2711 H 268.484 0.467208 -2.91378 0
M  V30 2712 H 268.565 -1.17898 -2.2701 0
M  V30 2713 H 268.209 -2.09422 -4.62715 0
M  V30 2714 H 268.139 -0.426127 -5.24873 0
M  V30 2715 H 270.63 -0.706308 -3.71241 0
M  V30 2716 H 270.943 -2.05392 -7.45006 0
M  V30 2717 H 269.288 -1.84044 -6.70189 0
M  V30 2718 H 272.479 -0.957522 -4.58202 0
M  V30 2719 H 272.652 -1.57182 -6.28648 0
M  V30 2720 N 266.058 1.56714 -0.166846 0
M  V30 2721 C 267.307 1.95922 0.479318 0
M  V30 2722 C 267.62 1.05529 1.6469 0
M  V30 2723 O 268.826 1.34399 2.35901 0
M  V30 2724 C 267.282 3.48359 0.90412 0
M  V30 2725 C 266.89 4.47369 -0.237621 0
M  V30 2726 C 268.634 3.96394 1.51896 0
M  V30 2727 C 266.541 5.91039 0.206561 0
M  V30 2728 H 265.471 0.731495 0.18284 0
M  V30 2729 H 268.122 1.81728 -0.254363 0
M  V30 2730 H 266.504 3.57955 1.69365 0
M  V30 2731 H 267.678 4.49485 -1.01489 0
M  V30 2732 H 265.993 4.09366 -0.762128 0
M  V30 2733 H 268.59 5.01186 1.86325 0
M  V30 2734 H 268.933 3.39075 2.41524 0
M  V30 2735 H 269.466 3.89796 0.79395 0
M  V30 2736 H 266.205 6.52221 -0.654834 0
M  V30 2737 H 265.725 5.9224 0.949282 0
M  V30 2738 H 267.404 6.43707 0.651939 0
M  V30 2739 N 267.536 -0.106894 1.57237 0
M  V30 2740 C 268.784 -0.810921 1.85117 0
M  V30 2741 C 269.105 -1.7984 0.753827 0
M  V30 2742 O 268.375 -1.94649 -0.221056 0
M  V30 2743 H 266.955 -0.302466 0.683025 0
M  V30 2744 H 269.617 -0.0913324 1.94686 0
M  V30 2745 H 268.713 -1.34875 2.81452 0
M  V30 2746 N 269.014 -1.53014 -0.377408 0
M  V30 2747 C 270.239 -1.72818 -1.14668 0
M  V30 2748 C 270.664 -0.450725 -1.8262 0
M  V30 2749 O 270.022 0.59439 -1.7128 0
M  V30 2750 C 270.07 -2.88627 -2.16164 0
M  V30 2751 O 269.174 -2.56409 -3.22998 0
M  V30 2752 H 268.515 -0.574301 -0.333278 0
M  V30 2753 H 271.045 -1.99853 -0.438152 0
M  V30 2754 H 271.055 -3.14455 -2.59966 0
M  V30 2755 H 269.73 -3.81294 -1.66095 0
M  V30 2756 H 268.307 -2.4136 -2.84253 0
M  V30 2757 N 270.492 0.636531 -1.44174 0
M  V30 2758 C 271.455 1.73063 -1.50273 0
M  V30 2759 C 272.455 1.56113 -0.385397 0
M  V30 2760 O 273.645 1.61707 -0.64781 0
M  V30 2761 C 270.777 3.12096 -1.37145 0
M  V30 2762 H 271.97 1.69031 -2.47727 0
M  V30 2763 H 269.523 0.849706 -1.31186 0
M  V30 2764 H 270.258 3.21728 -0.407636 0
M  V30 2765 H 270.043 3.25805 -2.18159 0
M  V30 2766 H 271.533 3.91846 -1.44382 0
M  V30 2767 N 271.97 1.30982 0.876444 0
M  V30 2768 C 273.386 1.09498 1.16113 0
M  V30 2769 C 273.586 -0.13875 2.01022 0
M  V30 2770 O 272.642 -0.829935 2.38471 0
M  V30 2771 C 273.955 2.36308 1.85954 0
M  V30 2772 C 275.503 2.41856 1.98683 0
M  V30 2773 C 275.978 3.6853 2.71937 0
M  V30 2774 N 277.469 3.69387 2.79477 0
M  V30 2775 C 278.204 4.64096 3.36753 0
M  V30 2776 N 277.7 5.69155 3.95012 0
M  V30 2777 N 279.493 4.51626 3.3465 0
M  V30 2778 H 271.644 2.10118 0.310494 0
M  V30 2779 H 273.907 0.926634 0.200131 0
M  V30 2780 H 273.613 3.26388 1.31011 0
M  V30 2781 H 273.487 2.4561 2.86278 0
M  V30 2782 H 275.874 1.52249 2.52793 0
M  V30 2783 H 275.955 2.36523 0.9742 0
M  V30 2784 H 275.599 4.58499 2.18496 0
M  V30 2785 H 275.529 3.71127 3.73593 0
M  V30 2786 H 278.02 2.93438 2.38123 0
M  V30 2787 H 278.333 6.3751 4.36808 0
M  V30 2788 H 276.678 5.72937 3.93406 0
M  V30 2789 H 279.869 3.68728 2.8837 0
M  V30 2790 H 280.042 5.25614 3.7899 0
M  V30 2791 N 273.449 -1.08991 1.13837 0
M  V30 2792 C 274.679 -1.84743 0.924859 0
M  V30 2793 C 275.087 -1.81629 -0.529874 0
M  V30 2794 O 274.43 -1.21397 -1.37872 0
M  V30 2795 C 274.492 -3.33568 1.34061 0
M  V30 2796 C 274.156 -3.60425 2.80968 0
M  V30 2797 C 275.153 -3.55771 3.79108 0
M  V30 2798 C 272.838 -3.88627 3.18236 0
M  V30 2799 C 274.832 -3.78939 5.12527 0
M  V30 2800 C 272.519 -4.11449 4.51833 0
M  V30 2801 C 273.517 -4.06598 5.48787 0
M  V30 2802 O 273.205 -4.28826 6.79973 0
M  V30 2803 H 272.937 -0.590258 0.329502 0
M  V30 2804 H 275.491 -1.38598 1.51591 0
M  V30 2805 H 273.721 -3.80442 0.692853 0
M  V30 2806 H 275.41 -3.90743 1.09886 0
M  V30 2807 H 276.176 -3.34005 3.51661 0
M  V30 2808 H 272.055 -3.91526 2.43369 0
M  V30 2809 H 275.599 -3.75068 5.88192 0
M  V30 2810 H 271.496 -4.32698 4.79002 0
M  V30 2811 H 272.264 -4.46264 6.86142 0
M  V30 2812 N 274.927 -0.932562 -1.27047 0
M  V30 2813 C 276.176 -0.571351 -1.93439 0
M  V30 2814 C 276.489 0.892467 -1.74053 0
M  V30 2815 O 277.695 1.36267 -2.34826 0
M  V30 2816 C 276.151 -0.97106 -3.46552 0
M  V30 2817 C 275.759 -2.4559 -3.74686 0
M  V30 2818 C 277.503 -0.681333 -4.18997 0
M  V30 2819 C 275.41 -2.79475 -5.21198 0
M  V30 2820 H 274.34 -0.209966 -0.724176 0
M  V30 2821 H 276.991 -1.13403 -1.44263 0
M  V30 2822 H 275.373 -0.336983 -3.94564 0
M  V30 2823 H 276.547 -3.13829 -3.37414 0
M  V30 2824 H 274.862 -2.71802 -3.15456 0
M  V30 2825 H 277.459 -0.910939 -5.26883 0
M  V30 2826 H 277.802 0.381628 -4.14547 0
M  V30 2827 H 278.335 -1.27473 -3.76823 0
M  V30 2828 H 275.074 -3.847 -5.30741 0
M  V30 2829 H 274.594 -2.1589 -5.596 0
M  V30 2830 H 276.273 -2.67478 -5.89122 0
M  V30 2831 N 276.405 1.4127 -0.698611 0
M  V30 2832 C 277.633 2.05503 -0.239992 0
M  V30 2833 C 278.048 1.52584 1.11191 0
M  V30 2834 O 277.405 0.675323 1.69545 0
M  V30 2835 C 277.456 3.60987 -0.192429 0
M  V30 2836 O 277.177 4.1195 -1.49094 0
M  V30 2837 C 278.678 4.42371 0.28681 0
M  V30 2838 H 275.898 0.661748 -0.111045 0
M  V30 2839 H 278.442 1.80987 -0.95205 0
M  V30 2840 H 276.597 3.84533 0.470472 0
M  V30 2841 H 277.011 5.06018 -1.38007 0
M  V30 2842 H 278.485 5.51344 0.26896 0
M  V30 2843 H 278.962 4.18699 1.32619 0
M  V30 2844 H 279.568 4.23897 -0.345201 0
M  V30 2845 N 277.883 0.443576 1.51229 0
M  V30 2846 C 278.83 -0.364716 2.279 0
M  V30 2847 C 279.8 -1.0114 1.31757 0
M  V30 2848 O 280.985 -1.02912 1.60667 0
M  V30 2849 C 278.125 -1.45644 3.12861 0
M  V30 2850 C 277.238 -0.827269 4.24005 0
M  V30 2851 C 276.373 -1.89456 4.96266 0
M  V30 2852 C 275.412 -1.24416 5.99322 0
M  V30 2853 N 274.549 -2.25309 6.64966 0
M  V30 2854 H 279.389 0.295464 2.96532 0
M  V30 2855 H 276.926 0.157554 1.46254 0
M  V30 2856 H 278.884 -2.10076 3.6045 0
M  V30 2857 H 277.514 -2.08616 2.46331 0
M  V30 2858 H 276.566 -0.0710839 3.80334 0
M  V30 2859 H 277.878 -0.312481 4.9782 0
M  V30 2860 H 277.032 -2.61535 5.47434 0
M  V30 2861 H 275.771 -2.4431 4.22095 0
M  V30 2862 H 274.776 -0.508868 5.4744 0
M  V30 2863 H 276.001 -0.702882 6.75453 0
M  V30 2864 H 273.947 -2.79231 5.93604 0
M  V30 2865 H 273.864 -1.78739 7.34567 0
M  V30 2866 H 275.132 -2.96853 7.20763 0
M  V30 2867 N 279.361 -1.56624 0.175154 0
M  V30 2868 C 280.589 -2.01374 -0.474971 0
M  V30 2869 C 281.004 -1.05537 -1.56548 0
M  V30 2870 O 280.361 -0.0568668 -1.82411 0
M  V30 2871 C 280.412 -3.45923 -1.04975 0
M  V30 2872 O 280.133 -4.381 -0.00276605 0
M  V30 2873 C 281.634 -4.06093 -1.77773 0
M  V30 2874 H 278.854 -0.659962 -0.121206 0
M  V30 2875 H 281.398 -2.02601 0.27801 0
M  V30 2876 H 279.553 -3.45458 -1.75321 0
M  V30 2877 H 279.967 -5.22753 -0.427681 0
M  V30 2878 H 281.441 -5.09147 -2.13245 0
M  V30 2879 H 281.918 -3.48405 -2.67414 0
M  V30 2880 H 282.524 -4.10272 -1.12059 0
M  V30 2881 N 280.839 0.0985539 -1.57292 0
M  V30 2882 C 281.787 1.1387 -2.02821 0
M  V30 2883 C 282.781 1.41676 -0.928666 0
M  V30 2884 O 283.987 1.41398 -1.11385 0
M  V30 2885 H 280.362 0.384419 -0.646317 0
M  V30 2886 H 282.333 0.728347 -2.89375 0
M  V30 2887 C 281.082 2.45166 -2.46554 0
M  V30 2888 H 280.405 2.24613 -3.3074 0
M  V30 2889 H 281.845 3.16456 -2.8219 0
M  V30 2890 C 280.304 3.09216 -1.33742 0
M  V30 2891 O 280.834 3.96163 -0.66464 0
M  V30 2892 N 279.04 2.69413 -1.08928 0
M  V30 2893 H 278.587 1.98801 -1.63817 0
M  V30 2894 H 278.545 3.12594 -0.336458 0
M  V30 2895 N 282.317 1.53212 0.369288 0
M  V30 2896 C 283.28 1.7872 1.43498 0
M  V30 2897 C 284.28 0.657554 1.46741 0
M  V30 2898 O 285.47 0.925736 1.47566 0
M  V30 2899 C 282.602 1.90591 2.82645 0
M  V30 2900 H 283.795 2.73894 1.22156 0
M  V30 2901 H 281.348 1.44233 0.602203 0
M  V30 2902 H 282.083 0.974709 3.09306 0
M  V30 2903 H 281.868 2.72751 2.8169 0
M  V30 2904 H 283.358 2.11931 3.59826 0
M  V30 2905 N 283.795 -0.628877 1.44509 0
M  V30 2906 C 285.02 -1.42048 1.5112 0
M  V30 2907 C 285.445 -1.87594 0.137818 0
M  V30 2908 O 284.803 -1.58873 -0.873437 0
M  V30 2909 C 284.851 -2.61541 2.48251 0
M  V30 2910 O 283.955 -3.61453 1.98559 0
M  V30 2911 H 283.296 -0.424942 0.510216 0
M  V30 2912 H 285.826 -0.767374 1.89664 0
M  V30 2913 H 285.836 -3.09057 2.66361 0
M  V30 2914 H 284.511 -2.27736 3.48007 0
M  V30 2915 H 283.088 -3.20731 1.90227 0
M  V30 2916 N 285.273 -1.31445 -0.869486 0
M  V30 2917 C 286.501 -1.24122 -1.65534 0
M  V30 2918 C 286.916 0.193387 -1.87807 0
M  V30 2919 O 286.273 1.12557 -1.43656 0
M  V30 2920 C 286.324 -1.98229 -3.02304 0
M  V30 2921 O 286.045 -3.3609 -2.81026 0
M  V30 2922 C 287.546 -1.97751 -3.96749 0
M  V30 2923 H 284.766 -0.428868 -0.516055 0
M  V30 2924 H 287.31 -1.73328 -1.08525 0
M  V30 2925 H 285.465 -1.52782 -3.56001 0
M  V30 2926 H 285.879 -3.7383 -3.67902 0
M  V30 2927 H 287.353 -2.54114 -4.90031 0
M  V30 2928 H 287.83 -0.960137 -4.28577 0
M  V30 2929 H 288.436 -2.43079 -3.48988 0
M  V30 2930 N 286.751 1.08385 -1.14413 0
M  V30 2931 C 287.681 2.17321 -0.854044 0
M  V30 2932 C 288.662 1.69024 0.191049 0
M  V30 2933 O 289.847 1.94141 0.0476779 0
M  V30 2934 C 286.977 3.45719 -0.330983 0
M  V30 2935 C 285.931 4.07409 -1.31155 0
M  V30 2936 C 285.257 5.30762 -0.64778 0
M  V30 2937 C 286.557 4.48665 -2.67388 0
M  V30 2938 H 288.251 2.41845 -1.76498 0
M  V30 2939 H 285.797 1.16233 -0.850051 0
M  V30 2940 H 287.75 4.21241 -0.115645 0
M  V30 2941 H 286.474 3.2075 0.615381 0
M  V30 2942 H 285.133 3.33919 -1.51306 0
M  V30 2943 H 284.781 5.02078 0.304398 0
M  V30 2944 H 284.481 5.72992 -1.30207 0
M  V30 2945 H 286.005 6.08998 -0.441972 0
M  V30 2946 H 287.419 5.15364 -2.51143 0
M  V30 2947 H 285.816 5.01814 -3.29093 0
M  V30 2948 H 286.886 3.60543 -3.24248 0
M  V30 2949 N 288.23 0.939286 1.26551 0
M  V30 2950 C 289.507 0.5038 1.89001 0
M  V30 2951 C 289.887 -1.01854 1.84903 0
M  V30 2952 O 289.235 -1.87773 1.30206 0
M  V30 2953 C 289.445 1.063 3.32417 0
M  V30 2954 C 290.793 1.13051 4.09273 0
M  V30 2955 O 291.817 1.01345 3.41479 0
M  V30 2956 O 290.676 1.31233 5.30509 0
M  V30 2957 H 287.77 0.163897 0.810597 0
M  V30 2958 H 290.316 1.03173 1.34735 0
M  V30 2959 H 289.088 2.10665 3.29752 0
M  V30 2960 H 288.711 0.517408 3.94219 0
M  V30 2961 N 289.708 -1.40897 0.706093 0
M  V30 2962 C 290.936 -2.05373 0.250887 0
M  V30 2963 C 291.351 -1.53172 -1.10381 0
M  V30 2964 O 290.708 -0.684305 -1.69185 0
M  V30 2965 C 290.759 -3.6088 0.211571 0
M  V30 2966 O 290.48 -4.11153 1.51276 0
M  V30 2967 C 291.981 -4.42517 -0.263346 0
M  V30 2968 H 289.201 -0.66115 0.114552 0
M  V30 2969 H 291.745 -1.80479 0.961635 0
M  V30 2970 H 289.9 -3.84777 -0.450073 0
M  V30 2971 H 290.314 -5.05279 1.40689 0
M  V30 2972 H 291.788 -5.51479 -0.239718 0
M  V30 2973 H 292.265 -4.19396 -1.30397 0
M  V30 2974 H 292.871 -4.23708 0.367677 0
M  V30 2975 N 291.186 -0.45159 -1.50991 0
M  V30 2976 C 292.433 0.110074 -2.02201 0
M  V30 2977 C 292.761 1.4146 -1.33489 0
M  V30 2978 O 292.016 1.90617 -0.443125 0
M  V30 2979 C 292.315 0.361728 -3.55565 0
M  V30 2980 C 291.981 -0.858717 -4.42648 0
M  V30 2981 C 290.643 -1.19338 -4.66167 0
M  V30 2982 C 292.995 -1.67221 -4.93646 0
M  V30 2983 C 290.323 -2.34195 -5.37931 0
M  V30 2984 C 292.675 -2.8119 -5.6667 0
M  V30 2985 C 291.339 -3.15094 -5.88449 0
M  V30 2986 H 290.609 0.040279 -0.739904 0
M  V30 2987 H 293.256 -0.601696 -1.81802 0
M  V30 2988 H 291.561 1.15554 -3.74372 0
M  V30 2989 H 293.258 0.80996 -3.92735 0
M  V30 2990 H 289.848 -0.58796 -4.24548 0
M  V30 2991 H 294.032 -1.42686 -4.75347 0
M  V30 2992 H 289.288 -2.6076 -5.53005 0
M  V30 2993 H 293.462 -3.44585 -6.05173 0
M  V30 2994 H 291.089 -4.04204 -6.43835 0
M  V30 2995 N 292.664 1.56529 -0.183458 0
M  V30 2996 C 293.611 2.18546 0.742055 0
M  V30 2997 C 294.581 1.12912 1.2182 0
M  V30 2998 O 295.766 1.41115 1.28418 0
M  V30 2999 C 292.906 2.83977 1.96089 0
M  V30 3000 C 292.019 4.04105 1.52719 0
M  V30 3001 C 291.154 4.57427 2.70063 0
M  V30 3002 C 290.193 5.69938 2.23243 0
M  V30 3003 N 289.33 6.17717 3.33722 0
M  V30 3004 H 294.17 2.97284 0.206432 0
M  V30 3005 H 291.707 1.46823 0.0901571 0
M  V30 3006 H 293.665 3.20077 2.67594 0
M  V30 3007 H 292.295 2.07822 2.47002 0
M  V30 3008 H 291.347 3.73745 0.708436 0
M  V30 3009 H 292.659 4.85513 1.1436 0
M  V30 3010 H 291.813 4.95772 3.49708 0
M  V30 3011 H 290.552 3.75101 3.11689 0
M  V30 3012 H 289.557 5.31133 1.42048 0
M  V30 3013 H 290.782 6.54073 1.82661 0
M  V30 3014 H 288.728 5.38317 3.74902 0
M  V30 3015 H 288.645 6.94146 2.99495 0
M  V30 3016 H 289.913 6.60713 4.13616 0
M  V30 3017 N 294.142 -0.090211 1.57342 0
M  V30 3018 C 295.105 -1.09335 2.01441 0
M  V30 3019 C 296.105 -1.32666 0.908641 0
M  V30 3020 O 297.295 -1.28697 1.174 0
M  V30 3021 C 294.427 -2.44136 2.3793 0
M  V30 3022 H 295.62 -0.713662 2.91285 0
M  V30 3023 H 293.173 -0.335404 1.52659 0
M  V30 3024 H 293.908 -2.86972 1.51055 0
M  V30 3025 H 293.693 -2.28548 3.18603 0
M  V30 3026 H 295.183 -3.16277 2.72688 0
M  V30 3027 N 295.62 -1.53406 -0.361157 0
M  V30 3028 C 296.568 -1.80832 -1.46296 0
M  V30 3029 C 297.562 -0.677699 -1.55253 0
M  V30 3030 O 298.768 -0.860723 -1.58087 0
M  V30 3031 H 295.143 -0.572627 -0.487445 0
M  V30 3032 H 297.114 -2.73045 -1.20371 0
M  V30 3033 C 295.863 -2.01907 -2.8307 0
M  V30 3034 H 295.186 -2.88349 -2.76938 0
M  V30 3035 H 296.626 -2.25072 -3.59331 0
M  V30 3036 C 295.085 -0.799449 -3.27277 0
M  V30 3037 O 295.615 0.00971761 -4.01699 0
M  V30 3038 N 293.821 -0.621637 -2.83873 0
M  V30 3039 H 293.368 -1.28126 -2.23476 0
M  V30 3040 H 293.326 0.19298 -3.13807 0
M  V30 3041 N 297.098 0.621204 -1.44841 0
M  V30 3042 C 298.008 1.7612 -1.5498 0
M  V30 3043 C 299.024 1.68477 -0.434927 0
M  V30 3044 O 300.2 1.89076 -0.693693 0
M  V30 3045 C 297.265 3.1254 -1.50065 0
M  V30 3046 C 296.326 3.31741 -2.72482 0
M  V30 3047 C 295.559 4.61653 -2.67792 0
M  V30 3048 O 295.782 5.431 -1.74352 0
M  V30 3049 O 294.716 4.83271 -3.58794 0
M  V30 3050 H 298.542 1.70518 -2.51311 0
M  V30 3051 H 296.127 0.783643 -1.27198 0
M  V30 3052 H 298.009 3.93844 -1.49882 0
M  V30 3053 H 296.684 3.18663 -0.568806 0
M  V30 3054 H 295.591 2.50077 -2.7823 0
M  V30 3055 H 296.924 3.30486 -3.64746 0
M  V30 3056 N 298.576 1.31904 0.862503 0
M  V30 3057 C 299.486 1.22161 2.00285 0
M  V30 3058 C 300.502 0.136785 1.73462 0
M  V30 3059 O 301.678 0.355994 1.98229 0
M  V30 3060 C 298.743 0.937093 3.33796 0
M  V30 3061 C 297.804 2.10957 3.73893 0
M  V30 3062 C 297.037 1.83853 5.01033 0
M  V30 3063 O 297.26 0.777274 5.65079 0
M  V30 3064 O 296.194 2.69741 5.38074 0
M  V30 3065 H 300.02 2.18008 2.11439 0
M  V30 3066 H 297.605 1.11716 0.991957 0
M  V30 3067 H 299.487 0.794583 4.13841 0
M  V30 3068 H 298.162 0.00871894 3.23699 0
M  V30 3069 H 297.069 2.30752 2.94456 0
M  V30 3070 H 298.402 3.02046 3.88625 0
M  V30 3071 N 300.054 -1.07777 1.14986 0
M  V30 3072 C 301.302 -1.79934 0.920235 0
M  V30 3073 C 301.623 -1.86955 -0.554336 0
M  V30 3074 O 300.893 -1.36731 -1.40291 0
M  V30 3075 H 299.473 -0.666424 0.337473 0
M  V30 3076 H 302.135 -1.3027 1.44968 0
M  V30 3077 H 301.231 -2.82539 1.32583 0
M  V30 3078 N 301.532 -0.945985 -1.26051 0
M  V30 3079 C 302.762 -0.612136 -1.97323 0
M  V30 3080 C 303.17 0.818171 -1.70595 0
M  V30 3081 O 302.513 1.55777 -0.973613 0
M  V30 3082 C 302.575 -0.780347 -3.50929 0
M  V30 3083 C 302.239 -2.18619 -4.01317 0
M  V30 3084 C 303.236 -3.16209 -4.12683 0
M  V30 3085 C 300.921 -2.50805 -4.35203 0
M  V30 3086 C 302.915 -4.44085 -4.57238 0
M  V30 3087 C 300.602 -3.78912 -4.79446 0
M  V30 3088 C 301.6 -4.75365 -4.90425 0
M  V30 3089 O 301.288 -6.01191 -5.3369 0
M  V30 3090 H 301.02 -0.229134 -0.635982 0
M  V30 3091 H 303.574 -1.27036 -1.61404 0
M  V30 3092 H 301.804 -0.0649864 -3.86645 0
M  V30 3093 H 303.493 -0.448842 -4.03411 0
M  V30 3094 H 304.259 -2.92668 -3.86744 0
M  V30 3095 H 300.138 -1.76463 -4.2589 0
M  V30 3096 H 303.682 -5.19373 -4.65723 0
M  V30 3097 H 299.579 -4.02265 -5.0483 0
M  V30 3098 H 300.347 -6.04442 -5.51899 0
M  V30 3099 N 303.011 1.40521 -0.713556 0
M  V30 3100 C 303.941 2.33381 -0.0743864 0
M  V30 3101 C 304.922 1.52784 0.747735 0
M  V30 3102 O 306.107 1.81258 0.697071 0
M  V30 3103 C 303.237 3.36748 0.849598 0
M  V30 3104 C 302.191 4.27793 0.133247 0
M  V30 3105 C 301.517 5.21679 1.17281 0
M  V30 3106 C 302.817 5.12415 -1.01134 0
M  V30 3107 H 304.511 2.87081 -0.850007 0
M  V30 3108 H 302.057 1.38034 -0.410201 0
M  V30 3109 H 304.01 4.00648 1.30612 0
M  V30 3110 H 302.734 2.81439 1.65709 0
M  V30 3111 H 301.393 3.65342 -0.303426 0
M  V30 3112 H 301.041 4.62677 1.9733 0
M  V30 3113 H 300.741 5.83435 0.698397 0
M  V30 3114 H 302.265 5.88456 1.62947 0
M  V30 3115 H 303.679 5.69781 -0.634274 0
M  V30 3116 H 302.076 5.83203 -1.41399 0
M  V30 3117 H 303.146 4.48514 -1.84292 0
M  V30 3118 N 304.489 0.459591 1.5075 0
M  V30 3119 C 305.737 -0.0991532 2.01857 0
M  V30 3120 C 306.058 -1.41247 1.34441 0
M  V30 3121 O 305.328 -1.89775 0.486022 0
M  V30 3122 H 303.908 -0.039633 0.745948 0
M  V30 3123 H 306.57 0.607387 1.85194 0
M  V30 3124 H 305.666 -0.258998 3.11023 0
M  V30 3125 N 305.967 -1.56429 0.191757 0
M  V30 3126 C 307.213 -1.97777 -0.448554 0
M  V30 3127 C 307.546 -1.07847 -1.61501 0
M  V30 3128 O 306.821 -0.129774 -1.94067 0
M  V30 3129 C 307.104 -3.48362 -0.911906 0
M  V30 3130 C 306.957 -4.4907 0.256136 0
M  V30 3131 C 308.276 -4.02561 -1.77857 0
M  V30 3132 H 305.395 -0.719071 -0.161572 0
M  V30 3133 H 308.037 -1.87896 0.282007 0
M  V30 3134 H 306.187 -3.56914 -1.53442 0
M  V30 3135 H 307.859 -4.5256 0.893733 0
M  V30 3136 H 306.102 -4.24181 0.908436 0
M  V30 3137 H 306.773 -5.51889 -0.11053 0
M  V30 3138 H 309.249 -3.96767 -1.25359 0
M  V30 3139 H 308.125 -5.08301 -2.07174 0
M  V30 3140 H 308.386 -3.47616 -2.73158 0
M  V30 3141 N 307.445 0.0818655 -1.57387 0
M  V30 3142 C 308.694 0.781681 -1.85937 0
M  V30 3143 C 309.007 1.79246 -0.782957 0
M  V30 3144 O 310.213 2.54112 -0.955987 0
M  V30 3145 C 308.669 1.44109 -3.29789 0
M  V30 3146 C 308.277 0.469396 -4.45534 0
M  V30 3147 C 310.021 2.12386 -3.67549 0
M  V30 3148 C 307.928 1.13415 -5.80423 0
M  V30 3149 H 306.858 0.295682 -0.693605 0
M  V30 3150 H 309.509 0.0348051 -1.83467 0
M  V30 3151 H 307.891 2.23588 -3.2684 0
M  V30 3152 H 309.065 -0.294856 -4.59856 0
M  V30 3153 H 307.38 -0.108383 -4.16259 0
M  V30 3154 H 309.977 2.62878 -4.65617 0
M  V30 3155 H 310.32 2.91877 -2.96839 0
M  V30 3156 H 310.853 1.39751 -3.72444 0
M  V30 3157 H 307.592 0.379771 -6.54399 0
M  V30 3158 H 307.112 1.8695 -5.69921 0
M  V30 3159 H 308.791 1.65686 -6.25426 0
M  V30 3160 N 308.923 1.53595 0.353017 0
M  V30 3161 C 310.172 1.69603 1.09168 0
M  V30 3162 C 310.485 0.460925 1.90092 0
M  V30 3163 O 311.691 0.501774 2.66823 0
M  V30 3164 C 310.147 2.99872 1.9901 0
M  V30 3165 C 309.755 4.30687 1.23339 0
M  V30 3166 C 311.499 3.25246 2.72792 0
M  V30 3167 C 309.406 5.52036 2.12156 0
M  V30 3168 H 308.336 0.631966 0.411261 0
M  V30 3169 H 310.987 1.80096 0.351802 0
M  V30 3170 H 309.369 2.83212 2.7678 0
M  V30 3171 H 310.543 4.58019 0.505456 0
M  V30 3172 H 308.858 4.11853 0.613663 0
M  V30 3173 H 311.455 4.13095 3.39495 0
M  V30 3174 H 311.798 2.41846 3.38846 0
M  V30 3175 H 312.331 3.42638 2.021 0
M  V30 3176 H 309.07 6.37951 1.50659 0
M  V30 3177 H 308.59 5.28966 2.82764 0
M  V30 3178 H 310.269 5.87313 2.71427 0
M  V30 3179 N 310.401 -0.613514 1.45168 0
M  V30 3180 C 311.649 -1.36997 1.48581 0
M  V30 3181 C 311.97 -1.94589 0.126545 0
M  V30 3182 O 311.24 -1.76816 -0.843372 0
M  V30 3183 H 309.82 -0.508558 0.547154 0
M  V30 3184 H 312.482 -0.720853 1.81079 0
M  V30 3185 H 311.578 -2.1924 2.22127 0
M  V30 3186 N 311.879 -1.3236 -0.855495 0
M  V30 3187 C 312.827 -1.2118 -1.9854 0
M  V30 3188 C 313.821 -0.116788 -1.68997 0
M  V30 3189 O 315.027 -0.279657 -1.77814 0
M  V30 3190 H 311.402 -0.375608 -0.651477 0
M  V30 3191 H 313.373 -2.16743 -2.05098 0
M  V30 3192 C 312.122 -0.950849 -3.34446 0
M  V30 3193 H 311.445 -1.78563 -3.57708 0
M  V30 3194 H 312.885 -0.912863 -4.14057 0
M  V30 3195 C 311.344 0.346404 -3.35114 0
M  V30 3196 O 311.874 1.35855 -3.7803 0
M  V30 3197 N 310.08 0.36808 -2.88259 0
M  V30 3198 H 309.627 -0.456102 -2.5353 0
M  V30 3199 H 309.585 1.23591 -2.89089 0
M  V30 3200 N 313.357 1.07166 -1.15556 0
M  V30 3201 C 314.773 1.31899 -0.898603 0
M  V30 3202 C 314.973 1.96333 0.453383 0
M  V30 3203 O 314.029 2.22438 1.19489 0
M  V30 3204 C 315.342 2.20826 -2.04099 0
M  V30 3205 C 316.89 2.34269 -2.07574 0
M  V30 3206 C 317.365 3.26546 -3.21141 0
M  V30 3207 N 318.856 3.34127 -3.20801 0
M  V30 3208 C 319.591 4.05595 -4.05315 0
M  V30 3209 N 319.087 4.79661 -4.99897 0
M  V30 3210 N 320.88 4.01555 -3.93332 0
M  V30 3211 H 313.031 0.637302 -2.02613 0
M  V30 3212 H 315.294 0.343468 -0.883591 0
M  V30 3213 H 315 1.80744 -3.01703 0
M  V30 3214 H 314.874 3.21364 -1.97496 0
M  V30 3215 H 317.261 2.73603 -1.10568 0
M  V30 3216 H 317.342 1.33429 -2.18244 0
M  V30 3217 H 316.986 2.87931 -4.184 0
M  V30 3218 H 316.916 4.27345 -3.07708 0
M  V30 3219 H 319.407 2.81336 -2.52306 0
M  V30 3220 H 319.72 5.31694 -5.60822 0
M  V30 3221 H 318.065 4.78671 -5.03884 0
M  V30 3222 H 321.256 3.42806 -3.18751 0
M  V30 3223 H 321.429 4.56987 -4.5942 0
M  V30 3224 N 314.835 0.952656 1.25548 0
M  V30 3225 C 316.084 0.602053 1.92505 0
M  V30 3226 C 316.397 -0.864663 1.75451 0
M  V30 3227 O 317.603 -1.32514 2.36965 0
M  V30 3228 C 316.059 1.02607 3.44963 0
M  V30 3229 C 315.667 2.51519 3.70732 0
M  V30 3230 C 317.411 0.747905 4.1786 0
M  V30 3231 C 315.318 2.87732 5.16686 0
M  V30 3232 H 314.248 0.22146 0.720744 0
M  V30 3233 H 316.899 1.15684 1.42441 0
M  V30 3234 H 315.281 0.399712 3.93978 0
M  V30 3235 H 316.455 3.19157 3.32378 0
M  V30 3236 H 314.77 2.76786 3.11092 0
M  V30 3237 H 317.367 0.994647 5.25367 0
M  V30 3238 H 317.71 -0.315629 4.15102 0
M  V30 3239 H 318.243 1.33452 3.74747 0
M  V30 3240 H 314.982 3.93095 5.24554 0
M  V30 3241 H 314.502 2.24765 5.56094 0
M  V30 3242 H 316.181 2.76817 5.84792 0
M  V30 3243 N 316.313 -1.40141 0.720998 0
M  V30 3244 C 317.543 -2.04798 0.27226 0
M  V30 3245 C 317.951 -1.54442 -1.09289 0
M  V30 3246 O 317.294 -0.698342 -1.69908 0
M  V30 3247 C 317.356 -3.59048 0.18027 0
M  V30 3248 C 317.02 -4.32317 1.48159 0
M  V30 3249 C 318.017 -4.59902 2.42458 0
M  V30 3250 C 315.702 -4.71125 1.74202 0
M  V30 3251 C 317.696 -5.25288 3.61042 0
M  V30 3252 C 315.383 -5.36242 2.93066 0
M  V30 3253 C 316.381 -5.63254 3.86308 0
M  V30 3254 O 316.069 -6.27024 5.03086 0
M  V30 3255 H 315.801 -0.665419 0.119139 0
M  V30 3256 H 318.355 -1.80436 0.981432 0
M  V30 3257 H 316.585 -3.82251 -0.58489 0
M  V30 3258 H 318.274 -4.05221 -0.234618 0
M  V30 3259 H 319.04 -4.30379 2.23604 0
M  V30 3260 H 314.919 -4.49466 1.02477 0
M  V30 3261 H 318.463 -5.46289 4.33837 0
M  V30 3262 H 314.36 -5.65185 3.11826 0
M  V30 3263 H 315.128 -6.4552 5.03235 0
M  V30 3264 N 317.792 -0.46758 -1.50504 0
M  V30 3265 C 319.022 0.086288 -2.0642 0
M  V30 3266 C 319.43 1.34369 -1.33197 0
M  V30 3267 O 318.773 1.79431 -0.393747 0
M  V30 3268 C 318.835 0.443846 -3.5675 0
M  V30 3269 C 318.499 -0.711035 -4.51435 0
M  V30 3270 C 319.496 -1.59205 -4.94924 0
M  V30 3271 C 317.181 -0.900363 -4.94165 0
M  V30 3272 C 319.175 -2.64683 -5.79846 0
M  V30 3273 C 316.862 -1.95837 -5.7887 0
M  V30 3274 C 317.86 -2.82997 -6.21612 0
M  V30 3275 O 317.548 -3.86977 -7.0463 0
M  V30 3276 H 317.28 -0.00217814 -0.675996 0
M  V30 3277 H 319.834 -0.654346 -1.94698 0
M  V30 3278 H 318.064 1.23762 -3.6636 0
M  V30 3279 H 319.753 0.932386 -3.95046 0
M  V30 3280 H 320.519 -1.45745 -4.62583 0
M  V30 3281 H 316.398 -0.231427 -4.60419 0
M  V30 3282 H 319.942 -3.32745 -6.13128 0
M  V30 3283 H 315.839 -2.09305 -6.10624 0
M  V30 3284 H 316.607 -3.83923 -7.22873 0
M  V30 3285 N 319.27 1.56325 -0.20005 0
M  V30 3286 C 320.202 2.16555 0.750771 0
M  V30 3287 C 321.215 1.12871 1.1732 0
M  V30 3288 O 322.404 1.39943 1.10807 0
M  V30 3289 C 319.504 2.71684 2.02586 0
M  V30 3290 C 318.677 4.00321 1.76244 0
M  V30 3291 C 317.736 4.40227 2.88248 0
M  V30 3292 O 316.762 5.07552 2.57642 0
M  V30 3293 N 317.964 4.04138 4.16717 0
M  V30 3294 H 320.729 2.98772 0.235685 0
M  V30 3295 H 318.29 1.6189 -0.0182594 0
M  V30 3296 H 320.282 2.95363 2.76664 0
M  V30 3297 H 318.852 1.93893 2.45202 0
M  V30 3298 H 318.072 3.84723 0.85919 0
M  V30 3299 H 319.36 4.84279 1.56048 0
M  V30 3300 H 318.758 3.49993 4.44434 0
M  V30 3301 H 317.315 4.32756 4.87407 0
M  V30 3302 N 320.748 -0.0735177 1.57428 0
M  V30 3303 C 321.696 -1.10628 2.04607 0
M  V30 3304 C 322.69 -1.40181 0.951088 0
M  V30 3305 O 323.896 -1.39608 1.1362 0
M  V30 3306 H 320.271 -0.374088 0.652351 0
M  V30 3307 H 322.242 -0.682218 2.90497 0
M  V30 3308 C 320.991 -2.41212 2.50423 0
M  V30 3309 H 320.314 -2.19322 3.34272 0
M  V30 3310 H 321.754 -3.11927 2.87189 0
M  V30 3311 C 320.213 -3.0705 1.38644 0
M  V30 3312 O 320.743 -3.95056 0.727582 0
M  V30 3313 N 318.949 -2.67645 1.132 0
M  V30 3314 H 318.496 -1.96169 1.66959 0
M  V30 3315 H 318.454 -3.1202 0.386147 0
M  V30 3316 N 322.226 -1.5378 -0.344866 0
M  V30 3317 C 323.642 -1.44015 -0.687888 0
M  V30 3318 C 323.842 -0.595834 -1.92489 0
M  V30 3319 O 322.898 -0.0863064 -2.52352 0
M  V30 3320 C 324.211 -2.87481 -0.881758 0
M  V30 3321 C 325.759 -2.97247 -0.980459 0
M  V30 3322 C 326.234 -4.41819 -1.20665 0
M  V30 3323 N 327.725 -4.45339 -1.27389 0
M  V30 3324 C 328.46 -5.54333 -1.46639 0
M  V30 3325 N 327.956 -6.73335 -1.63071 0
M  V30 3326 N 329.749 -5.41944 -1.49176 0
M  V30 3327 H 321.9 -2.07169 0.468475 0
M  V30 3328 H 324.163 -0.93643 0.147655 0
M  V30 3329 H 323.869 -3.51672 -0.0443444 0
M  V30 3330 H 323.743 -3.32352 -1.78388 0
M  V30 3331 H 326.13 -2.33197 -1.8084 0
M  V30 3332 H 326.211 -2.5574 -0.0552713 0
M  V30 3333 H 325.855 -5.06449 -0.383652 0
M  V30 3334 H 325.785 -4.80917 -2.14539 0
M  V30 3335 H 328.276 -3.59585 -1.1622 0
M  V30 3336 H 328.589 -7.52165 -1.77391 0
M  V30 3337 H 326.934 -6.76282 -1.60209 0
M  V30 3338 H 330.125 -4.47932 -1.3592 0
M  V30 3339 H 330.298 -6.26946 -1.63837 0
M  V30 3340 N 323.704 0.605807 -1.45491 0
M  V30 3341 C 324.953 1.36086 -1.48874 0
M  V30 3342 C 325.266 1.95131 -0.135333 0
M  V30 3343 O 326.472 2.7146 -0.0468144 0
M  V30 3344 C 324.928 2.46518 -2.62215 0
M  V30 3345 C 324.536 1.93877 -4.03876 0
M  V30 3346 C 326.28 3.23512 -2.74846 0
M  V30 3347 C 324.187 3.01801 -5.08596 0
M  V30 3348 H 323.117 0.511497 -0.553974 0
M  V30 3349 H 325.768 0.649089 -1.71636 0
M  V30 3350 H 324.15 3.20388 -2.32739 0
M  V30 3351 H 325.324 1.26704 -4.43038 0
M  V30 3352 H 323.639 1.29622 -3.95711 0
M  V30 3353 H 326.236 4.04013 -3.50253 0
M  V30 3354 H 326.579 3.74631 -1.81542 0
M  V30 3355 H 327.112 2.56742 -3.03856 0
M  V30 3356 H 323.851 2.55597 -6.03614 0
M  V30 3357 H 323.371 3.67535 -4.74002 0
M  V30 3358 H 325.05 3.66152 -5.33424 0
M  V30 3359 N 325.182 1.32811 0.848464 0
M  V30 3360 C 326.459 1.14334 1.58704 0
M  V30 3361 C 326.839 -0.293948 2.09043 0
M  V30 3362 O 326.187 -1.29153 1.88499 0
M  V30 3363 C 326.397 2.17626 2.72837 0
M  V30 3364 C 327.745 2.51282 3.42261 0
M  V30 3365 O 328.769 2.16219 2.83068 0
M  V30 3366 O 327.628 3.11413 4.49093 0
M  V30 3367 H 324.722 0.441601 0.699226 0
M  V30 3368 H 327.268 1.44362 0.892053 0
M  V30 3369 H 326.04 3.14211 2.3321 0
M  V30 3370 H 325.663 1.88628 3.50008 0
M  V30 3371 N 326.66 -1.06551 1.16123 0
M  V30 3372 C 327.607 -2.13961 0.865414 0
M  V30 3373 C 328.577 -1.65066 -0.185055 0
M  V30 3374 O 329.762 -1.90732 -0.05083 0
M  V30 3375 C 326.902 -3.43113 0.369776 0
M  V30 3376 C 326.015 -4.05756 1.48276 0
M  V30 3377 C 325.15 -5.22773 0.942414 0
M  V30 3378 C 324.189 -5.77395 2.03179 0
M  V30 3379 N 323.326 -6.85731 1.50721 0
M  V30 3380 H 328.166 -2.38605 1.78527 0
M  V30 3381 H 325.703 -1.17072 0.890646 0
M  V30 3382 H 327.661 -4.17151 0.0640643 0
M  V30 3383 H 326.291 -3.18695 -0.513143 0
M  V30 3384 H 325.343 -3.29292 1.9045 0
M  V30 3385 H 326.655 -4.42351 2.30493 0
M  V30 3386 H 325.809 -6.03827 0.589729 0
M  V30 3387 H 324.548 -4.87618 0.0895191 0
M  V30 3388 H 323.553 -4.94981 2.3932 0
M  V30 3389 H 324.778 -6.14603 2.8886 0
M  V30 3390 H 322.724 -6.52499 0.676811 0
M  V30 3391 H 322.641 -7.21254 2.26557 0
M  V30 3392 H 323.909 -7.7047 1.18303 0
M  V30 3393 N 328.138 -0.959301 -1.25041 0
M  V30 3394 C 329.068 -0.501388 -2.28053 0
M  V30 3395 C 330.049 0.454673 -1.63911 0
M  V30 3396 O 331.234 0.352618 -1.90972 0
M  V30 3397 C 328.364 0.217224 -3.4662 0
M  V30 3398 C 327.318 -0.654034 -4.22973 0
M  V30 3399 C 326.644 0.195589 -5.34342 0
M  V30 3400 C 327.944 -1.93447 -4.85155 0
M  V30 3401 H 329.638 -1.36238 -2.66608 0
M  V30 3402 H 327.184 -0.656534 -1.28163 0
M  V30 3403 H 329.137 0.548732 -4.17812 0
M  V30 3404 H 327.861 1.1125 -3.07068 0
M  V30 3405 H 326.52 -0.968693 -3.5357 0
M  V30 3406 H 326.168 1.09076 -4.91031 0
M  V30 3407 H 325.868 -0.384091 -5.86343 0
M  V30 3408 H 327.392 0.521958 -6.08365 0
M  V30 3409 H 328.806 -1.66908 -5.48466 0
M  V30 3410 H 327.203 -2.46018 -5.47353 0
M  V30 3411 H 328.273 -2.63466 -4.07079 0
M  V30 3412 N 329.616 1.39756 -0.72842 0
M  V30 3413 C 330.566 2.2792 -0.0603424 0
M  V30 3414 C 331.55 1.43922 0.719399 0
M  V30 3415 O 332.742 1.66895 0.589489 0
M  V30 3416 C 329.871 3.32582 0.851104 0
M  V30 3417 C 328.957 4.24049 0.0658641 0
M  V30 3418 N 329.348 4.96653 -0.957578 0
M  V30 3419 C 327.646 4.45013 0.296509 0
M  V30 3420 C 328.347 5.63836 -1.43052 0
M  V30 3421 N 327.323 5.38397 -0.750315 0
M  V30 3422 H 331.125 2.81504 -0.84455 0
M  V30 3423 H 328.639 1.5236 -0.562155 0
M  V30 3424 H 330.636 3.94603 1.34514 0
M  V30 3425 H 329.296 2.80558 1.63454 0
M  V30 3426 H 330.307 5.00297 -1.33877 0
M  V30 3427 H 326.984 4.03943 1.05527 0
M  V30 3428 H 328.374 6.31974 -2.28163 0
M  V30 3429 N 331.094 0.475555 1.50254 0
M  V30 3430 C 332.322 -0.0754493 2.06762 0
M  V30 3431 C 332.737 -1.33111 1.33891 0
M  V30 3432 O 332.094 -1.77846 0.40952 0
M  V30 3433 C 332.145 -0.359008 3.59713 0
M  V30 3434 O 331.866 0.846851 4.29837 0
M  V30 3435 C 333.367 -0.956484 4.32858 0
M  V30 3436 H 330.587 0.00907525 0.670939 0
M  V30 3437 H 333.131 0.665618 1.93364 0
M  V30 3438 H 331.286 -1.05001 3.72899 0
M  V30 3439 H 331.7 0.594162 5.21124 0
M  V30 3440 H 333.174 -1.10463 5.40834 0
M  V30 3441 H 333.651 -1.94775 3.93649 0
M  V30 3442 H 334.257 -0.303723 4.24214 0
M  V30 3443 N 332.573 -1.56217 0.208337 0
M  V30 3444 C 333.801 -2.02337 -0.43215 0
M  V30 3445 C 334.216 -1.08834 -1.54275 0
M  V30 3446 O 333.573 -0.0955462 -1.8225 0
M  V30 3447 C 333.624 -3.48072 -0.976138 0
M  V30 3448 O 333.345 -4.38007 0.0901621 0
M  V30 3449 C 334.846 -4.09773 -1.69119 0
M  V30 3450 H 332.066 -0.662385 -0.10718 0
M  V30 3451 H 334.61 -2.01966 0.320923 0
M  V30 3452 H 332.765 -3.49099 -1.67954 0
M  V30 3453 H 333.179 -5.23543 -0.316701 0
M  V30 3454 H 334.653 -5.13556 -2.02397 0
M  V30 3455 H 335.13 -3.53999 -2.59964 0
M  V30 3456 H 335.736 -4.12556 -1.03332 0
M  V30 3457 N 334.051 0.0651679 -1.57465 0
M  V30 3458 C 335.467 0.420105 -1.53972 0
M  V30 3459 C 335.667 1.78782 -0.929474 0
M  V30 3460 O 334.723 2.46771 -0.534839 0
M  V30 3461 C 336.036 0.355084 -2.98596 0
M  V30 3462 C 337.584 0.434792 -3.09965 0
M  V30 3463 C 338.059 0.399609 -4.56253 0
M  V30 3464 N 339.55 0.459488 -4.60915 0
M  V30 3465 C 340.285 0.454584 -5.71595 0
M  V30 3466 N 339.781 0.404102 -6.9162 0
M  V30 3467 N 341.574 0.501635 -5.59857 0
M  V30 3468 H 333.725 -0.830328 -1.95498 0
M  V30 3469 H 335.988 -0.312244 -0.895102 0
M  V30 3470 H 335.694 -0.583357 -3.46828 0
M  V30 3471 H 335.568 1.16275 -3.58831 0
M  V30 3472 H 337.955 1.36366 -2.61703 0
M  V30 3473 H 338.036 -0.40157 -2.52628 0
M  V30 3474 H 337.68 -0.525436 -5.05175 0
M  V30 3475 H 337.61 1.25359 -5.11461 0
M  V30 3476 H 340.101 0.502482 -3.74544 0
M  V30 3477 H 340.414 0.404468 -7.71741 0
M  V30 3478 H 338.759 0.37069 -6.94011 0
M  V30 3479 H 341.95 0.538812 -4.64989 0
M  V30 3480 H 342.123 0.494345 -6.46112 0
M  V30 3481 N 335.529 1.53961 0.336706 0
M  V30 3482 C 336.754 1.75797 1.10046 0
M  V30 3483 C 337.179 0.498985 1.81361 0
M  V30 3484 O 336.537 -0.548769 1.72795 0
M  V30 3485 C 336.585 2.94257 2.08436 0
M  V30 3486 O 335.689 2.64883 3.16087 0
M  V30 3487 H 335.03 0.582936 0.317934 0
M  V30 3488 H 337.56 2.00945 0.38501 0
M  V30 3489 H 337.57 3.21237 2.51537 0
M  V30 3490 H 336.245 3.85564 1.55927 0
M  V30 3491 H 334.822 2.48812 2.77753 0
M  V30 3492 N 337.007 -0.598083 1.45811 0
M  V30 3493 C 338.253 -1.35882 1.50545 0
M  V30 3494 C 338.586 -1.93616 0.150445 0
M  V30 3495 O 337.861 -1.75604 -0.83628 0
M  V30 3496 C 338.144 -2.49966 2.59208 0
M  V30 3497 C 337.997 -1.97367 4.04186 0
M  V30 3498 C 339.316 -3.52068 2.64076 0
M  V30 3499 H 336.435 -0.492717 0.548087 0
M  V30 3500 H 339.077 -0.673319 1.77669 0
M  V30 3501 H 337.227 -3.08443 2.3621 0
M  V30 3502 H 338.899 -1.43466 4.38423 0
M  V30 3503 H 337.142 -1.283 4.14393 0
M  V30 3504 H 337.813 -2.79649 4.75921 0
M  V30 3505 H 340.289 -3.03448 2.84708 0
M  V30 3506 H 339.165 -4.2937 3.41954 0
M  V30 3507 H 339.426 -4.08304 1.69531 0
M  V30 3508 N 338.485 -1.33259 -0.841409 0
M  V30 3509 C 339.732 -1.24572 -1.5965 0
M  V30 3510 C 340.06 0.189137 -1.93578 0
M  V30 3511 O 339.315 1.14566 -1.5866 0
M  V30 3512 C 339.614 -2.06381 -2.9179 0
M  V30 3513 C 339.28 -3.556 -2.77235 0
M  V30 3514 C 337.942 -3.96282 -2.72973 0
M  V30 3515 C 340.294 -4.50433 -2.62221 0
M  V30 3516 C 337.622 -5.30017 -2.51592 0
M  V30 3517 C 339.974 -5.84327 -2.42374 0
M  V30 3518 C 338.638 -6.24194 -2.36512 0
M  V30 3519 H 337.908 -0.455842 -0.5842 0
M  V30 3520 H 340.555 -1.6482 -0.975016 0
M  V30 3521 H 338.86 -1.58903 -3.5813 0
M  V30 3522 H 340.557 -1.97019 -3.49263 0
M  V30 3523 H 337.147 -3.23298 -2.81384 0
M  V30 3524 H 341.331 -4.19914 -2.64549 0
M  V30 3525 H 336.587 -5.59947 -2.45499 0
M  V30 3526 H 340.761 -6.57414 -2.29739 0
M  V30 3527 H 338.388 -7.27759 -2.19706 0
M  V30 3528 N 339.963 1.05934 -1.16686 0
M  V30 3529 C 341.24 1.75643 -0.860747 0
M  V30 3530 C 341.62 2.01144 0.640641 0
M  V30 3531 O 340.968 1.64147 1.58959 0
M  V30 3532 C 341.178 3.05493 -1.68745 0
M  V30 3533 C 342.526 3.79581 -1.90271 0
M  V30 3534 O 343.55 3.15344 -1.65641 0
M  V30 3535 O 342.409 4.9499 -2.31618 0
M  V30 3536 H 339.503 0.763426 -0.317977 0
M  V30 3537 H 342.049 1.1217 -1.27342 0
M  V30 3538 H 340.821 2.8264 -2.70611 0
M  V30 3539 H 340.444 3.76702 -1.27206 0
M  V30 3540 N 341.441 0.965919 1.2453 0
M  V30 3541 C 342.687 0.62776 1.92839 0
M  V30 3542 C 343.02 -0.834694 1.75347 0
M  V30 3543 O 342.295 -1.60031 1.10546 0
M  V30 3544 C 342.578 1.00109 3.45905 0
M  V30 3545 C 342.431 2.52011 3.72573 0
M  V30 3546 C 343.75 0.53435 4.36844 0
M  V30 3547 H 340.869 0.229537 0.700344 0
M  V30 3548 H 343.511 1.2046 1.46933 0
M  V30 3549 H 341.661 0.510238 3.85135 0
M  V30 3550 H 343.333 3.08559 3.42912 0
M  V30 3551 H 341.576 2.95287 3.17786 0
M  V30 3552 H 342.247 2.73183 4.79661 0
M  V30 3553 H 344.723 0.955565 4.04979 0
M  V30 3554 H 343.599 0.824152 5.42678 0
M  V30 3555 H 343.86 -0.565589 4.38467 0
M  V30 3556 N 342.919 -1.39368 0.735821 0
M  V30 3557 C 344.335 -1.54204 0.411492 0
M  V30 3558 C 344.535 -1.70268 -1.07755 0
M  V30 3559 O 343.591 -1.70364 -1.86366 0
M  V30 3560 C 344.904 -2.75925 1.19523 0
M  V30 3561 C 346.452 -2.89761 1.18354 0
M  V30 3562 C 346.927 -4.14421 1.94986 0
M  V30 3563 N 348.418 -4.21462 1.92156 0
M  V30 3564 C 349.153 -5.16871 2.48258 0
M  V30 3565 N 348.649 -6.18063 3.13001 0
M  V30 3566 N 350.442 -5.09093 2.38287 0
M  V30 3567 H 342.593 -1.27189 1.70108 0
M  V30 3568 H 344.856 -0.616517 0.720147 0
M  V30 3569 H 344.562 -2.70401 2.24892 0
M  V30 3570 H 344.436 -3.68614 0.800222 0
M  V30 3571 H 346.823 -2.94777 0.137975 0
M  V30 3572 H 346.904 -1.98133 1.61793 0
M  V30 3573 H 346.548 -4.10166 2.99543 0
M  V30 3574 H 346.478 -5.05095 1.48953 0
M  V30 3575 H 348.969 -3.48979 1.44991 0
M  V30 3576 H 349.282 -6.87326 3.53275 0
M  V30 3577 H 347.627 -6.18448 3.17091 0
M  V30 3578 H 350.818 -4.28973 1.8735 0
M  V30 3579 H 350.991 -5.83272 2.82308 0
M  V30 3580 N 344.397 -0.483516 -1.5 0
M  V30 3581 C 345.645 0.067027 -2.01989 0
M  V30 3582 C 345.966 1.3909 -1.36671 0
M  V30 3583 O 345.236 1.88978 -0.516152 0
M  V30 3584 H 343.816 0.0277606 -0.746484 0
M  V30 3585 H 346.478 -0.636773 -1.84204 0
M  V30 3586 H 345.574 0.209484 -3.11396 0
M  V30 3587 N 345.875 1.56104 -0.216619 0
M  V30 3588 C 346.805 2.23063 0.690296 0
M  V30 3589 C 347.786 1.20072 1.20485 0
M  V30 3590 O 348.971 1.48643 1.24976 0
M  V30 3591 C 346.101 2.90672 1.90072 0
M  V30 3592 C 345.055 4.00092 1.5202 0
M  V30 3593 C 344.381 4.54972 2.80899 0
M  V30 3594 C 345.681 5.17398 0.71391 0
M  V30 3595 H 347.375 2.99109 0.132038 0
M  V30 3596 H 344.921 1.43866 0.0620664 0
M  V30 3597 H 346.874 3.36204 2.54057 0
M  V30 3598 H 345.598 2.12066 2.48386 0
M  V30 3599 H 344.257 3.55283 0.903839 0
M  V30 3600 H 343.905 3.73102 3.37348 0
M  V30 3601 H 343.605 5.28817 2.56176 0
M  V30 3602 H 345.129 5.0322 3.45836 0
M  V30 3603 H 346.543 5.59342 1.25735 0
M  V30 3604 H 344.94 5.97444 0.563951 0
M  V30 3605 H 346.01 4.84088 -0.280527 0
M  V30 3606 N 347.353 -0.0568162 1.57498 0
M  V30 3607 C 348.581 -0.765626 1.92213 0
M  V30 3608 C 348.996 -1.70353 0.813961 0
M  V30 3609 O 348.353 -1.81268 -0.211701 0
M  V30 3610 C 348.404 -1.5465 3.2675 0
M  V30 3611 O 348.125 -0.646278 4.33307 0
M  V30 3612 C 349.626 -2.35497 3.75574 0
M  V30 3613 H 346.846 -0.216835 0.634999 0
M  V30 3614 H 349.39 -0.0226146 2.04487 0
M  V30 3615 H 347.545 -2.24165 3.15957 0
M  V30 3616 H 347.959 -1.19093 5.108 0
M  V30 3617 H 349.433 -2.85722 4.72299 0
M  V30 3618 H 349.91 -3.15692 3.05344 0
M  V30 3619 H 350.516 -1.7111 3.8936 0
M  V30 3620 N 348.832 -1.54138 -0.328536 0
M  V30 3621 C 350.057 -1.76378 -1.09112 0
M  V30 3622 C 350.482 -0.508596 -1.81094 0
M  V30 3623 O 349.84 0.539598 -1.73084 0
M  V30 3624 C 349.888 -2.95358 -2.06872 0
M  V30 3625 O 348.992 -2.66556 -3.14677 0
M  V30 3626 H 348.333 -0.584614 -0.314838 0
M  V30 3627 H 350.863 -2.01146 -0.374348 0
M  V30 3628 H 350.873 -3.22566 -2.4983 0
M  V30 3629 H 349.548 -3.86385 -1.5388 0
M  V30 3630 H 348.125 -2.50282 -2.7643 0
M  V30 3631 N 350.31 0.590341 -1.46126 0
M  V30 3632 C 351.24 1.71032 -1.58966 0
M  V30 3633 C 352.221 1.64302 -0.440335 0
M  V30 3634 O 353.406 1.82436 -0.665634 0
M  V30 3635 C 350.536 3.09665 -1.57241 0
M  V30 3636 C 349.49 3.31221 -2.71066 0
M  V30 3637 C 348.816 4.70303 -2.54399 0
M  V30 3638 C 350.116 3.19796 -4.1295 0
M  V30 3639 H 351.81 1.60543 -2.52718 0
M  V30 3640 H 349.356 0.770933 -1.21625 0
M  V30 3641 H 351.309 3.87831 -1.64819 0
M  V30 3642 H 350.033 3.21036 -0.600289 0
M  V30 3643 H 348.692 2.55452 -2.62944 0
M  V30 3644 H 348.34 4.78429 -1.55288 0
M  V30 3645 H 348.04 4.85679 -3.30741 0
M  V30 3646 H 349.564 5.50647 -2.63857 0
M  V30 3647 H 350.978 3.87815 -4.22223 0
M  V30 3648 H 349.375 3.46696 -4.89818 0
M  V30 3649 H 350.445 2.16983 -4.33643 0
M  V30 3650 N 351.788 1.33704 0.83433 0
M  V30 3651 C 353.199 1.22813 1.4062 0
M  V30 3652 C 353.55 -0.151107 1.95617 0
M  V30 3653 O 352.675 -1.05092 1.89168 0
M  V30 3654 C 353.27 2.22355 2.55624 0
M  V30 3655 C 351.829 2.1529 3.08751 0
M  V30 3656 C 350.976 2.09589 1.8157 0
M  V30 3657 H 353.927 1.45236 0.639702 0
M  V30 3658 H 353.948 1.83391 3.33389 0
M  V30 3659 H 353.46 3.22728 2.15566 0
M  V30 3660 H 351.561 1.18235 3.53343 0
M  V30 3661 H 351.674 3.06038 3.68616 0
M  V30 3662 H 350.038 1.55134 2.02004 0
M  V30 3663 H 350.821 3.11777 1.43701 0
M  V30 3664 N 353.266 -1.05314 1.17247 0
M  V30 3665 C 354.213 -2.13031 0.888058 0
M  V30 3666 C 355.183 -1.65253 -0.167537 0
M  V30 3667 O 356.368 -1.90775 -0.0305974 0
M  V30 3668 C 353.508 -3.42702 0.406147 0
M  V30 3669 C 352.621 -4.04161 1.52572 0
M  V30 3670 C 351.756 -5.21744 0.997808 0
M  V30 3671 C 350.795 -5.75207 2.09291 0
M  V30 3672 N 349.932 -6.84094 1.57986 0
M  V30 3673 H 354.772 -2.36698 1.81048 0
M  V30 3674 H 352.309 -1.16121 0.903013 0
M  V30 3675 H 354.267 -4.17059 0.108305 0
M  V30 3676 H 352.897 -3.19222 -0.479313 0
M  V30 3677 H 351.949 -3.27253 1.93931 0
M  V30 3678 H 353.261 -4.39881 2.35172 0
M  V30 3679 H 352.415 -6.03168 0.653739 0
M  V30 3680 H 351.154 -4.87495 0.141232 0
M  V30 3681 H 350.159 -4.92414 2.44557 0
M  V30 3682 H 351.384 -6.11505 2.95362 0
M  V30 3683 H 349.33 -6.51745 0.74598 0
M  V30 3684 H 349.247 -7.18811 2.34195 0
M  V30 3685 H 350.515 -7.69172 1.26468 0
M  V30 3686 N 354.744 -0.972509 -1.24016 0
M  V30 3687 C 355.99 -0.637978 -1.92504 0
M  V30 3688 C 356.323 0.825383 -1.75787 0
M  V30 3689 O 355.598 1.59442 -1.11393 0
M  V30 3690 C 355.881 -1.01942 -3.45369 0
M  V30 3691 C 355.734 -2.53983 -3.71231 0
M  V30 3692 C 357.053 -0.55751 -4.36555 0
M  V30 3693 H 354.172 -0.233248 -0.699117 0
M  V30 3694 H 356.814 -1.21238 -1.46292 0
M  V30 3695 H 354.964 -0.530656 -3.84859 0
M  V30 3696 H 356.636 -3.10374 -3.41271 0
M  V30 3697 H 354.879 -2.96968 -3.16216 0
M  V30 3698 H 355.55 -2.75723 -4.78206 0
M  V30 3699 H 358.026 -0.977029 -4.04467 0
M  V30 3700 H 356.902 -0.85292 -5.42233 0
M  V30 3701 H 357.163 0.542328 -4.38761 0
M  V30 3702 N 356.222 1.38976 -0.743202 0
M  V30 3703 C 357.499 1.94351 -0.220705 0
M  V30 3704 C 357.879 1.67935 1.2791 0
M  V30 3705 O 357.227 1.01211 2.04862 0
M  V30 3706 C 357.437 3.44426 -0.563171 0
M  V30 3707 C 358.785 4.2144 -0.517046 0
M  V30 3708 O 359.809 3.52661 -0.500846 0
M  V30 3709 O 358.668 5.44032 -0.518806 0
M  V30 3710 H 355.762 0.825879 -0.043047 0
M  V30 3711 H 358.308 1.48429 -0.822618 0
M  V30 3712 H 357.08 3.5712 -1.59941 0
M  V30 3713 H 356.703 3.97543 0.0672883 0
M  V30 3714 N 357.7 0.491464 1.49741 0
M  V30 3715 C 358.949 -0.0582189 2.01616 0
M  V30 3716 C 359.262 -1.38927 1.3769 0
M  V30 3717 O 360.468 -2.02509 1.80838 0
M  V30 3718 C 358.924 -0.154235 3.59569 0
M  V30 3719 C 358.532 1.1696 4.32463 0
M  V30 3720 C 360.276 -0.65479 4.1942 0
M  V30 3721 C 358.183 1.03627 5.8225 0
M  V30 3722 H 357.113 -0.0255317 0.753568 0
M  V30 3723 H 359.764 0.629445 1.72367 0
M  V30 3724 H 358.146 -0.906138 3.85493 0
M  V30 3725 H 359.32 1.93405 4.18248 0
M  V30 3726 H 357.635 1.60285 3.84315 0
M  V30 3727 H 360.232 -0.771903 5.29099 0
M  V30 3728 H 360.575 -1.65127 3.8215 0
M  V30 3729 H 361.108 0.040304 3.9778 0
M  V30 3730 H 357.847 2.00672 6.24028 0
M  V30 3731 H 357.367 0.312546 5.98985 0
M  V30 3732 H 359.046 0.711114 6.4308 0
M  V30 3733 N 359.178 -1.55987 0.224894 0
M  V30 3734 C 360.108 -2.23426 -0.678457 0
M  V30 3735 C 361.089 -1.20709 -1.19847 0
M  V30 3736 O 362.274 -1.49304 -1.24186 0
M  V30 3737 C 359.404 -2.91676 -1.88527 0
M  V30 3738 C 358.358 -4.00893 -1.49896 0
M  V30 3739 C 357.684 -4.56455 -2.78483 0
M  V30 3740 C 358.984 -5.17769 -0.686461 0
M  V30 3741 H 360.678 -2.99175 -0.116173 0
M  V30 3742 H 358.224 -1.43897 -0.054436 0
M  V30 3743 H 360.177 -3.37547 -2.5227 0
M  V30 3744 H 358.901 -2.1338 -2.47258 0
M  V30 3745 H 357.56 -3.55758 -0.884985 0
M  V30 3746 H 357.208 -3.74886 -3.35365 0
M  V30 3747 H 356.908 -5.30169 -2.53368 0
M  V30 3748 H 358.432 -5.05047 -3.43162 0
M  V30 3749 H 359.846 -5.60001 -1.22767 0
M  V30 3750 H 358.243 -5.97735 -0.532259 0
M  V30 3751 H 359.313 -4.83932 0.306196 0
M  V30 3752 N 360.656 0.0484629 -1.57525 0
M  V30 3753 C 361.886 0.754326 -1.92337 0
M  V30 3754 C 362.294 1.70443 -0.82132 0
M  V30 3755 O 361.637 1.82466 0.21254 0
M  V30 3756 C 361.699 1.58231 -3.22805 0
M  V30 3757 C 361.363 0.799074 -4.4996 0
M  V30 3758 C 362.36 0.1079 -5.19788 0
M  V30 3759 C 360.045 0.759345 -4.96527 0
M  V30 3760 C 362.039 -0.612516 -6.3445 0
M  V30 3761 C 359.726 0.0351713 -6.1109 0
M  V30 3762 C 360.724 -0.649537 -6.79904 0
M  V30 3763 O 360.412 -1.36199 -7.92278 0
M  V30 3764 H 360.144 0.218257 -0.639797 0
M  V30 3765 H 362.698 0.0159295 -2.05394 0
M  V30 3766 H 360.928 2.36406 -3.06021 0
M  V30 3767 H 362.617 2.16898 -3.43089 0
M  V30 3768 H 363.383 0.129748 -4.84826 0
M  V30 3769 H 359.262 1.28177 -4.42822 0
M  V30 3770 H 362.806 -1.14751 -6.88097 0
M  V30 3771 H 358.703 0.0113314 -6.45499 0
M  V30 3772 H 359.471 -1.27366 -8.0853 0
M  V30 3773 N 362.134 1.5431 0.320358 0
M  V30 3774 C 363.382 1.72327 1.05583 0
M  V30 3775 C 363.703 0.50149 1.88441 0
M  V30 3776 O 362.973 -0.48448 1.89815 0
M  V30 3777 H 361.553 0.635387 0.3928 0
M  V30 3778 H 364.215 1.91621 0.356019 0
M  V30 3779 H 363.311 2.60426 1.72003 0
M  V30 3780 N 363.613 -0.582584 1.46437 0
M  V30 3781 C 364.843 -1.36484 1.55099 0
M  V30 3782 C 365.251 -1.88233 0.191056 0
M  V30 3783 O 364.594 -1.6429 -0.821858 0
M  V30 3784 C 364.656 -2.588 2.49525 0
M  V30 3785 C 364.32 -2.28517 3.95764 0
M  V30 3786 C 365.317 -1.87346 4.84972 0
M  V30 3787 C 363.002 -2.40658 4.40896 0
M  V30 3788 C 364.996 -1.5871 6.17325 0
M  V30 3789 C 362.683 -2.11635 5.73284 0
M  V30 3790 C 363.681 -1.70725 6.61318 0
M  V30 3791 O 363.369 -1.42057 7.91249 0
M  V30 3792 H 363.101 -0.423297 0.527063 0
M  V30 3793 H 365.655 -0.715188 1.92547 0
M  V30 3794 H 363.885 -3.26571 2.07095 0
M  V30 3795 H 365.574 -3.20868 2.48593 0
M  V30 3796 H 366.34 -1.77481 4.5136 0
M  V30 3797 H 362.219 -2.71463 3.72598 0
M  V30 3798 H 365.763 -1.26704 6.85997 0
M  V30 3799 H 361.66 -2.21124 6.06444 0
M  V30 3800 H 362.428 -1.55901 8.03515 0
M  V30 3801 N 365.091 -1.34144 -0.827227 0
M  V30 3802 C 366.023 -1.21206 -1.9453 0
M  V30 3803 C 367.036 -0.140176 -1.62195 0
M  V30 3804 O 368.225 -0.391647 -1.7415 0
M  V30 3805 C 365.325 -0.839141 -3.28347 0
M  V30 3806 C 364.498 -2.0051 -3.88734 0
M  V30 3807 C 363.557 -1.61128 -5.00923 0
M  V30 3808 O 362.583 -2.32726 -5.19449 0
M  V30 3809 N 363.785 -0.522958 -5.7814 0
M  V30 3810 H 366.55 -2.17525 -2.06162 0
M  V30 3811 H 364.111 -1.27043 -1.00358 0
M  V30 3812 H 366.103 -0.557556 -4.00841 0
M  V30 3813 H 364.673 0.0337293 -3.12582 0
M  V30 3814 H 363.893 -2.45166 -3.08686 0
M  V30 3815 H 365.181 -2.78498 -4.25812 0
M  V30 3816 H 364.579 0.0723518 -5.65654 0
M  V30 3817 H 363.136 -0.301089 -6.51104 0
M  V30 3818 N 366.569 1.04691 -1.17803 0
M  V30 3819 C 367.846 1.7472 -0.879328 0
M  V30 3820 C 368.226 2.01812 0.619271 0
M  V30 3821 O 367.574 1.65824 1.57209 0
M  V30 3822 C 367.784 3.03686 -1.71976 0
M  V30 3823 C 369.132 3.77542 -1.94286 0
M  V30 3824 O 370.156 3.13569 -1.68976 0
M  V30 3825 O 369.015 4.92506 -2.36855 0
M  V30 3826 H 366.109 0.760011 -0.326056 0
M  V30 3827 H 368.655 1.10813 -1.28525 0
M  V30 3828 H 367.427 2.79754 -2.73594 0
M  V30 3829 H 367.05 3.75332 -1.31194 0
M  V30 3830 N 368.047 0.979072 1.23499 0
M  V30 3831 C 369.324 0.563674 1.87302 0
M  V30 3832 C 369.704 -0.959199 1.88049 0
M  V30 3833 O 369.052 -1.83535 1.36114 0
M  V30 3834 C 369.262 1.16822 3.28867 0
M  V30 3835 C 370.61 1.26014 4.0547 0
M  V30 3836 O 371.634 1.12158 3.38082 0
M  V30 3837 O 370.493 1.48044 5.26066 0
M  V30 3838 H 367.587 0.189602 0.804972 0
M  V30 3839 H 370.133 1.07407 1.31384 0
M  V30 3840 H 368.905 2.21049 3.22883 0
M  V30 3841 H 368.528 0.642564 3.92373 0
M  V30 3842 N 369.525 -1.3858 0.750561 0
M  V30 3843 C 370.936 -1.82927 0.373438 0
M  V30 3844 C 371.287 -1.62634 -1.09748 0
M  V30 3845 O 370.412 -1.12588 -1.84805 0
M  V30 3846 C 371.007 -3.32088 0.671029 0
M  V30 3847 C 369.566 -3.74795 0.34722 0
M  V30 3848 C 368.713 -2.61391 0.92575 0
M  V30 3849 H 371.664 -1.27351 0.946958 0
M  V30 3850 H 371.685 -3.80465 -0.0518269 0
M  V30 3851 H 371.197 -3.46826 1.74164 0
M  V30 3852 H 369.298 -3.65638 -0.716933 0
M  V30 3853 H 369.411 -4.71667 0.840656 0
M  V30 3854 H 367.775 -2.52265 0.351327 0
M  V30 3855 H 368.558 -2.78929 2.00133 0
M  V30 3856 N 371.003 -0.499398 -1.49478 0
M  V30 3857 C 371.913 0.284489 -2.32869 0
M  V30 3858 C 372.929 0.968885 -1.44529 0
M  V30 3859 O 374.105 0.95062 -1.77553 0
M  V30 3860 C 371.17 1.33594 -3.19928 0
M  V30 3861 C 370.231 0.665149 -4.24116 0
M  V30 3862 C 369.464 1.6665 -5.07014 0
M  V30 3863 O 369.687 2.89618 -4.91404 0
M  V30 3864 O 368.621 1.22271 -5.8935 0
M  V30 3865 H 372.447 -0.39802 -3.01081 0
M  V30 3866 H 370.032 -0.260758 -1.47107 0
M  V30 3867 H 371.914 1.94431 -3.73864 0
M  V30 3868 H 370.589 2.0014 -2.54412 0
M  V30 3869 H 369.496 0.0170769 -3.74096 0
M  V30 3870 H 370.829 0.0421555 -4.92182 0
M  V30 3871 N 372.481 1.55866 -0.233164 0
M  V30 3872 C 373.711 2.02704 0.399325 0
M  V30 3873 C 374.119 1.11204 1.53069 0
M  V30 3874 O 373.462 0.116182 1.83332 0
M  V30 3875 C 373.524 3.45844 0.981429 0
M  V30 3876 C 373.188 4.56997 -0.0159561 0
M  V30 3877 C 374.185 5.13384 -0.820552 0
M  V30 3878 C 371.87 5.0211 -0.138072 0
M  V30 3879 C 373.864 6.13365 -1.73386 0
M  V30 3880 C 371.551 6.01926 -1.0549 0
M  V30 3881 C 372.549 6.57431 -1.85132 0
M  V30 3882 O 372.237 7.55302 -2.75272 0
M  V30 3883 H 371.969 0.668459 0.100692 0
M  V30 3884 H 374.523 2.02387 -0.35052 0
M  V30 3885 H 372.753 3.43267 1.78058 0
M  V30 3886 H 374.442 3.76262 1.52255 0
M  V30 3887 H 375.208 4.79372 -0.736721 0
M  V30 3888 H 371.087 4.5858 0.471737 0
M  V30 3889 H 374.631 6.56614 -2.35592 0
M  V30 3890 H 370.528 6.35359 -1.1397 0
M  V30 3891 H 371.296 7.72867 -2.69477 0
M  V30 3892 N 373.959 -0.0401083 1.57549 0
M  V30 3893 C 374.889 -1.04384 2.08869 0
M  V30 3894 C 375.87 -1.38407 0.988817 0
M  V30 3895 O 377.055 -1.47483 1.26342 0
M  V30 3896 C 374.185 -2.34808 2.55895 0
M  V30 3897 C 373.139 -2.15057 3.70047 0
M  V30 3898 C 372.465 -3.51145 4.03239 0
M  V30 3899 C 373.765 -1.54576 4.98902 0
M  V30 3900 H 375.459 -0.616666 2.92981 0
M  V30 3901 H 373.005 -0.295184 1.40942 0
M  V30 3902 H 374.958 -3.05346 2.90417 0
M  V30 3903 H 373.682 -2.79565 1.68853 0
M  V30 3904 H 372.341 -1.46954 3.35857 0
M  V30 3905 H 371.989 -3.93529 3.13279 0
M  V30 3906 H 371.689 -3.38758 4.80122 0
M  V30 3907 H 373.213 -4.23062 4.40285 0
M  V30 3908 H 374.627 -2.15017 5.31451 0
M  V30 3909 H 373.024 -1.52796 5.80322 0
M  V30 3910 H 374.094 -0.51039 4.82206 0
M  V30 3911 N 375.437 -1.54477 -0.31217 0
M  V30 3912 C 376.667 -1.76948 -1.06645 0
M  V30 3913 C 377.075 -0.523593 -1.81811 0
M  V30 3914 O 376.418 0.51578 -1.76311 0
M  V30 3915 C 376.48 -2.91668 -2.10166 0
M  V30 3916 C 376.144 -4.30165 -1.54296 0
M  V30 3917 C 377.141 -5.10603 -0.978793 0
M  V30 3918 C 374.826 -4.76738 -1.58196 0
M  V30 3919 C 376.82 -6.3573 -0.461048 0
M  V30 3920 C 374.507 -6.01831 -1.06034 0
M  V30 3921 C 375.505 -6.81161 -0.500844 0
M  V30 3922 O 375.193 -8.03899 0.0128958 0
M  V30 3923 H 374.925 -0.594088 -0.322546 0
M  V30 3924 H 377.479 -2.02213 -0.360441 0
M  V30 3925 H 375.709 -2.62001 -2.84416 0
M  V30 3926 H 377.398 -3.01817 -2.71406 0
M  V30 3927 H 378.164 -4.75771 -0.941651 0
M  V30 3928 H 374.043 -4.15027 -2.00683 0
M  V30 3929 H 377.587 -6.97596 -0.0236894 0
M  V30 3930 H 373.484 -6.36152 -1.09459 0
M  V30 3931 H 374.252 -8.18437 -0.101457 0
M  V30 3932 N 376.915 0.57481 -1.46744 0
M  V30 3933 C 378.192 1.3352 -1.4294 0
M  V30 3934 C 378.572 2.10775 -0.117009 0
M  V30 3935 O 377.92 2.09966 0.901474 0
M  V30 3936 C 378.13 2.25456 -2.66403 0
M  V30 3937 C 379.478 2.87035 -3.12883 0
M  V30 3938 O 380.502 2.35766 -2.67007 0
M  V30 3939 O 379.361 3.80179 -3.92589 0
M  V30 3940 H 376.455 0.600318 -0.568812 0
M  V30 3941 H 379.001 0.595171 -1.58921 0
M  V30 3942 H 377.773 1.67851 -3.53471 0
M  V30 3943 H 377.396 3.06785 -2.52921 0
M  V30 3944 N 378.394 1.34581 0.820102 0
M  V30 3945 C 379.357 1.2628 1.91275 0
M  V30 3946 C 380.357 0.177344 1.59819 0
M  V30 3947 O 381.547 0.430156 1.68806 0
M  V30 3948 C 378.679 0.950327 3.27386 0
M  V30 3949 H 379.872 2.23421 2.00057 0
M  V30 3950 H 377.425 1.1891 1.0144 0
M  V30 3951 H 378.16 -0.0177938 3.24295 0
M  V30 3952 H 377.945 1.73549 3.51601 0
M  V30 3953 H 379.435 0.917492 4.07396 0
M  V30 3954 N 379.872 -1.04064 1.18357 0
M  V30 3955 C 380.835 -2.10243 0.912707 0
M  V30 3956 C 381.835 -1.60477 -0.101928 0
M  V30 3957 O 383.025 -1.73703 0.131517 0
M  V30 3958 C 380.157 -3.38893 0.369387 0
M  V30 3959 H 381.35 -2.35706 1.85426 0
M  V30 3960 H 378.903 -1.20489 0.995594 0
M  V30 3961 H 379.638 -3.19094 -0.578776 0
M  V30 3962 H 379.423 -3.76331 1.1008 0
M  V30 3963 H 380.913 -4.17128 0.198575 0
M  V30 3964 N 381.35 -0.985608 -1.22978 0
M  V30 3965 C 382.599 -0.652881 -1.90841 0
M  V30 3966 C 382.912 0.817842 -1.77681 0
M  V30 3967 O 384.118 1.26185 -2.40395 0
M  V30 3968 C 382.574 -1.11717 -3.42122 0
M  V30 3969 C 382.182 -2.6126 -3.63933 0
M  V30 3970 C 383.926 -0.85843 -4.1573 0
M  V30 3971 C 381.833 -3.0133 -5.08876 0
M  V30 3972 H 380.763 -0.240491 -0.714619 0
M  V30 3973 H 383.414 -1.1942 -1.39324 0
M  V30 3974 H 381.796 -0.504027 -3.92779 0
M  V30 3975 H 382.97 -3.27858 -3.23799 0
M  V30 3976 H 381.285 -2.84937 -3.03644 0
M  V30 3977 H 383.882 -1.13359 -5.22546 0
M  V30 3978 H 384.225 0.205461 -4.15793 0
M  V30 3979 H 384.758 -1.43341 -3.71077 0
M  V30 3980 H 381.497 -4.06864 -5.13947 0
M  V30 3981 H 381.017 -2.3943 -5.49939 0
M  V30 3982 H 382.696 -2.92224 -5.77247 0
M  V30 3983 N 382.828 1.3818 -0.7579 0
M  V30 3984 C 383.76 2.2901 -0.0932177 0
M  V30 3985 C 384.773 1.47958 0.679136 0
M  V30 3986 O 385.962 1.70773 0.519514 0
M  V30 3987 C 383.062 3.26953 0.89192 0
M  V30 3988 C 382.235 4.37045 0.176303 0
M  V30 3989 C 381.294 5.15148 1.07281 0
M  V30 3990 O 380.32 5.66616 0.541728 0
M  V30 3991 N 381.522 5.28542 2.40049 0
M  V30 3992 H 384.287 2.86694 -0.873303 0
M  V30 3993 H 381.848 1.50007 -0.609054 0
M  V30 3994 H 383.84 3.76083 1.49479 0
M  V30 3995 H 382.41 2.70136 1.57306 0
M  V30 3996 H 381.63 3.89493 -0.607328 0
M  V30 3997 H 382.918 5.07801 -0.318718 0
M  V30 3998 H 382.316 4.88285 2.85647 0
M  V30 3999 H 380.873 5.8103 2.95376 0
M  V30 4000 N 384.306 0.507319 1.49211 0
M  V30 4001 C 385.256 -0.287112 2.26185 0
M  V30 4002 C 386.24 -0.929983 1.31302 0
M  V30 4003 O 387.432 -0.836538 1.55984 0
M  V30 4004 C 384.561 -1.34718 3.15763 0
M  V30 4005 C 383.647 -0.710235 4.18111 0
M  V30 4006 N 384.038 0.190836 5.0544 0
M  V30 4007 C 382.336 -0.97009 4.35322 0
M  V30 4008 C 383.037 0.55606 5.79036 0
M  V30 4009 N 382.013 -0.0775232 5.43545 0
M  V30 4010 H 385.815 0.406445 2.91076 0
M  V30 4011 H 383.329 0.323814 1.59139 0
M  V30 4012 H 385.326 -1.92982 3.69545 0
M  V30 4013 H 383.986 -2.04235 2.52424 0
M  V30 4014 H 384.997 0.562047 5.14841 0
M  V30 4015 H 381.674 -1.65753 3.83187 0
M  V30 4016 H 383.064 1.2936 6.5933 0
M  V30 4017 N 385.784 -1.5574 0.241426 0
M  V30 4018 C 387.032 -1.98417 -0.384075 0
M  V30 4019 C 387.353 -1.13078 -1.58866 0
M  V30 4020 O 386.623 -0.212312 -1.94746 0
M  V30 4021 H 385.203 -0.732813 -0.144894 0
M  V30 4022 H 387.865 -1.9193 0.338943 0
M  V30 4023 H 386.961 -3.04219 -0.696939 0
M  V30 4024 N 387.262 0.0317525 -1.57568 0
M  V30 4025 C 388.508 0.724175 -1.8943 0
M  V30 4026 C 388.841 1.75149 -0.838836 0
M  V30 4027 O 388.116 1.93948 0.146422 0
M  V30 4028 C 388.399 1.39615 -3.31933 0
M  V30 4029 C 388.252 0.382537 -4.4817 0
M  V30 4030 C 389.571 2.33084 -3.73309 0
M  V30 4031 H 386.69 0.261797 -0.688935 0
M  V30 4032 H 389.332 -0.013017 -1.89996 0
M  V30 4033 H 387.482 2.02451 -3.31581 0
M  V30 4034 H 389.154 -0.243689 -4.60656 0
M  V30 4035 H 387.397 -0.29844 -4.32772 0
M  V30 4036 H 388.068 0.891145 -5.44759 0
M  V30 4037 H 390.544 1.80295 -3.7501 0
M  V30 4038 H 389.42 2.77084 -4.73831 0
M  V30 4039 H 389.681 3.19643 -3.05419 0
M  V30 4040 N 388.74 1.54641 0.303973 0
M  V30 4041 C 389.687 1.85386 1.37479 0
M  V30 4042 C 390.657 0.702528 1.50512 0
M  V30 4043 O 391.842 0.950867 1.65418 0
M  V30 4044 C 388.982 2.10413 2.73533 0
M  V30 4045 C 388.095 3.38049 2.68974 0
M  V30 4046 C 387.23 3.52934 3.97002 0
M  V30 4047 C 386.269 4.74373 3.86829 0
M  V30 4048 N 385.406 4.8608 5.06627 0
M  V30 4049 H 390.246 2.76732 1.1056 0
M  V30 4050 H 387.783 1.37034 0.534805 0
M  V30 4051 H 389.741 2.22919 3.52652 0
M  V30 4052 H 388.371 1.22338 2.98719 0
M  V30 4053 H 387.423 3.3418 1.81736 0
M  V30 4054 H 388.735 4.27288 2.57346 0
M  V30 4055 H 387.889 3.65088 4.84557 0
M  V30 4056 H 386.628 2.61824 4.1146 0
M  V30 4057 H 385.633 4.62255 2.97658 0
M  V30 4058 H 386.858 5.66888 3.73918 0
M  V30 4059 H 384.804 3.97891 5.21554 0
M  V30 4060 H 384.721 5.69315 4.9741 0
M  V30 4061 H 385.989 5.02587 5.95841 0
M  V30 4062 N 390.218 -0.567019 1.47046 0
M  V30 4063 C 391.466 -1.322 1.52864 0
M  V30 4064 C 391.787 -1.94088 0.188388 0
M  V30 4065 O 391.057 -1.7941 -0.786693 0
M  V30 4066 H 389.637 -0.490894 0.563056 0
M  V30 4067 H 392.299 -0.662879 1.83281 0
M  V30 4068 H 391.395 -2.12062 2.2899 0
M  V30 4069 N 391.696 -1.35014 -0.812953 0
M  V30 4070 C 392.945 -1.27269 -1.56479 0
M  V30 4071 C 393.258 0.152771 -1.95002 0
M  V30 4072 O 394.464 0.352451 -2.69203 0
M  V30 4073 C 392.92 -2.23159 -2.82362 0
M  V30 4074 C 392.528 -3.71016 -2.511 0
M  V30 4075 C 394.272 -2.24342 -3.60376 0
M  V30 4076 C 392.179 -4.58746 -3.73237 0
M  V30 4077 H 391.109 -0.472829 -0.587324 0
M  V30 4078 H 393.76 -1.6024 -0.894171 0
M  V30 4079 H 392.142 -1.83151 -3.51101 0
M  V30 4080 H 393.316 -4.1962 -1.90409 0
M  V30 4081 H 391.631 -3.72378 -1.86343 0
M  V30 4082 H 394.228 -2.87107 -4.51081 0
M  V30 4083 H 394.571 -1.24542 -3.97234 0
M  V30 4084 H 395.104 -2.62846 -2.98591 0
M  V30 4085 H 391.843 -5.59521 -3.41492 0
M  V30 4086 H 391.363 -4.14871 -4.33176 0
M  V30 4087 H 393.042 -4.73852 -4.40537 0
M  V30 4088 N 393.175 1.03435 -1.18907 0
M  V30 4089 C 394.421 1.77005 -0.989798 0
M  V30 4090 C 394.754 1.88205 0.478816 0
M  V30 4091 O 394.029 1.39481 1.35556 0
M  V30 4092 C 394.312 3.19925 -1.65287 0
M  V30 4093 C 394.165 3.1663 -3.19477 0
M  V30 4094 C 395.484 4.18189 -1.37134 0
M  V30 4095 H 392.603 0.642538 -0.360991 0
M  V30 4096 H 395.245 1.20784 -1.46667 0
M  V30 4097 H 393.395 3.67929 -1.24741 0
M  V30 4098 H 395.067 2.76567 -3.692 0
M  V30 4099 H 393.31 2.54491 -3.51307 0
M  V30 4100 H 393.981 4.1758 -3.61013 0
M  V30 4101 H 396.457 3.78761 -1.72276 0
M  V30 4102 H 395.333 5.16394 -1.86087 0
M  V30 4103 H 395.594 4.41112 -0.295424 0
M  V30 4104 N 394.653 0.992116 1.22453 0
M  V30 4105 C 395.883 0.684949 1.94915 0
M  V30 4106 C 396.291 -0.754292 1.73514 0
M  V30 4107 O 395.634 -1.52056 1.03076 0
M  V30 4108 C 395.696 0.910054 3.47791 0
M  V30 4109 C 395.36 2.33363 3.92926 0
M  V30 4110 C 396.357 3.31308 4.00663 0
M  V30 4111 C 394.042 2.66785 4.25595 0
M  V30 4112 C 396.036 4.6075 4.40441 0
M  V30 4113 C 393.723 3.96446 4.65053 0
M  V30 4114 C 394.721 4.9324 4.72444 0
M  V30 4115 O 394.409 6.20584 5.1101 0
M  V30 4116 H 394.141 0.25258 0.62704 0
M  V30 4117 H 396.695 1.32939 1.56577 0
M  V30 4118 H 394.925 0.208443 3.86138 0
M  V30 4119 H 396.614 0.598257 4.01467 0
M  V30 4120 H 397.38 3.0682 3.75615 0
M  V30 4121 H 393.259 1.92148 4.19047 0
M  V30 4122 H 396.803 5.363 4.46126 0
M  V30 4123 H 392.7 4.20724 4.89552 0
M  V30 4124 H 393.468 6.24509 5.29085 0
M  V30 4125 N 396.131 -1.37776 0.765217 0
M  V30 4126 C 397.094 -2.28686 0.153416 0
M  V30 4127 C 398.094 -1.47727 -0.635081 0
M  V30 4128 O 399.284 -1.68027 -0.459632 0
M  V30 4129 C 396.416 -3.31608 -0.790495 0
M  V30 4130 H 397.609 -2.84297 0.954723 0
M  V30 4131 H 395.162 -1.46932 0.53299 0
M  V30 4132 H 395.897 -2.81109 -1.61705 0
M  V30 4133 H 395.682 -3.9144 -0.227348 0
M  V30 4134 H 397.172 -3.99559 -1.21419 0
M  V30 4135 N 397.609 -0.515225 -1.4894 0
M  V30 4136 C 398.857 0.0241671 -2.02086 0
M  V30 4137 C 399.178 1.3616 -1.3959 0
M  V30 4138 O 398.448 1.87841 -0.556121 0
M  V30 4139 H 397.028 0.0119203 -0.746905 0
M  V30 4140 H 399.69 -0.675702 -1.82812 0
M  V30 4141 H 398.786 0.143385 -3.1177 0
M  V30 4142 N 399.087 1.5561 -0.249682 0
M  V30 4143 C 400.02 2.17537 0.689408 0
M  V30 4144 C 400.998 1.12829 1.17083 0
M  V30 4145 O 402.182 1.41229 1.24846 0
M  V30 4146 C 399.309 2.77828 1.93725 0
M  V30 4147 C 398.355 3.95615 1.59346 0
M  V30 4148 S 399.188 5.30988 0.69367 0
M  V30 4149 C 400.344 5.94734 1.95046 0
M  V30 4150 H 400.577 2.96852 0.163142 0
M  V30 4151 H 398.11 1.54362 -0.0341166 0
M  V30 4152 H 400.068 3.13199 2.65361 0
M  V30 4153 H 398.729 1.98454 2.43465 0
M  V30 4154 H 397.922 4.364 2.52132 0
M  V30 4155 H 397.524 3.61535 0.957512 0
M  V30 4156 H 399.816 6.12419 2.89739 0
M  V30 4157 H 400.759 6.90109 1.58604 0
M  V30 4158 H 401.167 5.23832 2.10381 0
M  V30 4159 N 400.565 -0.0233959 1.57583 0
M  V30 4160 C 401.813 -0.711654 1.89156 0
M  V30 4161 C 402.134 -1.75591 0.848096 0
M  V30 4162 O 401.404 -1.95547 -0.117566 0
M  V30 4163 H 399.984 -0.265835 0.698098 0
M  V30 4164 H 402.646 0.0119948 1.94896 0
M  V30 4165 H 401.742 -1.19766 2.88206 0
M  V30 4166 N 402.043 -1.548 -0.295768 0
M  V30 4167 C 403.006 -1.85363 -1.34808 0
M  V30 4168 C 404.006 -0.726817 -1.43436 0
M  V30 4169 O 405.196 -0.995088 -1.42981 0
M  V30 4170 C 402.328 -2.03859 -2.73229 0
M  V30 4171 H 403.521 -2.7941 -1.08949 0
M  V30 4172 H 401.074 -1.46942 -0.532702 0
M  V30 4173 H 401.809 -1.12117 -3.04303 0
M  V30 4174 H 401.594 -2.8588 -2.68356 0
M  V30 4175 H 403.084 -2.28857 -3.49305 0
M  V30 4176 N 403.521 0.559213 -1.47345 0
M  V30 4177 C 404.769 1.31388 -1.53563 0
M  V30 4178 C 405.09 1.93985 -0.198678 0
M  V30 4179 O 404.36 1.79825 0.777167 0
M  V30 4180 H 402.94 0.487901 -0.565652 0
M  V30 4181 H 405.602 0.65315 -1.8363 0
M  V30 4182 H 404.698 2.10844 -2.30111 0
M  V30 4183 N 404.999 1.35443 0.805782 0
M  V30 4184 C 406.224 1.32037 1.59941 0
M  V30 4185 C 406.649 -0.0994215 1.87837 0
M  V30 4186 O 406.007 -1.06648 1.46615 0
M  V30 4187 C 406.055 2.13354 2.90711 0
M  V30 4188 O 405.159 1.5148 3.83572 0
M  V30 4189 H 404.5 0.452666 0.485787 0
M  V30 4190 H 407.03 1.78496 1.00002 0
M  V30 4191 H 407.04 2.25338 3.40128 0
M  V30 4192 H 405.715 3.16572 2.69732 0
M  V30 4193 H 404.292 1.4834 3.42125 0
M  V30 4194 N 406.477 -1.02803 1.19454 0
M  V30 4195 C 407.723 -1.76478 0.999171 0
M  V30 4196 C 408.056 -1.88456 -0.468828 0
M  V30 4197 O 407.331 -1.40198 -1.34814 0
M  V30 4198 C 407.614 -3.19044 1.66981 0
M  V30 4199 C 407.467 -3.14932 3.21151 0
M  V30 4200 C 408.786 -4.17456 1.39349 0
M  V30 4201 H 405.905 -0.640614 0.364393 0
M  V30 4202 H 408.547 -1.20005 1.47305 0
M  V30 4203 H 406.697 -3.67263 1.2669 0
M  V30 4204 H 408.369 -2.74605 3.70661 0
M  V30 4205 H 406.612 -2.52625 3.52652 0
M  V30 4206 H 407.283 -4.1566 3.63223 0
M  V30 4207 H 409.759 -3.77842 1.74283 0
M  V30 4208 H 408.635 -5.154 1.88823 0
M  V30 4209 H 408.896 -4.40949 0.318813 0
M  V30 4210 N 407.956 -0.998596 -1.21925 0
M  V30 4211 C 409.181 -0.696015 -1.95372 0
M  V30 4212 C 409.606 0.733826 -1.73195 0
M  V30 4213 O 408.964 1.50242 -1.01474 0
M  V30 4214 C 409.012 -1.01466 -3.4603 0
M  V30 4215 O 408.116 -0.116415 -4.12236 0
M  V30 4216 H 407.457 -0.259938 -0.611006 0
M  V30 4217 H 409.987 -1.33711 -1.54863 0
M  V30 4218 H 409.997 -0.958855 -3.96573 0
M  V30 4219 H 408.672 -2.05653 -3.61497 0
M  V30 4220 H 407.249 -0.228193 -3.72201 0
M  V30 4221 N 409.434 1.37368 -0.772513 0
M  V30 4222 C 410.68 1.99969 -0.337681 0
M  V30 4223 C 411.013 1.61184 1.08321 0
M  V30 4224 O 410.288 0.858395 1.74533 0
M  V30 4225 C 410.571 3.56858 -0.482121 0
M  V30 4226 C 410.424 4.0555 -1.94549 0
M  V30 4227 C 411.743 4.39955 0.113143 0
M  V30 4228 H 408.862 0.726464 -0.124171 0
M  V30 4229 H 411.504 1.63034 -0.975699 0
M  V30 4230 H 409.654 3.88452 0.0610361 0
M  V30 4231 H 411.326 3.84518 -2.54841 0
M  V30 4232 H 409.569 3.57715 -2.45403 0
M  V30 4233 H 410.24 5.14587 -1.9976 0
M  V30 4234 H 412.716 4.14623 -0.35031 0
M  V30 4235 H 411.592 5.48897 -0.0180514 0
M  V30 4236 H 411.853 4.25403 1.20354 0
M  V30 4237 N 410.912 0.523116 1.48665 0
M  V30 4238 C 412.328 0.180511 1.58576 0
M  V30 4239 C 412.528 -1.31597 1.52592 0
M  V30 4240 O 411.584 -2.0937 1.4114 0
M  V30 4241 C 412.897 0.776949 2.90489 0
M  V30 4242 C 414.445 0.745058 3.04003 0
M  V30 4243 C 414.92 1.31995 4.38567 0
M  V30 4244 N 416.411 1.28162 4.45117 0
M  V30 4245 C 417.146 1.6964 5.47731 0
M  V30 4246 N 416.642 2.18816 6.57337 0
M  V30 4247 N 418.435 1.6092 5.38573 0
M  V30 4248 H 410.586 1.4958 1.50797 0
M  V30 4249 H 412.849 0.621772 0.715614 0
M  V30 4250 H 412.555 1.82732 3.00503 0
M  V30 4251 H 412.429 0.25007 3.7637 0
M  V30 4252 H 414.816 -0.296532 2.93606 0
M  V30 4253 H 414.897 1.30933 2.1975 0
M  V30 4254 H 414.541 2.36043 4.49718 0
M  V30 4255 H 414.471 0.731418 5.21496 0
M  V30 4256 H 416.962 0.92155 3.66491 0
M  V30 4257 H 417.275 2.48478 7.31764 0
M  V30 4258 H 415.62 2.22805 6.58318 0
M  V30 4259 H 418.811 1.22304 4.5184 0
M  V30 4260 H 418.984 1.93567 6.18414 0
M  V30 4261 N 412.39 -1.55475 0.257931 0
M  V30 4262 C 413.638 -1.98813 -0.363009 0
M  V30 4263 C 413.959 -1.14757 -1.57657 0
M  V30 4264 O 413.229 -0.232956 -1.9451 0
M  V30 4265 H 411.809 -0.734308 -0.137113 0
M  V30 4266 H 414.471 -1.9156 0.359281 0
M  V30 4267 H 413.567 -3.04941 -0.664634 0
M  V30 4268 N 413.868 0.0150385 -1.57593 0
M  V30 4269 C 415.117 0.702115 -1.89085 0
M  V30 4270 C 415.43 1.75764 -0.858277 0
M  V30 4271 O 416.636 2.49829 -1.0629 0
M  V30 4272 C 415.092 1.29992 -3.35604 0
M  V30 4273 C 414.7 0.280007 -4.47124 0
M  V30 4274 C 416.444 1.96606 -3.76227 0
M  V30 4275 C 414.351 0.886949 -5.84711 0
M  V30 4276 H 413.281 0.265997 -0.705522 0
M  V30 4277 H 415.932 -0.0430408 -1.8345 0
M  V30 4278 H 414.314 2.09525 -3.36029 0
M  V30 4279 H 415.488 -0.489631 -4.58191 0
M  V30 4280 H 413.803 -0.284835 -4.15425 0
M  V30 4281 H 416.4 2.42893 -4.76347 0
M  V30 4282 H 416.743 2.79024 -3.08952 0
M  V30 4283 H 417.276 1.23828 -3.78036 0
M  V30 4284 H 414.015 0.101876 -6.55421 0
M  V30 4285 H 413.535 1.6261 -5.77337 0
M  V30 4286 H 415.214 1.39011 -6.3189 0
M  V30 4287 N 415.346 1.54954 0.287554 0
M  V30 4288 C 416.309 1.86076 1.33823 0
M  V30 4289 C 417.309 0.734414 1.43049 0
M  V30 4290 O 418.499 1.00266 1.42452 0
M  V30 4291 C 415.631 2.05305 2.72144 0
M  V30 4292 H 416.824 2.79984 1.07465 0
M  V30 4293 H 414.377 1.47223 0.524902 0
M  V30 4294 H 415.112 1.1373 3.03704 0
M  V30 4295 H 414.897 2.873 2.66836 0
M  V30 4296 H 416.387 2.30706 3.48087 0
M  V30 4297 N 416.824 -0.551391 1.4764 0
M  V30 4298 C 418.072 -1.30572 1.54258 0
M  V30 4299 C 418.393 -1.93877 0.208963 0
M  V30 4300 O 417.663 -1.80234 -0.767619 0
M  V30 4301 H 416.243 -0.484894 0.568231 0
M  V30 4302 H 418.905 -0.643402 1.83974 0
M  V30 4303 H 418.001 -2.09621 2.31226 0
M  V30 4304 N 418.302 -1.35869 -0.798587 0
M  V30 4305 C 419.235 -1.23801 -1.91699 0
M  V30 4306 C 420.213 -0.124143 -1.62125 0
M  V30 4307 O 421.397 -0.293656 -1.86199 0
M  V30 4308 C 418.524 -0.908063 -3.263 0
M  V30 4309 C 417.57 -2.0351 -3.74815 0
M  V30 4310 S 418.403 -3.65183 -3.91665 0
M  V30 4311 C 419.559 -3.34283 -5.29156 0
M  V30 4312 H 419.792 -2.18466 -2.01643 0
M  V30 4313 H 417.325 -1.21178 -0.956833 0
M  V30 4314 H 419.283 -0.724506 -4.04056 0
M  V30 4315 H 417.944 0.0206584 -3.14093 0
M  V30 4316 H 417.137 -1.75858 -4.72324 0
M  V30 4317 H 416.739 -2.1774 -3.04081 0
M  V30 4318 H 419.031 -2.87607 -6.13424 0
M  V30 4319 H 419.974 -4.31022 -5.61806 0
M  V30 4320 H 420.382 -2.69854 -4.95822 0
M  V30 4321 N 419.78 1.02168 -1.19998 0
M  V30 4322 C 421.196 1.27969 -0.953737 0
M  V30 4323 C 421.396 1.98079 0.369703 0
M  V30 4324 O 420.452 2.27306 1.09947 0
M  V30 4325 C 421.765 2.11971 -2.13281 0
M  V30 4326 C 423.313 2.25255 -2.17323 0
M  V30 4327 C 423.788 3.12632 -3.34702 0
M  V30 4328 N 425.279 3.2022 -3.34684 0
M  V30 4329 C 426.014 3.88039 -4.22153 0
M  V30 4330 N 425.51 4.58027 -5.19791 0
M  V30 4331 N 427.303 3.84511 -4.10009 0
M  V30 4332 H 419.454 0.550794 -2.05134 0
M  V30 4333 H 421.717 0.305683 -0.897364 0
M  V30 4334 H 421.423 1.67785 -3.09097 0
M  V30 4335 H 421.297 3.12699 -2.10949 0
M  V30 4336 H 423.684 2.68667 -1.22073 0
M  V30 4337 H 423.765 1.24053 -2.23706 0
M  V30 4338 H 423.409 2.69926 -4.30235 0
M  V30 4339 H 423.339 4.13909 -3.25556 0
M  V30 4340 H 425.83 2.70382 -2.64012 0
M  V30 4341 H 426.143 5.07429 -5.82868 0
M  V30 4342 H 424.488 4.56869 -5.23733 0
M  V30 4343 H 427.679 3.28978 -3.33003 0
M  V30 4344 H 427.852 4.3709 -4.78389 0
M  V30 4345 N 421.258 1.00505 1.21394 0
M  V30 4346 C 422.205 0.565496 2.23765 0
M  V30 4347 C 423.175 -0.408466 1.60999 0
M  V30 4348 O 424.36 -0.310503 1.88257 0
M  V30 4349 C 421.5 -0.101667 3.4495 0
M  V30 4350 C 420.613 0.915479 4.22188 0
M  V30 4351 C 419.748 0.220574 5.30742 0
M  V30 4352 C 418.787 1.22527 5.99711 0
M  V30 4353 N 417.924 0.557831 6.9988 0
M  V30 4354 H 422.764 1.44314 2.60725 0
M  V30 4355 H 420.301 0.722643 1.28126 0
M  V30 4356 H 422.259 -0.505504 4.14126 0
M  V30 4357 H 420.889 -0.94303 3.08718 0
M  V30 4358 H 419.941 1.43756 3.52191 0
M  V30 4359 H 421.253 1.68005 4.69655 0
M  V30 4360 H 420.407 -0.239368 6.06228 0
M  V30 4361 H 419.146 -0.576401 4.84282 0
M  V30 4362 H 418.151 1.69571 5.22997 0
M  V30 4363 H 419.376 2.02332 6.48258 0
M  V30 4364 H 417.322 -0.219486 6.55633 0
M  V30 4365 H 417.239 1.26065 7.45415 0
M  V30 4366 H 418.507 0.121095 7.79406 0
M  V30 4367 N 422.737 -1.36956 0.779787 0
M  V30 4368 C 423.7 -2.2851 0.177662 0
M  V30 4369 C 424.7 -1.48393 -0.619377 0
M  V30 4370 O 425.89 -1.68505 -0.441785 0
M  V30 4371 C 423.022 -3.32428 -0.755279 0
M  V30 4372 H 424.215 -2.83269 0.984823 0
M  V30 4373 H 421.768 -1.46358 0.548544 0
M  V30 4374 H 422.503 -2.82808 -1.58714 0
M  V30 4375 H 422.288 -3.91659 -0.185817 0
M  V30 4376 H 423.778 -4.00824 -1.17174 0
M  V30 4377 N 424.215 -0.530993 -1.48385 0
M  V30 4378 C 425.148 0.278511 -2.26494 0
M  V30 4379 C 426.126 0.943905 -1.32398 0
M  V30 4380 O 427.31 0.968098 -1.61741 0
M  V30 4381 C 424.437 1.39453 -3.08659 0
M  V30 4382 C 423.483 0.840434 -4.18137 0
M  V30 4383 S 424.316 -0.292496 -5.34701 0
M  V30 4384 C 425.472 0.825973 -6.20426 0
M  V30 4385 H 425.705 -0.384365 -2.94805 0
M  V30 4386 H 423.238 -0.316799 -1.51115 0
M  V30 4387 H 425.196 2.03382 -3.56575 0
M  V30 4388 H 423.857 2.02913 -2.3976 0
M  V30 4389 H 423.05 1.67769 -4.75257 0
M  V30 4390 H 422.652 0.277819 -3.72967 0
M  V30 4391 H 424.944 1.72438 -6.55188 0
M  V30 4392 H 425.887 0.292728 -7.07495 0
M  V30 4393 H 426.295 1.10683 -5.53543 0
M  V30 4394 N 425.693 1.55336 -0.266172 0
M  V30 4395 C 426.603 2.2583 0.635458 0
M  V30 4396 C 427.619 1.28106 1.17749 0
M  V30 4397 O 428.795 1.61024 1.20968 0
M  V30 4398 C 425.86 2.95879 1.80712 0
M  V30 4399 C 424.921 4.09059 1.30265 0
M  V30 4400 C 424.154 4.75759 2.41846 0
M  V30 4401 O 424.377 4.41622 3.61007 0
M  V30 4402 O 423.311 5.63888 2.1051 0
M  V30 4403 H 427.137 3.03631 0.0646693 0
M  V30 4404 H 424.722 1.49361 -0.0339177 0
M  V30 4405 H 426.604 3.39932 2.49047 0
M  V30 4406 H 425.279 2.21002 2.36516 0
M  V30 4407 H 424.186 3.69482 0.586019 0
M  V30 4408 H 425.519 4.85811 0.790458 0
M  V30 4409 N 427.171 -0.0066808 1.57599 0
M  V30 4410 C 428.118 -1.00024 2.08 0
M  V30 4411 C 429.088 -1.34549 0.973943 0
M  V30 4412 O 430.273 -1.44502 1.24595 0
M  V30 4413 C 427.413 -2.2891 2.58252 0
M  V30 4414 C 426.526 -2.00346 3.82734 0
M  V30 4415 C 425.661 -3.23265 4.21513 0
M  V30 4416 C 424.7 -2.90357 5.3885 0
M  V30 4417 N 423.837 -4.05793 5.72954 0
M  V30 4418 H 428.677 -0.563499 2.92624 0
M  V30 4419 H 426.214 -0.266592 1.44664 0
M  V30 4420 H 428.172 -3.04247 2.85464 0
M  V30 4421 H 426.802 -2.70265 1.76512 0
M  V30 4422 H 425.854 -1.15406 3.62471 0
M  V30 4423 H 427.166 -1.72086 4.68175 0
M  V30 4424 H 426.32 -4.06953 4.49971 0
M  V30 4425 H 425.059 -3.54657 3.34768 0
M  V30 4426 H 424.064 -2.05075 5.10122 0
M  V30 4427 H 425.289 -2.60219 6.27266 0
M  V30 4428 H 423.235 -4.37094 4.89167 0
M  V30 4429 H 423.152 -3.81034 6.52954 0
M  V30 4430 H 424.42 -4.90289 6.06001 0
M  V30 4431 N 428.649 -1.55105 -0.279332 0
M  V30 4432 C 429.897 -1.75066 -1.00977 0
M  V30 4433 C 430.218 -0.551276 -1.87045 0
M  V30 4434 O 429.488 0.433984 -1.91032 0
M  V30 4435 H 428.068 -0.645578 -0.375816 0
M  V30 4436 H 430.73 -1.92497 -0.305089 0
M  V30 4437 H 429.826 -2.64894 -1.65038 0
M  V30 4438 N 430.127 0.543554 -1.4793 0
M  V30 4439 C 431.373 1.30201 -1.55485 0
M  V30 4440 C 431.706 1.92925 -0.222201 0
M  V30 4441 O 430.981 1.78586 0.77053 0
M  V30 4442 C 431.264 2.40174 -2.68307 0
M  V30 4443 C 431.117 1.8223 -4.11233 0
M  V30 4444 C 432.436 3.42024 -2.76961 0
M  V30 4445 H 429.555 0.472036 -0.565996 0
M  V30 4446 H 432.197 0.606914 -1.80046 0
M  V30 4447 H 430.347 2.99463 -2.47495 0
M  V30 4448 H 432.019 1.27096 -4.43446 0
M  V30 4449 H 430.262 1.12832 -4.18869 0
M  V30 4450 H 430.933 2.61793 -4.85972 0
M  V30 4451 H 433.409 2.92672 -2.95774 0
M  V30 4452 H 432.285 4.16383 -3.57654 0
M  V30 4453 H 432.546 4.0173 -1.84568 0
M  V30 4454 N 431.605 1.3629 0.791371 0
M  V30 4455 C 432.851 1.30605 1.55146 0
M  V30 4456 C 433.184 -0.115042 1.93859 0
M  V30 4457 O 432.459 -1.06798 1.62556 0
M  V30 4458 C 432.742 2.22692 2.82985 0
M  V30 4459 C 432.595 3.73489 2.50651 0
M  V30 4460 C 433.914 2.13588 3.84796 0
M  V30 4461 H 431.033 0.475761 0.562868 0
M  V30 4462 H 433.675 1.66825 0.909358 0
M  V30 4463 H 431.825 1.91933 3.37778 0
M  V30 4464 H 433.497 4.14758 2.01924 0
M  V30 4465 H 431.74 3.93021 1.83622 0
M  V30 4466 H 432.411 4.3333 3.41949 0
M  V30 4467 H 434.887 2.40659 3.39445 0
M  V30 4468 H 433.763 2.80195 4.71998 0
M  V30 4469 H 434.024 1.12256 4.27611 0
M  V30 4470 N 433.083 -1.0153 1.20538 0
M  V30 4471 C 434.329 -1.75408 1.01783 0
M  V30 4472 C 434.662 -1.88943 -0.448814 0
M  V30 4473 O 433.937 -1.4162 -1.33319 0
M  V30 4474 C 434.22 -3.17255 1.70356 0
M  V30 4475 C 434.073 -3.11508 3.24473 0
M  V30 4476 C 435.392 -4.15955 1.43769 0
M  V30 4477 H 432.511 -0.636713 0.371167 0
M  V30 4478 H 435.153 -1.18436 1.4857 0
M  V30 4479 H 433.303 -3.65898 1.30578 0
M  V30 4480 H 434.975 -2.70658 3.73553 0
M  V30 4481 H 433.218 -2.4887 3.55311 0
M  V30 4482 H 433.889 -4.11784 3.67611 0
M  V30 4483 H 436.365 -3.75973 1.7828 0
M  V30 4484 H 435.241 -5.13368 1.94279 0
M  V30 4485 H 435.502 -4.40586 0.365564 0
M  V30 4486 N 434.561 -1.01147 -1.20859 0
M  V30 4487 C 435.81 -0.693214 -1.89413 0
M  V30 4488 C 436.123 0.779969 -1.79376 0
M  V30 4489 O 437.329 1.21057 -2.43017 0
M  V30 4490 C 435.785 -1.18949 -3.39675 0
M  V30 4491 C 435.393 -2.68921 -3.58309 0
M  V30 4492 C 437.137 -0.94642 -4.13815 0
M  V30 4493 C 435.044 -3.12056 -5.0237 0
M  V30 4494 H 433.974 -0.255595 -0.709357 0
M  V30 4495 H 436.625 -1.22349 -1.36759 0
M  V30 4496 H 435.007 -0.587228 -3.91622 0
M  V30 4497 H 436.181 -3.34652 -3.16772 0
M  V30 4498 H 434.496 -2.91314 -2.97532 0
M  V30 4499 H 437.093 -1.24417 -5.20023 0
M  V30 4500 H 437.436 0.117219 -4.16135 0
M  V30 4501 H 437.969 -1.5118 -3.67953 0
M  V30 4502 H 434.708 -4.17674 -5.05202 0
M  V30 4503 H 434.228 -2.51041 -5.44737 0
M  V30 4504 H 435.907 -3.04403 -5.70918 0
M  V30 4505 N 436.039 1.36541 -0.78704 0
M  V30 4506 C 437.455 1.52571 -0.46844 0
M  V30 4507 C 437.655 1.7415 1.01361 0
M  V30 4508 O 436.711 1.77163 1.79915 0
M  V30 4509 C 438.024 2.71299 -1.29682 0
M  V30 4510 C 439.572 2.85169 -1.29027 0
M  V30 4511 C 440.047 4.06898 -2.10233 0
M  V30 4512 N 441.538 4.1404 -2.07666 0
M  V30 4513 C 442.273 5.07301 -2.67271 0
M  V30 4514 N 441.769 6.06021 -3.35724 0
M  V30 4515 N 443.562 4.99898 -2.57018 0
M  V30 4516 H 435.713 1.20788 -1.74711 0
M  V30 4517 H 437.976 0.589364 -0.742532 0
M  V30 4518 H 437.682 2.61868 -2.34773 0
M  V30 4519 H 437.556 3.6539 -0.936479 0
M  V30 4520 H 439.943 2.94062 -0.247284 0
M  V30 4521 H 440.024 1.91992 -1.69035 0
M  V30 4522 H 439.668 3.98766 -3.1456 0
M  V30 4523 H 439.598 4.99218 -1.67597 0
M  V30 4524 H 442.089 3.43357 -1.57843 0
M  V30 4525 H 442.402 6.73741 -3.78541 0
M  V30 4526 H 440.747 6.06253 -3.39826 0
M  V30 4527 H 443.938 4.21724 -2.03142 0
M  V30 4528 H 444.111 5.72392 -3.03761 0
M  V30 4529 N 437.518 0.538854 1.48102 0
M  V30 4530 C 438.743 0.0102694 2.07397 0
M  V30 4531 C 439.168 -1.26562 1.39153 0
M  V30 4532 O 438.526 -1.75357 0.460387 0
M  V30 4533 C 438.574 -0.187602 3.60112 0
M  V30 4534 O 437.678 -1.25432 3.92862 0
M  V30 4535 H 437.019 0.0430975 0.6626 0
M  V30 4536 H 439.549 0.749301 1.90385 0
M  V30 4537 H 439.559 -0.407517 4.0596 0
M  V30 4538 H 438.234 0.744386 4.09184 0
M  V30 4539 H 436.811 -1.01636 3.58782 0
M  V30 4540 N 438.996 -1.55193 0.274407 0
M  V30 4541 C 440.224 -2.03987 -0.345943 0
M  V30 4542 C 440.639 -1.15279 -1.4952 0
M  V30 4543 O 439.996 -0.172759 -1.8168 0
M  V30 4544 C 440.047 -3.51898 -0.827631 0
M  V30 4545 O 439.768 -4.37231 0.275855 0
M  V30 4546 C 441.269 -4.16577 -1.51587 0
M  V30 4547 H 438.489 -0.666335 -0.0789892 0
M  V30 4548 H 441.033 -2.00423 0.406294 0
M  V30 4549 H 439.188 -3.55909 -1.52996 0
M  V30 4550 H 439.602 -5.24415 -0.0943638 0
M  V30 4551 H 441.076 -5.21678 -1.80433 0
M  V30 4552 H 441.553 -3.64707 -2.44716 0
M  V30 4553 H 442.159 -4.16568 -0.857409 0
M  V30 4554 N 440.474 -0.00167713 -1.576 0
M  V30 4555 C 441.89 0.354422 -1.55615 0
M  V30 4556 C 442.09 1.74679 -1.00447 0
M  V30 4557 O 441.146 2.4428 -0.639022 0
M  V30 4558 C 442.459 0.22812 -2.99833 0
M  V30 4559 C 444.007 0.302934 -3.11531 0
M  V30 4560 C 444.482 0.205737 -4.57538 0
M  V30 4561 N 445.973 0.263584 -4.62449 0
M  V30 4562 C 446.708 0.211742 -5.73009 0
M  V30 4563 N 446.204 0.110399 -6.92712 0
M  V30 4564 N 447.997 0.263729 -5.61481 0
M  V30 4565 H 440.148 -0.912498 -1.918 0
M  V30 4566 H 442.411 -0.349928 -0.881053 0
M  V30 4567 H 442.117 -0.729934 -3.44042 0
M  V30 4568 H 441.991 1.00951 -3.6344 0
M  V30 4569 H 444.378 1.25143 -2.67251 0
M  V30 4570 H 444.459 -0.508357 -2.50698 0
M  V30 4571 H 444.103 -0.739225 -5.02492 0
M  V30 4572 H 444.033 1.03554 -5.16318 0
M  V30 4573 H 446.524 0.343173 -3.76339 0
M  V30 4574 H 446.837 0.0767828 -7.72762 0
M  V30 4575 H 445.182 0.0760025 -6.94958 0
M  V30 4576 H 448.373 0.34111 -4.66855 0
M  V30 4577 H 448.546 0.219862 -6.47627 0
M  V30 4578 N 441.952 1.55251 0.271103 0
M  V30 4579 C 443.18 1.79974 1.02064 0
M  V30 4580 C 443.595 0.574003 1.79863 0
M  V30 4581 O 442.952 -0.456962 1.76686 0
M  V30 4582 C 443.003 3.02603 1.97772 0
M  V30 4583 O 442.724 4.20443 1.23124 0
M  V30 4584 C 444.225 3.39944 2.84522 0
M  V30 4585 H 441.445 0.599489 0.301419 0
M  V30 4586 H 443.989 2.02268 0.301313 0
M  V30 4587 H 442.144 2.8243 2.65165 0
M  V30 4588 H 442.558 4.89783 1.87651 0
M  V30 4589 H 444.032 4.28915 3.47471 0
M  V30 4590 H 444.509 2.59432 3.54389 0
M  V30 4591 H 445.115 3.62383 2.22618 0
M  V30 4592 N 443.43 -0.535701 1.48216 0
M  V30 4593 C 444.678 -1.28928 1.55634 0
M  V30 4594 C 444.999 -1.93645 0.229514 0
M  V30 4595 O 444.269 -1.81038 -0.74846 0
M  V30 4596 H 442.849 -0.47884 0.573342 0
M  V30 4597 H 445.511 -0.623853 1.84646 0
M  V30 4598 H 444.607 -2.07157 2.33436 0
M  V30 4599 N 444.908 -1.36708 -0.784132 0
M  V30 4600 C 445.856 -1.31533 -1.91838 0
M  V30 4601 C 446.85 -0.206205 -1.6814 0
M  V30 4602 O 448.056 -0.373519 -1.76082 0
M  V30 4603 H 444.431 -0.409613 -0.630651 0
M  V30 4604 H 446.402 -2.2731 -1.9332 0
M  V30 4605 C 445.151 -1.12679 -3.28936 0
M  V30 4606 H 444.474 -1.97274 -3.4774 0
M  V30 4607 H 445.914 -1.13106 -4.08636 0
M  V30 4608 C 444.373 0.168281 -3.36479 0
M  V30 4609 O 444.903 1.15625 -3.84699 0
M  V30 4610 N 443.109 0.214762 -2.89805 0
M  V30 4611 H 442.656 -0.589852 -2.50756 0
M  V30 4612 H 442.614 1.08094 -2.95234 0
M  V30 4613 N 446.386 1.0089 -1.21074 0
M  V30 4614 C 447.634 1.74262 -1.02358 0
M  V30 4615 C 447.955 1.89869 0.444393 0
M  V30 4616 O 447.225 1.44677 1.32081 0
M  V30 4617 H 445.805 0.645615 -0.375754 0
M  V30 4618 H 448.467 1.21596 -1.52317 0
M  V30 4619 H 447.563 2.74328 -1.4883 0
M  V30 4620 N 447.864 1.01787 1.20321 0
M  V30 4621 C 449.113 0.703249 1.89043 0
M  V30 4622 C 449.426 -0.770445 1.79787 0
M  V30 4623 O 450.632 -1.19767 2.43656 0
M  V30 4624 C 449.088 1.20749 3.3904 0
M  V30 4625 C 448.696 2.70817 3.56878 0
M  V30 4626 C 450.44 0.968352 4.13308 0
M  V30 4627 C 448.347 3.14716 5.00708 0
M  V30 4628 H 447.277 0.259354 0.707991 0
M  V30 4629 H 449.928 1.23072 1.36108 0
M  V30 4630 H 448.31 0.607989 3.91305 0
M  V30 4631 H 449.484 3.36327 3.14993 0
M  V30 4632 H 447.799 2.92888 2.95983 0
M  V30 4633 H 450.396 1.27173 5.19356 0
M  V30 4634 H 450.739 -0.095149 4.16191 0
M  V30 4635 H 451.272 1.53129 3.67146 0
M  V30 4636 H 448.011 4.20347 5.02979 0
M  V30 4637 H 447.531 2.53927 5.43398 0
M  V30 4638 H 449.21 3.07426 5.69296 0
M  V30 4639 N 449.342 -1.36122 0.79427 0
M  V30 4640 C 450.588 -1.99406 0.369452 0
M  V30 4641 C 450.921 -1.62886 -1.05743 0
M  V30 4642 O 450.196 -0.886053 -1.73145 0
M  V30 4643 C 450.479 -3.56046 0.538833 0
M  V30 4644 C 450.332 -4.02404 2.00976 0
M  V30 4645 C 451.651 -4.40079 -0.0431359 0
M  V30 4646 H 448.77 -0.724397 0.135712 0
M  V30 4647 H 451.412 -1.61461 1.00151 0
M  V30 4648 H 449.562 -3.885 0.000771004 0
M  V30 4649 H 451.234 -3.80415 2.60926 0
M  V30 4650 H 449.477 -3.53765 2.51063 0
M  V30 4651 H 450.148 -5.11344 2.07922 0
M  V30 4652 H 452.624 -4.14013 0.416228 0
M  V30 4653 H 451.5 -5.48799 0.105374 0
M  V30 4654 H 451.761 -4.27264 -1.13571 0
M  V30 4655 N 450.82 -0.546701 -1.47814 0
M  V30 4656 C 452.231 -0.110564 -1.86372 0
M  V30 4657 C 452.582 1.31678 -1.45449 0
M  V30 4658 O 451.707 1.98889 -0.852758 0
M  V30 4659 C 452.302 -0.193873 -3.38245 0
M  V30 4660 C 450.861 0.187164 -3.75934 0
M  V30 4661 C 450.008 -0.546166 -2.71868 0
M  V30 4662 H 452.959 -0.757022 -1.39481 0
M  V30 4663 H 452.98 0.590218 -3.75895 0
M  V30 4664 H 452.492 -1.23282 -3.67999 0
M  V30 4665 H 450.593 1.22762 -3.51796 0
M  V30 4666 H 450.706 -0.164083 -4.78819 0
M  V30 4667 H 449.07 0.00953904 -2.54698 0
M  V30 4668 H 449.853 -1.58606 -3.04465 0
M  V30 4669 N 452.299 1.55045 -0.282633 0
M  V30 4670 C 453.71 1.85473 0.213655 0
M  V30 4671 C 454.061 1.20465 1.54863 0
M  V30 4672 O 453.186 0.495676 2.10647 0
M  V30 4673 C 453.781 3.36496 0.394445 0
M  V30 4674 C 452.34 3.67022 0.834961 0
M  V30 4675 C 451.487 2.77218 -0.0674081 0
M  V30 4676 H 454.438 1.50478 -0.504202 0
M  V30 4677 H 454.459 3.60007 1.23186 0
M  V30 4678 H 453.971 3.83782 -0.577326 0
M  V30 4679 H 452.072 3.25241 1.81794 0
M  V30 4680 H 452.185 4.74433 0.667075 0
M  V30 4681 H 450.549 2.5069 0.450196 0
M  V30 4682 H 451.332 3.2732 -1.0352 0
M  V30 4683 N 453.777 0.010035 1.57597 0
M  V30 4684 C 455.054 -0.710296 1.82248 0
M  V30 4685 C 455.434 -1.91426 0.889911 0
M  V30 4686 O 454.782 -2.28424 -0.0590292 0
M  V30 4687 C 454.992 -1.10655 3.30993 0
M  V30 4688 C 456.34 -1.50621 3.96987 0
M  V30 4689 O 457.364 -1.20007 3.35375 0
M  V30 4690 O 456.223 -2.07587 5.05539 0
M  V30 4691 H 453.317 -0.34673 0.750804 0
M  V30 4692 H 455.863 0.0362578 1.69661 0
M  V30 4693 H 454.635 -0.248826 3.90508 0
M  V30 4694 H 454.258 -1.91189 3.48615 0
M  V30 4695 N 455.255 -1.55392 -0.262866 0
M  V30 4696 C 456.165 -1.92077 -1.34698 0
M  V30 4697 C 457.181 -0.819227 -1.53508 0
M  V30 4698 O 458.357 -1.11921 -1.67439 0
M  V30 4699 C 455.422 -2.19407 -2.68443 0
M  V30 4700 C 454.483 -3.42905 -2.58292 0
M  V30 4701 C 453.716 -3.68921 -3.85659 0
M  V30 4702 O 453.939 -2.97275 -4.8681 0
M  V30 4703 O 452.873 -4.62455 -3.85252 0
M  V30 4704 H 456.699 -2.84384 -1.06581 0
M  V30 4705 H 454.284 -1.42069 -0.462264 0
M  V30 4706 H 456.166 -2.38365 -3.47506 0
M  V30 4707 H 454.841 -1.30282 -2.96325 0
M  V30 4708 H 453.748 -3.29272 -1.7757 0
M  V30 4709 H 455.081 -4.32282 -2.35358 0
M  V30 4710 N 456.733 0.527833 -1.48498 0
M  V30 4711 C 457.643 1.65907 -1.65867 0
M  V30 4712 C 458.659 1.6537 -0.541192 0
M  V30 4713 O 459.835 1.84282 -0.812534 0
M  V30 4714 C 456.9 3.02364 -1.69637 0
M  V30 4715 C 455.961 3.1374 -2.93028 0
M  V30 4716 C 455.194 4.43688 -2.96609 0
M  V30 4717 O 455.417 5.30913 -2.08538 0
M  V30 4718 O 454.351 4.59475 -3.88802 0
M  V30 4719 H 458.177 1.5419 -2.61647 0
M  V30 4720 H 455.762 0.701163 -1.31924 0
M  V30 4721 H 457.644 3.83515 -1.74625 0
M  V30 4722 H 456.319 3.14401 -0.770312 0
M  V30 4723 H 455.226 2.31877 -2.93571 0
M  V30 4724 H 456.559 3.06621 -3.85026 0
M  V30 4725 N 458.211 1.37122 0.776871 0
M  V30 4726 C 459.141 1.35164 1.90402 0
M  V30 4727 C 460.122 0.221069 1.68657 0
M  V30 4728 O 461.307 0.420642 1.8959 0
M  V30 4729 C 458.437 1.15274 3.27611 0
M  V30 4730 C 457.391 2.25289 3.63908 0
M  V30 4731 C 456.717 1.90527 4.99603 0
M  V30 4732 C 458.017 3.67446 3.71188 0
M  V30 4733 H 459.711 2.29482 1.92297 0
M  V30 4734 H 457.257 1.10465 0.923773 0
M  V30 4735 H 459.21 1.12536 4.06096 0
M  V30 4736 H 457.934 0.174102 3.26136 0
M  V30 4737 H 456.593 2.27174 2.87728 0
M  V30 4738 H 456.241 0.91206 4.94662 0
M  V30 4739 H 455.941 2.64193 5.24858 0
M  V30 4740 H 457.465 1.89367 5.80493 0
M  V30 4741 H 458.879 3.67719 4.39836 0
M  V30 4742 H 457.276 4.40123 4.07936 0
M  V30 4743 H 458.346 4.01443 2.71977 0
M  V30 4744 N 459.689 -1.00246 1.21608 0
M  V30 4745 C 461.1 -1.55511 1.03312 0
M  V30 4746 C 461.451 -1.91946 -0.406332 0
M  V30 4747 O 460.576 -1.73753 -1.28992 0
M  V30 4748 C 461.171 -2.82576 1.86913 0
M  V30 4749 C 459.73 -3.34318 1.72941 0
M  V30 4750 C 458.877 -2.07487 1.83968 0
M  V30 4751 H 461.828 -0.824638 1.35593 0
M  V30 4752 H 461.849 -3.54559 1.38087 0
M  V30 4753 H 461.361 -2.56026 2.91672 0
M  V30 4754 H 459.462 -3.65797 0.70877 0
M  V30 4755 H 459.575 -4.05566 2.55055 0
M  V30 4756 H 457.939 -2.20603 1.27304 0
M  V30 4757 H 458.722 -1.83346 2.9024 0
M  V30 4758 N 461.167 -1.02423 -1.1978 0
M  V30 4759 C 462.415 -0.716569 -1.8897 0
M  V30 4760 C 462.736 0.756769 -1.79716 0
M  V30 4761 O 462.006 1.5449 -1.20456 0
M  V30 4762 H 460.586 -0.262062 -0.699523 0
M  V30 4763 H 463.248 -1.29747 -1.45436 0
M  V30 4764 H 462.344 -1.00675 -2.95417 0
M  V30 4765 N 462.645 1.35699 -0.801477 0
M  V30 4766 C 463.575 2.32436 -0.222658 0
M  V30 4767 C 464.556 1.5723 0.649057 0
M  V30 4768 O 465.741 1.85324 0.580387 0
M  V30 4769 C 462.871 3.41469 0.633719 0
M  V30 4770 C 461.825 4.27774 -0.139083 0
M  V30 4771 C 461.151 5.28082 0.838666 0
M  V30 4772 C 462.451 5.04946 -1.33517 0
M  V30 4773 H 464.145 2.81094 -1.03086 0
M  V30 4774 H 461.691 1.35146 -0.497155 0
M  V30 4775 H 463.644 4.08143 1.04868 0
M  V30 4776 H 462.368 2.91408 1.47475 0
M  V30 4777 H 461.027 3.62673 -0.535156 0
M  V30 4778 H 460.675 4.7429 1.67506 0
M  V30 4779 H 460.375 5.86695 0.32594 0
M  V30 4780 H 461.899 5.97628 1.25194 0
M  V30 4781 H 463.313 5.64593 -0.995349 0
M  V30 4782 H 461.71 5.7303 -1.78202 0
M  V30 4783 H 462.78 4.35886 -2.12442 0
M  V30 4784 N 464.123 0.554532 1.47522 0
M  V30 4785 C 465.369 0.0295227 2.02779 0
M  V30 4786 C 465.702 -1.31582 1.42828 0
M  V30 4787 O 464.977 -1.85561 0.582872 0
M  V30 4788 C 465.26 -0.0664057 3.60039 0
M  V30 4789 C 465.113 1.30585 4.30427 0
M  V30 4790 C 466.432 -0.781162 4.33112 0
M  V30 4791 H 463.551 0.0122027 0.736899 0
M  V30 4792 H 466.193 0.716305 1.7598 0
M  V30 4793 H 464.343 -0.651307 3.83002 0
M  V30 4794 H 466.015 1.93374 4.18813 0
M  V30 4795 H 464.258 1.88125 3.90886 0
M  V30 4796 H 464.929 1.19147 5.38988 0
M  V30 4797 H 467.405 -0.284565 4.15126 0
M  V30 4798 H 466.281 -0.817237 5.42782 0
M  V30 4799 H 466.542 -1.83672 4.0214 0
M  V30 4800 N 465.601 -1.54893 0.290851 0
M  V30 4801 C 466.826 -2.04804 -0.32712 0
M  V30 4802 C 467.251 -1.16721 -1.47506 0
M  V30 4803 O 466.609 -0.169107 -1.8051 0
M  V30 4804 C 466.657 -3.52268 -0.770689 0
M  V30 4805 O 465.761 -3.67236 -1.87647 0
M  V30 4806 H 465.102 -0.660789 -0.0652227 0
M  V30 4807 H 467.632 -2.00036 0.429739 0
M  V30 4808 H 467.642 -3.9393 -1.06223 0
M  V30 4809 H 466.317 -4.15843 0.069096 0
M  V30 4810 H 464.894 -3.37479 -1.58626 0
M  V30 4811 N 467.08 -0.0183926 -1.57589 0
M  V30 4812 C 468.357 0.700621 -1.82622 0
M  V30 4813 C 468.737 1.90951 -0.90005 0
M  V30 4814 O 468.085 2.28452 0.0469145 0
M  V30 4815 C 468.295 1.08899 -3.31575 0
M  V30 4816 C 469.643 1.48514 -3.9778 0
M  V30 4817 O 470.667 1.18227 -3.36007 0
M  V30 4818 O 469.526 2.04903 -5.06633 0
M  V30 4819 H 466.62 0.342743 -0.752633 0
M  V30 4820 H 469.166 -0.0452548 -1.6964 0
M  V30 4821 H 467.938 0.228113 -3.90635 0
M  V30 4822 H 467.561 1.89338 -3.49624 0
M  V30 4823 N 468.558 1.5553 0.254621 0
M  V30 4824 C 469.783 1.81383 1.00573 0
M  V30 4825 C 470.208 0.594419 1.78461 0
M  V30 4826 O 469.566 -0.456403 1.75461 0
M  V30 4827 C 469.614 3.04892 1.92545 0
M  V30 4828 O 468.718 2.81266 3.01601 0
M  V30 4829 H 468.059 0.598969 0.286587 0
M  V30 4830 H 470.589 2.02703 0.277952 0
M  V30 4831 H 470.599 3.34119 2.34155 0
M  V30 4832 H 469.274 3.93287 1.3527 0
M  V30 4833 H 467.851 2.63185 2.64174 0
M  V30 4834 N 470.036 -0.519951 1.48776 0
M  V30 4835 C 470.966 -1.63253 1.66945 0
M  V30 4836 C 471.947 -1.62014 0.518224 0
M  V30 4837 O 473.132 -1.79053 0.751919 0
M  V30 4838 C 470.262 -3.0181 1.71836 0
M  V30 4839 C 469.216 -3.17911 2.8656 0
M  V30 4840 C 468.542 -4.5763 2.76548 0
M  V30 4841 C 469.842 -2.99729 4.27738 0
M  V30 4842 H 471.536 -1.48302 2.6009 0
M  V30 4843 H 469.082 -0.712026 1.25165 0
M  V30 4844 H 471.035 -3.79525 1.83135 0
M  V30 4845 H 469.759 -3.17806 0.752775 0
M  V30 4846 H 468.418 -2.42616 2.74833 0
M  V30 4847 H 468.066 -4.70476 1.77937 0
M  V30 4848 H 467.766 -4.69346 3.53536 0
M  V30 4849 H 469.29 -5.37431 2.89828 0
M  V30 4850 H 470.704 -3.67228 4.40246 0
M  V30 4851 H 469.101 -3.22932 5.05801 0
M  V30 4852 H 470.171 -1.96047 4.43502 0
M  V30 4853 N 471.514 -1.37532 -0.769588 0
M  V30 4854 C 472.462 -1.33561 -1.90432 0
M  V30 4855 C 473.456 -0.224027 -1.67912 0
M  V30 4856 O 474.662 -0.392174 -1.75676 0
M  V30 4857 H 471.037 -0.416279 -0.626271 0
M  V30 4858 H 473.008 -2.29348 -1.90899 0
M  V30 4859 C 471.757 -1.16162 -3.27722 0
M  V30 4860 H 471.08 -2.00951 -3.45628 0
M  V30 4861 H 472.52 -1.17434 -4.07413 0
M  V30 4862 C 470.979 0.132583 -3.36639 0
M  V30 4863 O 471.509 1.11539 -3.85904 0
M  V30 4864 N 469.715 0.184013 -2.90017 0
M  V30 4865 H 469.262 -0.616415 -2.50116 0
M  V30 4866 H 469.22 1.04956 -2.96364 0
M  V30 4867 N 472.992 0.995999 -1.22138 0
M  V30 4868 C 474.403 1.54961 -1.04135 0
M  V30 4869 C 474.754 1.92159 0.396147 0
M  V30 4870 O 473.879 1.74435 1.28069 0
M  V30 4871 C 474.474 2.81581 -1.88408 0
M  V30 4872 C 473.033 3.33396 -1.74712 0
M  V30 4873 C 472.18 2.06509 -1.85066 0
M  V30 4874 H 475.131 0.817436 -1.36028 0
M  V30 4875 H 475.152 3.53822 -1.39966 0
M  V30 4876 H 474.664 2.54476 -2.93025 0
M  V30 4877 H 472.765 3.65416 -0.728159 0
M  V30 4878 H 472.878 4.04208 -2.57202 0
M  V30 4879 H 471.242 2.19925 -1.28472 0
M  V30 4880 H 472.025 1.81804 -2.91208 0
M  V30 4881 N 474.47 1.03057 1.19235 0
M  V30 4882 C 475.433 0.617418 2.20727 0
M  V30 4883 C 476.433 -0.319856 1.57587 0
M  V30 4884 O 477.623 -0.106633 1.73873 0
M  V30 4885 C 474.755 -0.096296 3.40764 0
M  V30 4886 H 475.948 1.51544 2.58794 0
M  V30 4887 H 473.501 0.821949 1.32942 0
M  V30 4888 H 474.236 -1.00859 3.08217 0
M  V30 4889 H 474.021 0.577217 3.87828 0
M  V30 4890 H 475.511 -0.372219 4.15938 0
M  V30 4891 N 475.948 -1.35272 0.808662 0
M  V30 4892 C 476.898 -2.27181 0.193124 0
M  V30 4893 C 477.882 -1.47871 -0.634265 0
M  V30 4894 O 479.074 -1.70048 -0.491182 0
M  V30 4895 C 476.203 -3.36979 -0.655751 0
M  V30 4896 C 475.289 -4.23712 0.181481 0
M  V30 4897 N 475.68 -4.90225 1.24551 0
M  V30 4898 C 473.978 -4.45985 -0.0365493 0
M  V30 4899 C 474.679 -5.54537 1.75682 0
M  V30 4900 N 473.655 -5.33107 1.06294 0
M  V30 4901 H 477.457 -2.76101 1.00724 0
M  V30 4902 H 474.971 -1.48823 0.650029 0
M  V30 4903 H 476.968 -4.01774 -1.11279 0
M  V30 4904 H 475.628 -2.89611 -1.46819 0
M  V30 4905 H 476.639 -4.91641 1.62818 0
M  V30 4906 H 473.316 -4.09409 -0.817964 0
M  V30 4907 H 474.706 -6.17597 2.64621 0
M  V30 4908 N 477.426 -0.562348 -1.47226 0
M  V30 4909 C 478.389 0.172056 -2.28553 0
M  V30 4910 C 479.389 0.837928 -1.37242 0
M  V30 4911 O 480.579 0.693001 -1.59822 0
M  V30 4912 C 477.711 1.25223 -3.17068 0
M  V30 4913 H 478.904 -0.542401 -2.94954 0
M  V30 4914 H 476.457 -0.319493 -1.53 0
M  V30 4915 H 477.192 1.99892 -2.55369 0
M  V30 4916 H 476.977 0.779515 -3.84273 0
M  V30 4917 H 478.467 1.76791 -3.78332 0
M  V30 4918 N 478.904 1.54736 -0.299062 0
M  V30 4919 C 480.32 1.59507 0.0543849 0
M  V30 4920 C 480.52 1.31606 1.52585 0
M  V30 4921 O 479.576 1.08853 2.27832 0
M  V30 4922 C 480.889 2.98751 -0.34181 0
M  V30 4923 C 482.437 3.1165 -0.290414 0
M  V30 4924 C 482.912 4.53199 -0.661402 0
M  V30 4925 N 484.403 4.59114 -0.613863 0
M  V30 4926 C 485.138 5.66709 -0.873417 0
M  V30 4927 N 484.634 6.82349 -1.19884 0
M  V30 4928 N 486.427 5.56369 -0.800608 0
M  V30 4929 H 478.578 1.71133 -1.25806 0
M  V30 4930 H 480.841 0.799186 -0.509908 0
M  V30 4931 H 480.547 3.24085 -1.36608 0
M  V30 4932 H 480.421 3.75961 0.305508 0
M  V30 4933 H 482.808 2.86066 0.724605 0
M  V30 4934 H 482.889 2.366 -0.972327 0
M  V30 4935 H 482.533 4.79513 -1.67422 0
M  V30 4936 H 482.463 5.26583 0.0425612 0
M  V30 4937 H 484.954 3.76053 -0.3732 0
M  V30 4938 H 485.267 7.60326 -1.38291 0
M  V30 4939 H 483.612 6.83906 -1.23685 0
M  V30 4940 H 486.803 4.64904 -0.546045 0
M  V30 4941 H 486.976 6.40139 -1.00626 0
M  V30 4942 N 480.382 0.0267497 1.57577 0
M  V30 4943 C 481.631 -0.651736 1.9088 0
M  V30 4944 C 481.944 -1.73427 0.904576 0
M  V30 4945 O 483.15 -2.46923 1.12877 0
M  V30 4946 C 481.606 -1.21048 3.38933 0
M  V30 4947 C 481.214 -0.161362 4.47709 0
M  V30 4948 C 482.958 -1.86562 3.81307 0
M  V30 4949 C 480.865 -0.731611 5.86857 0
M  V30 4950 H 479.795 -0.247198 0.712326 0
M  V30 4951 H 482.446 0.0916641 1.83271 0
M  V30 4952 H 480.828 -2.00542 3.41466 0
M  V30 4953 H 482.002 0.61094 4.56732 0
M  V30 4954 H 480.317 0.394877 4.14523 0
M  V30 4955 H 482.914 -2.30178 4.8262 0
M  V30 4956 H 483.257 -2.70735 3.16241 0
M  V30 4957 H 483.79 -1.13762 3.81186 0
M  V30 4958 H 480.529 0.0719329 6.55461 0
M  V30 4959 H 480.049 -1.47245 5.81445 0
M  V30 4960 H 481.728 -1.22208 6.35354 0
M  V30 4961 N 481.861 -1.55662 -0.24637 0
M  V30 4962 C 482.791 -1.93377 -1.30873 0
M  V30 4963 C 483.772 -0.798773 -1.50179 0
M  V30 4964 O 484.957 -1.0591 -1.62778 0
M  V30 4965 C 482.087 -2.22893 -2.66338 0
M  V30 4966 C 481.041 -3.38649 -2.61727 0
M  V30 4967 C 480.367 -3.53708 -4.00992 0
M  V30 4968 C 481.667 -4.74323 -2.18666 0
M  V30 4969 H 483.361 -2.82363 -0.995552 0
M  V30 4970 H 480.907 -1.35854 -0.477464 0
M  V30 4971 H 482.86 -2.47866 -3.40794 0
M  V30 4972 H 481.584 -1.30733 -2.99293 0
M  V30 4973 H 480.243 -3.13685 -1.89729 0
M  V30 4974 H 479.891 -2.58967 -4.31214 0
M  V30 4975 H 479.591 -4.31551 -3.98795 0
M  V30 4976 H 481.115 -3.81003 -4.77147 0
M  V30 4977 H 482.529 -4.98665 -2.82854 0
M  V30 4978 H 480.926 -5.55273 -2.27579 0
M  V30 4979 H 481.996 -4.71349 -1.13834 0
M  V30 4980 N 483.339 0.512053 -1.4905 0
M  V30 4981 C 484.269 1.62365 -1.67809 0
M  V30 4982 C 485.25 1.61737 -0.526809 0
M  V30 4983 O 486.435 1.78651 -0.761404 0
M  V30 4984 C 483.565 3.00895 -1.73435 0
M  V30 4985 C 482.519 3.16387 -2.88242 0
M  V30 4986 C 481.845 4.56157 -2.78971 0
M  V30 4987 C 483.145 2.97457 -4.29321 0
M  V30 4988 H 484.839 1.46921 -2.60873 0
M  V30 4989 H 482.385 0.705379 -1.2554 0
M  V30 4990 H 484.338 3.78549 -1.85145 0
M  V30 4991 H 483.062 3.17403 -0.769619 0
M  V30 4992 H 481.721 2.41155 -2.76116 0
M  V30 4993 H 481.369 4.69525 -1.8043 0
M  V30 4994 H 481.069 4.67465 -3.5602 0
M  V30 4995 H 482.593 5.35886 -2.92675 0
M  V30 4996 H 484.007 3.64888 -4.42187 0
M  V30 4997 H 482.404 3.20245 -5.07507 0
M  V30 4998 H 483.474 1.93692 -4.44535 0
M  V30 4999 N 484.817 1.37938 0.762283 0
M  V30 5000 C 485.75 1.2884 1.88349 0
M  V30 5001 C 486.728 0.167084 1.61739 0
M  V30 5002 O 487.912 0.34292 1.85355 0
M  V30 5003 C 485.039 0.994257 3.23778 0
M  V30 5004 C 484.085 2.13376 3.69287 0
M  V30 5005 S 484.918 3.75439 3.81845 0
M  V30 5006 C 486.074 3.48195 5.20107 0
M  V30 5007 H 486.307 2.23736 1.95779 0
M  V30 5008 H 483.84 1.23672 0.924368 0
M  V30 5009 H 485.798 0.83138 4.01993 0
M  V30 5010 H 484.459 0.0626251 3.14038 0
M  V30 5011 H 483.652 1.88319 4.67495 0
M  V30 5012 H 483.254 2.25726 2.98201 0
M  V30 5013 H 485.546 3.0377 6.05583 0
M  V30 5014 H 486.489 4.45765 5.50181 0
M  V30 5015 H 486.897 2.82905 4.88493 0
M  V30 5016 N 486.295 -0.989507 1.22664 0
M  V30 5017 C 487.225 -2.09847 1.02404 0
M  V30 5018 C 488.206 -1.70007 -0.0561303 0
M  V30 5019 O 489.391 -1.93906 0.106748 0
M  V30 5020 C 486.521 -3.41996 0.604663 0
M  V30 5021 C 485.475 -3.95699 1.63115 0
M  V30 5022 C 484.801 -5.23936 1.0675 0
M  V30 5023 C 486.101 -4.25999 3.02196 0
M  V30 5024 H 487.795 -2.27054 1.95158 0
M  V30 5025 H 485.341 -1.09111 0.939727 0
M  V30 5026 H 487.294 -4.1899 0.45002 0
M  V30 5027 H 486.018 -3.24626 -0.35855 0
M  V30 5028 H 484.677 -3.2084 1.77362 0
M  V30 5029 H 484.325 -5.02909 0.0955422 0
M  V30 5030 H 484.025 -5.60833 1.75328 0
M  V30 5031 H 485.549 -6.0356 0.924516 0
M  V30 5032 H 486.963 -4.93777 2.91303 0
M  V30 5033 H 485.36 -4.74076 3.67929 0
M  V30 5034 H 486.43 -3.33636 3.51873 0
M  V30 5035 N 487.773 -1.03688 -1.18687 0
M  V30 5036 C 488.736 -0.629115 -2.20397 0
M  V30 5037 C 489.736 0.311495 -1.57754 0
M  V30 5038 O 490.926 0.0974107 -1.73927 0
M  V30 5039 C 488.058 0.0782231 -3.4081 0
M  V30 5040 H 489.251 -1.52915 -2.57987 0
M  V30 5041 H 486.804 -0.828988 -1.32505 0
M  V30 5042 H 487.539 0.992233 -3.08748 0
M  V30 5043 H 487.324 -0.597776 -3.87517 0
M  V30 5044 H 488.814 0.350156 -4.16129 0
M  V30 5045 N 489.251 1.34841 -0.815825 0
M  V30 5046 C 490.181 2.32187 -0.247298 0
M  V30 5047 C 491.162 1.5791 0.632344 0
M  V30 5048 O 492.347 1.8593 0.560698 0
M  V30 5049 C 489.477 3.42122 0.597466 0
M  V30 5050 C 488.431 4.27602 -0.184446 0
M  V30 5051 C 487.757 5.28942 0.782609 0
M  V30 5052 C 489.057 5.03502 -1.38865 0
M  V30 5053 H 490.751 2.79985 -1.06061 0
M  V30 5054 H 488.297 1.34611 -0.511461 0
M  V30 5055 H 490.25 4.09232 1.00533 0
M  V30 5056 H 488.974 2.92956 1.44376 0
M  V30 5057 H 487.633 3.62085 -0.573592 0
M  V30 5058 H 487.281 4.7604 1.62466 0
M  V30 5059 H 486.981 5.87008 0.263695 0
M  V30 5060 H 488.505 5.98922 1.18848 0
M  V30 5061 H 489.919 5.63506 -1.05518 0
M  V30 5062 H 488.316 5.71108 -1.8427 0
M  V30 5063 H 489.386 4.33608 -2.17054 0
M  V30 5064 N 490.729 0.570148 1.46925 0
M  V30 5065 C 491.957 0.0561966 2.06824 0
M  V30 5066 C 492.372 -1.24326 1.42086 0
M  V30 5067 O 491.729 -1.74882 0.521794 0
M  V30 5068 C 491.78 -0.129517 3.61268 0
M  V30 5069 O 491.501 1.1185 4.23581 0
M  V30 5070 C 493.002 -0.679266 4.38065 0
M  V30 5071 H 490.222 0.0517261 0.669003 0
M  V30 5072 H 492.766 0.787243 1.8874 0
M  V30 5073 H 490.921 -0.810739 3.78822 0
M  V30 5074 H 491.335 0.924375 5.1629 0
M  V30 5075 H 492.809 -0.758445 5.46765 0
M  V30 5076 H 493.286 -1.69346 4.05239 0
M  V30 5077 H 493.892 -0.0333237 4.25287 0
M  V30 5078 N 492.207 -1.54576 0.307264 0
M  V30 5079 C 493.623 -1.59534 -0.0459251 0
M  V30 5080 C 493.823 -1.32414 -1.51884 0
M  V30 5081 O 492.879 -1.1006 -2.27251 0
M  V30 5082 C 494.192 -2.98566 0.357649 0
M  V30 5083 C 495.74 -3.11491 0.306937 0
M  V30 5084 C 496.215 -4.52842 0.685427 0
M  V30 5085 N 497.706 -4.58782 0.638203 0
M  V30 5086 C 498.441 -5.66238 0.903458 0
M  V30 5087 N 497.937 -6.81703 1.23501 0
M  V30 5088 N 499.73 -5.55937 0.830102 0
M  V30 5089 H 491.881 -1.70464 1.26712 0
M  V30 5090 H 494.144 -0.79647 0.514139 0
M  V30 5091 H 493.85 -3.23356 1.38325 0
M  V30 5092 H 493.724 -3.76117 -0.285565 0
M  V30 5093 H 496.111 -2.86446 -0.709424 0
M  V30 5094 H 496.192 -2.36081 0.984861 0
M  V30 5095 H 495.836 -4.78618 1.69963 0
M  V30 5096 H 495.766 -5.26598 -0.0146346 0
M  V30 5097 H 498.257 -3.75849 0.393138 0
M  V30 5098 H 498.57 -7.59582 1.42322 0
M  V30 5099 H 496.915 -6.8324 1.27311 0
M  V30 5100 H 500.106 -4.64608 0.570693 0
M  V30 5101 H 500.279 -6.39597 1.04019 0
M  V30 5102 N 493.685 -0.035106 -1.57561 0
M  V30 5103 C 494.913 0.652258 -1.9635 0
M  V30 5104 C 495.328 1.65317 -0.911897 0
M  V30 5105 O 494.685 1.82194 0.105657 0
M  V30 5106 C 494.736 1.35337 -3.35211 0
M  V30 5107 O 494.457 0.392548 -4.36338 0
M  V30 5108 C 495.958 2.13199 -3.88666 0
M  V30 5109 H 493.178 0.179444 -0.646561 0
M  V30 5110 H 495.722 -0.0966459 -2.04271 0
M  V30 5111 H 493.877 2.05362 -3.28489 0
M  V30 5112 H 494.291 0.891097 -5.16875 0
M  V30 5113 H 495.765 2.577 -4.88154 0
M  V30 5114 H 496.242 2.97353 -3.23231 0
M  V30 5115 H 496.848 1.48118 -3.98674 0
M  V30 5116 N 495.163 1.55791 0.238111 0
M  V30 5117 C 496.388 1.8244 0.986432 0
M  V30 5118 C 496.813 0.613314 1.7782 0
M  V30 5119 O 496.171 -0.437767 1.75935 0
M  V30 5120 C 496.219 3.06917 1.893 0
M  V30 5121 O 495.323 2.84449 2.98601 0
M  V30 5122 H 494.664 0.601975 0.280218 0
M  V30 5123 H 497.194 2.02987 0.256437 0
M  V30 5124 H 497.204 3.36583 2.30598 0
M  V30 5125 H 495.879 3.947 1.31091 0
M  V30 5126 H 494.456 2.65972 2.61368 0
M  V30 5127 N 496.642 -0.504142 1.49319 0
M  V30 5128 C 497.919 -1.26548 1.49147 0
M  V30 5129 C 498.299 -2.09977 0.21744 0
M  V30 5130 O 497.647 -2.14028 -0.800269 0
M  V30 5131 C 497.857 -2.12489 2.76857 0
M  V30 5132 C 499.205 -2.7178 3.26222 0
M  V30 5133 O 500.229 -2.22758 2.77952 0
M  V30 5134 O 499.088 -3.61015 4.10281 0
M  V30 5135 H 496.182 -0.572495 0.596806 0
M  V30 5136 H 498.728 -0.51867 1.61579 0
M  V30 5137 H 497.5 -1.50796 3.61077 0
M  V30 5138 H 497.123 -2.94368 2.6727 0
M  V30 5139 N 498.12 -1.38341 -0.754957 0
M  V30 5140 C 499.531 -1.30803 -1.3322 0
M  V30 5141 C 499.882 0.0368 -1.96165 0
M  V30 5142 O 499.007 0.938844 -1.94974 0
M  V30 5143 C 499.602 -2.3688 -2.42225 0
M  V30 5144 C 498.161 -2.32925 -2.95674 0
M  V30 5145 C 497.308 -2.19819 -1.69042 0
M  V30 5146 H 500.259 -1.48719 -0.553937 0
M  V30 5147 H 500.28 -2.02517 -3.22129 0
M  V30 5148 H 499.792 -3.34747 -1.96383 0
M  V30 5149 H 497.893 -1.38635 -3.45848 0
M  V30 5150 H 498.006 -3.27008 -3.50146 0
M  V30 5151 H 496.37 -1.66648 -1.92615 0
M  V30 5152 H 497.153 -3.19625 -1.25279 0
M  V30 5153 N 499.598 0.982988 -1.23187 0
M  V30 5154 C 500.545 2.07491 -1.01075 0
M  V30 5155 C 501.515 1.65949 0.070905 0
M  V30 5156 O 502.7 1.90629 -0.0806822 0
M  V30 5157 C 499.84 3.39751 -0.605261 0
M  V30 5158 C 498.953 3.94578 -1.75876 0
M  V30 5159 C 498.088 5.15039 -1.3003 0
M  V30 5160 C 497.127 5.62027 -2.42472 0
M  V30 5161 N 496.264 6.73719 -1.97602 0
M  V30 5162 H 501.104 2.25739 -1.9454 0
M  V30 5163 H 498.641 1.10659 -0.969179 0
M  V30 5164 H 500.599 4.15719 -0.351279 0
M  V30 5165 H 499.229 3.21473 0.292382 0
M  V30 5166 H 498.281 3.1539 -2.12681 0
M  V30 5167 H 499.593 4.25422 -2.60418 0
M  V30 5168 H 498.747 5.9833 -1.00429 0
M  V30 5169 H 497.486 4.85843 -0.425216 0
M  V30 5170 H 496.491 4.77318 -2.7285 0
M  V30 5171 H 497.716 5.93244 -3.30512 0
M  V30 5172 H 495.662 6.46287 -1.1247 0
M  V30 5173 H 495.579 7.03934 -2.75705 0
M  V30 5174 H 496.847 7.6049 -1.71098 0
M  V30 5175 N 501.076 1.04316 1.18135 0
M  V30 5176 C 502.322 0.749128 1.88457 0
M  V30 5177 C 502.655 -0.72149 1.803 0
M  V30 5178 O 501.93 -1.52676 1.205 0
M  V30 5179 C 502.213 1.21905 3.38838 0
M  V30 5180 C 502.066 2.75195 3.55792 0
M  V30 5181 C 503.385 0.811085 4.32561 0
M  V30 5182 H 500.504 0.273611 0.684329 0
M  V30 5183 H 503.146 1.29561 1.38975 0
M  V30 5184 H 501.296 0.754137 3.8111 0
M  V30 5185 H 502.968 3.29743 3.22595 0
M  V30 5186 H 501.211 3.14899 2.98364 0
M  V30 5187 H 501.882 3.03135 4.61317 0
M  V30 5188 H 504.358 1.21118 3.98082 0
M  V30 5189 H 503.234 1.16761 5.36338 0
M  V30 5190 H 503.495 -0.285596 4.41177 0
M  V30 5191 N 502.554 -1.34406 0.822964 0
M  V30 5192 C 503.803 -1.97542 0.407458 0
M  V30 5193 C 504.116 -1.65973 -1.035 0
M  V30 5194 O 505.322 -2.22598 -1.55442 0
M  V30 5195 C 503.778 -3.53463 0.677623 0
M  V30 5196 C 503.386 -3.93925 2.1337 0
M  V30 5197 C 505.13 -4.23229 0.328284 0
M  V30 5198 C 503.037 -5.42759 2.34876 0
M  V30 5199 H 501.967 -0.739207 0.148623 0
M  V30 5200 H 504.618 -1.53248 1.00932 0
M  V30 5201 H 503 -3.96 0.00558965 0
M  V30 5202 H 504.174 -3.62494 2.8449 0
M  V30 5203 H 502.489 -3.37097 2.44448 0
M  V30 5204 H 505.086 -5.32659 0.466794 0
M  V30 5205 H 505.429 -4.09899 -0.727224 0
M  V30 5206 H 505.962 -3.86169 0.954896 0
M  V30 5207 H 502.701 -5.61075 3.38932 0
M  V30 5208 H 502.221 -5.75704 1.68299 0
M  V30 5209 H 503.9 -6.0944 2.17236 0
M  V30 5210 N 504.032 -0.577932 -1.46621 0
M  V30 5211 C 504.964 0.195801 -2.28362 0
M  V30 5212 C 505.977 0.859983 -1.38232 0
M  V30 5213 O 507.166 0.730349 -1.62875 0
M  V30 5214 C 504.266 1.29639 -3.13124 0
M  V30 5215 C 503.439 0.725049 -4.31349 0
M  V30 5216 C 502.498 1.71274 -4.97546 0
M  V30 5217 O 501.524 1.25067 -5.5529 0
M  V30 5218 N 502.726 3.04672 -4.94121 0
M  V30 5219 H 505.491 -0.505468 -2.95407 0
M  V30 5220 H 503.052 -0.415381 -1.56481 0
M  V30 5221 H 505.044 1.95631 -3.54275 0
M  V30 5222 H 503.614 1.90059 -2.48186 0
M  V30 5223 H 502.834 -0.112205 -3.9404 0
M  V30 5224 H 504.122 0.323034 -5.07774 0
M  V30 5225 H 503.52 3.4484 -4.48444 0
M  V30 5226 H 502.077 3.66166 -5.39227 0
M  V30 5227 N 505.51 1.54411 -0.315457 0
M  V30 5228 C 506.42 2.27737 0.56329 0
M  V30 5229 C 507.436 1.31787 1.13614 0
M  V30 5230 O 508.612 1.64791 1.15784 0
M  V30 5231 C 505.677 3.01478 1.71207 0
M  V30 5232 C 504.738 4.12997 1.17185 0
M  V30 5233 C 503.971 4.83212 2.26588 0
M  V30 5234 O 504.194 4.52884 3.46775 0
M  V30 5235 O 503.128 5.70299 1.92463 0
M  V30 5236 H 506.954 3.03683 -0.0319614 0
M  V30 5237 H 504.539 1.49178 -0.0814188 0
M  V30 5238 H 506.421 3.47683 2.38106 0
M  V30 5239 H 505.096 2.28414 2.29366 0
M  V30 5240 H 504.003 3.71159 0.468174 0
M  V30 5241 H 505.336 4.8808 0.635501 0
M  V30 5242 N 506.988 0.0434614 1.5754 0
M  V30 5243 C 508.218 -0.640905 1.96408 0
M  V30 5244 C 508.626 -1.65365 0.919297 0
M  V30 5245 O 507.969 -1.83395 -0.105795 0
M  V30 5246 C 508.031 -1.39141 3.31482 0
M  V30 5247 C 507.695 -0.535375 4.53853 0
M  V30 5248 C 508.692 0.195335 5.19533 0
M  V30 5249 C 506.377 -0.468564 5.0011 0
M  V30 5250 C 508.371 0.981377 6.298 0
M  V30 5251 C 506.058 0.321171 6.10255 0
M  V30 5252 C 507.056 1.04484 6.74961 0
M  V30 5253 O 506.744 1.8216 7.8299 0
M  V30 5254 H 506.476 -0.180584 0.651433 0
M  V30 5255 H 509.03 0.103848 2.05137 0
M  V30 5256 H 507.26 -2.18162 3.19284 0
M  V30 5257 H 508.949 -1.96526 3.55151 0
M  V30 5258 H 509.715 0.15314 4.84758 0
M  V30 5259 H 505.594 -1.02142 4.49542 0
M  V30 5260 H 509.138 1.54674 6.80237 0
M  V30 5261 H 505.035 0.365032 6.44467 0
M  V30 5262 H 505.803 1.74289 7.99728 0
M  V30 5263 N 508.466 -1.55915 -0.229846 0
M  V30 5264 C 509.713 -1.78542 -0.955452 0
M  V30 5265 C 510.041 -0.610785 -1.84661 0
M  V30 5266 O 509.296 0.405213 -1.91459 0
M  V30 5267 C 509.595 -3.06845 -1.8325 0
M  V30 5268 C 509.261 -4.37395 -1.09528 0
M  V30 5269 C 507.923 -4.72868 -0.891598 0
M  V30 5270 C 510.275 -5.18029 -0.574046 0
M  V30 5271 C 507.603 -5.86496 -0.154655 0
M  V30 5272 C 509.955 -6.32423 0.149513 0
M  V30 5273 C 508.619 -6.66504 0.364519 0
M  V30 5274 H 507.889 -0.653333 -0.349625 0
M  V30 5275 H 510.536 -1.90183 -0.224235 0
M  V30 5276 H 508.841 -2.90291 -2.63132 0
M  V30 5277 H 510.538 -3.21553 -2.39592 0
M  V30 5278 H 507.128 -4.09538 -1.26399 0
M  V30 5279 H 511.312 -4.91066 -0.718899 0
M  V30 5280 H 506.568 -6.11396 0.0222356 0
M  V30 5281 H 510.742 -6.94137 0.560947 0
M  V30 5282 H 508.369 -7.54397 0.937495 0
M  V30 5283 N 509.944 0.496216 -1.49584 0
M  V30 5284 C 510.894 1.59422 -1.62999 0
M  V30 5285 C 511.878 1.53402 -0.485457 0
M  V30 5286 O 513.07 1.60851 -0.738649 0
M  V30 5287 C 510.199 2.98009 -1.70427 0
M  V30 5288 C 509.285 3.09008 -2.90473 0
M  V30 5289 N 509.676 2.89884 -4.14489 0
M  V30 5290 C 507.974 3.40115 -2.8851 0
M  V30 5291 C 508.675 3.0519 -4.95211 0
M  V30 5292 N 507.651 3.3428 -4.2867 0
M  V30 5293 H 511.453 1.43297 -2.56599 0
M  V30 5294 H 508.967 0.702443 -1.46422 0
M  V30 5295 H 510.964 3.76926 -1.78136 0
M  V30 5296 H 509.624 3.152 -0.77967 0
M  V30 5297 H 510.635 2.65963 -4.44392 0
M  V30 5298 H 507.312 3.63452 -2.05448 0
M  V30 5299 H 508.702 2.94856 -6.03746 0
M  V30 5300 N 511.423 1.38739 0.74761 0
M  V30 5301 C 512.651 1.38521 1.53686 0
M  V30 5302 C 513.066 -0.0235129 1.88785 0
M  V30 5303 O 512.423 -0.991662 1.53207 0
M  V30 5304 C 512.474 2.24641 2.83229 0
M  V30 5305 O 512.195 3.60026 2.49625 0
M  V30 5306 C 513.696 2.32669 3.77333 0
M  V30 5307 H 510.916 0.473589 0.475347 0
M  V30 5308 H 513.46 1.82395 0.924786 0
M  V30 5309 H 511.615 1.84213 3.40799 0
M  V30 5310 H 512.029 4.05435 3.3275 0
M  V30 5311 H 513.503 2.97201 4.65162 0
M  V30 5312 H 513.98 1.3421 4.18192 0
M  V30 5313 H 514.586 2.73512 3.25685 0
M  V30 5314 N 512.901 -0.976442 1.23707 0
M  V30 5315 C 514.131 -1.75087 1.09673 0
M  V30 5316 C 514.539 -1.85852 -0.354344 0
M  V30 5317 O 513.882 -1.33985 -1.25673 0
M  V30 5318 C 513.944 -3.19272 1.65245 0
M  V30 5319 C 513.608 -3.32004 3.14042 0
M  V30 5320 C 514.605 -3.18017 4.11292 0
M  V30 5321 C 512.29 -3.56525 3.53829 0
M  V30 5322 C 514.284 -3.28363 5.46312 0
M  V30 5323 C 511.971 -3.6651 4.88993 0
M  V30 5324 C 512.969 -3.52439 5.85043 0
M  V30 5325 O 512.657 -3.62063 7.1775 0
M  V30 5326 H 512.389 -0.556164 0.384262 0
M  V30 5327 H 514.943 -1.23518 1.64111 0
M  V30 5328 H 513.173 -3.72107 1.05231 0
M  V30 5329 H 514.862 -3.7849 1.46629 0
M  V30 5330 H 515.628 -2.98966 3.81896 0
M  V30 5331 H 511.507 -3.66547 2.79579 0
M  V30 5332 H 515.051 -3.17297 6.21263 0
M  V30 5333 H 510.948 -3.85072 5.18063 0
M  V30 5334 H 511.716 -3.78833 7.25553 0
M  V30 5335 O 514.418 -1.17461 -1.10838 0
M  V30 5336 H 515.109 -0.912283 -1.70872 0
M  V30 END ATOM
M  V30 BEGIN BOND
M  V30 END BOND
M  V30 END CTAB
M  END
$$$$
