drugbank_target|P06672 Pyruvate decarboxylase (DB04272)
 OpenBabel12092120293D

  0  0  0     0  0            999 V3000
M  V30 BEGIN CTAB
M  V30 COUNTS 8561 8653 0 0 0
M  V30 BEGIN ATOM
M  V30 1 H -0.908 1.98254 -0.117106 0
M  V30 2 N 0 1.576 0 0
M  V30 3 C 0.933 2.03868 1.02534 0
M  V30 4 C 1.911 0.928543 1.3348 0
M  V30 5 O 3.095 1.19667 1.45644 0
M  V30 6 C 0.222 2.43627 2.35294 0
M  V30 7 C -0.732 3.65373 2.2001 0
M  V30 8 S 0.101 5.13292 1.52614 0
M  V30 9 C 1.257 5.56322 2.86805 0
M  V30 10 H 1.49 2.90518 0.631377 0
M  V30 11 H -0.977 1.52953 0.210867 0
M  V30 12 H 0.981 2.67203 3.11629 0
M  V30 13 H -0.358 1.57376 2.7183 0
M  V30 14 H -1.165 3.90944 3.18086 0
M  V30 15 H -1.563 3.418 1.51819 0
M  V30 16 H 0.729 5.58782 3.83104 0
M  V30 17 H 1.672 6.56266 2.65933 0
M  V30 18 H 2.08 4.83886 2.90714 0
M  V30 19 N 1.4781 -0.272755 1.55222 0
M  V30 20 C 2.7031 -1.02683 1.80197 0
M  V30 21 C 3.1281 -1.79142 0.573551 0
M  V30 22 O 2.4861 -1.74917 -0.476849 0
M  V30 23 C 2.5341 -1.9609 3.02624 0
M  V30 24 O 1.6381 -3.04863 2.77727 0
M  V30 25 H 0.9791 -0.293557 0.595584 0
M  V30 26 H 3.5091 -0.30159 2.02365 0
M  V30 27 H 3.5191 -2.38039 3.31363 0
M  V30 28 H 2.1941 -1.39851 3.91682 0
M  V30 29 H 0.7711 -2.67228 2.60084 0
M  V30 30 N 2.9562 -1.48159 -0.537278 0
M  V30 31 C 4.1862 -1.59223 -1.3165 0
M  V30 32 C 4.5942 -0.248849 -1.87556 0
M  V30 33 O 3.9372 0.770949 -1.6674 0
M  V30 34 C 3.9992 -2.57365 -2.51005 0
M  V30 35 C 3.6632 -4.02603 -2.16239 0
M  V30 36 C 4.6602 -4.90503 -1.72344 0
M  V30 37 C 2.3452 -4.48088 -2.26986 0
M  V30 38 C 4.3392 -6.21913 -1.39651 0
M  V30 39 C 2.0262 -5.7952 -1.93906 0
M  V30 40 C 3.0242 -6.66255 -1.50309 0
M  V30 41 O 2.7122 -7.95243 -1.17659 0
M  V30 42 H 2.4442 -0.539831 -0.406889 0
M  V30 43 H 4.9982 -1.94655 -0.655641 0
M  V30 44 H 3.2282 -2.1704 -3.20048 0
M  V30 45 H 4.9172 -2.58342 -3.13072 0
M  V30 46 H 5.6832 -4.56604 -1.63517 0
M  V30 47 H 1.5622 -3.80769 -2.59877 0
M  V30 48 H 5.1062 -6.89569 -1.0555 0
M  V30 49 H 1.0032 -6.12957 -2.02371 0
M  V30 50 H 1.7712 -8.0793 -1.31119 0
M  V30 51 N 4.4343 0.785586 -1.36625 0
M  V30 52 C 5.6623 1.57448 -1.3423 0
M  V30 53 C 6.0773 1.88649 0.0755653 0
M  V30 54 O 5.4343 1.50414 1.03354 0
M  V30 55 C 5.4853 2.89316 -2.16745 0
M  V30 56 O 5.2063 2.59459 -3.53005 0
M  V30 57 C 6.7073 3.83606 -2.22174 0
M  V30 58 H 3.9273 0.488226 -0.4603 0
M  V30 59 H 6.4713 0.974733 -1.79775 0
M  V30 60 H 4.6263 3.4575 -1.74745 0
M  V30 61 H 5.0403 3.43804 -3.96105 0
M  V30 62 H 6.5143 4.73181 -2.8426 0
M  V30 63 H 6.9913 4.21734 -1.22627 0
M  V30 64 H 7.5973 3.33104 -2.64427 0
M  V30 65 N 5.9124 1.20967 1.01018 0
M  V30 66 C 7.1584 1.02526 1.74975 0
M  V30 67 C 7.4914 -0.4408 1.89131 0
M  V30 68 O 6.7664 -1.32718 1.42184 0
M  V30 69 C 7.0494 1.71699 3.1653 0
M  V30 70 C 6.9024 3.25791 3.10129 0
M  V30 71 C 8.2214 1.45531 4.15342 0
M  V30 72 H 5.3404 0.373863 0.635134 0
M  V30 73 H 7.9824 1.49071 1.17805 0
M  V30 74 H 6.1324 1.32128 3.65341 0
M  V30 75 H 7.8044 3.74697 2.69072 0
M  V30 76 H 6.0474 3.56363 2.47362 0
M  V30 77 H 6.7184 3.69353 4.10222 0
M  V30 78 H 9.1944 1.79872 3.75213 0
M  V30 79 H 8.0704 1.96453 5.1254 0
M  V30 80 H 8.3314 0.384237 4.40427 0
M  V30 81 N 7.3905 -1.2043 1.01659 0
M  V30 82 C 8.6385 -1.89423 0.704522 0
M  V30 83 C 8.9595 -1.79231 -0.768197 0
M  V30 84 O 8.2295 -1.1947 -1.55254 0
M  V30 85 H 6.8095 -0.701178 0.257602 0
M  V30 86 H 9.4715 -1.4626 1.28818 0
M  V30 87 H 8.5675 -2.96052 0.987916 0
M  V30 88 N 8.8686 -0.792821 -1.36206 0
M  V30 89 C 10.0966 -0.378825 -2.03402 0
M  V30 90 C 10.5116 1.00586 -1.59774 0
M  V30 91 O 9.8686 1.64574 -0.788764 0
M  V30 92 C 9.9196 -0.43683 -3.58851 0
M  V30 93 O 9.6406 -1.76691 -4.00889 0
M  V30 94 C 11.1416 -0.0138943 -4.43298 0
M  V30 95 H 8.3616 -0.155673 -0.652692 0
M  V30 96 H 10.9056 -1.07261 -1.74113 0
M  V30 97 H 9.0606 0.208575 -3.86838 0
M  V30 98 H 9.4746 -1.72011 -4.95492 0
M  V30 99 H 10.9486 -0.105615 -5.51899 0
M  V30 100 H 11.4256 1.03915 -4.2673 0
M  V30 101 H 12.0316 -0.63192 -4.20579 0
M  V30 102 N 10.3467 1.47872 -0.545128 0
M  V30 103 C 11.5767 2.06589 -0.0210534 0
M  V30 104 C 11.9847 1.39997 1.27269 0
M  V30 105 O 11.3277 0.486421 1.77143 0
M  V30 106 C 11.3897 3.58574 0.257933 0
M  V30 107 C 11.0537 4.47132 -0.944573 0
M  V30 108 C 12.0507 4.85986 -1.84699 0
M  V30 109 C 9.7357 4.88821 -1.15584 0
M  V30 110 C 11.7297 5.65314 -2.94446 0
M  V30 111 C 9.4167 5.67916 -2.25642 0
M  V30 112 C 10.4147 6.06073 -3.14905 0
M  V30 113 O 10.1027 6.83578 -4.23057 0
M  V30 114 H 9.8347 0.674971 -0.0372899 0
M  V30 115 H 12.3887 1.91037 -0.754599 0
M  V30 116 H 10.6187 3.72295 1.04564 0
M  V30 117 H 12.3077 3.99356 0.72592 0
M  V30 118 H 13.0737 4.54388 -1.69577 0
M  V30 119 H 8.9527 4.58595 -0.470279 0
M  V30 120 H 12.4967 5.95016 -3.64145 0
M  V30 121 H 8.3937 5.98927 -2.40742 0
M  V30 122 H 9.1617 7.01954 -4.20954 0
M  V30 123 N 11.8248 0.280983 1.55075 0
M  V30 124 C 12.7548 -0.597469 2.25727 0
M  V30 125 C 13.7358 -1.15417 1.24952 0
M  V30 126 O 14.9208 -1.18722 1.53684 0
M  V30 127 C 12.0508 -1.7789 2.98283 0
M  V30 128 C 11.0048 -1.35347 4.06036 0
M  V30 129 C 10.3308 -2.61846 4.66198 0
M  V30 130 C 11.6308 -0.499354 5.19907 0
M  V30 131 H 13.3248 -0.00824265 2.99399 0
M  V30 132 H 10.8708 -0.0025244 1.44 0
M  V30 133 H 12.8238 -2.39937 3.46422 0
M  V30 134 H 11.5478 -2.39405 2.22155 0
M  V30 135 H 10.2068 -0.756156 3.58717 0
M  V30 136 H 9.8548 -3.21632 3.86732 0
M  V30 137 H 9.5548 -2.3409 5.38958 0
M  V30 138 H 11.0788 -3.24732 5.1709 0
M  V30 139 H 12.4928 -1.02498 5.64063 0
M  V30 140 H 10.8898 -0.316424 5.99265 0
M  V30 141 H 11.9598 0.480459 4.82514 0
M  V30 142 N 13.3029 -1.57598 0.00835791 0
M  V30 143 C 14.2659 -2.07884 -0.965242 0
M  V30 144 C 15.2659 -0.989825 -1.26725 0
M  V30 145 O 16.4559 -1.25218 -1.21104 0
M  V30 146 C 13.5879 -2.52731 -2.28779 0
M  V30 147 H 14.7809 -2.95178 -0.530112 0
M  V30 148 H 12.3339 -1.54458 -0.239283 0
M  V30 149 H 13.0689 -1.68705 -2.76964 0
M  V30 150 H 12.8539 -3.32272 -2.08177 0
M  V30 151 H 14.3439 -2.91933 -2.98605 0
M  V30 152 N 14.781 0.264519 -1.55364 0
M  V30 153 C 15.691 1.34902 -1.91934 0
M  V30 154 C 16.707 1.53595 -0.817593 0
M  V30 155 O 17.883 1.67558 -1.11742 0
M  V30 156 C 14.948 2.68676 -2.19121 0
M  V30 157 C 14.009 2.58657 -3.4263 0
M  V30 158 C 13.242 3.86051 -3.68511 0
M  V30 159 O 13.465 4.87126 -2.96757 0
M  V30 160 O 12.399 3.85744 -4.62045 0
M  V30 161 H 16.225 1.06883 -2.8427 0
M  V30 162 H 13.81 0.463775 -1.42019 0
M  V30 163 H 15.692 3.47759 -2.37995 0
M  V30 164 H 14.367 2.96463 -1.29966 0
M  V30 165 H 13.274 1.7792 -3.29082 0
M  V30 166 H 14.607 2.35818 -4.32031 0
M  V30 167 N 16.2591 1.48442 0.529413 0
M  V30 168 C 17.6751 1.34575 0.858004 0
M  V30 169 C 17.8751 0.3572 1.98309 0
M  V30 170 O 16.9311 -0.221379 2.51528 0
M  V30 171 C 18.2441 2.74617 1.22499 0
M  V30 172 C 19.7921 2.83109 1.33484 0
M  V30 173 C 20.2671 4.23854 1.73526 0
M  V30 174 N 21.7581 4.2653 1.80628 0
M  V30 175 C 22.4931 5.32372 2.12997 0
M  V30 176 N 21.9891 6.48491 2.43786 0
M  V30 177 N 23.7821 5.19766 2.14008 0
M  V30 178 H 15.9331 2.1133 -0.212925 0
M  V30 179 H 18.1961 0.947439 -0.0326199 0
M  V30 180 H 17.9021 3.4852 0.471905 0
M  V30 181 H 17.7761 3.08177 2.17501 0
M  V30 182 H 20.1631 2.09462 2.0787 0
M  V30 183 H 20.2441 2.53168 0.366027 0
M  V30 184 H 19.8881 4.98018 0.997013 0
M  V30 185 H 19.8181 4.5124 2.71459 0
M  V30 186 H 22.3091 3.42772 1.59108 0
M  V30 187 H 22.6221 7.24993 2.67592 0
M  V30 188 H 20.9671 6.51765 2.41304 0
M  V30 189 H 24.1581 4.28066 1.89412 0
M  V30 190 H 24.3311 6.02354 2.38902 0
M  V30 191 N 17.7372 -0.778329 1.37039 0
M  V30 192 C 18.6672 -1.90546 1.34962 0
M  V30 193 C 19.6482 -1.68681 0.219274 0
M  V30 194 O 20.8332 -1.89634 0.418624 0
M  V30 195 C 17.9632 -3.27734 1.14925 0
M  V30 196 C 16.9172 -3.64147 2.24902 0
M  V30 197 C 16.2432 -4.99806 1.89996 0
M  V30 198 C 17.5432 -3.71579 3.67051 0
M  V30 199 H 19.2372 -1.92541 2.29277 0
M  V30 200 H 16.7832 -0.924948 1.10366 0
M  V30 201 H 18.7362 -4.06215 1.12104 0
M  V30 202 H 17.4602 -3.26154 0.170631 0
M  V30 203 H 16.1192 -2.8797 2.26868 0
M  V30 204 H 15.7672 -4.94759 0.906796 0
M  V30 205 H 15.4672 -5.25139 2.63634 0
M  V30 206 H 16.9912 -5.80694 1.88749 0
M  V30 207 H 18.4052 -4.40227 3.67251 0
M  V30 208 H 16.8022 -4.08405 4.39688 0
M  V30 209 H 17.8722 -2.72404 4.01154 0
M  V30 210 N 19.2153 -1.21501 -1.00376 0
M  V30 211 C 20.4613 -1.03452 -1.74429 0
M  V30 212 C 20.7943 0.430764 -1.89362 0
M  V30 213 O 20.0693 1.31962 -1.42886 0
M  V30 214 C 20.3523 -1.73375 -3.15615 0
M  V30 215 C 20.2053 -3.27431 -3.08397 0
M  V30 216 C 21.5243 -1.47732 -4.14564 0
M  V30 217 H 18.6433 -0.377226 -0.633143 0
M  V30 218 H 21.2853 -1.49693 -1.17013 0
M  V30 219 H 19.4353 -1.34064 -3.64636 0
M  V30 220 H 21.1073 -3.76119 -2.67081 0
M  V30 221 H 19.3503 -3.5767 -2.45468 0
M  V30 222 H 20.0213 -3.71524 -4.08258 0
M  V30 223 H 22.4973 -1.8186 -3.74254 0
M  V30 224 H 21.3733 -1.99169 -5.11491 0
M  V30 225 H 21.6343 -0.407589 -4.40217 0
M  V30 226 N 20.6934 1.19889 -1.02296 0
M  V30 227 C 21.6254 2.22334 -0.556787 0
M  V30 228 C 22.6384 1.58674 0.364199 0
M  V30 229 O 23.8274 1.77768 0.161533 0
M  V30 230 C 20.9274 3.38257 0.208694 0
M  V30 231 C 20.1004 4.31504 -0.71577 0
M  V30 232 C 19.1594 5.262 0.00325597 0
M  V30 233 O 18.1854 5.65798 -0.621357 0
M  V30 234 N 19.3874 5.66303 1.27599 0
M  V30 235 H 22.1524 2.62957 -1.43784 0
M  V30 236 H 19.7134 1.34495 -0.901261 0
M  V30 237 H 21.7054 3.98616 0.699111 0
M  V30 238 H 20.2754 2.96472 0.991102 0
M  V30 239 H 19.4954 3.69016 -1.38638 0
M  V30 240 H 20.7834 4.9072 -1.34428 0
M  V30 241 H 20.1814 5.36155 1.80429 0
M  V30 242 H 18.7384 6.28942 1.71102 0
M  V30 243 N 22.1715 0.800033 1.35784 0
M  V30 244 C 23.4205 0.37387 1.98205 0
M  V30 245 C 23.7335 -1.06302 1.64193 0
M  V30 246 O 24.9395 -1.59198 2.19928 0
M  V30 247 C 23.3955 0.617532 3.54562 0
M  V30 248 C 23.0035 2.06654 3.9749 0
M  V30 249 C 24.7475 0.256401 4.23725 0
M  V30 250 C 22.6545 2.2563 5.46667 0
M  V30 251 H 21.5845 0.136055 0.741623 0
M  V30 252 H 24.2355 0.983166 1.54939 0
M  V30 253 H 22.6175 -0.0616248 3.95952 0
M  V30 254 H 23.7915 2.78296 3.67271 0
M  V30 255 H 22.1065 2.38691 3.41197 0
M  V30 256 H 24.7035 0.376318 5.33374 0
M  V30 257 H 25.0465 -0.796692 4.08606 0
M  V30 258 H 25.5795 0.889214 3.87734 0
M  V30 259 H 22.3185 3.2936 5.66747 0
M  V30 260 H 21.8385 1.58504 5.78478 0
M  V30 261 H 23.5175 2.06861 6.1304 0
M  V30 262 N 23.6496 -1.47581 0.552962 0
M  V30 263 C 24.8976 -2.02082 0.0272703 0
M  V30 264 C 25.2186 -1.4301 -1.32563 0
M  V30 265 O 24.4886 -0.603745 -1.86365 0
M  V30 266 H 23.0686 -0.746966 0.00709182 0
M  V30 267 H 25.7306 -1.81033 0.722008 0
M  V30 268 H 24.8266 -3.12034 -0.0639951 0
M  V30 269 N 25.1277 -0.289203 -1.54924 0
M  V30 270 C 26.0577 0.58549 -2.2604 0
M  V30 271 C 27.0387 1.14753 -1.25562 0
M  V30 272 O 28.2237 1.17906 -1.54311 0
M  V30 273 C 25.3537 1.76305 -2.99222 0
M  V30 274 C 24.3077 1.33191 -4.06748 0
M  V30 275 C 23.6337 2.5937 -4.6758 0
M  V30 276 C 24.9337 0.471775 -5.20165 0
M  V30 277 H 26.6277 -0.00763532 -2.99399 0
M  V30 278 H 24.1737 -0.00511229 -1.43999 0
M  V30 279 H 26.1267 2.38097 -3.47689 0
M  V30 280 H 24.8507 2.38223 -2.23422 0
M  V30 281 H 23.5097 0.737121 -3.59113 0
M  V30 282 H 23.1577 3.19576 -3.88433 0
M  V30 283 H 22.8577 2.31228 -5.40192 0
M  V30 284 H 24.3817 3.21985 -5.18804 0
M  V30 285 H 25.7957 0.995056 -5.64599 0
M  V30 286 H 24.1927 0.284639 -5.99425 0
M  V30 287 H 25.2627 -0.506041 -4.82252 0
M  V30 288 N 26.6058 1.57591 -0.0167156 0
M  V30 289 C 27.5528 2.09462 0.969251 0
M  V30 290 C 28.5228 0.99381 1.33089 0
M  V30 291 O 29.7078 1.26726 1.42636 0
M  V30 292 C 26.8478 2.61622 2.25051 0
M  V30 293 C 25.9608 3.85666 1.94642 0
M  V30 294 C 25.0958 4.26266 3.16972 0
M  V30 295 C 24.1348 5.43101 2.82326 0
M  V30 296 N 23.2718 5.78915 3.97243 0
M  V30 297 H 28.1118 2.93428 0.519997 0
M  V30 298 H 25.6488 1.45044 0.245087 0
M  V30 299 H 27.6068 2.89949 2.99976 0
M  V30 300 H 26.2368 1.80505 2.67615 0
M  V30 301 H 25.2888 3.64145 1.10013 0
M  V30 302 H 26.6008 4.70678 1.65117 0
M  V30 303 H 25.7548 4.55963 4.00228 0
M  V30 304 H 24.4938 3.39996 3.49648 0
M  V30 305 H 23.4988 5.1311 1.97479 0
M  V30 306 H 24.7238 6.3106 2.50879 0
M  V30 307 H 22.6698 4.95602 4.29785 0
M  V30 308 H 22.5868 6.58539 3.71299 0
M  V30 309 H 23.8548 6.13212 4.81239 0
M  V30 310 N 28.0839 -0.256276 1.55502 0
M  V30 311 C 29.0339 -1.31981 1.85916 0
M  V30 312 C 30.0179 -1.43927 0.719296 0
M  V30 313 O 31.2099 -1.47326 0.981019 0
M  V30 314 C 28.3389 -2.67703 2.14918 0
M  V30 315 C 27.4249 -2.59801 3.35208 0
M  V30 316 N 27.8159 -2.21524 4.54709 0
M  V30 317 C 26.1139 -2.90832 3.38131 0
M  V30 318 C 26.8149 -2.24024 5.36832 0
M  V30 319 N 25.7909 -2.63158 4.75656 0
M  V30 320 H 29.5929 -1.01423 2.75845 0
M  V30 321 H 27.1069 -0.464911 1.55603 0
M  V30 322 H 29.1039 -3.44445 2.34869 0
M  V30 323 H 27.7639 -2.99137 1.26282 0
M  V30 324 H 28.7749 -1.93223 4.80505 0
M  V30 325 H 25.4519 -3.26867 2.59739 0
M  V30 326 H 26.8419 -1.9685 6.42417 0
M  V30 327 N 29.562 -1.4872 -0.521534 0
M  V30 328 C 30.512 -1.60269 -1.62166 0
M  V30 329 C 31.496 -0.45935 -1.54204 0
M  V30 330 O 32.688 -0.711241 -1.62081 0
M  V30 331 C 29.817 -1.65344 -3.00859 0
M  V30 332 C 28.903 -2.85187 -3.13894 0
M  V30 333 N 29.294 -4.09509 -2.96877 0
M  V30 334 C 27.592 -2.82695 -3.44963 0
M  V30 335 C 28.293 -4.89959 -3.13552 0
M  V30 336 N 27.269 -4.22934 -3.41508 0
M  V30 337 H 31.071 -2.5413 -1.47632 0
M  V30 338 H 28.585 -1.45209 -0.727194 0
M  V30 339 H 30.582 -1.71713 -3.79895 0
M  V30 340 H 29.242 -0.726058 -3.16478 0
M  V30 341 H 30.253 -4.39814 -2.73467 0
M  V30 342 H 26.93 -1.99249 -3.66887 0
M  V30 343 H 28.32 -5.98654 -3.05061 0
M  V30 344 N 31.0401 0.771051 -1.3745 0
M  V30 345 C 32.2871 1.52963 -1.32697 0
M  V30 346 C 32.6151 1.94299 0.0883274 0
M  V30 347 O 31.8701 1.64397 1.0617 0
M  V30 348 C 32.1691 2.80676 -2.2126 0
M  V30 349 C 31.8351 2.58389 -3.69521 0
M  V30 350 C 30.4971 2.52019 -4.09927 0
M  V30 351 C 32.8491 2.38469 -4.63446 0
M  V30 352 C 30.1771 2.23721 -5.42371 0
M  V30 353 C 32.5291 2.11694 -5.96128 0
M  V30 354 C 31.1931 2.03769 -6.35637 0
M  V30 355 H 30.4631 0.559732 -0.485573 0
M  V30 356 H 33.1101 0.888083 -1.69662 0
M  V30 357 H 31.4151 3.49392 -1.77291 0
M  V30 358 H 33.1121 3.38557 -2.14895 0
M  V30 359 H 29.7021 2.6421 -3.37478 0
M  V30 360 H 33.8861 2.4238 -4.33089 0
M  V30 361 H 29.1421 2.16081 -5.71943 0
M  V30 362 H 33.3161 1.9528 -6.6846 0
M  V30 363 H 30.9431 1.81606 -7.38189 0
M  V30 364 N 32.5182 1.22032 0.997298 0
M  V30 365 C 33.4812 0.987909 2.06816 0
M  V30 366 C 34.4812 -0.0440084 1.6074 0
M  V30 367 O 35.6712 0.194053 1.73116 0
M  V30 368 C 32.8032 0.49132 3.37341 0
M  V30 369 H 33.9962 1.93803 2.28868 0
M  V30 370 H 31.5492 1.03838 1.16822 0
M  V30 371 H 32.2842 -0.463364 3.20973 0
M  V30 372 H 32.0692 1.23575 3.72118 0
M  V30 373 H 33.5592 0.348824 4.16141 0
M  V30 374 N 33.9963 -1.19345 1.0293 0
M  V30 375 C 35.2423 -1.89318 0.727083 0
M  V30 376 C 35.5753 -1.79446 -0.742483 0
M  V30 377 O 34.8503 -1.1871 -1.54072 0
M  V30 378 C 35.1333 -3.40238 1.17942 0
M  V30 379 C 34.9863 -3.58979 2.71024 0
M  V30 380 C 36.3053 -4.33479 0.760548 0
M  V30 381 H 33.4243 -0.687475 0.265606 0
M  V30 382 H 36.0663 -1.40477 1.2793 0
M  V30 383 H 34.2163 -3.81964 0.709608 0
M  V30 384 H 35.8883 -3.26421 3.25955 0
M  V30 385 H 34.1313 -3.02018 3.11396 0
M  V30 386 H 34.8023 -4.64823 2.9773 0
M  V30 387 H 37.2783 -3.99469 1.16464 0
M  V30 388 H 36.1543 -5.37664 1.10493 0
M  V30 389 H 36.4153 -4.40813 -0.337063 0
M  V30 390 N 35.4744 -0.807222 -1.35358 0
M  V30 391 C 36.4374 -0.223665 -2.28106 0
M  V30 392 C 37.4374 0.589354 -1.4961 0
M  V30 393 O 38.6274 0.407745 -1.69361 0
M  V30 394 C 35.7594 0.688149 -3.33882 0
M  V30 395 H 36.9524 -1.04169 -2.81227 0
M  V30 396 H 34.5054 -0.577921 -1.45223 0
M  V30 397 H 35.2404 1.52984 -2.85948 0
M  V30 398 H 35.0254 0.10687 -3.91954 0
M  V30 399 H 36.5154 1.09075 -4.03104 0
M  V30 400 N 36.9525 1.47285 -0.560781 0
M  V30 401 C 38.2005 2.02064 -0.0379868 0
M  V30 402 C 38.5215 1.43711 1.31803 0
M  V30 403 O 37.7915 0.61362 1.86042 0
M  V30 404 H 36.3715 0.746918 -0.0110531 0
M  V30 405 H 39.0335 1.80648 -0.731598 0
M  V30 406 H 38.1295 3.12064 0.0474463 0
M  V30 407 N 38.4306 0.297415 1.54768 0
M  V30 408 C 39.7076 -0.365847 1.92148 0
M  V30 409 C 40.0876 -1.71975 1.22424 0
M  V30 410 O 39.4356 -2.25666 0.358739 0
M  V30 411 C 39.6456 -0.484056 3.45627 0
M  V30 412 C 40.9936 -0.756594 4.17805 0
M  V30 413 O 42.0176 -0.568007 3.51642 0
M  V30 414 O 40.8766 -1.11863 5.34929 0
M  V30 415 H 37.9706 -0.203919 0.801465 0
M  V30 416 H 40.5166 0.34521 1.66152 0
M  V30 417 H 39.2886 0.467865 3.88493 0
M  V30 418 H 38.9116 -1.24372 3.77647 0
M  V30 419 N 39.9087 -1.5758 0.0250728 0
M  V30 420 C 41.1387 -1.95646 -0.663783 0
M  V30 421 C 41.5467 -0.899935 -1.66427 0
M  V30 422 O 40.8897 0.127191 -1.83259 0
M  V30 423 C 40.9517 -3.29835 -1.43 0
M  V30 424 C 40.6157 -4.53197 -0.588305 0
M  V30 425 C 41.6127 -5.19726 0.13469 0
M  V30 426 C 39.2977 -4.99529 -0.526897 0
M  V30 427 C 41.2917 -6.30902 0.90781 0
M  V30 428 C 38.9787 -6.10589 0.24993 0
M  V30 429 C 39.9767 -6.76134 0.965994 0
M  V30 430 O 39.6647 -7.85062 1.7301 0
M  V30 431 H 39.3967 -0.649282 -0.188174 0
M  V30 432 H 41.9507 -2.05245 0.0799006 0
M  V30 433 H 40.1807 -3.16716 -2.21873 0
M  V30 434 H 41.8697 -3.52833 -2.00658 0
M  V30 435 H 42.6357 -4.84904 0.0965562 0
M  V30 436 H 38.5147 -4.48319 -1.07381 0
M  V30 437 H 42.0587 -6.81995 1.46724 0
M  V30 438 H 37.9557 -6.44849 0.289795 0
M  V30 439 H 38.7237 -8.01708 1.64944 0
M  V30 440 N 41.3868 0.248026 -1.55636 0
M  V30 441 C 42.3348 1.32683 -1.91045 0
M  V30 442 C 43.3288 1.49883 -0.789401 0
M  V30 443 O 44.5348 1.51371 -0.974007 0
M  V30 444 H 40.9098 0.444272 -0.606734 0
M  V30 445 H 42.8808 1.00085 -2.81115 0
M  V30 446 C 41.6298 2.6755 -2.22064 0
M  V30 447 H 40.9528 2.55114 -3.07826 0
M  V30 448 H 42.3928 3.41912 -2.50743 0
M  V30 449 C 40.8518 3.20556 -1.0366 0
M  V30 450 O 41.3818 4.00695 -0.284016 0
M  V30 451 N 39.5878 2.78568 -0.82753 0
M  V30 452 H 39.1348 2.1351 -1.44123 0
M  V30 453 H 39.0928 3.14378 -0.0369803 0
M  V30 454 N 42.8649 1.48995 0.513639 0
M  V30 455 C 43.7949 1.67636 1.62544 0
M  V30 456 C 44.7759 0.525087 1.61793 0
M  V30 457 O 45.9609 0.759502 1.78732 0
M  V30 458 C 43.0909 1.73114 3.01079 0
M  V30 459 C 42.0449 2.87905 3.16693 0
M  V30 460 C 41.3709 2.78486 4.56453 0
M  V30 461 C 42.6709 4.29005 2.97913 0
M  V30 462 H 44.3649 2.60716 1.47198 0
M  V30 463 H 41.9109 1.25465 0.706714 0
M  V30 464 H 43.8639 1.84742 3.78746 0
M  V30 465 H 42.5879 0.766241 3.17484 0
M  V30 466 H 41.2469 2.75859 2.41448 0
M  V30 467 H 40.8949 1.7993 4.69717 0
M  V30 468 H 40.5949 3.55523 4.67843 0
M  V30 469 H 42.1189 2.92104 5.36197 0
M  V30 470 H 43.5329 4.41798 3.65359 0
M  V30 471 H 41.9299 5.07166 3.20785 0
M  V30 472 H 42.9999 4.44329 1.94165 0
M  V30 473 N 44.343 -0.763751 1.37857 0
M  V30 474 C 45.589 -1.52483 1.33704 0
M  V30 475 C 45.922 -1.94051 -0.0759612 0
M  V30 476 O 45.197 -1.64675 -1.03501 0
M  V30 477 C 45.48 -2.78441 2.28348 0
M  V30 478 C 45.333 -2.43075 3.78463 0
M  V30 479 C 46.652 -3.80415 2.21298 0
M  V30 480 H 43.771 -0.553169 0.487005 0
M  V30 481 H 46.413 -0.875562 1.68624 0
M  V30 482 H 44.563 -3.33842 1.987 0
M  V30 483 H 46.235 -1.93527 4.18742 0
M  V30 484 H 44.478 -1.75666 3.96641 0
M  V30 485 H 45.149 -3.33149 4.40132 0
M  V30 486 H 47.625 -3.34527 2.47449 0
M  V30 487 H 46.501 -4.66257 2.89647 0
M  V30 488 H 46.762 -4.25262 1.20849 0
M  V30 489 N 45.8211 -1.22559 -0.990812 0
M  V30 490 C 46.7511 -1.0218 -2.09956 0
M  V30 491 C 47.7321 0.0579394 -1.70001 0
M  V30 492 O 48.9171 -0.104684 -1.93918 0
M  V30 493 C 46.0471 -0.601023 -3.4206 0
M  V30 494 C 45.0011 -1.62694 -3.95872 0
M  V30 495 C 44.3271 -1.06193 -5.24049 0
M  V30 496 C 45.6271 -3.01743 -4.2632 0
M  V30 497 H 47.3211 -1.94916 -2.27262 0
M  V30 498 H 44.8671 -0.938566 -1.09211 0
M  V30 499 H 46.8201 -0.445561 -4.19038 0
M  V30 500 H 45.5441 0.362005 -3.24588 0
M  V30 501 H 44.2031 -1.77021 -3.21028 0
M  V30 502 H 43.8511 -0.0901903 -5.02919 0
M  V30 503 H 43.5511 -1.74732 -5.61019 0
M  V30 504 H 45.0751 -0.918092 -6.03658 0
M  V30 505 H 46.4891 -2.90777 -4.94087 0
M  V30 506 H 44.8861 -3.67425 -4.74467 0
M  V30 507 H 45.9561 -3.51518 -3.34011 0
M  V30 508 N 47.2992 1.18797 -1.03562 0
M  V30 509 C 48.2292 2.24472 -0.643019 0
M  V30 510 C 49.2102 1.66433 0.351283 0
M  V30 511 O 50.3952 1.92803 0.232505 0
M  V30 512 C 47.5252 3.473 4.24935e-05 0
M  V30 513 C 46.4792 4.18055 -0.917257 0
M  V30 514 C 45.8052 5.34519 -0.138941 0
M  V30 515 C 47.1052 4.72109 -2.23407 0
M  V30 516 H 48.7992 2.57566 -1.52643 0
M  V30 517 H 46.3452 1.23806 -0.735394 0
M  V30 518 H 48.2982 4.20426 0.286383 0
M  V30 519 H 47.0222 3.13424 0.918299 0
M  V30 520 H 45.6812 3.46821 -1.1879 0
M  V30 521 H 45.3292 4.96891 0.781562 0
M  V30 522 H 45.0292 5.82794 -0.750005 0
M  V30 523 H 46.5532 6.10438 0.1405 0
M  V30 524 H 47.9672 5.36955 -2.00879 0
M  V30 525 H 46.3642 5.30897 -2.79765 0
M  V30 526 H 47.4342 3.89807 -2.88407 0
M  V30 527 N 48.7773 0.814389 1.34928 0
M  V30 528 C 50.0543 0.321363 1.92942 0
M  V30 529 C 50.4343 -1.19014 1.74353 0
M  V30 530 O 49.7823 -1.99328 1.11716 0
M  V30 531 C 49.9923 0.741323 3.41036 0
M  V30 532 C 51.3403 0.735266 4.18185 0
M  V30 533 O 52.3643 0.68336 3.49584 0
M  V30 534 O 51.2233 0.800703 5.40602 0
M  V30 535 H 48.3173 0.0858893 0.822528 0
M  V30 536 H 50.8633 0.898609 1.43955 0
M  V30 537 H 49.6353 1.78276 3.4833 0
M  V30 538 H 49.2583 0.139307 3.97356 0
M  V30 539 N 50.2554 -1.46986 0.568584 0
M  V30 540 C 51.2034 -2.31858 -0.185649 0
M  V30 541 C 52.1974 -1.43624 -0.898249 0
M  V30 542 O 53.4034 -1.60327 -0.818242 0
M  V30 543 H 49.7784 -0.747866 -0.0787399 0
M  V30 544 H 51.7494 -2.93303 0.549191 0
M  V30 545 C 50.4984 -3.26513 -1.19519 0
M  V30 546 H 49.8214 -3.94377 -0.656285 0
M  V30 547 H 51.2614 -3.88707 -1.6936 0
M  V30 548 C 49.7204 -2.50847 -2.24894 0
M  V30 549 O 50.2504 -2.26119 -3.32014 0
M  V30 550 N 48.4564 -2.11656 -1.99124 0
M  V30 551 H 48.0034 -2.31966 -1.12024 0
M  V30 552 H 47.9614 -1.61347 -2.69842 0
M  V30 553 N 51.7335 -0.305618 -1.54608 0
M  V30 554 C 52.6635 0.561482 -2.26649 0
M  V30 555 C 53.6445 1.13415 -1.26772 0
M  V30 556 O 54.8295 1.16262 -1.55553 0
M  V30 557 C 51.9595 1.73122 -3.01075 0
M  V30 558 C 50.9135 1.2887 -4.08138 0
M  V30 559 C 50.2395 2.54396 -4.70305 0
M  V30 560 C 51.5395 0.416578 -5.20636 0
M  V30 561 H 53.2335 -0.0393902 -2.99374 0
M  V30 562 H 50.7795 -0.020385 -1.43986 0
M  V30 563 H 52.7325 2.34396 -3.50195 0
M  V30 564 H 51.4565 2.3584 -2.25936 0
M  V30 565 H 50.1155 0.698991 -3.59875 0
M  V30 566 H 49.7635 3.15439 -3.918 0
M  V30 567 H 49.4635 2.25486 -5.42614 0
M  V30 568 H 50.9875 3.16464 -5.2219 0
M  V30 569 H 52.4015 0.935116 -5.65622 0
M  V30 570 H 50.7985 0.221046 -5.99693 0
M  V30 571 H 51.8685 -0.557162 -4.81688 0
M  V30 572 N 53.2116 1.57565 -0.0334293 0
M  V30 573 C 54.1416 2.13511 0.945265 0
M  V30 574 C 55.1226 1.05231 1.33643 0
M  V30 575 O 56.3076 1.33084 1.41429 0
M  V30 576 C 53.4376 2.6657 2.22616 0
M  V30 577 C 52.3916 3.79676 1.97561 0
M  V30 578 C 51.7176 4.1918 3.31952 0
M  V30 579 C 53.0176 5.0557 1.31135 0
M  V30 580 H 54.7116 2.95538 0.479325 0
M  V30 581 H 52.2576 1.42166 0.229115 0
M  V30 582 H 54.2106 3.04344 2.91466 0
M  V30 583 H 52.9346 1.8171 2.71384 0
M  V30 584 H 51.5936 3.42347 1.31127 0
M  V30 585 H 51.2416 3.31296 3.78487 0
M  V30 586 H 50.9416 4.95402 3.15992 0
M  V30 587 H 52.4656 4.59541 4.02063 0
M  V30 588 H 53.8796 5.40903 1.89992 0
M  V30 589 H 52.2766 5.86818 1.25559 0
M  V30 590 H 53.3466 4.84062 0.284894 0
M  V30 591 N 54.6897 -0.239769 1.55765 0
M  V30 592 C 55.6197 -1.30052 1.9393 0
M  V30 593 C 56.6007 -1.49839 0.805132 0
M  V30 594 O 57.7857 -1.62328 1.06599 0
M  V30 595 C 54.9157 -2.65391 2.2402 0
M  V30 596 C 53.8697 -2.60289 3.39755 0
M  V30 597 C 53.1957 -3.99489 3.55405 0
M  V30 598 C 54.4957 -2.16654 4.75246 0
M  V30 599 H 56.1897 -0.983573 2.82783 0
M  V30 600 H 53.7357 -0.471701 1.36055 0
M  V30 601 H 55.6887 -3.3974 2.49308 0
M  V30 602 H 54.4127 -2.98736 1.32 0
M  V30 603 H 53.0717 -1.88398 3.14487 0
M  V30 604 H 52.7197 -4.30112 2.60793 0
M  V30 605 H 52.4197 -3.96962 4.33238 0
M  V30 606 H 53.9437 -4.75528 3.83022 0
M  V30 607 H 55.3577 -2.80737 4.99859 0
M  V30 608 H 53.7547 -2.25223 5.56232 0
M  V30 609 H 54.8247 -1.11835 4.71827 0
M  V30 610 N 56.1678 -1.49265 -0.50573 0
M  V30 611 C 57.1158 -1.66065 -1.62866 0
M  V30 612 C 58.1098 -0.526636 -1.61006 0
M  V30 613 O 59.3158 -0.706126 -1.65571 0
M  V30 614 H 55.6908 -0.52356 -0.539805 0
M  V30 615 H 57.6618 -2.60329 -1.45848 0
M  V30 616 C 56.4108 -1.74008 -3.01026 0
M  V30 617 H 55.7338 -2.6064 -3.03161 0
M  V30 618 H 57.1738 -1.89798 -3.79147 0
M  V30 619 C 55.6328 -0.483868 -3.33407 0
M  V30 620 O 56.1628 0.392548 -3.99777 0
M  V30 621 N 54.3688 -0.348236 -2.88506 0
M  V30 622 H 53.9158 -1.06242 -2.34671 0
M  V30 623 H 53.8738 0.491204 -3.10539 0
M  V30 624 N 57.6459 0.756429 -1.3826 0
M  V30 625 C 58.5929 1.87011 -1.35261 0
M  V30 626 C 59.5629 1.64695 -0.215616 0
M  V30 627 O 60.7479 1.864 -0.407399 0
M  V30 628 C 57.8879 3.24275 -1.18068 0
M  V30 629 C 57.0009 3.58442 -2.41129 0
M  V30 630 C 56.1359 4.84994 -2.16689 0
M  V30 631 C 55.1749 5.11939 -3.35537 0
M  V30 632 N 54.3119 6.29685 -3.10549 0
M  V30 633 H 59.1519 1.8891 -2.30472 0
M  V30 634 H 56.6889 0.923373 -1.14509 0
M  V30 635 H 58.6469 4.03479 -1.06116 0
M  V30 636 H 57.2769 3.21711 -0.264973 0
M  V30 637 H 56.3289 2.74103 -2.63764 0
M  V30 638 H 57.6409 3.74283 -3.29717 0
M  V30 639 H 56.7949 5.72135 -2.01857 0
M  V30 640 H 55.5339 4.71286 -1.25462 0
M  V30 641 H 54.5389 4.23268 -3.50891 0
M  V30 642 H 55.7639 5.27546 -4.27635 0
M  V30 643 H 53.7099 6.17306 -2.21967 0
M  V30 644 H 53.6269 6.46014 -3.92686 0
M  V30 645 H 54.8949 7.19722 -2.99367 0
M  V30 646 N 59.124 1.23083 0.984299 0
M  V30 647 C 60.072 1.00593 2.09723 0
M  V30 648 C 61.066 -0.0538014 1.69315 0
M  V30 649 O 62.272 0.0993719 1.79725 0
M  V30 650 H 58.647 0.30817 0.685956 0
M  V30 651 H 60.618 1.95012 2.2586 0
M  V30 652 C 59.367 0.609601 3.42314 0
M  V30 653 H 58.69 1.41675 3.73856 0
M  V30 654 H 60.13 0.491726 4.21139 0
M  V30 655 C 58.589 -0.681745 3.2993 0
M  V30 656 O 59.119 -1.73192 3.62446 0
M  V30 657 N 57.325 -0.656178 2.83095 0
M  V30 658 H 56.872 0.198759 2.56832 0
M  V30 659 H 56.83 -1.52044 2.75191 0
M  V30 660 N 60.6021 -1.18246 1.0419 0
M  V30 661 C 61.5351 -2.20746 0.578474 0
M  V30 662 C 62.5131 -1.57912 -0.387624 0
M  V30 663 O 63.6971 -1.86071 -0.301634 0
M  V30 664 C 60.8241 -3.38346 -0.154762 0
M  V30 665 C 59.8701 -4.19587 0.764782 0
M  V30 666 S 60.7031 -4.86014 2.24835 0
M  V30 667 C 61.8591 -6.07012 1.526 0
M  V30 668 H 62.0921 -2.59715 1.44691 0
M  V30 669 H 59.6251 -1.287 0.85297 0
M  V30 670 H 61.5831 -4.065 -0.571641 0
M  V30 671 H 60.2441 -2.97786 -0.999105 0
M  V30 672 H 59.4371 -5.03611 0.197976 0
M  V30 673 H 59.0391 -3.56818 1.12057 0
M  V30 674 H 61.3311 -6.72523 0.819733 0
M  V30 675 H 62.2741 -6.68202 2.34333 0
M  V30 676 H 62.6821 -5.55249 1.01779 0
M  V30 677 N 62.0802 -0.821533 -1.34494 0
M  V30 678 C 62.9902 -0.244355 -2.33324 0
M  V30 679 C 64.0062 0.620527 -1.62559 0
M  V30 680 O 65.1822 0.528754 -1.94335 0
M  V30 681 C 62.2472 0.585368 -3.41723 0
M  V30 682 C 61.3082 -0.301752 -4.28238 0
M  V30 683 C 60.5412 0.488466 -5.3146 0
M  V30 684 O 60.7642 1.72186 -5.4379 0
M  V30 685 O 59.6982 -0.12848 -6.01763 0
M  V30 686 H 63.5242 -1.06231 -2.84515 0
M  V30 687 H 61.1092 -0.583645 -1.37528 0
M  V30 688 H 62.9912 1.05747 -4.07916 0
M  V30 689 H 61.6662 1.38068 -2.92778 0
M  V30 690 H 60.5732 -0.821315 -3.64973 0
M  V30 691 H 61.9062 -1.06138 -4.8062 0
M  V30 692 N 63.5583 1.46682 -0.576371 0
M  V30 693 C 64.4903 2.28341 0.198231 0
M  V30 694 C 65.5033 1.38141 0.861453 0
M  V30 695 O 66.6923 1.62797 0.732082 0
M  V30 696 C 63.7923 3.12986 1.29972 0
M  V30 697 C 62.9653 4.31271 0.729639 0
M  V30 698 C 62.0243 4.97363 1.71803 0
M  V30 699 O 61.0503 5.55156 1.25658 0
M  V30 700 N 62.2523 4.93796 3.05198 0
M  V30 701 H 65.0173 2.9546 -0.502324 0
M  V30 702 H 62.5783 1.56525 -0.413715 0
M  V30 703 H 64.5703 3.54066 1.96008 0
M  V30 704 H 63.1403 2.47984 1.90323 0
M  V30 705 H 62.3603 3.94052 -0.108012 0
M  V30 706 H 63.6483 5.07739 0.328438 0
M  V30 707 H 63.0463 4.48077 3.45317 0
M  V30 708 H 61.6033 5.38837 3.6674 0
M  V30 709 N 65.0364 0.313813 1.54444 0
M  V30 710 C 66.2824 -0.292108 2.00685 0
M  V30 711 C 66.6154 -1.52548 1.20177 0
M  V30 712 O 65.8904 -1.92452 0.281531 0
M  V30 713 C 66.1734 -0.635968 3.5444 0
M  V30 714 C 66.0264 0.607437 4.4568 0
M  V30 715 C 67.3454 -1.45747 4.15266 0
M  V30 716 H 64.4644 -0.104697 0.729526 0
M  V30 717 H 67.1064 0.428457 1.85106 0
M  V30 718 H 65.2564 -1.24986 3.67846 0
M  V30 719 H 66.9284 1.24581 4.44159 0
M  V30 720 H 65.1714 1.23822 4.15753 0
M  V30 721 H 65.8424 0.322515 5.51057 0
M  V30 722 H 68.3184 -0.938645 4.05375 0
M  V30 723 H 67.1944 -1.66683 5.2298 0
M  V30 724 H 67.4554 -2.45063 3.67963 0
M  V30 725 N 66.5145 -1.57545 0.0417849 0
M  V30 726 C 67.7445 -1.96339 -0.642995 0
M  V30 727 C 68.1525 -0.917536 -1.65463 0
M  V30 728 O 67.4955 0.107747 -1.83384 0
M  V30 729 C 67.5575 -3.31333 -1.39494 0
M  V30 730 C 67.2215 -4.53796 -0.540204 0
M  V30 731 C 68.2185 -5.19553 0.189806 0
M  V30 732 C 65.9035 -5.0006 -0.473886 0
M  V30 733 C 67.8975 -6.29904 0.974674 0
M  V30 734 C 65.5845 -6.10289 0.314677 0
M  V30 735 C 66.5825 -6.75072 1.03765 0
M  V30 736 O 66.2705 -7.83183 1.81327 0
M  V30 737 H 66.0025 -0.651241 -0.181277 0
M  V30 738 H 68.5565 -2.05148 0.101665 0
M  V30 739 H 66.7865 -3.19052 -2.18502 0
M  V30 740 H 68.4755 -3.54942 -1.96904 0
M  V30 741 H 69.2415 -4.84774 0.147981 0
M  V30 742 H 65.1205 -4.49433 -1.0262 0
M  V30 743 H 68.6645 -6.80401 1.5395 0
M  V30 744 H 64.5615 -6.44506 0.358174 0
M  V30 745 H 65.3295 -7.99913 1.73438 0
M  V30 746 N 67.9926 0.231505 -1.5589 0
M  V30 747 C 69.2326 0.964533 -1.80211 0
M  V30 748 C 69.5966 1.81926 -0.613744 0
M  V30 749 O 70.7976 2.58526 -0.736045 0
M  V30 750 C 69.0686 1.78956 -3.09369 0
M  V30 751 S 70.6276 2.57959 -3.54969 0
M  V30 752 H 67.4456 0.324173 -0.632798 0
M  V30 753 H 70.0476 0.230985 -1.94131 0
M  V30 754 H 68.7516 1.15161 -3.93911 0
M  V30 755 H 68.2826 2.56559 -2.9823 0
M  V30 756 H 70.2976 3.81309 -3.17519 0
M  V30 757 N 69.4707 1.49531 0.497807 0
M  V30 758 C 70.7107 1.60799 1.26187 0
M  V30 759 C 71.0747 0.289627 1.89803 0
M  V30 760 O 72.2757 0.277512 2.67364 0
M  V30 761 C 70.5467 2.73729 2.29798 0
M  V30 762 S 72.1057 3.04968 3.155 0
M  V30 763 H 68.9237 0.567145 0.428798 0
M  V30 764 H 71.5257 1.87204 0.563477 0
M  V30 765 H 70.2297 3.68036 1.81597 0
M  V30 766 H 69.7607 2.49328 3.04301 0
M  V30 767 H 71.7757 2.46735 4.30507 0
M  V30 768 N 70.9488 -0.749086 1.3866 0
M  V30 769 C 71.8968 -1.88428 1.36373 0
M  V30 770 C 72.8908 -1.67561 0.248929 0
M  V30 771 O 74.0968 -1.75074 0.41821 0
M  V30 772 H 70.4718 -0.620023 0.42553 0
M  V30 773 H 72.4428 -1.87473 2.32156 0
M  V30 774 C 71.1918 -3.25961 1.21014 0
M  V30 775 H 70.5148 -3.42607 2.06059 0
M  V30 776 H 71.9548 -4.05625 1.23469 0
M  V30 777 C 70.4138 -3.36799 -0.0825941 0
M  V30 778 O 70.9438 -3.87517 -1.05797 0
M  V30 779 N 69.1498 -2.90258 -0.140939 0
M  V30 780 H 68.6968 -2.49174 0.653477 0
M  V30 781 H 68.6548 -2.97889 -1.00545 0
M  V30 782 N 72.4269 -1.23603 -0.977757 0
M  V30 783 C 73.3369 -1.03632 -2.1047 0
M  V30 784 C 74.3529 0.0199435 -1.73989 0
M  V30 785 O 75.5289 -0.176076 -2.00629 0
M  V30 786 C 72.5939 -0.63276 -3.40877 0
M  V30 787 C 71.6549 -1.76437 -3.91367 0
M  V30 788 C 70.8879 -1.37997 -5.15551 0
M  V30 789 O 71.1109 -0.265357 -5.69782 0
M  V30 790 O 70.0449 -2.20201 -5.60174 0
M  V30 791 H 73.8709 -1.98086 -2.30208 0
M  V30 792 H 71.4559 -1.02332 -1.08851 0
M  V30 793 H 73.3379 -0.418761 -4.19314 0
M  V30 794 H 72.0129 0.282754 -3.22463 0
M  V30 795 H 70.9199 -2.03304 -3.14036 0
M  V30 796 H 72.2529 -2.6583 -4.14241 0
M  V30 797 N 73.905 1.17692 -1.04816 0
M  V30 798 C 74.835 2.23777 -0.666791 0
M  V30 799 C 75.816 1.66796 0.33361 0
M  V30 800 O 77.001 1.93039 0.212042 0
M  V30 801 C 74.131 3.47281 -0.0367933 0
M  V30 802 C 73.085 4.17059 -0.961546 0
M  V30 803 C 72.411 5.34342 -0.195626 0
M  V30 804 C 73.711 4.69713 -2.28402 0
M  V30 805 H 75.405 2.55933 -1.55367 0
M  V30 806 H 72.951 1.23019 -0.748484 0
M  V30 807 H 74.904 4.20706 0.241775 0
M  V30 808 H 73.628 3.14381 0.885004 0
M  V30 809 H 72.287 3.45541 -1.22462 0
M  V30 810 H 71.935 4.97692 0.728816 0
M  V30 811 H 71.635 5.81966 -0.811775 0
M  V30 812 H 73.159 6.10553 0.0757473 0
M  V30 813 H 74.573 5.34794 -2.06563 0
M  V30 814 H 72.97 5.279 -2.8538 0
M  V30 815 H 74.04 3.86726 -2.92525 0
M  V30 816 N 75.3831 0.828654 1.34056 0
M  V30 817 C 76.3311 0.242973 2.31327 0
M  V30 818 C 77.3251 -0.61944 1.57668 0
M  V30 819 O 78.5311 -0.51014 1.7262 0
M  V30 820 H 74.9061 0.059834 0.749616 0
M  V30 821 H 76.8771 1.07809 2.78244 0
M  V30 822 C 75.6261 -0.575733 3.429 0
M  V30 823 H 74.9491 0.0785582 3.99723 0
M  V30 824 H 76.3891 -0.951547 4.13185 0
M  V30 825 C 74.8481 -1.75044 2.87856 0
M  V30 826 O 75.3781 -2.84882 2.83205 0
M  V30 827 N 73.5841 -1.56903 2.44602 0
M  V30 828 H 73.1311 -0.675547 2.48584 0
M  V30 829 H 73.0891 -2.35652 2.08124 0
M  V30 830 N 76.8612 -1.46375 0.584142 0
M  V30 831 C 78.1012 -2.0427 0.0729695 0
M  V30 832 C 78.4652 -1.44563 -1.26355 0
M  V30 833 O 79.6662 -1.93667 -1.86405 0
M  V30 834 C 77.9372 -3.57399 0.00967464 0
M  V30 835 S 79.4962 -4.36551 -0.443714 0
M  V30 836 H 76.3142 -0.709975 0.0381673 0
M  V30 837 H 78.9162 -1.79398 0.776962 0
M  V30 838 H 77.6202 -3.98372 0.986319 0
M  V30 839 H 77.1512 -3.8681 -0.717044 0
M  V30 840 H 79.1662 -4.66237 -1.69816 0
M  V30 841 N 78.3393 -0.321999 -1.54275 0
M  V30 842 C 79.5873 0.280489 -2.00144 0
M  V30 843 C 79.9083 1.52777 -1.21178 0
M  V30 844 O 79.1783 1.9338 -0.313187 0
M  V30 845 H 77.7583 0.106632 -0.73935 0
M  V30 846 H 80.4203 -0.438184 -1.8991 0
M  V30 847 H 79.5163 0.537972 -3.07428 0
M  V30 848 N 79.8174 1.5752 -0.0501392 0
M  V30 849 C 81.0644 1.9265 0.623874 0
M  V30 850 C 81.3924 0.928411 1.70912 0
M  V30 851 O 80.6474 -0.0594525 1.9561 0
M  V30 852 C 80.9464 3.34467 1.25963 0
M  V30 853 C 80.6124 4.49883 0.302689 0
M  V30 854 C 79.2744 4.81184 0.0393636 0
M  V30 855 C 81.6264 5.20002 -0.353205 0
M  V30 856 C 78.9544 5.79951 -0.887308 0
M  V30 857 C 81.3064 6.1976 -1.26806 0
M  V30 858 C 79.9704 6.49491 -1.54007 0
M  V30 859 H 79.2404 0.704957 0.228292 0
M  V30 860 H 81.8874 1.91146 -0.116398 0
M  V30 861 H 80.1924 3.32333 2.07514 0
M  V30 862 H 81.8894 3.58928 1.78806 0
M  V30 863 H 78.4794 4.25457 0.518109 0
M  V30 864 H 82.6634 4.96033 -0.162854 0
M  V30 865 H 77.9194 6.01322 -1.10553 0
M  V30 866 H 82.0934 6.73205 -1.78236 0
M  V30 867 H 79.7204 7.25837 -2.25976 0
M  V30 868 N 81.2955 -0.223234 1.56011 0
M  V30 869 C 82.5205 -0.968978 1.83373 0
M  V30 870 C 82.9455 -1.77227 0.630254 0
M  V30 871 O 82.3035 -1.76345 -0.420959 0
M  V30 872 C 82.3515 -1.86363 3.08709 0
M  V30 873 O 81.4555 -2.95873 2.87285 0
M  V30 874 H 80.7965 -0.274461 0.604622 0
M  V30 875 H 83.3265 -0.237056 2.03222 0
M  V30 876 H 83.3365 -2.27376 3.38768 0
M  V30 877 H 82.0115 -1.27319 3.95933 0
M  V30 878 H 80.5885 -2.58818 2.68454 0
M  V30 879 N 82.7736 -1.49793 -0.48987 0
M  V30 880 C 83.7366 -1.66752 -1.57246 0
M  V30 881 C 84.7366 -0.538867 -1.51502 0
M  V30 882 O 85.9266 -0.805545 -1.54456 0
M  V30 883 C 83.0586 -1.67528 -2.96896 0
M  V30 884 H 84.2516 -2.63321 -1.43534 0
M  V30 885 H 81.8046 -1.38992 -0.714914 0
M  V30 886 H 82.5396 -0.725837 -3.16073 0
M  V30 887 H 82.3246 -2.49504 -3.02473 0
M  V30 888 H 83.8146 -1.82667 -3.7553 0
M  V30 889 N 84.2517 0.741722 -1.39055 0
M  V30 890 C 85.1617 1.88621 -1.39496 0
M  V30 891 C 86.1777 1.71557 -0.290578 0
M  V30 892 O 87.3537 1.94275 -0.530954 0
M  V30 893 C 84.4187 3.24134 -1.23037 0
M  V30 894 C 83.4797 3.5364 -2.43387 0
M  V30 895 C 82.7127 4.82687 -2.27703 0
M  V30 896 O 82.9357 5.55922 -1.27696 0
M  V30 897 O 81.8697 5.1194 -3.16545 0
M  V30 898 H 85.6957 1.91203 -2.35956 0
M  V30 899 H 83.2807 0.888625 -1.20099 0
M  V30 900 H 85.1627 4.0513 -1.15964 0
M  V30 901 H 83.8377 3.22337 -0.296691 0
M  V30 902 H 82.7447 2.72758 -2.56035 0
M  V30 903 H 84.0777 3.60209 -3.35425 0
M  V30 904 N 85.7298 1.2412 0.971189 0
M  V30 905 C 86.9778 1.07668 1.71032 0
M  V30 906 C 87.2988 -0.385797 1.91146 0
M  V30 907 O 86.5688 -1.27569 1.4867 0
M  V30 908 H 85.1488 0.395429 0.633755 0
M  V30 909 H 87.8108 1.55984 1.16855 0
M  V30 910 H 86.9068 1.57195 2.69622 0
M  V30 911 N 87.2079 -1.17134 1.05439 0
M  V30 912 C 88.4379 -1.91094 0.785274 0
M  V30 913 C 88.8459 -1.77198 -0.663142 0
M  V30 914 O 88.1889 -1.10835 -1.46497 0
M  V30 915 C 88.2509 -3.42594 1.08949 0
M  V30 916 C 87.9149 -3.80274 2.53458 0
M  V30 917 C 88.9119 -3.82912 3.51673 0
M  V30 918 C 86.5969 -4.11162 2.88532 0
M  V30 919 C 88.5909 -4.15913 4.83006 0
M  V30 920 C 86.2779 -4.43831 4.20068 0
M  V30 921 C 87.2759 -4.46185 5.17115 0
M  V30 922 O 86.9639 -4.78083 6.46291 0
M  V30 923 H 86.6959 -0.613073 0.284811 0
M  V30 924 H 89.2499 -1.49461 1.40893 0
M  V30 925 H 87.4799 -3.84534 0.408741 0
M  V30 926 H 89.1689 -3.97817 0.805991 0
M  V30 927 H 89.9349 -3.5917 3.25917 0
M  V30 928 H 85.8139 -4.085 2.13656 0
M  V30 929 H 89.3579 -4.17665 5.5875 0
M  V30 930 H 85.2549 -4.67037 4.45586 0
M  V30 931 H 86.0229 -4.9593 6.51149 0
M  V30 932 N 88.686 -0.835752 -1.33615 0
M  V30 933 C 89.649 -0.272 -2.2758 0
M  V30 934 C 90.649 0.557487 -1.50827 0
M  V30 935 O 91.839 0.37173 -1.70188 0
M  V30 936 C 88.971 0.617173 -3.35267 0
M  V30 937 H 90.164 -1.10111 -2.78954 0
M  V30 938 H 87.717 -0.608594 -1.43965 0
M  V30 939 H 88.452 1.46884 -2.89129 0
M  V30 940 H 88.237 0.0237066 -3.92093 0
M  V30 941 H 89.727 1.005 -4.05326 0
M  V30 942 N 90.1641 1.46063 -0.591896 0
M  V30 943 C 91.5801 1.57561 -0.254288 0
M  V30 944 C 91.7801 1.58565 1.24336 0
M  V30 945 O 90.8361 1.50753 2.02558 0
M  V30 946 C 92.1491 2.86549 -0.911611 0
M  V30 947 C 93.6971 3.00197 -0.886059 0
M  V30 948 C 94.1721 4.31933 -1.5231 0
M  V30 949 N 95.6631 4.38654 -1.48786 0
M  V30 950 C 96.3981 5.39222 -1.95006 0
M  V30 951 N 95.8941 6.46414 -2.49241 0
M  V30 952 N 97.6871 5.3048 -1.85868 0
M  V30 953 H 89.8381 1.43655 -1.56451 0
M  V30 954 H 92.1011 0.68583 -0.654478 0
M  V30 955 H 91.8071 2.91651 -1.96551 0
M  V30 956 H 91.6811 3.74794 -0.425368 0
M  V30 957 H 94.0681 2.9467 0.159246 0
M  V30 958 H 94.1491 2.13403 -1.41041 0
M  V30 959 H 93.7931 4.38217 -2.56765 0
M  V30 960 H 93.7231 5.17516 -0.973891 0
M  V30 961 H 96.2141 3.61793 -1.09151 0
M  V30 962 H 96.5271 7.19376 -2.82344 0
M  V30 963 H 94.8721 6.47208 -2.53272 0
M  V30 964 H 98.0631 4.45643 -1.43248 0
M  V30 965 H 98.2361 6.08711 -2.22204 0
M  V30 966 N 91.6422 0.330177 1.54103 0
M  V30 967 C 92.6052 -0.520144 2.2322 0
M  V30 968 C 93.6052 -1.03828 1.22786 0
M  V30 969 O 94.7952 -0.929652 1.4732 0
M  V30 970 C 91.9272 -1.72317 2.94142 0
M  V30 971 H 93.1202 0.0841605 2.99782 0
M  V30 972 H 90.6732 0.0813433 1.56088 0
M  V30 973 H 91.4082 -2.36653 2.21734 0
M  V30 974 H 91.1932 -1.35898 3.67796 0
M  V30 975 H 92.6832 -2.3266 3.46784 0
M  V30 976 N 93.1203 -1.57491 0.0584922 0
M  V30 977 C 94.0673 -2.11958 -0.913376 0
M  V30 978 C 95.0373 -1.02875 -1.30407 0
M  V30 979 O 96.2223 -1.30464 -1.39226 0
M  V30 980 C 93.3623 -2.67497 -2.18035 0
M  V30 981 C 92.4753 -3.90691 -1.84349 0
M  V30 982 C 91.6103 -4.3452 -3.05559 0
M  V30 983 C 90.6493 -5.50395 -2.67827 0
M  V30 984 N 89.7863 -5.89244 -3.81754 0
M  V30 985 H 94.6263 -2.94704 -0.442017 0
M  V30 986 H 92.1633 -1.45643 -0.206545 0
M  V30 987 H 94.1213 -2.978 -2.92183 0
M  V30 988 H 92.7513 -1.87537 -2.62735 0
M  V30 989 H 91.8033 -3.66934 -1.00319 0
M  V30 990 H 93.1153 -4.7489 -1.5258 0
M  V30 991 H 92.2693 -4.66414 -3.87998 0
M  V30 992 H 91.0083 -3.49147 -3.40511 0
M  V30 993 H 90.0133 -5.18165 -1.83806 0
M  V30 994 H 91.2383 -6.3749 -2.34059 0
M  V30 995 H 89.1843 -5.06823 -4.16493 0
M  V30 996 H 89.1013 -6.68151 -3.53708 0
M  V30 997 H 90.3693 -6.25756 -4.64811 0
M  V30 998 N 94.5984 0.214957 -1.56127 0
M  V30 999 C 95.8464 0.936518 -1.79091 0
M  V30 1000 C 96.1674 1.84606 -0.628148 0
M  V30 1001 O 95.4374 1.92664 0.35462 0
M  V30 1002 H 94.0174 0.3488 -0.660566 0
M  V30 1003 H 96.6794 0.22523 -1.93594 0
M  V30 1004 H 95.7754 1.53943 -2.71492 0
M  V30 1005 N 96.0765 1.50051 0.48192 0
M  V30 1006 C 97.0395 1.67584 1.5636 0
M  V30 1007 C 98.0395 0.546894 1.51214 0
M  V30 1008 O 99.2295 0.813725 1.54026 0
M  V30 1009 C 96.3615 1.691 2.96003 0
M  V30 1010 H 97.5545 2.64078 1.42136 0
M  V30 1011 H 95.1075 1.39369 0.707533 0
M  V30 1012 H 95.8425 0.742589 3.15684 0
M  V30 1013 H 95.6275 2.51105 3.01146 0
M  V30 1014 H 97.1175 1.84656 3.74556 0
M  V30 1015 N 97.5546 -0.734337 1.39446 0
M  V30 1016 C 98.5176 -1.83004 1.37994 0
M  V30 1017 C 99.5176 -1.58397 0.276938 0
M  V30 1018 O 100.708 -1.65785 0.534875 0
M  V30 1019 C 97.8396 -3.20802 1.1532 0
M  V30 1020 H 99.0326 -1.85694 2.35494 0
M  V30 1021 H 96.5856 -0.938059 1.25021 0
M  V30 1022 H 97.3206 -3.23772 0.185036 0
M  V30 1023 H 97.1056 -3.4006 1.95197 0
M  V30 1024 H 98.5956 -4.00862 1.17046 0
M  V30 1025 N 99.0327 -1.24633 -0.964593 0
M  V30 1026 C 99.9957 -1.0424 -2.04124 0
M  V30 1027 C 100.996 0.00137563 -1.608 0
M  V30 1028 O 102.186 -0.239883 -1.7254 0
M  V30 1029 C 99.3177 -0.580588 -3.3592 0
M  V30 1030 H 100.511 -1.99803 -2.23649 0
M  V30 1031 H 98.0637 -1.06899 -1.14027 0
M  V30 1032 H 98.7987 0.3781 -3.22088 0
M  V30 1033 H 98.5837 -1.33398 -3.6871 0
M  V30 1034 H 100.074 -0.459034 -4.15069 0
M  V30 1035 N 100.511 1.16574 -1.06058 0
M  V30 1036 C 101.474 2.19085 -0.673392 0
M  V30 1037 C 102.474 1.5835 0.279648 0
M  V30 1038 O 103.664 1.74088 0.0623488 0
M  V30 1039 C 100.796 3.40899 0.00954234 0
M  V30 1040 H 101.989 2.54853 -1.58081 0
M  V30 1041 H 99.5418 1.30808 -0.855516 0
M  V30 1042 H 100.277 3.10684 0.929826 0
M  V30 1043 H 100.062 3.86233 -0.67573 0
M  V30 1044 H 101.552 4.1675 0.266245 0
M  V30 1045 N 101.989 0.842826 1.3317 0
M  V30 1046 C 103.235 0.441099 1.97945 0
M  V30 1047 C 103.568 -0.998024 1.66593 0
M  V30 1048 O 102.843 -1.69839 0.947898 0
M  V30 1049 C 103.126 0.666841 3.53872 0
M  V30 1050 C 102.979 2.15352 3.94897 0
M  V30 1051 C 104.298 0.115544 4.39948 0
M  V30 1052 H 101.417 0.161739 0.719034 0
M  V30 1053 H 104.059 1.05907 1.57746 0
M  V30 1054 H 102.209 0.140828 3.88245 0
M  V30 1055 H 103.881 2.7447 3.70761 0
M  V30 1056 H 102.124 2.63653 3.44484 0
M  V30 1057 H 102.795 2.26221 5.03516 0
M  V30 1058 H 105.271 0.565213 4.12243 0
M  V30 1059 H 104.147 0.303152 5.48062 0
M  V30 1060 H 104.408 -0.980935 4.3108 0
M  V30 1061 N 103.467 -1.45747 0.599634 0
M  V30 1062 C 104.713 -2.02592 0.0918643 0
M  V30 1063 C 105.046 -1.46806 -1.27128 0
M  V30 1064 O 104.321 -0.639658 -1.83681 0
M  V30 1065 C 104.604 -3.60073 0.0443398 0
M  V30 1066 C 104.457 -4.26208 1.43759 0
M  V30 1067 C 105.776 -4.35309 -0.647608 0
M  V30 1068 H 102.895 -0.736175 0.034857 0
M  V30 1069 H 105.537 -1.73694 0.770081 0
M  V30 1070 H 103.687 -3.84823 -0.533224 0
M  V30 1071 H 105.359 -4.12668 2.06162 0
M  V30 1072 H 103.602 -3.84916 2.00056 0
M  V30 1073 H 104.273 -5.35069 1.35665 0
M  V30 1074 H 106.749 -4.15805 -0.156776 0
M  V30 1075 H 105.625 -5.45038 -0.649942 0
M  V30 1076 H 105.886 -4.07598 -1.71219 0
M  V30 1077 N 104.945 -0.338344 -1.53925 0
M  V30 1078 C 106.173 0.261298 -2.05243 0
M  V30 1079 C 106.588 1.44625 -1.21363 0
M  V30 1080 O 105.945 1.80811 -0.247736 0
M  V30 1081 C 105.996 0.681412 -3.5502 0
M  V30 1082 O 105.717 -0.456414 -4.35716 0
M  V30 1083 C 107.218 1.34232 -4.22489 0
M  V30 1084 H 104.438 0.0513685 -0.669031 0
M  V30 1085 H 106.982 -0.488822 -1.98572 0
M  V30 1086 H 105.137 1.38148 -3.61931 0
M  V30 1087 H 105.551 -0.122564 -5.24357 0
M  V30 1088 H 107.025 1.58708 -5.28693 0
M  V30 1089 H 107.502 2.29426 -3.74514 0
M  V30 1090 H 108.108 0.684424 -4.19757 0
M  V30 1091 N 106.423 1.57458 -0.0668435 0
M  V30 1092 C 107.653 1.97337 0.611677 0
M  V30 1093 C 108.061 0.943744 1.63982 0
M  V30 1094 O 107.404 -0.0785584 1.83532 0
M  V30 1095 C 107.466 3.33511 1.34205 0
M  V30 1096 C 107.13 4.54598 0.467941 0
M  V30 1097 C 108.127 5.19186 -0.272439 0
M  V30 1098 C 105.812 5.0075 0.39427 0
M  V30 1099 C 107.806 6.28274 -1.07476 0
M  V30 1100 C 105.493 6.09711 -0.411729 0
M  V30 1101 C 106.491 6.73335 -1.14492 0
M  V30 1102 O 106.179 7.80199 -1.93763 0
M  V30 1103 H 105.911 0.654042 0.170893 0
M  V30 1104 H 108.465 2.04961 -0.134289 0
M  V30 1105 H 106.695 3.22487 2.13398 0
M  V30 1106 H 108.384 3.58029 1.91233 0
M  V30 1107 H 109.15 4.84477 -0.225086 0
M  V30 1108 H 105.029 4.51009 0.954569 0
M  V30 1109 H 108.573 6.77866 -1.64755 0
M  V30 1110 H 104.47 6.43854 -0.460664 0
M  V30 1111 H 105.238 7.97053 -1.86142 0
M  V30 1112 N 107.901 -0.206675 1.56239 0
M  V30 1113 C 109.126 -0.949474 1.8439 0
M  V30 1114 C 109.551 -1.76549 0.649016 0
M  V30 1115 O 108.909 -1.76782 -0.402231 0
M  V30 1116 C 108.957 -1.83078 3.10668 0
M  V30 1117 O 108.061 -2.9281 2.90407 0
M  V30 1118 H 107.402 -0.268033 0.607499 0
M  V30 1119 H 109.932 -0.215488 2.03462 0
M  V30 1120 H 109.942 -2.2377 3.41161 0
M  V30 1121 H 108.617 -1.23112 3.97261 0
M  V30 1122 H 107.194 -2.55956 2.71184 0
M  V30 1123 N 109.379 -1.50304 -0.473955 0
M  V30 1124 C 110.625 -1.61389 -1.22806 0
M  V30 1125 C 110.958 -0.311955 -1.91678 0
M  V30 1126 O 110.233 0.686384 -1.81986 0
M  V30 1127 C 110.516 -2.79219 -2.27396 0
M  V30 1128 C 110.369 -4.19286 -1.62848 0
M  V30 1129 C 111.688 -2.92614 -3.28732 0
M  V30 1130 H 108.807 -0.587399 -0.445119 0
M  V30 1131 H 111.449 -1.82681 -0.522265 0
M  V30 1132 H 109.599 -2.61195 -2.87592 0
M  V30 1133 H 111.271 -4.48892 -1.06271 0
M  V30 1134 H 109.514 -4.23677 -0.931693 0
M  V30 1135 H 110.185 -4.97655 -2.38838 0
M  V30 1136 H 112.661 -3.09105 -2.78556 0
M  V30 1137 H 111.537 -3.76688 -3.99246 0
M  V30 1138 H 111.798 -2.03107 -3.92683 0
M  V30 1139 N 110.857 0.726932 -1.39834 0
M  V30 1140 C 112.105 1.4837 -1.37225 0
M  V30 1141 C 112.426 1.94979 0.0284857 0
M  V30 1142 O 111.696 1.69555 0.981213 0
M  V30 1143 H 110.276 0.55043 -0.505011 0
M  V30 1144 H 112.938 0.862468 -1.74778 0
M  V30 1145 H 112.034 2.36198 -2.04003 0
M  V30 1146 N 112.336 1.25143 0.95797 0
M  V30 1147 C 113.299 1.05321 2.03569 0
M  V30 1148 C 114.299 0.007152 1.60798 0
M  V30 1149 O 115.489 0.24903 1.72411 0
M  V30 1150 C 112.621 0.598394 3.35607 0
M  V30 1151 H 113.814 2.00986 2.22586 0
M  V30 1152 H 111.367 1.07502 1.13459 0
M  V30 1153 H 112.102 -0.361014 3.22284 0
M  V30 1154 H 111.887 1.35351 3.67998 0
M  V30 1155 H 113.377 0.48104 4.1482 0
M  V30 1156 N 113.814 -1.1601 1.06675 0
M  V30 1157 C 114.744 -2.22688 0.702307 0
M  V30 1158 C 115.725 -1.67306 -0.307032 0
M  V30 1159 O 116.91 -1.93352 -0.181305 0
M  V30 1160 C 114.04 -3.47178 0.092038 0
M  V30 1161 C 112.994 -4.15477 1.02777 0
M  V30 1162 C 112.32 -5.33963 0.28061 0
M  V30 1163 C 113.62 -4.66019 2.35846 0
M  V30 1164 H 115.314 -2.53429 1.59419 0
M  V30 1165 H 112.86 -1.21813 0.767961 0
M  V30 1166 H 114.813 -4.21037 -0.174814 0
M  V30 1167 H 113.537 -3.15749 -0.834877 0
M  V30 1168 H 112.196 -3.43549 1.27944 0
M  V30 1169 H 111.844 -4.98788 -0.649545 0
M  V30 1170 H 111.544 -5.806 0.904258 0
M  V30 1171 H 113.068 -6.10596 0.021396 0
M  V30 1172 H 114.482 -5.3144 2.15045 0
M  V30 1173 H 112.879 -5.23293 2.93743 0
M  V30 1174 H 113.949 -3.82023 2.98641 0
M  V30 1175 N 115.292 -0.849877 -1.32721 0
M  V30 1176 C 116.517 -0.463856 -2.02146 0
M  V30 1177 C 116.942 0.930449 -1.63476 0
M  V30 1178 O 116.3 1.61033 -0.832952 0
M  V30 1179 C 116.348 -0.604955 -3.55489 0
M  V30 1180 O 115.452 0.36425 -4.10788 0
M  V30 1181 H 114.793 -0.187046 -0.637111 0
M  V30 1182 H 117.323 -1.14775 -1.69375 0
M  V30 1183 H 117.333 -0.490696 -4.05038 0
M  V30 1184 H 116.008 -1.62174 -3.82978 0
M  V30 1185 H 114.585 0.206628 -3.72327 0
M  V30 1186 N 116.77 1.45427 -0.607355 0
M  V30 1187 C 117.733 2.28974 0.101693 0
M  V30 1188 C 118.733 1.39754 0.795329 0
M  V30 1189 O 119.923 1.61878 0.643527 0
M  V30 1190 C 117.055 3.20768 1.15414 0
M  V30 1191 H 118.248 2.93147 -0.632844 0
M  V30 1192 H 115.801 1.51945 -0.366391 0
M  V30 1193 H 116.536 2.61395 1.91945 0
M  V30 1194 H 116.321 3.86489 0.66098 0
M  V30 1195 H 117.811 3.83589 1.65073 0
M  V30 1196 N 118.248 0.346503 1.53744 0
M  V30 1197 C 119.495 -0.249104 2.00962 0
M  V30 1198 C 119.823 -1.5032 1.23426 0
M  V30 1199 O 119.078 -1.93217 0.310761 0
M  V30 1200 C 119.377 -0.605809 3.52228 0
M  V30 1201 C 119.043 0.551747 4.47512 0
M  V30 1202 C 117.705 0.86941 4.73281 0
M  V30 1203 C 120.057 1.32818 5.03993 0
M  V30 1204 C 117.385 1.96582 5.52786 0
M  V30 1205 C 119.737 2.41486 5.84694 0
M  V30 1206 C 118.401 2.73808 6.08757 0
M  V30 1207 H 117.671 -0.0911538 0.735372 0
M  V30 1208 H 120.318 0.475027 1.85515 0
M  V30 1209 H 118.623 -1.4107 3.65522 0
M  V30 1210 H 120.32 -1.07858 3.86222 0
M  V30 1211 H 116.91 0.294102 4.2759 0
M  V30 1212 H 121.094 1.09602 4.84047 0
M  V30 1213 H 116.35 2.22045 5.69654 0
M  V30 1214 H 120.524 3.02078 6.27473 0
M  V30 1215 H 118.151 3.58892 6.7015 0
M  V30 1216 N 119.726 -1.57421 0.075193 0
M  V30 1217 C 121.003 -1.85029 -0.634329 0
M  V30 1218 C 121.383 -0.968305 -1.87582 0
M  V30 1219 O 120.731 -0.0354749 -2.28472 0
M  V30 1220 C 120.941 -3.35286 -0.968742 0
M  V30 1221 C 122.289 -4.02875 -1.34077 0
M  V30 1222 O 123.313 -3.40051 -1.06037 0
M  V30 1223 O 122.172 -5.13691 -1.86506 0
M  V30 1224 H 119.266 -0.7645 -0.315387 0
M  V30 1225 H 121.812 -1.69366 0.106382 0
M  V30 1226 H 120.584 -3.91203 -0.0871376 0
M  V30 1227 H 120.207 -3.56223 -1.7661 0
M  V30 1228 N 121.204 0.198386 -1.56346 0
M  V30 1229 C 122.167 1.22952 -1.93431 0
M  V30 1230 C 123.167 1.38611 -0.815092 0
M  V30 1231 O 124.357 1.36479 -1.08255 0
M  V30 1232 C 121.489 2.59946 -2.20546 0
M  V30 1233 H 122.682 0.912626 -2.85677 0
M  V30 1234 H 120.235 0.43977 -1.49986 0
M  V30 1235 H 120.97 2.96696 -1.30927 0
M  V30 1236 H 120.755 2.49953 -3.02102 0
M  V30 1237 H 122.245 3.3431 -2.50253 0
M  V30 1238 N 122.682 1.50554 0.465978 0
M  V30 1239 C 123.931 1.61038 1.21448 0
M  V30 1240 C 124.244 0.31865 1.92987 0
M  V30 1241 O 125.45 0.302469 2.6981 0
M  V30 1242 C 123.906 2.84283 2.20706 0
M  V30 1243 C 123.514 4.20352 1.54946 0
M  V30 1244 C 125.258 3.04115 2.96166 0
M  V30 1245 C 123.165 5.34778 2.5252 0
M  V30 1246 H 122.095 0.599718 0.457005 0
M  V30 1247 H 124.746 1.7699 0.484424 0
M  V30 1248 H 123.128 2.61901 2.97025 0
M  V30 1249 H 124.302 4.53008 0.843811 0
M  V30 1250 H 122.617 4.06167 0.917475 0
M  V30 1251 H 125.214 3.86774 3.69202 0
M  V30 1252 H 125.557 2.16045 3.55852 0
M  V30 1253 H 126.09 3.26702 2.26959 0
M  V30 1254 H 122.829 6.25018 1.97566 0
M  V30 1255 H 122.349 5.06534 3.21222 0
M  V30 1256 H 124.028 5.65561 3.14245 0
M  V30 1257 N 124.16 -0.719506 1.40217 0
M  V30 1258 C 125.408 -1.47641 1.3801 0
M  V30 1259 C 125.729 -1.94992 -0.018145 0
M  V30 1260 O 124.999 -1.70073 -0.972207 0
M  V30 1261 H 123.579 -0.547744 0.507923 0
M  V30 1262 H 126.241 -0.853187 1.75233 0
M  V30 1263 H 125.337 -2.35112 2.05253 0
M  V30 1264 N 125.638 -1.25649 -0.95132 0
M  V30 1265 C 126.886 -1.10375 -1.69298 0
M  V30 1266 C 127.207 0.355339 -1.91735 0
M  V30 1267 O 126.477 1.25188 -1.50681 0
M  V30 1268 H 125.057 -0.405461 -0.627384 0
M  V30 1269 H 127.719 -1.57823 -1.14358 0
M  V30 1270 H 126.815 -1.61465 -2.67087 0
M  V30 1271 N 127.117 1.15442 -1.07289 0
M  V30 1272 C 128.08 2.18358 -0.696591 0
M  V30 1273 C 129.08 1.58637 0.262837 0
M  V30 1274 O 130.27 1.74145 0.0438809 0
M  V30 1275 C 127.402 3.4089 -0.0266151 0
M  V30 1276 H 128.595 2.53162 -1.60776 0
M  V30 1277 H 126.148 1.29893 -0.869342 0
M  V30 1278 H 126.883 3.11653 0.896822 0
M  V30 1279 H 126.668 3.85495 -0.716657 0
M  V30 1280 H 128.158 4.17009 0.222028 0
M  V30 1281 N 128.595 0.856903 1.32268 0
M  V30 1282 C 129.825 0.47475 2.01071 0
M  V30 1283 C 130.233 -0.933746 1.64553 0
M  V30 1284 O 129.576 -1.62114 0.863989 0
M  V30 1285 C 129.638 0.536746 3.55471 0
M  V30 1286 C 129.302 1.90453 4.15423 0
M  V30 1287 C 130.299 2.87029 4.33486 0
M  V30 1288 C 127.984 2.20229 4.51447 0
M  V30 1289 C 129.978 4.11532 4.86744 0
M  V30 1290 C 127.665 3.44984 5.0441 0
M  V30 1291 C 128.663 4.40452 5.22007 0
M  V30 1292 O 128.351 5.62998 5.73837 0
M  V30 1293 H 128.083 0.184778 0.650256 0
M  V30 1294 H 130.637 1.15615 1.69771 0
M  V30 1295 H 128.867 -0.20152 3.86175 0
M  V30 1296 H 130.556 0.169875 4.05544 0
M  V30 1297 H 131.322 2.6533 4.05986 0
M  V30 1298 H 127.201 1.46705 4.37034 0
M  V30 1299 H 130.745 4.86056 5.00395 0
M  V30 1300 H 126.642 3.66532 5.31342 0
M  V30 1301 H 127.41 5.64987 5.92226 0
M  V30 1302 N 130.073 -1.45103 0.615059 0
M  V30 1303 C 131.036 -2.29025 -0.0895485 0
M  V30 1304 C 132.036 -1.40174 -0.787906 0
M  V30 1305 O 133.226 -1.62217 -0.634933 0
M  V30 1306 C 130.358 -3.21376 -1.13711 0
M  V30 1307 H 131.551 -2.92807 0.648382 0
M  V30 1308 H 129.104 -1.51749 0.374444 0
M  V30 1309 H 129.839 -2.6241 -1.90556 0
M  V30 1310 H 129.624 -3.86834 -0.640475 0
M  V30 1311 H 131.114 -3.84459 -1.63036 0
M  V30 1312 N 131.551 -0.354651 -1.53558 0
M  V30 1313 C 132.461 0.50515 -2.29097 0
M  V30 1314 C 133.477 1.10223 -1.34636 0
M  V30 1315 O 134.653 1.11553 -1.67684 0
M  V30 1316 C 131.718 1.63479 -3.05738 0
M  V30 1317 C 130.779 1.06636 -4.15845 0
M  V30 1318 C 130.012 2.14217 -4.88822 0
M  V30 1319 O 130.235 3.35137 -4.61562 0
M  V30 1320 O 129.169 1.77887 -5.75013 0
M  V30 1321 H 132.995 -0.109237 -3.03503 0
M  V30 1322 H 130.58 -0.119357 -1.48922 0
M  V30 1323 H 132.462 2.2918 -3.5363 0
M  V30 1324 H 131.137 2.23478 -2.34178 0
M  V30 1325 H 130.044 0.373565 -3.7223 0
M  V30 1326 H 131.377 0.511081 -4.89539 0
M  V30 1327 N 133.029 1.57378 -0.0835403 0
M  V30 1328 C 133.977 2.14602 0.89714 0
M  V30 1329 C 134.971 1.08589 1.30018 0
M  V30 1330 O 136.177 1.26952 1.27606 0
M  V30 1331 H 132.552 0.686346 0.3073 0
M  V30 1332 H 134.523 2.95845 0.38969 0
M  V30 1333 C 133.272 2.73188 2.15089 0
M  V30 1334 H 132.595 3.54442 1.84962 0
M  V30 1335 H 134.035 3.1681 2.81793 0
M  V30 1336 C 132.494 1.68517 2.91725 0
M  V30 1337 O 133.024 1.11718 3.85852 0
M  V30 1338 N 131.23 1.39277 2.55049 0
M  V30 1339 H 130.777 1.85655 1.78577 0
M  V30 1340 H 130.735 0.694791 3.06627 0
M  V30 1341 N 134.507 -0.190092 1.56449 0
M  V30 1342 C 135.437 -1.23816 1.97969 0
M  V30 1343 C 136.418 -1.47201 0.852395 0
M  V30 1344 O 137.603 -1.58854 1.1171 0
M  V30 1345 C 134.733 -2.5813 2.3235 0
M  V30 1346 C 133.687 -2.49348 3.47864 0
M  V30 1347 C 133.013 -3.8798 3.67934 0
M  V30 1348 C 134.313 -2.01424 4.81898 0
M  V30 1349 H 136.007 -0.89311 2.85769 0
M  V30 1350 H 133.553 -0.428177 1.37487 0
M  V30 1351 H 135.506 -3.31637 2.59991 0
M  V30 1352 H 134.23 -2.94386 1.41438 0
M  V30 1353 H 132.889 -1.78297 3.20321 0
M  V30 1354 H 132.537 -4.21597 2.74344 0
M  V30 1355 H 132.237 -3.82978 4.45648 0
M  V30 1356 H 133.761 -4.63101 3.97957 0
M  V30 1357 H 135.175 -2.64693 5.08538 0
M  V30 1358 H 133.572 -2.07413 5.63116 0
M  V30 1359 H 134.642 -0.967677 4.75146 0
M  V30 1360 N 135.985 -1.50799 -0.457987 0
M  V30 1361 C 137.396 -1.55152 -1.0385 0
M  V30 1362 C 137.747 -0.362719 -1.92818 0
M  V30 1363 O 136.872 0.522915 -2.09987 0
M  V30 1364 C 137.467 -2.81173 -1.89017 0
M  V30 1365 C 136.026 -2.88164 -2.42154 0
M  V30 1366 C 135.173 -2.49591 -1.20829 0
M  V30 1367 H 138.124 -1.56874 -0.240068 0
M  V30 1368 H 138.145 -2.63769 -2.74238 0
M  V30 1369 H 137.657 -3.67677 -1.24238 0
M  V30 1370 H 135.758 -2.06042 -3.10447 0
M  V30 1371 H 135.871 -3.91356 -2.76364 0
M  V30 1372 H 134.235 -2.02322 -1.54719 0
M  V30 1373 H 135.018 -3.38418 -0.576927 0
M  V30 1374 N 137.463 0.71206 -1.40597 0
M  V30 1375 C 138.709 1.47416 -1.39271 0
M  V30 1376 C 139.042 1.942 0.00388791 0
M  V30 1377 O 138.317 1.68403 0.973179 0
M  V30 1378 C 138.6 2.69774 -2.38525 0
M  V30 1379 C 138.453 2.28861 -3.87224 0
M  V30 1380 C 139.772 3.71939 -2.35264 0
M  V30 1381 H 136.891 0.534713 -0.5072 0
M  V30 1382 H 139.533 0.812375 -1.71757 0
M  V30 1383 H 137.683 3.26238 -2.10953 0
M  V30 1384 H 139.355 1.77852 -4.25636 0
M  V30 1385 H 137.598 1.60824 -4.02887 0
M  V30 1386 H 138.269 3.16584 -4.52193 0
M  V30 1387 H 140.745 3.25113 -2.59694 0
M  V30 1388 H 139.621 4.55186 -3.06753 0
M  V30 1389 H 139.882 4.20484 -1.36549 0
M  V30 1390 N 138.941 1.26152 0.944643 0
M  V30 1391 C 140.19 1.10883 1.68487 0
M  V30 1392 C 140.503 -0.348153 1.92477 0
M  V30 1393 O 141.709 -0.621459 2.64292 0
M  V30 1394 C 140.165 1.93624 3.03377 0
M  V30 1395 C 139.773 3.43875 2.87148 0
M  V30 1396 C 141.517 1.86954 3.81115 0
M  V30 1397 C 139.424 4.18875 4.1749 0
M  V30 1398 H 138.354 0.41135 0.631907 0
M  V30 1399 H 141.005 1.50433 1.05082 0
M  V30 1400 H 139.387 1.46904 3.67743 0
M  V30 1401 H 140.561 3.98338 2.31653 0
M  V30 1402 H 138.876 3.51744 2.22856 0
M  V30 1403 H 141.473 2.40275 4.77673 0
M  V30 1404 H 141.816 0.839518 4.07747 0
M  V30 1405 H 142.349 2.31477 3.23517 0
M  V30 1406 H 139.088 5.22332 3.96043 0
M  V30 1407 H 138.608 3.69193 4.72712 0
M  V30 1408 H 140.287 4.27134 4.85968 0
M  V30 1409 N 140.419 -1.14872 1.07899 0
M  V30 1410 C 141.349 -2.2193 0.725887 0
M  V30 1411 C 142.33 -1.67622 -0.28927 0
M  V30 1412 O 143.515 -1.93533 -0.160787 0
M  V30 1413 C 140.645 -3.47061 0.128856 0
M  V30 1414 C 139.599 -4.14363 1.07178 0
M  V30 1415 C 138.925 -5.33636 0.337229 0
M  V30 1416 C 140.225 -4.63492 2.40775 0
M  V30 1417 H 141.919 -2.51724 1.62097 0
M  V30 1418 H 139.465 -1.20991 0.780838 0
M  V30 1419 H 141.418 -4.21199 -0.130147 0
M  V30 1420 H 140.142 -3.16617 -0.80134 0
M  V30 1421 H 138.801 -3.42173 1.3158 0
M  V30 1422 H 138.449 -4.99449 -0.596606 0
M  V30 1423 H 138.149 -5.79609 0.965788 0
M  V30 1424 H 139.673 -6.10539 0.0861567 0
M  V30 1425 H 141.087 -5.2913 2.20669 0
M  V30 1426 H 139.484 -5.20148 2.99276 0
M  V30 1427 H 140.554 -3.78834 3.02676 0
M  V30 1428 N 141.898 -0.863906 -1.31812 0
M  V30 1429 C 143.147 -0.46801 -1.96195 0
M  V30 1430 C 143.46 0.983474 -1.69077 0
M  V30 1431 O 144.666 1.48523 -2.27273 0
M  V30 1432 C 143.122 -0.785995 -3.51212 0
M  V30 1433 C 142.73 -2.25383 -3.87178 0
M  V30 1434 C 144.474 -0.458274 -4.22019 0
M  V30 1435 C 142.381 -2.51455 -5.3528 0
M  V30 1436 H 141.311 -0.171283 -0.734287 0
M  V30 1437 H 143.962 -1.05597 -1.50072 0
M  V30 1438 H 142.344 -0.127359 -3.95795 0
M  V30 1439 H 143.518 -2.95502 -3.53575 0
M  V30 1440 H 141.833 -2.54698 -3.2942 0
M  V30 1441 H 144.43 -0.630369 -5.30971 0
M  V30 1442 H 144.773 0.600834 -4.11941 0
M  V30 1443 H 145.306 -1.07319 -3.8305 0
M  V30 1444 H 142.045 -3.56025 -5.50387 0
M  V30 1445 H 141.565 -1.85923 -5.70257 0
M  V30 1446 H 143.244 -2.35874 -6.02472 0
M  V30 1447 N 143.376 1.44774 -0.622745 0
M  V30 1448 C 144.601 2.06999 -0.128968 0
M  V30 1449 C 145.026 1.4617 1.1839 0
M  V30 1450 O 144.384 0.560007 1.72434 0
M  V30 1451 C 144.432 3.60595 -0.0188351 0
M  V30 1452 O 143.536 3.99398 1.02739 0
M  V30 1453 H 142.877 0.659047 -0.0809544 0
M  V30 1454 H 145.407 1.85784 -0.85705 0
M  V30 1455 H 145.417 4.07627 0.174476 0
M  V30 1456 H 144.092 4.04252 -0.977384 0
M  V30 1457 H 142.669 3.64011 0.809326 0
M  V30 1458 N 144.854 0.36279 1.53368 0
M  V30 1459 C 146.102 -0.227326 2.00817 0
M  V30 1460 C 146.423 -1.49511 1.25186 0
M  V30 1461 O 145.693 -1.92482 0.364348 0
M  V30 1462 H 144.273 -0.0869923 0.741917 0
M  V30 1463 H 146.935 0.488381 1.88682 0
M  V30 1464 H 146.031 -0.456273 3.08747 0
M  V30 1465 N 146.332 -1.57332 0.0918853 0
M  V30 1466 C 147.295 -2.12708 -0.85369 0
M  V30 1467 C 148.295 -1.05561 -1.213 0
M  V30 1468 O 149.485 -1.31461 -1.14296 0
M  V30 1469 C 146.617 -2.64503 -2.15061 0
M  V30 1470 H 147.81 -2.97573 -0.3729 0
M  V30 1471 H 145.363 -1.55509 -0.157072 0
M  V30 1472 H 146.098 -1.83149 -2.67632 0
M  V30 1473 H 145.883 -3.4284 -1.90272 0
M  V30 1474 H 147.373 -3.07351 -2.82711 0
M  V30 1475 N 147.81 0.181792 -1.56548 0
M  V30 1476 C 149.221 0.745244 -1.71181 0
M  V30 1477 C 149.572 1.83262 -0.70068 0
M  V30 1478 O 148.697 2.15946 0.140154 0
M  V30 1479 C 149.292 1.35859 -3.10367 0
M  V30 1480 C 147.851 1.86898 -3.2672 0
M  V30 1481 C 146.998 0.743942 -2.67134 0
M  V30 1482 H 149.949 -0.0434661 -1.5864 0
M  V30 1483 H 149.97 2.22817 -3.08436 0
M  V30 1484 H 149.482 0.566948 -3.83937 0
M  V30 1485 H 147.583 2.68738 -2.5809 0
M  V30 1486 H 147.696 2.02162 -4.34359 0
M  V30 1487 H 146.06 1.16169 -2.26665 0
M  V30 1488 H 146.843 -0.035676 -3.43281 0
M  V30 1489 N 149.288 1.51039 0.449983 0
M  V30 1490 C 150.236 1.71995 1.5659 0
M  V30 1491 C 151.23 0.586029 1.5894 0
M  V30 1492 O 152.436 0.76709 1.62837 0
M  V30 1493 H 148.811 0.543233 0.520001 0
M  V30 1494 H 150.782 2.65562 1.36085 0
M  V30 1495 C 149.531 1.8506 2.9436 0
M  V30 1496 H 148.854 2.71712 2.93279 0
M  V30 1497 H 150.294 2.0374 3.71842 0
M  V30 1498 C 148.753 0.607277 3.31382 0
M  V30 1499 O 149.283 -0.243903 4.00959 0
M  V30 1500 N 147.489 0.455073 2.87015 0
M  V30 1501 H 147.036 1.14879 2.30566 0
M  V30 1502 H 146.994 -0.375611 3.12148 0
M  V30 1503 N 150.766 -0.704594 1.40972 0
M  V30 1504 C 151.714 -1.83994 1.42299 0
M  V30 1505 C 152.708 -1.66684 0.302111 0
M  V30 1506 O 153.914 -1.73655 0.473697 0
M  V30 1507 H 150.289 -0.606171 0.44504 0
M  V30 1508 H 152.26 -1.79992 2.38003 0
M  V30 1509 C 151.009 -3.21946 1.31323 0
M  V30 1510 H 150.332 -3.35878 2.16855 0
M  V30 1511 H 151.772 -4.01491 1.36311 0
M  V30 1512 C 150.231 -3.36891 0.0245977 0
M  V30 1513 O 150.761 -3.90687 -0.934153 0
M  V30 1514 N 148.967 -2.90559 -0.0485243 0
M  V30 1515 H 148.514 -2.46968 0.732419 0
M  V30 1516 H 148.472 -3.00937 -0.910171 0
M  V30 1517 N 152.244 -1.26651 -0.937939 0
M  V30 1518 C 153.192 -1.08308 -2.05845 0
M  V30 1519 C 154.186 -0.0090757 -1.69398 0
M  V30 1520 O 155.392 -0.166007 -1.79233 0
M  V30 1521 H 151.767 -0.333416 -0.674046 0
M  V30 1522 H 153.738 -2.03261 -2.18467 0
M  V30 1523 C 152.487 -0.736229 -3.39816 0
M  V30 1524 H 151.81 -1.55453 -3.6834 0
M  V30 1525 H 153.25 -0.64769 -4.19024 0
M  V30 1526 C 151.709 0.558824 -3.32233 0
M  V30 1527 O 152.239 1.59621 -3.68624 0
M  V30 1528 N 150.445 0.550657 -2.85335 0
M  V30 1529 H 149.992 -0.293943 -2.55917 0
M  V30 1530 H 149.95 1.41726 -2.80644 0
M  V30 1531 N 153.722 1.14298 -1.08507 0
M  V30 1532 C 154.999 1.81544 -0.728088 0
M  V30 1533 C 155.379 1.95838 0.78808 0
M  V30 1534 O 154.727 1.51904 1.70697 0
M  V30 1535 C 154.937 3.17169 -1.45619 0
M  V30 1536 C 156.285 3.9265 -1.61591 0
M  V30 1537 O 157.309 3.26762 -1.41793 0
M  V30 1538 O 156.168 5.10807 -1.94263 0
M  V30 1539 H 153.262 0.78491 -0.260471 0
M  V30 1540 H 155.808 1.21307 -1.18671 0
M  V30 1541 H 154.58 3.01934 -2.489 0
M  V30 1542 H 154.203 3.851 -0.989124 0
M  V30 1543 N 155.201 0.870884 1.31352 0
M  V30 1544 C 156.151 0.298889 2.26032 0
M  V30 1545 C 157.135 -0.564595 1.50669 0
M  V30 1546 O 158.327 -0.411323 1.72154 0
M  V30 1547 C 155.456 -0.497842 3.39671 0
M  V30 1548 C 154.542 0.378937 4.22404 0
M  V30 1549 N 154.933 1.47284 4.83881 0
M  V30 1550 C 153.231 0.171535 4.4567 0
M  V30 1551 C 153.932 2.01359 5.45738 0
M  V30 1552 N 152.908 1.31047 5.27568 0
M  V30 1553 H 156.71 1.13494 2.71102 0
M  V30 1554 H 154.224 0.718745 1.45629 0
M  V30 1555 H 156.221 -0.924155 4.06528 0
M  V30 1556 H 154.881 -1.33149 2.96144 0
M  V30 1557 H 155.892 1.85575 4.8351 0
M  V30 1558 H 152.569 -0.626091 4.12779 0
M  V30 1559 H 153.959 2.93143 6.0458 0
M  V30 1560 N 156.679 -1.44442 0.630414 0
M  V30 1561 C 157.642 -2.29107 -0.0652523 0
M  V30 1562 C 158.642 -1.41002 -0.772995 0
M  V30 1563 O 159.832 -1.62881 -0.617692 0
M  V30 1564 C 156.964 -3.22564 -1.10296 0
M  V30 1565 H 158.157 -2.92103 0.679401 0
M  V30 1566 H 155.71 -1.51343 0.390517 0
M  V30 1567 H 156.445 -2.64416 -1.87762 0
M  V30 1568 H 156.23 -3.87491 -0.59941 0
M  V30 1569 H 157.72 -3.86167 -1.5895 0
M  V30 1570 N 158.157 -0.370918 -1.53173 0
M  V30 1571 C 159.12 0.460778 -2.24521 0
M  V30 1572 C 160.12 1.00536 -1.25496 0
M  V30 1573 O 161.31 0.890266 -1.49733 0
M  V30 1574 C 158.442 1.64457 -2.98608 0
M  V30 1575 H 159.635 -0.163613 -2.99453 0
M  V30 1576 H 157.188 -0.122699 -1.55818 0
M  V30 1577 H 157.923 2.30691 -2.2793 0
M  V30 1578 H 157.708 1.26099 -3.7127 0
M  V30 1579 H 159.198 2.23384 -3.5283 0
M  V30 1580 N 159.635 1.57281 -0.100228 0
M  V30 1581 C 160.883 1.94153 0.561157 0
M  V30 1582 C 161.204 0.983157 1.68401 0
M  V30 1583 O 160.474 0.0361132 1.95867 0
M  V30 1584 H 159.054 0.716791 0.210283 0
M  V30 1585 H 161.716 1.94202 -0.164765 0
M  V30 1586 H 160.812 2.96709 0.968008 0
M  V30 1587 N 161.113 -0.173488 1.56642 0
M  V30 1588 C 162.063 -1.21941 1.92651 0
M  V30 1589 C 163.047 -1.39912 0.794577 0
M  V30 1590 O 164.239 -1.41919 1.05773 0
M  V30 1591 C 161.368 -2.55935 2.28806 0
M  V30 1592 C 160.454 -2.41667 3.48508 0
M  V30 1593 N 160.845 -1.9711 4.65813 0
M  V30 1594 C 159.143 -2.72499 3.53072 0
M  V30 1595 C 159.844 -1.95253 5.47952 0
M  V30 1596 N 158.82 -2.37575 4.88937 0
M  V30 1597 H 162.622 -0.866581 2.80834 0
M  V30 1598 H 160.136 -0.381776 1.57849 0
M  V30 1599 H 162.133 -3.31511 2.52797 0
M  V30 1600 H 160.793 -2.92022 1.41961 0
M  V30 1601 H 161.804 -1.67481 4.90072 0
M  V30 1602 H 158.481 -3.12639 2.767 0
M  V30 1603 H 159.871 -1.6252 6.51948 0
M  V30 1604 N 162.591 -1.51276 -0.441967 0
M  V30 1605 C 163.837 -1.63958 -1.19355 0
M  V30 1606 C 164.17 -0.352543 -1.90973 0
M  V30 1607 O 163.445 0.647627 -1.83401 0
M  V30 1608 C 163.728 -2.83979 -2.21422 0
M  V30 1609 C 163.581 -4.22646 -1.53918 0
M  V30 1610 C 164.9 -2.99521 -3.22451 0
M  V30 1611 H 162.019 -0.596709 -0.432559 0
M  V30 1612 H 164.661 -1.83748 -0.483398 0
M  V30 1613 H 162.811 -2.67237 -2.81987 0
M  V30 1614 H 164.483 -4.51045 -0.967256 0
M  V30 1615 H 162.726 -4.25558 -0.841615 0
M  V30 1616 H 163.397 -5.02609 -2.28229 0
M  V30 1617 H 165.873 -3.14944 -2.71937 0
M  V30 1618 H 164.749 -3.85072 -3.91166 0
M  V30 1619 H 165.01 -2.11391 -3.88287 0
M  V30 1620 N 164.069 0.697108 -1.41344 0
M  V30 1621 C 164.999 1.82353 -1.45841 0
M  V30 1622 C 165.98 1.67115 -0.317247 0
M  V30 1623 O 167.165 1.86871 -0.528474 0
M  V30 1624 C 164.295 3.20476 -1.33838 0
M  V30 1625 C 163.249 3.50415 -2.4575 0
M  V30 1626 C 162.575 4.87878 -2.18813 0
M  V30 1627 C 163.875 3.49546 -3.88091 0
M  V30 1628 H 165.569 1.78846 -2.40113 0
M  V30 1629 H 163.115 0.859028 -1.15571 0
M  V30 1630 H 165.068 3.98988 -1.35596 0
M  V30 1631 H 163.792 3.24604 -0.360498 0
M  V30 1632 H 162.451 2.74253 -2.43271 0
M  V30 1633 H 162.099 4.8863 -1.19371 0
M  V30 1634 H 161.799 5.08875 -2.93803 0
M  V30 1635 H 163.323 5.68702 -2.22284 0
M  V30 1636 H 164.737 4.18066 -3.92293 0
M  V30 1637 H 163.134 3.82075 -4.62751 0
M  V30 1638 H 164.204 2.48552 -4.16353 0
M  V30 1639 N 165.547 1.27147 0.931209 0
M  V30 1640 C 166.497 1.06227 2.01742 0
M  V30 1641 C 167.481 -0.00859065 1.60898 0
M  V30 1642 O 168.673 0.209537 1.75755 0
M  V30 1643 C 165.802 0.707787 3.35924 0
M  V30 1644 C 164.888 1.81661 3.83223 0
M  V30 1645 N 165.279 3.05564 4.03069 0
M  V30 1646 C 163.577 1.70249 4.12227 0
M  V30 1647 C 164.278 3.77697 4.42403 0
M  V30 1648 N 163.254 3.0544 4.49675 0
M  V30 1649 H 167.056 2.00261 2.15111 0
M  V30 1650 H 164.57 1.1781 1.11779 0
M  V30 1651 H 166.567 0.539043 4.134 0
M  V30 1652 H 165.227 -0.224964 3.2392 0
M  V30 1653 H 166.238 3.41363 3.89476 0
M  V30 1654 H 162.915 0.840329 4.08956 0
M  V30 1655 H 164.305 4.84168 4.65866 0
M  V30 1656 N 167.025 -1.13721 1.09112 0
M  V30 1657 C 167.975 -2.17082 0.697091 0
M  V30 1658 C 168.959 -1.58321 -0.286923 0
M  V30 1659 O 170.151 -1.7673 -0.0978008 0
M  V30 1660 C 167.28 -3.43105 0.115729 0
M  V30 1661 C 166.366 -4.0888 1.12596 0
M  V30 1662 N 166.757 -4.4987 2.31195 0
M  V30 1663 C 165.055 -4.35471 0.963366 0
M  V30 1664 C 165.756 -5.01094 2.95431 0
M  V30 1665 N 164.732 -4.95751 2.23006 0
M  V30 1666 H 168.534 -2.46524 1.6001 0
M  V30 1667 H 166.048 -1.30481 0.966869 0
M  V30 1668 H 168.045 -4.16491 -0.184555 0
M  V30 1669 H 166.705 -3.15138 -0.78217 0
M  V30 1670 H 167.716 -4.42678 2.68806 0
M  V30 1671 H 164.393 -4.17328 0.119878 0
M  V30 1672 H 165.783 -5.4263 3.96236 0
M  V30 1673 N 168.503 -0.877838 -1.30888 0
M  V30 1674 C 169.466 -0.344265 -2.266 0
M  V30 1675 C 170.466 0.50922 -1.52524 0
M  V30 1676 O 171.656 0.317398 -1.71284 0
M  V30 1677 C 168.788 0.510198 -3.37061 0
M  V30 1678 H 169.981 -1.1893 -2.7531 0
M  V30 1679 H 167.534 -0.654088 -1.41956 0
M  V30 1680 H 168.269 1.37612 -2.93655 0
M  V30 1681 H 168.054 -0.101047 -3.9197 0
M  V30 1682 H 169.544 0.875537 -4.08319 0
M  V30 1683 N 169.982 1.44106 -0.638065 0
M  V30 1684 C 170.912 2.33448 0.0494287 0
M  V30 1685 C 171.893 1.48606 0.827672 0
M  V30 1686 O 173.078 1.77308 0.792173 0
M  V30 1687 C 170.208 3.31771 1.02691 0
M  V30 1688 C 169.162 4.26485 0.359823 0
M  V30 1689 C 168.488 5.14729 1.44769 0
M  V30 1690 C 169.788 5.17056 -0.738296 0
M  V30 1691 H 171.482 2.91183 -0.696636 0
M  V30 1692 H 169.028 1.40014 -0.336456 0
M  V30 1693 H 170.981 3.93161 1.51666 0
M  V30 1694 H 169.705 2.7226 1.80395 0
M  V30 1695 H 168.364 3.66437 -0.10934 0
M  V30 1696 H 168.012 4.51566 2.21578 0
M  V30 1697 H 167.712 5.78913 1.00668 0
M  V30 1698 H 169.236 5.78991 1.93911 0
M  V30 1699 H 170.65 5.72342 -0.331354 0
M  V30 1700 H 169.047 5.89879 -1.10286 0
M  V30 1701 H 170.117 4.57652 -1.60258 0
M  V30 1702 N 171.46 0.379036 1.52974 0
M  V30 1703 C 172.708 -0.206014 2.01047 0
M  V30 1704 C 173.029 -1.48175 1.26765 0
M  V30 1705 O 172.299 -1.92085 0.384743 0
M  V30 1706 H 170.879 -0.0791184 0.742798 0
M  V30 1707 H 173.541 0.508366 1.88153 0
M  V30 1708 H 172.637 -0.423501 3.09213 0
M  V30 1709 N 172.938 -1.57226 0.108567 0
M  V30 1710 C 173.885 -2.14756 -0.845481 0
M  V30 1711 C 174.855 -1.06971 -1.27068 0
M  V30 1712 O 176.04 -1.34827 -1.35005 0
M  V30 1713 C 173.18 -2.74298 -2.09415 0
M  V30 1714 C 172.293 -3.96358 -1.71826 0
M  V30 1715 C 171.428 -4.44021 -2.9158 0
M  V30 1716 C 170.467 -5.58637 -2.50181 0
M  V30 1717 N 169.604 -6.01091 -3.62814 0
M  V30 1718 H 174.444 -2.95961 -0.348035 0
M  V30 1719 H 171.981 -1.46226 -0.160106 0
M  V30 1720 H 173.939 -3.06945 -2.82561 0
M  V30 1721 H 172.569 -1.95801 -2.56636 0
M  V30 1722 H 171.621 -3.69939 -0.885947 0
M  V30 1723 H 172.933 -4.79504 -1.37394 0
M  V30 1724 H 172.087 -4.78522 -3.72963 0
M  V30 1725 H 170.826 -3.59803 -3.29231 0
M  V30 1726 H 169.831 -5.23751 -1.67228 0
M  V30 1727 H 171.056 -6.44613 -2.13659 0
M  V30 1728 H 169.002 -5.19817 -4.00158 0
M  V30 1729 H 168.919 -6.79066 -3.32273 0
M  V30 1730 H 170.187 -6.40227 -4.44668 0
M  V30 1731 N 174.416 0.165178 -1.56732 0
M  V30 1732 C 175.644 0.896218 -1.86482 0
M  V30 1733 C 176.059 1.75555 -0.694675 0
M  V30 1734 O 175.416 1.79379 0.33607 0
M  V30 1735 C 175.467 1.76792 -3.1532 0
M  V30 1736 O 175.188 0.943239 -4.27825 0
M  V30 1737 C 176.689 2.6081 -3.58459 0
M  V30 1738 H 173.909 0.260064 -0.618553 0
M  V30 1739 H 176.453 0.163428 -2.03846 0
M  V30 1740 H 174.608 2.45398 -2.99764 0
M  V30 1741 H 175.022 1.53998 -5.01383 0
M  V30 1742 H 176.496 3.17579 -4.51495 0
M  V30 1743 H 176.973 3.35977 -2.82872 0
M  V30 1744 H 177.579 1.97526 -3.76648 0
M  V30 1745 N 175.894 1.51508 0.433938 0
M  V30 1746 C 177.171 1.54888 1.19453 0
M  V30 1747 C 177.551 0.315154 2.08734 0
M  V30 1748 O 176.899 -0.699558 2.17528 0
M  V30 1749 C 177.109 2.86467 1.99342 0
M  V30 1750 C 178.457 3.38545 2.56267 0
M  V30 1751 O 179.481 2.88041 2.0955 0
M  V30 1752 O 178.34 4.26675 3.41483 0
M  V30 1753 H 175.434 0.622863 0.544032 0
M  V30 1754 H 177.98 1.63823 0.442732 0
M  V30 1755 H 176.752 3.67718 1.33788 0
M  V30 1756 H 176.375 2.8071 2.8158 0
M  V30 1757 N 177.372 -0.689602 1.41712 0
M  V30 1758 C 178.602 -1.47613 1.44548 0
M  V30 1759 C 179.01 -1.89132 0.0509034 0
M  V30 1760 O 178.353 -1.57741 -0.94146 0
M  V30 1761 C 178.415 -2.76596 2.2964 0
M  V30 1762 C 178.079 -2.57245 3.77722 0
M  V30 1763 C 179.076 -2.22804 4.69739 0
M  V30 1764 C 176.761 -2.727 4.2183 0
M  V30 1765 C 178.755 -2.04064 6.03851 0
M  V30 1766 C 176.442 -2.53576 5.56006 0
M  V30 1767 C 177.44 -2.1931 6.46832 0
M  V30 1768 O 177.128 -2.00359 7.78532 0
M  V30 1769 H 176.86 -0.461227 0.494212 0
M  V30 1770 H 179.414 -0.856045 1.86711 0
M  V30 1771 H 177.644 -3.41033 1.82301 0
M  V30 1772 H 179.333 -3.38424 2.24107 0
M  V30 1773 H 180.099 -2.10473 4.36951 0
M  V30 1774 H 175.978 -2.98353 3.51435 0
M  V30 1775 H 179.522 -1.77241 6.74708 0
M  V30 1776 H 175.419 -2.65499 5.88371 0
M  V30 1777 H 176.187 -2.15075 7.89737 0
M  V30 1778 N 178.85 -1.27639 -0.924453 0
M  V30 1779 C 179.8 -1.07295 -2.01176 0
M  V30 1780 C 180.784 5.77352e-05 -1.609 0
M  V30 1781 O 181.976 -0.218855 -1.75642 0
M  V30 1782 C 179.105 -0.725592 -3.35544 0
M  V30 1783 C 178.191 -1.83691 -3.82254 0
M  V30 1784 N 178.582 -3.07697 -4.01443 0
M  V30 1785 C 176.88 -1.72433 -4.11319 0
M  V30 1786 C 177.581 -3.80037 -4.40394 0
M  V30 1787 N 176.557 -3.0782 -4.48049 0
M  V30 1788 H 180.359 -2.01399 -2.14046 0
M  V30 1789 H 177.873 -1.18401 -1.11153 0
M  V30 1790 H 179.87 -0.560959 -4.13109 0
M  V30 1791 H 178.53 0.207782 -3.24034 0
M  V30 1792 H 179.541 -3.43424 -3.8766 0
M  V30 1793 H 176.218 -0.862005 -4.08504 0
M  V30 1794 H 177.608 -4.86632 -4.63291 0
M  V30 1795 N 180.328 1.1314 -1.09713 0
M  V30 1796 C 181.558 1.88048 -0.855656 0
M  V30 1797 C 181.966 1.79537 0.596919 0
M  V30 1798 O 181.309 1.16196 1.42282 0
M  V30 1799 C 181.371 3.38314 -1.21589 0
M  V30 1800 C 181.035 3.70605 -2.67397 0
M  V30 1801 C 182.032 3.69596 -3.65643 0
M  V30 1802 C 179.717 4.0017 -3.03593 0
M  V30 1803 C 181.711 3.977 -4.9811 0
M  V30 1804 C 179.398 4.27935 -4.36251 0
M  V30 1805 C 180.396 4.26685 -5.33318 0
M  V30 1806 O 180.084 4.53767 -6.63589 0
M  V30 1807 H 179.816 0.60208 -0.307368 0
M  V30 1808 H 182.37 1.44128 -1.46343 0
M  V30 1809 H 180.6 3.82752 -0.551177 0
M  V30 1810 H 182.289 3.94552 -0.953083 0
M  V30 1811 H 183.055 3.46826 -3.39023 0
M  V30 1812 H 178.934 4.00289 -2.2867 0
M  V30 1813 H 182.478 3.9664 -5.73866 0
M  V30 1814 H 178.375 4.50178 -4.62613 0
M  V30 1815 H 179.143 4.71422 -6.69107 0
M  V30 1816 N 181.806 0.884767 1.30421 0
M  V30 1817 C 182.738 0.308655 2.27112 0
M  V30 1818 C 183.751 -0.536655 1.53701 0
M  V30 1819 O 184.94 -0.35624 1.74909 0
M  V30 1820 C 182.04 -0.579782 3.33904 0
M  V30 1821 C 181.213 0.236417 4.36761 0
M  V30 1822 C 180.272 -0.582482 5.22966 0
M  V30 1823 O 179.298 -0.00525502 5.692 0
M  V30 1824 N 180.5 -1.89163 5.48815 0
M  V30 1825 H 183.265 1.13964 2.77186 0
M  V30 1826 H 180.826 0.747731 1.43599 0
M  V30 1827 H 182.818 -1.13366 3.88497 0
M  V30 1828 H 181.388 -1.31144 2.83761 0
M  V30 1829 H 180.608 0.97174 3.82035 0
M  V30 1830 H 181.896 0.795924 5.02536 0
M  V30 1831 H 181.294 -2.38352 5.13035 0
M  V30 1832 H 179.851 -2.39296 6.06284 0
M  V30 1833 N 183.284 -1.43765 0.645699 0
M  V30 1834 C 184.214 -2.33471 -0.0370477 0
M  V30 1835 C 185.195 -1.49042 -0.819779 0
M  V30 1836 O 186.38 -1.77726 -0.782758 0
M  V30 1837 C 183.51 -3.32311 -1.0093 0
M  V30 1838 C 182.464 -4.2667 -0.337201 0
M  V30 1839 C 181.79 -5.1549 -1.42037 0
M  V30 1840 C 183.09 -5.16657 0.765706 0
M  V30 1841 H 184.784 -2.90809 0.712069 0
M  V30 1842 H 182.33 -1.39834 0.343876 0
M  V30 1843 H 184.283 -3.9396 -1.49578 0
M  V30 1844 H 183.007 -2.73213 -1.78948 0
M  V30 1845 H 181.666 -3.66374 0.128771 0
M  V30 1846 H 181.314 -4.52735 -2.1918 0
M  V30 1847 H 181.014 -5.79438 -0.975966 0
M  V30 1848 H 182.538 -5.80012 -1.90838 0
M  V30 1849 H 183.952 -5.72158 0.361702 0
M  V30 1850 H 182.349 -5.89286 1.13413 0
M  V30 1851 H 183.419 -4.56796 1.62683 0
M  V30 1852 N 184.763 -0.387143 -1.52771 0
M  V30 1853 C 185.673 0.456442 -2.30117 0
M  V30 1854 C 186.689 1.07342 -1.36944 0
M  V30 1855 O 187.865 1.07971 -1.70013 0
M  V30 1856 C 184.93 1.56957 -3.09136 0
M  V30 1857 C 183.991 0.977916 -4.18014 0
M  V30 1858 C 183.224 2.038 -4.93256 0
M  V30 1859 O 183.447 3.25271 -4.68567 0
M  V30 1860 O 182.381 1.6565 -5.78657 0
M  V30 1861 H 186.207 -0.17359 -3.03203 0
M  V30 1862 H 183.792 -0.150919 -1.48636 0
M  V30 1863 H 185.674 2.21628 -3.58412 0
M  V30 1864 H 184.349 2.18461 -2.38865 0
M  V30 1865 H 183.256 0.294525 -3.72939 0
M  V30 1866 H 184.589 0.407128 -4.90513 0
M  V30 1867 N 186.241 1.57166 -0.116904 0
M  V30 1868 C 187.174 2.10912 0.871291 0
M  V30 1869 C 188.152 1.025 1.26224 0
M  V30 1870 O 189.336 1.3014 1.36366 0
M  V30 1871 C 186.463 2.6041 2.16574 0
M  V30 1872 C 185.509 3.80687 1.92302 0
M  V30 1873 S 186.342 5.23199 1.14119 0
M  V30 1874 C 187.498 5.76064 2.44748 0
M  V30 1875 H 187.731 2.94401 0.414138 0
M  V30 1876 H 185.264 1.54096 0.096829 0
M  V30 1877 H 187.222 2.89583 2.9095 0
M  V30 1878 H 185.883 1.77106 2.59408 0
M  V30 1879 H 185.076 4.13462 2.8821 0
M  V30 1880 H 184.678 3.5212 1.26047 0
M  V30 1881 H 186.97 5.8566 3.406 0
M  V30 1882 H 187.913 6.74184 2.16521 0
M  V30 1883 H 188.321 5.04117 2.54019 0
M  V30 1884 N 187.719 -0.156864 1.56817 0
M  V30 1885 C 188.682 -1.17781 1.96622 0
M  V30 1886 C 189.682 -1.36401 0.851555 0
M  V30 1887 O 190.872 -1.33561 1.11836 0
M  V30 1888 C 188.004 -2.54008 2.27361 0
M  V30 1889 H 189.197 -0.836564 2.87996 0
M  V30 1890 H 186.75 -0.39985 1.51099 0
M  V30 1891 H 187.485 -2.9312 1.38748 0
M  V30 1892 H 187.27 -2.41856 3.08623 0
M  V30 1893 H 188.76 -3.27558 2.59029 0
M  V30 1894 N 189.197 -1.51736 -0.425897 0
M  V30 1895 C 190.144 -1.73875 -1.51776 0
M  V30 1896 C 191.114 -0.580702 -1.55618 0
M  V30 1897 O 192.299 -0.81641 -1.72451 0
M  V30 1898 C 189.439 -1.88012 -2.89388 0
M  V30 1899 C 188.552 -3.15606 -2.94986 0
M  V30 1900 C 187.687 -3.20271 -4.23793 0
M  V30 1901 C 186.726 -4.42134 -4.23302 0
M  V30 1902 N 185.863 -4.44284 -5.43651 0
M  V30 1903 H 190.703 -2.67071 -1.32201 0
M  V30 1904 H 188.24 -1.32351 -0.642008 0
M  V30 1905 H 190.198 -1.9419 -3.69251 0
M  V30 1906 H 188.828 -0.98213 -3.07496 0
M  V30 1907 H 187.88 -3.18681 -2.07717 0
M  V30 1908 H 189.192 -4.05486 -2.90486 0
M  V30 1909 H 188.346 -3.25428 -5.12036 0
M  V30 1910 H 187.085 -2.28299 -4.30965 0
M  V30 1911 H 186.09 -4.3714 -3.3345 0
M  V30 1912 H 187.315 -5.35382 -4.17783 0
M  V30 1913 H 185.261 -3.55188 -5.51523 0
M  V30 1914 H 185.178 -5.27988 -5.41078 0
M  V30 1915 H 186.446 -4.53649 -6.33895 0
M  V30 1916 N 190.675 0.682077 -1.42076 0
M  V30 1917 C 191.623 1.81707 -1.45208 0
M  V30 1918 C 192.617 1.66183 -0.328591 0
M  V30 1919 O 193.823 1.7288 -0.501264 0
M  V30 1920 H 190.198 0.599014 -0.454628 0
M  V30 1921 H 192.169 1.76183 -2.40836 0
M  V30 1922 C 190.918 3.19816 -1.36428 0
M  V30 1923 H 190.241 3.32385 -2.22171 0
M  V30 1924 H 191.681 3.99272 -1.42681 0
M  V30 1925 C 190.14 3.36809 -0.078191 0
M  V30 1926 O 190.67 3.92124 0.87188 0
M  V30 1927 N 188.876 2.906 0.00229266 0
M  V30 1928 H 188.423 2.45772 -0.771616 0
M  V30 1929 H 188.381 3.02347 0.862179 0
M  V30 1930 N 192.153 1.28127 0.917671 0
M  V30 1931 C 193.402 1.14432 1.66097 0
M  V30 1932 C 193.715 -0.307247 1.93172 0
M  V30 1933 O 194.921 -0.565259 2.65551 0
M  V30 1934 C 193.377 2.00015 2.99202 0
M  V30 1935 C 192.985 3.49889 2.79789 0
M  V30 1936 C 194.729 1.94996 3.77064 0
M  V30 1937 C 192.636 4.27636 4.08511 0
M  V30 1938 H 191.566 0.424662 0.62304 0
M  V30 1939 H 194.217 1.52628 1.01868 0
M  V30 1940 H 192.599 1.54672 3.64544 0
M  V30 1941 H 193.773 4.03162 2.23152 0
M  V30 1942 H 192.088 3.56392 2.15345 0
M  V30 1943 H 194.685 2.50354 4.72469 0
M  V30 1944 H 195.028 0.925819 4.05875 0
M  V30 1945 H 195.561 2.38287 3.18534 0
M  V30 1946 H 192.3 5.30615 3.84874 0
M  V30 1947 H 191.82 3.79137 4.64774 0
M  V30 1948 H 193.499 4.37346 4.76799 0
M  V30 1949 N 193.631 -1.12557 1.10312 0
M  V30 1950 C 194.859 -1.87864 0.866873 0
M  V30 1951 C 195.274 -1.79588 -0.582557 0
M  V30 1952 O 194.631 -1.16887 -1.40156 0
M  V30 1953 C 194.682 -3.37125 1.30496 0
M  V30 1954 O 194.403 -3.45201 2.69755 0
M  V30 1955 C 195.904 -4.29373 1.10243 0
M  V30 1956 H 193.124 -0.594452 0.311236 0
M  V30 1957 H 195.668 -1.42429 1.46745 0
M  V30 1958 H 193.823 -3.80109 0.748081 0
M  V30 1959 H 194.237 -4.38056 2.88457 0
M  V30 1960 H 195.711 -5.32394 1.45811 0
M  V30 1961 H 196.188 -4.39181 0.0409492 0
M  V30 1962 H 196.794 -3.92169 1.64571 0
M  V30 1963 N 195.109 -0.891671 -1.2995 0
M  V30 1964 C 196.072 -0.36828 -2.26222 0
M  V30 1965 C 197.072 0.493014 -1.53056 0
M  V30 1966 O 198.262 0.299213 -1.71611 0
M  V30 1967 C 195.394 0.47442 -3.37583 0
M  V30 1968 H 196.587 -1.21844 -2.74033 0
M  V30 1969 H 194.14 -0.669107 -1.41254 0
M  V30 1970 H 194.875 1.34489 -2.95099 0
M  V30 1971 H 194.66 -0.142615 -3.91841 0
M  V30 1972 H 196.15 0.83218 -4.09224 0
M  V30 1973 N 196.587 1.43421 -0.653314 0
M  V30 1974 C 197.55 2.29182 0.0287951 0
M  V30 1975 C 198.55 1.42213 0.750465 0
M  V30 1976 O 199.74 1.63843 0.591701 0
M  V30 1977 C 196.872 3.24278 1.05151 0
M  V30 1978 H 198.065 2.90985 -0.725786 0
M  V30 1979 H 195.618 1.50702 -0.414545 0
M  V30 1980 H 196.353 2.6737 1.83532 0
M  V30 1981 H 196.138 3.88396 0.537687 0
M  V30 1982 H 197.628 3.88647 1.52786 0
M  V30 1983 N 198.065 0.39524 1.52563 0
M  V30 1984 C 199.028 -0.425001 2.25225 0
M  V30 1985 C 200.028 -0.985266 1.27079 0
M  V30 1986 O 201.218 -0.866332 1.5113 0
M  V30 1987 C 198.35 -1.59686 3.01186 0
M  V30 1988 H 199.543 0.211233 2.99155 0
M  V30 1989 H 197.096 0.147472 1.55603 0
M  V30 1990 H 197.831 -2.27035 2.31572 0
M  V30 1991 H 197.616 -1.20176 3.73229 0
M  V30 1992 H 199.106 -2.17743 3.5634 0
M  V30 1993 N 199.544 -1.57102 0.125237 0
M  V30 1994 C 200.454 -2.19191 -0.8362 0
M  V30 1995 C 201.47 -1.16985 -1.28805 0
M  V30 1996 O 202.646 -1.49479 -1.34974 0
M  V30 1997 C 199.711 -2.78407 -2.06617 0
M  V30 1998 C 198.772 -3.9567 -1.66565 0
M  V30 1999 C 198.005 -4.52052 -2.83698 0
M  V30 2000 O 198.228 -4.07326 -3.99302 0
M  V30 2001 O 197.162 -5.42645 -2.60423 0
M  V30 2002 H 200.988 -3.01816 -0.337776 0
M  V30 2003 H 198.573 -1.4906 -0.100695 0
M  V30 2004 H 200.455 -3.16129 -2.7864 0
M  V30 2005 H 199.13 -1.9881 -2.55453 0
M  V30 2006 H 198.037 -3.62705 -0.916296 0
M  V30 2007 H 199.37 -4.76722 -1.22464 0
M  V30 2008 N 201.022 0.148545 -1.56898 0
M  V30 2009 C 201.985 1.16736 -1.97244 0
M  V30 2010 C 202.985 1.35947 -0.858777 0
M  V30 2011 O 204.175 1.32966 -1.12542 0
M  V30 2012 C 201.307 2.52798 -2.28705 0
M  V30 2013 H 202.5 0.821279 -2.88435 0
M  V30 2014 H 200.053 0.391831 -1.51309 0
M  V30 2015 H 200.788 2.92381 -1.403 0
M  V30 2016 H 200.573 2.40216 -3.09901 0
M  V30 2017 H 202.063 3.26179 -2.60762 0
M  V30 2018 N 202.5 1.5196 0.417844 0
M  V30 2019 C 203.749 1.6482 1.16264 0
M  V30 2020 C 204.062 0.379886 1.91876 0
M  V30 2021 O 205.268 0.388154 2.68711 0
M  V30 2022 C 203.724 2.91161 2.1155 0
M  V30 2023 C 203.332 4.25068 1.41495 0
M  V30 2024 C 205.076 3.13383 2.86341 0
M  V30 2025 C 202.983 5.42541 2.35379 0
M  V30 2026 H 201.913 0.613954 0.437694 0
M  V30 2027 H 204.564 1.78442 0.427871 0
M  V30 2028 H 202.946 2.71218 2.88543 0
M  V30 2029 H 204.12 4.55463 0.699263 0
M  V30 2030 H 202.435 4.0888 0.787792 0
M  V30 2031 H 205.032 3.98324 3.5671 0
M  V30 2032 H 205.375 2.27256 3.48798 0
M  V30 2033 H 205.908 3.33757 2.1645 0
M  V30 2034 H 202.647 6.30987 1.77582 0
M  V30 2035 H 202.167 5.16497 3.04945 0
M  V30 2036 H 203.846 5.75272 2.96093 0
M  V30 2037 N 203.978 -0.674533 1.42435 0
M  V30 2038 C 205.208 -1.46071 1.46105 0
M  V30 2039 C 205.616 -1.89067 0.0709605 0
M  V30 2040 O 204.959 -1.58731 -0.924677 0
M  V30 2041 C 205.021 -2.74145 2.32561 0
M  V30 2042 C 204.685 -2.53224 3.8043 0
M  V30 2043 C 205.682 -2.17809 4.72075 0
M  V30 2044 C 203.367 -2.6821 4.24698 0
M  V30 2045 C 205.361 -1.97648 6.05982 0
M  V30 2046 C 203.048 -2.47665 5.58664 0
M  V30 2047 C 204.046 -2.12437 6.49122 0
M  V30 2048 O 203.734 -1.9209 7.80613 0
M  V30 2049 H 203.466 -0.455959 0.499076 0
M  V30 2050 H 206.02 -0.836193 1.87609 0
M  V30 2051 H 204.25 -3.3908 1.85908 0
M  V30 2052 H 205.939 -3.36028 2.27683 0
M  V30 2053 H 206.705 -2.05826 4.39159 0
M  V30 2054 H 202.584 -2.94609 3.54579 0
M  V30 2055 H 206.128 -1.70075 6.7655 0
M  V30 2056 H 202.025 -2.59244 5.91154 0
M  V30 2057 H 202.793 -2.06686 7.91974 0
M  V30 2058 N 205.456 -1.28612 -0.910864 0
M  V30 2059 C 206.684 -1.18792 -1.69399 0
M  V30 2060 C 207.099 0.253039 -1.87097 0
M  V30 2061 O 206.456 1.17071 -1.40003 0
M  V30 2062 C 206.507 -1.88511 -3.08457 0
M  V30 2063 O 206.228 -3.26979 -2.91576 0
M  V30 2064 C 207.729 -1.85029 -4.02839 0
M  V30 2065 H 204.949 -0.412233 -0.529438 0
M  V30 2066 H 207.493 -1.69788 -1.13984 0
M  V30 2067 H 205.648 -1.41379 -3.60681 0
M  V30 2068 H 206.062 -3.61936 -3.79608 0
M  V30 2069 H 207.536 -2.38395 -4.97867 0
M  V30 2070 H 208.013 -0.823303 -4.31414 0
M  V30 2071 H 208.619 -2.31853 -3.56545 0
M  V30 2072 N 206.934 1.1197 -1.10907 0
M  V30 2073 C 208.345 1.65114 -0.871446 0
M  V30 2074 C 208.696 1.86885 0.597353 0
M  V30 2075 O 207.821 1.59896 1.45816 0
M  V30 2076 C 208.416 2.99944 -1.5754 0
M  V30 2077 C 206.975 3.50018 -1.38435 0
M  V30 2078 C 206.122 2.24941 -1.62164 0
M  V30 2079 H 209.073 0.956851 -1.2661 0
M  V30 2080 H 209.094 3.66651 -1.01721 0
M  V30 2081 H 208.606 2.84067 -2.64438 0
M  V30 2082 H 206.707 3.71071 -0.337214 0
M  V30 2083 H 206.82 4.29165 -2.12965 0
M  V30 2084 H 205.184 2.3229 -1.04467 0
M  V30 2085 H 205.967 2.11612 -2.70324 0
M  V30 2086 N 208.412 0.89855 1.29475 0
M  V30 2087 C 209.322 0.379974 2.31502 0
M  V30 2088 C 210.338 -0.524695 1.659 0
M  V30 2089 O 211.514 -0.414551 1.97087 0
M  V30 2090 C 208.579 -0.385138 3.44554 0
M  V30 2091 C 207.64 0.550914 4.2575 0
M  V30 2092 C 206.873 -0.177778 5.33404 0
M  V30 2093 O 207.096 -1.40189 5.52904 0
M  V30 2094 O 206.03 0.479106 5.9999 0
M  V30 2095 H 209.856 1.22639 2.77837 0
M  V30 2096 H 207.441 0.662834 1.33891 0
M  V30 2097 H 209.323 -0.817841 4.13388 0
M  V30 2098 H 207.998 -1.20763 3.0033 0
M  V30 2099 H 206.905 1.03271 3.59564 0
M  V30 2100 H 208.238 1.33979 4.73614 0
M  V30 2101 N 209.89 -1.43072 0.660911 0
M  V30 2102 C 210.8 -2.34585 -0.0264163 0
M  V30 2103 C 211.816 -1.54316 -0.803898 0
M  V30 2104 O 212.992 -1.86939 -0.749391 0
M  V30 2105 C 210.057 -3.32689 -0.975639 0
M  V30 2106 C 209.118 -4.2886 -0.194236 0
M  V30 2107 C 208.351 -5.22278 -1.09825 0
M  V30 2108 O 208.574 -5.20299 -2.33763 0
M  V30 2109 O 207.508 -5.99228 -0.566513 0
M  V30 2110 H 211.334 -2.94869 0.727034 0
M  V30 2111 H 208.919 -1.43342 0.42111 0
M  V30 2112 H 210.801 -3.92995 -1.52094 0
M  V30 2113 H 209.476 -2.74898 -1.70918 0
M  V30 2114 H 208.383 -3.72011 0.394835 0
M  V30 2115 H 209.716 -4.89655 0.499899 0
M  V30 2116 N 211.368 -0.403325 -1.52352 0
M  V30 2117 C 212.331 0.413051 -2.25447 0
M  V30 2118 C 213.331 0.978513 -1.276 0
M  V30 2119 O 214.521 0.858305 -1.51587 0
M  V30 2120 C 211.653 1.58087 -3.02029 0
M  V30 2121 H 212.846 -0.227094 -2.99039 0
M  V30 2122 H 210.399 -0.155722 -1.55522 0
M  V30 2123 H 211.134 2.25804 -2.32772 0
M  V30 2124 H 210.919 1.18195 -3.73861 0
M  V30 2125 H 212.409 2.1585 -3.57489 0
M  V30 2126 N 212.846 1.57033 -0.133567 0
M  V30 2127 C 214.257 1.82593 0.389464 0
M  V30 2128 C 214.608 1.05156 1.6564 0
M  V30 2129 O 213.733 0.292644 2.14412 0
M  V30 2130 C 214.328 3.31204 0.713377 0
M  V30 2131 C 212.887 3.57393 1.18098 0
M  V30 2132 C 212.034 2.76598 0.197126 0
M  V30 2133 H 214.985 1.54598 -0.358481 0
M  V30 2134 H 215.006 3.46627 1.56939 0
M  V30 2135 H 214.518 3.87537 -0.2089 0
M  V30 2136 H 212.619 3.06433 2.11966 0
M  V30 2137 H 212.732 4.65915 1.11624 0
M  V30 2138 H 211.096 2.45257 0.687088 0
M  V30 2139 H 211.879 3.35697 -0.718504 0
M  V30 2140 N 214.325 -0.140222 1.56975 0
M  V30 2141 C 215.288 -1.15689 1.97861 0
M  V30 2142 C 216.288 -1.3549 0.865974 0
M  V30 2143 O 217.478 -1.32367 1.13246 0
M  V30 2144 C 214.61 -2.51582 2.30042 0
M  V30 2145 H 215.803 -0.805971 2.88867 0
M  V30 2146 H 213.356 -0.383801 1.51515 0
M  V30 2147 H 214.091 -2.91632 1.41849 0
M  V30 2148 H 213.876 -2.38569 3.11171 0
M  V30 2149 H 215.366 -3.24792 2.62488 0
M  V30 2150 N 215.803 -1.52179 -0.40978 0
M  V30 2151 C 216.75 -1.75475 -1.49924 0
M  V30 2152 C 217.72 -0.597175 -1.54994 0
M  V30 2153 O 218.905 -0.834655 -1.71575 0
M  V30 2154 C 216.045 -1.9107 -2.87378 0
M  V30 2155 C 215.158 -3.18717 -2.91622 0
M  V30 2156 C 214.293 -3.24747 -4.20372 0
M  V30 2157 C 213.332 -4.46598 -4.18588 0
M  V30 2158 N 212.469 -4.50025 -5.38908 0
M  V30 2159 H 217.309 -2.68458 -1.29361 0
M  V30 2160 H 214.846 -1.33024 -0.627934 0
M  V30 2161 H 216.804 -1.98096 -3.6717 0
M  V30 2162 H 215.434 -1.01469 -3.06437 0
M  V30 2163 H 214.486 -3.20866 -2.04326 0
M  V30 2164 H 215.798 -4.08544 -2.86169 0
M  V30 2165 H 214.952 -3.30841 -5.08556 0
M  V30 2166 H 213.691 -2.32857 -4.28519 0
M  V30 2167 H 212.696 -4.40652 -3.28794 0
M  V30 2168 H 213.921 -5.39783 -4.12081 0
M  V30 2169 H 211.867 -3.61017 -5.47725 0
M  V30 2170 H 211.784 -5.33697 -5.35447 0
M  V30 2171 H 213.052 -4.60347 -6.29048 0
M  V30 2172 N 217.281 0.66697 -1.42791 0
M  V30 2173 C 218.53 1.42278 -1.42968 0
M  V30 2174 C 218.843 1.9553 -0.0524489 0
M  V30 2175 O 220.049 2.71414 0.068363 0
M  V30 2176 C 218.505 2.57418 -2.51524 0
M  V30 2177 C 218.113 2.10832 -3.9529 0
M  V30 2178 C 219.857 3.34878 -2.60877 0
M  V30 2179 C 217.764 3.23101 -4.95338 0
M  V30 2180 H 216.694 0.534533 -0.531781 0
M  V30 2181 H 219.345 0.721302 -1.68729 0
M  V30 2182 H 217.727 3.29971 -2.18941 0
M  V30 2183 H 218.901 1.4538 -4.37266 0
M  V30 2184 H 217.216 1.46289 -3.89857 0
M  V30 2185 H 219.813 4.18505 -3.32802 0
M  V30 2186 H 220.156 3.81993 -1.6549 0
M  V30 2187 H 220.689 2.69398 -2.92693 0
M  V30 2188 H 217.428 2.80969 -5.9223 0
M  V30 2189 H 216.948 3.87309 -4.57987 0
M  V30 2190 H 218.627 3.88447 -5.17415 0
M  V30 2191 N 218.759 1.29093 0.90403 0
M  V30 2192 C 220.036 1.075 1.63411 0
M  V30 2193 C 220.416 -0.382346 2.07609 0
M  V30 2194 O 219.764 -1.37031 1.82851 0
M  V30 2195 C 219.974 2.05858 2.81822 0
M  V30 2196 C 221.322 2.36539 3.52611 0
M  V30 2197 O 222.346 2.04019 2.91984 0
M  V30 2198 O 221.205 2.92085 4.61897 0
M  V30 2199 H 218.299 0.411547 0.717327 0
M  V30 2200 H 220.845 1.40449 0.952479 0
M  V30 2201 H 219.617 3.04037 2.46327 0
M  V30 2202 H 219.24 1.73613 3.57693 0
M  V30 2203 N 220.237 -1.11381 1.11499 0
M  V30 2204 C 221.187 -2.15555 0.74298 0
M  V30 2205 C 222.171 -1.58894 -0.253276 0
M  V30 2206 O 223.363 -1.76897 -0.0602918 0
M  V30 2207 C 220.492 -3.42782 0.188481 0
M  V30 2208 C 219.578 -4.064 1.21244 0
M  V30 2209 N 219.969 -4.44864 2.40685 0
M  V30 2210 C 218.267 -4.3333 1.05552 0
M  V30 2211 C 218.968 -4.94715 3.05994 0
M  V30 2212 N 217.944 -4.90909 2.33472 0
M  V30 2213 H 221.746 -2.43074 1.65203 0
M  V30 2214 H 219.26 -1.28401 0.994329 0
M  V30 2215 H 221.257 -4.16789 -0.0961693 0
M  V30 2216 H 219.917 -3.16727 -0.715149 0
M  V30 2217 H 220.928 -4.36876 2.78136 0
M  V30 2218 H 217.605 -4.1698 0.208372 0
M  V30 2219 H 218.995 -5.34103 4.07656 0
M  V30 2220 N 221.715 -0.905404 -1.28997 0
M  V30 2221 C 222.961 -0.535039 -1.95615 0
M  V30 2222 C 223.294 0.917404 -1.71165 0
M  V30 2223 O 222.569 1.65123 -1.02785 0
M  V30 2224 C 222.852 -0.834918 -3.50287 0
M  V30 2225 C 222.705 -2.33948 -3.84172 0
M  V30 2226 C 224.024 -0.325318 -4.38896 0
M  V30 2227 H 221.143 -0.195861 -0.710498 0
M  V30 2228 H 223.785 -1.13313 -1.52513 0
M  V30 2229 H 221.935 -0.325904 -3.87131 0
M  V30 2230 H 223.607 -2.91847 -3.57243 0
M  V30 2231 H 221.85 -2.79789 -3.31513 0
M  V30 2232 H 222.521 -2.49987 -4.92149 0
M  V30 2233 H 224.997 -0.761256 -4.09077 0
M  V30 2234 H 223.873 -0.564295 -5.45992 0
M  V30 2235 H 224.134 0.774144 -4.35269 0
M  V30 2236 N 223.193 1.4272 -0.668489 0
M  V30 2237 C 224.442 2.00846 -0.185389 0
M  V30 2238 C 224.755 1.53442 1.21305 0
M  V30 2239 O 225.961 2.03944 1.79218 0
M  V30 2240 C 224.417 3.58805 -0.280591 0
M  V30 2241 C 224.025 4.15198 -1.68268 0
M  V30 2242 C 225.769 4.24255 0.14412 0
M  V30 2243 C 223.676 5.655 -1.73099 0
M  V30 2244 H 222.606 0.751145 -0.0655475 0
M  V30 2245 H 225.257 1.63516 -0.832752 0
M  V30 2246 H 223.639 3.93608 0.434553 0
M  V30 2247 H 224.813 3.91866 -2.42441 0
M  V30 2248 H 223.128 3.62176 -2.05469 0
M  V30 2249 H 225.725 5.34547 0.128086 0
M  V30 2250 H 226.068 3.99277 1.17827 0
M  V30 2251 H 226.601 3.94389 -0.519798 0
M  V30 2252 H 223.34 5.95268 -2.74475 0
M  V30 2253 H 222.86 5.90842 -1.03274 0
M  V30 2254 H 224.539 6.29808 -1.48158 0
M  V30 2255 N 224.671 0.411399 1.52136 0
M  V30 2256 C 225.618 -0.412975 2.27075 0
M  V30 2257 C 226.588 -1.03912 1.29582 0
M  V30 2258 O 227.773 -1.06296 1.58448 0
M  V30 2259 C 224.913 -1.52247 3.09701 0
M  V30 2260 C 224.026 -0.917021 4.22155 0
M  V30 2261 C 223.161 -1.9994 4.92135 0
M  V30 2262 C 222.2 -1.37101 5.96548 0
M  V30 2263 N 221.337 -2.39364 6.60038 0
M  V30 2264 H 226.177 0.232499 2.97092 0
M  V30 2265 H 223.714 0.126496 1.46555 0
M  V30 2266 H 225.672 -2.17674 3.55913 0
M  V30 2267 H 224.302 -2.13794 2.41851 0
M  V30 2268 H 223.354 -0.151742 3.80097 0
M  V30 2269 H 224.666 -0.418006 4.97045 0
M  V30 2270 H 223.82 -2.73088 5.41763 0
M  V30 2271 H 222.559 -2.53208 4.16818 0
M  V30 2272 H 221.564 -0.624873 5.46237 0
M  V30 2273 H 222.789 -0.845998 6.7381 0
M  V30 2274 H 220.735 -2.91759 5.87548 0
M  V30 2275 H 220.652 -1.9428 7.3061 0
M  V30 2276 H 221.92 -3.12074 7.14304 0
M  V30 2277 N 226.149 -1.5696 0.141893 0
M  V30 2278 C 227.377 -2.00322 -0.517579 0
M  V30 2279 C 227.792 -1.02193 -1.58752 0
M  V30 2280 O 227.149 -0.0181619 -1.82491 0
M  V30 2281 C 227.2 -3.43618 -1.12289 0
M  V30 2282 O 226.921 -4.37995 -0.0956929 0
M  V30 2283 C 228.422 -4.02231 -1.86347 0
M  V30 2284 H 225.642 -0.657243 -0.135177 0
M  V30 2285 H 228.186 -2.03146 0.234973 0
M  V30 2286 H 226.341 -3.41662 -1.82609 0
M  V30 2287 H 226.755 -5.21729 -0.538469 0
M  V30 2288 H 228.229 -5.04509 -2.23997 0
M  V30 2289 H 228.706 -3.42655 -2.74744 0
M  V30 2290 H 229.312 -4.07802 -1.20737 0
M  V30 2291 N 227.627 0.131896 -1.57047 0
M  V30 2292 C 228.59 1.14638 -1.98471 0
M  V30 2293 C 229.59 1.35029 -0.873148 0
M  V30 2294 O 230.78 1.31764 -1.13946 0
M  V30 2295 C 227.912 2.50358 -2.31373 0
M  V30 2296 H 229.105 0.79064 -2.8929 0
M  V30 2297 H 226.658 0.375761 -1.51716 0
M  V30 2298 H 227.393 2.90876 -1.43393 0
M  V30 2299 H 227.178 2.36915 -3.12432 0
M  V30 2300 H 228.668 3.23395 -2.64207 0
M  V30 2301 N 229.106 1.52395 0.401703 0
M  V30 2302 C 230.036 1.79231 1.49661 0
M  V30 2303 C 231.017 0.643654 1.57452 0
M  V30 2304 O 232.202 0.889989 1.72606 0
M  V30 2305 C 229.332 1.94971 2.87409 0
M  V30 2306 C 228.286 3.10604 2.94465 0
M  V30 2307 C 227.612 3.11577 4.34538 0
M  V30 2308 C 228.912 4.49921 2.6527 0
M  V30 2309 H 230.606 2.70917 1.27454 0
M  V30 2310 H 228.152 1.30362 0.6117 0
M  V30 2311 H 230.105 2.12328 3.63999 0
M  V30 2312 H 228.829 0.999632 3.10926 0
M  V30 2313 H 227.488 2.93009 2.20321 0
M  V30 2314 H 227.136 2.14277 4.55076 0
M  V30 2315 H 226.836 3.89247 4.40183 0
M  V30 2316 H 228.36 3.31073 5.13053 0
M  V30 2317 H 229.774 4.67683 3.31581 0
M  V30 2318 H 228.171 5.29564 2.82281 0
M  V30 2319 H 229.241 4.57507 1.60671 0
M  V30 2320 N 230.584 -0.659388 1.43143 0
M  V30 2321 C 232 -0.974337 1.26407 0
M  V30 2322 C 232.2 -2.007 0.179341 0
M  V30 2323 O 231.256 -2.4856 -0.444295 0
M  V30 2324 C 232.569 -1.46447 2.62628 0
M  V30 2325 C 234.117 -1.58144 2.7011 0
M  V30 2326 C 234.592 -2.1055 4.06734 0
M  V30 2327 N 236.083 -2.17861 4.08767 0
M  V30 2328 C 236.818 -2.59519 5.1131 0
M  V30 2329 N 236.314 -3.00518 6.24228 0
M  V30 2330 N 238.107 -2.59404 4.98664 0
M  V30 2331 H 230.258 0.0240528 2.12386 0
M  V30 2332 H 232.521 -0.0518065 0.946583 0
M  V30 2333 H 232.227 -0.780123 3.42939 0
M  V30 2334 H 232.101 -2.44058 2.87603 0
M  V30 2335 H 234.488 -2.25682 1.90136 0
M  V30 2336 H 234.569 -0.589828 2.48907 0
M  V30 2337 H 234.213 -1.43616 4.87172 0
M  V30 2338 H 234.143 -3.10531 4.25298 0
M  V30 2339 H 236.634 -1.88975 3.27257 0
M  V30 2340 H 236.947 -3.31036 6.98309 0
M  V30 2341 H 235.292 -2.98337 6.2771 0
M  V30 2342 H 238.483 -2.26747 4.09516 0
M  V30 2343 H 238.656 -2.91548 5.78709 0
M  V30 2344 N 232.062 -1.29571 -0.897171 0
M  V30 2345 C 232.972 -1.16808 -2.03453 0
M  V30 2346 C 233.988 -0.0907471 -1.73763 0
M  V30 2347 O 235.164 -0.303312 -1.99103 0
M  V30 2348 C 232.229 -0.848264 -3.36163 0
M  V30 2349 C 231.29 -2.0097 -3.79354 0
M  V30 2350 C 230.523 -1.70505 -5.05731 0
M  V30 2351 O 230.746 -0.62718 -5.66941 0
M  V30 2352 O 229.68 -2.5538 -5.45036 0
M  V30 2353 H 233.506 -2.12325 -2.17144 0
M  V30 2354 H 231.091 -1.09047 -1.02123 0
M  V30 2355 H 232.973 -0.684581 -4.15802 0
M  V30 2356 H 231.648 0.0771071 -3.23608 0
M  V30 2357 H 230.555 -2.22863 -3.00471 0
M  V30 2358 H 231.888 -2.91636 -3.96496 0
M  V30 2359 N 233.54 1.10788 -1.12088 0
M  V30 2360 C 234.487 2.17025 -0.785407 0
M  V30 2361 C 235.457 1.64265 0.246191 0
M  V30 2362 O 236.642 1.90412 0.121584 0
M  V30 2363 C 233.782 3.44249 -0.242177 0
M  V30 2364 C 232.895 4.1098 -1.33115 0
M  V30 2365 C 232.03 5.25911 -0.747741 0
M  V30 2366 C 231.069 5.84538 -1.81609 0
M  V30 2367 N 230.206 6.90853 -1.25167 0
M  V30 2368 H 235.046 2.45066 -1.69548 0
M  V30 2369 H 232.583 1.20297 -0.846582 0
M  V30 2370 H 234.541 4.17101 0.0908026 0
M  V30 2371 H 233.171 3.16571 0.631072 0
M  V30 2372 H 232.223 3.36133 -1.78097 0
M  V30 2373 H 233.535 4.50601 -2.13917 0
M  V30 2374 H 232.689 6.056 -0.365216 0
M  V30 2375 H 231.428 4.87614 0.0915188 0
M  V30 2376 H 230.433 5.03522 -2.20785 0
M  V30 2377 H 231.658 6.249 -2.6585 0
M  V30 2378 H 229.604 6.54562 -0.434174 0
M  V30 2379 H 229.521 7.29166 -1.99633 0
M  V30 2380 H 230.789 7.7433 -0.896259 0
M  V30 2381 N 235.018 0.912232 1.28515 0
M  V30 2382 C 235.965 0.397954 2.27343 0
M  V30 2383 C 236.935 -0.526766 1.57526 0
M  V30 2384 O 238.12 -0.449292 1.85435 0
M  V30 2385 C 235.26 -0.357263 3.43246 0
M  V30 2386 C 234.373 0.599788 4.27816 0
M  V30 2387 C 233.508 -0.173725 5.30916 0
M  V30 2388 C 232.547 0.777039 6.07148 0
M  V30 2389 N 231.684 0.0371398 7.0209 0
M  V30 2390 H 236.524 1.24577 2.70711 0
M  V30 2391 H 234.061 0.625612 1.33133 0
M  V30 2392 H 236.019 -0.8113 4.09236 0
M  V30 2393 H 234.649 -1.16943 3.00872 0
M  V30 2394 H 233.701 1.17235 3.61884 0
M  V30 2395 H 235.013 1.32704 4.80823 0
M  V30 2396 H 234.167 -0.688394 6.02782 0
M  V30 2397 H 232.906 -0.934041 4.78672 0
M  V30 2398 H 231.911 1.3031 5.34134 0
M  V30 2399 H 233.136 1.53689 6.61481 0
M  V30 2400 H 231.082 -0.705213 6.52198 0
M  V30 2401 H 230.999 0.704249 7.52713 0
M  V30 2402 H 232.267 -0.457383 7.78157 0
M  V30 2403 N 236.496 -1.42363 0.676048 0
M  V30 2404 C 237.907 -1.84649 0.275948 0
M  V30 2405 C 238.258 -1.56588 -1.18214 0
M  V30 2406 O 237.383 -1.02634 -1.90513 0
M  V30 2407 C 237.978 -3.35178 0.494053 0
M  V30 2408 C 236.537 -3.76109 0.148061 0
M  V30 2409 C 235.684 -2.65931 0.785891 0
M  V30 2410 H 238.635 -1.32192 0.878121 0
M  V30 2411 H 238.656 -3.79655 -0.25343 0
M  V30 2412 H 238.168 -3.55571 1.55535 0
M  V30 2413 H 236.269 -3.61323 -0.909742 0
M  V30 2414 H 236.382 -4.7546 0.589454 0
M  V30 2415 H 234.746 -2.53773 0.217113 0
M  V30 2416 H 235.529 -2.89146 1.85067 0
M  V30 2417 N 237.974 -0.419461 -1.51915 0
M  V30 2418 C 239.22 0.153166 -2.02221 0
M  V30 2419 C 239.553 1.43907 -1.30401 0
M  V30 2420 O 238.828 1.90055 -0.413438 0
M  V30 2421 C 239.111 0.390291 -3.57979 0
M  V30 2422 C 238.964 -0.913014 -4.40436 0
M  V30 2423 C 240.283 1.16794 -4.2432 0
M  V30 2424 H 237.402 0.0541924 -0.735005 0
M  V30 2425 H 240.044 -0.554955 -1.81715 0
M  V30 2426 H 238.194 0.993491 -3.75582 0
M  V30 2427 H 239.866 -1.54882 -4.34522 0
M  V30 2428 H 238.109 -1.52168 -4.06236 0
M  V30 2429 H 238.78 -0.701361 -5.47526 0
M  V30 2430 H 241.256 0.657161 -4.10878 0
M  V30 2431 H 240.132 1.3026 -5.3322 0
M  V30 2432 H 240.393 2.19132 -3.83971 0
M  V30 2433 N 239.452 1.56882 -0.150215 0
M  V30 2434 C 240.682 2.00302 0.506213 0
M  V30 2435 C 241.09 1.02934 1.58749 0
M  V30 2436 O 240.433 0.0188384 1.8369 0
M  V30 2437 C 240.495 3.40156 1.16337 0
M  V30 2438 C 240.159 4.56439 0.226311 0
M  V30 2439 C 241.156 5.17012 -0.547265 0
M  V30 2440 C 238.841 5.02136 0.128279 0
M  V30 2441 C 240.835 6.21693 -1.40629 0
M  V30 2442 C 238.522 6.06672 -0.734345 0
M  V30 2443 C 239.52 6.6632 -1.50023 0
M  V30 2444 O 239.208 7.68831 -2.34848 0
M  V30 2445 H 238.94 0.662182 0.135984 0
M  V30 2446 H 241.494 2.03961 -0.242746 0
M  V30 2447 H 239.724 3.33346 1.96004 0
M  V30 2448 H 241.413 3.67663 1.71985 0
M  V30 2449 H 242.179 4.82603 -0.48158 0
M  V30 2450 H 238.058 4.55435 0.714157 0
M  V30 2451 H 241.602 6.68179 -2.00455 0
M  V30 2452 H 237.499 6.40507 -0.801309 0
M  V30 2453 H 238.267 7.86065 -2.28131 0
M  V30 2454 N 240.93 -0.123565 1.57115 0
M  V30 2455 C 241.86 -1.15309 2.03042 0
M  V30 2456 C 242.841 -1.43454 0.914061 0
M  V30 2457 O 244.026 -1.53973 1.18347 0
M  V30 2458 C 241.156 -2.48043 2.43089 0
M  V30 2459 C 240.11 -2.3437 3.58127 0
M  V30 2460 C 239.436 -3.72026 3.84059 0
M  V30 2461 C 240.736 -1.80804 4.90007 0
M  V30 2462 H 242.43 -0.771102 2.893 0
M  V30 2463 H 239.976 -0.369479 1.39179 0
M  V30 2464 H 241.929 -3.20311 2.73823 0
M  V30 2465 H 240.653 -2.88122 1.53796 0
M  V30 2466 H 239.312 -1.64551 3.27595 0
M  V30 2467 H 238.96 -4.09582 2.91979 0
M  V30 2468 H 238.66 -3.63732 4.6149 0
M  V30 2469 H 240.184 -4.45806 4.1724 0
M  V30 2470 H 241.598 -2.42886 5.19307 0
M  V30 2471 H 239.995 -1.83343 5.71407 0
M  V30 2472 H 241.065 -0.76528 4.78823 0
M  V30 2473 N 242.408 -1.52605 -0.393616 0
M  V30 2474 C 243.318 -1.79971 -1.50492 0
M  V30 2475 C 244.334 -0.686181 -1.59899 0
M  V30 2476 O 245.51 -0.973274 -1.76322 0
M  V30 2477 C 242.575 -1.95867 -2.86072 0
M  V30 2478 C 241.636 -3.19781 -2.86424 0
M  V30 2479 C 240.869 -3.34909 -4.15538 0
M  V30 2480 O 241.092 -2.54948 -5.10253 0
M  V30 2481 O 240.026 -4.28141 -4.23059 0
M  V30 2482 H 243.852 -2.74328 -1.30299 0
M  V30 2483 H 241.437 -1.3764 -0.581005 0
M  V30 2484 H 243.319 -2.08056 -3.66457 0
M  V30 2485 H 241.994 -1.04699 -3.063 0
M  V30 2486 H 240.901 -3.13038 -2.04837 0
M  V30 2487 H 242.234 -4.1078 -2.71147 0
M  V30 2488 N 243.887 0.651787 -1.4349 0
M  V30 2489 C 245.136 1.40754 -1.44469 0
M  V30 2490 C 245.449 1.95463 -0.0731845 0
M  V30 2491 O 246.655 2.71471 0.0395721 0
M  V30 2492 C 245.111 2.54735 -2.5424 0
M  V30 2493 C 244.719 2.06628 -3.97504 0
M  V30 2494 C 246.463 3.32092 -2.64414 0
M  V30 2495 C 244.37 3.17829 -4.98737 0
M  V30 2496 H 243.3 0.528862 -0.53742 0
M  V30 2497 H 245.951 0.703365 -1.69485 0
M  V30 2498 H 244.333 3.2763 -2.22428 0
M  V30 2499 H 245.507 1.40734 -4.38783 0
M  V30 2500 H 243.822 1.42146 -3.91387 0
M  V30 2501 H 246.419 4.14952 -3.37223 0
M  V30 2502 H 246.762 3.80217 -1.69532 0
M  V30 2503 H 247.295 2.66279 -2.95534 0
M  V30 2504 H 244.034 2.74671 -5.95177 0
M  V30 2505 H 243.554 3.82429 -4.62069 0
M  V30 2506 H 245.233 3.82937 -5.21505 0
M  V30 2507 N 245.365 1.30045 0.890287 0
M  V30 2508 C 246.328 1.15963 1.977 0
M  V30 2509 C 247.328 0.0923777 1.60534 0
M  V30 2510 O 248.518 0.340071 1.70848 0
M  V30 2511 C 245.65 0.775451 3.31963 0
M  V30 2512 H 246.843 2.12502 2.11619 0
M  V30 2513 H 244.396 1.13366 1.07601 0
M  V30 2514 H 245.131 -0.189671 3.23745 0
M  V30 2515 H 244.916 1.54668 3.60306 0
M  V30 2516 H 246.406 0.700251 4.11687 0
M  V30 2517 N 246.843 -1.10192 1.12674 0
M  V30 2518 C 248.083 -1.83825 0.893736 0
M  V30 2519 C 248.447 -1.83341 -0.570082 0
M  V30 2520 O 249.648 -2.52553 -0.920354 0
M  V30 2521 C 247.919 -3.26405 1.45582 0
M  V30 2522 S 249.478 -4.17136 1.36171 0
M  V30 2523 H 246.296 -0.633732 0.322342 0
M  V30 2524 H 248.898 -1.32581 1.43675 0
M  V30 2525 H 247.602 -3.24329 2.51473 0
M  V30 2526 H 247.133 -3.82721 0.910405 0
M  V30 2527 H 249.148 -4.95069 0.334863 0
M  V30 2528 N 248.321 -0.919034 -1.28029 0
M  V30 2529 C 249.269 -0.401753 -2.29104 0
M  V30 2530 C 250.263 0.509354 -1.61561 0
M  V30 2531 O 251.469 0.390014 -1.75724 0
M  V30 2532 H 247.844 -0.111331 -0.743713 0
M  V30 2533 H 249.815 -1.2672 -2.70156 0
M  V30 2534 C 248.564 0.338148 -3.46052 0
M  V30 2535 H 247.887 -0.353732 -3.98232 0
M  V30 2536 H 249.327 0.664653 -4.18758 0
M  V30 2537 C 247.786 1.54798 -2.99231 0
M  V30 2538 O 248.316 2.64696 -3.02157 0
M  V30 2539 N 246.522 1.3968 -2.54829 0
M  V30 2540 H 246.069 0.502698 -2.52647 0
M  V30 2541 H 246.027 2.20755 -2.23863 0
M  V30 2542 N 249.799 1.42003 -0.683588 0
M  V30 2543 C 251.048 2.00638 -0.206681 0
M  V30 2544 C 251.361 1.5472 1.19671 0
M  V30 2545 O 252.567 2.05833 1.77045 0
M  V30 2546 C 251.023 3.58487 -0.318632 0
M  V30 2547 C 250.631 4.1339 -1.72663 0
M  V30 2548 C 252.375 4.24384 0.0991141 0
M  V30 2549 C 250.282 5.63633 -1.79087 0
M  V30 2550 H 249.212 0.750408 -0.0735107 0
M  V30 2551 H 251.863 1.62624 -0.850048 0
M  V30 2552 H 250.245 3.94047 0.392781 0
M  V30 2553 H 251.419 3.89273 -2.46583 0
M  V30 2554 H 249.734 3.59976 -2.09299 0
M  V30 2555 H 252.331 5.34652 0.0713833 0
M  V30 2556 H 252.674 4.00505 1.13586 0
M  V30 2557 H 253.207 3.93816 -0.561599 0
M  V30 2558 H 249.946 5.92323 -2.80774 0
M  V30 2559 H 249.466 5.89714 -1.09535 0
M  V30 2560 H 251.145 6.28201 -1.5483 0
M  V30 2561 N 251.277 0.427512 1.51691 0
M  V30 2562 C 252.24 -0.377132 2.26076 0
M  V30 2563 C 253.24 -0.958089 1.29141 0
M  V30 2564 O 254.43 -0.83408 1.52934 0
M  V30 2565 C 251.562 -1.53262 3.04506 0
M  V30 2566 H 252.755 0.27464 2.9864 0
M  V30 2567 H 250.308 0.180445 1.55255 0
M  V30 2568 H 251.043 -2.22072 2.36335 0
M  V30 2569 H 250.828 -1.12232 3.75694 0
M  V30 2570 H 252.318 -2.10135 3.60878 0
M  V30 2571 N 252.755 -1.56801 0.158532 0
M  V30 2572 C 253.98 -2.01295 -0.499516 0
M  V30 2573 C 254.405 -1.03799 -1.56867 0
M  V30 2574 O 253.763 -0.0155162 -1.81293 0
M  V30 2575 C 253.811 -3.44469 -1.06647 0
M  V30 2576 O 252.915 -3.50012 -2.18095 0
M  V30 2577 H 252.256 -0.652884 -0.12099 0
M  V30 2578 H 254.786 -2.02958 0.258661 0
M  V30 2579 H 254.796 -3.8351 -1.39227 0
M  V30 2580 H 253.471 -4.14932 -0.283581 0
M  V30 2581 H 252.048 -3.22822 -1.86656 0
M  V30 2582 N 254.233 0.115231 -1.57178 0
M  V30 2583 C 255.166 1.17166 -1.95825 0
M  V30 2584 C 256.144 1.39912 -0.828463 0
M  V30 2585 O 257.328 1.54004 -1.08697 0
M  V30 2586 C 254.455 2.52478 -2.25771 0
M  V30 2587 C 253.501 2.46136 -3.48309 0
M  V30 2588 S 254.334 1.89736 -5.0076 0
M  V30 2589 C 255.49 3.26713 -5.33863 0
M  V30 2590 H 255.723 0.842103 -2.85124 0
M  V30 2591 H 253.256 0.322136 -1.51002 0
M  V30 2592 H 255.214 3.30332 -2.43702 0
M  V30 2593 H 253.875 2.82609 -1.37079 0
M  V30 2594 H 253.068 3.45819 -3.66641 0
M  V30 2595 H 252.67 1.76404 -3.29784 0
M  V30 2596 H 254.962 4.22935 -5.29275 0
M  V30 2597 H 255.905 3.13205 -6.35065 0
M  V30 2598 H 256.313 3.25316 -4.61335 0
M  V30 2599 N 255.711 1.52812 0.385517 0
M  V30 2600 C 257.122 1.5993 0.963293 0
M  V30 2601 C 257.473 0.454302 1.90868 0
M  V30 2602 O 256.598 -0.422132 2.12243 0
M  V30 2603 C 257.193 2.89871 1.75387 0
M  V30 2604 C 255.752 2.99389 2.28129 0
M  V30 2605 C 254.899 2.55071 1.08783 0
M  V30 2606 H 257.85 1.5784 0.164948 0
M  V30 2607 H 257.871 2.76553 2.61341 0
M  V30 2608 H 257.383 3.73186 1.06554 0
M  V30 2609 H 255.484 2.20619 3.00263 0
M  V30 2610 H 255.597 4.04096 2.57377 0
M  V30 2611 H 253.961 2.09473 1.4489 0
M  V30 2612 H 254.744 3.40785 0.414807 0
M  V30 2613 N 257.189 -0.644168 1.43834 0
M  V30 2614 C 258.429 -1.41565 1.47441 0
M  V30 2615 C 258.793 -1.91743 0.0992723 0
M  V30 2616 O 259.994 -2.68798 0.0100192 0
M  V30 2617 C 258.265 -2.55902 2.49498 0
M  V30 2618 S 259.824 -3.44287 2.72051 0
M  V30 2619 H 256.642 -0.483118 0.521649 0
M  V30 2620 H 259.244 -0.747008 1.80666 0
M  V30 2621 H 257.948 -2.17327 3.48134 0
M  V30 2622 H 257.479 -3.27607 2.17801 0
M  V30 2623 H 259.494 -4.52927 2.0266 0
M  V30 2624 N 258.668 -1.30515 -0.883378 0
M  V30 2625 C 259.631 -1.1701 -1.97082 0
M  V30 2626 C 260.631 -0.10089 -1.60483 0
M  V30 2627 O 261.821 -0.349127 -1.70666 0
M  V30 2628 C 258.953 -0.793045 -3.31547 0
M  V30 2629 H 260.146 -2.13622 -2.10489 0
M  V30 2630 H 257.699 -1.13935 -1.06998 0
M  V30 2631 H 258.434 0.172499 -3.23841 0
M  V30 2632 H 258.219 -1.56576 -3.5948 0
M  V30 2633 H 259.709 -0.722073 -4.1131 0
M  V30 2634 N 260.146 1.09593 -1.13257 0
M  V30 2635 C 261.109 2.14359 -0.811358 0
M  V30 2636 C 262.109 1.59808 0.178377 0
M  V30 2637 O 263.299 1.74132 -0.0484911 0
M  V30 2638 C 260.431 3.40269 -0.207276 0
M  V30 2639 H 261.624 2.44284 -1.73969 0
M  V30 2640 H 259.177 1.25102 -0.936973 0
M  V30 2641 H 259.912 3.15969 0.73036 0
M  V30 2642 H 259.697 3.81154 -0.919992 0
M  V30 2643 H 261.187 4.176 0.000667944 0
M  V30 2644 N 261.624 0.925811 1.2754 0
M  V30 2645 C 263.035 0.610102 1.7645 0
M  V30 2646 C 263.386 -0.874723 1.75622 0
M  V30 2647 O 262.511 -1.68444 1.35851 0
M  V30 2648 C 263.106 1.10073 3.20421 0
M  V30 2649 C 261.665 0.835723 3.67005 0
M  V30 2650 C 260.812 1.26054 2.46993 0
M  V30 2651 H 263.763 1.10579 1.13833 0
M  V30 2652 H 263.784 0.447557 3.77859 0
M  V30 2653 H 263.296 2.18143 3.20991 0
M  V30 2654 H 261.397 -0.231249 3.71882 0
M  V30 2655 H 261.51 1.45193 4.56569 0
M  V30 2656 H 259.874 0.679111 2.45479 0
M  V30 2657 H 260.657 2.34984 2.50275 0
M  V30 2658 N 263.102 -1.41638 0.69111 0
M  V30 2659 C 264.35 -2.00902 0.219758 0
M  V30 2660 C 264.671 -1.54994 -1.18329 0
M  V30 2661 O 263.941 -0.778628 -1.79762 0
M  V30 2662 H 262.521 -0.74289 0.0782558 0
M  V30 2663 H 265.183 -1.73327 0.891271 0
M  V30 2664 H 264.279 -3.11224 0.233708 0
M  V30 2665 N 264.58 -0.43555 -1.51462 0
M  V30 2666 C 265.991 0.0279871 -1.86679 0
M  V30 2667 C 266.342 1.42104 -1.35281 0
M  V30 2668 O 265.467 2.04667 -0.702878 0
M  V30 2669 C 266.062 0.0575626 -3.38751 0
M  V30 2670 C 264.621 0.465507 -3.7351 0
M  V30 2671 C 263.768 -0.342996 -2.75171 0
M  V30 2672 H 266.719 -0.651473 -1.44712 0
M  V30 2673 H 266.74 0.867421 -3.70481 0
M  V30 2674 H 266.252 -0.956448 -3.7613 0
M  V30 2675 H 264.353 1.48519 -3.41721 0
M  V30 2676 H 264.466 0.191546 -4.78717 0
M  V30 2677 H 262.83 0.198442 -2.53926 0
M  V30 2678 H 263.613 -1.35585 -3.15391 0
M  V30 2679 N 266.058 1.56714 -0.166846 0
M  V30 2680 C 267.021 2.16539 0.751232 0
M  V30 2681 C 268.021 1.11228 1.16125 0
M  V30 2682 O 269.211 1.36765 1.07894 0
M  V30 2683 C 266.343 2.74462 2.02196 0
M  V30 2684 H 267.536 2.99013 0.230499 0
M  V30 2685 H 265.089 1.56081 0.0826982 0
M  V30 2686 H 265.824 1.95709 2.58589 0
M  V30 2687 H 265.609 3.51527 1.73698 0
M  V30 2688 H 267.099 3.20489 2.67725 0
M  V30 2689 N 267.536 -0.106894 1.57237 0
M  V30 2690 C 268.761 -0.830287 1.90055 0
M  V30 2691 C 269.186 -1.72064 0.75998 0
M  V30 2692 O 268.544 -1.78982 -0.288991 0
M  V30 2693 C 268.592 -1.6295 3.21683 0
M  V30 2694 O 267.696 -2.73748 3.08441 0
M  V30 2695 H 267.037 -0.228855 0.623315 0
M  V30 2696 H 269.567 -0.085658 2.04421 0
M  V30 2697 H 269.577 -2.01621 3.54701 0
M  V30 2698 H 268.252 -0.975989 4.04286 0
M  V30 2699 H 266.829 -2.38192 2.86913 0
M  V30 2700 N 269.014 -1.53014 -0.377408 0
M  V30 2701 C 269.977 -1.77957 -1.44444 0
M  V30 2702 C 270.977 -0.649763 -1.47087 0
M  V30 2703 O 272.167 -0.917897 -1.48055 0
M  V30 2704 C 269.299 -1.89089 -2.83651 0
M  V30 2705 H 270.492 -2.73243 -1.23606 0
M  V30 2706 H 268.045 -1.43912 -0.609844 0
M  V30 2707 H 268.78 -0.958293 -3.09818 0
M  V30 2708 H 268.565 -2.71254 -2.83132 0
M  V30 2709 H 270.055 -2.1002 -3.60945 0
M  V30 2710 N 270.492 0.636531 -1.44174 0
M  V30 2711 C 271.422 1.76003 -1.53444 0
M  V30 2712 C 272.403 1.65619 -0.387841 0
M  V30 2713 O 273.588 1.84461 -0.607257 0
M  V30 2714 C 270.718 3.14511 -1.4731 0
M  V30 2715 C 269.672 3.39677 -2.60391 0
M  V30 2716 C 268.998 4.78159 -2.39308 0
M  V30 2717 C 270.298 3.32772 -4.02567 0
M  V30 2718 H 271.992 1.68501 -2.47483 0
M  V30 2719 H 269.538 0.809237 -1.19111 0
M  V30 2720 H 271.491 3.92878 -1.52397 0
M  V30 2721 H 270.215 3.22783 -0.49785 0
M  V30 2722 H 268.874 2.63688 -2.54684 0
M  V30 2723 H 268.522 4.83128 -1.39988 0
M  V30 2724 H 268.222 4.95956 -3.15122 0
M  V30 2725 H 269.746 5.58762 -2.46205 0
M  V30 2726 H 271.16 4.01051 -4.09672 0
M  V30 2727 H 269.557 3.62104 -4.7854 0
M  V30 2728 H 270.627 2.30669 -4.2652 0
M  V30 2729 N 271.97 1.30982 0.876444 0
M  V30 2730 C 273.217 1.20296 1.62896 0
M  V30 2731 C 273.545 -0.240395 1.93009 0
M  V30 2732 O 272.8 -1.18733 1.55567 0
M  V30 2733 C 273.099 1.98572 2.9716 0
M  V30 2734 C 272.765 3.48125 2.86566 0
M  V30 2735 C 271.427 3.88905 2.83383 0
M  V30 2736 C 273.779 4.43322 2.74071 0
M  V30 2737 C 271.107 5.2316 2.65556 0
M  V30 2738 C 273.459 5.77695 2.57781 0
M  V30 2739 C 272.123 6.17704 2.52979 0
M  V30 2740 H 271.393 0.440193 0.59608 0
M  V30 2741 H 274.04 1.62177 1.01837 0
M  V30 2742 H 272.345 1.49352 3.62217 0
M  V30 2743 H 274.042 1.8769 3.54364 0
M  V30 2744 H 270.632 3.15723 2.89856 0
M  V30 2745 H 274.816 4.12752 2.75589 0
M  V30 2746 H 270.072 5.53241 2.60259 0
M  V30 2747 H 274.246 6.51091 2.47089 0
M  V30 2748 H 271.873 7.21678 2.38924 0
M  V30 2749 N 273.449 -1.08991 1.13837 0
M  V30 2750 C 274.397 -2.17841 0.815347 0
M  V30 2751 C 275.391 -1.68164 -0.204233 0
M  V30 2752 O 276.597 -1.79897 -0.0609304 0
M  V30 2753 H 272.972 -0.710654 0.245915 0
M  V30 2754 H 274.943 -2.42315 1.74143 0
M  V30 2755 C 273.692 -3.46381 0.302614 0
M  V30 2756 H 273.015 -3.84979 1.0785 0
M  V30 2757 H 274.455 -4.23844 0.115074 0
M  V30 2758 C 272.914 -3.22556 -0.972591 0
M  V30 2759 O 273.444 -3.45599 -2.04754 0
M  V30 2760 N 271.65 -2.76134 -0.905455 0
M  V30 2761 H 271.197 -2.57582 -0.0305421 0
M  V30 2762 H 271.155 -2.60571 -1.75926 0
M  V30 2763 N 274.927 -0.932562 -1.27047 0
M  V30 2764 C 276.204 -0.49377 -1.89265 0
M  V30 2765 C 276.584 1.02833 -1.8436 0
M  V30 2766 O 275.932 1.88461 -1.29209 0
M  V30 2767 C 276.142 -1.04536 -3.32976 0
M  V30 2768 C 277.49 -1.10879 -4.09867 0
M  V30 2769 O 278.514 -0.995327 -3.42011 0
M  V30 2770 O 277.373 -1.28417 -5.31198 0
M  V30 2771 H 274.467 -0.159596 -0.811454 0
M  V30 2772 H 277.013 -1.02457 -1.3528 0
M  V30 2773 H 275.785 -2.08913 -3.30864 0
M  V30 2774 H 275.408 -0.496494 -3.94488 0
M  V30 2775 N 276.405 1.4127 -0.698611 0
M  V30 2776 C 277.315 2.34573 -0.0357891 0
M  V30 2777 C 278.331 1.56393 0.762701 0
M  V30 2778 O 279.507 1.8886 0.699564 0
M  V30 2779 C 276.572 3.35159 0.887089 0
M  V30 2780 C 275.633 4.29225 0.0804634 0
M  V30 2781 C 274.866 5.25006 0.959387 0
M  V30 2782 O 275.089 5.26314 2.19886 0
M  V30 2783 O 274.023 6.00519 0.407439 0
M  V30 2784 H 277.849 2.92838 -0.804957 0
M  V30 2785 H 275.434 1.42175 -0.458966 0
M  V30 2786 H 277.316 3.9689 1.41621 0
M  V30 2787 H 275.991 2.79333 1.6357 0
M  V30 2788 H 274.898 3.70833 -0.493328 0
M  V30 2789 H 276.231 4.88157 -0.629547 0
M  V30 2790 N 277.883 0.443576 1.51229 0
M  V30 2791 C 278.846 -0.353132 2.26463 0
M  V30 2792 C 279.846 -0.944338 1.3015 0
M  V30 2793 O 281.036 -0.817813 1.5381 0
M  V30 2794 C 278.168 -1.50023 3.06114 0
M  V30 2795 H 279.361 0.3063 2.98332 0
M  V30 2796 H 276.914 0.196902 1.55055 0
M  V30 2797 H 277.649 -2.19553 2.38677 0
M  V30 2798 H 277.434 -1.08241 3.76864 0
M  V30 2799 H 278.924 -2.06296 3.63087 0
M  V30 2800 N 279.361 -1.56624 0.175154 0
M  V30 2801 C 280.586 -2.01813 -0.478137 0
M  V30 2802 C 281.011 -1.05457 -1.55757 0
M  V30 2803 O 280.369 -0.0347439 -1.81267 0
M  V30 2804 C 280.417 -3.45581 -1.02987 0
M  V30 2805 O 279.521 -3.52305 -2.14371 0
M  V30 2806 H 278.862 -0.65413 -0.114059 0
M  V30 2807 H 281.392 -2.02673 0.280173 0
M  V30 2808 H 281.402 -3.84965 -1.35151 0
M  V30 2809 H 280.077 -4.1521 -0.239556 0
M  V30 2810 H 278.654 -3.24783 -1.83222 0
M  V30 2811 N 280.839 0.0985539 -1.57292 0
M  V30 2812 C 282.116 0.834155 -1.76921 0
M  V30 2813 C 282.496 1.97101 -0.755928 0
M  V30 2814 O 281.844 2.27474 0.216245 0
M  V30 2815 C 282.054 1.33194 -3.22584 0
M  V30 2816 C 283.402 1.77611 -3.85668 0
M  V30 2817 O 284.426 1.42825 -3.26312 0
M  V30 2818 O 283.285 2.4192 -4.90038 0
M  V30 2819 H 280.379 0.397628 -0.725135 0
M  V30 2820 H 282.925 0.0807044 -1.69508 0
M  V30 2821 H 281.697 0.517248 -3.87866 0
M  V30 2822 H 281.32 2.1475 -3.34616 0
M  V30 2823 N 282.317 1.53212 0.369288 0
M  V30 2824 C 283.227 1.82342 1.47609 0
M  V30 2825 C 284.243 0.711532 1.58787 0
M  V30 2826 O 285.419 1.0012 1.74751 0
M  V30 2827 C 282.484 2.00393 2.8292 0
M  V30 2828 C 281.545 3.24297 2.81301 0
M  V30 2829 C 280.778 3.41478 4.10157 0
M  V30 2830 O 281.001 2.63033 5.06132 0
M  V30 2831 O 279.935 4.34817 4.16194 0
M  V30 2832 H 283.761 2.76366 1.25918 0
M  V30 2833 H 281.346 1.38547 0.559034 0
M  V30 2834 H 283.228 2.13859 3.63101 0
M  V30 2835 H 281.903 1.09559 3.04596 0
M  V30 2836 H 280.81 3.16257 1.99831 0
M  V30 2837 H 282.143 4.15041 2.64578 0
M  V30 2838 N 283.795 -0.628877 1.44509 0
M  V30 2839 C 284.758 -1.72263 1.51188 0
M  V30 2840 C 285.758 -1.55907 0.39367 0
M  V30 2841 O 286.948 -1.61361 0.656377 0
M  V30 2842 C 284.08 -3.11365 1.38798 0
M  V30 2843 H 285.273 -1.67714 2.4862 0
M  V30 2844 H 282.826 -0.842737 1.31634 0
M  V30 2845 H 283.561 -3.21507 0.424693 0
M  V30 2846 H 283.346 -3.24644 2.19884 0
M  V30 2847 H 284.836 -3.91075 1.46458 0
M  V30 2848 N 285.273 -1.31445 -0.869486 0
M  V30 2849 C 286.498 -1.24256 -1.66058 0
M  V30 2850 C 286.923 0.188928 -1.87149 0
M  V30 2851 O 286.281 1.13522 -1.4136 0
M  V30 2852 C 286.329 -1.9924 -3.00559 0
M  V30 2853 O 285.433 -1.33007 -3.90362 0
M  V30 2854 H 284.774 -0.428973 -0.506831 0
M  V30 2855 H 287.304 -1.73521 -1.08404 0
M  V30 2856 H 287.314 -2.08854 -3.50491 0
M  V30 2857 H 285.989 -3.03342 -2.84528 0
M  V30 2858 H 284.566 -1.31848 -3.48813 0
M  V30 2859 N 286.751 1.08385 -1.14413 0
M  V30 2860 C 287.681 2.17321 -0.854044 0
M  V30 2861 C 288.662 1.69024 0.191049 0
M  V30 2862 O 289.847 1.94141 0.0476779 0
M  V30 2863 C 286.977 3.45719 -0.330983 0
M  V30 2864 C 285.931 4.07409 -1.31155 0
M  V30 2865 C 285.257 5.30762 -0.64778 0
M  V30 2866 C 286.557 4.48665 -2.67388 0
M  V30 2867 H 288.251 2.41845 -1.76498 0
M  V30 2868 H 285.797 1.16233 -0.850051 0
M  V30 2869 H 287.75 4.21241 -0.115645 0
M  V30 2870 H 286.474 3.2075 0.615381 0
M  V30 2871 H 285.133 3.33919 -1.51306 0
M  V30 2872 H 284.781 5.02078 0.304398 0
M  V30 2873 H 284.481 5.72992 -1.30207 0
M  V30 2874 H 286.005 6.08998 -0.441972 0
M  V30 2875 H 287.419 5.15364 -2.51143 0
M  V30 2876 H 285.816 5.01814 -3.29093 0
M  V30 2877 H 286.886 3.60543 -3.24248 0
M  V30 2878 N 288.23 0.939286 1.26551 0
M  V30 2879 C 289.178 0.43815 2.28436 0
M  V30 2880 C 290.172 -0.483587 1.62351 0
M  V30 2881 O 291.378 -0.362009 1.76322 0
M  V30 2882 H 287.753 0.123149 0.741848 0
M  V30 2883 H 289.724 1.31002 2.68106 0
M  V30 2884 C 288.473 -0.283052 3.46546 0
M  V30 2885 H 287.796 0.417043 3.97619 0
M  V30 2886 H 289.236 -0.597948 4.19763 0
M  V30 2887 C 287.695 -1.50018 3.01656 0
M  V30 2888 O 288.225 -2.59855 3.0633 0
M  V30 2889 N 286.431 -1.35608 2.57019 0
M  V30 2890 H 285.978 -0.46244 2.53415 0
M  V30 2891 H 285.936 -2.17165 2.27347 0
M  V30 2892 N 289.708 -1.40897 0.706093 0
M  V30 2893 C 290.671 -2.29131 0.0562841 0
M  V30 2894 C 291.671 -1.44901 -0.697166 0
M  V30 2895 O 292.861 -1.65926 -0.530484 0
M  V30 2896 C 289.993 -3.27957 -0.93043 0
M  V30 2897 H 291.186 -2.88091 0.833284 0
M  V30 2898 H 288.739 -1.4906 0.470192 0
M  V30 2899 H 289.474 -2.73997 -1.73482 0
M  V30 2900 H 289.259 -3.90124 -0.393166 0
M  V30 2901 H 290.749 -3.94049 -1.38256 0
M  V30 2902 N 291.186 -0.45159 -1.50991 0
M  V30 2903 C 292.149 0.341117 -2.26647 0
M  V30 2904 C 293.149 0.937422 -1.30649 0
M  V30 2905 O 294.339 0.809644 -1.54241 0
M  V30 2906 C 291.471 1.48398 -3.06905 0
M  V30 2907 H 292.664 -0.322117 -2.98165 0
M  V30 2908 H 290.217 -0.205122 -1.54948 0
M  V30 2909 H 290.952 2.18284 -2.39838 0
M  V30 2910 H 290.737 1.06241 -3.77432 0
M  V30 2911 H 292.227 2.04367 -3.64176 0
M  V30 2912 N 292.664 1.56529 -0.183458 0
M  V30 2913 C 293.91 1.97537 0.459036 0
M  V30 2914 C 294.243 1.06989 1.62071 0
M  V30 2915 O 293.518 0.11948 1.94133 0
M  V30 2916 C 293.801 3.47874 0.930368 0
M  V30 2917 C 293.654 4.492 -0.232317 0
M  V30 2918 C 294.973 4.01612 1.79989 0
M  V30 2919 H 292.092 0.718204 0.165383 0
M  V30 2920 H 294.734 1.88042 -0.272038 0
M  V30 2921 H 292.884 3.56095 1.55333 0
M  V30 2922 H 294.556 4.53027 -0.86972 0
M  V30 2923 H 292.799 4.24657 -0.885928 0
M  V30 2924 H 293.47 5.51823 0.139796 0
M  V30 2925 H 295.946 3.96097 1.27461 0
M  V30 2926 H 294.822 5.07195 2.09867 0
M  V30 2927 H 295.083 3.46163 2.74998 0
M  V30 2928 N 294.142 -0.090211 1.57342 0
M  V30 2929 C 295.052 -1.12735 2.05738 0
M  V30 2930 C 296.068 -1.43557 0.983231 0
M  V30 2931 O 297.244 -1.54101 1.29672 0
M  V30 2932 C 294.309 -2.42659 2.47624 0
M  V30 2933 C 293.37 -2.18975 3.69254 0
M  V30 2934 C 292.603 -3.42704 4.09133 0
M  V30 2935 O 292.826 -4.51127 3.49057 0
M  V30 2936 O 291.76 -3.32003 5.02053 0
M  V30 2937 H 295.586 -0.746279 2.94388 0
M  V30 2938 H 293.171 -0.303064 1.46294 0
M  V30 2939 H 295.053 -3.19155 2.7517 0
M  V30 2940 H 293.728 -2.80182 1.62109 0
M  V30 2941 H 292.635 -1.40244 3.46818 0
M  V30 2942 H 293.968 -1.86342 4.55563 0
M  V30 2943 N 295.62 -1.53406 -0.361157 0
M  V30 2944 C 296.53 -1.83122 -1.4664 0
M  V30 2945 C 297.546 -0.719943 -1.58407 0
M  V30 2946 O 298.722 -1.01046 -1.74218 0
M  V30 2947 C 295.787 -2.01891 -2.81853 0
M  V30 2948 C 294.848 -3.25784 -2.79577 0
M  V30 2949 C 294.081 -3.43648 -4.0834 0
M  V30 2950 O 294.304 -2.65714 -5.0473 0
M  V30 2951 O 293.238 -4.37018 -4.13883 0
M  V30 2952 H 297.064 -2.7703 -1.24451 0
M  V30 2953 H 294.649 -1.38841 -0.551678 0
M  V30 2954 H 296.531 -2.15782 -3.61962 0
M  V30 2955 H 295.206 -1.11173 -3.0401 0
M  V30 2956 H 294.113 -3.17312 -1.98151 0
M  V30 2957 H 295.446 -4.16439 -2.62373 0
M  V30 2958 N 297.098 0.621204 -1.44841 0
M  V30 2959 C 298.326 1.40752 -1.51646 0
M  V30 2960 C 298.741 1.88246 -0.144549 0
M  V30 2961 O 298.098 1.61422 0.851416 0
M  V30 2962 C 298.149 2.62119 -2.4895 0
M  V30 2963 O 297.87 2.16602 -3.80808 0
M  V30 2964 C 299.371 3.55135 -2.65319 0
M  V30 2965 H 296.591 0.431325 -0.514004 0
M  V30 2966 H 299.135 0.758835 -1.899 0
M  V30 2967 H 297.29 3.23058 -2.13805 0
M  V30 2968 H 297.704 2.95358 -4.33433 0
M  V30 2969 H 299.178 4.36874 -3.37409 0
M  V30 2970 H 299.655 4.04592 -1.70886 0
M  V30 2971 H 300.261 3.00058 -3.01405 0
M  V30 2972 N 298.576 1.31904 0.862503 0
M  V30 2973 C 299.506 1.22782 1.98612 0
M  V30 2974 C 300.487 0.113362 1.69722 0
M  V30 2975 O 301.672 0.299218 1.91881 0
M  V30 2976 C 298.802 0.942058 3.34279 0
M  V30 2977 C 297.756 2.0169 3.77499 0
M  V30 2978 C 297.082 1.58369 5.10709 0
M  V30 2979 C 298.382 3.43096 3.93805 0
M  V30 2980 H 300.076 2.16788 2.06502 0
M  V30 2981 H 297.622 1.04366 0.992154 0
M  V30 2982 H 299.575 0.864818 4.1243 0
M  V30 2983 H 298.299 -0.0336603 3.26583 0
M  V30 2984 H 296.958 2.08416 3.01593 0
M  V30 2985 H 296.606 0.595628 4.99461 0
M  V30 2986 H 296.306 2.30279 5.40597 0
M  V30 2987 H 297.83 1.52067 5.91361 0
M  V30 2988 H 299.244 3.39003 4.62331 0
M  V30 2989 H 297.641 4.13288 4.35101 0
M  V30 2990 H 298.711 3.83334 2.96957 0
M  V30 2991 N 300.054 -1.07777 1.14986 0
M  V30 2992 C 301.001 -2.14867 0.842672 0
M  V30 2993 C 301.971 -1.6486 -0.202552 0
M  V30 2994 O 303.156 -1.90668 -0.0710568 0
M  V30 2995 C 300.296 -3.43486 0.333363 0
M  V30 2996 C 299.409 -4.07306 1.43965 0
M  V30 2997 C 298.544 -5.23744 0.886914 0
M  V30 2998 C 297.583 -5.79517 1.97043 0
M  V30 2999 N 296.72 -6.87291 1.4344 0
M  V30 3000 H 301.56 -2.40485 1.75986 0
M  V30 3001 H 299.097 -1.1801 0.878179 0
M  V30 3002 H 301.055 -4.17195 0.0198163 0
M  V30 3003 H 299.685 -3.18133 -0.546916 0
M  V30 3004 H 298.737 -3.31293 1.86946 0
M  V30 3005 H 300.049 -4.44771 2.25788 0
M  V30 3006 H 299.203 -6.04419 0.525651 0
M  V30 3007 H 297.942 -4.87685 0.0377957 0
M  V30 3008 H 296.947 -4.97491 2.34057 0
M  V30 3009 H 298.172 -6.17632 2.82325 0
M  V30 3010 H 296.118 -6.5318 0.607567 0
M  V30 3011 H 296.035 -7.23617 2.18895 0
M  V30 3012 H 297.303 -7.71682 1.10124 0
M  V30 3013 N 301.532 -0.945985 -1.26051 0
M  V30 3014 C 302.779 -0.596118 -1.93527 0
M  V30 3015 C 303.107 0.865559 -1.74179 0
M  V30 3016 O 302.362 1.63524 -1.0751 0
M  V30 3017 C 302.661 -0.890475 -3.46129 0
M  V30 3018 C 302.327 -2.3368 -3.85622 0
M  V30 3019 C 300.989 -2.73216 -3.96114 0
M  V30 3020 C 303.341 -3.27648 -4.05334 0
M  V30 3021 C 300.669 -4.05806 -4.2372 0
M  V30 3022 C 303.021 -4.59841 -4.3443 0
M  V30 3023 C 301.685 -4.99185 -4.43137 0
M  V30 3024 H 300.955 -0.218135 -0.708165 0
M  V30 3025 H 303.602 -1.1934 -1.49768 0
M  V30 3026 H 301.907 -0.210711 -3.91233 0
M  V30 3027 H 303.604 -0.598478 -3.96509 0
M  V30 3028 H 300.194 -2.02015 -3.78005 0
M  V30 3029 H 304.378 -2.98298 -3.96651 0
M  V30 3030 H 299.634 -4.35945 -4.28675 0
M  V30 3031 H 303.808 -5.32641 -4.48628 0
M  V30 3032 H 301.435 -6.01952 -4.64282 0
M  V30 3033 N 303.011 1.40521 -0.713556 0
M  V30 3034 C 304.26 2.00155 -0.249192 0
M  V30 3035 C 304.573 1.57224 1.16362 0
M  V30 3036 O 305.779 2.09542 1.72639 0
M  V30 3037 C 304.235 3.5773 -0.3946 0
M  V30 3038 C 303.843 4.09635 -1.81392 0
M  V30 3039 C 305.587 4.24499 0.00907364 0
M  V30 3040 C 303.494 5.59707 -1.91003 0
M  V30 3041 H 302.424 0.74868 -0.0894114 0
M  V30 3042 H 305.075 1.60784 -0.884352 0
M  V30 3043 H 303.457 3.94792 0.30911 0
M  V30 3044 H 304.631 3.83955 -2.54785 0
M  V30 3045 H 302.946 3.55456 -2.16888 0
M  V30 3046 H 305.543 5.34683 -0.0420404 0
M  V30 3047 H 305.886 4.02824 1.05065 0
M  V30 3048 H 306.419 3.92536 -0.645007 0
M  V30 3049 H 303.158 5.86234 -2.93275 0
M  V30 3050 H 302.678 5.87258 -1.22019 0
M  V30 3051 H 304.357 6.24776 -1.6812 0
M  V30 3052 N 304.489 0.459591 1.5075 0
M  V30 3053 C 305.452 -0.329093 2.26825 0
M  V30 3054 C 306.452 -0.930481 1.31144 0
M  V30 3055 O 307.642 -0.801453 1.54669 0
M  V30 3056 C 304.774 -1.46768 3.07688 0
M  V30 3057 H 305.967 0.337924 2.9799 0
M  V30 3058 H 303.52 0.213336 1.54837 0
M  V30 3059 H 304.255 -2.17009 2.40993 0
M  V30 3060 H 304.04 -1.04238 3.77991 0
M  V30 3061 H 305.53 -2.02433 3.65254 0
M  V30 3062 N 305.967 -1.56429 0.191757 0
M  V30 3063 C 306.915 -2.20273 -0.747174 0
M  V30 3064 C 307.909 -1.17288 -1.22229 0
M  V30 3065 O 309.115 -1.35441 -1.18557 0
M  V30 3066 H 305.49 -0.705885 -0.259289 0
M  V30 3067 H 307.461 -2.97826 -0.184963 0
M  V30 3068 C 306.21 -2.87356 -1.95759 0
M  V30 3069 H 305.533 -3.66341 -1.60106 0
M  V30 3070 H 306.973 -3.3547 -2.59299 0
M  V30 3071 C 305.432 -1.88213 -2.79423 0
M  V30 3072 O 305.962 -1.38033 -3.7724 0
M  V30 3073 N 304.168 -1.56516 -2.44849 0
M  V30 3074 H 303.715 -1.97516 -1.65364 0
M  V30 3075 H 303.673 -0.904369 -3.01112 0
M  V30 3076 N 307.445 0.0818655 -1.57387 0
M  V30 3077 C 308.861 0.436412 -1.53517 0
M  V30 3078 C 309.061 1.79758 -0.910459 0
M  V30 3079 O 308.117 2.47324 -0.508636 0
M  V30 3080 C 309.43 0.386734 -2.98203 0
M  V30 3081 C 310.978 0.467644 -3.09487 0
M  V30 3082 C 311.453 0.447978 -4.55804 0
M  V30 3083 N 312.944 0.508348 -4.60402 0
M  V30 3084 C 313.679 0.515184 -5.71081 0
M  V30 3085 N 313.175 0.477435 -6.91153 0
M  V30 3086 N 314.968 0.560988 -5.59294 0
M  V30 3087 H 307.119 -0.809546 -1.96367 0
M  V30 3088 H 309.382 -0.302733 -0.898363 0
M  V30 3089 H 309.088 -0.546539 -3.47427 0
M  V30 3090 H 308.962 1.20075 -3.57578 0
M  V30 3091 H 311.349 1.39134 -2.60242 0
M  V30 3092 H 311.43 -0.374753 -2.5304 0
M  V30 3093 H 311.074 -0.471826 -5.05704 0
M  V30 3094 H 311.004 1.30777 -5.10103 0
M  V30 3095 H 313.495 0.54218 -3.7399 0
M  V30 3096 H 313.808 0.486299 -7.71268 0
M  V30 3097 H 312.153 0.444278 -6.93579 0
M  V30 3098 H 315.344 0.5881 -4.64391 0
M  V30 3099 H 315.517 0.562846 -6.45551 0
M  V30 3100 N 308.923 1.53595 0.353017 0
M  V30 3101 C 310.2 1.61002 1.11075 0
M  V30 3102 C 310.58 0.425356 2.0677 0
M  V30 3103 O 309.928 -0.583267 2.2093 0
M  V30 3104 C 310.138 2.96631 1.83877 0
M  V30 3105 C 311.486 3.51653 2.37961 0
M  V30 3106 O 312.51 2.98743 1.93987 0
M  V30 3107 O 311.369 4.44177 3.18386 0
M  V30 3108 H 308.463 0.650825 0.510251 0
M  V30 3109 H 311.009 1.6594 0.35527 0
M  V30 3110 H 309.781 3.74293 1.14108 0
M  V30 3111 H 309.404 2.95242 2.66304 0
M  V30 3112 N 310.401 -0.613514 1.45168 0
M  V30 3113 C 311.348 -1.72456 1.53387 0
M  V30 3114 C 312.318 -1.6169 0.380191 0
M  V30 3115 O 313.503 -1.81356 0.592836 0
M  V30 3116 C 310.643 -3.10753 1.50088 0
M  V30 3117 C 309.756 -3.32368 2.75963 0
M  V30 3118 C 308.891 -4.60737 2.64376 0
M  V30 3119 C 307.93 -4.7559 3.85332 0
M  V30 3120 N 307.067 -5.95253 3.72315 0
M  V30 3121 H 311.907 -1.64768 2.48305 0
M  V30 3122 H 309.444 -0.803503 1.23216 0
M  V30 3123 H 311.402 -3.90758 1.46164 0
M  V30 3124 H 310.032 -3.17413 0.587243 0
M  V30 3125 H 309.084 -2.4618 2.89999 0
M  V30 3126 H 310.396 -3.39218 3.65695 0
M  V30 3127 H 309.55 -5.48928 2.58385 0
M  V30 3128 H 308.289 -4.56275 1.72233 0
M  V30 3129 H 307.294 -3.85824 3.91688 0
M  V30 3130 H 308.519 -4.81854 4.78533 0
M  V30 3131 H 306.465 -5.91847 2.82937 0
M  V30 3132 H 306.382 -6.03236 4.55677 0
M  V30 3133 H 307.65 -6.85958 3.70246 0
M  V30 3134 N 311.879 -1.3236 -0.855495 0
M  V30 3135 C 313.125 -1.23054 -1.612 0
M  V30 3136 C 313.458 0.207404 -1.93089 0
M  V30 3137 O 312.733 1.14432 -1.57275 0
M  V30 3138 C 313.016 -2.08937 -2.93287 0
M  V30 3139 C 312.869 -3.61105 -2.68185 0
M  V30 3140 C 314.188 -1.94986 -3.94549 0
M  V30 3141 H 311.307 -0.448364 -0.584926 0
M  V30 3142 H 313.949 -1.62297 -0.987917 0
M  V30 3143 H 312.099 -1.75599 -3.46551 0
M  V30 3144 H 313.771 -4.04652 -2.21483 0
M  V30 3145 H 312.014 -3.83813 -2.02164 0
M  V30 3146 H 312.685 -4.16522 -3.62234 0
M  V30 3147 H 315.161 -2.24189 -3.5054 0
M  V30 3148 H 314.037 -2.57356 -4.84829 0
M  V30 3149 H 314.298 -0.917263 -4.3248 0
M  V30 3150 N 313.357 1.07166 -1.15556 0
M  V30 3151 C 314.32 2.12589 -0.856644 0
M  V30 3152 C 315.32 1.6015 0.14444 0
M  V30 3153 O 316.51 1.7399 -0.0854163 0
M  V30 3154 C 313.642 3.39753 -0.279405 0
M  V30 3155 H 314.835 2.40539 -1.79112 0
M  V30 3156 H 312.388 1.23086 -0.963298 0
M  V30 3157 H 313.123 3.17447 0.663174 0
M  V30 3158 H 312.908 3.79117 -1.00063 0
M  V30 3159 H 314.398 4.17507 -0.0879113 0
M  V30 3160 N 314.835 0.952656 1.25548 0
M  V30 3161 C 316.081 0.607272 1.93494 0
M  V30 3162 C 316.414 -0.853245 1.74452 0
M  V30 3163 O 315.689 -1.61194 1.08843 0
M  V30 3164 C 315.972 0.96435 3.46947 0
M  V30 3165 C 315.825 2.48045 3.75225 0
M  V30 3166 C 317.144 0.487987 4.37386 0
M  V30 3167 H 314.263 0.222096 0.702739 0
M  V30 3168 H 316.905 1.18895 1.48203 0
M  V30 3169 H 315.055 0.469361 3.85654 0
M  V30 3170 H 316.727 3.04905 3.46166 0
M  V30 3171 H 314.97 2.919 3.209 0
M  V30 3172 H 315.641 2.6808 4.82532 0
M  V30 3173 H 318.117 0.912558 4.0597 0
M  V30 3174 H 316.993 0.766547 5.43521 0
M  V30 3175 H 317.254 -0.612063 4.37843 0
M  V30 3176 N 316.313 -1.40141 0.720998 0
M  V30 3177 C 317.243 -2.33339 0.0867621 0
M  V30 3178 C 318.224 -1.53178 -0.739622 0
M  V30 3179 O 319.409 -1.81625 -0.687449 0
M  V30 3180 C 316.539 -3.37194 -0.831728 0
M  V30 3181 C 315.493 -4.27857 -0.110558 0
M  V30 3182 C 314.819 -5.22294 -1.14513 0
M  V30 3183 C 316.119 -5.11872 1.0385 0
M  V30 3184 H 317.813 -2.86626 0.865219 0
M  V30 3185 H 315.359 -1.37814 0.417516 0
M  V30 3186 H 317.312 -4.01335 -1.28485 0
M  V30 3187 H 316.036 -2.82314 -1.64214 0
M  V30 3188 H 314.695 -3.65176 0.322797 0
M  V30 3189 H 314.343 -4.63717 -1.94874 0
M  V30 3190 H 314.043 -5.83797 -0.667446 0
M  V30 3191 H 315.567 -5.89312 -1.59824 0
M  V30 3192 H 316.981 -5.69436 0.664482 0
M  V30 3193 H 315.378 -5.82445 1.4449 0
M  V30 3194 H 316.448 -4.4753 1.86668 0
M  V30 3195 N 317.792 -0.46758 -1.50504 0
M  V30 3196 C 319.038 0.0887532 -2.02606 0
M  V30 3197 C 319.371 1.39686 -1.34913 0
M  V30 3198 O 318.646 1.88644 -0.473694 0
M  V30 3199 C 318.929 0.276206 -3.59039 0
M  V30 3200 C 318.782 -1.05267 -4.37309 0
M  V30 3201 C 320.101 1.03235 -4.27821 0
M  V30 3202 H 317.22 0.0307814 -0.736357 0
M  V30 3203 H 319.862 -0.612485 -1.79857 0
M  V30 3204 H 318.012 0.8735 -3.78553 0
M  V30 3205 H 319.684 -1.68628 -4.29374 0
M  V30 3206 H 317.927 -1.65015 -4.01189 0
M  V30 3207 H 318.598 -0.875197 -5.45018 0
M  V30 3208 H 321.074 0.526111 -4.12761 0
M  V30 3209 H 319.95 1.1323 -5.37094 0
M  V30 3210 H 320.211 2.06806 -3.90748 0
M  V30 3211 N 319.27 1.56325 -0.20005 0
M  V30 3212 C 320.518 1.97329 0.436547 0
M  V30 3213 C 320.839 1.08826 1.61808 0
M  V30 3214 O 320.109 0.160604 1.95241 0
M  V30 3215 H 318.689 0.728714 0.164272 0
M  V30 3216 H 321.351 1.92761 -0.287937 0
M  V30 3217 H 320.447 3.02264 0.777353 0
M  V30 3218 N 320.748 -0.0735177 1.57428 0
M  V30 3219 C 321.973 -0.789787 1.91774 0
M  V30 3220 C 322.398 -1.70413 0.796306 0
M  V30 3221 O 321.756 -1.79555 -0.250961 0
M  V30 3222 C 321.804 -1.5609 3.25067 0
M  V30 3223 O 320.908 -2.67144 3.14178 0
M  V30 3224 H 320.249 -0.215582 0.628029 0
M  V30 3225 H 322.779 -0.0422781 2.04556 0
M  V30 3226 H 322.789 -1.94052 3.58898 0
M  V30 3227 H 321.464 -0.890015 4.06265 0
M  V30 3228 H 320.041 -2.32052 2.91901 0
M  V30 3229 N 322.226 -1.5378 -0.344866 0
M  V30 3230 C 323.173 -1.81676 -1.42346 0
M  V30 3231 C 324.143 -0.662376 -1.52321 0
M  V30 3232 O 325.328 -0.906675 -1.67881 0
M  V30 3233 C 322.468 -2.03087 -2.79015 0
M  V30 3234 C 321.581 -3.30799 -2.77842 0
M  V30 3235 C 320.716 -3.42285 -4.0622 0
M  V30 3236 C 319.755 -4.6395 -3.9927 0
M  V30 3237 N 318.892 -4.72477 -5.19336 0
M  V30 3238 H 323.732 -2.73703 -1.17858 0
M  V30 3239 H 321.269 -1.35568 -0.570949 0
M  V30 3240 H 323.227 -2.1349 -3.58438 0
M  V30 3241 H 321.857 -1.14375 -3.01858 0
M  V30 3242 H 320.909 -3.29244 -1.90533 0
M  V30 3243 H 322.221 -4.20314 -2.68584 0
M  V30 3244 H 321.375 -3.52113 -4.94066 0
M  V30 3245 H 320.114 -2.50823 -4.18258 0
M  V30 3246 H 319.119 -4.54201 -3.09809 0
M  V30 3247 H 320.344 -5.56775 -3.88817 0
M  V30 3248 H 318.29 -3.83924 -5.3192 0
M  V30 3249 H 318.207 -5.55927 -5.12329 0
M  V30 3250 H 319.475 -4.86613 -6.08957 0
M  V30 3251 N 323.704 0.605807 -1.45491 0
M  V30 3252 C 324.634 1.72709 -1.57143 0
M  V30 3253 C 325.615 1.6476 -0.422884 0
M  V30 3254 O 326.8 1.83132 -0.646247 0
M  V30 3255 C 323.93 3.11316 -1.53948 0
M  V30 3256 C 322.884 3.34077 -2.67537 0
M  V30 3257 C 322.21 4.72975 -2.49397 0
M  V30 3258 C 323.51 3.24158 -4.09535 0
M  V30 3259 H 325.204 1.63214 -2.51001 0
M  V30 3260 H 322.75 0.78379 -1.208 0
M  V30 3261 H 324.703 3.89557 -1.60696 0
M  V30 3262 H 323.427 3.21655 -0.566205 0
M  V30 3263 H 322.086 2.58227 -2.6022 0
M  V30 3264 H 321.734 4.8005 -1.50205 0
M  V30 3265 H 321.434 4.8916 -3.25571 0
M  V30 3266 H 322.958 5.53414 -2.58002 0
M  V30 3267 H 324.372 3.92271 -4.18086 0
M  V30 3268 H 322.769 3.51872 -4.86113 0
M  V30 3269 H 323.839 2.2157 -4.31317 0
M  V30 3270 N 325.182 1.32811 0.848464 0
M  V30 3271 C 326.598 1.11937 1.13764 0
M  V30 3272 C 326.798 -0.0960789 2.01271 0
M  V30 3273 O 325.854 -0.779165 2.40178 0
M  V30 3274 C 327.167 2.402 1.809 0
M  V30 3275 C 328.715 2.46016 1.93508 0
M  V30 3276 C 329.19 3.74215 2.64059 0
M  V30 3277 N 330.681 3.75232 2.71579 0
M  V30 3278 C 331.416 4.71134 3.26833 0
M  V30 3279 N 330.912 5.77406 3.8285 0
M  V30 3280 N 332.705 4.58623 3.24995 0
M  V30 3281 H 324.856 2.1073 0.265855 0
M  V30 3282 H 327.119 0.930671 0.180431 0
M  V30 3283 H 326.825 3.29093 1.24058 0
M  V30 3284 H 326.699 2.51628 2.81004 0
M  V30 3285 H 329.086 1.57577 2.49506 0
M  V30 3286 H 329.167 2.38536 0.923811 0
M  V30 3287 H 328.811 4.63031 2.08722 0
M  V30 3288 H 328.741 3.78968 3.65637 0
M  V30 3289 H 331.232 2.98423 2.31845 0
M  V30 3290 H 331.545 6.46632 4.23187 0
M  V30 3291 H 329.89 5.81152 3.81165 0
M  V30 3292 H 333.081 3.74762 2.80484 0
M  V30 3293 H 333.254 5.33535 3.67756 0
M  V30 3294 N 326.66 -1.06551 1.16123 0
M  V30 3295 C 327.623 -2.12132 0.867906 0
M  V30 3296 C 328.623 -1.60224 -0.135944 0
M  V30 3297 O 329.813 -1.73943 0.0946422 0
M  V30 3298 C 326.945 -3.396 0.297419 0
M  V30 3299 H 328.138 -2.39586 1.80385 0
M  V30 3300 H 325.691 -1.22574 0.969812 0
M  V30 3301 H 326.426 -3.17794 -0.64633 0
M  V30 3302 H 326.211 -3.78581 1.02073 0
M  V30 3303 H 327.701 -4.17455 0.110052 0
M  V30 3304 N 328.138 -0.959301 -1.25041 0
M  V30 3305 C 329.101 -0.487677 -2.23952 0
M  V30 3306 C 330.101 0.41119 -1.55454 0
M  V30 3307 O 331.291 0.207825 -1.72956 0
M  V30 3308 C 328.423 0.294807 -3.39623 0
M  V30 3309 H 329.616 -1.36198 -2.67189 0
M  V30 3310 H 327.169 -0.743042 -1.37508 0
M  V30 3311 H 327.904 1.18658 -3.01813 0
M  V30 3312 H 327.689 -0.35012 -3.90534 0
M  V30 3313 H 329.179 0.614089 -4.1306 0
M  V30 3314 N 329.616 1.39756 -0.72842 0
M  V30 3315 C 330.864 2.00248 -0.272946 0
M  V30 3316 C 331.185 1.58077 1.14178 0
M  V30 3317 O 330.455 0.826014 1.77634 0
M  V30 3318 H 329.035 0.740554 -0.0979247 0
M  V30 3319 H 331.697 1.70903 -0.936912 0
M  V30 3320 H 330.793 3.10495 -0.316142 0
M  V30 3321 N 331.094 0.475555 1.50254 0
M  V30 3322 C 332.057 -0.305016 2.27161 0
M  V30 3323 C 333.057 -0.916519 1.32123 0
M  V30 3324 O 334.247 -0.785003 1.5551 0
M  V30 3325 C 331.379 -1.43496 3.09227 0
M  V30 3326 H 332.572 0.369511 2.97615 0
M  V30 3327 H 330.125 0.229747 1.54602 0
M  V30 3328 H 330.86 -2.14441 2.43281 0
M  V30 3329 H 330.645 -1.00223 3.79075 0
M  V30 3330 H 332.135 -1.98548 3.67381 0
M  V30 3331 N 332.573 -1.56217 0.208337 0
M  V30 3332 C 333.483 -2.23316 -0.718836 0
M  V30 3333 C 334.499 -1.23648 -1.22422 0
M  V30 3334 O 335.675 -1.56423 -1.26861 0
M  V30 3335 C 332.74 -2.88968 -1.91568 0
M  V30 3336 C 331.801 -4.03943 -1.45357 0
M  V30 3337 C 331.034 -4.66455 -2.59337 0
M  V30 3338 O 331.257 -4.27919 -3.77149 0
M  V30 3339 O 330.191 -5.55686 -2.31293 0
M  V30 3340 H 334.017 -3.03182 -0.177315 0
M  V30 3341 H 331.602 -1.49384 -0.0215402 0
M  V30 3342 H 333.484 -3.30455 -2.61491 0
M  V30 3343 H 332.159 -2.12071 -2.44556 0
M  V30 3344 H 331.066 -3.67052 -0.722746 0
M  V30 3345 H 332.399 -4.82543 -0.970219 0
M  V30 3346 N 334.051 0.0651679 -1.57465 0
M  V30 3347 C 334.961 1.09448 -2.07505 0
M  V30 3348 C 335.977 1.41974 -1.00595 0
M  V30 3349 O 337.153 1.52018 -1.32107 0
M  V30 3350 C 334.218 2.38689 -2.51453 0
M  V30 3351 C 333.279 2.13073 -3.72691 0
M  V30 3352 C 332.512 3.36152 -4.14533 0
M  V30 3353 O 332.735 4.45517 -3.56189 0
M  V30 3354 O 331.669 3.23974 -5.07272 0
M  V30 3355 H 335.495 0.69935 -2.95538 0
M  V30 3356 H 333.08 0.279752 -1.46757 0
M  V30 3357 H 334.962 3.14736 -2.80212 0
M  V30 3358 H 333.637 2.77568 -1.66546 0
M  V30 3359 H 332.544 1.34709 -3.49005 0
M  V30 3360 H 333.877 1.79071 -4.5847 0
M  V30 3361 N 335.529 1.53961 0.336706 0
M  V30 3362 C 336.492 1.81724 1.39675 0
M  V30 3363 C 337.492 0.688532 1.45313 0
M  V30 3364 O 338.682 0.956829 1.45569 0
M  V30 3365 C 335.814 1.96543 2.78538 0
M  V30 3366 H 337.007 2.76424 1.16318 0
M  V30 3367 H 334.56 1.45478 0.571474 0
M  V30 3368 H 335.295 1.0401 3.07168 0
M  V30 3369 H 335.08 2.78665 2.75841 0
M  V30 3370 H 336.57 2.19516 3.5525 0
M  V30 3371 N 337.007 -0.598083 1.45811 0
M  V30 3372 C 337.97 -1.69018 1.54808 0
M  V30 3373 C 338.97 -1.55037 0.426652 0
M  V30 3374 O 340.16 -1.59932 0.690456 0
M  V30 3375 C 337.292 -3.0835 1.45371 0
M  V30 3376 H 338.485 -1.62403 2.52121 0
M  V30 3377 H 336.038 -0.814626 1.33392 0
M  V30 3378 H 336.773 -3.20534 0.492793 0
M  V30 3379 H 336.558 -3.19907 2.26721 0
M  V30 3380 H 338.048 -3.8788 1.54721 0
M  V30 3381 N 338.485 -1.33259 -0.841409 0
M  V30 3382 C 339.731 -1.24757 -1.59886 0
M  V30 3383 C 340.064 0.186913 -1.93298 0
M  V30 3384 O 339.339 1.12757 -1.5848 0
M  V30 3385 C 339.622 -2.12036 -2.91055 0
M  V30 3386 C 339.475 -3.63929 -2.6434 0
M  V30 3387 C 340.794 -1.9916 -3.92458 0
M  V30 3388 H 337.913 -0.454542 -0.580138 0
M  V30 3389 H 340.555 -1.63335 -0.970647 0
M  V30 3390 H 338.705 -1.79265 -3.44669 0
M  V30 3391 H 340.377 -4.06978 -2.17178 0
M  V30 3392 H 338.62 -3.85935 -1.98082 0
M  V30 3393 H 339.291 -4.20341 -3.57796 0
M  V30 3394 H 341.767 -2.27895 -3.48143 0
M  V30 3395 H 340.643 -2.62484 -4.82072 0
M  V30 3396 H 340.904 -0.963082 -4.31482 0
M  V30 3397 N 339.963 1.05934 -1.16686 0
M  V30 3398 C 340.91 2.13499 -0.876748 0
M  V30 3399 C 341.88 1.65162 0.176299 0
M  V30 3400 O 343.065 1.90757 0.0407143 0
M  V30 3401 C 340.205 3.42912 -0.387967 0
M  V30 3402 C 339.318 4.04964 -1.50426 0
M  V30 3403 C 338.453 5.22266 -0.970125 0
M  V30 3404 C 337.492 5.76309 -2.06238 0
M  V30 3405 N 336.629 6.84922 -1.54356 0
M  V30 3406 H 341.469 2.37654 -1.7979 0
M  V30 3407 H 339.006 1.16598 -0.896843 0
M  V30 3408 H 340.964 4.17111 -0.086186 0
M  V30 3409 H 339.594 3.18963 0.496235 0
M  V30 3410 H 338.646 3.28277 -1.92193 0
M  V30 3411 H 339.958 4.41122 -2.32836 0
M  V30 3412 H 339.112 6.03506 -0.621743 0
M  V30 3413 H 337.851 4.87564 -0.115377 0
M  V30 3414 H 336.856 4.93704 -2.41942 0
M  V30 3415 H 338.081 6.13062 -2.92115 0
M  V30 3416 H 336.027 6.52131 -0.711406 0
M  V30 3417 H 335.944 7.20043 -2.30379 0
M  V30 3418 H 337.212 7.69832 -1.22387 0
M  V30 3419 N 341.441 0.965919 1.2453 0
M  V30 3420 C 342.688 0.626831 1.92554 0
M  V30 3421 C 343.016 -0.837739 1.75534 0
M  V30 3422 O 342.271 -1.61793 1.10098 0
M  V30 3423 C 342.57 0.945428 3.44669 0
M  V30 3424 C 342.236 2.39785 3.81856 0
M  V30 3425 C 340.898 2.79483 3.91718 0
M  V30 3426 C 343.25 3.34055 4.00071 0
M  V30 3427 C 340.578 4.12496 4.1721 0
M  V30 3428 C 342.93 4.66694 4.27059 0
M  V30 3429 C 341.594 5.06172 4.3514 0
M  V30 3430 H 340.864 0.229374 0.704605 0
M  V30 3431 H 343.511 1.21707 1.4785 0
M  V30 3432 H 341.816 0.272926 3.90848 0
M  V30 3433 H 343.513 0.661484 3.95507 0
M  V30 3434 H 340.103 2.08003 3.74743 0
M  V30 3435 H 344.287 3.04571 3.91855 0
M  V30 3436 H 339.543 4.42709 4.21685 0
M  V30 3437 H 343.717 5.3971 4.40097 0
M  V30 3438 H 341.344 6.09262 4.54646 0
M  V30 3439 N 342.919 -1.39368 0.735821 0
M  V30 3440 C 343.882 -2.2896 0.104874 0
M  V30 3441 C 344.882 -1.46347 -0.666274 0
M  V30 3442 O 346.072 -1.67014 -0.49517 0
M  V30 3443 C 343.204 -3.29857 -0.860656 0
M  V30 3444 H 344.397 -2.86259 0.894205 0
M  V30 3445 H 341.95 -1.48029 0.501704 0
M  V30 3446 H 342.685 -2.77615 -1.67631 0
M  V30 3447 H 342.47 -3.9087 -0.310327 0
M  V30 3448 H 343.96 -3.96893 -1.29867 0
M  V30 3449 N 344.397 -0.483516 -1.5 0
M  V30 3450 C 345.674 0.129337 -1.95172 0
M  V30 3451 C 346.054 1.55802 -1.4244 0
M  V30 3452 O 345.402 2.19625 -0.630649 0
M  V30 3453 C 345.612 0.0599251 -3.48949 0
M  V30 3454 C 346.96 0.242617 -4.23906 0
M  V30 3455 O 347.984 0.135933 -3.55941 0
M  V30 3456 O 346.843 0.459454 -5.44565 0
M  V30 3457 H 343.937 0.104887 -0.820322 0
M  V30 3458 H 346.483 -0.544807 -1.60717 0
M  V30 3459 H 345.255 -0.937079 -3.79914 0
M  V30 3460 H 344.878 0.774984 -3.89974 0
M  V30 3461 N 345.875 1.56104 -0.216619 0
M  V30 3462 C 346.838 2.18819 0.681962 0
M  V30 3463 C 347.838 1.14866 1.12528 0
M  V30 3464 O 349.028 1.40128 1.03488 0
M  V30 3465 C 346.16 2.80756 1.93362 0
M  V30 3466 H 347.353 2.99595 0.135254 0
M  V30 3467 H 344.906 1.56265 0.0330003 0
M  V30 3468 H 345.641 2.03837 2.52232 0
M  V30 3469 H 345.426 3.56876 1.62426 0
M  V30 3470 H 346.916 3.28844 2.57393 0
M  V30 3471 N 347.353 -0.0568162 1.57498 0
M  V30 3472 C 348.283 -1.06593 2.0775 0
M  V30 3473 C 349.264 -1.39448 0.974082 0
M  V30 3474 O 350.449 -1.48815 1.24771 0
M  V30 3475 C 347.579 -2.37509 2.5339 0
M  V30 3476 C 346.533 -2.1897 3.67745 0
M  V30 3477 C 345.859 -3.55402 3.99492 0
M  V30 3478 C 347.159 -1.59859 4.97235 0
M  V30 3479 H 348.853 -0.647706 2.9231 0
M  V30 3480 H 346.399 -0.310116 1.40621 0
M  V30 3481 H 348.352 -3.08409 2.87162 0
M  V30 3482 H 347.076 -2.8134 1.65878 0
M  V30 3483 H 345.735 -1.50508 3.3428 0
M  V30 3484 H 345.383 -3.9683 3.09088 0
M  V30 3485 H 345.083 -3.43831 4.76502 0
M  V30 3486 H 346.607 -4.27708 4.35773 0
M  V30 3487 H 348.021 -2.20642 5.29141 0
M  V30 3488 H 346.418 -1.58942 5.78669 0
M  V30 3489 H 347.488 -0.561506 4.81638 0
M  V30 3490 N 348.832 -1.54138 -0.328536 0
M  V30 3491 C 350.08 -1.71765 -1.06496 0
M  V30 3492 C 350.401 -0.49149 -1.88704 0
M  V30 3493 O 349.671 0.494539 -1.89555 0
M  V30 3494 H 348.251 -0.633295 -0.396164 0
M  V30 3495 H 350.913 -1.91429 -0.366176 0
M  V30 3496 H 350.009 -2.5951 -1.73381 0
M  V30 3497 N 350.31 0.590341 -1.46126 0
M  V30 3498 C 351.558 1.34616 -1.50742 0
M  V30 3499 C 351.879 1.94363 -0.157486 0
M  V30 3500 O 351.149 1.78136 0.815136 0
M  V30 3501 H 349.729 0.499789 -0.555175 0
M  V30 3502 H 352.391 0.691953 -1.82203 0
M  V30 3503 H 351.487 2.15678 -2.25587 0
M  V30 3504 N 351.788 1.33704 0.83433 0
M  V30 3505 C 352.751 1.24244 1.92603 0
M  V30 3506 C 353.751 0.160383 1.59998 0
M  V30 3507 O 354.941 0.412228 1.69252 0
M  V30 3508 C 352.073 0.91555 3.28376 0
M  V30 3509 H 353.266 2.21287 2.02416 0
M  V30 3510 H 350.819 1.17827 1.02696 0
M  V30 3511 H 351.554 -0.0521886 3.24258 0
M  V30 3512 H 351.339 1.69811 3.53422 0
M  V30 3513 H 352.829 0.874231 4.08347 0
M  V30 3514 N 353.266 -1.05314 1.17247 0
M  V30 3515 C 354.512 -1.78557 0.961513 0
M  V30 3516 C 354.845 -1.87419 -0.508697 0
M  V30 3517 O 354.12 -1.37307 -1.37757 0
M  V30 3518 C 354.403 -3.22514 1.60176 0
M  V30 3519 C 354.256 -3.21673 3.14399 0
M  V30 3520 C 355.575 -4.20318 1.30463 0
M  V30 3521 H 352.694 -0.6482 0.350723 0
M  V30 3522 H 355.336 -1.23102 1.44727 0
M  V30 3523 H 353.486 -3.69867 1.18871 0
M  V30 3524 H 355.158 -2.82405 3.64753 0
M  V30 3525 H 353.401 -2.60048 3.47214 0
M  V30 3526 H 354.072 -4.23271 3.54324 0
M  V30 3527 H 356.548 -3.81454 1.66229 0
M  V30 3528 H 355.424 -5.19289 1.77848 0
M  V30 3529 H 355.685 -4.41526 0.22521 0
M  V30 3530 N 354.744 -0.972509 -1.24016 0
M  V30 3531 C 355.707 -0.511403 -2.23422 0
M  V30 3532 C 356.707 0.394679 -1.55881 0
M  V30 3533 O 357.897 0.189469 -1.73167 0
M  V30 3534 C 355.029 0.258769 -3.39916 0
M  V30 3535 H 356.222 -1.39024 -2.6573 0
M  V30 3536 H 353.775 -0.757585 -1.36713 0
M  V30 3537 H 354.51 1.1545 -3.03054 0
M  V30 3538 H 354.295 -0.391522 -3.9014 0
M  V30 3539 H 355.785 0.570244 -4.13688 0
M  V30 3540 N 356.222 1.38976 -0.743202 0
M  V30 3541 C 357.45 2.04636 -0.30525 0
M  V30 3542 C 357.865 1.56044 1.06281 0
M  V30 3543 O 357.222 0.728921 1.67311 0
M  V30 3544 C 357.273 3.60193 -0.307177 0
M  V30 3545 O 356.994 4.06998 -1.62124 0
M  V30 3546 C 358.495 4.4306 0.145928 0
M  V30 3547 H 355.715 0.65788 -0.132041 0
M  V30 3548 H 358.259 1.77866 -1.00915 0
M  V30 3549 H 356.414 3.85835 0.347898 0
M  V30 3550 H 356.828 5.01371 -1.54036 0
M  V30 3551 H 358.302 5.51921 0.0934183 0
M  V30 3552 H 358.779 4.22706 1.19231 0
M  V30 3553 H 359.385 4.22584 -0.479886 0
M  V30 3554 N 357.7 0.491464 1.49741 0
M  V30 3555 C 358.633 -0.338464 2.25676 0
M  V30 3556 C 359.611 -0.978676 1.29849 0
M  V30 3557 O 360.795 -1.01064 1.59117 0
M  V30 3558 C 357.922 -1.47588 3.04853 0
M  V30 3559 C 356.968 -0.951 4.15762 0
M  V30 3560 S 357.801 0.150626 5.35288 0
M  V30 3561 C 358.957 -0.990178 6.18018 0
M  V30 3562 H 359.19 0.306068 2.9572 0
M  V30 3563 H 356.723 0.276622 1.51902 0
M  V30 3564 H 358.681 -2.12764 3.51058 0
M  V30 3565 H 357.342 -2.09199 2.34296 0
M  V30 3566 H 356.535 -1.80311 4.70642 0
M  V30 3567 H 356.137 -0.376607 3.72099 0
M  V30 3568 H 358.429 -1.89748 6.50386 0
M  V30 3569 H 359.372 -0.480205 7.0647 0
M  V30 3570 H 359.78 -1.25321 5.50413 0
M  V30 3571 N 359.178 -1.55987 0.224894 0
M  V30 3572 C 360.141 -2.19178 -0.670348 0
M  V30 3573 C 361.141 -1.15461 -1.11917 0
M  V30 3574 O 362.331 -1.40675 -1.02743 0
M  V30 3575 C 359.463 -2.81777 -1.9187 0
M  V30 3576 H 360.656 -2.99662 -0.119364 0
M  V30 3577 H 358.209 -1.5628 -0.0247128 0
M  V30 3578 H 358.944 -2.05172 -2.51147 0
M  V30 3579 H 358.729 -3.57732 -1.60531 0
M  V30 3580 H 360.219 -3.30205 -2.55645 0
M  V30 3581 N 360.656 0.0484629 -1.57525 0
M  V30 3582 C 361.619 1.03956 -2.04269 0
M  V30 3583 C 362.619 1.30211 -0.943496 0
M  V30 3584 O 363.809 1.25539 -1.20771 0
M  V30 3585 C 360.941 2.37742 -2.44319 0
M  V30 3586 H 362.134 0.636182 -2.93075 0
M  V30 3587 H 359.687 0.294811 -1.53494 0
M  V30 3588 H 360.422 2.82866 -1.5861 0
M  V30 3589 H 360.207 2.20021 -3.24551 0
M  V30 3590 H 361.697 3.08936 -2.80978 0
M  V30 3591 N 362.134 1.5431 0.320358 0
M  V30 3592 C 363.097 1.83195 1.3774 0
M  V30 3593 C 364.097 0.703906 1.44575 0
M  V30 3594 O 365.287 0.972214 1.44546 0
M  V30 3595 C 362.419 1.99487 2.76438 0
M  V30 3596 H 363.612 2.77642 1.1338 0
M  V30 3597 H 361.165 1.46076 0.556012 0
M  V30 3598 H 361.9 1.07262 3.06048 0
M  V30 3599 H 361.685 2.81575 2.7287 0
M  V30 3600 H 363.175 2.23271 3.52902 0
M  V30 3601 N 363.613 -0.582584 1.46437 0
M  V30 3602 C 364.56 -1.69164 1.5701 0
M  V30 3603 C 365.53 -1.60847 0.414403 0
M  V30 3604 O 366.715 -1.80058 0.631171 0
M  V30 3605 C 363.855 -3.075 1.56646 0
M  V30 3606 C 362.968 -3.2644 2.82951 0
M  V30 3607 C 362.103 -4.55026 2.7409 0
M  V30 3608 C 361.142 -4.6731 3.95333 0
M  V30 3609 N 360.279 -5.87221 3.84858 0
M  V30 3610 H 365.119 -1.59464 2.51744 0
M  V30 3611 H 362.656 -0.777186 1.24893 0
M  V30 3612 H 364.614 -3.8757 1.5442 0
M  V30 3613 H 363.244 -3.16096 0.654439 0
M  V30 3614 H 362.296 -2.39974 2.95155 0
M  V30 3615 H 363.608 -3.31385 3.72808 0
M  V30 3616 H 362.762 -5.43324 2.6997 0
M  V30 3617 H 361.501 -4.52519 1.81873 0
M  V30 3618 H 360.506 -3.77429 3.99784 0
M  V30 3619 H 361.731 -4.71595 4.88646 0
M  V30 3620 H 359.677 -5.85712 2.95427 0
M  V30 3621 H 359.594 -5.93435 4.6837 0
M  V30 3622 H 360.862 -6.7795 3.84713 0
M  V30 3623 N 365.091 -1.34144 -0.827227 0
M  V30 3624 C 366.316 -1.29476 -1.62021 0
M  V30 3625 C 366.741 0.129292 -1.87655 0
M  V30 3626 O 366.099 1.08967 -1.449 0
M  V30 3627 C 366.147 -2.08702 -2.94068 0
M  V30 3628 O 365.251 -1.45359 -3.85933 0
M  V30 3629 H 364.592 -0.444881 -0.492927 0
M  V30 3630 H 367.122 -1.76882 -1.02829 0
M  V30 3631 H 367.132 -2.19898 -3.43669 0
M  V30 3632 H 365.807 -3.12241 -2.74734 0
M  V30 3633 H 364.384 -1.42879 -3.44442 0
M  V30 3634 N 366.569 1.04691 -1.17803 0
M  V30 3635 C 367.816 1.77782 -0.969532 0
M  V30 3636 C 368.144 1.87926 0.501401 0
M  V30 3637 O 367.399 1.37918 1.38842 0
M  V30 3638 C 367.698 3.21467 -1.56186 0
M  V30 3639 C 367.364 3.3137 -3.05786 0
M  V30 3640 C 366.026 3.3378 -3.46619 0
M  V30 3641 C 368.378 3.31976 -4.01797 0
M  V30 3642 C 365.706 3.34431 -4.82051 0
M  V30 3643 C 368.058 3.34167 -5.37136 0
M  V30 3644 C 366.722 3.34866 -5.77426 0
M  V30 3645 H 365.992 0.650549 -0.354777 0
M  V30 3646 H 368.639 1.23006 -1.46772 0
M  V30 3647 H 366.944 3.79203 -0.985515 0
M  V30 3648 H 368.641 3.76652 -1.37602 0
M  V30 3649 H 365.231 3.3021 -2.73238 0
M  V30 3650 H 369.415 3.29311 -3.71306 0
M  V30 3651 H 364.671 3.33285 -5.12573 0
M  V30 3652 H 368.845 3.33585 -6.11305 0
M  V30 3653 H 366.472 3.35124 -6.82346 0
M  V30 3654 N 368.047 0.979072 1.23499 0
M  V30 3655 C 369.294 0.647219 1.91878 0
M  V30 3656 C 369.622 -0.819074 1.76413 0
M  V30 3657 O 368.877 -1.60616 1.11808 0
M  V30 3658 C 369.176 0.981932 3.43646 0
M  V30 3659 C 368.842 2.43822 3.79291 0
M  V30 3660 C 367.504 2.83622 3.88731 0
M  V30 3661 C 369.856 3.3828 3.96505 0
M  V30 3662 C 367.184 4.16897 4.12812 0
M  V30 3663 C 369.536 4.71197 4.22085 0
M  V30 3664 C 368.2 5.10758 4.29747 0
M  V30 3665 H 367.47 0.236834 0.702133 0
M  V30 3666 H 370.117 1.23268 1.46551 0
M  V30 3667 H 368.422 0.314365 3.90537 0
M  V30 3668 H 370.119 0.703395 3.94783 0
M  V30 3669 H 366.709 2.11966 3.72516 0
M  V30 3670 H 370.893 3.0871 3.88603 0
M  V30 3671 H 366.149 4.47157 4.16966 0
M  V30 3672 H 370.323 5.44348 4.34348 0
M  V30 3673 H 367.95 6.1405 4.48159 0
M  V30 3674 N 369.525 -1.3858 0.750561 0
M  V30 3675 C 370.936 -1.82927 0.373438 0
M  V30 3676 C 371.287 -1.62634 -1.09748 0
M  V30 3677 O 370.412 -1.12588 -1.84805 0
M  V30 3678 C 371.007 -3.32088 0.671029 0
M  V30 3679 C 369.566 -3.74795 0.34722 0
M  V30 3680 C 368.713 -2.61391 0.92575 0
M  V30 3681 H 371.664 -1.27351 0.946958 0
M  V30 3682 H 371.685 -3.80465 -0.0518269 0
M  V30 3683 H 371.197 -3.46826 1.74164 0
M  V30 3684 H 369.298 -3.65638 -0.716933 0
M  V30 3685 H 369.411 -4.71667 0.840656 0
M  V30 3686 H 367.775 -2.52265 0.351327 0
M  V30 3687 H 368.558 -2.78929 2.00133 0
M  V30 3688 N 371.003 -0.499398 -1.49478 0
M  V30 3689 C 371.913 0.284489 -2.32869 0
M  V30 3690 C 372.929 0.968885 -1.44529 0
M  V30 3691 O 374.105 0.95062 -1.77553 0
M  V30 3692 C 371.17 1.33594 -3.19928 0
M  V30 3693 C 370.231 0.665149 -4.24116 0
M  V30 3694 C 369.464 1.6665 -5.07014 0
M  V30 3695 O 369.687 2.89618 -4.91404 0
M  V30 3696 O 368.621 1.22271 -5.8935 0
M  V30 3697 H 372.447 -0.39802 -3.01081 0
M  V30 3698 H 370.032 -0.260758 -1.47107 0
M  V30 3699 H 371.914 1.94431 -3.73864 0
M  V30 3700 H 370.589 2.0014 -2.54412 0
M  V30 3701 H 369.496 0.0170769 -3.74096 0
M  V30 3702 H 370.829 0.0421555 -4.92182 0
M  V30 3703 N 372.481 1.55866 -0.233164 0
M  V30 3704 C 373.391 2.24431 0.683217 0
M  V30 3705 C 374.407 1.2558 1.2044 0
M  V30 3706 O 375.583 1.58422 1.24356 0
M  V30 3707 C 372.648 2.91979 1.86947 0
M  V30 3708 C 371.709 4.06204 1.38912 0
M  V30 3709 C 370.942 4.70522 2.51883 0
M  V30 3710 O 371.165 4.33865 3.70293 0
M  V30 3711 O 370.099 5.59296 2.22423 0
M  V30 3712 H 373.925 3.03426 0.129059 0
M  V30 3713 H 371.51 1.494 -0.0022283 0
M  V30 3714 H 373.392 3.34573 2.56201 0
M  V30 3715 H 372.067 2.15935 2.41151 0
M  V30 3716 H 370.974 3.68155 0.664259 0
M  V30 3717 H 372.307 4.84025 0.893328 0
M  V30 3718 N 373.959 -0.0401083 1.57549 0
M  V30 3719 C 374.907 -1.06264 2.06908 0
M  V30 3720 C 375.901 -1.38132 0.980608 0
M  V30 3721 O 377.107 -1.37167 1.16556 0
M  V30 3722 H 373.482 -0.360166 0.660139 0
M  V30 3723 H 375.453 -0.620445 2.91878 0
M  V30 3724 C 374.202 -2.35846 2.55483 0
M  V30 3725 H 373.525 -2.12183 3.38849 0
M  V30 3726 H 374.965 -3.05765 2.93741 0
M  V30 3727 C 373.424 -3.0404 1.45126 0
M  V30 3728 O 373.954 -3.93424 0.811216 0
M  V30 3729 N 372.16 -2.65184 1.18852 0
M  V30 3730 H 371.707 -1.92584 1.71083 0
M  V30 3731 H 371.665 -3.1113 0.452244 0
M  V30 3732 N 375.437 -1.54477 -0.31217 0
M  V30 3733 C 376.848 -1.64344 -0.885891 0
M  V30 3734 C 377.199 -0.54485 -1.88483 0
M  V30 3735 O 376.324 0.320387 -2.14015 0
M  V30 3736 C 376.919 -2.97908 -1.61357 0
M  V30 3737 C 375.478 -3.09933 -2.13585 0
M  V30 3738 C 374.625 -2.59971 -0.964897 0
M  V30 3739 H 377.576 -1.58448 -0.0894528 0
M  V30 3740 H 377.597 -2.88706 -2.47848 0
M  V30 3741 H 377.109 -3.77845 -0.886277 0
M  V30 3742 H 375.21 -2.34694 -2.89395 0
M  V30 3743 H 375.323 -4.15916 -2.37804 0
M  V30 3744 H 373.687 -2.16147 -1.34731 0
M  V30 3745 H 374.47 -3.42376 -0.251742 0
M  V30 3746 N 376.915 0.57481 -1.46744 0
M  V30 3747 C 377.865 1.67838 -1.54319 0
M  V30 3748 C 378.849 1.55759 -0.40346 0
M  V30 3749 O 380.041 1.6454 -0.652347 0
M  V30 3750 C 377.17 3.06624 -1.5439 0
M  V30 3751 C 376.256 3.23971 -2.73685 0
M  V30 3752 N 376.647 3.11447 -3.9854 0
M  V30 3753 C 374.945 3.5493 -2.70075 0
M  V30 3754 C 375.646 3.31011 -4.78337 0
M  V30 3755 N 374.622 3.56533 -4.10348 0
M  V30 3756 H 378.424 1.56698 -2.48642 0
M  V30 3757 H 375.938 0.779071 -1.42493 0
M  V30 3758 H 377.935 3.85839 -1.57905 0
M  V30 3759 H 376.595 3.1889 -0.611493 0
M  V30 3760 H 377.606 2.89145 -4.29669 0
M  V30 3761 H 374.283 3.73832 -1.85893 0
M  V30 3762 H 375.673 3.26445 -5.87268 0
M  V30 3763 N 378.394 1.34581 0.820102 0
M  V30 3764 C 379.624 1.29991 1.6058 0
M  V30 3765 C 380.032 -0.127588 1.88769 0
M  V30 3766 O 379.375 -1.08595 1.48165 0
M  V30 3767 C 379.437 2.02548 2.9701 0
M  V30 3768 C 379.101 3.51794 2.91701 0
M  V30 3769 C 380.098 4.46647 2.66087 0
M  V30 3770 C 377.783 3.94249 3.11245 0
M  V30 3771 C 379.777 5.81929 2.60071 0
M  V30 3772 C 377.464 5.2963 3.04853 0
M  V30 3773 C 378.462 6.23282 2.793 0
M  V30 3774 O 378.15 7.56181 2.72847 0
M  V30 3775 H 377.882 0.448539 0.505756 0
M  V30 3776 H 380.436 1.77811 1.02822 0
M  V30 3777 H 378.666 1.49345 3.56697 0
M  V30 3778 H 380.355 1.91211 3.58041 0
M  V30 3779 H 381.121 4.15168 2.5072 0
M  V30 3780 H 377 3.21749 3.30149 0
M  V30 3781 H 380.544 6.54999 2.40046 0
M  V30 3782 H 376.441 5.60727 3.19774 0
M  V30 3783 H 377.209 7.6595 2.88553 0
M  V30 3784 N 379.872 -1.04064 1.18357 0
M  V30 3785 C 381.121 -1.76662 0.973313 0
M  V30 3786 C 381.434 -1.89154 -0.497991 0
M  V30 3787 O 382.64 -2.58606 -0.826762 0
M  V30 3788 C 381.096 -3.17624 1.69242 0
M  V30 3789 C 380.704 -3.13225 3.20303 0
M  V30 3790 C 382.448 -3.946 1.56497 0
M  V30 3791 C 380.355 -4.49046 3.84853 0
M  V30 3792 H 379.285 -0.662214 0.36054 0
M  V30 3793 H 381.936 -1.16553 1.41731 0
M  V30 3794 H 380.318 -3.78129 1.1762 0
M  V30 3795 H 381.492 -2.62172 3.78949 0
M  V30 3796 H 379.807 -2.49749 3.33189 0
M  V30 3797 H 382.404 -4.95042 2.02084 0
M  V30 3798 H 382.747 -4.13074 0.517243 0
M  V30 3799 H 383.28 -3.4067 2.05399 0
M  V30 3800 H 380.019 -4.35777 4.89672 0
M  V30 3801 H 379.539 -5.00203 3.30994 0
M  V30 3802 H 381.218 -5.17961 3.87718 0
M  V30 3803 N 381.35 -0.985608 -1.22978 0
M  V30 3804 C 382.598 -0.656087 -1.91154 0
M  V30 3805 C 382.919 0.813561 -1.77218 0
M  V30 3806 O 382.189 1.58244 -1.1548 0
M  V30 3807 H 380.769 -0.239674 -0.707506 0
M  V30 3808 H 383.431 -1.25054 -1.49491 0
M  V30 3809 H 382.527 -0.912253 -2.9847 0
M  V30 3810 N 382.828 1.3818 -0.7579 0
M  V30 3811 C 384.056 2.04301 -0.326937 0
M  V30 3812 C 384.471 1.57163 1.0462 0
M  V30 3813 O 383.828 0.746626 1.66529 0
M  V30 3814 C 383.879 3.59846 -0.345363 0
M  V30 3815 O 383.6 4.05256 -1.66432 0
M  V30 3816 C 385.101 4.4319 0.098927 0
M  V30 3817 H 382.321 0.656443 -0.139012 0
M  V30 3818 H 384.865 1.76786 -1.02796 0
M  V30 3819 H 383.02 3.86182 0.306955 0
M  V30 3820 H 383.434 4.99709 -1.59345 0
M  V30 3821 H 384.908 5.51989 0.0348745 0
M  V30 3822 H 385.385 4.23947 1.14741 0
M  V30 3823 H 385.991 4.22051 -0.52468 0
M  V30 3824 N 384.306 0.507319 1.49211 0
M  V30 3825 C 385.531 -0.033725 2.07373 0
M  V30 3826 C 385.956 -1.29485 1.36437 0
M  V30 3827 O 385.314 -1.76294 0.423087 0
M  V30 3828 C 385.362 -0.263945 3.59633 0
M  V30 3829 O 384.466 -1.33737 3.90113 0
M  V30 3830 H 383.807 0.0290331 0.663365 0
M  V30 3831 H 386.337 0.708749 1.91932 0
M  V30 3832 H 386.347 -0.493536 4.05004 0
M  V30 3833 H 385.022 0.657424 4.10671 0
M  V30 3834 H 383.599 -1.09224 3.56545 0
M  V30 3835 N 385.784 -1.5574 0.241426 0
M  V30 3836 C 387.03 -1.99846 -0.378555 0
M  V30 3837 C 387.385 -1.12665 -1.55963 0
M  V30 3838 O 386.678 -0.180966 -1.90743 0
M  V30 3839 C 386.872 -3.47308 -0.843317 0
M  V30 3840 C 386.701 -4.48756 0.291178 0
M  V30 3841 C 385.471 -4.9949 0.764077 0
M  V30 3842 C 387.669 -5.02039 1.11631 0
M  V30 3843 N 385.651 -5.84676 1.87156 0
M  V30 3844 C 387.022 -5.84343 2.07226 0
M  V30 3845 C 389.077 -4.84354 1.15349 0
M  V30 3846 C 387.78 -6.50851 3.06245 0
M  V30 3847 C 389.806 -5.51636 2.13195 0
M  V30 3848 C 389.168 -6.33724 3.07528 0
M  V30 3849 H 385.267 -0.774968 -0.104634 0
M  V30 3850 H 387.851 -1.91385 0.357751 0
M  V30 3851 H 386.022 -3.56178 -1.54893 0
M  V30 3852 H 387.754 -3.78299 -1.43779 0
M  V30 3853 H 384.509 -4.72311 0.349175 0
M  V30 3854 H 384.933 -6.31967 2.42789 0
M  V30 3855 H 389.575 -4.20525 0.438057 0
M  V30 3856 H 387.293 -7.1385 3.78739 0
M  V30 3857 H 390.879 -5.39909 2.16771 0
M  V30 3858 H 389.759 -6.84867 3.82003 0
M  V30 3859 N 387.262 0.0317525 -1.57568 0
M  V30 3860 C 388.51 0.721676 -1.88776 0
M  V30 3861 C 388.831 1.76039 -0.838772 0
M  V30 3862 O 388.101 1.95482 0.127935 0
M  V30 3863 H 386.681 0.269534 -0.696678 0
M  V30 3864 H 389.343 -0.00165879 -1.949 0
M  V30 3865 H 388.439 1.21293 -2.87566 0
M  V30 3866 N 388.74 1.54641 0.303973 0
M  V30 3867 C 389.65 1.88439 1.39743 0
M  V30 3868 C 390.666 0.778239 1.55626 0
M  V30 3869 O 391.842 1.07442 1.70347 0
M  V30 3870 C 388.907 2.12212 2.74166 0
M  V30 3871 C 387.968 3.35936 2.67293 0
M  V30 3872 C 387.201 3.58566 3.95305 0
M  V30 3873 O 387.424 2.84263 4.9452 0
M  V30 3874 O 386.358 4.52078 3.97378 0
M  V30 3875 H 390.184 2.81458 1.14083 0
M  V30 3876 H 387.769 1.40793 0.499768 0
M  V30 3877 H 389.651 2.29067 3.53704 0
M  V30 3878 H 388.326 1.22379 2.99675 0
M  V30 3879 H 387.233 3.24448 1.86237 0
M  V30 3880 H 388.566 4.2589 2.46736 0
M  V30 3881 N 390.218 -0.567019 1.47046 0
M  V30 3882 C 391.464 -1.32658 1.53394 0
M  V30 3883 C 391.797 -1.93254 0.19148 0
M  V30 3884 O 391.072 -1.77338 -0.798844 0
M  V30 3885 C 391.355 -2.44412 2.64452 0
M  V30 3886 C 391.208 -1.88749 4.08282 0
M  V30 3887 C 392.527 -3.46387 2.71485 0
M  V30 3888 H 389.646 -0.48098 0.558415 0
M  V30 3889 H 392.288 -0.635481 1.79058 0
M  V30 3890 H 390.438 -3.03363 2.427 0
M  V30 3891 H 392.11 -1.34134 4.41368 0
M  V30 3892 H 390.353 -1.19481 4.17021 0
M  V30 3893 H 391.024 -2.69491 4.81745 0
M  V30 3894 H 393.5 -2.9734 2.91081 0
M  V30 3895 H 392.376 -4.2202 3.50985 0
M  V30 3896 H 392.637 -4.04616 1.78153 0
M  V30 3897 N 391.696 -1.35014 -0.812953 0
M  V30 3898 C 392.921 -1.31187 -1.60639 0
M  V30 3899 C 393.346 0.109382 -1.87782 0
M  V30 3900 O 392.704 1.07424 -1.46047 0
M  V30 3901 C 392.752 -2.11809 -2.91838 0
M  V30 3902 O 391.856 -1.49444 -3.8437 0
M  V30 3903 H 391.197 -0.450084 -0.488181 0
M  V30 3904 H 393.727 -1.77963 -1.00947 0
M  V30 3905 H 393.737 -2.23531 -3.41318 0
M  V30 3906 H 392.412 -3.15137 -2.71407 0
M  V30 3907 H 390.989 -1.46524 -3.42907 0
M  V30 3908 N 393.175 1.03435 -1.18907 0
M  V30 3909 C 394.405 1.8012 -1.01195 0
M  V30 3910 C 394.813 1.8395 0.442613 0
M  V30 3911 O 394.156 1.27836 1.31923 0
M  V30 3912 C 394.218 3.26792 -1.49823 0
M  V30 3913 C 393.882 3.46609 -2.97844 0
M  V30 3914 C 394.879 3.37278 -3.95651 0
M  V30 3915 C 392.564 3.73001 -3.36416 0
M  V30 3916 C 394.558 3.54054 -5.30023 0
M  V30 3917 C 392.245 3.89423 -4.70949 0
M  V30 3918 C 393.243 3.79951 -5.67562 0
M  V30 3919 O 392.931 3.95895 -6.99659 0
M  V30 3920 H 392.663 0.573865 -0.357289 0
M  V30 3921 H 395.217 1.31207 -1.58031 0
M  V30 3922 H 393.447 3.76703 -0.873578 0
M  V30 3923 H 395.136 3.85055 -1.28404 0
M  V30 3924 H 395.902 3.16846 -3.67197 0
M  V30 3925 H 391.781 3.79469 -2.61772 0
M  V30 3926 H 395.325 3.46577 -6.05417 0
M  V30 3927 H 391.222 4.09351 -4.99101 0
M  V30 3928 H 391.99 4.13019 -7.06653 0
M  V30 3929 N 394.653 0.992116 1.22453 0
M  V30 3930 C 396.064 0.702776 1.72968 0
M  V30 3931 C 396.415 -0.780399 1.80012 0
M  V30 3932 O 395.54 -1.61007 1.44589 0
M  V30 3933 C 396.135 1.26903 3.14135 0
M  V30 3934 C 394.694 1.02909 3.62059 0
M  V30 3935 C 393.841 1.38969 2.39964 0
M  V30 3936 H 396.792 1.16457 1.07812 0
M  V30 3937 H 396.813 0.647223 3.74955 0
M  V30 3938 H 396.325 2.34851 3.08977 0
M  V30 3939 H 394.426 -0.0337979 3.72585 0
M  V30 3940 H 394.539 1.69191 4.48231 0
M  V30 3941 H 392.903 0.808279 2.41535 0
M  V30 3942 H 393.686 2.4792 2.37467 0
M  V30 3943 N 396.131 -1.37776 0.765217 0
M  V30 3944 C 397.379 -1.99454 0.325943 0
M  V30 3945 C 397.7 -1.61049 -1.09947 0
M  V30 3946 O 396.97 -0.872821 -1.75381 0
M  V30 3947 H 395.55 -0.737697 0.117525 0
M  V30 3948 H 398.212 -1.68359 0.981895 0
M  V30 3949 H 397.308 -3.09547 0.398353 0
M  V30 3950 N 397.609 -0.515225 -1.4894 0
M  V30 3951 C 398.855 0.0242508 -2.02785 0
M  V30 3952 C 399.188 1.35323 -1.39289 0
M  V30 3953 O 398.463 1.87041 -0.533469 0
M  V30 3954 C 398.746 0.16184 -3.59736 0
M  V30 3955 C 398.599 -1.19127 -4.33738 0
M  V30 3956 C 399.918 0.895719 -4.30888 0
M  V30 3957 H 397.037 0.00733914 -0.736963 0
M  V30 3958 H 399.679 -0.669395 -1.77818 0
M  V30 3959 H 397.829 0.752624 -3.8114 0
M  V30 3960 H 399.501 -1.82202 -4.23792 0
M  V30 3961 H 397.744 -1.77695 -3.95736 0
M  V30 3962 H 398.415 -1.04815 -5.41957 0
M  V30 3963 H 400.891 0.394528 -4.14225 0
M  V30 3964 H 399.767 0.960859 -5.40425 0
M  V30 3965 H 400.028 1.9427 -3.97129 0
M  V30 3966 N 399.087 1.5561 -0.249682 0
M  V30 3967 C 399.997 2.25143 0.659375 0
M  V30 3968 C 401.013 1.2685 1.19101 0
M  V30 3969 O 402.189 1.59732 1.22669 0
M  V30 3970 C 399.254 2.93945 1.8384 0
M  V30 3971 C 398.315 4.07655 1.34596 0
M  V30 3972 C 397.548 4.73167 2.46878 0
M  V30 3973 O 397.771 4.37768 3.65671 0
M  V30 3974 O 396.705 5.61623 2.16478 0
M  V30 3975 H 400.531 3.03545 0.0968698 0
M  V30 3976 H 398.116 1.49389 -0.018074 0
M  V30 3977 H 399.998 3.37271 2.52638 0
M  V30 3978 H 398.673 2.18481 2.38847 0
M  V30 3979 H 397.58 3.68839 0.625174 0
M  V30 3980 H 398.913 4.84946 0.841941 0
M  V30 3981 N 400.565 -0.0233959 1.57583 0
M  V30 3982 C 401.512 -1.02224 2.06927 0
M  V30 3983 C 402.482 -1.35575 0.959617 0
M  V30 3984 O 403.667 -1.45815 1.23055 0
M  V30 3985 C 400.807 -2.31636 2.5581 0
M  V30 3986 C 399.92 -2.04394 3.80588 0
M  V30 3987 C 399.055 -3.27717 4.18061 0
M  V30 3988 C 398.094 -2.96056 5.3574 0
M  V30 3989 N 397.231 -4.11847 5.68618 0
M  V30 3990 H 402.071 -0.594504 2.9201 0
M  V30 3991 H 399.608 -0.281921 1.44373 0
M  V30 3992 H 401.566 -3.07258 2.82221 0
M  V30 3993 H 400.196 -2.72122 1.73636 0
M  V30 3994 H 399.248 -1.19244 3.61227 0
M  V30 3995 H 400.56 -1.77042 4.66323 0
M  V30 3996 H 399.714 -4.11702 4.4563 0
M  V30 3997 H 398.453 -3.58188 3.30988 0
M  V30 3998 H 397.458 -2.10474 5.07918 0
M  V30 3999 H 398.683 -2.66857 6.24471 0
M  V30 4000 H 396.629 -4.42258 4.84504 0
M  V30 4001 H 396.546 -3.87938 6.48876 0
M  V30 4002 H 397.814 -4.96689 6.00766 0
M  V30 4003 N 402.043 -1.548 -0.295768 0
M  V30 4004 C 403.271 -1.78327 -1.04914 0
M  V30 4005 C 403.686 -0.545316 -1.80753 0
M  V30 4006 O 403.043 0.485013 -1.75937 0
M  V30 4007 C 403.094 -2.99418 -2.02561 0
M  V30 4008 O 402.815 -4.18431 -1.29798 0
M  V30 4009 C 404.316 -3.35375 -2.89895 0
M  V30 4010 H 401.536 -0.594618 -0.310918 0
M  V30 4011 H 404.08 -2.01763 -0.333454 0
M  V30 4012 H 402.235 -2.78175 -2.69624 0
M  V30 4013 H 402.649 -4.86736 -1.95419 0
M  V30 4014 H 404.123 -4.23332 -3.54251 0
M  V30 4015 H 404.6 -2.53761 -3.58472 0
M  V30 4016 H 405.206 -3.58796 -2.28355 0
M  V30 4017 N 403.521 0.559213 -1.47345 0
M  V30 4018 C 404.454 1.68201 -1.5422 0
M  V30 4019 C 405.432 1.57742 -0.394497 0
M  V30 4020 O 406.616 1.78628 -0.60201 0
M  V30 4021 C 403.743 3.0643 -1.44285 0
M  V30 4022 C 402.789 3.3534 -2.63532 0
M  V30 4023 S 403.622 3.24816 -4.25741 0
M  V30 4024 C 404.778 4.65542 -4.18355 0
M  V30 4025 H 405.011 1.62114 -2.49211 0
M  V30 4026 H 402.544 0.739871 -1.35519 0
M  V30 4027 H 404.502 3.86164 -1.3924 0
M  V30 4028 H 403.163 3.09984 -0.506816 0
M  V30 4029 H 402.356 4.36107 -2.52639 0
M  V30 4030 H 401.958 2.63221 -2.65689 0
M  V30 4031 H 404.25 5.56449 -3.86485 0
M  V30 4032 H 405.193 4.81493 -5.19202 0
M  V30 4033 H 405.601 4.43495 -3.49246 0
M  V30 4034 N 404.999 1.35443 0.805782 0
M  V30 4035 C 405.946 1.28431 1.91766 0
M  V30 4036 C 406.916 0.156102 1.65365 0
M  V30 4037 O 408.101 0.339936 1.87747 0
M  V30 4038 C 405.241 1.06301 3.2832 0
M  V30 4039 C 404.354 2.2805 3.66902 0
M  V30 4040 C 403.489 1.99064 4.92491 0
M  V30 4041 C 402.528 3.16863 5.23703 0
M  V30 4042 N 401.665 2.87647 6.40471 0
M  V30 4043 H 406.505 2.23511 1.97096 0
M  V30 4044 H 404.042 1.11105 0.964054 0
M  V30 4045 H 406 0.915012 4.07042 0
M  V30 4046 H 404.63 0.148822 3.22457 0
M  V30 4047 H 403.682 2.53711 2.83434 0
M  V30 4048 H 404.994 3.1601 3.85927 0
M  V30 4049 H 404.148 1.81099 5.7904 0
M  V30 4050 H 402.887 1.0839 4.75503 0
M  V30 4051 H 401.892 3.35404 4.35642 0
M  V30 4052 H 403.117 4.08339 5.4262 0
M  V30 4053 H 401.063 1.99568 6.24907 0
M  V30 4054 H 400.98 3.69141 6.59751 0
M  V30 4055 H 402.248 2.73226 7.30047 0
M  V30 4056 N 406.477 -1.02803 1.19454 0
M  V30 4057 C 407.387 -2.14575 0.948408 0
M  V30 4058 C 408.403 -1.73757 -0.091871 0
M  V30 4059 O 409.579 -2.01185 0.0929654 0
M  V30 4060 C 406.644 -3.43202 0.491265 0
M  V30 4061 C 405.705 -3.98328 1.60103 0
M  V30 4062 C 404.938 -5.20816 1.16561 0
M  V30 4063 O 405.161 -5.70392 0.0295238 0
M  V30 4064 O 404.095 -5.68801 1.96849 0
M  V30 4065 H 407.921 -2.38202 1.88397 0
M  V30 4066 H 405.506 -1.12989 0.977433 0
M  V30 4067 H 407.388 -4.20687 0.245015 0
M  V30 4068 H 406.063 -3.21018 -0.415851 0
M  V30 4069 H 404.97 -3.22174 1.90144 0
M  V30 4070 H 406.303 -4.24879 2.48473 0
M  V30 4071 N 407.956 -0.998596 -1.21925 0
M  V30 4072 C 408.919 -0.558679 -2.22287 0
M  V30 4073 C 409.919 0.361525 -1.56683 0
M  V30 4074 O 411.109 0.152695 -1.73529 0
M  V30 4075 C 408.241 0.18661 -3.40389 0
M  V30 4076 H 409.434 -1.4463 -2.62721 0
M  V30 4077 H 406.987 -0.786413 -1.35075 0
M  V30 4078 H 407.722 1.08996 -3.05435 0
M  V30 4079 H 407.507 -0.474188 -3.89222 0
M  V30 4080 H 408.997 0.482367 -4.14805 0
M  V30 4081 N 409.434 1.37368 -0.772513 0
M  V30 4082 C 410.711 1.93839 -0.26188 0
M  V30 4083 C 411.091 1.7061 1.24319 0
M  V30 4084 O 410.439 1.05534 2.02669 0
M  V30 4085 C 410.649 3.43154 -0.636102 0
M  V30 4086 C 411.997 4.20249 -0.606324 0
M  V30 4087 O 413.021 3.5152 -0.575538 0
M  V30 4088 O 411.88 5.42809 -0.634086 0
M  V30 4089 H 408.974 0.82478 -0.0605555 0
M  V30 4090 H 411.52 1.4665 -0.853917 0
M  V30 4091 H 410.292 3.53647 -1.6748 0
M  V30 4092 H 409.915 3.97596 -0.0170516 0
M  V30 4093 N 410.912 0.523116 1.48665 0
M  V30 4094 C 411.875 -0.232592 2.28017 0
M  V30 4095 C 412.875 -0.874021 1.34972 0
M  V30 4096 O 414.065 -0.735132 1.57929 0
M  V30 4097 C 411.197 -1.33586 3.13636 0
M  V30 4098 H 412.39 0.464008 2.96289 0
M  V30 4099 H 409.943 0.278816 1.53793 0
M  V30 4100 H 410.678 -2.06593 2.4998 0
M  V30 4101 H 410.463 -0.881125 3.82071 0
M  V30 4102 H 411.953 -1.86759 3.73511 0
M  V30 4103 N 412.39 -1.55475 0.257931 0
M  V30 4104 C 413.636 -1.99502 -0.364266 0
M  V30 4105 C 413.969 -1.146 -1.56782 0
M  V30 4106 O 413.244 -0.211968 -1.93342 0
M  V30 4107 C 413.527 -3.51917 -0.763333 0
M  V30 4108 C 413.38 -4.4758 0.446371 0
M  V30 4109 C 414.699 -4.09742 -1.60623 0
M  V30 4110 H 411.818 -0.725277 -0.130929 0
M  V30 4111 H 414.46 -1.8653 0.361446 0
M  V30 4112 H 412.61 -3.63101 -1.38166 0
M  V30 4113 H 414.282 -4.48362 1.08487 0
M  V30 4114 H 412.525 -4.19947 1.08753 0
M  V30 4115 H 413.196 -5.51862 0.123645 0
M  V30 4116 H 415.672 -4.01727 -1.08418 0
M  V30 4117 H 414.548 -5.16631 -1.85429 0
M  V30 4118 H 414.809 -3.58889 -2.58169 0
M  V30 4119 N 413.868 0.0150385 -1.57593 0
M  V30 4120 C 415.117 0.702115 -1.89085 0
M  V30 4121 C 415.43 1.75764 -0.858277 0
M  V30 4122 O 416.636 2.49829 -1.0629 0
M  V30 4123 C 415.092 1.29992 -3.35604 0
M  V30 4124 C 414.7 0.280007 -4.47124 0
M  V30 4125 C 416.444 1.96606 -3.76227 0
M  V30 4126 C 414.351 0.886949 -5.84711 0
M  V30 4127 H 413.281 0.265997 -0.705522 0
M  V30 4128 H 415.932 -0.0430408 -1.8345 0
M  V30 4129 H 414.314 2.09525 -3.36029 0
M  V30 4130 H 415.488 -0.489631 -4.58191 0
M  V30 4131 H 413.803 -0.284835 -4.15425 0
M  V30 4132 H 416.4 2.42893 -4.76347 0
M  V30 4133 H 416.743 2.79024 -3.08952 0
M  V30 4134 H 417.276 1.23828 -3.78036 0
M  V30 4135 H 414.015 0.101876 -6.55421 0
M  V30 4136 H 413.535 1.6261 -5.77337 0
M  V30 4137 H 415.214 1.39011 -6.3189 0
M  V30 4138 N 415.346 1.54954 0.287554 0
M  V30 4139 C 416.309 1.86076 1.33823 0
M  V30 4140 C 417.309 0.734414 1.43049 0
M  V30 4141 O 418.499 1.00266 1.42452 0
M  V30 4142 C 415.631 2.05305 2.72144 0
M  V30 4143 H 416.824 2.79984 1.07465 0
M  V30 4144 H 414.377 1.47223 0.524902 0
M  V30 4145 H 415.112 1.1373 3.03704 0
M  V30 4146 H 414.897 2.873 2.66836 0
M  V30 4147 H 416.387 2.30706 3.48087 0
M  V30 4148 N 416.824 -0.551391 1.4764 0
M  V30 4149 C 417.754 -1.66757 1.63445 0
M  V30 4150 C 418.735 -1.63077 0.483742 0
M  V30 4151 O 419.92 -1.80607 0.71377 0
M  V30 4152 C 417.05 -3.05387 1.65396 0
M  V30 4153 C 416.004 -3.23918 2.79752 0
M  V30 4154 C 415.33 -4.63393 2.66779 0
M  V30 4155 C 416.63 -3.08735 4.21284 0
M  V30 4156 H 418.324 -1.53786 2.56886 0
M  V30 4157 H 415.87 -0.738415 1.23626 0
M  V30 4158 H 417.823 -3.83325 1.75043 0
M  V30 4159 H 416.547 -3.19332 0.685195 0
M  V30 4160 H 415.206 -2.48391 2.69625 0
M  V30 4161 H 414.854 -4.74144 1.67918 0
M  V30 4162 H 414.554 -4.7674 3.43501 0
M  V30 4163 H 416.078 -5.43458 2.78364 0
M  V30 4164 H 417.492 -3.76484 4.32357 0
M  V30 4165 H 415.889 -3.33588 4.98838 0
M  V30 4166 H 416.959 -2.0541 4.39243 0
M  V30 4167 N 418.302 -1.35869 -0.798587 0
M  V30 4168 C 419.265 -1.29307 -1.89242 0
M  V30 4169 C 420.265 -0.202747 -1.59517 0
M  V30 4170 O 421.455 -0.456957 -1.681 0
M  V30 4171 C 418.587 -1.00229 -3.25833 0
M  V30 4172 H 419.78 -2.26576 -1.96478 0
M  V30 4173 H 417.333 -1.20509 -0.995358 0
M  V30 4174 H 418.068 -0.033801 -3.24282 0
M  V30 4175 H 417.853 -1.79121 -3.48795 0
M  V30 4176 H 419.343 -0.98219 -4.05885 0
M  V30 4177 N 419.78 1.02168 -1.19998 0
M  V30 4178 C 421.191 1.57135 -1.00825 0
M  V30 4179 C 421.542 1.91276 0.436818 0
M  V30 4180 O 420.667 1.71679 1.3174 0
M  V30 4181 C 421.262 2.85514 -1.82393 0
M  V30 4182 C 419.821 3.37027 -1.67601 0
M  V30 4183 C 418.968 2.10388 -1.80644 0
M  V30 4184 H 421.919 0.846106 -1.34264 0
M  V30 4185 H 421.94 3.56711 -1.32429 0
M  V30 4186 H 421.452 2.60634 -2.87561 0
M  V30 4187 H 419.553 3.66878 -0.650485 0
M  V30 4188 H 419.666 4.09572 -2.4857 0
M  V30 4189 H 418.03 2.22601 -1.23778 0
M  V30 4190 H 418.813 1.8794 -2.87286 0
M  V30 4191 N 421.258 1.00505 1.21394 0
M  V30 4192 C 422.504 0.688793 1.90745 0
M  V30 4193 C 422.837 -0.778486 1.77914 0
M  V30 4194 O 422.112 -1.56433 1.15581 0
M  V30 4195 C 422.395 1.11063 3.42545 0
M  V30 4196 C 422.248 2.63737 3.64367 0
M  V30 4197 C 423.567 0.673059 4.34923 0
M  V30 4198 H 420.686 0.251702 0.692687 0
M  V30 4199 H 423.328 1.25074 1.43026 0
M  V30 4200 H 421.478 0.632508 3.83317 0
M  V30 4201 H 423.15 3.19313 3.32922 0
M  V30 4202 H 421.393 3.05248 3.08231 0
M  V30 4203 H 422.064 2.88305 4.70727 0
M  V30 4204 H 424.54 1.08392 4.01734 0
M  V30 4205 H 423.416 0.996383 5.39781 0
M  V30 4206 H 423.677 -0.425808 4.40045 0
M  V30 4207 N 422.737 -1.36956 0.779787 0
M  V30 4208 C 423.984 -1.99491 0.347766 0
M  V30 4209 C 424.312 -1.61898 -1.07793 0
M  V30 4210 O 423.567 -0.86071 -1.75756 0
M  V30 4211 C 423.866 -3.54585 0.447686 0
M  V30 4212 C 423.532 -4.1197 1.83279 0
M  V30 4213 C 422.194 -4.27356 2.2118 0
M  V30 4214 C 424.546 -4.43354 2.74019 0
M  V30 4215 C 421.874 -4.71432 3.4924 0
M  V30 4216 C 424.226 -4.88858 4.01497 0
M  V30 4217 C 422.89 -5.0245 4.39432 0
M  V30 4218 H 422.16 -0.729991 0.127257 0
M  V30 4219 H 424.807 -1.63599 0.995376 0
M  V30 4220 H 423.112 -3.90773 -0.283447 0
M  V30 4221 H 424.809 -4.00888 0.0945948 0
M  V30 4222 H 421.399 -4.00428 1.52825 0
M  V30 4223 H 425.583 -4.31045 2.45995 0
M  V30 4224 H 420.839 -4.80141 3.78516 0
M  V30 4225 H 425.013 -5.12108 4.71931 0
M  V30 4226 H 422.64 -5.36362 5.38721 0
M  V30 4227 N 424.215 -0.530993 -1.48385 0
M  V30 4228 C 425.163 0.244595 -2.3131 0
M  V30 4229 C 426.157 0.93451 -1.41291 0
M  V30 4230 O 427.363 0.85878 -1.58193 0
M  V30 4231 H 423.738 0.0977472 -0.74562 0
M  V30 4232 H 425.709 -0.474369 -2.94605 0
M  V30 4233 C 424.458 1.2779 -3.23365 0
M  V30 4234 H 423.781 0.756439 -3.92579 0
M  V30 4235 H 425.221 1.79198 -3.84271 0
M  V30 4236 C 423.68 2.31205 -2.45042 0
M  V30 4237 O 424.21 3.37661 -2.17596 0
M  V30 4238 N 422.416 2.04446 -2.0652 0
M  V30 4239 H 421.963 1.17891 -2.2904 0
M  V30 4240 H 421.921 2.73861 -1.54427 0
M  V30 4241 N 425.693 1.55336 -0.266172 0
M  V30 4242 C 426.97 1.91372 0.404486 0
M  V30 4243 C 427.35 1.18935 1.74407 0
M  V30 4244 O 426.698 0.3132 2.26343 0
M  V30 4245 C 426.908 3.44581 0.553593 0
M  V30 4246 C 428.256 4.16196 0.840618 0
M  V30 4247 O 429.28 3.50426 0.638739 0
M  V30 4248 O 428.139 5.32567 1.22618 0
M  V30 4249 H 425.233 0.797194 0.220025 0
M  V30 4250 H 427.779 1.66813 -0.311664 0
M  V30 4251 H 426.551 3.89357 -0.389498 0
M  V30 4252 H 426.174 3.75065 1.31955 0
M  V30 4253 N 427.171 -0.0066808 1.57599 0
M  V30 4254 C 428.401 -0.703066 1.94269 0
M  V30 4255 C 428.809 -1.68206 0.866222 0
M  V30 4256 O 428.152 -1.82966 -0.164087 0
M  V30 4257 C 428.214 -1.49616 3.26887 0
M  V30 4258 C 427.878 -0.679494 4.5192 0
M  V30 4259 C 428.875 0.0299508 5.19891 0
M  V30 4260 C 426.56 -0.627433 4.98366 0
M  V30 4261 C 428.554 0.780514 6.32603 0
M  V30 4262 C 426.241 0.126861 6.10968 0
M  V30 4263 C 427.239 0.829574 6.77943 0
M  V30 4264 O 426.927 1.57157 7.88389 0
M  V30 4265 H 426.659 -0.201217 0.645359 0
M  V30 4266 H 429.213 0.0385326 2.05364 0
M  V30 4267 H 427.443 -2.28209 3.12182 0
M  V30 4268 H 429.132 -2.07726 3.48719 0
M  V30 4269 H 429.898 -0.00115963 4.85 0
M  V30 4270 H 425.777 -1.16392 4.46065 0
M  V30 4271 H 429.321 1.32954 6.84813 0
M  V30 4272 H 425.218 0.159815 6.45302 0
M  V30 4273 H 425.986 1.48758 8.04868 0
M  V30 4274 N 428.649 -1.55105 -0.279332 0
M  V30 4275 C 429.874 -1.7976 -1.03446 0
M  V30 4276 C 430.299 -0.565952 -1.79384 0
M  V30 4277 O 429.657 0.484259 -1.74713 0
M  V30 4278 C 429.705 -3.0179 -1.97371 0
M  V30 4279 O 428.809 -2.76432 -3.06038 0
M  V30 4280 H 428.15 -0.594334 -0.29608 0
M  V30 4281 H 430.68 -2.02235 -0.310165 0
M  V30 4282 H 430.69 -3.30351 -2.39441 0
M  V30 4283 H 429.365 -3.91085 -1.4151 0
M  V30 4284 H 427.942 -2.58949 -2.68328 0
M  V30 4285 N 430.127 0.543554 -1.4793 0
M  V30 4286 C 431.355 1.32516 -1.58894 0
M  V30 4287 C 431.77 1.87215 -0.244131 0
M  V30 4288 O 431.127 1.65709 0.764652 0
M  V30 4289 C 431.178 2.48554 -2.62494 0
M  V30 4290 O 430.899 1.96112 -3.91755 0
M  V30 4291 C 432.4 3.40572 -2.8377 0
M  V30 4292 H 429.62 0.403472 -0.536145 0
M  V30 4293 H 432.164 0.657106 -1.93655 0
M  V30 4294 H 430.319 3.1127 -2.30629 0
M  V30 4295 H 430.733 2.71967 -4.4848 0
M  V30 4296 H 432.207 4.18375 -3.60093 0
M  V30 4297 H 432.684 3.94965 -1.92092 0
M  V30 4298 H 433.29 2.8366 -3.16887 0
M  V30 4299 N 431.605 1.3629 0.791371 0
M  V30 4300 C 432.833 1.33562 1.58016 0
M  V30 4301 C 433.248 -0.0835616 1.88615 0
M  V30 4302 O 432.605 -1.0399 1.49974 0
M  V30 4303 C 432.656 2.15517 2.90232 0
M  V30 4304 O 432.377 3.51902 2.60953 0
M  V30 4305 C 433.878 2.20546 3.84544 0
M  V30 4306 H 431.098 0.458226 0.490173 0
M  V30 4307 H 433.642 1.79361 0.982345 0
M  V30 4308 H 431.797 1.73278 3.46487 0
M  V30 4309 H 432.211 3.94644 3.4548 0
M  V30 4310 H 433.685 2.82252 4.74382 0
M  V30 4311 H 434.162 1.20838 4.2225 0
M  V30 4312 H 434.768 2.63013 3.34222 0
M  V30 4313 N 433.083 -1.0153 1.20538 0
M  V30 4314 C 434.331 -1.74803 1.01432 0
M  V30 4315 C 434.652 -1.8963 -0.454456 0
M  V30 4316 O 433.922 -1.43975 -1.32846 0
M  V30 4317 H 432.502 -0.647598 0.372324 0
M  V30 4318 H 435.164 -1.22402 1.5167 0
M  V30 4319 H 434.26 -2.75114 1.47373 0
M  V30 4320 N 434.561 -1.01147 -1.20859 0
M  V30 4321 C 435.807 -0.708598 -1.90658 0
M  V30 4322 C 436.162 0.753069 -1.7705 0
M  V30 4323 O 435.455 1.53952 -1.14059 0
M  V30 4324 C 435.649 -1.0727 -3.40922 0
M  V30 4325 C 435.478 -2.56821 -3.69152 0
M  V30 4326 C 434.248 -3.23524 -3.8815 0
M  V30 4327 C 436.446 -3.54997 -3.72131 0
M  V30 4328 N 434.428 -4.62359 -4.03853 0
M  V30 4329 C 435.799 -4.79371 -3.93196 0
M  V30 4330 C 437.854 -3.49042 -3.55069 0
M  V30 4331 C 436.557 -5.98512 -3.98969 0
M  V30 4332 C 438.583 -4.67579 -3.6211 0
M  V30 4333 C 437.945 -5.9076 -3.83643 0
M  V30 4334 H 434.044 -0.31088 -0.71755 0
M  V30 4335 H 436.628 -1.29526 -1.45366 0
M  V30 4336 H 434.799 -0.51443 -3.84978 0
M  V30 4337 H 436.531 -0.723891 -3.98173 0
M  V30 4338 H 433.286 -2.73958 -3.86321 0
M  V30 4339 H 433.71 -5.34427 -4.15592 0
M  V30 4340 H 438.352 -2.54808 -3.37391 0
M  V30 4341 H 436.07 -6.93132 -4.15444 0
M  V30 4342 H 439.656 -4.64581 -3.50222 0
M  V30 4343 H 438.536 -6.8095 -3.88944 0
M  V30 4344 N 436.039 1.36541 -0.78704 0
M  V30 4345 C 437.267 2.03561 -0.370199 0
M  V30 4346 C 437.682 1.59347 1.01263 0
M  V30 4347 O 437.039 0.781781 1.64907 0
M  V30 4348 C 437.09 3.59033 -0.421614 0
M  V30 4349 O 436.811 4.01634 -1.7499 0
M  V30 4350 C 438.312 4.433 0.00489763 0
M  V30 4351 H 435.532 0.653346 -0.152904 0
M  V30 4352 H 438.076 1.74566 -1.06522 0
M  V30 4353 H 436.231 3.86746 0.224971 0
M  V30 4354 H 436.645 4.96217 -1.69909 0
M  V30 4355 H 438.119 5.51939 -0.0822184 0
M  V30 4356 H 438.596 4.26285 1.05723 0
M  V30 4357 H 439.202 4.20843 -0.614085 0
M  V30 4358 N 437.518 0.538854 1.48102 0
M  V30 4359 C 438.795 -0.0568108 1.95517 0
M  V30 4360 C 439.175 -1.50408 1.48124 0
M  V30 4361 O 438.523 -2.17133 0.711727 0
M  V30 4362 C 438.733 0.0696262 3.48931 0
M  V30 4363 C 440.081 -0.0851202 4.24515 0
M  V30 4364 O 441.105 -0.0037347 3.562 0
M  V30 4365 O 439.964 -0.257025 5.45895 0
M  V30 4366 H 437.058 -0.0743695 0.823649 0
M  V30 4367 H 439.604 0.604081 1.58584 0
M  V30 4368 H 438.376 1.07744 3.76174 0
M  V30 4369 H 437.999 -0.629714 3.92582 0
M  V30 4370 N 438.996 -1.55193 0.274407 0
M  V30 4371 C 440.245 -1.98758 -0.343213 0
M  V30 4372 C 440.558 -1.16624 -1.5703 0
M  V30 4373 O 441.764 -1.5033 -2.26082 0
M  V30 4374 C 440.22 -3.53759 -0.661996 0
M  V30 4375 C 439.828 -4.4467 0.54524 0
M  V30 4376 C 441.572 -4.05916 -1.24228 0
M  V30 4377 C 439.479 -5.91058 0.201084 0
M  V30 4378 H 438.409 -0.742353 -0.132014 0
M  V30 4379 H 441.06 -1.79545 0.378948 0
M  V30 4380 H 439.442 -3.68772 -1.44304 0
M  V30 4381 H 440.616 -4.41426 1.32212 0
M  V30 4382 H 438.931 -4.03143 1.04232 0
M  V30 4383 H 441.528 -5.12831 -1.51357 0
M  V30 4384 H 441.871 -3.54908 -2.17592 0
M  V30 4385 H 442.404 -3.9434 -0.523542 0
M  V30 4386 H 439.143 -6.46161 1.10258 0
M  V30 4387 H 438.663 -5.97373 -0.539045 0
M  V30 4388 H 440.342 -6.46669 -0.206954 0
M  V30 4389 N 440.474 -0.00167713 -1.576 0
M  V30 4390 C 441.885 0.54091 -1.78693 0
M  V30 4391 C 442.236 1.7386 -0.909247 0
M  V30 4392 O 441.361 2.16109 -0.112176 0
M  V30 4393 C 441.956 0.98806 -3.24072 0
M  V30 4394 C 440.515 1.47594 -3.46256 0
M  V30 4395 C 439.662 0.42792 -2.73978 0
M  V30 4396 H 442.613 -0.22784 -1.57056 0
M  V30 4397 H 442.634 1.85398 -3.32277 0
M  V30 4398 H 442.146 0.116164 -3.87926 0
M  V30 4399 H 440.247 2.36868 -2.87618 0
M  V30 4400 H 440.36 1.50225 -4.54939 0
M  V30 4401 H 438.724 0.889934 -2.38647 0
M  V30 4402 H 439.507 -0.435038 -3.40532 0
M  V30 4403 N 441.952 1.55251 0.271103 0
M  V30 4404 C 443.229 1.66664 1.02384 0
M  V30 4405 C 443.609 0.534363 2.04225 0
M  V30 4406 O 442.957 -0.465337 2.23712 0
M  V30 4407 C 443.167 3.05961 1.67895 0
M  V30 4408 C 444.515 3.63772 2.18986 0
M  V30 4409 O 445.539 3.08606 1.77878 0
M  V30 4410 O 444.398 4.60429 2.94393 0
M  V30 4411 H 441.492 0.676957 0.475035 0
M  V30 4412 H 444.038 1.67589 0.26681 0
M  V30 4413 H 442.81 3.79815 0.941071 0
M  V30 4414 H 442.433 3.08943 2.5028 0
M  V30 4415 N 443.43 -0.535701 1.48216 0
M  V30 4416 C 444.841 -1.11769 1.49548 0
M  V30 4417 C 445.192 -1.94442 0.26207 0
M  V30 4418 O 444.317 -2.06987 -0.631287 0
M  V30 4419 C 444.912 -2.03367 2.70975 0
M  V30 4420 C 443.471 -2.56795 2.75196 0
M  V30 4421 C 442.618 -1.33631 2.42977 0
M  V30 4422 H 445.569 -0.321232 1.55415 0
M  V30 4423 H 445.59 -2.87569 2.49167 0
M  V30 4424 H 445.102 -1.43169 3.60727 0
M  V30 4425 H 443.203 -3.20731 1.89638 0
M  V30 4426 H 443.316 -2.9632 3.76472 0
M  V30 4427 H 441.68 -1.6502 1.94012 0
M  V30 4428 H 442.463 -0.75194 3.34964 0
M  V30 4429 N 444.908 -1.36708 -0.784132 0
M  V30 4430 C 445.855 -1.31466 -1.89698 0
M  V30 4431 C 446.825 -0.18239 -1.65096 0
M  V30 4432 O 448.01 -0.369762 -1.87183 0
M  V30 4433 C 445.15 -1.1151 -3.26588 0
M  V30 4434 C 444.263 -2.33859 -3.63227 0
M  V30 4435 C 443.398 -2.06873 -4.89262 0
M  V30 4436 C 442.437 -3.25154 -5.18595 0
M  V30 4437 N 441.574 -2.978 -6.35814 0
M  V30 4438 H 446.414 -2.26619 -1.93515 0
M  V30 4439 H 443.951 -1.12625 -0.946256 0
M  V30 4440 H 445.909 -0.979653 -4.05535 0
M  V30 4441 H 444.539 -0.200103 -3.22179 0
M  V30 4442 H 443.591 -2.58188 -2.79362 0
M  V30 4443 H 444.903 -3.22109 -3.8085 0
M  V30 4444 H 444.057 -1.90289 -5.76086 0
M  V30 4445 H 442.796 -1.15942 -4.73718 0
M  V30 4446 H 441.801 -3.42292 -4.30251 0
M  V30 4447 H 443.026 -4.1692 -5.36055 0
M  V30 4448 H 440.972 -2.09485 -6.21653 0
M  V30 4449 H 440.889 -3.7959 -6.53794 0
M  V30 4450 H 442.157 -2.84805 -7.25607 0
M  V30 4451 N 446.386 1.0089 -1.21074 0
M  V30 4452 C 447.333 2.09588 -0.966512 0
M  V30 4453 C 448.303 1.65761 0.106089 0
M  V30 4454 O 449.488 1.90758 -0.0402287 0
M  V30 4455 C 446.628 3.40958 -0.533058 0
M  V30 4456 C 445.741 3.9822 -1.67467 0
M  V30 4457 C 444.876 5.17682 -1.19076 0
M  V30 4458 C 443.915 5.67043 -2.30496 0
M  V30 4459 N 443.052 6.77759 -1.83267 0
M  V30 4460 H 447.892 2.29815 -1.89708 0
M  V30 4461 H 445.429 1.12689 -0.945489 0
M  V30 4462 H 447.387 4.1637 -0.263019 0
M  V30 4463 H 446.017 3.20781 0.360505 0
M  V30 4464 H 445.069 3.1983 -2.05944 0
M  V30 4465 H 446.381 4.3085 -2.51336 0
M  V30 4466 H 445.535 6.00326 -0.877151 0
M  V30 4467 H 444.274 4.86635 -0.322066 0
M  V30 4468 H 443.279 4.82999 -2.62664 0
M  V30 4469 H 444.504 6.00121 -3.17855 0
M  V30 4470 H 442.45 6.48527 -0.987356 0
M  V30 4471 H 442.367 7.09624 -2.60711 0
M  V30 4472 H 443.635 7.63949 -1.54928 0
M  V30 4473 N 447.864 1.01787 1.20321 0
M  V30 4474 C 448.794 0.609625 2.25401 0
M  V30 4475 C 449.775 -0.375951 1.65893 0
M  V30 4476 O 450.96 -0.261101 1.92437 0
M  V30 4477 C 448.09 -0.0515995 3.47262 0
M  V30 4478 C 447.044 0.855095 4.19371 0
M  V30 4479 C 446.37 0.0595757 5.34667 0
M  V30 4480 C 447.67 2.16374 4.75373 0
M  V30 4481 H 449.364 1.48803 2.59804 0
M  V30 4482 H 446.91 0.716934 1.24884 0
M  V30 4483 H 448.863 -0.348764 4.19954 0
M  V30 4484 H 447.587 -0.964726 3.12027 0
M  V30 4485 H 446.246 1.13628 3.48546 0
M  V30 4486 H 445.894 -0.85524 4.95676 0
M  V30 4487 H 445.594 0.663406 5.83843 0
M  V30 4488 H 447.118 -0.231105 6.10162 0
M  V30 4489 H 448.532 1.92885 5.39878 0
M  V30 4490 H 446.929 2.71853 5.34991 0
M  V30 4491 H 447.999 2.82589 3.94045 0
M  V30 4492 N 449.342 -1.36122 0.79427 0
M  V30 4493 C 450.588 -1.99406 0.369452 0
M  V30 4494 C 450.921 -1.62886 -1.05743 0
M  V30 4495 O 450.196 -0.886053 -1.73145 0
M  V30 4496 C 450.479 -3.56046 0.538833 0
M  V30 4497 C 450.332 -4.02404 2.00976 0
M  V30 4498 C 451.651 -4.40079 -0.0431359 0
M  V30 4499 H 448.77 -0.724397 0.135712 0
M  V30 4500 H 451.412 -1.61461 1.00151 0
M  V30 4501 H 449.562 -3.885 0.000771004 0
M  V30 4502 H 451.234 -3.80415 2.60926 0
M  V30 4503 H 449.477 -3.53765 2.51063 0
M  V30 4504 H 450.148 -5.11344 2.07922 0
M  V30 4505 H 452.624 -4.14013 0.416228 0
M  V30 4506 H 451.5 -5.48799 0.105374 0
M  V30 4507 H 451.761 -4.27264 -1.13571 0
M  V30 4508 N 450.82 -0.546701 -1.47814 0
M  V30 4509 C 451.75 0.195317 -2.32682 0
M  V30 4510 C 452.731 0.918981 -1.43139 0
M  V30 4511 O 453.916 0.901501 -1.72008 0
M  V30 4512 C 451.046 1.23237 -3.247 0
M  V30 4513 C 450 0.625818 -4.234 0
M  V30 4514 C 449.326 1.76674 -5.04669 0
M  V30 4515 C 450.626 -0.413515 -5.2066 0
M  V30 4516 H 452.32 -0.513184 -2.94969 0
M  V30 4517 H 449.866 -0.248241 -1.41844 0
M  V30 4518 H 451.819 1.75955 -3.82907 0
M  V30 4519 H 450.543 1.97067 -2.60446 0
M  V30 4520 H 449.202 0.120023 -3.66403 0
M  V30 4521 H 448.85 2.49383 -4.36826 0
M  V30 4522 H 448.55 1.36673 -5.71484 0
M  V30 4523 H 450.074 2.29738 -5.65732 0
M  V30 4524 H 451.488 0.0272042 -5.73294 0
M  V30 4525 H 449.885 -0.731825 -5.95621 0
M  V30 4526 H 450.955 -1.31325 -4.66778 0
M  V30 4527 N 452.299 1.55045 -0.282633 0
M  V30 4528 C 453.262 2.21515 0.588539 0
M  V30 4529 C 454.262 1.19535 1.07554 0
M  V30 4530 O 455.452 1.44391 0.974514 0
M  V30 4531 C 452.584 2.88704 1.8128 0
M  V30 4532 H 453.777 2.99899 0.00806397 0
M  V30 4533 H 451.33 1.56265 -0.0333067 0
M  V30 4534 H 452.065 2.14352 2.43359 0
M  V30 4535 H 451.85 3.63443 1.47144 0
M  V30 4536 H 453.34 3.39465 2.43214 0
M  V30 4537 N 453.777 0.010035 1.57597 0
M  V30 4538 C 454.687 -0.994226 2.12491 0
M  V30 4539 C 455.703 -1.37013 1.07254 0
M  V30 4540 O 456.879 -1.45542 1.3921 0
M  V30 4541 C 453.944 -2.2642 2.62555 0
M  V30 4542 C 453.005 -1.95049 3.82432 0
M  V30 4543 C 452.238 -3.15991 4.30099 0
M  V30 4544 O 452.461 -4.28015 3.7704 0
M  V30 4545 O 451.395 -2.99403 5.22151 0
M  V30 4546 H 455.221 -0.557549 2.98538 0
M  V30 4547 H 452.806 -0.209413 1.47925 0
M  V30 4548 H 454.688 -3.01009 2.9491 0
M  V30 4549 H 453.363 -2.69306 1.796 0
M  V30 4550 H 452.27 -1.17904 3.55034 0
M  V30 4551 H 453.603 -1.56992 4.66491 0
M  V30 4552 N 455.255 -1.55392 -0.262866 0
M  V30 4553 C 456.666 -1.67079 -0.833158 0
M  V30 4554 C 457.017 -0.604539 -1.86654 0
M  V30 4555 O 456.142 0.252138 -2.14926 0
M  V30 4556 C 456.737 -3.02891 -1.51797 0
M  V30 4557 C 455.296 -3.16571 -2.03617 0
M  V30 4558 C 454.443 -2.62909 -0.881701 0
M  V30 4559 H 457.394 -1.58652 -0.0389986 0
M  V30 4560 H 457.415 -2.96445 -2.38538 0
M  V30 4561 H 456.927 -3.80473 -0.765619 0
M  V30 4562 H 455.028 -2.43782 -2.81782 0
M  V30 4563 H 455.141 -4.23271 -2.24452 0
M  V30 4564 H 453.505 -2.20324 -1.27786 0
M  V30 4565 H 454.288 -3.43003 -0.14269 0
M  V30 4566 N 456.733 0.527833 -1.48498 0
M  V30 4567 C 458.149 0.856571 -1.34666 0
M  V30 4568 C 458.349 1.98271 -0.35931 0
M  V30 4569 O 457.405 2.51551 0.218703 0
M  V30 4570 C 458.718 1.22207 -2.74747 0
M  V30 4571 C 460.266 1.33183 -2.83251 0
M  V30 4572 C 460.741 1.73075 -4.24039 0
M  V30 4573 N 462.232 1.80174 -4.26722 0
M  V30 4574 C 462.967 2.1243 -5.32598 0
M  V30 4575 N 462.463 2.43096 -6.4875 0
M  V30 4576 N 464.256 2.13454 -5.19994 0
M  V30 4577 H 456.407 -0.215174 -2.11307 0
M  V30 4578 H 458.67 -0.0336281 -0.947403 0
M  V30 4579 H 458.376 0.468195 -3.4857 0
M  V30 4580 H 458.25 2.17173 -3.08409 0
M  V30 4581 H 460.637 2.07647 -2.09683 0
M  V30 4582 H 460.718 0.363333 -2.53206 0
M  V30 4583 H 460.362 0.991712 -4.98124 0
M  V30 4584 H 460.292 2.70979 -4.51529 0
M  V30 4585 H 462.783 1.58744 -3.42942 0
M  V30 4586 H 463.096 2.6682 -7.25277 0
M  V30 4587 H 461.441 2.40611 -6.52021 0
M  V30 4588 H 464.632 1.88956 -4.28268 0
M  V30 4589 H 464.805 2.38261 -6.02608 0
M  V30 4590 N 458.211 1.37122 0.776871 0
M  V30 4591 C 459.436 1.354 1.57104 0
M  V30 4592 C 459.861 -0.0595562 1.88006 0
M  V30 4593 O 459.219 -1.03514 1.48844 0
M  V30 4594 C 459.267 2.19472 2.8612 0
M  V30 4595 O 458.371 1.59582 3.80273 0
M  V30 4596 H 457.712 0.462869 0.476076 0
M  V30 4597 H 460.242 1.80577 0.961932 0
M  V30 4598 H 460.252 2.32502 3.35271 0
M  V30 4599 H 458.927 3.22222 2.62956 0
M  V30 4600 H 457.504 1.55564 3.38902 0
M  V30 4601 N 459.689 -1.00246 1.21608 0
M  V30 4602 C 460.935 -1.74319 1.03638 0
M  V30 4603 C 461.268 -1.89408 -0.428749 0
M  V30 4604 O 460.543 -1.43026 -1.3181 0
M  V30 4605 C 460.826 -3.15431 1.73711 0
M  V30 4606 C 460.679 -3.08049 3.27759 0
M  V30 4607 C 461.998 -4.14407 1.48173 0
M  V30 4608 H 459.117 -0.632741 0.377899 0
M  V30 4609 H 461.759 -1.16853 1.49818 0
M  V30 4610 H 459.909 -3.64493 1.34452 0
M  V30 4611 H 461.581 -2.66681 3.76403 0
M  V30 4612 H 459.824 -2.45088 3.57931 0
M  V30 4613 H 460.495 -4.07862 3.71958 0
M  V30 4614 H 462.971 -3.74061 1.82258 0
M  V30 4615 H 461.847 -5.11279 1.99713 0
M  V30 4616 H 462.108 -4.40174 0.412273 0
M  V30 4617 N 461.167 -1.02423 -1.1978 0
M  V30 4618 C 462.413 -0.719051 -1.89625 0
M  V30 4619 C 462.746 0.750083 -1.7913 0
M  V30 4620 O 462.021 1.54574 -1.18056 0
M  V30 4621 C 462.304 -1.16499 -3.40735 0
M  V30 4622 C 462.157 -2.695 -3.60125 0
M  V30 4623 C 463.476 -0.742166 -4.33797 0
M  V30 4624 H 460.595 -0.26269 -0.688595 0
M  V30 4625 H 463.237 -1.27333 -1.41018 0
M  V30 4626 H 461.387 -0.69341 -3.82262 0
M  V30 4627 H 463.059 -3.24569 -3.278 0
M  V30 4628 H 461.302 -3.10113 -3.03336 0
M  V30 4629 H 461.973 -2.95757 -4.66081 0
M  V30 4630 H 464.449 -1.1477 -3.99959 0
M  V30 4631 H 463.325 -1.08213 -5.38127 0
M  V30 4632 H 463.586 0.355747 -4.40666 0
M  V30 4633 N 462.645 1.35699 -0.801477 0
M  V30 4634 C 463.891 1.99208 -0.380022 0
M  V30 4635 C 464.224 1.63445 1.04878 0
M  V30 4636 O 463.499 0.895223 1.72673 0
M  V30 4637 C 463.782 3.55755 -0.557708 0
M  V30 4638 C 463.635 4.01332 -2.03107 0
M  V30 4639 C 464.954 4.40096 0.0197968 0
M  V30 4640 H 462.073 0.723667 -0.139552 0
M  V30 4641 H 464.715 1.60928 -1.01006 0
M  V30 4642 H 462.865 3.88494 -0.0213741 0
M  V30 4643 H 464.537 3.79026 -2.62939 0
M  V30 4644 H 462.78 3.52429 -2.52936 0
M  V30 4645 H 463.451 5.10234 -2.1063 0
M  V30 4646 H 465.927 4.13786 -0.438179 0
M  V30 4647 H 464.803 5.48735 -0.134477 0
M  V30 4648 H 465.064 4.2786 1.11303 0
M  V30 4649 N 464.123 0.554532 1.47522 0
M  V30 4650 C 465.071 -0.207765 2.3167 0
M  V30 4651 C 466.065 -0.911914 1.4276 0
M  V30 4652 O 467.271 -0.833504 1.59539 0
M  V30 4653 H 463.646 -0.0858726 0.747081 0
M  V30 4654 H 465.617 0.521178 2.93813 0
M  V30 4655 C 464.366 -1.2263 3.25357 0
M  V30 4656 H 463.689 -0.693887 3.93732 0
M  V30 4657 H 465.129 -1.73062 3.87073 0
M  V30 4658 C 463.588 -2.27278 2.4869 0
M  V30 4659 O 464.118 -3.34156 2.22941 0
M  V30 4660 N 462.324 -2.01134 2.09746 0
M  V30 4661 H 461.871 -1.14232 2.30887 0
M  V30 4662 H 461.829 -2.71369 1.58765 0
M  V30 4663 N 465.601 -1.54893 0.290851 0
M  V30 4664 C 466.849 -1.99538 -0.320756 0
M  V30 4665 C 467.17 -1.18075 -1.55188 0
M  V30 4666 O 466.44 -0.274162 -1.93972 0
M  V30 4667 H 465.02 -0.737052 -0.121507 0
M  V30 4668 H 467.682 -1.90755 0.399832 0
M  V30 4669 H 466.778 -3.06282 -0.599802 0
M  V30 4670 N 467.08 -0.0183926 -1.57589 0
M  V30 4671 C 468.329 0.66185 -1.90532 0
M  V30 4672 C 468.642 1.73904 -0.895366 0
M  V30 4673 O 469.848 2.47518 -1.11566 0
M  V30 4674 C 468.304 1.22844 -3.38286 0
M  V30 4675 C 467.912 0.185103 -4.47617 0
M  V30 4676 C 469.656 1.88581 -3.80312 0
M  V30 4677 C 467.563 0.762723 -5.86461 0
M  V30 4678 H 466.493 0.250972 -0.711006 0
M  V30 4679 H 469.144 -0.0819435 -1.83317 0
M  V30 4680 H 467.526 2.0235 -3.40398 0
M  V30 4681 H 468.7 -0.58671 -4.5705 0
M  V30 4682 H 467.015 -0.372889 -4.14727 0
M  V30 4683 H 469.612 2.32735 -4.81392 0
M  V30 4684 H 469.955 2.72408 -3.14801 0
M  V30 4685 H 470.488 1.15782 -3.80578 0
M  V30 4686 H 467.227 -0.0371713 -6.55489 0
M  V30 4687 H 466.747 1.50327 -5.80656 0
M  V30 4688 H 468.426 1.25576 -6.34697 0
M  V30 4689 N 468.558 1.5553 0.254621 0
M  V30 4690 C 469.974 1.4778 0.602753 0
M  V30 4691 C 470.174 0.707047 1.88688 0
M  V30 4692 O 469.23 0.233288 2.5142 0
M  V30 4693 C 470.543 2.92133 0.712648 0
M  V30 4694 C 472.091 3.02458 0.805488 0
M  V30 4695 C 472.566 4.48102 0.947009 0
M  V30 4696 N 474.057 4.52008 1.01207 0
M  V30 4697 C 474.792 5.61939 1.1407 0
M  V30 4698 N 474.288 6.81697 1.23536 0
M  V30 4699 N 476.081 5.49719 1.17325 0
M  V30 4700 H 468.232 2.04085 -0.588463 0
M  V30 4701 H 470.495 0.926229 -0.202001 0
M  V30 4702 H 470.201 3.51332 -0.160766 0
M  V30 4703 H 470.075 3.42187 1.58707 0
M  V30 4704 H 472.462 2.43344 1.66936 0
M  V30 4705 H 472.543 2.55627 -0.0939266 0
M  V30 4706 H 472.187 5.07824 0.087725 0
M  V30 4707 H 472.117 4.92607 1.86135 0
M  V30 4708 H 474.608 3.65749 0.950577 0
M  V30 4709 H 474.921 7.61228 1.33236 0
M  V30 4710 H 473.266 6.84473 1.20508 0
M  V30 4711 H 476.457 4.55095 1.09573 0
M  V30 4712 H 476.63 6.35432 1.27005 0
M  V30 4713 N 470.036 -0.519951 1.48776 0
M  V30 4714 C 471.283 -1.27522 1.57303 0
M  V30 4715 C 471.611 -1.92869 0.251328 0
M  V30 4716 O 470.866 -1.80372 -0.759243 0
M  V30 4717 C 471.165 -2.37864 2.6675 0
M  V30 4718 C 470.831 -1.90103 4.08867 0
M  V30 4719 C 469.493 -1.76795 4.47546 0
M  V30 4720 C 471.845 -1.54133 4.97888 0
M  V30 4721 C 469.173 -1.25868 5.73039 0
M  V30 4722 C 471.525 -1.04665 6.23881 0
M  V30 4723 C 470.189 -0.899823 6.61407 0
M  V30 4724 H 469.459 -0.466636 0.575614 0
M  V30 4725 H 472.106 -0.579109 1.82534 0
M  V30 4726 H 470.411 -3.13186 2.35418 0
M  V30 4727 H 472.108 -2.95969 2.70561 0
M  V30 4728 H 468.698 -2.01414 3.78326 0
M  V30 4729 H 472.882 -1.6327 4.68675 0
M  V30 4730 H 468.138 -1.13196 6.0083 0
M  V30 4731 H 472.312 -0.759074 6.92251 0
M  V30 4732 H 469.939 -0.503011 7.58534 0
M  V30 4733 N 471.514 -1.37532 -0.769588 0
M  V30 4734 C 472.925 -1.29382 -1.346 0
M  V30 4735 C 473.276 0.0576039 -1.96115 0
M  V30 4736 O 472.401 0.95947 -1.93967 0
M  V30 4737 C 472.996 -2.34298 -2.44724 0
M  V30 4738 C 471.555 -2.29776 -2.98128 0
M  V30 4739 C 470.702 -2.18013 -1.71364 0
M  V30 4740 H 473.653 -1.48123 -0.56968 0
M  V30 4741 H 473.674 -1.99089 -3.24259 0
M  V30 4742 H 473.186 -3.32645 -1.99922 0
M  V30 4743 H 471.287 -1.34959 -3.47299 0
M  V30 4744 H 471.4 -3.23276 -3.53595 0
M  V30 4745 H 469.764 -1.64595 -1.94372 0
M  V30 4746 H 470.547 -3.18278 -1.28662 0
M  V30 4747 N 472.992 0.995999 -1.22138 0
M  V30 4748 C 474.217 1.77601 -1.0711 0
M  V30 4749 C 474.642 1.84339 0.374264 0
M  V30 4750 O 474 1.29359 1.27028 0
M  V30 4751 C 474.048 3.18897 -1.68336 0
M  V30 4752 O 473.152 4.01663 -0.934928 0
M  V30 4753 H 472.493 0.547011 -0.376397 0
M  V30 4754 H 475.023 1.25137 -1.6187 0
M  V30 4755 H 475.033 3.69539 -1.72931 0
M  V30 4756 H 473.708 3.13308 -2.73516 0
M  V30 4757 H 472.285 3.60204 -0.964751 0
M  V30 4758 N 474.47 1.03057 1.19235 0
M  V30 4759 C 475.716 0.729098 1.89241 0
M  V30 4760 C 476.049 -0.740573 1.79525 0
M  V30 4761 O 475.324 -1.53946 1.18874 0
M  V30 4762 C 475.607 1.18304 3.40112 0
M  V30 4763 C 475.46 2.71406 3.5869 0
M  V30 4764 C 476.779 0.765161 4.33397 0
M  V30 4765 H 473.898 0.266338 0.687192 0
M  V30 4766 H 476.54 1.28079 1.40341 0
M  V30 4767 H 474.69 0.713672 3.81889 0
M  V30 4768 H 476.362 3.26303 3.26074 0
M  V30 4769 H 474.605 3.11717 3.01687 0
M  V30 4770 H 475.276 2.98225 4.64506 0
M  V30 4771 H 477.752 1.16889 3.99345 0
M  V30 4772 H 476.628 1.11065 5.37546 0
M  V30 4773 H 476.889 -0.332372 4.40849 0
M  V30 4774 N 475.948 -1.35272 0.808662 0
M  V30 4775 C 476.898 -2.27181 0.193124 0
M  V30 4776 C 477.882 -1.47871 -0.634265 0
M  V30 4777 O 479.074 -1.70048 -0.491182 0
M  V30 4778 C 476.203 -3.36979 -0.655751 0
M  V30 4779 C 475.289 -4.23712 0.181481 0
M  V30 4780 N 475.68 -4.90225 1.24551 0
M  V30 4781 C 473.978 -4.45985 -0.0365493 0
M  V30 4782 C 474.679 -5.54537 1.75682 0
M  V30 4783 N 473.655 -5.33107 1.06294 0
M  V30 4784 H 477.457 -2.76101 1.00724 0
M  V30 4785 H 474.971 -1.48823 0.650029 0
M  V30 4786 H 476.968 -4.01774 -1.11279 0
M  V30 4787 H 475.628 -2.89611 -1.46819 0
M  V30 4788 H 476.639 -4.91641 1.62818 0
M  V30 4789 H 473.316 -4.09409 -0.817964 0
M  V30 4790 H 474.706 -6.17597 2.64621 0
M  V30 4791 N 477.426 -0.562348 -1.47226 0
M  V30 4792 C 478.356 0.170627 -2.32876 0
M  V30 4793 C 479.337 0.903748 -1.44106 0
M  V30 4794 O 480.522 0.883206 -1.72954 0
M  V30 4795 C 477.652 1.19786 -3.25989 0
M  V30 4796 C 476.606 0.580875 -4.2404 0
M  V30 4797 C 475.932 1.71311 -5.06514 0
M  V30 4798 C 477.232 -0.468714 -5.20193 0
M  V30 4799 H 478.926 -0.544441 -2.94408 0
M  V30 4800 H 476.472 -0.263271 -1.41573 0
M  V30 4801 H 478.425 1.71884 -3.84752 0
M  V30 4802 H 477.149 1.94294 -2.62521 0
M  V30 4803 H 475.808 0.0811538 -3.6651 0
M  V30 4804 H 475.456 2.44736 -4.39447 0
M  V30 4805 H 475.156 1.30604 -5.72902 0
M  V30 4806 H 476.68 2.23725 -5.68137 0
M  V30 4807 H 478.094 -0.0336028 -5.7329 0
M  V30 4808 H 476.491 -0.794957 -5.94811 0
M  V30 4809 H 477.561 -1.36269 -4.65359 0
M  V30 4810 N 478.904 1.54736 -0.299062 0
M  V30 4811 C 479.851 2.23448 0.577899 0
M  V30 4812 C 480.821 1.21637 1.13109 0
M  V30 4813 O 482.006 1.50252 1.17597 0
M  V30 4814 C 479.146 2.9774 1.74484 0
M  V30 4815 C 478.259 4.1432 1.22323 0
M  V30 4816 C 477.394 4.76199 2.35388 0
M  V30 4817 C 476.433 5.84927 1.80351 0
M  V30 4818 N 475.57 6.4077 2.86982 0
M  V30 4819 H 480.41 2.97996 -0.0146545 0
M  V30 4820 H 477.947 1.47088 -0.0190013 0
M  V30 4821 H 479.905 3.39045 2.43114 0
M  V30 4822 H 478.535 2.25572 2.30905 0
M  V30 4823 H 477.587 3.7797 0.429249 0
M  V30 4824 H 478.899 4.92659 0.780309 0
M  V30 4825 H 478.053 5.20346 3.11969 0
M  V30 4826 H 476.792 3.97188 2.83006 0
M  V30 4827 H 475.797 5.40207 1.02259 0
M  V30 4828 H 477.022 6.65821 1.3364 0
M  V30 4829 H 474.968 5.64643 3.33938 0
M  V30 4830 H 474.885 7.1445 2.4718 0
M  V30 4831 H 476.153 6.89574 3.63466 0
M  V30 4832 N 480.382 0.0267497 1.57577 0
M  V30 4833 C 481.659 -0.690926 1.82991 0
M  V30 4834 C 482.039 -1.90471 0.910164 0
M  V30 4835 O 481.387 -2.28474 -0.0347985 0
M  V30 4836 C 481.597 -1.07139 3.32148 0
M  V30 4837 C 482.945 -1.46402 3.98562 0
M  V30 4838 O 483.969 -1.16443 3.36629 0
M  V30 4839 O 482.828 -2.02214 5.07712 0
M  V30 4840 H 479.922 -0.338747 0.75444 0
M  V30 4841 H 482.468 0.0542506 1.69613 0
M  V30 4842 H 481.24 -0.207394 3.9075 0
M  V30 4843 H 480.863 -1.87481 3.50623 0
M  V30 4844 N 481.861 -1.55662 -0.24637 0
M  V30 4845 C 483.091 -1.81312 -0.990438 0
M  V30 4846 C 483.499 -0.600234 -1.79426 0
M  V30 4847 O 482.842 0.440537 -1.78339 0
M  V30 4848 C 482.904 -3.0032 -1.97607 0
M  V30 4849 C 482.568 -4.36322 -1.35912 0
M  V30 4850 C 483.565 -5.14295 -0.761348 0
M  V30 4851 C 481.25 -4.83019 -1.37833 0
M  V30 4852 C 483.244 -6.37114 -0.190998 0
M  V30 4853 C 480.931 -6.05786 -0.804128 0
M  V30 4854 C 481.929 -6.82672 -0.211489 0
M  V30 4855 O 481.617 -8.03121 0.353845 0
M  V30 4856 H 481.349 -0.607233 -0.297058 0
M  V30 4857 H 483.903 -2.0356 -0.274351 0
M  V30 4858 H 482.133 -2.73829 -2.73047 0
M  V30 4859 H 483.822 -3.13057 -2.58361 0
M  V30 4860 H 484.588 -4.79337 -0.739013 0
M  V30 4861 H 480.467 -4.23165 -1.829 0
M  V30 4862 H 484.011 -6.97069 0.272206 0
M  V30 4863 H 479.908 -6.40222 -0.823792 0
M  V30 4864 H 480.676 -8.18131 0.245761 0
M  V30 4865 N 483.339 0.512053 -1.4905 0
M  V30 4866 C 484.269 1.62365 -1.67809 0
M  V30 4867 C 485.25 1.61737 -0.526809 0
M  V30 4868 O 486.435 1.78651 -0.761404 0
M  V30 4869 C 483.565 3.00895 -1.73435 0
M  V30 4870 C 482.519 3.16387 -2.88242 0
M  V30 4871 C 481.845 4.56157 -2.78971 0
M  V30 4872 C 483.145 2.97457 -4.29321 0
M  V30 4873 H 484.839 1.46921 -2.60873 0
M  V30 4874 H 482.385 0.705379 -1.2554 0
M  V30 4875 H 484.338 3.78549 -1.85145 0
M  V30 4876 H 483.062 3.17403 -0.769619 0
M  V30 4877 H 481.721 2.41155 -2.76116 0
M  V30 4878 H 481.369 4.69525 -1.8043 0
M  V30 4879 H 481.069 4.67465 -3.5602 0
M  V30 4880 H 482.593 5.35886 -2.92675 0
M  V30 4881 H 484.007 3.64888 -4.42187 0
M  V30 4882 H 482.404 3.20245 -5.07507 0
M  V30 4883 H 483.474 1.93692 -4.44535 0
M  V30 4884 N 484.817 1.37938 0.762283 0
M  V30 4885 C 486.045 1.36883 1.55147 0
M  V30 4886 C 486.46 -0.0435348 1.8875 0
M  V30 4887 O 485.817 -1.00786 1.52146 0
M  V30 4888 C 485.868 2.21624 2.85596 0
M  V30 4889 O 485.589 3.57358 2.5343 0
M  V30 4890 C 487.09 2.28653 3.7978 0
M  V30 4891 H 484.31 0.468521 0.480343 0
M  V30 4892 H 486.854 1.81404 0.944079 0
M  V30 4893 H 485.009 1.80588 3.42734 0
M  V30 4894 H 485.423 4.01883 3.37032 0
M  V30 4895 H 486.897 2.9225 4.68288 0
M  V30 4896 H 487.374 1.29767 4.19592 0
M  V30 4897 H 487.98 2.70043 3.28568 0
M  V30 4898 N 486.295 -0.989507 1.22664 0
M  V30 4899 C 487.711 -1.25395 0.987331 0
M  V30 4900 C 487.911 -1.9899 -0.317056 0
M  V30 4901 O 486.967 -2.30141 -1.03882 0
M  V30 4902 C 488.28 -2.06242 2.18826 0
M  V30 4903 C 489.828 -2.19413 2.23219 0
M  V30 4904 C 490.303 -3.03648 3.42873 0
M  V30 4905 N 491.794 -3.11234 3.43056 0
M  V30 4906 C 492.529 -3.7671 4.32293 0
M  V30 4907 N 492.025 -4.44085 5.31752 0
M  V30 4908 N 493.818 -3.73505 4.2006 0
M  V30 4909 H 485.969 -0.496212 2.06522 0
M  V30 4910 H 488.232 -0.281784 0.905153 0
M  V30 4911 H 487.938 -1.59531 3.13437 0
M  V30 4912 H 487.812 -3.06996 2.19165 0
M  V30 4913 H 490.199 -2.65336 1.29154 0
M  V30 4914 H 490.28 -1.18078 2.26917 0
M  V30 4915 H 489.924 -2.58424 4.37241 0
M  V30 4916 H 489.854 -4.05132 3.36416 0
M  V30 4917 H 492.345 -2.63287 2.71088 0
M  V30 4918 H 492.658 -4.91797 5.96117 0
M  V30 4919 H 491.003 -4.42822 5.35662 0
M  V30 4920 H 494.194 -3.20033 3.41609 0
M  V30 4921 H 494.367 -4.24253 4.8981 0
M  V30 4922 N 487.773 -1.03688 -1.18687 0
M  V30 4923 C 488.703 -0.645407 -2.24403 0
M  V30 4924 C 489.684 0.349511 -1.66471 0
M  V30 4925 O 490.869 0.230453 -1.92828 0
M  V30 4926 C 487.999 -0.00365337 -3.473 0
M  V30 4927 C 486.953 -0.921705 -4.17958 0
M  V30 4928 C 486.279 -0.144629 -5.34504 0
M  V30 4929 C 487.579 -2.23909 -4.71871 0
M  V30 4930 H 489.273 -1.52917 -2.57404 0
M  V30 4931 H 486.819 -0.736711 -1.23728 0
M  V30 4932 H 488.772 0.281908 -4.20456 0
M  V30 4933 H 487.496 0.914963 -3.13522 0
M  V30 4934 H 486.155 -1.19159 -3.46694 0
M  V30 4935 H 485.803 0.776274 -4.96974 0
M  V30 4936 H 485.503 -0.756206 -5.82714 0
M  V30 4937 H 487.027 0.134004 -6.10453 0
M  V30 4938 H 488.441 -2.0145 -5.36741 0
M  V30 4939 H 486.838 -2.8033 -5.30599 0
M  V30 4940 H 487.908 -2.88822 -3.895 0
M  V30 4941 N 489.251 1.34841 -0.815825 0
M  V30 4942 C 490.214 2.27959 -0.238185 0
M  V30 4943 C 491.214 1.49983 0.579816 0
M  V30 4944 O 492.404 1.69617 0.396953 0
M  V30 4945 C 489.536 3.34314 0.666876 0
M  V30 4946 H 490.729 2.80558 -1.05958 0
M  V30 4947 H 488.282 1.44852 -0.587156 0
M  V30 4948 H 489.017 2.86916 1.5116 0
M  V30 4949 H 488.802 3.92014 0.0819106 0
M  V30 4950 H 490.292 4.0379 1.06506 0
M  V30 4951 N 490.729 0.570148 1.46925 0
M  V30 4952 C 491.661 -0.207909 2.28255 0
M  V30 4953 C 492.674 -0.867301 1.37774 0
M  V30 4954 O 493.863 -0.738976 1.62485 0
M  V30 4955 C 490.963 -1.31298 3.12433 0
M  V30 4956 C 490.136 -0.747915 4.30958 0
M  V30 4957 C 489.195 -1.7391 4.9663 0
M  V30 4958 O 488.221 -1.2801 5.54619 0
M  V30 4959 N 489.423 -3.07288 4.92498 0
M  V30 4960 H 492.188 0.489794 2.95671 0
M  V30 4961 H 489.749 0.407076 1.56699 0
M  V30 4962 H 491.741 -1.97507 3.53232 0
M  V30 4963 H 490.311 -1.91373 2.47175 0
M  V30 4964 H 489.531 0.0913066 3.94094 0
M  V30 4965 H 490.819 -0.349958 5.07595 0
M  V30 4966 H 490.217 -3.47213 4.46609 0
M  V30 4967 H 488.774 -3.69021 5.37277 0
M  V30 4968 N 492.207 -1.54576 0.307264 0
M  V30 4969 C 493.154 -2.23751 -0.56604 0
M  V30 4970 C 494.124 -1.22235 -1.12462 0
M  V30 4971 O 495.309 -1.50873 -1.16799 0
M  V30 4972 C 492.449 -2.98661 -1.72903 0
M  V30 4973 C 491.562 -4.14963 -1.20124 0
M  V30 4974 C 490.697 -4.77441 -2.3286 0
M  V30 4975 C 489.736 -5.85875 -1.77247 0
M  V30 4976 N 488.873 -6.42282 -2.8358 0
M  V30 4977 H 493.713 -2.97984 0.0304578 0
M  V30 4978 H 491.25 -1.47076 0.0268015 0
M  V30 4979 H 493.208 -3.40329 -2.41313 0
M  V30 4980 H 491.838 -2.26793 -2.29706 0
M  V30 4981 H 490.89 -3.78193 -0.409198 0
M  V30 4982 H 492.202 -4.93066 -0.754171 0
M  V30 4983 H 491.356 -5.21993 -3.09205 0
M  V30 4984 H 490.095 -3.98684 -2.80896 0
M  V30 4985 H 489.1 -5.40741 -0.993926 0
M  V30 4986 H 490.325 -6.6652 -1.30107 0
M  V30 4987 H 488.271 -5.66406 -3.30939 0
M  V30 4988 H 488.188 -7.1575 -2.43388 0
M  V30 4989 H 489.456 -6.91492 -3.59804 0
M  V30 4990 N 493.685 -0.035106 -1.57561 0
M  V30 4991 C 494.931 0.64318 -1.92331 0
M  V30 4992 C 495.264 1.71434 -0.912368 0
M  V30 4993 O 494.539 1.94395 0.0640303 0
M  V30 4994 C 494.822 1.25411 -3.37556 0
M  V30 4995 C 494.675 0.192109 -4.4939 0
M  V30 4996 C 495.994 2.17041 -3.82859 0
M  V30 4997 H 493.113 0.232341 -0.699419 0
M  V30 4998 H 495.755 -0.0935889 -1.89769 0
M  V30 4999 H 493.905 1.88205 -3.39869 0
M  V30 5000 H 495.577 -0.438849 -4.59208 0
M  V30 5001 H 493.82 -0.481725 -4.31117 0
M  V30 5002 H 494.491 0.659292 -5.48049 0
M  V30 5003 H 496.967 1.64228 -3.8232 0
M  V30 5004 H 495.843 2.56738 -4.85157 0
M  V30 5005 H 496.104 3.06401 -3.18702 0
M  V30 5006 N 495.163 1.55791 0.238111 0
M  V30 5007 C 496.388 1.8244 0.986432 0
M  V30 5008 C 496.813 0.613314 1.7782 0
M  V30 5009 O 496.171 -0.437767 1.75935 0
M  V30 5010 C 496.219 3.06917 1.893 0
M  V30 5011 O 495.323 2.84449 2.98601 0
M  V30 5012 H 494.664 0.601975 0.280218 0
M  V30 5013 H 497.194 2.02987 0.256437 0
M  V30 5014 H 497.204 3.36583 2.30598 0
M  V30 5015 H 495.879 3.947 1.31091 0
M  V30 5016 H 494.456 2.65972 2.61368 0
M  V30 5017 N 496.642 -0.504142 1.49319 0
M  V30 5018 C 497.589 -1.60603 1.65756 0
M  V30 5019 C 498.559 -1.58425 0.499082 0
M  V30 5020 O 499.744 -1.76459 0.725728 0
M  V30 5021 C 496.884 -2.98764 1.72726 0
M  V30 5022 C 495.997 -3.10982 2.99857 0
M  V30 5023 C 495.132 -4.39857 2.97824 0
M  V30 5024 C 494.171 -4.45697 4.19548 0
M  V30 5025 N 493.308 -5.65995 4.15444 0
M  V30 5026 H 498.148 -1.45895 2.59843 0
M  V30 5027 H 495.685 -0.709891 1.28837 0
M  V30 5028 H 497.643 -3.78839 1.74747 0
M  V30 5029 H 496.273 -3.12183 0.821075 0
M  V30 5030 H 495.325 -2.23991 3.07461 0
M  V30 5031 H 496.637 -3.11157 3.89849 0
M  V30 5032 H 495.791 -5.2825 2.98391 0
M  V30 5033 H 494.53 -4.42242 2.05604 0
M  V30 5034 H 493.535 -3.55707 4.19229 0
M  V30 5035 H 494.76 -4.4503 5.12957 0
M  V30 5036 H 492.706 -5.69229 3.26059 0
M  V30 5037 H 492.623 -5.67773 4.99169 0
M  V30 5038 H 493.891 -6.56604 4.20109 0
M  V30 5039 N 498.12 -1.38341 -0.754957 0
M  V30 5040 C 499.067 -1.3546 -1.86867 0
M  V30 5041 C 500.037 -0.217369 -1.64672 0
M  V30 5042 O 501.222 -0.409383 -1.86356 0
M  V30 5043 C 498.362 -1.18413 -3.24149 0
M  V30 5044 C 497.475 -2.41511 -3.58185 0
M  V30 5045 C 496.61 -2.17205 -4.84763 0
M  V30 5046 C 495.649 -3.36081 -5.11582 0
M  V30 5047 N 494.786 -3.11219 -6.29354 0
M  V30 5048 H 499.626 -2.30672 -1.88664 0
M  V30 5049 H 497.163 -1.14607 -0.922154 0
M  V30 5050 H 499.121 -1.06545 -4.03366 0
M  V30 5051 H 497.751 -0.268397 -3.21682 0
M  V30 5052 H 496.803 -2.64056 -2.73822 0
M  V30 5053 H 498.115 -3.30115 -3.73932 0
M  V30 5054 H 497.269 -2.02465 -5.7192 0
M  V30 5055 H 496.008 -1.25964 -4.71152 0
M  V30 5056 H 495.013 -3.51341 -4.22894 0
M  V30 5057 H 496.238 -4.28196 -5.27091 0
M  V30 5058 H 494.184 -2.22624 -6.17069 0
M  V30 5059 H 494.101 -3.93373 -6.45596 0
M  V30 5060 H 495.369 -3.00132 -7.19403 0
M  V30 5061 N 499.598 0.982988 -1.23187 0
M  V30 5062 C 500.826 1.75921 -1.08901 0
M  V30 5063 C 501.241 1.85341 0.359719 0
M  V30 5064 O 500.598 1.33072 1.24892 0
M  V30 5065 C 500.649 3.18742 -1.70545 0
M  V30 5066 O 500.37 3.09814 -3.09753 0
M  V30 5067 C 501.871 4.1277 -1.61667 0
M  V30 5068 H 499.091 0.552166 -0.381252 0
M  V30 5069 H 501.635 1.23516 -1.62985 0
M  V30 5070 H 499.79 3.68182 -1.20501 0
M  V30 5071 H 500.204 3.99703 -3.39614 0
M  V30 5072 H 501.678 5.10697 -2.09506 0
M  V30 5073 H 502.155 4.3542 -0.575009 0
M  V30 5074 H 502.761 3.69232 -2.11064 0
M  V30 5075 N 501.076 1.04316 1.18135 0
M  V30 5076 C 502.324 0.746542 1.87806 0
M  V30 5077 C 502.645 -0.728082 1.80898 0
M  V30 5078 O 501.915 -1.52554 1.22899 0
M  V30 5079 H 500.495 0.273157 0.695265 0
M  V30 5080 H 503.157 1.32044 1.43354 0
M  V30 5081 H 502.253 1.05362 2.93778 0
M  V30 5082 N 502.554 -1.34406 0.822964 0
M  V30 5083 C 503.517 -2.2783 0.250271 0
M  V30 5084 C 504.517 -1.50288 -0.571854 0
M  V30 5085 O 505.707 -1.69825 -0.387952 0
M  V30 5086 C 502.839 -3.34663 -0.649137 0
M  V30 5087 H 504.032 -2.79992 1.07444 0
M  V30 5088 H 501.585 -1.44539 0.594829 0
M  V30 5089 H 502.32 -2.87714 -1.49637 0
M  V30 5090 H 502.105 -3.92052 -0.0611199 0
M  V30 5091 H 503.595 -4.04349 -1.04363 0
M  V30 5092 N 504.032 -0.577932 -1.46621 0
M  V30 5093 C 504.962 0.145917 -2.33044 0
M  V30 5094 C 505.943 0.888412 -1.45056 0
M  V30 5095 O 507.128 0.864812 -1.73881 0
M  V30 5096 C 504.258 1.16322 -3.27241 0
M  V30 5097 C 503.212 0.535868 -4.24632 0
M  V30 5098 C 502.538 1.65929 -5.08303 0
M  V30 5099 C 503.838 -0.523861 -5.19666 0
M  V30 5100 H 505.532 -0.575636 -2.93814 0
M  V30 5101 H 503.078 -0.278272 -1.41286 0
M  V30 5102 H 505.031 1.67793 -3.86553 0
M  V30 5103 H 503.755 1.91498 -2.64567 0
M  V30 5104 H 502.414 0.0422759 -3.66576 0
M  V30 5105 H 502.062 2.40061 -4.42018 0
M  V30 5106 H 501.762 1.2452 -5.74255 0
M  V30 5107 H 503.286 2.17686 -5.70478 0
M  V30 5108 H 504.7 -0.0944059 -5.73222 0
M  V30 5109 H 503.097 -0.858 -5.93935 0
M  V30 5110 H 504.167 -1.41197 -4.63887 0
M  V30 5111 N 505.51 1.54411 -0.315457 0
M  V30 5112 C 506.787 1.92562 0.343398 0
M  V30 5113 C 507.167 1.24423 1.70535 0
M  V30 5114 O 506.515 0.385051 2.25232 0
M  V30 5115 C 506.725 3.46168 0.443687 0
M  V30 5116 C 508.073 4.18659 0.707783 0
M  V30 5117 O 509.097 3.52281 0.52693 0
M  V30 5118 O 507.956 5.36198 1.05612 0
M  V30 5119 H 505.05 0.80379 0.194552 0
M  V30 5120 H 507.596 1.65738 -0.364577 0
M  V30 5121 H 506.368 3.8792 -0.513172 0
M  V30 5122 H 505.991 3.79073 1.19956 0
M  V30 5123 N 506.988 0.0434614 1.5754 0
M  V30 5124 C 508.235 -0.632035 1.92384 0
M  V30 5125 C 508.563 -1.71304 0.921157 0
M  V30 5126 O 507.818 -1.95583 -0.067744 0
M  V30 5127 C 508.117 -1.2738 3.3393 0
M  V30 5128 C 507.783 -0.321757 4.49751 0
M  V30 5129 C 506.445 -0.0597611 4.81163 0
M  V30 5130 C 508.797 0.331158 5.20147 0
M  V30 5131 C 506.125 0.862715 5.80322 0
M  V30 5132 C 508.477 1.24178 6.20292 0
M  V30 5133 C 507.141 1.51252 6.50138 0
M  V30 5134 H 506.411 -0.231278 0.703983 0
M  V30 5135 H 509.058 0.108294 1.91194 0
M  V30 5136 H 507.363 -2.08921 3.3145 0
M  V30 5137 H 509.06 -1.80326 3.58167 0
M  V30 5138 H 505.65 -0.53614 4.25233 0
M  V30 5139 H 509.834 0.141826 4.96097 0
M  V30 5140 H 505.09 1.08003 6.01785 0
M  V30 5141 H 509.264 1.75381 6.73954 0
M  V30 5142 H 506.891 2.22897 7.26788 0
M  V30 5143 N 508.466 -1.55915 -0.229846 0
M  V30 5144 C 509.713 -1.78542 -0.955452 0
M  V30 5145 C 510.041 -0.610785 -1.84661 0
M  V30 5146 O 509.296 0.405213 -1.91459 0
M  V30 5147 C 509.595 -3.06845 -1.8325 0
M  V30 5148 C 509.261 -4.37395 -1.09528 0
M  V30 5149 C 507.923 -4.72868 -0.891598 0
M  V30 5150 C 510.275 -5.18029 -0.574046 0
M  V30 5151 C 507.603 -5.86496 -0.154655 0
M  V30 5152 C 509.955 -6.32423 0.149513 0
M  V30 5153 C 508.619 -6.66504 0.364519 0
M  V30 5154 H 507.889 -0.653333 -0.349625 0
M  V30 5155 H 510.536 -1.90183 -0.224235 0
M  V30 5156 H 508.841 -2.90291 -2.63132 0
M  V30 5157 H 510.538 -3.21553 -2.39592 0
M  V30 5158 H 507.128 -4.09538 -1.26399 0
M  V30 5159 H 511.312 -4.91066 -0.718899 0
M  V30 5160 H 506.568 -6.11396 0.0222356 0
M  V30 5161 H 510.742 -6.94137 0.560947 0
M  V30 5162 H 508.369 -7.54397 0.937495 0
M  V30 5163 N 509.944 0.496216 -1.49584 0
M  V30 5164 C 510.891 1.59722 -1.66606 0
M  V30 5165 C 511.861 1.58158 -0.507477 0
M  V30 5166 O 513.046 1.76072 -0.735076 0
M  V30 5167 C 510.186 2.97844 -1.74308 0
M  V30 5168 C 509.299 3.09388 -3.01502 0
M  V30 5169 C 508.434 4.38271 -3.00153 0
M  V30 5170 C 507.473 4.43466 -4.21906 0
M  V30 5171 N 506.61 5.63784 -4.1844 0
M  V30 5172 H 511.45 1.44515 -2.60613 0
M  V30 5173 H 508.987 0.703048 -1.29212 0
M  V30 5174 H 510.945 3.77907 -1.76754 0
M  V30 5175 H 509.575 3.11743 -0.837619 0
M  V30 5176 H 508.627 2.22357 -3.08645 0
M  V30 5177 H 509.939 3.09085 -3.91494 0
M  V30 5178 H 509.093 5.2666 -3.01188 0
M  V30 5179 H 507.832 4.41146 -2.07947 0
M  V30 5180 H 506.837 3.53478 -4.21109 0
M  V30 5181 H 508.062 4.42303 -5.1531 0
M  V30 5182 H 506.008 5.67491 -3.29074 0
M  V30 5183 H 505.925 5.65118 -5.02173 0
M  V30 5184 H 507.193 6.54367 -4.23585 0
M  V30 5185 N 511.423 1.38739 0.74761 0
M  V30 5186 C 512.648 1.38702 1.54197 0
M  V30 5187 C 513.073 -0.019664 1.8809 0
M  V30 5188 O 512.431 -1.00333 1.51006 0
M  V30 5189 C 512.479 2.25492 2.814 0
M  V30 5190 O 511.583 1.67613 3.76802 0
M  V30 5191 H 510.924 0.472863 0.466151 0
M  V30 5192 H 513.454 1.82577 0.923413 0
M  V30 5193 H 513.464 2.39561 3.30264 0
M  V30 5194 H 512.139 3.27727 2.56062 0
M  V30 5195 H 510.716 1.62718 3.35526 0
M  V30 5196 N 512.901 -0.976442 1.23707 0
M  V30 5197 C 513.831 -2.08749 1.04624 0
M  V30 5198 C 514.812 -1.70057 -0.0380956 0
M  V30 5199 O 515.997 -1.93782 0.127308 0
M  V30 5200 C 513.127 -3.41335 0.640902 0
M  V30 5201 C 512.081 -3.93947 1.67302 0
M  V30 5202 C 511.407 -5.22774 1.12301 0
M  V30 5203 C 512.707 -4.22769 3.06697 0
M  V30 5204 H 514.401 -2.24972 1.97555 0
M  V30 5205 H 511.947 -1.08108 0.951247 0
M  V30 5206 H 513.9 -4.18489 0.494434 0
M  V30 5207 H 512.624 -3.24988 -0.324099 0
M  V30 5208 H 511.283 -3.18941 1.80755 0
M  V30 5209 H 510.931 -5.0278 0.148877 0
M  V30 5210 H 510.631 -5.58942 1.81267 0
M  V30 5211 H 512.155 -6.02546 0.988479 0
M  V30 5212 H 513.569 -4.90659 2.96524 0
M  V30 5213 H 511.966 -4.70147 3.72937 0
M  V30 5214 H 513.036 -3.29885 3.55392 0
M  V30 5215 N 514.379 -1.04941 -1.1758 0
M  V30 5216 C 515.327 -0.64204 -2.23563 0
M  V30 5217 C 516.321 0.335453 -1.66045 0
M  V30 5218 O 517.527 0.20179 -1.78865 0
M  V30 5219 H 513.902 -0.18944 -0.727748 0
M  V30 5220 H 515.873 -1.54609 -2.55223 0
M  V30 5221 C 514.622 -0.0301051 -3.47687 0
M  V30 5222 H 513.945 -0.773339 -3.92249 0
M  V30 5223 H 515.385 0.217592 -4.23441 0
M  V30 5224 C 513.844 1.2225 -3.13937 0
M  V30 5225 O 514.374 2.3122 -3.28482 0
M  V30 5226 N 512.58 1.11917 -2.68185 0
M  V30 5227 H 512.127 0.232403 -2.5655 0
M  V30 5228 H 512.085 1.95814 -2.45976 0
M  V30 5229 N 515.857 1.33968 -0.830081 0
M  V30 5230 C 516.82 2.27694 -0.26235 0
M  V30 5231 C 517.82 1.50589 0.563876 0
M  V30 5232 O 519.01 1.70028 0.378941 0
M  V30 5233 C 516.142 3.35002 0.63138 0
M  V30 5234 H 517.335 2.79419 -1.08928 0
M  V30 5235 H 514.888 1.44221 -0.602486 0
M  V30 5236 H 515.623 2.88504 1.48109 0
M  V30 5237 H 515.408 3.92079 0.0403276 0
M  V30 5238 H 516.898 4.04897 1.02217 0
M  V30 5239 N 517.335 0.585699 1.46312 0
M  V30 5240 C 518.583 0.072278 2.01971 0
M  V30 5241 C 518.904 -1.29345 1.45928 0
M  V30 5242 O 518.174 -1.84973 0.645109 0
M  V30 5243 H 516.754 0.023729 0.746623 0
M  V30 5244 H 519.416 0.762155 1.7938 0
M  V30 5245 H 518.512 0.00552767 3.121 0
M  V30 5246 N 518.813 -1.54241 0.323641 0
M  V30 5247 C 519.723 -2.28033 -0.551205 0
M  V30 5248 C 520.739 -1.32388 -1.12913 0
M  V30 5249 O 521.915 -1.65403 -1.14908 0
M  V30 5250 C 518.98 -3.02382 -1.69606 0
M  V30 5251 C 518.041 -4.13612 -1.14993 0
M  V30 5252 C 517.274 -4.84407 -2.24022 0
M  V30 5253 O 517.497 -4.54716 -3.44368 0
M  V30 5254 O 516.431 -5.71312 -1.89436 0
M  V30 5255 H 520.257 -3.03662 0.048066 0
M  V30 5256 H 517.842 -1.49133 0.0893289 0
M  V30 5257 H 519.724 -3.48941 -2.36259 0
M  V30 5258 H 518.399 -2.29628 -2.28151 0
M  V30 5259 H 517.306 -3.71402 -0.448484 0
M  V30 5260 H 518.639 -4.8841 -0.609608 0
M  V30 5261 N 520.291 -0.0518155 -1.57515 0
M  V30 5262 C 521.221 0.920283 -2.146 0
M  V30 5263 C 522.202 1.32406 -1.06783 0
M  V30 5264 O 523.387 1.39866 -1.34726 0
M  V30 5265 C 520.517 2.1949 -2.6915 0
M  V30 5266 C 519.471 1.93116 -3.81956 0
M  V30 5267 C 518.797 3.27037 -4.23026 0
M  V30 5268 C 520.097 1.25225 -5.07066 0
M  V30 5269 H 521.791 0.444801 -2.96077 0
M  V30 5270 H 519.337 0.212508 -1.42423 0
M  V30 5271 H 521.29 2.87894 -3.07725 0
M  V30 5272 H 520.014 2.69244 -1.84865 0
M  V30 5273 H 518.673 1.27123 -3.43854 0
M  V30 5274 H 518.321 3.74595 -3.3569 0
M  V30 5275 H 518.021 3.10189 -4.99056 0
M  V30 5276 H 519.545 3.96673 -4.64202 0
M  V30 5277 H 520.959 1.83666 -5.43083 0
M  V30 5278 H 519.356 1.18702 -5.88243 0
M  V30 5279 H 520.426 0.228382 -4.84362 0
M  V30 5280 N 521.769 1.56035 0.221574 0
M  V30 5281 C 522.716 1.92413 1.27459 0
M  V30 5282 C 523.686 0.781323 1.46576 0
M  V30 5283 O 524.871 1.03721 1.60145 0
M  V30 5284 C 522.011 2.24617 2.61995 0
M  V30 5285 C 521.124 3.51831 2.50677 0
M  V30 5286 C 520.259 3.73482 3.77736 0
M  V30 5287 C 519.298 4.94211 3.6114 0
M  V30 5288 N 518.435 5.12252 4.80148 0
M  V30 5289 H 523.275 2.82203 0.957355 0
M  V30 5290 H 520.812 1.39676 0.461415 0
M  V30 5291 H 522.77 2.41298 3.40339 0
M  V30 5292 H 521.4 1.38 2.91815 0
M  V30 5293 H 520.452 3.43343 1.63767 0
M  V30 5294 H 521.764 4.40328 2.34334 0
M  V30 5295 H 520.918 3.9026 4.64523 0
M  V30 5296 H 519.657 2.83266 3.97003 0
M  V30 5297 H 518.662 4.77384 2.72736 0
M  V30 5298 H 519.887 5.85912 3.43343 0
M  V30 5299 H 517.833 4.24978 4.99729 0
M  V30 5300 H 517.75 5.94881 4.66532 0
M  V30 5301 H 519.018 5.33465 5.68362 0
M  V30 5302 N 523.247 -0.488276 1.49845 0
M  V30 5303 C 524.194 -1.58836 1.67451 0
M  V30 5304 C 525.164 -1.57886 0.515857 0
M  V30 5305 O 526.349 -1.75679 0.744403 0
M  V30 5306 C 523.489 -2.96915 1.75885 0
M  V30 5307 C 522.602 -3.07784 3.03138 0
M  V30 5308 C 521.737 -4.36673 3.02473 0
M  V30 5309 C 520.776 -4.41222 4.24252 0
M  V30 5310 N 519.913 -5.61557 4.21424 0
M  V30 5311 H 524.753 -1.43131 2.61376 0
M  V30 5312 H 522.29 -0.696186 1.29583 0
M  V30 5313 H 524.248 -3.76965 1.78755 0
M  V30 5314 H 522.878 -3.11295 0.85414 0
M  V30 5315 H 521.93 -2.20717 3.09819 0
M  V30 5316 H 523.242 -3.07005 3.93128 0
M  V30 5317 H 522.396 -5.25055 3.03977 0
M  V30 5318 H 521.135 -4.40037 2.10283 0
M  V30 5319 H 520.14 -3.5124 4.22978 0
M  V30 5320 H 521.365 -4.39564 5.17649 0
M  V30 5321 H 519.311 -5.65738 3.32078 0
M  V30 5322 H 519.228 -5.62447 5.05163 0
M  V30 5323 H 520.496 -6.52111 4.2705 0
M  V30 5324 N 524.725 -1.39134 -0.740242 0
M  V30 5325 C 525.688 -1.37217 -1.83587 0
M  V30 5326 C 526.688 -0.270221 -1.58513 0
M  V30 5327 O 527.878 -0.527843 -1.6601 0
M  V30 5328 C 525.01 -1.13959 -3.21288 0
M  V30 5329 H 526.203 -2.34705 -1.86691 0
M  V30 5330 H 523.756 -1.24622 -0.94335 0
M  V30 5331 H 524.491 -0.17131 -3.23847 0
M  V30 5332 H 524.276 -1.93754 -3.40884 0
M  V30 5333 H 525.766 -1.15346 -4.01354 0
M  V30 5334 N 526.204 0.969867 -1.24223 0
M  V30 5335 C 527.167 2.04564 -1.03373 0
M  V30 5336 C 528.167 1.60798 0.00819206 0
M  V30 5337 O 529.357 1.72641 -0.232567 0
M  V30 5338 C 526.489 3.36163 -0.566343 0
M  V30 5339 H 527.682 2.24494 -1.98853 0
M  V30 5340 H 525.235 1.1448 -1.06415 0
M  V30 5341 H 525.97 3.21925 0.391751 0
M  V30 5342 H 525.755 3.69273 -1.31834 0
M  V30 5343 H 527.245 4.1526 -0.441435 0
M  V30 5344 N 527.682 1.05563 1.17022 0
M  V30 5345 C 529.093 0.793475 1.69 0
M  V30 5346 C 529.444 -0.683882 1.83895 0
M  V30 5347 O 528.569 -1.53116 1.5292 0
M  V30 5348 C 529.164 1.43376 3.06967 0
M  V30 5349 C 527.723 1.21956 3.56095 0
M  V30 5350 C 526.87 1.51494 2.3226 0
M  V30 5351 H 529.821 1.22008 1.01487 0
M  V30 5352 H 529.842 0.845068 3.70997 0
M  V30 5353 H 529.354 2.50899 2.96093 0
M  V30 5354 H 527.455 0.163749 3.7224 0
M  V30 5355 H 527.568 1.92713 4.38633 0
M  V30 5356 H 525.932 0.935175 2.3691 0
M  V30 5357 H 526.715 2.60159 2.23992 0
M  V30 5358 N 529.16 -1.33526 0.837174 0
M  V30 5359 C 530.123 -2.27551 0.274421 0
M  V30 5360 C 531.123 -1.50886 -0.555881 0
M  V30 5361 O 532.313 -1.70227 -0.369918 0
M  V30 5362 C 529.445 -3.35332 -0.613605 0
M  V30 5363 H 530.638 -2.78837 1.10408 0
M  V30 5364 H 528.191 -1.439 0.610126 0
M  V30 5365 H 528.926 -2.89285 -1.46577 0
M  V30 5366 H 528.711 -3.92095 -0.0195341 0
M  V30 5367 H 530.201 -4.05433 -1.00068 0
M  V30 5368 N 530.638 -0.59345 -1.46 0
M  V30 5369 C 531.915 -0.0157933 -1.95594 0
M  V30 5370 C 532.295 1.44807 -1.53604 0
M  V30 5371 O 531.643 2.14342 -0.791824 0
M  V30 5372 C 531.853 -0.199081 -3.48432 0
M  V30 5373 C 533.201 -0.0724943 -4.24538 0
M  V30 5374 O 534.225 -0.128469 -3.55968 0
M  V30 5375 O 533.084 0.0542426 -5.46473 0
M  V30 5376 H 530.178 0.043749 -0.825842 0
M  V30 5377 H 532.724 -0.662522 -1.56233 0
M  V30 5378 H 531.496 -1.21631 -3.71916 0
M  V30 5379 H 531.119 0.483576 -3.94648 0
M  V30 5380 N 532.116 1.54067 -0.331816 0
M  V30 5381 C 533.527 1.86059 0.15454 0
M  V30 5382 C 533.878 1.25331 1.50952 0
M  V30 5383 O 533.003 0.562441 2.08963 0
M  V30 5384 C 533.598 3.37581 0.287192 0
M  V30 5385 C 532.157 3.69493 0.717773 0
M  V30 5386 C 531.304 2.76863 -0.155569 0
M  V30 5387 H 534.255 1.48797 -0.55182 0
M  V30 5388 H 534.276 3.63744 1.11671 0
M  V30 5389 H 533.788 3.81751 -0.699131 0
M  V30 5390 H 531.889 3.3086 1.71354 0
M  V30 5391 H 532.002 4.76315 0.5158 0
M  V30 5392 H 530.366 2.51995 0.370213 0
M  V30 5393 H 531.149 3.23861 -1.13881 0
M  V30 5394 N 533.594 0.0601682 1.57485 0
M  V30 5395 C 534.819 -0.624416 1.97777 0
M  V30 5396 C 535.244 -1.63051 0.937867 0
M  V30 5397 O 534.602 -1.81036 -0.0978845 0
M  V30 5398 C 534.65 -1.27979 3.37126 0
M  V30 5399 O 533.754 -2.39556 3.35688 0
M  V30 5400 H 533.095 -0.161581 0.64404 0
M  V30 5401 H 535.625 0.131237 2.04179 0
M  V30 5402 H 535.635 -1.62937 3.74053 0
M  V30 5403 H 534.31 -0.542501 4.12347 0
M  V30 5404 H 532.887 -2.06478 3.10517 0
M  V30 5405 N 535.072 -1.5615 -0.213296 0
M  V30 5406 C 536.035 -1.92249 -1.24792 0
M  V30 5407 C 537.035 -0.801828 -1.39382 0
M  V30 5408 O 538.225 -1.06948 -1.37506 0
M  V30 5409 C 535.357 -2.18056 -2.62039 0
M  V30 5410 H 536.55 -2.84793 -0.939845 0
M  V30 5411 H 534.103 -1.49559 -0.454062 0
M  V30 5412 H 534.838 -1.2809 -2.97932 0
M  V30 5413 H 534.623 -2.99703 -2.52825 0
M  V30 5414 H 536.113 -2.47051 -3.36683 0
M  V30 5415 N 536.55 0.480323 -1.50102 0
M  V30 5416 C 537.961 1.06142 -1.53593 0
M  V30 5417 C 538.312 1.93335 -0.334055 0
M  V30 5418 O 537.437 2.09188 0.55403 0
M  V30 5419 C 538.032 1.9317 -2.78336 0
M  V30 5420 C 536.591 2.46405 -2.84538 0
M  V30 5421 C 535.738 1.24521 -2.4777 0
M  V30 5422 H 538.689 0.26333 -1.565 0
M  V30 5423 H 538.71 2.78123 -2.59669 0
M  V30 5424 H 538.222 1.29683 -3.65792 0
M  V30 5425 H 536.323 3.13472 -2.01411 0
M  V30 5426 H 536.436 2.82143 -3.87211 0
M  V30 5427 H 534.8 1.57706 -2.00003 0
M  V30 5428 H 535.583 0.627102 -3.37524 0
M  V30 5429 N 538.028 1.39524 0.732853 0
M  V30 5430 C 538.958 1.41153 1.86005 0
M  V30 5431 C 539.939 0.274614 1.67869 0
M  V30 5432 O 541.124 0.480745 1.88155 0
M  V30 5433 C 538.254 1.25638 3.23778 0
M  V30 5434 C 537.208 2.36752 3.56556 0
M  V30 5435 C 536.534 2.06326 4.93289 0
M  V30 5436 C 537.834 3.79069 3.5931 0
M  V30 5437 H 539.528 2.35484 1.84899 0
M  V30 5438 H 537.074 1.13348 0.888162 0
M  V30 5439 H 539.027 1.25398 4.0231 0
M  V30 5440 H 537.751 0.277772 3.25417 0
M  V30 5441 H 536.41 2.36213 2.80355 0
M  V30 5442 H 536.058 1.06897 4.9151 0
M  V30 5443 H 535.758 2.80757 5.16187 0
M  V30 5444 H 537.282 2.07739 5.74175 0
M  V30 5445 H 538.696 3.81526 4.27914 0
M  V30 5446 H 537.093 4.52878 3.93728 0
M  V30 5447 H 538.163 4.09893 2.59068 0
M  V30 5448 N 539.506 -0.963266 1.24736 0
M  V30 5449 C 540.752 -1.70933 1.09131 0
M  V30 5450 C 541.085 -1.90676 -0.368273 0
M  V30 5451 O 540.36 -1.47147 -1.27193 0
M  V30 5452 C 540.643 -3.09744 1.83658 0
M  V30 5453 C 540.496 -2.97465 3.37394 0
M  V30 5454 C 541.815 -4.09483 1.61282 0
M  V30 5455 H 538.934 -0.620398 0.397838 0
M  V30 5456 H 541.576 -1.12028 1.53459 0
M  V30 5457 H 539.726 -3.60031 1.4598 0
M  V30 5458 H 541.398 -2.54571 3.84696 0
M  V30 5459 H 539.641 -2.33576 3.65547 0
M  V30 5460 H 540.312 -3.95822 3.84745 0
M  V30 5461 H 542.788 -3.68073 1.94066 0
M  V30 5462 H 541.664 -5.04666 2.15878 0
M  V30 5463 H 541.925 -4.38639 0.552102 0
M  V30 5464 N 540.985 -1.06182 -1.16461 0
M  V30 5465 C 541.933 -0.665716 -2.2287 0
M  V30 5466 C 542.927 0.317822 -1.66392 0
M  V30 5467 O 544.133 0.182807 -1.79069 0
M  V30 5468 H 540.508 -0.197148 -0.725697 0
M  V30 5469 H 542.479 -1.57307 -2.53569 0
M  V30 5470 C 541.228 -0.0669803 -3.47635 0
M  V30 5471 H 540.551 -0.814899 -3.91407 0
M  V30 5472 H 541.991 0.172669 -4.23648 0
M  V30 5473 C 540.45 1.18913 -3.15216 0
M  V30 5474 O 540.98 2.27723 -3.30916 0
M  V30 5475 N 539.186 1.09066 -2.69357 0
M  V30 5476 H 538.733 0.20518 -2.56782 0
M  V30 5477 H 538.691 1.93195 -2.48039 0
M  V30 5478 N 542.463 1.3308 -0.844243 0
M  V30 5479 C 543.426 2.27403 -0.286485 0
M  V30 5480 C 544.426 1.51179 0.547872 0
M  V30 5481 O 545.616 1.70421 0.360886 0
M  V30 5482 C 542.748 3.35653 0.595813 0
M  V30 5483 H 543.941 2.78248 -1.11885 0
M  V30 5484 H 541.494 1.43574 -0.617749 0
M  V30 5485 H 542.229 2.90058 1.4504 0
M  V30 5486 H 542.014 3.921 -0.00125994 0
M  V30 5487 H 543.504 4.05958 0.979168 0
M  V30 5488 N 543.941 0.601185 1.45683 0
M  V30 5489 C 544.851 -0.123395 2.34275 0
M  V30 5490 C 545.867 -0.86702 1.5086 0
M  V30 5491 O 547.043 -0.826049 1.8368 0
M  V30 5492 C 544.108 -1.11237 3.2837 0
M  V30 5493 C 543.169 -0.371405 4.2769 0
M  V30 5494 C 542.402 -1.31327 5.1729 0
M  V30 5495 O 542.625 -2.55078 5.10188 0
M  V30 5496 O 541.559 -0.813811 5.96373 0
M  V30 5497 H 545.385 0.604483 2.97623 0
M  V30 5498 H 542.97 0.361477 1.44961 0
M  V30 5499 H 544.852 -1.68214 3.8637 0
M  V30 5500 H 543.527 -1.82139 2.67595 0
M  V30 5501 H 542.434 0.24067 3.73325 0
M  V30 5502 H 543.767 0.296998 4.91303 0
M  V30 5503 N 545.419 -1.53889 0.339982 0
M  V30 5504 C 546.668 -2.00035 -0.258604 0
M  V30 5505 C 546.981 -1.23179 -1.51942 0
M  V30 5506 O 548.187 -1.59784 -2.19503 0
M  V30 5507 C 546.643 -3.56249 -0.511359 0
M  V30 5508 C 546.251 -4.41957 0.733349 0
M  V30 5509 C 547.995 -4.1082 -1.069 0
M  V30 5510 C 545.902 -5.89673 0.451591 0
M  V30 5511 H 544.832 -0.747284 -0.10041 0
M  V30 5512 H 547.483 -1.77776 0.454758 0
M  V30 5513 H 545.865 -3.7456 -1.28533 0
M  V30 5514 H 547.039 -4.35421 1.50815 0
M  V30 5515 H 545.354 -3.9836 1.21237 0
M  V30 5516 H 547.951 -5.18789 -1.2947 0
M  V30 5517 H 548.294 -3.63817 -2.02343 0
M  V30 5518 H 548.827 -3.96205 -0.355817 0
M  V30 5519 H 545.566 -6.40903 1.37565 0
M  V30 5520 H 545.086 -5.99122 -0.285193 0
M  V30 5521 H 546.765 -6.46965 0.0675067 0
M  V30 5522 N 546.897 -0.0685191 -1.57451 0
M  V30 5523 C 547.86 0.885173 -2.11417 0
M  V30 5524 C 548.86 1.22853 -1.03748 0
M  V30 5525 O 550.05 1.16235 -1.2975 0
M  V30 5526 C 547.182 2.18964 -2.61281 0
M  V30 5527 H 548.375 0.417034 -2.96986 0
M  V30 5528 H 545.928 0.18014 -1.55258 0
M  V30 5529 H 546.663 2.70321 -1.79156 0
M  V30 5530 H 546.448 1.9534 -3.39977 0
M  V30 5531 H 547.938 2.87242 -3.0312 0
M  V30 5532 N 548.375 1.56261 0.205012 0
M  V30 5533 C 549.791 1.49623 0.555433 0
M  V30 5534 C 549.991 0.766719 1.86343 0
M  V30 5535 O 549.047 0.313158 2.50551 0
M  V30 5536 C 550.36 2.94253 0.619347 0
M  V30 5537 C 551.908 3.04868 0.708855 0
M  V30 5538 C 552.383 4.50888 0.803969 0
M  V30 5539 N 553.874 4.54999 0.867758 0
M  V30 5540 C 554.609 5.65284 0.96135 0
M  V30 5541 N 554.105 6.85282 1.01786 0
M  V30 5542 N 555.898 5.53174 0.997771 0
M  V30 5543 H 548.049 2.0211 -0.653094 0
M  V30 5544 H 550.312 0.919333 -0.231366 0
M  V30 5545 H 550.018 3.50643 -0.272458 0
M  V30 5546 H 549.892 3.47063 1.47741 0
M  V30 5547 H 552.279 2.48532 1.5911 0
M  V30 5548 H 552.36 2.55199 -0.175205 0
M  V30 5549 H 552.004 5.07846 -0.0738798 0
M  V30 5550 H 551.934 4.98279 1.70369 0
M  V30 5551 H 554.425 3.68588 0.833735 0
M  V30 5552 H 554.738 7.65081 1.08951 0
M  V30 5553 H 553.083 6.8796 0.986706 0
M  V30 5554 H 556.274 4.5835 0.950392 0
M  V30 5555 H 556.447 6.39151 1.06725 0
M  V30 5556 N 549.853 -0.472356 1.50355 0
M  V30 5557 C 550.785 -1.58795 1.65278 0
M  V30 5558 C 551.798 -1.53782 0.534313 0
M  V30 5559 O 552.987 -1.59193 0.807446 0
M  V30 5560 C 550.087 -2.97672 1.62001 0
M  V30 5561 C 549.26 -3.27568 2.89859 0
M  V30 5562 C 548.319 -4.45993 2.79242 0
M  V30 5563 O 547.345 -4.46364 3.53197 0
M  V30 5564 N 548.547 -5.47578 1.92713 0
M  V30 5565 H 551.312 -1.46411 2.61503 0
M  V30 5566 H 548.873 -0.660751 1.47803 0
M  V30 5567 H 550.865 -3.74862 1.52513 0
M  V30 5568 H 549.435 -3.03832 0.735159 0
M  V30 5569 H 548.655 -2.39003 3.13483 0
M  V30 5570 H 549.943 -3.44352 3.74565 0
M  V30 5571 H 549.341 -5.50099 1.31939 0
M  V30 5572 H 547.898 -6.23757 1.8913 0
M  V30 5573 N 551.331 -1.39911 -0.725443 0
M  V30 5574 C 552.577 -1.37858 -1.48738 0
M  V30 5575 C 552.91 0.0224187 -1.94187 0
M  V30 5576 O 552.185 0.989204 -1.67466 0
M  V30 5577 C 552.468 -2.3594 -2.72038 0
M  V30 5578 C 552.321 -3.85023 -2.32546 0
M  V30 5579 C 553.64 -2.31704 -3.74167 0
M  V30 5580 H 550.759 -0.502074 -0.539528 0
M  V30 5581 H 553.401 -1.70974 -0.828728 0
M  V30 5582 H 551.551 -2.0783 -3.28236 0
M  V30 5583 H 553.223 -4.2392 -1.81905 0
M  V30 5584 H 551.466 -4.01334 -1.64661 0
M  V30 5585 H 552.137 -4.49152 -3.20884 0
M  V30 5586 H 554.613 -2.5658 -3.27576 0
M  V30 5587 H 553.489 -3.02395 -4.58092 0
M  V30 5588 H 553.75 -1.3253 -4.21768 0
M  V30 5589 N 552.809 0.956637 -1.25245 0
M  V30 5590 C 553.719 2.0868 -1.0719 0
M  V30 5591 C 554.735 1.73997 -0.00959074 0
M  V30 5592 O 555.911 2.00301 -0.210104 0
M  V30 5593 C 552.976 3.39754 -0.690526 0
M  V30 5594 C 552.037 3.88316 -1.83055 0
M  V30 5595 C 551.27 5.13134 -1.46728 0
M  V30 5596 O 551.493 5.6925 -0.362029 0
M  V30 5597 O 550.427 5.56356 -2.29677 0
M  V30 5598 H 554.253 2.26813 -2.01965 0
M  V30 5599 H 551.838 1.07098 -1.04165 0
M  V30 5600 H 553.72 4.18543 -0.489871 0
M  V30 5601 H 552.395 3.22896 0.227981 0
M  V30 5602 H 551.302 3.1054 -2.08604 0
M  V30 5603 H 552.635 4.09669 -2.72822 0
M  V30 5604 N 554.287 1.06798 1.15896 0
M  V30 5605 C 555.25 0.687328 2.18651 0
M  V30 5606 C 556.25 -0.269559 1.58524 0
M  V30 5607 O 557.44 -0.0512627 1.74125 0
M  V30 5608 C 554.572 0.0121642 3.40898 0
M  V30 5609 H 555.765 1.59701 2.53842 0
M  V30 5610 H 553.318 0.863828 1.3026 0
M  V30 5611 H 554.053 -0.910025 3.1127 0
M  V30 5612 H 553.838 0.700309 3.85795 0
M  V30 5613 H 555.328 -0.239703 4.16911 0
M  V30 5614 N 555.766 -1.3263 0.851289 0
M  V30 5615 C 556.696 -2.31449 0.308771 0
M  V30 5616 C 557.677 -1.59531 -0.590255 0
M  V30 5617 O 558.862 -1.87351 -0.511205 0
M  V30 5618 C 555.992 -3.43586 -0.506548 0
M  V30 5619 C 554.946 -4.26963 0.297753 0
M  V30 5620 C 554.272 -5.30831 -0.642094 0
M  V30 5621 C 555.572 -4.99643 1.52166 0
M  V30 5622 H 557.266 -2.77074 1.13447 0
M  V30 5623 H 554.812 -1.33207 0.546971 0
M  V30 5624 H 556.765 -4.11754 -0.896474 0
M  V30 5625 H 555.489 -2.96681 -1.36558 0
M  V30 5626 H 554.148 -3.60437 0.669391 0
M  V30 5627 H 553.796 -4.8018 -1.49788 0
M  V30 5628 H 553.496 -5.87501 -0.107968 0
M  V30 5629 H 555.02 -6.01862 -1.02927 0
M  V30 5630 H 556.434 -5.6051 1.20421 0
M  V30 5631 H 554.831 -5.66022 1.99347 0
M  V30 5632 H 555.901 -4.27701 2.28474 0
M  V30 5633 N 557.244 -0.608902 -1.45362 0
M  V30 5634 C 558.174 0.0964526 -2.33301 0
M  V30 5635 C 559.155 0.857444 -1.46908 0
M  V30 5636 O 560.34 0.827735 -1.75676 0
M  V30 5637 C 557.47 1.09354 -3.29635 0
M  V30 5638 C 556.424 0.445676 -4.25673 0
M  V30 5639 C 555.75 1.5511 -5.11708 0
M  V30 5640 C 557.05 -0.633972 -5.18438 0
M  V30 5641 H 558.744 -0.637829 -2.92527 0
M  V30 5642 H 556.29 -0.308178 -1.40664 0
M  V30 5643 H 558.243 1.59556 -3.90025 0
M  V30 5644 H 556.967 1.85843 -2.6857 0
M  V30 5645 H 555.626 -0.0354897 -3.66583 0
M  V30 5646 H 555.274 2.30631 -4.4701 0
M  V30 5647 H 554.974 1.12311 -5.76767 0
M  V30 5648 H 556.498 2.05537 -5.74967 0
M  V30 5649 H 557.912 -0.215974 -5.72893 0
M  V30 5650 H 556.309 -0.983789 -5.91981 0
M  V30 5651 H 557.379 -1.51005 -4.60788 0
M  V30 5652 N 558.722 1.53707 -0.348139 0
M  V30 5653 C 559.95 2.05406 0.248224 0
M  V30 5654 C 560.365 1.22282 1.43849 0
M  V30 5655 O 559.722 0.259244 1.80649 0
M  V30 5656 C 559.773 3.55446 0.658793 0
M  V30 5657 O 559.494 4.35417 -0.484149 0
M  V30 5658 C 560.995 4.23335 1.31539 0
M  V30 5659 H 558.215 0.669344 0.0471075 0
M  V30 5660 H 560.759 1.98257 -0.501456 0
M  V30 5661 H 558.914 3.62803 1.35841 0
M  V30 5662 H 559.328 5.24268 -0.155949 0
M  V30 5663 H 560.802 5.29692 1.55338 0
M  V30 5664 H 561.279 3.75967 2.27036 0
M  V30 5665 H 561.885 4.20184 0.657683 0
M  V30 5666 N 560.2 0.0768682 1.57412 0
M  V30 5667 C 561.611 -0.455037 1.8107 0
M  V30 5668 C 561.962 -1.69323 0.991162 0
M  V30 5669 O 561.087 -2.15328 0.215156 0
M  V30 5670 C 561.682 -0.832316 3.28417 0
M  V30 5671 C 560.241 -1.30906 3.52903 0
M  V30 5672 C 559.388 -0.296714 2.75708 0
M  V30 5673 H 562.339 0.302514 1.5579 0
M  V30 5674 H 562.36 -1.69333 3.40744 0
M  V30 5675 H 561.872 0.0690532 3.88039 0
M  V30 5676 H 559.973 -2.22875 2.98592 0
M  V30 5677 H 560.086 -1.28348 4.61588 0
M  V30 5678 H 558.45 -0.775059 2.42621 0
M  V30 5679 H 559.233 0.597015 3.38069 0
M  V30 5680 N 561.678 -1.56367 -0.196722 0
M  V30 5681 C 562.626 -1.95304 -1.2633 0
M  V30 5682 C 563.62 -0.838252 -1.47206 0
M  V30 5683 O 564.826 -1.02325 -1.48087 0
M  V30 5684 H 561.201 -0.621013 -0.424083 0
M  V30 5685 H 563.172 -2.84254 -0.907879 0
M  V30 5686 C 561.921 -2.3074 -2.60104 0
M  V30 5687 H 561.244 -3.16047 -2.44856 0
M  V30 5688 H 562.684 -2.61849 -3.33484 0
M  V30 5689 C 561.143 -1.14143 -3.16975 0
M  V30 5690 O 561.673 -0.415602 -3.99544 0
M  V30 5691 N 559.879 -0.91867 -2.75697 0
M  V30 5692 H 559.426 -1.51065 -2.08656 0
M  V30 5693 H 559.384 -0.140321 -3.14087 0
M  V30 5694 N 563.156 0.464375 -1.50603 0
M  V30 5695 C 564.384 1.23907 -1.65695 0
M  V30 5696 C 564.799 1.85658 -0.343027 0
M  V30 5697 O 564.156 1.69529 0.675739 0
M  V30 5698 C 564.207 2.3429 -2.75301 0
M  V30 5699 O 563.928 1.7507 -4.01599 0
M  V30 5700 C 565.429 3.25051 -3.01424 0
M  V30 5701 H 562.649 0.374485 -0.556778 0
M  V30 5702 H 565.193 0.55353 -1.96866 0
M  V30 5703 H 563.348 2.98607 -2.46804 0
M  V30 5704 H 563.762 2.47812 -4.62266 0
M  V30 5705 H 565.236 3.98699 -3.81763 0
M  V30 5706 H 565.713 3.84227 -2.12758 0
M  V30 5707 H 566.319 2.66463 -3.31477 0
M  V30 5708 N 564.634 1.40294 0.718013 0
M  V30 5709 C 565.862 1.4175 1.50714 0
M  V30 5710 C 566.277 0.0165366 1.88793 0
M  V30 5711 O 565.634 -0.958942 1.55276 0
M  V30 5712 C 565.685 2.30598 2.784 0
M  V30 5713 O 565.406 3.6524 2.41932 0
M  V30 5714 C 566.907 2.4062 3.72313 0
M  V30 5715 H 564.127 0.483565 0.465194 0
M  V30 5716 H 566.671 1.84316 0.885889 0
M  V30 5717 H 564.826 1.91401 3.36815 0
M  V30 5718 H 565.24 4.12402 3.24076 0
M  V30 5719 H 566.714 3.07001 4.58753 0
M  V30 5720 H 567.191 1.4305 4.15251 0
M  V30 5721 H 567.797 2.80359 3.19811 0
M  V30 5722 N 566.112 -0.949982 1.2575 0
M  V30 5723 C 567.358 -1.69766 1.10938 0
M  V30 5724 C 567.691 -1.91056 -0.348028 0
M  V30 5725 O 566.966 -1.48488 -1.25625 0
M  V30 5726 C 567.249 -3.07779 1.86933 0
M  V30 5727 C 567.102 -2.9387 3.4053 0
M  V30 5728 C 568.421 -4.07749 1.65616 0
M  V30 5729 H 565.54 -0.616144 0.404396 0
M  V30 5730 H 568.182 -1.10394 1.54639 0
M  V30 5731 H 566.332 -3.58462 1.4979 0
M  V30 5732 H 568.004 -2.50476 3.87375 0
M  V30 5733 H 566.247 -2.29686 3.68004 0
M  V30 5734 H 566.918 -3.91719 3.88922 0
M  V30 5735 H 569.394 -3.65994 1.97959 0
M  V30 5736 H 568.27 -5.02348 2.21218 0
M  V30 5737 H 568.531 -4.38029 0.598595 0
M  V30 5738 N 567.59 -1.07411 -1.15328 0
M  V30 5739 C 568.839 -0.792643 -1.85473 0
M  V30 5740 C 569.152 0.683789 -1.83259 0
M  V30 5741 O 570.358 1.08005 -2.49093 0
M  V30 5742 C 568.814 -1.36787 -3.32892 0
M  V30 5743 C 568.422 -2.87536 -3.43551 0
M  V30 5744 C 570.166 -1.16444 -4.08217 0
M  V30 5745 C 568.073 -3.38247 -4.85122 0
M  V30 5746 H 567.003 -0.292838 -0.694811 0
M  V30 5747 H 569.654 -1.29426 -1.30082 0
M  V30 5748 H 568.036 -0.793993 -3.87958 0
M  V30 5749 H 569.21 -3.50973 -2.98588 0
M  V30 5750 H 567.525 -3.06676 -2.81672 0
M  V30 5751 H 570.122 -1.51808 -5.12697 0
M  V30 5752 H 570.465 -0.10353 -4.16171 0
M  V30 5753 H 570.998 -1.70472 -3.59422 0
M  V30 5754 H 567.737 -4.43866 -4.82351 0
M  V30 5755 H 567.257 -2.79564 -5.30664 0
M  V30 5756 H 568.936 -3.34238 -5.5398 0
M  V30 5757 N 569.068 1.32177 -0.85831 0
M  V30 5758 C 570.031 2.27086 -0.310588 0
M  V30 5759 C 571.031 1.51751 0.531806 0
M  V30 5760 O 572.221 1.70794 0.34279 0
M  V30 5761 C 569.353 3.36266 0.560179 0
M  V30 5762 H 570.546 2.77045 -1.1483 0
M  V30 5763 H 568.099 1.42911 -0.632942 0
M  V30 5764 H 568.834 2.9158 1.41956 0
M  V30 5765 H 568.619 3.92077 -0.0428473 0
M  V30 5766 H 570.109 4.06974 0.936056 0
M  V30 5767 N 570.547 0.616602 1.45037 0
M  V30 5768 C 571.457 -0.0985401 2.34393 0
M  V30 5769 C 572.473 -0.850971 1.51771 0
M  V30 5770 O 573.649 -0.806521 1.84546 0
M  V30 5771 C 570.714 -1.07748 3.29532 0
M  V30 5772 C 569.775 -0.326022 4.2806 0
M  V30 5773 C 569.008 -1.25833 5.18654 0
M  V30 5774 O 569.231 -2.49652 5.12864 0
M  V30 5775 O 568.165 -0.750512 5.97203 0
M  V30 5776 H 571.991 0.636016 2.96966 0
M  V30 5777 H 569.576 0.376832 1.44569 0
M  V30 5778 H 571.458 -1.64107 3.88133 0
M  V30 5779 H 570.133 -1.79291 2.69512 0
M  V30 5780 H 569.04 0.280253 3.73049 0
M  V30 5781 H 570.373 0.349091 4.9096 0
M  V30 5782 N 572.025 -1.5352 0.356285 0
M  V30 5783 C 573.253 -2.05534 -0.237328 0
M  V30 5784 C 573.668 -1.23043 -1.43199 0
M  V30 5785 O 573.025 -0.268821 -1.80509 0
M  V30 5786 C 573.076 -3.55791 -0.639933 0
M  V30 5787 O 572.797 -4.35154 0.507233 0
M  V30 5788 C 574.298 -4.24027 -1.29292 0
M  V30 5789 H 571.518 -0.669585 -0.0435572 0
M  V30 5790 H 574.062 -1.97988 0.511963 0
M  V30 5791 H 572.217 -3.63518 -1.33915 0
M  V30 5792 H 572.631 -5.24178 0.18375 0
M  V30 5793 H 574.105 -5.30509 -1.52527 0
M  V30 5794 H 574.582 -3.77166 -2.25039 0
M  V30 5795 H 575.188 -4.20527 -0.63539 0
M  V30 5796 N 573.503 -0.0852151 -1.57369 0
M  V30 5797 C 574.751 0.579658 -1.93609 0
M  V30 5798 C 575.072 1.69332 -0.967043 0
M  V30 5799 O 574.342 1.95892 -0.0174215 0
M  V30 5800 H 572.922 0.217113 -0.714752 0
M  V30 5801 H 575.584 -0.146226 -1.94351 0
M  V30 5802 H 574.68 0.996276 -2.95771 0
M  V30 5803 N 574.981 1.5647 0.188427 0
M  V30 5804 C 576.258 1.71857 0.934058 0
M  V30 5805 C 576.638 0.641867 2.01105 0
M  V30 5806 O 575.986 -0.346098 2.25864 0
M  V30 5807 C 576.196 3.14431 1.5144 0
M  V30 5808 C 577.544 3.74869 1.99396 0
M  V30 5809 O 578.568 3.17601 1.61269 0
M  V30 5810 O 577.427 4.75387 2.69573 0
M  V30 5811 H 574.521 0.701186 0.438483 0
M  V30 5812 H 577.067 1.68768 0.177599 0
M  V30 5813 H 575.839 3.8427 0.738416 0
M  V30 5814 H 575.462 3.21775 2.33552 0
M  V30 5815 N 576.459 -0.456382 1.50847 0
M  V30 5816 C 577.684 -1.2349 1.66628 0
M  V30 5817 C 578.109 -1.84715 0.355254 0
M  V30 5818 O 577.467 -1.67961 -0.682559 0
M  V30 5819 C 577.515 -2.30865 2.77009 0
M  V30 5820 O 576.619 -3.35882 2.39285 0
M  V30 5821 H 575.96 -0.36266 0.556214 0
M  V30 5822 H 578.49 -0.541374 1.97308 0
M  V30 5823 H 578.5 -2.75949 3.00526 0
M  V30 5824 H 577.175 -1.85677 3.72152 0
M  V30 5825 H 575.752 -2.96406 2.26269 0
M  V30 5826 N 577.937 -1.40673 -0.710563 0
M  V30 5827 C 579.183 -1.4043 -1.47142 0
M  V30 5828 C 579.538 -0.00781557 -1.92398 0
M  V30 5829 O 578.831 0.963535 -1.6561 0
M  V30 5830 C 579.025 -2.33253 -2.70791 0
M  V30 5831 C 578.854 -3.81789 -2.37629 0
M  V30 5832 C 577.624 -4.5057 -2.28724 0
M  V30 5833 C 579.822 -4.73152 -2.01572 0
M  V30 5834 N 577.804 -5.84312 -1.88289 0
M  V30 5835 C 579.175 -5.95728 -1.71778 0
M  V30 5836 C 581.23 -4.6094 -1.88252 0
M  V30 5837 C 579.933 -7.07454 -1.30003 0
M  V30 5838 C 581.959 -5.72613 -1.47881 0
M  V30 5839 C 581.321 -6.94278 -1.18987 0
M  V30 5840 H 577.42 -0.569115 -0.536314 0
M  V30 5841 H 580.004 -1.76425 -0.823547 0
M  V30 5842 H 578.175 -1.99378 -3.33321 0
M  V30 5843 H 579.907 -2.23833 -3.37166 0
M  V30 5844 H 576.662 -4.04315 -2.46629 0
M  V30 5845 H 577.086 -6.55153 -1.70596 0
M  V30 5846 H 581.728 -3.67389 -2.09249 0
M  V30 5847 H 579.446 -8.00884 -1.07749 0
M  V30 5848 H 583.032 -5.65161 -1.38145 0
M  V30 5849 H 581.912 -7.79222 -0.88219 0
M  V30 5850 N 579.415 0.9433 -1.26252 0
M  V30 5851 C 580.662 1.68925 -1.11672 0
M  V30 5852 C 580.99 1.91499 0.340329 0
M  V30 5853 O 580.245 1.49189 1.26653 0
M  V30 5854 C 580.544 3.07073 -1.82868 0
M  V30 5855 C 580.21 3.04262 -3.32769 0
M  V30 5856 C 578.872 3.03203 -3.7366 0
M  V30 5857 C 581.224 2.96729 -4.28487 0
M  V30 5858 C 578.552 2.92373 -5.0866 0
M  V30 5859 C 580.904 2.87442 -5.63525 0
M  V30 5860 C 579.568 2.84724 -6.03729 0
M  V30 5861 H 578.838 0.618141 -0.408635 0
M  V30 5862 H 581.485 1.10124 -1.56668 0
M  V30 5863 H 579.79 3.69486 -1.30335 0
M  V30 5864 H 581.487 3.63635 -1.69029 0
M  V30 5865 H 578.077 3.05865 -3.00241 0
M  V30 5866 H 582.261 2.96658 -3.97879 0
M  V30 5867 H 577.517 2.88645 -5.38975 0
M  V30 5868 H 581.691 2.80576 -6.37377 0
M  V30 5869 H 579.318 2.76089 -7.08293 0
M  V30 5870 N 580.893 1.08022 1.14757 0
M  V30 5871 C 581.841 0.701088 2.21783 0
M  V30 5872 C 582.835 -0.291311 1.66876 0
M  V30 5873 O 584.041 -0.154296 1.79337 0
M  V30 5874 H 580.416 0.208668 0.722469 0
M  V30 5875 H 582.387 1.61321 2.51034 0
M  V30 5876 C 581.136 0.122278 3.47485 0
M  V30 5877 H 580.459 0.877065 3.90061 0
M  V30 5878 H 581.899 -0.105248 4.23869 0
M  V30 5879 C 580.358 -1.13883 3.17068 0
M  V30 5880 O 580.888 -2.22429 3.34497 0
M  V30 5881 N 579.094 -1.04767 2.71058 0
M  V30 5882 H 578.641 -0.164302 2.57075 0
M  V30 5883 H 578.599 -1.89224 2.51081 0
M  V30 5884 N 582.371 -1.3172 0.865308 0
M  V30 5885 C 583.334 -2.26918 0.322627 0
M  V30 5886 C 584.334 -1.52031 -0.523751 0
M  V30 5887 O 585.524 -1.70973 -0.333727 0
M  V30 5888 C 582.656 -3.36558 -0.542338 0
M  V30 5889 H 583.849 -2.76432 1.16298 0
M  V30 5890 H 581.402 -1.42573 0.640512 0
M  V30 5891 H 582.137 -2.92329 -1.40407 0
M  V30 5892 H 581.922 -3.92048 0.0636395 0
M  V30 5893 H 583.412 -4.07465 -0.91446 0
M  V30 5894 N 583.85 -0.624285 -1.44708 0
M  V30 5895 C 584.782 0.12305 -2.28869 0
M  V30 5896 C 585.795 0.81557 -1.40898 0
M  V30 5897 O 586.984 0.678162 -1.65116 0
M  V30 5898 C 584.084 1.19612 -3.1709 0
M  V30 5899 C 583.257 0.587452 -4.33437 0
M  V30 5900 C 582.316 1.55358 -5.02743 0
M  V30 5901 O 581.341 1.07338 -5.58988 0
M  V30 5902 N 582.543 2.88798 -5.03563 0
M  V30 5903 H 585.308 -0.599193 -2.93649 0
M  V30 5904 H 582.87 -0.464954 -1.5508 0
M  V30 5905 H 584.861 1.84261 -3.60319 0
M  V30 5906 H 583.432 1.82067 -2.54107 0
M  V30 5907 H 582.652 -0.237509 -3.93484 0
M  V30 5908 H 583.94 0.161326 -5.08544 0
M  V30 5909 H 583.338 3.30399 -4.59188 0
M  V30 5910 H 581.894 3.48826 -5.50603 0
M  V30 5911 N 585.328 1.53329 -0.364422 0
M  V30 5912 C 586.744 1.59594 -0.0133165 0
M  V30 5913 C 586.944 1.37959 1.46865 0
M  V30 5914 O 586 1.18418 2.2301 0
M  V30 5915 C 587.313 2.97032 -0.468213 0
M  V30 5916 C 588.861 3.10138 -0.422334 0
M  V30 5917 C 589.336 4.49986 -0.853024 0
M  V30 5918 N 590.827 4.56098 -0.808037 0
M  V30 5919 C 591.562 5.62495 -1.11299 0
M  V30 5920 N 591.058 6.7665 -1.48717 0
M  V30 5921 N 592.851 5.52473 -1.03586 0
M  V30 5922 H 585.002 1.65644 -1.32951 0
M  V30 5923 H 587.265 0.77684 -0.543345 0
M  V30 5924 H 586.971 3.18 -1.5023 0
M  V30 5925 H 586.845 3.76918 0.145775 0
M  V30 5926 H 589.232 2.88881 0.602622 0
M  V30 5927 H 589.313 2.32263 -1.0718 0
M  V30 5928 H 588.957 4.7198 -1.87609 0
M  V30 5929 H 588.887 5.26289 -0.180819 0
M  V30 5930 H 591.378 3.74131 -0.532361 0
M  V30 5931 H 591.691 7.53776 -1.70415 0
M  V30 5932 H 590.036 6.78044 -1.52581 0
M  V30 5933 H 593.227 4.6217 -0.742736 0
M  V30 5934 H 593.4 6.35295 -1.27686 0
M  V30 5935 N 586.806 0.0935595 1.57322 0
M  V30 5936 C 587.739 -0.902505 2.09595 0
M  V30 5937 C 588.717 -1.27732 1.00615 0
M  V30 5938 O 589.901 -1.38283 1.28102 0
M  V30 5939 C 587.028 -2.20416 2.57166 0
M  V30 5940 C 586.074 -1.97932 3.7779 0
M  V30 5941 S 586.907 -1.21873 5.21447 0
M  V30 5942 C 588.063 -2.53273 5.72367 0
M  V30 5943 H 588.296 -0.457797 2.93754 0
M  V30 5944 H 585.829 -0.119694 1.53935 0
M  V30 5945 H 587.787 -2.95217 2.85232 0
M  V30 5946 H 586.448 -2.62008 1.73235 0
M  V30 5947 H 585.641 -2.94316 4.09138 0
M  V30 5948 H 585.243 -1.3126 3.5021 0
M  V30 5949 H 587.535 -3.49256 5.8054 0
M  V30 5950 H 588.478 -2.26505 6.70896 0
M  V30 5951 H 588.886 -2.61475 5.00291 0
M  V30 5952 N 588.284 -1.56567 -0.180126 0
M  V30 5953 C 589.231 -1.95725 -1.22313 0
M  V30 5954 C 590.201 -0.819911 -1.44453 0
M  V30 5955 O 591.386 -1.07931 -1.57339 0
M  V30 5956 C 588.526 -2.31484 -2.55947 0
M  V30 5957 C 587.639 -3.58354 -2.4126 0
M  V30 5958 C 586.774 -3.83366 -3.67701 0
M  V30 5959 C 585.813 -5.03612 -3.47909 0
M  V30 5960 N 584.95 -5.24802 -4.66398 0
M  V30 5961 H 589.79 -2.84642 -0.882198 0
M  V30 5962 H 587.327 -1.4085 -0.42422 0
M  V30 5963 H 589.285 -2.50237 -3.33822 0
M  V30 5964 H 587.915 -1.45689 -2.88053 0
M  V30 5965 H 586.967 -3.47565 -1.54606 0
M  V30 5966 H 588.279 -4.46386 -2.22577 0
M  V30 5967 H 587.433 -4.02439 -4.54013 0
M  V30 5968 H 586.172 -2.93692 -3.89353 0
M  V30 5969 H 585.177 -4.84447 -2.59983 0
M  V30 5970 H 586.402 -5.94809 -3.27688 0
M  V30 5971 H 584.348 -4.38079 -4.88286 0
M  V30 5972 H 584.265 -6.07041 -4.50596 0
M  V30 5973 H 585.533 -5.48346 -5.54019 0
M  V30 5974 N 589.762 0.448376 -1.51087 0
M  V30 5975 C 590.692 1.55102 -1.74544 0
M  V30 5976 C 591.673 1.59357 -0.594932 0
M  V30 5977 O 592.858 1.75261 -0.836491 0
M  V30 5978 C 589.988 2.93268 -1.86041 0
M  V30 5979 C 588.942 3.03877 -3.01402 0
M  V30 5980 C 588.268 4.43914 -2.98068 0
M  V30 5981 C 589.568 2.7898 -4.41551 0
M  V30 5982 H 591.262 1.35724 -2.66869 0
M  V30 5983 H 588.808 0.651498 -1.28419 0
M  V30 5984 H 590.761 3.70356 -2.01034 0
M  V30 5985 H 589.485 3.13853 -0.903548 0
M  V30 5986 H 588.144 2.29227 -2.86096 0
M  V30 5987 H 587.792 4.6145 -2.00182 0
M  V30 5988 H 587.492 4.51944 -3.75527 0
M  V30 5989 H 589.016 5.22991 -3.1514 0
M  V30 5990 H 590.43 3.45805 -4.57265 0
M  V30 5991 H 588.827 2.98431 -5.20633 0
M  V30 5992 H 589.897 1.74663 -4.5235 0
M  V30 5993 N 591.24 1.41047 0.703093 0
M  V30 5994 C 592.651 1.35657 1.28274 0
M  V30 5995 C 593.002 0.0360309 1.96167 0
M  V30 5996 O 592.127 -0.865833 1.98324 0
M  V30 5997 C 592.722 2.45707 2.33267 0
M  V30 5998 C 591.281 2.43738 2.86825 0
M  V30 5999 C 590.428 2.25941 1.60767 0
M  V30 6000 H 593.379 1.50672 0.49836 0
M  V30 6001 H 593.4 2.14333 3.14391 0
M  V30 6002 H 592.912 3.41805 1.83824 0
M  V30 6003 H 591.013 1.51375 3.40465 0
M  V30 6004 H 591.126 3.39779 3.37768 0
M  V30 6005 H 589.49 1.73681 1.86298 0
M  V30 6006 H 590.273 3.24054 1.1333 0
M  V30 6007 N 592.718 -0.936591 1.26751 0
M  V30 6008 C 593.666 -2.0573 1.08527 0
M  V30 6009 C 594.66 -1.69397 0.0108784 0
M  V30 6010 O 595.866 -1.79215 0.167915 0
M  V30 6011 H 592.241 -0.673691 0.334133 0
M  V30 6012 H 594.212 -2.1825 2.03493 0
M  V30 6013 C 592.961 -3.39738 0.739845 0
M  V30 6014 H 592.284 -3.68174 1.55845 0
M  V30 6015 H 593.724 -4.18955 0.652149 0
M  V30 6016 C 592.183 -3.32292 -0.555288 0
M  V30 6017 O 592.713 -3.68794 -1.59229 0
M  V30 6018 N 590.919 -2.85394 -0.54762 0
M  V30 6019 H 590.466 -2.55886 0.296667 0
M  V30 6020 H 590.424 -2.80795 -1.41427 0
M  V30 6021 N 594.196 -1.08629 -1.14182 0
M  V30 6022 C 595.444 -0.815731 -1.84906 0
M  V30 6023 C 595.765 0.660441 -1.83475 0
M  V30 6024 O 595.035 1.47888 -1.28476 0
M  V30 6025 H 593.615 -0.298773 -0.684648 0
M  V30 6026 H 596.277 -1.37274 -1.38354 0
M  V30 6027 H 595.373 -1.16193 -2.89665 0
M  V30 6028 N 595.674 1.31259 -0.872281 0
M  V30 6029 C 596.637 2.26744 -0.334656 0
M  V30 6030 C 597.637 1.52307 0.515681 0
M  V30 6031 O 598.827 1.71148 0.324656 0
M  V30 6032 C 595.959 3.36841 0.524482 0
M  V30 6033 H 597.152 2.75812 -1.17762 0
M  V30 6034 H 594.705 1.42232 -0.648064 0
M  V30 6035 H 595.44 2.93069 1.38855 0
M  V30 6036 H 595.225 3.92009 -0.0844299 0
M  V30 6037 H 596.715 4.07944 0.892838 0
M  V30 6038 N 597.152 0.631951 1.44375 0
M  V30 6039 C 598.568 0.297642 1.568 0
M  V30 6040 C 598.768 -1.19916 1.61934 0
M  V30 6041 O 597.824 -1.98324 1.56281 0
M  V30 6042 C 599.137 0.990286 2.83926 0
M  V30 6043 C 600.685 0.968507 2.97639 0
M  V30 6044 C 601.16 1.64163 4.27568 0
M  V30 6045 N 602.651 1.60826 4.34384 0
M  V30 6046 C 603.386 2.09802 5.33639 0
M  V30 6047 N 602.882 2.66973 6.39294 0
M  V30 6048 N 604.675 2.00426 5.25153 0
M  V30 6049 H 596.826 1.60353 1.39286 0
M  V30 6050 H 599.089 0.673142 0.667521 0
M  V30 6051 H 598.795 2.04519 2.8612 0
M  V30 6052 H 598.669 0.528563 3.73478 0
M  V30 6053 H 601.056 -0.0779247 2.94997 0
M  V30 6054 H 601.137 1.46873 2.09433 0
M  V30 6055 H 600.781 2.68752 4.3097 0
M  V30 6056 H 600.711 1.11624 5.14634 0
M  V30 6057 H 603.202 1.19087 3.58646 0
M  V30 6058 H 603.515 3.02074 7.11316 0
M  V30 6059 H 601.86 2.71024 6.39977 0
M  V30 6060 H 605.051 1.55483 4.41523 0
M  V30 6061 H 605.224 2.38906 6.02352 0
M  V30 6062 N 598.631 -1.53133 0.372548 0
M  V30 6063 C 599.877 -2.01654 -0.215277 0
M  V30 6064 C 600.21 -1.25914 -1.47849 0
M  V30 6065 O 599.485 -0.3548 -1.91237 0
M  V30 6066 C 599.768 -3.56609 -0.500187 0
M  V30 6067 C 599.621 -4.43036 0.777145 0
M  V30 6068 C 600.94 -4.20528 -1.29786 0
M  V30 6069 H 598.059 -0.732991 -0.0767686 0
M  V30 6070 H 600.701 -1.83335 0.498814 0
M  V30 6071 H 598.851 -3.7235 -1.10852 0
M  V30 6072 H 600.523 -4.39079 1.41447 0
M  V30 6073 H 598.766 -4.10723 1.39604 0
M  V30 6074 H 599.437 -5.49424 0.532662 0
M  V30 6075 H 601.913 -4.08663 -0.783198 0
M  V30 6076 H 600.789 -5.28962 -1.46596 0
M  V30 6077 H 601.05 -3.77051 -2.30836 0
M  V30 6078 N 600.109 -0.101901 -1.5727 0
M  V30 6079 C 601.019 0.868647 -2.17926 0
M  V30 6080 C 602.035 1.30527 -1.1506 0
M  V30 6081 O 603.211 1.37178 -1.47459 0
M  V30 6082 C 600.276 2.10727 -2.75309 0
M  V30 6083 C 599.337 1.7242 -3.93154 0
M  V30 6084 C 598.57 2.90377 -4.47791 0
M  V30 6085 O 598.793 4.05305 -4.01353 0
M  V30 6086 O 597.727 2.6845 -5.38719 0
M  V30 6087 H 601.553 0.382544 -3.01281 0
M  V30 6088 H 599.138 0.122812 -1.48894 0
M  V30 6089 H 601.02 2.83303 -3.11958 0
M  V30 6090 H 599.695 2.58376 -1.94996 0
M  V30 6091 H 598.602 0.970039 -3.61305 0
M  V30 6092 H 599.935 1.29528 -4.74851 0
M  V30 6093 N 601.587 1.56661 0.17182 0
M  V30 6094 C 602.817 1.85831 0.902804 0
M  V30 6095 C 603.225 0.685157 1.76358 0
M  V30 6096 O 602.568 -0.354947 1.80238 0
M  V30 6097 C 602.63 3.09406 1.83053 0
M  V30 6098 C 602.294 4.4231 1.1494 0
M  V30 6099 C 603.291 5.17342 0.515104 0
M  V30 6100 C 600.976 4.89045 1.14631 0
M  V30 6101 C 602.97 6.37299 -0.113194 0
M  V30 6102 C 600.657 6.08933 0.514184 0
M  V30 6103 C 601.655 6.82904 -0.114463 0
M  V30 6104 O 601.343 8.00518 -0.736622 0
M  V30 6105 H 601.075 0.620715 0.267748 0
M  V30 6106 H 603.629 2.04637 0.176918 0
M  V30 6107 H 601.859 2.86544 2.59672 0
M  V30 6108 H 603.548 3.25027 2.4313 0
M  V30 6109 H 604.314 4.82317 0.509474 0
M  V30 6110 H 600.193 4.31409 1.62502 0
M  V30 6111 H 603.737 6.94976 -0.604477 0
M  V30 6112 H 599.634 6.43423 0.517395 0
M  V30 6113 H 600.402 8.16027 -0.635822 0
M  V30 6114 N 603.065 -0.440357 1.51323 0
M  V30 6115 C 603.975 -1.55955 1.75258 0
M  V30 6116 C 604.991 -1.61933 0.636687 0
M  V30 6117 O 606.167 -1.79231 0.918593 0
M  V30 6118 C 603.232 -2.9196 1.86977 0
M  V30 6119 C 602.293 -2.96122 3.10822 0
M  V30 6120 C 601.526 -4.2564 3.21973 0
M  V30 6121 O 601.749 -5.17851 2.39137 0
M  V30 6122 O 600.683 -4.36025 4.14929 0
M  V30 6123 H 604.509 -1.38673 2.70191 0
M  V30 6124 H 602.094 -0.623055 1.35788 0
M  V30 6125 H 603.976 -3.72682 1.96688 0
M  V30 6126 H 602.651 -3.09375 0.952307 0
M  V30 6127 H 601.558 -2.14366 3.06591 0
M  V30 6128 H 602.891 -2.83651 4.02247 0
M  V30 6129 N 604.543 -1.41418 -0.695603 0
M  V30 6130 C 605.476 -1.3768 -1.81988 0
M  V30 6131 C 606.454 -0.244061 -1.60758 0
M  V30 6132 O 607.638 -0.430965 -1.83507 0
M  V30 6133 C 604.765 -1.1476 -3.18666 0
M  V30 6134 C 603.811 -2.30752 -3.58686 0
M  V30 6135 S 604.644 -3.9323 -3.63498 0
M  V30 6136 C 605.8 -3.72613 -5.02902 0
M  V30 6137 H 606.033 -2.32822 -1.84882 0
M  V30 6138 H 603.566 -1.27942 -0.86431 0
M  V30 6139 H 605.524 -1.02223 -3.97569 0
M  V30 6140 H 604.185 -0.212385 -3.13381 0
M  V30 6141 H 603.378 -2.10409 -4.57978 0
M  V30 6142 H 602.98 -2.39696 -2.87092 0
M  V30 6143 H 605.272 -3.32317 -5.904 0
M  V30 6144 H 606.215 -4.71507 -5.28286 0
M  V30 6145 H 606.623 -3.0589 -4.74438 0
M  V30 6146 N 606.021 0.929856 -1.27246 0
M  V30 6147 C 606.953 2.03434 -1.0558 0
M  V30 6148 C 607.966 1.62795 -0.0125762 0
M  V30 6149 O 609.155 1.76685 -0.2539 0
M  V30 6150 C 606.255 3.33915 -0.57912 0
M  V30 6151 C 605.428 4.03259 -1.69415 0
M  V30 6152 C 604.487 5.12014 -1.21357 0
M  V30 6153 O 603.513 5.36097 -1.91282 0
M  V30 6154 N 604.715 5.8046 -0.0680622 0
M  V30 6155 H 607.48 2.22583 -2.00691 0
M  V30 6156 H 605.041 1.1001 -1.18783 0
M  V30 6157 H 607.033 4.03978 -0.241563 0
M  V30 6158 H 605.603 3.11355 0.278703 0
M  V30 6159 H 604.823 3.26958 -2.20209 0
M  V30 6160 H 606.111 4.46337 -2.44255 0
M  V30 6161 H 605.509 5.63345 0.515626 0
M  V30 6162 H 604.066 6.51461 0.210332 0
M  V30 6163 N 607.499 1.09233 1.13605 0
M  V30 6164 C 608.745 0.838255 1.85324 0
M  V30 6165 C 609.1 -0.629314 1.81817 0
M  V30 6166 O 608.393 -1.45729 1.24393 0
M  V30 6167 C 608.587 1.305 3.32723 0
M  V30 6168 C 608.416 2.81641 3.50583 0
M  V30 6169 C 607.186 3.49494 3.64941 0
M  V30 6170 C 609.384 3.79789 3.46792 0
M  V30 6171 N 607.366 4.89082 3.71042 0
M  V30 6172 C 608.737 5.05319 3.59239 0
M  V30 6173 C 610.792 3.72673 3.30181 0
M  V30 6174 C 609.495 6.24574 3.56791 0
M  V30 6175 C 611.521 4.91413 3.29039 0
M  V30 6176 C 610.883 6.15785 3.42035 0
M  V30 6177 H 606.982 0.359572 0.69443 0
M  V30 6178 H 609.566 1.39232 1.36098 0
M  V30 6179 H 607.737 0.778411 3.8052 0
M  V30 6180 H 609.469 0.996465 3.92241 0
M  V30 6181 H 606.224 2.9992 3.66531 0
M  V30 6182 H 606.648 5.61787 3.77789 0
M  V30 6183 H 611.29 2.77444 3.19037 0
M  V30 6184 H 609.008 7.20105 3.66708 0
M  V30 6185 H 612.594 4.87604 3.17386 0
M  V30 6186 H 611.474 7.06126 3.41111 0
M  V30 6187 N 608.977 -1.30795 0.87923 0
M  V30 6188 C 610.225 -1.95974 0.493809 0
M  V30 6189 C 610.546 -1.69787 -0.959021 0
M  V30 6190 O 609.816 -1.01832 -1.67353 0
M  V30 6191 H 608.396 -0.725083 0.179622 0
M  V30 6192 H 611.058 -1.59432 1.12105 0
M  V30 6193 H 610.154 -3.05058 0.659263 0
M  V30 6194 N 610.455 -0.639598 -1.44038 0
M  V30 6195 C 611.405 0.0823038 -2.27851 0
M  V30 6196 C 612.389 0.807991 -1.39141 0
M  V30 6197 O 613.581 0.692702 -1.62882 0
M  V30 6198 C 610.71 1.05742 -3.26609 0
M  V30 6199 C 609.796 0.330911 -4.22807 0
M  V30 6200 N 610.187 -0.645126 -5.01669 0
M  V30 6201 C 608.485 0.574214 -4.42288 0
M  V30 6202 C 609.186 -1.07513 -5.71678 0
M  V30 6203 N 608.162 -0.412164 -5.42035 0
M  V30 6204 H 611.964 -0.666861 -2.86234 0
M  V30 6205 H 609.478 -0.465777 -1.55577 0
M  V30 6206 H 611.475 1.58927 -3.85419 0
M  V30 6207 H 610.135 1.80679 -2.69787 0
M  V30 6208 H 611.146 -1.02329 -5.0769 0
M  V30 6209 H 607.823 1.30581 -3.96554 0
M  V30 6210 H 609.213 -1.88196 -6.45005 0
M  V30 6211 N 611.933 1.52934 -0.380664 0
M  V30 6212 C 613.182 2.00651 0.205477 0
M  V30 6213 C 613.495 1.27164 1.48623 0
M  V30 6214 O 614.701 1.65547 2.15189 0
M  V30 6215 C 613.157 3.57479 0.416726 0
M  V30 6216 C 612.765 4.39857 -0.850268 0
M  V30 6217 C 614.509 4.13509 0.959702 0
M  V30 6218 C 612.416 5.88269 -0.607773 0
M  V30 6219 H 611.346 0.749684 0.0805614 0
M  V30 6220 H 613.997 1.76508 -0.501732 0
M  V30 6221 H 612.379 3.77836 1.18557 0
M  V30 6222 H 613.553 4.31269 -1.62307 0
M  V30 6223 H 611.868 3.95005 -1.31756 0
M  V30 6224 H 614.465 5.22039 1.15669 0
M  V30 6225 H 614.808 3.69054 1.92626 0
M  V30 6226 H 615.341 3.9701 0.250645 0
M  V30 6227 H 612.08 6.3703 -1.54509 0
M  V30 6228 H 611.6 5.99667 0.126247 0
M  V30 6229 H 613.279 6.46558 -0.239014 0
M  V30 6230 N 613.412 0.11024 1.57214 0
M  V30 6231 C 614.66 -0.548783 1.94506 0
M  V30 6232 C 614.981 -1.67772 0.99386 0
M  V30 6233 O 614.251 -1.9584 0.0485841 0
M  V30 6234 H 612.831 -0.205715 0.718116 0
M  V30 6235 H 615.493 0.177127 1.94093 0
M  V30 6236 H 614.589 -0.949096 2.97319 0
M  V30 6237 N 614.89 -1.56749 -0.16351 0
M  V30 6238 C 616.136 -1.83597 -0.875436 0
M  V30 6239 C 616.491 -0.691907 -1.79528 0
M  V30 6240 O 615.784 0.311193 -1.89056 0
M  V30 6241 C 615.978 -3.14342 -1.70071 0
M  V30 6242 C 615.807 -4.41356 -0.862265 0
M  V30 6243 C 614.577 -5.02467 -0.534299 0
M  V30 6244 C 616.775 -5.1391 -0.200203 0
M  V30 6245 N 614.757 -6.13068 0.31947 0
M  V30 6246 C 616.128 -6.17862 0.514398 0
M  V30 6247 C 618.183 -4.97757 -0.119171 0
M  V30 6248 C 616.886 -7.07412 1.30236 0
M  V30 6249 C 618.912 -5.87756 0.655477 0
M  V30 6250 C 618.274 -6.91178 1.35842 0
M  V30 6251 H 614.373 -0.722702 -0.298708 0
M  V30 6252 H 616.957 -1.94182 -0.141883 0
M  V30 6253 H 615.128 -3.04933 -2.40562 0
M  V30 6254 H 616.86 -3.29156 -2.35453 0
M  V30 6255 H 613.615 -4.65611 -0.866222 0
M  V30 6256 H 614.039 -6.72978 0.736893 0
M  V30 6257 H 618.681 -4.178 -0.648278 0
M  V30 6258 H 616.399 -7.86808 1.84278 0
M  V30 6259 H 619.985 -5.77328 0.719948 0
M  V30 6260 H 618.865 -7.59614 1.94822 0
M  V30 6261 N 616.368 0.432326 -1.51554 0
M  V30 6262 C 617.593 1.20824 -1.68571 0
M  V30 6263 C 618.018 1.84126 -0.384596 0
M  V30 6264 O 617.376 1.69025 0.655751 0
M  V30 6265 C 617.424 2.26429 -2.80646 0
M  V30 6266 O 616.528 3.32032 -2.44598 0
M  V30 6267 H 615.869 0.353765 -0.561913 0
M  V30 6268 H 618.399 0.509916 -1.98144 0
M  V30 6269 H 618.409 2.71133 -3.04878 0
M  V30 6270 H 617.084 1.79733 -3.75058 0
M  V30 6271 H 615.661 2.92769 -2.30956 0
M  V30 6272 N 617.846 1.41785 0.688094 0
M  V30 6273 C 619.092 1.41753 1.4503 0
M  V30 6274 C 619.425 0.0290745 1.94178 0
M  V30 6275 O 618.7 -0.944456 1.7003 0
M  V30 6276 C 618.983 2.43069 2.65686 0
M  V30 6277 C 618.836 3.91053 2.22256 0
M  V30 6278 C 620.155 2.41543 3.67893 0
M  V30 6279 H 617.274 0.516202 0.526027 0
M  V30 6280 H 619.916 1.73111 0.783105 0
M  V30 6281 H 618.066 2.1646 3.2261 0
M  V30 6282 H 619.738 4.28594 1.70602 0
M  V30 6283 H 617.981 4.05559 1.53963 0
M  V30 6284 H 618.652 4.57501 3.08863 0
M  V30 6285 H 621.128 2.65175 3.20658 0
M  V30 6286 H 620.004 3.14434 4.49914 0
M  V30 6287 H 620.265 1.43666 4.18106 0
M  V30 6288 N 619.324 -0.923095 1.27737 0
M  V30 6289 C 620.735 -1.48626 1.12993 0
M  V30 6290 C 621.086 -1.94142 -0.283439 0
M  V30 6291 O 620.211 -1.81605 -1.17681 0
M  V30 6292 C 620.806 -2.70117 2.04505 0
M  V30 6293 C 619.365 -3.22642 1.93853 0
M  V30 6294 C 618.512 -1.95368 1.96791 0
M  V30 6295 H 621.463 -0.736737 1.40563 0
M  V30 6296 H 621.484 -3.4506 1.60356 0
M  V30 6297 H 620.996 -2.36959 3.07363 0
M  V30 6298 H 619.097 -3.60549 0.939968 0
M  V30 6299 H 619.21 -3.88525 2.80331 0
M  V30 6300 H 617.574 -2.12061 1.41076 0
M  V30 6301 H 618.357 -1.64517 3.01312 0
M  V30 6302 N 620.802 -1.09834 -1.13024 0
M  V30 6303 C 621.765 -0.745058 -2.16752 0
M  V30 6304 C 622.765 0.227435 -1.59183 0
M  V30 6305 O 623.955 0.0050786 -1.74199 0
M  V30 6306 C 621.087 -0.102543 -3.40746 0
M  V30 6307 H 622.28 -1.66375 -2.49518 0
M  V30 6308 H 619.833 -0.898061 -1.27924 0
M  V30 6309 H 620.568 0.827177 -3.13573 0
M  V30 6310 H 620.353 -0.80235 -3.83803 0
M  V30 6311 H 621.843 0.129082 -4.174 0
M  V30 6312 N 622.28 1.30327 -0.886154 0
M  V30 6313 C 623.243 2.26376 -0.358687 0
M  V30 6314 C 624.243 1.52845 0.499498 0
M  V30 6315 O 625.433 1.71483 0.306485 0
M  V30 6316 C 622.565 3.37379 0.488726 0
M  V30 6317 H 623.758 2.74547 -1.20681 0
M  V30 6318 H 621.311 1.41536 -0.663113 0
M  V30 6319 H 622.046 2.94526 1.35739 0
M  V30 6320 H 621.831 3.91897 -0.126003 0
M  V30 6321 H 623.321 4.08868 0.84952 0
M  V30 6322 N 623.758 0.647228 1.43697 0
M  V30 6323 C 625.005 0.158188 2.01881 0
M  V30 6324 C 625.333 -1.22573 1.51017 0
M  V30 6325 O 624.588 -1.83086 0.69122 0
M  V30 6326 C 624.887 0.111481 3.57226 0
M  V30 6327 C 624.553 1.43633 4.27411 0
M  V30 6328 C 623.215 1.79915 4.463 0
M  V30 6329 C 625.567 2.31011 4.67208 0
M  V30 6330 C 622.895 3.03251 5.02251 0
M  V30 6331 C 625.247 3.53633 5.24525 0
M  V30 6332 C 623.911 3.90118 5.41631 0
M  V30 6333 H 623.181 0.0578851 0.738736 0
M  V30 6334 H 625.828 0.836746 1.72252 0
M  V30 6335 H 624.133 -0.650507 3.86362 0
M  V30 6336 H 625.83 -0.283682 3.99995 0
M  V30 6337 H 622.42 1.14403 4.1305 0
M  V30 6338 H 626.604 2.04272 4.52313 0
M  V30 6339 H 621.86 3.31575 5.13681 0
M  V30 6340 H 626.034 4.21561 5.5431 0
M  V30 6341 H 623.661 4.85768 5.84751 0
M  V30 6342 N 625.236 -1.5273 0.388769 0
M  V30 6343 C 626.484 -2.01174 -0.193208 0
M  V30 6344 C 626.805 -1.27705 -1.47365 0
M  V30 6345 O 626.075 -0.396966 -1.91836 0
M  V30 6346 H 624.655 -0.743287 -0.0743871 0
M  V30 6347 H 627.317 -1.87826 0.520336 0
M  V30 6348 H 626.413 -3.09477 -0.403803 0
M  V30 6349 N 626.714 -0.118576 -1.57153 0
M  V30 6350 C 627.944 0.546466 -1.99242 0
M  V30 6351 C 628.352 1.60791 -0.997148 0
M  V30 6352 O 627.695 1.83691 0.0181745 0
M  V30 6353 C 627.757 1.23167 -3.37743 0
M  V30 6354 C 627.421 0.318226 -4.55891 0
M  V30 6355 C 628.418 -0.442988 -5.18009 0
M  V30 6356 C 626.103 0.229421 -5.01776 0
M  V30 6357 C 628.097 -1.28074 -6.244 0
M  V30 6358 C 625.784 -0.611966 -6.08028 0
M  V30 6359 C 626.782 -1.36568 -6.69207 0
M  V30 6360 O 626.47 -2.1931 -7.73407 0
M  V30 6361 H 626.202 0.149297 -0.659307 0
M  V30 6362 H 628.756 -0.201603 -2.04408 0
M  V30 6363 H 626.986 2.0268 -3.29329 0
M  V30 6364 H 628.675 1.79358 -3.64123 0
M  V30 6365 H 629.441 -0.38425 -4.83475 0
M  V30 6366 H 625.32 0.805771 -4.53903 0
M  V30 6367 H 628.864 -1.86952 -6.72082 0
M  V30 6368 H 624.761 -0.6721 -6.41991 0
M  V30 6369 H 625.529 -2.12247 -7.90502 0
M  V30 6370 N 628.193 1.56834 0.155195 0
M  V30 6371 C 629.156 1.96748 1.17571 0
M  V30 6372 C 630.156 0.853006 1.3631 0
M  V30 6373 O 631.346 1.11978 1.33441 0
M  V30 6374 C 628.478 2.27631 2.53765 0
M  V30 6375 H 629.671 2.88085 0.833498 0
M  V30 6376 H 627.224 1.51141 0.398242 0
M  V30 6377 H 627.959 1.39059 2.92973 0
M  V30 6378 H 627.744 3.0888 2.41527 0
M  V30 6379 H 629.234 2.59377 3.27282 0
M  V30 6380 N 629.671 -0.424282 1.51781 0
M  V30 6381 C 630.917 -1.17434 1.6534 0
M  V30 6382 C 631.25 -1.90549 0.374806 0
M  V30 6383 O 630.525 -1.84145 -0.626179 0
M  V30 6384 C 630.808 -2.18093 2.86544 0
M  V30 6385 C 630.661 -1.48975 4.24413 0
M  V30 6386 C 631.98 -3.18934 3.03264 0
M  V30 6387 H 629.099 -0.425566 0.601716 0
M  V30 6388 H 631.741 -0.461921 1.84299 0
M  V30 6389 H 629.891 -2.78849 2.7051 0
M  V30 6390 H 631.563 -0.914551 4.52143 0
M  V30 6391 H 629.806 -0.791893 4.26511 0
M  V30 6392 H 630.477 -2.22347 5.05238 0
M  V30 6393 H 632.953 -2.68243 3.18096 0
M  V30 6394 H 631.829 -3.86645 3.89611 0
M  V30 6395 H 632.09 -3.85793 2.15908 0
M  V30 6396 N 631.149 -1.42148 -0.680565 0
M  V30 6397 C 632.397 -1.42029 -1.43779 0
M  V30 6398 C 632.718 -0.0356347 -1.94967 0
M  V30 6399 O 631.988 0.924936 -1.7269 0
M  V30 6400 H 630.568 -0.522835 -0.533529 0
M  V30 6401 H 633.23 -1.7752 -0.804538 0
M  V30 6402 H 632.326 -2.11658 -2.29363 0
M  V30 6403 N 632.627 0.916307 -1.28225 0
M  V30 6404 C 633.59 1.99996 -1.11957 0
M  V30 6405 C 634.59 1.60688 -0.0600152 0
M  V30 6406 O 635.78 1.71499 -0.30558 0
M  V30 6407 C 632.912 3.33458 -0.708411 0
M  V30 6408 H 634.105 2.15858 -2.08196 0
M  V30 6409 H 631.658 1.09863 -1.11175 0
M  V30 6410 H 632.393 3.23297 0.254859 0
M  V30 6411 H 632.178 3.63349 -1.47377 0
M  V30 6412 H 633.668 4.13014 -0.617164 0
M  V30 6413 N 634.105 1.10431 1.1244 0
M  V30 6414 C 635.516 0.864439 1.65482 0
M  V30 6415 C 635.867 -0.60527 1.8663 0
M  V30 6416 O 634.992 -1.46492 1.59276 0
M  V30 6417 C 635.587 1.56267 3.0061 0
M  V30 6418 C 634.146 1.3695 3.50602 0
M  V30 6419 C 633.293 1.61209 2.25626 0
M  V30 6420 H 636.244 1.26203 0.962209 0
M  V30 6421 H 636.265 1.00166 3.67079 0
M  V30 6422 H 635.777 2.63231 2.85186 0
M  V30 6423 H 633.878 0.321481 3.71211 0
M  V30 6424 H 633.991 2.11143 4.30064 0
M  V30 6425 H 632.355 1.03482 2.32731 0
M  V30 6426 H 633.138 2.69425 2.12756 0
M  V30 6427 N 635.583 -1.29855 0.893053 0
M  V30 6428 C 636.493 -2.31661 0.370157 0
M  V30 6429 C 637.509 -1.65677 -0.531723 0
M  V30 6430 O 638.685 -1.9691 -0.422902 0
M  V30 6431 C 635.75 -3.44388 -0.399741 0
M  V30 6432 C 634.811 -4.2598 0.532861 0
M  V30 6433 C 634.044 -5.33324 -0.200388 0
M  V30 6434 O 634.267 -5.52305 -1.42531 0
M  V30 6435 O 633.201 -6.00188 0.453668 0
M  V30 6436 H 637.027 -2.78354 1.2146 0
M  V30 6437 H 634.612 -1.34171 0.657153 0
M  V30 6438 H 636.494 -4.13037 -0.835358 0
M  V30 6439 H 635.169 -2.99815 -1.22035 0
M  V30 6440 H 634.076 -3.59998 1.01746 0
M  V30 6441 H 635.409 -4.74178 1.3197 0
M  V30 6442 N 637.061 -0.65484 -1.43351 0
M  V30 6443 C 638.477 -0.32255 -1.56307 0
M  V30 6444 C 638.677 1.17324 -1.63821 0
M  V30 6445 O 637.733 1.95813 -1.59417 0
M  V30 6446 C 639.046 -1.03533 -2.82314 0
M  V30 6447 C 640.594 -1.01574 -2.9606 0
M  V30 6448 C 641.069 -1.70945 -4.24902 0
M  V30 6449 N 642.56 -1.67716 -4.3177 0
M  V30 6450 C 643.295 -2.18265 -5.30234 0
M  V30 6451 N 642.791 -2.7711 -6.34966 0
M  V30 6452 N 644.584 -2.08756 -5.21898 0
M  V30 6453 H 636.735 -1.62549 -1.36717 0
M  V30 6454 H 638.998 -0.683676 -0.656727 0
M  V30 6455 H 638.704 -2.09045 -2.8283 0
M  V30 6456 H 638.578 -0.587913 -3.7259 0
M  V30 6457 H 640.965 0.0309834 -2.95084 0
M  V30 6458 H 641.046 -1.50186 -2.07069 0
M  V30 6459 H 640.69 -2.75574 -4.26639 0
M  V30 6460 H 640.62 -1.19797 -5.12793 0
M  V30 6461 H 643.111 -1.24777 -3.56706 0
M  V30 6462 H 643.424 -3.13353 -7.06421 0
M  V30 6463 H 641.769 -2.81171 -6.35585 0
M  V30 6464 H 644.96 -1.62488 -4.38994 0
M  V30 6465 H 645.133 -2.48459 -5.98475 0
M  V30 6466 N 638.539 1.52521 -0.396863 0
M  V30 6467 C 639.955 1.5953 -0.0471659 0
M  V30 6468 C 640.155 1.41044 1.43906 0
M  V30 6469 O 639.211 1.23122 2.20448 0
M  V30 6470 C 640.524 2.95972 -0.531113 0
M  V30 6471 C 642.072 3.09172 -0.488024 0
M  V30 6472 C 642.547 4.48075 -0.948281 0
M  V30 6473 N 644.038 4.54281 -0.9046 0
M  V30 6474 C 644.773 5.60007 -1.23205 0
M  V30 6475 N 644.269 6.73343 -1.63036 0
M  V30 6476 N 646.062 5.50151 -1.15282 0
M  V30 6477 H 638.213 1.62786 -1.36435 0
M  V30 6478 H 640.476 0.76514 -0.559701 0
M  V30 6479 H 640.182 3.14741 -1.56942 0
M  V30 6480 H 640.056 3.77143 0.0657922 0
M  V30 6481 H 642.443 2.90095 0.541211 0
M  V30 6482 H 642.524 2.29937 -1.12083 0
M  V30 6483 H 642.168 4.67894 -1.97578 0
M  V30 6484 H 642.098 5.25788 -0.292412 0
M  V30 6485 H 644.589 3.72918 -0.6116 0
M  V30 6486 H 644.902 7.49992 -1.86365 0
M  V30 6487 H 643.247 6.74655 -1.66929 0
M  V30 6488 H 646.438 4.6049 -0.840602 0
M  V30 6489 H 646.611 6.32444 -1.41133 0
M  V30 6490 N 640.017 0.126909 1.57088 0
M  V30 6491 C 640.965 -0.837618 2.16995 0
M  V30 6492 C 641.959 -1.26974 1.12133 0
M  V30 6493 O 643.165 -1.24056 1.30423 0
M  V30 6494 H 639.54 -0.288256 0.694559 0
M  V30 6495 H 641.511 -0.307957 2.96807 0
M  V30 6496 C 640.26 -2.07474 2.79016 0
M  V30 6497 H 639.583 -1.75117 3.59408 0
M  V30 6498 H 641.023 -2.72949 3.24461 0
M  V30 6499 C 639.482 -2.86967 1.76498 0
M  V30 6500 O 640.012 -3.82625 1.22316 0
M  V30 6501 N 638.218 -2.51111 1.46258 0
M  V30 6502 H 637.765 -1.73389 1.90509 0
M  V30 6503 H 637.723 -3.04594 0.779085 0
M  V30 6504 N 641.495 -1.56914 -0.146875 0
M  V30 6505 C 642.744 -1.82546 -0.857898 0
M  V30 6506 C 643.057 -0.708169 -1.8233 0
M  V30 6507 O 644.263 -0.850093 -2.57848 0
M  V30 6508 C 642.719 -3.23548 -1.57623 0
M  V30 6509 C 642.327 -4.43212 -0.653224 0
M  V30 6510 C 644.071 -3.58453 -2.27402 0
M  V30 6511 C 641.978 -5.75237 -1.37318 0
M  V30 6512 H 640.908 -0.680786 -0.32411 0
M  V30 6513 H 643.559 -1.83166 -0.110639 0
M  V30 6514 H 641.941 -3.17315 -2.36912 0
M  V30 6515 H 643.115 -4.60682 0.104452 0
M  V30 6516 H 641.43 -4.16351 -0.0638336 0
M  V30 6517 H 644.027 -4.54349 -2.81907 0
M  V30 6518 H 644.37 -2.84516 -3.03901 0
M  V30 6519 H 644.903 -3.66347 -1.55032 0
M  V30 6520 H 641.642 -6.52269 -0.650041 0
M  V30 6521 H 641.162 -5.61703 -2.10357 0
M  V30 6522 H 642.841 -6.18039 -1.91406 0
M  V30 6523 N 642.974 0.416227 -1.52004 0
M  V30 6524 C 643.904 1.51365 -1.77795 0
M  V30 6525 C 644.885 1.58059 -0.628601 0
M  V30 6526 O 646.07 1.73447 -0.873478 0
M  V30 6527 C 643.2 2.89256 -1.92219 0
M  V30 6528 C 642.154 2.97415 -3.0778 0
M  V30 6529 C 641.48 4.37492 -3.07417 0
M  V30 6530 C 642.78 2.69551 -4.47369 0
M  V30 6531 H 644.474 1.30033 -2.69688 0
M  V30 6532 H 642.02 0.624112 -1.29772 0
M  V30 6533 H 643.973 3.66008 -2.08845 0
M  V30 6534 H 642.697 3.11866 -0.969917 0
M  V30 6535 H 641.356 2.23107 -2.90893 0
M  V30 6536 H 641.004 4.571 -2.09925 0
M  V30 6537 H 640.704 4.43877 -3.85029 0
M  V30 6538 H 642.228 5.16188 -3.26162 0
M  V30 6539 H 643.642 3.36028 -4.64497 0
M  V30 6540 H 642.039 2.87321 -5.26846 0
M  V30 6541 H 643.109 1.65029 -4.55953 0
M  V30 6542 N 644.452 1.42507 0.673017 0
M  V30 6543 C 645.385 1.40557 1.79774 0
M  V30 6544 C 646.363 0.269606 1.60349 0
M  V30 6545 O 647.547 0.460105 1.82798 0
M  V30 6546 C 644.674 1.19815 3.168 0
M  V30 6547 C 643.72 2.36429 3.5497 0
M  V30 6548 S 644.553 3.98963 3.57196 0
M  V30 6549 C 645.709 3.80567 4.9691 0
M  V30 6550 H 645.942 2.35734 1.81154 0
M  V30 6551 H 643.475 1.293 0.843846 0
M  V30 6552 H 645.433 1.08535 3.95892 0
M  V30 6553 H 644.094 0.262215 3.13004 0
M  V30 6554 H 643.287 2.17669 4.54573 0
M  V30 6555 H 642.889 2.44233 2.83242 0
M  V30 6556 H 645.181 3.41668 5.85038 0
M  V30 6557 H 646.124 4.79852 5.20718 0
M  V30 6558 H 646.532 3.13399 4.69512 0
M  V30 6559 N 645.93 -0.909495 1.28709 0
M  V30 6560 C 647.176 -1.66151 1.16283 0
M  V30 6561 C 647.509 -1.92067 -0.287069 0
M  V30 6562 O 646.784 -1.52409 -1.20837 0
M  V30 6563 C 647.067 -3.01676 1.9663 0
M  V30 6564 C 646.92 -2.82888 3.49707 0
M  V30 6565 C 648.239 -4.02274 1.78504 0
M  V30 6566 H 645.358 -0.602966 0.423793 0
M  V30 6567 H 648 -1.05418 1.58073 0
M  V30 6568 H 646.15 -3.53515 1.61119 0
M  V30 6569 H 647.822 -2.38026 3.95147 0
M  V30 6570 H 646.065 -2.17862 3.75125 0
M  V30 6571 H 646.736 -3.79147 4.01187 0
M  V30 6572 H 649.212 -3.59511 2.09503 0
M  V30 6573 H 648.088 -4.95056 2.37088 0
M  V30 6574 H 648.349 -4.35903 0.737647 0
M  V30 6575 N 647.408 -1.11026 -1.11852 0
M  V30 6576 C 648.656 -0.854769 -1.83134 0
M  V30 6577 C 648.977 0.621375 -1.84835 0
M  V30 6578 O 648.247 1.45129 -1.31584 0
M  V30 6579 H 646.827 -0.313229 -0.678157 0
M  V30 6580 H 649.489 -1.40178 -1.35411 0
M  V30 6581 H 648.585 -1.22311 -2.87135 0
M  V30 6582 N 648.886 1.2938 -0.899927 0
M  V30 6583 C 650.163 1.9046 -0.445443 0
M  V30 6584 C 650.543 1.81683 1.07492 0
M  V30 6585 O 649.891 1.24371 1.91688 0
M  V30 6586 C 650.101 3.35529 -0.960279 0
M  V30 6587 C 651.449 4.12556 -1.00412 0
M  V30 6588 O 652.473 3.44434 -0.907965 0
M  V30 6589 O 651.332 5.34294 -1.14857 0
M  V30 6590 H 648.426 0.815253 -0.138893 0
M  V30 6591 H 650.972 1.37844 -0.989808 0
M  V30 6592 H 649.744 3.36074 -2.00425 0
M  V30 6593 H 649.367 3.95624 -0.395939 0
M  V30 6594 N 650.364 0.662433 1.43002 0
M  V30 6595 C 651.612 0.179237 2.01304 0
M  V30 6596 C 651.933 -1.21428 1.52579 0
M  V30 6597 O 651.203 -1.81294 0.742252 0
M  V30 6598 H 649.783 0.0632725 0.744316 0
M  V30 6599 H 652.445 0.856169 1.75088 0
M  V30 6600 H 651.541 0.170957 3.11631 0
M  V30 6601 N 651.842 -1.52309 0.404946 0
M  V30 6602 C 653.067 -2.06666 -0.1743 0
M  V30 6603 C 653.492 -1.27341 -1.38441 0
M  V30 6604 O 652.85 -0.302539 -1.78758 0
M  V30 6605 C 652.898 -3.57014 -0.507262 0
M  V30 6606 O 652.002 -3.80144 -1.59889 0
M  V30 6607 H 651.343 -0.663807 -0.0160273 0
M  V30 6608 H 653.873 -1.96297 0.576937 0
M  V30 6609 H 653.883 -4.00724 -0.767098 0
M  V30 6610 H 652.558 -4.14184 0.377368 0
M  V30 6611 H 651.135 -3.48316 -1.33155 0
M  V30 6612 N 653.32 -0.135238 -1.57019 0
M  V30 6613 C 654.567 0.518794 -1.95742 0
M  V30 6614 C 654.895 1.65642 -1.01947 0
M  V30 6615 O 654.15 1.95645 -0.0464016 0
M  V30 6616 C 654.449 1.07694 -3.40788 0
M  V30 6617 C 654.115 0.058992 -4.50861 0
M  V30 6618 C 652.777 -0.220872 -4.80693 0
M  V30 6619 C 655.129 -0.633856 -5.17331 0
M  V30 6620 C 652.457 -1.19959 -5.74305 0
M  V30 6621 C 654.809 -1.60131 -6.11997 0
M  V30 6622 C 653.473 -1.889 -6.40213 0
M  V30 6623 H 652.743 0.18984 -0.716269 0
M  V30 6624 H 655.39 -0.219581 -1.90237 0
M  V30 6625 H 653.695 1.89241 -3.43067 0
M  V30 6626 H 655.392 1.59137 -3.68071 0
M  V30 6627 H 651.982 0.287304 -4.27636 0
M  V30 6628 H 656.166 -0.430823 -4.94427 0
M  V30 6629 H 651.422 -1.42905 -5.94465 0
M  V30 6630 H 655.596 -2.14376 -6.62583 0
M  V30 6631 H 653.223 -2.64891 -7.12556 0
M  V30 6632 N 654.798 1.5699 0.138552 0
M  V30 6633 C 655.73 1.95515 1.1961 0
M  V30 6634 C 656.743 0.852002 1.38726 0
M  V30 6635 O 657.932 1.13038 1.38147 0
M  V30 6636 C 655.032 2.2213 2.55952 0
M  V30 6637 C 654.205 3.53424 2.57702 0
M  V30 6638 C 653.264 3.6848 3.75645 0
M  V30 6639 O 652.29 4.4079 3.60129 0
M  V30 6640 N 653.492 3.05777 4.93438 0
M  V30 6641 H 656.257 2.86838 0.868557 0
M  V30 6642 H 653.818 1.58542 0.328033 0
M  V30 6643 H 655.81 2.29435 3.33379 0
M  V30 6644 H 654.38 1.3703 2.80965 0
M  V30 6645 H 653.6 3.57484 1.6613 0
M  V30 6646 H 654.888 4.39759 2.55909 0
M  V30 6647 H 654.286 2.46961 5.08947 0
M  V30 6648 H 652.843 3.18631 5.6861 0
M  V30 6649 N 656.276 -0.40816 1.52223 0
M  V30 6650 C 657.206 -1.5042 1.78595 0
M  V30 6651 C 658.187 -1.57723 0.636974 0
M  V30 6652 O 659.372 -1.72982 0.882664 0
M  V30 6653 C 656.502 -2.88232 1.93751 0
M  V30 6654 C 655.456 -2.95779 3.09352 0
M  V30 6655 C 654.782 -4.35855 3.09732 0
M  V30 6656 C 656.082 -2.67175 4.48793 0
M  V30 6657 H 657.776 -1.28601 2.70374 0
M  V30 6658 H 655.322 -0.617221 1.30101 0
M  V30 6659 H 657.275 -3.64895 2.10783 0
M  V30 6660 H 655.999 -3.11347 0.986443 0
M  V30 6661 H 654.658 -2.21561 2.92072 0
M  V30 6662 H 654.306 -4.55981 2.12346 0
M  V30 6663 H 654.006 -4.41829 3.87377 0
M  V30 6664 H 655.53 -5.14451 3.28895 0
M  V30 6665 H 656.944 -3.3356 4.66273 0
M  V30 6666 H 655.341 -2.84523 5.28362 0
M  V30 6667 H 656.411 -1.62609 4.56822 0
M  V30 6668 N 657.755 -1.42862 -0.66545 0
M  V30 6669 C 658.983 -1.47246 -1.45349 0
M  V30 6670 C 659.398 -0.0865944 -1.88601 0
M  V30 6671 O 658.755 0.900652 -1.58728 0
M  V30 6672 C 658.806 -2.40772 -2.6965 0
M  V30 6673 O 658.527 -3.73968 -2.2821 0
M  V30 6674 C 660.028 -2.54272 -3.63126 0
M  V30 6675 H 657.248 -0.500497 -0.446927 0
M  V30 6676 H 659.792 -1.87477 -0.816871 0
M  V30 6677 H 657.947 -2.0377 -3.29479 0
M  V30 6678 H 658.361 -4.24146 -3.08546 0
M  V30 6679 H 659.835 -3.23815 -4.47043 0
M  V30 6680 H 660.312 -1.58364 -4.09656 0
M  V30 6681 H 660.918 -2.92036 -3.09185 0
M  V30 6682 N 659.233 0.902656 -1.29189 0
M  V30 6683 C 660.196 1.98797 -1.14071 0
M  V30 6684 C 661.196 1.60615 -0.0770549 0
M  V30 6685 O 662.386 1.71165 -0.323753 0
M  V30 6686 C 659.518 3.32688 -0.743739 0
M  V30 6687 H 660.711 2.13637 -2.10473 0
M  V30 6688 H 658.264 1.08678 -1.12334 0
M  V30 6689 H 658.999 3.23549 0.220554 0
M  V30 6690 H 658.784 3.61765 -1.51223 0
M  V30 6691 H 660.274 4.12337 -0.660935 0
M  V30 6692 N 660.711 1.11618 1.11262 0
M  V30 6693 C 661.643 0.734015 2.17129 0
M  V30 6694 C 662.656 -0.235243 1.61091 0
M  V30 6695 O 663.845 -0.0178597 1.78491 0
M  V30 6696 C 660.945 0.0643682 3.38839 0
M  V30 6697 C 660.118 1.06092 4.24339 0
M  V30 6698 C 659.177 0.420482 5.24517 0
M  V30 6699 O 658.203 1.07495 5.58957 0
M  V30 6700 N 659.405 -0.815828 5.74739 0
M  V30 6701 H 662.17 1.64492 2.50524 0
M  V30 6702 H 659.731 1.00664 1.26801 0
M  V30 6703 H 661.723 -0.375851 4.02951 0
M  V30 6704 H 660.293 -0.749147 3.03491 0
M  V30 6705 H 659.513 1.67903 3.56654 0
M  V30 6706 H 660.801 1.73507 4.78302 0
M  V30 6707 H 660.199 -1.36668 5.48943 0
M  V30 6708 H 658.756 -1.199 6.40677 0
M  V30 6709 N 662.189 -1.289 0.906776 0
M  V30 6710 C 663.099 -2.31256 0.394707 0
M  V30 6711 C 664.115 -1.66231 -0.514121 0
M  V30 6712 O 665.291 -1.97347 -0.401994 0
M  V30 6713 C 662.356 -3.44792 -0.363191 0
M  V30 6714 C 661.417 -4.25391 0.578012 0
M  V30 6715 C 660.65 -5.33506 -0.143811 0
M  V30 6716 O 660.873 -5.53786 -1.36665 0
M  V30 6717 O 659.807 -5.99673 0.5173 0
M  V30 6718 H 663.633 -2.77051 1.24405 0
M  V30 6719 H 661.218 -1.33466 0.671346 0
M  V30 6720 H 663.1 -4.139 -0.791503 0
M  V30 6721 H 661.775 -3.01093 -1.18848 0
M  V30 6722 H 660.682 -3.58899 1.05558 0
M  V30 6723 H 662.015 -4.72752 1.36992 0
M  V30 6724 N 663.667 -0.670007 -1.42649 0
M  V30 6725 C 664.913 -0.190568 -2.01903 0
M  V30 6726 C 665.246 1.19817 -1.52832 0
M  V30 6727 O 664.521 1.80342 -0.728485 0
M  V30 6728 C 664.804 -0.21991 -3.59428 0
M  V30 6729 C 664.657 -1.64376 -4.18689 0
M  V30 6730 C 665.976 0.434519 -4.3795 0
M  V30 6731 H 663.095 -0.0707219 -0.733599 0
M  V30 6732 H 665.737 -0.853883 -1.69732 0
M  V30 6733 H 663.887 0.344894 -3.86966 0
M  V30 6734 H 665.559 -2.26044 -4.02122 0
M  V30 6735 H 663.802 -2.18591 -3.747 0
M  V30 6736 H 664.473 -1.61601 -5.27815 0
M  V30 6737 H 666.949 -0.0462156 -4.16074 0
M  V30 6738 H 665.825 0.38333 -5.4756 0
M  V30 6739 H 666.086 1.51135 -4.15464 0
M  V30 6740 N 665.145 1.52092 -0.413018 0
M  V30 6741 C 666.108 2.25706 0.398687 0
M  V30 6742 C 667.108 1.28221 0.970368 0
M  V30 6743 O 668.298 1.52131 0.848635 0
M  V30 6744 C 665.43 3.03029 1.5616 0
M  V30 6745 H 666.623 2.98888 -0.246131 0
M  V30 6746 H 664.176 1.5542 -0.165622 0
M  V30 6747 H 664.911 2.34205 2.24317 0
M  V30 6748 H 664.696 3.74606 1.15812 0
M  V30 6749 H 666.186 3.58857 2.13569 0
M  V30 6750 N 666.623 0.143563 1.56945 0
M  V30 6751 C 667.555 -0.828353 2.13708 0
M  V30 6752 C 668.568 -1.21313 1.08568 0
M  V30 6753 O 669.757 -1.1578 1.35857 0
M  V30 6754 C 666.857 -2.12248 2.64204 0
M  V30 6755 C 666.03 -1.90561 3.93707 0
M  V30 6756 C 665.089 -3.03931 4.29549 0
M  V30 6757 O 664.115 -2.75772 4.97934 0
M  V30 6758 N 665.317 -4.31016 3.88852 0
M  V30 6759 H 668.082 -0.343242 2.97728 0
M  V30 6760 H 665.643 -0.0401152 1.6185 0
M  V30 6761 H 667.635 -2.87132 2.85197 0
M  V30 6762 H 666.205 -2.52033 1.84928 0
M  V30 6763 H 665.425 -0.997327 3.81375 0
M  V30 6764 H 666.713 -1.73405 4.78339 0
M  V30 6765 H 666.111 -4.56762 3.33743 0
M  V30 6766 H 664.668 -5.02691 4.14903 0
M  V30 6767 N 668.101 -1.57061 -0.130224 0
M  V30 6768 C 669.034 -1.94698 -1.19029 0
M  V30 6769 C 670.012 -0.815074 -1.40696 0
M  V30 6770 O 671.196 -1.07223 -1.55034 0
M  V30 6771 C 668.323 -2.23352 -2.5462 0
M  V30 6772 C 667.369 -3.45945 -2.49448 0
M  V30 6773 S 668.202 -4.98927 -1.94505 0
M  V30 6774 C 669.358 -5.30721 -3.31792 0
M  V30 6775 H 669.591 -2.84308 -0.869272 0
M  V30 6776 H 667.124 -1.50688 -0.336531 0
M  V30 6777 H 669.082 -2.40539 -3.32643 0
M  V30 6778 H 667.743 -1.34376 -2.83905 0
M  V30 6779 H 666.936 -3.63324 -3.49302 0
M  V30 6780 H 666.538 -3.28086 -1.79543 0
M  V30 6781 H 668.83 -5.25215 -4.27966 0
M  V30 6782 H 669.773 -6.32048 -3.19251 0
M  V30 6783 H 670.181 -4.5821 -3.29703 0
M  V30 6784 N 669.579 0.400081 -1.52437 0
M  V30 6785 C 670.825 1.14788 -1.67187 0
M  V30 6786 C 671.158 1.89928 -0.405074 0
M  V30 6787 O 670.433 1.85118 0.596804 0
M  V30 6788 C 670.716 2.13507 -2.89977 0
M  V30 6789 C 670.569 1.42204 -4.2673 0
M  V30 6790 C 671.888 3.14069 -3.083 0
M  V30 6791 H 669.007 0.415939 -0.608411 0
M  V30 6792 H 671.649 0.432542 -1.85011 0
M  V30 6793 H 669.799 2.7451 -2.74912 0
M  V30 6794 H 671.471 0.842503 -4.53541 0
M  V30 6795 H 669.714 0.723939 -4.27717 0
M  V30 6796 H 670.385 2.14281 -5.08712 0
M  V30 6797 H 672.861 2.63148 -3.22323 0
M  V30 6798 H 671.737 3.80398 -3.95713 0
M  V30 6799 H 671.998 3.82309 -2.22018 0
M  V30 6800 N 671.057 1.43213 0.657864 0
M  V30 6801 C 672.473 1.26511 0.972992 0
M  V30 6802 C 672.673 0.181477 2.00681 0
M  V30 6803 O 671.729 -0.441649 2.48608 0
M  V30 6804 C 673.042 2.62784 1.46168 0
M  V30 6805 C 674.59 2.70278 1.57857 0
M  V30 6806 C 675.065 4.06958 2.10117 0
M  V30 6807 N 676.556 4.08999 2.17426 0
M  V30 6808 C 677.291 5.11585 2.58975 0
M  V30 6809 N 676.787 6.24548 2.99853 0
M  V30 6810 N 678.58 4.9894 2.58873 0
M  V30 6811 H 670.731 2.12384 -0.0263129 0
M  V30 6812 H 672.994 0.946638 0.0507992 0
M  V30 6813 H 672.7 3.43022 0.776474 0
M  V30 6814 H 672.574 2.87863 2.43751 0
M  V30 6815 H 674.961 1.90376 2.25479 0
M  V30 6816 H 675.042 2.4897 0.587179 0
M  V30 6817 H 674.686 4.87325 1.43098 0
M  V30 6818 H 674.616 4.25628 3.10078 0
M  V30 6819 H 677.107 3.27457 1.88627 0
M  V30 6820 H 677.42 6.98661 3.30292 0
M  V30 6821 H 675.765 6.28027 2.97669 0
M  V30 6822 H 678.956 4.09757 2.26311 0
M  V30 6823 H 679.129 5.79019 2.90932 0
M  V30 6824 N 672.536 -0.895792 1.29666 0
M  V30 6825 C 673.466 -2.01673 1.17688 0
M  V30 6826 C 674.447 -1.69955 0.0701317 0
M  V30 6827 O 675.632 -1.9258 0.250289 0
M  V30 6828 C 672.762 -3.36568 0.856681 0
M  V30 6829 C 671.716 -3.82509 1.92017 0
M  V30 6830 C 671.042 -5.14574 1.4532 0
M  V30 6831 C 672.342 -4.02409 3.32963 0
M  V30 6832 H 674.036 -2.11953 2.11463 0
M  V30 6833 H 671.582 -1.01839 1.01807 0
M  V30 6834 H 673.535 -4.14498 0.759577 0
M  V30 6835 H 672.259 -3.26391 -0.116763 0
M  V30 6836 H 670.918 -3.068 2.00673 0
M  V30 6837 H 670.566 -5.00815 0.468325 0
M  V30 6838 H 670.266 -5.46283 2.16447 0
M  V30 6839 H 671.79 -5.9504 1.36968 0
M  V30 6840 H 673.204 -4.70808 3.27127 0
M  V30 6841 H 671.601 -4.45478 4.02082 0
M  V30 6842 H 672.671 -3.06616 3.75652 0
M  V30 6843 N 674.014 -1.12206 -1.10668 0
M  V30 6844 C 674.961 -0.787716 -2.16942 0
M  V30 6845 C 675.931 0.244442 -1.64291 0
M  V30 6846 O 677.116 0.119558 -1.90425 0
M  V30 6847 C 674.256 -0.24584 -3.44223 0
M  V30 6848 C 673.369 -1.33552 -4.10838 0
M  V30 6849 C 672.504 -0.753337 -5.25831 0
M  V30 6850 C 671.543 -1.82231 -5.84344 0
M  V30 6851 N 670.68 -1.25902 -6.90719 0
M  V30 6852 H 675.52 -1.69809 -2.44885 0
M  V30 6853 H 673.057 -0.847862 -1.20207 0
M  V30 6854 H 675.015 0.0863639 -4.17111 0
M  V30 6855 H 673.645 0.627702 -3.16638 0
M  V30 6856 H 672.697 -1.78454 -3.35944 0
M  V30 6857 H 674.009 -2.14396 -4.50373 0
M  V30 6858 H 673.163 -0.37166 -6.05561 0
M  V30 6859 H 671.902 0.0863297 -4.87624 0
M  V30 6860 H 670.907 -2.2132 -5.03287 0
M  V30 6861 H 672.132 -2.66515 -6.24617 0
M  V30 6862 H 670.078 -0.44114 -6.54515 0
M  V30 6863 H 669.995 -2.00408 -7.28953 0
M  V30 6864 H 671.263 -0.904498 -7.74235 0
M  V30 6865 N 675.492 1.28418 -0.913599 0
M  V30 6866 C 676.422 2.29713 -0.418847 0
M  V30 6867 C 677.403 1.62165 0.513469 0
M  V30 6868 O 678.588 1.89576 0.421235 0
M  V30 6869 C 675.718 3.45612 0.342042 0
M  V30 6870 C 674.672 4.25056 -0.501123 0
M  V30 6871 C 673.998 5.3329 0.388097 0
M  V30 6872 C 675.298 4.91814 -1.75831 0
M  V30 6873 H 676.992 2.71346 -1.26538 0
M  V30 6874 H 674.538 1.30446 -0.609903 0
M  V30 6875 H 676.491 4.15562 0.699 0
M  V30 6876 H 675.215 3.02858 1.22248 0
M  V30 6877 H 673.874 3.56833 -0.840598 0
M  V30 6878 H 673.522 4.8678 1.26707 0
M  V30 6879 H 673.222 5.87347 -0.172459 0
M  V30 6880 H 674.746 6.06088 0.74094 0
M  V30 6881 H 676.16 5.54126 -1.47026 0
M  V30 6882 H 674.557 5.55866 -2.26126 0
M  V30 6883 H 675.627 4.16313 -2.4862 0
M  V30 6884 N 676.97 0.677563 1.42291 0
M  V30 6885 C 678.381 0.277912 1.8462 0
M  V30 6886 C 678.732 -1.18048 1.56714 0
M  V30 6887 O 677.857 -1.90404 1.02836 0
M  V30 6888 C 678.452 0.497619 3.35126 0
M  V30 6889 C 677.011 0.152063 3.76093 0
M  V30 6890 C 676.158 0.78872 2.65847 0
M  V30 6891 H 679.109 0.879527 1.32098 0
M  V30 6892 H 679.13 -0.24939 3.79682 0
M  V30 6893 H 678.642 1.55913 3.55405 0
M  V30 6894 H 676.743 -0.905896 3.6142 0
M  V30 6895 H 676.856 0.594514 4.75397 0
M  V30 6896 H 675.22 0.219813 2.5375 0
M  V30 6897 H 676.003 1.85374 2.88949 0
M  V30 6898 N 678.448 -1.51871 0.421078 0
M  V30 6899 C 679.694 -2.02237 -0.151014 0
M  V30 6900 C 680.027 -1.30554 -1.43768 0
M  V30 6901 O 679.302 -0.41546 -1.90011 0
M  V30 6902 C 679.585 -3.5802 -0.386482 0
M  V30 6903 C 679.438 -4.40339 0.9177 0
M  V30 6904 C 680.757 -4.24444 -1.16342 0
M  V30 6905 H 677.876 -0.735062 -0.0534102 0
M  V30 6906 H 680.518 -1.81656 0.556888 0
M  V30 6907 H 678.668 -3.75688 -0.989494 0
M  V30 6908 H 680.34 -4.34357 1.55344 0
M  V30 6909 H 678.583 -4.06073 1.526 0
M  V30 6910 H 679.254 -5.47451 0.707187 0
M  V30 6911 H 681.73 -4.10948 -0.652788 0
M  V30 6912 H 680.606 -5.33358 -1.29693 0
M  V30 6913 H 680.867 -3.84204 -2.18724 0
M  V30 6914 N 679.926 -0.151884 -1.56866 0
M  V30 6915 C 681.175 0.497992 -1.95456 0
M  V30 6916 C 681.488 1.6569 -1.03953 0
M  V30 6917 O 682.694 2.37173 -1.32142 0
M  V30 6918 C 681.15 0.93732 -3.4748 0
M  V30 6919 C 680.758 -0.194921 -4.47576 0
M  V30 6920 C 682.502 1.55671 -3.94926 0
M  V30 6921 C 680.409 0.26295 -5.90815 0
M  V30 6922 H 679.339 0.189811 -0.729717 0
M  V30 6923 H 681.99 -0.237011 -1.81963 0
M  V30 6924 H 680.372 1.72773 -3.56322 0
M  V30 6925 H 681.546 -0.971951 -4.50433 0
M  V30 6926 H 679.861 -0.72303 -4.10075 0
M  V30 6927 H 682.458 1.91099 -4.99385 0
M  V30 6928 H 682.801 2.44748 -3.36755 0
M  V30 6929 H 683.334 0.831109 -3.89021 0
M  V30 6930 H 680.073 -0.592568 -6.52816 0
M  V30 6931 H 679.593 1.00575 -5.91308 0
M  V30 6932 H 681.272 0.713333 -6.43056 0
M  V30 6933 N 681.404 1.57128 0.121893 0
M  V30 6934 C 682.653 1.83888 0.828748 0
M  V30 6935 C 682.966 0.737087 1.81181 0
M  V30 6936 O 684.172 0.891007 2.56463 0
M  V30 6937 C 682.628 3.26014 1.52455 0
M  V30 6938 C 682.236 4.44195 0.58263 0
M  V30 6939 C 683.98 3.62025 2.21671 0
M  V30 6940 C 681.887 5.77349 1.28149 0
M  V30 6941 H 680.817 0.685856 0.313238 0
M  V30 6942 H 683.468 1.83319 0.0814851 0
M  V30 6943 H 681.85 3.21044 2.31834 0
M  V30 6944 H 683.024 4.60457 -0.177729 0
M  V30 6945 H 681.339 4.164 -0.00241228 0
M  V30 6946 H 683.936 4.58776 2.74643 0
M  V30 6947 H 684.279 2.89315 2.99337 0
M  V30 6948 H 684.812 3.68767 1.49184 0
M  V30 6949 H 681.551 6.53221 0.546189 0
M  V30 6950 H 681.071 5.64978 2.01394 0
M  V30 6951 H 682.75 6.21006 1.81549 0
M  V30 6952 N 682.882 -0.391992 1.52647 0
M  V30 6953 C 684.129 -1.13732 1.67545 0
M  V30 6954 C 684.457 -1.90045 0.413881 0
M  V30 6955 O 683.712 -1.86157 -0.603646 0
M  V30 6956 C 684.011 -2.14401 2.85949 0
M  V30 6957 C 683.677 -1.54767 4.23507 0
M  V30 6958 C 682.339 -1.38229 4.60919 0
M  V30 6959 C 684.691 -1.11382 5.0916 0
M  V30 6960 C 682.019 -0.7685 5.81645 0
M  V30 6961 C 684.371 -0.514143 6.30507 0
M  V30 6962 C 683.035 -0.33604 6.66654 0
M  V30 6963 H 682.305 -0.416174 0.613091 0
M  V30 6964 H 684.952 -0.422327 1.86785 0
M  V30 6965 H 683.257 -2.92108 2.61114 0
M  V30 6966 H 684.954 -2.71974 2.94671 0
M  V30 6967 H 681.544 -1.68626 3.94035 0
M  V30 6968 H 685.728 -1.22962 4.80826 0
M  V30 6969 H 680.984 -0.618681 6.08262 0
M  V30 6970 H 685.158 -0.169657 6.96193 0
M  V30 6971 H 682.785 0.14166 7.60068 0
M  V30 6972 N 684.36 -1.4356 -0.65026 0
M  V30 6973 C 685.29 -1.51758 -1.77459 0
M  V30 6974 C 686.271 -0.372019 -1.65982 0
M  V30 6975 O 687.456 -0.589627 -1.85033 0
M  V30 6976 C 684.586 -1.44302 -3.15902 0
M  V30 6977 C 683.54 -2.57138 -3.42146 0
M  V30 6978 C 682.866 -2.34735 -4.8042 0
M  V30 6979 C 684.166 -3.99373 -3.36598 0
M  V30 6980 H 685.86 -2.45863 -1.70855 0
M  V30 6981 H 683.406 -1.18333 -0.820566 0
M  V30 6982 H 685.359 -1.48641 -3.94314 0
M  V30 6983 H 684.083 -0.467026 -3.23244 0
M  V30 6984 H 682.742 -2.52157 -2.66106 0
M  V30 6985 H 682.39 -1.35372 -4.84441 0
M  V30 6986 H 682.09 -3.10375 -4.9894 0
M  V30 6987 H 683.614 -2.40862 -5.61086 0
M  V30 6988 H 685.028 -4.05826 -4.04942 0
M  V30 6989 H 683.425 -4.75063 -3.66654 0
M  V30 6990 H 684.495 -4.243 -2.34729 0
M  V30 6991 N 685.838 0.888903 -1.30139 0
M  V30 6992 C 687.087 1.63507 -1.18103 0
M  V30 6993 C 687.4 1.93808 0.264141 0
M  V30 6994 O 688.606 2.66744 0.505966 0
M  V30 6995 C 687.062 2.94673 -2.0663 0
M  V30 6996 C 686.67 2.71926 -3.56034 0
M  V30 6997 C 688.414 3.72626 -2.03346 0
M  V30 6998 C 686.321 3.98884 -4.3663 0
M  V30 6999 H 685.251 0.613426 -0.438435 0
M  V30 7000 H 687.902 0.984427 -1.54859 0
M  V30 7001 H 686.284 3.61009 -1.62754 0
M  V30 7002 H 687.458 2.14116 -4.08033 0
M  V30 7003 H 685.773 2.07353 -3.61101 0
M  V30 7004 H 688.37 4.66775 -2.60816 0
M  V30 7005 H 688.713 4.03712 -1.016 0
M  V30 7006 H 689.246 3.13147 -2.45324 0
M  V30 7007 H 685.985 3.72959 -5.39056 0
M  V30 7008 H 685.505 4.56214 -3.89396 0
M  V30 7009 H 687.184 4.66938 -4.47859 0
M  V30 7010 N 687.317 1.12792 1.10072 0
M  V30 7011 C 688.265 0.794523 2.18609 0
M  V30 7012 C 689.259 -0.220271 1.67962 0
M  V30 7013 O 690.465 -0.0780938 1.79831 0
M  V30 7014 H 686.84 0.239123 0.712969 0
M  V30 7015 H 688.811 1.71823 2.43966 0
M  V30 7016 C 687.56 0.269548 3.46654 0
M  V30 7017 H 686.883 1.04171 3.8599 0
M  V30 7018 H 688.323 0.0746242 4.23934 0
M  V30 7019 C 686.782 -1.00333 3.21613 0
M  V30 7020 O 687.312 -2.08042 3.4363 0
M  V30 7021 N 685.518 -0.931763 2.75257 0
M  V30 7022 H 685.065 -0.0551197 2.57541 0
M  V30 7023 H 685.023 -1.78405 2.58881 0
M  V30 7024 N 688.795 -1.27931 0.920396 0
M  V30 7025 C 689.743 -2.29061 0.404191 0
M  V30 7026 C 690.737 -1.61615 -0.507634 0
M  V30 7027 O 691.943 -1.75765 -0.388144 0
M  V30 7028 H 688.318 -0.743594 0.112123 0
M  V30 7029 H 690.289 -2.70021 1.27008 0
M  V30 7030 C 689.038 -3.46088 -0.334466 0
M  V30 7031 H 688.361 -3.98194 0.35797 0
M  V30 7032 H 689.801 -4.18829 -0.660196 0
M  V30 7033 C 688.26 -2.99396 -1.54479 0
M  V30 7034 O 688.79 -3.02439 -2.64374 0
M  V30 7035 N 686.996 -2.54978 -1.39408 0
M  V30 7036 H 686.543 -2.52701 -0.500009 0
M  V30 7037 H 686.501 -2.24098 -2.20516 0
M  V30 7038 N 690.273 -0.685099 -1.4193 0
M  V30 7039 C 691.503 -0.220052 -2.05425 0
M  V30 7040 C 691.911 1.13185 -1.51611 0
M  V30 7041 O 691.254 1.71631 -0.654875 0
M  V30 7042 C 691.316 -0.0888364 -3.5939 0
M  V30 7043 C 690.98 -1.37109 -4.35947 0
M  V30 7044 C 691.977 -2.30675 -4.65924 0
M  V30 7045 C 689.662 -1.62155 -4.75406 0
M  V30 7046 C 691.656 -3.47556 -5.34306 0
M  V30 7047 C 689.343 -2.79324 -5.43527 0
M  V30 7048 C 690.341 -3.71848 -5.72903 0
M  V30 7049 O 690.029 -4.86966 -6.39624 0
M  V30 7050 H 689.761 -0.102165 -0.668235 0
M  V30 7051 H 692.315 -0.935194 -1.82875 0
M  V30 7052 H 690.545 0.681981 -3.80639 0
M  V30 7053 H 692.234 0.337669 -4.04493 0
M  V30 7054 H 693 -2.12579 -4.3593 0
M  V30 7055 H 688.879 -0.910053 -4.51928 0
M  V30 7056 H 692.423 -4.19794 -5.57153 0
M  V30 7057 H 688.32 -2.97342 -5.72938 0
M  V30 7058 H 689.088 -4.86644 -6.58118 0
M  V30 7059 N 691.751 1.51645 -0.429126 0
M  V30 7060 C 692.999 2.01616 0.139802 0
M  V30 7061 C 693.32 1.31568 1.43927 0
M  V30 7062 O 692.59 0.447688 1.90716 0
M  V30 7063 H 691.17 0.744998 0.054654 0
M  V30 7064 H 693.832 1.8638 -0.569952 0
M  V30 7065 H 692.928 3.10439 0.321609 0
M  V30 7066 N 693.229 0.160201 1.56784 0
M  V30 7067 C 694.459 -0.493449 2.00621 0
M  V30 7068 C 694.867 -1.5809 1.03943 0
M  V30 7069 O 694.21 -1.83675 0.0305343 0
M  V30 7070 C 694.272 -1.14169 3.4089 0
M  V30 7071 C 693.936 -0.197243 4.56574 0
M  V30 7072 C 694.933 0.580174 5.16653 0
M  V30 7073 C 692.618 -0.0963038 5.02208 0
M  V30 7074 C 694.612 1.44584 6.20785 0
M  V30 7075 C 692.299 0.772959 6.06192 0
M  V30 7076 C 693.297 1.54263 6.65351 0
M  V30 7077 O 692.985 2.39738 7.67321 0
M  V30 7078 H 692.717 -0.131764 0.663034 0
M  V30 7079 H 695.271 0.255728 2.03802 0
M  V30 7080 H 693.501 -1.93877 3.34587 0
M  V30 7081 H 695.19 -1.69641 3.6875 0
M  V30 7082 H 695.956 0.5123 4.82287 0
M  V30 7083 H 691.835 -0.685143 4.5588 0
M  V30 7084 H 695.379 2.04706 6.66889 0
M  V30 7085 H 691.276 0.842077 6.39984 0
M  V30 7086 H 692.044 2.33131 7.84597 0
M  V30 7087 N 694.707 -1.5719 -0.113559 0
M  V30 7088 C 695.935 -1.89328 -0.834422 0
M  V30 7089 C 696.35 -0.752018 -1.73177 0
M  V30 7090 O 695.707 0.276912 -1.80387 0
M  V30 7091 C 695.758 -3.20962 -1.66329 0
M  V30 7092 O 695.479 -4.30695 -0.802069 0
M  V30 7093 C 696.98 -3.6684 -2.48884 0
M  V30 7094 H 694.2 -0.626769 -0.239587 0
M  V30 7095 H 696.744 -2.04273 -0.0963195 0
M  V30 7096 H 694.899 -3.0767 -2.35409 0
M  V30 7097 H 695.313 -5.06175 -1.37431 0
M  V30 7098 H 696.787 -4.61692 -3.02563 0
M  V30 7099 H 697.264 -2.93765 -3.26495 0
M  V30 7100 H 697.87 -3.82938 -1.85036 0
M  V30 7101 N 696.185 0.383891 -1.52853 0
M  V30 7102 C 697.434 1.12563 -1.67369 0
M  V30 7103 C 697.747 1.90982 -0.422533 0
M  V30 7104 O 698.953 2.6778 -0.447914 0
M  V30 7105 C 697.409 2.05011 -2.95801 0
M  V30 7106 C 697.017 1.31991 -4.28115 0
M  V30 7107 C 698.761 2.79289 -3.19684 0
M  V30 7108 C 696.668 2.23235 -5.4765 0
M  V30 7109 H 695.598 0.42391 -0.623552 0
M  V30 7110 H 698.249 0.388016 -1.79351 0
M  V30 7111 H 696.631 2.82429 -2.77578 0
M  V30 7112 H 697.805 0.597633 -4.56908 0
M  V30 7113 H 696.12 0.696517 -4.10533 0
M  V30 7114 H 698.717 3.47749 -4.06171 0
M  V30 7115 H 699.06 3.43649 -2.3497 0
M  V30 7116 H 699.593 2.08962 -3.38496 0
M  V30 7117 H 696.332 1.63482 -6.34786 0
M  V30 7118 H 695.852 2.93364 -5.23161 0
M  V30 7119 H 697.531 2.83205 -5.81725 0
M  V30 7120 N 697.663 1.43903 0.642637 0
M  V30 7121 C 698.573 1.52349 1.78401 0
M  V30 7122 C 699.589 0.409869 1.69104 0
M  V30 7123 O 700.765 0.665548 1.90085 0
M  V30 7124 C 697.83 1.45408 3.14734 0
M  V30 7125 C 696.891 2.67528 3.35749 0
M  V30 7126 C 696.124 2.60909 4.65577 0
M  V30 7127 O 696.347 1.6627 5.45628 0
M  V30 7128 O 695.281 3.5158 4.88544 0
M  V30 7129 H 699.107 2.48752 1.7423 0
M  V30 7130 H 696.692 1.26021 0.802439 0
M  V30 7131 H 698.574 1.44019 3.96026 0
M  V30 7132 H 697.249 0.521437 3.19473 0
M  V30 7133 H 696.156 2.74487 2.5418 0
M  V30 7134 H 697.489 3.598 3.35864 0
M  V30 7135 N 699.141 -0.881989 1.30609 0
M  V30 7136 C 700.387 -1.63647 1.19781 0
M  V30 7137 C 700.72 -1.92632 -0.246265 0
M  V30 7138 O 699.995 -1.54938 -1.17577 0
M  V30 7139 C 700.278 -2.97437 2.02985 0
M  V30 7140 C 700.131 -2.75406 3.55628 0
M  V30 7141 C 701.45 -3.98397 1.86997 0
M  V30 7142 H 698.569 -0.593841 0.436488 0
M  V30 7143 H 701.211 -1.02041 1.60273 0
M  V30 7144 H 699.361 -3.50018 1.68581 0
M  V30 7145 H 701.033 -2.2959 4.00107 0
M  V30 7146 H 699.276 -2.09856 3.79662 0
M  V30 7147 H 699.947 -3.70552 4.09139 0
M  V30 7148 H 702.423 -3.54986 2.17081 0
M  V30 7149 H 701.299 -4.89916 2.47536 0
M  V30 7150 H 701.56 -4.3424 0.829943 0
M  V30 7151 N 700.619 -1.13374 -1.09472 0
M  V30 7152 C 701.552 -0.754354 -2.15371 0
M  V30 7153 C 702.53 0.259205 -1.60521 0
M  V30 7154 O 703.714 0.150819 -1.87896 0
M  V30 7155 C 700.841 -0.118197 -3.38494 0
M  V30 7156 C 699.887 -1.10017 -4.12066 0
M  V30 7157 S 700.72 -2.63242 -4.6633 0
M  V30 7158 C 701.876 -2.00984 -5.92753 0
M  V30 7159 H 702.109 -1.65135 -2.4722 0
M  V30 7160 H 699.642 -0.953838 -1.21414 0
M  V30 7161 H 701.6 0.242447 -4.09783 0
M  V30 7162 H 700.261 0.756065 -3.04865 0
M  V30 7163 H 699.454 -0.60287 -5.00381 0
M  V30 7164 H 699.056 -1.40426 -3.46636 0
M  V30 7165 H 701.348 -1.35863 -6.63738 0
M  V30 7166 H 702.291 -2.8738 -6.47162 0
M  V30 7167 H 702.699 -1.46161 -5.4525 0
M  V30 7168 N 702.098 1.27442 -0.927168 0
M  V30 7169 C 703.347 1.93679 -0.563146 0
M  V30 7170 C 703.66 1.73673 0.899837 0
M  V30 7171 O 704.866 2.34247 1.37262 0
M  V30 7172 C 703.322 3.46961 -0.95636 0
M  V30 7173 C 702.93 3.75724 -2.43999 0
M  V30 7174 C 704.674 4.19282 -0.663565 0
M  V30 7175 C 702.581 5.22378 -2.77263 0
M  V30 7176 H 701.511 0.725059 -0.206894 0
M  V30 7177 H 704.162 1.44743 -1.12791 0
M  V30 7178 H 702.544 3.94703 -0.320254 0
M  V30 7179 H 703.718 3.38741 -3.12396 0
M  V30 7180 H 702.033 3.16605 -2.70463 0
M  V30 7181 H 704.63 5.27265 -0.888596 0
M  V30 7182 H 704.973 4.14382 0.399198 0
M  V30 7183 H 705.506 3.7736 -1.25875 0
M  V30 7184 H 702.245 5.32367 -3.82446 0
M  V30 7185 H 701.765 5.6051 -2.13516 0
M  V30 7186 H 703.444 5.9025 -2.64979 0
M  V30 7187 N 703.576 0.692616 1.41565 0
M  V30 7188 C 704.526 0.00231847 2.28 0
M  V30 7189 C 705.51 -0.755793 1.42044 0
M  V30 7190 O 706.702 -0.631772 1.65341 0
M  V30 7191 C 703.831 -0.935468 3.30309 0
M  V30 7192 C 702.917 -0.173761 4.23744 0
M  V30 7193 N 703.308 0.830872 4.98929 0
M  V30 7194 C 701.606 -0.409666 4.44115 0
M  V30 7195 C 702.307 1.28656 5.67294 0
M  V30 7196 N 701.283 0.613053 5.40132 0
M  V30 7197 H 705.085 0.772635 2.83562 0
M  V30 7198 H 702.599 0.523198 1.53741 0
M  V30 7199 H 704.596 -1.44513 3.91052 0
M  V30 7200 H 703.256 -1.70542 2.76307 0
M  V30 7201 H 704.267 1.21101 5.03542 0
M  V30 7202 H 700.944 -1.15773 4.01127 0
M  V30 7203 H 702.334 2.12006 6.37576 0
M  V30 7204 N 705.054 -1.51416 0.437162 0
M  V30 7205 C 706.331 -1.94682 -0.189292 0
M  V30 7206 C 706.711 -1.37581 -1.60108 0
M  V30 7207 O 706.059 -0.562815 -2.2146 0
M  V30 7208 C 706.269 -3.48599 -0.167201 0
M  V30 7209 C 707.617 -4.2296 -0.372856 0
M  V30 7210 O 708.641 -3.55354 -0.245323 0
M  V30 7211 O 707.5 -5.42895 -0.626693 0
M  V30 7212 H 704.594 -0.816708 -0.130063 0
M  V30 7213 H 707.14 -1.62316 0.495128 0
M  V30 7214 H 705.912 -3.82616 0.81981 0
M  V30 7215 H 705.535 -3.87406 -0.894537 0
M  V30 7216 N 706.532 -0.168513 -1.56696 0
M  V30 7217 C 707.78 0.476216 -1.96409 0
M  V30 7218 C 708.101 1.63968 -1.05544 0
M  V30 7219 O 707.371 1.95525 -0.121235 0
M  V30 7220 H 705.951 0.178921 -0.725256 0
M  V30 7221 H 708.613 -0.249042 -1.93302 0
M  V30 7222 H 707.709 0.838094 -3.00637 0
M  V30 7223 N 708.01 1.57248 0.105221 0
M  V30 7224 C 709.421 1.74612 0.660865 0
M  V30 7225 C 709.772 0.789231 1.79626 0
M  V30 7226 O 708.897 -0.0346611 2.16372 0
M  V30 7227 C 709.492 3.16624 1.20559 0
M  V30 7228 C 708.051 3.35447 1.7074 0
M  V30 7229 C 707.198 2.70445 0.612764 0
M  V30 7230 H 710.149 1.5824 -0.12079 0
M  V30 7231 H 710.17 3.18937 2.07508 0
M  V30 7232 H 709.682 3.86245 0.379012 0
M  V30 7233 H 707.783 2.7089 2.5583 0
M  V30 7234 H 707.896 4.43702 1.80736 0
M  V30 7235 H 706.26 2.32061 1.04975 0
M  V30 7236 H 707.043 3.42699 -0.203066 0
M  V30 7237 N 709.488 -0.375779 1.53054 0
M  V30 7238 C 710.718 -1.1387 1.72386 0
M  V30 7239 C 711.126 -1.8382 0.447966 0
M  V30 7240 O 710.469 -1.74027 -0.588244 0
M  V30 7241 C 710.531 -2.22047 2.82728 0
M  V30 7242 C 710.195 -1.71951 4.23417 0
M  V30 7243 C 711.192 -1.18909 5.06119 0
M  V30 7244 C 708.877 -1.77773 4.69789 0
M  V30 7245 C 710.871 -0.723529 6.3328 0
M  V30 7246 C 708.558 -1.30829 5.96931 0
M  V30 7247 C 709.556 -0.782077 6.78508 0
M  V30 7248 O 709.244 -0.319529 8.03265 0
M  V30 7249 H 708.976 -0.346835 0.580242 0
M  V30 7250 H 711.53 -0.443748 2.00549 0
M  V30 7251 H 709.76 -2.95006 2.50017 0
M  V30 7252 H 711.449 -2.83654 2.90336 0
M  V30 7253 H 712.215 -1.13758 4.7147 0
M  V30 7254 H 708.094 -2.17673 4.06373 0
M  V30 7255 H 711.638 -0.312126 6.96901 0
M  V30 7256 H 707.535 -1.3567 6.31081 0
M  V30 7257 H 708.303 -0.439796 8.17318 0
M  V30 7258 N 710.966 -1.44241 -0.634997 0
M  V30 7259 C 711.914 -1.51103 -1.76835 0
M  V30 7260 C 712.908 -0.383051 -1.65012 0
M  V30 7261 O 714.114 -0.557832 -1.71138 0
M  V30 7262 H 710.489 -0.474076 -0.583743 0
M  V30 7263 H 712.46 -2.46499 -1.68169 0
M  V30 7264 C 711.209 -1.4687 -3.15158 0
M  V30 7265 H 710.532 -2.32979 -3.24901 0
M  V30 7266 H 711.972 -1.55731 -3.94365 0
M  V30 7267 C 710.431 -0.188884 -3.3637 0
M  V30 7268 O 710.961 0.742487 -3.94778 0
M  V30 7269 N 709.167 -0.0932516 -2.9045 0
M  V30 7270 H 708.714 -0.852004 -2.43102 0
M  V30 7271 H 708.672 0.762308 -3.05018 0
M  V30 7272 N 712.444 0.87505 -1.31075 0
M  V30 7273 C 713.392 2.00317 -1.18219 0
M  V30 7274 C 714.386 1.69152 -0.0916872 0
M  V30 7275 O 715.592 1.7821 -0.253229 0
M  V30 7276 H 711.967 0.656981 -0.365895 0
M  V30 7277 H 713.938 2.08293 -2.13674 0
M  V30 7278 C 712.687 3.35821 -0.901095 0
M  V30 7279 H 712.01 3.6032 -1.73233 0
M  V30 7280 H 713.45 4.15366 -0.851295 0
M  V30 7281 C 711.909 3.34563 0.396114 0
M  V30 7282 O 712.439 3.75971 1.41452 0
M  V30 7283 N 710.645 2.87681 0.410832 0
M  V30 7284 H 710.192 2.54179 -0.418415 0
M  V30 7285 H 710.15 2.87223 1.27869 0
M  V30 7286 N 713.922 1.13953 1.08869 0
M  V30 7287 C 715.171 0.899431 1.80536 0
M  V30 7288 C 715.484 -0.575781 1.86933 0
M  V30 7289 O 716.69 -0.932988 2.54966 0
M  V30 7290 C 715.146 1.55963 3.24351 0
M  V30 7291 C 714.754 3.07077 3.26202 0
M  V30 7292 C 716.498 1.40046 4.00733 0
M  V30 7293 C 714.405 3.65955 4.64576 0
M  V30 7294 H 713.335 0.332849 0.676556 0
M  V30 7295 H 715.986 1.3679 1.22314 0
M  V30 7296 H 714.368 1.01883 3.82669 0
M  V30 7297 H 715.542 3.67785 2.77617 0
M  V30 7298 H 713.857 3.22576 2.63312 0
M  V30 7299 H 716.454 1.81441 5.02974 0
M  V30 7300 H 716.797 0.345993 4.1486 0
M  V30 7301 H 717.33 1.91137 3.48872 0
M  V30 7302 H 714.069 4.71234 4.55652 0
M  V30 7303 H 713.589 3.10027 5.13462 0
M  V30 7304 H 715.268 3.65968 5.33551 0
M  V30 7305 N 715.4 -1.26948 0.933913 0
M  V30 7306 C 716.347 -2.26635 0.436484 0
M  V30 7307 C 717.317 -1.58397 -0.499953 0
M  V30 7308 O 718.502 -1.86171 -0.417753 0
M  V30 7309 C 715.642 -3.43803 -0.298951 0
M  V30 7310 C 714.755 -4.26736 0.672316 0
M  V30 7311 C 713.89 -5.31134 -0.0835872 0
M  V30 7312 C 712.929 -6.05742 0.879979 0
M  V30 7313 N 712.066 -7.01926 0.156301 0
M  V30 7314 H 716.906 -2.68558 1.29154 0
M  V30 7315 H 714.443 -1.32052 0.648118 0
M  V30 7316 H 716.401 -4.10554 -0.741723 0
M  V30 7317 H 715.031 -3.02814 -1.1182 0
M  V30 7318 H 714.083 -3.59842 1.23361 0
M  V30 7319 H 715.395 -4.78502 1.40846 0
M  V30 7320 H 714.549 -6.03863 -0.585984 0
M  V30 7321 H 713.288 -4.80188 -0.852661 0
M  V30 7322 H 712.293 -5.31846 1.39357 0
M  V30 7323 H 713.518 -6.58777 1.64894 0
M  V30 7324 H 711.464 -6.53301 -0.594413 0
M  V30 7325 H 711.381 -7.51409 0.831906 0
M  V30 7326 H 712.649 -7.78821 -0.325239 0
M  V30 7327 N 716.879 -0.700114 -1.41195 0
M  V30 7328 C 717.827 -0.0263301 -2.32585 0
M  V30 7329 C 718.821 0.763683 -1.51209 0
M  V30 7330 O 720.027 0.668793 -1.67114 0
M  V30 7331 H 716.402 0.0102869 -0.75193 0
M  V30 7332 H 718.373 -0.814087 -2.8708 0
M  V30 7333 C 717.122 0.892793 -3.36042 0
M  V30 7334 H 716.445 0.294306 -3.98715 0
M  V30 7335 H 717.885 1.33247 -4.02518 0
M  V30 7336 C 716.344 2.01109 -2.7029 0
M  V30 7337 O 716.874 3.10035 -2.55423 0
M  V30 7338 N 715.08 1.79015 -2.28915 0
M  V30 7339 H 714.627 0.904275 -2.41207 0
M  V30 7340 H 714.585 2.54022 -1.85257 0
M  V30 7341 N 718.357 1.51182 -0.445186 0
M  V30 7342 C 719.603 2.03097 0.111049 0
M  V30 7343 C 719.958 1.32293 1.397 0
M  V30 7344 O 719.251 0.431529 1.86677 0
M  V30 7345 C 719.445 3.55408 0.376797 0
M  V30 7346 C 719.274 4.40969 -0.88185 0
M  V30 7347 C 718.044 4.85006 -1.41766 0
M  V30 7348 C 720.242 4.82876 -1.77017 0
M  V30 7349 N 718.224 5.54804 -2.62803 0
M  V30 7350 C 719.595 5.51821 -2.82654 0
M  V30 7351 C 721.65 4.64855 -1.78365 0
M  V30 7352 C 720.353 6.04655 -3.89595 0
M  V30 7353 C 722.379 5.18612 -2.84246 0
M  V30 7354 C 721.741 5.87509 -3.88603 0
M  V30 7355 H 717.84 0.781999 0.0012696 0
M  V30 7356 H 720.424 1.84976 -0.60761 0
M  V30 7357 H 718.595 3.73528 1.06449 0
M  V30 7358 H 720.327 3.93985 0.925082 0
M  V30 7359 H 717.082 4.6355 -0.970476 0
M  V30 7360 H 717.506 5.94326 -3.24201 0
M  V30 7361 H 722.148 4.11043 -0.990119 0
M  V30 7362 H 719.866 6.57518 -4.69782 0
M  V30 7363 H 723.452 5.06515 -2.86241 0
M  V30 7364 H 722.332 6.28358 -4.69186 0
M  V30 7365 N 719.835 0.176821 1.56605 0
M  V30 7366 C 721.112 -0.513365 1.88743 0
M  V30 7367 C 721.492 -1.80929 1.08757 0
M  V30 7368 O 720.84 -2.27765 0.183127 0
M  V30 7369 C 721.05 -0.749925 3.40848 0
M  V30 7370 C 722.398 -1.07747 4.10701 0
M  V30 7371 O 723.422 -0.838277 3.46196 0
M  V30 7372 O 722.281 -1.52901 5.24675 0
M  V30 7373 H 719.375 -0.265296 0.783292 0
M  V30 7374 H 721.921 0.215669 1.68324 0
M  V30 7375 H 720.693 0.16599 3.90948 0
M  V30 7376 H 720.316 -1.53208 3.66897 0
M  V30 7377 N 721.313 -1.57302 -0.09688 0
M  V30 7378 C 722.543 -1.89926 -0.813114 0
M  V30 7379 C 722.951 -0.76852 -1.72888 0
M  V30 7380 O 722.294 0.268549 -1.81726 0
M  V30 7381 C 722.356 -3.17787 -1.68082 0
M  V30 7382 C 722.02 -4.4729 -0.937061 0
M  V30 7383 C 723.017 -5.1921 -0.267687 0
M  V30 7384 C 720.702 -4.93957 -0.911671 0
M  V30 7385 C 722.696 -6.36034 0.417129 0
M  V30 7386 C 720.383 -6.10693 -0.223068 0
M  V30 7387 C 721.381 -6.8158 0.440155 0
M  V30 7388 O 721.069 -7.96092 1.11772 0
M  V30 7389 H 720.801 -0.632783 -0.237828 0
M  V30 7390 H 723.355 -2.05248 -0.0790818 0
M  V30 7391 H 721.585 -2.98607 -2.45705 0
M  V30 7392 H 723.274 -3.36257 -2.27346 0
M  V30 7393 H 724.04 -4.84198 -0.278774 0
M  V30 7394 H 719.919 -4.38671 -1.41734 0
M  V30 7395 H 723.463 -6.91301 0.93537 0
M  V30 7396 H 719.36 -6.45159 -0.209821 0
M  V30 7397 H 720.128 -8.12064 1.02443 0
M  V30 7398 N 722.791 0.367657 -1.53252 0
M  V30 7399 C 723.754 1.43308 -1.78873 0
M  V30 7400 C 724.754 1.46671 -0.659115 0
M  V30 7401 O 725.944 1.47468 -0.927306 0
M  V30 7402 C 723.076 2.82442 -1.90892 0
M  V30 7403 H 724.269 1.21864 -2.74024 0
M  V30 7404 H 721.822 0.600668 -1.44297 0
M  V30 7405 H 722.557 3.09202 -0.978 0
M  V30 7406 H 722.342 2.81399 -2.73051 0
M  V30 7407 H 723.832 3.59601 -2.12314 0
M  V30 7408 N 724.269 1.44576 0.627338 0
M  V30 7409 C 725.517 1.47267 1.38408 0
M  V30 7410 C 725.838 0.107971 1.94701 0
M  V30 7411 O 725.108 -0.860206 1.76004 0
M  V30 7412 H 723.688 0.542276 0.513756 0
M  V30 7413 H 726.35 1.80383 0.738099 0
M  V30 7414 H 725.446 2.20025 2.21349 0
M  V30 7415 N 725.747 -0.868086 1.31537 0
M  V30 7416 C 726.677 -1.99131 1.21939 0
M  V30 7417 C 727.658 -1.69768 0.106166 0
M  V30 7418 O 728.843 -1.92006 0.291081 0
M  V30 7419 C 725.973 -3.34676 0.927879 0
M  V30 7420 C 724.927 -3.7835 2.00088 0
M  V30 7421 C 724.253 -5.11375 1.56203 0
M  V30 7422 C 725.553 -3.95256 3.41424 0
M  V30 7423 H 727.247 -2.07419 2.15911 0
M  V30 7424 H 724.793 -0.996569 1.03945 0
M  V30 7425 H 726.746 -4.12793 0.847327 0
M  V30 7426 H 725.47 -3.26565 -0.0475042 0
M  V30 7427 H 724.129 -3.02474 2.07135 0
M  V30 7428 H 723.777 -4.99709 0.57445 0
M  V30 7429 H 723.477 -5.41568 2.27985 0
M  V30 7430 H 725.001 -5.92001 1.49558 0
M  V30 7431 H 726.415 -4.63764 3.3704 0
M  V30 7432 H 724.812 -4.36849 4.1144 0
M  V30 7433 H 725.882 -2.98579 3.82072 0
M  V30 7434 N 727.225 -1.14528 -1.08264 0
M  V30 7435 C 728.158 -0.777154 -2.14559 0
M  V30 7436 C 729.136 0.242165 -1.60787 0
M  V30 7437 O 730.32 0.130882 -1.88045 0
M  V30 7438 C 727.447 -0.154092 -3.38349 0
M  V30 7439 C 726.493 -1.14382 -4.10876 0
M  V30 7440 S 727.326 -2.68173 -4.63512 0
M  V30 7441 C 728.482 -2.0726 -5.90588 0
M  V30 7442 H 728.715 -1.67748 -2.45454 0
M  V30 7443 H 726.248 -0.966661 -1.20395 0
M  V30 7444 H 728.206 0.19897 -4.10018 0
M  V30 7445 H 726.867 0.723688 -3.05649 0
M  V30 7446 H 726.06 -0.655908 -4.99714 0
M  V30 7447 H 725.662 -1.44095 -3.45127 0
M  V30 7448 H 727.954 -1.42895 -6.62259 0
M  V30 7449 H 728.897 -2.94227 -6.44078 0
M  V30 7450 H 729.305 -1.51935 -5.43669 0
M  V30 7451 N 728.703 1.26451 -0.940633 0
M  V30 7452 C 729.613 2.30128 -0.455881 0
M  V30 7453 C 730.629 1.67536 0.469867 0
M  V30 7454 O 731.805 1.98344 0.349529 0
M  V30 7455 C 728.87 3.45634 0.271648 0
M  V30 7456 C 727.931 4.23709 -0.690594 0
M  V30 7457 C 727.164 5.337 0.00231047 0
M  V30 7458 O 727.387 5.57215 1.21935 0
M  V30 7459 O 726.321 5.98091 -0.676111 0
M  V30 7460 H 730.147 2.73655 -1.31707 0
M  V30 7461 H 727.732 1.3164 -0.706497 0
M  V30 7462 H 729.614 4.15853 0.681486 0
M  V30 7463 H 728.289 3.04138 1.10824 0
M  V30 7464 H 727.196 3.55974 -1.15037 0
M  V30 7465 H 728.529 4.68953 -1.49478 0
M  V30 7466 N 730.181 0.707592 1.40822 0
M  V30 7467 C 731.427 0.244031 2.01326 0
M  V30 7468 C 731.76 -1.15722 1.55955 0
M  V30 7469 O 731.035 -1.78347 0.776044 0
M  V30 7470 C 731.318 0.315128 3.58718 0
M  V30 7471 C 731.171 1.75419 4.14184 0
M  V30 7472 C 732.49 -0.318251 4.38948 0
M  V30 7473 H 729.609 0.0901471 0.731466 0
M  V30 7474 H 732.251 0.898584 1.67408 0
M  V30 7475 H 730.401 -0.242176 3.87744 0
M  V30 7476 H 732.073 2.36626 3.95987 0
M  V30 7477 H 730.316 2.28449 3.68773 0
M  V30 7478 H 730.987 1.75538 5.23345 0
M  V30 7479 H 733.463 0.156514 4.15806 0
M  V30 7480 H 732.339 -0.238019 5.48384 0
M  V30 7481 H 732.6 -1.40067 4.19325 0
M  V30 7482 N 731.66 -1.50943 0.453197 0
M  V30 7483 C 732.907 -2.02212 -0.107922 0
M  V30 7484 C 733.235 -1.33639 -1.41318 0
M  V30 7485 O 732.49 -0.445154 -1.9057 0
M  V30 7486 C 732.789 -3.55603 -0.357944 0
M  V30 7487 C 732.455 -4.42556 0.863427 0
M  V30 7488 C 731.117 -4.6604 1.19834 0
M  V30 7489 C 733.469 -4.93468 1.67747 0
M  V30 7490 C 730.797 -5.37681 2.34768 0
M  V30 7491 C 733.149 -5.6637 2.81793 0
M  V30 7492 C 731.813 -5.88113 3.1572 0
M  V30 7493 H 731.083 -0.739947 -0.0394916 0
M  V30 7494 H 733.73 -1.81738 0.60363 0
M  V30 7495 H 732.035 -3.74495 -1.15156 0
M  V30 7496 H 733.732 -3.92821 -0.805781 0
M  V30 7497 H 730.322 -4.24485 0.592478 0
M  V30 7498 H 734.506 -4.75194 1.43192 0
M  V30 7499 H 729.762 -5.52727 2.61348 0
M  V30 7500 H 733.936 -6.04806 3.45229 0
M  V30 7501 H 731.563 -6.43404 4.04889 0
M  V30 7502 N 733.138 -0.185124 -1.56509 0
M  V30 7503 C 734.086 0.756505 -2.19954 0
M  V30 7504 C 735.08 1.22725 -1.16769 0
M  V30 7505 O 736.286 1.1913 -1.34937 0
M  V30 7506 H 732.661 0.262279 -0.704779 0
M  V30 7507 H 734.632 0.197587 -2.97745 0
M  V30 7508 C 733.381 1.96975 -2.86524 0
M  V30 7509 H 732.704 1.61658 -3.65659 0
M  V30 7510 H 734.144 2.60719 -3.34367 0
M  V30 7511 C 732.603 2.80219 -1.87027 0
M  V30 7512 O 733.133 3.77821 -1.36433 0
M  V30 7513 N 731.339 2.4551 -1.55477 0
M  V30 7514 H 730.886 1.66199 -1.96813 0
M  V30 7515 H 730.844 3.01493 -0.891597 0
M  V30 7516 N 734.616 1.57351 0.0885366 0
M  V30 7517 C 735.864 1.86051 0.789262 0
M  V30 7518 C 736.185 0.774763 1.78948 0
M  V30 7519 O 735.455 -0.198324 1.94894 0
M  V30 7520 H 734.035 0.686508 0.294475 0
M  V30 7521 H 736.697 1.94779 0.0686055 0
M  V30 7522 H 735.793 2.83007 1.31581 0
M  V30 7523 N 736.094 -0.359525 1.53444 0
M  V30 7524 C 737.042 -1.46104 1.80987 0
M  V30 7525 C 738.036 -1.55181 0.679351 0
M  V30 7526 O 739.242 -1.57995 0.862405 0
M  V30 7527 H 735.617 -0.486835 0.573145 0
M  V30 7528 H 737.588 -1.2008 2.73173 0
M  V30 7529 C 736.337 -2.82855 2.02208 0
M  V30 7530 H 735.66 -2.76631 2.88644 0
M  V30 7531 H 737.1 -3.59091 2.25455 0
M  V30 7532 C 735.559 -3.27192 0.802931 0
M  V30 7533 O 736.089 -4.017 -0.00544286 0
M  V30 7534 N 734.295 -2.83807 0.624657 0
M  V30 7535 H 733.842 -2.23339 1.28364 0
M  V30 7536 H 733.8 -3.13828 -0.189641 0
M  V30 7537 N 737.572 -1.44907 -0.619662 0
M  V30 7538 C 738.82 -1.47999 -1.37625 0
M  V30 7539 C 739.141 -0.118295 -1.94641 0
M  V30 7540 O 738.411 0.85086 -1.76457 0
M  V30 7541 H 736.991 -0.544993 -0.510873 0
M  V30 7542 H 739.653 -1.80772 -0.728522 0
M  V30 7543 H 738.749 -2.21196 -2.20179 0
M  V30 7544 N 739.05 0.861098 -1.31996 0
M  V30 7545 C 740.298 1.61162 -1.21947 0
M  V30 7546 C 740.619 1.93751 0.220351 0
M  V30 7547 O 739.889 1.59069 1.14341 0
M  V30 7548 H 738.469 0.597485 -0.448353 0
M  V30 7549 H 741.131 1.03039 -1.65436 0
M  V30 7550 H 740.227 2.55138 -1.79752 0
M  V30 7551 N 740.528 1.15101 1.07655 0
M  V30 7552 C 741.758 0.946357 1.83651 0
M  V30 7553 C 742.166 -0.508641 1.82235 0
M  V30 7554 O 741.509 -1.36445 1.22997 0
M  V30 7555 C 741.571 1.37945 3.31981 0
M  V30 7556 C 741.235 2.85155 3.57122 0
M  V30 7557 C 742.232 3.83234 3.51323 0
M  V30 7558 C 739.917 3.2275 3.84887 0
M  V30 7559 C 741.911 5.16914 3.72932 0
M  V30 7560 C 739.598 4.56604 4.06148 0
M  V30 7561 C 740.596 5.53495 4.00165 0
M  V30 7562 O 740.284 6.84931 4.20861 0
M  V30 7563 H 740.016 0.336368 0.586372 0
M  V30 7564 H 742.57 1.53198 1.36819 0
M  V30 7565 H 740.8 0.737205 3.79608 0
M  V30 7566 H 742.489 1.14439 3.89434 0
M  V30 7567 H 743.255 3.55535 3.29878 0
M  V30 7568 H 739.134 2.47921 3.88659 0
M  V30 7569 H 742.678 5.92529 3.68178 0
M  V30 7570 H 738.575 4.84019 4.27078 0
M  V30 7571 H 739.343 6.91304 4.38226 0
M  V30 7572 N 742.006 -1.2595 0.947325 0
M  V30 7573 C 743.283 -1.88676 0.515824 0
M  V30 7574 C 743.663 -1.85547 -1.00675 0
M  V30 7575 O 743.011 -1.31399 -1.8694 0
M  V30 7576 C 743.221 -3.31734 1.08415 0
M  V30 7577 C 744.569 -4.08545 1.15654 0
M  V30 7578 O 745.593 -3.40826 1.03517 0
M  V30 7579 O 744.452 -5.29663 1.34608 0
M  V30 7580 H 741.546 -0.809537 0.169055 0
M  V30 7581 H 744.092 -1.34075 1.04029 0
M  V30 7582 H 742.864 -3.28404 2.1276 0
M  V30 7583 H 742.487 -3.93882 0.542499 0
M  V30 7584 N 743.484 -0.715051 -1.40445 0
M  V30 7585 C 744.709 -0.26254 -2.05732 0
M  V30 7586 C 745.134 1.08691 -1.53519 0
M  V30 7587 O 744.492 1.68453 -0.670328 0
M  V30 7588 C 744.54 -0.25195 -3.59719 0
M  V30 7589 O 743.644 0.766998 -4.05205 0
M  V30 7590 H 742.985 -0.123398 -0.652433 0
M  V30 7591 H 745.515 -0.975382 -1.79854 0
M  V30 7592 H 745.525 -0.0894537 -4.07902 0
M  V30 7593 H 744.2 -1.23672 -3.97087 0
M  V30 7594 H 742.777 0.572269 -3.68483 0
M  V30 7595 N 744.962 1.50701 -0.461195 0
M  V30 7596 C 746.21 2.01867 0.0970051 0
M  V30 7597 C 746.531 1.34591 1.41104 0
M  V30 7598 O 745.801 0.488041 1.89723 0
M  V30 7599 H 744.381 0.74599 0.0388392 0
M  V30 7600 H 747.043 1.85129 -0.609357 0
M  V30 7601 H 746.139 3.11051 0.255688 0
M  V30 7602 N 746.441 0.193421 1.56409 0
M  V30 7603 C 747.404 -0.714371 2.17783 0
M  V30 7604 C 748.404 -1.1422 1.13183 0
M  V30 7605 O 749.594 -1.05557 1.38576 0
M  V30 7606 C 746.726 -1.97509 2.77855 0
M  V30 7607 H 747.919 -0.179714 2.99361 0
M  V30 7608 H 745.472 -0.0561944 1.56199 0
M  V30 7609 H 746.207 -2.5523 2.0007 0
M  V30 7610 H 745.992 -1.67706 3.54425 0
M  V30 7611 H 747.482 -2.62246 3.24987 0
M  V30 7612 N 747.919 -1.57396 -0.0801906 0
M  V30 7613 C 749.167 -1.86467 -0.779384 0
M  V30 7614 C 749.488 -0.784243 -1.78535 0
M  V30 7615 O 748.758 0.187986 -1.94996 0
M  V30 7616 H 747.338 -0.68806 -0.29083 0
M  V30 7617 H 750 -1.94813 -0.0582749 0
M  V30 7618 H 749.096 -2.83701 -1.30078 0
M  V30 7619 N 749.397 0.351382 -1.53633 0
M  V30 7620 C 750.344 1.43115 -1.81071 0
M  V30 7621 C 751.314 1.52601 -0.655913 0
M  V30 7622 O 752.499 1.68264 -0.89955 0
M  V30 7623 C 749.639 2.79874 -2.01903 0
M  V30 7624 C 748.752 2.79242 -3.29618 0
M  V30 7625 C 747.887 4.07667 -3.40559 0
M  V30 7626 C 746.926 4.01233 -4.62254 0
M  V30 7627 N 746.063 5.21334 -4.70271 0
M  V30 7628 H 750.903 1.19017 -2.73201 0
M  V30 7629 H 748.44 0.576691 -1.35324 0
M  V30 7630 H 750.398 3.5934 -2.11969 0
M  V30 7631 H 749.028 3.0234 -1.13094 0
M  V30 7632 H 748.08 1.91927 -3.28433 0
M  V30 7633 H 749.392 2.70363 -4.19172 0
M  V30 7634 H 748.546 4.95555 -3.50015 0
M  V30 7635 H 747.285 4.19317 -2.49047 0
M  V30 7636 H 746.29 3.11732 -4.52884 0
M  V30 7637 H 747.515 3.91173 -5.55122 0
M  V30 7638 H 745.461 5.33543 -3.81665 0
M  V30 7639 H 745.378 5.14681 -5.5375 0
M  V30 7640 H 746.646 6.11014 -4.84027 0
M  V30 7641 N 750.875 1.45233 0.611969 0
M  V30 7642 C 752.123 1.48727 1.36838 0
M  V30 7643 C 752.444 0.128616 1.94575 0
M  V30 7644 O 751.714 -0.84149 1.76906 0
M  V30 7645 H 750.294 0.547695 0.507976 0
M  V30 7646 H 752.956 1.81156 0.718925 0
M  V30 7647 H 752.052 2.2236 2.19003 0
M  V30 7648 N 752.353 -0.854086 1.3245 0
M  V30 7649 C 753.283 -1.97827 1.24044 0
M  V30 7650 C 754.264 -1.69646 0.124166 0
M  V30 7651 O 755.449 -1.91687 0.31143 0
M  V30 7652 C 752.579 -3.33673 0.963324 0
M  V30 7653 C 751.533 -3.76207 2.04089 0
M  V30 7654 C 750.859 -5.0969 1.61618 0
M  V30 7655 C 752.159 -3.91612 3.45597 0
M  V30 7656 H 753.853 -2.05118 2.18099 0
M  V30 7657 H 751.399 -0.985489 1.04996 0
M  V30 7658 H 753.352 -4.11871 0.891061 0
M  V30 7659 H 752.076 -3.26597 -0.0128649 0
M  V30 7660 H 750.735 -3.0026 2.10332 0
M  V30 7661 H 750.383 -4.99072 0.627418 0
M  V30 7662 H 750.083 -5.3912 2.33717 0
M  V30 7663 H 751.607 -5.90381 1.55829 0
M  V30 7664 H 753.021 -4.60163 3.4194 0
M  V30 7665 H 751.418 -4.3246 4.16051 0
M  V30 7666 H 752.488 -2.9451 3.85217 0
M  V30 7667 N 753.831 -1.1567 -1.07043 0
M  V30 7668 C 754.778 -0.856336 -2.14326 0
M  V30 7669 C 755.748 0.192051 -1.64986 0
M  V30 7670 O 756.933 0.0589148 -1.90709 0
M  V30 7671 C 754.073 -0.355227 -3.43267 0
M  V30 7672 C 753.186 -1.46555 -4.06381 0
M  V30 7673 C 752.321 -0.920245 -5.23168 0
M  V30 7674 C 751.36 -2.00729 -5.78251 0
M  V30 7675 N 750.497 -1.47813 -6.86364 0
M  V30 7676 H 755.337 -1.77514 -2.39359 0
M  V30 7677 H 752.874 -0.885676 -1.17449 0
M  V30 7678 H 754.832 -0.0463804 -4.17174 0
M  V30 7679 H 753.462 0.526649 -3.18475 0
M  V30 7680 H 752.514 -1.89052 -3.30096 0
M  V30 7681 H 753.826 -2.28616 -4.43324 0
M  V30 7682 H 752.98 -0.564127 -6.04072 0
M  V30 7683 H 751.719 -0.0688477 -4.87651 0
M  V30 7684 H 750.724 -2.3722 -4.95991 0
M  V30 7685 H 751.949 -2.86252 -6.15822 0
M  V30 7686 H 749.895 -0.649145 -6.5278 0
M  V30 7687 H 749.812 -2.23498 -7.22208 0
M  V30 7688 H 751.08 -1.15036 -7.70965 0
M  V30 7689 N 755.309 1.25446 -0.953992 0
M  V30 7690 C 756.272 2.24156 -0.478179 0
M  V30 7691 C 757.272 1.55278 0.417776 0
M  V30 7692 O 758.462 1.72866 0.215155 0
M  V30 7693 C 755.594 3.39495 0.309202 0
M  V30 7694 H 756.787 2.67764 -1.35064 0
M  V30 7695 H 754.34 1.37822 -0.737206 0
M  V30 7696 H 755.075 3.01307 1.19936 0
M  V30 7697 H 754.86 3.90679 -0.333562 0
M  V30 7698 H 756.35 4.12796 0.631594 0
M  V30 7699 N 756.787 0.722489 1.40064 0
M  V30 7700 C 757.734 0.0743738 2.3068 0
M  V30 7701 C 758.704 -0.743004 1.48555 0
M  V30 7702 O 759.889 -0.705536 1.77276 0
M  V30 7703 C 757.029 -0.836292 3.34814 0
M  V30 7704 C 756.142 -0.00764663 4.31999 0
M  V30 7705 C 755.277 -0.918428 5.232 0
M  V30 7706 C 754.316 -0.0842838 6.12042 0
M  V30 7707 N 753.453 -0.950316 6.95639 0
M  V30 7708 H 758.293 0.852794 2.85537 0
M  V30 7709 H 755.83 0.432222 1.40607 0
M  V30 7710 H 757.788 -1.3786 3.93765 0
M  V30 7711 H 756.418 -1.58082 2.81443 0
M  V30 7712 H 755.47 0.651928 3.74772 0
M  V30 7713 H 756.782 0.63786 4.94705 0
M  V30 7714 H 755.936 -1.52902 5.87116 0
M  V30 7715 H 754.675 -1.59774 4.60786 0
M  V30 7716 H 753.68 0.5392 5.4715 0
M  V30 7717 H 754.905 0.591628 6.76518 0
M  V30 7718 H 752.851 -1.61515 6.35806 0
M  V30 7719 H 752.768 -0.361004 7.55138 0
M  V30 7720 H 754.036 -1.54687 7.63997 0
M  V30 7721 N 758.265 -1.50454 0.469181 0
M  V30 7722 C 759.493 -2.06729 -0.0842134 0
M  V30 7723 C 759.908 -1.33326 -1.33677 0
M  V30 7724 O 759.265 -0.401977 -1.78018 0
M  V30 7725 C 759.316 -3.59557 -0.374253 0
M  V30 7726 O 759.037 -4.30192 0.828622 0
M  V30 7727 C 760.538 -4.32449 -0.974824 0
M  V30 7728 H 757.758 -0.670971 0.006231 0
M  V30 7729 H 760.302 -1.93645 0.657415 0
M  V30 7730 H 758.457 -3.7245 -1.06581 0
M  V30 7731 H 758.871 -5.21371 0.572066 0
M  V30 7732 H 760.345 -5.40361 -1.12755 0
M  V30 7733 H 760.822 -3.92819 -1.96442 0
M  V30 7734 H 761.428 -4.24082 -0.321703 0
M  V30 7735 N 759.743 -0.201713 -1.56304 0
M  V30 7736 C 760.991 0.434447 -1.97375 0
M  V30 7737 C 761.312 1.61692 -1.08998 0
M  V30 7738 O 760.582 1.95223 -0.162682 0
M  V30 7739 H 759.162 0.163497 -0.728888 0
M  V30 7740 H 761.824 -0.289988 -1.92731 0
M  V30 7741 H 760.92 0.774136 -3.02347 0
M  V30 7742 N 761.222 1.57436 0.0718424 0
M  V30 7743 C 762.47 1.86878 0.769484 0
M  V30 7744 C 762.791 0.7937 1.78116 0
M  V30 7745 O 762.061 -0.177642 1.95093 0
M  V30 7746 H 760.641 0.689593 0.287177 0
M  V30 7747 H 763.303 1.94841 0.0479427 0
M  V30 7748 H 762.399 2.84387 1.28572 0
M  V30 7749 N 762.7 -0.34323 1.53817 0
M  V30 7750 C 763.61 -1.44493 1.84821 0
M  V30 7751 C 764.626 -1.57556 0.738381 0
M  V30 7752 O 765.802 -1.73026 1.03072 0
M  V30 7753 C 762.867 -2.79478 2.05166 0
M  V30 7754 C 761.928 -2.75756 3.29025 0
M  V30 7755 C 761.161 -4.04302 3.4839 0
M  V30 7756 O 761.384 -5.01595 2.71586 0
M  V30 7757 O 760.318 -4.08754 4.41819 0
M  V30 7758 H 764.144 -1.21209 2.78464 0
M  V30 7759 H 761.729 -0.535437 1.39476 0
M  V30 7760 H 763.611 -3.59419 2.19991 0
M  V30 7761 H 762.286 -3.02692 1.14713 0
M  V30 7762 H 761.193 -1.94434 3.19603 0
M  V30 7763 H 762.526 -2.57495 4.19472 0
M  V30 7764 N 764.178 -1.45556 -0.604258 0
M  V30 7765 C 765.108 -1.57327 -1.72541 0
M  V30 7766 C 766.089 -0.424637 -1.64714 0
M  V30 7767 O 767.274 -0.648196 -1.83063 0
M  V30 7768 C 764.404 -1.54279 -3.11152 0
M  V30 7769 C 763.358 -2.67893 -3.33792 0
M  V30 7770 C 762.684 -2.499 -4.72709 0
M  V30 7771 C 763.984 -4.0988 -3.23722 0
M  V30 7772 H 765.678 -2.51175 -1.62947 0
M  V30 7773 H 763.224 -1.20884 -0.782504 0
M  V30 7774 H 765.177 -1.6111 -3.89386 0
M  V30 7775 H 763.901 -0.569627 -3.21594 0
M  V30 7776 H 762.56 -2.60495 -2.57949 0
M  V30 7777 H 762.208 -1.50715 -4.79889 0
M  V30 7778 H 761.908 -3.26091 -4.88813 0
M  V30 7779 H 763.432 -2.5859 -5.5314 0
M  V30 7780 H 764.846 -4.18503 -3.91826 0
M  V30 7781 H 763.243 -4.86487 -3.51355 0
M  V30 7782 H 764.313 -4.31553 -2.21111 0
M  V30 7783 N 765.656 0.84705 -1.32902 0
M  V30 7784 C 766.619 1.9378 -1.224 0
M  V30 7785 C 767.619 1.60144 -0.145108 0
M  V30 7786 O 768.809 1.69638 -0.396058 0
M  V30 7787 C 765.941 3.29234 -0.884174 0
M  V30 7788 H 767.134 2.04518 -2.19345 0
M  V30 7789 H 764.687 1.03816 -1.16842 0
M  V30 7790 H 765.422 3.24193 0.0831277 0
M  V30 7791 H 765.207 3.55026 -1.6643 0
M  V30 7792 H 766.697 4.09162 -0.835226 0
M  V30 7793 N 767.134 1.16236 1.06428 0
M  V30 7794 C 768.044 0.881976 2.1739 0
M  V30 7795 C 769.06 -0.145259 1.73393 0
M  V30 7796 O 770.236 0.0310558 2.01376 0
M  V30 7797 C 767.301 0.385496 3.4455 0
M  V30 7798 C 766.362 1.47779 4.03063 0
M  V30 7799 C 765.595 1.0049 5.24154 0
M  V30 7800 O 765.818 -0.145889 5.70213 0
M  V30 7801 O 764.752 1.79265 5.74585 0
M  V30 7802 H 768.578 1.80983 2.43883 0
M  V30 7803 H 766.163 0.942226 1.15942 0
M  V30 7804 H 768.045 0.115536 4.21242 0
M  V30 7805 H 766.72 -0.514369 3.19587 0
M  V30 7806 H 765.627 1.80147 3.27869 0
M  V30 7807 H 766.96 2.35291 4.32318 0
M  V30 7808 N 768.612 -1.24939 0.960631 0
M  V30 7809 C 769.575 -2.239 0.49006 0
M  V30 7810 C 770.575 -1.55497 -0.409535 0
M  V30 7811 O 771.765 -1.72978 -0.205984 0
M  V30 7812 C 768.897 -3.39654 -0.291193 0
M  V30 7813 H 770.09 -2.67044 1.36482 0
M  V30 7814 H 767.643 -1.37429 0.744505 0
M  V30 7815 H 768.378 -3.01939 -1.18336 0
M  V30 7816 H 768.163 -3.90496 0.354276 0
M  V30 7817 H 769.653 -4.13125 -0.609693 0
M  V30 7818 N 770.09 -0.729906 -1.39679 0
M  V30 7819 C 771.339 -0.272534 -1.9985 0
M  V30 7820 C 771.652 1.14519 -1.58571 0
M  V30 7821 O 772.858 1.70182 -2.11543 0
M  V30 7822 C 771.314 -0.436322 -3.57245 0
M  V30 7823 C 770.922 -1.86161 -4.0749 0
M  V30 7824 C 772.666 -0.0404679 -4.24481 0
M  V30 7825 C 770.573 -1.97522 -5.5744 0
M  V30 7826 H 769.503 -0.0981428 -0.747585 0
M  V30 7827 H 772.154 -0.903056 -1.59741 0
M  V30 7828 H 770.536 0.263015 -3.95126 0
M  V30 7829 H 771.71 -2.59248 -3.80955 0
M  V30 7830 H 770.025 -2.21021 -3.529 0
M  V30 7831 H 772.622 -0.104437 -5.34598 0
M  V30 7832 H 772.965 1.00357 -4.04023 0
M  V30 7833 H 773.498 -0.690774 -3.91757 0
M  V30 7834 H 770.237 -3.00096 -5.82771 0
M  V30 7835 H 769.757 -1.28864 -5.85794 0
M  V30 7836 H 771.436 -1.754 -6.22771 0
M  V30 7837 N 771.568 1.50203 -0.477153 0
M  V30 7838 C 772.515 2.28656 0.31386 0
M  V30 7839 C 773.485 1.33977 0.981802 0
M  V30 7840 O 774.67 1.62919 0.993072 0
M  V30 7841 C 771.81 3.16027 1.38639 0
M  V30 7842 C 770.923 4.25743 0.732615 0
M  V30 7843 C 770.058 5.00363 1.78355 0
M  V30 7844 C 769.097 6.01945 1.11035 0
M  V30 7845 N 768.234 6.6982 2.10441 0
M  V30 7846 H 773.074 2.958 -0.361445 0
M  V30 7847 H 770.611 1.45867 -0.190093 0
M  V30 7848 H 772.569 3.6504 2.01994 0
M  V30 7849 H 771.199 2.50917 2.03077 0
M  V30 7850 H 770.251 3.80398 -0.0136546 0
M  V30 7851 H 771.563 4.98393 0.201513 0
M  V30 7852 H 770.717 5.53124 2.49276 0
M  V30 7853 H 769.456 4.27432 2.34847 0
M  V30 7854 H 768.461 5.48438 0.386797 0
M  V30 7855 H 769.686 6.76851 0.552248 0
M  V30 7856 H 767.632 5.99677 2.65939 0
M  V30 7857 H 767.549 7.38366 1.62332 0
M  V30 7858 H 768.817 7.27196 2.80724 0
M  V30 7859 N 773.046 0.209999 1.56195 0
M  V30 7860 C 774.292 -0.425442 1.98287 0
M  V30 7861 C 774.625 -1.60232 1.09724 0
M  V30 7862 O 773.9 -1.93902 0.152414 0
M  V30 7863 C 774.183 -0.871189 3.49403 0
M  V30 7864 C 774.036 0.308527 4.48741 0
M  V30 7865 C 775.355 -1.73146 4.04609 0
M  V30 7866 H 772.474 -0.153169 0.720908 0
M  V30 7867 H 775.116 0.303916 1.87554 0
M  V30 7868 H 773.266 -1.49266 3.58681 0
M  V30 7869 H 774.938 0.946487 4.51486 0
M  V30 7870 H 773.181 0.957878 4.23092 0
M  V30 7871 H 773.852 -0.0461143 5.51981 0
M  V30 7872 H 776.328 -1.2072 3.98203 0
M  V30 7873 H 775.204 -2.01228 5.10684 0
M  V30 7874 H 775.465 -2.69083 3.5078 0
M  V30 7875 N 774.524 -1.57472 -0.0634922 0
M  V30 7876 C 775.487 -2.03268 -1.059 0
M  V30 7877 C 776.487 -0.931028 -1.31105 0
M  V30 7878 O 777.677 -1.19567 -1.26686 0
M  V30 7879 C 774.809 -2.42039 -2.40062 0
M  V30 7880 H 776.002 -2.92454 -0.664119 0
M  V30 7881 H 773.555 -1.53206 -0.309444 0
M  V30 7882 H 774.29 -1.55904 -2.84367 0
M  V30 7883 H 774.075 -3.22437 -2.23108 0
M  V30 7884 H 775.565 -2.78017 -3.11603 0
M  V30 7885 N 776.003 0.335068 -1.53997 0
M  V30 7886 C 776.933 1.41727 -1.85568 0
M  V30 7887 C 777.914 1.54505 -0.7115 0
M  V30 7888 O 779.099 1.68573 -0.964191 0
M  V30 7889 C 776.229 2.7866 -2.07282 0
M  V30 7890 C 775.183 2.80682 -3.23112 0
M  V30 7891 C 774.509 4.20581 -3.30175 0
M  V30 7892 C 775.809 2.45458 -4.61029 0
M  V30 7893 H 777.503 1.15555 -2.76202 0
M  V30 7894 H 775.049 0.554445 -1.32898 0
M  V30 7895 H 777.002 3.54423 -2.27952 0
M  V30 7896 H 775.726 3.06286 -1.13387 0
M  V30 7897 H 774.385 2.07373 -3.02311 0
M  V30 7898 H 774.033 4.4533 -2.33859 0
M  V30 7899 H 773.733 4.22843 -4.08016 0
M  V30 7900 H 775.257 4.98174 -3.53066 0
M  V30 7901 H 776.671 3.10934 -4.81656 0
M  V30 7902 H 775.068 2.5899 -5.41336 0
M  V30 7903 H 776.138 1.40628 -4.6406 0
M  V30 7904 N 777.481 1.45874 0.596531 0
M  V30 7905 C 778.444 1.54988 1.68853 0
M  V30 7906 C 779.444 0.428302 1.54991 0
M  V30 7907 O 780.634 0.692158 1.59859 0
M  V30 7908 C 777.766 1.457 3.08195 0
M  V30 7909 H 778.959 2.52294 1.62135 0
M  V30 7910 H 776.512 1.33479 0.813206 0
M  V30 7911 H 777.247 0.496204 3.20481 0
M  V30 7912 H 777.032 2.27061 3.19665 0
M  V30 7913 H 778.522 1.55133 3.87716 0
M  V30 7914 N 778.959 -0.83999 1.33349 0
M  V30 7915 C 779.907 -1.97113 1.23488 0
M  V30 7916 C 780.901 -1.68849 0.136503 0
M  V30 7917 O 782.107 -1.77476 0.300389 0
M  V30 7918 H 778.482 -0.647049 0.383185 0
M  V30 7919 H 780.453 -2.02554 2.19122 0
M  V30 7920 C 779.202 -3.33314 0.989815 0
M  V30 7921 H 778.525 -3.556 1.82726 0
M  V30 7922 H 779.965 -4.12963 0.961123 0
M  V30 7923 C 778.424 -3.35496 -0.307272 0
M  V30 7924 O 778.954 -3.79589 -1.31434 0
M  V30 7925 N 777.16 -2.88669 -0.334414 0
M  V30 7926 H 776.707 -2.5298 0.485659 0
M  V30 7927 H 776.665 -2.90512 -1.20209 0
M  V30 7928 N 780.437 -1.16799 -1.0581 0
M  V30 7929 C 781.665 -0.97687 -1.82387 0
M  V30 7930 C 782.08 0.474917 -1.82729 0
M  V30 7931 O 781.437 1.3297 -1.25001 0
M  V30 7932 C 781.488 -1.50279 -3.28783 0
M  V30 7933 O 781.209 -2.89772 -3.28578 0
M  V30 7934 C 782.71 -1.35538 -4.22071 0
M  V30 7935 H 779.93 -0.345977 -0.574927 0
M  V30 7936 H 782.474 -1.54942 -1.33466 0
M  V30 7937 H 780.629 -0.972414 -3.74997 0
M  V30 7938 H 781.043 -3.13954 -4.20159 0
M  V30 7939 H 782.517 -1.7716 -5.22799 0
M  V30 7940 H 782.994 -0.301598 -4.38163 0
M  V30 7941 H 783.6 -1.87562 -3.81708 0
M  V30 7942 N 781.915 1.24427 -0.967243 0
M  V30 7943 C 783.192 1.87831 -0.545776 0
M  V30 7944 C 783.572 1.87126 0.977099 0
M  V30 7945 O 782.92 1.34357 1.84826 0
M  V30 7946 C 783.13 3.29967 -1.13679 0
M  V30 7947 C 784.478 4.06654 -1.22139 0
M  V30 7948 O 785.502 3.39136 -1.08926 0
M  V30 7949 O 784.361 5.27455 -1.43017 0
M  V30 7950 H 781.455 0.806745 -0.181912 0
M  V30 7951 H 784.001 1.32403 -1.06148 0
M  V30 7952 H 782.773 3.24977 -2.17958 0
M  V30 7953 H 782.396 3.92969 -0.605093 0
M  V30 7954 N 783.393 0.737304 1.3929 0
M  V30 7955 C 784.641 0.285691 2.00071 0
M  V30 7956 C 784.962 -1.13169 1.58801 0
M  V30 7957 O 784.232 -1.77104 0.837308 0
M  V30 7958 H 782.812 0.102638 0.739915 0
M  V30 7959 H 785.474 0.947775 1.70303 0
M  V30 7960 H 784.57 0.335906 3.10287 0
M  V30 7961 N 784.871 -1.49948 0.485112 0
M  V30 7962 C 786.282 -1.8667 0.0334041 0
M  V30 7963 C 786.633 -1.3988 -1.37579 0
M  V30 7964 O 785.758 -0.769788 -2.02245 0
M  V30 7965 C 786.353 -3.38757 0.0538426 0
M  V30 7966 C 784.912 -3.74839 -0.342453 0
M  V30 7967 C 784.059 -2.73894 0.433281 0
M  V30 7968 H 787.01 -1.42492 0.698699 0
M  V30 7969 H 787.031 -3.73132 -0.745146 0
M  V30 7970 H 786.543 -3.72782 1.07959 0
M  V30 7971 H 784.644 -3.46419 -1.37203 0
M  V30 7972 H 784.757 -4.79088 -0.0340503 0
M  V30 7973 H 783.121 -2.54441 -0.114849 0
M  V30 7974 H 783.904 -3.10763 1.45881 0
M  V30 7975 N 786.349 -0.21828 -1.56081 0
M  V30 7976 C 787.577 0.419258 -2.02608 0
M  V30 7977 C 787.992 1.53578 -1.09814 0
M  V30 7978 O 787.349 1.82185 -0.107149 0
M  V30 7979 C 787.4 0.953955 -3.48686 0
M  V30 7980 O 787.121 -0.11805 -4.37941 0
M  V30 7981 C 788.622 1.66506 -4.10841 0
M  V30 7982 H 785.842 0.10296 -0.663054 0
M  V30 7983 H 788.386 -0.333776 -2.01758 0
M  V30 7984 H 786.541 1.65727 -3.50162 0
M  V30 7985 H 786.955 0.283359 -5.23734 0
M  V30 7986 H 788.429 1.99123 -5.14834 0
M  V30 7987 H 788.906 2.57705 -3.55647 0
M  V30 7988 H 789.512 1.00703 -4.13206 0
M  V30 7989 N 787.827 1.57504 0.0551401 0
M  V30 7990 C 788.757 2.07864 1.06372 0
M  V30 7991 C 789.738 0.975565 1.39344 0
M  V30 7992 O 790.923 1.24929 1.48682 0
M  V30 7993 C 788.053 2.53643 2.3724 0
M  V30 7994 C 787.007 3.67978 2.18578 0
M  V30 7995 C 786.333 3.9987 3.54976 0
M  V30 7996 C 787.633 4.97405 1.59329 0
M  V30 7997 H 789.327 2.92379 0.644595 0
M  V30 7998 H 786.873 1.40654 0.308619 0
M  V30 7999 H 788.826 2.8749 3.08103 0
M  V30 8000 H 787.55 1.66177 2.81163 0
M  V30 8001 H 786.209 3.3444 1.50152 0
M  V30 8002 H 785.857 3.0951 3.965 0
M  V30 8003 H 785.557 4.76867 3.43324 0
M  V30 8004 H 787.081 4.36228 4.27244 0
M  V30 8005 H 788.495 5.29375 2.20078 0
M  V30 8006 H 786.892 5.78837 1.58327 0
M  V30 8007 H 787.962 4.81697 0.55638 0
M  V30 8008 N 789.305 -0.326896 1.54172 0
M  V30 8009 C 790.554 -1.06274 1.71431 0
M  V30 8010 C 790.867 -1.89282 0.493123 0
M  V30 8011 O 792.073 -2.65933 0.54699 0
M  V30 8012 C 790.529 -1.93892 3.03206 0
M  V30 8013 C 790.137 -1.16011 4.32719 0
M  V30 8014 C 791.881 -2.67232 3.29829 0
M  V30 8015 C 789.788 -2.02755 5.55558 0
M  V30 8016 H 788.718 -0.400475 0.638855 0
M  V30 8017 H 791.369 -0.321184 1.80667 0
M  V30 8018 H 789.751 -2.71933 2.87869 0
M  V30 8019 H 790.925 -0.427643 4.58811 0
M  V30 8020 H 789.24 -0.54367 4.12836 0
M  V30 8021 H 791.837 -3.32434 4.18798 0
M  V30 8022 H 792.18 -3.34692 2.47562 0
M  V30 8023 H 792.713 -1.96255 3.46018 0
M  V30 8024 H 789.452 -1.3981 6.40417 0
M  V30 8025 H 788.972 -2.73745 5.33689 0
M  V30 8026 H 790.651 -2.61419 5.91835 0
M  V30 8027 N 790.784 -1.46188 -0.588786 0
M  V30 8028 C 791.694 -1.58865 -1.72624 0
M  V30 8029 C 792.71 -0.472348 -1.67466 0
M  V30 8030 O 793.886 -0.735638 -1.87484 0
M  V30 8031 C 790.951 -1.56989 -3.0912 0
M  V30 8032 C 790.012 -2.79804 -3.25589 0
M  V30 8033 C 789.245 -2.78009 -4.55573 0
M  V30 8034 O 789.468 -1.86406 -5.39082 0
M  V30 8035 O 788.402 -3.6947 -4.75159 0
M  V30 8036 H 792.228 -2.55047 -1.64878 0
M  V30 8037 H 789.813 -1.28912 -0.755115 0
M  V30 8038 H 791.695 -1.58618 -3.90408 0
M  V30 8039 H 790.37 -0.639648 -3.17317 0
M  V30 8040 H 789.277 -2.83732 -2.43818 0
M  V30 8041 H 790.61 -3.72017 -3.22279 0
M  V30 8042 N 792.262 0.832906 -1.33792 0
M  V30 8043 C 793.502 1.60217 -1.26925 0
M  V30 8044 C 793.866 1.91323 0.161146 0
M  V30 8045 O 795.067 2.66461 0.353864 0
M  V30 8046 C 793.338 2.87314 -2.12568 0
M  V30 8047 S 794.897 3.77939 -2.22952 0
M  V30 8048 H 791.715 0.549273 -0.451464 0
M  V30 8049 H 794.317 0.984648 -1.68893 0
M  V30 8050 H 793.021 2.62444 -3.15518 0
M  V30 8051 H 792.552 3.5407 -1.71459 0
M  V30 8052 H 794.567 4.76188 -1.39496 0
M  V30 8053 N 793.74 1.17359 1.05189 0
M  V30 8054 C 794.987 0.961987 1.78191 0
M  V30 8055 C 795.315 -0.509363 1.87712 0
M  V30 8056 O 794.57 -1.39425 1.37329 0
M  V30 8057 C 794.869 1.54821 3.22126 0
M  V30 8058 C 794.535 3.04378 3.32663 0
M  V30 8059 C 793.197 3.45201 3.35246 0
M  V30 8060 C 795.549 4.00387 3.33677 0
M  V30 8061 C 792.877 4.80629 3.36471 0
M  V30 8062 C 795.229 5.35715 3.36441 0
M  V30 8063 C 793.893 5.76002 3.37311 0
M  V30 8064 H 793.163 0.352016 0.652047 0
M  V30 8065 H 795.81 1.46249 1.23627 0
M  V30 8066 H 794.115 0.969432 3.79617 0
M  V30 8067 H 795.812 1.36004 3.77232 0
M  V30 8068 H 792.402 2.71836 3.31366 0
M  V30 8069 H 796.586 3.69906 3.30882 0
M  V30 8070 H 791.842 5.11155 3.35455 0
M  V30 8071 H 796.016 6.09886 3.36173 0
M  V30 8072 H 793.643 6.80919 3.38013 0
M  V30 8073 N 795.218 -1.23913 0.973828 0
M  V30 8074 C 796.467 -1.91455 0.63464 0
M  V30 8075 C 796.78 -1.76893 -0.834759 0
M  V30 8076 O 797.986 -2.3918 -1.28473 0
M  V30 8077 C 796.442 -3.43172 1.08447 0
M  V30 8078 C 796.05 -3.66409 2.57776 0
M  V30 8079 C 797.794 -4.1653 0.818721 0
M  V30 8080 C 795.701 -5.11728 2.9646 0
M  V30 8081 H 794.631 -0.716881 0.233661 0
M  V30 8082 H 797.282 -1.40457 1.18085 0
M  V30 8083 H 795.664 -3.93242 0.466524 0
M  V30 8084 H 796.838 -3.26913 3.24753 0
M  V30 8085 H 795.153 -3.06349 2.82027 0
M  V30 8086 H 797.75 -5.23603 1.08367 0
M  V30 8087 H 798.093 -4.15578 -0.245128 0
M  V30 8088 H 798.626 -3.72428 1.39793 0
M  V30 8089 H 795.365 -5.17806 4.01941 0
M  V30 8090 H 794.885 -5.52199 2.34172 0
M  V30 8091 H 796.564 -5.80009 2.86703 0
M  V30 8092 N 796.696 -0.74468 -1.38897 0
M  V30 8093 C 797.944 -0.296298 -1.99916 0
M  V30 8094 C 798.265 1.12325 -1.59399 0
M  V30 8095 O 797.535 1.76658 -0.846689 0
M  V30 8096 H 796.115 -0.106561 -0.73936 0
M  V30 8097 H 798.777 -0.956793 -1.69798 0
M  V30 8098 H 797.873 -0.352356 -3.10105 0
M  V30 8099 N 798.174 1.49689 -0.493057 0
M  V30 8100 C 799.59 1.58907 -0.148526 0
M  V30 8101 C 799.79 1.4991 1.34645 0
M  V30 8102 O 798.846 1.36893 2.12171 0
M  V30 8103 C 800.159 2.91996 -0.718265 0
M  V30 8104 C 801.707 3.05443 -0.683658 0
M  V30 8105 C 802.182 4.41138 -1.23132 0
M  V30 8106 N 803.673 4.47608 -1.19167 0
M  V30 8107 C 804.408 5.51038 -1.5857 0
M  V30 8108 N 803.904 6.61612 -2.05528 0
M  V30 8109 N 805.697 5.41706 -1.50036 0
M  V30 8110 H 797.848 1.5378 -1.46511 0
M  V30 8111 H 800.111 0.727996 -0.607228 0
M  V30 8112 H 799.817 3.04123 -1.7664 0
M  V30 8113 H 799.691 3.76798 -0.17419 0
M  V30 8114 H 802.078 2.92949 0.355626 0
M  V30 8115 H 802.159 2.22344 -1.26479 0
M  V30 8116 H 801.803 4.54382 -2.26935 0
M  V30 8117 H 801.733 5.22864 -0.626201 0
M  V30 8118 H 804.224 3.68274 -0.847524 0
M  V30 8119 H 804.537 7.36622 -2.33685 0
M  V30 8120 H 802.882 6.62674 -2.09497 0
M  V30 8121 H 806.073 4.54212 -1.13176 0
M  V30 8122 H 806.246 6.22188 -1.81068 0
M  V30 8123 N 799.652 0.226554 1.55963 0
M  V30 8124 C 800.562 -0.692725 2.24139 0
M  V30 8125 C 801.578 -1.20971 1.25068 0
M  V30 8126 O 802.754 -1.25027 1.57893 0
M  V30 8127 C 799.819 -1.88183 2.91184 0
M  V30 8128 C 798.88 -1.40633 4.05612 0
M  V30 8129 C 798.113 -2.53875 4.6945 0
M  V30 8130 O 798.336 -3.72129 4.32292 0
M  V30 8131 O 797.27 -2.24792 5.58348 0
M  V30 8132 H 801.096 -0.141921 3.03368 0
M  V30 8133 H 798.681 -0.0041049 1.49399 0
M  V30 8134 H 800.563 -2.57617 3.33484 0
M  V30 8135 H 799.238 -2.42064 2.14911 0
M  V30 8136 H 798.145 -0.67986 3.67871 0
M  V30 8137 H 799.478 -0.913838 4.83642 0
M  V30 8138 N 801.13 -1.57531 -0.0467866 0
M  V30 8139 C 802.407 -1.79568 -0.775536 0
M  V30 8140 C 802.787 -0.820322 -1.94509 0
M  V30 8141 O 802.135 0.14134 -2.28062 0
M  V30 8142 C 802.345 -3.26789 -1.22516 0
M  V30 8143 C 803.693 -3.91299 -1.64835 0
M  V30 8144 O 804.717 -3.30831 -1.3202 0
M  V30 8145 O 803.576 -4.97727 -2.25677 0
M  V30 8146 H 800.67 -0.737817 -0.373572 0
M  V30 8147 H 803.216 -1.69682 -0.0249302 0
M  V30 8148 H 801.988 -3.89357 -0.389446 0
M  V30 8149 H 801.611 -3.41496 -2.03633 0
M  V30 8150 N 802.608 0.318715 -1.54344 0
M  V30 8151 C 803.848 1.06425 -1.74508 0
M  V30 8152 C 804.212 1.85087 -0.510572 0
M  V30 8153 O 805.413 2.62253 -0.589647 0
M  V30 8154 C 803.684 1.96054 -2.98827 0
M  V30 8155 S 805.243 2.77493 -3.39916 0
M  V30 8156 H 802.061 0.35921 -0.613587 0
M  V30 8157 H 804.663 0.339679 -1.92526 0
M  V30 8158 H 803.367 1.37109 -3.8682 0
M  V30 8159 H 802.898 2.72908 -2.83346 0
M  V30 8160 H 804.913 3.98544 -2.95596 0
M  V30 8161 N 804.086 1.46499 0.581025 0
M  V30 8162 C 805.314 1.5547 1.36517 0
M  V30 8163 C 805.729 0.196407 1.87776 0
M  V30 8164 O 805.086 -0.806577 1.63709 0
M  V30 8165 C 805.137 2.56084 2.55154 0
M  V30 8166 O 804.858 3.86637 2.06018 0
M  V30 8167 C 806.359 2.75011 3.47683 0
M  V30 8168 H 803.579 0.525703 0.416986 0
M  V30 8169 H 806.123 1.9192 0.706177 0
M  V30 8170 H 804.278 2.22633 3.17039 0
M  V30 8171 H 804.692 4.41413 2.83292 0
M  V30 8172 H 806.166 3.49329 4.27403 0
M  V30 8173 H 806.643 1.81978 3.99726 0
M  V30 8174 H 807.249 3.09565 2.91632 0
M  V30 8175 N 805.565 -0.825799 1.34232 0
M  V30 8176 C 806.475 -1.9684 1.27638 0
M  V30 8177 C 807.491 -1.73018 0.184569 0
M  V30 8178 O 808.667 -1.97172 0.410525 0
M  V30 8179 C 805.732 -3.31084 1.02879 0
M  V30 8180 C 804.793 -3.67933 2.21188 0
M  V30 8181 C 804.026 -4.95772 1.976 0
M  V30 8182 O 804.249 -5.62721 0.93281 0
M  V30 8183 O 803.183 -5.30431 2.84477 0
M  V30 8184 H 807.009 -2.05346 2.23756 0
M  V30 8185 H 804.594 -0.960772 1.1441 0
M  V30 8186 H 806.476 -4.11492 0.908406 0
M  V30 8187 H 805.151 -3.23552 0.0979821 0
M  V30 8188 H 804.058 -2.87981 2.38784 0
M  V30 8189 H 805.391 -3.80147 3.12648 0
M  V30 8190 N 807.043 -1.17915 -1.04565 0
M  V30 8191 C 807.953 -0.916449 -2.15959 0
M  V30 8192 C 808.969 0.117655 -1.73602 0
M  V30 8193 O 810.145 -0.063089 -2.01301 0
M  V30 8194 C 807.21 -0.440262 -3.43893 0
M  V30 8195 C 806.271 -1.54172 -4.00661 0
M  V30 8196 C 805.504 -1.08816 -5.22489 0
M  V30 8197 O 805.727 0.0551547 -5.70373 0
M  V30 8198 O 804.661 -1.88383 -5.7166 0
M  V30 8199 H 808.487 -1.8484 -2.40972 0
M  V30 8200 H 806.072 -0.960552 -1.14428 0
M  V30 8201 H 807.954 -0.182537 -4.21004 0
M  V30 8202 H 806.629 0.46346 -3.20365 0
M  V30 8203 H 805.536 -1.85341 -3.24961 0
M  V30 8204 H 806.869 -2.42139 -4.2852 0
M  V30 8205 N 808.521 1.23394 -0.980386 0
M  V30 8206 C 809.451 2.2717 -0.540024 0
M  V30 8207 C 810.432 1.64659 0.426787 0
M  V30 8208 O 811.617 1.91543 0.320153 0
M  V30 8209 C 808.747 3.46939 0.15836 0
M  V30 8210 C 807.701 4.21802 -0.725732 0
M  V30 8211 C 807.027 5.34597 0.104866 0
M  V30 8212 C 808.327 4.81802 -2.01654 0
M  V30 8213 H 810.021 2.64257 -1.40743 0
M  V30 8214 H 807.567 1.2703 -0.678193 0
M  V30 8215 H 809.52 4.18683 0.477737 0
M  V30 8216 H 808.244 3.08912 1.06022 0
M  V30 8217 H 806.903 3.51875 -1.02857 0
M  V30 8218 H 806.551 4.92812 1.00726 0
M  V30 8219 H 806.251 5.85607 -0.483557 0
M  V30 8220 H 807.775 6.09163 0.418624 0
M  V30 8221 H 809.189 5.45554 -1.76193 0
M  V30 8222 H 807.586 5.43098 -2.55273 0
M  V30 8223 H 808.656 4.02549 -2.70338 0
M  V30 8224 N 809.999 0.752036 1.385 0
M  V30 8225 C 811.245 0.307958 2.00448 0
M  V30 8226 C 811.578 -1.10702 1.59558 0
M  V30 8227 O 810.853 -1.75788 0.832391 0
M  V30 8228 C 811.136 0.429092 3.57534 0
M  V30 8229 C 810.989 1.88507 4.08393 0
M  V30 8230 C 812.308 -0.178442 4.39738 0
M  V30 8231 H 809.427 0.113373 0.728228 0
M  V30 8232 H 812.069 0.951389 1.64465 0
M  V30 8233 H 810.219 -0.118695 3.88319 0
M  V30 8234 H 811.891 2.49104 3.88259 0
M  V30 8235 H 810.134 2.40066 3.61318 0
M  V30 8236 H 810.805 1.92099 5.17496 0
M  V30 8237 H 813.281 0.28872 4.15097 0
M  V30 8238 H 812.157 -0.0634349 5.48863 0
M  V30 8239 H 812.418 -1.26655 4.23569 0
M  V30 8240 N 811.477 -1.49425 0.500989 0
M  V30 8241 C 812.424 -2.29126 -0.277443 0
M  V30 8242 C 813.394 -1.35522 -0.960363 0
M  V30 8243 O 814.579 -1.64479 -0.967027 0
M  V30 8244 C 811.719 -3.18193 -1.33593 0
M  V30 8245 C 810.832 -4.26854 -0.664791 0
M  V30 8246 C 809.967 -5.03137 -1.70372 0
M  V30 8247 C 809.006 -6.03635 -1.01445 0
M  V30 8248 N 808.143 -6.73083 -1.99758 0
M  V30 8249 H 812.983 -2.95187 0.408458 0
M  V30 8250 H 810.52 -1.45546 0.213275 0
M  V30 8251 H 812.478 -3.68207 -1.96161 0
M  V30 8252 H 811.108 -2.54116 -1.9906 0
M  V30 8253 H 810.16 -3.80328 0.0741708 0
M  V30 8254 H 811.472 -4.9865 -0.122197 0
M  V30 8255 H 810.626 -5.5702 -2.40445 0
M  V30 8256 H 809.365 -4.31114 -2.28017 0
M  V30 8257 H 808.37 -5.48984 -0.299496 0
M  V30 8258 H 809.595 -6.77644 -0.444497 0
M  V30 8259 H 807.541 -6.03832 -2.56365 0
M  V30 8260 H 807.458 -7.40855 -1.50565 0
M  V30 8261 H 808.726 -7.3157 -2.69119 0
M  V30 8262 N 812.955 -0.234822 -1.55841 0
M  V30 8263 C 814.201 0.387023 -1.99684 0
M  V30 8264 C 814.556 1.56439 -1.12003 0
M  V30 8265 O 813.849 1.90818 -0.172879 0
M  V30 8266 C 814.043 0.858032 -3.46947 0
M  V30 8267 C 813.872 -0.272152 -4.48876 0
M  V30 8268 C 812.642 -0.742896 -4.99809 0
M  V30 8269 C 814.84 -1.09501 -5.02508 0
M  V30 8270 N 812.822 -1.84675 -5.85464 0
M  V30 8271 C 814.193 -2.04748 -5.85217 0
M  V30 8272 C 816.248 -1.13295 -4.84839 0
M  V30 8273 C 814.951 -3.03483 -6.52143 0
M  V30 8274 C 816.977 -2.10854 -5.52535 0
M  V30 8275 C 816.339 -3.04838 -6.35022 0
M  V30 8276 H 812.438 0.107918 -0.774518 0
M  V30 8277 H 815.022 -0.349635 -1.91535 0
M  V30 8278 H 813.193 1.56401 -3.55518 0
M  V30 8279 H 814.925 1.45381 -3.77686 0
M  V30 8280 H 811.68 -0.32915 -4.72455 0
M  V30 8281 H 812.104 -2.40108 -6.32991 0
M  V30 8282 H 816.746 -0.420226 -4.20706 0
M  V30 8283 H 814.464 -3.7571 -7.15449 0
M  V30 8284 H 818.05 -2.1448 -5.40823 0
M  V30 8285 H 816.93 -3.79097 -6.8648 0
M  V30 8286 N 814.433 1.57553 0.0384317 0
M  V30 8287 C 815.681 1.88468 0.729672 0
M  V30 8288 C 816.002 0.831302 1.76393 0
M  V30 8289 O 815.272 -0.13622 1.95426 0
M  V30 8290 H 813.852 0.695529 0.272485 0
M  V30 8291 H 816.514 1.94899 0.0066032 0
M  V30 8292 H 815.61 2.8705 1.22511 0
M  V30 8293 N 815.911 -0.310526 1.54511 0
M  V30 8294 C 816.858 -1.38264 1.84802 0
M  V30 8295 C 817.828 -1.50808 0.696141 0
M  V30 8296 O 819.013 -1.6582 0.943846 0
M  V30 8297 C 816.153 -2.74422 2.09252 0
M  V30 8298 C 815.266 -2.70405 3.36906 0
M  V30 8299 C 814.401 -3.98495 3.51248 0
M  V30 8300 C 813.44 -3.88836 4.72729 0
M  V30 8301 N 812.577 -5.08683 4.83928 0
M  V30 8302 H 817.417 -1.11732 2.76261 0
M  V30 8303 H 814.954 -0.540609 1.36806 0
M  V30 8304 H 816.912 -3.53593 2.21422 0
M  V30 8305 H 815.542 -2.99235 1.2107 0
M  V30 8306 H 814.594 -1.83151 3.33406 0
M  V30 8307 H 815.906 -2.59155 4.26193 0
M  V30 8308 H 815.06 -4.861 3.63031 0
M  V30 8309 H 813.799 -4.12567 2.60077 0
M  V30 8310 H 812.804 -2.99615 4.60989 0
M  V30 8311 H 814.029 -3.76318 5.65298 0
M  V30 8312 H 811.975 -5.23236 3.95677 0
M  V30 8313 H 811.892 -4.99819 5.67201 0
M  V30 8314 H 813.16 -5.97966 5.00057 0
M  V30 8315 N 817.389 -1.46805 -0.573248 0
M  V30 8316 C 818.805 -1.31969 -0.897577 0
M  V30 8317 C 819.005 -0.298171 -1.99282 0
M  V30 8318 O 818.061 0.295953 -2.5076 0
M  V30 8319 C 819.374 -2.70859 -1.30598 0
M  V30 8320 C 820.922 -2.79022 -1.4183 0
M  V30 8321 C 821.397 -4.18516 -1.86033 0
M  V30 8322 N 822.888 -4.2098 -1.9321 0
M  V30 8323 C 823.623 -5.25814 -2.28707 0
M  V30 8324 N 823.119 -6.40968 -2.6293 0
M  V30 8325 N 824.912 -5.13184 -2.29343 0
M  V30 8326 H 817.063 -2.11869 0.150094 0
M  V30 8327 H 819.326 -0.947989 0.00447895 0
M  V30 8328 H 819.032 -3.46965 -0.575161 0
M  V30 8329 H 818.906 -3.01585 -2.26554 0
M  V30 8330 H 821.293 -2.03198 -2.13996 0
M  V30 8331 H 821.374 -2.51969 -0.441024 0
M  V30 8332 H 821.018 -4.94839 -1.14442 0
M  V30 8333 H 820.948 -4.42982 -2.84735 0
M  V30 8334 H 823.439 -3.37898 -1.69214 0
M  V30 8335 H 823.752 -7.16729 -2.88996 0
M  V30 8336 H 822.097 -6.44314 -2.60547 0
M  V30 8337 H 825.288 -4.22255 -2.02036 0
M  V30 8338 H 825.461 -5.94996 -2.56679 0
M  V30 8339 N 818.867 0.818669 -1.34668 0
M  V30 8340 C 820.113 1.57746 -1.27453 0
M  V30 8341 C 820.446 1.93588 0.154077 0
M  V30 8342 O 819.721 1.60371 1.10051 0
M  V30 8343 C 820.004 2.87414 -2.16945 0
M  V30 8344 C 819.857 2.58125 -3.68363 0
M  V30 8345 C 821.176 3.89021 -2.05792 0
M  V30 8346 H 818.295 0.572339 -0.464324 0
M  V30 8347 H 820.937 0.942784 -1.64959 0
M  V30 8348 H 819.087 3.41576 -1.85089 0
M  V30 8349 H 820.759 2.10239 -4.10606 0
M  V30 8350 H 819.002 1.91503 -3.89242 0
M  V30 8351 H 819.673 3.5061 -4.26353 0
M  V30 8352 H 822.149 3.44224 -2.33771 0
M  V30 8353 H 821.025 4.77548 -2.70628 0
M  V30 8354 H 821.286 4.29786 -1.03618 0
M  V30 8355 N 820.346 1.18468 1.03938 0
M  V30 8356 C 821.309 0.914944 2.10146 0
M  V30 8357 C 822.309 -0.10022 1.60487 0
M  V30 8358 O 823.499 0.133365 1.73689 0
M  V30 8359 C 820.631 0.372993 3.38853 0
M  V30 8360 H 821.824 1.85677 2.35508 0
M  V30 8361 H 819.377 0.996876 1.20383 0
M  V30 8362 H 820.112 -0.57538 3.19155 0
M  V30 8363 H 819.897 1.1048 3.76213 0
M  V30 8364 H 821.387 0.203014 4.17106 0
M  V30 8365 N 821.824 -1.22873 0.986916 0
M  V30 8366 C 822.787 -2.2281 0.537442 0
M  V30 8367 C 823.787 -1.56331 -0.37646 0
M  V30 8368 O 824.977 -1.73376 -0.169247 0
M  V30 8369 C 822.109 -3.40195 -0.219082 0
M  V30 8370 H 823.302 -2.64089 1.42116 0
M  V30 8371 H 820.855 -1.35819 0.773488 0
M  V30 8372 H 821.59 -3.04381 -1.11905 0
M  V30 8373 H 821.375 -3.89657 0.437026 0
M  V30 8374 H 822.865 -4.14326 -0.521926 0
M  V30 8375 N 823.302 -0.75937 -1.38099 0
M  V30 8376 C 824.265 -0.14372 -2.28749 0
M  V30 8377 C 825.265 0.641338 -1.47457 0
M  V30 8378 O 826.455 0.466751 -1.67831 0
M  V30 8379 C 823.587 0.804545 -3.3127 0
M  V30 8380 H 824.78 -0.942663 -2.847 0
M  V30 8381 H 822.333 -0.526757 -1.47156 0
M  V30 8382 H 823.068 1.62895 -2.80421 0
M  V30 8383 H 822.853 0.243939 -3.9134 0
M  V30 8384 H 824.343 1.23111 -3.99041 0
M  V30 8385 N 824.78 1.49157 -0.508906 0
M  V30 8386 C 825.728 2.30922 0.278906 0
M  V30 8387 C 826.722 1.39889 0.955382 0
M  V30 8388 O 827.928 1.56901 0.882169 0
M  V30 8389 H 824.303 0.744087 0.108805 0
M  V30 8390 H 826.274 2.95277 -0.430583 0
M  V30 8391 C 825.023 3.21432 1.32576 0
M  V30 8392 H 824.346 3.91413 0.814634 0
M  V30 8393 H 825.786 3.81568 1.84882 0
M  V30 8394 C 824.245 2.41583 2.34817 0
M  V30 8395 O 824.775 2.1256 3.40854 0
M  V30 8396 N 822.981 2.03462 2.07489 0
M  V30 8397 H 822.528 2.27265 1.21278 0
M  V30 8398 H 822.486 1.50345 2.76123 0
M  V30 8399 N 826.258 0.243083 1.55714 0
M  V30 8400 C 827.483 -0.389944 2.03701 0
M  V30 8401 C 827.908 -1.51025 1.12129 0
M  V30 8402 O 827.266 -1.80944 0.11352 0
M  V30 8403 C 827.314 -0.878649 3.49731 0
M  V30 8404 O 826.418 -1.98851 3.61292 0
M  V30 8405 H 825.759 -0.0855115 0.658471 0
M  V30 8406 H 828.289 0.368023 2.01263 0
M  V30 8407 H 828.299 -1.18287 3.90477 0
M  V30 8408 H 826.974 -0.0588107 4.15858 0
M  V30 8409 H 825.551 -1.68928 3.32442 0
M  V30 8410 N 827.736 -1.57571 -0.0300757 0
M  V30 8411 C 829.152 -1.54869 -0.385703 0
M  V30 8412 C 829.352 -0.969068 -1.76667 0
M  V30 8413 O 828.408 -0.589676 -2.45518 0
M  V30 8414 C 829.721 -2.99313 -0.288482 0
M  V30 8415 C 831.269 -3.10857 -0.365638 0
M  V30 8416 C 831.744 -4.5703 -0.297878 0
M  V30 8417 N 833.235 -4.61825 -0.356703 0
M  V30 8418 C 833.97 -5.72466 -0.327146 0
M  V30 8419 N 833.466 -6.92349 -0.249941 0
M  V30 8420 N 835.259 -5.60836 -0.376801 0
M  V30 8421 H 827.41 -1.936 0.87367 0
M  V30 8422 H 829.673 -0.887924 0.332106 0
M  V30 8423 H 829.379 -3.45443 0.66047 0
M  V30 8424 H 829.253 -3.61332 -1.08253 0
M  V30 8425 H 831.64 -2.64676 -1.30502 0
M  V30 8426 H 831.721 -2.51671 0.457744 0
M  V30 8427 H 831.365 -5.03879 0.637835 0
M  V30 8428 H 831.295 -5.14127 -1.13935 0
M  V30 8429 H 833.786 -3.75571 -0.418926 0
M  V30 8430 H 834.099 -7.7245 -0.23246 0
M  V30 8431 H 832.444 -6.94664 -0.216004 0
M  V30 8432 H 835.635 -4.66073 -0.435101 0
M  V30 8433 H 835.808 -6.47052 -0.350298 0
M  V30 8434 N 829.214 0.302327 -1.54673 0
M  V30 8435 C 830.161 1.37282 -1.85532 0
M  V30 8436 C 831.131 1.50437 -0.704129 0
M  V30 8437 O 832.316 1.65317 -0.952627 0
M  V30 8438 C 829.456 2.73309 -2.10704 0
M  V30 8439 C 828.569 2.68614 -3.38335 0
M  V30 8440 C 827.704 3.96626 -3.53357 0
M  V30 8441 C 826.743 3.86324 -4.74784 0
M  V30 8442 N 825.88 5.06109 -4.86619 0
M  V30 8443 H 830.72 1.10265 -2.76849 0
M  V30 8444 H 828.257 0.533346 -1.37091 0
M  V30 8445 H 830.215 3.52414 -2.23294 0
M  V30 8446 H 828.845 2.98589 -1.22656 0
M  V30 8447 H 827.897 1.81381 -3.34373 0
M  V30 8448 H 829.209 2.56891 -4.27561 0
M  V30 8449 H 828.363 4.84168 -3.65604 0
M  V30 8450 H 827.102 4.11182 -2.62261 0
M  V30 8451 H 826.107 2.97166 -4.62572 0
M  V30 8452 H 827.332 3.73315 -5.67286 0
M  V30 8453 H 825.278 5.2113 -3.98446 0
M  V30 8454 H 825.195 4.96804 -5.69844 0
M  V30 8455 H 826.463 5.95306 -5.03221 0
M  V30 8456 N 830.692 1.47107 0.565454 0
M  V30 8457 C 832.103 1.47266 1.1476 0
M  V30 8458 C 832.454 0.222841 1.9493 0
M  V30 8459 O 831.579 -0.672862 2.05673 0
M  V30 8460 C 832.174 2.66822 2.08785 0
M  V30 8461 C 830.733 2.69967 2.62288 0
M  V30 8462 C 829.88 2.40236 1.38499 0
M  V30 8463 H 832.831 1.54736 0.352479 0
M  V30 8464 H 832.852 2.43323 2.92531 0
M  V30 8465 H 832.364 3.5777 1.50408 0
M  V30 8466 H 830.465 1.83137 3.24487 0
M  V30 8467 H 830.578 3.70426 3.03845 0
M  V30 8468 H 828.942 1.90648 1.68895 0
M  V30 8469 H 829.725 3.33381 0.819274 0
M  V30 8470 N 832.17 -0.811516 1.35101 0
M  V30 8471 C 833.416 -1.57068 1.28287 0
M  V30 8472 C 833.749 -1.93667 -0.143808 0
M  V30 8473 O 833.024 -1.60953 -1.09199 0
M  V30 8474 C 833.307 -2.86259 2.18466 0
M  V30 8475 C 833.16 -2.56168 3.69727 0
M  V30 8476 C 834.479 -3.87924 2.07852 0
M  V30 8477 H 831.598 -0.569869 0.467353 0
M  V30 8478 H 834.24 -0.934023 1.65457 0
M  V30 8479 H 832.39 -3.4059 1.86898 0
M  V30 8480 H 834.062 -2.08059 4.11715 0
M  V30 8481 H 832.305 -1.89436 3.90252 0
M  V30 8482 H 832.976 -3.48344 4.28206 0
M  V30 8483 H 835.452 -3.4298 2.35593 0
M  V30 8484 H 834.328 -4.76106 2.73157 0
M  V30 8485 H 834.589 -4.2923 1.05896 0
M  V30 8486 N 833.648 -1.19017 -1.03309 0
M  V30 8487 C 834.596 -0.920627 -2.13605 0
M  V30 8488 C 835.59 0.121969 -1.6896 0
M  V30 8489 O 836.796 -0.0268854 -1.7998 0
M  V30 8490 H 833.171 -0.280284 -0.697814 0
M  V30 8491 H 835.142 -1.85755 -2.33533 0
M  V30 8492 C 833.891 -0.471198 -3.44492 0
M  V30 8493 H 833.214 -1.26499 -3.7926 0
M  V30 8494 H 834.654 -0.321663 -4.22778 0
M  V30 8495 C 833.113 0.81411 -3.26916 0
M  V30 8496 O 833.643 1.87654 -3.55175 0
M  V30 8497 N 831.849 0.769695 -2.80221 0
M  V30 8498 H 831.396 -0.0951278 -2.57424 0
M  V30 8499 H 831.354 1.63008 -2.68842 0
M  V30 8500 N 835.127 1.22348 -0.993418 0
M  V30 8501 C 836.074 2.24294 -0.544118 0
M  V30 8502 C 837.044 1.60602 0.42381 0
M  V30 8503 O 838.229 1.87952 0.328453 0
M  V30 8504 C 835.369 3.44837 0.134578 0
M  V30 8505 C 834.482 4.23043 -0.875151 0
M  V30 8506 C 833.617 5.30928 -0.169919 0
M  V30 8507 C 832.656 6.00853 -1.16798 0
M  V30 8508 N 831.793 7.00381 -0.491021 0
M  V30 8509 H 836.633 2.6209 -1.4182 0
M  V30 8510 H 834.17 1.2881 -0.710384 0
M  V30 8511 H 836.128 4.13625 0.544998 0
M  V30 8512 H 834.758 3.07804 0.972446 0
M  V30 8513 H 833.81 3.53546 -1.40389 0
M  V30 8514 H 835.122 4.71237 -1.63516 0
M  V30 8515 H 834.276 6.05972 0.297205 0
M  V30 8516 H 833.015 4.8371 0.622586 0
M  V30 8517 H 832.02 5.24591 -1.64573 0
M  V30 8518 H 833.245 6.50159 -1.96137 0
M  V30 8519 H 831.191 6.55393 0.282037 0
M  V30 8520 H 831.108 7.46584 -1.18947 0
M  V30 8521 H 832.376 7.79486 -0.0467169 0
M  V30 8522 N 836.605 0.766683 1.37694 0
M  V30 8523 C 837.535 0.163432 2.32927 0
M  V30 8524 C 838.516 -0.688861 1.55527 0
M  V30 8525 O 839.701 -0.627363 1.83787 0
M  V30 8526 C 836.831 -0.720416 3.39746 0
M  V30 8527 C 835.785 0.0301718 4.27989 0
M  V30 8528 C 835.111 -0.972788 5.25776 0
M  V30 8529 C 836.411 1.20623 5.0818 0
M  V30 8530 H 838.105 0.958988 2.83626 0
M  V30 8531 H 835.651 0.462601 1.36367 0
M  V30 8532 H 837.604 -1.15221 4.05342 0
M  V30 8533 H 836.328 -1.54844 2.8756 0
M  V30 8534 H 834.987 0.442685 3.63917 0
M  V30 8535 H 834.635 -1.79522 4.69873 0
M  V30 8536 H 834.335 -0.475145 5.85676 0
M  V30 8537 H 835.859 -1.40362 5.94248 0
M  V30 8538 H 837.273 0.851341 5.66944 0
M  V30 8539 H 835.67 1.63561 5.7738 0
M  V30 8540 H 836.74 2.01281 4.41151 0
M  V30 8541 N 838.083 -1.48885 0.516809 0
M  V30 8542 C 839.013 -2.32241 -0.242157 0
M  V30 8543 C 839.994 -1.41258 -0.947633 0
M  V30 8544 O 841.179 -1.70156 -0.935973 0
M  V30 8545 C 838.309 -3.22151 -1.29754 0
M  V30 8546 C 837.263 -4.22053 -0.710995 0
M  V30 8547 C 836.589 -5.01007 -1.86806 0
M  V30 8548 C 837.889 -5.21388 0.30853 0
M  V30 8549 H 839.583 -2.95943 0.453651 0
M  V30 8550 H 837.129 -1.42316 0.219612 0
M  V30 8551 H 839.082 -3.79284 -1.83634 0
M  V30 8552 H 837.806 -2.56423 -2.02274 0
M  V30 8553 H 836.465 -3.66087 -0.193819 0
M  V30 8554 H 836.113 -4.31713 -2.58133 0
M  V30 8555 H 835.813 -5.68615 -1.48159 0
M  V30 8556 H 837.337 -5.60989 -2.4109 0
M  V30 8557 H 838.751 -5.73122 -0.142703 0
M  V30 8558 H 837.148 -5.96975 0.611673 0
M  V30 8559 H 838.218 -4.69329 1.21894 0
M  V30 8560 O 839.6 -0.393142 -1.56642 0
M  V30 8561 H 840.291 0.151122 -1.9311 0
M  V30 END ATOM
M  V30 BEGIN BOND
M  V30 END BOND
M  V30 END CTAB
M  END
$$$$
