drugbank_target|P06748 Nucleophosmin (DB11638)
 OpenBabel12092121093D

  0  0  0     0  0            999 V3000
M  V30 BEGIN CTAB
M  V30 COUNTS 4486 4522 0 0 0
M  V30 BEGIN ATOM
M  V30 1 H -0.908 1.98254 -0.117106 0
M  V30 2 N 0 1.576 0 0
M  V30 3 C 0.933 2.03868 1.02534 0
M  V30 4 C 1.911 0.928543 1.3348 0
M  V30 5 O 3.095 1.19667 1.45644 0
M  V30 6 C 0.222 2.43627 2.35294 0
M  V30 7 C -0.732 3.65373 2.2001 0
M  V30 8 S 0.101 5.13292 1.52614 0
M  V30 9 C 1.257 5.56322 2.86805 0
M  V30 10 H 1.49 2.90518 0.631377 0
M  V30 11 H -0.977 1.52953 0.210867 0
M  V30 12 H 0.981 2.67203 3.11629 0
M  V30 13 H -0.358 1.57376 2.7183 0
M  V30 14 H -1.165 3.90944 3.18086 0
M  V30 15 H -1.563 3.418 1.51819 0
M  V30 16 H 0.729 5.58782 3.83104 0
M  V30 17 H 1.672 6.56266 2.65933 0
M  V30 18 H 2.08 4.83886 2.90714 0
M  V30 19 N 1.4781 -0.272755 1.55222 0
M  V30 20 C 2.3881 -1.35918 1.91216 0
M  V30 21 C 3.4041 -1.54026 0.809436 0
M  V30 22 O 4.5801 -1.68148 1.10852 0
M  V30 23 C 1.6451 -2.69834 2.17693 0
M  V30 24 C 0.7061 -2.6047 3.41253 0
M  V30 25 C -0.0609 -3.88 3.66458 0
M  V30 26 O 0.1621 -4.88693 2.94169 0
M  V30 27 O -0.9039 -3.88189 4.59992 0
M  V30 28 H 2.9221 -1.0839 2.83699 0
M  V30 29 H 0.5071 -0.471301 1.41771 0
M  V30 30 H 2.3891 -3.49017 2.36147 0
M  V30 31 H 1.0641 -2.97148 1.28392 0
M  V30 32 H -0.0289 -1.79663 3.28134 0
M  V30 33 H 1.3041 -2.38106 4.30774 0
M  V30 34 N 2.9562 -1.48159 -0.537278 0
M  V30 35 C 4.2332 -1.46291 -1.29839 0
M  V30 36 C 4.6132 -0.170613 -2.10409 0
M  V30 37 O 3.9612 0.847746 -2.12192 0
M  V30 38 C 4.1712 -2.72055 -2.18603 0
M  V30 39 C 5.5192 -3.20087 -2.7898 0
M  V30 40 O 6.5432 -2.72921 -2.28894 0
M  V30 41 O 5.4022 -4.02138 -3.70064 0
M  V30 42 H 2.4962 -0.583906 -0.585647 0
M  V30 43 H 5.0422 -1.60384 -0.554534 0
M  V30 44 H 3.8142 -3.57628 -1.58801 0
M  V30 45 H 3.4372 -2.60646 -3.00249 0
M  V30 46 N 4.4343 0.785586 -1.36625 0
M  V30 47 C 5.6593 1.57963 -1.34397 0
M  V30 48 C 6.0843 1.87964 0.071526 0
M  V30 49 O 5.4423 1.48182 1.0446 0
M  V30 50 C 5.4903 2.87511 -2.17646 0
M  V30 51 O 4.5943 3.81281 -1.57158 0
M  V30 52 H 3.9353 0.479014 -0.459828 0
M  V30 53 H 6.4653 0.973411 -1.79961 0
M  V30 54 H 6.4753 3.36745 -2.30362 0
M  V30 55 H 5.1503 2.65002 -3.20541 0
M  V30 56 H 3.7273 3.39885 -1.53403 0
M  V30 57 N 5.9124 1.20967 1.01018 0
M  V30 58 C 6.8454 0.907578 2.09376 0
M  V30 59 C 7.8234 -0.142868 1.61971 0
M  V30 60 O 9.0074 -0.0150391 1.88494 0
M  V30 61 C 6.1344 0.361791 3.36762 0
M  V30 62 C 5.1804 1.39423 4.03068 0
M  V30 63 S 6.0134 2.96159 4.4615 0
M  V30 64 C 7.1694 2.43173 5.7673 0
M  V30 65 H 7.4024 1.82519 2.34678 0
M  V30 66 H 4.9354 1.03884 1.14225 0
M  V30 67 H 6.8934 0.0534523 4.10465 0
M  V30 68 H 5.5544 -0.53443 3.0952 0
M  V30 69 H 4.7474 0.961853 4.94737 0
M  V30 70 H 4.3494 1.65038 3.35617 0
M  V30 71 H 6.6414 1.83335 6.52223 0
M  V30 72 H 7.5844 3.33264 6.24773 0
M  V30 73 H 7.9924 1.85069 5.33301 0
M  V30 74 N 7.3905 -1.2043 1.01659 0
M  V30 75 C 8.6675 -1.8548 0.621004 0
M  V30 76 C 9.0475 -1.9091 -0.900919 0
M  V30 77 O 8.3955 -1.41694 -1.79263 0
M  V30 78 C 8.6055 -3.25119 1.2688 0
M  V30 79 C 9.9535 -4.01403 1.38423 0
M  V30 80 O 10.9775 -3.34473 1.22501 0
M  V30 81 O 9.8365 -5.21265 1.64151 0
M  V30 82 H 6.9305 -0.798761 0.214266 0
M  V30 83 H 9.4765 -1.28019 1.11396 0
M  V30 84 H 8.2485 -3.15932 2.30873 0
M  V30 85 H 7.8715 -3.90212 0.762917 0
M  V30 86 N 8.8686 -0.792821 -1.36206 0
M  V30 87 C 9.8016 -0.139422 -2.27774 0
M  V30 88 C 10.7796 0.68649 -1.47398 0
M  V30 89 O 11.9636 0.656738 -1.7669 0
M  V30 90 C 9.0906 0.807947 -3.28922 0
M  V30 91 C 8.1366 0.0633999 -4.26453 0
M  V30 92 S 8.9696 -1.26319 -5.20388 0
M  V30 93 C 10.1256 -0.31991 -6.25082 0
M  V30 94 H 10.3586 -0.915809 -2.82843 0
M  V30 95 H 7.8916 -0.587203 -1.42798 0
M  V30 96 H 9.8496 1.34908 -3.87699 0
M  V30 97 H 8.5106 1.55761 -2.72759 0
M  V30 98 H 7.7036 0.782386 -4.9789 0
M  V30 99 H 7.3056 -0.407352 -3.71775 0
M  V30 100 H 9.5976 0.499985 -6.75653 0
M  V30 101 H 10.5406 -1.00307 -7.00959 0
M  V30 102 H 10.9486 0.0782694 -5.64446 0
M  V30 103 N 10.3467 1.47872 -0.545128 0
M  V30 104 C 11.6237 1.9554 0.0485222 0
M  V30 105 C 12.0037 1.4876 1.49779 0
M  V30 106 O 11.3517 0.720925 2.16829 0
M  V30 107 C 11.5617 3.48898 -0.084417 0
M  V30 108 C 12.9097 4.24547 0.0671239 0
M  V30 109 O 13.9337 3.56198 -0.0113649 0
M  V30 110 O 12.7927 5.45999 0.233882 0
M  V30 111 H 9.8867 0.823957 0.0708773 0
M  V30 112 H 12.4327 1.58327 -0.610798 0
M  V30 113 H 11.2047 3.75714 -1.09337 0
M  V30 114 H 10.8277 3.92845 0.613066 0
M  V30 115 N 11.8248 0.280983 1.55075 0
M  V30 116 C 12.7578 -0.645439 2.18882 0
M  V30 117 C 13.7358 -1.14786 1.15165 0
M  V30 118 O 14.9198 -1.21975 1.43716 0
M  V30 119 C 12.0468 -1.88088 2.81674 0
M  V30 120 C 11.0928 -1.51343 3.98745 0
M  V30 121 S 11.9258 -0.586548 5.32278 0
M  V30 122 C 13.0818 -1.83024 5.98543 0
M  V30 123 H 13.3148 -0.1033 2.9712 0
M  V30 124 H 10.8478 0.0652099 1.54262 0
M  V30 125 H 12.8058 -2.58997 3.18482 0
M  V30 126 H 11.4668 -2.39417 2.03318 0
M  V30 127 H 10.6598 -2.43289 4.41392 0
M  V30 128 H 10.2618 -0.884477 3.63391 0
M  V30 129 H 12.5538 -2.77342 6.18133 0
M  V30 130 H 13.4968 -1.44668 6.93164 0
M  V30 131 H 13.9048 -1.99785 5.27964 0
M  V30 132 N 13.3029 -1.57598 0.00835791 0
M  V30 133 C 14.5279 -1.95617 -0.689103 0
M  V30 134 C 14.9529 -0.883753 -1.66046 0
M  V30 135 O 14.3109 0.157352 -1.80616 0
M  V30 136 C 14.3589 -3.32736 -1.38994 0
M  V30 137 O 13.4629 -3.27631 -2.50463 0
M  V30 138 H 12.8039 -0.638379 -0.182668 0
M  V30 139 H 15.3339 -2.045 0.064036 0
M  V30 140 H 15.3439 -3.68494 -1.75147 0
M  V30 141 H 14.0189 -4.1034 -0.677778 0
M  V30 142 H 12.5959 -3.03561 -2.16576 0
M  V30 143 N 14.781 0.264519 -1.55364 0
M  V30 144 C 16.192 0.834936 -1.6699 0
M  V30 145 C 16.543 1.86718 -0.602552 0
M  V30 146 O 15.668 2.14899 0.254425 0
M  V30 147 C 16.263 1.5212 -3.02729 0
M  V30 148 C 14.822 2.03954 -3.16354 0
M  V30 149 C 13.969 0.884498 -2.62815 0
M  V30 150 H 16.92 0.0406869 -1.58648 0
M  V30 151 H 16.941 2.38853 -2.96191 0
M  V30 152 H 16.453 0.769668 -3.80392 0
M  V30 153 H 14.554 2.82041 -2.43482 0
M  V30 154 H 14.667 2.24902 -4.23032 0
M  V30 155 H 13.031 1.2802 -2.20188 0
M  V30 156 H 13.814 0.14634 -3.42988 0
M  V30 157 N 16.2591 1.48442 0.529413 0
M  V30 158 C 17.1891 1.65902 1.64313 0
M  V30 159 C 18.1701 0.507897 1.6234 0
M  V30 160 O 19.3551 0.740503 1.79528 0
M  V30 161 C 16.4851 1.69911 3.02898 0
M  V30 162 C 15.4391 2.8453 3.19729 0
M  V30 163 C 14.7651 2.73629 4.59381 0
M  V30 164 C 16.0651 4.25821 3.02447 0
M  V30 165 H 17.7591 2.5914 1.49955 0
M  V30 166 H 15.3051 1.24709 0.719982 0
M  V30 167 H 17.2581 1.80715 3.80684 0
M  V30 168 H 15.9821 0.732524 3.18279 0
M  V30 169 H 14.6411 2.73283 2.44361 0
M  V30 170 H 14.2891 1.74938 4.71599 0
M  V30 171 H 13.9891 3.50541 4.71588 0
M  V30 172 H 15.5131 2.86401 5.39265 0
M  V30 173 H 16.9271 4.37898 3.70024 0
M  V30 174 H 15.3241 5.03735 3.26146 0
M  V30 175 H 16.3941 4.42244 1.98867 0
M  V30 176 N 17.7372 -0.778329 1.37039 0
M  V30 177 C 19.1532 -1.07796 1.17695 0
M  V30 178 C 19.3532 -2.01498 0.00860115 0
M  V30 179 O 18.4092 -2.43901 -0.653352 0
M  V30 180 C 19.7222 -1.68178 2.49272 0
M  V30 181 C 21.2702 -1.80467 2.55735 0
M  V30 182 C 21.7452 -2.44263 3.87427 0
M  V30 183 N 23.2362 -2.51721 3.88833 0
M  V30 184 C 23.9712 -3.01919 4.87476 0
M  V30 185 N 23.4672 -3.5234 5.96513 0
M  V30 186 N 25.2602 -3.00733 4.74885 0
M  V30 187 H 17.4112 -0.156032 2.11826 0
M  V30 188 H 19.6742 -0.131844 0.938787 0
M  V30 189 H 19.3802 -1.06796 3.35093 0
M  V30 190 H 19.2542 -2.67554 2.65885 0
M  V30 191 H 21.6412 -2.40984 1.70325 0
M  V30 192 H 21.7222 -0.798656 2.43013 0
M  V30 193 H 21.3662 -1.84388 4.73248 0
M  V30 194 H 21.2962 -3.45458 3.9745 0
M  V30 195 H 23.7872 -2.1603 3.10063 0
M  V30 196 H 24.1002 -3.89027 6.67741 0
M  V30 197 H 22.4452 -3.50462 6.00168 0
M  V30 198 H 25.6362 -2.60638 3.88826 0
M  V30 199 H 25.8092 -3.39545 5.51918 0
M  V30 200 N 19.2153 -1.21501 -1.00376 0
M  V30 201 C 20.6263 -1.03146 -1.55621 0
M  V30 202 C 20.9773 0.408375 -1.91903 0
M  V30 203 O 20.1023 1.29177 -1.73616 0
M  V30 204 C 20.6973 -1.86612 -2.82775 0
M  V30 205 C 19.2563 -1.72586 -3.34501 0
M  V30 206 C 18.4033 -1.83747 -2.07683 0
M  V30 207 H 21.3543 -1.35505 -0.826081 0
M  V30 208 H 21.3753 -1.3771 -3.54706 0
M  V30 209 H 20.8873 -2.91399 -2.56336 0
M  V30 210 H 18.9883 -0.704877 -3.65872 0
M  V30 211 H 19.1013 -2.54623 -4.05837 0
M  V30 212 H 17.4653 -1.27069 -2.20739 0
M  V30 213 H 18.2483 -2.90044 -1.83655 0
M  V30 214 N 20.6934 1.19889 -1.02296 0
M  V30 215 C 21.6254 2.22334 -0.556787 0
M  V30 216 C 22.6384 1.58674 0.364199 0
M  V30 217 O 23.8274 1.77768 0.161533 0
M  V30 218 C 20.9274 3.38257 0.208694 0
M  V30 219 C 20.1004 4.31504 -0.71577 0
M  V30 220 C 19.1594 5.262 0.00325597 0
M  V30 221 O 18.1854 5.65798 -0.621357 0
M  V30 222 N 19.3874 5.66303 1.27599 0
M  V30 223 H 22.1524 2.62957 -1.43784 0
M  V30 224 H 19.7134 1.34495 -0.901261 0
M  V30 225 H 21.7054 3.98616 0.699111 0
M  V30 226 H 20.2754 2.96472 0.991102 0
M  V30 227 H 19.4954 3.69016 -1.38638 0
M  V30 228 H 20.7834 4.9072 -1.34428 0
M  V30 229 H 20.1814 5.36155 1.80429 0
M  V30 230 H 18.7384 6.28942 1.71102 0
M  V30 231 N 22.1715 0.800033 1.35784 0
M  V30 232 C 23.1195 0.193851 2.31791 0
M  V30 233 C 24.1135 -0.652744 1.56319 0
M  V30 234 O 25.3195 -0.546641 1.71499 0
M  V30 235 H 21.6945 0.04392 0.750716 0
M  V30 236 H 23.6655 1.01883 2.80468 0
M  V30 237 C 22.4145 -0.648338 3.41602 0
M  V30 238 H 21.7375 -0.00624665 3.998 0
M  V30 239 H 23.1775 -1.03898 4.11073 0
M  V30 240 C 21.6365 -1.8111 2.84079 0
M  V30 241 O 22.1665 -2.90825 2.77099 0
M  V30 242 N 20.3725 -1.62056 2.41218 0
M  V30 243 H 19.9195 -0.728123 2.47095 0
M  V30 244 H 19.8775 -2.40013 2.03079 0
M  V30 245 N 23.6496 -1.47581 0.552962 0
M  V30 246 C 24.8796 -2.06575 0.0320091 0
M  V30 247 C 25.2876 -1.4067 -1.26525 0
M  V30 248 O 24.6306 -0.495808 -1.76883 0
M  V30 249 C 24.6926 -3.58705 -0.238913 0
M  V30 250 C 24.3566 -4.46625 0.968272 0
M  V30 251 C 25.3536 -4.85 1.87274 0
M  V30 252 C 23.0386 -4.88201 1.18175 0
M  V30 253 C 25.0326 -5.63745 2.9744 0
M  V30 254 C 22.7196 -5.66712 2.28651 0
M  V30 255 C 23.7176 -6.04394 3.18114 0
M  V30 256 O 23.4056 -6.81324 4.26676 0
M  V30 257 H 23.1376 -0.674763 0.0408689 0
M  V30 258 H 25.6916 -1.90634 0.764719 0
M  V30 259 H 23.9216 -3.72844 -1.02588 0
M  V30 260 H 25.6106 -3.99735 -0.704731 0
M  V30 261 H 26.3766 -4.53482 1.71984 0
M  V30 262 H 22.2556 -4.58339 0.494593 0
M  V30 263 H 25.7996 -5.93077 3.67296 0
M  V30 264 H 21.6966 -5.97642 2.43915 0
M  V30 265 H 22.4646 -6.99712 4.24671 0
M  V30 266 N 25.1277 -0.289203 -1.54924 0
M  V30 267 C 26.0577 0.58549 -2.2604 0
M  V30 268 C 27.0387 1.14753 -1.25562 0
M  V30 269 O 28.2237 1.17906 -1.54311 0
M  V30 270 C 25.3537 1.76305 -2.99222 0
M  V30 271 C 24.3077 1.33191 -4.06748 0
M  V30 272 C 23.6337 2.5937 -4.6758 0
M  V30 273 C 24.9337 0.471775 -5.20165 0
M  V30 274 H 26.6277 -0.00763532 -2.99399 0
M  V30 275 H 24.1737 -0.00511229 -1.43999 0
M  V30 276 H 26.1267 2.38097 -3.47689 0
M  V30 277 H 24.8507 2.38223 -2.23422 0
M  V30 278 H 23.5097 0.737121 -3.59113 0
M  V30 279 H 23.1577 3.19576 -3.88433 0
M  V30 280 H 22.8577 2.31228 -5.40192 0
M  V30 281 H 24.3817 3.21985 -5.18804 0
M  V30 282 H 25.7957 0.995056 -5.64599 0
M  V30 283 H 24.1927 0.284639 -5.99425 0
M  V30 284 H 25.2627 -0.506041 -4.82252 0
M  V30 285 N 26.6058 1.57591 -0.0167156 0
M  V30 286 C 27.8528 1.91283 0.664597 0
M  V30 287 C 28.1808 0.891949 1.72842 0
M  V30 288 O 27.4358 -0.100931 1.9544 0
M  V30 289 C 27.7348 3.3172 1.33029 0
M  V30 290 C 27.4008 4.4914 0.398047 0
M  V30 291 C 26.0628 4.80992 0.141421 0
M  V30 292 C 28.4148 5.20634 -0.242825 0
M  V30 293 C 25.7428 5.81703 -0.764092 0
M  V30 294 C 28.0948 6.22311 -1.13632 0
M  V30 295 C 26.7588 6.52611 -1.40196 0
M  V30 296 H 26.0288 0.699956 0.243193 0
M  V30 297 H 28.6758 1.9135 -0.0758267 0
M  V30 298 H 26.9808 3.27856 2.14517 0
M  V30 299 H 28.6778 3.55055 1.86379 0
M  V30 300 H 25.2678 4.24262 0.608238 0
M  V30 301 H 29.4518 4.96267 -0.0576019 0
M  V30 302 H 24.7078 6.03532 -0.977732 0
M  V30 303 H 28.8818 6.76834 -1.63917 0
M  V30 304 H 26.5088 7.30467 -2.10529 0
M  V30 305 N 28.0839 -0.256276 1.55502 0
M  V30 306 C 29.3319 -0.983672 1.76545 0
M  V30 307 C 29.6529 -1.86206 0.578982 0
M  V30 308 O 28.9229 -1.91656 -0.405577 0
M  V30 309 H 27.5029 -0.366191 0.651086 0
M  V30 310 H 30.1649 -0.276479 1.92929 0
M  V30 311 H 29.2609 -1.61087 2.67315 0
M  V30 312 N 29.562 -1.4872 -0.521534 0
M  V30 313 C 30.802 -1.58771 -1.28729 0
M  V30 314 C 31.166 -0.259394 -1.9024 0
M  V30 315 O 32.367 -0.234942 -2.67771 0
M  V30 316 C 30.638 -2.70039 -2.34124 0
M  V30 317 S 32.197 -2.9991 -3.20312 0
M  V30 318 H 29.015 -0.560251 -0.437767 0
M  V30 319 H 31.617 -1.86283 -0.593188 0
M  V30 320 H 30.321 -3.65101 -1.87429 0
M  V30 321 H 29.852 -2.44455 -3.08229 0
M  V30 322 H 31.867 -2.39855 -4.34378 0
M  V30 323 N 31.0401 0.771051 -1.3745 0
M  V30 324 C 31.9501 1.91538 -1.35464 0
M  V30 325 C 32.9661 1.72134 -0.254123 0
M  V30 326 O 34.1421 1.95358 -0.489626 0
M  V30 327 C 31.2071 3.26671 -1.16134 0
M  V30 328 C 30.2681 3.58723 -2.35831 0
M  V30 329 C 29.5011 4.87409 -2.17413 0
M  V30 330 O 29.7241 5.58506 -1.15876 0
M  V30 331 O 28.6581 5.18539 -3.05615 0
M  V30 332 H 32.4841 1.96165 -2.31847 0
M  V30 333 H 30.0691 0.9139 -1.18187 0
M  V30 334 H 31.9511 4.07499 -1.07345 0
M  V30 335 H 30.6261 3.22894 -0.228251 0
M  V30 336 H 29.5331 2.78127 -2.50192 0
M  V30 337 H 30.8661 3.67243 -3.27709 0
M  V30 338 N 32.5182 1.22032 0.997298 0
M  V30 339 C 33.4482 1.01065 2.10495 0
M  V30 340 C 34.4292 -0.0669542 1.69968 0
M  V30 341 O 35.6142 0.0943987 1.9397 0
M  V30 342 C 32.7442 0.582874 3.42374 0
M  V30 343 C 31.6982 1.60592 3.96729 0
M  V30 344 C 31.0242 1.03412 5.24605 0
M  V30 345 C 32.3242 2.99478 4.27914 0
M  V30 346 H 34.0182 1.93708 2.28292 0
M  V30 347 H 31.5642 0.932761 1.09707 0
M  V30 348 H 33.5172 0.423332 4.19268 0
M  V30 349 H 32.2412 -0.379213 3.24391 0
M  V30 350 H 30.9002 1.75316 3.21963 0
M  V30 351 H 30.5482 0.063518 5.0296 0
M  V30 352 H 30.2482 1.71754 5.61938 0
M  V30 353 H 31.7722 0.886066 6.04137 0
M  V30 354 H 33.1862 2.88153 4.95622 0
M  V30 355 H 31.5832 3.64903 4.76409 0
M  V30 356 H 32.6532 3.49742 3.3587 0
M  V30 357 N 33.9963 -1.19345 1.0293 0
M  V30 358 C 34.9433 -2.2258 0.610464 0
M  V30 359 C 35.9133 -1.6179 -0.375946 0
M  V30 360 O 37.0983 -1.88844 -0.272511 0
M  V30 361 C 34.2383 -3.45085 -0.0321473 0
M  V30 362 C 33.3513 -4.20258 1.00035 0
M  V30 363 C 32.4863 -5.3019 0.32746 0
M  V30 364 C 31.5253 -5.97121 1.34584 0
M  V30 365 N 30.6623 -6.98615 0.698726 0
M  V30 366 H 35.5023 -2.57764 1.49538 0
M  V30 367 H 33.0393 -1.26644 0.748311 0
M  V30 368 H 34.9973 -4.15061 -0.421966 0
M  V30 369 H 33.6273 -3.10555 -0.88064 0
M  V30 370 H 32.6793 -3.49223 1.50823 0
M  V30 371 H 33.9913 -4.66175 1.77433 0
M  V30 372 H 33.1453 -6.06587 -0.11718 0
M  V30 373 H 31.8843 -4.85345 -0.478713 0
M  V30 374 H 30.8893 -5.19474 1.80074 0
M  V30 375 H 32.1143 -6.4405 2.15352 0
M  V30 376 H 30.0603 -6.55942 -0.0873471 0
M  V30 377 H 29.9773 -7.42724 1.41058 0
M  V30 378 H 31.2453 -7.79004 0.278102 0
M  V30 379 N 35.4744 -0.807222 -1.35358 0
M  V30 380 C 36.4374 -0.223665 -2.28106 0
M  V30 381 C 37.4374 0.589354 -1.4961 0
M  V30 382 O 38.6274 0.407745 -1.69361 0
M  V30 383 C 35.7594 0.688149 -3.33882 0
M  V30 384 H 36.9524 -1.04169 -2.81227 0
M  V30 385 H 34.5054 -0.577921 -1.45223 0
M  V30 386 H 35.2404 1.52984 -2.85948 0
M  V30 387 H 35.0254 0.10687 -3.91954 0
M  V30 388 H 36.5154 1.09075 -4.03104 0
M  V30 389 N 36.9525 1.47285 -0.560781 0
M  V30 390 C 38.2295 1.9558 0.0277798 0
M  V30 391 C 38.6095 1.5034 1.48192 0
M  V30 392 O 37.9575 0.743882 2.16052 0
M  V30 393 C 38.1675 3.48789 -0.121418 0
M  V30 394 C 39.5155 4.24594 0.0220912 0
M  V30 395 O 40.5395 3.56166 -0.0491439 0
M  V30 396 O 39.3985 5.46217 0.175958 0
M  V30 397 H 36.4925 0.824663 0.0621342 0
M  V30 398 H 39.0385 1.5767 -0.627556 0
M  V30 399 H 37.8105 3.74533 -1.13316 0
M  V30 400 H 37.4335 3.93473 0.571366 0
M  V30 401 N 38.4306 0.297415 1.54768 0
M  V30 402 C 39.3776 -0.580276 2.23386 0
M  V30 403 C 40.3476 -1.13238 1.21517 0
M  V30 404 O 41.5326 -1.17757 1.50126 0
M  V30 405 C 38.6726 -1.74801 2.97555 0
M  V30 406 C 37.7856 -1.22764 4.1419 0
M  V30 407 C 36.9206 -2.35895 4.75949 0
M  V30 408 C 35.9596 -1.80974 5.84735 0
M  V30 409 N 35.0966 -2.87664 6.40464 0
M  V30 410 H 39.9366 0.0114833 2.97998 0
M  V30 411 H 37.4736 0.0174361 1.4709 0
M  V30 412 H 39.4316 -2.43475 3.38786 0
M  V30 413 H 38.0616 -2.31145 2.25326 0
M  V30 414 H 37.1136 -0.433271 3.77924 0
M  V30 415 H 38.4256 -0.785551 4.92575 0
M  V30 416 H 37.5796 -3.12523 5.20014 0
M  V30 417 H 36.3186 -2.83429 3.96887 0
M  V30 418 H 35.3236 -1.02834 5.40097 0
M  V30 419 H 36.5486 -1.34348 6.65678 0
M  V30 420 H 34.4946 -3.34538 5.64287 0
M  V30 421 H 34.4116 -2.4794 7.14186 0
M  V30 422 H 35.6796 -3.642 6.89187 0
M  V30 423 N 39.9087 -1.5758 0.0250728 0
M  V30 424 C 41.1857 -1.82917 -0.692873 0
M  V30 425 C 41.5657 -0.908137 -1.90568 0
M  V30 426 O 40.9137 0.0372298 -2.2847 0
M  V30 427 C 41.1237 -3.32034 -1.07492 0
M  V30 428 C 42.4717 -3.98406 -1.46826 0
M  V30 429 O 43.4957 -3.36505 -1.16801 0
M  V30 430 O 42.3547 -5.07497 -2.02754 0
M  V30 431 H 39.4487 -0.754079 -0.33955 0
M  V30 432 H 41.9947 -1.69619 0.0524456 0
M  V30 433 H 40.7667 -3.90728 -0.211552 0
M  V30 434 H 40.3897 -3.50424 -1.87854 0
M  V30 435 N 41.3868 0.248026 -1.55636 0
M  V30 436 C 42.6168 0.992367 -1.81206 0
M  V30 437 C 43.0248 1.7949 -0.598324 0
M  V30 438 O 42.3678 1.78292 0.442434 0
M  V30 439 C 42.4298 1.97926 -3.00109 0
M  V30 440 C 42.0938 1.36377 -4.36177 0
M  V30 441 C 43.0908 0.76682 -5.14214 0
M  V30 442 C 40.7758 1.38347 -4.82872 0
M  V30 443 C 42.7698 0.197778 -6.37093 0
M  V30 444 C 40.4568 0.810574 -6.057 0
M  V30 445 C 41.4548 0.218754 -6.8265 0
M  V30 446 O 41.1428 -0.345298 -8.03158 0
M  V30 447 H 40.8748 0.297704 -0.606917 0
M  V30 448 H 43.4288 0.276517 -2.0353 0
M  V30 449 H 41.6588 2.73339 -2.73538 0
M  V30 450 H 43.3478 2.58694 -3.12781 0
M  V30 451 H 44.1138 0.744114 -4.79258 0
M  V30 452 H 39.9928 1.8335 -4.2297 0
M  V30 453 H 43.5368 -0.264788 -6.97097 0
M  V30 454 H 39.4338 0.830604 -6.40134 0
M  V30 455 H 40.2018 -0.237055 -8.18157 0
M  V30 456 N 42.8649 1.48995 0.513639 0
M  V30 457 C 43.8149 1.61127 1.61314 0
M  V30 458 C 44.7989 0.467521 1.53958 0
M  V30 459 O 45.9909 0.719826 1.61702 0
M  V30 460 C 43.1199 1.66937 2.99978 0
M  V30 461 C 42.2059 2.86847 3.12377 0
M  V30 462 N 42.5969 4.11078 2.94701 0
M  V30 463 C 40.8949 2.84521 3.43459 0
M  V30 464 C 41.5959 4.91615 3.10949 0
M  V30 465 N 40.5719 4.24739 3.3926 0
M  V30 466 H 44.3739 2.54909 1.46282 0
M  V30 467 H 41.8879 1.45593 0.719483 0
M  V30 468 H 43.8849 1.73725 3.78979 0
M  V30 469 H 42.5449 0.742831 3.16089 0
M  V30 470 H 43.5559 4.41258 2.71131 0
M  V30 471 H 40.2329 2.01192 3.65825 0
M  V30 472 H 41.6229 6.00264 3.01882 0
M  V30 473 N 44.343 -0.763751 1.37857 0
M  V30 474 C 45.59 -1.52257 1.33506 0
M  V30 475 C 45.918 -1.94343 -0.078022 0
M  V30 476 O 45.173 -1.64958 -1.05297 0
M  V30 477 C 45.472 -2.79499 2.22745 0
M  V30 478 C 45.138 -2.56426 3.70886 0
M  V30 479 C 43.8 -2.49842 4.11257 0
M  V30 480 C 46.152 -2.36008 4.64704 0
M  V30 481 C 43.48 -2.20841 5.43549 0
M  V30 482 C 45.832 -2.0853 5.97242 0
M  V30 483 C 44.496 -2.00396 6.36709 0
M  V30 484 H 43.766 -0.557149 0.488534 0
M  V30 485 H 46.413 -0.879073 1.70131 0
M  V30 486 H 44.718 -3.48447 1.79142 0
M  V30 487 H 46.415 -3.37413 2.16688 0
M  V30 488 H 43.005 -2.62416 3.38874 0
M  V30 489 H 47.189 -2.40079 4.34368 0
M  V30 490 H 42.445 -2.13045 5.73081 0
M  V30 491 H 46.619 -1.91732 6.69486 0
M  V30 492 H 44.246 -1.77688 7.39142 0
M  V30 493 N 45.8211 -1.22559 -0.990812 0
M  V30 494 C 46.7681 -0.997519 -2.0813 0
M  V30 495 C 47.7381 0.0814702 -1.659 0
M  V30 496 O 48.9231 -0.0685424 -1.90677 0
M  V30 497 C 46.0631 -0.583615 -3.40129 0
M  V30 498 C 45.1761 -1.7336 -3.9569 0
M  V30 499 C 44.3111 -1.26748 -5.15857 0
M  V30 500 C 43.3501 -2.38888 -5.63559 0
M  V30 501 N 42.4871 -1.93308 -6.74964 0
M  V30 502 H 47.3271 -1.93099 -2.26973 0
M  V30 503 H 44.8641 -0.962114 -1.11273 0
M  V30 504 H 46.8221 -0.324801 -4.15934 0
M  V30 505 H 45.4521 0.312845 -3.2128 0
M  V30 506 H 44.5041 -2.10669 -3.16738 0
M  V30 507 H 45.8161 -2.57704 -4.27071 0
M  V30 508 H 44.9701 -0.966173 -5.98957 0
M  V30 509 H 43.7091 -0.394272 -4.86104 0
M  V30 510 H 42.7141 -2.69805 -4.79046 0
M  V30 511 H 43.9391 -3.26728 -5.95336 0
M  V30 512 H 41.8851 -1.08352 -6.4699 0
M  V30 513 H 41.8021 -2.71217 -7.05675 0
M  V30 514 H 43.0701 -1.66252 -7.61564 0
M  V30 515 N 47.2992 1.18797 -1.03562 0
M  V30 516 C 48.5452 1.8893 -0.737113 0
M  V30 517 C 48.8782 1.79837 0.732956 0
M  V30 518 O 48.1532 1.19525 1.5344 0
M  V30 519 C 48.4362 3.39607 -1.19745 0
M  V30 520 C 48.2892 3.57537 -2.72924 0
M  V30 521 C 49.6082 4.33069 -0.783526 0
M  V30 522 H 46.7272 0.686057 -0.269249 0
M  V30 523 H 49.3692 1.39797 -1.28673 0
M  V30 524 H 47.5192 3.81583 -0.729855 0
M  V30 525 H 49.1912 3.24688 -3.27682 0
M  V30 526 H 47.4342 3.00363 -3.12993 0
M  V30 527 H 48.1052 4.63238 -3.00191 0
M  V30 528 H 50.5812 3.98846 -1.18581 0
M  V30 529 H 49.4572 5.3707 -1.13343 0
M  V30 530 H 49.7182 4.40986 0.313681 0
M  V30 531 N 48.7773 0.814389 1.34928 0
M  V30 532 C 50.0543 0.321363 1.92942 0
M  V30 533 C 50.4343 -1.19014 1.74353 0
M  V30 534 O 49.7823 -1.99328 1.11716 0
M  V30 535 C 49.9923 0.741323 3.41036 0
M  V30 536 C 51.3403 0.735266 4.18185 0
M  V30 537 O 52.3643 0.68336 3.49584 0
M  V30 538 O 51.2233 0.800703 5.40602 0
M  V30 539 H 48.3173 0.0858893 0.822528 0
M  V30 540 H 50.8633 0.898609 1.43955 0
M  V30 541 H 49.6353 1.78276 3.4833 0
M  V30 542 H 49.2583 0.139307 3.97356 0
M  V30 543 N 50.2554 -1.46986 0.568584 0
M  V30 544 C 51.2034 -2.31858 -0.185649 0
M  V30 545 C 52.1974 -1.43624 -0.898249 0
M  V30 546 O 53.4034 -1.60327 -0.818242 0
M  V30 547 H 49.7784 -0.747866 -0.0787399 0
M  V30 548 H 51.7494 -2.93303 0.549191 0
M  V30 549 C 50.4984 -3.26513 -1.19519 0
M  V30 550 H 49.8214 -3.94377 -0.656285 0
M  V30 551 H 51.2614 -3.88707 -1.6936 0
M  V30 552 C 49.7204 -2.50847 -2.24894 0
M  V30 553 O 50.2504 -2.26119 -3.32014 0
M  V30 554 N 48.4564 -2.11656 -1.99124 0
M  V30 555 H 48.0034 -2.31966 -1.12024 0
M  V30 556 H 47.9614 -1.61347 -2.69842 0
M  V30 557 N 51.7335 -0.305618 -1.54608 0
M  V30 558 C 53.0105 0.355652 -1.92339 0
M  V30 559 C 53.3905 1.71324 -1.23335 0
M  V30 560 O 52.7385 2.25473 -0.370702 0
M  V30 561 C 52.9485 0.46572 -3.45879 0
M  V30 562 C 54.2965 0.734426 -4.182 0
M  V30 563 O 55.3205 0.54935 -3.51938 0
M  V30 564 O 54.1795 1.09024 -5.35515 0
M  V30 565 H 51.2735 0.199666 -0.802535 0
M  V30 566 H 53.8195 -0.354017 -1.65966 0
M  V30 567 H 52.5915 -0.488461 -3.88239 0
M  V30 568 H 52.2145 1.22367 -3.78301 0
M  V30 569 N 53.2116 1.57565 -0.0334293 0
M  V30 570 C 54.1216 2.13943 0.962572 0
M  V30 571 C 55.1376 1.09276 1.35406 0
M  V30 572 O 56.3136 1.41355 1.4346 0
M  V30 573 C 53.3786 2.65887 2.22497 0
M  V30 574 C 52.4396 3.85286 1.8935 0
M  V30 575 C 51.6726 4.34743 3.09571 0
M  V30 576 O 51.8956 3.83352 4.22371 0
M  V30 577 O 50.8296 5.26538 2.91618 0
M  V30 578 H 54.6556 2.99333 0.513169 0
M  V30 579 H 52.2406 1.4822 0.18743 0
M  V30 580 H 54.1226 2.99346 2.96598 0
M  V30 581 H 52.7976 1.83578 2.6661 0
M  V30 582 H 51.7046 3.56746 1.1262 0
M  V30 583 H 53.0376 4.68771 1.5005 0
M  V30 584 N 54.6897 -0.239769 1.55765 0
M  V30 585 C 55.6377 -1.31668 1.91745 0
M  V30 586 C 56.6317 -1.49462 0.797338 0
M  V30 587 O 57.8377 -1.50852 0.982021 0
M  V30 588 H 54.2127 -0.441048 0.609082 0
M  V30 589 H 56.1837 -0.985923 2.81642 0
M  V30 590 C 54.9327 -2.66368 2.2348 0
M  V30 591 H 54.2557 -2.53478 3.09175 0
M  V30 592 H 55.6957 -3.40578 2.52553 0
M  V30 593 C 54.1547 -3.20002 1.05359 0
M  V30 594 O 54.6847 -4.00538 0.305261 0
M  V30 595 N 52.8907 -2.78126 0.842292 0
M  V30 596 H 52.4377 -2.12742 1.45253 0
M  V30 597 H 52.3957 -3.14354 0.053652 0
M  V30 598 N 56.1678 -1.49265 -0.50573 0
M  V30 599 C 57.0778 -1.68312 -1.63427 0
M  V30 600 C 58.0938 -0.565682 -1.64548 0
M  V30 601 O 59.2698 -0.839801 -1.83055 0
M  V30 602 C 56.3348 -1.74107 -2.99813 0
M  V30 603 C 55.3958 -2.97653 -3.09356 0
M  V30 604 C 54.6288 -3.03163 -4.39236 0
M  V30 605 O 54.8518 -2.16396 -5.27758 0
M  V30 606 O 53.7858 -3.9558 -4.53652 0
M  V30 607 H 57.6118 -2.63907 -1.50289 0
M  V30 608 H 55.1968 -1.32951 -0.681502 0
M  V30 609 H 57.0788 -1.803 -3.80881 0
M  V30 610 H 55.7538 -0.816901 -3.13223 0
M  V30 611 H 54.6608 -2.96981 -2.27493 0
M  V30 612 H 55.9938 -3.89535 -3.00871 0
M  V30 613 N 57.6459 0.756429 -1.3826 0
M  V30 614 C 58.5959 1.86069 -1.31766 0
M  V30 615 C 59.5799 1.59621 -0.202483 0
M  V30 616 O 60.7719 1.7149 -0.438211 0
M  V30 617 C 57.9009 3.23742 -1.1422 0
M  V30 618 C 56.9869 3.56091 -2.30348 0
M  V30 619 N 57.3779 3.59517 -3.55783 0
M  V30 620 C 55.6759 3.86341 -2.22838 0
M  V30 621 C 56.3769 3.89052 -4.32451 0
M  V30 622 N 55.3529 4.05736 -3.61772 0
M  V30 623 H 59.1549 1.86992 -2.26741 0
M  V30 624 H 56.6689 0.953643 -1.31451 0
M  V30 625 H 58.6659 4.02761 -1.07652 0
M  V30 626 H 57.3259 3.24073 -0.201763 0
M  V30 627 H 58.3369 3.41347 -3.89491 0
M  V30 628 H 55.0139 3.94404 -1.36937 0
M  V30 629 H 56.4039 3.98349 -5.4108 0
M  V30 630 N 59.124 1.23083 0.984299 0
M  V30 631 C 60.056 0.96636 2.07832 0
M  V30 632 C 61.069 -0.0582135 1.62696 0
M  V30 633 O 62.258 0.176843 1.77622 0
M  V30 634 C 59.358 0.433397 3.36117 0
M  V30 635 C 58.531 1.51722 4.10243 0
M  V30 636 C 57.59 0.989821 5.16807 0
M  V30 637 O 56.616 1.67794 5.43906 0
M  V30 638 N 57.818 -0.184367 5.80207 0
M  V30 639 H 60.583 1.90824 2.31098 0
M  V30 640 H 58.144 1.13888 1.1507 0
M  V30 641 H 60.136 0.065699 4.04647 0
M  V30 642 H 58.706 -0.413806 3.09849 0
M  V30 643 H 57.926 2.05786 3.36223 0
M  V30 644 H 59.214 2.24619 4.56534 0
M  V30 645 H 58.612 -0.760062 5.60571 0
M  V30 646 H 57.169 -0.493366 6.4993 0
M  V30 647 N 60.6021 -1.18246 1.0419 0
M  V30 648 C 61.5321 -2.24127 0.654914 0
M  V30 649 C 62.5131 -1.66617 -0.342451 0
M  V30 650 O 63.6981 -1.92924 -0.222277 0
M  V30 651 C 60.8281 -3.47295 0.0183757 0
M  V30 652 C 59.7821 -4.17563 0.939414 0
M  V30 653 C 59.1081 -5.34438 0.167286 0
M  V30 654 C 60.4081 -4.70917 2.25908 0
M  V30 655 H 62.1021 -2.56753 1.54007 0
M  V30 656 H 59.6481 -1.23414 0.74195 0
M  V30 657 H 61.6011 -4.20572 -0.264082 0
M  V30 658 H 60.3251 -3.13907 -0.901664 0
M  V30 659 H 58.9841 -3.46186 1.20628 0
M  V30 660 H 58.6321 -4.97298 -0.7552 0
M  V30 661 H 58.3321 -5.82388 0.780901 0
M  V30 662 H 59.8561 -6.10504 -0.108125 0
M  V30 663 H 61.2701 -5.35882 2.03724 0
M  V30 664 H 59.6671 -5.29406 2.82577 0
M  V30 665 H 60.7371 -3.88272 2.9047 0
M  V30 666 N 62.0802 -0.821533 -1.34494 0
M  V30 667 C 63.3052 -0.420873 -2.03085 0
M  V30 668 C 63.7302 0.964915 -1.61465 0
M  V30 669 O 63.0882 1.62763 -0.798607 0
M  V30 670 C 63.1362 -0.529414 -3.56693 0
M  V30 671 O 62.2402 0.451302 -4.09923 0
M  V30 672 H 61.5812 -0.173489 -0.640935 0
M  V30 673 H 64.1112 -1.11157 -1.71771 0
M  V30 674 H 64.1212 -0.404671 -4.05988 0
M  V30 675 H 62.7962 -1.54014 -3.86332 0
M  V30 676 H 61.3732 0.285558 -3.71805 0
M  V30 677 N 63.5583 1.46682 -0.576371 0
M  V30 678 C 64.4883 2.33028 0.148397 0
M  V30 679 C 65.4693 1.44961 0.889956 0
M  V30 680 O 66.6543 1.73789 0.866662 0
M  V30 681 C 63.7843 3.27117 1.1667 0
M  V30 682 C 62.7383 4.24575 0.540386 0
M  V30 683 C 62.0643 5.08126 1.6647 0
M  V30 684 C 63.3643 5.19722 -0.518331 0
M  V30 685 H 65.0583 2.93875 -0.572509 0
M  V30 686 H 62.6043 1.41315 -0.276768 0
M  V30 687 H 64.5573 3.86374 1.68204 0
M  V30 688 H 63.2813 2.64364 1.9178 0
M  V30 689 H 61.9403 3.66571 0.0461769 0
M  V30 690 H 61.5883 4.41762 2.40531 0
M  V30 691 H 61.2883 5.74122 1.25131 0
M  V30 692 H 62.8123 5.70246 2.18293 0
M  V30 693 H 64.2263 5.73232 -0.0883058 0
M  V30 694 H 62.6233 5.94026 -0.851679 0
M  V30 695 H 63.6933 4.64037 -1.40703 0
M  V30 696 N 65.0364 0.313813 1.54444 0
M  V30 697 C 66.4524 -0.0391619 1.59552 0
M  V30 698 C 66.6524 -1.51322 1.33056 0
M  V30 699 O 65.7084 -2.26782 1.11022 0
M  V30 700 C 67.0214 0.370302 2.98411 0
M  V30 701 C 68.5694 0.320139 3.11358 0
M  V30 702 C 69.0444 0.704617 4.52547 0
M  V30 703 N 70.5354 0.657645 4.58508 0
M  V30 704 C 71.2704 0.927453 5.6585 0
M  V30 705 N 70.7664 1.26389 6.81174 0
M  V30 706 N 72.5594 0.853662 5.5558 0
M  V30 707 H 64.7104 1.27433 1.69925 0
M  V30 708 H 66.9734 0.517511 0.794284 0
M  V30 709 H 66.6794 1.39694 3.22767 0
M  V30 710 H 66.5534 -0.269619 3.76235 0
M  V30 711 H 68.9404 -0.697275 2.86744 0
M  V30 712 H 69.0214 0.99486 2.35661 0
M  V30 713 H 68.6654 1.7199 4.77893 0
M  V30 714 H 68.5954 0.00768843 5.26599 0
M  V30 715 H 71.0864 0.409067 3.75679 0
M  V30 716 H 71.3994 1.4554 7.58972 0
M  V30 717 H 69.7444 1.30206 6.82694 0
M  V30 718 H 72.9354 0.590383 4.64362 0
M  V30 719 H 73.1084 1.0673 6.3915 0
M  V30 720 N 66.5145 -1.57545 0.0417849 0
M  V30 721 C 67.7425 -1.96624 -0.643928 0
M  V30 722 C 68.1575 -0.918897 -1.64929 0
M  V30 723 O 67.5145 0.0979323 -1.82237 0
M  V30 724 C 67.5655 -3.35781 -1.33914 0
M  V30 725 O 67.2865 -4.365 -0.374048 0
M  V30 726 C 68.7875 -3.89566 -2.1155 0
M  V30 727 H 66.0075 -0.647316 -0.176702 0
M  V30 728 H 68.5515 -2.04229 0.105304 0
M  V30 729 H 66.7065 -3.29357 -2.03968 0
M  V30 730 H 67.1205 -5.17248 -0.869179 0
M  V30 731 H 68.5945 -4.89242 -2.55628 0
M  V30 732 H 69.0715 -3.24488 -2.9598 0
M  V30 733 H 69.6775 -3.99298 -1.46427 0
M  V30 734 N 67.9926 0.231505 -1.5589 0
M  V30 735 C 69.2386 0.95877 -1.78705 0
M  V30 736 C 69.5716 1.8438 -0.609725 0
M  V30 737 O 68.8466 1.90521 0.391426 0
M  V30 738 C 69.1296 1.8062 -3.11526 0
M  V30 739 C 68.9826 0.948328 -4.39689 0
M  V30 740 C 70.3016 2.78585 -3.40703 0
M  V30 741 H 67.4206 0.347129 -0.650131 0
M  V30 742 H 70.0626 0.228259 -1.88624 0
M  V30 743 H 68.2126 2.42902 -3.03201 0
M  V30 744 H 69.8846 0.343016 -4.60023 0
M  V30 745 H 68.1276 0.253314 -4.3306 0
M  V30 746 H 68.7986 1.57543 -5.29041 0
M  V30 747 H 71.2746 2.26439 -3.49091 0
M  V30 748 H 70.1506 3.34988 -4.34826 0
M  V30 749 H 70.4116 3.55825 -2.62375 0
M  V30 750 N 69.4707 1.49531 0.497807 0
M  V30 751 C 70.6957 1.63159 1.28039 0
M  V30 752 C 71.1207 0.30418 1.85624 0
M  V30 753 O 70.4787 -0.728618 1.66015 0
M  V30 754 C 70.5267 2.70537 2.38416 0
M  V30 755 O 69.6307 2.29931 3.42353 0
M  V30 756 H 68.9717 0.546001 0.377861 0
M  V30 757 H 71.5017 1.9574 0.59558 0
M  V30 758 H 71.5117 2.92802 2.84132 0
M  V30 759 H 70.1867 3.6689 1.95869 0
M  V30 760 H 68.7637 2.18009 3.02533 0
M  V30 761 N 70.9488 -0.749086 1.3866 0
M  V30 762 C 71.8788 -1.8764 1.38973 0
M  V30 763 C 72.8598 -1.68178 0.255004 0
M  V30 764 O 74.0448 -1.88704 0.458754 0
M  V30 765 C 71.1748 -3.25222 1.21851 0
M  V30 766 C 70.1288 -3.59295 2.32575 0
M  V30 767 C 69.4548 -4.95663 2.00555 0
M  V30 768 C 70.7548 -3.63709 3.7485 0
M  V30 769 H 72.4488 -1.87635 2.3331 0
M  V30 770 H 69.9948 -0.901329 1.12303 0
M  V30 771 H 71.9478 -4.03746 1.20695 0
M  V30 772 H 70.6718 -3.25719 0.239775 0
M  V30 773 H 69.3308 -2.83093 2.32925 0
M  V30 774 H 68.9788 -4.92724 1.01154 0
M  V30 775 H 68.6788 -5.19429 2.74714 0
M  V30 776 H 70.2028 -5.7656 2.01024 0
M  V30 777 H 71.6168 -4.32338 3.76506 0
M  V30 778 H 70.0138 -3.98986 4.48252 0
M  V30 779 H 71.0838 -2.63834 4.06841 0
M  V30 780 N 72.4269 -1.23603 -0.977757 0
M  V30 781 C 73.6749 -1.06759 -1.71601 0
M  V30 782 C 73.9959 0.395929 -1.90938 0
M  V30 783 O 73.2659 1.28356 -1.47992 0
M  V30 784 H 71.8459 -0.392062 -0.635843 0
M  V30 785 H 74.5079 -1.55362 -1.1768 0
M  V30 786 H 73.6039 -1.55763 -2.70452 0
M  V30 787 N 73.905 1.17692 -1.04816 0
M  V30 788 C 74.868 2.19787 -0.650117 0
M  V30 789 C 75.868 1.58044 0.296427 0
M  V30 790 O 77.058 1.74012 0.0808097 0
M  V30 791 C 74.19 3.40869 0.0456987 0
M  V30 792 H 75.383 2.56516 -1.5537 0
M  V30 793 H 72.936 1.31708 -0.841594 0
M  V30 794 H 73.671 3.09681 0.962726 0
M  V30 795 H 73.456 3.86928 -0.634727 0
M  V30 796 H 74.946 4.16445 0.310432 0
M  V30 797 N 75.3831 0.828654 1.34056 0
M  V30 798 C 76.6311 0.41863 1.97717 0
M  V30 799 C 76.9521 -1.02314 1.66002 0
M  V30 800 O 76.2221 -1.71119 0.953683 0
M  V30 801 H 74.8021 0.151809 0.731412 0
M  V30 802 H 77.4641 1.05936 1.63596 0
M  V30 803 H 76.5601 0.542318 3.07352 0
M  V30 804 N 76.8612 -1.46375 0.584142 0
M  V30 805 C 77.8242 -2.28784 -0.138108 0
M  V30 806 C 78.8242 -1.38471 -0.817462 0
M  V30 807 O 80.0142 -1.60833 -0.669199 0
M  V30 808 C 77.1462 -3.18892 -1.20503 0
M  V30 809 H 78.3392 -2.94117 0.586127 0
M  V30 810 H 75.8922 -1.52509 0.342171 0
M  V30 811 H 76.6272 -2.58309 -1.96079 0
M  V30 812 H 76.4122 -3.85388 -0.722384 0
M  V30 813 H 77.9022 -3.80914 -1.71155 0
M  V30 814 N 78.3393 -0.321999 -1.54275 0
M  V30 815 C 79.2863 0.544664 -2.24281 0
M  V30 816 C 80.2563 1.1129 -1.23303 0
M  V30 817 O 81.4413 1.15354 -1.51981 0
M  V30 818 C 78.5813 1.70045 -3.00298 0
M  V30 819 C 77.6943 1.16159 -4.1609 0
M  V30 820 C 76.8293 2.28293 -4.79641 0
M  V30 821 C 75.8683 1.71648 -5.8754 0
M  V30 822 N 75.0053 2.77438 -6.44959 0
M  V30 823 H 79.8453 -0.0588907 -2.97942 0
M  V30 824 H 77.3823 -0.0408345 -1.47043 0
M  V30 825 H 79.3403 2.38054 -3.42616 0
M  V30 826 H 77.9703 2.27531 -2.28975 0
M  V30 827 H 77.0223 0.373092 -3.78566 0
M  V30 828 H 78.3343 0.707087 -4.93763 0
M  V30 829 H 77.4883 3.0421 -5.2492 0
M  V30 830 H 76.2273 2.77079 -4.01346 0
M  V30 831 H 75.2323 0.942282 -5.41665 0
M  V30 832 H 76.4573 1.23741 -6.67731 0
M  V30 833 H 74.4033 3.25519 -5.69538 0
M  V30 834 H 74.3203 2.36547 -7.1804 0
M  V30 835 H 75.5883 3.53189 -6.94894 0
M  V30 836 N 79.8174 1.5752 -0.0501392 0
M  V30 837 C 81.0944 1.83996 0.663685 0
M  V30 838 C 81.4744 0.938339 1.89099 0
M  V30 839 O 80.8224 -0.00087759 2.285 0
M  V30 840 C 81.0324 3.33702 1.02196 0
M  V30 841 C 82.3804 4.00691 1.40469 0
M  V30 842 O 83.4044 3.38321 1.11433 0
M  V30 843 O 82.2634 5.10658 1.94654 0
M  V30 844 H 79.3574 0.759385 0.32751 0
M  V30 845 H 81.9034 1.69514 -0.0794238 0
M  V30 846 H 80.6754 3.91015 0.149364 0
M  V30 847 H 80.2984 3.53368 1.82255 0
M  V30 848 N 81.2955 -0.223234 1.56011 0
M  V30 849 C 82.2055 -1.29766 1.95443 0
M  V30 850 C 83.2215 -1.51373 0.858028 0
M  V30 851 O 84.3975 -1.64536 1.16146 0
M  V30 852 C 81.4625 -2.62772 2.26167 0
M  V30 853 C 80.5235 -2.49482 3.49367 0
M  V30 854 C 79.7565 -3.76145 3.78616 0
M  V30 855 O 79.9795 -4.79087 3.09568 0
M  V30 856 O 78.9135 -3.73358 4.72109 0
M  V30 857 H 82.7395 -0.99309 2.87004 0
M  V30 858 H 80.3245 -0.425958 1.43199 0
M  V30 859 H 82.2065 -3.41327 2.47131 0
M  V30 860 H 80.8815 -2.92913 1.37781 0
M  V30 861 H 79.7885 -1.69133 3.33684 0
M  V30 862 H 81.1215 -2.2428 4.38131 0
M  V30 863 N 82.7736 -1.49793 -0.48987 0
M  V30 864 C 83.7036 -1.70201 -1.59856 0
M  V30 865 C 84.6846 -0.55076 -1.60937 0
M  V30 866 O 85.8696 -0.787841 -1.77501 0
M  V30 867 C 82.9996 -1.77882 -2.98287 0
M  V30 868 C 81.9536 -2.92907 -3.12073 0
M  V30 869 C 81.2796 -2.85712 -4.51965 0
M  V30 870 C 82.5796 -4.3369 -2.91051 0
M  V30 871 H 84.2736 -2.63025 -1.43032 0
M  V30 872 H 81.8196 -1.26574 -0.686664 0
M  V30 873 H 83.7726 -1.90744 -3.75759 0
M  V30 874 H 82.4966 -0.816653 -3.16225 0
M  V30 875 H 81.1556 -2.79665 -2.37029 0
M  V30 876 H 80.8036 -1.8738 -4.66795 0
M  V30 877 H 80.5036 -3.62921 -4.62128 0
M  V30 878 H 82.0276 -3.00598 -5.31482 0
M  V30 879 H 83.4416 -4.47555 -3.58284 0
M  V30 880 H 81.8386 -5.12205 -3.12675 0
M  V30 881 H 82.9086 -4.47362 -1.87071 0
M  V30 882 N 84.2517 0.741722 -1.39055 0
M  V30 883 C 85.2017 1.84661 -1.33732 0
M  V30 884 C 86.1857 1.59397 -0.219401 0
M  V30 885 O 87.3777 1.71015 -0.456375 0
M  V30 886 C 84.5067 3.22512 -1.17647 0
M  V30 887 C 83.5927 3.53628 -2.34112 0
M  V30 888 N 83.9837 3.55723 -3.59576 0
M  V30 889 C 82.2817 3.83956 -2.26923 0
M  V30 890 C 82.9827 3.84443 -4.36553 0
M  V30 891 N 81.9587 4.01877 -3.66055 0
M  V30 892 H 85.7607 1.84576 -2.28711 0
M  V30 893 H 83.2747 0.939647 -1.32455 0
M  V30 894 H 85.2717 4.01597 -1.11917 0
M  V30 895 H 83.9317 3.2384 -0.236124 0
M  V30 896 H 84.9427 3.37196 -3.93089 0
M  V30 897 H 81.6197 3.92929 -1.41113 0
M  V30 898 H 83.0097 3.92588 -5.45274 0
M  V30 899 N 85.7298 1.2412 0.971189 0
M  V30 900 C 86.9788 1.07284 1.70801 0
M  V30 901 C 87.2918 -0.388902 1.91695 0
M  V30 902 O 88.4978 -0.677379 2.62914 0
M  V30 903 C 86.9538 1.87145 3.07416 0
M  V30 904 C 86.5618 3.37707 2.94377 0
M  V30 905 C 88.3058 1.78828 3.84995 0
M  V30 906 C 86.2128 4.09925 4.26281 0
M  V30 907 H 85.1428 0.397854 0.64049 0
M  V30 908 H 87.7938 1.4817 1.0825 0
M  V30 909 H 86.1758 1.39071 3.70777 0
M  V30 910 H 87.3498 3.93335 2.4005 0
M  V30 911 H 85.6648 3.46938 2.30267 0
M  V30 912 H 88.2618 2.30089 4.82662 0
M  V30 913 H 88.6048 0.75284 4.09436 0
M  V30 914 H 89.1378 2.24563 3.28354 0
M  V30 915 H 85.8768 5.13813 4.07033 0
M  V30 916 H 85.3968 3.59083 4.80437 0
M  V30 917 H 87.0758 4.1673 4.94919 0
M  V30 918 N 87.2079 -1.17134 1.05439 0
M  V30 919 C 88.4539 -1.87733 0.767077 0
M  V30 920 C 88.7869 -1.8098 -0.704253 0
M  V30 921 O 88.0619 -1.21951 -1.5152 0
M  V30 922 C 88.3449 -3.37659 1.25133 0
M  V30 923 C 88.1979 -3.53149 2.78578 0
M  V30 924 C 89.5169 -4.31768 0.852324 0
M  V30 925 H 86.6359 -0.681687 0.280129 0
M  V30 926 H 89.2779 -1.37732 1.30881 0
M  V30 927 H 87.4279 -3.80373 0.790469 0
M  V30 928 H 89.0999 -3.19434 3.32806 0
M  V30 929 H 87.3429 -2.95345 3.17732 0
M  V30 930 H 88.0139 -4.58403 3.07523 0
M  V30 931 H 90.4899 -3.96909 1.24911 0
M  V30 932 H 89.3659 -5.35199 1.21873 0
M  V30 933 H 89.6269 -4.41429 -0.243485 0
M  V30 934 N 88.686 -0.835752 -1.33615 0
M  V30 935 C 89.596 -0.269088 -2.33052 0
M  V30 936 C 90.612 0.603251 -1.63208 0
M  V30 937 O 91.788 0.508112 -1.94885 0
M  V30 938 C 88.853 0.549091 -3.42324 0
M  V30 939 C 87.914 -0.347156 -4.27894 0
M  V30 940 C 87.147 0.43207 -5.31948 0
M  V30 941 O 87.37 1.66409 -5.45586 0
M  V30 942 O 86.304 -0.192298 -6.01593 0
M  V30 943 H 90.13 -1.09243 -2.83372 0
M  V30 944 H 87.715 -0.598198 -1.36901 0
M  V30 945 H 89.597 1.01414 -4.09015 0
M  V30 946 H 88.272 1.34955 -2.94226 0
M  V30 947 H 87.179 -0.859979 -3.64081 0
M  V30 948 H 88.512 -1.1123 -4.79467 0
M  V30 949 N 90.1641 1.46063 -0.591896 0
M  V30 950 C 91.1271 2.28854 0.125973 0
M  V30 951 C 92.1271 1.38903 0.810107 0
M  V30 952 O 93.3171 1.61186 0.66066 0
M  V30 953 C 90.4491 3.19526 1.1881 0
M  V30 954 H 91.6421 2.93802 -0.601717 0
M  V30 955 H 89.1951 1.52325 -0.350254 0
M  V30 956 H 89.9301 2.59345 1.94707 0
M  V30 957 H 89.7151 3.85766 0.701936 0
M  V30 958 H 91.2051 3.81817 1.69132 0
M  V30 959 N 91.6422 0.330177 1.54103 0
M  V30 960 C 92.5522 -0.541534 2.28264 0
M  V30 961 C 93.5682 -1.12351 1.32866 0
M  V30 962 O 94.7442 -1.14206 1.65888 0
M  V30 963 C 91.8092 -1.68322 3.03098 0
M  V30 964 C 90.8702 -1.13238 4.14096 0
M  V30 965 C 90.1032 -2.21966 4.85352 0
M  V30 966 O 90.3262 -3.42437 4.56172 0
M  V30 967 O 89.2602 -1.87013 5.7211 0
M  V30 968 H 93.0862 0.060938 3.03639 0
M  V30 969 H 90.6712 0.09565 1.49093 0
M  V30 970 H 92.5532 -2.34777 3.49939 0
M  V30 971 H 91.2282 -2.27176 2.30593 0
M  V30 972 H 90.1352 -0.432736 3.71589 0
M  V30 973 H 91.4682 -0.588898 4.88664 0
M  V30 974 N 93.1203 -1.57491 0.0584922 0
M  V30 975 C 94.0833 -2.1085 -0.898617 0
M  V30 976 C 95.0833 -1.02964 -1.23511 0
M  V30 977 O 96.2733 -1.29007 -1.17059 0
M  V30 978 C 93.4053 -2.59881 -2.20623 0
M  V30 979 H 94.5983 -2.96715 -0.435936 0
M  V30 980 H 92.1513 -1.55141 -0.190023 0
M  V30 981 H 92.8863 -1.77431 -2.71457 0
M  V30 982 H 92.6713 -3.38727 -1.97501 0
M  V30 983 H 94.1613 -3.01285 -2.89166 0
M  V30 984 N 94.5984 0.214957 -1.56127 0
M  V30 985 C 95.5314 1.29382 -1.87977 0
M  V30 986 C 96.5094 1.44897 -0.737807 0
M  V30 987 O 97.6934 1.60605 -0.986833 0
M  V30 988 C 94.8204 2.66325 -2.09258 0
M  V30 989 C 93.8664 2.67789 -3.31951 0
M  V30 990 S 94.6994 2.21198 -4.8768 0
M  V30 991 C 95.8554 3.60003 -5.12004 0
M  V30 992 H 96.0884 1.02173 -2.79192 0
M  V30 993 H 93.6214 0.417516 -1.48648 0
M  V30 994 H 95.5794 3.45162 -2.22201 0
M  V30 995 H 94.2404 2.90755 -1.18829 0
M  V30 996 H 93.4334 3.68436 -3.43906 0
M  V30 997 H 93.0354 1.9702 -3.17898 0
M  V30 998 H 95.3274 4.55739 -5.01307 0
M  V30 999 H 96.2704 3.52959 -6.13861 0
M  V30 1000 H 96.6784 3.53996 -4.39712 0
M  V30 1001 N 96.0765 1.50051 0.48192 0
M  V30 1002 C 97.0245 1.68635 1.60203 0
M  V30 1003 C 98.0185 0.552184 1.60148 0
M  V30 1004 O 99.2245 0.732377 1.64427 0
M  V30 1005 H 95.5995 0.532081 0.531407 0
M  V30 1006 H 97.5705 2.62616 1.41688 0
M  V30 1007 C 96.3195 1.78775 2.9822 0
M  V30 1008 H 95.6425 2.6543 2.98976 0
M  V30 1009 H 97.0825 1.95806 3.7608 0
M  V30 1010 C 95.5415 0.536849 3.32595 0
M  V30 1011 O 96.0715 -0.328897 4.00351 0
M  V30 1012 N 94.2775 0.394091 2.87915 0
M  V30 1013 H 93.8245 1.09962 2.32951 0
M  V30 1014 H 93.7825 -0.441737 3.11281 0
M  V30 1015 N 97.5546 -0.734337 1.39446 0
M  V30 1016 C 98.7846 -1.52137 1.39778 0
M  V30 1017 C 99.1926 -1.89198 -0.00929312 0
M  V30 1018 O 98.5356 -1.54666 -0.991168 0
M  V30 1019 C 98.5976 -2.83762 2.20724 0
M  V30 1020 C 98.2616 -2.69131 3.69347 0
M  V30 1021 C 99.2586 -2.37635 4.62413 0
M  V30 1022 C 96.9436 -2.85982 4.1294 0
M  V30 1023 C 98.9376 -2.23172 5.97054 0
M  V30 1024 C 96.6246 -2.71137 5.47657 0
M  V30 1025 C 97.6226 -2.39777 6.39528 0
M  V30 1026 O 97.3106 -2.25026 7.71763 0
M  V30 1027 H 97.0426 -0.476717 0.479288 0
M  V30 1028 H 99.5966 -0.915012 1.83893 0
M  V30 1029 H 97.8266 -3.4666 1.71359 0
M  V30 1030 H 99.5156 -3.45383 2.13226 0
M  V30 1031 H 100.282 -2.24267 4.30034 0
M  V30 1032 H 96.1606 -3.09383 3.41765 0
M  V30 1033 H 99.7046 -1.98617 6.68728 0
M  V30 1034 H 95.6016 -2.84083 5.79626 0
M  V30 1035 H 96.3696 -2.40091 7.82495 0
M  V30 1036 N 99.0327 -1.24633 -0.964593 0
M  V30 1037 C 99.9427 -1.05859 -2.09359 0
M  V30 1038 C 100.959 0.00148855 -1.74 0
M  V30 1039 O 102.135 -0.197346 -2.00431 0
M  V30 1040 C 99.1997 -0.668879 -3.40187 0
M  V30 1041 C 98.2607 -1.80578 -3.89474 0
M  V30 1042 C 97.4937 -1.43457 -5.14058 0
M  V30 1043 O 97.7167 -0.325775 -5.69469 0
M  V30 1044 O 96.6507 -2.2613 -5.57807 0
M  V30 1045 H 100.477 -2.00516 -2.28094 0
M  V30 1046 H 98.0617 -1.03481 -1.0776 0
M  V30 1047 H 99.9437 -0.463211 -4.18846 0
M  V30 1048 H 98.6187 0.248536 -3.22744 0
M  V30 1049 H 97.5257 -2.06623 -3.11862 0
M  V30 1050 H 98.8587 -2.70208 -4.11398 0
M  V30 1051 N 100.511 1.16574 -1.06058 0
M  V30 1052 C 101.759 1.86677 -0.77434 0
M  V30 1053 C 102.08 1.81959 0.701147 0
M  V30 1054 O 101.35 1.2515 1.50713 0
M  V30 1055 H 99.9298 0.691134 -0.283449 0
M  V30 1056 H 102.592 1.41378 -1.34158 0
M  V30 1057 H 101.688 2.92181 -1.09711 0
M  V30 1058 N 101.989 0.842826 1.3317 0
M  V30 1059 C 103.214 0.453129 2.02389 0
M  V30 1060 C 103.639 -0.939105 1.6298 0
M  V30 1061 O 102.997 -1.61472 0.8244 0
M  V30 1062 C 103.045 0.586094 3.55805 0
M  V30 1063 O 102.149 -0.386029 4.10589 0
M  V30 1064 H 101.49 0.183664 0.638094 0
M  V30 1065 H 104.02 1.13875 1.69981 0
M  V30 1066 H 104.03 0.469209 4.05293 0
M  V30 1067 H 102.705 1.6014 3.83833 0
M  V30 1068 H 101.282 -0.226371 3.72212 0
M  V30 1069 N 103.467 -1.45747 0.599634 0
M  V30 1070 C 104.878 -1.85853 0.177681 0
M  V30 1071 C 105.229 -1.50102 -1.26348 0
M  V30 1072 O 104.354 -0.923905 -1.95686 0
M  V30 1073 C 104.949 -3.37326 0.315688 0
M  V30 1074 C 103.508 -3.76365 -0.0515144 0
M  V30 1075 C 102.655 -2.69722 0.643822 0
M  V30 1076 H 105.606 -1.36661 0.806814 0
M  V30 1077 H 105.627 -3.77778 -0.454321 0
M  V30 1078 H 105.139 -3.63315 1.36468 0
M  V30 1079 H 103.24 -3.55993 -1.09999 0
M  V30 1080 H 103.353 -4.77916 0.336594 0
M  V30 1081 H 101.717 -2.54567 0.0822881 0
M  V30 1082 H 102.5 -2.98549 1.6948 0
M  V30 1083 N 104.945 -0.338344 -1.53925 0
M  V30 1084 C 106.194 0.260732 -2.00008 0
M  V30 1085 C 106.507 1.52073 -1.23017 0
M  V30 1086 O 107.713 2.19672 -1.5955 0
M  V30 1087 C 106.169 0.51515 -3.56194 0
M  V30 1088 C 105.777 -0.728645 -4.42035 0
M  V30 1089 C 107.521 1.07337 -4.10706 0
M  V30 1090 C 105.428 -0.445315 -5.89721 0
M  V30 1091 H 104.358 0.101205 -0.747177 0
M  V30 1092 H 107.009 -0.452866 -1.77824 0
M  V30 1093 H 105.391 1.28932 -3.74423 0
M  V30 1094 H 106.565 -1.50352 -4.35581 0
M  V30 1095 H 104.88 -1.20813 -3.98489 0
M  V30 1096 H 107.477 1.30022 -5.18651 0
M  V30 1097 H 107.82 2.0273 -3.63602 0
M  V30 1098 H 108.353 0.360034 -3.96167 0
M  V30 1099 H 105.092 -1.36883 -6.41049 0
M  V30 1100 H 104.612 0.291569 -5.99091 0
M  V30 1101 H 106.291 -0.0606218 -6.46972 0
M  V30 1102 N 106.423 1.57458 -0.0668435 0
M  V30 1103 C 107.37 2.12439 0.902122 0
M  V30 1104 C 108.34 1.03565 1.2986 0
M  V30 1105 O 109.525 1.312 1.38532 0
M  V30 1106 C 106.665 2.6865 2.16614 0
M  V30 1107 C 105.778 3.91663 1.82274 0
M  V30 1108 C 104.913 4.36134 3.0325 0
M  V30 1109 C 103.952 5.51808 2.64904 0
M  V30 1110 N 103.089 5.9126 3.78624 0
M  V30 1111 H 107.929 2.94934 0.426382 0
M  V30 1112 H 105.466 1.4575 0.198819 0
M  V30 1113 H 107.424 2.99346 2.90599 0
M  V30 1114 H 106.054 1.88928 2.61737 0
M  V30 1115 H 105.106 3.6746 0.983719 0
M  V30 1116 H 106.418 4.75693 1.50059 0
M  V30 1117 H 105.572 4.68465 3.85519 0
M  V30 1118 H 104.311 3.50948 3.38655 0
M  V30 1119 H 103.316 5.19133 1.81055 0
M  V30 1120 H 104.541 6.38722 2.30675 0
M  V30 1121 H 102.487 5.09024 4.138 0
M  V30 1122 H 102.404 6.70018 3.5016 0
M  V30 1123 H 103.672 6.28212 4.61486 0
M  V30 1124 N 107.901 -0.206675 1.56239 0
M  V30 1125 C 109.147 -0.930218 1.80208 0
M  V30 1126 C 109.48 -1.83387 0.638981 0
M  V30 1127 O 108.755 -1.91119 -0.361066 0
M  V30 1128 C 109.038 -1.75641 3.1436 0
M  V30 1129 C 108.891 -0.878257 4.41142 0
M  V30 1130 C 110.21 -2.73129 3.45092 0
M  V30 1131 H 107.329 -0.336742 0.655571 0
M  V30 1132 H 109.971 -0.198222 1.88963 0
M  V30 1133 H 108.121 -2.38048 3.07027 0
M  V30 1134 H 109.793 -0.269787 4.6051 0
M  V30 1135 H 108.036 -0.184385 4.33408 0
M  V30 1136 H 108.707 -1.49106 5.3148 0
M  V30 1137 H 111.183 -2.20856 3.52649 0
M  V30 1138 H 110.059 -3.28028 4.40101 0
M  V30 1139 H 110.32 -3.51606 2.68003 0
M  V30 1140 N 109.379 -1.50304 -0.473955 0
M  V30 1141 C 110.607 -1.64902 -1.24959 0
M  V30 1142 C 111.022 -0.331198 -1.85872 0
M  V30 1143 O 110.379 0.68652 -1.69095 0
M  V30 1144 C 110.43 -2.73803 -2.36038 0
M  V30 1145 O 110.151 -4.00477 -1.77624 0
M  V30 1146 C 111.652 -2.99349 -3.26964 0
M  V30 1147 H 108.872 -0.554383 -0.378022 0
M  V30 1148 H 111.416 -1.9651 -0.566054 0
M  V30 1149 H 109.571 -2.44898 -3.00173 0
M  V30 1150 H 109.985 -4.60678 -2.5075 0
M  V30 1151 H 111.459 -3.79217 -4.01121 0
M  V30 1152 H 111.936 -2.10307 -3.85574 0
M  V30 1153 H 112.542 -3.29774 -2.68569 0
M  V30 1154 N 110.857 0.726932 -1.39834 0
M  V30 1155 C 111.787 1.85405 -1.41941 0
M  V30 1156 C 112.768 1.67751 -0.281728 0
M  V30 1157 O 113.953 1.8795 -0.488717 0
M  V30 1158 C 111.083 3.23243 -1.2701 0
M  V30 1159 C 110.037 3.55549 -2.38262 0
M  V30 1160 C 109.363 4.9241 -2.08415 0
M  V30 1161 C 110.663 3.577 -3.80589 0
M  V30 1162 H 112.357 1.83899 -2.36266 0
M  V30 1163 H 109.903 0.883349 -1.13723 0
M  V30 1164 H 111.856 4.01775 -1.27103 0
M  V30 1165 H 110.58 3.25296 -0.291564 0
M  V30 1166 H 109.239 2.79351 -2.37399 0
M  V30 1167 H 108.887 4.91052 -1.0898 0
M  V30 1168 H 108.587 5.14992 -2.82943 0
M  V30 1169 H 110.111 5.73289 -2.10171 0
M  V30 1170 H 111.525 4.26293 -3.83337 0
M  V30 1171 H 109.922 3.91804 -4.54543 0
M  V30 1172 H 110.992 2.57328 -4.10987 0
M  V30 1173 N 112.336 1.25143 0.95797 0
M  V30 1174 C 113.299 1.05321 2.03569 0
M  V30 1175 C 114.299 0.007152 1.60798 0
M  V30 1176 O 115.489 0.24903 1.72411 0
M  V30 1177 C 112.621 0.598394 3.35607 0
M  V30 1178 H 113.814 2.00986 2.22586 0
M  V30 1179 H 111.367 1.07502 1.13459 0
M  V30 1180 H 112.102 -0.361014 3.22284 0
M  V30 1181 H 111.887 1.35351 3.67998 0
M  V30 1182 H 113.377 0.48104 4.1482 0
M  V30 1183 N 113.814 -1.1601 1.06675 0
M  V30 1184 C 115.042 -1.90527 0.806667 0
M  V30 1185 C 115.457 -1.77643 -0.639396 0
M  V30 1186 O 114.814 -1.12369 -1.43803 0
M  V30 1187 C 114.865 -3.41106 1.19705 0
M  V30 1188 O 114.586 -3.53608 2.58636 0
M  V30 1189 C 116.087 -4.32663 0.965266 0
M  V30 1190 H 113.307 -0.604053 0.292166 0
M  V30 1191 H 115.851 -1.47026 1.4214 0
M  V30 1192 H 114.006 -3.82296 0.626774 0
M  V30 1193 H 114.42 -4.47011 2.74375 0
M  V30 1194 H 115.894 -5.36763 1.288 0
M  V30 1195 H 116.371 -4.39089 -0.0987936 0
M  V30 1196 H 116.977 -3.97206 1.52011 0
M  V30 1197 N 115.292 -0.849877 -1.32721 0
M  V30 1198 C 116.222 -0.306308 -2.31482 0
M  V30 1199 C 117.203 0.591952 -1.59468 0
M  V30 1200 O 118.388 0.513199 -1.87296 0
M  V30 1201 C 115.518 0.510204 -3.43532 0
M  V30 1202 C 114.472 -0.293209 -4.26994 0
M  V30 1203 C 113.798 0.647743 -5.30762 0
M  V30 1204 C 115.098 -1.51634 -4.99804 0
M  V30 1205 H 116.792 -1.13153 -2.77195 0
M  V30 1206 H 114.338 -0.545553 -1.33266 0
M  V30 1207 H 116.291 0.900856 -4.11658 0
M  V30 1208 H 115.015 1.36874 -2.96535 0
M  V30 1209 H 113.674 -0.665555 -3.60508 0
M  V30 1210 H 113.322 1.50299 -4.8002 0
M  V30 1211 H 113.022 0.11422 -5.87489 0
M  V30 1212 H 114.546 1.03567 -6.01753 0
M  V30 1213 H 115.96 -1.19824 -5.60638 0
M  V30 1214 H 114.357 -1.98745 -5.66234 0
M  V30 1215 H 115.427 -2.28018 -4.27943 0
M  V30 1216 N 116.77 1.45427 -0.607355 0
M  V30 1217 C 117.717 2.3053 0.111625 0
M  V30 1218 C 118.687 1.4209 0.860216 0
M  V30 1219 O 119.872 1.71019 0.845998 0
M  V30 1220 C 117.012 3.26992 1.10319 0
M  V30 1221 C 116.125 4.30535 0.355493 0
M  V30 1222 C 115.26 5.14105 1.33676 0
M  V30 1223 C 114.299 6.09376 0.576862 0
M  V30 1224 N 113.436 6.85727 1.5074 0
M  V30 1225 H 118.276 2.91477 -0.620093 0
M  V30 1226 H 115.813 1.43631 -0.317594 0
M  V30 1227 H 117.771 3.81385 1.6912 0
M  V30 1228 H 116.401 2.67799 1.80232 0
M  V30 1229 H 115.453 3.78805 -0.348023 0
M  V30 1230 H 116.765 4.98235 -0.237423 0
M  V30 1231 H 115.919 5.72897 1.99684 0
M  V30 1232 H 114.658 4.46423 1.9636 0
M  V30 1233 H 113.663 5.49715 -0.0968519 0
M  V30 1234 H 114.888 6.79085 -0.0449341 0
M  V30 1235 H 112.834 6.20735 2.12189 0
M  V30 1236 H 112.751 7.49778 0.967913 0
M  V30 1237 H 114.019 7.4906 2.15706 0
M  V30 1238 N 118.248 0.346503 1.53744 0
M  V30 1239 C 119.181 -0.552023 2.21423 0
M  V30 1240 C 120.159 -1.09798 1.19929 0
M  V30 1241 O 121.343 -1.1577 1.4876 0
M  V30 1242 C 118.47 -1.75972 2.89398 0
M  V30 1243 C 117.516 -1.34295 4.04805 0
M  V30 1244 S 118.349 -0.360263 5.34287 0
M  V30 1245 C 119.505 -1.57473 6.05767 0
M  V30 1246 H 119.738 0.0228119 2.97291 0
M  V30 1247 H 117.271 0.130579 1.53847 0
M  V30 1248 H 119.229 -2.45256 3.2918 0
M  V30 1249 H 117.89 -2.30578 2.1329 0
M  V30 1250 H 117.083 -2.24349 4.51313 0
M  V30 1251 H 116.685 -0.729555 3.66815 0
M  V30 1252 H 118.977 -2.50875 6.29339 0
M  V30 1253 H 119.92 -1.15138 6.98676 0
M  V30 1254 H 120.328 -1.77212 5.35963 0
M  V30 1255 N 119.726 -1.57421 0.075193 0
M  V30 1256 C 120.951 -1.98364 -0.605515 0
M  V30 1257 C 121.376 -0.953383 -1.62149 0
M  V30 1258 O 120.734 0.0806053 -1.81121 0
M  V30 1259 C 120.782 -3.38332 -1.24756 0
M  V30 1260 O 119.886 -3.37959 -2.36342 0
M  V30 1261 H 119.227 -0.645553 -0.155428 0
M  V30 1262 H 121.757 -2.04044 0.150714 0
M  V30 1263 H 121.767 -3.75591 -1.5936 0
M  V30 1264 H 120.442 -4.12846 -0.503129 0
M  V30 1265 H 119.019 -3.12474 -2.03506 0
M  V30 1266 N 121.204 0.198386 -1.56346 0
M  V30 1267 C 122.45 0.920648 -1.80698 0
M  V30 1268 C 122.783 1.83045 -0.648697 0
M  V30 1269 O 122.058 1.91308 0.350925 0
M  V30 1270 C 122.341 1.73971 -3.15287 0
M  V30 1271 C 122.194 0.85485 -4.41602 0
M  V30 1272 C 123.513 2.71296 -3.46535 0
M  V30 1273 H 120.632 0.333261 -0.657348 0
M  V30 1274 H 123.274 0.188198 -1.89066 0
M  V30 1275 H 121.424 2.36416 -3.08285 0
M  V30 1276 H 123.096 0.245362 -4.60647 0
M  V30 1277 H 121.339 0.161398 -4.335 0
M  V30 1278 H 122.01 1.46286 -5.32264 0
M  V30 1279 H 124.486 2.18983 -3.53816 0
M  V30 1280 H 123.362 3.2569 -4.41834 0
M  V30 1281 H 123.623 3.5018 -2.69864 0
M  V30 1282 N 122.682 1.50554 0.465978 0
M  V30 1283 C 123.614 1.65949 1.58093 0
M  V30 1284 C 124.627 0.540827 1.53554 0
M  V30 1285 O 125.816 0.814187 1.5885 0
M  V30 1286 C 122.916 1.63261 2.96983 0
M  V30 1287 C 122.089 2.91245 3.26336 0
M  V30 1288 C 121.148 2.8113 4.44806 0
M  V30 1289 O 120.174 3.55086 4.44862 0
M  V30 1290 N 121.376 1.95032 5.46756 0
M  V30 1291 H 124.141 2.62122 1.45301 0
M  V30 1292 H 121.702 1.48082 0.65448 0
M  V30 1293 H 123.694 1.54101 3.74212 0
M  V30 1294 H 122.264 0.748032 3.03518 0
M  V30 1295 H 121.484 3.14493 2.37672 0
M  V30 1296 H 122.772 3.76022 3.42761 0
M  V30 1297 H 122.17 1.3427 5.49534 0
M  V30 1298 H 120.727 1.91772 6.2295 0
M  V30 1299 N 124.16 -0.719506 1.40217 0
M  V30 1300 C 125.571 -1.29848 1.34151 0
M  V30 1301 C 125.922 -1.96196 0.0131349 0
M  V30 1302 O 125.047 -1.973 -0.88892 0
M  V30 1303 C 125.642 -2.36118 2.42968 0
M  V30 1304 C 124.201 -2.8965 2.40374 0
M  V30 1305 C 123.348 -1.63393 2.24049 0
M  V30 1306 H 126.299 -0.51591 1.5008 0
M  V30 1307 H 126.32 -3.16871 2.10649 0
M  V30 1308 H 125.832 -1.878 3.39636 0
M  V30 1309 H 123.933 -3.42208 1.47392 0
M  V30 1310 H 124.046 -3.4171 3.35814 0
M  V30 1311 H 122.41 -1.88312 1.71495 0
M  V30 1312 H 123.193 -1.17104 3.2271 0
M  V30 1313 N 125.638 -1.25649 -0.95132 0
M  V30 1314 C 126.866 -1.13343 -1.73092 0
M  V30 1315 C 127.281 0.312434 -1.86197 0
M  V30 1316 O 126.638 1.21465 -1.36207 0
M  V30 1317 C 126.689 -1.78602 -3.14299 0
M  V30 1318 O 126.41 -3.17537 -3.01831 0
M  V30 1319 C 127.911 -1.72119 -4.08522 0
M  V30 1320 H 125.131 -0.395181 -0.542285 0
M  V30 1321 H 127.675 -1.66076 -1.19328 0
M  V30 1322 H 125.83 -1.29832 -3.64996 0
M  V30 1323 H 126.244 -3.49676 -3.90931 0
M  V30 1324 H 127.718 -2.22435 -5.052 0
M  V30 1325 H 128.195 -0.685635 -4.33815 0
M  V30 1326 H 128.801 -2.20393 -3.63741 0
M  V30 1327 N 127.117 1.15442 -1.07289 0
M  V30 1328 C 128.363 1.86489 -0.796846 0
M  V30 1329 C 128.696 1.82078 0.675371 0
M  V30 1330 O 127.971 1.24346 1.4956 0
M  V30 1331 C 128.254 3.35626 -1.30489 0
M  V30 1332 C 128.107 3.48673 -2.84161 0
M  V30 1333 C 129.426 4.30357 -0.920907 0
M  V30 1334 H 126.545 0.677144 -0.290939 0
M  V30 1335 H 129.187 1.35633 -1.33056 0
M  V30 1336 H 127.337 3.79068 -0.850883 0
M  V30 1337 H 129.009 3.14099 -3.37846 0
M  V30 1338 H 127.252 2.90253 -3.22391 0
M  V30 1339 H 127.923 4.53453 -3.14777 0
M  V30 1340 H 130.399 3.94871 -1.3121 0
M  V30 1341 H 129.275 5.33193 -1.30372 0
M  V30 1342 H 129.536 4.4176 0.173226 0
M  V30 1343 N 128.595 0.856903 1.32268 0
M  V30 1344 C 129.82 0.474569 2.01897 0
M  V30 1345 C 130.245 -0.921766 1.63967 0
M  V30 1346 O 129.603 -1.60589 0.84148 0
M  V30 1347 C 129.651 0.623799 3.55164 0
M  V30 1348 O 128.755 -0.342459 4.10976 0
M  V30 1349 H 128.096 0.190422 0.63611 0
M  V30 1350 H 130.626 1.15672 1.68764 0
M  V30 1351 H 130.636 0.512169 4.04773 0
M  V30 1352 H 129.311 1.64202 3.82113 0
M  V30 1353 H 127.888 -0.18688 3.72431 0
M  V30 1354 N 130.073 -1.45103 0.615059 0
M  V30 1355 C 131.003 -2.33339 -0.0865619 0
M  V30 1356 C 131.984 -1.4727 -0.851209 0
M  V30 1357 O 133.169 -1.76026 -0.820281 0
M  V30 1358 C 130.299 -3.30095 -1.07956 0
M  V30 1359 C 129.253 -4.25858 -0.427628 0
M  V30 1360 C 128.579 -5.12361 -1.5294 0
M  V30 1361 C 129.879 -5.18165 0.655944 0
M  V30 1362 H 131.573 -2.92254 0.650224 0
M  V30 1363 H 129.119 -1.40532 0.314138 0
M  V30 1364 H 131.072 -3.90698 -1.57901 0
M  V30 1365 H 129.796 -2.69355 -1.84703 0
M  V30 1366 H 128.455 -3.66564 0.0510292 0
M  V30 1367 H 128.103 -4.47984 -2.28734 0
M  V30 1368 H 127.803 -5.77238 -1.09865 0
M  V30 1369 H 129.327 -5.75833 -2.03098 0
M  V30 1370 H 130.741 -5.72796 0.240257 0
M  V30 1371 H 129.138 -5.91559 1.00888 0
M  V30 1372 H 130.208 -4.60144 1.52957 0
M  V30 1373 N 131.551 -0.354651 -1.53558 0
M  V30 1374 C 132.799 0.237972 -2.00694 0
M  V30 1375 C 133.12 1.50173 -1.24391 0
M  V30 1376 O 132.39 1.92673 -0.354135 0
M  V30 1377 H 130.97 0.0909256 -0.741446 0
M  V30 1378 H 133.632 -0.478368 -1.88938 0
M  V30 1379 H 132.728 0.47264 -3.085 0
M  V30 1380 N 133.029 1.57378 -0.0835403 0
M  V30 1381 C 134.277 1.93547 0.581718 0
M  V30 1382 C 134.598 0.96524 1.69435 0
M  V30 1383 O 133.868 0.0153369 1.95894 0
M  V30 1384 H 132.448 0.714521 0.217874 0
M  V30 1385 H 135.11 1.94366 -0.144158 0
M  V30 1386 H 134.206 2.95665 0.999423 0
M  V30 1387 N 134.507 -0.190092 1.56449 0
M  V30 1388 C 135.754 -0.909705 1.80916 0
M  V30 1389 C 136.082 -1.83047 0.657583 0
M  V30 1390 O 135.337 -1.92428 -0.356356 0
M  V30 1391 C 135.636 -1.75382 3.1141 0
M  V30 1392 C 135.302 -0.983606 4.40041 0
M  V30 1393 C 133.964 -0.770967 4.74984 0
M  V30 1394 C 136.316 -0.442024 5.19322 0
M  V30 1395 C 133.644 -0.0053448 5.867 0
M  V30 1396 C 135.996 0.310412 6.31838 0
M  V30 1397 C 134.66 0.534023 6.6536 0
M  V30 1398 H 133.93 -0.332885 0.662019 0
M  V30 1399 H 136.577 -0.175762 1.90692 0
M  V30 1400 H 134.882 -2.55659 2.96893 0
M  V30 1401 H 136.579 -2.31331 3.27547 0
M  V30 1402 H 133.169 -1.15936 4.12622 0
M  V30 1403 H 137.353 -0.593693 4.92736 0
M  V30 1404 H 132.609 0.177825 6.11141 0
M  V30 1405 H 136.783 0.737419 6.92485 0
M  V30 1406 H 134.41 1.12918 7.51767 0
M  V30 1407 N 135.985 -1.50799 -0.457987 0
M  V30 1408 C 136.895 -1.73426 -1.57989 0
M  V30 1409 C 137.911 -0.617745 -1.62665 0
M  V30 1410 O 139.087 -0.897614 -1.80291 0
M  V30 1411 C 136.152 -1.83557 -2.94122 0
M  V30 1412 C 135.213 -3.07345 -2.99729 0
M  V30 1413 C 134.446 -3.16983 -4.29368 0
M  V30 1414 O 134.669 -2.33077 -5.20607 0
M  V30 1415 O 133.603 -4.09812 -4.40837 0
M  V30 1416 H 137.429 -2.68555 -1.41817 0
M  V30 1417 H 135.014 -1.35052 -0.638859 0
M  V30 1418 H 136.896 -1.92326 -3.74952 0
M  V30 1419 H 135.571 -0.916137 -3.10465 0
M  V30 1420 H 134.478 -3.04068 -2.1793 0
M  V30 1421 H 135.811 -3.9891 -2.88326 0
M  V30 1422 N 137.463 0.71206 -1.40597 0
M  V30 1423 C 138.712 1.46754 -1.38369 0
M  V30 1424 C 139.025 1.95598 0.0097839 0
M  V30 1425 O 140.231 2.71059 0.154677 0
M  V30 1426 C 138.687 2.65289 -2.43207 0
M  V30 1427 C 138.295 2.23301 -3.88382 0
M  V30 1428 C 140.039 3.43008 -2.50091 0
M  V30 1429 C 137.946 3.38696 -4.84808 0
M  V30 1430 H 136.876 0.55118 -0.514506 0
M  V30 1431 H 139.527 0.774616 -1.66349 0
M  V30 1432 H 137.909 3.36769 -2.08332 0
M  V30 1433 H 139.083 1.59218 -4.32419 0
M  V30 1434 H 137.398 1.58618 -3.85006 0
M  V30 1435 H 139.995 4.28881 -3.1932 0
M  V30 1436 H 140.338 3.87065 -1.53253 0
M  V30 1437 H 140.871 2.78574 -2.83974 0
M  V30 1438 H 137.61 2.99668 -5.82992 0
M  V30 1439 H 137.13 4.01683 -4.45433 0
M  V30 1440 H 138.809 4.04712 -5.04794 0
M  V30 1441 N 138.941 1.26152 0.944643 0
M  V30 1442 C 140.169 1.14259 1.72489 0
M  V30 1443 C 140.584 -0.302555 1.8636 0
M  V30 1444 O 139.941 -1.20741 1.36849 0
M  V30 1445 C 139.992 1.80266 3.13347 0
M  V30 1446 O 139.713 3.19133 3.00143 0
M  V30 1447 C 141.214 1.74283 4.07603 0
M  V30 1448 H 138.434 0.398051 0.540181 0
M  V30 1449 H 140.978 1.66706 1.18446 0
M  V30 1450 H 139.133 1.31766 3.64303 0
M  V30 1451 H 139.547 3.51744 3.89071 0
M  V30 1452 H 141.021 2.25111 5.04013 0
M  V30 1453 H 141.498 0.708631 4.33446 0
M  V30 1454 H 142.104 2.22319 3.62567 0
M  V30 1455 N 140.419 -1.14872 1.07899 0
M  V30 1456 C 141.83 -1.67367 0.827363 0
M  V30 1457 C 142.181 -1.85236 -0.646693 0
M  V30 1458 O 141.306 -1.55974 -1.50004 0
M  V30 1459 C 141.901 -3.04016 1.49532 0
M  V30 1460 C 140.46 -3.53566 1.29106 0
M  V30 1461 C 139.607 -2.29161 1.56143 0
M  V30 1462 H 142.558 -0.990083 1.24028 0
M  V30 1463 H 142.579 -3.69219 0.919643 0
M  V30 1464 H 142.091 -2.90978 2.56814 0
M  V30 1465 H 140.192 -3.71835 0.238713 0
M  V30 1466 H 140.305 -4.34661 2.01511 0
M  V30 1467 H 138.669 -2.34978 0.982717 0
M  V30 1468 H 139.452 -2.18705 2.64619 0
M  V30 1469 N 141.898 -0.863906 -1.31812 0
M  V30 1470 C 143.309 -0.52522 -1.7916 0
M  V30 1471 C 143.66 0.957518 -1.71248 0
M  V30 1472 O 142.785 1.74734 -1.27659 0
M  V30 1473 C 143.38 -0.9466 -3.25307 0
M  V30 1474 C 141.939 -0.659668 -3.70574 0
M  V30 1475 C 141.086 -1.14126 -2.52726 0
M  V30 1476 H 144.037 -1.05022 -1.1898 0
M  V30 1477 H 144.058 -0.266766 -3.79564 0
M  V30 1478 H 143.57 -2.02579 -3.31034 0
M  V30 1479 H 141.671 0.408416 -3.70355 0
M  V30 1480 H 141.784 -1.23245 -4.62977 0
M  V30 1481 H 140.148 -0.561216 -2.4844 0
M  V30 1482 H 140.931 -2.22775 -2.61201 0
M  V30 1483 N 143.376 1.44774 -0.622745 0
M  V30 1484 C 144.622 2.0242 -0.124083 0
M  V30 1485 C 144.955 1.4881 1.24777 0
M  V30 1486 O 144.23 0.668799 1.8264 0
M  V30 1487 C 144.513 3.59957 -0.101619 0
M  V30 1488 C 144.366 4.23867 -1.50521 0
M  V30 1489 C 145.685 4.36284 0.578272 0
M  V30 1490 H 142.804 0.735528 -0.0465645 0
M  V30 1491 H 145.446 1.72447 -0.797617 0
M  V30 1492 H 143.596 3.85623 0.471934 0
M  V30 1493 H 145.268 4.09336 -2.12701 0
M  V30 1494 H 143.511 3.81684 -2.06154 0
M  V30 1495 H 144.182 5.32843 -1.4416 0
M  V30 1496 H 146.658 4.16001 0.0906057 0
M  V30 1497 H 145.534 5.46004 0.563149 0
M  V30 1498 H 145.795 4.10271 1.64713 0
M  V30 1499 N 144.854 0.36279 1.53368 0
M  V30 1500 C 146.1 -0.228113 2.01513 0
M  V30 1501 C 146.433 -1.48648 1.2497 0
M  V30 1502 O 145.708 -1.91459 0.342616 0
M  V30 1503 C 145.991 -0.522884 3.56284 0
M  V30 1504 C 145.844 0.74892 4.43521 0
M  V30 1505 C 147.163 -1.32461 4.19693 0
M  V30 1506 H 144.282 -0.0814343 0.732487 0
M  V30 1507 H 146.924 0.48713 1.83649 0
M  V30 1508 H 145.074 -1.1322 3.71636 0
M  V30 1509 H 146.746 1.38648 4.39971 0
M  V30 1510 H 144.989 1.36986 4.11603 0
M  V30 1511 H 145.66 0.497667 5.49752 0
M  V30 1512 H 148.136 -0.809203 4.08156 0
M  V30 1513 H 147.012 -1.49961 5.28018 0
M  V30 1514 H 147.273 -2.33232 3.75573 0
M  V30 1515 N 146.332 -1.57332 0.0918853 0
M  V30 1516 C 147.262 -2.16872 -0.865371 0
M  V30 1517 C 148.243 -1.10118 -1.29646 0
M  V30 1518 O 149.428 -1.38242 -1.36392 0
M  V30 1519 C 146.558 -2.74649 -2.12569 0
M  V30 1520 C 145.512 -3.86747 -1.83333 0
M  V30 1521 C 144.838 -4.31212 -3.16166 0
M  V30 1522 C 146.138 -5.10089 -1.1228 0
M  V30 1523 H 147.832 -2.97114 -0.369307 0
M  V30 1524 H 145.378 -1.42918 -0.176194 0
M  V30 1525 H 147.331 -3.14952 -2.7997 0
M  V30 1526 H 146.055 -1.91657 -2.64452 0
M  V30 1527 H 144.714 -3.46978 -1.18331 0
M  V30 1528 H 144.362 -3.45115 -3.6593 0
M  V30 1529 H 144.062 -5.06788 -2.97388 0
M  V30 1530 H 145.586 -4.74146 -3.84731 0
M  V30 1531 H 147 -5.47582 -1.69785 0
M  V30 1532 H 145.397 -5.91073 -1.03693 0
M  V30 1533 H 146.467 -4.84786 -0.105041 0
M  V30 1534 N 147.81 0.181792 -1.56548 0
M  V30 1535 C 149.226 0.53316 -1.50431 0
M  V30 1536 C 149.426 1.85184 -0.794297 0
M  V30 1537 O 148.482 2.50058 -0.350318 0
M  V30 1538 C 149.795 0.575597 -2.9514 0
M  V30 1539 C 151.343 0.663519 -3.05886 0
M  V30 1540 C 151.818 0.736946 -4.52032 0
M  V30 1541 N 153.309 0.800118 -4.56237 0
M  V30 1542 C 154.044 0.877327 -5.66649 0
M  V30 1543 N 153.54 0.916016 -6.86718 0
M  V30 1544 N 155.333 0.915542 -5.54594 0
M  V30 1545 H 147.484 -0.683025 -2.01118 0
M  V30 1546 H 149.747 -0.244988 -0.915797 0
M  V30 1547 H 149.453 -0.324482 -3.502 0
M  V30 1548 H 149.327 1.42572 -3.49218 0
M  V30 1549 H 151.714 1.55403 -2.50867 0
M  V30 1550 H 151.795 -0.21307 -2.54911 0
M  V30 1551 H 151.439 -0.149262 -5.07681 0
M  V30 1552 H 151.369 1.62953 -5.00753 0
M  V30 1553 H 153.86 0.778926 -3.69785 0
M  V30 1554 H 154.173 0.975813 -7.66614 0
M  V30 1555 H 152.518 0.884469 -6.89349 0
M  V30 1556 H 155.709 0.882245 -4.59711 0
M  V30 1557 H 155.882 0.972253 -6.40665 0
M  V30 1558 N 149.288 1.51039 0.449983 0
M  V30 1559 C 150.218 1.74379 1.55288 0
M  V30 1560 C 151.199 0.593236 1.5942 0
M  V30 1561 O 152.384 0.834625 1.7535 0
M  V30 1562 C 149.514 1.85728 2.93466 0
M  V30 1563 C 148.468 3.01078 3.04197 0
M  V30 1564 C 147.794 2.97595 4.44231 0
M  V30 1565 C 149.094 4.41254 2.7945 0
M  V30 1566 H 150.788 2.66725 1.36008 0
M  V30 1567 H 148.334 1.2835 0.652864 0
M  V30 1568 H 150.287 2.0064 3.70569 0
M  V30 1569 H 149.011 0.900207 3.13949 0
M  V30 1570 H 147.67 2.85851 2.29531 0
M  V30 1571 H 147.318 1.99691 4.61663 0
M  V30 1572 H 147.018 3.75046 4.52343 0
M  V30 1573 H 148.542 3.14583 5.23326 0
M  V30 1574 H 149.956 4.56897 3.46292 0
M  V30 1575 H 148.353 5.20315 2.98985 0
M  V30 1576 H 149.423 4.52164 1.75144 0
M  V30 1577 N 150.766 -0.704594 1.40972 0
M  V30 1578 C 151.713 -1.81862 1.42109 0
M  V30 1579 C 152.683 -1.63781 0.276593 0
M  V30 1580 O 153.868 -1.84759 0.4763 0
M  V30 1581 C 151.008 -3.19669 1.30022 0
M  V30 1582 C 150.121 -3.49246 2.54267 0
M  V30 1583 C 149.256 -4.76618 2.3454 0
M  V30 1584 C 148.295 -4.99133 3.54306 0
M  V30 1585 N 147.432 -6.17726 3.33706 0
M  V30 1586 H 152.272 -1.80226 2.37324 0
M  V30 1587 H 149.809 -0.880238 1.17857 0
M  V30 1588 H 151.767 -3.99263 1.21018 0
M  V30 1589 H 150.397 -3.20506 0.384192 0
M  V30 1590 H 149.449 -2.64125 2.73756 0
M  V30 1591 H 150.761 -3.61788 3.43381 0
M  V30 1592 H 149.915 -5.64249 2.22952 0
M  V30 1593 H 148.654 -4.66305 1.42867 0
M  V30 1594 H 147.659 -4.09953 3.66359 0
M  V30 1595 H 148.884 -5.11311 4.4692 0
M  V30 1596 H 146.83 -6.08642 2.44725 0
M  V30 1597 H 146.747 -6.30995 4.16391 0
M  V30 1598 H 148.015 -7.08115 3.25873 0
M  V30 1599 N 152.244 -1.26651 -0.937939 0
M  V30 1600 C 153.484 -1.13611 -1.69917 0
M  V30 1601 C 153.848 0.314687 -1.89404 0
M  V30 1602 O 155.049 0.567285 -2.62746 0
M  V30 1603 C 153.32 -1.88742 -3.03498 0
M  V30 1604 S 154.879 -1.91794 -3.94665 0
M  V30 1605 H 151.697 -0.405767 -0.583844 0
M  V30 1606 H 154.299 -1.60416 -1.11745 0
M  V30 1607 H 153.003 -2.9336 -2.86999 0
M  V30 1608 H 152.534 -1.42391 -3.66727 0
M  V30 1609 H 154.549 -1.00698 -4.85875 0
M  V30 1610 N 153.722 1.14298 -1.08507 0
M  V30 1611 C 154.97 1.84993 -0.813763 0
M  V30 1612 C 155.291 1.83405 0.662393 0
M  V30 1613 O 154.561 1.28319 1.48024 0
M  V30 1614 H 153.141 0.684966 -0.298045 0
M  V30 1615 H 155.803 1.385 -1.37126 0
M  V30 1616 H 154.899 2.89788 -1.15884 0
M  V30 1617 N 155.201 0.870884 1.31352 0
M  V30 1618 C 156.426 0.495957 2.01383 0
M  V30 1619 C 156.851 -0.904324 1.64935 0
M  V30 1620 O 156.209 -1.59687 0.858466 0
M  V30 1621 C 156.257 0.661433 3.54482 0
M  V30 1622 O 155.361 -0.298851 4.11316 0
M  V30 1623 H 154.702 0.197158 0.634054 0
M  V30 1624 H 157.232 1.17455 1.67527 0
M  V30 1625 H 157.242 0.555072 4.04207 0
M  V30 1626 H 155.917 1.68246 3.8035 0
M  V30 1627 H 154.494 -0.147368 3.72609 0
M  V30 1628 N 156.679 -1.44442 0.630414 0
M  V30 1629 C 157.927 -2.01653 0.134351 0
M  V30 1630 C 158.248 -1.49836 -1.24796 0
M  V30 1631 O 157.518 -0.701684 -1.82902 0
M  V30 1632 H 156.098 -0.74554 0.0466769 0
M  V30 1633 H 158.76 -1.76952 0.816955 0
M  V30 1634 H 157.856 -3.11935 0.101498 0
M  V30 1635 N 158.157 -0.370918 -1.53173 0
M  V30 1636 C 159.568 0.107139 -1.86392 0
M  V30 1637 C 159.919 1.47714 -1.29132 0
M  V30 1638 O 159.044 2.07464 -0.615439 0
M  V30 1639 C 159.639 0.201187 -3.38202 0
M  V30 1640 C 158.198 0.623507 -3.712 0
M  V30 1641 C 157.345 -0.225978 -2.76378 0
M  V30 1642 H 160.296 -0.58951 -1.47345 0
M  V30 1643 H 160.317 1.02377 -3.66468 0
M  V30 1644 H 159.829 -0.796058 -3.79848 0
M  V30 1645 H 157.93 1.62879 -3.35114 0
M  V30 1646 H 158.043 0.394414 -4.77474 0
M  V30 1647 H 156.407 0.305962 -2.52856 0
M  V30 1648 H 157.19 -1.22086 -3.20858 0
M  V30 1649 N 159.635 1.57281 -0.100228 0
M  V30 1650 C 160.881 1.94826 0.563101 0
M  V30 1651 C 161.214 0.982475 1.67514 0
M  V30 1652 O 160.489 0.0164069 1.94493 0
M  V30 1653 C 160.772 3.42453 1.11346 0
M  V30 1654 C 160.625 4.498 0.00612081 0
M  V30 1655 C 161.944 3.91506 2.01024 0
M  V30 1656 H 159.063 0.708428 0.203221 0
M  V30 1657 H 161.705 1.8922 -0.171979 0
M  V30 1658 H 159.855 3.47361 1.7399 0
M  V30 1659 H 161.527 4.57 -0.628357 0
M  V30 1660 H 159.77 4.28756 -0.659581 0
M  V30 1661 H 160.441 5.50306 0.432109 0
M  V30 1662 H 162.917 3.88784 1.48278 0
M  V30 1663 H 161.793 4.95358 2.36457 0
M  V30 1664 H 162.054 3.31099 2.92961 0
M  V30 1665 N 161.113 -0.173488 1.56642 0
M  V30 1666 C 162.063 -1.21941 1.92651 0
M  V30 1667 C 163.047 -1.39912 0.794577 0
M  V30 1668 O 164.239 -1.41919 1.05773 0
M  V30 1669 C 161.368 -2.55935 2.28806 0
M  V30 1670 C 160.454 -2.41667 3.48508 0
M  V30 1671 N 160.845 -1.9711 4.65813 0
M  V30 1672 C 159.143 -2.72499 3.53072 0
M  V30 1673 C 159.844 -1.95253 5.47952 0
M  V30 1674 N 158.82 -2.37575 4.88937 0
M  V30 1675 H 162.622 -0.866581 2.80834 0
M  V30 1676 H 160.136 -0.381776 1.57849 0
M  V30 1677 H 162.133 -3.31511 2.52797 0
M  V30 1678 H 160.793 -2.92022 1.41961 0
M  V30 1679 H 161.804 -1.67481 4.90072 0
M  V30 1680 H 158.481 -3.12639 2.767 0
M  V30 1681 H 159.871 -1.6252 6.51948 0
M  V30 1682 N 162.591 -1.51276 -0.441967 0
M  V30 1683 C 163.84 -1.6295 -1.18871 0
M  V30 1684 C 164.153 -0.349312 -1.92456 0
M  V30 1685 O 165.359 -0.345355 -2.69295 0
M  V30 1686 C 163.815 -2.87759 -2.16155 0
M  V30 1687 C 163.423 -4.22764 -1.48239 0
M  V30 1688 C 165.167 -3.08788 -2.91291 0
M  V30 1689 C 163.074 -5.38728 -2.4398 0
M  V30 1690 H 162.004 -0.606913 -0.447406 0
M  V30 1691 H 164.655 -1.77739 -0.456205 0
M  V30 1692 H 163.037 -2.66593 -2.92821 0
M  V30 1693 H 164.211 -4.54293 -0.771635 0
M  V30 1694 H 162.526 -4.07575 -0.852741 0
M  V30 1695 H 165.123 -3.92599 -3.63002 0
M  V30 1696 H 165.466 -2.21679 -3.5237 0
M  V30 1697 H 165.999 -3.30272 -2.21733 0
M  V30 1698 H 162.738 -6.28082 -1.87598 0
M  V30 1699 H 162.258 -5.1158 -3.13123 0
M  V30 1700 H 163.937 -5.70489 -3.05207 0
M  V30 1701 N 164.069 0.697108 -1.41344 0
M  V30 1702 C 165.294 1.49096 -1.44171 0
M  V30 1703 C 165.719 1.88038 -0.0481568 0
M  V30 1704 O 165.077 1.54525 0.948243 0
M  V30 1705 C 165.125 2.73088 -2.3549 0
M  V30 1706 O 164.229 3.70514 -1.81088 0
M  V30 1707 H 163.57 0.448801 -0.489361 0
M  V30 1708 H 166.1 0.856992 -1.85787 0
M  V30 1709 H 166.11 3.21413 -2.51312 0
M  V30 1710 H 164.785 2.44081 -3.36745 0
M  V30 1711 H 163.362 3.29441 -1.74708 0
M  V30 1712 N 165.547 1.27147 0.931209 0
M  V30 1713 C 166.795 1.13055 1.6752 0
M  V30 1714 C 167.116 -0.324791 1.92276 0
M  V30 1715 O 166.386 -1.22775 1.52654 0
M  V30 1716 H 164.966 0.415391 0.620854 0
M  V30 1717 H 167.628 1.59623 1.11833 0
M  V30 1718 H 166.724 1.65694 2.64485 0
M  V30 1719 N 167.025 -1.13721 1.09112 0
M  V30 1720 C 167.957 -2.1871 0.685467 0
M  V30 1721 C 168.97 -1.60527 -0.271068 0
M  V30 1722 O 170.159 -1.78407 -0.0576148 0
M  V30 1723 C 167.259 -3.38898 -0.0111255 0
M  V30 1724 C 166.432 -4.26597 0.966131 0
M  V30 1725 C 165.491 -5.25324 0.303539 0
M  V30 1726 O 164.517 -5.61213 0.950177 0
M  V30 1727 N 165.719 -5.72779 -0.943651 0
M  V30 1728 H 168.484 -2.54126 1.58871 0
M  V30 1729 H 166.045 -1.29012 0.978143 0
M  V30 1730 H 168.037 -4.02014 -0.465517 0
M  V30 1731 H 166.607 -3.01747 -0.816565 0
M  V30 1732 H 165.827 -3.60306 1.59917 0
M  V30 1733 H 167.115 -4.82048 1.6281 0
M  V30 1734 H 166.513 -5.45762 -1.48862 0
M  V30 1735 H 165.07 -6.37847 -1.34142 0
M  V30 1736 N 168.503 -0.877838 -1.30888 0
M  V30 1737 C 169.453 -0.310872 -2.25871 0
M  V30 1738 C 170.437 0.556596 -1.50966 0
M  V30 1739 O 171.629 0.402187 -1.7237 0
M  V30 1740 C 168.758 0.479821 -3.3993 0
M  V30 1741 C 167.844 -0.401333 -4.22197 0
M  V30 1742 N 168.235 -1.49848 -4.83093 0
M  V30 1743 C 166.533 -0.195167 -4.45573 0
M  V30 1744 C 167.234 -2.0425 -5.44662 0
M  V30 1745 N 166.21 -1.33843 -5.26865 0
M  V30 1746 H 170.012 -1.1493 -2.70496 0
M  V30 1747 H 167.526 -0.726458 -1.45246 0
M  V30 1748 H 169.523 0.902582 -4.07012 0
M  V30 1749 H 168.183 1.31577 -2.96846 0
M  V30 1750 H 169.194 -1.88137 -4.82519 0
M  V30 1751 H 165.871 0.604192 -4.13105 0
M  V30 1752 H 167.261 -2.96345 -6.03017 0
M  V30 1753 N 169.982 1.44106 -0.638065 0
M  V30 1754 C 170.912 2.33448 0.0494287 0
M  V30 1755 C 171.893 1.48606 0.827672 0
M  V30 1756 O 173.078 1.77308 0.792173 0
M  V30 1757 C 170.208 3.31771 1.02691 0
M  V30 1758 C 169.162 4.26485 0.359823 0
M  V30 1759 C 168.488 5.14729 1.44769 0
M  V30 1760 C 169.788 5.17056 -0.738296 0
M  V30 1761 H 171.482 2.91183 -0.696636 0
M  V30 1762 H 169.028 1.40014 -0.336456 0
M  V30 1763 H 170.981 3.93161 1.51666 0
M  V30 1764 H 169.705 2.7226 1.80395 0
M  V30 1765 H 168.364 3.66437 -0.10934 0
M  V30 1766 H 168.012 4.51566 2.21578 0
M  V30 1767 H 167.712 5.78913 1.00668 0
M  V30 1768 H 169.236 5.78991 1.93911 0
M  V30 1769 H 170.65 5.72342 -0.331354 0
M  V30 1770 H 169.047 5.89879 -1.10286 0
M  V30 1771 H 170.117 4.57652 -1.60258 0
M  V30 1772 N 171.46 0.379036 1.52974 0
M  V30 1773 C 172.706 -0.206727 2.01744 0
M  V30 1774 C 173.039 -1.47314 1.26539 0
M  V30 1775 O 172.314 -1.91084 0.362903 0
M  V30 1776 C 172.597 -0.485066 3.56818 0
M  V30 1777 C 172.45 0.795919 4.42702 0
M  V30 1778 C 173.769 -1.28003 4.21074 0
M  V30 1779 H 170.888 -0.0736607 0.73331 0
M  V30 1780 H 173.53 0.506581 1.83122 0
M  V30 1781 H 171.68 -1.09272 3.72816 0
M  V30 1782 H 173.352 1.43307 4.38476 0
M  V30 1783 H 171.595 1.41344 4.10127 0
M  V30 1784 H 172.266 0.555947 5.49193 0
M  V30 1785 H 174.742 -0.765867 4.08991 0
M  V30 1786 H 173.618 -1.44352 5.29579 0
M  V30 1787 H 173.879 -2.29236 3.78026 0
M  V30 1788 N 172.938 -1.57226 0.108567 0
M  V30 1789 C 173.901 -2.13602 -0.831082 0
M  V30 1790 C 174.901 -1.06841 -1.20173 0
M  V30 1791 O 176.091 -1.32666 -1.12895 0
M  V30 1792 C 173.223 -2.66769 -2.12243 0
M  V30 1793 H 174.416 -2.97951 -0.341317 0
M  V30 1794 H 171.969 -1.55667 -0.14057 0
M  V30 1795 H 172.704 -1.85977 -2.65675 0
M  V30 1796 H 172.489 -3.44839 -1.86625 0
M  V30 1797 H 173.979 -3.10332 -2.79435 0
M  V30 1798 N 174.416 0.165178 -1.56732 0
M  V30 1799 C 175.662 0.882112 -1.82611 0
M  V30 1800 C 175.995 1.81628 -0.687378 0
M  V30 1801 O 175.27 1.92009 0.310267 0
M  V30 1802 C 175.553 1.67245 -3.18906 0
M  V30 1803 C 175.406 0.760987 -4.43316 0
M  V30 1804 C 176.725 2.63884 -3.52212 0
M  V30 1805 H 173.844 0.319242 -0.664269 0
M  V30 1806 H 176.486 0.148052 -1.89422 0
M  V30 1807 H 174.636 2.29824 -3.1323 0
M  V30 1808 H 176.308 0.147596 -4.61064 0
M  V30 1809 H 174.551 0.0694102 -4.33744 0
M  V30 1810 H 175.222 1.34962 -5.35247 0
M  V30 1811 H 177.698 2.11429 -3.58381 0
M  V30 1812 H 176.574 3.16245 -4.48643 0
M  V30 1813 H 176.835 3.44377 -2.77231 0
M  V30 1814 N 175.894 1.51508 0.433938 0
M  V30 1815 C 176.804 1.75917 1.5521 0
M  V30 1816 C 177.82 0.643545 1.61662 0
M  V30 1817 O 178.996 0.926183 1.7884 0
M  V30 1818 C 176.061 1.88213 2.91164 0
M  V30 1819 C 175.122 3.12074 2.94802 0
M  V30 1820 C 174.355 3.23774 4.24271 0
M  V30 1821 O 174.578 2.4133 5.16833 0
M  V30 1822 O 173.512 4.16774 4.34262 0
M  V30 1823 H 177.338 2.70777 1.37527 0
M  V30 1824 H 174.923 1.36051 0.617293 0
M  V30 1825 H 176.805 1.98267 3.71845 0
M  V30 1826 H 175.48 0.965413 3.08968 0
M  V30 1827 H 174.387 3.07497 2.13065 0
M  V30 1828 H 175.72 4.03446 2.81943 0
M  V30 1829 N 177.372 -0.689602 1.41712 0
M  V30 1830 C 178.282 -1.83314 1.46401 0
M  V30 1831 C 179.298 -1.7036 0.35405 0
M  V30 1832 O 180.474 -1.92171 0.602692 0
M  V30 1833 C 177.539 -3.19344 1.34982 0
M  V30 1834 C 176.6 -3.44363 2.56344 0
M  V30 1835 C 175.833 -4.73904 2.45461 0
M  V30 1836 O 176.056 -5.508 1.48241 0
M  V30 1837 O 174.99 -4.99839 3.35328 0
M  V30 1838 H 178.816 -1.82314 2.42889 0
M  V30 1839 H 176.401 -0.843438 1.23315 0
M  V30 1840 H 178.283 -4.00547 1.3092 0
M  V30 1841 H 176.958 -3.21014 0.41612 0
M  V30 1842 H 175.865 -2.63067 2.65982 0
M  V30 1843 H 177.198 -3.47512 3.48563 0
M  V30 1844 N 178.85 -1.27639 -0.924453 0
M  V30 1845 C 180.127 -1.04887 -1.651 0
M  V30 1846 C 180.507 0.415327 -2.06974 0
M  V30 1847 O 179.855 1.39923 -1.80648 0
M  V30 1848 C 180.065 -2.01348 -2.85061 0
M  V30 1849 C 181.413 -2.30899 -3.56329 0
M  V30 1850 O 182.437 -1.99348 -2.95193 0
M  V30 1851 O 181.296 -2.84699 -4.66485 0
M  V30 1852 H 178.39 -0.400083 -0.723784 0
M  V30 1853 H 180.936 -1.38916 -0.974703 0
M  V30 1854 H 179.708 -3.0008 -2.51133 0
M  V30 1855 H 179.331 -1.679 -3.6041 0
M  V30 1856 N 180.328 1.1314 -1.09713 0
M  V30 1857 C 181.291 2.16831 -0.742751 0
M  V30 1858 C 182.291 1.59159 0.229129 0
M  V30 1859 O 183.481 1.74199 0.00693237 0
M  V30 1860 C 180.613 3.40756 -0.0989168 0
M  V30 1861 H 181.806 2.49695 -1.66109 0
M  V30 1862 H 179.359 1.2802 -0.896699 0
M  V30 1863 H 180.094 3.13485 0.830514 0
M  V30 1864 H 179.879 3.83888 -0.798265 0
M  V30 1865 H 181.369 4.17386 0.133524 0
M  V30 1866 N 181.806 0.884767 1.30421 0
M  V30 1867 C 182.716 0.355398 2.31892 0
M  V30 1868 C 183.732 -0.542261 1.65335 0
M  V30 1869 O 184.908 -0.435432 1.96637 0
M  V30 1870 C 181.973 -0.421661 3.44126 0
M  V30 1871 C 181.034 0.505727 4.26311 0
M  V30 1872 C 180.267 -0.234343 5.33185 0
M  V30 1873 O 180.49 -1.46045 5.51386 0
M  V30 1874 O 179.424 0.415443 6.00465 0
M  V30 1875 H 183.25 1.19685 2.79122 0
M  V30 1876 H 180.835 0.648596 1.34587 0
M  V30 1877 H 182.717 -0.861641 4.12497 0
M  V30 1878 H 181.392 -1.23942 2.99032 0
M  V30 1879 H 180.299 0.994513 3.60639 0
M  V30 1880 H 181.632 1.28948 4.75009 0
M  V30 1881 N 183.284 -1.43765 0.645699 0
M  V30 1882 C 184.509 -2.06767 0.161883 0
M  V30 1883 C 184.934 -1.48034 -1.16049 0
M  V30 1884 O 184.292 -0.587369 -1.71522 0
M  V30 1885 C 184.34 -3.60519 0.0762003 0
M  V30 1886 O 183.444 -4.00982 -0.963721 0
M  V30 1887 H 182.785 -0.657675 0.091429 0
M  V30 1888 H 185.315 -1.84397 0.886499 0
M  V30 1889 H 185.325 -4.07853 -0.109604 0
M  V30 1890 H 184 -4.02646 1.04157 0
M  V30 1891 H 182.577 -3.65253 -0.751312 0
M  V30 1892 N 184.763 -0.387143 -1.52771 0
M  V30 1893 C 185.673 0.456442 -2.30117 0
M  V30 1894 C 186.689 1.07342 -1.36944 0
M  V30 1895 O 187.865 1.07971 -1.70013 0
M  V30 1896 C 184.93 1.56957 -3.09136 0
M  V30 1897 C 183.991 0.977916 -4.18014 0
M  V30 1898 C 183.224 2.038 -4.93256 0
M  V30 1899 O 183.447 3.25271 -4.68567 0
M  V30 1900 O 182.381 1.6565 -5.78657 0
M  V30 1901 H 186.207 -0.17359 -3.03203 0
M  V30 1902 H 183.792 -0.150919 -1.48636 0
M  V30 1903 H 185.674 2.21628 -3.58412 0
M  V30 1904 H 184.349 2.18461 -2.38865 0
M  V30 1905 H 183.256 0.294525 -3.72939 0
M  V30 1906 H 184.589 0.407128 -4.90513 0
M  V30 1907 N 186.241 1.57166 -0.116904 0
M  V30 1908 C 187.518 1.86645 0.585049 0
M  V30 1909 C 187.898 1.0177 1.84949 0
M  V30 1910 O 187.246 0.0960379 2.28298 0
M  V30 1911 C 187.456 3.37736 0.879507 0
M  V30 1912 C 188.804 4.06289 1.23348 0
M  V30 1913 O 189.828 3.42743 0.969836 0
M  V30 1914 O 188.687 5.18455 1.7282 0
M  V30 1915 H 185.781 0.772593 0.295007 0
M  V30 1916 H 188.327 1.69025 -0.151249 0
M  V30 1917 H 187.099 3.91296 -0.0166136 0
M  V30 1918 H 186.722 3.6078 1.67103 0
M  V30 1919 N 187.719 -0.156864 1.56817 0
M  V30 1920 C 188.629 -1.2136 2.00771 0
M  V30 1921 C 189.645 -1.47598 0.921459 0
M  V30 1922 O 190.821 -1.59462 1.2302 0
M  V30 1923 C 187.886 -2.52943 2.37109 0
M  V30 1924 C 186.947 -2.34439 3.59634 0
M  V30 1925 C 186.18 -3.59748 3.94229 0
M  V30 1926 O 186.403 -4.65526 3.29609 0
M  V30 1927 O 185.337 -3.52998 4.8752 0
M  V30 1928 H 189.163 -0.870468 2.90958 0
M  V30 1929 H 186.748 -0.36484 1.44877 0
M  V30 1930 H 188.63 -3.30538 2.61386 0
M  V30 1931 H 187.305 -2.86806 1.5008 0
M  V30 1932 H 186.212 -1.54828 3.40557 0
M  V30 1933 H 187.545 -2.05496 4.4725 0
M  V30 1934 N 189.197 -1.51736 -0.425897 0
M  V30 1935 C 190.107 -1.76738 -1.54275 0
M  V30 1936 C 191.123 -0.65211 -1.61318 0
M  V30 1937 O 192.299 -0.935654 -1.78346 0
M  V30 1938 C 189.364 -1.89755 -2.90162 0
M  V30 1939 C 188.425 -3.13633 -2.93143 0
M  V30 1940 C 187.658 -3.2602 -4.22548 0
M  V30 1941 O 187.881 -2.44067 -5.15546 0
M  V30 1942 O 186.815 -4.19071 -4.32046 0
M  V30 1943 H 190.641 -2.71502 -1.36089 0
M  V30 1944 H 188.226 -1.36376 -0.610069 0
M  V30 1945 H 190.108 -2.00236 -3.70788 0
M  V30 1946 H 188.783 -0.981785 -3.08452 0
M  V30 1947 H 187.69 -3.08622 -2.11431 0
M  V30 1948 H 189.023 -4.04936 -2.798 0
M  V30 1949 N 190.675 0.682077 -1.42076 0
M  V30 1950 C 191.585 1.82535 -1.47371 0
M  V30 1951 C 192.601 1.7017 -0.363079 0
M  V30 1952 O 193.777 1.91848 -0.612875 0
M  V30 1953 C 190.842 3.18624 -1.36674 0
M  V30 1954 C 189.903 3.42999 -2.58167 0
M  V30 1955 C 189.136 4.72595 -2.4797 0
M  V30 1956 O 189.359 5.50006 -1.5116 0
M  V30 1957 O 188.293 4.98054 -3.37974 0
M  V30 1958 H 192.119 1.81023 -2.43853 0
M  V30 1959 H 189.704 0.836887 -1.2376 0
M  V30 1960 H 191.586 3.99847 -1.33043 0
M  V30 1961 H 190.261 3.20789 -0.433138 0
M  V30 1962 H 189.168 2.61653 -2.67373 0
M  V30 1963 H 190.501 3.45659 -3.50401 0
M  V30 1964 N 192.153 1.28127 0.917671 0
M  V30 1965 C 193.063 1.13556 2.05286 0
M  V30 1966 C 194.079 0.0630914 1.73886 0
M  V30 1967 O 195.255 0.271598 1.9956 0
M  V30 1968 C 192.32 0.794676 3.3747 0
M  V30 1969 C 191.381 1.94909 3.82504 0
M  V30 1970 C 190.614 1.62437 5.0838 0
M  V30 1971 O 190.837 0.536905 5.67867 0
M  V30 1972 O 189.771 2.46677 5.4903 0
M  V30 1973 H 193.597 2.08844 2.20495 0
M  V30 1974 H 191.182 1.07409 1.03845 0
M  V30 1975 H 193.064 0.618344 4.16839 0
M  V30 1976 H 191.739 -0.128581 3.23445 0
M  V30 1977 H 190.646 2.18055 3.03978 0
M  V30 1978 H 191.979 2.85291 4.01086 0
M  V30 1979 N 193.631 -1.12557 1.10312 0
M  V30 1980 C 194.908 -1.80363 0.756878 0
M  V30 1981 C 195.288 -1.97067 -0.756824 0
M  V30 1982 O 194.636 -1.54601 -1.68259 0
M  V30 1983 C 194.846 -3.14812 1.50647 0
M  V30 1984 C 196.194 -3.90029 1.67817 0
M  V30 1985 O 197.218 -3.24464 1.46974 0
M  V30 1986 O 196.077 -5.07652 2.02365 0
M  V30 1987 H 193.171 -0.780667 0.272926 0
M  V30 1988 H 195.717 -1.19404 1.20586 0
M  V30 1989 H 194.489 -2.97936 2.53672 0
M  V30 1990 H 194.112 -3.83478 1.05026 0
M  V30 1991 N 195.109 -0.891671 -1.2995 0
M  V30 1992 C 196.355 -0.514261 -1.96171 0
M  V30 1993 C 196.688 0.935506 -1.70182 0
M  V30 1994 O 195.963 1.66204 -1.01028 0
M  V30 1995 C 196.246 -0.797719 -3.51153 0
M  V30 1996 C 196.099 -2.2986 -3.86632 0
M  V30 1997 C 197.418 -0.278749 -4.39216 0
M  V30 1998 H 194.537 -0.188314 -0.712535 0
M  V30 1999 H 197.179 -1.11689 -1.53706 0
M  V30 2000 H 195.329 -0.284826 -3.87455 0
M  V30 2001 H 197.001 -2.88042 -3.60319 0
M  V30 2002 H 195.244 -2.76257 -3.34462 0
M  V30 2003 H 195.915 -2.44753 -4.94773 0
M  V30 2004 H 198.391 -0.717825 -4.09862 0
M  V30 2005 H 197.267 -0.506353 -5.46559 0
M  V30 2006 H 197.528 0.820266 -4.34424 0
M  V30 2007 N 196.587 1.43421 -0.653314 0
M  V30 2008 C 197.534 2.30768 0.0382271 0
M  V30 2009 C 198.504 1.44755 0.814576 0
M  V30 2010 O 199.689 1.73624 0.791162 0
M  V30 2011 C 196.829 3.30336 0.998599 0
M  V30 2012 C 195.942 4.31448 0.218342 0
M  V30 2013 C 195.077 5.18098 1.17252 0
M  V30 2014 C 194.116 6.10902 0.382702 0
M  V30 2015 N 193.253 6.90176 1.28848 0
M  V30 2016 H 198.093 2.89357 -0.712511 0
M  V30 2017 H 195.63 1.42548 -0.363128 0
M  V30 2018 H 197.588 3.86572 1.56901 0
M  V30 2019 H 196.218 2.73397 1.71621 0
M  V30 2020 H 195.27 3.77506 -0.46836 0
M  V30 2021 H 196.582 4.97227 -0.395812 0
M  V30 2022 H 195.736 5.7896 1.81356 0
M  V30 2023 H 194.475 4.52444 1.82058 0
M  V30 2024 H 193.48 5.49128 -0.27169 0
M  V30 2025 H 194.705 6.78598 -0.260957 0
M  V30 2026 H 192.651 6.27171 1.92334 0
M  V30 2027 H 192.568 7.52478 0.728887 0
M  V30 2028 H 193.836 7.55543 1.91766 0
M  V30 2029 N 198.065 0.39524 1.52563 0
M  V30 2030 C 198.995 -0.428384 2.29537 0
M  V30 2031 C 199.976 -1.05831 1.33169 0
M  V30 2032 O 201.161 -1.06995 1.62067 0
M  V30 2033 C 198.291 -1.55274 3.10656 0
M  V30 2034 C 197.245 -1.04855 4.14957 0
M  V30 2035 C 196.571 -2.26543 4.84337 0
M  V30 2036 C 197.871 -0.112324 5.22179 0
M  V30 2037 H 199.565 0.213867 2.98635 0
M  V30 2038 H 197.111 0.104298 1.43622 0
M  V30 2039 H 199.064 -2.1358 3.63265 0
M  V30 2040 H 197.788 -2.22266 2.39302 0
M  V30 2041 H 196.447 -0.487985 3.63338 0
M  V30 2042 H 196.095 -2.92059 4.09525 0
M  V30 2043 H 195.795 -1.93466 5.54837 0
M  V30 2044 H 197.319 -2.85481 5.39753 0
M  V30 2045 H 198.733 -0.603752 5.70112 0
M  V30 2046 H 197.13 0.128968 5.99961 0
M  V30 2047 H 198.2 0.837052 4.77621 0
M  V30 2048 N 199.544 -1.57102 0.125237 0
M  V30 2049 C 200.474 -2.18659 -0.819174 0
M  V30 2050 C 201.455 -1.12843 -1.27281 0
M  V30 2051 O 202.64 -1.41104 -1.33429 0
M  V30 2052 C 199.77 -2.79096 -2.06695 0
M  V30 2053 C 198.724 -3.90548 -1.75088 0
M  V30 2054 C 198.05 -4.37821 -3.06948 0
M  V30 2055 C 199.35 -5.12356 -1.01435 0
M  V30 2056 H 201.044 -2.9783 -0.306202 0
M  V30 2057 H 198.59 -1.4326 -0.145839 0
M  V30 2058 H 200.543 -3.2082 -2.73226 0
M  V30 2059 H 199.267 -1.97223 -2.60328 0
M  V30 2060 H 197.926 -3.49409 -1.10944 0
M  V30 2061 H 197.574 -3.52799 -3.58527 0
M  V30 2062 H 197.274 -5.12982 -2.86571 0
M  V30 2063 H 198.798 -4.822 -3.74587 0
M  V30 2064 H 200.212 -5.5106 -1.58132 0
M  V30 2065 H 198.609 -5.9314 -0.911319 0
M  V30 2066 H 199.679 -4.849 -0.00218681 0
M  V30 2067 N 201.022 0.148545 -1.56898 0
M  V30 2068 C 202.247 0.880385 -1.87787 0
M  V30 2069 C 202.672 1.74018 -0.714093 0
M  V30 2070 O 202.03 1.78153 0.336343 0
M  V30 2071 C 202.078 1.71422 -3.17249 0
M  V30 2072 O 201.182 2.8183 -3.01074 0
M  V30 2073 H 200.523 0.245301 -0.617028 0
M  V30 2074 H 203.053 0.139826 -2.04122 0
M  V30 2075 H 203.063 2.10954 -3.49231 0
M  V30 2076 H 201.738 1.08284 -4.01556 0
M  V30 2077 H 200.315 2.45715 -2.80497 0
M  V30 2078 N 202.5 1.5196 0.417844 0
M  V30 2079 C 203.749 1.6482 1.16264 0
M  V30 2080 C 204.062 0.379886 1.91876 0
M  V30 2081 O 205.268 0.388154 2.68711 0
M  V30 2082 C 203.724 2.91161 2.1155 0
M  V30 2083 C 203.332 4.25068 1.41495 0
M  V30 2084 C 205.076 3.13383 2.86341 0
M  V30 2085 C 202.983 5.42541 2.35379 0
M  V30 2086 H 201.913 0.613954 0.437694 0
M  V30 2087 H 204.564 1.78442 0.427871 0
M  V30 2088 H 202.946 2.71218 2.88543 0
M  V30 2089 H 204.12 4.55463 0.699263 0
M  V30 2090 H 202.435 4.0888 0.787792 0
M  V30 2091 H 205.032 3.98324 3.5671 0
M  V30 2092 H 205.375 2.27256 3.48798 0
M  V30 2093 H 205.908 3.33757 2.1645 0
M  V30 2094 H 202.647 6.30987 1.77582 0
M  V30 2095 H 202.167 5.16497 3.04945 0
M  V30 2096 H 203.846 5.75272 2.96093 0
M  V30 2097 N 203.978 -0.674533 1.42435 0
M  V30 2098 C 205.203 -1.46784 1.46524 0
M  V30 2099 C 205.628 -1.87938 0.078066 0
M  V30 2100 O 204.986 -1.56014 -0.92354 0
M  V30 2101 C 205.034 -2.69307 2.39805 0
M  V30 2102 O 204.138 -3.67587 1.86959 0
M  V30 2103 H 203.479 -0.440959 0.496439 0
M  V30 2104 H 206.009 -0.827326 1.87127 0
M  V30 2105 H 206.019 -3.17374 2.56393 0
M  V30 2106 H 204.694 -2.38692 3.40586 0
M  V30 2107 H 203.271 -3.2662 1.79927 0
M  V30 2108 N 205.456 -1.28612 -0.910864 0
M  V30 2109 C 206.704 -1.15705 -1.65701 0
M  V30 2110 C 207.025 0.29416 -1.92769 0
M  V30 2111 O 206.295 1.20331 -1.54588 0
M  V30 2112 H 204.875 -0.425216 -0.614167 0
M  V30 2113 H 207.537 -1.61381 -1.0928 0
M  V30 2114 H 206.633 -1.6988 -2.61815 0
M  V30 2115 N 206.934 1.1197 -1.10907 0
M  V30 2116 C 207.881 2.17846 -0.762345 0
M  V30 2117 C 208.851 1.63995 0.263599 0
M  V30 2118 O 210.036 1.90273 0.141773 0
M  V30 2119 C 207.176 3.44487 -0.205651 0
M  V30 2120 C 206.289 4.12369 -1.28748 0
M  V30 2121 C 205.424 5.26674 -0.691919 0
M  V30 2122 C 204.463 5.86431 -1.75399 0
M  V30 2123 N 203.6 6.92142 -1.17833 0
M  V30 2124 H 208.44 2.46851 -1.6694 0
M  V30 2125 H 205.977 1.21188 -0.833776 0
M  V30 2126 H 207.935 4.16981 0.135037 0
M  V30 2127 H 206.565 3.15884 0.664613 0
M  V30 2128 H 205.617 3.38003 -1.74522 0
M  V30 2129 H 206.929 4.52844 -2.09125 0
M  V30 2130 H 206.083 6.05953 -0.300963 0
M  V30 2131 H 204.822 4.8749 0.143232 0
M  V30 2132 H 203.827 5.05835 -2.15432 0
M  V30 2133 H 205.052 6.27685 -2.59208 0
M  V30 2134 H 202.998 6.54985 -0.364725 0
M  V30 2135 H 202.915 7.31242 -1.91887 0
M  V30 2136 H 204.183 7.75237 -0.81408 0
M  V30 2137 N 208.412 0.89855 1.29475 0
M  V30 2138 C 209.828 0.594483 1.48115 0
M  V30 2139 C 210.028 -0.86431 1.82022 0
M  V30 2140 O 209.084 -1.64457 1.91599 0
M  V30 2141 C 210.397 1.51932 2.59494 0
M  V30 2142 C 211.945 1.5244 2.7337 0
M  V30 2143 C 212.42 2.43548 3.87877 0
M  V30 2144 N 213.911 2.41589 3.95208 0
M  V30 2145 C 214.646 3.08789 4.83153 0
M  V30 2146 N 214.142 3.85265 5.75798 0
M  V30 2147 N 215.935 2.97952 4.76635 0
M  V30 2148 H 208.086 1.84207 1.05742 0
M  V30 2149 H 210.349 0.789251 0.525154 0
M  V30 2150 H 210.055 2.55865 2.41301 0
M  V30 2151 H 209.929 1.23899 3.56271 0
M  V30 2152 H 212.316 0.492518 2.90961 0
M  V30 2153 H 212.397 1.8451 1.77172 0
M  V30 2154 H 212.041 3.46829 3.71041 0
M  V30 2155 H 211.971 2.08788 4.83441 0
M  V30 2156 H 214.462 1.86025 3.28943 0
M  V30 2157 H 214.775 4.33598 6.39697 0
M  V30 2158 H 213.12 3.89371 5.75687 0
M  V30 2159 H 216.311 2.37723 4.03244 0
M  V30 2160 H 216.484 3.50599 5.44962 0
M  V30 2161 N 209.89 -1.43072 0.660911 0
M  V30 2162 C 211.115 -2.06584 0.183805 0
M  V30 2163 C 211.54 -1.49257 -1.14472 0
M  V30 2164 O 210.898 -0.605528 -1.70889 0
M  V30 2165 C 210.946 -3.60418 0.114434 0
M  V30 2166 O 210.05 -4.01981 -0.921137 0
M  V30 2167 H 209.391 -0.656669 0.0983994 0
M  V30 2168 H 211.921 -1.83447 0.906006 0
M  V30 2169 H 211.931 -4.07946 -0.0663394 0
M  V30 2170 H 210.606 -4.01519 1.08422 0
M  V30 2171 H 209.183 -3.66029 -0.71253 0
M  V30 2172 N 211.368 -0.403325 -1.52352 0
M  V30 2173 C 212.331 0.413051 -2.25447 0
M  V30 2174 C 213.331 0.978513 -1.276 0
M  V30 2175 O 214.521 0.858305 -1.51587 0
M  V30 2176 C 211.653 1.58087 -3.02029 0
M  V30 2177 H 212.846 -0.227094 -2.99039 0
M  V30 2178 H 210.399 -0.155722 -1.55522 0
M  V30 2179 H 211.134 2.25804 -2.32772 0
M  V30 2180 H 210.919 1.18195 -3.73861 0
M  V30 2181 H 212.409 2.1585 -3.57489 0
M  V30 2182 N 212.846 1.57033 -0.133567 0
M  V30 2183 C 214.257 1.82593 0.389464 0
M  V30 2184 C 214.608 1.05156 1.6564 0
M  V30 2185 O 213.733 0.292644 2.14412 0
M  V30 2186 C 214.328 3.31204 0.713377 0
M  V30 2187 C 212.887 3.57393 1.18098 0
M  V30 2188 C 212.034 2.76598 0.197126 0
M  V30 2189 H 214.985 1.54598 -0.358481 0
M  V30 2190 H 215.006 3.46627 1.56939 0
M  V30 2191 H 214.518 3.87537 -0.2089 0
M  V30 2192 H 212.619 3.06433 2.11966 0
M  V30 2193 H 212.732 4.65915 1.11624 0
M  V30 2194 H 211.096 2.45257 0.687088 0
M  V30 2195 H 211.879 3.35697 -0.718504 0
M  V30 2196 N 214.325 -0.140222 1.56975 0
M  V30 2197 C 215.573 -0.850005 1.83356 0
M  V30 2198 C 215.894 -1.81399 0.71551 0
M  V30 2199 O 215.164 -1.94136 -0.262294 0
M  V30 2200 H 213.744 -0.316886 0.676456 0
M  V30 2201 H 216.406 -0.132608 1.94448 0
M  V30 2202 H 215.502 -1.40814 2.78528 0
M  V30 2203 N 215.803 -1.52179 -0.40978 0
M  V30 2204 C 217.051 -1.65878 -1.15451 0
M  V30 2205 C 217.372 -0.390771 -1.91044 0
M  V30 2206 O 216.642 0.594323 -1.86667 0
M  V30 2207 H 215.222 -0.611405 -0.429177 0
M  V30 2208 H 217.884 -1.89219 -0.467134 0
M  V30 2209 H 216.98 -2.49954 -1.86894 0
M  V30 2210 N 217.281 0.66697 -1.42791 0
M  V30 2211 C 218.529 1.42417 -1.43394 0
M  V30 2212 C 218.85 1.94925 -0.0542373 0
M  V30 2213 O 218.12 1.73564 0.908415 0
M  V30 2214 H 216.7 0.528515 -0.527902 0
M  V30 2215 H 219.362 0.787562 -1.78279 0
M  V30 2216 H 218.458 2.27333 -2.13837 0
M  V30 2217 N 218.759 1.29093 0.90403 0
M  V30 2218 C 219.984 1.19809 1.69294 0
M  V30 2219 C 220.409 -0.238481 1.86582 0
M  V30 2220 O 219.767 -1.1723 1.383 0
M  V30 2221 C 219.815 1.91202 3.05736 0
M  V30 2222 O 218.919 1.22611 3.93752 0
M  V30 2223 H 218.26 0.415385 0.518027 0
M  V30 2224 H 220.79 1.70586 1.12967 0
M  V30 2225 H 220.8 1.99487 3.55906 0
M  V30 2226 H 219.475 2.95692 2.92471 0
M  V30 2227 H 218.052 1.22554 3.52186 0
M  V30 2228 N 220.237 -1.11381 1.11499 0
M  V30 2229 C 221.184 -2.17439 0.773887 0
M  V30 2230 C 222.154 -1.64132 -0.254899 0
M  V30 2231 O 223.339 -1.90345 -0.13168 0
M  V30 2232 C 220.479 -3.44373 0.223917 0
M  V30 2233 C 219.592 -4.1168 1.30934 0
M  V30 2234 C 218.727 -5.263 0.71984 0
M  V30 2235 C 217.766 -5.85493 1.78507 0
M  V30 2236 N 216.903 -6.91507 1.21502 0
M  V30 2237 H 221.743 -2.45962 1.68246 0
M  V30 2238 H 219.28 -1.20744 0.840191 0
M  V30 2239 H 221.238 -4.17047 -0.112921 0
M  V30 2240 H 219.868 -3.16232 -0.647851 0
M  V30 2241 H 218.92 -3.37073 1.76312 0
M  V30 2242 H 220.232 -4.51729 2.11524 0
M  V30 2243 H 219.386 -6.05785 0.333094 0
M  V30 2244 H 218.125 -4.87559 -0.117377 0
M  V30 2245 H 217.13 -5.04686 2.18111 0
M  V30 2246 H 218.355 -6.26301 2.62533 0
M  V30 2247 H 216.301 -6.54783 0.399455 0
M  V30 2248 H 216.218 -7.30214 1.95763 0
M  V30 2249 H 217.486 -7.74795 0.855181 0
M  V30 2250 N 221.715 -0.905404 -1.28997 0
M  V30 2251 C 222.961 -0.535039 -1.95615 0
M  V30 2252 C 223.294 0.917404 -1.71165 0
M  V30 2253 O 222.569 1.65123 -1.02785 0
M  V30 2254 C 222.852 -0.834918 -3.50287 0
M  V30 2255 C 222.705 -2.33948 -3.84172 0
M  V30 2256 C 224.024 -0.325318 -4.38896 0
M  V30 2257 H 221.143 -0.195861 -0.710498 0
M  V30 2258 H 223.785 -1.13313 -1.52513 0
M  V30 2259 H 221.935 -0.325904 -3.87131 0
M  V30 2260 H 223.607 -2.91847 -3.57243 0
M  V30 2261 H 221.85 -2.79789 -3.31513 0
M  V30 2262 H 222.521 -2.49987 -4.92149 0
M  V30 2263 H 224.997 -0.761256 -4.09077 0
M  V30 2264 H 223.873 -0.564295 -5.45992 0
M  V30 2265 H 224.134 0.774144 -4.35269 0
M  V30 2266 N 223.193 1.4272 -0.668489 0
M  V30 2267 C 224.604 1.84793 -0.266151 0
M  V30 2268 C 224.955 1.55959 1.19043 0
M  V30 2269 O 224.08 1.01622 1.91055 0
M  V30 2270 C 224.675 3.35436 -0.476271 0
M  V30 2271 C 223.234 3.76182 -0.128113 0
M  V30 2272 C 222.381 2.66344 -0.771777 0
M  V30 2273 H 225.332 1.32656 -0.871098 0
M  V30 2274 H 225.353 3.79515 0.273561 0
M  V30 2275 H 224.865 3.5639 -1.53647 0
M  V30 2276 H 222.966 3.60836 0.928891 0
M  V30 2277 H 223.079 4.75766 -0.564231 0
M  V30 2278 H 221.443 2.53885 -0.203652 0
M  V30 2279 H 222.226 2.90123 -1.83531 0
M  V30 2280 N 224.671 0.411399 1.52136 0
M  V30 2281 C 225.603 -0.448386 2.24771 0
M  V30 2282 C 226.616 -1.00828 1.27818 0
M  V30 2283 O 227.805 -0.906841 1.53749 0
M  V30 2284 C 224.905 -1.63636 2.96777 0
M  V30 2285 C 224.078 -1.19995 4.20618 0
M  V30 2286 C 223.137 -2.25509 4.75428 0
M  V30 2287 O 222.163 -1.86007 5.3795 0
M  V30 2288 N 223.365 -3.577 4.57199 0
M  V30 2289 H 226.13 0.174025 2.99194 0
M  V30 2290 H 223.691 0.238897 1.60128 0
M  V30 2291 H 225.683 -2.33793 3.30338 0
M  V30 2292 H 224.253 -2.16465 2.25526 0
M  V30 2293 H 223.473 -0.326421 3.92846 0
M  V30 2294 H 224.761 -0.885365 5.01038 0
M  V30 2295 H 224.159 -3.92543 4.07341 0
M  V30 2296 H 222.716 -4.23827 4.95191 0
M  V30 2297 N 226.149 -1.5696 0.141893 0
M  V30 2298 C 227.096 -2.16501 -0.799737 0
M  V30 2299 C 228.066 -1.09643 -1.24771 0
M  V30 2300 O 229.251 -1.3766 -1.32115 0
M  V30 2301 C 226.391 -2.78679 -2.03549 0
M  V30 2302 C 225.504 -3.99914 -1.6338 0
M  V30 2303 C 224.639 -4.50106 -2.82096 0
M  V30 2304 C 223.678 -5.63819 -2.38275 0
M  V30 2305 N 222.815 -6.08651 -3.49983 0
M  V30 2306 H 227.655 -2.96632 -0.285179 0
M  V30 2307 H 225.192 -1.46533 -0.129053 0
M  V30 2308 H 227.15 -3.1287 -2.75986 0
M  V30 2309 H 225.78 -2.012 -2.52425 0
M  V30 2310 H 224.832 -3.71735 -0.807279 0
M  V30 2311 H 226.144 -4.82311 -1.27192 0
M  V30 2312 H 225.298 -4.86325 -3.62729 0
M  V30 2313 H 224.037 -3.66706 -3.21525 0
M  V30 2314 H 223.042 -5.2718 -1.56081 0
M  V30 2315 H 224.267 -6.49 -1.99938 0
M  V30 2316 H 222.213 -5.28188 -3.89042 0
M  V30 2317 H 222.13 -6.85961 -3.17794 0
M  V30 2318 H 223.398 -6.49515 -4.30988 0
M  V30 2319 N 227.627 0.131896 -1.57047 0
M  V30 2320 C 228.574 1.16236 -1.99393 0
M  V30 2321 C 229.544 1.41863 -0.863943 0
M  V30 2322 O 230.729 1.53946 -1.12718 0
M  V30 2323 C 227.869 2.48708 -2.39245 0
M  V30 2324 C 226.982 2.30127 -3.65603 0
M  V30 2325 C 226.117 3.55738 -3.94492 0
M  V30 2326 C 225.156 3.32259 -5.14073 0
M  V30 2327 N 224.293 4.50039 -5.38896 0
M  V30 2328 H 229.133 0.794251 -2.87221 0
M  V30 2329 H 226.67 0.380707 -1.42088 0
M  V30 2330 H 228.628 3.25969 -2.60384 0
M  V30 2331 H 227.258 2.83437 -1.54478 0
M  V30 2332 H 226.31 1.43845 -3.52154 0
M  V30 2333 H 227.622 2.08746 -4.5302 0
M  V30 2334 H 226.776 4.41423 -4.1621 0
M  V30 2335 H 225.515 3.80138 -3.05526 0
M  V30 2336 H 224.52 2.44963 -4.92212 0
M  V30 2337 H 225.745 3.09242 -6.04604 0
M  V30 2338 H 223.691 4.74584 -4.52886 0
M  V30 2339 H 223.608 4.31716 -6.2061 0
M  V30 2340 H 224.876 5.36895 -5.65123 0
M  V30 2341 N 229.106 1.52395 0.401703 0
M  V30 2342 C 230.352 1.67065 1.14966 0
M  V30 2343 C 230.685 0.403052 1.89971 0
M  V30 2344 O 229.96 -0.598774 1.85054 0
M  V30 2345 C 230.243 2.8975 2.13815 0
M  V30 2346 C 230.096 4.26578 1.42658 0
M  V30 2347 C 231.415 3.07965 3.14397 0
M  V30 2348 H 228.534 0.607968 0.416587 0
M  V30 2349 H 231.176 1.84965 0.434511 0
M  V30 2350 H 229.326 2.74619 2.74803 0
M  V30 2351 H 230.998 4.53451 0.847329 0
M  V30 2352 H 229.241 4.27639 0.72849 0
M  V30 2353 H 229.912 5.08483 2.14823 0
M  V30 2354 H 232.388 3.22043 2.63491 0
M  V30 2355 H 231.264 3.95308 3.80819 0
M  V30 2356 H 231.525 2.21611 3.82545 0
M  V30 2357 N 230.584 -0.659388 1.43143 0
M  V30 2358 C 231.531 -1.77249 1.47822 0
M  V30 2359 C 232.501 -1.62818 0.328558 0
M  V30 2360 O 233.686 -1.83151 0.534838 0
M  V30 2361 C 230.826 -3.15371 1.40126 0
M  V30 2362 C 229.939 -3.4098 2.65249 0
M  V30 2363 C 229.074 -4.68915 2.49584 0
M  V30 2364 C 228.113 -4.87608 3.70006 0
M  V30 2365 N 227.25 -6.06796 3.53189 0
M  V30 2366 H 232.09 -1.72584 2.42938 0
M  V30 2367 H 229.627 -0.842297 1.20598 0
M  V30 2368 H 231.585 -3.9521 1.33659 0
M  V30 2369 H 230.215 -3.19121 0.485964 0
M  V30 2370 H 229.267 -2.55282 2.8202 0
M  V30 2371 H 230.579 -3.50681 3.54717 0
M  V30 2372 H 229.733 -5.56871 2.4079 0
M  V30 2373 H 228.472 -4.61524 1.5763 0
M  V30 2374 H 227.477 -3.9809 3.79215 0
M  V30 2375 H 228.702 -4.96834 4.62961 0
M  V30 2376 H 226.648 -6.00549 2.63965 0
M  V30 2377 H 226.565 -6.17428 4.36255 0
M  V30 2378 H 227.833 -6.9739 3.48236 0
M  V30 2379 N 232.062 -1.29571 -0.897171 0
M  V30 2380 C 232.992 -1.17473 -2.01798 0
M  V30 2381 C 233.973 -0.068323 -1.69963 0
M  V30 2382 O 235.158 -0.248239 -1.92607 0
M  V30 2383 C 232.288 -0.853099 -3.36659 0
M  V30 2384 C 231.242 -1.9161 -3.82713 0
M  V30 2385 C 230.568 -1.44773 -5.14728 0
M  V30 2386 C 231.868 -3.32535 -4.02763 0
M  V30 2387 H 233.562 -2.11237 -2.12177 0
M  V30 2388 H 231.108 -1.01699 -1.01948 0
M  V30 2389 H 233.061 -0.755165 -4.14578 0
M  V30 2390 H 231.785 0.120236 -3.26379 0
M  V30 2391 H 230.444 -2.00346 -3.07013 0
M  V30 2392 H 230.092 -0.462995 -5.00865 0
M  V30 2393 H 229.792 -2.15865 -5.46513 0
M  V30 2394 H 231.316 -1.36334 -5.95185 0
M  V30 2395 H 232.73 -3.26626 -4.71156 0
M  V30 2396 H 231.127 -4.01607 -4.45905 0
M  V30 2397 H 232.197 -3.75326 -3.07016 0
M  V30 2398 N 233.54 1.10788 -1.12088 0
M  V30 2399 C 234.503 2.15207 -0.788577 0
M  V30 2400 C 235.503 1.59609 0.195317 0
M  V30 2401 O 236.693 1.74174 -0.0300193 0
M  V30 2402 C 233.825 3.4047 -0.171174 0
M  V30 2403 H 235.018 2.46116 -1.71368 0
M  V30 2404 H 232.571 1.26089 -0.923652 0
M  V30 2405 H 233.306 3.15176 0.763832 0
M  V30 2406 H 233.091 3.82109 -0.879514 0
M  V30 2407 H 234.581 4.17576 0.04496 0
M  V30 2408 N 235.018 0.912232 1.28515 0
M  V30 2409 C 235.981 0.404223 2.25607 0
M  V30 2410 C 236.981 -0.468602 1.53821 0
M  V30 2411 O 238.171 -0.271873 1.72065 0
M  V30 2412 C 235.303 -0.420653 3.38295 0
M  V30 2413 H 236.496 1.26188 2.7206 0
M  V30 2414 H 234.049 0.691495 1.40171 0
M  V30 2415 H 234.784 -1.29777 2.97201 0
M  V30 2416 H 234.569 0.204935 3.91564 0
M  V30 2417 H 236.059 -0.766971 4.10496 0
M  V30 2418 N 236.496 -1.42363 0.676048 0
M  V30 2419 C 237.773 -1.95183 0.127726 0
M  V30 2420 C 238.153 -1.61641 -1.35777 0
M  V30 2421 O 237.501 -0.913216 -2.09458 0
M  V30 2422 C 237.711 -3.46721 0.398199 0
M  V30 2423 C 239.059 -4.23427 0.315383 0
M  V30 2424 O 240.083 -3.54649 0.332016 0
M  V30 2425 O 238.942 -5.45888 0.25865 0
M  V30 2426 H 236.036 -0.826992 0.00359427 0
M  V30 2427 H 238.582 -1.52184 0.750864 0
M  V30 2428 H 237.354 -3.64344 1.4272 0
M  V30 2429 H 236.977 -3.96769 -0.256885 0
M  V30 2430 N 237.974 -0.419461 -1.51915 0
M  V30 2431 C 238.884 0.407528 -2.31033 0
M  V30 2432 C 239.9 1.04413 -1.3919 0
M  V30 2433 O 241.076 1.0434 -1.72265 0
M  V30 2434 C 238.141 1.50365 -3.12396 0
M  V30 2435 C 237.202 0.889029 -4.19994 0
M  V30 2436 C 236.435 1.93291 -4.97468 0
M  V30 2437 O 236.658 3.15259 -4.75361 0
M  V30 2438 O 235.592 1.53339 -5.8204 0
M  V30 2439 H 239.418 -0.237865 -3.02767 0
M  V30 2440 H 237.003 -0.182413 -1.48282 0
M  V30 2441 H 238.885 2.13975 -3.63032 0
M  V30 2442 H 237.56 2.13345 -2.43445 0
M  V30 2443 H 236.467 0.215353 -3.7348 0
M  V30 2444 H 237.8 0.302991 -4.91267 0
M  V30 2445 N 239.452 1.56882 -0.150215 0
M  V30 2446 C 240.729 1.87844 0.545327 0
M  V30 2447 C 241.109 1.0567 1.82749 0
M  V30 2448 O 240.457 0.144442 2.28043 0
M  V30 2449 C 240.667 3.39526 0.80767 0
M  V30 2450 C 242.015 4.08814 1.14703 0
M  V30 2451 O 243.039 3.44723 0.896917 0
M  V30 2452 O 241.898 5.22004 1.61784 0
M  V30 2453 H 238.992 0.778677 0.278553 0
M  V30 2454 H 241.538 1.68666 -0.187068 0
M  V30 2455 H 240.31 3.91173 -0.0996096 0
M  V30 2456 H 239.933 3.64243 1.59413 0
M  V30 2457 N 240.93 -0.123565 1.57115 0
M  V30 2458 C 242.207 -0.862196 1.75572 0
M  V30 2459 C 242.587 -1.98279 0.724475 0
M  V30 2460 O 241.935 -2.27102 -0.252407 0
M  V30 2461 C 242.145 -1.38309 3.20424 0
M  V30 2462 C 243.493 -1.83724 3.82793 0
M  V30 2463 O 244.517 -1.47999 3.23998 0
M  V30 2464 O 243.376 -2.49685 4.86127 0
M  V30 2465 H 240.47 -0.409113 0.718718 0
M  V30 2466 H 243.016 -0.107661 1.69358 0
M  V30 2467 H 241.788 -0.578889 3.86994 0
M  V30 2468 H 241.411 -2.20046 3.31158 0
M  V30 2469 N 242.408 -1.52605 -0.393616 0
M  V30 2470 C 243.685 -1.58001 -1.15304 0
M  V30 2471 C 244.065 -0.370385 -2.07825 0
M  V30 2472 O 243.413 0.641638 -2.19306 0
M  V30 2473 C 243.623 -2.91652 -1.91677 0
M  V30 2474 C 244.971 -3.4522 -2.47201 0
M  V30 2475 O 245.995 -2.93495 -2.01839 0
M  V30 2476 O 244.854 -4.35579 -3.3005 0
M  V30 2477 H 241.948 -0.637068 -0.527327 0
M  V30 2478 H 244.494 -1.64939 -0.399141 0
M  V30 2479 H 243.266 -3.71136 -1.23992 0
M  V30 2480 H 242.889 -2.88077 -2.74039 0
M  V30 2481 N 243.887 0.651787 -1.4349 0
M  V30 2482 C 245.164 1.40909 -1.35661 0
M  V30 2483 C 245.544 2.11099 -0.00511733 0
M  V30 2484 O 244.892 2.04892 1.0115 0
M  V30 2485 C 245.102 2.3926 -2.54078 0
M  V30 2486 C 246.45 3.03217 -2.97228 0
M  V30 2487 O 247.474 2.49588 -2.54135 0
M  V30 2488 O 246.333 4.00455 -3.71885 0
M  V30 2489 H 243.427 0.629625 -0.536191 0
M  V30 2490 H 245.973 0.678575 -1.55542 0
M  V30 2491 H 244.745 1.86352 -3.44076 0
M  V30 2492 H 244.368 3.1976 -2.36303 0
M  V30 2493 N 245.365 1.30045 0.890287 0
M  V30 2494 C 246.642 1.09227 1.62262 0
M  V30 2495 C 247.022 -0.360305 2.08002 0
M  V30 2496 O 246.37 -1.35084 1.84295 0
M  V30 2497 C 246.58 2.08835 2.79623 0
M  V30 2498 C 247.928 2.40266 3.50082 0
M  V30 2499 O 248.952 2.07104 2.89804 0
M  V30 2500 O 247.811 2.96967 4.58773 0
M  V30 2501 H 244.905 0.419132 0.712922 0
M  V30 2502 H 247.451 1.41451 0.937529 0
M  V30 2503 H 246.223 3.06633 2.43089 0
M  V30 2504 H 245.846 1.77397 3.55832 0
M  V30 2505 N 246.843 -1.10192 1.12674 0
M  V30 2506 C 248.12 -1.78717 0.794965 0
M  V30 2507 C 248.5 -1.98628 -0.714853 0
M  V30 2508 O 247.848 -1.58135 -1.64941 0
M  V30 2509 C 248.058 -3.11546 1.5729 0
M  V30 2510 C 249.406 -3.86382 1.76052 0
M  V30 2511 O 250.43 -3.21274 1.53823 0
M  V30 2512 O 249.289 -5.03246 2.13087 0
M  V30 2513 H 246.383 -0.774702 0.289423 0
M  V30 2514 H 248.929 -1.16819 1.23091 0
M  V30 2515 H 247.701 -2.92489 2.59935 0
M  V30 2516 H 247.324 -3.81164 1.13137 0
M  V30 2517 N 248.321 -0.919034 -1.28029 0
M  V30 2518 C 249.231 -0.416756 -2.30869 0
M  V30 2519 C 250.247 0.498235 -1.66714 0
M  V30 2520 O 251.423 0.383144 -1.97722 0
M  V30 2521 C 248.488 0.330274 -3.45123 0
M  V30 2522 C 247.549 -0.618578 -4.2482 0
M  V30 2523 C 246.782 0.0928959 -5.33619 0
M  V30 2524 O 247.005 1.31375 -5.55065 0
M  V30 2525 O 245.939 -0.574499 -5.99152 0
M  V30 2526 H 249.765 -1.27043 -2.75851 0
M  V30 2527 H 247.35 -0.684052 -1.3282 0
M  V30 2528 H 249.232 0.751972 -4.14636 0
M  V30 2529 H 247.907 1.1597 -3.02213 0
M  V30 2530 H 246.814 -1.08978 -3.57875 0
M  V30 2531 H 248.147 -1.41497 -4.71423 0
M  V30 2532 N 249.799 1.42003 -0.683588 0
M  V30 2533 C 250.709 2.34597 -0.0109075 0
M  V30 2534 C 251.725 1.55576 0.779245 0
M  V30 2535 O 252.901 1.88107 0.719555 0
M  V30 2536 C 249.966 3.34199 0.922588 0
M  V30 2537 C 249.027 4.29115 0.125984 0
M  V30 2538 C 248.26 5.23959 1.01502 0
M  V30 2539 O 248.483 5.23952 2.25456 0
M  V30 2540 O 247.417 6.00053 0.47111 0
M  V30 2541 H 251.243 2.93675 -0.773853 0
M  V30 2542 H 248.828 1.42654 -0.443861 0
M  V30 2543 H 250.71 3.95365 1.45823 0
M  V30 2544 H 249.385 2.77582 1.66523 0
M  V30 2545 H 248.292 3.71335 -0.453969 0
M  V30 2546 H 249.625 4.88798 -0.577736 0
M  V30 2547 N 251.277 0.427512 1.51691 0
M  V30 2548 C 252.554 -0.201684 1.94557 0
M  V30 2549 C 252.934 -1.60981 1.36559 0
M  V30 2550 O 252.282 -2.21814 0.548702 0
M  V30 2551 C 252.492 -0.189394 3.48486 0
M  V30 2552 C 253.84 -0.39978 4.22714 0
M  V30 2553 O 254.864 -0.267945 3.55191 0
M  V30 2554 O 253.723 -0.661249 5.42485 0
M  V30 2555 H 250.817 -0.135261 0.815864 0
M  V30 2556 H 253.363 0.484782 1.62628 0
M  V30 2557 H 252.135 0.795431 3.8313 0
M  V30 2558 H 251.758 -0.919187 3.86829 0
M  V30 2559 N 252.755 -1.56801 0.158532 0
M  V30 2560 C 254.032 -1.88131 -0.535357 0
M  V30 2561 C 254.412 -1.06638 -1.82186 0
M  V30 2562 O 253.76 -0.156533 -2.27963 0
M  V30 2563 C 253.97 -3.39949 -0.789653 0
M  V30 2564 C 255.318 -4.09416 -1.12533 0
M  V30 2565 O 256.342 -3.45194 -0.878622 0
M  V30 2566 O 255.201 -5.22855 -1.59014 0
M  V30 2567 H 252.295 -0.780143 -0.27442 0
M  V30 2568 H 254.841 -1.68564 0.19601 0
M  V30 2569 H 253.613 -3.91115 0.120353 0
M  V30 2570 H 253.236 -3.65084 -1.57479 0
M  V30 2571 N 254.233 0.115231 -1.57178 0
M  V30 2572 C 255.51 0.852873 -1.76027 0
M  V30 2573 C 255.89 1.97892 -0.73498 0
M  V30 2574 O 255.238 2.27232 0.24036 0
M  V30 2575 C 255.448 1.36608 -3.21153 0
M  V30 2576 C 256.796 1.81692 -3.83762 0
M  V30 2577 O 257.82 1.46278 -3.24779 0
M  V30 2578 O 256.679 2.47104 -4.87444 0
M  V30 2579 H 253.773 0.405296 -0.720877 0
M  V30 2580 H 256.319 0.0986785 -1.69413 0
M  V30 2581 H 255.091 0.558357 -3.87296 0
M  V30 2582 H 254.714 2.18287 -3.3232 0
M  V30 2583 N 255.711 1.52812 0.385517 0
M  V30 2584 C 256.621 1.80766 1.49535 0
M  V30 2585 C 257.637 0.694651 1.59532 0
M  V30 2586 O 258.813 0.982611 1.75803 0
M  V30 2587 C 255.878 1.97381 2.85029 0
M  V30 2588 C 254.939 3.21295 2.84724 0
M  V30 2589 C 254.172 3.37108 4.13756 0
M  V30 2590 O 254.395 2.5765 5.08893 0
M  V30 2591 O 253.329 4.30378 4.20783 0
M  V30 2592 H 257.155 2.75015 1.28842 0
M  V30 2593 H 254.74 1.37946 0.573697 0
M  V30 2594 H 256.622 2.09996 3.65349 0
M  V30 2595 H 255.297 1.06322 3.05741 0
M  V30 2596 H 254.204 3.1412 2.03174 0
M  V30 2597 H 255.537 4.12212 2.68965 0
M  V30 2598 N 257.189 -0.644168 1.43834 0
M  V30 2599 C 258.466 -1.40188 1.36406 0
M  V30 2600 C 258.846 -2.11094 0.0163124 0
M  V30 2601 O 258.194 -2.05426 -1.00062 0
M  V30 2602 C 258.404 -2.3791 2.55343 0
M  V30 2603 C 259.752 -3.01637 2.98832 0
M  V30 2604 O 260.776 -2.48237 2.55455 0
M  V30 2605 O 259.635 -3.98477 3.74003 0
M  V30 2606 H 256.729 -0.626773 0.539523 0
M  V30 2607 H 259.275 -0.670317 1.559 0
M  V30 2608 H 258.047 -1.84525 3.4506 0
M  V30 2609 H 257.67 -3.18503 2.37995 0
M  V30 2610 N 258.668 -1.30515 -0.883378 0
M  V30 2611 C 259.945 -1.10086 -1.6168 0
M  V30 2612 C 260.325 0.349269 -2.08191 0
M  V30 2613 O 259.673 1.34105 -1.85008 0
M  V30 2614 C 259.883 -2.10315 -2.78511 0
M  V30 2615 C 261.231 -2.42119 -3.48803 0
M  V30 2616 O 262.255 -2.08638 -2.88702 0
M  V30 2617 O 261.114 -2.99396 -4.57192 0
M  V30 2618 H 258.208 -0.422907 -0.710689 0
M  V30 2619 H 260.754 -1.41947 -0.930015 0
M  V30 2620 H 259.526 -3.07917 -2.41459 0
M  V30 2621 H 259.149 -1.79282 -3.54886 0
M  V30 2622 N 260.146 1.09593 -1.13257 0
M  V30 2623 C 261.423 1.78293 -0.804432 0
M  V30 2624 C 261.803 1.99004 0.70431 0
M  V30 2625 O 261.151 1.59007 1.641 0
M  V30 2626 C 261.361 3.10707 -1.5894 0
M  V30 2627 C 262.709 3.85443 -1.78099 0
M  V30 2628 O 263.733 3.20454 -1.55525 0
M  V30 2629 O 262.592 5.02108 -2.15753 0
M  V30 2630 H 259.686 0.773156 -0.293528 0
M  V30 2631 H 262.232 1.16164 -1.23709 0
M  V30 2632 H 261.004 2.91106 -2.61482 0
M  V30 2633 H 260.627 3.80558 -1.15157 0
M  V30 2634 N 261.624 0.925811 1.2754 0
M  V30 2635 C 262.901 0.483726 1.89524 0
M  V30 2636 C 263.281 -1.03809 1.83812 0
M  V30 2637 O 262.629 -1.89143 1.28207 0
M  V30 2638 C 262.839 1.02769 3.33526 0
M  V30 2639 C 264.187 1.08703 4.10449 0
M  V30 2640 O 265.211 0.977175 3.42534 0
M  V30 2641 O 264.07 1.25599 5.31871 0
M  V30 2642 H 261.164 0.15529 0.812289 0
M  V30 2643 H 263.71 1.01738 1.35822 0
M  V30 2644 H 262.482 2.07155 3.31967 0
M  V30 2645 H 262.105 0.475567 3.94746 0
M  V30 2646 N 263.102 -1.41638 0.69111 0
M  V30 2647 C 264.379 -1.95036 0.148421 0
M  V30 2648 C 264.759 -1.63072 -1.34055 0
M  V30 2649 O 264.107 -0.93538 -2.08478 0
M  V30 2650 C 264.317 -3.46279 0.434951 0
M  V30 2651 C 265.665 -4.23069 0.360275 0
M  V30 2652 O 266.689 -3.54277 0.369613 0
M  V30 2653 O 265.548 -5.45583 0.316534 0
M  V30 2654 H 262.642 -0.826908 0.0123654 0
M  V30 2655 H 265.188 -1.5138 0.766963 0
M  V30 2656 H 263.96 -3.6281 1.46576 0
M  V30 2657 H 263.583 -3.97019 -0.214787 0
M  V30 2658 N 264.58 -0.43555 -1.51462 0
M  V30 2659 C 265.857 0.191364 -1.94662 0
M  V30 2660 C 266.237 1.60254 -1.37411 0
M  V30 2661 O 265.585 2.2152 -0.560458 0
M  V30 2662 C 265.795 0.17091 -3.48581 0
M  V30 2663 C 267.143 0.377357 -4.2292 0
M  V30 2664 O 268.167 0.249104 -3.55328 0
M  V30 2665 O 267.026 0.63247 -5.42828 0
M  V30 2666 H 264.12 0.130932 -0.816569 0
M  V30 2667 H 266.666 -0.4934 -1.62369 0
M  V30 2668 H 265.438 -0.815738 -3.82703 0
M  V30 2669 H 265.061 0.898659 -3.87311 0
M  V30 2670 N 266.058 1.56714 -0.166846 0
M  V30 2671 C 267.305 1.96747 0.479252 0
M  V30 2672 C 267.633 1.05263 1.63554 0
M  V30 2673 O 266.888 0.0858098 1.95512 0
M  V30 2674 C 267.187 3.42889 1.00806 0
M  V30 2675 C 266.853 4.50889 -0.0318574 0
M  V30 2676 C 265.515 4.8015 -0.317675 0
M  V30 2677 C 267.867 5.15949 -0.737956 0
M  V30 2678 C 265.195 5.71772 -1.31506 0
M  V30 2679 C 267.547 6.08647 -1.72429 0
M  V30 2680 C 266.211 6.36277 -2.0176 0
M  V30 2681 H 265.481 0.719949 0.175371 0
M  V30 2682 H 268.128 1.89756 -0.257864 0
M  V30 2683 H 266.433 3.4681 1.82291 0
M  V30 2684 H 268.13 3.71203 1.51689 0
M  V30 2685 H 264.72 4.28128 0.201088 0
M  V30 2686 H 268.904 4.93458 -0.530351 0
M  V30 2687 H 264.16 5.91465 -1.54853 0
M  V30 2688 H 268.334 6.58129 -2.27682 0
M  V30 2689 H 265.961 7.07075 -2.79194 0
M  V30 2690 N 267.536 -0.106894 1.57237 0
M  V30 2691 C 268.813 -0.843526 1.76477 0
M  V30 2692 C 269.193 -1.97499 0.745464 0
M  V30 2693 O 268.541 -2.27357 -0.228306 0
M  V30 2694 C 268.751 -1.34903 3.21873 0
M  V30 2695 C 270.099 -1.79654 3.8472 0
M  V30 2696 O 271.123 -1.44554 3.2555 0
M  V30 2697 O 269.982 -2.44515 4.88748 0
M  V30 2698 H 267.076 -0.401468 0.723016 0
M  V30 2699 H 269.622 -0.0896927 1.69463 0
M  V30 2700 H 268.394 -0.53781 3.87586 0
M  V30 2701 H 268.017 -2.16522 3.33473 0
M  V30 2702 N 269.014 -1.53014 -0.377408 0
M  V30 2703 C 270.291 -1.59215 -1.13622 0
M  V30 2704 C 270.671 -0.392407 -2.07421 0
M  V30 2705 O 270.019 0.618342 -2.19975 0
M  V30 2706 C 270.229 -2.93669 -1.88573 0
M  V30 2707 C 271.577 -3.47822 -2.43526 0
M  V30 2708 O 272.601 -2.9562 -1.98715 0
M  V30 2709 O 271.46 -4.39055 -3.25412 0
M  V30 2710 H 268.554 -0.642625 -0.52054 0
M  V30 2711 H 271.1 -1.65353 -0.381625 0
M  V30 2712 H 269.872 -3.7243 -1.20048 0
M  V30 2713 H 269.495 -2.90968 -2.70968 0
M  V30 2714 N 270.492 0.636531 -1.44174 0
M  V30 2715 C 271.402 1.77754 -1.53103 0
M  V30 2716 C 272.418 1.68928 -0.417034 0
M  V30 2717 O 273.594 1.89801 -0.6736 0
M  V30 2718 C 270.659 3.14115 -1.46741 0
M  V30 2719 C 269.72 3.34612 -2.68948 0
M  V30 2720 C 268.953 4.64467 -2.6288 0
M  V30 2721 O 269.176 5.44919 -1.68581 0
M  V30 2722 O 268.11 4.87049 -3.53648 0
M  V30 2723 H 271.936 1.73174 -2.49489 0
M  V30 2724 H 269.521 0.79709 -1.2636 0
M  V30 2725 H 271.403 3.95412 -1.45696 0
M  V30 2726 H 270.078 3.19249 -0.534975 0
M  V30 2727 H 268.985 2.53014 -2.75562 0
M  V30 2728 H 270.318 3.34336 -3.61221 0
M  V30 2729 N 271.97 1.30982 0.876444 0
M  V30 2730 C 272.88 1.2003 2.01569 0
M  V30 2731 C 273.896 0.11838 1.73597 0
M  V30 2732 O 275.072 0.33495 1.98595 0
M  V30 2733 C 272.137 0.901637 3.34771 0
M  V30 2734 C 271.198 2.06979 3.76109 0
M  V30 2735 C 270.431 1.78529 5.02954 0
M  V30 2736 O 270.654 0.717296 5.65872 0
M  V30 2737 O 269.588 2.64019 5.40905 0
M  V30 2738 H 273.414 2.15753 2.13739 0
M  V30 2739 H 270.999 1.10658 1.00375 0
M  V30 2740 H 272.881 0.750645 4.1466 0
M  V30 2741 H 271.556 -0.0256141 3.2369 0
M  V30 2742 H 270.463 2.27616 2.96887 0
M  V30 2743 H 271.796 2.97907 3.91807 0
M  V30 2744 N 273.449 -1.08991 1.13837 0
M  V30 2745 C 274.412 -2.13925 0.822715 0
M  V30 2746 C 275.412 -1.599 -0.1699 0
M  V30 2747 O 276.602 -1.74104 0.0577251 0
M  V30 2748 C 273.734 -3.40155 0.225318 0
M  V30 2749 H 274.927 -2.43358 1.75262 0
M  V30 2750 H 272.48 -1.24603 0.943594 0
M  V30 2751 H 273.215 -3.16352 -0.713594 0
M  V30 2752 H 273 -3.80661 0.940193 0
M  V30 2753 H 274.49 -4.17594 0.0214784 0
M  V30 2754 N 274.927 -0.932562 -1.27047 0
M  V30 2755 C 275.837 -0.441219 -2.30414 0
M  V30 2756 C 276.853 0.480525 -1.67233 0
M  V30 2757 O 278.029 0.362151 -1.98117 0
M  V30 2758 C 275.094 0.293651 -3.45454 0
M  V30 2759 C 274.155 -0.663601 -4.2414 0
M  V30 2760 C 273.388 0.0362932 -5.33688 0
M  V30 2761 O 273.611 1.2548 -5.56427 0
M  V30 2762 O 272.545 -0.638015 -5.98509 0
M  V30 2763 H 276.371 -1.29962 -2.74488 0
M  V30 2764 H 273.956 -0.6981 -1.32087 0
M  V30 2765 H 275.838 0.707951 -4.15411 0
M  V30 2766 H 274.513 1.12758 -3.03426 0
M  V30 2767 H 273.42 -1.12768 -3.56699 0
M  V30 2768 H 274.753 -1.46489 -4.69896 0
M  V30 2769 N 276.405 1.4127 -0.698611 0
M  V30 2770 C 277.315 2.34573 -0.0357891 0
M  V30 2771 C 278.331 1.56393 0.762701 0
M  V30 2772 O 279.507 1.8886 0.699564 0
M  V30 2773 C 276.572 3.35159 0.887089 0
M  V30 2774 C 275.633 4.29225 0.0804634 0
M  V30 2775 C 274.866 5.25006 0.959387 0
M  V30 2776 O 275.089 5.26314 2.19886 0
M  V30 2777 O 274.023 6.00519 0.407439 0
M  V30 2778 H 277.849 2.92838 -0.804957 0
M  V30 2779 H 275.434 1.42175 -0.458966 0
M  V30 2780 H 277.316 3.9689 1.41621 0
M  V30 2781 H 275.991 2.79333 1.6357 0
M  V30 2782 H 274.898 3.70833 -0.493328 0
M  V30 2783 H 276.231 4.88157 -0.629547 0
M  V30 2784 N 277.883 0.443576 1.51229 0
M  V30 2785 C 278.83 -0.364716 2.279 0
M  V30 2786 C 279.8 -1.0114 1.31757 0
M  V30 2787 O 280.985 -1.02912 1.60667 0
M  V30 2788 C 278.125 -1.45644 3.12861 0
M  V30 2789 C 277.238 -0.827269 4.24005 0
M  V30 2790 C 276.373 -1.89456 4.96266 0
M  V30 2791 C 275.412 -1.24416 5.99322 0
M  V30 2792 N 274.549 -2.25309 6.64966 0
M  V30 2793 H 279.389 0.295464 2.96532 0
M  V30 2794 H 276.926 0.157554 1.46254 0
M  V30 2795 H 278.884 -2.10076 3.6045 0
M  V30 2796 H 277.514 -2.08616 2.46331 0
M  V30 2797 H 276.566 -0.0710839 3.80334 0
M  V30 2798 H 277.878 -0.312481 4.9782 0
M  V30 2799 H 277.032 -2.61535 5.47434 0
M  V30 2800 H 275.771 -2.4431 4.22095 0
M  V30 2801 H 274.776 -0.508868 5.4744 0
M  V30 2802 H 276.001 -0.702882 6.75453 0
M  V30 2803 H 273.947 -2.79231 5.93604 0
M  V30 2804 H 273.864 -1.78739 7.34567 0
M  V30 2805 H 275.132 -2.96853 7.20763 0
M  V30 2806 N 279.361 -1.56624 0.175154 0
M  V30 2807 C 280.324 -2.16934 -0.739738 0
M  V30 2808 C 281.324 -1.11842 -1.15533 0
M  V30 2809 O 282.514 -1.37335 -1.07167 0
M  V30 2810 C 279.646 -2.75531 -2.00738 0
M  V30 2811 H 280.839 -2.99131 -0.214639 0
M  V30 2812 H 278.392 -1.56123 -0.0744197 0
M  V30 2813 H 279.127 -1.97078 -2.57548 0
M  V30 2814 H 278.912 -3.52444 -1.71831 0
M  V30 2815 H 280.402 -3.21904 -2.66021 0
M  V30 2816 N 280.839 0.0985539 -1.57292 0
M  V30 2817 C 282.25 0.653457 -1.74891 0
M  V30 2818 C 282.601 1.7929 -0.796838 0
M  V30 2819 O 281.726 2.16385 0.0254886 0
M  V30 2820 C 282.321 1.19216 -3.17133 0
M  V30 2821 C 280.88 1.69316 -3.36168 0
M  V30 2822 C 280.027 0.601294 -2.70702 0
M  V30 2823 H 282.978 -0.127497 -1.58187 0
M  V30 2824 H 282.999 2.06154 -3.19814 0
M  V30 2825 H 282.511 0.362635 -3.86402 0
M  V30 2826 H 280.612 2.5468 -2.71972 0
M  V30 2827 H 280.725 1.78853 -4.44464 0
M  V30 2828 H 279.089 1.0399 -2.32504 0
M  V30 2829 H 279.872 -0.217592 -3.4261 0
M  V30 2830 N 282.317 1.53212 0.369288 0
M  V30 2831 C 283.563 1.69466 1.11397 0
M  V30 2832 C 283.896 0.443257 1.89074 0
M  V30 2833 O 283.171 -0.559386 1.86282 0
M  V30 2834 C 283.454 2.9422 2.07621 0
M  V30 2835 C 283.307 4.29508 1.33577 0
M  V30 2836 C 284.626 3.14565 3.07794 0
M  V30 2837 H 281.745 0.616667 0.403597 0
M  V30 2838 H 284.387 1.85845 0.395179 0
M  V30 2839 H 282.537 2.80387 2.68916 0
M  V30 2840 H 284.209 4.55147 0.750955 0
M  V30 2841 H 282.452 4.29088 0.637618 0
M  V30 2842 H 283.123 5.12926 2.03989 0
M  V30 2843 H 285.599 3.2756 2.56601 0
M  V30 2844 H 284.475 4.03297 3.72348 0
M  V30 2845 H 284.736 2.29675 3.77759 0
M  V30 2846 N 283.795 -0.628877 1.44509 0
M  V30 2847 C 284.742 -1.74074 1.51549 0
M  V30 2848 C 285.712 -1.62084 0.363021 0
M  V30 2849 O 286.897 -1.81975 0.573567 0
M  V30 2850 C 284.037 -3.12328 1.46784 0
M  V30 2851 C 283.15 -3.35277 2.72422 0
M  V30 2852 C 282.285 -4.63515 2.59475 0
M  V30 2853 C 281.324 -4.7965 3.80266 0
M  V30 2854 N 280.461 -5.99168 3.65981 0
M  V30 2855 H 285.301 -1.67392 2.46544 0
M  V30 2856 H 282.838 -0.816527 1.22357 0
M  V30 2857 H 284.796 -3.92286 1.42012 0
M  V30 2858 H 283.426 -3.18018 0.553544 0
M  V30 2859 H 282.478 -2.49242 2.87372 0
M  V30 2860 H 283.79 -3.43078 3.62076 0
M  V30 2861 H 282.944 -5.51638 2.52548 0
M  V30 2862 H 281.683 -4.58076 1.67384 0
M  V30 2863 H 280.688 -3.89957 3.87574 0
M  V30 2864 H 281.913 -4.86902 4.73395 0
M  V30 2865 H 279.859 -5.94814 2.76644 0
M  V30 2866 H 279.776 -6.08035 4.49254 0
M  V30 2867 H 281.044 -6.89846 3.6295 0
M  V30 2868 N 285.273 -1.31445 -0.869486 0
M  V30 2869 C 286.22 -1.19135 -1.97675 0
M  V30 2870 C 287.19 -0.0770266 -1.65921 0
M  V30 2871 O 288.375 -0.249972 -1.89155 0
M  V30 2872 C 285.515 -0.905149 -3.33018 0
M  V30 2873 C 284.628 -2.10285 -3.77365 0
M  V30 2874 C 283.763 -1.75339 -5.01427 0
M  V30 2875 C 282.802 -2.91515 -5.38224 0
M  V30 2876 N 281.939 -2.56762 -6.53466 0
M  V30 2877 H 286.779 -2.13853 -2.07535 0
M  V30 2878 H 284.316 -1.06379 -1.01597 0
M  V30 2879 H 286.274 -0.719765 -4.10944 0
M  V30 2880 H 284.904 0.00519624 -3.228 0
M  V30 2881 H 283.956 -2.39899 -2.95216 0
M  V30 2882 H 285.268 -2.97237 -4.00564 0
M  V30 2883 H 284.422 -1.53266 -5.87022 0
M  V30 2884 H 283.161 -0.855801 -4.80133 0
M  V30 2885 H 282.166 -3.14237 -4.51149 0
M  V30 2886 H 283.391 -3.81985 -5.61484 0
M  V30 2887 H 281.337 -1.69526 -6.33717 0
M  V30 2888 H 281.254 -3.37243 -6.76612 0
M  V30 2889 H 282.522 -2.38083 -7.42251 0
M  V30 2890 N 286.751 1.08385 -1.14413 0
M  V30 2891 C 287.976 1.85057 -0.936413 0
M  V30 2892 C 288.401 1.81055 0.509971 0
M  V30 2893 O 287.759 1.1958 1.36273 0
M  V30 2894 C 287.807 3.30505 -1.44217 0
M  V30 2895 O 286.911 4.07491 -0.634409 0
M  V30 2896 H 286.252 0.573425 -0.334784 0
M  V30 2897 H 288.782 1.36799 -1.52142 0
M  V30 2898 H 288.792 3.81348 -1.45043 0
M  V30 2899 H 287.467 3.32734 -2.49522 0
M  V30 2900 H 286.044 3.66368 -0.694902 0
M  V30 2901 N 288.23 0.939286 1.26551 0
M  V30 2902 C 289.479 0.581601 1.93133 0
M  V30 2903 C 289.792 -0.883224 1.74524 0
M  V30 2904 O 290.998 -1.3502 2.35546 0
M  V30 2905 C 289.454 0.989425 3.46032 0
M  V30 2906 C 289.062 2.47573 3.73379 0
M  V30 2907 C 290.806 0.703544 4.18629 0
M  V30 2908 C 288.713 2.82235 5.19709 0
M  V30 2909 H 287.643 0.213803 0.723052 0
M  V30 2910 H 290.294 1.14167 1.4366 0
M  V30 2911 H 288.676 0.357902 3.94379 0
M  V30 2912 H 289.85 3.15614 3.35744 0
M  V30 2913 H 288.165 2.73471 3.1401 0
M  V30 2914 H 290.762 0.938869 5.26393 0
M  V30 2915 H 291.105 -0.359639 4.14744 0
M  V30 2916 H 291.638 1.2947 3.76141 0
M  V30 2917 H 288.377 3.87509 5.28694 0
M  V30 2918 H 287.897 2.18854 5.58447 0
M  V30 2919 H 289.576 2.70599 5.87695 0
M  V30 2920 N 289.708 -1.40897 0.706093 0
M  V30 2921 C 291.124 -1.55042 0.37869 0
M  V30 2922 C 291.324 -1.67944 -1.11342 0
M  V30 2923 O 290.38 -1.66372 -1.89938 0
M  V30 2924 C 291.693 -2.78398 1.13643 0
M  V30 2925 C 293.241 -2.92206 1.12181 0
M  V30 2926 C 293.716 -4.18463 1.86152 0
M  V30 2927 N 295.207 -4.25443 1.83173 0
M  V30 2928 C 295.942 -5.2202 2.37239 0
M  V30 2929 N 295.438 -6.24563 2.99821 0
M  V30 2930 N 297.231 -5.14033 2.27435 0
M  V30 2931 H 289.382 -1.30769 1.67372 0
M  V30 2932 H 291.645 -0.631653 0.706907 0
M  V30 2933 H 291.351 -2.7511 2.19106 0
M  V30 2934 H 291.225 -3.70228 0.721853 0
M  V30 2935 H 293.612 -2.95004 0.0754171 0
M  V30 2936 H 293.693 -2.01521 1.57554 0
M  V30 2937 H 293.337 -4.16427 2.90776 0
M  V30 2938 H 293.267 -5.08141 1.38206 0
M  V30 2939 H 295.758 -3.51976 1.37556 0
M  V30 2940 H 296.071 -6.94665 3.38616 0
M  V30 2941 H 294.416 -6.25035 3.03902 0
M  V30 2942 H 297.607 -4.3285 1.78208 0
M  V30 2943 H 297.78 -5.89129 2.69873 0
M  V30 2944 N 291.186 -0.45159 -1.50991 0
M  V30 2945 C 292.463 0.170707 -1.94854 0
M  V30 2946 C 292.843 1.58788 -1.39103 0
M  V30 2947 O 292.191 2.20913 -0.583921 0
M  V30 2948 C 292.401 0.133929 -3.48743 0
M  V30 2949 C 293.749 0.33248 -4.23296 0
M  V30 2950 O 294.773 0.211403 -3.55572 0
M  V30 2951 O 293.632 0.57486 -5.43468 0
M  V30 2952 H 290.726 0.122264 -0.817912 0
M  V30 2953 H 293.272 -0.510594 -1.61836 0
M  V30 2954 H 292.044 -0.856283 -3.81816 0
M  V30 2955 H 291.667 0.857529 -3.88242 0
M  V30 2956 N 292.664 1.56529 -0.183458 0
M  V30 2957 C 293.892 2.01623 0.464285 0
M  V30 2958 C 294.307 1.06366 1.55986 0
M  V30 2959 O 293.664 0.0665398 1.82379 0
M  V30 2960 C 293.715 3.46475 1.03139 0
M  V30 2961 O 293.436 4.38095 -0.0204675 0
M  V30 2962 C 294.937 4.0703 1.75617 0
M  V30 2963 H 292.157 0.660596 0.117704 0
M  V30 2964 H 294.701 2.02451 -0.288751 0
M  V30 2965 H 292.856 3.46383 1.73486 0
M  V30 2966 H 293.27 5.22973 0.399952 0
M  V30 2967 H 294.744 5.10271 2.10542 0
M  V30 2968 H 295.221 3.49819 2.65563 0
M  V30 2969 H 295.827 4.1086 1.09882 0
M  V30 2970 N 294.142 -0.090211 1.57342 0
M  V30 2971 C 295.553 -0.644173 1.75235 0
M  V30 2972 C 295.904 -1.78865 0.806335 0
M  V30 2973 O 295.029 -2.16395 -0.0140128 0
M  V30 2974 C 295.624 -1.17532 3.1776 0
M  V30 2975 C 294.183 -1.67531 3.37061 0
M  V30 2976 C 293.33 -0.58693 2.71017 0
M  V30 2977 H 296.281 0.135884 1.58117 0
M  V30 2978 H 296.302 -2.04455 3.20902 0
M  V30 2979 H 295.814 -0.342138 3.86589 0
M  V30 2980 H 293.915 -2.53234 2.73319 0
M  V30 2981 H 294.028 -1.76493 4.45406 0
M  V30 2982 H 292.392 -1.02756 2.33052 0
M  V30 2983 H 293.175 0.235758 3.4249 0
M  V30 2984 N 295.62 -1.53406 -0.361157 0
M  V30 2985 C 296.583 -1.79479 -1.42548 0
M  V30 2986 C 297.583 -0.665327 -1.4639 0
M  V30 2987 O 298.773 -0.933549 -1.47073 0
M  V30 2988 C 295.905 -1.92087 -2.8163 0
M  V30 2989 H 297.098 -2.74538 -1.20701 0
M  V30 2990 H 294.651 -1.4455 -0.594546 0
M  V30 2991 H 295.386 -0.991099 -3.08784 0
M  V30 2992 H 295.171 -2.74241 -2.80239 0
M  V30 2993 H 296.661 -2.13836 -3.58697 0
M  V30 2994 N 297.098 0.621204 -1.44841 0
M  V30 2995 C 298.045 1.73267 -1.5247 0
M  V30 2996 C 299.015 1.6189 -0.371611 0
M  V30 2997 O 300.2 1.81668 -0.58321 0
M  V30 2998 C 297.34 3.11545 -1.48438 0
M  V30 2999 C 296.453 3.33827 -2.74196 0
M  V30 3000 C 295.588 4.62133 -2.61929 0
M  V30 3001 C 294.627 4.77627 -3.82804 0
M  V30 3002 N 293.764 5.97219 -3.69153 0
M  V30 3003 H 298.604 1.66082 -2.47428 0
M  V30 3004 H 296.141 0.810026 -1.22788 0
M  V30 3005 H 298.099 3.91528 -1.4409 0
M  V30 3006 H 296.729 3.1772 -0.570402 0
M  V30 3007 H 295.781 2.47715 -2.88689 0
M  V30 3008 H 297.093 3.41153 -3.6389 0
M  V30 3009 H 296.247 5.50291 -2.5547 0
M  V30 3010 H 294.986 4.57182 -1.69811 0
M  V30 3011 H 293.991 3.87896 -3.89637 0
M  V30 3012 H 295.216 4.84385 -4.75971 0
M  V30 3013 H 293.162 5.93339 -2.79794 0
M  V30 3014 H 293.079 6.05644 -4.52472 0
M  V30 3015 H 294.347 6.87912 -3.66603 0
M  V30 3016 N 298.576 1.31904 0.862503 0
M  V30 3017 C 299.524 1.20125 1.9918 0
M  V30 3018 C 300.518 0.107824 1.69056 0
M  V30 3019 O 301.724 0.270223 1.7796 0
M  V30 3020 H 298.099 0.372148 0.65346 0
M  V30 3021 H 300.07 2.15652 2.06244 0
M  V30 3022 C 298.819 0.933099 3.34946 0
M  V30 3023 H 298.142 1.76664 3.5865 0
M  V30 3024 H 299.582 0.890892 4.14535 0
M  V30 3025 C 298.041 -0.364172 3.34926 0
M  V30 3026 O 298.571 -1.37858 3.77304 0
M  V30 3027 N 296.777 -0.383362 2.8806 0
M  V30 3028 H 296.324 0.442651 2.53768 0
M  V30 3029 H 296.282 -1.25123 2.8843 0
M  V30 3030 N 300.054 -1.07777 1.14986 0
M  V30 3031 C 301.017 -2.13041 0.845358 0
M  V30 3032 C 302.017 -1.60071 -0.152931 0
M  V30 3033 O 303.207 -1.74033 0.0761879 0
M  V30 3034 C 300.339 -3.39896 0.261383 0
M  V30 3035 H 301.532 -2.41485 1.77834 0
M  V30 3036 H 299.085 -1.23595 0.956757 0
M  V30 3037 H 299.82 -3.17091 -0.68 0
M  V30 3038 H 299.605 -3.79642 0.980514 0
M  V30 3039 H 301.095 -4.17548 0.0657687 0
M  V30 3040 N 301.532 -0.945985 -1.26051 0
M  V30 3041 C 302.464 -0.416662 -2.25381 0
M  V30 3042 C 303.477 0.462712 -1.56086 0
M  V30 3043 O 304.666 0.272383 -1.7641 0
M  V30 3044 C 301.766 0.419812 -3.3629 0
M  V30 3045 C 300.939 -0.444531 -4.35135 0
M  V30 3046 C 299.998 0.332305 -5.2515 0
M  V30 3047 O 299.024 -0.266324 -5.68577 0
M  V30 3048 N 300.226 1.62763 -5.57215 0
M  V30 3049 H 302.991 -1.27059 -2.71433 0
M  V30 3050 H 300.552 -0.815392 -1.39868 0
M  V30 3051 H 302.544 0.947013 -3.93464 0
M  V30 3052 H 301.114 1.17456 -2.89694 0
M  V30 3053 H 300.334 -1.15291 -3.76964 0
M  V30 3054 H 301.622 -1.03478 -4.98166 0
M  V30 3055 H 301.02 2.13603 -5.23823 0
M  V30 3056 H 299.577 2.10097 -6.17011 0
M  V30 3057 N 303.011 1.40521 -0.713556 0
M  V30 3058 C 303.958 2.30723 -0.059684 0
M  V30 3059 C 304.928 1.48079 0.752448 0
M  V30 3060 O 306.113 1.76823 0.71681 0
M  V30 3061 C 303.253 3.34274 0.857594 0
M  V30 3062 C 302.366 4.31986 0.0351536 0
M  V30 3063 C 301.501 5.22605 0.951724 0
M  V30 3064 C 300.54 6.11976 0.123253 0
M  V30 3065 N 299.677 6.9502 0.99459 0
M  V30 3066 H 304.517 2.86074 -0.834596 0
M  V30 3067 H 302.054 1.40879 -0.42326 0
M  V30 3068 H 304.012 3.92879 1.40364 0
M  V30 3069 H 302.642 2.8043 1.59871 0
M  V30 3070 H 301.694 3.7518 -0.628052 0
M  V30 3071 H 303.006 4.95101 -0.606347 0
M  V30 3072 H 302.16 5.86131 1.56638 0
M  V30 3073 H 300.899 4.59759 1.62705 0
M  V30 3074 H 299.904 5.47482 -0.50435 0
M  V30 3075 H 301.129 6.76881 -0.548539 0
M  V30 3076 H 299.075 6.34764 1.6556 0
M  V30 3077 H 298.992 7.54892 0.40908 0
M  V30 3078 H 300.26 7.62997 1.59549 0
M  V30 3079 N 304.489 0.459591 1.5075 0
M  V30 3080 C 305.714 -0.0996819 2.0716 0
M  V30 3081 C 306.139 -1.33761 1.32249 0
M  V30 3082 O 305.497 -1.77551 0.366786 0
M  V30 3083 C 305.545 -0.378226 3.58611 0
M  V30 3084 O 304.649 -1.46081 3.85661 0
M  V30 3085 H 303.99 0.00791392 0.663953 0
M  V30 3086 H 306.52 0.647329 1.9409 0
M  V30 3087 H 306.53 -0.622135 4.03229 0
M  V30 3088 H 305.205 0.526439 4.12555 0
M  V30 3089 H 303.782 -1.20511 3.5289 0
M  V30 3090 N 305.967 -1.56429 0.191757 0
M  V30 3091 C 306.915 -2.20273 -0.747174 0
M  V30 3092 C 307.909 -1.17288 -1.22229 0
M  V30 3093 O 309.115 -1.35441 -1.18557 0
M  V30 3094 H 305.49 -0.705885 -0.259289 0
M  V30 3095 H 307.461 -2.97826 -0.184963 0
M  V30 3096 C 306.21 -2.87356 -1.95759 0
M  V30 3097 H 305.533 -3.66341 -1.60106 0
M  V30 3098 H 306.973 -3.3547 -2.59299 0
M  V30 3099 C 305.432 -1.88213 -2.79423 0
M  V30 3100 O 305.962 -1.38033 -3.7724 0
M  V30 3101 N 304.168 -1.56516 -2.44849 0
M  V30 3102 H 303.715 -1.97516 -1.65364 0
M  V30 3103 H 303.673 -0.904369 -3.01112 0
M  V30 3104 N 307.445 0.0818655 -1.57387 0
M  V30 3105 C 308.377 1.12484 -1.997 0
M  V30 3106 C 309.39 1.35564 -0.90146 0
M  V30 3107 O 310.579 1.33982 -1.17945 0
M  V30 3108 C 307.679 2.47778 -2.31213 0
M  V30 3109 C 306.852 2.44793 -3.62485 0
M  V30 3110 C 305.911 3.62117 -3.81782 0
M  V30 3111 O 304.937 3.44005 -4.53486 0
M  V30 3112 N 306.139 4.82094 -3.23367 0
M  V30 3113 H 308.904 0.764585 -2.89783 0
M  V30 3114 H 306.465 0.270664 -1.59621 0
M  V30 3115 H 308.457 3.24891 -2.41304 0
M  V30 3116 H 307.027 2.75843 -1.4707 0
M  V30 3117 H 306.247 1.53134 -3.6324 0
M  V30 3118 H 307.535 2.39889 -4.48699 0
M  V30 3119 H 306.933 4.99713 -2.65148 0
M  V30 3120 H 305.49 5.56753 -3.38923 0
M  V30 3121 N 308.923 1.53595 0.353017 0
M  V30 3122 C 309.871 1.81605 1.45335 0
M  V30 3123 C 310.865 0.685923 1.54892 0
M  V30 3124 O 312.071 0.869095 1.57628 0
M  V30 3125 H 308.446 0.575204 0.484401 0
M  V30 3126 H 310.417 2.73679 1.18921 0
M  V30 3127 C 309.166 2.03406 2.81995 0
M  V30 3128 H 308.489 2.89814 2.75405 0
M  V30 3129 H 309.929 2.26975 3.58132 0
M  V30 3130 C 308.388 0.816794 3.26849 0
M  V30 3131 O 308.918 0.0115856 4.01698 0
M  V30 3132 N 307.124 0.636682 2.8354 0
M  V30 3133 H 306.671 1.2931 2.22793 0
M  V30 3134 H 306.629 -0.176336 3.13905 0
M  V30 3135 N 310.401 -0.613514 1.45168 0
M  V30 3136 C 311.649 -1.36997 1.48581 0
M  V30 3137 C 311.97 -1.94589 0.126545 0
M  V30 3138 O 311.24 -1.76816 -0.843372 0
M  V30 3139 H 309.82 -0.508558 0.547154 0
M  V30 3140 H 312.482 -0.720853 1.81079 0
M  V30 3141 H 311.578 -2.1924 2.22127 0
M  V30 3142 N 311.879 -1.3236 -0.855495 0
M  V30 3143 C 312.826 -1.21225 -1.964 0
M  V30 3144 C 313.796 -0.0946204 -1.6583 0
M  V30 3145 O 314.981 -0.27002 -1.8888 0
M  V30 3146 C 312.121 -0.940419 -3.32039 0
M  V30 3147 C 311.234 -2.14276 -3.75113 0
M  V30 3148 C 310.369 -1.80648 -4.9954 0
M  V30 3149 C 309.408 -2.97208 -5.35102 0
M  V30 3150 N 308.545 -2.63678 -6.50706 0
M  V30 3151 H 313.385 -2.16042 -2.05255 0
M  V30 3152 H 310.922 -1.07451 -1.00463 0
M  V30 3153 H 312.88 -0.763311 -4.10158 0
M  V30 3154 H 311.51 -0.0290413 -3.22787 0
M  V30 3155 H 310.562 -2.43017 -2.92655 0
M  V30 3156 H 311.874 -3.01468 -3.97389 0
M  V30 3157 H 311.028 -1.59484 -5.85363 0
M  V30 3158 H 309.767 -0.906678 -4.79198 0
M  V30 3159 H 308.772 -3.19004 -4.47791 0
M  V30 3160 H 309.997 -3.87918 -5.57401 0
M  V30 3161 H 307.943 -1.76238 -6.31883 0
M  V30 3162 H 307.86 -3.444 -6.72997 0
M  V30 3163 H 309.128 -2.45942 -7.39684 0
M  V30 3164 N 313.357 1.07166 -1.15556 0
M  V30 3165 C 314.634 1.76546 -0.842069 0
M  V30 3166 C 315.014 2.00453 0.661939 0
M  V30 3167 O 314.362 1.62452 1.60691 0
M  V30 3168 C 314.572 3.07266 -1.65495 0
M  V30 3169 C 315.92 3.81578 -1.86234 0
M  V30 3170 O 316.944 3.17083 -1.62287 0
M  V30 3171 O 315.803 4.97419 -2.26355 0
M  V30 3172 H 312.897 0.766756 -0.309862 0
M  V30 3173 H 315.443 1.13514 -1.26145 0
M  V30 3174 H 314.215 2.85494 -2.67598 0
M  V30 3175 H 313.838 3.7803 -1.23203 0
M  V30 3176 N 314.835 0.952656 1.25548 0
M  V30 3177 C 316.06 0.623025 1.97821 0
M  V30 3178 C 316.485 -0.7976 1.70352 0
M  V30 3179 O 315.843 -1.53905 0.958283 0
M  V30 3180 C 315.891 0.885532 3.49558 0
M  V30 3181 O 314.995 -0.0366641 4.12384 0
M  V30 3182 H 314.336 0.237082 0.620232 0
M  V30 3183 H 316.866 1.27871 1.59719 0
M  V30 3184 H 316.876 0.811009 3.99858 0
M  V30 3185 H 315.551 1.92094 3.6888 0
M  V30 3186 H 314.128 0.0898954 3.72792 0
M  V30 3187 N 316.313 -1.40141 0.720998 0
M  V30 3188 C 317.26 -2.30688 0.071919 0
M  V30 3189 C 318.23 -1.48476 -0.744584 0
M  V30 3190 O 319.415 -1.77201 -0.707423 0
M  V30 3191 C 316.555 -3.34724 -0.839855 0
M  V30 3192 C 315.668 -4.31998 -0.0122438 0
M  V30 3193 C 314.803 -5.23102 -0.923995 0
M  V30 3194 C 313.842 -6.12033 -0.0907969 0
M  V30 3195 N 312.979 -6.95537 -0.957718 0
M  V30 3196 H 317.819 -2.85628 0.849755 0
M  V30 3197 H 315.356 -1.40653 0.430726 0
M  V30 3198 H 317.314 -3.93618 -1.38279 0
M  V30 3199 H 315.944 -2.81274 -1.58381 0
M  V30 3200 H 314.996 -3.74841 0.64794 0
M  V30 3201 H 316.308 -4.94772 0.632595 0
M  V30 3202 H 315.462 -5.86953 -1.53527 0
M  V30 3203 H 314.201 -4.60615 -1.60264 0
M  V30 3204 H 313.206 -5.47207 0.533377 0
M  V30 3205 H 314.431 -6.76581 0.584428 0
M  V30 3206 H 312.377 -6.35633 -1.62192 0
M  V30 3207 H 312.294 -7.55099 -0.36904 0
M  V30 3208 H 313.562 -7.63832 -1.555 0
M  V30 3209 N 317.792 -0.46758 -1.50504 0
M  V30 3210 C 319.203 -0.0116166 -1.86696 0
M  V30 3211 C 319.554 1.39202 -1.38265 0
M  V30 3212 O 318.679 2.0313 -0.746132 0
M  V30 3213 C 319.274 -0.0143044 -3.38797 0
M  V30 3214 C 317.833 0.386175 -3.74414 0
M  V30 3215 C 316.98 -0.401287 -2.74381 0
M  V30 3216 H 319.931 -0.682022 -1.43297 0
M  V30 3217 H 319.952 0.788641 -3.72237 0
M  V30 3218 H 319.464 -1.03602 -3.74016 0
M  V30 3219 H 317.565 1.41237 -3.44794 0
M  V30 3220 H 317.678 0.0899596 -4.79016 0
M  V30 3221 H 316.042 0.144536 -2.5429 0
M  V30 3222 H 316.825 -1.42244 -3.12444 0
M  V30 3223 N 319.27 1.56325 -0.20005 0
M  V30 3224 C 320.495 2.02548 0.44597 0
M  V30 3225 C 320.92 1.07922 1.5406 0
M  V30 3226 O 320.278 0.0635775 1.81188 0
M  V30 3227 C 320.326 3.47175 0.974761 0
M  V30 3228 O 319.43 3.55671 2.08739 0
M  V30 3229 H 318.771 0.655862 0.103638 0
M  V30 3230 H 321.301 2.02201 -0.312381 0
M  V30 3231 H 321.311 3.87067 1.2901 0
M  V30 3232 H 319.986 4.15538 0.17347 0
M  V30 3233 H 318.563 3.27657 1.78032 0
M  V30 3234 N 320.748 -0.0735177 1.57428 0
M  V30 3235 C 321.973 -0.789787 1.91774 0
M  V30 3236 C 322.398 -1.70413 0.796306 0
M  V30 3237 O 321.756 -1.79555 -0.250961 0
M  V30 3238 C 321.804 -1.5609 3.25067 0
M  V30 3239 O 320.908 -2.67144 3.14178 0
M  V30 3240 H 320.249 -0.215582 0.628029 0
M  V30 3241 H 322.779 -0.0422781 2.04556 0
M  V30 3242 H 322.789 -1.94052 3.58898 0
M  V30 3243 H 321.464 -0.890015 4.06265 0
M  V30 3244 H 320.041 -2.32052 2.91901 0
M  V30 3245 N 322.226 -1.5378 -0.344866 0
M  V30 3246 C 323.454 -1.74899 -1.10534 0
M  V30 3247 C 323.869 -0.487534 -1.82397 0
M  V30 3248 O 323.226 0.540741 -1.74305 0
M  V30 3249 C 323.277 -2.92822 -2.11984 0
M  V30 3250 O 322.998 -4.14089 -1.43044 0
M  V30 3251 C 324.499 -3.25982 -3.00417 0
M  V30 3252 H 321.719 -0.584426 -0.329678 0
M  V30 3253 H 324.263 -2.006 -0.397474 0
M  V30 3254 H 322.418 -2.69457 -2.78338 0
M  V30 3255 H 322.832 -4.80272 -2.10805 0
M  V30 3256 H 324.306 -4.11848 -3.67539 0
M  V30 3257 H 324.783 -2.42228 -3.66363 0
M  V30 3258 H 325.389 -3.51349 -2.39654 0
M  V30 3259 N 323.704 0.605807 -1.45491 0
M  V30 3260 C 325.115 1.18777 -1.44045 0
M  V30 3261 C 325.466 1.95471 -0.169001 0
M  V30 3262 O 324.591 2.0374 0.729324 0
M  V30 3263 C 325.186 2.16064 -2.60963 0
M  V30 3264 C 323.745 2.69633 -2.62631 0
M  V30 3265 C 322.892 1.45072 -2.36325 0
M  V30 3266 H 325.843 0.395017 -1.53705 0
M  V30 3267 H 325.864 2.9913 -2.35163 0
M  V30 3268 H 325.376 1.60217 -3.53486 0
M  V30 3269 H 323.477 3.29414 -1.74119 0
M  V30 3270 H 323.59 3.13944 -3.61906 0
M  V30 3271 H 321.954 1.74089 -1.85917 0
M  V30 3272 H 322.737 0.910899 -3.30995 0
M  V30 3273 N 325.182 1.32811 0.848464 0
M  V30 3274 C 326.598 1.11937 1.13764 0
M  V30 3275 C 326.798 -0.0960789 2.01271 0
M  V30 3276 O 325.854 -0.779165 2.40178 0
M  V30 3277 C 327.167 2.402 1.809 0
M  V30 3278 C 328.715 2.46016 1.93508 0
M  V30 3279 C 329.19 3.74215 2.64059 0
M  V30 3280 N 330.681 3.75232 2.71579 0
M  V30 3281 C 331.416 4.71134 3.26833 0
M  V30 3282 N 330.912 5.77406 3.8285 0
M  V30 3283 N 332.705 4.58623 3.24995 0
M  V30 3284 H 324.856 2.1073 0.265855 0
M  V30 3285 H 327.119 0.930671 0.180431 0
M  V30 3286 H 326.825 3.29093 1.24058 0
M  V30 3287 H 326.699 2.51628 2.81004 0
M  V30 3288 H 329.086 1.57577 2.49506 0
M  V30 3289 H 329.167 2.38536 0.923811 0
M  V30 3290 H 328.811 4.63031 2.08722 0
M  V30 3291 H 328.741 3.78968 3.65637 0
M  V30 3292 H 331.232 2.98423 2.31845 0
M  V30 3293 H 331.545 6.46632 4.23187 0
M  V30 3294 H 329.89 5.81152 3.81165 0
M  V30 3295 H 333.081 3.74762 2.80484 0
M  V30 3296 H 333.254 5.33535 3.67756 0
M  V30 3297 N 326.66 -1.06551 1.16123 0
M  V30 3298 C 327.885 -1.83544 0.965735 0
M  V30 3299 C 328.31 -1.81843 -0.481102 0
M  V30 3300 O 327.668 -1.21732 -1.34354 0
M  V30 3301 C 327.716 -3.28169 1.49457 0
M  V30 3302 O 326.82 -4.0643 0.699157 0
M  V30 3303 H 326.161 -0.568026 0.343864 0
M  V30 3304 H 328.691 -1.34362 1.54299 0
M  V30 3305 H 328.701 -3.78992 1.51092 0
M  V30 3306 H 327.376 -3.28722 2.54784 0
M  V30 3307 H 325.953 -3.65216 0.7531 0
M  V30 3308 N 328.138 -0.959301 -1.25041 0
M  V30 3309 C 329.085 -0.482057 -2.2571 0
M  V30 3310 C 330.055 0.467939 -1.59372 0
M  V30 3311 O 331.24 0.380159 -1.86974 0
M  V30 3312 C 328.38 0.229623 -3.44335 0
M  V30 3313 C 327.493 -0.758156 -4.25295 0
M  V30 3314 C 326.628 -0.0234403 -5.31195 0
M  V30 3315 C 325.667 -1.00184 -6.03846 0
M  V30 3316 N 324.804 -0.29769 -7.01469 0
M  V30 3317 H 329.644 -1.34538 -2.65901 0
M  V30 3318 H 327.181 -0.674592 -1.3072 0
M  V30 3319 H 329.139 0.658856 -4.11965 0
M  V30 3320 H 327.769 1.05696 -3.05005 0
M  V30 3321 H 326.821 -1.30586 -3.57284 0
M  V30 3322 H 328.133 -1.50458 -4.75567 0
M  V30 3323 H 327.287 0.464201 -6.04922 0
M  V30 3324 H 326.026 0.755741 -4.81809 0
M  V30 3325 H 325.031 -1.50044 -5.2893 0
M  V30 3326 H 326.256 -1.78133 -6.55321 0
M  V30 3327 H 324.202 0.462668 -6.54366 0
M  V30 3328 H 324.119 -0.983128 -7.4958 0
M  V30 3329 H 325.387 0.16826 -7.79318 0
M  V30 3330 N 329.616 1.39756 -0.72842 0
M  V30 3331 C 330.864 2.00248 -0.272946 0
M  V30 3332 C 331.185 1.58077 1.14178 0
M  V30 3333 O 330.455 0.826014 1.77634 0
M  V30 3334 H 329.035 0.740554 -0.0979247 0
M  V30 3335 H 331.697 1.70903 -0.936912 0
M  V30 3336 H 330.793 3.10495 -0.316142 0
M  V30 3337 N 331.094 0.475555 1.50254 0
M  V30 3338 C 332.026 -0.352649 2.26471 0
M  V30 3339 C 333.039 -0.953165 1.3198 0
M  V30 3340 O 334.228 -0.840815 1.57457 0
M  V30 3341 C 331.328 -1.50902 3.0345 0
M  V30 3342 C 330.501 -1.02047 4.25329 0
M  V30 3343 C 329.56 -2.05142 4.84565 0
M  V30 3344 O 328.586 -1.63023 5.45355 0
M  V30 3345 N 329.788 -3.37987 4.71959 0
M  V30 3346 H 332.553 0.300767 2.98187 0
M  V30 3347 H 330.114 0.306598 1.5897 0
M  V30 3348 H 332.106 -2.19572 3.39956 0
M  V30 3349 H 330.676 -2.06705 2.34504 0
M  V30 3350 H 329.896 -0.159507 3.93877 0
M  V30 3351 H 331.184 -0.672061 5.04342 0
M  V30 3352 H 330.582 -3.74913 4.23623 0
M  V30 3353 H 329.139 -4.02443 5.12721 0
M  V30 3354 N 332.573 -1.56217 0.208337 0
M  V30 3355 C 333.483 -2.23316 -0.718836 0
M  V30 3356 C 334.499 -1.23648 -1.22422 0
M  V30 3357 O 335.675 -1.56423 -1.26861 0
M  V30 3358 C 332.74 -2.88968 -1.91568 0
M  V30 3359 C 331.801 -4.03943 -1.45357 0
M  V30 3360 C 331.034 -4.66455 -2.59337 0
M  V30 3361 O 331.257 -4.27919 -3.77149 0
M  V30 3362 O 330.191 -5.55686 -2.31293 0
M  V30 3363 H 334.017 -3.03182 -0.177315 0
M  V30 3364 H 331.602 -1.49384 -0.0215402 0
M  V30 3365 H 333.484 -3.30455 -2.61491 0
M  V30 3366 H 332.159 -2.12071 -2.44556 0
M  V30 3367 H 331.066 -3.67052 -0.722746 0
M  V30 3368 H 332.399 -4.82543 -0.970219 0
M  V30 3369 N 334.051 0.0651679 -1.57465 0
M  V30 3370 C 335.276 0.779605 -1.9219 0
M  V30 3371 C 335.701 1.69988 -0.805333 0
M  V30 3372 O 335.059 1.79685 0.241435 0
M  V30 3373 C 335.107 1.54364 -3.2589 0
M  V30 3374 O 334.211 2.65474 -3.1559 0
M  V30 3375 H 333.552 0.212249 -0.629163 0
M  V30 3376 H 336.082 0.0314294 -2.04576 0
M  V30 3377 H 336.092 1.92146 -3.59922 0
M  V30 3378 H 334.767 0.868457 -4.06732 0
M  V30 3379 H 333.344 2.30501 -2.93128 0
M  V30 3380 N 335.529 1.53961 0.336706 0
M  V30 3381 C 336.776 1.71536 1.07618 0
M  V30 3382 C 337.104 0.482125 1.8843 0
M  V30 3383 O 336.359 -0.536142 1.88213 0
M  V30 3384 C 336.658 2.93493 2.03953 0
M  V30 3385 C 336.324 4.28811 1.39399 0
M  V30 3386 C 334.986 4.65602 1.21523 0
M  V30 3387 C 337.338 5.12844 0.929541 0
M  V30 3388 C 334.666 5.84037 0.558312 0
M  V30 3389 C 337.018 6.31951 0.286505 0
M  V30 3390 C 335.682 6.67432 0.0954869 0
M  V30 3391 H 334.952 0.627696 0.393801 0
M  V30 3392 H 337.599 1.88186 0.354715 0
M  V30 3393 H 335.904 2.71475 2.82504 0
M  V30 3394 H 337.601 3.04285 2.61174 0
M  V30 3395 H 334.191 3.99858 1.54311 0
M  V30 3396 H 338.375 4.84947 1.05548 0
M  V30 3397 H 333.631 6.10097 0.398995 0
M  V30 3398 H 337.805 6.96352 -0.0814376 0
M  V30 3399 H 335.432 7.59063 -0.415579 0
M  V30 3400 N 337.007 -0.598083 1.45811 0
M  V30 3401 C 337.954 -1.7082 1.55207 0
M  V30 3402 C 338.924 -1.61278 0.39732 0
M  V30 3403 O 340.109 -1.80717 0.612038 0
M  V30 3404 C 337.249 -3.09144 1.53376 0
M  V30 3405 C 336.362 -3.29423 2.79472 0
M  V30 3406 C 335.497 -4.57907 2.69248 0
M  V30 3407 C 334.536 -4.71476 3.90354 0
M  V30 3408 N 333.673 -5.9127 3.78608 0
M  V30 3409 H 338.513 -1.62125 2.50039 0
M  V30 3410 H 336.05 -0.790389 1.24062 0
M  V30 3411 H 338.008 -3.89186 1.50301 0
M  V30 3412 H 336.638 -3.16773 0.620876 0
M  V30 3413 H 335.69 -2.43091 2.92594 0
M  V30 3414 H 337.002 -3.3532 3.69272 0
M  V30 3415 H 336.156 -5.46157 2.64192 0
M  V30 3416 H 334.895 -4.54423 1.77063 0
M  V30 3417 H 333.9 -3.81648 3.95759 0
M  V30 3418 H 335.125 -4.76751 4.83617 0
M  V30 3419 H 333.071 -5.88813 2.89199 0
M  V30 3420 H 332.988 -5.98369 4.6205 0
M  V30 3421 H 334.256 -6.81992 3.77501 0
M  V30 3422 N 338.485 -1.33259 -0.841409 0
M  V30 3423 C 339.432 -1.23302 -1.95103 0
M  V30 3424 C 340.402 -0.112204 -1.65721 0
M  V30 3425 O 341.587 -0.290038 -1.88583 0
M  V30 3426 C 338.727 -0.975583 -3.31023 0
M  V30 3427 C 337.84 -2.18243 -3.72819 0
M  V30 3428 C 336.975 -1.85936 -4.97595 0
M  V30 3429 C 336.014 -3.02866 -5.3192 0
M  V30 3430 N 335.151 -2.70565 -6.47873 0
M  V30 3431 H 339.991 -2.18207 -2.02952 0
M  V30 3432 H 337.528 -1.0851 -0.993173 0
M  V30 3433 H 339.486 -0.80677 -4.09325 0
M  V30 3434 H 338.116 -0.0632755 -3.22738 0
M  V30 3435 H 337.168 -2.46107 -2.90061 0
M  V30 3436 H 338.48 -3.05666 -3.94169 0
M  V30 3437 H 337.634 -1.65684 -5.83638 0
M  V30 3438 H 336.373 -0.957452 -4.78209 0
M  V30 3439 H 335.378 -3.23736 -4.44382 0
M  V30 3440 H 336.603 -3.93809 -5.53255 0
M  V30 3441 H 334.549 -1.8293 -6.29978 0
M  V30 3442 H 334.466 -3.51519 -6.69306 0
M  V30 3443 H 335.734 -2.53774 -7.37034 0
M  V30 3444 N 339.963 1.05934 -1.16686 0
M  V30 3445 C 340.895 2.13468 -0.834503 0
M  V30 3446 C 341.908 1.62013 0.15984 0
M  V30 3447 O 343.097 1.7838 -0.0654228 0
M  V30 3448 C 340.197 3.3817 -0.222361 0
M  V30 3449 C 339.37 4.18928 -1.25771 0
M  V30 3450 C 338.429 5.21985 -0.664703 0
M  V30 3451 O 337.455 5.53334 -1.33453 0
M  V30 3452 N 338.657 5.77919 0.546834 0
M  V30 3453 H 341.422 2.42578 -1.75999 0
M  V30 3454 H 338.983 1.21967 -1.06469 0
M  V30 3455 H 340.975 4.04266 0.187472 0
M  V30 3456 H 339.545 3.06655 0.606758 0
M  V30 3457 H 338.765 3.48433 -1.84358 0
M  V30 3458 H 340.053 4.69687 -1.95631 0
M  V30 3459 H 339.451 5.54721 1.10912 0
M  V30 3460 H 338.008 6.45573 0.898829 0
M  V30 3461 N 341.441 0.965919 1.2453 0
M  V30 3462 C 342.351 0.502154 2.29163 0
M  V30 3463 C 343.367 -0.436017 1.68448 0
M  V30 3464 O 344.543 -0.309497 1.99008 0
M  V30 3465 C 341.608 -0.201956 3.46111 0
M  V30 3466 C 340.669 0.775821 4.22232 0
M  V30 3467 C 339.902 0.105217 5.33596 0
M  V30 3468 O 340.125 -1.10683 5.59558 0
M  V30 3469 O 339.059 0.796475 5.96607 0
M  V30 3470 H 342.885 1.37194 2.70946 0
M  V30 3471 H 340.47 0.732875 1.30189 0
M  V30 3472 H 342.352 -0.597564 4.17142 0
M  V30 3473 H 341.027 -1.04673 3.06309 0
M  V30 3474 H 339.934 1.22185 3.53584 0
M  V30 3475 H 341.267 1.58896 4.65846 0
M  V30 3476 N 342.919 -1.39368 0.735821 0
M  V30 3477 C 343.866 -2.30599 0.0963825 0
M  V30 3478 C 344.836 -1.49257 -0.728794 0
M  V30 3479 O 346.021 -1.77941 -0.688588 0
M  V30 3480 C 343.161 -3.35596 -0.804305 0
M  V30 3481 C 342.274 -4.31987 0.0335761 0
M  V30 3482 C 341.409 -5.24053 -0.868461 0
M  V30 3483 C 340.448 -6.12095 -0.0258776 0
M  V30 3484 N 339.585 -6.96514 -0.883893 0
M  V30 3485 H 344.425 -2.8471 0.880002 0
M  V30 3486 H 341.962 -1.40188 0.445619 0
M  V30 3487 H 343.92 -3.95062 -1.34096 0
M  V30 3488 H 342.55 -2.82938 -1.55389 0
M  V30 3489 H 341.602 -3.74133 0.68766 0
M  V30 3490 H 342.914 -4.94074 0.685036 0
M  V30 3491 H 342.068 -5.88549 -1.47293 0
M  V30 3492 H 340.807 -4.62289 -1.5537 0
M  V30 3493 H 339.812 -5.4661 0.591386 0
M  V30 3494 H 341.037 -6.75923 0.656156 0
M  V30 3495 H 338.983 -6.37318 -1.55441 0
M  V30 3496 H 338.9 -7.55448 -0.288931 0
M  V30 3497 H 340.168 -7.65439 -1.4739 0
M  V30 3498 N 344.397 -0.483516 -1.5 0
M  V30 3499 C 345.625 0.0644831 -2.06799 0
M  V30 3500 C 346.04 1.32399 -1.34596 0
M  V30 3501 O 345.397 1.77626 -0.418946 0
M  V30 3502 C 345.448 0.339927 -3.59898 0
M  V30 3503 O 345.169 -0.869635 -4.29382 0
M  V30 3504 C 346.67 0.933515 -4.33359 0
M  V30 3505 H 343.89 -0.0126333 -0.670881 0
M  V30 3506 H 346.434 -0.675864 -1.93009 0
M  V30 3507 H 344.589 1.03022 -3.7345 0
M  V30 3508 H 345.003 -0.62179 -5.20801 0
M  V30 3509 H 346.477 1.07593 -5.41413 0
M  V30 3510 H 346.954 1.92685 -3.94676 0
M  V30 3511 H 347.56 0.281221 -4.24369 0
M  V30 3512 N 345.875 1.56104 -0.216619 0
M  V30 3513 C 347.286 1.844 0.292128 0
M  V30 3514 C 347.637 1.13788 1.59833 0
M  V30 3515 O 346.762 0.405888 2.12559 0
M  V30 3516 C 347.357 3.3452 0.53681 0
M  V30 3517 C 345.916 3.63151 0.989876 0
M  V30 3518 C 345.063 2.77255 0.0502302 0
M  V30 3519 H 348.014 1.52481 -0.439926 0
M  V30 3520 H 348.035 3.54459 1.38345 0
M  V30 3521 H 347.547 3.85885 -0.414031 0
M  V30 3522 H 345.648 3.17238 1.95425 0
M  V30 3523 H 345.761 4.71177 0.867698 0
M  V30 3524 H 344.125 2.48555 0.556117 0
M  V30 3525 H 344.908 3.31416 -0.89544 0
M  V30 3526 N 347.353 -0.0568162 1.57498 0
M  V30 3527 C 348.3 -1.06591 2.04712 0
M  V30 3528 C 349.27 -1.3758 0.930644 0
M  V30 3529 O 350.455 -1.48392 1.19935 0
M  V30 3530 C 347.595 -2.3701 2.50839 0
M  V30 3531 C 346.708 -2.12421 3.76167 0
M  V30 3532 C 345.843 -3.36511 4.11015 0
M  V30 3533 C 344.882 -3.07353 5.2934 0
M  V30 3534 N 344.019 -4.23816 5.59754 0
M  V30 3535 H 348.859 -0.65631 2.90683 0
M  V30 3536 H 346.396 -0.312481 1.43743 0
M  V30 3537 H 348.354 -3.13175 2.7564 0
M  V30 3538 H 346.984 -2.75744 1.67825 0
M  V30 3539 H 346.036 -1.2688 3.58616 0
M  V30 3540 H 347.348 -1.86894 4.62463 0
M  V30 3541 H 346.502 -4.21062 4.36797 0
M  V30 3542 H 345.241 -3.65128 3.23315 0
M  V30 3543 H 344.246 -2.212 5.03339 0
M  V30 3544 H 345.471 -2.80043 6.1867 0
M  V30 3545 H 343.417 -4.52436 4.75014 0
M  V30 3546 H 343.334 -4.01614 6.40501 0
M  V30 3547 H 344.602 -5.0932 5.90096 0
M  V30 3548 N 348.832 -1.54138 -0.328536 0
M  V30 3549 C 350.06 -1.76062 -1.08673 0
M  V30 3550 C 350.475 -0.506852 -1.81869 0
M  V30 3551 O 349.832 0.522223 -1.74869 0
M  V30 3552 C 349.883 -2.95054 -2.08866 0
M  V30 3553 O 349.604 -4.15583 -1.38644 0
M  V30 3554 C 351.105 -3.2915 -2.96943 0
M  V30 3555 H 348.325 -0.587889 -0.323461 0
M  V30 3556 H 350.869 -2.0101 -0.376175 0
M  V30 3557 H 349.024 -2.72394 -2.75464 0
M  V30 3558 H 349.438 -4.82481 -2.05699 0
M  V30 3559 H 350.912 -4.15723 -3.63151 0
M  V30 3560 H 351.389 -2.461 -3.63774 0
M  V30 3561 H 351.995 -3.53871 -2.35914 0
M  V30 3562 N 350.31 0.590341 -1.46126 0
M  V30 3563 C 351.721 1.17243 -1.45296 0
M  V30 3564 C 352.072 1.95281 -0.189723 0
M  V30 3565 O 351.197 2.04502 0.707674 0
M  V30 3566 C 351.792 2.13284 -2.6324 0
M  V30 3567 C 350.351 2.66832 -2.65476 0
M  V30 3568 C 349.498 1.42557 -2.3785 0
M  V30 3569 H 352.449 0.378692 -1.54116 0
M  V30 3570 H 352.47 2.96619 -2.38323 0
M  V30 3571 H 351.982 1.56459 -3.55165 0
M  V30 3572 H 350.083 3.27548 -1.77603 0
M  V30 3573 H 350.196 3.10088 -3.65215 0
M  V30 3574 H 348.56 1.72107 -1.87753 0
M  V30 3575 H 349.343 0.875741 -3.31942 0
M  V30 3576 N 351.788 1.33704 0.83433 0
M  V30 3577 C 352.735 1.24335 1.94447 0
M  V30 3578 C 353.705 0.120991 1.65659 0
M  V30 3579 O 354.89 0.300035 1.88426 0
M  V30 3580 C 352.03 0.993124 3.30501 0
M  V30 3581 C 351.143 2.20217 3.71657 0
M  V30 3582 C 350.278 1.88572 4.96602 0
M  V30 3583 C 349.317 3.05683 5.30306 0
M  V30 3584 N 348.454 2.73997 6.46429 0
M  V30 3585 H 353.294 2.1928 2.01792 0
M  V30 3586 H 350.831 1.09035 0.987404 0
M  V30 3587 H 352.789 0.828467 4.08892 0
M  V30 3588 H 351.419 0.0803902 3.227 0
M  V30 3589 H 350.471 2.47642 2.88752 0
M  V30 3590 H 351.783 3.07752 3.92543 0
M  V30 3591 H 350.937 1.68776 5.82752 0
M  V30 3592 H 349.676 0.982799 4.77695 0
M  V30 3593 H 348.681 3.26088 4.42659 0
M  V30 3594 H 349.906 3.96737 5.51159 0
M  V30 3595 H 347.852 1.86268 6.28999 0
M  V30 3596 H 347.769 3.55064 6.67432 0
M  V30 3597 H 349.037 2.57679 7.35678 0
M  V30 3598 N 353.266 -1.05314 1.17247 0
M  V30 3599 C 354.514 -1.77941 0.958194 0
M  V30 3600 C 354.835 -1.88089 -0.514556 0
M  V30 3601 O 354.105 -1.39676 -1.37359 0
M  V30 3602 H 352.685 -0.659116 0.351533 0
M  V30 3603 H 355.347 -1.27166 1.47699 0
M  V30 3604 H 354.443 -2.79663 1.38546 0
M  V30 3605 N 354.744 -0.972509 -1.24016 0
M  V30 3606 C 356.155 -0.67517 -1.74064 0
M  V30 3607 C 356.506 0.808939 -1.78747 0
M  V30 3608 O 355.631 1.63286 -1.42009 0
M  V30 3609 C 356.226 -1.21889 -3.16115 0
M  V30 3610 C 354.785 -0.971358 -3.6365 0
M  V30 3611 C 353.932 -1.35134 -2.42145 0
M  V30 3612 H 356.883 -1.14727 -1.09651 0
M  V30 3613 H 356.904 -0.587489 -3.75937 0
M  V30 3614 H 356.416 -2.29906 -3.12674 0
M  V30 3615 H 354.517 0.0930686 -3.72484 0
M  V30 3616 H 354.63 -1.62039 -4.50866 0
M  V30 3617 H 352.994 -0.769751 -2.4279 0
M  V30 3618 H 353.777 -2.4411 -2.41381 0
M  V30 3619 N 356.222 1.38976 -0.743202 0
M  V30 3620 C 357.447 2.05161 -0.303936 0
M  V30 3621 C 357.872 1.55677 1.05576 0
M  V30 3622 O 357.23 0.704131 1.67068 0
M  V30 3623 C 357.278 3.59138 -0.324373 0
M  V30 3624 O 356.382 4.06668 0.685204 0
M  V30 3625 H 355.723 0.649815 -0.136518 0
M  V30 3626 H 358.253 1.77852 -1.01142 0
M  V30 3627 H 358.263 4.07639 -0.171618 0
M  V30 3628 H 356.938 3.94515 -1.31647 0
M  V30 3629 H 355.515 3.69561 0.497913 0
M  V30 3630 N 357.7 0.491464 1.49741 0
M  V30 3631 C 358.925 -0.0557177 2.07325 0
M  V30 3632 C 359.35 -1.30925 1.35056 0
M  V30 3633 O 358.708 -1.76733 0.404365 0
M  V30 3634 C 358.756 -0.302074 3.59333 0
M  V30 3635 O 357.86 -1.37868 3.88672 0
M  V30 3636 H 357.201 0.0219956 0.663636 0
M  V30 3637 H 359.731 0.688352 1.92673 0
M  V30 3638 H 359.741 -0.536464 4.04458 0
M  V30 3639 H 358.416 0.61383 4.11345 0
M  V30 3640 H 356.993 -1.12999 3.55367 0
M  V30 3641 N 359.178 -1.55987 0.224894 0
M  V30 3642 C 360.424 -1.98684 -0.406502 0
M  V30 3643 C 360.757 -1.11248 -1.59177 0
M  V30 3644 O 360.032 -0.170909 -1.93748 0
M  V30 3645 C 360.315 -3.50218 -0.837808 0
M  V30 3646 C 360.168 -4.48426 0.351332 0
M  V30 3647 C 361.487 -4.06243 -1.69278 0
M  V30 3648 H 358.606 -0.722337 -0.146283 0
M  V30 3649 H 361.248 -1.87255 0.321799 0
M  V30 3650 H 359.398 -3.60089 -1.45837 0
M  V30 3651 H 361.07 -4.50562 0.989526 0
M  V30 3652 H 359.313 -4.22159 0.998207 0
M  V30 3653 H 359.984 -5.52 0.00655905 0
M  V30 3654 H 362.46 -3.99337 -1.16914 0
M  V30 3655 H 361.336 -5.12581 -1.96346 0
M  V30 3656 H 361.597 -3.53332 -2.65723 0
M  V30 3657 N 360.656 0.0484629 -1.57525 0
M  V30 3658 C 361.566 1.07241 -2.08654 0
M  V30 3659 C 362.582 1.409 -1.02095 0
M  V30 3660 O 363.758 1.50609 -1.33712 0
M  V30 3661 C 360.823 2.36008 -2.5397 0
M  V30 3662 C 359.884 2.09108 -3.7493 0
M  V30 3663 C 359.117 3.31736 -4.18075 0
M  V30 3664 O 359.34 4.41714 -3.60895 0
M  V30 3665 O 358.274 3.18576 -5.10679 0
M  V30 3666 H 362.1 0.667965 -2.96263 0
M  V30 3667 H 359.685 0.26417 -1.47046 0
M  V30 3668 H 361.567 3.11747 -2.83535 0
M  V30 3669 H 360.242 2.75786 -1.69481 0
M  V30 3670 H 359.149 1.31 -3.50414 0
M  V30 3671 H 360.482 1.74198 -4.60343 0
M  V30 3672 N 362.134 1.5431 0.320358 0
M  V30 3673 C 363.411 1.63322 1.07635 0
M  V30 3674 C 363.791 0.46912 2.05821 0
M  V30 3675 O 363.139 -0.536274 2.22118 0
M  V30 3676 C 363.349 3.00465 1.77544 0
M  V30 3677 C 364.697 3.56621 2.30449 0
M  V30 3678 O 365.721 3.02791 1.87606 0
M  V30 3679 O 364.58 4.5083 3.08892 0
M  V30 3680 H 361.674 0.661502 0.496331 0
M  V30 3681 H 364.22 1.66656 0.319992 0
M  V30 3682 H 362.992 3.76629 1.06143 0
M  V30 3683 H 362.615 3.00824 2.59982 0
M  V30 3684 N 363.613 -0.582584 1.46437 0
M  V30 3685 C 364.862 -1.337 1.5102 0
M  V30 3686 C 365.175 -1.94891 0.166359 0
M  V30 3687 O 366.381 -2.71351 0.0899954 0
M  V30 3688 C 364.837 -2.42315 2.66104 0
M  V30 3689 C 364.445 -1.87427 4.06909 0
M  V30 3690 C 366.189 -3.19099 2.79958 0
M  V30 3691 C 364.096 -2.93672 5.13333 0
M  V30 3692 H 363.026 -0.502619 0.562041 0
M  V30 3693 H 365.677 -0.621701 1.72647 0
M  V30 3694 H 364.059 -3.16645 2.37807 0
M  V30 3695 H 365.233 -1.19639 4.44998 0
M  V30 3696 H 363.548 -1.2331 3.97723 0
M  V30 3697 H 366.145 -3.9839 3.56636 0
M  V30 3698 H 366.488 -3.71695 1.87479 0
M  V30 3699 H 367.021 -2.51875 3.07902 0
M  V30 3700 H 363.76 -2.45962 6.07604 0
M  V30 3701 H 363.28 -3.59948 4.79789 0
M  V30 3702 H 364.959 -3.5762 5.39182 0
M  V30 3703 N 365.091 -1.34144 -0.827227 0
M  V30 3704 C 366.038 -1.25364 -1.93785 0
M  V30 3705 C 367.008 -0.129774 -1.65592 0
M  V30 3706 O 368.193 -0.310024 -1.88264 0
M  V30 3707 C 365.333 -1.01064 -3.2997 0
M  V30 3708 C 364.446 -2.22185 -3.70484 0
M  V30 3709 C 363.581 -1.91203 -4.95595 0
M  V30 3710 C 362.62 -3.08491 -5.28677 0
M  V30 3711 N 361.757 -2.77421 -6.44967 0
M  V30 3712 H 366.597 -2.20347 -2.00627 0
M  V30 3713 H 364.134 -1.09558 -0.981608 0
M  V30 3714 H 366.092 -0.850139 -4.08446 0
M  V30 3715 H 364.722 -0.0975026 -3.22653 0
M  V30 3716 H 363.774 -2.4917 -2.87434 0
M  V30 3717 H 365.086 -3.0983 -3.90905 0
M  V30 3718 H 364.24 -1.71864 -5.81848 0
M  V30 3719 H 362.979 -1.00812 -4.77167 0
M  V30 3720 H 361.984 -3.28431 -4.40923 0
M  V30 3721 H 363.209 -3.99655 -5.49047 0
M  V30 3722 H 361.155 -1.89601 -6.28003 0
M  V30 3723 H 361.072 -3.58598 -6.6554 0
M  V30 3724 H 362.34 -2.61577 -7.34301 0
M  V30 3725 N 366.569 1.04691 -1.17803 0
M  V30 3726 C 367.532 2.10724 -0.901545 0
M  V30 3727 C 368.532 1.6042 0.110437 0
M  V30 3728 O 369.722 1.7377 -0.122303 0
M  V30 3729 C 366.854 3.39084 -0.351409 0
M  V30 3730 H 368.047 2.36686 -1.84174 0
M  V30 3731 H 365.6 1.21015 -0.98919 0
M  V30 3732 H 366.335 3.18782 0.59569 0
M  V30 3733 H 366.12 3.76909 -1.08083 0
M  V30 3734 H 367.61 4.17227 -0.176451 0
M  V30 3735 N 368.047 0.979072 1.23499 0
M  V30 3736 C 368.994 0.517904 2.24914 0
M  V30 3737 C 369.964 -0.442525 1.60097 0
M  V30 3738 O 371.149 -0.350365 1.87556 0
M  V30 3739 C 368.289 -0.174813 3.44657 0
M  V30 3740 C 367.402 0.825721 4.24035 0
M  V30 3741 C 366.537 0.107946 5.3109 0
M  V30 3742 C 365.576 1.09778 6.02175 0
M  V30 3743 N 364.713 0.40925 7.00906 0
M  V30 3744 H 369.553 1.38751 2.63727 0
M  V30 3745 H 367.09 0.695303 1.2963 0
M  V30 3746 H 369.048 -0.593233 4.12961 0
M  V30 3747 H 367.678 -1.0083 3.06648 0
M  V30 3748 H 366.73 1.36253 3.55161 0
M  V30 3749 H 368.042 1.58005 4.73113 0
M  V30 3750 H 367.196 -0.367904 6.05583 0
M  V30 3751 H 365.935 -0.678994 4.8295 0
M  V30 3752 H 364.94 1.5844 5.26476 0
M  V30 3753 H 366.165 1.88536 6.52404 0
M  V30 3754 H 364.111 -0.358506 6.5502 0
M  V30 3755 H 364.028 1.10226 7.47921 0
M  V30 3756 H 365.296 -0.0442557 7.79487 0
M  V30 3757 N 369.525 -1.3858 0.750561 0
M  V30 3758 C 370.458 -2.28095 0.0693139 0
M  V30 3759 C 371.436 -1.45217 -0.731491 0
M  V30 3760 O 372.62 -1.74587 -0.71076 0
M  V30 3761 C 369.747 -3.26282 -0.90871 0
M  V30 3762 C 368.793 -4.26056 -0.194507 0
M  V30 3763 S 369.626 -5.24026 1.10257 0
M  V30 3764 C 370.782 -6.2577 0.127542 0
M  V30 3765 H 371.015 -2.85526 0.8284 0
M  V30 3766 H 368.548 -1.44536 0.543014 0
M  V30 3767 H 370.506 -3.83367 -1.46766 0
M  V30 3768 H 369.167 -2.6784 -1.64075 0
M  V30 3769 H 368.36 -4.95249 -0.93512 0
M  V30 3770 H 367.962 -3.72852 0.292837 0
M  V30 3771 H 370.254 -6.73796 -0.707516 0
M  V30 3772 H 371.197 -7.03712 0.787044 0
M  V30 3773 H 371.605 -5.63938 -0.251803 0
M  V30 3774 N 371.003 -0.499398 -1.49478 0
M  V30 3775 C 371.935 0.316575 -2.27003 0
M  V30 3776 C 372.948 0.932047 -1.33479 0
M  V30 3777 O 374.137 0.815658 -1.58774 0
M  V30 3778 C 371.237 1.46055 -3.05812 0
M  V30 3779 C 370.41 0.952679 -4.26899 0
M  V30 3780 C 369.469 1.97407 -4.87767 0
M  V30 3781 O 368.495 1.54326 -5.4788 0
M  V30 3782 N 369.697 3.30436 -4.77276 0
M  V30 3783 H 372.462 -0.348168 -2.97671 0
M  V30 3784 H 370.023 -0.33185 -1.58463 0
M  V30 3785 H 372.015 2.14135 -3.43407 0
M  V30 3786 H 370.585 2.02948 -2.37762 0
M  V30 3787 H 369.805 0.0968248 -3.94081 0
M  V30 3788 H 371.093 0.59174 -5.05347 0
M  V30 3789 H 370.491 3.68126 -4.29534 0
M  V30 3790 H 369.048 3.94235 -5.19059 0
M  V30 3791 N 372.481 1.55866 -0.233164 0
M  V30 3792 C 373.444 2.1953 0.658715 0
M  V30 3793 C 374.444 1.16053 1.11303 0
M  V30 3794 O 375.634 1.41218 1.01996 0
M  V30 3795 C 372.766 2.82791 1.90373 0
M  V30 3796 H 373.959 2.99721 0.10347 0
M  V30 3797 H 371.512 1.56291 0.0164245 0
M  V30 3798 H 372.247 2.06501 2.50056 0
M  V30 3799 H 372.032 3.58578 1.58632 0
M  V30 3800 H 373.522 3.31556 2.53891 0
M  V30 3801 N 373.959 -0.0401083 1.57549 0
M  V30 3802 C 375.184 -0.748931 1.93406 0
M  V30 3803 C 375.609 -1.68686 0.832274 0
M  V30 3804 O 374.967 -1.80047 -0.212818 0
M  V30 3805 C 375.015 -1.4916 3.28304 0
M  V30 3806 O 374.119 -2.6042 3.19774 0
M  V30 3807 H 373.46 -0.202212 0.63246 0
M  V30 3808 H 375.99 0.00112086 2.046 0
M  V30 3809 H 376 -1.86395 3.62934 0
M  V30 3810 H 374.675 -0.80364 4.08062 0
M  V30 3811 H 373.252 -2.25808 2.96758 0
M  V30 3812 N 375.437 -1.54477 -0.31217 0
M  V30 3813 C 376.686 -1.72438 -1.04633 0
M  V30 3814 C 376.999 -0.511163 -1.88803 0
M  V30 3815 O 378.205 -0.572341 -2.65399 0
M  V30 3816 C 376.661 -3.05043 -1.9099 0
M  V30 3817 C 376.269 -4.33806 -1.11877 0
M  V30 3818 C 378.013 -3.32364 -2.64073 0
M  V30 3819 C 375.92 -5.57467 -1.97445 0
M  V30 3820 H 374.85 -0.642647 -0.394361 0
M  V30 3821 H 377.501 -1.80966 -0.303929 0
M  V30 3822 H 375.883 -2.90451 -2.69173 0
M  V30 3823 H 377.057 -4.59199 -0.383843 0
M  V30 3824 H 375.372 -4.13336 -0.504252 0
M  V30 3825 H 377.969 -4.21951 -3.28423 0
M  V30 3826 H 378.312 -2.50745 -3.32314 0
M  V30 3827 H 378.845 -3.47875 -1.92944 0
M  V30 3828 H 375.584 -6.41722 -1.33692 0
M  V30 3829 H 375.104 -5.36277 -2.6864 0
M  V30 3830 H 376.783 -5.94303 -2.5576 0
M  V30 3831 N 376.915 0.57481 -1.46744 0
M  V30 3832 C 377.825 1.711 -1.60505 0
M  V30 3833 C 378.841 1.67008 -0.488307 0
M  V30 3834 O 380.017 1.86774 -0.753495 0
M  V30 3835 C 377.082 3.07608 -1.59932 0
M  V30 3836 C 376.143 3.22904 -2.82898 0
M  V30 3837 C 375.376 4.529 -2.82343 0
M  V30 3838 O 375.599 5.37278 -1.91542 0
M  V30 3839 O 374.533 4.71611 -3.73987 0
M  V30 3840 H 378.359 1.62436 -2.56609 0
M  V30 3841 H 375.944 0.742779 -1.29627 0
M  V30 3842 H 377.826 3.88877 -1.62336 0
M  V30 3843 H 376.501 3.16692 -0.669898 0
M  V30 3844 H 375.408 2.41099 -2.86046 0
M  V30 3845 H 376.741 3.18715 -3.75076 0
M  V30 3846 N 378.394 1.34581 0.820102 0
M  V30 3847 C 379.341 1.2639 1.93117 0
M  V30 3848 C 380.311 0.138554 1.65521 0
M  V30 3849 O 381.496 0.320004 1.88097 0
M  V30 3850 C 378.636 1.02812 3.29429 0
M  V30 3851 C 377.749 2.24146 3.693 0
M  V30 3852 C 376.884 1.93829 4.94574 0
M  V30 3853 C 375.923 3.1129 5.27034 0
M  V30 3854 N 375.06 2.80838 6.43486 0
M  V30 3855 H 379.9 2.21408 1.99455 0
M  V30 3856 H 377.437 1.10077 0.975784 0
M  V30 3857 H 379.395 0.871788 4.0799 0
M  V30 3858 H 378.025 0.114612 3.22596 0
M  V30 3859 H 377.077 2.50691 2.86109 0
M  V30 3860 H 378.389 3.11899 3.89257 0
M  V30 3861 H 377.543 1.74948 5.80929 0
M  V30 3862 H 376.282 1.03341 4.76626 0
M  V30 3863 H 375.287 3.30764 4.39175 0
M  V30 3864 H 376.512 4.02561 5.4692 0
M  V30 3865 H 374.458 1.92929 6.26988 0
M  V30 3866 H 374.375 3.62123 6.63629 0
M  V30 3867 H 375.643 2.65467 7.32903 0
M  V30 3868 N 379.872 -1.04064 1.18357 0
M  V30 3869 C 381.12 -1.76915 0.977013 0
M  V30 3870 C 381.441 -1.88624 -0.494577 0
M  V30 3871 O 380.711 -1.41125 -1.3587 0
M  V30 3872 H 379.291 -0.65535 0.358504 0
M  V30 3873 H 381.953 -1.25592 1.49039 0
M  V30 3874 H 381.049 -2.78178 1.41504 0
M  V30 3875 N 381.35 -0.985608 -1.22978 0
M  V30 3876 C 382.598 -0.656087 -1.91154 0
M  V30 3877 C 382.919 0.813561 -1.77218 0
M  V30 3878 O 382.189 1.58244 -1.1548 0
M  V30 3879 H 380.769 -0.239674 -0.707506 0
M  V30 3880 H 383.431 -1.25054 -1.49491 0
M  V30 3881 H 382.527 -0.912253 -2.9847 0
M  V30 3882 N 382.828 1.3818 -0.7579 0
M  V30 3883 C 384.053 2.04827 -0.325679 0
M  V30 3884 C 384.478 1.56788 1.03919 0
M  V30 3885 O 383.836 0.721811 1.66312 0
M  V30 3886 C 383.884 3.58774 -0.362447 0
M  V30 3887 O 382.988 4.07372 0.642033 0
M  V30 3888 H 382.329 0.64833 -0.143402 0
M  V30 3889 H 384.859 1.7677 -1.03023 0
M  V30 3890 H 384.869 4.07434 -0.214844 0
M  V30 3891 H 383.544 3.93096 -1.35824 0
M  V30 3892 H 382.121 3.70068 0.458688 0
M  V30 3893 N 384.306 0.507319 1.49211 0
M  V30 3894 C 385.236 -0.256939 2.32082 0
M  V30 3895 C 386.217 -0.956609 1.40652 0
M  V30 3896 O 387.402 -0.946788 1.69557 0
M  V30 3897 C 384.532 -1.31802 3.21318 0
M  V30 3898 C 383.486 -0.737855 4.21592 0
M  V30 3899 C 382.812 -1.89992 4.99807 0
M  V30 3900 C 384.112 0.275325 5.21574 0
M  V30 3901 H 385.806 0.434798 2.96226 0
M  V30 3902 H 383.352 0.210546 1.42452 0
M  V30 3903 H 385.305 -1.86045 3.78107 0
M  V30 3904 H 384.029 -2.03903 2.5513 0
M  V30 3905 H 382.688 -0.217126 3.65956 0
M  V30 3906 H 382.336 -2.60877 4.30061 0
M  V30 3907 H 382.036 -1.51777 5.6766 0
M  V30 3908 H 383.56 -2.44657 5.59442 0
M  V30 3909 H 384.974 -0.179193 5.7302 0
M  V30 3910 H 383.371 0.573649 5.97352 0
M  V30 3911 H 384.441 1.18903 4.70096 0
M  V30 3912 N 385.784 -1.5574 0.241426 0
M  V30 3913 C 387.195 -1.84842 -0.262755 0
M  V30 3914 C 387.546 -1.16317 -1.58003 0
M  V30 3915 O 386.671 -0.439653 -2.11887 0
M  V30 3916 C 387.266 -3.35332 -0.483523 0
M  V30 3917 C 385.825 -3.6468 -0.931977 0
M  V30 3918 C 384.972 -2.77299 -0.0061151 0
M  V30 3919 H 387.923 -1.51761 0.464129 0
M  V30 3920 H 387.944 -3.56615 -1.32688 0
M  V30 3921 H 387.456 -3.85178 0.47537 0
M  V30 3922 H 385.557 -3.20307 -1.90353 0
M  V30 3923 H 385.67 -4.72498 -0.792628 0
M  V30 3924 H 384.034 -2.49408 -0.516503 0
M  V30 3925 H 384.817 -3.2995 0.948052 0
M  V30 3926 N 387.262 0.0317525 -1.57568 0
M  V30 3927 C 388.209 1.0332 -2.06382 0
M  V30 3928 C 389.179 1.36082 -0.952414 0
M  V30 3929 O 390.364 1.46466 -1.2228 0
M  V30 3930 C 387.504 2.32989 -2.54578 0
M  V30 3931 C 386.617 2.0641 -3.79498 0
M  V30 3932 C 385.752 3.2993 -4.16317 0
M  V30 3933 C 384.791 2.98893 -5.34162 0
M  V30 3934 N 383.928 4.14857 -5.66426 0
M  V30 3935 H 388.768 0.609982 -2.9169 0
M  V30 3936 H 386.305 0.289573 -1.44222 0
M  V30 3937 H 388.263 3.0875 -2.80587 0
M  V30 3938 H 386.893 2.73039 -1.7219 0
M  V30 3939 H 385.945 1.21158 -3.6059 0
M  V30 3940 H 387.257 1.79513 -4.65378 0
M  V30 3941 H 386.411 4.1406 -4.4344 0
M  V30 3942 H 385.15 3.59938 -3.29083 0
M  V30 3943 H 384.155 2.13164 -5.06795 0
M  V30 3944 H 385.38 2.70165 -6.23047 0
M  V30 3945 H 383.326 4.44821 -4.82151 0
M  V30 3946 H 383.243 3.91374 -6.4681 0
M  V30 3947 H 384.511 4.99868 -5.98124 0
M  V30 3948 N 388.74 1.54641 0.303973 0
M  V30 3949 C 389.986 1.74038 1.04109 0
M  V30 3950 C 390.319 0.523051 1.87024 0
M  V30 3951 O 389.594 -0.479874 1.88487 0
M  V30 3952 C 389.877 3.02761 1.94955 0
M  V30 3953 C 389.73 4.34787 1.1524 0
M  V30 3954 C 391.049 3.27336 2.94175 0
M  V30 3955 H 388.168 0.63323 0.377079 0
M  V30 3956 H 390.81 1.87354 0.316001 0
M  V30 3957 H 388.96 2.9154 2.56782 0
M  V30 3958 H 390.632 4.57922 0.557236 0
M  V30 3959 H 388.875 4.31407 0.455053 0
M  V30 3960 H 389.546 5.21116 1.8205 0
M  V30 3961 H 392.022 3.38148 2.42477 0
M  V30 3962 H 390.898 4.18726 3.54908 0
M  V30 3963 H 391.159 2.45491 3.67677 0
M  V30 3964 N 390.218 -0.567019 1.47046 0
M  V30 3965 C 391.128 -1.70247 1.6141 0
M  V30 3966 C 392.144 -1.66746 0.497157 0
M  V30 3967 O 393.32 -1.86371 0.763389 0
M  V30 3968 C 390.385 -3.06756 1.61561 0
M  V30 3969 C 389.446 -3.21399 2.84607 0
M  V30 3970 C 388.679 -4.51396 2.84741 0
M  V30 3971 O 388.902 -5.36255 1.94388 0
M  V30 3972 O 387.836 -4.69621 3.76483 0
M  V30 3973 H 391.662 -1.61073 2.57467 0
M  V30 3974 H 389.247 -0.735894 1.30019 0
M  V30 3975 H 391.129 -3.8801 1.64396 0
M  V30 3976 H 389.804 -3.16333 0.686684 0
M  V30 3977 H 388.711 -2.39579 2.8732 0
M  V30 3978 H 390.044 -3.16721 3.76761 0
M  V30 3979 N 391.696 -1.35014 -0.812953 0
M  V30 3980 C 392.659 -1.27292 -1.90602 0
M  V30 3981 C 393.659 -0.185817 -1.59723 0
M  V30 3982 O 394.849 -0.439102 -1.68575 0
M  V30 3983 C 391.981 -0.967676 -3.26877 0
M  V30 3984 H 393.174 -2.24479 -1.9887 0
M  V30 3985 H 390.727 -1.19446 -1.00808 0
M  V30 3986 H 391.462 0.0005954 -3.243 0
M  V30 3987 H 391.247 -1.75412 -3.50675 0
M  V30 3988 H 392.737 -0.939085 -4.06904 0
M  V30 3989 N 393.175 1.03435 -1.18907 0
M  V30 3990 C 394.122 2.11591 -0.921837 0
M  V30 3991 C 395.092 1.65499 0.141226 0
M  V30 3992 O 396.277 1.908 0.000242829 0
M  V30 3993 C 393.417 3.42012 -0.460616 0
M  V30 3994 C 392.53 4.01682 -1.58982 0
M  V30 3995 C 391.665 5.20091 -1.08069 0
M  V30 3996 C 390.704 5.71805 -2.18416 0
M  V30 3997 N 389.841 6.81494 -1.68849 0
M  V30 3998 H 394.681 2.33787 -1.8479 0
M  V30 3999 H 392.218 1.1467 -0.921373 0
M  V30 4000 H 394.176 4.16834 -0.174642 0
M  V30 4001 H 392.806 3.19944 0.428467 0
M  V30 4002 H 391.858 3.24127 -1.99113 0
M  V30 4003 H 393.17 4.36084 -2.4214 0
M  V30 4004 H 392.324 6.02051 -0.749615 0
M  V30 4005 H 391.063 4.87209 -0.218771 0
M  V30 4006 H 390.068 4.88461 -2.5236 0
M  V30 4007 H 391.293 6.06728 -3.05054 0
M  V30 4008 H 389.239 6.50475 -0.849572 0
M  V30 4009 H 389.156 7.14994 -2.45601 0
M  V30 4010 H 390.424 7.67063 -1.38689 0
M  V30 4011 N 394.653 0.992116 1.22453 0
M  V30 4012 C 395.9 0.667534 1.91181 0
M  V30 4013 C 396.228 -0.800317 1.77271 0
M  V30 4014 O 395.483 -1.59421 1.13505 0
M  V30 4015 C 395.782 1.01832 3.42586 0
M  V30 4016 C 395.448 2.47831 3.76684 0
M  V30 4017 C 394.11 2.87729 3.85701 0
M  V30 4018 C 396.462 3.42466 3.92895 0
M  V30 4019 C 393.79 4.21252 4.08367 0
M  V30 4020 C 396.142 4.75648 4.17064 0
M  V30 4021 C 394.806 5.15288 4.24305 0
M  V30 4022 H 394.076 0.244268 0.699581 0
M  V30 4023 H 396.723 1.24816 1.45235 0
M  V30 4024 H 395.028 0.355769 3.90181 0
M  V30 4025 H 396.725 0.745228 3.94014 0
M  V30 4026 H 393.315 2.15905 3.70247 0
M  V30 4027 H 397.499 3.12814 3.85307 0
M  V30 4028 H 392.755 4.51554 4.122 0
M  V30 4029 H 396.929 5.48924 4.2855 0
M  V30 4030 H 394.556 6.18769 4.41621 0
M  V30 4031 N 396.131 -1.37776 0.765217 0
M  V30 4032 C 397.38 -1.99092 0.323307 0
M  V30 4033 C 397.693 -1.61434 -1.10446 0
M  V30 4034 O 398.899 -2.15805 -1.64743 0
M  V30 4035 C 397.355 -3.56019 0.527098 0
M  V30 4036 C 396.963 -4.0262 1.96471 0
M  V30 4037 C 398.707 -4.2424 0.148483 0
M  V30 4038 C 396.614 -5.52233 2.11644 0
M  V30 4039 H 395.544 -0.744846 0.117137 0
M  V30 4040 H 398.195 -1.57391 0.943417 0
M  V30 4041 H 396.577 -3.95667 -0.162372 0
M  V30 4042 H 397.751 -3.74234 2.68859 0
M  V30 4043 H 396.066 -3.47161 2.29931 0
M  V30 4044 H 398.663 -5.34159 0.240456 0
M  V30 4045 H 399.006 -4.06446 -0.900422 0
M  V30 4046 H 399.539 -3.89872 0.79025 0
M  V30 4047 H 396.278 -5.74945 3.1483 0
M  V30 4048 H 395.798 -5.82324 1.4373 0
M  V30 4049 H 397.477 -6.18106 1.91193 0
M  V30 4050 N 397.609 -0.515225 -1.4894 0
M  V30 4051 C 398.557 0.269115 -2.31038 0
M  V30 4052 C 399.551 0.949443 -1.40292 0
M  V30 4053 O 400.757 0.87551 -1.57273 0
M  V30 4054 H 397.132 0.10565 -0.744542 0
M  V30 4055 H 399.103 -0.443096 -2.95092 0
M  V30 4056 C 397.852 1.31213 -3.21991 0
M  V30 4057 H 397.175 0.798034 -3.91754 0
M  V30 4058 H 398.615 1.83263 -3.82349 0
M  V30 4059 C 397.074 2.33791 -2.42576 0
M  V30 4060 O 397.604 3.3995 -2.14003 0
M  V30 4061 N 395.81 2.06625 -2.0434 0
M  V30 4062 H 395.357 1.20314 -2.27777 0
M  V30 4063 H 395.315 2.75483 -1.51514 0
M  V30 4064 N 399.087 1.5561 -0.249682 0
M  V30 4065 C 400.317 2.03116 0.377803 0
M  V30 4066 C 400.725 1.12822 1.51881 0
M  V30 4067 O 400.068 0.13562 1.83199 0
M  V30 4068 C 400.13 3.46866 0.944693 0
M  V30 4069 C 399.794 4.56955 -0.0644259 0
M  V30 4070 C 400.791 5.12485 -0.874957 0
M  V30 4071 C 398.476 5.01936 -0.19132 0
M  V30 4072 C 400.47 6.11491 -1.79881 0
M  V30 4073 C 398.157 6.00773 -1.11868 0
M  V30 4074 C 399.155 6.5543 -1.92095 0
M  V30 4075 O 398.843 7.5234 -2.83267 0
M  V30 4076 H 398.575 0.669489 0.0935961 0
M  V30 4077 H 401.129 2.02004 -0.371966 0
M  V30 4078 H 399.359 3.45136 1.74407 0
M  V30 4079 H 401.048 3.77856 1.48255 0
M  V30 4080 H 401.814 4.78564 -0.787523 0
M  V30 4081 H 397.693 4.59055 0.423072 0
M  V30 4082 H 401.237 6.54078 -2.42543 0
M  V30 4083 H 397.134 6.34114 -1.20703 0
M  V30 4084 H 397.902 7.69966 -2.7766 0
M  V30 4085 N 400.565 -0.0233959 1.57583 0
M  V30 4086 C 401.811 -0.714119 1.89811 0
M  V30 4087 C 402.144 -1.74702 0.848113 0
M  V30 4088 O 401.419 -1.94023 -0.136135 0
M  V30 4089 C 401.702 -1.37853 3.32669 0
M  V30 4090 C 401.555 -0.358764 4.48367 0
M  V30 4091 C 402.874 -2.31101 3.7454 0
M  V30 4092 H 399.993 -0.25814 0.690314 0
M  V30 4093 H 402.635 0.0230927 1.89986 0
M  V30 4094 H 400.785 -2.00689 3.3265 0
M  V30 4095 H 402.457 0.268115 4.6052 0
M  V30 4096 H 400.7 0.321387 4.32608 0
M  V30 4097 H 401.371 -0.862242 5.45224 0
M  V30 4098 H 403.847 -1.78304 3.75961 0
M  V30 4099 H 402.723 -2.74567 4.75294 0
M  V30 4100 H 402.984 -3.18018 3.0711 0
M  V30 4101 N 402.043 -1.548 -0.295768 0
M  V30 4102 C 402.99 -1.86113 -1.36494 0
M  V30 4103 C 403.96 -0.7105 -1.50137 0
M  V30 4104 O 405.145 -0.959626 -1.64912 0
M  V30 4105 C 402.285 -2.11861 -2.72413 0
M  V30 4106 C 401.398 -3.39471 -2.67177 0
M  V30 4107 C 400.533 -3.55035 -3.95125 0
M  V30 4108 C 399.572 -4.76418 -3.84308 0
M  V30 4109 N 398.709 -4.8876 -5.04042 0
M  V30 4110 H 403.549 -2.77314 -1.09091 0
M  V30 4111 H 401.086 -1.37315 -0.52753 0
M  V30 4112 H 403.044 -2.24786 -3.51464 0
M  V30 4113 H 401.674 -1.2392 -2.98066 0
M  V30 4114 H 400.726 -3.35139 -1.79962 0
M  V30 4115 H 402.038 -4.28646 -2.55076 0
M  V30 4116 H 401.192 -3.67653 -4.82614 0
M  V30 4117 H 399.931 -2.64002 -4.10066 0
M  V30 4118 H 398.936 -4.63827 -2.95202 0
M  V30 4119 H 400.161 -5.68863 -3.70906 0
M  V30 4120 H 398.107 -4.00652 -5.19436 0
M  V30 4121 H 398.024 -5.71945 -4.94384 0
M  V30 4122 H 399.292 -5.0574 -5.93167 0
M  V30 4123 N 403.521 0.559213 -1.47345 0
M  V30 4124 C 404.469 1.68747 -1.60085 0
M  V30 4125 C 405.463 1.628 -0.46825 0
M  V30 4126 O 406.669 1.68009 -0.645977 0
M  V30 4127 H 403.044 0.558329 -0.503759 0
M  V30 4128 H 405.015 1.55138 -2.54902 0
M  V30 4129 C 403.764 3.07103 -1.63042 0
M  V30 4130 H 403.087 3.12361 -2.49541 0
M  V30 4131 H 404.527 3.85743 -1.76006 0
M  V30 4132 C 402.986 3.34935 -0.363357 0
M  V30 4133 O 403.516 3.98102 0.536416 0
M  V30 4134 N 401.722 2.89574 -0.244 0
M  V30 4135 H 401.269 2.38348 -0.977133 0
M  V30 4136 H 401.227 3.08566 0.602836 0
M  V30 4137 N 404.999 1.35443 0.805782 0
M  V30 4138 C 406.239 1.30127 1.57627 0
M  V30 4139 C 406.603 -0.122567 1.91608 0
M  V30 4140 O 407.804 -0.300107 2.67119 0
M  V30 4141 C 406.075 2.18314 2.82973 0
M  V30 4142 S 407.634 2.30521 3.7337 0
M  V30 4143 H 404.452 0.462439 0.540066 0
M  V30 4144 H 407.054 1.70843 0.95042 0
M  V30 4145 H 405.758 3.20741 2.56034 0
M  V30 4146 H 405.289 1.78558 3.50543 0
M  V30 4147 H 407.304 1.49062 4.73281 0
M  V30 4148 N 406.477 -1.02803 1.19454 0
M  V30 4149 C 407.724 -1.76217 0.997693 0
M  V30 4150 C 408.052 -1.887 -0.47144 0
M  V30 4151 O 407.307 -1.4011 -1.3663 0
M  V30 4152 C 407.606 -3.18941 1.6128 0
M  V30 4153 C 407.272 -3.26463 3.11019 0
M  V30 4154 C 405.934 -3.28223 3.51885 0
M  V30 4155 C 408.286 -3.25542 4.07028 0
M  V30 4156 C 405.614 -3.26719 4.8731 0
M  V30 4157 C 407.966 -3.25579 5.42385 0
M  V30 4158 C 406.63 -3.25637 5.82681 0
M  V30 4159 H 405.9 -0.644823 0.365082 0
M  V30 4160 H 408.547 -1.20655 1.4871 0
M  V30 4161 H 406.852 -3.77587 1.04572 0
M  V30 4162 H 408.549 -3.74415 1.43577 0
M  V30 4163 H 405.139 -3.25822 2.78457 0
M  V30 4164 H 409.323 -3.23362 3.76498 0
M  V30 4165 H 404.579 -3.25089 5.1781 0
M  V30 4166 H 408.753 -3.23817 6.16535 0
M  V30 4167 H 406.38 -3.24226 6.87591 0
M  V30 4168 N 407.956 -0.998596 -1.21925 0
M  V30 4169 C 409.372 -0.710303 -1.42923 0
M  V30 4170 C 409.572 0.716933 -1.88314 0
M  V30 4171 O 408.628 1.48712 -2.04062 0
M  V30 4172 C 409.941 -1.72072 -2.466 0
M  V30 4173 C 411.489 -1.73681 -2.60392 0
M  V30 4174 C 411.964 -2.73601 -3.67296 0
M  V30 4175 N 413.455 -2.7223 -3.7476 0
M  V30 4176 C 414.19 -3.46206 -4.57087 0
M  V30 4177 N 413.686 -4.29802 -5.43362 0
M  V30 4178 N 415.479 -3.34886 -4.51451 0
M  V30 4179 H 407.63 -1.92028 -0.9077 0
M  V30 4180 H 409.893 -0.828487 -0.460775 0
M  V30 4181 H 409.599 -2.74231 -2.20206 0
M  V30 4182 H 409.473 -1.51818 -3.45299 0
M  V30 4183 H 411.86 -0.722173 -2.86127 0
M  V30 4184 H 411.941 -1.98005 -1.61949 0
M  V30 4185 H 411.585 -3.75217 -3.42307 0
M  V30 4186 H 411.515 -2.46545 -4.65321 0
M  V30 4187 H 414.006 -2.11576 -3.1312 0
M  V30 4188 H 414.319 -4.83061 -6.03218 0
M  V30 4189 H 412.664 -4.33887 -5.42925 0
M  V30 4190 H 415.855 -2.69015 -3.83078 0
M  V30 4191 H 416.028 -3.92796 -5.15379 0
M  V30 4192 N 409.434 1.37368 -0.772513 0
M  V30 4193 C 410.367 2.27956 -0.105593 0
M  V30 4194 C 411.345 1.46362 0.708295 0
M  V30 4195 O 412.529 1.75695 0.682895 0
M  V30 4196 C 409.656 3.27687 0.856686 0
M  V30 4197 C 408.702 4.26312 0.1267 0
M  V30 4198 S 409.535 5.22206 -1.1858 0
M  V30 4199 C 410.691 6.25488 -0.227081 0
M  V30 4200 H 410.924 2.84171 -0.87372 0
M  V30 4201 H 408.457 1.43654 -0.565939 0
M  V30 4202 H 410.415 3.85653 1.40648 0
M  V30 4203 H 409.076 2.70417 1.59793 0
M  V30 4204 H 408.269 4.96674 0.856212 0
M  V30 4205 H 407.871 3.72339 -0.352117 0
M  V30 4206 H 410.163 6.74836 0.600231 0
M  V30 4207 H 411.106 7.02371 -0.898899 0
M  V30 4208 H 411.514 5.64267 0.162053 0
M  V30 4209 N 410.912 0.523116 1.48665 0
M  V30 4210 C 412.14 -0.0096312 2.06898 0
M  V30 4211 C 412.555 -1.28784 1.38059 0
M  V30 4212 O 411.912 -1.76453 0.465893 0
M  V30 4213 C 411.963 -0.244386 3.60673 0
M  V30 4214 O 411.684 0.983172 4.26925 0
M  V30 4215 C 413.185 -0.818289 4.35682 0
M  V30 4216 H 410.405 0.0304161 0.67031 0
M  V30 4217 H 412.949 0.726799 1.91149 0
M  V30 4218 H 411.104 -0.930847 3.76051 0
M  V30 4219 H 411.518 0.759653 5.1897 0
M  V30 4220 H 412.992 -0.93201 5.44075 0
M  V30 4221 H 413.469 -1.82153 3.99646 0
M  V30 4222 H 414.075 -0.168609 4.24966 0
M  V30 4223 N 412.39 -1.55475 0.257931 0
M  V30 4224 C 413.667 -1.91155 -0.414629 0
M  V30 4225 C 414.047 -1.18008 -1.75035 0
M  V30 4226 O 413.395 -0.301193 -2.26506 0
M  V30 4227 C 413.605 -3.44283 -0.571859 0
M  V30 4228 C 414.953 -4.15744 -0.862678 0
M  V30 4229 O 415.977 -3.50083 -0.657314 0
M  V30 4230 O 414.836 -5.31909 -1.2544 0
M  V30 4231 H 411.93 -0.796016 -0.22425 0
M  V30 4232 H 414.476 -1.66976 0.302814 0
M  V30 4233 H 413.248 -3.89558 0.368844 0
M  V30 4234 H 412.871 -3.7436 -1.33943 0
M  V30 4235 N 413.868 0.0150385 -1.57593 0
M  V30 4236 C 414.8 1.03912 -2.04291 0
M  V30 4237 C 415.813 1.31618 -0.958146 0
M  V30 4238 O 417.002 1.28859 -1.23522 0
M  V30 4239 C 414.102 2.37749 -2.41514 0
M  V30 4240 C 413.275 2.29198 -3.72541 0
M  V30 4241 C 412.334 3.45598 -3.96797 0
M  V30 4242 O 411.36 3.24461 -4.67668 0
M  V30 4243 N 412.562 4.67945 -3.43523 0
M  V30 4244 H 415.327 0.64099 -2.92765 0
M  V30 4245 H 412.888 0.20272 -1.60626 0
M  V30 4246 H 414.88 3.14364 -2.54867 0
M  V30 4247 H 413.45 2.69357 -1.58637 0
M  V30 4248 H 412.67 1.3759 -3.69408 0
M  V30 4249 H 413.958 2.20642 -4.5847 0
M  V30 4250 H 413.356 4.88017 -2.86104 0
M  V30 4251 H 411.913 5.41878 -3.62232 0
M  V30 4252 N 415.346 1.54954 0.287554 0
M  V30 4253 C 416.256 1.8991 1.37736 0
M  V30 4254 C 417.272 0.794701 1.54792 0
M  V30 4255 O 418.448 1.09243 1.69198 0
M  V30 4256 C 415.513 2.15108 2.71899 0
M  V30 4257 C 414.574 3.38752 2.63715 0
M  V30 4258 C 413.807 3.62739 3.91479 0
M  V30 4259 O 414.03 2.89492 4.91478 0
M  V30 4260 O 412.964 4.56267 3.92561 0
M  V30 4261 H 416.79 2.82652 1.11092 0
M  V30 4262 H 414.375 1.41315 0.484807 0
M  V30 4263 H 416.257 2.32806 3.51254 0
M  V30 4264 H 414.932 1.25551 2.9836 0
M  V30 4265 H 413.839 3.26405 1.82786 0
M  V30 4266 H 415.172 4.28483 2.42205 0
M  V30 4267 N 416.824 -0.551391 1.4764 0
M  V30 4268 C 417.787 -1.64007 1.60107 0
M  V30 4269 C 418.787 -1.53601 0.47576 0
M  V30 4270 O 419.977 -1.57655 0.740988 0
M  V30 4271 C 417.109 -3.03569 1.55108 0
M  V30 4272 H 418.302 -1.543 2.57161 0
M  V30 4273 H 415.855 -0.771776 1.35917 0
M  V30 4274 H 416.59 -3.18804 0.594519 0
M  V30 4275 H 416.375 -3.12532 2.36783 0
M  V30 4276 H 417.865 -3.82762 1.66982 0
M  V30 4277 N 418.302 -1.35869 -0.798587 0
M  V30 4278 C 419.551 -1.28921 -1.5512 0
M  V30 4279 C 419.864 0.13208 -1.95154 0
M  V30 4280 O 421.07 0.323879 -2.69561 0
M  V30 4281 C 419.526 -2.26141 -2.79979 0
M  V30 4282 C 419.134 -3.73658 -2.47151 0
M  V30 4283 C 420.878 -2.28152 -3.57976 0
M  V30 4284 C 418.785 -4.62679 -3.6835 0
M  V30 4285 H 417.715 -0.479031 -0.582276 0
M  V30 4286 H 420.366 -1.61179 -0.877125 0
M  V30 4287 H 418.748 -1.86865 -3.49138 0
M  V30 4288 H 419.922 -4.21616 -1.85947 0
M  V30 4289 H 418.237 -3.74333 -1.82383 0
M  V30 4290 H 420.834 -2.91875 -4.4801 0
M  V30 4291 H 421.177 -1.28748 -3.95891 0
M  V30 4292 H 421.71 -2.65998 -2.95787 0
M  V30 4293 H 418.449 -5.63111 -3.35538 0
M  V30 4294 H 417.969 -4.19442 -4.28752 0
M  V30 4295 H 419.648 -4.78498 -4.35487 0
M  V30 4296 N 419.78 1.02168 -1.19998 0
M  V30 4297 C 420.712 2.10705 -0.901994 0
M  V30 4298 C 421.725 1.6244 0.108216 0
M  V30 4299 O 422.914 1.78082 -0.12214 0
M  V30 4300 C 420.014 3.37291 -0.329834 0
M  V30 4301 C 419.187 4.14714 -1.39035 0
M  V30 4302 C 418.246 5.19606 -0.830432 0
M  V30 4303 O 417.272 5.48809 -1.50989 0
M  V30 4304 N 418.474 5.79366 0.362696 0
M  V30 4305 H 421.239 2.36856 -1.83628 0
M  V30 4306 H 418.8 1.18518 -1.10296 0
M  V30 4307 H 420.792 4.04657 0.0587633 0
M  V30 4308 H 419.362 3.0843 0.508891 0
M  V30 4309 H 418.582 3.42392 -1.9535 0
M  V30 4310 H 419.87 4.63226 -2.10474 0
M  V30 4311 H 419.268 5.57968 0.932081 0
M  V30 4312 H 417.825 6.48106 0.69299 0
M  V30 4313 N 421.258 1.00505 1.21394 0
M  V30 4314 C 422.535 0.603277 1.86064 0
M  V30 4315 C 422.915 -0.919095 1.90042 0
M  V30 4316 O 422.263 -1.80607 1.39977 0
M  V30 4317 C 422.473 1.23772 3.26315 0
M  V30 4318 C 423.821 1.34586 4.02705 0
M  V30 4319 O 424.845 1.19304 3.35626 0
M  V30 4320 O 423.704 1.59169 5.22807 0
M  V30 4321 H 420.798 0.206634 0.800769 0
M  V30 4322 H 423.344 1.1017 1.29076 0
M  V30 4323 H 422.116 2.27848 3.18121 0
M  V30 4324 H 421.739 0.725648 3.90922 0
M  V30 4325 N 422.737 -1.36956 0.779787 0
M  V30 4326 C 423.667 -2.32761 0.185651 0
M  V30 4327 C 424.648 -1.56177 -0.673989 0
M  V30 4328 O 425.833 -1.84378 -0.609797 0
M  V30 4329 C 422.963 -3.40418 -0.687964 0
M  V30 4330 C 421.917 -4.27941 0.0710102 0
M  V30 4331 C 421.243 -5.26681 -0.922573 0
M  V30 4332 C 422.543 -5.07006 1.25467 0
M  V30 4333 H 424.237 -2.82698 0.986008 0
M  V30 4334 H 421.783 -1.3592 0.475592 0
M  V30 4335 H 423.736 -4.06423 -1.11348 0
M  V30 4336 H 422.46 -2.89025 -1.52093 0
M  V30 4337 H 421.119 -3.63478 0.47739 0
M  V30 4338 H 420.767 -4.71565 -1.7503 0
M  V30 4339 H 420.467 -5.86103 -0.419237 0
M  V30 4340 H 421.991 -5.9556 -1.34686 0
M  V30 4341 H 423.405 -5.66105 0.905401 0
M  V30 4342 H 421.802 -5.75793 1.69063 0
M  V30 4343 H 422.872 -4.3921 2.05481 0
M  V30 4344 N 424.215 -0.530993 -1.48385 0
M  V30 4345 C 425.461 -0.00538653 -2.03399 0
M  V30 4346 C 425.816 1.31899 -1.40073 0
M  V30 4347 O 425.109 1.83901 -0.537676 0
M  V30 4348 C 425.303 0.172742 -3.56982 0
M  V30 4349 C 425.132 -1.13282 -4.35198 0
M  V30 4350 C 423.902 -1.69296 -4.76096 0
M  V30 4351 C 426.1 -2.04367 -4.71952 0
M  V30 4352 N 424.082 -2.9413 -5.38851 0
M  V30 4353 C 425.453 -3.13777 -5.34737 0
M  V30 4354 C 427.508 -2.04681 -4.53883 0
M  V30 4355 C 426.211 -4.23567 -5.81363 0
M  V30 4356 C 428.237 -3.13466 -5.01491 0
M  V30 4357 C 427.599 -4.21595 -5.64302 0
M  V30 4358 H 423.698 -0.0434945 -0.780789 0
M  V30 4359 H 426.282 -0.712495 -1.81195 0
M  V30 4360 H 424.453 0.848937 -3.79009 0
M  V30 4361 H 426.185 0.698046 -3.98634 0
M  V30 4362 H 422.94 -1.23422 -4.57235 0
M  V30 4363 H 423.364 -3.57689 -5.74794 0
M  V30 4364 H 428.006 -1.22378 -4.04702 0
M  V30 4365 H 425.724 -5.06648 -6.2955 0
M  V30 4366 H 429.31 -3.14765 -4.893 0
M  V30 4367 H 428.19 -5.04384 -6.00472 0
M  V30 4368 N 425.693 1.55336 -0.266172 0
M  V30 4369 C 426.625 2.19544 0.658247 0
M  V30 4370 C 427.638 1.17746 1.12427 0
M  V30 4371 O 428.827 1.44517 1.04772 0
M  V30 4372 C 425.927 2.80032 1.9088 0
M  V30 4373 C 425.1 4.07436 1.59106 0
M  V30 4374 C 424.159 4.52056 2.69317 0
M  V30 4375 O 423.185 5.18023 2.35883 0
M  V30 4376 N 424.387 4.21448 3.99201 0
M  V30 4377 H 427.152 2.99503 0.108754 0
M  V30 4378 H 424.713 1.61667 -0.0869059 0
M  V30 4379 H 426.705 3.06831 2.63888 0
M  V30 4380 H 425.275 2.04119 2.36758 0
M  V30 4381 H 424.495 3.88021 0.695243 0
M  V30 4382 H 425.783 4.90462 1.35367 0
M  V30 4383 H 425.181 3.68528 4.29189 0
M  V30 4384 H 423.738 4.53039 4.68614 0
M  V30 4385 N 427.171 -0.0066808 1.57599 0
M  V30 4386 C 428.417 -0.68835 1.91398 0
M  V30 4387 C 428.772 -1.7175 0.86716 0
M  V30 4388 O 428.065 -1.91215 -0.121475 0
M  V30 4389 C 428.259 -1.37939 3.29708 0
M  V30 4390 C 428.088 -0.418689 4.47747 0
M  V30 4391 C 426.858 -0.031526 5.0529 0
M  V30 4392 C 429.056 0.312301 5.13351 0
M  V30 4393 N 427.038 0.928088 6.06844 0
M  V30 4394 C 428.409 1.12682 6.09674 0
M  V30 4395 C 430.464 0.376853 4.96472 0
M  V30 4396 C 429.167 2 6.90936 0
M  V30 4397 C 431.193 1.23723 5.78314 0
M  V30 4398 C 430.555 2.03962 6.74225 0
M  V30 4399 H 426.654 -0.225292 0.748844 0
M  V30 4400 H 429.238 0.0520973 1.9463 0
M  V30 4401 H 427.409 -2.09017 3.27363 0
M  V30 4402 H 429.141 -2.01522 3.50957 0
M  V30 4403 H 425.896 -0.398485 4.71921 0
M  V30 4404 H 426.32 1.40307 6.62301 0
M  V30 4405 H 430.962 -0.22921 4.22178 0
M  V30 4406 H 428.68 2.61676 7.64559 0
M  V30 4407 H 432.266 1.291 5.67296 0
M  V30 4408 H 431.146 2.69461 7.36451 0
M  V30 4409 N 428.649 -1.55105 -0.279332 0
M  V30 4410 C 430.065 -1.46803 -0.626187 0
M  V30 4411 C 430.265 -0.676939 -1.89789 0
M  V30 4412 O 429.321 -0.19326 -2.51759 0
M  V30 4413 C 430.634 -2.90962 -0.759034 0
M  V30 4414 C 432.182 -3.01138 -0.853504 0
M  V30 4415 C 432.657 -4.46539 -1.01818 0
M  V30 4416 N 434.148 -4.50341 -1.08386 0
M  V30 4417 C 434.883 -5.60053 -1.22996 0
M  V30 4418 N 434.379 -6.79645 -1.34366 0
M  V30 4419 N 436.172 -5.47783 -1.26056 0
M  V30 4420 H 428.323 -2.04996 0.555921 0
M  V30 4421 H 430.586 -0.929325 0.187239 0
M  V30 4422 H 430.292 -3.51544 0.104852 0
M  V30 4423 H 430.166 -3.39619 -1.64131 0
M  V30 4424 H 432.553 -2.40658 -1.70786 0
M  V30 4425 H 432.634 -2.55745 0.0532466 0
M  V30 4426 H 432.278 -5.0762 -0.168504 0
M  V30 4427 H 432.208 -4.89583 -1.93948 0
M  V30 4428 H 434.699 -3.64191 -1.00864 0
M  V30 4429 H 435.012 -7.59012 -1.4533 0
M  V30 4430 H 433.357 -6.82469 -1.31382 0
M  V30 4431 H 436.548 -4.53294 -1.168 0
M  V30 4432 H 436.721 -6.33331 -1.37098 0
M  V30 4433 N 430.127 0.543554 -1.4793 0
M  V30 4434 C 431.074 1.64942 -1.6144 0
M  V30 4435 C 432.044 1.59692 -0.456903 0
M  V30 4436 O 433.229 1.78321 -0.678688 0
M  V30 4437 C 430.369 3.03238 -1.64744 0
M  V30 4438 C 429.482 3.18823 -2.91506 0
M  V30 4439 C 428.617 4.47599 -2.86057 0
M  V30 4440 C 427.656 4.56664 -4.07584 0
M  V30 4441 N 426.793 5.76811 -4.00292 0
M  V30 4442 H 431.633 1.52733 -2.55884 0
M  V30 4443 H 429.17 0.7438 -1.2691 0
M  V30 4444 H 431.128 3.83339 -1.64641 0
M  V30 4445 H 429.758 3.1425 -0.738017 0
M  V30 4446 H 428.81 2.32064 -3.01414 0
M  V30 4447 H 430.122 3.21384 -3.81463 0
M  V30 4448 H 429.276 5.35975 -2.84281 0
M  V30 4449 H 428.015 4.47538 -1.93807 0
M  V30 4450 H 427.02 3.66697 -4.09651 0
M  V30 4451 H 428.245 4.58474 -5.00978 0
M  V30 4452 H 426.191 5.77673 -3.10853 0
M  V30 4453 H 426.108 5.80808 -4.8394 0
M  V30 4454 H 427.376 6.67512 -4.02553 0
M  V30 4455 N 431.605 1.3629 0.791371 0
M  V30 4456 C 432.83 1.33726 1.58531 0
M  V30 4457 C 433.255 -0.0794933 1.87932 0
M  V30 4458 O 432.613 -1.05087 1.47738 0
M  V30 4459 C 432.661 2.16425 2.88431 0
M  V30 4460 O 431.765 1.5554 3.81944 0
M  V30 4461 H 431.106 0.457793 0.480959 0
M  V30 4462 H 433.636 1.79547 0.981031 0
M  V30 4463 H 433.646 2.28933 3.37718 0
M  V30 4464 H 432.321 3.19415 2.66359 0
M  V30 4465 H 430.898 1.51961 3.40532 0
M  V30 4466 N 433.083 -1.0153 1.20538 0
M  V30 4467 C 434.013 -2.11972 0.979295 0
M  V30 4468 C 434.994 -1.6985 -0.0921787 0
M  V30 4469 O 436.179 -1.94089 0.0655932 0
M  V30 4470 C 433.309 -3.43201 0.531984 0
M  V30 4471 C 432.263 -3.9907 1.54685 0
M  V30 4472 C 431.589 -5.26082 0.956127 0
M  V30 4473 C 432.889 -4.32313 2.93092 0
M  V30 4474 H 434.583 -2.31143 1.90298 0
M  V30 4475 H 432.129 -1.11079 0.916372 0
M  V30 4476 H 434.082 -4.1985 0.361044 0
M  V30 4477 H 432.806 -3.23792 -0.427327 0
M  V30 4478 H 431.465 -3.2453 1.70517 0
M  V30 4479 H 431.113 -5.02999 -0.0111538 0
M  V30 4480 H 430.813 -5.64426 1.63393 0
M  V30 4481 H 432.337 -6.05386 0.796284 0
M  V30 4482 H 433.751 -4.99845 2.80763 0
M  V30 4483 H 432.148 -4.81774 3.57791 0
M  V30 4484 H 433.218 -3.41025 3.44717 0
M  V30 4485 O 434.6 -1.13875 -1.14519 0
M  V30 4486 H 435.291 -0.85746 -1.73687 0
M  V30 END ATOM
M  V30 BEGIN BOND
M  V30 END BOND
M  V30 END CTAB
M  END
$$$$
