drugbank_target|P06747 Phosphoprotein (DB11603)
 OpenBabel12092121203D

  0  0  0     0  0            999 V3000
M  V30 BEGIN CTAB
M  V30 COUNTS 4628 4667 0 0 0
M  V30 BEGIN ATOM
M  V30 1 H -0.908 1.98254 -0.117106 0
M  V30 2 N 0 1.576 0 0
M  V30 3 C 0.933 2.03868 1.02534 0
M  V30 4 C 1.911 0.928543 1.3348 0
M  V30 5 O 3.095 1.19667 1.45644 0
M  V30 6 C 0.222 2.43627 2.35294 0
M  V30 7 C -0.732 3.65373 2.2001 0
M  V30 8 S 0.101 5.13292 1.52614 0
M  V30 9 C 1.257 5.56322 2.86805 0
M  V30 10 H 1.49 2.90518 0.631377 0
M  V30 11 H -0.977 1.52953 0.210867 0
M  V30 12 H 0.981 2.67203 3.11629 0
M  V30 13 H -0.358 1.57376 2.7183 0
M  V30 14 H -1.165 3.90944 3.18086 0
M  V30 15 H -1.563 3.418 1.51819 0
M  V30 16 H 0.729 5.58782 3.83104 0
M  V30 17 H 1.672 6.56266 2.65933 0
M  V30 18 H 2.08 4.83886 2.90714 0
M  V30 19 N 1.4781 -0.272755 1.55222 0
M  V30 20 C 2.7031 -1.02683 1.80197 0
M  V30 21 C 3.1281 -1.79142 0.573551 0
M  V30 22 O 2.4861 -1.74917 -0.476849 0
M  V30 23 C 2.5341 -1.9609 3.02624 0
M  V30 24 O 1.6381 -3.04863 2.77727 0
M  V30 25 H 0.9791 -0.293557 0.595584 0
M  V30 26 H 3.5091 -0.30159 2.02365 0
M  V30 27 H 3.5191 -2.38039 3.31363 0
M  V30 28 H 2.1941 -1.39851 3.91682 0
M  V30 29 H 0.7711 -2.67228 2.60084 0
M  V30 30 N 2.9562 -1.48159 -0.537278 0
M  V30 31 C 3.9032 -1.62138 -1.64256 0
M  V30 32 C 4.8732 -0.463668 -1.59497 0
M  V30 33 O 6.0582 -0.686241 -1.78032 0
M  V30 34 C 3.1982 -1.66028 -3.02537 0
M  V30 35 C 2.3112 -2.92855 -3.17585 0
M  V30 36 C 1.4462 -2.87952 -4.46382 0
M  V30 37 C 0.4852 -4.09516 -4.54932 0
M  V30 38 N -0.3778 -4.02733 -5.75109 0
M  V30 39 H 4.4622 -2.56529 -1.51647 0
M  V30 40 H 1.9992 -1.27224 -0.738414 0
M  V30 41 H 3.9572 -1.66265 -3.82638 0
M  V30 42 H 2.5872 -0.751331 -3.13934 0
M  V30 43 H 1.6392 -3.02395 -2.30784 0
M  V30 44 H 2.9512 -3.82822 -3.19764 0
M  V30 45 H 2.1052 -2.8655 -5.34765 0
M  V30 46 H 0.8442 -1.95702 -4.46712 0
M  V30 47 H -0.1508 -4.11201 -3.64957 0
M  V30 48 H 1.0742 -5.02917 -4.56346 0
M  V30 49 H -0.9798 -3.13299 -5.76351 0
M  V30 50 H -1.0628 -4.86397 -5.78752 0
M  V30 51 H 0.2052 -4.05379 -6.65799 0
M  V30 52 N 4.4343 0.785586 -1.36625 0
M  V30 53 C 5.6833 1.53883 -1.30396 0
M  V30 54 C 5.9963 1.95271 0.113452 0
M  V30 55 O 7.2023 2.69858 0.298142 0
M  V30 56 C 5.6583 2.77808 -2.28802 0
M  V30 57 C 5.2663 2.43574 -3.75999 0
M  V30 58 C 7.0103 3.55783 -2.31558 0
M  V30 59 C 4.9173 3.63919 -4.66173 0
M  V30 60 H 3.8473 0.577678 -0.484566 0
M  V30 61 H 6.4983 0.861705 -1.62009 0
M  V30 62 H 4.8803 3.47339 -1.90188 0
M  V30 63 H 6.0543 1.81916 -4.23371 0
M  V30 64 H 4.3693 1.78803 -3.76056 0
M  V30 65 H 6.9663 4.45205 -2.96137 0
M  V30 66 H 7.3093 3.94644 -1.3252 0
M  V30 67 H 7.8423 2.93235 -2.68809 0
M  V30 68 H 4.5813 3.3015 -5.66287 0
M  V30 69 H 4.1013 4.2473 -4.23515 0
M  V30 70 H 5.7803 4.30901 -4.82632 0
M  V30 71 N 5.9124 1.20967 1.01018 0
M  V30 72 C 7.1594 1.02374 1.74716 0
M  V30 73 C 7.4874 -0.443375 1.89379 0
M  V30 74 O 6.7424 -1.34535 1.42123 0
M  V30 75 C 7.0414 1.65997 3.16512 0
M  V30 76 C 6.7074 3.15831 3.2181 0
M  V30 77 C 5.3694 3.56719 3.22963 0
M  V30 78 C 7.7214 4.11816 3.19464 0
M  V30 79 C 5.0494 4.92107 3.19449 0
M  V30 80 C 7.4014 5.47158 3.17491 0
M  V30 81 C 6.0654 5.87451 3.16951 0
M  V30 82 H 5.3354 0.374614 0.639332 0
M  V30 83 H 7.9824 1.50485 1.18434 0
M  V30 84 H 6.2874 1.10166 3.75993 0
M  V30 85 H 7.9844 1.49119 3.72242 0
M  V30 86 H 4.5744 2.83263 3.21652 0
M  V30 87 H 8.7584 3.81257 3.17737 0
M  V30 88 H 4.0144 5.22579 3.17366 0
M  V30 89 H 8.1884 6.21274 3.14629 0
M  V30 90 H 5.8154 6.92329 3.13983 0
M  V30 91 N 7.3905 -1.2043 1.01659 0
M  V30 92 C 8.6365 -1.90079 0.706963 0
M  V30 93 C 8.9695 -1.78648 -0.761474 0
M  V30 94 O 8.2445 -1.17069 -1.55323 0
M  V30 95 C 8.5275 -3.41469 1.14327 0
M  V30 96 C 8.3805 -3.61833 2.67201 0
M  V30 97 C 9.6995 -4.34261 0.714529 0
M  V30 98 H 6.8185 -0.690254 0.2583 0
M  V30 99 H 9.4605 -1.41826 1.26433 0
M  V30 100 H 7.6105 -3.82696 0.669056 0
M  V30 101 H 9.2825 -3.2986 3.22475 0
M  V30 102 H 7.5255 -3.05304 3.08175 0
M  V30 103 H 8.1965 -4.67955 2.92783 0
M  V30 104 H 10.6725 -4.00682 1.12221 0
M  V30 105 H 9.5485 -5.38806 1.04784 0
M  V30 106 H 9.8095 -4.40431 -0.383799 0
M  V30 107 N 8.8686 -0.792821 -1.36206 0
M  V30 108 C 9.8166 -0.181555 -2.3189 0
M  V30 109 C 10.8106 0.661025 -1.55971 0
M  V30 110 O 12.0166 0.555728 -1.71206 0
M  V30 111 H 8.3916 -0.0399382 -0.750939 0
M  V30 112 H 10.3626 -1.00394 -2.81005 0
M  V30 113 C 9.1116 0.666444 -3.41253 0
M  V30 114 H 8.4346 0.0274489 -3.99791 0
M  V30 115 H 9.8746 1.06076 -4.10517 0
M  V30 116 C 8.3336 1.82614 -2.83114 0
M  V30 117 O 8.8636 2.9229 -2.75553 0
M  V30 118 N 7.0696 1.63333 -2.40356 0
M  V30 119 H 6.6166 0.741217 -2.46706 0
M  V30 120 H 6.5746 2.41087 -2.01803 0
M  V30 121 N 10.3467 1.47872 -0.545128 0
M  V30 122 C 11.7577 1.86384 -0.108581 0
M  V30 123 C 12.1087 1.45309 1.31832 0
M  V30 124 O 11.2337 0.850641 1.9898 0
M  V30 125 C 11.8287 3.38265 -0.190274 0
M  V30 126 C 10.3877 3.75914 0.191164 0
M  V30 127 C 9.5347 2.71926 -0.543273 0
M  V30 128 H 12.4857 1.39561 -0.755537 0
M  V30 129 H 12.5067 3.75831 0.594217 0
M  V30 130 H 12.0187 3.6813 -1.2289 0
M  V30 131 H 10.1197 3.51665 1.23136 0
M  V30 132 H 10.2327 4.78836 -0.158987 0
M  V30 133 H 8.5967 2.54697 0.0122495 0
M  V30 134 H 9.3797 3.04634 -1.58282 0
M  V30 135 N 11.8248 0.280983 1.55075 0
M  V30 136 C 13.0498 -0.340154 2.04592 0
M  V30 137 C 13.4748 -1.48246 1.15779 0
M  V30 138 O 12.8328 -1.80614 0.15761 0
M  V30 139 C 12.8808 -0.793104 3.5177 0
M  V30 140 O 11.9848 -1.89981 3.66034 0
M  V30 141 H 11.3258 -0.0694289 0.66036 0
M  V30 142 H 13.8558 0.416993 2.00306 0
M  V30 143 H 13.8658 -1.08729 3.93245 0
M  V30 144 H 12.5408 0.0426163 4.15878 0
M  V30 145 H 11.1178 -1.60771 3.36463 0
M  V30 146 N 13.3029 -1.57598 0.00835791 0
M  V30 147 C 14.2659 -2.07884 -0.965242 0
M  V30 148 C 15.2659 -0.989825 -1.26725 0
M  V30 149 O 16.4559 -1.25218 -1.21104 0
M  V30 150 C 13.5879 -2.52731 -2.28779 0
M  V30 151 H 14.7809 -2.95178 -0.530112 0
M  V30 152 H 12.3339 -1.54458 -0.239283 0
M  V30 153 H 13.0689 -1.68705 -2.76964 0
M  V30 154 H 12.8539 -3.32272 -2.08177 0
M  V30 155 H 14.3439 -2.91933 -2.98605 0
M  V30 156 N 14.781 0.264519 -1.55364 0
M  V30 157 C 16.03 0.992812 -1.75574 0
M  V30 158 C 16.343 1.87142 -0.568979 0
M  V30 159 O 17.549 2.63513 -0.653682 0
M  V30 160 C 16.005 1.81519 -3.10771 0
M  V30 161 C 15.613 0.984839 -4.37041 0
M  V30 162 C 17.357 2.53727 -3.40327 0
M  V30 163 C 15.264 1.80209 -5.63275 0
M  V30 164 H 14.194 0.374412 -0.65447 0
M  V30 165 H 16.845 0.248138 -1.81815 0
M  V30 166 H 15.227 2.60115 -2.98591 0
M  V30 167 H 16.401 0.242455 -4.60162 0
M  V30 168 H 14.716 0.37691 -4.14691 0
M  V30 169 H 17.313 3.15292 -4.3185 0
M  V30 170 H 17.656 3.24447 -2.60845 0
M  V30 171 H 18.189 1.82156 -3.53644 0
M  V30 172 H 14.928 1.13896 -6.45529 0
M  V30 173 H 14.448 2.52022 -5.44284 0
M  V30 174 H 16.127 2.37364 -6.01887 0
M  V30 175 N 16.2591 1.48442 0.529413 0
M  V30 176 C 17.6751 1.34575 0.858004 0
M  V30 177 C 17.8751 0.3572 1.98309 0
M  V30 178 O 16.9311 -0.221379 2.51528 0
M  V30 179 C 18.2441 2.74617 1.22499 0
M  V30 180 C 19.7921 2.83109 1.33484 0
M  V30 181 C 20.2671 4.23854 1.73526 0
M  V30 182 N 21.7581 4.2653 1.80628 0
M  V30 183 C 22.4931 5.32372 2.12997 0
M  V30 184 N 21.9891 6.48491 2.43786 0
M  V30 185 N 23.7821 5.19766 2.14008 0
M  V30 186 H 15.9331 2.1133 -0.212925 0
M  V30 187 H 18.1961 0.947439 -0.0326199 0
M  V30 188 H 17.9021 3.4852 0.471905 0
M  V30 189 H 17.7761 3.08177 2.17501 0
M  V30 190 H 20.1631 2.09462 2.0787 0
M  V30 191 H 20.2441 2.53168 0.366027 0
M  V30 192 H 19.8881 4.98018 0.997013 0
M  V30 193 H 19.8181 4.5124 2.71459 0
M  V30 194 H 22.3091 3.42772 1.59108 0
M  V30 195 H 22.6221 7.24993 2.67592 0
M  V30 196 H 20.9671 6.51765 2.41304 0
M  V30 197 H 24.1581 4.28066 1.89412 0
M  V30 198 H 24.3311 6.02354 2.38902 0
M  V30 199 N 17.7372 -0.778329 1.37039 0
M  V30 200 C 18.7002 -1.87301 1.32102 0
M  V30 201 C 19.7002 -1.59198 0.226405 0
M  V30 202 O 20.8902 -1.67403 0.481861 0
M  V30 203 C 18.0222 -3.24309 1.05055 0
M  V30 204 H 19.2152 -1.93093 2.29467 0
M  V30 205 H 16.7682 -0.977358 1.21973 0
M  V30 206 H 17.5032 -3.24196 0.0819373 0
M  V30 207 H 17.2882 -3.46098 1.84279 0
M  V30 208 H 18.7782 -4.04382 1.04234 0
M  V30 209 N 19.2153 -1.21501 -1.00376 0
M  V30 210 C 20.4633 -1.03095 -1.73827 0
M  V30 211 C 20.7843 0.436341 -1.90055 0
M  V30 212 O 20.0543 1.31466 -1.45236 0
M  V30 213 H 18.6343 -0.378487 -0.644016 0
M  V30 214 H 21.2963 -1.52831 -1.20949 0
M  V30 215 H 20.3923 -1.49991 -2.73695 0
M  V30 216 N 20.6934 1.19889 -1.02296 0
M  V30 217 C 21.6234 2.25141 -0.619174 0
M  V30 218 C 22.6044 1.66051 0.368915 0
M  V30 219 O 23.7894 1.92546 0.252941 0
M  V30 220 C 20.9194 3.4728 0.0368783 0
M  V30 221 C 19.8734 4.19005 -0.872865 0
M  V30 222 C 19.1994 5.34637 -0.0822402 0
M  V30 223 C 20.4994 4.74452 -2.18387 0
M  V30 224 H 22.1934 2.59171 -1.49903 0
M  V30 225 H 19.7394 1.24579 -0.722222 0
M  V30 226 H 21.6924 4.20098 0.330958 0
M  V30 227 H 20.4164 3.12433 0.95149 0
M  V30 228 H 19.0754 3.48061 -1.15105 0
M  V30 229 H 18.7234 4.96034 0.83422 0
M  V30 230 H 18.4234 5.83557 -0.688149 0
M  V30 231 H 19.9474 6.10255 0.205238 0
M  V30 232 H 21.3614 5.39055 -1.95172 0
M  V30 233 H 19.7584 5.33834 -2.74119 0
M  V30 234 H 20.8284 3.92844 -2.84257 0
M  V30 235 N 22.1715 0.800033 1.35784 0
M  V30 236 C 23.1345 0.211565 2.28221 0
M  V30 237 C 24.1345 -0.59728 1.49296 0
M  V30 238 O 25.3245 -0.416721 1.69142 0
M  V30 239 C 22.4565 -0.705846 3.33513 0
M  V30 240 H 23.6495 1.02677 2.81776 0
M  V30 241 H 21.2025 0.570211 1.45528 0
M  V30 242 H 21.9375 -1.54498 2.85133 0
M  V30 243 H 21.7225 -0.127655 3.91892 0
M  V30 244 H 23.2125 -1.11211 4.02519 0
M  V30 245 N 23.6496 -1.47581 0.552962 0
M  V30 246 C 24.9266 -1.95563 -0.0381515 0
M  V30 247 C 25.3066 -1.49552 -1.48988 0
M  V30 248 O 24.6546 -0.732414 -2.16444 0
M  V30 249 C 24.8646 -3.48848 0.102919 0
M  V30 250 C 26.2126 -4.24577 -0.0446082 0
M  V30 251 O 27.2366 -3.56187 0.0302548 0
M  V30 252 O 26.0956 -5.46116 -0.204923 0
M  V30 253 H 23.1896 -0.824321 -0.0665067 0
M  V30 254 H 25.7356 -1.58001 0.619186 0
M  V30 255 H 24.5076 -3.75129 1.11328 0
M  V30 256 H 24.1306 -3.93165 -0.592224 0
M  V30 257 N 25.1277 -0.289203 -1.54924 0
M  V30 258 C 26.0577 0.58549 -2.2604 0
M  V30 259 C 27.0387 1.14753 -1.25562 0
M  V30 260 O 28.2237 1.17906 -1.54311 0
M  V30 261 C 25.3537 1.76305 -2.99222 0
M  V30 262 C 24.3077 1.33191 -4.06748 0
M  V30 263 C 23.6337 2.5937 -4.6758 0
M  V30 264 C 24.9337 0.471775 -5.20165 0
M  V30 265 H 26.6277 -0.00763532 -2.99399 0
M  V30 266 H 24.1737 -0.00511229 -1.43999 0
M  V30 267 H 26.1267 2.38097 -3.47689 0
M  V30 268 H 24.8507 2.38223 -2.23422 0
M  V30 269 H 23.5097 0.737121 -3.59113 0
M  V30 270 H 23.1577 3.19576 -3.88433 0
M  V30 271 H 22.8577 2.31228 -5.40192 0
M  V30 272 H 24.3817 3.21985 -5.18804 0
M  V30 273 H 25.7957 0.995056 -5.64599 0
M  V30 274 H 24.1927 0.284639 -5.99425 0
M  V30 275 H 25.2627 -0.506041 -4.82252 0
M  V30 276 N 26.6058 1.57591 -0.0167156 0
M  V30 277 C 27.5158 2.1291 0.98521 0
M  V30 278 C 28.5318 1.07834 1.36557 0
M  V30 279 O 29.7078 1.39826 1.44951 0
M  V30 280 C 26.7728 2.63512 2.25305 0
M  V30 281 C 25.8338 3.83256 1.93426 0
M  V30 282 C 25.0668 4.31435 3.14165 0
M  V30 283 O 25.2898 3.78851 4.26413 0
M  V30 284 O 24.2238 5.23416 2.97186 0
M  V30 285 H 28.0498 2.98772 0.544888 0
M  V30 286 H 25.6348 1.48012 0.203141 0
M  V30 287 H 27.5168 2.96183 2.99756 0
M  V30 288 H 26.1918 1.8074 2.68542 0
M  V30 289 H 25.0988 3.55531 1.16398 0
M  V30 290 H 26.4318 4.67153 1.55013 0
M  V30 291 N 28.0839 -0.256276 1.55502 0
M  V30 292 C 29.0169 -1.34321 1.84481 0
M  V30 293 C 29.9949 -1.46802 0.699131 0
M  V30 294 O 31.1789 -1.63165 0.943904 0
M  V30 295 C 28.3059 -2.71779 2.02123 0
M  V30 296 C 27.3519 -2.76496 3.24734 0
M  V30 297 S 28.1849 -2.3405 4.81644 0
M  V30 298 C 29.3409 -3.73452 5.02279 0
M  V30 299 H 29.5739 -1.09539 2.76385 0
M  V30 300 H 27.1069 -0.45678 1.47489 0
M  V30 301 H 29.0649 -3.50932 2.12972 0
M  V30 302 H 27.7259 -2.93803 1.11078 0
M  V30 303 H 26.9189 -3.77424 3.34016 0
M  V30 304 H 26.5209 -2.05379 3.12563 0
M  V30 305 H 28.8129 -4.6887 4.89047 0
M  V30 306 H 29.7559 -3.6911 6.04287 0
M  V30 307 H 30.1639 -3.6553 4.30172 0
M  V30 308 N 29.562 -1.4872 -0.521534 0
M  V30 309 C 30.525 -1.63379 -1.60748 0
M  V30 310 C 31.525 -0.50661 -1.52611 0
M  V30 311 O 32.715 -0.772601 -1.5613 0
M  V30 312 C 29.847 -1.61192 -3.00383 0
M  V30 313 H 31.04 -2.60217 -1.49087 0
M  V30 314 H 28.593 -1.37444 -0.744235 0
M  V30 315 H 29.328 -0.65863 -3.17541 0
M  V30 316 H 29.113 -2.43032 -3.07698 0
M  V30 317 H 30.603 -1.7466 -3.7932 0
M  V30 318 N 31.0401 0.771051 -1.3745 0
M  V30 319 C 31.9501 1.91538 -1.35464 0
M  V30 320 C 32.9661 1.72134 -0.254123 0
M  V30 321 O 34.1421 1.95358 -0.489626 0
M  V30 322 C 31.2071 3.26671 -1.16134 0
M  V30 323 C 30.2681 3.58723 -2.35831 0
M  V30 324 C 29.5011 4.87409 -2.17413 0
M  V30 325 O 29.7241 5.58506 -1.15876 0
M  V30 326 O 28.6581 5.18539 -3.05615 0
M  V30 327 H 32.4841 1.96165 -2.31847 0
M  V30 328 H 30.0691 0.9139 -1.18187 0
M  V30 329 H 31.9511 4.07499 -1.07345 0
M  V30 330 H 30.6261 3.22894 -0.228251 0
M  V30 331 H 29.5331 2.78127 -2.50192 0
M  V30 332 H 30.8661 3.67243 -3.27709 0
M  V30 333 N 32.5182 1.22032 0.997298 0
M  V30 334 C 33.4282 1.00271 2.12092 0
M  V30 335 C 34.4442 -0.047621 1.73935 0
M  V30 336 O 35.6202 0.144136 2.00884 0
M  V30 337 C 32.6852 0.578449 3.4184 0
M  V30 338 C 31.7462 1.70189 3.94125 0
M  V30 339 C 30.9792 1.29778 5.17681 0
M  V30 340 O 31.2022 0.174676 5.70132 0
M  V30 341 O 30.1362 2.11261 5.63607 0
M  V30 342 H 33.9622 1.94398 2.3333 0
M  V30 343 H 31.5472 1.00587 1.10465 0
M  V30 344 H 33.4292 0.351998 4.19927 0
M  V30 345 H 32.1042 -0.334019 3.21972 0
M  V30 346 H 31.0112 1.98282 3.1723 0
M  V30 347 H 32.3442 2.59206 4.18417 0
M  V30 348 N 33.9963 -1.19345 1.0293 0
M  V30 349 C 35.2243 -1.92997 0.745644 0
M  V30 350 C 35.6393 -1.75519 -0.695589 0
M  V30 351 O 34.9963 -1.07737 -1.47306 0
M  V30 352 C 35.0473 -3.44741 1.08792 0
M  V30 353 O 34.7683 -3.61658 2.47256 0
M  V30 354 C 36.2693 -4.35515 0.827129 0
M  V30 355 H 33.4893 -0.613042 0.272801 0
M  V30 356 H 36.0333 -1.51473 1.3739 0
M  V30 357 H 34.1883 -3.84097 0.504832 0
M  V30 358 H 34.6023 -4.55514 2.60015 0
M  V30 359 H 36.0763 -5.40589 1.11658 0
M  V30 360 H 36.5533 -4.38552 -0.238436 0
M  V30 361 H 37.1593 -4.01841 1.39297 0
M  V30 362 N 35.4744 -0.807222 -1.35358 0
M  V30 363 C 36.7204 -0.388463 -1.99045 0
M  V30 364 C 37.0534 1.04184 -1.63888 0
M  V30 365 O 36.3284 1.72292 -0.902535 0
M  V30 366 C 36.6114 -0.572783 -3.55515 0
M  V30 367 C 36.4644 -2.04807 -4.00468 0
M  V30 368 C 37.7834 0.00114064 -4.401 0
M  V30 369 H 34.9024 -0.142619 -0.723069 0
M  V30 370 H 37.5444 -1.01687 -1.60498 0
M  V30 371 H 35.6944 -0.0378425 -3.88482 0
M  V30 372 H 37.3664 -2.64544 -3.77908 0
M  V30 373 H 35.6094 -2.54427 -3.51353 0
M  V30 374 H 36.2804 -2.12792 -5.09337 0
M  V30 375 H 38.7564 -0.455716 -4.13597 0
M  V30 376 H 37.6324 -0.157737 -5.48673 0
M  V30 377 H 37.8934 1.09488 -4.28328 0
M  V30 378 N 36.9525 1.47285 -0.560781 0
M  V30 379 C 38.2295 1.9558 0.0277798 0
M  V30 380 C 38.6095 1.5034 1.48192 0
M  V30 381 O 37.9575 0.743882 2.16052 0
M  V30 382 C 38.1675 3.48789 -0.121418 0
M  V30 383 C 39.5155 4.24594 0.0220912 0
M  V30 384 O 40.5395 3.56166 -0.0491439 0
M  V30 385 O 39.3985 5.46217 0.175958 0
M  V30 386 H 36.4925 0.824663 0.0621342 0
M  V30 387 H 39.0385 1.5767 -0.627556 0
M  V30 388 H 37.8105 3.74533 -1.13316 0
M  V30 389 H 37.4335 3.93473 0.571366 0
M  V30 390 N 38.4306 0.297415 1.54768 0
M  V30 391 C 39.3606 -0.573494 2.26348 0
M  V30 392 C 40.3416 -1.14085 1.26169 0
M  V30 393 O 41.5266 -1.17086 1.54934 0
M  V30 394 C 38.6566 -1.74716 3.00153 0
M  V30 395 C 37.6106 -1.31032 4.07449 0
M  V30 396 C 36.9366 -2.56887 4.68949 0
M  V30 397 C 38.2366 -0.444183 5.20408 0
M  V30 398 H 39.9306 0.0235131 2.99391 0
M  V30 399 H 37.4766 0.0127488 1.43994 0
M  V30 400 H 39.4296 -2.3625 3.48947 0
M  V30 401 H 38.1536 -2.37035 2.24682 0
M  V30 402 H 36.8126 -0.718066 3.59499 0
M  V30 403 H 36.4606 -3.17512 3.90122 0
M  V30 404 H 36.1606 -2.2836 5.41411 0
M  V30 405 H 37.6846 -3.19229 5.20505 0
M  V30 406 H 39.0986 -0.9651 5.65118 0
M  V30 407 H 37.4956 -0.252846 5.99567 0
M  V30 408 H 38.5656 0.531609 4.81977 0
M  V30 409 N 39.9087 -1.5758 0.0250728 0
M  V30 410 C 41.1577 -1.90811 -0.653767 0
M  V30 411 C 41.4707 -0.90273 -1.73523 0
M  V30 412 O 42.6767 -1.12614 -2.47043 0
M  V30 413 C 41.1327 -3.38804 -1.21409 0
M  V30 414 C 40.7407 -4.47692 -0.166126 0
M  V30 415 C 42.4847 -3.81108 -1.86967 0
M  V30 416 C 40.3917 -5.86779 -0.737856 0
M  V30 417 H 39.3217 -0.712063 -0.247956 0
M  V30 418 H 41.9727 -1.83281 0.0897137 0
M  V30 419 H 40.3547 -3.41252 -2.00905 0
M  V30 420 H 41.5287 -4.56797 0.606079 0
M  V30 421 H 39.8437 -4.14565 0.390466 0
M  V30 422 H 42.4407 -4.82375 -2.30692 0
M  V30 423 H 42.7837 -3.15953 -2.71071 0
M  V30 424 H 43.3167 -3.81065 -1.14167 0
M  V30 425 H 40.0557 -6.55468 0.0649577 0
M  V30 426 H 39.5757 -5.81288 -1.47864 0
M  V30 427 H 41.2547 -6.35223 -1.22884 0
M  V30 428 N 41.3868 0.248026 -1.55636 0
M  V30 429 C 42.3348 1.32683 -1.91045 0
M  V30 430 C 43.3288 1.49883 -0.789401 0
M  V30 431 O 44.5348 1.51371 -0.974007 0
M  V30 432 H 40.9098 0.444272 -0.606734 0
M  V30 433 H 42.8808 1.00085 -2.81115 0
M  V30 434 C 41.6298 2.6755 -2.22064 0
M  V30 435 H 40.9528 2.55114 -3.07826 0
M  V30 436 H 42.3928 3.41912 -2.50743 0
M  V30 437 C 40.8518 3.20556 -1.0366 0
M  V30 438 O 41.3818 4.00695 -0.284016 0
M  V30 439 N 39.5878 2.78568 -0.82753 0
M  V30 440 H 39.1348 2.1351 -1.44123 0
M  V30 441 H 39.0928 3.14378 -0.0369803 0
M  V30 442 N 42.8649 1.48995 0.513639 0
M  V30 443 C 44.2809 1.35478 0.843682 0
M  V30 444 C 44.4809 0.378213 1.97919 0
M  V30 445 O 43.5369 -0.194689 2.51748 0
M  V30 446 C 44.8499 2.75901 1.1958 0
M  V30 447 C 46.3979 2.84509 1.30474 0
M  V30 448 C 46.8729 4.25671 1.69021 0
M  V30 449 N 48.3639 4.28422 1.76094 0
M  V30 450 C 49.0989 5.34601 2.07338 0
M  V30 451 N 48.5949 6.5104 2.36894 0
M  V30 452 N 50.3879 5.22007 2.08483 0
M  V30 453 H 42.5389 2.11092 -0.235328 0
M  V30 454 H 44.8019 0.947039 -0.0426669 0
M  V30 455 H 44.5079 3.49001 0.434913 0
M  V30 456 H 44.3819 3.10467 2.1422 0
M  V30 457 H 46.7689 2.11655 2.05637 0
M  V30 458 H 46.8499 2.53542 0.339155 0
M  V30 459 H 46.4939 4.99048 0.944135 0
M  V30 460 H 46.4239 4.54094 2.66658 0
M  V30 461 H 48.9149 3.44441 1.55464 0
M  V30 462 H 49.2279 7.2779 2.59887 0
M  V30 463 H 47.5729 6.54287 2.34378 0
M  V30 464 H 50.7639 4.30051 1.84861 0
M  V30 465 H 50.9369 6.04854 2.325 0
M  V30 466 N 44.343 -0.763751 1.37857 0
M  V30 467 C 45.291 -1.89864 1.34367 0
M  V30 468 C 46.285 -1.67816 0.231143 0
M  V30 469 O 47.491 -1.75508 0.399617 0
M  V30 470 H 43.866 -0.624501 0.41893 0
M  V30 471 H 45.837 -1.89925 2.30155 0
M  V30 472 C 44.586 -3.27227 1.1755 0
M  V30 473 H 43.909 -3.44773 2.02414 0
M  V30 474 H 45.349 -4.06911 1.1916 0
M  V30 475 C 43.808 -3.36692 -0.118311 0
M  V30 476 O 44.338 -3.86374 -1.09902 0
M  V30 477 N 42.544 -2.90092 -0.171717 0
M  V30 478 H 42.091 -2.49853 0.627012 0
M  V30 479 H 42.049 -2.96806 -1.03699 0
M  V30 480 N 45.8211 -1.22559 -0.990812 0
M  V30 481 C 47.0701 -1.04553 -1.72486 0
M  V30 482 C 47.3831 0.419349 -1.91052 0
M  V30 483 O 48.5891 0.719121 -2.61803 0
M  V30 484 C 47.0451 -1.82231 -3.10355 0
M  V30 485 C 46.6531 -3.32981 -2.99713 0
M  V30 486 C 48.3971 -1.7268 -3.87791 0
M  V30 487 C 46.3041 -4.03091 -4.32748 0
M  V30 488 H 45.2341 -0.387614 -0.646739 0
M  V30 489 H 47.8851 -1.46429 -1.10593 0
M  V30 490 H 46.2671 -1.33155 -3.72942 0
M  V30 491 H 47.4411 -3.89466 -2.46278 0
M  V30 492 H 45.7561 -3.43231 -2.35758 0
M  V30 493 H 48.3531 -2.22381 -4.86262 0
M  V30 494 H 48.6961 -0.687607 -4.10582 0
M  V30 495 H 49.2291 -2.1931 -3.31885 0
M  V30 496 H 45.9681 -5.07273 -4.15156 0
M  V30 497 H 45.4881 -3.51394 -4.86089 0
M  V30 498 H 47.1671 -4.08804 -5.01486 0
M  V30 499 N 47.2992 1.18797 -1.03562 0
M  V30 500 C 48.2092 2.25913 -0.632505 0
M  V30 501 C 49.2252 1.70668 0.338882 0
M  V30 502 O 50.4012 2.00453 0.195076 0
M  V30 503 C 47.4662 3.467 0.00350942 0
M  V30 504 C 46.5272 4.17098 -1.01624 0
M  V30 505 C 45.7602 5.32119 -0.410478 0
M  V30 506 O 45.9832 5.64976 0.784725 0
M  V30 507 O 44.9172 5.9107 -1.13667 0
M  V30 508 H 48.7432 2.62648 -1.52478 0
M  V30 509 H 46.3282 1.25781 -0.806195 0
M  V30 510 H 48.2102 4.19878 0.35781 0
M  V30 511 H 46.8852 3.11798 0.869686 0
M  V30 512 H 45.7922 3.4601 -1.42224 0
M  V30 513 H 47.1252 4.55987 -1.85301 0
M  V30 514 N 48.7773 0.814389 1.34928 0
M  V30 515 C 50.0543 0.321363 1.92942 0
M  V30 516 C 50.4343 -1.19014 1.74353 0
M  V30 517 O 49.7823 -1.99328 1.11716 0
M  V30 518 C 49.9923 0.741323 3.41036 0
M  V30 519 C 51.3403 0.735266 4.18185 0
M  V30 520 O 52.3643 0.68336 3.49584 0
M  V30 521 O 51.2233 0.800703 5.40602 0
M  V30 522 H 48.3173 0.0858893 0.822528 0
M  V30 523 H 50.8633 0.898609 1.43955 0
M  V30 524 H 49.6353 1.78276 3.4833 0
M  V30 525 H 49.2583 0.139307 3.97356 0
M  V30 526 N 50.2554 -1.46986 0.568584 0
M  V30 527 C 51.2034 -2.31858 -0.185649 0
M  V30 528 C 52.1974 -1.43624 -0.898249 0
M  V30 529 O 53.4034 -1.60327 -0.818242 0
M  V30 530 H 49.7784 -0.747866 -0.0787399 0
M  V30 531 H 51.7494 -2.93303 0.549191 0
M  V30 532 C 50.4984 -3.26513 -1.19519 0
M  V30 533 H 49.8214 -3.94377 -0.656285 0
M  V30 534 H 51.2614 -3.88707 -1.6936 0
M  V30 535 C 49.7204 -2.50847 -2.24894 0
M  V30 536 O 50.2504 -2.26119 -3.32014 0
M  V30 537 N 48.4564 -2.11656 -1.99124 0
M  V30 538 H 48.0034 -2.31966 -1.12024 0
M  V30 539 H 47.9614 -1.61347 -2.69842 0
M  V30 540 N 51.7335 -0.305618 -1.54608 0
M  V30 541 C 52.6655 0.602161 -2.21149 0
M  V30 542 C 53.6785 1.09394 -1.20569 0
M  V30 543 O 54.8675 1.0106 -1.47136 0
M  V30 544 C 51.9675 1.83692 -2.84799 0
M  V30 545 C 51.1405 1.48686 -4.11353 0
M  V30 546 C 50.1995 2.57725 -4.58764 0
M  V30 547 O 49.2255 2.22623 -5.23858 0
M  V30 548 N 50.4275 3.88346 -4.31471 0
M  V30 549 H 53.1925 0.0324966 -2.99682 0
M  V30 550 H 50.7535 -0.128021 -1.61393 0
M  V30 551 H 52.7455 2.55994 -3.13448 0
M  V30 552 H 51.3155 2.31486 -2.10078 0
M  V30 553 H 50.5355 0.596269 -3.89664 0
M  V30 554 H 51.8235 1.22842 -4.93748 0
M  V30 555 H 51.2215 4.19671 -3.79331 0
M  V30 556 H 49.7785 4.56932 -4.64818 0
M  V30 557 N 53.2116 1.57565 -0.0334293 0
M  V30 558 C 54.1746 2.09393 0.932048 0
M  V30 559 C 55.1746 1.00986 1.25134 0
M  V30 560 O 56.3646 1.27129 1.19096 0
M  V30 561 C 53.4966 2.56338 2.2473 0
M  V30 562 H 54.6896 2.95984 0.483085 0
M  V30 563 H 52.2426 1.54819 0.21468 0
M  V30 564 H 52.9776 1.7309 2.74245 0
M  V30 565 H 52.7626 3.35542 2.02865 0
M  V30 566 H 54.2526 2.96646 2.93923 0
M  V30 567 N 54.6897 -0.239769 1.55765 0
M  V30 568 C 55.6397 -1.30002 1.87306 0
M  V30 569 C 56.6237 -1.43156 0.73452 0
M  V30 570 O 57.8157 -1.46277 0.99659 0
M  V30 571 C 54.9447 -2.65409 2.17745 0
M  V30 572 C 54.0307 -2.56231 3.37945 0
M  V30 573 N 54.4217 -2.16689 4.57033 0
M  V30 574 C 52.7197 -2.87229 3.41197 0
M  V30 575 C 53.4207 -2.18318 5.39177 0
M  V30 576 N 52.3967 -2.58098 4.78421 0
M  V30 577 H 56.1987 -0.984912 2.76906 0
M  V30 578 H 53.7127 -0.448381 1.56087 0
M  V30 579 H 55.7097 -3.41934 2.38509 0
M  V30 580 H 54.3697 -2.97781 1.29448 0
M  V30 581 H 55.3807 -1.88116 4.82528 0
M  V30 582 H 52.0577 -3.24094 2.63191 0
M  V30 583 H 53.4477 -1.90025 6.44469 0
M  V30 584 N 56.1678 -1.49265 -0.50573 0
M  V30 585 C 57.0978 -1.68495 -1.61653 0
M  V30 586 C 58.0788 -0.53366 -1.61512 0
M  V30 587 O 59.2638 -0.76897 -1.78327 0
M  V30 588 C 56.3938 -1.74709 -3.00157 0
M  V30 589 C 55.3478 -2.89581 -3.15162 0
M  V30 590 C 54.6738 -2.80903 -4.5497 0
M  V30 591 C 55.9738 -4.30578 -2.95634 0
M  V30 592 H 57.6678 -2.61493 -1.45814 0
M  V30 593 H 55.2138 -1.25838 -0.70005 0
M  V30 594 H 57.1668 -1.86748 -3.77761 0
M  V30 595 H 55.8908 -0.783067 -3.17074 0
M  V30 596 H 54.5498 -2.77136 -2.39982 0
M  V30 597 H 54.1978 -1.82419 -4.68756 0
M  V30 598 H 53.8978 -3.57999 -4.65951 0
M  V30 599 H 55.4218 -2.94944 -5.34641 0
M  V30 600 H 56.8358 -4.4373 -3.63011 0
M  V30 601 H 55.2328 -5.0886 -3.18091 0
M  V30 602 H 56.3028 -4.45352 -1.91806 0
M  V30 603 N 57.6459 0.756429 -1.3826 0
M  V30 604 C 58.5779 1.87971 -1.31147 0
M  V30 605 C 59.5909 1.61248 -0.224239 0
M  V30 606 O 60.7799 1.71881 -0.481581 0
M  V30 607 C 57.8799 3.23545 -1.00857 0
M  V30 608 C 57.0529 3.77794 -2.20432 0
M  V30 609 C 56.1119 4.91877 -1.86931 0
M  V30 610 O 55.1379 5.06659 -2.59395 0
M  V30 611 N 56.3399 5.74643 -0.822568 0
M  V30 612 H 59.1049 1.94585 -2.2794 0
M  V30 613 H 56.6659 0.936234 -1.32084 0
M  V30 614 H 58.6579 3.97403 -0.765021 0
M  V30 615 H 57.2279 3.12335 -0.128687 0
M  V30 616 H 56.4479 2.95534 -2.6087 0
M  V30 617 H 57.7359 4.10771 -3.00241 0
M  V30 618 H 57.1339 5.65266 -0.221575 0
M  V30 619 H 55.6909 6.48661 -0.638899 0
M  V30 620 N 59.124 1.23083 0.984299 0
M  V30 621 C 60.372 1.05848 1.72165 0
M  V30 622 C 60.693 -0.406049 1.90726 0
M  V30 623 O 59.963 -1.29139 1.47309 0
M  V30 624 H 58.543 0.388685 0.637913 0
M  V30 625 H 61.205 1.54736 1.18503 0
M  V30 626 H 60.301 1.54327 2.71274 0
M  V30 627 N 60.6021 -1.18246 1.0419 0
M  V30 628 C 61.5121 -2.25574 0.644476 0
M  V30 629 C 62.5281 -1.70845 -0.329826 0
M  V30 630 O 63.7041 -2.00554 -0.184443 0
M  V30 631 C 60.7691 -3.46697 0.014877 0
M  V30 632 C 59.8301 -4.16554 1.03834 0
M  V30 633 C 59.0631 -5.31894 0.438692 0
M  V30 634 O 59.2861 -5.65385 -0.754752 0
M  V30 635 O 58.2201 -5.90459 1.168 0
M  V30 636 H 62.0461 -2.61836 1.53869 0
M  V30 637 H 59.6311 -1.25352 0.812854 0
M  V30 638 H 61.5131 -4.20062 -0.335538 0
M  V30 639 H 60.1881 -3.12255 -0.853138 0
M  V30 640 H 59.0951 -3.45251 1.44057 0
M  V30 641 H 60.4281 -4.54998 1.87716 0
M  V30 642 N 62.0802 -0.821533 -1.34494 0
M  V30 643 C 63.4912 -0.467956 -1.8074 0
M  V30 644 C 63.8422 1.01151 -1.68116 0
M  V30 645 O 62.9672 1.78707 -1.22036 0
M  V30 646 C 63.5622 -0.842627 -3.28154 0
M  V30 647 C 62.1212 -0.541439 -3.72485 0
M  V30 648 C 61.2682 -1.06028 -2.56229 0
M  V30 649 H 64.2192 -1.01183 -1.22261 0
M  V30 650 H 64.2402 -0.145876 -3.8022 0
M  V30 651 H 63.7522 -1.91945 -3.37311 0
M  V30 652 H 61.8532 0.526034 -3.68868 0
M  V30 653 H 61.9662 -1.08453 -4.66663 0
M  V30 654 H 60.3302 -0.481892 -2.501 0
M  V30 655 H 61.1132 -2.14352 -2.68157 0
M  V30 656 N 63.5583 1.46682 -0.576371 0
M  V30 657 C 64.8073 2.01619 -0.0572825 0
M  V30 658 C 65.1203 1.45417 1.30818 0
M  V30 659 O 66.3263 1.92133 1.91825 0
M  V30 660 C 64.7823 3.59863 -0.0518371 0
M  V30 661 C 64.3903 4.25059 -1.41523 0
M  V30 662 C 66.1343 4.2248 0.413639 0
M  V30 663 C 64.0413 5.75364 -1.36785 0
M  V30 664 H 62.9713 0.753794 -0.0176448 0
M  V30 665 H 65.6223 1.68481 -0.727076 0
M  V30 666 H 64.0043 3.90048 0.683994 0
M  V30 667 H 65.1783 4.06491 -2.17029 0
M  V30 668 H 63.4933 3.7451 -1.8202 0
M  V30 669 H 66.0903 5.3265 0.467779 0
M  V30 670 H 66.4333 3.90976 1.42982 0
M  V30 671 H 66.9663 3.96897 -0.267929 0
M  V30 672 H 63.7053 6.11518 -2.36063 0
M  V30 673 H 63.2253 5.96214 -0.654895 0
M  V30 674 H 64.9043 6.37955 -1.07805 0
M  V30 675 N 65.0364 0.313813 1.54444 0
M  V30 676 C 65.9464 -0.565714 2.27677 0
M  V30 677 C 66.9624 -1.13754 1.31666 0
M  V30 678 O 68.1384 -1.15959 1.64668 0
M  V30 679 C 65.2034 -1.71528 3.01296 0
M  V30 680 C 64.2644 -1.17624 4.12872 0
M  V30 681 C 63.4974 -2.27102 4.8297 0
M  V30 682 O 63.7204 -3.47256 4.52514 0
M  V30 683 O 62.6544 -1.9307 5.70094 0
M  V30 684 H 66.4804 0.0287296 3.03686 0
M  V30 685 H 64.0654 0.0798312 1.49187 0
M  V30 686 H 65.9474 -2.38476 3.4743 0
M  V30 687 H 64.6224 -2.29608 2.2817 0
M  V30 688 H 63.5294 -0.472124 3.71109 0
M  V30 689 H 64.8624 -0.640695 4.88012 0
M  V30 690 N 66.5145 -1.57545 0.0417849 0
M  V30 691 C 67.7605 -1.92601 -0.635021 0
M  V30 692 C 68.0935 -0.919627 -1.71045 0
M  V30 693 O 67.3685 0.0557892 -1.9442 0
M  V30 694 C 67.6515 -3.38085 -1.23979 0
M  V30 695 C 67.5045 -4.49467 -0.173057 0
M  V30 696 C 68.8235 -3.83776 -2.15416 0
M  V30 697 H 65.9425 -0.700397 -0.229374 0
M  V30 698 H 68.5845 -1.89728 0.101633 0
M  V30 699 H 66.7345 -3.40664 -1.86762 0
M  V30 700 H 68.4065 -4.59018 0.458312 0
M  V30 701 H 66.6495 -4.30909 0.499996 0
M  V30 702 H 67.3205 -5.48323 -0.636054 0
M  V30 703 H 69.7965 -3.83013 -1.62605 0
M  V30 704 H 68.6725 -4.8624 -2.54679 0
M  V30 705 H 68.9335 -3.19998 -3.05047 0
M  V30 706 N 67.9926 0.231505 -1.5589 0
M  V30 707 C 69.2696 0.981096 -1.69215 0
M  V30 708 C 69.6496 2.02799 -0.586164 0
M  V30 709 O 68.9976 2.24823 0.408253 0
M  V30 710 C 69.2076 1.60054 -3.10135 0
M  V30 711 C 70.5556 2.09658 -3.69227 0
M  V30 712 O 71.5796 1.69967 -3.13033 0
M  V30 713 O 70.4386 2.8258 -4.67772 0
M  V30 714 H 67.5326 0.457653 -0.688827 0
M  V30 715 H 70.0786 0.224073 -1.68214 0
M  V30 716 H 68.8506 0.844105 -3.82087 0
M  V30 717 H 68.4736 2.42336 -3.15212 0
M  V30 718 N 69.4707 1.49531 0.497807 0
M  V30 719 C 70.4187 1.66926 1.61983 0
M  V30 720 C 71.4127 0.535167 1.60724 0
M  V30 721 O 72.6187 0.714896 1.65195 0
M  V30 722 H 68.9937 0.526415 0.537021 0
M  V30 723 H 70.9647 2.61098 1.44465 0
M  V30 724 C 69.7137 1.75602 3.00099 0
M  V30 725 H 69.0367 2.62244 3.01775 0
M  V30 726 H 70.4767 1.91807 3.78135 0
M  V30 727 C 68.9357 0.501543 3.33146 0
M  V30 728 O 69.4657 -0.371342 3.9998 0
M  V30 729 N 67.6717 0.363531 2.88317 0
M  V30 730 H 67.2187 1.07485 2.34104 0
M  V30 731 H 67.1767 -0.474728 3.10795 0
M  V30 732 N 70.9488 -0.749086 1.3866 0
M  V30 733 C 71.8788 -1.8764 1.38973 0
M  V30 734 C 72.8598 -1.68178 0.255004 0
M  V30 735 O 74.0448 -1.88704 0.458754 0
M  V30 736 C 71.1748 -3.25222 1.21851 0
M  V30 737 C 70.1288 -3.59295 2.32575 0
M  V30 738 C 69.4548 -4.95663 2.00555 0
M  V30 739 C 70.7548 -3.63709 3.7485 0
M  V30 740 H 72.4488 -1.87635 2.3331 0
M  V30 741 H 69.9948 -0.901329 1.12303 0
M  V30 742 H 71.9478 -4.03746 1.20695 0
M  V30 743 H 70.6718 -3.25719 0.239775 0
M  V30 744 H 69.3308 -2.83093 2.32925 0
M  V30 745 H 68.9788 -4.92724 1.01154 0
M  V30 746 H 68.6788 -5.19429 2.74714 0
M  V30 747 H 70.2028 -5.7656 2.01024 0
M  V30 748 H 71.6168 -4.32338 3.76506 0
M  V30 749 H 70.0138 -3.98986 4.48252 0
M  V30 750 H 71.0838 -2.63834 4.06841 0
M  V30 751 N 72.4269 -1.23603 -0.977757 0
M  V30 752 C 73.8379 -1.06424 -1.53398 0
M  V30 753 C 74.1889 0.367578 -1.92726 0
M  V30 754 O 73.3139 1.25465 -1.76316 0
M  V30 755 C 73.9089 -1.92568 -2.78753 0
M  V30 756 C 72.4679 -1.79642 -3.30765 0
M  V30 757 C 71.6149 -1.88111 -2.03739 0
M  V30 758 H 74.5659 -1.37227 -0.797152 0
M  V30 759 H 74.5869 -1.45203 -3.51705 0
M  V30 760 H 74.0989 -2.96771 -2.50098 0
M  V30 761 H 72.1999 -0.782325 -3.64294 0
M  V30 762 H 72.3129 -2.63174 -4.00345 0
M  V30 763 H 70.6769 -1.31723 -2.17994 0
M  V30 764 H 71.4599 -2.93875 -1.77461 0
M  V30 765 N 73.905 1.17692 -1.04816 0
M  V30 766 C 74.815 2.25229 -0.65643 0
M  V30 767 C 75.831 1.71018 0.320761 0
M  V30 768 O 77.007 2.00649 0.173805 0
M  V30 769 C 74.072 3.46684 -0.0332629 0
M  V30 770 C 73.133 4.15997 -1.06042 0
M  V30 771 C 72.366 5.31654 -0.466893 0
M  V30 772 O 72.589 5.65777 0.724758 0
M  V30 773 O 71.523 5.89831 -1.1993 0
M  V30 774 H 75.349 2.61016 -1.55255 0
M  V30 775 H 72.934 1.24919 -0.81949 0
M  V30 776 H 74.816 4.20234 0.313256 0
M  V30 777 H 73.491 3.12703 0.836566 0
M  V30 778 H 72.398 3.44482 -1.45886 0
M  V30 779 H 73.731 4.53996 -1.90127 0
M  V30 780 N 75.3831 0.828654 1.34056 0
M  V30 781 C 76.6601 0.341809 1.9259 0
M  V30 782 C 77.0401 -1.17158 1.75605 0
M  V30 783 O 76.3881 -1.98132 1.13824 0
M  V30 784 C 76.5981 0.777453 3.4023 0
M  V30 785 C 77.9461 0.779579 4.17382 0
M  V30 786 O 78.9701 0.7204 3.48839 0
M  V30 787 O 77.8291 0.857996 5.39723 0
M  V30 788 H 74.9231 0.0946085 0.821571 0
M  V30 789 H 77.4691 0.913827 1.42994 0
M  V30 790 H 76.2411 1.8196 3.46419 0
M  V30 791 H 75.8641 0.181444 3.97186 0
M  V30 792 N 76.8612 -1.46375 0.584142 0
M  V30 793 C 77.7942 -2.27351 -0.196676 0
M  V30 794 C 78.7722 -1.35715 -0.895561 0
M  V30 795 O 79.9562 -1.65126 -0.90916 0
M  V30 796 C 77.0832 -3.13486 -1.28235 0
M  V30 797 C 76.1292 -4.20896 -0.689145 0
M  V30 798 S 76.9622 -5.33299 0.48507 0
M  V30 799 C 78.1182 -6.23 -0.601767 0
M  V30 800 H 78.3512 -2.93228 0.490395 0
M  V30 801 H 75.8842 -1.49875 0.371071 0
M  V30 802 H 77.8422 -3.63676 -1.90395 0
M  V30 803 H 76.5032 -2.4692 -1.94138 0
M  V30 804 H 75.6962 -4.80997 -1.50527 0
M  V30 805 H 75.2982 -3.73726 -0.143181 0
M  V30 806 H 77.5902 -6.60979 -1.48705 0
M  V30 807 H 78.5332 -7.0809 -0.0374799 0
M  V30 808 H 78.9412 -5.57173 -0.906557 0
M  V30 809 N 78.3393 -0.321999 -1.54275 0
M  V30 810 C 79.5873 0.280489 -2.00144 0
M  V30 811 C 79.9083 1.52777 -1.21178 0
M  V30 812 O 79.1783 1.9338 -0.313187 0
M  V30 813 H 77.7583 0.106632 -0.73935 0
M  V30 814 H 80.4203 -0.438184 -1.8991 0
M  V30 815 H 79.5163 0.537972 -3.07428 0
M  V30 816 N 79.8174 1.5752 -0.0501392 0
M  V30 817 C 81.2334 1.56631 0.306402 0
M  V30 818 C 81.4334 1.0577 1.71508 0
M  V30 819 O 80.4894 0.713837 2.422 0
M  V30 820 C 81.8024 3.00393 0.135811 0
M  V30 821 C 83.3504 3.12315 0.206993 0
M  V30 822 C 83.8254 4.57954 0.064944 0
M  V30 823 N 85.3164 4.63041 0.121254 0
M  V30 824 C 86.0514 5.73389 0.0354381 0
M  V30 825 N 85.5474 6.92724 -0.102666 0
M  V30 826 N 87.3404 5.62026 0.090946 0
M  V30 827 H 79.4914 1.88903 -0.971046 0
M  V30 828 H 81.7544 0.869876 -0.376855 0
M  V30 829 H 81.4604 3.41635 -0.835384 0
M  V30 830 H 81.3344 3.66373 0.897275 0
M  V30 831 H 83.7214 2.70973 1.16866 0
M  V30 832 H 83.8024 2.49016 -0.585208 0
M  V30 833 H 83.4464 4.99981 -0.893394 0
M  V30 834 H 83.3764 5.19258 0.876277 0
M  V30 835 H 85.8674 3.77216 0.227284 0
M  V30 836 H 86.1804 7.72633 -0.160882 0
M  V30 837 H 84.5254 6.94864 -0.137737 0
M  V30 838 H 87.7164 4.67684 0.197388 0
M  V30 839 H 87.8894 6.47997 0.0206089 0
M  V30 840 N 81.2955 -0.223234 1.56011 0
M  V30 841 C 82.2255 -1.27988 1.95298 0
M  V30 842 C 83.2065 -1.48976 0.820979 0
M  V30 843 O 84.3915 -1.61188 1.08315 0
M  V30 844 C 81.5215 -2.63 2.26822 0
M  V30 845 C 80.4755 -2.56671 3.42497 0
M  V30 846 C 79.8015 -3.95697 3.59622 0
M  V30 847 C 81.1015 -2.11601 4.77517 0
M  V30 848 H 82.7955 -0.953525 2.8381 0
M  V30 849 H 80.3415 -0.457244 1.36548 0
M  V30 850 H 82.2945 -3.37077 2.52898 0
M  V30 851 H 81.0185 -2.9732 1.35161 0
M  V30 852 H 79.6775 -1.85051 3.16467 0
M  V30 853 H 79.3255 -4.27322 2.6534 0
M  V30 854 H 79.0255 -3.92345 4.37424 0
M  V30 855 H 80.5495 -4.71438 3.88044 0
M  V30 856 H 81.9635 -2.7542 5.02809 0
M  V30 857 H 80.3605 -2.19311 5.5859 0
M  V30 858 H 81.4305 -1.06824 4.72987 0
M  V30 859 N 82.7736 -1.49793 -0.48987 0
M  V30 860 C 83.7236 -1.63673 -1.5873 0
M  V30 861 C 84.7076 -0.491956 -1.53195 0
M  V30 862 O 85.8996 -0.745461 -1.60536 0
M  V30 863 C 83.0286 -1.71689 -2.97284 0
M  V30 864 C 82.1146 -2.91781 -3.07774 0
M  V30 865 N 82.5056 -4.15714 -2.88124 0
M  V30 866 C 80.8036 -2.89949 -3.38889 0
M  V30 867 C 81.5046 -4.965 -3.03088 0
M  V30 868 N 80.4806 -4.30083 -3.3246 0
M  V30 869 H 84.2826 -2.57204 -1.42208 0
M  V30 870 H 81.7966 -1.46719 -0.69623 0
M  V30 871 H 83.7936 -1.79732 -3.76168 0
M  V30 872 H 82.4536 -0.793024 -3.14867 0
M  V30 873 H 83.4646 -4.45515 -2.64077 0
M  V30 874 H 80.1416 -2.06987 -3.62578 0
M  V30 875 H 81.5316 -6.04991 -2.92294 0
M  V30 876 N 84.2517 0.741722 -1.39055 0
M  V30 877 C 85.1817 1.869 -1.39966 0
M  V30 878 C 86.1627 1.6804 -0.26392 0
M  V30 879 O 87.3477 1.88458 -0.468755 0
M  V30 880 C 84.4777 3.24572 -1.23574 0
M  V30 881 C 83.4317 3.58056 -2.34477 0
M  V30 882 C 82.7577 4.94593 -2.0318 0
M  V30 883 C 84.0577 3.61716 -3.76774 0
M  V30 884 H 85.7517 1.86395 -2.34302 0
M  V30 885 H 83.2977 0.895361 -1.1278 0
M  V30 886 H 85.2507 4.031 -1.22834 0
M  V30 887 H 83.9747 3.25587 -0.257045 0
M  V30 888 H 82.6337 2.81854 -2.34423 0
M  V30 889 H 82.2817 4.92181 -1.03765 0
M  V30 890 H 81.9817 5.17964 -2.77465 0
M  V30 891 H 83.5057 5.75486 -2.04079 0
M  V30 892 H 84.9197 4.30335 -3.78794 0
M  V30 893 H 83.3167 3.96603 -4.50362 0
M  V30 894 H 84.3867 2.61672 -4.08235 0
M  V30 895 N 85.7298 1.2412 0.971189 0
M  V30 896 C 87.0068 0.986867 1.6888 0
M  V30 897 C 87.3868 -0.491857 2.0529 0
M  V30 898 O 86.7348 -1.46531 1.75331 0
M  V30 899 C 86.9448 1.9063 2.92338 0
M  V30 900 C 88.2928 2.17515 3.64654 0
M  V30 901 O 89.3168 1.88254 3.02388 0
M  V30 902 O 88.1758 2.6719 4.7673 0
M  V30 903 H 85.2698 0.372944 0.738134 0
M  V30 904 H 87.8158 1.35203 1.02559 0
M  V30 905 H 86.5878 2.90552 2.62097 0
M  V30 906 H 86.2108 1.54408 3.66393 0
M  V30 907 N 87.2079 -1.17134 1.05439 0
M  V30 908 C 88.4849 -1.83411 0.679699 0
M  V30 909 C 88.8649 -1.9368 -0.839726 0
M  V30 910 O 88.2129 -1.47325 -1.74664 0
M  V30 911 C 88.4229 -3.20918 1.37159 0
M  V30 912 C 89.7709 -3.96796 1.51123 0
M  V30 913 O 90.7949 -3.30406 1.3308 0
M  V30 914 O 89.6539 -5.15778 1.80651 0
M  V30 915 H 86.7479 -0.79154 0.239569 0
M  V30 916 H 89.2939 -1.24411 1.15413 0
M  V30 917 H 88.0659 -3.08428 2.40807 0
M  V30 918 H 87.6889 -3.87587 0.886674 0
M  V30 919 N 88.686 -0.835752 -1.33615 0
M  V30 920 C 89.934 -0.429109 -1.97492 0
M  V30 921 C 90.255 1.01433 -1.66543 0
M  V30 922 O 89.525 1.70611 -0.962744 0
M  V30 923 H 88.105 -0.155686 -0.730596 0
M  V30 924 H 90.767 -1.06802 -1.63031 0
M  V30 925 H 89.863 -0.55861 -3.0706 0
M  V30 926 N 90.1641 1.46063 -0.591896 0
M  V30 927 C 91.1111 2.30399 0.136069 0
M  V30 928 C 92.0811 1.41169 0.875238 0
M  V30 929 O 93.2661 1.70112 0.86409 0
M  V30 930 C 90.4061 3.25804 1.13781 0
M  V30 931 C 89.5191 4.30134 0.401137 0
M  V30 932 C 88.6541 5.12659 1.39121 0
M  V30 933 C 87.6931 6.0873 0.641462 0
M  V30 934 N 86.8301 6.8409 1.58004 0
M  V30 935 H 91.6701 2.92118 -0.589144 0
M  V30 936 H 89.2071 1.43959 -0.302342 0
M  V30 937 H 91.1651 3.79569 1.73156 0
M  V30 938 H 89.7951 2.65872 1.83062 0
M  V30 939 H 88.8471 3.79152 -0.307826 0
M  V30 940 H 90.1591 4.98458 -0.184565 0
M  V30 941 H 89.3131 5.70747 2.05749 0
M  V30 942 H 88.0521 4.44316 2.01084 0
M  V30 943 H 87.0571 5.49786 -0.0385419 0
M  V30 944 H 88.2821 6.79095 0.0270945 0
M  V30 945 H 86.2281 6.18449 2.18761 0
M  V30 946 H 86.1451 7.48709 1.04738 0
M  V30 947 H 87.4131 7.4673 2.23639 0
M  V30 948 N 91.6422 0.330177 1.54103 0
M  V30 949 C 92.8672 -0.274893 2.0557 0
M  V30 950 C 93.2922 -1.44487 1.20437 0
M  V30 951 O 92.6502 -1.80021 0.214991 0
M  V30 952 C 92.6982 -0.68079 3.54115 0
M  V30 953 O 91.8022 -1.7824 3.71893 0
M  V30 954 H 91.1432 -0.0483849 0.662235 0
M  V30 955 H 93.6732 0.480508 1.98878 0
M  V30 956 H 93.6832 -0.961635 3.96505 0
M  V30 957 H 92.3582 0.174903 4.15532 0
M  V30 958 H 90.9352 -1.49985 3.41407 0
M  V30 959 N 93.1203 -1.57491 0.0584922 0
M  V30 960 C 94.5313 -1.80526 -0.476138 0
M  V30 961 C 94.8823 -0.971334 -1.70469 0
M  V30 962 O 94.0073 -0.190012 -2.15564 0
M  V30 963 C 94.6023 -3.27424 -0.870587 0
M  V30 964 C 93.1613 -3.51351 -1.35015 0
M  V30 965 C 92.3083 -2.75343 -0.32887 0
M  V30 966 H 95.2593 -1.56133 0.284312 0
M  V30 967 H 95.2803 -3.38745 -1.73299 0
M  V30 968 H 94.7923 -3.88093 0.0237627 0
M  V30 969 H 92.8933 -2.95971 -2.26345 0
M  V30 970 H 93.0063 -4.60059 -1.33726 0
M  V30 971 H 91.3703 -2.417 -0.803321 0
M  V30 972 H 92.1533 -3.38743 0.557521 0
M  V30 973 N 94.5984 0.214957 -1.56127 0
M  V30 974 C 95.5464 1.28601 -1.93816 0
M  V30 975 C 96.5404 1.48175 -0.821016 0
M  V30 976 O 97.7464 1.49271 -1.0059 0
M  V30 977 H 94.1214 0.431302 -0.616022 0
M  V30 978 H 96.0924 0.940991 -2.83175 0
M  V30 979 C 94.8414 2.62779 -2.27689 0
M  V30 980 H 94.1644 2.48527 -3.13168 0
M  V30 981 H 95.6044 3.36517 -2.57939 0
M  V30 982 C 94.0634 3.18285 -1.10436 0
M  V30 983 O 94.5934 4.00002 -0.368945 0
M  V30 984 N 92.7994 2.7675 -0.886433 0
M  V30 985 H 92.3464 2.10404 -1.48619 0
M  V30 986 H 92.3044 3.14229 -0.103656 0
M  V30 987 N 96.0765 1.50051 0.48192 0
M  V30 988 C 97.4875 1.5348 1.06305 0
M  V30 989 C 97.8385 0.331997 1.93371 0
M  V30 990 O 96.9635 -0.556256 2.09129 0
M  V30 991 C 97.5585 2.7813 1.93466 0
M  V30 992 C 96.1175 2.84275 2.46707 0
M  V30 993 C 95.2645 2.47637 1.24785 0
M  V30 994 H 98.2155 1.56472 0.264995 0
M  V30 995 H 98.2365 2.59372 2.78399 0
M  V30 996 H 97.7485 3.65654 1.30072 0
M  V30 997 H 95.8495 2.01077 3.13686 0
M  V30 998 H 95.9625 3.8691 2.82555 0
M  V30 999 H 94.3265 1.99835 1.57918 0
M  V30 1000 H 95.1095 3.37457 0.630694 0
M  V30 1001 N 97.5546 -0.734337 1.39446 0
M  V30 1002 C 98.8026 -1.49096 1.36436 0
M  V30 1003 C 99.1236 -1.94961 -0.0388255 0
M  V30 1004 O 98.3936 -1.69033 -0.990191 0
M  V30 1005 H 96.9736 -0.5531 0.502085 0
M  V30 1006 H 99.6356 -0.871725 1.74319 0
M  V30 1007 H 98.7316 -2.37276 2.02747 0
M  V30 1008 N 99.0327 -1.24633 -0.964593 0
M  V30 1009 C 99.9427 -1.05859 -2.09359 0
M  V30 1010 C 100.959 0.00148855 -1.74 0
M  V30 1011 O 102.135 -0.197346 -2.00431 0
M  V30 1012 C 99.1997 -0.668879 -3.40187 0
M  V30 1013 C 98.2607 -1.80578 -3.89474 0
M  V30 1014 C 97.4937 -1.43457 -5.14058 0
M  V30 1015 O 97.7167 -0.325775 -5.69469 0
M  V30 1016 O 96.6507 -2.2613 -5.57807 0
M  V30 1017 H 100.477 -2.00516 -2.28094 0
M  V30 1018 H 98.0617 -1.03481 -1.0776 0
M  V30 1019 H 99.9437 -0.463211 -4.18846 0
M  V30 1020 H 98.6187 0.248536 -3.22744 0
M  V30 1021 H 97.5257 -2.06623 -3.11862 0
M  V30 1022 H 98.8587 -2.70208 -4.11398 0
M  V30 1023 N 100.511 1.16574 -1.06058 0
M  V30 1024 C 101.444 2.19798 -0.61352 0
M  V30 1025 C 102.422 1.58509 0.362453 0
M  V30 1026 O 103.606 1.86527 0.271994 0
M  V30 1027 C 100.733 3.3855 0.100915 0
M  V30 1028 C 99.7788 4.18317 -0.831438 0
M  V30 1029 S 100.612 4.82375 -2.32539 0
M  V30 1030 C 101.768 6.04508 -1.62238 0
M  V30 1031 H 102.001 2.5738 -1.48805 0
M  V30 1032 H 99.5338 1.27327 -0.873338 0
M  V30 1033 H 101.492 4.07358 0.506898 0
M  V30 1034 H 100.153 2.99338 0.951604 0
M  V30 1035 H 99.3458 5.03232 -0.278071 0
M  V30 1036 H 98.9478 3.5499 -1.17719 0
M  V30 1037 H 101.24 6.71133 -0.926622 0
M  V30 1038 H 102.183 6.64389 -2.44934 0
M  V30 1039 H 102.591 5.53559 -1.106 0
M  V30 1040 N 101.989 0.842826 1.3317 0
M  V30 1041 C 102.952 0.284065 2.27433 0
M  V30 1042 C 103.952 -0.54948 1.5112 0
M  V30 1043 O 105.142 -0.362699 1.70382 0
M  V30 1044 C 102.274 -0.599384 3.35589 0
M  V30 1045 H 103.467 1.11589 2.78366 0
M  V30 1046 H 101.02 0.616221 1.4364 0
M  V30 1047 H 101.755 -1.45349 2.89904 0
M  V30 1048 H 101.54 -0.00291266 3.921 0
M  V30 1049 H 103.03 -0.983488 4.05854 0
M  V30 1050 N 103.467 -1.45747 0.599634 0
M  V30 1051 C 104.414 -2.30467 -0.123849 0
M  V30 1052 C 105.384 -1.41632 -0.86774 0
M  V30 1053 O 106.569 -1.70568 -0.855056 0
M  V30 1054 C 103.709 -3.26402 -1.12051 0
M  V30 1055 C 102.822 -4.3034 -0.37832 0
M  V30 1056 C 101.957 -5.13389 -1.364 0
M  V30 1057 C 100.996 -6.09061 -0.609171 0
M  V30 1058 N 100.133 -6.84918 -1.54374 0
M  V30 1059 H 104.973 -2.91802 0.604627 0
M  V30 1060 H 102.51 -1.43797 0.309972 0
M  V30 1061 H 104.468 -3.80482 -1.7114 0
M  V30 1062 H 103.098 -2.66839 -1.8165 0
M  V30 1063 H 102.15 -3.78984 0.327929 0
M  V30 1064 H 103.462 -4.98354 0.210997 0
M  V30 1065 H 102.616 -5.7183 -2.02719 0
M  V30 1066 H 101.355 -4.45376 -1.98725 0
M  V30 1067 H 100.36 -5.49758 0.0676979 0
M  V30 1068 H 101.585 -6.79099 0.00891991 0
M  V30 1069 H 99.531 -6.19601 -2.15478 0
M  V30 1070 H 99.448 -7.49254 -1.00766 0
M  V30 1071 H 100.716 -7.47906 -2.19676 0
M  V30 1072 N 104.945 -0.338344 -1.53925 0
M  V30 1073 C 106.191 0.260143 -2.01125 0
M  V30 1074 C 106.524 1.50617 -1.22589 0
M  V30 1075 O 105.799 1.91979 -0.312113 0
M  V30 1076 C 106.082 0.579499 -3.55407 0
M  V30 1077 C 105.935 -0.678264 -4.44657 0
M  V30 1078 C 107.254 1.39122 -4.17532 0
M  V30 1079 H 104.373 0.0930772 -0.731099 0
M  V30 1080 H 107.015 -0.457852 -1.84401 0
M  V30 1081 H 105.165 1.19118 -3.69788 0
M  V30 1082 H 106.837 -1.31631 -4.42121 0
M  V30 1083 H 105.08 -1.3042 -4.13731 0
M  V30 1084 H 105.751 -0.410143 -5.50474 0
M  V30 1085 H 108.227 0.874035 -4.06817 0
M  V30 1086 H 107.103 1.58342 -5.25565 0
M  V30 1087 H 107.364 2.39178 -3.71815 0
M  V30 1088 N 106.423 1.57458 -0.0668435 0
M  V30 1089 C 107.671 1.92919 0.602214 0
M  V30 1090 C 107.992 0.947215 1.70449 0
M  V30 1091 O 107.262 -0.00544117 1.95899 0
M  V30 1092 H 105.842 0.71217 0.22544 0
M  V30 1093 H 108.504 1.94508 -0.123535 0
M  V30 1094 H 107.6 2.94589 1.03073 0
M  V30 1095 N 107.901 -0.206675 1.56239 0
M  V30 1096 C 108.811 -1.27686 1.96808 0
M  V30 1097 C 109.827 -1.50455 0.874035 0
M  V30 1098 O 111.003 -1.63295 1.17884 0
M  V30 1099 C 108.068 -2.60358 2.28942 0
M  V30 1100 C 107.129 -2.45762 3.51994 0
M  V30 1101 C 106.362 -3.72108 3.82585 0
M  V30 1102 O 106.585 -4.75776 3.14631 0
M  V30 1103 O 105.519 -3.6833 4.76043 0
M  V30 1104 H 109.345 -0.962593 2.88041 0
M  V30 1105 H 106.93 -0.410746 1.43643 0
M  V30 1106 H 108.812 -3.38687 2.50737 0
M  V30 1107 H 107.487 -2.91435 1.4088 0
M  V30 1108 H 106.394 -1.65584 3.35459 0
M  V30 1109 H 107.727 -2.19621 4.40486 0
M  V30 1110 N 109.379 -1.50304 -0.473955 0
M  V30 1111 C 110.627 -1.60832 -1.22382 0
M  V30 1112 C 110.948 -0.30939 -1.9253 0
M  V30 1113 O 110.218 0.67296 -1.83978 0
M  V30 1114 H 108.798 -0.592652 -0.454723 0
M  V30 1115 H 111.46 -1.87068 -0.546968 0
M  V30 1116 H 110.556 -2.41803 -1.97327 0
M  V30 1117 N 110.857 0.726932 -1.39834 0
M  V30 1118 C 111.804 1.841 -1.39197 0
M  V30 1119 C 112.774 1.642 -0.250502 0
M  V30 1120 O 113.959 1.85494 -0.446846 0
M  V30 1121 C 111.099 3.21697 -1.24919 0
M  V30 1122 C 110.212 3.53247 -2.48678 0
M  V30 1123 C 109.347 4.80289 -2.26928 0
M  V30 1124 C 108.386 5.04707 -3.4632 0
M  V30 1125 N 107.523 6.22956 -3.23836 0
M  V30 1126 H 112.363 1.83979 -2.34427 0
M  V30 1127 H 109.9 0.898876 -1.16442 0
M  V30 1128 H 111.858 4.01137 -1.1465 0
M  V30 1129 H 110.488 3.21076 -0.333153 0
M  V30 1130 H 109.54 2.68447 -2.69519 0
M  V30 1131 H 110.852 3.67205 -3.37582 0
M  V30 1132 H 110.006 5.67725 -2.13947 0
M  V30 1133 H 108.745 4.68519 -1.35431 0
M  V30 1134 H 107.75 4.1573 -3.5979 0
M  V30 1135 H 108.975 5.18357 -4.38729 0
M  V30 1136 H 106.921 6.12459 -2.35011 0
M  V30 1137 H 106.838 6.37539 -4.063 0
M  V30 1138 H 108.106 7.1321 -3.14566 0
M  V30 1139 N 112.336 1.25143 0.95797 0
M  V30 1140 C 113.566 1.12261 1.73439 0
M  V30 1141 C 113.974 -0.326715 1.86358 0
M  V30 1142 O 113.317 -1.2367 1.35836 0
M  V30 1143 C 113.379 1.69966 3.16784 0
M  V30 1144 C 113.043 3.18936 3.27305 0
M  V30 1145 C 114.04 4.15968 3.11877 0
M  V30 1146 C 111.725 3.59083 3.51234 0
M  V30 1147 C 113.719 5.51126 3.20217 0
M  V30 1148 C 111.406 4.9438 3.5921 0
M  V30 1149 C 112.404 5.90211 3.43716 0
M  V30 1150 O 112.092 7.23046 3.51368 0
M  V30 1151 H 111.824 0.392476 0.550399 0
M  V30 1152 H 114.378 1.65927 1.21068 0
M  V30 1153 H 112.608 1.10744 3.70503 0
M  V30 1154 H 114.297 1.52232 3.76272 0
M  V30 1155 H 115.063 3.86292 2.93264 0
M  V30 1156 H 110.942 2.84989 3.62356 0
M  V30 1157 H 114.486 6.25905 3.0804 0
M  V30 1158 H 110.383 5.23723 3.77339 0
M  V30 1159 H 111.151 7.31097 3.6802 0
M  V30 1160 N 113.814 -1.1601 1.06675 0
M  V30 1161 C 115.23 -1.38622 0.790948 0
M  V30 1162 C 115.43 -1.92109 -0.607965 0
M  V30 1163 O 114.486 -2.12239 -1.36787 0
M  V30 1164 C 115.799 -2.36347 1.85905 0
M  V30 1165 C 117.347 -2.50023 1.88301 0
M  V30 1166 C 117.822 -3.51033 2.94176 0
M  V30 1167 N 119.313 -3.58563 2.93235 0
M  V30 1168 C 120.048 -4.36521 3.71803 0
M  V30 1169 N 119.544 -5.17869 4.602 0
M  V30 1170 N 121.337 -4.31541 3.60178 0
M  V30 1171 H 113.488 -0.796294 1.96908 0
M  V30 1172 H 115.751 -0.412597 0.853503 0
M  V30 1173 H 115.457 -2.04147 2.86386 0
M  V30 1174 H 115.331 -3.36042 1.71334 0
M  V30 1175 H 117.718 -2.81524 0.884769 0
M  V30 1176 H 117.799 -1.5035 2.06951 0
M  V30 1177 H 117.443 -3.20268 3.94196 0
M  V30 1178 H 117.373 -4.50445 2.72776 0
M  V30 1179 H 119.864 -3.00496 2.29152 0
M  V30 1180 H 120.177 -5.74578 5.16797 0
M  V30 1181 H 118.522 -5.17199 4.64253 0
M  V30 1182 H 121.713 -3.67051 2.90502 0
M  V30 1183 H 121.886 -4.9205 4.21653 0
M  V30 1184 N 115.292 -0.849877 -1.32721 0
M  V30 1185 C 116.202 -0.293791 -2.32753 0
M  V30 1186 C 117.218 0.585906 -1.63839 0
M  V30 1187 O 118.394 0.487413 -1.95413 0
M  V30 1188 C 115.459 0.512752 -3.42887 0
M  V30 1189 C 114.52 -0.39252 -4.27502 0
M  V30 1190 C 113.753 0.375625 -5.32377 0
M  V30 1191 O 113.976 1.60613 -5.4732 0
M  V30 1192 O 112.91 -0.256094 -6.01355 0
M  V30 1193 H 116.736 -1.12242 -2.82197 0
M  V30 1194 H 114.321 -0.612685 -1.36259 0
M  V30 1195 H 116.203 0.970704 -4.10067 0
M  V30 1196 H 114.878 1.31826 -2.95641 0
M  V30 1197 H 113.785 -0.898547 -3.63149 0
M  V30 1198 H 115.118 -1.16309 -4.7826 0
M  V30 1199 N 116.77 1.45427 -0.607355 0
M  V30 1200 C 118.047 1.9557 -0.0344566 0
M  V30 1201 C 118.427 1.54979 1.43334 0
M  V30 1202 O 117.775 0.812241 2.13576 0
M  V30 1203 C 117.985 3.48226 -0.232321 0
M  V30 1204 C 119.333 4.2445 -0.113001 0
M  V30 1205 O 120.357 3.55829 -0.162431 0
M  V30 1206 O 119.216 5.465 0.00209442 0
M  V30 1207 H 116.31 0.826222 0.0358667 0
M  V30 1208 H 118.856 1.55594 -0.6774 0
M  V30 1209 H 117.628 3.70739 -1.25174 0
M  V30 1210 H 117.251 3.95092 0.445896 0
M  V30 1211 N 118.248 0.346503 1.53744 0
M  V30 1212 C 119.495 -0.249104 2.00962 0
M  V30 1213 C 119.823 -1.5032 1.23426 0
M  V30 1214 O 119.078 -1.93217 0.310761 0
M  V30 1215 C 119.377 -0.605809 3.52228 0
M  V30 1216 C 119.043 0.551747 4.47512 0
M  V30 1217 C 117.705 0.86941 4.73281 0
M  V30 1218 C 120.057 1.32818 5.03993 0
M  V30 1219 C 117.385 1.96582 5.52786 0
M  V30 1220 C 119.737 2.41486 5.84694 0
M  V30 1221 C 118.401 2.73808 6.08757 0
M  V30 1222 H 117.671 -0.0911538 0.735372 0
M  V30 1223 H 120.318 0.475027 1.85515 0
M  V30 1224 H 118.623 -1.4107 3.65522 0
M  V30 1225 H 120.32 -1.07858 3.86222 0
M  V30 1226 H 116.91 0.294102 4.2759 0
M  V30 1227 H 121.094 1.09602 4.84047 0
M  V30 1228 H 116.35 2.22045 5.69654 0
M  V30 1229 H 120.524 3.02078 6.27473 0
M  V30 1230 H 118.151 3.58892 6.7015 0
M  V30 1231 N 119.726 -1.57421 0.075193 0
M  V30 1232 C 120.658 -2.09904 -0.920483 0
M  V30 1233 C 121.671 -1.03191 -1.25918 0
M  V30 1234 O 122.86 -1.30695 -1.21577 0
M  V30 1235 C 119.96 -2.54726 -2.23534 0
M  V30 1236 C 119.133 -3.8505 -2.07498 0
M  V30 1237 C 118.192 -4.15929 -3.22319 0
M  V30 1238 O 117.218 -4.85474 -2.9716 0
M  V30 1239 N 118.42 -3.69745 -4.47514 0
M  V30 1240 H 121.185 -2.95954 -0.472359 0
M  V30 1241 H 118.746 -1.61523 -0.110444 0
M  V30 1242 H 120.738 -2.72443 -2.9926 0
M  V30 1243 H 119.308 -1.73795 -2.59835 0
M  V30 1244 H 118.528 -3.76679 -1.16219 0
M  V30 1245 H 119.816 -4.70348 -1.94038 0
M  V30 1246 H 119.214 -3.13569 -4.7084 0
M  V30 1247 H 117.771 -3.92655 -5.20255 0
M  V30 1248 N 121.204 0.198386 -1.56346 0
M  V30 1249 C 122.137 1.27381 -1.89339 0
M  V30 1250 C 123.115 1.44106 -0.753134 0
M  V30 1251 O 124.299 1.59549 -1.00381 0
M  V30 1252 C 121.426 2.6409 -2.12071 0
M  V30 1253 C 120.472 2.64253 -3.34772 0
M  V30 1254 S 121.305 2.16013 -4.89999 0
M  V30 1255 C 122.461 3.54553 -5.15794 0
M  V30 1256 H 122.694 0.992058 -2.8026 0
M  V30 1257 H 120.227 0.401726 -1.49082 0
M  V30 1258 H 122.185 3.42786 -2.2585 0
M  V30 1259 H 120.846 2.89478 -1.21906 0
M  V30 1260 H 120.039 3.64768 -3.47794 0
M  V30 1261 H 119.641 1.93637 -3.1997 0
M  V30 1262 H 121.933 4.50396 -5.06112 0
M  V30 1263 H 122.876 3.46428 -6.1757 0
M  V30 1264 H 123.284 3.49313 -4.43442 0
M  V30 1265 N 122.682 1.50554 0.465978 0
M  V30 1266 C 123.959 1.5232 1.22712 0
M  V30 1267 C 124.339 0.270807 2.09356 0
M  V30 1268 O 123.687 -0.745541 2.15995 0
M  V30 1269 C 123.897 2.82175 2.05374 0
M  V30 1270 C 125.245 3.33033 2.6339 0
M  V30 1271 O 126.269 2.83531 2.15612 0
M  V30 1272 O 125.128 4.19336 3.50456 0
M  V30 1273 H 122.222 0.611183 0.557122 0
M  V30 1274 H 124.768 1.62847 0.477381 0
M  V30 1275 H 123.54 3.64797 1.41558 0
M  V30 1276 H 123.163 2.74675 2.87471 0
M  V30 1277 N 124.16 -0.719506 1.40217 0
M  V30 1278 C 125.07 -1.86378 1.42479 0
M  V30 1279 C 126.086 -1.71073 0.317834 0
M  V30 1280 O 127.262 -1.93406 0.561794 0
M  V30 1281 C 124.327 -3.22136 1.28178 0
M  V30 1282 C 123.388 -3.49723 2.48982 0
M  V30 1283 C 122.621 -4.79004 2.35353 0
M  V30 1284 O 122.844 -5.53821 1.36524 0
M  V30 1285 O 121.778 -5.06839 3.2465 0
M  V30 1286 H 125.604 -1.87425 2.38968 0
M  V30 1287 H 123.189 -0.869405 1.21498 0
M  V30 1288 H 125.071 -4.03234 1.22395 0
M  V30 1289 H 123.746 -3.21825 0.347934 0
M  V30 1290 H 122.653 -2.6865 2.60342 0
M  V30 1291 H 123.986 -3.54828 3.41113 0
M  V30 1292 N 125.638 -1.25649 -0.95132 0
M  V30 1293 C 126.886 -1.10375 -1.69298 0
M  V30 1294 C 127.207 0.355339 -1.91735 0
M  V30 1295 O 126.477 1.25188 -1.50681 0
M  V30 1296 H 125.057 -0.405461 -0.627384 0
M  V30 1297 H 127.719 -1.57823 -1.14358 0
M  V30 1298 H 126.815 -1.61465 -2.67087 0
M  V30 1299 N 127.117 1.15442 -1.07289 0
M  V30 1300 C 128.027 2.23786 -0.704057 0
M  V30 1301 C 129.043 1.7166 0.284413 0
M  V30 1302 O 130.219 2.00972 0.131205 0
M  V30 1303 C 127.284 3.46535 -0.106792 0
M  V30 1304 C 126.345 4.13654 -1.14842 0
M  V30 1305 C 125.578 5.30544 -0.57956 0
M  V30 1306 O 125.801 5.67187 0.604585 0
M  V30 1307 O 124.735 5.87154 -1.32414 0
M  V30 1308 H 128.561 2.57664 -1.60757 0
M  V30 1309 H 126.146 1.23152 -0.845803 0
M  V30 1310 H 128.028 4.20804 0.224048 0
M  V30 1311 H 126.703 3.14407 0.770049 0
M  V30 1312 H 125.61 3.4131 -1.5316 0
M  V30 1313 H 126.943 4.49861 -1.99714 0
M  V30 1314 N 128.595 0.856903 1.32268 0
M  V30 1315 C 129.872 0.382583 1.91822 0
M  V30 1316 C 130.252 -1.13407 1.78051 0
M  V30 1317 O 129.6 -1.95673 1.18001 0
M  V30 1318 C 129.81 0.849446 3.38505 0
M  V30 1319 C 131.158 0.867936 4.15634 0
M  V30 1320 O 132.182 0.794232 3.47232 0
M  V30 1321 O 131.041 0.972286 5.37781 0
M  V30 1322 H 128.135 0.112014 0.819379 0
M  V30 1323 H 130.681 0.943952 1.41024 0
M  V30 1324 H 129.453 1.89267 3.42482 0
M  V30 1325 H 129.076 0.265652 3.96712 0
M  V30 1326 N 130.073 -1.45103 0.615059 0
M  V30 1327 C 131.484 -1.85654 0.197383 0
M  V30 1328 C 131.835 -1.51433 -1.24749 0
M  V30 1329 O 130.96 -0.944608 -1.94695 0
M  V30 1330 C 131.555 -3.36972 0.351448 0
M  V30 1331 C 130.114 -3.76398 -0.011593 0
M  V30 1332 C 129.261 -2.69024 0.672394 0
M  V30 1333 H 132.212 -1.35797 0.821263 0
M  V30 1334 H 132.233 -3.78239 -0.414227 0
M  V30 1335 H 131.745 -3.61847 1.40314 0
M  V30 1336 H 129.846 -3.5714 -1.06217 0
M  V30 1337 H 129.959 -4.77532 0.387265 0
M  V30 1338 H 128.323 -2.54465 0.109284 0
M  V30 1339 H 129.106 -2.96735 1.72636 0
M  V30 1340 N 131.551 -0.354651 -1.53558 0
M  V30 1341 C 132.776 0.242153 -2.05981 0
M  V30 1342 C 133.201 1.42553 -1.2272 0
M  V30 1343 O 132.559 1.79656 -0.243604 0
M  V30 1344 C 132.607 0.624367 -3.55154 0
M  V30 1345 O 131.711 1.72301 -3.74681 0
M  V30 1346 H 131.052 0.0378432 -0.662921 0
M  V30 1347 H 133.582 -0.512087 -1.98088 0
M  V30 1348 H 133.592 0.898433 -3.97985 0
M  V30 1349 H 132.267 -0.240989 -4.15201 0
M  V30 1350 H 130.844 1.44535 -3.4375 0
M  V30 1351 N 133.029 1.57378 -0.0835403 0
M  V30 1352 C 133.959 2.1641 0.87686 0
M  V30 1353 C 134.94 1.09429 1.30228 0
M  V30 1354 O 136.125 1.37516 1.37124 0
M  V30 1355 C 133.255 2.73517 2.14022 0
M  V30 1356 C 132.209 3.85769 1.85381 0
M  V30 1357 C 131.535 4.29529 3.18448 0
M  V30 1358 C 132.835 5.09486 1.14984 0
M  V30 1359 H 134.529 2.96914 0.385059 0
M  V30 1360 H 132.075 1.42823 0.18377 0
M  V30 1361 H 134.028 3.13463 2.81636 0
M  V30 1362 H 132.752 1.90252 2.65465 0
M  V30 1363 H 131.411 3.46345 1.20169 0
M  V30 1364 H 131.059 3.43169 3.67755 0
M  V30 1365 H 130.759 5.05204 3.00071 0
M  V30 1366 H 132.283 4.72099 3.8724 0
M  V30 1367 H 133.697 5.46674 1.72687 0
M  V30 1368 H 132.094 5.90515 1.06826 0
M  V30 1369 H 133.164 4.84724 0.130749 0
M  V30 1370 N 134.507 -0.190092 1.56449 0
M  V30 1371 C 135.437 -1.23816 1.97969 0
M  V30 1372 C 136.418 -1.47201 0.852395 0
M  V30 1373 O 137.603 -1.58854 1.1171 0
M  V30 1374 C 134.733 -2.5813 2.3235 0
M  V30 1375 C 133.687 -2.49348 3.47864 0
M  V30 1376 C 133.013 -3.8798 3.67934 0
M  V30 1377 C 134.313 -2.01424 4.81898 0
M  V30 1378 H 136.007 -0.89311 2.85769 0
M  V30 1379 H 133.553 -0.428177 1.37487 0
M  V30 1380 H 135.506 -3.31637 2.59991 0
M  V30 1381 H 134.23 -2.94386 1.41438 0
M  V30 1382 H 132.889 -1.78297 3.20321 0
M  V30 1383 H 132.537 -4.21597 2.74344 0
M  V30 1384 H 132.237 -3.82978 4.45648 0
M  V30 1385 H 133.761 -4.63101 3.97957 0
M  V30 1386 H 135.175 -2.64693 5.08538 0
M  V30 1387 H 133.572 -2.07413 5.63116 0
M  V30 1388 H 134.642 -0.967677 4.75146 0
M  V30 1389 N 135.985 -1.50799 -0.457987 0
M  V30 1390 C 137.232 -1.62442 -1.20908 0
M  V30 1391 C 137.56 -0.330865 -1.91665 0
M  V30 1392 O 136.815 0.68401 -1.83357 0
M  V30 1393 C 137.114 -2.76358 -2.2663 0
M  V30 1394 C 136.78 -4.16378 -1.73033 0
M  V30 1395 C 135.442 -4.54473 -1.58138 0
M  V30 1396 C 137.794 -5.03836 -1.33413 0
M  V30 1397 C 135.122 -5.77754 -1.02065 0
M  V30 1398 C 137.474 -6.27676 -0.78778 0
M  V30 1399 C 136.138 -6.64562 -0.625561 0
M  V30 1400 H 135.408 -0.594417 -0.442435 0
M  V30 1401 H 138.055 -1.84772 -0.503136 0
M  V30 1402 H 136.36 -2.48167 -3.03184 0
M  V30 1403 H 138.057 -2.82568 -2.84528 0
M  V30 1404 H 134.647 -3.86331 -1.85598 0
M  V30 1405 H 138.831 -4.75026 -1.4375 0
M  V30 1406 H 134.087 -6.04997 -0.882547 0
M  V30 1407 H 138.261 -6.94797 -0.472177 0
M  V30 1408 H 135.888 -7.59965 -0.188926 0
M  V30 1409 N 137.463 0.71206 -1.40597 0
M  V30 1410 C 138.395 1.83704 -1.37061 0
M  V30 1411 C 139.408 1.60453 -0.275426 0
M  V30 1412 O 140.597 1.70262 -0.53602 0
M  V30 1413 C 137.697 3.20172 -1.11099 0
M  V30 1414 C 136.87 3.7059 -2.3234 0
M  V30 1415 C 135.929 4.85681 -2.02485 0
M  V30 1416 O 134.955 4.9815 -2.75382 0
M  V30 1417 N 136.157 5.71735 -1.00497 0
M  V30 1418 H 138.922 1.87235 -2.34016 0
M  V30 1419 H 136.483 0.893739 -1.34996 0
M  V30 1420 H 138.475 3.94768 -0.891064 0
M  V30 1421 H 137.045 3.11767 -0.227989 0
M  V30 1422 H 136.265 2.87085 -2.7014 0
M  V30 1423 H 137.553 4.01011 -3.13157 0
M  V30 1424 H 136.951 5.64275 -0.401298 0
M  V30 1425 H 135.508 6.463 -0.844942 0
M  V30 1426 N 138.941 1.26152 0.944643 0
M  V30 1427 C 140.166 1.14363 1.7302 0
M  V30 1428 C 140.591 -0.29772 1.85729 0
M  V30 1429 O 139.949 -1.2157 1.34501 0
M  V30 1430 C 139.997 1.81378 3.11664 0
M  V30 1431 O 139.101 1.10022 3.97453 0
M  V30 1432 H 138.442 0.398694 0.53098 0
M  V30 1433 H 140.972 1.66906 1.18337 0
M  V30 1434 H 140.982 1.88064 3.62072 0
M  V30 1435 H 139.657 2.86237 3.0173 0
M  V30 1436 H 138.234 1.11287 3.55907 0
M  V30 1437 N 140.419 -1.14872 1.07899 0
M  V30 1438 C 141.649 -1.89386 0.825631 0
M  V30 1439 C 142.057 -1.78565 -0.625406 0
M  V30 1440 O 141.4 -1.13918 -1.44113 0
M  V30 1441 C 141.462 -3.40206 1.16191 0
M  V30 1442 C 141.126 -3.74812 2.61467 0
M  V30 1443 C 142.123 -3.75367 3.59716 0
M  V30 1444 C 139.808 -4.0495 2.97189 0
M  V30 1445 C 141.802 -4.05574 4.9172 0
M  V30 1446 C 139.489 -4.34821 4.29388 0
M  V30 1447 C 140.487 -4.35116 5.26463 0
M  V30 1448 O 140.175 -4.64267 6.56286 0
M  V30 1449 H 139.907 -0.606894 0.297751 0
M  V30 1450 H 142.461 -1.46438 1.44031 0
M  V30 1451 H 140.691 -3.8358 0.490214 0
M  V30 1452 H 142.38 -3.96018 0.890193 0
M  V30 1453 H 143.146 -3.52176 3.33462 0
M  V30 1454 H 139.025 -4.03876 2.22273 0
M  V30 1455 H 142.569 -4.05719 5.67484 0
M  V30 1456 H 138.466 -4.5748 4.55392 0
M  V30 1457 H 139.234 -4.82007 6.61522 0
M  V30 1458 N 141.898 -0.863906 -1.31812 0
M  V30 1459 C 142.828 -0.330843 -2.31144 0
M  V30 1460 C 143.809 0.575005 -1.60087 0
M  V30 1461 O 144.994 0.493304 -1.8783 0
M  V30 1462 C 142.124 0.47374 -3.44054 0
M  V30 1463 C 141.078 -0.338481 -4.26659 0
M  V30 1464 C 140.404 0.591412 -5.31419 0
M  V30 1465 C 141.704 -1.56926 -4.98168 0
M  V30 1466 H 143.398 -1.16086 -2.75979 0
M  V30 1467 H 140.944 -0.559657 -1.32679 0
M  V30 1468 H 142.897 0.857143 -4.12591 0
M  V30 1469 H 141.621 1.33721 -2.9797 0
M  V30 1470 H 140.28 -0.703754 -3.59782 0
M  V30 1471 H 139.928 1.45199 -4.81587 0
M  V30 1472 H 139.628 0.0519022 -5.87577 0
M  V30 1473 H 141.152 0.97179 -6.02817 0
M  V30 1474 H 142.566 -1.25764 -5.59336 0
M  V30 1475 H 140.963 -2.04739 -5.64094 0
M  V30 1476 H 142.033 -2.32544 -4.25501 0
M  V30 1477 N 143.376 1.44774 -0.622745 0
M  V30 1478 C 144.653 1.95522 -0.0551974 0
M  V30 1479 C 145.033 1.5649 1.41683 0
M  V30 1480 O 144.381 0.834848 2.12703 0
M  V30 1481 C 144.591 3.4796 -0.269242 0
M  V30 1482 C 145.939 4.24306 -0.158014 0
M  V30 1483 O 146.963 3.55637 -0.200162 0
M  V30 1484 O 145.822 5.46471 -0.0558693 0
M  V30 1485 H 142.916 0.826556 0.0271015 0
M  V30 1486 H 145.462 1.54866 -0.693864 0
M  V30 1487 H 144.234 3.6939 -1.29099 0
M  V30 1488 H 143.857 3.95543 0.403966 0
M  V30 1489 N 144.854 0.36279 1.53368 0
M  V30 1490 C 145.802 -0.500155 2.27159 0
M  V30 1491 C 146.796 -1.08575 1.3003 0
M  V30 1492 O 148.002 -1.02927 1.47668 0
M  V30 1493 H 144.377 -0.180009 0.730138 0
M  V30 1494 H 146.348 0.14401 2.98052 0
M  V30 1495 C 145.097 -1.62937 3.07159 0
M  V30 1496 H 144.42 -1.18806 3.8174 0
M  V30 1497 H 145.86 -2.20795 3.61975 0
M  V30 1498 C 144.319 -2.57007 2.17829 0
M  V30 1499 O 144.849 -3.59752 1.78721 0
M  V30 1500 N 143.055 -2.26131 1.82518 0
M  V30 1501 H 142.602 -1.42616 2.14519 0
M  V30 1502 H 142.56 -2.89327 1.23034 0
M  V30 1503 N 146.332 -1.57332 0.0918853 0
M  V30 1504 C 147.578 -1.94524 -0.573425 0
M  V30 1505 C 147.911 -0.973578 -1.68033 0
M  V30 1506 O 147.186 -0.00609226 -1.94499 0
M  V30 1507 C 147.469 -3.41858 -1.13161 0
M  V30 1508 C 147.322 -4.4979 -0.0299747 0
M  V30 1509 C 148.641 -3.90435 -2.03098 0
M  V30 1510 H 145.76 -0.70734 -0.206975 0
M  V30 1511 H 148.402 -1.89309 0.161942 0
M  V30 1512 H 146.552 -3.46433 -1.7583 0
M  V30 1513 H 148.224 -4.57327 0.604112 0
M  V30 1514 H 146.467 -4.291 0.636833 0
M  V30 1515 H 147.138 -5.50069 -0.461287 0
M  V30 1516 H 149.614 -3.87992 -1.50338 0
M  V30 1517 H 148.49 -4.94097 -2.39081 0
M  V30 1518 H 148.751 -3.29541 -2.94712 0
M  V30 1519 N 147.81 0.181792 -1.56548 0
M  V30 1520 C 149.058 0.89832 -1.81038 0
M  V30 1521 C 149.379 1.83232 -0.667164 0
M  V30 1522 O 148.649 1.93372 0.313673 0
M  V30 1523 H 147.229 0.33471 -0.667816 0
M  V30 1524 H 149.891 0.184116 -1.94028 0
M  V30 1525 H 148.987 1.4815 -2.74696 0
M  V30 1526 N 149.288 1.51039 0.449983 0
M  V30 1527 C 150.534 1.63322 1.20223 0
M  V30 1528 C 150.867 0.34241 1.91158 0
M  V30 1529 O 150.142 -0.657344 1.83055 0
M  V30 1530 C 150.425 2.82801 2.22925 0
M  V30 1531 C 150.278 4.21823 1.56157 0
M  V30 1532 C 151.597 2.97807 3.24035 0
M  V30 1533 H 148.716 0.594407 0.435718 0
M  V30 1534 H 151.358 1.83489 0.493136 0
M  V30 1535 H 149.508 2.65738 2.834 0
M  V30 1536 H 151.18 4.50526 0.991162 0
M  V30 1537 H 149.423 4.25105 0.864172 0
M  V30 1538 H 150.094 5.01391 2.30891 0
M  V30 1539 H 152.57 3.13497 2.73603 0
M  V30 1540 H 151.446 3.82992 3.93202 0
M  V30 1541 H 151.707 2.09328 3.89402 0
M  V30 1542 N 150.766 -0.704594 1.40972 0
M  V30 1543 C 151.698 -1.82974 1.38033 0
M  V30 1544 C 152.711 -1.60305 0.283931 0
M  V30 1545 O 153.9 -1.69975 0.545042 0
M  V30 1546 C 151 -3.19578 1.12795 0
M  V30 1547 C 150.173 -3.69352 2.34302 0
M  V30 1548 C 149.232 -4.84601 2.05058 0
M  V30 1549 O 148.258 -4.96682 2.7802 0
M  V30 1550 N 149.46 -5.71194 1.03528 0
M  V30 1551 H 152.225 -1.85991 2.35005 0
M  V30 1552 H 149.786 -0.886567 1.35468 0
M  V30 1553 H 151.778 -3.9429 0.911987 0
M  V30 1554 H 150.348 -3.11642 0.24452 0
M  V30 1555 H 149.568 -2.85649 2.71659 0
M  V30 1556 H 150.856 -3.99345 3.1528 0
M  V30 1557 H 150.254 -5.64054 0.431217 0
M  V30 1558 H 148.811 -6.45843 0.879205 0
M  V30 1559 N 152.244 -1.26651 -0.937939 0
M  V30 1560 C 153.493 -1.11775 -1.67897 0
M  V30 1561 C 153.806 0.33794 -1.92659 0
M  V30 1562 O 155.012 0.607434 -2.64618 0
M  V30 1563 C 153.468 -1.9523 -3.02346 0
M  V30 1564 C 153.076 -3.45393 -2.8532 0
M  V30 1565 C 154.82 -1.88972 -3.80118 0
M  V30 1566 C 152.727 -4.21083 -4.15263 0
M  V30 1567 H 151.657 -0.414696 -0.629717 0
M  V30 1568 H 154.308 -1.50988 -1.04283 0
M  V30 1569 H 152.69 -1.48853 -3.66959 0
M  V30 1570 H 153.864 -3.99561 -2.29537 0
M  V30 1571 H 152.179 -3.52921 -2.20988 0
M  V30 1572 H 154.776 -2.42805 -4.76392 0
M  V30 1573 H 155.119 -0.86113 -4.07296 0
M  V30 1574 H 155.652 -2.33189 -3.22285 0
M  V30 1575 H 152.391 -5.24425 -3.93267 0
M  V30 1576 H 151.911 -3.71695 -4.70747 0
M  V30 1577 H 153.59 -4.29706 -4.83696 0
M  V30 1578 N 153.722 1.14298 -1.08507 0
M  V30 1579 C 154.968 1.85633 -0.816581 0
M  V30 1580 C 155.301 1.82784 0.656021 0
M  V30 1581 O 154.576 1.25926 1.48233 0
M  V30 1582 C 154.859 3.34223 -1.34041 0
M  V30 1583 C 154.712 3.45639 -2.87843 0
M  V30 1584 C 156.031 4.29356 -0.9665 0
M  V30 1585 H 153.15 0.67402 -0.298104 0
M  V30 1586 H 155.792 1.34214 -1.34487 0
M  V30 1587 H 153.942 3.78144 -0.89104 0
M  V30 1588 H 155.614 3.10498 -3.41158 0
M  V30 1589 H 153.857 2.86817 -3.25451 0
M  V30 1590 H 154.528 4.50089 -3.19569 0
M  V30 1591 H 157.004 3.93457 -1.35391 0
M  V30 1592 H 155.88 5.3178 -1.3602 0
M  V30 1593 H 156.141 4.41919 0.126362 0
M  V30 1594 N 155.201 0.870884 1.31352 0
M  V30 1595 C 156.617 0.562932 1.49343 0
M  V30 1596 C 156.817 -0.902725 1.80148 0
M  V30 1597 O 155.873 -1.68484 1.88067 0
M  V30 1598 C 157.186 1.46393 2.62659 0
M  V30 1599 C 158.734 1.46607 2.76542 0
M  V30 1600 C 159.209 2.35266 3.92955 0
M  V30 1601 N 160.7 2.33151 4.00243 0
M  V30 1602 C 161.435 2.98471 4.89594 0
M  V30 1603 N 160.931 3.72964 5.8384 0
M  V30 1604 N 162.724 2.87775 4.82848 0
M  V30 1605 H 154.875 1.81923 1.09626 0
M  V30 1606 H 157.138 0.777934 0.541777 0
M  V30 1607 H 156.844 2.50689 2.46674 0
M  V30 1608 H 156.718 1.16314 3.58819 0
M  V30 1609 H 159.105 0.43069 2.9194 0
M  V30 1610 H 159.186 1.8071 1.81046 0
M  V30 1611 H 158.83 3.38881 3.78315 0
M  V30 1612 H 158.76 1.98487 4.87761 0
M  V30 1613 H 161.251 1.79006 3.32814 0
M  V30 1614 H 161.564 4.19932 6.4875 0
M  V30 1615 H 159.909 3.77073 5.83816 0
M  V30 1616 H 163.1 2.29116 4.08195 0
M  V30 1617 H 163.273 3.38961 5.52277 0
M  V30 1618 N 156.679 -1.44442 0.630414 0
M  V30 1619 C 157.611 -2.2892 -0.113347 0
M  V30 1620 C 158.624 -1.41243 -0.80959 0
M  V30 1621 O 159.813 -1.65402 -0.671156 0
M  V30 1622 C 156.913 -3.17594 -1.18266 0
M  V30 1623 C 156.086 -4.33682 -0.569073 0
M  V30 1624 C 155.145 -5.03397 -1.53226 0
M  V30 1625 O 154.171 -5.59438 -1.04967 0
M  V30 1626 N 155.373 -5.04783 -2.86661 0
M  V30 1627 H 158.138 -2.93392 0.611636 0
M  V30 1628 H 155.699 -1.54881 0.471523 0
M  V30 1629 H 157.691 -3.61097 -1.82732 0
M  V30 1630 H 156.261 -2.54876 -1.80988 0
M  V30 1631 H 155.481 -3.9338 0.254187 0
M  V30 1632 H 156.769 -5.08608 -0.139767 0
M  V30 1633 H 156.167 -4.60584 -3.28449 0
M  V30 1634 H 154.724 -5.52077 -3.46489 0
M  V30 1635 N 158.157 -0.370918 -1.53173 0
M  V30 1636 C 159.406 0.218249 -2.00516 0
M  V30 1637 C 159.719 1.49429 -1.26215 0
M  V30 1638 O 160.925 2.16239 -1.64174 0
M  V30 1639 C 159.381 0.43948 -3.57207 0
M  V30 1640 C 158.989 -0.822244 -4.4039 0
M  V30 1641 C 160.733 0.986012 -4.1289 0
M  V30 1642 C 158.64 -0.570304 -5.88644 0
M  V30 1643 H 157.57 0.0853333 -0.749156 0
M  V30 1644 H 160.221 -0.490483 -1.76823 0
M  V30 1645 H 158.603 1.20961 -3.77074 0
M  V30 1646 H 159.777 -1.59557 -4.32294 0
M  V30 1647 H 158.092 -1.29238 -3.95836 0
M  V30 1648 H 160.689 1.18991 -5.21292 0
M  V30 1649 H 161.032 1.94972 -3.6782 0
M  V30 1650 H 161.565 0.27592 -3.96842 0
M  V30 1651 H 158.304 -1.50449 -6.38001 0
M  V30 1652 H 157.824 0.164427 -5.99575 0
M  V30 1653 H 159.503 -0.19784 -6.46697 0
M  V30 1654 N 159.635 1.57281 -0.100228 0
M  V30 1655 C 161.051 1.57527 0.256416 0
M  V30 1656 C 161.251 1.11173 1.68056 0
M  V30 1657 O 160.307 0.79053 2.39806 0
M  V30 1658 C 161.62 3.00673 0.0401747 0
M  V30 1659 C 163.168 3.12815 0.107528 0
M  V30 1660 C 163.643 4.57929 -0.0807834 0
M  V30 1661 N 165.134 4.63193 -0.0261207 0
M  V30 1662 C 165.869 5.73212 -0.146999 0
M  V30 1663 N 165.365 6.92047 -0.322999 0
M  V30 1664 N 167.158 5.62031 -0.0879044 0
M  V30 1665 H 159.309 1.85718 -1.03065 0
M  V30 1666 H 161.572 0.857446 -0.404339 0
M  V30 1667 H 161.278 3.38804 -0.943649 0
M  V30 1668 H 161.152 3.69042 0.780262 0
M  V30 1669 H 163.539 2.74554 1.08186 0
M  V30 1670 H 163.62 2.47028 -0.664134 0
M  V30 1671 H 163.264 4.96886 -1.05201 0
M  V30 1672 H 163.194 5.21783 0.710635 0
M  V30 1673 H 165.685 3.77748 0.107161 0
M  V30 1674 H 165.998 7.7173 -0.406608 0
M  V30 1675 H 164.343 6.94074 -0.358733 0
M  V30 1676 H 167.534 4.68075 0.048498 0
M  V30 1677 H 167.707 6.47734 -0.185557 0
M  V30 1678 N 161.113 -0.173488 1.56642 0
M  V30 1679 C 162.338 -0.910149 1.86363 0
M  V30 1680 C 162.763 -1.75132 0.686318 0
M  V30 1681 O 162.121 -1.77595 -0.364643 0
M  V30 1682 C 162.169 -1.76447 3.14482 0
M  V30 1683 O 161.273 -2.86584 2.96553 0
M  V30 1684 H 160.614 -0.255086 0.613047 0
M  V30 1685 H 163.144 -0.172283 2.03873 0
M  V30 1686 H 163.154 -2.16483 3.45831 0
M  V30 1687 H 161.829 -1.14658 3.99783 0
M  V30 1688 H 160.406 -2.50146 2.76553 0
M  V30 1689 N 162.591 -1.51276 -0.441967 0
M  V30 1690 C 163.839 -1.63392 -1.18943 0
M  V30 1691 C 164.16 -0.350159 -1.9183 0
M  V30 1692 O 163.43 0.633784 -1.85364 0
M  V30 1693 H 162.01 -0.602164 -0.442049 0
M  V30 1694 H 164.672 -1.88186 -0.507165 0
M  V30 1695 H 163.768 -2.45934 -1.92154 0
M  V30 1696 N 164.069 0.697108 -1.41344 0
M  V30 1697 C 164.979 1.84088 -1.45427 0
M  V30 1698 C 165.995 1.70545 -0.34501 0
M  V30 1699 O 167.171 1.92488 -0.592492 0
M  V30 1700 C 164.236 3.20056 -1.33286 0
M  V30 1701 C 163.297 3.45718 -2.54514 0
M  V30 1702 C 162.53 4.75199 -2.42944 0
M  V30 1703 O 162.753 5.51579 -1.45318 0
M  V30 1704 O 161.687 5.0161 -3.32672 0
M  V30 1705 H 165.513 1.836 -2.41919 0
M  V30 1706 H 163.098 0.849966 -1.22866 0
M  V30 1707 H 164.98 4.01236 -1.28794 0
M  V30 1708 H 163.655 3.2123 -0.39909 0
M  V30 1709 H 162.562 2.64474 -2.64583 0
M  V30 1710 H 163.895 3.49356 -3.46715 0
M  V30 1711 N 165.547 1.27147 0.931209 0
M  V30 1712 C 166.963 1.04475 1.20653 0
M  V30 1713 C 167.163 -0.223885 2.00252 0
M  V30 1714 O 166.219 -0.930332 2.34736 0
M  V30 1715 C 167.532 2.28209 1.95809 0
M  V30 1716 C 169.08 2.33211 2.08762 0
M  V30 1717 C 169.555 3.56665 2.87323 0
M  V30 1718 N 171.046 3.57201 2.94892 0
M  V30 1719 C 171.781 4.49395 3.56134 0
M  V30 1720 N 171.277 5.51889 4.18796 0
M  V30 1721 N 173.07 4.37026 3.53504 0
M  V30 1722 H 165.221 2.08612 0.399333 0
M  V30 1723 H 167.484 0.917312 0.239253 0
M  V30 1724 H 167.19 3.20538 1.44736 0
M  V30 1725 H 167.064 2.33247 2.96438 0
M  V30 1726 H 169.451 1.41391 2.59023 0
M  V30 1727 H 169.532 2.32178 1.07364 0
M  V30 1728 H 169.176 4.4882 2.37746 0
M  V30 1729 H 169.106 3.54948 3.88998 0
M  V30 1730 H 171.597 2.83074 2.50354 0
M  V30 1731 H 171.91 6.18409 4.63454 0
M  V30 1732 H 170.255 5.55735 4.17353 0
M  V30 1733 H 173.446 3.56166 3.03749 0
M  V30 1734 H 173.619 5.09067 4.00942 0
M  V30 1735 N 167.025 -1.13721 1.09112 0
M  V30 1736 C 168.272 -1.84924 0.825192 0
M  V30 1737 C 168.6 -1.83347 -0.649151 0
M  V30 1738 O 167.855 -1.26449 -1.49362 0
M  V30 1739 C 168.154 -3.32861 1.30146 0
M  V30 1740 C 167.82 -3.54621 2.78486 0
M  V30 1741 C 166.482 -3.60268 3.18999 0
M  V30 1742 C 168.834 -3.62855 3.74146 0
M  V30 1743 C 166.162 -3.71679 4.53951 0
M  V30 1744 C 168.514 -3.75793 5.08883 0
M  V30 1745 C 167.178 -3.79692 5.4899 0
M  V30 1746 H 166.448 -0.676684 0.301959 0
M  V30 1747 H 169.095 -1.3428 1.36533 0
M  V30 1748 H 167.4 -3.85835 0.681064 0
M  V30 1749 H 169.097 -3.86395 1.07236 0
M  V30 1750 H 165.687 -3.50879 2.46134 0
M  V30 1751 H 169.871 -3.57775 3.43963 0
M  V30 1752 H 165.127 -3.72963 4.84467 0
M  V30 1753 H 169.301 -3.81107 5.82864 0
M  V30 1754 H 166.928 -3.88287 6.53558 0
M  V30 1755 N 168.503 -0.877838 -1.30888 0
M  V30 1756 C 169.433 -0.35534 -2.3078 0
M  V30 1757 C 170.414 0.557994 -1.60687 0
M  V30 1758 O 171.599 0.473355 -1.88343 0
M  V30 1759 C 168.729 0.437221 -3.44537 0
M  V30 1760 C 167.683 -0.383715 -4.26276 0
M  V30 1761 C 167.009 0.535014 -5.32017 0
M  V30 1762 C 168.309 -1.62201 -4.96476 0
M  V30 1763 H 170.003 -1.19007 -2.74732 0
M  V30 1764 H 167.549 -0.573698 -1.32078 0
M  V30 1765 H 169.502 0.813334 -4.13477 0
M  V30 1766 H 168.226 1.30553 -2.99372 0
M  V30 1767 H 166.885 -0.741874 -3.59015 0
M  V30 1768 H 166.533 1.40083 -4.831 0
M  V30 1769 H 166.233 -0.0104211 -5.87599 0
M  V30 1770 H 167.757 0.907799 -6.03814 0
M  V30 1771 H 169.171 -1.31689 -5.5797 0
M  V30 1772 H 167.568 -2.10711 -5.61891 0
M  V30 1773 H 168.638 -2.37044 -4.23011 0
M  V30 1774 N 169.982 1.44106 -0.638065 0
M  V30 1775 C 170.929 2.30715 0.062701 0
M  V30 1776 C 171.899 1.43882 0.829883 0
M  V30 1777 O 173.084 1.72775 0.809532 0
M  V30 1778 C 170.224 3.29258 1.03358 0
M  V30 1779 C 169.337 4.31192 0.26409 0
M  V30 1780 C 168.472 5.16825 1.22741 0
M  V30 1781 C 167.511 6.10462 0.447475 0
M  V30 1782 N 166.648 6.8877 1.36161 0
M  V30 1783 H 171.488 2.90096 -0.681781 0
M  V30 1784 H 169.025 1.42925 -0.347988 0
M  V30 1785 H 170.983 3.84886 1.60992 0
M  V30 1786 H 169.613 2.71562 1.74511 0
M  V30 1787 H 168.665 3.77981 -0.428295 0
M  V30 1788 H 169.977 4.97619 -0.343052 0
M  V30 1789 H 169.131 5.77004 1.87487 0
M  V30 1790 H 167.87 4.50488 1.86847 0
M  V30 1791 H 166.875 5.49386 -0.213433 0
M  V30 1792 H 168.1 6.78837 -0.188968 0
M  V30 1793 H 166.046 6.25096 1.98975 0
M  V30 1794 H 165.963 7.51663 0.808656 0
M  V30 1795 H 167.231 7.53467 1.99769 0
M  V30 1796 N 171.46 0.379036 1.52974 0
M  V30 1797 C 172.709 -0.207612 2.00629 0
M  V30 1798 C 173.022 -1.48758 1.27006 0
M  V30 1799 O 174.228 -2.15365 1.65318 0
M  V30 1800 C 172.684 -0.42053 3.57435 0
M  V30 1801 C 172.292 0.845587 4.39948 0
M  V30 1802 C 174.036 -0.964102 4.13407 0
M  V30 1803 C 171.943 0.601513 5.88333 0
M  V30 1804 H 170.873 -0.0813591 0.749598 0
M  V30 1805 H 173.524 0.499853 1.76561 0
M  V30 1806 H 171.906 -1.18959 3.7771 0
M  V30 1807 H 173.08 1.61848 4.31442 0
M  V30 1808 H 171.395 1.31336 3.95145 0
M  V30 1809 H 173.992 -1.16225 5.21916 0
M  V30 1810 H 174.335 -1.93019 3.68849 0
M  V30 1811 H 174.868 -0.25487 3.96983 0
M  V30 1812 H 171.607 1.53831 6.37194 0
M  V30 1813 H 171.127 -0.132628 5.99653 0
M  V30 1814 H 172.806 0.232134 6.46583 0
M  V30 1815 N 172.938 -1.57226 0.108567 0
M  V30 1816 C 174.184 -1.95919 -0.546564 0
M  V30 1817 C 174.539 -0.990417 -1.6495 0
M  V30 1818 O 173.832 -0.0186593 -1.91591 0
M  V30 1819 C 174.026 -3.38911 -1.13463 0
M  V30 1820 C 173.855 -4.4961 -0.0901926 0
M  V30 1821 C 172.625 -5.04168 0.338008 0
M  V30 1822 C 174.823 -5.09693 0.686808 0
M  V30 1823 N 172.805 -5.98434 1.36931 0
M  V30 1824 C 174.176 -5.99804 1.56958 0
M  V30 1825 C 176.231 -4.92388 0.738846 0
M  V30 1826 C 174.934 -6.74463 2.49983 0
M  V30 1827 C 176.96 -5.67719 1.65676 0
M  V30 1828 C 176.322 -6.57507 2.52713 0
M  V30 1829 H 172.421 -0.763312 -0.169936 0
M  V30 1830 H 175.005 -1.93728 0.194264 0
M  V30 1831 H 173.176 -3.41769 -1.84522 0
M  V30 1832 H 174.908 -3.64752 -1.75322 0
M  V30 1833 H 171.663 -4.73571 -0.0523673 0
M  V30 1834 H 172.087 -6.5027 1.88356 0
M  V30 1835 H 176.729 -4.22724 0.080084 0
M  V30 1836 H 174.447 -7.4338 3.16878 0
M  V30 1837 H 178.033 -5.56338 1.70233 0
M  V30 1838 H 176.913 -7.14778 3.22586 0
M  V30 1839 N 174.416 0.165178 -1.56732 0
M  V30 1840 C 175.641 0.900253 -1.86843 0
M  V30 1841 C 176.066 1.74766 -0.695596 0
M  V30 1842 O 175.424 1.77786 0.35522 0
M  V30 1843 C 175.472 1.74777 -3.15413 0
M  V30 1844 O 174.576 2.85007 -2.98068 0
M  V30 1845 H 173.917 0.251832 -0.614391 0
M  V30 1846 H 176.447 0.161468 -2.03962 0
M  V30 1847 H 176.457 2.14646 -3.46974 0
M  V30 1848 H 175.132 1.12537 -4.00385 0
M  V30 1849 H 173.709 2.48676 -2.77875 0
M  V30 1850 N 175.894 1.51508 0.433938 0
M  V30 1851 C 176.826 1.69266 1.54537 0
M  V30 1852 C 177.839 0.573276 1.52373 0
M  V30 1853 O 179.028 0.847698 1.57087 0
M  V30 1854 C 176.128 1.69524 2.93453 0
M  V30 1855 C 175.301 2.98101 3.20085 0
M  V30 1856 C 174.36 2.90502 4.38742 0
M  V30 1857 O 173.386 3.64442 4.3723 0
M  V30 1858 N 174.588 2.06586 5.42496 0
M  V30 1859 H 177.353 2.65145 1.39708 0
M  V30 1860 H 174.914 1.49437 0.622922 0
M  V30 1861 H 176.906 1.62004 3.70859 0
M  V30 1862 H 175.476 0.812245 3.01863 0
M  V30 1863 H 174.696 3.19464 2.30947 0
M  V30 1864 H 175.984 3.83207 3.34708 0
M  V30 1865 H 175.382 1.45896 5.46563 0
M  V30 1866 H 173.939 2.04943 6.18742 0
M  V30 1867 N 177.372 -0.689602 1.41712 0
M  V30 1868 C 178.6 -1.47827 1.44758 0
M  V30 1869 C 179.015 -1.88721 0.0545703 0
M  V30 1870 O 178.372 -1.57176 -0.927463 0
M  V30 1871 C 178.423 -2.73698 2.3616 0
M  V30 1872 O 178.144 -2.34524 3.7004 0
M  V30 1873 C 179.645 -3.67389 2.48072 0
M  V30 1874 H 176.865 -0.455357 0.49284 0
M  V30 1875 H 179.409 -0.848574 1.86063 0
M  V30 1876 H 177.564 -3.32891 1.98148 0
M  V30 1877 H 177.978 -3.15701 4.18847 0
M  V30 1878 H 179.452 -4.52475 3.16181 0
M  V30 1879 H 179.929 -4.12284 1.51388 0
M  V30 1880 H 180.535 -3.14097 2.86746 0
M  V30 1881 N 178.85 -1.27639 -0.924453 0
M  V30 1882 C 180.096 -1.14336 -1.67497 0
M  V30 1883 C 180.429 0.309465 -1.91718 0
M  V30 1884 O 179.704 1.22608 -1.50989 0
M  V30 1885 C 179.987 -1.93096 -3.0395 0
M  V30 1886 C 179.84 -3.46381 -2.8695 0
M  V30 1887 C 181.159 -1.73798 -4.0433 0
M  V30 1888 H 178.278 -0.416728 -0.607871 0
M  V30 1889 H 180.92 -1.56832 -1.07256 0
M  V30 1890 H 179.07 -1.56982 -3.55372 0
M  V30 1891 H 180.742 -3.92343 -2.42621 0
M  V30 1892 H 178.985 -3.72557 -2.22225 0
M  V30 1893 H 179.656 -3.96735 -3.83804 0
M  V30 1894 H 182.132 -2.05293 -3.61931 0
M  V30 1895 H 181.008 -2.31294 -4.97789 0
M  V30 1896 H 181.269 -0.686725 -4.36734 0
M  V30 1897 N 180.328 1.1314 -1.09713 0
M  V30 1898 C 181.238 2.22242 -0.751367 0
M  V30 1899 C 182.254 1.72224 0.247938 0
M  V30 1900 O 183.43 2.01205 0.0885463 0
M  V30 1901 C 180.495 3.46231 -0.180274 0
M  V30 1902 C 179.556 4.11125 -1.2359 0
M  V30 1903 C 178.789 5.29195 -0.691966 0
M  V30 1904 O 179.012 5.68342 0.48414 0
M  V30 1905 O 177.946 5.84214 -1.44838 0
M  V30 1906 H 181.772 2.54197 -1.66186 0
M  V30 1907 H 179.357 1.21331 -0.871735 0
M  V30 1908 H 181.239 4.21185 0.134739 0
M  V30 1909 H 179.914 3.1597 0.703185 0
M  V30 1910 H 178.821 3.37985 -1.60366 0
M  V30 1911 H 180.154 4.45524 -2.09211 0
M  V30 1912 N 181.806 0.884767 1.30421 0
M  V30 1913 C 182.716 0.355398 2.31892 0
M  V30 1914 C 183.732 -0.542261 1.65335 0
M  V30 1915 O 184.908 -0.435432 1.96637 0
M  V30 1916 C 181.973 -0.421661 3.44126 0
M  V30 1917 C 181.034 0.505727 4.26311 0
M  V30 1918 C 180.267 -0.234343 5.33185 0
M  V30 1919 O 180.49 -1.46045 5.51386 0
M  V30 1920 O 179.424 0.415443 6.00465 0
M  V30 1921 H 183.25 1.19685 2.79122 0
M  V30 1922 H 180.835 0.648596 1.34587 0
M  V30 1923 H 182.717 -0.861641 4.12497 0
M  V30 1924 H 181.392 -1.23942 2.99032 0
M  V30 1925 H 180.299 0.994513 3.60639 0
M  V30 1926 H 181.632 1.28948 4.75009 0
M  V30 1927 N 183.284 -1.43765 0.645699 0
M  V30 1928 C 184.533 -2.01116 0.153412 0
M  V30 1929 C 184.846 -1.51493 -1.23731 0
M  V30 1930 O 186.052 -2.01067 -1.8244 0
M  V30 1931 C 184.508 -3.59206 0.223473 0
M  V30 1932 C 184.116 -4.17823 1.61642 0
M  V30 1933 C 185.86 -4.23972 -0.211597 0
M  V30 1934 C 183.767 -5.68183 1.64081 0
M  V30 1935 H 182.697 -0.752093 0.0535891 0
M  V30 1936 H 185.348 -1.6482 0.806633 0
M  V30 1937 H 183.73 -3.92867 -0.497118 0
M  V30 1938 H 184.904 -3.95674 2.36176 0
M  V30 1939 H 183.219 -3.65399 1.99681 0
M  V30 1940 H 185.816 -5.34275 -0.213112 0
M  V30 1941 H 186.159 -3.97352 -1.24165 0
M  V30 1942 H 186.692 -3.95166 0.456988 0
M  V30 1943 H 183.431 -5.99559 2.64971 0
M  V30 1944 H 182.951 -5.9241 0.938611 0
M  V30 1945 H 184.63 -6.32085 1.3812 0
M  V30 1946 N 184.763 -0.387143 -1.52771 0
M  V30 1947 C 186.012 0.19697 -2.00736 0
M  V30 1948 C 186.325 1.48082 -1.27793 0
M  V30 1949 O 187.531 2.14485 -1.66458 0
M  V30 1950 C 185.987 0.401568 -3.57653 0
M  V30 1951 C 185.595 -0.868907 -4.39493 0
M  V30 1952 C 187.339 0.942164 -4.13912 0
M  V30 1953 C 185.246 -0.632705 -5.88006 0
M  V30 1954 H 184.176 0.0773827 -0.750019 0
M  V30 1955 H 186.827 -0.50921 -1.76293 0
M  V30 1956 H 185.209 1.16954 -3.78335 0
M  V30 1957 H 186.383 -1.64133 -4.30577 0
M  V30 1958 H 184.698 -1.33429 -3.94443 0
M  V30 1959 H 187.295 1.13455 -5.22525 0
M  V30 1960 H 187.638 1.9106 -3.69867 0
M  V30 1961 H 188.171 0.233814 -3.97112 0
M  V30 1962 H 184.91 -1.57208 -6.36369 0
M  V30 1963 H 184.43 0.100825 -5.99715 0
M  V30 1964 H 186.109 -0.26642 -6.46451 0
M  V30 1965 N 186.241 1.57166 -0.116904 0
M  V30 1966 C 187.466 1.999 0.55271 0
M  V30 1967 C 187.891 0.996039 1.59564 0
M  V30 1968 O 187.249 -0.032556 1.81271 0
M  V30 1969 C 187.297 3.4152 1.15742 0
M  V30 1970 O 186.401 3.44106 2.27299 0
M  V30 1971 H 185.742 0.649447 0.138258 0
M  V30 1972 H 188.272 2.03573 -0.204759 0
M  V30 1973 H 188.282 3.79684 1.49346 0
M  V30 1974 H 186.957 4.14034 0.393493 0
M  V30 1975 H 185.534 3.17759 1.9515 0
M  V30 1976 N 187.719 -0.156864 1.56817 0
M  V30 1977 C 188.949 -0.885031 1.86684 0
M  V30 1978 C 189.357 -1.75696 0.701954 0
M  V30 1979 O 188.7 -1.80569 -0.337732 0
M  V30 1980 C 188.762 -1.80092 3.11138 0
M  V30 1981 C 188.426 -1.10714 4.43386 0
M  V30 1982 C 189.423 -0.465714 5.1781 0
M  V30 1983 C 187.108 -1.09959 4.90117 0
M  V30 1984 C 189.102 0.174002 6.37162 0
M  V30 1985 C 186.789 -0.456055 6.09396 0
M  V30 1986 C 187.787 0.179622 6.82764 0
M  V30 1987 O 187.475 0.812975 7.99779 0
M  V30 1988 H 187.207 -0.261813 0.623242 0
M  V30 1989 H 189.761 -0.157383 2.04796 0
M  V30 1990 H 187.991 -2.56926 2.89009 0
M  V30 1991 H 189.68 -2.40018 3.27332 0
M  V30 1992 H 190.446 -0.463427 4.82781 0
M  V30 1993 H 186.325 -1.58378 4.3294 0
M  V30 1994 H 189.869 0.670765 6.94368 0
M  V30 1995 H 185.766 -0.455975 6.43888 0
M  V30 1996 H 186.534 0.71366 8.15383 0
M  V30 1997 N 189.197 -1.51736 -0.425897 0
M  V30 1998 C 190.443 -1.65214 -1.1761 0
M  V30 1999 C 190.776 -0.372778 -1.90589 0
M  V30 2000 O 190.051 0.628139 -1.84078 0
M  V30 2001 C 190.334 -2.86312 -2.18398 0
M  V30 2002 C 190.187 -4.24254 -1.49426 0
M  V30 2003 C 191.506 -3.02925 -3.19256 0
M  V30 2004 H 188.625 -0.601263 -0.426206 0
M  V30 2005 H 191.267 -1.8425 -0.463882 0
M  V30 2006 H 189.417 -2.70213 -2.79137 0
M  V30 2007 H 191.089 -4.52046 -0.919362 0
M  V30 2008 H 189.332 -4.26426 -0.796432 0
M  V30 2009 H 190.003 -5.05001 -2.22885 0
M  V30 2010 H 192.479 -3.1781 -2.68581 0
M  V30 2011 H 191.355 -3.89199 -3.8706 0
M  V30 2012 H 191.616 -2.15497 -3.86023 0
M  V30 2013 N 190.675 0.682077 -1.42076 0
M  V30 2014 C 191.638 1.77756 -1.44691 0
M  V30 2015 C 192.638 1.5726 -0.335535 0
M  V30 2016 O 193.828 1.63686 -0.596037 0
M  V30 2017 C 190.96 3.16301 -1.27146 0
M  V30 2018 H 192.153 1.76826 -2.42224 0
M  V30 2019 H 189.706 0.891012 -1.28416 0
M  V30 2020 H 190.441 3.22862 -0.305075 0
M  V30 2021 H 190.226 3.32581 -2.07683 0
M  V30 2022 H 191.716 3.96241 -1.31843 0
M  V30 2023 N 192.153 1.28127 0.917671 0
M  V30 2024 C 193.399 1.15223 1.66888 0
M  V30 2025 C 193.732 -0.299293 1.9188 0
M  V30 2026 O 193.007 -1.21805 1.51637 0
M  V30 2027 C 193.29 1.94706 3.02922 0
M  V30 2028 C 193.143 3.47898 2.85109 0
M  V30 2029 C 194.462 1.75939 4.03402 0
M  V30 2030 H 191.581 0.419946 0.605652 0
M  V30 2031 H 194.223 1.57398 1.06423 0
M  V30 2032 H 192.373 1.58864 3.54534 0
M  V30 2033 H 194.045 3.93624 2.40537 0
M  V30 2034 H 192.288 3.7373 2.20246 0
M  V30 2035 H 192.959 3.98765 3.81694 0
M  V30 2036 H 195.435 2.07209 3.60837 0
M  V30 2037 H 194.311 2.33931 4.96556 0
M  V30 2038 H 194.572 0.709877 4.36364 0
M  V30 2039 N 193.631 -1.12557 1.10312 0
M  V30 2040 C 194.579 -2.20325 0.745629 0
M  V30 2041 C 195.573 -1.67429 -0.25763 0
M  V30 2042 O 196.779 -1.79612 -0.118132 0
M  V30 2043 H 193.154 -0.718118 0.223182 0
M  V30 2044 H 195.125 -2.47733 1.66346 0
M  V30 2045 C 193.874 -3.47168 0.192262 0
M  V30 2046 H 193.197 -3.88215 0.955475 0
M  V30 2047 H 194.637 -4.23995 -0.0198274 0
M  V30 2048 C 193.096 -3.19298 -1.07472 0
M  V30 2049 O 193.626 -3.3891 -2.15645 0
M  V30 2050 N 191.832 -2.73113 -0.992847 0
M  V30 2051 H 191.379 -2.57354 -0.112474 0
M  V30 2052 H 191.337 -2.54842 -1.84127 0
M  V30 2053 N 195.109 -0.891671 -1.2995 0
M  V30 2054 C 196.356 -0.513501 -1.95881 0
M  V30 2055 C 196.684 0.938655 -1.70351 0
M  V30 2056 O 195.939 1.67936 -1.00478 0
M  V30 2057 C 196.238 -0.742868 -3.49594 0
M  V30 2058 C 195.904 -2.17114 -3.95186 0
M  V30 2059 C 194.566 -2.56169 -4.07346 0
M  V30 2060 C 196.918 -3.10162 -4.18866 0
M  V30 2061 C 194.246 -3.87469 -4.4055 0
M  V30 2062 C 196.598 -4.41001 -4.53542 0
M  V30 2063 C 195.262 -4.79941 -4.63911 0
M  V30 2064 H 194.532 -0.187903 -0.71678 0
M  V30 2065 H 197.179 -1.1288 -1.54694 0
M  V30 2066 H 195.484 -0.044586 -3.91775 0
M  V30 2067 H 197.181 -0.429767 -3.9869 0
M  V30 2068 H 193.771 -1.85801 -3.86233 0
M  V30 2069 H 197.955 -2.81206 -4.08946 0
M  V30 2070 H 193.211 -4.17371 -4.46779 0
M  V30 2071 H 197.385 -5.13133 -4.70815 0
M  V30 2072 H 195.012 -5.81719 -4.89395 0
M  V30 2073 N 196.587 1.43421 -0.653314 0
M  V30 2074 C 197.998 1.85065 -0.246537 0
M  V30 2075 C 198.349 1.54688 1.2069 0
M  V30 2076 O 197.474 0.995896 1.92122 0
M  V30 2077 C 198.069 3.35922 -0.440666 0
M  V30 2078 C 196.628 3.76297 -0.0882064 0
M  V30 2079 C 195.775 2.67147 -0.743484 0
M  V30 2080 H 198.726 1.33572 -0.856979 0
M  V30 2081 H 198.747 3.79204 0.313798 0
M  V30 2082 H 198.259 3.58 -1.49858 0
M  V30 2083 H 196.36 3.5983 0.96711 0
M  V30 2084 H 196.473 4.76338 -0.513738 0
M  V30 2085 H 194.837 2.54086 -0.176712 0
M  V30 2086 H 195.62 2.92053 -1.80443 0
M  V30 2087 N 198.065 0.39524 1.52563 0
M  V30 2088 C 199.013 -0.451859 2.28169 0
M  V30 2089 C 200.007 -1.05792 1.32304 0
M  V30 2090 O 201.213 -0.997718 1.49818 0
M  V30 2091 H 197.588 -0.164481 0.733792 0
M  V30 2092 H 199.559 0.207199 2.9768 0
M  V30 2093 C 198.308 -1.56385 3.10546 0
M  V30 2094 H 197.631 -1.10682 3.84174 0
M  V30 2095 H 199.071 -2.13067 3.66577 0
M  V30 2096 C 197.53 -2.52328 2.23231 0
M  V30 2097 O 198.06 -3.5588 1.86312 0
M  V30 2098 N 196.266 -2.22209 1.87274 0
M  V30 2099 H 195.813 -1.38033 2.17496 0
M  V30 2100 H 195.771 -2.86652 1.29143 0
M  V30 2101 N 199.544 -1.57102 0.125237 0
M  V30 2102 C 200.955 -1.82384 -0.399142 0
M  V30 2103 C 201.306 -1.04276 -1.66195 0
M  V30 2104 O 200.431 -0.281269 -2.14564 0
M  V30 2105 C 201.026 -3.30821 -0.730932 0
M  V30 2106 C 199.585 -3.56762 -1.19992 0
M  V30 2107 C 198.732 -2.7649 -0.211792 0
M  V30 2108 H 201.683 -1.54786 0.350277 0
M  V30 2109 H 201.704 -3.4579 -1.58775 0
M  V30 2110 H 201.216 -3.87643 0.188345 0
M  V30 2111 H 199.317 -3.05305 -2.13588 0
M  V30 2112 H 199.43 -4.65317 -1.14093 0
M  V30 2113 H 197.794 -2.4489 -0.700085 0
M  V30 2114 H 198.577 -3.36073 0.700691 0
M  V30 2115 N 201.022 0.148545 -1.56898 0
M  V30 2116 C 202.433 0.708766 -1.72723 0
M  V30 2117 C 202.784 1.81734 -0.739395 0
M  V30 2118 O 201.909 2.16194 0.0943169 0
M  V30 2119 C 202.504 1.29245 -3.13179 0
M  V30 2120 C 201.063 1.79925 -3.30611 0
M  V30 2121 C 200.21 0.687111 -2.68652 0
M  V30 2122 H 203.161 -0.0771063 -1.58513 0
M  V30 2123 H 203.182 2.16224 -3.13093 0
M  V30 2124 H 202.694 0.485382 -3.85053 0
M  V30 2125 H 200.795 2.63203 -2.63732 0
M  V30 2126 H 200.908 1.92903 -4.38549 0
M  V30 2127 H 199.272 1.11335 -2.29078 0
M  V30 2128 H 200.055 -0.108483 -3.43129 0
M  V30 2129 N 202.5 1.5196 0.417844 0
M  V30 2130 C 203.748 1.65263 1.16329 0
M  V30 2131 C 204.069 0.380634 1.91249 0
M  V30 2132 O 203.339 -0.604214 1.86349 0
M  V30 2133 H 201.919 0.60912 0.432414 0
M  V30 2134 H 204.581 1.88969 0.477162 0
M  V30 2135 H 203.677 2.4896 1.88217 0
M  V30 2136 N 203.978 -0.674533 1.42435 0
M  V30 2137 C 204.925 -1.78807 1.45934 0
M  V30 2138 C 205.895 -1.63157 0.311271 0
M  V30 2139 O 207.08 -1.83707 0.515383 0
M  V30 2140 C 204.22 -3.16839 1.36773 0
M  V30 2141 C 203.333 -3.43774 2.61617 0
M  V30 2142 C 202.468 -4.71536 2.44597 0
M  V30 2143 C 201.507 -4.91505 3.64814 0
M  V30 2144 N 200.644 -6.10508 3.46734 0
M  V30 2145 H 205.484 -1.75151 2.41093 0
M  V30 2146 H 203.021 -0.85504 1.19697 0
M  V30 2147 H 204.979 -3.96606 1.29459 0
M  V30 2148 H 203.609 -3.19619 0.452089 0
M  V30 2149 H 202.661 -2.58259 2.79297 0
M  V30 2150 H 203.973 -3.54423 3.50978 0
M  V30 2151 H 203.127 -5.59393 2.3487 0
M  V30 2152 H 201.866 -4.6317 1.52726 0
M  V30 2153 H 200.871 -4.0209 3.74972 0
M  V30 2154 H 202.096 -5.01716 4.57665 0
M  V30 2155 H 200.042 -6.03315 2.5758 0
M  V30 2156 H 199.959 -6.2202 4.29682 0
M  V30 2157 H 201.227 -7.01044 3.40819 0
M  V30 2158 N 205.456 -1.28612 -0.910864 0
M  V30 2159 C 206.681 -1.1891 -1.69927 0
M  V30 2160 C 207.106 0.248372 -1.86453 0
M  V30 2161 O 206.464 1.17961 -1.37676 0
M  V30 2162 C 206.512 -1.89578 -3.06745 0
M  V30 2163 O 205.616 -1.20521 -3.94396 0
M  V30 2164 H 204.957 -0.412632 -0.520222 0
M  V30 2165 H 207.487 -1.69985 -1.1387 0
M  V30 2166 H 207.497 -1.97597 -3.56958 0
M  V30 2167 H 206.172 -2.94136 -2.94035 0
M  V30 2168 H 204.749 -1.20684 -3.52831 0
M  V30 2169 N 206.934 1.1197 -1.10907 0
M  V30 2170 C 208.159 1.87942 -0.877064 0
M  V30 2171 C 208.584 1.79341 0.567314 0
M  V30 2172 O 207.942 1.15184 1.40009 0
M  V30 2173 C 207.99 3.34926 -1.33629 0
M  V30 2174 O 207.094 4.09303 -0.504447 0
M  V30 2175 H 206.435 0.583785 -0.316371 0
M  V30 2176 H 208.965 1.4157 -1.47712 0
M  V30 2177 H 208.975 3.8577 -1.32837 0
M  V30 2178 H 207.65 3.40504 -2.3881 0
M  V30 2179 H 206.227 3.68393 -0.577993 0
M  V30 2180 N 208.412 0.89855 1.29475 0
M  V30 2181 C 209.322 0.379974 2.31502 0
M  V30 2182 C 210.338 -0.524695 1.659 0
M  V30 2183 O 211.514 -0.414551 1.97087 0
M  V30 2184 C 208.579 -0.385138 3.44554 0
M  V30 2185 C 207.64 0.550914 4.2575 0
M  V30 2186 C 206.873 -0.177778 5.33404 0
M  V30 2187 O 207.096 -1.40189 5.52904 0
M  V30 2188 O 206.03 0.479106 5.9999 0
M  V30 2189 H 209.856 1.22639 2.77837 0
M  V30 2190 H 207.441 0.662834 1.33891 0
M  V30 2191 H 209.323 -0.817841 4.13388 0
M  V30 2192 H 207.998 -1.20763 3.0033 0
M  V30 2193 H 206.905 1.03271 3.59564 0
M  V30 2194 H 208.238 1.33979 4.73614 0
M  V30 2195 N 209.89 -1.43072 0.660911 0
M  V30 2196 C 211.167 -1.95307 0.107017 0
M  V30 2197 C 211.547 -1.60192 -1.37484 0
M  V30 2198 O 210.895 -0.890949 -2.10415 0
M  V30 2199 C 211.105 -3.47124 0.361402 0
M  V30 2200 C 212.453 -4.23738 0.270455 0
M  V30 2201 O 213.477 -3.54981 0.294382 0
M  V30 2202 O 212.336 -5.46131 0.200737 0
M  V30 2203 H 209.43 -0.826984 -0.00517729 0
M  V30 2204 H 211.976 -1.52972 0.734681 0
M  V30 2205 H 210.748 -3.65837 1.38848 0
M  V30 2206 H 210.371 -3.96475 -0.298953 0
M  V30 2207 N 211.368 -0.403325 -1.52352 0
M  V30 2208 C 212.315 0.425011 -2.26853 0
M  V30 2209 C 213.285 1.04598 -1.29029 0
M  V30 2210 O 214.47 1.07135 -1.57882 0
M  V30 2211 C 211.61 1.53888 -3.08889 0
M  V30 2212 C 210.723 0.939396 -4.21663 0
M  V30 2213 C 209.858 2.02547 -4.91068 0
M  V30 2214 C 208.897 1.40263 -5.95813 0
M  V30 2215 N 208.034 2.4286 -6.58759 0
M  V30 2216 H 212.874 -0.21674 -2.97211 0
M  V30 2217 H 210.411 -0.118722 -1.4662 0
M  V30 2218 H 212.369 2.19558 -3.54753 0
M  V30 2219 H 210.999 2.15074 -2.40714 0
M  V30 2220 H 210.051 0.171898 -3.80011 0
M  V30 2221 H 211.363 0.44436 -4.96817 0
M  V30 2222 H 210.517 2.75958 -5.40308 0
M  V30 2223 H 209.256 2.55415 -4.15469 0
M  V30 2224 H 208.261 0.653833 -5.45898 0
M  V30 2225 H 209.486 0.881719 -6.73352 0
M  V30 2226 H 207.432 2.94871 -5.85992 0
M  V30 2227 H 207.349 1.98152 -7.2957 0
M  V30 2228 H 208.617 3.15858 -7.12639 0
M  V30 2229 N 212.846 1.57033 -0.133567 0
M  V30 2230 C 214.071 2.00475 0.531477 0
M  V30 2231 C 214.496 1.01291 1.58499 0
M  V30 2232 O 213.854 -0.0133279 1.81295 0
M  V30 2233 C 213.902 3.42729 1.12113 0
M  V30 2234 O 213.006 3.46498 2.23636 0
M  V30 2235 H 212.347 0.650876 0.131362 0
M  V30 2236 H 214.877 2.03344 -0.22634 0
M  V30 2237 H 214.887 3.81246 1.4531 0
M  V30 2238 H 213.562 4.14428 0.349557 0
M  V30 2239 H 212.139 3.19811 1.91769 0
M  V30 2240 N 214.325 -0.140222 1.56975 0
M  V30 2241 C 215.553 -0.866437 1.87884 0
M  V30 2242 C 215.968 -1.74428 0.722517 0
M  V30 2243 O 215.325 -1.79891 -0.30749 0
M  V30 2244 C 215.376 -1.71753 3.18093 0
M  V30 2245 O 215.097 -0.875056 4.29272 0
M  V30 2246 C 216.598 -2.55074 3.62563 0
M  V30 2247 H 213.818 -0.25019 0.622612 0
M  V30 2248 H 216.362 -0.130977 2.0408 0
M  V30 2249 H 214.517 -2.40598 3.03631 0
M  V30 2250 H 214.931 -1.46002 5.03769 0
M  V30 2251 H 216.405 -3.10356 4.5649 0
M  V30 2252 H 216.882 -3.31434 2.88181 0
M  V30 2253 H 217.488 -1.91509 3.79743 0
M  V30 2254 N 215.803 -1.52179 -0.40978 0
M  V30 2255 C 216.735 -1.71703 -1.51825 0
M  V30 2256 C 217.748 -0.597445 -1.51441 0
M  V30 2257 O 218.937 -0.872582 -1.55719 0
M  V30 2258 C 216.037 -1.74171 -2.90719 0
M  V30 2259 C 215.21 -3.03156 -3.15302 0
M  V30 2260 C 214.269 -2.97445 -4.34065 0
M  V30 2261 O 213.295 -3.71352 -4.31377 0
M  V30 2262 N 214.497 -2.15191 -5.39141 0
M  V30 2263 H 217.262 -2.67334 -1.35472 0
M  V30 2264 H 214.823 -1.50409 -0.599069 0
M  V30 2265 H 216.815 -1.67884 -3.68235 0
M  V30 2266 H 215.385 -0.860166 -3.00533 0
M  V30 2267 H 214.605 -3.23097 -2.25836 0
M  V30 2268 H 215.893 -3.88484 -3.28569 0
M  V30 2269 H 215.291 -1.54573 -5.44173 0
M  V30 2270 H 213.848 -2.1476 -6.15403 0
M  V30 2271 N 217.281 0.66697 -1.42791 0
M  V30 2272 C 218.509 1.45505 -1.47091 0
M  V30 2273 C 218.924 1.8861 -0.0845873 0
M  V30 2274 O 218.281 1.58632 0.90234 0
M  V30 2275 C 218.332 2.69906 -2.40485 0
M  V30 2276 O 218.053 2.28608 -3.73725 0
M  V30 2277 C 219.554 3.63396 -2.53886 0
M  V30 2278 H 216.774 0.447459 -0.500022 0
M  V30 2279 H 219.318 0.818866 -1.8739 0
M  V30 2280 H 217.473 3.29696 -2.03419 0
M  V30 2281 H 217.887 3.08997 -4.23817 0
M  V30 2282 H 219.361 4.47387 -3.2334 0
M  V30 2283 H 219.838 4.09824 -1.57927 0
M  V30 2284 H 220.444 3.09495 -2.91706 0
M  V30 2285 N 218.759 1.29093 0.90403 0
M  V30 2286 C 219.987 1.19689 1.68766 0
M  V30 2287 C 220.402 -0.243113 1.87228 0
M  V30 2288 O 219.759 -1.16326 1.40621 0
M  V30 2289 C 219.81 1.90144 3.07453 0
M  V30 2290 O 219.531 3.2852 2.89838 0
M  V30 2291 C 221.032 1.87162 4.01852 0
M  V30 2292 H 218.252 0.415035 0.527244 0
M  V30 2293 H 220.796 1.7039 1.13082 0
M  V30 2294 H 218.951 1.43289 3.59926 0
M  V30 2295 H 219.365 3.63944 3.77684 0
M  V30 2296 H 220.839 2.41032 4.96596 0
M  V30 2297 H 221.316 0.84617 4.30972 0
M  V30 2298 H 221.922 2.33741 3.5531 0
M  V30 2299 N 220.237 -1.11381 1.11499 0
M  V30 2300 C 221.485 -1.8277 0.862524 0
M  V30 2301 C 221.806 -1.85097 -0.613534 0
M  V30 2302 O 221.076 -1.32198 -1.4457 0
M  V30 2303 H 219.656 -0.676823 0.316101 0
M  V30 2304 H 222.318 -1.34816 1.4075 0
M  V30 2305 H 221.414 -2.86614 1.23527 0
M  V30 2306 N 221.715 -0.905404 -1.28997 0
M  V30 2307 C 223.131 -0.60233 -1.47798 0
M  V30 2308 C 223.331 0.854645 -1.82478 0
M  V30 2309 O 222.387 1.63439 -1.92468 0
M  V30 2310 C 223.7 -1.53306 -2.58685 0
M  V30 2311 C 225.248 -1.53887 -2.72558 0
M  V30 2312 C 225.723 -2.45602 -3.86579 0
M  V30 2313 N 227.214 -2.43681 -3.93921 0
M  V30 2314 C 227.949 -3.11347 -4.81509 0
M  V30 2315 N 227.445 -3.88313 -5.73746 0
M  V30 2316 N 229.238 -3.00476 -4.75048 0
M  V30 2317 H 221.389 -1.84765 -1.04764 0
M  V30 2318 H 223.652 -0.792025 -0.520961 0
M  V30 2319 H 223.358 -2.57141 -2.39941 0
M  V30 2320 H 223.232 -1.25787 -3.55609 0
M  V30 2321 H 225.619 -0.507941 -2.90696 0
M  V30 2322 H 225.7 -1.85447 -1.76191 0
M  V30 2323 H 225.344 -3.48792 -3.69197 0
M  V30 2324 H 225.274 -2.11349 -4.82327 0
M  V30 2325 H 227.765 -1.87767 -3.27951 0
M  V30 2326 H 228.078 -4.36985 -6.37389 0
M  V30 2327 H 226.423 -3.92419 -5.73614 0
M  V30 2328 H 229.614 -2.39858 -4.01977 0
M  V30 2329 H 229.787 -3.53485 -5.43095 0
M  V30 2330 N 223.193 1.4272 -0.668489 0
M  V30 2331 C 224.103 2.34596 0.0139753 0
M  V30 2332 C 225.119 1.5474 0.795703 0
M  V30 2333 O 226.295 1.87334 0.739466 0
M  V30 2334 C 223.36 3.33202 0.957982 0
M  V30 2335 C 222.421 4.28957 0.17149 0
M  V30 2336 C 221.654 5.22853 1.07053 0
M  V30 2337 O 221.877 5.21531 2.31001 0
M  V30 2338 O 220.811 5.9952 0.534727 0
M  V30 2339 H 224.637 2.9448 -0.742661 0
M  V30 2340 H 222.222 1.43117 -0.428705 0
M  V30 2341 H 224.104 3.93796 1.50008 0
M  V30 2342 H 222.779 2.758 1.69458 0
M  V30 2343 H 221.686 3.71796 -0.414558 0
M  V30 2344 H 223.019 4.89383 -0.52586 0
M  V30 2345 N 224.671 0.411399 1.52136 0
M  V30 2346 C 225.601 -0.404015 2.29978 0
M  V30 2347 C 226.582 -1.04412 1.34284 0
M  V30 2348 O 227.767 -1.0527 1.63192 0
M  V30 2349 C 224.897 -1.5197 3.12286 0
M  V30 2350 C 223.851 -1.00448 4.16046 0
M  V30 2351 C 223.177 -2.21393 4.86712 0
M  V30 2352 C 224.477 -0.0569336 5.22269 0
M  V30 2353 H 226.171 0.245529 2.98392 0
M  V30 2354 H 223.717 0.119525 1.43503 0
M  V30 2355 H 225.67 -2.09715 3.6551 0
M  V30 2356 H 224.394 -2.19716 2.41646 0
M  V30 2357 H 223.053 -0.449421 3.63835 0
M  V30 2358 H 222.701 -2.87699 4.12599 0
M  V30 2359 H 222.401 -1.87571 5.56858 0
M  V30 2360 H 223.925 -2.7974 5.4275 0
M  V30 2361 H 225.339 -0.54325 5.7072 0
M  V30 2362 H 223.736 0.192594 5.99791 0
M  V30 2363 H 224.806 0.887663 4.76706 0
M  V30 2364 N 226.149 -1.5696 0.141893 0
M  V30 2365 C 227.096 -2.16501 -0.799737 0
M  V30 2366 C 228.066 -1.09643 -1.24771 0
M  V30 2367 O 229.251 -1.3766 -1.32115 0
M  V30 2368 C 226.391 -2.78679 -2.03549 0
M  V30 2369 C 225.504 -3.99914 -1.6338 0
M  V30 2370 C 224.639 -4.50106 -2.82096 0
M  V30 2371 C 223.678 -5.63819 -2.38275 0
M  V30 2372 N 222.815 -6.08651 -3.49983 0
M  V30 2373 H 227.655 -2.96632 -0.285179 0
M  V30 2374 H 225.192 -1.46533 -0.129053 0
M  V30 2375 H 227.15 -3.1287 -2.75986 0
M  V30 2376 H 225.78 -2.012 -2.52425 0
M  V30 2377 H 224.832 -3.71735 -0.807279 0
M  V30 2378 H 226.144 -4.82311 -1.27192 0
M  V30 2379 H 225.298 -4.86325 -3.62729 0
M  V30 2380 H 224.037 -3.66706 -3.21525 0
M  V30 2381 H 223.042 -5.2718 -1.56081 0
M  V30 2382 H 224.267 -6.49 -1.99938 0
M  V30 2383 H 222.213 -5.28188 -3.89042 0
M  V30 2384 H 222.13 -6.85961 -3.17794 0
M  V30 2385 H 223.398 -6.49515 -4.30988 0
M  V30 2386 N 227.627 0.131896 -1.57047 0
M  V30 2387 C 228.574 1.16236 -1.99393 0
M  V30 2388 C 229.544 1.41863 -0.863943 0
M  V30 2389 O 230.729 1.53946 -1.12718 0
M  V30 2390 C 227.869 2.48708 -2.39245 0
M  V30 2391 C 226.982 2.30127 -3.65603 0
M  V30 2392 C 226.117 3.55738 -3.94492 0
M  V30 2393 C 225.156 3.32259 -5.14073 0
M  V30 2394 N 224.293 4.50039 -5.38896 0
M  V30 2395 H 229.133 0.794251 -2.87221 0
M  V30 2396 H 226.67 0.380707 -1.42088 0
M  V30 2397 H 228.628 3.25969 -2.60384 0
M  V30 2398 H 227.258 2.83437 -1.54478 0
M  V30 2399 H 226.31 1.43845 -3.52154 0
M  V30 2400 H 227.622 2.08746 -4.5302 0
M  V30 2401 H 226.776 4.41423 -4.1621 0
M  V30 2402 H 225.515 3.80138 -3.05526 0
M  V30 2403 H 224.52 2.44963 -4.92212 0
M  V30 2404 H 225.745 3.09242 -6.04604 0
M  V30 2405 H 223.691 4.74584 -4.52886 0
M  V30 2406 H 223.608 4.31716 -6.2061 0
M  V30 2407 H 224.876 5.36895 -5.65123 0
M  V30 2408 N 229.106 1.52395 0.401703 0
M  V30 2409 C 230.016 1.7917 1.51444 0
M  V30 2410 C 231.032 0.677691 1.6026 0
M  V30 2411 O 232.208 0.963909 1.76835 0
M  V30 2412 C 229.273 1.94347 2.87107 0
M  V30 2413 C 228.334 3.18257 2.88116 0
M  V30 2414 C 227.567 3.32701 4.17308 0
M  V30 2415 O 227.79 2.52238 5.11598 0
M  V30 2416 O 226.724 4.25891 4.25324 0
M  V30 2417 H 230.55 2.73633 1.31752 0
M  V30 2418 H 228.135 1.3733 0.588296 0
M  V30 2419 H 230.017 2.06109 3.67555 0
M  V30 2420 H 228.692 1.03073 3.06851 0
M  V30 2421 H 227.599 3.11947 2.06494 0
M  V30 2422 H 228.932 4.09336 2.73322 0
M  V30 2423 N 230.584 -0.659388 1.43143 0
M  V30 2424 C 231.812 -1.44723 1.47861 0
M  V30 2425 C 232.227 -1.88563 0.0945886 0
M  V30 2426 O 231.584 -1.59108 -0.893915 0
M  V30 2427 C 231.635 -2.68627 2.41913 0
M  V30 2428 O 231.356 -2.26623 3.74932 0
M  V30 2429 C 232.857 -3.62045 2.55809 0
M  V30 2430 H 230.077 -0.444801 0.502387 0
M  V30 2431 H 232.621 -0.808916 1.87821 0
M  V30 2432 H 230.776 -3.28613 2.05164 0
M  V30 2433 H 231.19 -3.06745 4.2545 0
M  V30 2434 H 232.664 -4.45666 3.25708 0
M  V30 2435 H 233.141 -4.08981 1.60099 0
M  V30 2436 H 233.747 -3.07944 2.93344 0
M  V30 2437 N 232.062 -1.29571 -0.897171 0
M  V30 2438 C 233.29 -1.20583 -1.68129 0
M  V30 2439 C 233.705 0.233181 -1.87354 0
M  V30 2440 O 233.062 1.15579 -1.41236 0
M  V30 2441 C 233.113 -1.91772 -3.06441 0
M  V30 2442 O 232.834 -3.30053 -2.88091 0
M  V30 2443 C 234.335 -1.89291 -4.00854 0
M  V30 2444 H 231.555 -0.417826 -0.525036 0
M  V30 2445 H 234.099 -1.70987 -1.12177 0
M  V30 2446 H 232.254 -1.45196 -3.59161 0
M  V30 2447 H 232.668 -3.65942 -3.75748 0
M  V30 2448 H 234.142 -2.43662 -4.95311 0
M  V30 2449 H 234.619 -0.869014 -4.30517 0
M  V30 2450 H 235.225 -2.35622 -3.54066 0
M  V30 2451 N 233.54 1.10788 -1.12088 0
M  V30 2452 C 234.951 1.64181 -0.88891 0
M  V30 2453 C 235.302 1.87508 0.577498 0
M  V30 2454 O 234.427 1.61434 1.44112 0
M  V30 2455 C 235.022 2.98257 -1.60712 0
M  V30 2456 C 233.581 3.4853 -1.42139 0
M  V30 2457 C 232.728 2.23208 -1.6454 0
M  V30 2458 H 235.679 0.943368 -1.27618 0
M  V30 2459 H 235.7 3.65552 -1.05604 0
M  V30 2460 H 235.212 2.81246 -2.67436 0
M  V30 2461 H 233.313 3.70692 -0.376552 0
M  V30 2462 H 233.426 4.26882 -2.17505 0
M  V30 2463 H 231.79 2.31169 -1.06925 0
M  V30 2464 H 232.573 2.08733 -2.72554 0
M  V30 2465 N 235.018 0.912232 1.28515 0
M  V30 2466 C 236.246 0.560416 1.99166 0
M  V30 2467 C 236.661 -0.857927 1.68182 0
M  V30 2468 O 236.018 -1.56805 0.933733 0
M  V30 2469 C 236.069 0.758142 3.53461 0
M  V30 2470 O 235.79 2.12067 3.83352 0
M  V30 2471 C 237.291 0.412954 4.41372 0
M  V30 2472 H 234.511 0.213805 0.636026 0
M  V30 2473 H 237.055 1.22502 1.63749 0
M  V30 2474 H 235.21 0.140556 3.87145 0
M  V30 2475 H 235.624 2.15923 4.77993 0
M  V30 2476 H 237.098 0.60208 5.48707 0
M  V30 2477 H 237.575 -0.65073 4.34353 0
M  V30 2478 H 238.181 1.00802 4.13182 0
M  V30 2479 N 236.496 -1.42363 0.676048 0
M  V30 2480 C 237.907 -1.84649 0.275948 0
M  V30 2481 C 238.258 -1.56588 -1.18214 0
M  V30 2482 O 237.383 -1.02634 -1.90513 0
M  V30 2483 C 237.978 -3.35178 0.494053 0
M  V30 2484 C 236.537 -3.76109 0.148061 0
M  V30 2485 C 235.684 -2.65931 0.785891 0
M  V30 2486 H 238.635 -1.32192 0.878121 0
M  V30 2487 H 238.656 -3.79655 -0.25343 0
M  V30 2488 H 238.168 -3.55571 1.55535 0
M  V30 2489 H 236.269 -3.61323 -0.909742 0
M  V30 2490 H 236.382 -4.7546 0.589454 0
M  V30 2491 H 234.746 -2.53773 0.217113 0
M  V30 2492 H 235.529 -2.89146 1.85067 0
M  V30 2493 N 237.974 -0.419461 -1.51915 0
M  V30 2494 C 239.199 0.154572 -2.06823 0
M  V30 2495 C 239.624 1.3722 -1.28656 0
M  V30 2496 O 238.982 1.78461 -0.319583 0
M  V30 2497 C 239.03 0.473172 -3.57482 0
M  V30 2498 O 238.134 1.56255 -3.81652 0
M  V30 2499 H 237.475 0.0096924 -0.663929 0
M  V30 2500 H 240.005 -0.595642 -1.95738 0
M  V30 2501 H 240.015 0.728825 -4.01438 0
M  V30 2502 H 238.69 -0.416873 -4.13805 0
M  V30 2503 H 237.267 1.29825 -3.49571 0
M  V30 2504 N 239.452 1.56882 -0.150215 0
M  V30 2505 C 240.384 2.14057 0.819286 0
M  V30 2506 C 241.397 1.09082 1.20851 0
M  V30 2507 O 242.586 1.36347 1.15203 0
M  V30 2508 C 239.686 2.65102 2.11127 0
M  V30 2509 C 238.859 3.94511 1.88891 0
M  V30 2510 C 237.918 4.30834 3.02107 0
M  V30 2511 O 236.944 4.99099 2.73659 0
M  V30 2512 N 238.146 3.90676 4.29363 0
M  V30 2513 H 240.911 2.97871 0.330618 0
M  V30 2514 H 238.472 1.61866 0.0332538 0
M  V30 2515 H 240.464 2.86411 2.85921 0
M  V30 2516 H 239.034 1.85994 2.51247 0
M  V30 2517 H 238.254 3.81795 0.981152 0
M  V30 2518 H 239.542 4.7907 1.71376 0
M  V30 2519 H 238.94 3.35677 4.55343 0
M  V30 2520 H 237.497 4.1703 5.00928 0
M  V30 2521 N 240.93 -0.123565 1.57115 0
M  V30 2522 C 242.346 -0.476961 1.52306 0
M  V30 2523 C 242.546 -1.82109 0.86248 0
M  V30 2524 O 241.602 -2.48586 0.442884 0
M  V30 2525 C 242.915 -0.465661 2.97073 0
M  V30 2526 C 244.463 -0.549534 3.08138 0
M  V30 2527 C 244.938 -0.568669 4.54456 0
M  V30 2528 N 246.429 -0.630237 4.58892 0
M  V30 2529 C 247.164 -0.666415 5.69514 0
M  V30 2530 N 246.66 -0.660514 6.89644 0
M  V30 2531 N 248.453 -0.709077 5.5761 0
M  V30 2532 H 240.604 0.757198 1.98445 0
M  V30 2533 H 242.867 0.278808 0.906074 0
M  V30 2534 H 242.573 0.454232 3.48754 0
M  V30 2535 H 242.447 -1.29513 3.54269 0
M  V30 2536 H 244.834 -1.45985 2.56461 0
M  V30 2537 H 244.915 0.307532 2.53945 0
M  V30 2538 H 244.559 0.337581 5.06777 0
M  V30 2539 H 244.489 -1.44256 5.06456 0
M  V30 2540 H 246.98 -0.641146 3.72421 0
M  V30 2541 H 247.293 -0.690616 7.69708 0
M  V30 2542 H 245.638 -0.628012 6.92157 0
M  V30 2543 H 248.829 -0.711019 4.62668 0
M  V30 2544 H 249.002 -0.733804 6.43832 0
M  V30 2545 N 242.408 -1.52605 -0.393616 0
M  V30 2546 C 243.318 -1.79971 -1.50492 0
M  V30 2547 C 244.334 -0.686181 -1.59899 0
M  V30 2548 O 245.51 -0.973274 -1.76322 0
M  V30 2549 C 242.575 -1.95867 -2.86072 0
M  V30 2550 C 241.636 -3.19781 -2.86424 0
M  V30 2551 C 240.869 -3.34909 -4.15538 0
M  V30 2552 O 241.092 -2.54948 -5.10253 0
M  V30 2553 O 240.026 -4.28141 -4.23059 0
M  V30 2554 H 243.852 -2.74328 -1.30299 0
M  V30 2555 H 241.437 -1.3764 -0.581005 0
M  V30 2556 H 243.319 -2.08056 -3.66457 0
M  V30 2557 H 241.994 -1.04699 -3.063 0
M  V30 2558 H 240.901 -3.13038 -2.04837 0
M  V30 2559 H 242.234 -4.1078 -2.71147 0
M  V30 2560 N 243.887 0.651787 -1.4349 0
M  V30 2561 C 245.112 1.44434 -1.48841 0
M  V30 2562 C 245.537 1.8779 -0.107955 0
M  V30 2563 O 244.895 1.57464 0.898602 0
M  V30 2564 C 244.943 2.65458 -2.44059 0
M  V30 2565 O 244.047 3.64566 -1.92784 0
M  V30 2566 H 243.388 0.433005 -0.503391 0
M  V30 2567 H 245.918 0.797451 -1.88419 0
M  V30 2568 H 245.928 3.13255 -2.6141 0
M  V30 2569 H 244.603 2.33244 -3.4434 0
M  V30 2570 H 243.18 3.23716 -1.851 0
M  V30 2571 N 245.365 1.30045 0.890287 0
M  V30 2572 C 246.297 1.11786 2.00091 0
M  V30 2573 C 247.31 0.0626307 1.62679 0
M  V30 2574 O 248.499 0.308112 1.75821 0
M  V30 2575 C 245.599 0.681527 3.31977 0
M  V30 2576 C 244.772 1.81735 3.97858 0
M  V30 2577 C 243.831 1.37045 5.08041 0
M  V30 2578 O 242.857 2.07677 5.29961 0
M  V30 2579 N 244.059 0.246525 5.79976 0
M  V30 2580 H 246.824 2.07441 2.16306 0
M  V30 2581 H 244.385 1.2211 1.06305 0
M  V30 2582 H 246.377 0.365675 4.03045 0
M  V30 2583 H 244.947 -0.182828 3.12065 0
M  V30 2584 H 244.167 2.30159 3.20032 0
M  V30 2585 H 245.455 2.57865 4.38615 0
M  V30 2586 H 244.853 -0.34215 5.64664 0
M  V30 2587 H 243.41 -0.00990438 6.51799 0
M  V30 2588 N 246.843 -1.10192 1.12674 0
M  V30 2589 C 248.068 -1.86523 0.906853 0
M  V30 2590 C 248.493 -1.80221 -0.538711 0
M  V30 2591 O 247.851 -1.17396 -1.38158 0
M  V30 2592 C 247.899 -3.32758 1.3894 0
M  V30 2593 O 247.003 -4.08449 0.5695 0
M  V30 2594 H 246.344 -0.578678 0.325619 0
M  V30 2595 H 248.874 -1.39203 1.49946 0
M  V30 2596 H 248.884 -3.83608 1.38958 0
M  V30 2597 H 247.559 -3.36661 2.44197 0
M  V30 2598 H 246.136 -3.67427 0.636528 0
M  V30 2599 N 248.321 -0.919034 -1.28029 0
M  V30 2600 C 249.546 -0.570357 -1.99403 0
M  V30 2601 C 249.971 0.842486 -1.68178 0
M  V30 2602 O 249.329 1.56391 -0.917141 0
M  V30 2603 C 249.377 -0.792541 -3.51783 0
M  V30 2604 O 248.481 0.145988 -4.12142 0
M  V30 2605 H 247.822 -0.220555 -0.6263 0
M  V30 2606 H 250.352 -1.23592 -1.63053 0
M  V30 2607 H 250.362 -0.704708 -4.01868 0
M  V30 2608 H 249.037 -1.82247 -3.73844 0
M  V30 2609 H 247.614 0.00897528 -3.72899 0
M  V30 2610 N 249.799 1.42003 -0.683588 0
M  V30 2611 C 250.746 2.30798 -0.0107309 0
M  V30 2612 C 251.716 1.4645 0.783688 0
M  V30 2613 O 252.901 1.75263 0.754156 0
M  V30 2614 C 250.041 3.3238 0.928306 0
M  V30 2615 C 249.154 4.31814 0.126776 0
M  V30 2616 C 248.289 5.20468 1.06236 0
M  V30 2617 C 247.328 6.11577 0.253035 0
M  V30 2618 N 246.465 6.92754 1.14179 0
M  V30 2619 H 251.305 2.8778 -0.773727 0
M  V30 2620 H 248.842 1.41745 -0.393283 0
M  V30 2621 H 250.8 3.89813 1.48666 0
M  V30 2622 H 249.43 2.76976 1.65783 0
M  V30 2623 H 248.482 3.76427 -0.54833 0
M  V30 2624 H 249.794 4.96276 -0.501192 0
M  V30 2625 H 248.948 5.82677 1.69035 0
M  V30 2626 H 247.687 4.56204 1.7242 0
M  V30 2627 H 246.692 5.48428 -0.388108 0
M  V30 2628 H 247.917 6.77892 -0.404839 0
M  V30 2629 H 245.863 6.3111 1.78987 0
M  V30 2630 H 245.78 7.53855 0.569111 0
M  V30 2631 H 247.048 7.59441 1.75697 0
M  V30 2632 N 251.277 0.427512 1.51691 0
M  V30 2633 C 252.24 -0.377132 2.26076 0
M  V30 2634 C 253.24 -0.958089 1.29141 0
M  V30 2635 O 254.43 -0.83408 1.52934 0
M  V30 2636 C 251.562 -1.53262 3.04506 0
M  V30 2637 H 252.755 0.27464 2.9864 0
M  V30 2638 H 250.308 0.180445 1.55255 0
M  V30 2639 H 251.043 -2.22072 2.36335 0
M  V30 2640 H 250.828 -1.12232 3.75694 0
M  V30 2641 H 252.318 -2.10135 3.60878 0
M  V30 2642 N 252.755 -1.56801 0.158532 0
M  V30 2643 C 254.171 -1.5837 -0.197774 0
M  V30 2644 C 254.371 -1.17334 -1.63814 0
M  V30 2645 O 253.427 -0.878988 -2.36707 0
M  V30 2646 C 254.74 -3.00615 0.0714459 0
M  V30 2647 C 256.288 -3.12999 0.00864533 0
M  V30 2648 C 256.763 -4.57313 0.250685 0
M  V30 2649 N 258.254 -4.62777 0.198014 0
M  V30 2650 C 258.989 -5.72271 0.359642 0
M  V30 2651 N 258.485 -6.90371 0.579625 0
M  V30 2652 N 260.278 -5.61318 0.296438 0
M  V30 2653 H 252.429 -1.81765 1.09887 0
M  V30 2654 H 254.692 -0.841849 0.435884 0
M  V30 2655 H 254.398 -3.35068 1.06874 0
M  V30 2656 H 254.272 -3.71683 -0.642757 0
M  V30 2657 H 256.659 -2.7838 -0.979217 0
M  V30 2658 H 256.74 -2.44393 0.755359 0
M  V30 2659 H 256.384 -4.92639 1.2357 0
M  V30 2660 H 256.314 -5.24061 -0.516489 0
M  V30 2661 H 258.805 -3.77885 0.0331115 0
M  V30 2662 H 259.118 -7.69689 0.69275 0
M  V30 2663 H 257.463 -6.92264 0.616087 0
M  V30 2664 H 260.654 -4.67932 0.125258 0
M  V30 2665 H 260.827 -6.46599 0.425831 0
M  V30 2666 N 254.233 0.115231 -1.57178 0
M  V30 2667 C 255.166 1.17166 -1.95825 0
M  V30 2668 C 256.144 1.39912 -0.828463 0
M  V30 2669 O 257.328 1.54004 -1.08697 0
M  V30 2670 C 254.455 2.52478 -2.25771 0
M  V30 2671 C 253.501 2.46136 -3.48309 0
M  V30 2672 S 254.334 1.89736 -5.0076 0
M  V30 2673 C 255.49 3.26713 -5.33863 0
M  V30 2674 H 255.723 0.842103 -2.85124 0
M  V30 2675 H 253.256 0.322136 -1.51002 0
M  V30 2676 H 255.214 3.30332 -2.43702 0
M  V30 2677 H 253.875 2.82609 -1.37079 0
M  V30 2678 H 253.068 3.45819 -3.66641 0
M  V30 2679 H 252.67 1.76404 -3.29784 0
M  V30 2680 H 254.962 4.22935 -5.29275 0
M  V30 2681 H 255.905 3.13205 -6.35065 0
M  V30 2682 H 256.313 3.25316 -4.61335 0
M  V30 2683 N 255.711 1.52812 0.385517 0
M  V30 2684 C 256.674 1.77188 1.45386 0
M  V30 2685 C 257.674 0.641953 1.4743 0
M  V30 2686 O 258.864 0.910033 1.4854 0
M  V30 2687 C 255.996 1.87582 2.8465 0
M  V30 2688 H 257.189 2.72583 1.25054 0
M  V30 2689 H 254.742 1.43586 0.617467 0
M  V30 2690 H 255.477 0.941849 3.10322 0
M  V30 2691 H 255.262 2.69748 2.84567 0
M  V30 2692 H 256.752 2.08102 3.62054 0
M  V30 2693 N 257.189 -0.644168 1.43834 0
M  V30 2694 C 258.152 -1.73857 1.49353 0
M  V30 2695 C 259.152 -1.56315 0.377112 0
M  V30 2696 O 260.342 -1.62048 0.639226 0
M  V30 2697 C 257.474 -3.12819 1.35488 0
M  V30 2698 H 258.667 -1.70342 2.46827 0
M  V30 2699 H 256.22 -0.856652 1.30733 0
M  V30 2700 H 256.955 -3.2194 0.390569 0
M  V30 2701 H 256.74 -3.26958 2.16428 0
M  V30 2702 H 258.23 -3.92606 1.42302 0
M  V30 2703 N 258.668 -1.30515 -0.883378 0
M  V30 2704 C 259.6 -1.12846 -1.99496 0
M  V30 2705 C 260.613 -0.0712571 -1.62644 0
M  V30 2706 O 261.802 -0.317432 -1.75655 0
M  V30 2707 C 258.902 -0.699123 -3.3161 0
M  V30 2708 C 258.075 -1.83842 -3.96889 0
M  V30 2709 C 257.134 -1.39737 -5.07307 0
M  V30 2710 O 256.16 -2.10485 -5.28852 0
M  V30 2711 N 257.362 -0.277279 -5.79837 0
M  V30 2712 H 260.127 -2.08585 -2.15203 0
M  V30 2713 H 257.688 -1.22672 -1.05656 0
M  V30 2714 H 259.68 -0.387044 -4.02845 0
M  V30 2715 H 258.25 0.166276 -3.12157 0
M  V30 2716 H 257.47 -2.31853 -3.18807 0
M  V30 2717 H 258.758 -2.60187 -4.37241 0
M  V30 2718 H 258.156 0.3122 -5.64838 0
M  V30 2719 H 256.713 -0.0246623 -6.51795 0
M  V30 2720 N 260.146 1.09593 -1.13257 0
M  V30 2721 C 261.374 1.855 -0.916378 0
M  V30 2722 C 261.789 1.81069 0.534738 0
M  V30 2723 O 261.146 1.20562 1.37007 0
M  V30 2724 C 261.197 3.33546 -1.39388 0
M  V30 2725 O 260.918 3.37927 -2.78813 0
M  V30 2726 C 262.419 4.26299 -1.21588 0
M  V30 2727 H 259.639 0.585991 -0.326887 0
M  V30 2728 H 262.183 1.38488 -1.5047 0
M  V30 2729 H 260.338 3.77992 -0.848597 0
M  V30 2730 H 260.752 4.30254 -2.9997 0
M  V30 2731 H 262.226 5.28341 -1.59876 0
M  V30 2732 H 262.703 4.38918 -0.157376 0
M  V30 2733 H 263.309 3.87668 -1.7491 0
M  V30 2734 N 261.624 0.925811 1.2754 0
M  V30 2735 C 262.587 0.428129 2.25166 0
M  V30 2736 C 263.587 -0.452261 1.54309 0
M  V30 2737 O 264.777 -0.253608 1.72344 0
M  V30 2738 C 261.909 -0.384749 3.38722 0
M  V30 2739 H 263.102 1.29066 2.70706 0
M  V30 2740 H 260.655 0.706323 1.3943 0
M  V30 2741 H 261.39 -1.26618 2.98561 0
M  V30 2742 H 261.175 0.246454 3.91325 0
M  V30 2743 H 262.665 -0.723389 4.11287 0
M  V30 2744 N 263.102 -1.41638 0.69111 0
M  V30 2745 C 264.327 -2.06148 0.227583 0
M  V30 2746 C 264.752 -1.51652 -1.11281 0
M  V30 2747 O 264.11 -0.64164 -1.69566 0
M  V30 2748 C 264.158 -3.60095 0.190858 0
M  V30 2749 O 263.262 -4.03845 -0.835664 0
M  V30 2750 H 262.603 -0.654434 0.112306 0
M  V30 2751 H 265.133 -1.81484 0.944714 0
M  V30 2752 H 265.143 -4.07995 0.020207 0
M  V30 2753 H 263.818 -3.99129 1.16915 0
M  V30 2754 H 262.395 -3.67458 -0.63473 0
M  V30 2755 N 264.58 -0.43555 -1.51462 0
M  V30 2756 C 265.828 0.131254 -2.01673 0
M  V30 2757 C 266.149 1.43368 -1.32177 0
M  V30 2758 O 265.419 1.90524 -0.455769 0
M  V30 2759 H 263.999 0.0514954 -0.745223 0
M  V30 2760 H 266.661 -0.577847 -1.86137 0
M  V30 2761 H 265.757 0.308446 -3.10572 0
M  V30 2762 N 266.058 1.56714 -0.166846 0
M  V30 2763 C 267.469 1.83378 0.350646 0
M  V30 2764 C 267.82 1.08646 1.63372 0
M  V30 2765 O 266.945 0.338058 2.13743 0
M  V30 2766 C 267.54 3.32643 0.642963 0
M  V30 2767 C 266.099 3.59818 1.10491 0
M  V30 2768 C 265.246 2.76954 0.138411 0
M  V30 2769 H 268.197 1.53803 -0.391193 0
M  V30 2770 H 268.218 3.49878 1.49551 0
M  V30 2771 H 267.73 3.87007 -0.291055 0
M  V30 2772 H 265.831 3.1086 2.05418 0
M  V30 2773 H 265.944 4.68178 1.01716 0
M  V30 2774 H 264.308 2.4666 0.634911 0
M  V30 2775 H 265.091 3.34097 -0.789549 0
M  V30 2776 N 267.536 -0.106894 1.57237 0
M  V30 2777 C 268.947 -0.662723 1.74542 0
M  V30 2778 C 269.298 -1.7971 0.787319 0
M  V30 2779 O 268.423 -2.16368 -0.0369636 0
M  V30 2780 C 269.018 -1.20896 3.16496 0
M  V30 2781 C 267.577 -1.71096 3.35266 0
M  V30 2782 C 266.724 -0.615642 2.7038 0
M  V30 2783 H 269.675 0.119106 1.58252 0
M  V30 2784 H 269.696 -2.07847 3.18716 0
M  V30 2785 H 269.208 -0.383122 3.86204 0
M  V30 2786 H 267.309 -2.56119 2.70618 0
M  V30 2787 H 267.422 -1.81208 4.43509 0
M  V30 2788 H 265.786 -1.05222 2.31949 0
M  V30 2789 H 266.569 0.199419 3.4272 0
M  V30 2790 N 269.014 -1.53014 -0.377408 0
M  V30 2791 C 269.977 -1.77957 -1.44444 0
M  V30 2792 C 270.977 -0.649763 -1.47087 0
M  V30 2793 O 272.167 -0.917897 -1.48055 0
M  V30 2794 C 269.299 -1.89089 -2.83651 0
M  V30 2795 H 270.492 -2.73243 -1.23606 0
M  V30 2796 H 268.045 -1.43912 -0.609844 0
M  V30 2797 H 268.78 -0.958293 -3.09818 0
M  V30 2798 H 268.565 -2.71254 -2.83132 0
M  V30 2799 H 270.055 -2.1002 -3.60945 0
M  V30 2800 N 270.492 0.636531 -1.44174 0
M  V30 2801 C 271.422 1.76003 -1.53444 0
M  V30 2802 C 272.403 1.65619 -0.387841 0
M  V30 2803 O 273.588 1.84461 -0.607257 0
M  V30 2804 C 270.718 3.14511 -1.4731 0
M  V30 2805 C 269.672 3.39677 -2.60391 0
M  V30 2806 C 268.998 4.78159 -2.39308 0
M  V30 2807 C 270.298 3.32772 -4.02567 0
M  V30 2808 H 271.992 1.68501 -2.47483 0
M  V30 2809 H 269.538 0.809237 -1.19111 0
M  V30 2810 H 271.491 3.92878 -1.52397 0
M  V30 2811 H 270.215 3.22783 -0.49785 0
M  V30 2812 H 268.874 2.63688 -2.54684 0
M  V30 2813 H 268.522 4.83128 -1.39988 0
M  V30 2814 H 268.222 4.95956 -3.15122 0
M  V30 2815 H 269.746 5.58762 -2.46205 0
M  V30 2816 H 271.16 4.01051 -4.09672 0
M  V30 2817 H 269.557 3.62104 -4.7854 0
M  V30 2818 H 270.627 2.30669 -4.2652 0
M  V30 2819 N 271.97 1.30982 0.876444 0
M  V30 2820 C 272.88 1.2003 2.01569 0
M  V30 2821 C 273.896 0.11838 1.73597 0
M  V30 2822 O 275.072 0.33495 1.98595 0
M  V30 2823 C 272.137 0.901637 3.34771 0
M  V30 2824 C 271.198 2.06979 3.76109 0
M  V30 2825 C 270.431 1.78529 5.02954 0
M  V30 2826 O 270.654 0.717296 5.65872 0
M  V30 2827 O 269.588 2.64019 5.40905 0
M  V30 2828 H 273.414 2.15753 2.13739 0
M  V30 2829 H 270.999 1.10658 1.00375 0
M  V30 2830 H 272.881 0.750645 4.1466 0
M  V30 2831 H 271.556 -0.0256141 3.2369 0
M  V30 2832 H 270.463 2.27616 2.96887 0
M  V30 2833 H 271.796 2.97907 3.91807 0
M  V30 2834 N 273.449 -1.08991 1.13837 0
M  V30 2835 C 274.695 -1.81699 0.91417 0
M  V30 2836 C 275.05 -1.84264 -0.553594 0
M  V30 2837 O 274.343 -1.30313 -1.4046 0
M  V30 2838 C 274.537 -3.27042 1.44147 0
M  V30 2839 C 274.366 -3.38637 2.95897 0
M  V30 2840 C 273.136 -3.50177 3.64286 0
M  V30 2841 C 275.334 -3.30791 3.93804 0
M  V30 2842 N 273.316 -3.50501 5.04006 0
M  V30 2843 C 274.687 -3.38037 5.19741 0
M  V30 2844 C 276.742 -3.14488 3.86007 0
M  V30 2845 C 275.445 -3.30659 6.38793 0
M  V30 2846 C 277.471 -3.08438 5.04599 0
M  V30 2847 C 276.833 -3.1628 6.29402 0
M  V30 2848 H 272.932 -0.678967 0.387979 0
M  V30 2849 H 275.516 -1.30224 1.4474 0
M  V30 2850 H 273.687 -3.76976 0.935091 0
M  V30 2851 H 275.419 -3.87785 1.1578 0
M  V30 2852 H 272.174 -3.53815 3.1482 0
M  V30 2853 H 272.598 -3.54236 5.76928 0
M  V30 2854 H 277.24 -3.07291 2.90399 0
M  V30 2855 H 274.958 -3.36618 7.34652 0
M  V30 2856 H 278.544 -2.96952 5.0031 0
M  V30 2857 H 277.424 -3.1162 7.19627 0
M  V30 2858 N 274.927 -0.932562 -1.27047 0
M  V30 2859 C 276.152 -0.591474 -1.98787 0
M  V30 2860 C 276.577 0.824601 -1.69062 0
M  V30 2861 O 275.935 1.5541 -0.933677 0
M  V30 2862 C 275.983 -0.829808 -3.50922 0
M  V30 2863 O 275.087 0.102266 -4.12273 0
M  V30 2864 H 274.428 -0.227185 -0.623926 0
M  V30 2865 H 276.958 -1.25314 -1.61733 0
M  V30 2866 H 276.968 -0.747292 -4.01098 0
M  V30 2867 H 275.643 -1.86201 -3.7189 0
M  V30 2868 H 274.22 -0.0305761 -3.72887 0
M  V30 2869 N 276.405 1.4127 -0.698611 0
M  V30 2870 C 277.368 2.29158 -0.044132 0
M  V30 2871 C 278.368 1.44529 0.704841 0
M  V30 2872 O 279.558 1.65643 0.539276 0
M  V30 2873 C 276.69 3.27459 0.947809 0
M  V30 2874 H 277.883 2.88529 -0.817994 0
M  V30 2875 H 275.436 1.49307 -0.46228 0
M  V30 2876 H 276.171 2.73073 1.74933 0
M  V30 2877 H 275.956 3.8991 0.41385 0
M  V30 2878 H 277.446 3.93311 1.40344 0
M  V30 2879 N 277.883 0.443576 1.51229 0
M  V30 2880 C 279.111 -0.11929 2.06556 0
M  V30 2881 C 279.526 -1.35921 1.31038 0
M  V30 2882 O 278.883 -1.78675 0.371704 0
M  V30 2883 C 278.934 -0.435228 3.5887 0
M  V30 2884 O 278.655 0.755486 4.31537 0
M  V30 2885 C 280.156 -1.04808 4.30732 0
M  V30 2886 H 277.376 -0.0051584 0.67098 0
M  V30 2887 H 279.92 0.624453 1.94733 0
M  V30 2888 H 278.075 -1.12887 3.70588 0
M  V30 2889 H 278.489 0.483491 5.22267 0
M  V30 2890 H 279.963 -1.2191 5.3837 0
M  V30 2891 H 280.44 -2.03081 3.89429 0
M  V30 2892 H 281.046 -0.393637 4.23474 0
M  V30 2893 N 279.361 -1.56624 0.175154 0
M  V30 2894 C 280.309 -2.19468 -0.770495 0
M  V30 2895 C 281.303 -1.15985 -1.23466 0
M  V30 2896 O 282.509 -1.34176 -1.19987 0
M  V30 2897 H 278.884 -0.703095 -0.266761 0
M  V30 2898 H 280.855 -2.97613 -0.216542 0
M  V30 2899 C 279.604 -2.85264 -1.98796 0
M  V30 2900 H 278.927 -3.64623 -1.63983 0
M  V30 2901 H 280.367 -3.327 -2.62843 0
M  V30 2902 C 278.826 -1.85239 -2.81404 0
M  V30 2903 O 279.356 -1.34024 -3.78682 0
M  V30 2904 N 277.562 -1.53911 -2.46495 0
M  V30 2905 H 277.109 -1.95751 -1.67449 0
M  V30 2906 H 277.067 -0.872382 -3.02054 0
M  V30 2907 N 280.839 0.0985539 -1.57292 0
M  V30 2908 C 281.749 1.13824 -2.05137 0
M  V30 2909 C 282.765 1.44076 -0.975604 0
M  V30 2910 O 283.941 1.54786 -1.28853 0
M  V30 2911 C 281.006 2.43969 -2.46333 0
M  V30 2912 C 280.067 2.2093 -3.68087 0
M  V30 2913 C 279.3 3.44869 -4.0731 0
M  V30 2914 O 279.523 4.52972 -3.46659 0
M  V30 2915 O 278.457 3.34661 -5.00285 0
M  V30 2916 H 282.283 0.761881 -2.93988 0
M  V30 2917 H 279.868 0.310818 -1.46131 0
M  V30 2918 H 281.75 3.20609 -2.73473 0
M  V30 2919 H 280.425 2.81038 -1.60621 0
M  V30 2920 H 279.332 1.42081 -3.46069 0
M  V30 2921 H 280.665 1.88755 -4.54568 0
M  V30 2922 N 282.317 1.53212 0.369288 0
M  V30 2923 C 283.227 1.82342 1.47609 0
M  V30 2924 C 284.243 0.711532 1.58787 0
M  V30 2925 O 285.419 1.0012 1.74751 0
M  V30 2926 C 282.484 2.00393 2.8292 0
M  V30 2927 C 281.545 3.24297 2.81301 0
M  V30 2928 C 280.778 3.41478 4.10157 0
M  V30 2929 O 281.001 2.63033 5.06132 0
M  V30 2930 O 279.935 4.34817 4.16194 0
M  V30 2931 H 283.761 2.76366 1.25918 0
M  V30 2932 H 281.346 1.38547 0.559034 0
M  V30 2933 H 283.228 2.13859 3.63101 0
M  V30 2934 H 281.903 1.09559 3.04596 0
M  V30 2935 H 280.81 3.16257 1.99831 0
M  V30 2936 H 282.143 4.15041 2.64578 0
M  V30 2937 N 283.795 -0.628877 1.44509 0
M  V30 2938 C 285.072 -1.38733 1.37886 0
M  V30 2939 C 285.452 -2.11065 0.0387008 0
M  V30 2940 O 284.8 -2.06476 -0.97878 0
M  V30 2941 C 285.01 -2.35188 2.57852 0
M  V30 2942 C 286.358 -2.9845 3.02014 0
M  V30 2943 O 287.382 -2.45513 2.58073 0
M  V30 2944 O 286.241 -3.94487 3.78209 0
M  V30 2945 H 283.335 -0.621015 0.54614 0
M  V30 2946 H 285.881 -0.653744 1.56602 0
M  V30 2947 H 284.653 -1.80855 3.46998 0
M  V30 2948 H 284.276 -3.1596 2.4136 0
M  V30 2949 N 285.273 -1.31445 -0.869486 0
M  V30 2950 C 286.55 -1.11795 -1.60503 0
M  V30 2951 C 286.93 0.327168 -2.08549 0
M  V30 2952 O 286.278 1.32135 -1.8642 0
M  V30 2953 C 286.488 -2.13258 -2.76265 0
M  V30 2954 C 287.836 -2.45805 -3.46215 0
M  V30 2955 O 288.86 -2.11688 -2.86473 0
M  V30 2956 O 287.719 -3.04228 -4.5399 0
M  V30 2957 H 284.813 -0.430421 -0.706163 0
M  V30 2958 H 287.359 -1.42925 -0.914907 0
M  V30 2959 H 286.131 -3.10461 -2.3818 0
M  V30 2960 H 285.754 -1.83035 -3.52964 0
M  V30 2961 N 286.751 1.08385 -1.14413 0
M  V30 2962 C 287.681 2.17321 -0.854044 0
M  V30 2963 C 288.662 1.69024 0.191049 0
M  V30 2964 O 289.847 1.94141 0.0476779 0
M  V30 2965 C 286.977 3.45719 -0.330983 0
M  V30 2966 C 285.931 4.07409 -1.31155 0
M  V30 2967 C 285.257 5.30762 -0.64778 0
M  V30 2968 C 286.557 4.48665 -2.67388 0
M  V30 2969 H 288.251 2.41845 -1.76498 0
M  V30 2970 H 285.797 1.16233 -0.850051 0
M  V30 2971 H 287.75 4.21241 -0.115645 0
M  V30 2972 H 286.474 3.2075 0.615381 0
M  V30 2973 H 285.133 3.33919 -1.51306 0
M  V30 2974 H 284.781 5.02078 0.304398 0
M  V30 2975 H 284.481 5.72992 -1.30207 0
M  V30 2976 H 286.005 6.08998 -0.441972 0
M  V30 2977 H 287.419 5.15364 -2.51143 0
M  V30 2978 H 285.816 5.01814 -3.29093 0
M  V30 2979 H 286.886 3.60543 -3.24248 0
M  V30 2980 N 288.23 0.939286 1.26551 0
M  V30 2981 C 289.455 0.602008 1.98471 0
M  V30 2982 C 289.88 -0.815624 1.69497 0
M  V30 2983 O 289.238 -1.54912 0.941905 0
M  V30 2984 C 289.286 0.848407 3.50477 0
M  V30 2985 O 288.39 -0.0804009 4.12322 0
M  V30 2986 H 287.731 0.23049 0.622712 0
M  V30 2987 H 290.261 1.2617 1.61066 0
M  V30 2988 H 290.271 0.768553 4.00696 0
M  V30 2989 H 288.946 1.88171 3.70897 0
M  V30 2990 H 287.523 0.0503508 3.72866 0
M  V30 2991 N 289.708 -1.40897 0.706093 0
M  V30 2992 C 290.954 -2.01352 0.241889 0
M  V30 2993 C 291.287 -1.55832 -1.15888 0
M  V30 2994 O 290.562 -0.774145 -1.7843 0
M  V30 2995 C 290.845 -3.58752 0.311311 0
M  V30 2996 C 290.698 -4.1437 1.74978 0
M  V30 2997 C 292.017 -4.38914 -0.322922 0
M  V30 2998 H 289.136 -0.731562 0.0893687 0
M  V30 2999 H 291.778 -1.67504 0.896802 0
M  V30 3000 H 289.928 -3.87718 -0.246302 0
M  V30 3001 H 291.6 -3.96239 2.36205 0
M  V30 3002 H 289.843 -3.69016 2.28057 0
M  V30 3003 H 290.514 -5.23532 1.74981 0
M  V30 3004 H 292.99 -4.15822 0.152089 0
M  V30 3005 H 291.866 -5.48358 -0.243855 0
M  V30 3006 H 292.127 -4.19176 -1.40513 0
M  V30 3007 N 291.186 -0.45159 -1.50991 0
M  V30 3008 C 292.096 0.358431 -2.31846 0
M  V30 3009 C 293.112 1.01438 -1.41373 0
M  V30 3010 O 294.288 1.00663 -1.74439 0
M  V30 3011 C 291.353 1.43704 -3.15515 0
M  V30 3012 C 290.414 0.799742 -4.21785 0
M  V30 3013 C 289.647 1.82696 -5.01456 0
M  V30 3014 O 289.87 3.05105 -4.81941 0
M  V30 3015 O 288.804 1.40958 -5.85162 0
M  V30 3016 H 292.63 -0.302032 -3.02194 0
M  V30 3017 H 290.215 -0.213825 -1.47862 0
M  V30 3018 H 292.097 2.06227 -3.67489 0
M  V30 3019 H 290.772 2.08133 -2.47916 0
M  V30 3020 H 289.679 0.136084 -3.73852 0
M  V30 3021 H 291.012 0.198718 -4.91799 0
M  V30 3022 N 292.664 1.56529 -0.183458 0
M  V30 3023 C 293.627 2.17324 0.728223 0
M  V30 3024 C 294.627 1.12453 1.14939 0
M  V30 3025 O 295.817 1.37902 1.06437 0
M  V30 3026 C 292.949 2.76591 1.99274 0
M  V30 3027 H 294.142 2.99241 0.198772 0
M  V30 3028 H 291.695 1.5616 0.0661391 0
M  V30 3029 H 292.43 1.98441 2.56499 0
M  V30 3030 H 292.215 3.5335 1.69959 0
M  V30 3031 H 293.705 3.23311 2.6431 0
M  V30 3032 N 294.142 -0.090211 1.57342 0
M  V30 3033 C 295.052 -1.12735 2.05738 0
M  V30 3034 C 296.068 -1.43557 0.983231 0
M  V30 3035 O 297.244 -1.54101 1.29672 0
M  V30 3036 C 294.309 -2.42659 2.47624 0
M  V30 3037 C 293.37 -2.18975 3.69254 0
M  V30 3038 C 292.603 -3.42704 4.09133 0
M  V30 3039 O 292.826 -4.51127 3.49057 0
M  V30 3040 O 291.76 -3.32003 5.02053 0
M  V30 3041 H 295.586 -0.746279 2.94388 0
M  V30 3042 H 293.171 -0.303064 1.46294 0
M  V30 3043 H 295.053 -3.19155 2.7517 0
M  V30 3044 H 293.728 -2.80182 1.62109 0
M  V30 3045 H 292.635 -1.40244 3.46818 0
M  V30 3046 H 293.968 -1.86342 4.55563 0
M  V30 3047 N 295.62 -1.53406 -0.361157 0
M  V30 3048 C 296.869 -1.69022 -1.10066 0
M  V30 3049 C 297.182 -0.450838 -1.90333 0
M  V30 3050 O 298.388 -0.487617 -2.67085 0
M  V30 3051 C 296.844 -2.98812 -2.00598 0
M  V30 3052 C 296.452 -4.30027 -1.25621 0
M  V30 3053 C 298.196 -3.23795 -2.74513 0
M  V30 3054 C 296.103 -5.50903 -2.1508 0
M  V30 3055 H 295.033 -0.629776 -0.414606 0
M  V30 3056 H 297.684 -1.79907 -0.361348 0
M  V30 3057 H 296.066 -2.8174 -2.78278 0
M  V30 3058 H 297.24 -4.57745 -0.529739 0
M  V30 3059 H 295.555 -4.11522 -0.635496 0
M  V30 3060 H 298.152 -4.11289 -3.41681 0
M  V30 3061 H 298.495 -2.40045 -3.40123 0
M  V30 3062 H 299.028 -3.41561 -2.03914 0
M  V30 3063 H 295.767 -6.37143 -1.54041 0
M  V30 3064 H 295.287 -5.27459 -2.85565 0
M  V30 3065 H 296.966 -5.85865 -2.74538 0
M  V30 3066 N 297.098 0.621204 -1.44841 0
M  V30 3067 C 298.061 1.71459 -1.521 0
M  V30 3068 C 299.061 1.55696 -0.401933 0
M  V30 3069 O 300.251 1.61011 -0.664925 0
M  V30 3070 C 297.383 3.10624 -1.40447 0
M  V30 3071 H 298.576 1.66394 -2.49506 0
M  V30 3072 H 296.129 0.835745 -1.3208 0
M  V30 3073 H 296.864 3.21277 -0.441737 0
M  V30 3074 H 296.649 3.23473 -2.21602 0
M  V30 3075 H 298.139 3.90293 -1.4853 0
M  V30 3076 N 298.576 1.31904 0.862503 0
M  V30 3077 C 299.526 1.16772 1.95827 0
M  V30 3078 C 300.51 0.0767098 1.60717 0
M  V30 3079 O 301.702 0.302407 1.74398 0
M  V30 3080 C 298.831 0.884858 3.317 0
M  V30 3081 C 297.917 2.0172 3.73055 0
M  V30 3082 N 298.308 3.265 3.86305 0
M  V30 3083 C 296.606 1.91861 4.02623 0
M  V30 3084 C 297.307 4.00616 4.2176 0
M  V30 3085 N 296.283 3.28847 4.32852 0
M  V30 3086 H 300.085 2.11382 2.04193 0
M  V30 3087 H 297.599 1.2357 1.05377 0
M  V30 3088 H 299.596 0.757419 4.09962 0
M  V30 3089 H 298.256 -0.0529448 3.24657 0
M  V30 3090 H 299.267 3.61529 3.70833 0
M  V30 3091 H 295.944 1.05593 4.03926 0
M  V30 3092 H 297.334 5.08182 4.39546 0
M  V30 3093 N 300.054 -1.07777 1.14986 0
M  V30 3094 C 300.986 -2.14769 0.800436 0
M  V30 3095 C 301.999 -1.61739 -0.185595 0
M  V30 3096 O 303.188 -1.78462 0.0370358 0
M  V30 3097 C 300.288 -3.38481 0.168533 0
M  V30 3098 C 299.461 -4.20876 1.1909 0
M  V30 3099 C 298.52 -5.22976 0.581575 0
M  V30 3100 O 297.546 -5.55388 1.24633 0
M  V30 3101 N 298.748 -5.76976 -0.638706 0
M  V30 3102 H 301.513 -2.45348 1.72118 0
M  V30 3103 H 299.074 -1.23645 1.04515 0
M  V30 3104 H 301.066 -4.03916 -0.251764 0
M  V30 3105 H 299.636 -3.05651 -0.655467 0
M  V30 3106 H 298.856 -3.51322 1.78791 0
M  V30 3107 H 300.144 -4.7274 1.88133 0
M  V30 3108 H 299.542 -5.52886 -1.19723 0
M  V30 3109 H 298.099 -6.44061 -1.00142 0
M  V30 3110 N 301.532 -0.945985 -1.26051 0
M  V30 3111 C 302.781 -0.591836 -1.92822 0
M  V30 3112 C 303.094 0.873956 -1.7499 0
M  V30 3113 O 304.3 1.33769 -2.36259 0
M  V30 3114 C 302.756 -1.00776 -3.45503 0
M  V30 3115 C 302.364 -2.4955 -3.7206 0
M  V30 3116 C 304.108 -0.725735 -4.1825 0
M  V30 3117 C 302.015 -2.84988 -5.18205 0
M  V30 3118 H 300.945 -0.217635 -0.721908 0
M  V30 3119 H 303.596 -1.14927 -1.43052 0
M  V30 3120 H 301.978 -0.378812 -3.94184 0
M  V30 3121 H 303.152 -3.1739 -3.34066 0
M  V30 3122 H 301.467 -2.75133 -3.12555 0
M  V30 3123 H 304.064 -0.966771 -5.25887 0
M  V30 3124 H 304.407 0.337639 -4.14929 0
M  V30 3125 H 304.94 -1.31463 -3.7545 0
M  V30 3126 H 301.679 -3.90307 -5.26631 0
M  V30 3127 H 301.199 -2.21813 -5.57278 0
M  V30 3128 H 302.878 -2.73712 -5.86252 0
M  V30 3129 N 303.011 1.40521 -0.713556 0
M  V30 3130 C 303.974 2.29098 -0.0684347 0
M  V30 3131 C 304.974 1.45268 0.689472 0
M  V30 3132 O 306.164 1.66205 0.521677 0
M  V30 3133 C 303.296 3.28446 0.913024 0
M  V30 3134 H 304.489 2.87645 -0.84855 0
M  V30 3135 H 302.042 1.48809 -0.47809 0
M  V30 3136 H 302.777 2.74913 1.72027 0
M  V30 3137 H 302.562 3.90327 0.372472 0
M  V30 3138 H 304.052 3.94777 1.36165 0
M  V30 3139 N 304.489 0.459591 1.5075 0
M  V30 3140 C 305.399 -0.34613 2.32033 0
M  V30 3141 C 306.415 -1.00686 1.41909 0
M  V30 3142 O 307.591 -0.997361 1.7497 0
M  V30 3143 C 304.656 -1.42029 3.16273 0
M  V30 3144 C 303.717 -0.777362 4.22203 0
M  V30 3145 C 302.95 -1.80034 5.02418 0
M  V30 3146 O 303.173 -3.02544 4.83553 0
M  V30 3147 O 302.107 -1.37853 5.85901 0
M  V30 3148 H 305.933 0.318054 3.0203 0
M  V30 3149 H 303.518 0.221663 1.47746 0
M  V30 3150 H 305.4 -2.04275 3.68578 0
M  V30 3151 H 304.075 -2.06815 2.49016 0
M  V30 3152 H 302.982 -0.116256 3.73919 0
M  V30 3153 H 304.315 -0.172634 4.91897 0
M  V30 3154 N 305.967 -1.56429 0.191757 0
M  V30 3155 C 307.192 -2.02309 -0.456706 0
M  V30 3156 C 307.617 -1.07103 -1.5463 0
M  V30 3157 O 306.975 -0.0539677 -1.8122 0
M  V30 3158 C 307.023 -3.46654 -0.993159 0
M  V30 3159 O 306.127 -3.54559 -2.10622 0
M  V30 3160 H 305.468 -0.655303 -0.107114 0
M  V30 3161 H 307.998 -2.02364 0.301653 0
M  V30 3162 H 308.008 -3.86377 -1.31061 0
M  V30 3163 H 306.683 -4.1544 -0.195504 0
M  V30 3164 H 305.26 -3.26708 -1.79767 0
M  V30 3165 N 307.445 0.0818655 -1.57387 0
M  V30 3166 C 308.692 0.782914 -1.86753 0
M  V30 3167 C 309.02 1.78082 -0.782118 0
M  V30 3168 O 308.275 1.94426 0.22295 0
M  V30 3169 C 308.574 1.53513 -3.22752 0
M  V30 3170 C 308.24 0.678134 -4.45771 0
M  V30 3171 C 306.902 0.441929 -4.79166 0
M  V30 3172 C 309.254 0.0832243 -5.21134 0
M  V30 3173 C 306.582 -0.398833 -5.85343 0
M  V30 3174 C 308.934 -0.744935 -6.28199 0
M  V30 3175 C 307.598 -0.991107 -6.60101 0
M  V30 3176 H 306.868 0.286489 -0.683378 0
M  V30 3177 H 309.515 0.0439808 -1.91449 0
M  V30 3178 H 307.82 2.34599 -3.138 0
M  V30 3179 H 309.517 2.08218 -3.42705 0
M  V30 3180 H 306.107 0.872357 -4.19628 0
M  V30 3181 H 310.291 0.252847 -4.95655 0
M  V30 3182 H 305.547 -0.598405 -6.08465 0
M  V30 3183 H 309.721 -1.21271 -6.8576 0
M  V30 3184 H 307.348 -1.64437 -7.42202 0
M  V30 3185 N 308.923 1.53595 0.353017 0
M  V30 3186 C 310.148 1.7462 1.11904 0
M  V30 3187 C 310.573 0.479721 1.8188 0
M  V30 3188 O 309.931 -0.567066 1.72204 0
M  V30 3189 C 309.979 2.92029 2.11545 0
M  V30 3190 O 309.083 2.61516 3.18878 0
M  V30 3191 H 308.424 0.579531 0.324099 0
M  V30 3192 H 310.954 2.00525 0.406301 0
M  V30 3193 H 310.964 3.18551 2.5493 0
M  V30 3194 H 309.639 3.83888 1.60008 0
M  V30 3195 H 308.216 2.45852 2.80377 0
M  V30 3196 N 310.401 -0.613514 1.45168 0
M  V30 3197 C 311.348 -1.72456 1.53387 0
M  V30 3198 C 312.318 -1.6169 0.380191 0
M  V30 3199 O 313.503 -1.81356 0.592836 0
M  V30 3200 C 310.643 -3.10753 1.50088 0
M  V30 3201 C 309.756 -3.32368 2.75963 0
M  V30 3202 C 308.891 -4.60737 2.64376 0
M  V30 3203 C 307.93 -4.7559 3.85332 0
M  V30 3204 N 307.067 -5.95253 3.72315 0
M  V30 3205 H 311.907 -1.64768 2.48305 0
M  V30 3206 H 309.444 -0.803503 1.23216 0
M  V30 3207 H 311.402 -3.90758 1.46164 0
M  V30 3208 H 310.032 -3.17413 0.587243 0
M  V30 3209 H 309.084 -2.4618 2.89999 0
M  V30 3210 H 310.396 -3.39218 3.65695 0
M  V30 3211 H 309.55 -5.48928 2.58385 0
M  V30 3212 H 308.289 -4.56275 1.72233 0
M  V30 3213 H 307.294 -3.85824 3.91688 0
M  V30 3214 H 308.519 -4.81854 4.78533 0
M  V30 3215 H 306.465 -5.91847 2.82937 0
M  V30 3216 H 306.382 -6.03236 4.55677 0
M  V30 3217 H 307.65 -6.85958 3.70246 0
M  V30 3218 N 311.879 -1.3236 -0.855495 0
M  V30 3219 C 312.826 -1.21225 -1.964 0
M  V30 3220 C 313.796 -0.0946204 -1.6583 0
M  V30 3221 O 314.981 -0.27002 -1.8888 0
M  V30 3222 C 312.121 -0.940419 -3.32039 0
M  V30 3223 C 311.234 -2.14276 -3.75113 0
M  V30 3224 C 310.369 -1.80648 -4.9954 0
M  V30 3225 C 309.408 -2.97208 -5.35102 0
M  V30 3226 N 308.545 -2.63678 -6.50706 0
M  V30 3227 H 313.385 -2.16042 -2.05255 0
M  V30 3228 H 310.922 -1.07451 -1.00463 0
M  V30 3229 H 312.88 -0.763311 -4.10158 0
M  V30 3230 H 311.51 -0.0290413 -3.22787 0
M  V30 3231 H 310.562 -2.43017 -2.92655 0
M  V30 3232 H 311.874 -3.01468 -3.97389 0
M  V30 3233 H 311.028 -1.59484 -5.85363 0
M  V30 3234 H 309.767 -0.906678 -4.79198 0
M  V30 3235 H 308.772 -3.19004 -4.47791 0
M  V30 3236 H 309.997 -3.87918 -5.57401 0
M  V30 3237 H 307.943 -1.76238 -6.31883 0
M  V30 3238 H 307.86 -3.444 -6.72997 0
M  V30 3239 H 309.128 -2.45942 -7.39684 0
M  V30 3240 N 313.357 1.07166 -1.15556 0
M  V30 3241 C 314.587 1.83248 -0.954133 0
M  V30 3242 C 314.995 1.82449 0.500911 0
M  V30 3243 O 314.338 1.23575 1.35923 0
M  V30 3244 C 314.4 3.31393 -1.39351 0
M  V30 3245 C 314.064 3.5591 -2.86666 0
M  V30 3246 C 315.061 3.49695 -3.8472 0
M  V30 3247 C 312.746 3.83515 -3.24379 0
M  V30 3248 C 314.74 3.70737 -5.18491 0
M  V30 3249 C 312.427 4.04209 -4.58321 0
M  V30 3250 C 313.425 3.97815 -5.55186 0
M  V30 3251 O 313.113 4.17954 -6.86709 0
M  V30 3252 H 312.845 0.584941 -0.338851 0
M  V30 3253 H 315.399 1.36169 -1.53777 0
M  V30 3254 H 313.629 3.79292 -0.75329 0
M  V30 3255 H 315.318 3.88945 -1.16089 0
M  V30 3256 H 316.084 3.28368 -3.56931 0
M  V30 3257 H 311.963 3.87605 -2.49567 0
M  V30 3258 H 315.507 3.65663 -5.94085 0
M  V30 3259 H 311.404 4.25023 -4.85825 0
M  V30 3260 H 312.172 4.35291 -6.93155 0
M  V30 3261 N 314.835 0.952656 1.25548 0
M  V30 3262 C 315.782 0.47008 2.25962 0
M  V30 3263 C 316.752 -0.476384 1.59122 0
M  V30 3264 O 317.937 -0.39007 1.8677 0
M  V30 3265 C 315.077 -0.247881 3.44209 0
M  V30 3266 C 314.19 0.735591 4.25691 0
M  V30 3267 C 313.325 -0.0047306 5.312 0
M  V30 3268 C 312.364 0.969805 6.04368 0
M  V30 3269 N 311.501 0.260486 7.01617 0
M  V30 3270 H 316.341 1.33126 2.66611 0
M  V30 3271 H 313.878 0.66765 1.31076 0
M  V30 3272 H 315.836 -0.680695 4.1161 0
M  V30 3273 H 314.466 -1.07312 3.0444 0
M  V30 3274 H 313.518 1.28689 3.57971 0
M  V30 3275 H 314.83 1.47934 4.76358 0
M  V30 3276 H 313.984 -0.496275 6.04667 0
M  V30 3277 H 312.723 -0.781282 4.81401 0
M  V30 3278 H 311.728 1.47237 5.29718 0
M  V30 3279 H 312.953 1.74655 6.56256 0
M  V30 3280 H 310.899 -0.497364 6.54112 0
M  V30 3281 H 310.816 0.943362 7.50091 0
M  V30 3282 H 312.084 -0.209587 7.79218 0
M  V30 3283 N 316.313 -1.40141 0.720998 0
M  V30 3284 C 317.56 -2.00787 0.262842 0
M  V30 3285 C 317.888 -1.5718 -1.14563 0
M  V30 3286 O 317.143 -0.785391 -1.79249 0
M  V30 3287 C 317.442 -3.56165 0.296892 0
M  V30 3288 C 317.108 -4.19373 1.65641 0
M  V30 3289 C 315.77 -4.36352 2.02855 0
M  V30 3290 C 318.122 -4.54578 2.54968 0
M  V30 3291 C 315.45 -4.8582 3.28931 0
M  V30 3292 C 317.802 -5.05447 3.80402 0
M  V30 3293 C 316.466 -5.20635 4.17726 0
M  V30 3294 H 315.736 -0.734731 0.0961807 0
M  V30 3295 H 318.383 -1.67673 0.925093 0
M  V30 3296 H 316.688 -3.8922 -0.448932 0
M  V30 3297 H 318.385 -4.00929 -0.0755208 0
M  V30 3298 H 314.975 -4.06549 1.35704 0
M  V30 3299 H 319.159 -4.41091 2.27491 0
M  V30 3300 H 314.415 -4.95764 3.57811 0
M  V30 3301 H 318.589 -5.31663 4.49786 0
M  V30 3302 H 316.216 -5.58728 5.15487 0
M  V30 3303 N 317.792 -0.46758 -1.50504 0
M  V30 3304 C 319.203 -0.0116166 -1.86696 0
M  V30 3305 C 319.554 1.39202 -1.38265 0
M  V30 3306 O 318.679 2.0313 -0.746132 0
M  V30 3307 C 319.274 -0.0143044 -3.38797 0
M  V30 3308 C 317.833 0.386175 -3.74414 0
M  V30 3309 C 316.98 -0.401287 -2.74381 0
M  V30 3310 H 319.931 -0.682022 -1.43297 0
M  V30 3311 H 319.952 0.788641 -3.72237 0
M  V30 3312 H 319.464 -1.03602 -3.74016 0
M  V30 3313 H 317.565 1.41237 -3.44794 0
M  V30 3314 H 317.678 0.0899596 -4.79016 0
M  V30 3315 H 316.042 0.144536 -2.5429 0
M  V30 3316 H 316.825 -1.42244 -3.12444 0
M  V30 3317 N 319.27 1.56325 -0.20005 0
M  V30 3318 C 320.495 2.02548 0.44597 0
M  V30 3319 C 320.92 1.07922 1.5406 0
M  V30 3320 O 320.278 0.0635775 1.81188 0
M  V30 3321 C 320.326 3.47175 0.974761 0
M  V30 3322 O 319.43 3.55671 2.08739 0
M  V30 3323 H 318.771 0.655862 0.103638 0
M  V30 3324 H 321.301 2.02201 -0.312381 0
M  V30 3325 H 321.311 3.87067 1.2901 0
M  V30 3326 H 319.986 4.15538 0.17347 0
M  V30 3327 H 318.563 3.27657 1.78032 0
M  V30 3328 N 320.748 -0.0735177 1.57428 0
M  V30 3329 C 322.164 -0.428264 1.53747 0
M  V30 3330 C 322.364 -1.79272 0.91998 0
M  V30 3331 O 321.42 -2.47051 0.521745 0
M  V30 3332 C 322.733 -0.370914 2.98404 0
M  V30 3333 C 324.281 -0.451224 3.0973 0
M  V30 3334 C 324.756 -0.4238 4.56035 0
M  V30 3335 N 326.247 -0.483925 4.60665 0
M  V30 3336 C 326.982 -0.484891 5.71346 0
M  V30 3337 N 326.478 -0.440775 6.91396 0
M  V30 3338 N 328.271 -0.531319 5.59583 0
M  V30 3339 H 320.422 0.819949 1.95935 0
M  V30 3340 H 322.685 0.307493 0.896745 0
M  V30 3341 H 322.391 0.564956 3.47133 0
M  V30 3342 H 322.265 -1.18176 3.5821 0
M  V30 3343 H 324.652 -1.37752 2.60976 0
M  V30 3344 H 324.733 0.388167 2.52838 0
M  V30 3345 H 324.377 0.498638 5.05446 0
M  V30 3346 H 324.307 -1.2807 5.10789 0
M  V30 3347 H 326.798 -0.522338 3.74273 0
M  V30 3348 H 327.111 -0.44539 7.71515 0
M  V30 3349 H 325.456 -0.40749 6.93804 0
M  V30 3350 H 328.647 -0.563464 4.64696 0
M  V30 3351 H 328.82 -0.528603 6.4584 0
M  V30 3352 N 322.226 -1.5378 -0.344866 0
M  V30 3353 C 323.451 -1.75211 -1.10977 0
M  V30 3354 C 323.876 -0.48936 -1.81623 0
M  V30 3355 O 323.234 0.557925 -1.72502 0
M  V30 3356 C 323.282 -2.93147 -2.09993 0
M  V30 3357 O 322.386 -2.63203 -3.17487 0
M  V30 3358 H 321.727 -0.581241 -0.321021 0
M  V30 3359 H 324.257 -2.00738 -0.395661 0
M  V30 3360 H 324.267 -3.19898 -2.53237 0
M  V30 3361 H 322.942 -3.84731 -1.5797 0
M  V30 3362 H 321.519 -2.47336 -2.79069 0
M  V30 3363 N 323.704 0.605807 -1.45491 0
M  V30 3364 C 324.929 1.39625 -1.53361 0
M  V30 3365 C 325.354 1.87351 -0.167645 0
M  V30 3366 O 324.712 1.60243 0.848051 0
M  V30 3367 C 324.76 2.57559 -2.5238 0
M  V30 3368 O 323.864 3.58248 -2.04285 0
M  V30 3369 H 323.205 0.416771 -0.516912 0
M  V30 3370 H 325.735 0.737103 -1.90861 0
M  V30 3371 H 325.745 3.0478 -2.71244 0
M  V30 3372 H 324.42 2.22171 -3.51586 0
M  V30 3373 H 322.997 3.17664 -1.95305 0
M  V30 3374 N 325.182 1.32811 0.848464 0
M  V30 3375 C 326.43 1.23479 1.59991 0
M  V30 3376 C 326.751 -0.201853 1.93952 0
M  V30 3377 O 326.021 -1.12818 1.60153 0
M  V30 3378 H 324.601 0.454034 0.593179 0
M  V30 3379 H 327.263 1.66412 1.01455 0
M  V30 3380 H 326.359 1.82178 2.53412 0
M  V30 3381 N 326.66 -1.06551 1.16123 0
M  V30 3382 C 327.909 -1.78687 0.935622 0
M  V30 3383 C 328.222 -1.88056 -0.538001 0
M  V30 3384 O 329.428 -2.56794 -0.88143 0
M  V30 3385 C 327.884 -3.21143 1.62466 0
M  V30 3386 C 327.492 -3.19949 3.13587 0
M  V30 3387 C 329.236 -3.9783 1.48092 0
M  V30 3388 C 327.143 -4.57108 3.75241 0
M  V30 3389 H 326.073 -0.669712 0.346412 0
M  V30 3390 H 328.724 -1.19534 1.39226 0
M  V30 3391 H 327.106 -3.80539 1.09572 0
M  V30 3392 H 328.28 -2.70151 3.73303 0
M  V30 3393 H 326.595 -2.5676 3.27816 0
M  V30 3394 H 329.192 -4.99217 1.91538 0
M  V30 3395 H 329.535 -4.14078 0.429507 0
M  V30 3396 H 330.068 -3.4495 1.98127 0
M  V30 3397 H 326.807 -4.46065 4.80319 0
M  V30 3398 H 326.327 -5.07111 3.20309 0
M  V30 3399 H 328.006 -5.26069 3.76644 0
M  V30 3400 N 328.138 -0.959301 -1.25041 0
M  V30 3401 C 329.068 -0.501388 -2.28053 0
M  V30 3402 C 330.049 0.454673 -1.63911 0
M  V30 3403 O 331.234 0.352618 -1.90972 0
M  V30 3404 C 328.364 0.217224 -3.4662 0
M  V30 3405 C 327.318 -0.654034 -4.22973 0
M  V30 3406 C 326.644 0.195589 -5.34342 0
M  V30 3407 C 327.944 -1.93447 -4.85155 0
M  V30 3408 H 329.638 -1.36238 -2.66608 0
M  V30 3409 H 327.184 -0.656534 -1.28163 0
M  V30 3410 H 329.137 0.548732 -4.17812 0
M  V30 3411 H 327.861 1.1125 -3.07068 0
M  V30 3412 H 326.52 -0.968693 -3.5357 0
M  V30 3413 H 326.168 1.09076 -4.91031 0
M  V30 3414 H 325.868 -0.384091 -5.86343 0
M  V30 3415 H 327.392 0.521958 -6.08365 0
M  V30 3416 H 328.806 -1.66908 -5.48466 0
M  V30 3417 H 327.203 -2.46018 -5.47353 0
M  V30 3418 H 328.273 -2.63466 -4.07079 0
M  V30 3419 N 329.616 1.39756 -0.72842 0
M  V30 3420 C 330.546 2.33289 -0.0991354 0
M  V30 3421 C 331.527 1.53568 0.731489 0
M  V30 3422 O 332.712 1.81987 0.677807 0
M  V30 3423 C 329.842 3.3763 0.813834 0
M  V30 3424 C 328.796 4.2791 0.0878663 0
M  V30 3425 C 328.122 5.22894 1.11741 0
M  V30 3426 C 329.422 5.11314 -1.06563 0
M  V30 3427 H 331.116 2.86163 -0.880408 0
M  V30 3428 H 328.662 1.37591 -0.424819 0
M  V30 3429 H 330.615 4.0201 1.26355 0
M  V30 3430 H 329.339 2.83181 1.62715 0
M  V30 3431 H 327.998 3.65 -0.342159 0
M  V30 3432 H 327.646 4.64744 1.92412 0
M  V30 3433 H 327.346 5.84143 0.636477 0
M  V30 3434 H 328.87 5.90151 1.56697 0
M  V30 3435 H 330.284 5.69076 -0.694671 0
M  V30 3436 H 328.681 5.81671 -1.47577 0
M  V30 3437 H 329.751 4.46534 -1.89038 0
M  V30 3438 N 331.094 0.475555 1.50254 0
M  V30 3439 C 332.324 -0.0753399 2.06463 0
M  V30 3440 C 332.732 -1.33661 1.33908 0
M  V30 3441 O 332.075 -1.79219 0.403257 0
M  V30 3442 C 332.137 -0.424921 3.5698 0
M  V30 3443 C 331.801 0.734965 4.51051 0
M  V30 3444 C 332.798 1.61827 4.94073 0
M  V30 3445 C 330.483 0.926557 4.9368 0
M  V30 3446 C 332.477 2.67754 5.78434 0
M  V30 3447 C 330.164 1.98904 5.77824 0
M  V30 3448 C 331.162 2.8629 6.20103 0
M  V30 3449 O 330.85 3.90708 7.02568 0
M  V30 3450 H 330.582 0.00576308 0.675975 0
M  V30 3451 H 333.136 0.664662 1.94349 0
M  V30 3452 H 331.366 -1.21817 3.67012 0
M  V30 3453 H 333.055 -0.911422 3.95535 0
M  V30 3454 H 333.821 1.48196 4.61804 0
M  V30 3455 H 329.7 0.25584 4.6029 0
M  V30 3456 H 333.244 3.35992 6.11355 0
M  V30 3457 H 329.141 2.12541 6.09505 0
M  V30 3458 H 329.909 3.87751 7.20827 0
M  V30 3459 N 332.573 -1.56217 0.208337 0
M  V30 3460 C 333.521 -2.21053 -0.723769 0
M  V30 3461 C 334.515 -1.18578 -1.20978 0
M  V30 3462 O 335.721 -1.36691 -1.17114 0
M  V30 3463 H 332.096 -0.708595 -0.251788 0
M  V30 3464 H 334.067 -2.98006 -0.153365 0
M  V30 3465 C 332.816 -2.89417 -1.927 0
M  V30 3466 H 332.139 -3.68019 -1.56212 0
M  V30 3467 H 333.579 -3.38201 -2.55727 0
M  V30 3468 C 332.038 -1.91166 -2.77411 0
M  V30 3469 O 332.568 -1.42026 -3.75754 0
M  V30 3470 N 330.774 -1.59105 -2.43175 0
M  V30 3471 H 330.321 -1.99259 -1.63259 0
M  V30 3472 H 330.279 -0.936255 -3.00136 0
M  V30 3473 N 334.051 0.0651679 -1.57465 0
M  V30 3474 C 335.298 0.763063 -1.87573 0
M  V30 3475 C 335.626 1.77242 -0.800961 0
M  V30 3476 O 334.881 1.94651 0.202316 0
M  V30 3477 C 335.18 1.50081 -3.24362 0
M  V30 3478 C 334.846 0.630816 -4.46466 0
M  V30 3479 C 333.508 0.391082 -4.79608 0
M  V30 3480 C 335.86 0.0279465 -5.21193 0
M  V30 3481 C 333.188 -0.460894 -5.84887 0
M  V30 3482 C 335.54 -0.811522 -6.27373 0
M  V30 3483 C 334.204 -1.06106 -6.59013 0
M  V30 3484 H 333.474 0.279224 -0.686378 0
M  V30 3485 H 336.121 0.0236726 -1.91485 0
M  V30 3486 H 334.426 2.31258 -3.16271 0
M  V30 3487 H 336.123 2.04571 -3.44894 0
M  V30 3488 H 332.713 0.8278 -4.2053 0
M  V30 3489 H 336.897 0.200262 -4.95896 0
M  V30 3490 H 332.153 -0.662907 -6.07796 0
M  V30 3491 H 336.327 -1.28537 -6.84435 0
M  V30 3492 H 333.954 -1.723 -7.40417 0
M  V30 3493 N 335.529 1.53961 0.336706 0
M  V30 3494 C 336.439 1.85432 1.43708 0
M  V30 3495 C 337.455 0.745053 1.57242 0
M  V30 3496 O 338.631 1.03804 1.72588 0
M  V30 3497 C 335.696 2.06349 2.78605 0
M  V30 3498 C 334.757 3.30191 2.74358 0
M  V30 3499 C 333.99 3.50101 4.02822 0
M  V30 3500 O 334.213 2.7371 5.00439 0
M  V30 3501 O 333.147 4.43547 4.06878 0
M  V30 3502 H 336.973 2.78975 1.20028 0
M  V30 3503 H 334.558 1.39701 0.52952 0
M  V30 3504 H 336.44 2.21513 3.58483 0
M  V30 3505 H 335.115 1.15995 3.02203 0
M  V30 3506 H 334.022 3.20425 1.93078 0
M  V30 3507 H 335.355 4.2056 2.55715 0
M  V30 3508 N 337.007 -0.598083 1.45811 0
M  V30 3509 C 337.939 -1.72231 1.51225 0
M  V30 3510 C 338.952 -1.57757 0.402059 0
M  V30 3511 O 340.141 -1.65464 0.669624 0
M  V30 3512 C 337.241 -3.10331 1.3619 0
M  V30 3513 C 336.414 -3.50955 2.61054 0
M  V30 3514 C 335.473 -4.68055 2.40439 0
M  V30 3515 O 334.499 -4.74691 3.14097 0
M  V30 3516 N 335.701 -5.61941 1.45612 0
M  V30 3517 H 338.466 -1.68046 2.48154 0
M  V30 3518 H 336.027 -0.783637 1.41671 0
M  V30 3519 H 338.019 -3.86439 1.20195 0
M  V30 3520 H 336.589 -3.0897 0.475015 0
M  V30 3521 H 335.809 -2.64711 2.92099 0
M  V30 3522 H 337.097 -3.74858 3.44034 0
M  V30 3523 H 336.495 -5.59301 0.848431 0
M  V30 3524 H 335.052 -6.37542 1.35585 0
M  V30 3525 N 338.485 -1.33259 -0.841409 0
M  V30 3526 C 339.415 -1.25926 -1.96634 0
M  V30 3527 C 340.396 -0.140349 -1.6952 0
M  V30 3528 O 341.581 -0.329707 -1.91381 0
M  V30 3529 C 338.711 -0.99512 -3.32738 0
M  V30 3530 C 337.665 -2.0767 -3.74242 0
M  V30 3531 C 336.991 -1.66474 -5.08125 0
M  V30 3532 C 338.291 -3.49318 -3.88297 0
M  V30 3533 H 339.985 -2.20046 -2.03027 0
M  V30 3534 H 337.531 -1.05931 -0.975425 0
M  V30 3535 H 339.484 -0.930323 -4.11002 0
M  V30 3536 H 338.208 -0.0183004 -3.26595 0
M  V30 3537 H 336.867 -2.13187 -2.98239 0
M  V30 3538 H 336.515 -0.675012 -4.9845 0
M  V30 3539 H 336.215 -2.3885 -5.36865 0
M  V30 3540 H 337.739 -1.61455 -5.88867 0
M  V30 3541 H 339.153 -3.46316 -4.56879 0
M  V30 3542 H 337.55 -4.20158 -4.28471 0
M  V30 3543 H 338.62 -3.8801 -2.9082 0
M  V30 3544 N 339.963 1.05934 -1.16686 0
M  V30 3545 C 340.91 2.13499 -0.876748 0
M  V30 3546 C 341.88 1.65162 0.176299 0
M  V30 3547 O 343.065 1.90757 0.0407143 0
M  V30 3548 C 340.205 3.42912 -0.387967 0
M  V30 3549 C 339.318 4.04964 -1.50426 0
M  V30 3550 C 338.453 5.22266 -0.970125 0
M  V30 3551 C 337.492 5.76309 -2.06238 0
M  V30 3552 N 336.629 6.84922 -1.54356 0
M  V30 3553 H 341.469 2.37654 -1.7979 0
M  V30 3554 H 339.006 1.16598 -0.896843 0
M  V30 3555 H 340.964 4.17111 -0.086186 0
M  V30 3556 H 339.594 3.18963 0.496235 0
M  V30 3557 H 338.646 3.28277 -1.92193 0
M  V30 3558 H 339.958 4.41122 -2.32836 0
M  V30 3559 H 339.112 6.03506 -0.621743 0
M  V30 3560 H 337.851 4.87564 -0.115377 0
M  V30 3561 H 336.856 4.93704 -2.41942 0
M  V30 3562 H 338.081 6.13062 -2.92115 0
M  V30 3563 H 336.027 6.52131 -0.711406 0
M  V30 3564 H 335.944 7.20043 -2.30379 0
M  V30 3565 H 337.212 7.69832 -1.22387 0
M  V30 3566 N 341.441 0.965919 1.2453 0
M  V30 3567 C 342.374 0.4393 2.23932 0
M  V30 3568 C 343.352 -0.485615 1.55179 0
M  V30 3569 O 344.536 -0.417402 1.83821 0
M  V30 3570 C 341.663 -0.366042 3.36716 0
M  V30 3571 C 340.709 0.5009 4.23548 0
M  V30 3572 S 341.542 1.94002 4.99123 0
M  V30 3573 C 342.698 1.14342 6.15367 0
M  V30 3574 H 342.931 1.28167 2.68254 0
M  V30 3575 H 340.464 0.770819 1.33782 0
M  V30 3576 H 342.422 -0.824724 4.0213 0
M  V30 3577 H 341.083 -1.18337 2.90956 0
M  V30 3578 H 340.276 -0.117341 5.03863 0
M  V30 3579 H 339.878 0.89524 3.63127 0
M  V30 3580 H 342.17 0.397572 6.76332 0
M  V30 3581 H 343.113 1.92089 6.81548 0
M  V30 3582 H 343.521 0.668579 5.60527 0
M  V30 3583 N 342.919 -1.39368 0.735821 0
M  V30 3584 C 343.867 -2.32443 0.0855131 0
M  V30 3585 C 344.861 -1.53104 -0.724954 0
M  V30 3586 O 346.067 -1.68762 -0.626047 0
M  V30 3587 H 342.442 -0.751948 0.00885257 0
M  V30 3588 H 344.413 -2.84916 0.886883 0
M  V30 3589 C 343.162 -3.38206 -0.806983 0
M  V30 3590 H 342.485 -3.99335 -0.19274 0
M  V30 3591 H 343.925 -4.05779 -1.2296 0
M  V30 3592 C 342.384 -2.75321 -1.94165 0
M  V30 3593 O 342.914 -2.63231 -3.03435 0
M  V30 3594 N 341.12 -2.33396 -1.73132 0
M  V30 3595 H 340.667 -2.4343 -0.842596 0
M  V30 3596 H 340.625 -1.91661 -2.49225 0
M  V30 3597 N 344.397 -0.483516 -1.5 0
M  V30 3598 C 345.327 0.293829 -2.31644 0
M  V30 3599 C 346.308 0.978864 -1.39112 0
M  V30 3600 O 347.493 0.973644 -1.68029 0
M  V30 3601 C 344.623 1.36897 -3.19181 0
M  V30 3602 C 343.577 0.804833 -4.20365 0
M  V30 3603 C 342.903 1.9792 -4.96721 0
M  V30 3604 C 344.203 -0.192313 -5.21946 0
M  V30 3605 H 345.897 -0.387616 -2.9688 0
M  V30 3606 H 343.443 -0.187856 -1.42769 0
M  V30 3607 H 345.396 1.92037 -3.751 0
M  V30 3608 H 344.12 2.07936 -2.51853 0
M  V30 3609 H 342.779 0.275319 -3.65565 0
M  V30 3610 H 342.427 2.67686 -4.25856 0
M  V30 3611 H 342.127 1.60789 -5.65173 0
M  V30 3612 H 343.651 2.53526 -5.55479 0
M  V30 3613 H 345.065 0.270333 -5.72662 0
M  V30 3614 H 343.462 -0.478543 -5.98189 0
M  V30 3615 H 344.532 -1.11409 -4.71928 0
M  V30 3616 N 345.875 1.56104 -0.216619 0
M  V30 3617 C 347.152 1.89988 0.465165 0
M  V30 3618 C 347.532 1.13326 1.78102 0
M  V30 3619 O 346.88 0.241033 2.27225 0
M  V30 3620 C 347.09 3.42646 0.662939 0
M  V30 3621 C 348.438 4.13311 0.972602 0
M  V30 3622 O 349.462 3.48217 0.749901 0
M  V30 3623 O 348.321 5.28396 1.39499 0
M  V30 3624 H 345.415 0.78979 0.245276 0
M  V30 3625 H 347.961 1.67721 -0.258436 0
M  V30 3626 H 346.733 3.90399 -0.26543 0
M  V30 3627 H 346.356 3.70677 1.43821 0
M  V30 3628 N 347.353 -0.0568162 1.57498 0
M  V30 3629 C 348.63 -0.786954 1.79071 0
M  V30 3630 C 349.01 -1.95028 0.80792 0
M  V30 3631 O 348.358 -2.27968 -0.155858 0
M  V30 3632 C 348.568 -1.24594 3.26002 0
M  V30 3633 C 349.916 -1.67323 3.90241 0
M  V30 3634 O 350.94 -1.34124 3.29984 0
M  V30 3635 O 349.799 -2.28842 4.9628 0
M  V30 3636 H 346.893 -0.378262 0.735423 0
M  V30 3637 H 349.439 -0.035734 1.69662 0
M  V30 3638 H 348.211 -0.41423 3.89101 0
M  V30 3639 H 347.834 -2.05803 3.40192 0
M  V30 3640 N 348.832 -1.54138 -0.328536 0
M  V30 3641 C 350.081 -1.71318 -1.06456 0
M  V30 3642 C 350.394 -0.491109 -1.89334 0
M  V30 3643 O 351.6 -0.54416 -2.65991 0
M  V30 3644 C 350.056 -3.03 -1.94214 0
M  V30 3645 C 349.664 -4.32595 -1.16471 0
M  V30 3646 C 351.408 -3.29544 -2.67583 0
M  V30 3647 C 349.315 -5.55341 -2.03347 0
M  V30 3648 H 348.245 -0.638429 -0.401155 0
M  V30 3649 H 350.896 -1.80633 -0.323106 0
M  V30 3650 H 349.278 -2.87579 -2.72239 0
M  V30 3651 H 350.452 -4.58766 -0.432525 0
M  V30 3652 H 348.767 -4.12777 -0.548063 0
M  V30 3653 H 351.364 -4.18444 -3.3288 0
M  V30 3654 H 351.707 -2.47206 -3.34955 0
M  V30 3655 H 352.24 -3.45809 -1.96623 0
M  V30 3656 H 348.979 -6.40268 -1.40491 0
M  V30 3657 H 348.499 -5.33397 -2.74313 0
M  V30 3658 H 350.178 -5.91557 -2.62049 0
M  V30 3659 N 350.31 0.590341 -1.46126 0
M  V30 3660 C 351.556 1.35082 -1.51264 0
M  V30 3661 C 351.889 1.93534 -0.160711 0
M  V30 3662 O 351.164 1.76045 0.826956 0
M  V30 3663 C 351.447 2.48588 -2.6053 0
M  V30 3664 C 351.3 1.95221 -4.05227 0
M  V30 3665 C 352.619 3.50662 -2.6594 0
M  V30 3666 H 349.738 0.489803 -0.550692 0
M  V30 3667 H 352.38 0.663887 -1.78024 0
M  V30 3668 H 350.53 3.07186 -2.37843 0
M  V30 3669 H 352.202 1.41139 -4.39178 0
M  V30 3670 H 350.445 1.26101 -4.15068 0
M  V30 3671 H 351.116 2.77121 -4.77397 0
M  V30 3672 H 353.592 3.01934 -2.86313 0
M  V30 3673 H 352.468 4.27551 -3.44226 0
M  V30 3674 H 352.729 4.07399 -1.71694 0
M  V30 3675 N 351.788 1.33704 0.83433 0
M  V30 3676 C 352.735 1.24335 1.94447 0
M  V30 3677 C 353.705 0.120991 1.65659 0
M  V30 3678 O 354.89 0.300035 1.88426 0
M  V30 3679 C 352.03 0.993124 3.30501 0
M  V30 3680 C 351.143 2.20217 3.71657 0
M  V30 3681 C 350.278 1.88572 4.96602 0
M  V30 3682 C 349.317 3.05683 5.30306 0
M  V30 3683 N 348.454 2.73997 6.46429 0
M  V30 3684 H 353.294 2.1928 2.01792 0
M  V30 3685 H 350.831 1.09035 0.987404 0
M  V30 3686 H 352.789 0.828467 4.08892 0
M  V30 3687 H 351.419 0.0803902 3.227 0
M  V30 3688 H 350.471 2.47642 2.88752 0
M  V30 3689 H 351.783 3.07752 3.92543 0
M  V30 3690 H 350.937 1.68776 5.82752 0
M  V30 3691 H 349.676 0.982799 4.77695 0
M  V30 3692 H 348.681 3.26088 4.42659 0
M  V30 3693 H 349.906 3.96737 5.51159 0
M  V30 3694 H 347.852 1.86268 6.28999 0
M  V30 3695 H 347.769 3.55064 6.67432 0
M  V30 3696 H 349.037 2.57679 7.35678 0
M  V30 3697 N 353.266 -1.05314 1.17247 0
M  V30 3698 C 354.176 -2.16538 0.90268 0
M  V30 3699 C 355.192 -1.73523 -0.128707 0
M  V30 3700 O 356.368 -2.01337 0.0502701 0
M  V30 3701 C 353.433 -3.44167 0.418356 0
M  V30 3702 C 352.494 -4.01635 1.51618 0
M  V30 3703 C 351.727 -5.23171 1.05487 0
M  V30 3704 O 351.95 -5.70327 -0.0914715 0
M  V30 3705 O 350.884 -5.72848 1.8474 0
M  V30 3706 H 354.71 -2.42145 1.83302 0
M  V30 3707 H 352.295 -1.15037 0.953246 0
M  V30 3708 H 354.177 -4.21112 0.155726 0
M  V30 3709 H 352.852 -3.20063 -0.48385 0
M  V30 3710 H 351.759 -3.26135 1.83268 0
M  V30 3711 H 353.092 -4.30053 2.39405 0
M  V30 3712 N 354.744 -0.972509 -1.24016 0
M  V30 3713 C 355.707 -0.511403 -2.23422 0
M  V30 3714 C 356.707 0.394679 -1.55881 0
M  V30 3715 O 357.897 0.189469 -1.73167 0
M  V30 3716 C 355.029 0.258769 -3.39916 0
M  V30 3717 H 356.222 -1.39024 -2.6573 0
M  V30 3718 H 353.775 -0.757585 -1.36713 0
M  V30 3719 H 354.51 1.1545 -3.03054 0
M  V30 3720 H 354.295 -0.391522 -3.9014 0
M  V30 3721 H 355.785 0.570244 -4.13688 0
M  V30 3722 N 356.222 1.38976 -0.743202 0
M  V30 3723 C 357.169 2.30544 -0.10861 0
M  V30 3724 C 358.139 1.49642 0.720869 0
M  V30 3725 O 359.324 1.78304 0.679142 0
M  V30 3726 C 356.464 3.36018 0.786496 0
M  V30 3727 C 355.577 4.31963 -0.0564849 0
M  V30 3728 C 354.712 5.24506 0.840657 0
M  V30 3729 C 353.751 6.121 -0.00658363 0
M  V30 3730 N 352.888 6.96973 0.846943 0
M  V30 3731 H 357.728 2.8424 -0.895088 0
M  V30 3732 H 355.265 1.3995 -0.453048 0
M  V30 3733 H 357.223 3.95768 1.31999 0
M  V30 3734 H 355.853 2.83758 1.53887 0
M  V30 3735 H 354.905 3.73763 -0.707492 0
M  V30 3736 H 356.217 4.93703 -0.711229 0
M  V30 3737 H 355.371 5.89322 1.4417 0
M  V30 3738 H 354.11 4.63107 1.52916 0
M  V30 3739 H 353.115 5.46289 -0.620366 0
M  V30 3740 H 354.34 6.75565 -0.691992 0
M  V30 3741 H 352.286 6.38133 1.52059 0
M  V30 3742 H 352.203 7.5559 0.248864 0
M  V30 3743 H 353.471 7.6621 1.43328 0
M  V30 3744 N 357.7 0.491464 1.49741 0
M  V30 3745 C 358.648 -0.305837 2.30581 0
M  V30 3746 C 359.642 -0.971642 1.38764 0
M  V30 3747 O 360.848 -0.90042 1.5586 0
M  V30 3748 H 357.223 -0.117482 0.742767 0
M  V30 3749 H 359.194 0.396093 2.95759 0
M  V30 3750 C 357.943 -1.36319 3.19863 0
M  V30 3751 H 357.266 -0.860258 3.90435 0
M  V30 3752 H 358.706 -1.89323 3.79385 0
M  V30 3753 C 357.165 -2.37621 2.38826 0
M  V30 3754 O 357.695 -3.43311 2.08567 0
M  V30 3755 N 355.901 -2.09849 2.01026 0
M  V30 3756 H 355.448 -1.23922 2.25834 0
M  V30 3757 H 355.406 -2.77859 1.47112 0
M  V30 3758 N 359.178 -1.55987 0.224894 0
M  V30 3759 C 360.424 -1.98684 -0.406502 0
M  V30 3760 C 360.757 -1.11248 -1.59177 0
M  V30 3761 O 360.032 -0.170909 -1.93748 0
M  V30 3762 C 360.315 -3.50218 -0.837808 0
M  V30 3763 C 360.168 -4.48426 0.351332 0
M  V30 3764 C 361.487 -4.06243 -1.69278 0
M  V30 3765 H 358.606 -0.722337 -0.146283 0
M  V30 3766 H 361.248 -1.87255 0.321799 0
M  V30 3767 H 359.398 -3.60089 -1.45837 0
M  V30 3768 H 361.07 -4.50562 0.989526 0
M  V30 3769 H 359.313 -4.22159 0.998207 0
M  V30 3770 H 359.984 -5.52 0.00655905 0
M  V30 3771 H 362.46 -3.99337 -1.16914 0
M  V30 3772 H 361.336 -5.12581 -1.96346 0
M  V30 3773 H 361.597 -3.53332 -2.65723 0
M  V30 3774 N 360.656 0.0484629 -1.57525 0
M  V30 3775 C 362.067 0.597486 -1.76881 0
M  V30 3776 C 362.418 1.76664 -0.853475 0
M  V30 3777 O 361.543 2.16357 -0.0433656 0
M  V30 3778 C 362.138 1.09066 -3.20765 0
M  V30 3779 C 360.697 1.58535 -3.41385 0
M  V30 3780 C 359.844 0.514868 -2.72478 0
M  V30 3781 H 362.795 -0.177758 -1.57701 0
M  V30 3782 H 362.816 1.95875 -3.2621 0
M  V30 3783 H 362.328 0.239521 -3.8736 0
M  V30 3784 H 360.429 2.45898 -2.79937 0
M  V30 3785 H 360.542 1.64622 -4.49929 0
M  V30 3786 H 358.906 0.965407 -2.35695 0
M  V30 3787 H 359.689 -0.32648 -3.41744 0
M  V30 3788 N 362.134 1.5431 0.320358 0
M  V30 3789 C 363.382 1.72327 1.05583 0
M  V30 3790 C 363.703 0.50149 1.88441 0
M  V30 3791 O 362.973 -0.48448 1.89815 0
M  V30 3792 H 361.553 0.635387 0.3928 0
M  V30 3793 H 364.215 1.91621 0.356019 0
M  V30 3794 H 363.311 2.60426 1.72003 0
M  V30 3795 N 363.613 -0.582584 1.46437 0
M  V30 3796 C 364.859 -1.34278 1.51978 0
M  V30 3797 C 365.192 -1.93446 0.170973 0
M  V30 3798 O 364.467 -1.76481 -0.817608 0
M  V30 3799 C 364.75 -2.47203 2.61845 0
M  V30 3800 C 364.603 -1.93069 4.06257 0
M  V30 3801 C 365.922 -3.49247 2.67795 0
M  V30 3802 H 363.041 -0.486876 0.553282 0
M  V30 3803 H 365.683 -0.654437 1.78374 0
M  V30 3804 H 363.833 -3.0592 2.39469 0
M  V30 3805 H 365.505 -1.38808 4.3992 0
M  V30 3806 H 363.748 -1.23898 4.1573 0
M  V30 3807 H 364.419 -2.74586 4.7886 0
M  V30 3808 H 366.895 -3.00411 2.8791 0
M  V30 3809 H 365.771 -4.25719 3.46489 0
M  V30 3810 H 366.032 -4.06482 1.73852 0
M  V30 3811 N 365.091 -1.34144 -0.827227 0
M  V30 3812 C 366.319 -1.29325 -1.61501 0
M  V30 3813 C 366.734 0.13354 -1.88327 0
M  V30 3814 O 366.091 1.0793 -1.47164 0
M  V30 3815 C 366.142 -2.07746 -2.95844 0
M  V30 3816 O 365.863 -3.4486 -2.70191 0
M  V30 3817 C 367.364 -2.10273 -3.90256 0
M  V30 3818 H 364.584 -0.445069 -0.50215 0
M  V30 3819 H 367.128 -1.76693 -1.02955 0
M  V30 3820 H 365.283 -1.6403 -3.5096 0
M  V30 3821 H 365.697 -3.85345 -3.55822 0
M  V30 3822 H 367.171 -2.69575 -4.81698 0
M  V30 3823 H 367.648 -1.096 -4.25305 0
M  V30 3824 H 368.254 -2.54059 -3.41078 0
M  V30 3825 N 366.569 1.04691 -1.17803 0
M  V30 3826 C 367.985 1.29963 -0.926379 0
M  V30 3827 C 368.185 1.97251 0.411635 0
M  V30 3828 O 367.241 2.24922 1.14744 0
M  V30 3829 C 368.554 2.16447 -2.08737 0
M  V30 3830 C 370.102 2.29814 -2.12496 0
M  V30 3831 C 370.577 3.19661 -3.27995 0
M  V30 3832 N 372.068 3.27247 -3.27816 0
M  V30 3833 C 372.803 3.96906 -4.13827 0
M  V30 3834 N 372.299 4.6895 -5.09959 0
M  V30 3835 N 374.092 3.93122 -4.01761 0
M  V30 3836 H 366.243 0.594182 -2.0392 0
M  V30 3837 H 368.506 0.324649 -0.890678 0
M  V30 3838 H 368.212 1.74304 -3.05469 0
M  V30 3839 H 368.086 3.17103 -2.04268 0
M  V30 3840 H 370.473 2.71196 -1.16347 0
M  V30 3841 H 370.554 1.2877 -2.21025 0
M  V30 3842 H 370.198 2.78991 -4.24413 0
M  V30 3843 H 370.128 4.20722 -3.16703 0
M  V30 3844 H 372.619 2.75921 -2.58217 0
M  V30 3845 H 372.932 5.19679 -5.71974 0
M  V30 3846 H 371.277 4.67875 -5.13924 0
M  V30 3847 H 374.468 3.35967 -3.2595 0
M  V30 3848 H 374.641 4.47139 -4.6901 0
M  V30 3849 N 368.047 0.979072 1.23499 0
M  V30 3850 C 368.977 0.537606 2.27227 0
M  V30 3851 C 369.958 -0.428539 1.64613 0
M  V30 3852 O 371.143 -0.322191 1.91509 0
M  V30 3853 C 368.273 -0.162052 3.46922 0
M  V30 3854 C 367.227 0.721242 4.21879 0
M  V30 3855 C 366.553 -0.110555 5.34586 0
M  V30 3856 C 367.853 2.01141 4.82016 0
M  V30 3857 H 369.547 1.40462 2.64406 0
M  V30 3858 H 367.093 0.67684 1.27102 0
M  V30 3859 H 369.046 -0.482192 4.18632 0
M  V30 3860 H 367.77 -1.06351 3.08799 0
M  V30 3861 H 366.429 1.02482 3.51984 0
M  V30 3862 H 366.077 -1.0125 4.92704 0
M  V30 3863 H 365.777 0.477325 5.85658 0
M  V30 3864 H 367.301 -0.425107 6.09118 0
M  V30 3865 H 368.715 1.75612 5.45741 0
M  V30 3866 H 367.112 2.54695 5.43369 0
M  V30 3867 H 368.182 2.69909 4.02836 0
M  V30 3868 N 369.525 -1.3858 0.750561 0
M  V30 3869 C 370.488 -2.28836 0.129152 0
M  V30 3870 C 371.488 -1.47045 -0.650714 0
M  V30 3871 O 372.678 -1.6753 -0.477428 0
M  V30 3872 C 369.81 -3.30751 -0.825622 0
M  V30 3873 H 371.003 -2.85294 0.924516 0
M  V30 3874 H 368.556 -1.47489 0.517376 0
M  V30 3875 H 369.291 -2.79378 -1.64677 0
M  V30 3876 H 369.076 -3.91177 -0.268852 0
M  V30 3877 H 370.566 -3.98249 -1.2565 0
M  V30 3878 N 371.003 -0.499398 -1.49478 0
M  V30 3879 C 372.419 -0.155261 -1.58843 0
M  V30 3880 C 372.619 1.34008 -1.50479 0
M  V30 3881 O 371.675 2.11589 -1.37791 0
M  V30 3882 C 372.988 -0.730636 -2.91689 0
M  V30 3883 C 374.536 -0.696599 -3.0515 0
M  V30 3884 C 375.011 -1.25001 -4.40612 0
M  V30 3885 N 376.502 -1.21064 -4.47099 0
M  V30 3886 C 377.237 -1.60905 -5.50361 0
M  V30 3887 N 376.733 -2.08331 -6.60735 0
M  V30 3888 N 378.526 -1.52331 -5.41065 0
M  V30 3889 H 370.677 -1.47162 -1.53158 0
M  V30 3890 H 372.94 -0.610309 -0.725415 0
M  V30 3891 H 372.646 -1.77928 -3.03372 0
M  V30 3892 H 372.52 -0.190161 -3.7672 0
M  V30 3893 H 374.907 0.343204 -2.93097 0
M  V30 3894 H 374.988 -1.2742 -2.21806 0
M  V30 3895 H 374.632 -2.28859 -4.53416 0
M  V30 3896 H 374.562 -0.64836 -5.22593 0
M  V30 3897 H 377.053 -0.863128 -3.67911 0
M  V30 3898 H 377.366 -2.36805 -7.35624 0
M  V30 3899 H 375.711 -2.12304 -6.6178 0
M  V30 3900 H 378.902 -1.151 -4.53729 0
M  V30 3901 H 379.075 -1.83704 -6.21415 0
M  V30 3902 N 372.481 1.55866 -0.233164 0
M  V30 3903 C 373.758 1.90471 0.444988 0
M  V30 3904 C 374.138 1.15209 1.7689 0
M  V30 3905 O 373.486 0.265119 2.26957 0
M  V30 3906 C 373.696 3.4333 0.626559 0
M  V30 3907 C 375.044 4.14319 0.92871 0
M  V30 3908 O 376.068 3.48993 0.712926 0
M  V30 3909 O 374.927 5.29846 1.33887 0
M  V30 3910 H 372.021 0.792347 0.236885 0
M  V30 3911 H 374.567 1.67437 -0.276211 0
M  V30 3912 H 373.339 3.90095 -0.306822 0
M  V30 3913 H 372.962 3.72181 1.39881 0
M  V30 3914 N 373.959 -0.0401083 1.57549 0
M  V30 3915 C 375.207 -0.731677 1.8839 0
M  V30 3916 C 375.528 -1.76481 0.829425 0
M  V30 3917 O 374.798 -1.95411 -0.1383 0
M  V30 3918 H 373.378 -0.273225 0.695239 0
M  V30 3919 H 376.04 -0.00867725 1.94898 0
M  V30 3920 H 375.136 -1.22816 2.86919 0
M  V30 3921 N 375.437 -1.54477 -0.31217 0
M  V30 3922 C 376.662 -1.77526 -1.07235 0
M  V30 3923 C 377.087 -0.527775 -1.80544 0
M  V30 3924 O 376.445 0.52121 -1.73646 0
M  V30 3925 C 376.493 -2.97535 -2.03728 0
M  V30 3926 O 375.597 -2.69878 -3.11833 0
M  V30 3927 H 374.938 -0.58792 -0.30862 0
M  V30 3928 H 377.468 -2.01532 -0.352993 0
M  V30 3929 H 377.478 -3.25198 -2.46395 0
M  V30 3930 H 376.153 -3.87996 -1.49774 0
M  V30 3931 H 374.73 -2.53199 -2.7376 0
M  V30 3932 N 376.915 0.57481 -1.46744 0
M  V30 3933 C 377.862 1.68329 -1.57905 0
M  V30 3934 C 378.832 1.60625 -0.422927 0
M  V30 3935 O 380.017 1.79721 -0.640711 0
M  V30 3936 C 377.157 3.06665 -1.58274 0
M  V30 3937 C 376.27 3.24935 -2.84678 0
M  V30 3938 C 375.405 4.53566 -2.76499 0
M  V30 3939 C 374.444 4.65207 -3.97806 0
M  V30 3940 N 373.581 5.85172 -3.87967 0
M  V30 3941 H 378.421 1.58127 -2.52587 0
M  V30 3942 H 375.958 0.770552 -1.25303 0
M  V30 3943 H 377.916 3.86745 -1.56473 0
M  V30 3944 H 376.546 3.15745 -0.671194 0
M  V30 3945 H 375.598 2.38405 -2.96424 0
M  V30 3946 H 376.91 3.29403 -3.7456 0
M  V30 3947 H 376.064 5.41885 -2.72848 0
M  V30 3948 H 374.803 4.51548 -1.8427 0
M  V30 3949 H 373.808 3.75304 -4.0178 0
M  V30 3950 H 375.033 4.68997 -4.9114 0
M  V30 3951 H 372.979 5.84137 -2.98529 0
M  V30 3952 H 372.896 5.90943 -4.71511 0
M  V30 3953 H 374.164 6.759 -3.88303 0
M  V30 3954 N 378.394 1.34581 0.820102 0
M  V30 3955 C 379.324 1.29038 1.94606 0
M  V30 3956 C 380.305 0.1673 1.69275 0
M  V30 3957 O 381.49 0.360112 1.90832 0
M  V30 3958 C 378.62 1.04793 3.31113 0
M  V30 3959 C 377.574 2.13597 3.70891 0
M  V30 3960 C 376.9 1.74537 5.05412 0
M  V30 3961 C 378.2 3.55451 3.8269 0
M  V30 3962 H 379.894 2.23248 1.99501 0
M  V30 3963 H 377.44 1.0747 0.958449 0
M  V30 3964 H 379.393 0.995592 4.0947 0
M  V30 3965 H 378.117 0.0702565 3.26524 0
M  V30 3966 H 376.776 2.17905 2.9481 0
M  V30 3967 H 376.424 0.754226 4.97313 0
M  V30 3968 H 376.124 2.47361 5.32997 0
M  V30 3969 H 377.648 1.70803 5.86224 0
M  V30 3970 H 379.062 3.5354 4.51312 0
M  V30 3971 H 377.459 4.26922 4.21732 0
M  V30 3972 H 378.529 3.92587 2.84611 0
M  V30 3973 N 379.872 -1.04064 1.18357 0
M  V30 3974 C 381.283 -1.58719 0.98312 0
M  V30 3975 C 381.634 -1.90556 -0.467193 0
M  V30 3976 O 380.759 -1.69561 -1.34454 0
M  V30 3977 C 381.354 -2.88379 1.77828 0
M  V30 3978 C 379.913 -3.3965 1.62218 0
M  V30 3979 C 379.06 -2.13235 1.77274 0
M  V30 3980 H 382.011 -0.867359 1.32901 0
M  V30 3981 H 382.032 -3.58773 1.26737 0
M  V30 3982 H 381.544 -2.65176 2.83379 0
M  V30 3983 H 379.645 -3.67866 0.592036 0
M  V30 3984 H 379.758 -4.13475 2.42023 0
M  V30 3985 H 378.122 -2.24542 1.20221 0
M  V30 3986 H 378.905 -1.92487 2.8426 0
M  V30 3987 N 381.35 -0.985608 -1.22978 0
M  V30 3988 C 382.28 -0.549649 -2.26939 0
M  V30 3989 C 383.261 0.419803 -1.64838 0
M  V30 3990 O 384.446 0.31203 -1.91677 0
M  V30 3991 C 381.576 0.143652 -3.47003 0
M  V30 3992 C 380.53 -0.743606 -4.21491 0
M  V30 3993 C 379.856 0.0822027 -5.34637 0
M  V30 3994 C 381.156 -2.03694 -4.80943 0
M  V30 3995 H 382.85 -1.41862 -2.63658 0
M  V30 3996 H 380.396 -0.683571 -1.26741 0
M  V30 3997 H 382.349 0.459985 -4.18882 0
M  V30 3998 H 381.073 1.04711 -3.09359 0
M  V30 3999 H 379.732 -1.04347 -3.51436 0
M  V30 4000 H 379.38 0.986359 -4.93234 0
M  V30 4001 H 379.08 -0.508377 -5.85397 0
M  V30 4002 H 380.604 0.392797 -6.09335 0
M  V30 4003 H 382.018 -1.78504 -5.44802 0
M  V30 4004 H 380.415 -2.57573 -5.42011 0
M  V30 4005 H 381.485 -2.72042 -4.01399 0
M  V30 4006 N 382.828 1.3818 -0.7579 0
M  V30 4007 C 384.244 1.5353 -0.435972 0
M  V30 4008 C 384.444 1.71961 1.05032 0
M  V30 4009 O 383.5 1.73307 1.83633 0
M  V30 4010 C 384.813 2.73989 -1.23898 0
M  V30 4011 C 386.361 2.87841 -1.22949 0
M  V30 4012 C 386.836 4.11266 -2.01554 0
M  V30 4013 N 388.327 4.18352 -1.98837 0
M  V30 4014 C 389.062 5.12856 -2.5645 0
M  V30 4015 N 388.558 6.13005 -3.22794 0
M  V30 4016 N 390.351 5.05238 -2.46356 0
M  V30 4017 H 382.502 1.24467 -1.7211 0
M  V30 4018 H 384.765 0.604982 -0.729864 0
M  V30 4019 H 384.471 2.66789 -2.29165 0
M  V30 4020 H 384.345 3.67294 -0.858764 0
M  V30 4021 H 386.732 2.9452 -0.184854 0
M  V30 4022 H 386.813 1.95534 -1.64924 0
M  V30 4023 H 386.457 4.05349 -3.06031 0
M  V30 4024 H 386.387 5.02661 -1.5697 0
M  V30 4025 H 388.878 3.46628 -1.50524 0
M  V30 4026 H 389.191 6.81619 -3.64165 0
M  V30 4027 H 387.536 6.13325 -3.2689 0
M  V30 4028 H 390.727 4.25938 -1.9415 0
M  V30 4029 H 390.9 5.78707 -2.91552 0
M  V30 4030 N 384.306 0.507319 1.49211 0
M  V30 4031 C 385.546 -0.0332372 2.04373 0
M  V30 4032 C 385.91 -1.33694 1.37804 0
M  V30 4033 O 387.111 -1.96213 1.83722 0
M  V30 4034 C 385.382 -0.17599 3.56966 0
M  V30 4035 S 386.941 -0.669882 4.33657 0
M  V30 4036 H 383.759 0.00123603 0.710999 0
M  V30 4037 H 386.361 0.682725 1.83191 0
M  V30 4038 H 385.065 0.778053 4.02957 0
M  V30 4039 H 384.596 -0.917005 3.82563 0
M  V30 4040 H 386.611 -1.93806 4.56786 0
M  V30 4041 N 385.784 -1.5574 0.241426 0
M  V30 4042 C 387.03 -1.99104 -0.385406 0
M  V30 4043 C 387.363 -1.1293 -1.57988 0
M  V30 4044 O 386.638 -0.191449 -1.93555 0
M  V30 4045 C 386.921 -3.51087 -0.800616 0
M  V30 4046 C 386.774 -4.48028 0.398874 0
M  V30 4047 C 388.093 -4.08015 -1.64959 0
M  V30 4048 H 385.212 -0.723848 -0.138614 0
M  V30 4049 H 387.854 -1.86903 0.341642 0
M  V30 4050 H 386.004 -3.61615 -1.4201 0
M  V30 4051 H 387.676 -4.49487 1.03726 0
M  V30 4052 H 385.919 -4.21077 1.04293 0
M  V30 4053 H 386.59 -5.51962 0.0651056 0
M  V30 4054 H 389.066 -4.00555 -1.12672 0
M  V30 4055 H 387.942 -5.14635 -1.90898 0
M  V30 4056 H 388.203 -3.56131 -2.61961 0
M  V30 4057 N 387.262 0.0317525 -1.57568 0
M  V30 4058 C 388.192 1.03274 -2.0942 0
M  V30 4059 C 389.173 1.3788 -0.996143 0
M  V30 4060 O 390.358 1.46811 -1.27122 0
M  V30 4061 C 387.488 2.33448 -2.57137 0
M  V30 4062 C 386.442 2.13091 -3.71182 0
M  V30 4063 C 385.768 3.49001 -4.05095 0
M  V30 4064 C 387.068 1.51928 -4.99715 0
M  V30 4065 H 388.762 0.60112 -2.93303 0
M  V30 4066 H 386.308 0.287705 -1.41097 0
M  V30 4067 H 388.261 3.03802 -2.92032 0
M  V30 4068 H 386.985 2.78665 -1.70333 0
M  V30 4069 H 385.644 1.45171 -3.36632 0
M  V30 4070 H 385.292 3.91862 -3.15362 0
M  V30 4071 H 384.992 3.36207 -4.81911 0
M  V30 4072 H 386.516 4.20721 -4.42522 0
M  V30 4073 H 387.93 2.12196 -5.32584 0
M  V30 4074 H 386.327 1.49716 -5.81124 0
M  V30 4075 H 387.397 0.484811 -4.8247 0
M  V30 4076 N 388.74 1.54641 0.303973 0
M  V30 4077 C 389.988 1.73437 1.0375 0
M  V30 4078 C 390.309 0.521449 1.87899 0
M  V30 4079 O 389.579 -0.46432 1.90318 0
M  V30 4080 H 388.159 0.639518 0.386039 0
M  V30 4081 H 390.821 1.91988 0.335675 0
M  V30 4082 H 389.917 2.62235 1.69231 0
M  V30 4083 N 390.218 -0.567019 1.47046 0
M  V30 4084 C 391.464 -1.32434 1.54379 0
M  V30 4085 C 391.819 -1.91365 0.199276 0
M  V30 4086 O 391.112 -1.74378 -0.793915 0
M  V30 4087 C 391.306 -2.4623 2.59047 0
M  V30 4088 C 391.135 -1.98448 4.03545 0
M  V30 4089 C 389.905 -1.82741 4.71098 0
M  V30 4090 C 392.103 -1.53477 4.90866 0
M  V30 4091 N 390.085 -1.29196 6.00151 0
M  V30 4092 C 391.456 -1.1163 6.09868 0
M  V30 4093 C 393.511 -1.41438 4.77388 0
M  V30 4094 C 392.214 -0.589425 7.16881 0
M  V30 4095 C 394.24 -0.901528 5.84488 0
M  V30 4096 C 393.602 -0.492932 7.02673 0
M  V30 4097 H 389.701 -0.477005 0.61967 0
M  V30 4098 H 392.285 -0.643856 1.83746 0
M  V30 4099 H 390.456 -3.11821 2.31564 0
M  V30 4100 H 392.188 -3.13213 2.56281 0
M  V30 4101 H 388.943 -2.05162 4.26855 0
M  V30 4102 H 389.367 -1.0454 6.6888 0
M  V30 4103 H 394.009 -1.71643 3.86392 0
M  V30 4104 H 391.727 -0.274994 8.07632 0
M  V30 4105 H 395.313 -0.812071 5.76105 0
M  V30 4106 H 394.193 -0.102227 7.84133 0
M  V30 4107 N 391.696 -1.35014 -0.812953 0
M  V30 4108 C 392.942 -1.2812 -1.57204 0
M  V30 4109 C 393.275 0.145869 -1.93651 0
M  V30 4110 O 392.55 1.0937 -1.60836 0
M  V30 4111 C 392.833 -2.18162 -2.86492 0
M  V30 4112 C 392.686 -3.69454 -2.56561 0
M  V30 4113 C 394.005 -2.07439 -3.88145 0
M  V30 4114 H 391.124 -0.466746 -0.570366 0
M  V30 4115 H 393.766 -1.65357 -0.935783 0
M  V30 4116 H 391.916 -1.86535 -3.40789 0
M  V30 4117 H 393.588 -4.11493 -2.08497 0
M  V30 4118 H 391.831 -3.9005 -1.89851 0
M  V30 4119 H 392.502 -4.27835 -3.48799 0
M  V30 4120 H 394.978 -2.35228 -3.4323 0
M  V30 4121 H 393.854 -2.7265 -4.76396 0
M  V30 4122 H 394.115 -1.05439 -4.29343 0
M  V30 4123 N 393.175 1.03435 -1.18907 0
M  V30 4124 C 394.138 2.09756 -0.923844 0
M  V30 4125 C 395.138 1.60528 0.093416 0
M  V30 4126 O 396.328 1.73631 -0.140727 0
M  V30 4127 C 393.46 3.38692 -0.387354 0
M  V30 4128 H 394.653 2.34719 -1.86674 0
M  V30 4129 H 392.206 1.19959 -1.00197 0
M  V30 4130 H 392.941 3.19396 0.561845 0
M  V30 4131 H 392.726 3.75742 -1.12074 0
M  V30 4132 H 394.216 4.17016 -0.220694 0
M  V30 4133 N 394.653 0.992116 1.22453 0
M  V30 4134 C 395.583 0.561677 2.26644 0
M  V30 4135 C 396.564 -0.411055 1.65059 0
M  V30 4136 O 397.749 -0.301861 1.9184 0
M  V30 4137 C 394.879 -0.125247 3.47074 0
M  V30 4138 C 393.833 0.765948 4.21091 0
M  V30 4139 C 393.159 -0.0538484 5.34673 0
M  V30 4140 C 394.459 2.06242 4.79856 0
M  V30 4141 H 396.153 1.43259 2.62902 0
M  V30 4142 H 393.699 0.690283 1.26377 0
M  V30 4143 H 395.652 -0.437764 4.1912 0
M  V30 4144 H 394.376 -1.03069 3.0991 0
M  V30 4145 H 393.035 1.0621 3.50878 0
M  V30 4146 H 392.683 -0.960188 4.9375 0
M  V30 4147 H 392.383 0.539415 5.85119 0
M  V30 4148 H 393.907 -0.360477 6.09535 0
M  V30 4149 H 395.321 1.8139 5.43848 0
M  V30 4150 H 393.718 2.60444 5.40638 0
M  V30 4151 H 394.788 2.74167 3.99951 0
M  V30 4152 N 396.131 -1.37776 0.765217 0
M  V30 4153 C 397.094 -2.28686 0.153416 0
M  V30 4154 C 398.094 -1.47727 -0.635081 0
M  V30 4155 O 399.284 -1.68027 -0.459632 0
M  V30 4156 C 396.416 -3.31608 -0.790495 0
M  V30 4157 H 397.609 -2.84297 0.954723 0
M  V30 4158 H 395.162 -1.46932 0.53299 0
M  V30 4159 H 395.897 -2.81109 -1.61705 0
M  V30 4160 H 395.682 -3.9144 -0.227348 0
M  V30 4161 H 397.172 -3.99559 -1.21419 0
M  V30 4162 N 397.609 -0.515225 -1.4894 0
M  V30 4163 C 398.557 0.269115 -2.31038 0
M  V30 4164 C 399.551 0.949443 -1.40292 0
M  V30 4165 O 400.757 0.87551 -1.57273 0
M  V30 4166 H 397.132 0.10565 -0.744542 0
M  V30 4167 H 399.103 -0.443096 -2.95092 0
M  V30 4168 C 397.852 1.31213 -3.21991 0
M  V30 4169 H 397.175 0.798034 -3.91754 0
M  V30 4170 H 398.615 1.83263 -3.82349 0
M  V30 4171 C 397.074 2.33791 -2.42576 0
M  V30 4172 O 397.604 3.3995 -2.14003 0
M  V30 4173 N 395.81 2.06625 -2.0434 0
M  V30 4174 H 395.357 1.20314 -2.27777 0
M  V30 4175 H 395.315 2.75483 -1.51514 0
M  V30 4176 N 399.087 1.5561 -0.249682 0
M  V30 4177 C 400.312 2.03865 0.381305 0
M  V30 4178 C 400.737 1.12769 1.50548 0
M  V30 4179 O 400.095 0.121189 1.80895 0
M  V30 4180 C 400.143 3.50101 0.863816 0
M  V30 4181 O 399.247 3.62132 1.97318 0
M  V30 4182 H 398.588 0.658827 0.0827194 0
M  V30 4183 H 401.118 2.01105 -0.376552 0
M  V30 4184 H 401.128 3.90975 1.1663 0
M  V30 4185 H 399.803 4.1588 0.0411816 0
M  V30 4186 H 398.38 3.33155 1.67517 0
M  V30 4187 N 400.565 -0.0233959 1.57583 0
M  V30 4188 C 401.512 -1.02224 2.06927 0
M  V30 4189 C 402.482 -1.35575 0.959617 0
M  V30 4190 O 403.667 -1.45815 1.23055 0
M  V30 4191 C 400.807 -2.31636 2.5581 0
M  V30 4192 C 399.92 -2.04394 3.80588 0
M  V30 4193 C 399.055 -3.27717 4.18061 0
M  V30 4194 C 398.094 -2.96056 5.3574 0
M  V30 4195 N 397.231 -4.11847 5.68618 0
M  V30 4196 H 402.071 -0.594504 2.9201 0
M  V30 4197 H 399.608 -0.281921 1.44373 0
M  V30 4198 H 401.566 -3.07258 2.82221 0
M  V30 4199 H 400.196 -2.72122 1.73636 0
M  V30 4200 H 399.248 -1.19244 3.61227 0
M  V30 4201 H 400.56 -1.77042 4.66323 0
M  V30 4202 H 399.714 -4.11702 4.4563 0
M  V30 4203 H 398.453 -3.58188 3.30988 0
M  V30 4204 H 397.458 -2.10474 5.07918 0
M  V30 4205 H 398.683 -2.66857 6.24471 0
M  V30 4206 H 396.629 -4.42258 4.84504 0
M  V30 4207 H 396.546 -3.87938 6.48876 0
M  V30 4208 H 397.814 -4.96689 6.00766 0
M  V30 4209 N 402.043 -1.548 -0.295768 0
M  V30 4210 C 402.99 -1.86113 -1.36494 0
M  V30 4211 C 403.96 -0.7105 -1.50137 0
M  V30 4212 O 405.145 -0.959626 -1.64912 0
M  V30 4213 C 402.285 -2.11861 -2.72413 0
M  V30 4214 C 401.398 -3.39471 -2.67177 0
M  V30 4215 C 400.533 -3.55035 -3.95125 0
M  V30 4216 C 399.572 -4.76418 -3.84308 0
M  V30 4217 N 398.709 -4.8876 -5.04042 0
M  V30 4218 H 403.549 -2.77314 -1.09091 0
M  V30 4219 H 401.086 -1.37315 -0.52753 0
M  V30 4220 H 403.044 -2.24786 -3.51464 0
M  V30 4221 H 401.674 -1.2392 -2.98066 0
M  V30 4222 H 400.726 -3.35139 -1.79962 0
M  V30 4223 H 402.038 -4.28646 -2.55076 0
M  V30 4224 H 401.192 -3.67653 -4.82614 0
M  V30 4225 H 399.931 -2.64002 -4.10066 0
M  V30 4226 H 398.936 -4.63827 -2.95202 0
M  V30 4227 H 400.161 -5.68863 -3.70906 0
M  V30 4228 H 398.107 -4.00652 -5.19436 0
M  V30 4229 H 398.024 -5.71945 -4.94384 0
M  V30 4230 H 399.292 -5.0574 -5.93167 0
M  V30 4231 N 403.521 0.559213 -1.47345 0
M  V30 4232 C 404.768 1.31648 -1.53867 0
M  V30 4233 C 405.096 1.93468 -0.200104 0
M  V30 4234 O 404.351 1.78295 0.806799 0
M  V30 4235 C 404.65 2.44853 -2.6035 0
M  V30 4236 C 404.316 2.00876 -4.03683 0
M  V30 4237 C 402.978 1.88599 -4.42701 0
M  V30 4238 C 405.33 1.67279 -4.93626 0
M  V30 4239 C 402.658 1.41017 -5.69501 0
M  V30 4240 C 405.01 1.21169 -6.20887 0
M  V30 4241 C 403.674 1.07487 -6.58789 0
M  V30 4242 H 402.944 0.481734 -0.56304 0
M  V30 4243 H 405.591 0.627301 -1.80934 0
M  V30 4244 H 403.896 3.19318 -2.27032 0
M  V30 4245 H 405.593 3.03039 -2.62619 0
M  V30 4246 H 402.183 2.11374 -3.72853 0
M  V30 4247 H 406.367 1.75638 -4.64182 0
M  V30 4248 H 401.623 1.29086 -5.97618 0
M  V30 4249 H 405.797 0.942345 -6.89995 0
M  V30 4250 H 403.424 0.703946 -7.56934 0
M  V30 4251 N 404.999 1.35443 0.805782 0
M  V30 4252 C 405.931 1.24285 1.92577 0
M  V30 4253 C 406.944 0.165962 1.61952 0
M  V30 4254 O 408.133 0.419303 1.73505 0
M  V30 4255 C 405.233 0.891272 3.2697 0
M  V30 4256 C 404.406 2.06669 3.85495 0
M  V30 4257 C 403.465 1.69077 4.98297 0
M  V30 4258 O 402.491 2.4096 5.15681 0
M  V30 4259 N 403.693 0.614869 5.77234 0
M  V30 4260 H 406.458 2.20777 2.02676 0
M  V30 4261 H 404.019 1.28623 0.983243 0
M  V30 4262 H 406.011 0.621256 3.99903 0
M  V30 4263 H 404.581 0.016004 3.12596 0
M  V30 4264 H 403.801 2.50046 3.04747 0
M  V30 4265 H 405.089 2.85237 4.21328 0
M  V30 4266 H 404.487 0.017648 5.65697 0
M  V30 4267 H 403.044 0.404636 6.50543 0
M  V30 4268 N 406.477 -1.02803 1.19454 0
M  V30 4269 C 407.407 -2.12999 0.956758 0
M  V30 4270 C 408.388 -1.69743 -0.110188 0
M  V30 4271 O 409.573 -1.94148 0.0450038 0
M  V30 4272 C 406.703 -3.43746 0.495553 0
M  V30 4273 C 405.657 -4.00688 1.50443 0
M  V30 4274 C 404.983 -5.27067 0.900275 0
M  V30 4275 C 406.283 -4.35397 2.8849 0
M  V30 4276 H 407.977 -2.33148 1.87836 0
M  V30 4277 H 405.523 -1.12045 0.904539 0
M  V30 4278 H 407.476 -4.2021 0.316493 0
M  V30 4279 H 406.2 -3.23321 -0.461646 0
M  V30 4280 H 404.859 -3.2632 1.67065 0
M  V30 4281 H 404.507 -5.02959 -0.064503 0
M  V30 4282 H 404.207 -5.66127 1.57397 0
M  V30 4283 H 405.731 -6.06196 0.73203 0
M  V30 4284 H 407.145 -5.02795 2.75446 0
M  V30 4285 H 405.542 -4.85541 3.52661 0
M  V30 4286 H 406.612 -3.44662 3.41081 0
M  V30 4287 N 407.956 -0.998596 -1.21925 0
M  V30 4288 C 408.886 -0.573688 -2.26343 0
M  V30 4289 C 409.867 0.402296 -1.65274 0
M  V30 4290 O 411.052 0.291683 -1.91997 0
M  V30 4291 C 408.182 0.106839 -3.47136 0
M  V30 4292 C 407.136 -0.788269 -4.20678 0
M  V30 4293 C 406.462 0.0254927 -5.34694 0
M  V30 4294 C 407.762 -2.08784 -4.78755 0
M  V30 4295 H 409.456 -1.44651 -2.62138 0
M  V30 4296 H 407.002 -0.696975 -1.26009 0
M  V30 4297 H 408.955 0.415531 -4.19346 0
M  V30 4298 H 407.679 1.01424 -3.10452 0
M  V30 4299 H 406.338 -1.08069 -3.50309 0
M  V30 4300 H 405.986 0.933989 -4.94253 0
M  V30 4301 H 405.686 -0.570437 -5.84825 0
M  V30 4302 H 407.21 0.328147 -6.09718 0
M  V30 4303 H 408.624 -1.84272 -5.42878 0
M  V30 4304 H 407.021 -2.63307 -5.39249 0
M  V30 4305 H 408.091 -2.76284 -3.98491 0
M  V30 4306 N 409.434 1.37368 -0.772513 0
M  V30 4307 C 410.68 1.99969 -0.337681 0
M  V30 4308 C 411.013 1.61184 1.08321 0
M  V30 4309 O 410.288 0.858395 1.74533 0
M  V30 4310 C 410.571 3.56858 -0.482121 0
M  V30 4311 C 410.424 4.0555 -1.94549 0
M  V30 4312 C 411.743 4.39955 0.113143 0
M  V30 4313 H 408.862 0.726464 -0.124171 0
M  V30 4314 H 411.504 1.63034 -0.975699 0
M  V30 4315 H 409.654 3.88452 0.0610361 0
M  V30 4316 H 411.326 3.84518 -2.54841 0
M  V30 4317 H 409.569 3.57715 -2.45403 0
M  V30 4318 H 410.24 5.14587 -1.9976 0
M  V30 4319 H 412.716 4.14623 -0.35031 0
M  V30 4320 H 411.592 5.48897 -0.0180514 0
M  V30 4321 H 411.853 4.25403 1.20354 0
M  V30 4322 N 410.912 0.523116 1.48665 0
M  V30 4323 C 411.822 -0.247406 2.33292 0
M  V30 4324 C 412.838 -0.945769 1.46052 0
M  V30 4325 O 414.014 -0.922253 1.79043 0
M  V30 4326 C 411.079 -1.28487 3.22012 0
M  V30 4327 C 410.14 -0.597592 4.2512 0
M  V30 4328 C 409.373 -1.58563 5.09601 0
M  V30 4329 O 409.596 -2.81763 4.95949 0
M  V30 4330 O 408.53 -1.12879 5.91221 0
M  V30 4331 H 412.356 0.445869 3.00409 0
M  V30 4332 H 409.941 0.284128 1.46673 0
M  V30 4333 H 411.823 -1.88459 3.7691 0
M  V30 4334 H 410.498 -1.96068 2.57564 0
M  V30 4335 H 409.405 0.0424407 3.74076 0
M  V30 4336 H 410.738 0.0361517 4.92187 0
M  V30 4337 N 412.39 -1.55475 0.257931 0
M  V30 4338 C 413.615 -2.04064 -0.370488 0
M  V30 4339 C 414.04 -1.13565 -1.49948 0
M  V30 4340 O 413.398 -0.130781 -1.80828 0
M  V30 4341 C 413.446 -3.50554 -0.845237 0
M  V30 4342 O 412.55 -3.63173 -1.95394 0
M  V30 4343 H 411.891 -0.659257 -0.0792243 0
M  V30 4344 H 414.421 -2.00903 0.387212 0
M  V30 4345 H 414.431 -3.91588 -1.14555 0
M  V30 4346 H 413.106 -4.15896 -0.0191259 0
M  V30 4347 H 411.683 -3.34039 -1.65748 0
M  V30 4348 N 413.868 0.0150385 -1.57593 0
M  V30 4349 C 414.816 1.02958 -2.08572 0
M  V30 4350 C 415.81 1.36554 -1.00246 0
M  V30 4351 O 417.016 1.35295 -1.18724 0
M  V30 4352 H 413.391 0.349619 -0.665786 0
M  V30 4353 H 415.362 0.573932 -2.92829 0
M  V30 4354 C 414.111 2.31752 -2.59203 0
M  V30 4355 H 413.434 2.06765 -3.42182 0
M  V30 4356 H 414.874 3.01053 -2.98568 0
M  V30 4357 C 413.333 3.01692 -1.49945 0
M  V30 4358 O 413.863 3.92083 -0.873704 0
M  V30 4359 N 412.069 2.6326 -1.23056 0
M  V30 4360 H 411.616 1.89838 -1.74125 0
M  V30 4361 H 411.574 3.10372 -0.501685 0
M  V30 4362 N 415.346 1.54954 0.287554 0
M  V30 4363 C 416.293 1.86834 1.35505 0
M  V30 4364 C 417.263 0.718452 1.49758 0
M  V30 4365 O 418.448 0.968358 1.644 0
M  V30 4366 C 415.588 2.13303 2.71286 0
M  V30 4367 C 414.701 3.40883 2.65373 0
M  V30 4368 C 413.836 3.57125 3.93236 0
M  V30 4369 C 412.875 4.78449 3.81776 0
M  V30 4370 N 412.012 4.91426 5.01443 0
M  V30 4371 H 416.852 2.77889 1.07619 0
M  V30 4372 H 414.389 1.37593 0.520241 0
M  V30 4373 H 416.347 2.26646 3.50267 0
M  V30 4374 H 414.977 1.25499 2.97405 0
M  V30 4375 H 414.029 3.36088 1.78182 0
M  V30 4376 H 415.341 4.29993 2.52799 0
M  V30 4377 H 414.495 3.70207 4.80658 0
M  V30 4378 H 413.234 2.66173 4.0866 0
M  V30 4379 H 412.239 4.65386 2.92738 0
M  V30 4380 H 413.464 5.70822 3.67884 0
M  V30 4381 H 411.41 4.03401 5.17304 0
M  V30 4382 H 411.327 5.74559 4.91343 0
M  V30 4383 H 412.595 5.08879 5.90477 0
M  V30 4384 N 416.824 -0.551391 1.4764 0
M  V30 4385 C 417.754 -1.66757 1.63445 0
M  V30 4386 C 418.735 -1.63077 0.483742 0
M  V30 4387 O 419.92 -1.80607 0.71377 0
M  V30 4388 C 417.05 -3.05387 1.65396 0
M  V30 4389 C 416.004 -3.23918 2.79752 0
M  V30 4390 C 415.33 -4.63393 2.66779 0
M  V30 4391 C 416.63 -3.08735 4.21284 0
M  V30 4392 H 418.324 -1.53786 2.56886 0
M  V30 4393 H 415.87 -0.738415 1.23626 0
M  V30 4394 H 417.823 -3.83325 1.75043 0
M  V30 4395 H 416.547 -3.19332 0.685195 0
M  V30 4396 H 415.206 -2.48391 2.69625 0
M  V30 4397 H 414.854 -4.74144 1.67918 0
M  V30 4398 H 414.554 -4.7674 3.43501 0
M  V30 4399 H 416.078 -5.43458 2.78364 0
M  V30 4400 H 417.492 -3.76484 4.32357 0
M  V30 4401 H 415.889 -3.33588 4.98838 0
M  V30 4402 H 416.959 -2.0541 4.39243 0
M  V30 4403 N 418.302 -1.35869 -0.798587 0
M  V30 4404 C 419.527 -1.32883 -1.59238 0
M  V30 4405 C 419.952 0.0894587 -1.87887 0
M  V30 4406 O 419.31 1.05869 -1.47178 0
M  V30 4407 C 419.358 -2.14892 -2.89575 0
M  V30 4408 O 418.462 -1.53512 -3.82763 0
M  V30 4409 H 417.803 -0.455236 -0.48338 0
M  V30 4410 H 420.333 -1.79024 -0.990539 0
M  V30 4411 H 420.343 -2.27139 -3.38928 0
M  V30 4412 H 419.018 -3.17998 -2.68049 0
M  V30 4413 H 417.595 -1.50153 -3.41334 0
M  V30 4414 N 419.78 1.02168 -1.19998 0
M  V30 4415 C 420.727 2.10601 -0.944228 0
M  V30 4416 C 421.697 1.65639 0.123664 0
M  V30 4417 O 422.882 1.9079 -0.0199941 0
M  V30 4418 C 420.022 3.41504 -0.496865 0
M  V30 4419 C 419.135 3.99973 -1.63234 0
M  V30 4420 C 418.27 5.18915 -1.13579 0
M  V30 4421 C 417.309 5.69456 -2.24468 0
M  V30 4422 N 416.446 6.79665 -1.76068 0
M  V30 4423 H 421.286 2.31814 -1.8726 0
M  V30 4424 H 418.823 1.13686 -0.933483 0
M  V30 4425 H 420.781 4.16626 -0.218843 0
M  V30 4426 H 419.411 3.2038 0.394508 0
M  V30 4427 H 418.463 3.21997 -2.0254 0
M  V30 4428 H 419.775 4.33492 -2.46752 0
M  V30 4429 H 418.929 6.01222 -0.813429 0
M  V30 4430 H 417.668 4.8695 -0.270434 0
M  V30 4431 H 416.673 4.85757 -2.57526 0
M  V30 4432 H 417.898 6.03459 -3.11472 0
M  V30 4433 H 415.844 6.49538 -0.918516 0
M  V30 4434 H 415.761 7.12349 -2.5317 0
M  V30 4435 H 417.029 7.65549 -1.46817 0
M  V30 4436 N 421.258 1.00505 1.21394 0
M  V30 4437 C 422.507 0.683159 1.89778 0
M  V30 4438 C 422.82 -0.789471 1.7896 0
M  V30 4439 O 424.026 -1.22344 2.42372 0
M  V30 4440 C 422.482 1.17146 3.40301 0
M  V30 4441 C 422.09 2.67017 3.5973 0
M  V30 4442 C 423.834 0.924461 4.14311 0
M  V30 4443 C 421.741 3.09387 5.04017 0
M  V30 4444 H 420.671 0.25183 0.710702 0
M  V30 4445 H 423.322 1.21622 1.37406 0
M  V30 4446 H 421.704 0.566451 3.91928 0
M  V30 4447 H 422.878 3.32968 3.18542 0
M  V30 4448 H 421.193 2.89732 2.99073 0
M  V30 4449 H 423.79 1.21658 5.20676 0
M  V30 4450 H 424.133 -0.139286 4.16067 0
M  V30 4451 H 424.666 1.49226 3.6875 0
M  V30 4452 H 421.405 4.14989 5.07409 0
M  V30 4453 H 420.925 2.48149 5.46061 0
M  V30 4454 H 422.604 3.01371 5.72525 0
M  V30 4455 N 422.737 -1.36956 0.779787 0
M  V30 4456 C 423.67 -2.27896 0.117681 0
M  V30 4457 C 424.648 -1.46736 -0.700523 0
M  V30 4458 O 425.832 -1.76055 -0.673568 0
M  V30 4459 C 422.959 -3.28136 -0.839296 0
M  V30 4460 C 422.005 -4.26373 -0.10409 0
M  V30 4461 S 422.838 -5.2157 1.21348 0
M  V30 4462 C 423.994 -6.25359 0.260249 0
M  V30 4463 H 424.227 -2.83704 0.888778 0
M  V30 4464 H 421.76 -1.43352 0.57355 0
M  V30 4465 H 423.718 -3.86394 -1.38601 0
M  V30 4466 H 422.379 -2.7126 -1.58356 0
M  V30 4467 H 421.572 -4.97121 -0.82986 0
M  V30 4468 H 421.174 -3.72147 0.371858 0
M  V30 4469 H 423.466 -6.75145 -0.564435 0
M  V30 4470 H 424.409 -7.01885 0.936135 0
M  V30 4471 H 424.817 -5.64345 -0.132127 0
M  V30 4472 N 424.215 -0.530993 -1.48385 0
M  V30 4473 C 425.147 0.268353 -2.27624 0
M  V30 4474 C 426.16 0.903525 -1.35426 0
M  V30 4475 O 427.349 0.781796 -1.60469 0
M  V30 4476 C 424.449 1.39535 -3.08842 0
M  V30 4477 C 423.622 0.861913 -4.28824 0
M  V30 4478 C 422.681 1.87016 -4.91845 0
M  V30 4479 O 421.707 1.4267 -5.5103 0
M  V30 4480 N 422.909 3.20238 -4.84178 0
M  V30 4481 H 425.674 -0.41123 -2.96865 0
M  V30 4482 H 423.235 -0.365387 -1.57723 0
M  V30 4483 H 425.227 2.06803 -3.47871 0
M  V30 4484 H 423.797 1.97859 -2.42014 0
M  V30 4485 H 423.017 0.0132126 -3.94198 0
M  V30 4486 H 424.305 0.484415 -5.06489 0
M  V30 4487 H 423.703 3.58932 -4.37246 0
M  V30 4488 H 422.26 3.83136 -5.27305 0
M  V30 4489 N 425.693 1.55336 -0.266172 0
M  V30 4490 C 426.97 1.91372 0.404486 0
M  V30 4491 C 427.35 1.18935 1.74407 0
M  V30 4492 O 426.698 0.3132 2.26343 0
M  V30 4493 C 426.908 3.44581 0.553593 0
M  V30 4494 C 428.256 4.16196 0.840618 0
M  V30 4495 O 429.28 3.50426 0.638739 0
M  V30 4496 O 428.139 5.32567 1.22618 0
M  V30 4497 H 425.233 0.797194 0.220025 0
M  V30 4498 H 427.779 1.66813 -0.311664 0
M  V30 4499 H 426.551 3.89357 -0.389498 0
M  V30 4500 H 426.174 3.75065 1.31955 0
M  V30 4501 N 427.171 -0.0066808 1.57599 0
M  V30 4502 C 428.448 -0.729586 1.81484 0
M  V30 4503 C 428.828 -1.92359 0.869558 0
M  V30 4504 O 428.176 -2.28348 -0.0832533 0
M  V30 4505 C 428.386 -1.1416 3.29801 0
M  V30 4506 C 429.734 -1.54823 3.95367 0
M  V30 4507 O 430.758 -1.23558 3.34084 0
M  V30 4508 O 429.617 -2.12937 5.03309 0
M  V30 4509 H 426.711 -0.354674 0.747085 0
M  V30 4510 H 429.257 0.0182609 1.6969 0
M  V30 4511 H 428.029 -0.290231 3.90222 0
M  V30 4512 H 427.652 -1.94876 3.46568 0
M  V30 4513 N 428.649 -1.55105 -0.279332 0
M  V30 4514 C 429.579 -1.90557 -1.34945 0
M  V30 4515 C 430.56 -0.766738 -1.51839 0
M  V30 4516 O 431.745 -1.02434 -1.64988 0
M  V30 4517 C 428.875 -2.17193 -2.71006 0
M  V30 4518 C 427.829 -3.33021 -2.68851 0
M  V30 4519 C 427.155 -3.45123 -4.08405 0
M  V30 4520 C 428.455 -4.69578 -2.28678 0
M  V30 4521 H 430.149 -2.80188 -1.05522 0
M  V30 4522 H 427.695 -1.34811 -0.506173 0
M  V30 4523 H 429.648 -2.40581 -3.45975 0
M  V30 4524 H 428.372 -1.24355 -3.01999 0
M  V30 4525 H 427.031 -3.0959 -1.9634 0
M  V30 4526 H 426.679 -2.49762 -4.3661 0
M  V30 4527 H 426.379 -4.22995 -4.07859 0
M  V30 4528 H 427.903 -3.70796 -4.85121 0
M  V30 4529 H 429.317 -4.92553 -2.93368 0
M  V30 4530 H 427.714 -5.5032 -2.39306 0
M  V30 4531 H 428.784 -4.68828 -1.23807 0
M  V30 4532 N 430.127 0.543554 -1.4793 0
M  V30 4533 C 431.075 1.67039 -1.61866 0
M  V30 4534 C 432.069 1.62294 -0.48549 0
M  V30 4535 O 433.275 1.67315 -0.66376 0
M  V30 4536 H 429.65 0.552954 -0.509652 0
M  V30 4537 H 431.621 1.52426 -2.56533 0
M  V30 4538 C 430.37 3.05357 -1.6629 0
M  V30 4539 H 429.693 3.09696 -2.5284 0
M  V30 4540 H 431.133 3.83855 -1.80088 0
M  V30 4541 C 429.592 3.34531 -0.398861 0
M  V30 4542 O 430.122 3.98649 0.494162 0
M  V30 4543 N 428.328 2.89299 -0.2747 0
M  V30 4544 H 427.875 2.37298 -1.00236 0
M  V30 4545 H 427.833 3.09188 0.570075 0
M  V30 4546 N 431.605 1.3629 0.791371 0
M  V30 4547 C 433.021 1.16661 1.08914 0
M  V30 4548 C 433.221 -0.0106266 2.01497 0
M  V30 4549 O 432.277 -0.676596 2.43266 0
M  V30 4550 C 433.59 2.47656 1.70549 0
M  V30 4551 C 435.138 2.54002 1.82899 0
M  V30 4552 C 435.613 3.85078 2.47949 0
M  V30 4553 N 437.104 3.86413 2.5542 0
M  V30 4554 C 437.839 4.84572 3.06557 0
M  V30 4555 N 437.335 5.93124 3.58016 0
M  V30 4556 N 439.128 4.71994 3.05251 0
M  V30 4557 H 431.279 2.11668 0.176238 0
M  V30 4558 H 433.542 0.937486 0.140796 0
M  V30 4559 H 433.248 3.34059 1.09989 0
M  V30 4560 H 433.122 2.63319 2.70079 0
M  V30 4561 H 435.509 1.68018 2.42598 0
M  V30 4562 H 435.59 2.42239 0.821808 0
M  V30 4563 H 435.234 4.71467 1.88895 0
M  V30 4564 H 435.164 3.94135 3.49235 0
M  V30 4565 H 437.655 3.07988 2.18979 0
M  V30 4566 H 437.968 6.63999 3.95381 0
M  V30 4567 H 436.313 5.96796 3.56173 0
M  V30 4568 H 439.504 3.86321 2.64336 0
M  V30 4569 H 439.677 5.48653 3.44796 0
M  V30 4570 N 433.083 -1.0153 1.20538 0
M  V30 4571 C 434.313 -1.78487 1.04048 0
M  V30 4572 C 434.721 -1.84631 -0.413292 0
M  V30 4573 O 434.064 -1.29919 -1.29872 0
M  V30 4574 C 434.126 -3.24367 1.55003 0
M  V30 4575 C 433.79 -3.41827 3.0332 0
M  V30 4576 C 434.787 -3.30941 4.00966 0
M  V30 4577 C 432.472 -3.67602 3.42307 0
M  V30 4578 C 434.466 -3.45577 5.35589 0
M  V30 4579 C 432.153 -3.81881 4.77085 0
M  V30 4580 C 433.151 -3.70874 5.73534 0
M  V30 4581 O 432.839 -3.84714 7.05868 0
M  V30 4582 H 432.571 -0.568108 0.366373 0
M  V30 4583 H 435.125 -1.28677 1.60098 0
M  V30 4584 H 433.355 -3.75266 0.933397 0
M  V30 4585 H 435.044 -3.82963 1.34514 0
M  V30 4586 H 435.81 -3.10964 3.72191 0
M  V30 4587 H 431.689 -3.75256 2.67776 0
M  V30 4588 H 435.233 -3.36902 6.10854 0
M  V30 4589 H 431.13 -4.01359 5.0555 0
M  V30 4590 H 431.898 -4.01724 7.13134 0
M  V30 4591 N 434.561 -1.01147 -1.20859 0
M  V30 4592 C 435.789 -0.716911 -1.94082 0
M  V30 4593 C 436.204 0.721568 -1.74467 0
M  V30 4594 O 435.561 1.48889 -1.05539 0
M  V30 4595 C 435.612 -1.03662 -3.46318 0
M  V30 4596 O 435.333 -2.4186 -3.65288 0
M  V30 4597 C 436.834 -0.762386 -4.36695 0
M  V30 4598 H 434.054 -0.26367 -0.617024 0
M  V30 4599 H 436.598 -1.35127 -1.53496 0
M  V30 4600 H 434.753 -0.447757 -3.84804 0
M  V30 4601 H 435.167 -2.53224 -4.59323 0
M  V30 4602 H 436.641 -1.03621 -5.42187 0
M  V30 4603 H 437.118 0.303514 -4.3815 0
M  V30 4604 H 437.724 -1.33316 -4.03865 0
M  V30 4605 N 436.039 1.36541 -0.78704 0
M  V30 4606 C 437.264 2.0409 -0.369053 0
M  V30 4607 C 437.689 1.58957 1.00569 0
M  V30 4608 O 437.047 0.756926 1.64743 0
M  V30 4609 C 437.095 3.57924 -0.438466 0
M  V30 4610 O 436.199 4.08642 0.555479 0
M  V30 4611 H 435.54 0.645142 -0.157122 0
M  V30 4612 H 438.07 1.74545 -1.06749 0
M  V30 4613 H 438.08 4.06887 -0.301218 0
M  V30 4614 H 436.755 3.90127 -1.44132 0
M  V30 4615 H 435.332 3.70958 0.380088 0
M  V30 4616 N 437.518 0.538854 1.48102 0
M  V30 4617 C 438.758 0.0101209 2.04397 0
M  V30 4618 C 439.122 -1.30741 1.40609 0
M  V30 4619 O 440.323 -1.92272 1.87843 0
M  V30 4620 C 438.594 -0.100232 3.57259 0
M  V30 4621 S 440.153 -0.577746 4.3498 0
M  V30 4622 H 436.971 0.0163171 0.710813 0
M  V30 4623 H 439.573 0.721429 1.81702 0
M  V30 4624 H 438.277 0.863351 4.01216 0
M  V30 4625 H 437.808 -0.835651 3.84422 0
M  V30 4626 H 439.823 -1.84073 4.60794 0
M  V30 4627 O 439.035 -1.56041 0.416352 0
M  V30 4628 H 439.726 -1.93313 -0.122438 0
M  V30 END ATOM
M  V30 BEGIN BOND
M  V30 END BOND
M  V30 END CTAB
M  END
$$$$
