drugbank_target|P06756 Integrin alpha-V (DB00098; DB00451)
 OpenBabel12092120343D

  0  0  0     0  0            999 V3000
M  V30 BEGIN CTAB
M  V30 COUNTS 16223 16401 0 0 0
M  V30 BEGIN ATOM
M  V30 1 H -0.908 1.98254 -0.117106 0
M  V30 2 N 0 1.576 0 0
M  V30 3 C 0.933 2.03868 1.02534 0
M  V30 4 C 1.911 0.928543 1.3348 0
M  V30 5 O 3.095 1.19667 1.45644 0
M  V30 6 C 0.222 2.43627 2.35294 0
M  V30 7 C -0.732 3.65373 2.2001 0
M  V30 8 S 0.101 5.13292 1.52614 0
M  V30 9 C 1.257 5.56322 2.86805 0
M  V30 10 H 1.49 2.90518 0.631377 0
M  V30 11 H -0.977 1.52953 0.210867 0
M  V30 12 H 0.981 2.67203 3.11629 0
M  V30 13 H -0.358 1.57376 2.7183 0
M  V30 14 H -1.165 3.90944 3.18086 0
M  V30 15 H -1.563 3.418 1.51819 0
M  V30 16 H 0.729 5.58782 3.83104 0
M  V30 17 H 1.672 6.56266 2.65933 0
M  V30 18 H 2.08 4.83886 2.90714 0
M  V30 19 N 1.4781 -0.272755 1.55222 0
M  V30 20 C 2.4411 -1.32041 1.87344 0
M  V30 21 C 3.4411 -1.42342 0.74803 0
M  V30 22 O 4.6311 -1.41488 1.0162 0
M  V30 23 C 1.7631 -2.70173 2.07893 0
M  V30 24 H 2.9561 -1.04789 2.80997 0
M  V30 25 H 0.5091 -0.51083 1.47717 0
M  V30 26 H 1.2441 -3.02605 1.16622 0
M  V30 27 H 1.0291 -2.64082 2.89833 0
M  V30 28 H 2.5191 -3.45869 2.34017 0
M  V30 29 N 2.9562 -1.48159 -0.537278 0
M  V30 30 C 4.2032 -1.55804 -1.29349 0
M  V30 31 C 4.5312 -0.228802 -1.9315 0
M  V30 32 O 3.7862 0.780242 -1.79473 0
M  V30 33 C 4.0852 -2.63956 -2.40961 0
M  V30 34 C 3.7512 -4.0662 -1.94861 0
M  V30 35 C 2.4132 -4.45452 -1.82006 0
M  V30 36 C 4.7652 -4.96055 -1.59933 0
M  V30 37 C 2.0932 -5.71531 -1.32547 0
M  V30 38 C 4.4452 -6.22617 -1.11939 0
M  V30 39 C 3.1092 -6.60312 -0.976951 0
M  V30 40 H 2.3792 -0.570129 -0.473322 0
M  V30 41 H 5.0262 -1.81845 -0.600372 0
M  V30 42 H 3.3312 -2.31747 -3.15912 0
M  V30 43 H 5.0282 -2.67089 -2.99107 0
M  V30 44 H 1.6182 -3.75949 -2.05815 0
M  V30 45 H 5.8022 -4.66738 -1.68728 0
M  V30 46 H 1.0582 -5.99468 -1.202 0
M  V30 47 H 5.2322 -6.91318 -0.839811 0
M  V30 48 H 2.8592 -7.57895 -0.591501 0
M  V30 49 N 4.4343 0.785586 -1.36625 0
M  V30 50 C 5.8453 1.36101 -1.27803 0
M  V30 51 C 6.1963 1.96035 0.0804875 0
M  V30 52 O 5.3213 1.92834 0.982042 0
M  V30 53 C 5.9163 2.47442 -2.31426 0
M  V30 54 C 4.4753 3.00789 -2.26281 0
M  V30 55 C 3.6223 1.73896 -2.15999 0
M  V30 56 H 6.5733 0.586928 -1.47448 0
M  V30 57 H 6.5943 3.2656 -1.95291 0
M  V30 58 H 6.1063 2.03791 -3.30289 0
M  V30 59 H 4.2073 3.48851 -1.30896 0
M  V30 60 H 4.3203 3.57343 -3.19128 0
M  V30 61 H 2.6843 1.9628 -1.62316 0
M  V30 62 H 3.4673 1.32368 -3.16755 0
M  V30 63 N 5.9124 1.20967 1.01018 0
M  V30 64 C 7.3234 1.02319 1.56165 0
M  V30 65 C 7.6744 -0.418546 1.91684 0
M  V30 66 O 6.7994 -1.30096 1.72928 0
M  V30 67 C 7.3944 1.85109 2.8376 0
M  V30 68 C 5.9534 1.70809 3.35412 0
M  V30 69 C 5.1004 1.82643 2.08655 0
M  V30 70 H 8.0514 1.35065 0.833255 0
M  V30 71 H 8.0724 1.35827 3.55431 0
M  V30 72 H 7.5844 2.90035 2.57878 0
M  V30 73 H 5.6854 0.685464 3.66241 0
M  V30 74 H 5.7984 2.52467 4.07182 0
M  V30 75 H 4.1624 1.25896 2.21409 0
M  V30 76 H 4.9454 2.89066 1.85191 0
M  V30 77 N 7.3905 -1.2043 1.01659 0
M  V30 78 C 8.8065 -1.41852 0.731442 0
M  V30 79 C 9.0065 -1.89358 -0.688898 0
M  V30 80 O 8.0625 -2.06247 -1.45666 0
M  V30 81 C 9.3755 -2.44019 1.75714 0
M  V30 82 C 10.9235 -2.57785 1.77527 0
M  V30 83 C 11.3985 -3.63194 2.79023 0
M  V30 84 N 12.8895 -3.70678 2.77763 0
M  V30 85 C 13.6245 -4.51897 3.52954 0
M  V30 86 N 13.1205 -5.36921 4.37821 0
M  V30 87 N 14.9135 -4.4643 3.41551 0
M  V30 88 H 7.0645 -0.879093 1.93354 0
M  V30 89 H 9.3275 -0.448425 0.835236 0
M  V30 90 H 9.0335 -2.1611 2.77469 0
M  V30 91 H 8.9075 -3.43007 1.56927 0
M  V30 92 H 11.2945 -2.85023 0.764569 0
M  V30 93 H 11.3755 -1.58992 2.00387 0
M  V30 94 H 11.0195 -3.36699 3.80258 0
M  V30 95 H 10.9495 -4.61609 2.53425 0
M  V30 96 H 13.4405 -3.09944 2.16201 0
M  V30 97 H 13.7535 -5.95981 4.91962 0
M  V30 98 H 12.0985 -5.36424 4.41899 0
M  V30 99 H 15.2895 -3.79042 2.74672 0
M  V30 100 H 15.4625 -5.09491 4.00404 0
M  V30 101 N 8.8686 -0.792821 -1.36206 0
M  V30 102 C 10.2846 -0.474903 -1.52371 0
M  V30 103 C 10.4846 1.00622 -1.74578 0
M  V30 104 O 9.5406 1.79162 -1.77924 0
M  V30 105 C 10.8536 -1.3083 -2.70747 0
M  V30 106 C 12.4016 -1.30234 -2.84619 0
M  V30 107 C 12.8766 -2.11956 -4.06004 0
M  V30 108 N 14.3676 -2.09419 -4.13156 0
M  V30 109 C 15.1026 -2.69419 -5.06163 0
M  V30 110 N 14.5986 -3.3829 -6.04592 0
M  V30 111 N 16.3916 -2.59134 -4.98804 0
M  V30 112 H 8.5426 -1.75222 -1.20046 0
M  V30 113 H 10.8056 -0.745024 -0.586211 0
M  V30 114 H 10.5116 -2.35881 -2.6087 0
M  V30 115 H 10.3856 -0.95196 -3.6499 0
M  V30 116 H 12.7726 -0.259748 -2.93955 0
M  V30 117 H 12.8536 -1.69847 -1.91274 0
M  V30 118 H 12.4976 -3.16248 -3.97429 0
M  V30 119 H 12.4276 -1.69711 -4.98503 0
M  V30 120 H 14.9186 -1.59297 -3.42685 0
M  V30 121 H 15.2316 -3.81394 -6.7213 0
M  V30 122 H 13.5766 -3.42393 -6.04807 0
M  V30 123 H 16.7676 -2.04927 -4.20859 0
M  V30 124 H 16.9406 -3.06185 -5.711 0
M  V30 125 N 10.3467 1.47872 -0.545128 0
M  V30 126 C 11.7627 1.5829 -0.204032 0
M  V30 127 C 11.9627 1.54529 1.29317 0
M  V30 128 O 11.0187 1.44232 2.07252 0
M  V30 129 C 12.3317 2.89304 -0.819987 0
M  V30 130 C 13.8797 3.02864 -0.790105 0
M  V30 131 C 14.3547 4.3656 -1.38491 0
M  V30 132 N 15.8457 4.43165 -1.34755 0
M  V30 133 C 16.5807 5.45153 -1.77753 0
M  V30 134 N 16.0767 6.54016 -2.2855 0
M  V30 135 N 17.8697 5.36125 -1.68897 0
M  V30 136 H 10.0207 1.4856 -1.51802 0
M  V30 137 H 12.2837 0.706305 -0.632327 0
M  V30 138 H 11.9897 2.97757 -1.87173 0
M  V30 139 H 11.8637 3.75957 -0.305915 0
M  V30 140 H 14.2507 2.94014 0.252913 0
M  V30 141 H 14.3317 2.17782 -1.34181 0
M  V30 142 H 13.9757 4.46164 -2.42693 0
M  V30 143 H 13.9057 5.20353 -0.808754 0
M  V30 144 H 16.3967 3.65083 -0.975855 0
M  V30 145 H 16.7097 7.27994 -2.59314 0
M  V30 146 H 15.0547 6.54938 -2.32553 0
M  V30 147 H 18.2457 4.49975 -1.28998 0
M  V30 148 H 18.4187 6.15472 -2.02726 0
M  V30 149 N 11.8248 0.280983 1.55075 0
M  V30 150 C 12.7548 -0.597469 2.25727 0
M  V30 151 C 13.7358 -1.15417 1.24952 0
M  V30 152 O 14.9208 -1.18722 1.53684 0
M  V30 153 C 12.0508 -1.7789 2.98283 0
M  V30 154 C 11.0048 -1.35347 4.06036 0
M  V30 155 C 10.3308 -2.61846 4.66198 0
M  V30 156 C 11.6308 -0.499354 5.19907 0
M  V30 157 H 13.3248 -0.00824265 2.99399 0
M  V30 158 H 10.8708 -0.0025244 1.44 0
M  V30 159 H 12.8238 -2.39937 3.46422 0
M  V30 160 H 11.5478 -2.39405 2.22155 0
M  V30 161 H 10.2068 -0.756156 3.58717 0
M  V30 162 H 9.8548 -3.21632 3.86732 0
M  V30 163 H 9.5548 -2.3409 5.38958 0
M  V30 164 H 11.0788 -3.24732 5.1709 0
M  V30 165 H 12.4928 -1.02498 5.64063 0
M  V30 166 H 10.8898 -0.316424 5.99265 0
M  V30 167 H 11.9598 0.480459 4.82514 0
M  V30 168 N 13.3029 -1.57598 0.00835791 0
M  V30 169 C 14.7189 -1.55764 -0.347822 0
M  V30 170 C 14.9189 -1.01186 -1.74252 0
M  V30 171 O 13.9749 -0.649371 -2.44007 0
M  V30 172 C 15.2879 -2.99927 -0.215407 0
M  V30 173 C 16.8359 -3.11656 -0.289725 0
M  V30 174 C 17.3109 -4.57621 -0.18634 0
M  V30 175 N 18.8019 -4.62557 -0.243978 0
M  V30 176 C 19.5369 -5.73094 -0.18745 0
M  V30 177 N 19.0329 -6.92753 -0.0810331 0
M  V30 178 N 20.8259 -5.61588 -0.239925 0
M  V30 179 H 12.9769 -1.91411 0.92062 0
M  V30 180 H 15.2399 -0.879562 0.353659 0
M  V30 181 H 14.9459 -3.43729 0.744512 0
M  V30 182 H 14.8199 -3.63865 -0.994097 0
M  V30 183 H 17.2069 -2.67779 -1.24009 0
M  V30 184 H 17.2879 -2.5048 0.51898 0
M  V30 185 H 16.9319 -5.02174 0.760519 0
M  V30 186 H 16.8619 -5.16752 -1.01364 0
M  V30 187 H 19.3529 -3.76481 -0.327217 0
M  V30 188 H 19.6659 -7.72787 -0.0440241 0
M  V30 189 H 18.0109 -6.94984 -0.0465419 0
M  V30 190 H 21.2019 -4.66996 -0.321317 0
M  V30 191 H 21.3749 -6.47714 -0.192407 0
M  V30 192 N 14.781 0.264519 -1.55364 0
M  V30 193 C 15.711 1.33121 -1.91836 0
M  V30 194 C 16.692 1.51101 -0.781192 0
M  V30 195 O 17.877 1.64003 -1.04003 0
M  V30 196 C 15.007 2.68921 -2.19769 0
M  V30 197 C 13.961 2.65661 -3.35571 0
M  V30 198 C 13.287 4.05093 -3.49004 0
M  V30 199 C 14.587 2.24187 -4.71739 0
M  V30 200 H 16.281 1.02844 -2.81182 0
M  V30 201 H 13.827 0.493286 -1.35287 0
M  V30 202 H 15.78 3.43663 -2.43872 0
M  V30 203 H 14.504 3.00799 -1.27231 0
M  V30 204 H 13.163 1.93377 -3.1145 0
M  V30 205 H 12.811 4.34206 -2.53917 0
M  V30 206 H 12.511 4.03804 -4.26868 0
M  V30 207 H 14.035 4.81561 -3.75408 0
M  V30 208 H 15.449 2.88654 -4.9533 0
M  V30 209 H 13.846 2.34044 -5.52579 0
M  V30 210 H 14.916 1.19327 -4.69988 0
M  V30 211 N 16.2591 1.48442 0.529413 0
M  V30 212 C 17.5071 1.56179 1.28267 0
M  V30 213 C 17.8281 0.237721 1.93546 0
M  V30 214 O 17.0981 -0.740779 1.81354 0
M  V30 215 H 15.6781 0.575367 0.476405 0
M  V30 216 H 18.3401 1.84909 0.61602 0
M  V30 217 H 17.4361 2.34312 2.06165 0
M  V30 218 N 17.7372 -0.778329 1.37039 0
M  V30 219 C 19.1482 -1.35421 1.28523 0
M  V30 220 C 19.4992 -1.96075 -0.0700901 0
M  V30 221 O 18.6242 -1.93352 -0.971801 0
M  V30 222 C 19.2192 -2.46211 2.32735 0
M  V30 223 C 17.7782 -2.99585 2.27873 0
M  V30 224 C 16.9252 -1.72748 2.16918 0
M  V30 225 H 19.8762 -0.5791 1.47757 0
M  V30 226 H 19.8972 -3.2552 1.9702 0
M  V30 227 H 19.4092 -2.02036 3.31365 0
M  V30 228 H 17.5102 -3.48152 1.32745 0
M  V30 229 H 17.6232 -3.55646 3.21018 0
M  V30 230 H 15.9872 -1.95416 1.63354 0
M  V30 231 H 16.7702 -1.30686 3.17452 0
M  V30 232 N 19.2153 -1.21501 -1.00376 0
M  V30 233 C 20.6313 -0.972629 -1.26539 0
M  V30 234 C 20.8313 0.340257 -1.98606 0
M  V30 235 O 19.8873 1.06561 -2.28913 0
M  V30 236 C 21.2003 -2.16404 -2.08781 0
M  V30 237 C 22.7483 -2.20643 -2.22004 0
M  V30 238 C 23.2233 -3.39306 -3.07629 0
M  V30 239 N 24.7143 -3.39401 -3.15217 0
M  V30 240 C 25.4493 -4.27867 -3.81729 0
M  V30 241 N 24.9453 -5.26533 -4.5026 0
M  V30 242 N 26.7383 -4.15672 -3.78382 0
M  V30 243 H 18.8893 -2.05929 -0.520281 0
M  V30 244 H 21.1523 -0.901803 -0.292328 0
M  V30 245 H 20.8583 -3.11554 -1.63178 0
M  V30 246 H 20.7323 -2.15567 -3.09533 0
M  V30 247 H 23.1193 -1.26048 -2.66825 0
M  V30 248 H 23.2003 -2.25523 -1.20718 0
M  V30 249 H 22.8443 -4.34195 -2.63509 0
M  V30 250 H 22.7743 -3.31665 -4.09031 0
M  V30 251 H 25.2653 -2.67997 -2.66432 0
M  V30 252 H 25.5783 -5.90337 -4.98721 0
M  V30 253 H 23.9233 -5.30457 -4.49044 0
M  V30 254 H 27.1143 -3.3785 -3.23998 0
M  V30 255 H 27.2873 -4.84825 -4.2994 0
M  V30 256 N 20.6934 1.19889 -1.02296 0
M  V30 257 C 21.9414 1.89046 -0.714558 0
M  V30 258 C 22.2624 1.79636 0.758681 0
M  V30 259 O 21.5324 1.20292 1.54618 0
M  V30 260 H 20.1124 0.699802 -0.261317 0
M  V30 261 H 22.7744 1.45574 -1.29592 0
M  V30 262 H 21.8704 2.95524 -1.0036 0
M  V30 263 N 22.1715 0.800033 1.35784 0
M  V30 264 C 23.1015 0.220184 2.3246 0
M  V30 265 C 24.0825 -0.65073 1.57161 0
M  V30 266 O 25.2675 -0.582359 1.85263 0
M  V30 267 C 22.3975 -0.637353 3.41402 0
M  V30 268 C 21.3515 0.134531 4.27789 0
M  V30 269 C 20.6775 -0.844285 5.27992 0
M  V30 270 C 21.9775 1.32979 5.05088 0
M  V30 271 H 23.6715 1.02787 2.81203 0
M  V30 272 H 21.2175 0.495717 1.35199 0
M  V30 273 H 23.1705 -1.05302 4.08031 0
M  V30 274 H 21.8945 -1.47785 2.91251 0
M  V30 275 H 20.5535 0.531296 3.6273 0
M  V30 276 H 20.2015 -1.68011 4.74111 0
M  V30 277 H 19.9015 -0.332184 5.8666 0
M  V30 278 H 21.4255 -1.2583 5.97494 0
M  V30 279 H 22.8395 0.98934 5.64699 0
M  V30 280 H 21.2365 1.77593 5.7322 0
M  V30 281 H 22.3065 2.11978 4.36111 0
M  V30 282 N 23.6496 -1.47581 0.552962 0
M  V30 283 C 25.0606 -1.86324 0.118463 0
M  V30 284 C 25.4116 -1.46006 -1.3106 0
M  V30 285 O 24.5366 -0.861182 -1.98526 0
M  V30 286 C 25.1316 -3.3816 0.20821 0
M  V30 287 C 23.6906 -3.7601 -0.171226 0
M  V30 288 C 22.8376 -2.71634 0.557686 0
M  V30 289 H 25.7886 -1.39159 0.762928 0
M  V30 290 H 25.8096 -3.76141 -0.574278 0
M  V30 291 H 25.3216 -3.67473 1.24841 0
M  V30 292 H 23.4226 -3.52313 -1.21269 0
M  V30 293 H 23.5356 -4.78745 0.184379 0
M  V30 294 H 21.8996 -2.547 0.00125792 0
M  V30 295 H 22.6826 -3.0379 1.59896 0
M  V30 296 N 25.1277 -0.289203 -1.54924 0
M  V30 297 C 26.0577 0.58549 -2.2604 0
M  V30 298 C 27.0387 1.14753 -1.25562 0
M  V30 299 O 28.2237 1.17906 -1.54311 0
M  V30 300 C 25.3537 1.76305 -2.99222 0
M  V30 301 C 24.3077 1.33191 -4.06748 0
M  V30 302 C 23.6337 2.5937 -4.6758 0
M  V30 303 C 24.9337 0.471775 -5.20165 0
M  V30 304 H 26.6277 -0.00763532 -2.99399 0
M  V30 305 H 24.1737 -0.00511229 -1.43999 0
M  V30 306 H 26.1267 2.38097 -3.47689 0
M  V30 307 H 24.8507 2.38223 -2.23422 0
M  V30 308 H 23.5097 0.737121 -3.59113 0
M  V30 309 H 23.1577 3.19576 -3.88433 0
M  V30 310 H 22.8577 2.31228 -5.40192 0
M  V30 311 H 24.3817 3.21985 -5.18804 0
M  V30 312 H 25.7957 0.995056 -5.64599 0
M  V30 313 H 24.1927 0.284639 -5.99425 0
M  V30 314 H 25.2627 -0.506041 -4.82252 0
M  V30 315 N 26.6058 1.57591 -0.0167156 0
M  V30 316 C 27.5358 2.12496 0.967858 0
M  V30 317 C 28.5168 1.03807 1.34752 0
M  V30 318 O 29.7018 1.31577 1.42833 0
M  V30 319 C 26.8318 2.64194 2.25431 0
M  V30 320 C 25.7858 3.77559 2.01576 0
M  V30 321 C 25.1118 4.15636 3.36379 0
M  V30 322 C 26.4118 5.04151 1.36489 0
M  V30 323 H 28.1058 2.95013 0.510643 0
M  V30 324 H 25.6518 1.41915 0.244181 0
M  V30 325 H 27.6048 3.01236 2.94678 0
M  V30 326 H 26.3288 1.78821 2.73296 0
M  V30 327 H 24.9878 3.40937 1.34751 0
M  V30 328 H 24.6358 3.27263 3.81979 0
M  V30 329 H 24.3358 4.92022 3.21229 0
M  V30 330 H 25.8598 4.5525 4.06915 0
M  V30 331 H 27.2738 5.38857 1.95718 0
M  V30 332 H 25.6708 5.85453 1.31776 0
M  V30 333 H 26.7408 4.83733 0.336219 0
M  V30 334 N 28.0839 -0.256276 1.55502 0
M  V30 335 C 29.0139 -1.32102 1.92539 0
M  V30 336 C 29.9949 -1.50684 0.789194 0
M  V30 337 O 31.1799 -1.63449 1.04872 0
M  V30 338 C 28.3099 -2.67752 2.21192 0
M  V30 339 C 27.2639 -2.63878 3.36975 0
M  V30 340 C 26.5899 -4.03236 3.51147 0
M  V30 341 C 27.8899 -2.21682 4.72921 0
M  V30 342 H 29.5839 -1.01351 2.81724 0
M  V30 343 H 27.1299 -0.486105 1.35547 0
M  V30 344 H 29.0829 -3.42365 2.45691 0
M  V30 345 H 27.8069 -3.0012 1.28824 0
M  V30 346 H 26.4659 -1.91722 3.12471 0
M  V30 347 H 26.1139 -4.32854 2.56216 0
M  V30 348 H 25.8139 -4.01535 4.29003 0
M  V30 349 H 27.3379 -4.79563 3.77957 0
M  V30 350 H 28.7519 -2.86023 4.96854 0
M  V30 351 H 27.1489 -2.3111 5.53812 0
M  V30 352 H 28.2189 -1.16833 4.70615 0
M  V30 353 N 29.562 -1.4872 -0.521534 0
M  V30 354 C 30.787 -1.61101 -1.30618 0
M  V30 355 C 31.212 -0.274611 -1.86085 0
M  V30 356 O 30.57 0.754937 -1.64834 0
M  V30 357 C 30.618 -2.66709 -2.4269 0
M  V30 358 O 29.722 -2.24456 -3.45967 0
M  V30 359 H 29.063 -0.539921 -0.386499 0
M  V30 360 H 31.593 -1.94767 -0.626645 0
M  V30 361 H 31.603 -2.88245 -2.88754 0
M  V30 362 H 30.278 -3.63727 -2.01682 0
M  V30 363 H 28.855 -2.13168 -3.05964 0
M  V30 364 N 31.0401 0.771051 -1.3745 0
M  V30 365 C 32.2881 1.52661 -1.32435 0
M  V30 366 C 32.6091 1.9479 0.0905024 0
M  V30 367 O 31.8791 1.66348 1.03466 0
M  V30 368 H 30.4591 0.566218 -0.487244 0
M  V30 369 H 33.1211 0.917636 -1.71946 0
M  V30 370 H 32.2171 2.42568 -1.96385 0
M  V30 371 N 32.5182 1.22032 0.997298 0
M  V30 372 C 33.4482 1.01065 2.10495 0
M  V30 373 C 34.4292 -0.0669542 1.69968 0
M  V30 374 O 35.6142 0.0943987 1.9397 0
M  V30 375 C 32.7442 0.582874 3.42374 0
M  V30 376 C 31.6982 1.60592 3.96729 0
M  V30 377 C 31.0242 1.03412 5.24605 0
M  V30 378 C 32.3242 2.99478 4.27914 0
M  V30 379 H 34.0182 1.93708 2.28292 0
M  V30 380 H 31.5642 0.932761 1.09707 0
M  V30 381 H 33.5172 0.423332 4.19268 0
M  V30 382 H 32.2412 -0.379213 3.24391 0
M  V30 383 H 30.9002 1.75316 3.21963 0
M  V30 384 H 30.5482 0.063518 5.0296 0
M  V30 385 H 30.2482 1.71754 5.61938 0
M  V30 386 H 31.7722 0.886066 6.04137 0
M  V30 387 H 33.1862 2.88153 4.95622 0
M  V30 388 H 31.5832 3.64903 4.76409 0
M  V30 389 H 32.6532 3.49742 3.3587 0
M  V30 390 N 33.9963 -1.19345 1.0293 0
M  V30 391 C 34.9263 -2.2481 0.631105 0
M  V30 392 C 35.9073 -1.66245 -0.360104 0
M  V30 393 O 37.0923 -1.92677 -0.242726 0
M  V30 394 C 34.2223 -3.47295 -0.0184607 0
M  V30 395 C 33.1763 -4.18536 0.895073 0
M  V30 396 C 32.5023 -5.34586 0.110592 0
M  V30 397 C 33.8023 -4.73287 2.209 0
M  V30 398 H 35.4963 -2.58372 1.51275 0
M  V30 399 H 33.0423 -1.24194 0.728818 0
M  V30 400 H 34.9953 -4.20268 -0.308675 0
M  V30 401 H 33.7193 -3.12933 -0.934907 0
M  V30 402 H 32.3783 -3.47446 1.16949 0
M  V30 403 H 32.0263 -4.96469 -0.807902 0
M  V30 404 H 31.7263 -5.83183 0.719087 0
M  V30 405 H 33.2503 -6.10355 -0.172871 0
M  V30 406 H 34.6643 -5.38013 1.98028 0
M  V30 407 H 33.0613 -5.32373 2.76946 0
M  V30 408 H 34.1313 -3.91331 2.86336 0
M  V30 409 N 35.4744 -0.807222 -1.35358 0
M  V30 410 C 36.4044 -0.232509 -2.3234 0
M  V30 411 C 37.3854 0.642386 -1.57504 0
M  V30 412 O 38.5704 0.572526 -1.85569 0
M  V30 413 C 35.7004 0.619238 -3.41735 0
M  V30 414 C 34.6544 -0.157215 -4.27711 0
M  V30 415 C 33.9804 0.816273 -5.28433 0
M  V30 416 C 35.2804 -1.35656 -5.04376 0
M  V30 417 H 36.9744 -1.04276 -2.80654 0
M  V30 418 H 34.5204 -0.50288 -1.34934 0
M  V30 419 H 36.4734 1.03137 -4.08584 0
M  V30 420 H 35.1974 1.46239 -2.92031 0
M  V30 421 H 33.8564 -0.550525 -3.62443 0
M  V30 422 H 33.5044 1.65494 -4.74996 0
M  V30 423 H 33.2044 0.301067 -5.86828 0
M  V30 424 H 34.7284 1.22659 -5.98153 0
M  V30 425 H 36.1424 -1.01927 -5.64166 0
M  V30 426 H 34.5394 -1.8063 -5.7227 0
M  V30 427 H 35.6094 -2.14288 -4.34981 0
M  V30 428 N 36.9525 1.47285 -0.560781 0
M  V30 429 C 38.3635 1.86258 -0.128343 0
M  V30 430 C 38.7145 1.46699 1.30284 0
M  V30 431 O 37.8395 0.871698 1.98067 0
M  V30 432 C 38.4345 3.38044 -0.22614 0
M  V30 433 C 36.9935 3.76096 0.151283 0
M  V30 434 C 36.1405 2.71335 -0.572084 0
M  V30 435 H 39.0915 1.38752 -0.770297 0
M  V30 436 H 39.1125 3.76441 0.554322 0
M  V30 437 H 38.6245 3.66806 -1.26788 0
M  V30 438 H 36.7255 3.52951 1.19399 0
M  V30 439 H 36.8385 4.78641 -0.209765 0
M  V30 440 H 35.2025 2.54696 -0.0147653 0
M  V30 441 H 35.9855 3.02938 -1.61504 0
M  V30 442 N 38.4306 0.297415 1.54768 0
M  V30 443 C 39.3606 -0.573494 2.26348 0
M  V30 444 C 40.3416 -1.14085 1.26169 0
M  V30 445 O 41.5266 -1.17086 1.54934 0
M  V30 446 C 38.6566 -1.74716 3.00153 0
M  V30 447 C 37.6106 -1.31032 4.07449 0
M  V30 448 C 36.9366 -2.56887 4.68949 0
M  V30 449 C 38.2366 -0.444183 5.20408 0
M  V30 450 H 39.9306 0.0235131 2.99391 0
M  V30 451 H 37.4766 0.0127488 1.43994 0
M  V30 452 H 39.4296 -2.3625 3.48947 0
M  V30 453 H 38.1536 -2.37035 2.24682 0
M  V30 454 H 36.8126 -0.718066 3.59499 0
M  V30 455 H 36.4606 -3.17512 3.90122 0
M  V30 456 H 36.1606 -2.2836 5.41411 0
M  V30 457 H 37.6846 -3.19229 5.20505 0
M  V30 458 H 39.0986 -0.9651 5.65118 0
M  V30 459 H 37.4956 -0.252846 5.99567 0
M  V30 460 H 38.5656 0.531609 4.81977 0
M  V30 461 N 39.9087 -1.5758 0.0250728 0
M  V30 462 C 41.1487 -1.93497 -0.65865 0
M  V30 463 C 41.5127 -0.901409 -1.69525 0
M  V30 464 O 42.7137 -1.14664 -2.43116 0
M  V30 465 C 40.9847 -3.34352 -1.26267 0
M  V30 466 S 42.5437 -3.92191 -1.96803 0
M  V30 467 H 39.3617 -0.67709 -0.216958 0
M  V30 468 H 41.9637 -1.95303 0.0877692 0
M  V30 469 H 40.6677 -4.07395 -0.495741 0
M  V30 470 H 40.1987 -3.3598 -2.04648 0
M  V30 471 H 42.2137 -3.75298 -3.24601 0
M  V30 472 N 41.3868 0.248026 -1.55636 0
M  V30 473 C 42.8028 0.596483 -1.48035 0
M  V30 474 C 43.0028 1.88386 -0.715039 0
M  V30 475 O 42.0588 2.51319 -0.243944 0
M  V30 476 C 43.3718 0.700258 -2.92433 0
M  V30 477 C 44.9198 0.792659 -3.02797 0
M  V30 478 C 45.3948 0.928005 -4.485 0
M  V30 479 N 46.8858 0.992903 -4.52433 0
M  V30 480 C 47.6208 1.11687 -5.62418 0
M  V30 481 N 47.1168 1.20645 -6.82214 0
M  V30 482 N 48.9098 1.14994 -5.50212 0
M  V30 483 H 41.0608 -0.597109 -2.03834 0
M  V30 484 H 43.3238 -0.205925 -0.925364 0
M  V30 485 H 43.0298 -0.175658 -3.51261 0
M  V30 486 H 42.9038 1.57255 -3.42857 0
M  V30 487 H 45.2908 1.65903 -2.4405 0
M  V30 488 H 45.3718 -0.104762 -2.55585 0
M  V30 489 H 45.0158 0.0661971 -5.07857 0
M  V30 490 H 44.9458 1.84045 -4.93391 0
M  V30 491 H 47.4368 0.935064 -3.66149 0
M  V30 492 H 47.7498 1.30008 -7.61786 0
M  V30 493 H 46.0948 1.17605 -6.84977 0
M  V30 494 H 49.2858 1.07643 -4.55555 0
M  V30 495 H 49.4588 1.24311 -6.35965 0
M  V30 496 N 42.8649 1.48995 0.513639 0
M  V30 497 C 43.8279 1.64229 1.59879 0
M  V30 498 C 44.8279 0.514696 1.5234 0
M  V30 499 O 46.0179 0.78087 1.55718 0
M  V30 500 C 43.1499 1.62783 2.99524 0
M  V30 501 H 44.3429 2.61004 1.47705 0
M  V30 502 H 41.8959 1.37837 0.736936 0
M  V30 503 H 42.6309 0.675461 3.17188 0
M  V30 504 H 42.4159 2.4466 3.06404 0
M  V30 505 H 43.9059 1.76669 3.78388 0
M  V30 506 N 44.343 -0.763751 1.37857 0
M  V30 507 C 45.59 -1.52257 1.33506 0
M  V30 508 C 45.918 -1.94343 -0.078022 0
M  V30 509 O 45.173 -1.64958 -1.05297 0
M  V30 510 C 45.472 -2.79499 2.22745 0
M  V30 511 C 45.138 -2.56426 3.70886 0
M  V30 512 C 43.8 -2.49842 4.11257 0
M  V30 513 C 46.152 -2.36008 4.64704 0
M  V30 514 C 43.48 -2.20841 5.43549 0
M  V30 515 C 45.832 -2.0853 5.97242 0
M  V30 516 C 44.496 -2.00396 6.36709 0
M  V30 517 H 43.766 -0.557149 0.488534 0
M  V30 518 H 46.413 -0.879073 1.70131 0
M  V30 519 H 44.718 -3.48447 1.79142 0
M  V30 520 H 46.415 -3.37413 2.16688 0
M  V30 521 H 43.005 -2.62416 3.38874 0
M  V30 522 H 47.189 -2.40079 4.34368 0
M  V30 523 H 42.445 -2.13045 5.73081 0
M  V30 524 H 46.619 -1.91732 6.69486 0
M  V30 525 H 44.246 -1.77688 7.39142 0
M  V30 526 N 45.8211 -1.22559 -0.990812 0
M  V30 527 C 46.7691 -0.994798 -2.10253 0
M  V30 528 C 47.7631 0.0627798 -1.69284 0
M  V30 529 O 48.9691 -0.0898392 -1.79776 0
M  V30 530 H 45.3441 -0.304527 -0.687581 0
M  V30 531 H 47.3151 -1.93812 -2.26891 0
M  V30 532 C 46.0641 -0.591439 -3.42633 0
M  V30 533 H 45.3871 -1.3969 -3.74602 0
M  V30 534 H 46.8271 -0.469385 -4.21394 0
M  V30 535 C 45.2861 0.699232 -3.29564 0
M  V30 536 O 45.8161 1.75112 -3.61523 0
M  V30 537 N 44.0221 0.671182 -2.82743 0
M  V30 538 H 43.5691 -0.185136 -2.56934 0
M  V30 539 H 43.5271 1.53502 -2.7438 0
M  V30 540 N 47.2992 1.18797 -1.03562 0
M  V30 541 C 48.2292 2.24472 -0.643019 0
M  V30 542 C 49.2102 1.66433 0.351283 0
M  V30 543 O 50.3952 1.92803 0.232505 0
M  V30 544 C 47.5252 3.473 4.24935e-05 0
M  V30 545 C 46.4792 4.18055 -0.917257 0
M  V30 546 C 45.8052 5.34519 -0.138941 0
M  V30 547 C 47.1052 4.72109 -2.23407 0
M  V30 548 H 48.7992 2.57566 -1.52643 0
M  V30 549 H 46.3452 1.23806 -0.735394 0
M  V30 550 H 48.2982 4.20426 0.286383 0
M  V30 551 H 47.0222 3.13424 0.918299 0
M  V30 552 H 45.6812 3.46821 -1.1879 0
M  V30 553 H 45.3292 4.96891 0.781562 0
M  V30 554 H 45.0292 5.82794 -0.750005 0
M  V30 555 H 46.5532 6.10438 0.1405 0
M  V30 556 H 47.9672 5.36955 -2.00879 0
M  V30 557 H 46.3642 5.30897 -2.79765 0
M  V30 558 H 47.4342 3.89807 -2.88407 0
M  V30 559 N 48.7773 0.814389 1.34928 0
M  V30 560 C 50.0543 0.321363 1.92942 0
M  V30 561 C 50.4343 -1.19014 1.74353 0
M  V30 562 O 49.7823 -1.99328 1.11716 0
M  V30 563 C 49.9923 0.741323 3.41036 0
M  V30 564 C 51.3403 0.735266 4.18185 0
M  V30 565 O 52.3643 0.68336 3.49584 0
M  V30 566 O 51.2233 0.800703 5.40602 0
M  V30 567 H 48.3173 0.0858893 0.822528 0
M  V30 568 H 50.8633 0.898609 1.43955 0
M  V30 569 H 49.6353 1.78276 3.4833 0
M  V30 570 H 49.2583 0.139307 3.97356 0
M  V30 571 N 50.2554 -1.46986 0.568584 0
M  V30 572 C 51.5014 -2.02741 0.0488709 0
M  V30 573 C 51.8344 -1.44077 -1.30214 0
M  V30 574 O 51.1094 -0.600552 -1.84996 0
M  V30 575 C 51.3924 -3.60086 -0.032047 0
M  V30 576 C 51.2454 -4.29162 1.34686 0
M  V30 577 C 52.5644 -4.33838 -0.739798 0
M  V30 578 H 49.6834 -0.736749 0.0192338 0
M  V30 579 H 52.3254 -1.75289 0.733065 0
M  V30 580 H 50.4754 -3.83606 -0.61473 0
M  V30 581 H 52.1474 -4.16948 1.97362 0
M  V30 582 H 50.3904 -3.89073 1.91846 0
M  V30 583 H 51.0614 -5.37826 1.24285 0
M  V30 584 H 53.5374 -4.15378 -0.244939 0
M  V30 585 H 52.4134 -5.43537 -0.765406 0
M  V30 586 H 52.6744 -4.03875 -1.79827 0
M  V30 587 N 51.7335 -0.305618 -1.54608 0
M  V30 588 C 53.0105 0.355652 -1.92339 0
M  V30 589 C 53.3905 1.71324 -1.23335 0
M  V30 590 O 52.7385 2.25473 -0.370702 0
M  V30 591 C 52.9485 0.46572 -3.45879 0
M  V30 592 C 54.2965 0.734426 -4.182 0
M  V30 593 O 55.3205 0.54935 -3.51938 0
M  V30 594 O 54.1795 1.09024 -5.35515 0
M  V30 595 H 51.2735 0.199666 -0.802535 0
M  V30 596 H 53.8195 -0.354017 -1.65966 0
M  V30 597 H 52.5915 -0.488461 -3.88239 0
M  V30 598 H 52.2145 1.22367 -3.78301 0
M  V30 599 N 53.2116 1.57565 -0.0334293 0
M  V30 600 C 54.4366 1.96689 0.657895 0
M  V30 601 C 54.8616 0.910057 1.64619 0
M  V30 602 O 54.2196 -0.128598 1.80843 0
M  V30 603 C 54.2676 3.34905 1.33683 0
M  V30 604 O 53.3716 3.31574 2.45219 0
M  V30 605 H 52.7126 0.641205 0.172489 0
M  V30 606 H 55.2426 2.04372 -0.0965621 0
M  V30 607 H 55.2526 3.71234 1.69262 0
M  V30 608 H 53.9276 4.11366 0.612411 0
M  V30 609 H 52.5046 3.06968 2.11719 0
M  V30 610 N 54.6897 -0.239769 1.55765 0
M  V30 611 C 56.1007 -0.808263 1.68297 0
M  V30 612 C 56.4517 -1.85736 0.632181 0
M  V30 613 O 55.5767 -2.15277 -0.220204 0
M  V30 614 C 56.1717 -1.47284 3.05111 0
M  V30 615 C 54.7307 -1.98895 3.19559 0
M  V30 616 C 53.8777 -0.842575 2.64189 0
M  V30 617 H 56.8287 -0.0154422 1.58692 0
M  V30 618 H 56.8497 -2.34111 2.99954 0
M  V30 619 H 56.3617 -0.709053 3.81568 0
M  V30 620 H 54.4627 -2.78132 2.47938 0
M  V30 621 H 54.5757 -2.18143 4.26556 0
M  V30 622 H 52.9397 -1.24501 2.22197 0
M  V30 623 H 53.7227 -0.0917552 3.43177 0
M  V30 624 N 56.1678 -1.49265 -0.50573 0
M  V30 625 C 57.1308 -1.65075 -1.59006 0
M  V30 626 C 58.1308 -0.522768 -1.52065 0
M  V30 627 O 59.3208 -0.789117 -1.55302 0
M  V30 628 C 56.4528 -1.64369 -2.98656 0
M  V30 629 H 57.6458 -2.61784 -1.46319 0
M  V30 630 H 55.1988 -1.38226 -0.729616 0
M  V30 631 H 55.9338 -0.692272 -3.16825 0
M  V30 632 H 55.7188 -2.46282 -3.05103 0
M  V30 633 H 57.2088 -1.78674 -3.77446 0
M  V30 634 N 57.6459 0.756429 -1.3826 0
M  V30 635 C 58.5559 1.9009 -1.37488 0
M  V30 636 C 59.5719 1.71855 -0.272366 0
M  V30 637 O 60.7479 1.94827 -0.510318 0
M  V30 638 C 57.8129 3.25421 -1.19592 0
M  V30 639 C 56.8739 3.56202 -2.39622 0
M  V30 640 C 56.1069 4.85075 -2.2257 0
M  V30 641 O 56.3299 5.57246 -1.21793 0
M  V30 642 O 55.2639 5.15269 -3.11098 0
M  V30 643 H 59.0899 1.93695 -2.33914 0
M  V30 644 H 56.6749 0.901313 -1.1915 0
M  V30 645 H 58.5569 4.06337 -1.11661 0
M  V30 646 H 57.2319 3.22634 -0.262486 0
M  V30 647 H 56.1389 2.75458 -2.53128 0
M  V30 648 H 57.4719 3.63747 -3.31586 0
M  V30 649 N 59.124 1.23083 0.984299 0
M  V30 650 C 60.354 1.08556 1.75781 0
M  V30 651 C 60.762 -0.366171 1.85623 0
M  V30 652 O 60.105 -1.26524 1.33182 0
M  V30 653 C 60.167 1.63208 3.20318 0
M  V30 654 C 59.831 3.11922 3.33997 0
M  V30 655 C 60.828 4.09259 3.2063 0
M  V30 656 C 58.513 3.51552 3.58771 0
M  V30 657 C 60.507 5.4421 3.31835 0
M  V30 658 C 58.194 4.86649 3.69616 0
M  V30 659 C 59.192 5.82787 3.56157 0
M  V30 660 O 58.88 7.15431 3.66626 0
M  V30 661 H 58.612 0.380713 0.5586 0
M  V30 662 H 61.166 1.63321 1.2456 0
M  V30 663 H 59.396 1.0286 3.72769 0
M  V30 664 H 61.085 1.44216 3.79416 0
M  V30 665 H 61.851 3.79984 3.01392 0
M  V30 666 H 57.73 2.77239 3.6832 0
M  V30 667 H 61.274 6.1923 3.21247 0
M  V30 668 H 57.171 5.15601 3.88363 0
M  V30 669 H 57.939 7.23127 3.83445 0
M  V30 670 N 60.6021 -1.18246 1.0419 0
M  V30 671 C 61.8271 -1.92736 0.765996 0
M  V30 672 C 62.2521 -1.75728 -0.67091 0
M  V30 673 O 61.6101 -1.06825 -1.46486 0
M  V30 674 C 61.6581 -3.42148 1.13875 0
M  V30 675 O 60.7621 -4.11548 0.264954 0
M  V30 676 H 60.1031 -0.601238 0.281797 0
M  V30 677 H 62.6331 -1.49942 1.39207 0
M  V30 678 H 62.6431 -3.92858 1.1012 0
M  V30 679 H 61.3181 -3.53848 2.18551 0
M  V30 680 H 59.8951 -3.71137 0.362226 0
M  V30 681 N 62.0802 -0.821533 -1.34494 0
M  V30 682 C 63.3282 -0.408139 -1.97936 0
M  V30 683 C 63.6492 1.03193 -1.65457 0
M  V30 684 O 62.9192 1.71622 -0.944595 0
M  V30 685 H 61.4992 -0.147928 -0.732206 0
M  V30 686 H 64.1612 -1.05067 -1.64155 0
M  V30 687 H 63.2572 -0.52601 -3.07635 0
M  V30 688 N 63.5583 1.46682 -0.576371 0
M  V30 689 C 64.9693 1.86112 -0.148091 0
M  V30 690 C 65.3203 1.48073 1.2872 0
M  V30 691 O 64.4453 0.892656 1.97131 0
M  V30 692 C 65.0403 3.37786 -0.261982 0
M  V30 693 C 63.5993 3.76235 0.111384 0
M  V30 694 C 62.7463 2.70713 -0.60083 0
M  V30 695 H 65.6973 1.37927 -0.78497 0
M  V30 696 H 65.7183 3.77007 0.514364 0
M  V30 697 H 65.2303 3.6544 -1.30671 0
M  V30 698 H 63.3313 3.54198 1.15649 0
M  V30 699 H 63.4443 4.78391 -0.26052 0
M  V30 700 H 61.8083 2.54666 -0.0417783 0
M  V30 701 H 62.5913 3.01208 -1.64708 0
M  V30 702 N 65.0364 0.313813 1.54444 0
M  V30 703 C 65.9464 -0.565714 2.27677 0
M  V30 704 C 66.9624 -1.13754 1.31666 0
M  V30 705 O 68.1384 -1.15959 1.64668 0
M  V30 706 C 65.2034 -1.71528 3.01296 0
M  V30 707 C 64.2644 -1.17624 4.12872 0
M  V30 708 C 63.4974 -2.27102 4.8297 0
M  V30 709 O 63.7204 -3.47256 4.52514 0
M  V30 710 O 62.6544 -1.9307 5.70094 0
M  V30 711 H 66.4804 0.0287296 3.03686 0
M  V30 712 H 64.0654 0.0798312 1.49187 0
M  V30 713 H 65.9474 -2.38476 3.4743 0
M  V30 714 H 64.6224 -2.29608 2.2817 0
M  V30 715 H 63.5294 -0.472124 3.71109 0
M  V30 716 H 64.8624 -0.640695 4.88012 0
M  V30 717 N 66.5145 -1.57545 0.0417849 0
M  V30 718 C 67.7625 -1.91937 -0.632829 0
M  V30 719 C 68.0835 -0.919978 -1.71934 0
M  V30 720 O 67.3535 0.0366064 -1.95866 0
M  V30 721 H 65.9335 -0.708493 -0.236742 0
M  V30 722 H 68.5955 -1.9468 0.0925745 0
M  V30 723 H 67.6915 -2.92912 -1.07746 0
M  V30 724 N 67.9926 0.231505 -1.5589 0
M  V30 725 C 69.2176 0.978689 -1.82856 0
M  V30 726 C 69.6426 1.77559 -0.620846 0
M  V30 727 O 69.0006 1.76119 0.430305 0
M  V30 728 C 69.0486 1.87997 -3.07716 0
M  V30 729 O 68.1526 2.97393 -2.85712 0
M  V30 730 H 67.4936 0.277663 -0.603158 0
M  V30 731 H 70.0236 0.24783 -2.03093 0
M  V30 732 H 70.0336 2.2917 -3.37558 0
M  V30 733 H 68.7086 1.29417 -3.95252 0
M  V30 734 H 67.2856 2.60238 -2.67078 0
M  V30 735 N 69.4707 1.49531 0.497807 0
M  V30 736 C 70.7007 1.62657 1.27382 0
M  V30 737 C 71.1087 0.298488 1.86831 0
M  V30 738 O 70.4517 -0.72647 1.68725 0
M  V30 739 C 70.5137 2.6393 2.44093 0
M  V30 740 C 70.1777 4.08195 2.05489 0
M  V30 741 C 71.1747 4.949 1.59279 0
M  V30 742 C 68.8597 4.53948 2.15026 0
M  V30 743 C 70.8537 6.25397 1.23113 0
M  V30 744 C 68.5407 5.84458 1.78473 0
M  V30 745 C 69.5387 6.70006 1.32591 0
M  V30 746 O 69.2267 7.98083 0.965327 0
M  V30 747 H 68.9587 0.550429 0.392434 0
M  V30 748 H 71.5127 1.96325 0.603801 0
M  V30 749 H 69.7427 2.25449 3.14181 0
M  V30 750 H 71.4317 2.66552 3.06113 0
M  V30 751 H 72.1977 4.60779 1.51354 0
M  V30 752 H 68.0767 3.87525 2.4969 0
M  V30 753 H 71.6207 6.92125 0.872299 0
M  V30 754 H 67.5177 6.18107 1.86048 0
M  V30 755 H 68.2857 8.11122 1.09652 0
M  V30 756 N 70.9488 -0.749086 1.3866 0
M  V30 757 C 72.1958 -1.50833 1.35114 0
M  V30 758 C 72.5238 -1.94415 -0.0574049 0
M  V30 759 O 71.7788 -1.66065 -1.03541 0
M  V30 760 C 72.0778 -2.7712 2.25697 0
M  V30 761 C 71.7438 -2.52477 3.73585 0
M  V30 762 C 70.4058 -2.45466 4.13884 0
M  V30 763 C 72.7578 -2.31066 4.67181 0
M  V30 764 C 70.0858 -2.15064 5.45861 0
M  V30 765 C 72.4378 -2.02183 5.9942 0
M  V30 766 C 71.1018 -1.93631 6.38798 0
M  V30 767 H 70.3718 -0.551936 0.494416 0
M  V30 768 H 73.0188 -0.860979 1.71054 0
M  V30 769 H 71.3238 -3.46528 1.82827 0
M  V30 770 H 73.0208 -3.35096 2.20254 0
M  V30 771 H 69.6108 -2.58807 3.41638 0
M  V30 772 H 73.7948 -2.35459 4.3689 0
M  V30 773 H 69.0508 -2.06954 5.75308 0
M  V30 774 H 73.2248 -1.8462 6.71482 0
M  V30 775 H 70.8518 -1.69839 7.40985 0
M  V30 776 N 72.4269 -1.23603 -0.977757 0
M  V30 777 C 73.6749 -1.06759 -1.71601 0
M  V30 778 C 73.9959 0.395929 -1.90938 0
M  V30 779 O 73.2659 1.28356 -1.47992 0
M  V30 780 H 71.8459 -0.392062 -0.635843 0
M  V30 781 H 74.5079 -1.55362 -1.1768 0
M  V30 782 H 73.6039 -1.55763 -2.70452 0
M  V30 783 N 73.905 1.17692 -1.04816 0
M  V30 784 C 75.152 1.87859 -0.75599 0
M  V30 785 C 75.48 1.80812 0.716752 0
M  V30 786 O 74.735 1.20819 1.53952 0
M  V30 787 C 75.034 3.37462 -1.17703 0
M  V30 788 C 74.7 3.64713 -2.65133 0
M  V30 789 C 73.362 3.71859 -3.05408 0
M  V30 790 C 75.714 3.76492 -3.60421 0
M  V30 791 C 73.042 3.88271 -4.39843 0
M  V30 792 C 75.394 3.94421 -4.94585 0
M  V30 793 C 74.058 3.99806 -5.3452 0
M  V30 794 H 73.328 0.687425 -0.276636 0
M  V30 795 H 75.975 1.39255 -1.31455 0
M  V30 796 H 74.28 3.88097 -0.537395 0
M  V30 797 H 75.977 3.90109 -0.928218 0
M  V30 798 H 72.567 3.59772 -2.32942 0
M  V30 799 H 76.751 3.70295 -3.30447 0
M  V30 800 H 72.007 3.90687 -4.70291 0
M  V30 801 H 76.181 4.02477 -5.68318 0
M  V30 802 H 73.808 4.12276 -6.38696 0
M  V30 803 N 75.3831 0.828654 1.34056 0
M  V30 804 C 76.3461 0.259927 2.27721 0
M  V30 805 C 77.3461 -0.565478 1.50529 0
M  V30 806 O 78.5361 -0.38075 1.69988 0
M  V30 807 C 75.6681 -0.634944 3.34935 0
M  V30 808 H 76.8611 1.0863 2.79534 0
M  V30 809 H 74.4141 0.600951 1.44285 0
M  V30 810 H 75.1491 -1.48416 2.88346 0
M  V30 811 H 74.9341 -0.0444999 3.92075 0
M  V30 812 H 76.4241 -1.02648 4.04788 0
M  V30 813 N 76.8612 -1.46375 0.584142 0
M  V30 814 C 78.1072 -2.02678 0.0703716 0
M  V30 815 C 78.4402 -1.4545 -1.28678 0
M  V30 816 O 77.7152 -0.62014 -1.84349 0
M  V30 817 C 77.9982 -3.60099 0.00614674 0
M  V30 818 C 77.8512 -4.27709 1.3923 0
M  V30 819 C 79.1702 -4.34598 -0.693742 0
M  V30 820 H 76.2892 -0.736504 0.027047 0
M  V30 821 H 78.9312 -1.74501 0.751615 0
M  V30 822 H 77.0812 -3.84236 -0.574009 0
M  V30 823 H 78.7532 -4.14832 2.01773 0
M  V30 824 H 76.9962 -3.87016 1.95962 0
M  V30 825 H 77.6672 -5.36478 1.29982 0
M  V30 826 H 80.1432 -4.15615 -0.200869 0
M  V30 827 H 79.0192 -5.44318 -0.707714 0
M  V30 828 H 79.2802 -4.05759 -1.75533 0
M  V30 829 N 78.3393 -0.321999 -1.54275 0
M  V30 830 C 79.6163 0.335232 -1.92706 0
M  V30 831 C 79.9963 1.70006 -1.25145 0
M  V30 832 O 79.3443 2.25067 -0.394596 0
M  V30 833 C 79.5543 0.429008 -3.46353 0
M  V30 834 C 80.9023 0.690029 -4.18956 0
M  V30 835 O 81.9263 0.511992 -3.52501 0
M  V30 836 O 80.7853 1.03338 -5.36641 0
M  V30 837 H 77.8793 0.191143 -0.804608 0
M  V30 838 H 80.4253 -0.3716 -1.65581 0
M  V30 839 H 79.1973 -0.529611 -3.87699 0
M  V30 840 H 78.8203 1.18348 -3.79578 0
M  V30 841 N 79.8174 1.5752 -0.0501392 0
M  V30 842 C 81.0644 1.9265 0.623874 0
M  V30 843 C 81.3924 0.928411 1.70912 0
M  V30 844 O 80.6474 -0.0594525 1.9561 0
M  V30 845 C 80.9464 3.34467 1.25963 0
M  V30 846 C 80.6124 4.49883 0.302689 0
M  V30 847 C 79.2744 4.81184 0.0393636 0
M  V30 848 C 81.6264 5.20002 -0.353205 0
M  V30 849 C 78.9544 5.79951 -0.887308 0
M  V30 850 C 81.3064 6.1976 -1.26806 0
M  V30 851 C 79.9704 6.49491 -1.54007 0
M  V30 852 H 79.2404 0.704957 0.228292 0
M  V30 853 H 81.8874 1.91146 -0.116398 0
M  V30 854 H 80.1924 3.32333 2.07514 0
M  V30 855 H 81.8894 3.58928 1.78806 0
M  V30 856 H 78.4794 4.25457 0.518109 0
M  V30 857 H 82.6634 4.96033 -0.162854 0
M  V30 858 H 77.9194 6.01322 -1.10553 0
M  V30 859 H 82.0934 6.73205 -1.78236 0
M  V30 860 H 79.7204 7.25837 -2.25976 0
M  V30 861 N 81.2955 -0.223234 1.56011 0
M  V30 862 C 82.5425 -0.947875 1.78946 0
M  V30 863 C 82.8705 -1.844 0.618608 0
M  V30 864 O 82.1255 -1.91629 -0.397093 0
M  V30 865 C 82.4245 -1.81948 3.0762 0
M  V30 866 C 82.0905 -1.07672 4.37856 0
M  V30 867 C 80.7525 -0.871544 4.73242 0
M  V30 868 C 83.1045 -0.552081 5.18268 0
M  V30 869 C 80.4325 -0.129791 5.86556 0
M  V30 870 C 82.7845 0.17632 6.32354 0
M  V30 871 C 81.4485 0.39277 6.66343 0
M  V30 872 H 80.7185 -0.346852 0.654809 0
M  V30 873 H 83.3655 -0.216171 1.90276 0
M  V30 874 H 81.6705 -2.61899 2.91404 0
M  V30 875 H 83.3675 -2.38227 3.22566 0
M  V30 876 H 79.9575 -1.24662 4.1007 0
M  V30 877 H 84.1415 -0.698076 4.91366 0
M  V30 878 H 79.3975 0.048153 6.11381 0
M  V30 879 H 83.5715 0.590367 6.93893 0
M  V30 880 H 81.1985 0.969466 7.53993 0
M  V30 881 N 82.7736 -1.49793 -0.48987 0
M  V30 882 C 84.0196 -1.60078 -1.24511 0
M  V30 883 C 84.3526 -0.291608 -1.91998 0
M  V30 884 O 83.6276 0.705647 -1.81248 0
M  V30 885 C 83.9106 -2.76791 -2.30345 0
M  V30 886 C 83.7636 -4.17535 -1.67286 0
M  V30 887 C 85.0826 -2.89111 -3.31817 0
M  V30 888 H 82.2016 -0.582645 -0.451324 0
M  V30 889 H 84.8436 -1.82117 -0.541612 0
M  V30 890 H 82.9936 -2.5813 -2.90346 0
M  V30 891 H 84.6656 -4.4774 -1.11026 0
M  V30 892 H 82.9086 -4.22665 -0.976577 0
M  V30 893 H 83.5796 -4.95094 -2.44103 0
M  V30 894 H 86.0556 -3.06133 -2.81819 0
M  V30 895 H 84.9316 -3.72433 -4.03219 0
M  V30 896 H 85.1926 -1.9893 -3.94815 0
M  V30 897 N 84.2517 0.741722 -1.39055 0
M  V30 898 C 85.6627 1.31966 -1.32068 0
M  V30 899 C 86.0137 1.96192 0.0180797 0
M  V30 900 O 85.1387 1.95861 0.920196 0
M  V30 901 C 85.7337 2.39954 -2.39181 0
M  V30 902 C 84.2927 2.93438 -2.35735 0
M  V30 903 C 83.4397 1.66936 -2.21422 0
M  V30 904 H 86.3907 0.539721 -1.4924 0
M  V30 905 H 86.4117 3.20182 -2.05581 0
M  V30 906 H 85.9237 1.9318 -3.36605 0
M  V30 907 H 84.0247 3.4451 -1.41929 0
M  V30 908 H 84.1377 3.4701 -3.30335 0
M  V30 909 H 82.5017 1.91016 -1.68478 0
M  V30 910 H 83.2847 1.22224 -3.20806 0
M  V30 911 N 85.7298 1.2412 0.971189 0
M  V30 912 C 86.9548 1.10667 1.75407 0
M  V30 913 C 87.3798 -0.337048 1.85056 0
M  V30 914 O 86.7378 -1.24396 1.31892 0
M  V30 915 C 86.7858 1.74726 3.15441 0
M  V30 916 O 85.8898 1.01566 3.99697 0
M  V30 917 H 85.2308 0.387341 0.539317 0
M  V30 918 H 87.7608 1.64358 1.2185 0
M  V30 919 H 87.7708 1.80341 3.6598 0
M  V30 920 H 86.4458 2.79773 3.07734 0
M  V30 921 H 85.0228 1.03713 3.58187 0
M  V30 922 N 87.2079 -1.17134 1.05439 0
M  V30 923 C 88.1709 -2.19439 0.661764 0
M  V30 924 C 89.1709 -1.58199 -0.288042 0
M  V30 925 O 90.3609 -1.74053 -0.0715803 0
M  V30 926 C 87.4929 -3.40889 -0.0276209 0
M  V30 927 H 88.6859 -2.55688 1.56728 0
M  V30 928 H 86.2389 -1.31259 0.848567 0
M  V30 929 H 86.9739 -3.10187 -0.94629 0
M  V30 930 H 86.7589 -3.86586 0.655238 0
M  V30 931 H 88.2489 -4.16603 -0.288342 0
M  V30 932 N 88.686 -0.835752 -1.33615 0
M  V30 933 C 89.911 -0.442389 -2.02627 0
M  V30 934 C 90.336 0.947735 -1.62479 0
M  V30 935 O 89.694 1.61907 -0.815826 0
M  V30 936 C 89.742 -0.567216 -3.56111 0
M  V30 937 O 88.846 0.407799 -4.10379 0
M  V30 938 H 88.187 -0.180278 -0.639059 0
M  V30 939 H 90.717 -1.12972 -1.70583 0
M  V30 940 H 90.727 -0.447708 -4.05536 0
M  V30 941 H 89.402 -1.58103 -3.84677 0
M  V30 942 H 87.979 0.246107 -3.72087 0
M  V30 943 N 90.1641 1.46063 -0.591896 0
M  V30 944 C 91.3891 2.07226 -0.0850314 0
M  V30 945 C 91.8141 1.43625 1.21463 0
M  V30 946 O 91.1721 0.523305 1.73583 0
M  V30 947 C 91.2201 3.60554 0.0576567 0
M  V30 948 O 90.3241 3.97128 1.11188 0
M  V30 949 H 89.6651 0.660615 -0.0669568 0
M  V30 950 H 92.1951 1.8756 -0.81745 0
M  V30 951 H 92.2051 4.07165 0.2609 0
M  V30 952 H 90.8801 4.06235 -0.891416 0
M  V30 953 H 89.4571 3.62213 0.886356 0
M  V30 954 N 91.6422 0.330177 1.54103 0
M  V30 955 C 93.0582 -0.0222371 1.59585 0
M  V30 956 C 93.2582 -1.49902 1.34654 0
M  V30 957 O 92.3142 -2.25592 1.13421 0
M  V30 958 C 93.6272 0.401932 2.98002 0
M  V30 959 C 95.1752 0.353145 3.11001 0
M  V30 960 C 95.6502 0.752576 4.51775 0
M  V30 961 N 97.1412 0.706239 4.57784 0
M  V30 962 C 97.8762 0.987417 5.64834 0
M  V30 963 N 97.3722 1.33607 6.79795 0
M  V30 964 N 99.1652 0.91254 5.54643 0
M  V30 965 H 91.3162 1.29228 1.68564 0
M  V30 966 H 93.5792 0.525906 0.78875 0
M  V30 967 H 93.2852 1.4311 3.21267 0
M  V30 968 H 93.1592 -0.229699 3.765 0
M  V30 969 H 95.5462 -0.666822 2.87467 0
M  V30 970 H 95.6272 1.0198 2.34593 0
M  V30 971 H 95.2712 1.77049 4.76042 0
M  V30 972 H 95.2012 0.0635409 5.26562 0
M  V30 973 H 97.6922 0.44889 3.75224 0
M  V30 974 H 98.0052 1.53582 7.57385 0
M  V30 975 H 96.3502 1.37439 6.81275 0
M  V30 976 H 99.5412 0.639601 4.6371 0
M  V30 977 H 99.7142 1.13503 6.37982 0
M  V30 978 N 93.1203 -1.57491 0.0584922 0
M  V30 979 C 94.0533 -2.07533 -0.948969 0
M  V30 980 C 95.0313 -0.977444 -1.29942 0
M  V30 981 O 96.2153 -1.2499 -1.41102 0
M  V30 982 C 93.3423 -2.52192 -2.2609 0
M  V30 983 C 92.3883 -3.73287 -2.06298 0
M  V30 984 S 93.2213 -5.18603 -1.33459 0
M  V30 985 C 94.3773 -5.66583 -2.65959 0
M  V30 986 H 94.6103 -2.92662 -0.523118 0
M  V30 987 H 92.1433 -1.53631 -0.153954 0
M  V30 988 H 94.1013 -2.78585 -3.01498 0
M  V30 989 H 92.7623 -1.67356 -2.65802 0
M  V30 990 H 91.9553 -4.0248 -3.03357 0
M  V30 991 H 91.5573 -3.47199 -1.39029 0
M  V30 992 H 93.8493 -5.72616 -3.62101 0
M  V30 993 H 94.7923 -6.65684 -2.41393 0
M  V30 994 H 95.2003 -4.94342 -2.72554 0
M  V30 995 N 94.5984 0.214957 -1.56127 0
M  V30 996 C 95.8454 0.938372 -1.79446 0
M  V30 997 C 96.1734 1.8407 -0.628378 0
M  V30 998 O 95.4284 1.91837 0.386925 0
M  V30 999 C 95.7274 1.80314 -3.0858 0
M  V30 1000 C 95.3934 1.05349 -4.3842 0
M  V30 1001 C 94.0554 0.846435 -4.73697 0
M  V30 1002 C 96.4074 0.524588 -5.18553 0
M  V30 1003 C 93.7354 0.098683 -5.86617 0
M  V30 1004 C 96.0874 -0.209853 -6.32252 0
M  V30 1005 C 94.7514 -0.428102 -6.66126 0
M  V30 1006 H 94.0214 0.343375 -0.656639 0
M  V30 1007 H 96.6684 0.206077 -1.90388 0
M  V30 1008 H 94.9734 2.6035 -2.92789 0
M  V30 1009 H 96.6704 2.36513 -3.23825 0
M  V30 1010 H 93.2604 1.22486 -4.10725 0
M  V30 1011 H 97.4444 0.672008 -4.91729 0
M  V30 1012 H 92.7004 -0.0805753 -6.11347 0
M  V30 1013 H 96.8744 -0.627157 -6.9357 0
M  V30 1014 H 94.5014 -1.00944 -7.53468 0
M  V30 1015 N 96.0765 1.50051 0.48192 0
M  V30 1016 C 97.0065 1.71046 1.58951 0
M  V30 1017 C 97.9875 0.559288 1.60642 0
M  V30 1018 O 99.1725 0.797243 1.77081 0
M  V30 1019 C 96.3025 1.79462 2.97339 0
M  V30 1020 C 95.2565 2.94558 3.10515 0
M  V30 1021 C 94.5825 2.88105 4.50444 0
M  V30 1022 C 95.8825 4.35227 2.88747 0
M  V30 1023 H 97.5765 2.6378 1.41635 0
M  V30 1024 H 95.1225 1.26936 0.679942 0
M  V30 1025 H 97.0755 1.92734 3.74742 0
M  V30 1026 H 95.7995 0.833412 3.15788 0
M  V30 1027 H 94.4585 2.80918 2.35543 0
M  V30 1028 H 94.1065 1.89853 4.65795 0
M  V30 1029 H 93.8065 3.65366 4.60197 0
M  V30 1030 H 95.3305 3.03412 5.29881 0
M  V30 1031 H 96.7445 4.49449 3.55905 0
M  V30 1032 H 95.1415 5.13856 3.09955 0
M  V30 1033 H 96.2115 4.48347 1.84696 0
M  V30 1034 N 97.5546 -0.734337 1.39446 0
M  V30 1035 C 98.4846 -1.86155 1.40955 0
M  V30 1036 C 99.4656 -1.67898 0.272827 0
M  V30 1037 O 100.651 -1.88207 0.478743 0
M  V30 1038 C 97.7806 -3.23912 1.25294 0
M  V30 1039 C 96.7346 -3.56808 2.36373 0
M  V30 1040 C 96.0606 -4.93508 2.058 0
M  V30 1041 C 97.3606 -3.59713 3.78687 0
M  V30 1042 H 99.0546 -1.8515 2.35287 0
M  V30 1043 H 96.6006 -0.889367 1.13253 0
M  V30 1044 H 98.5536 -4.02443 1.2497 0
M  V30 1045 H 97.2776 -3.25446 0.274308 0
M  V30 1046 H 95.9366 -2.80606 2.35914 0
M  V30 1047 H 95.5846 -4.91623 1.06374 0
M  V30 1048 H 95.2846 -5.16486 2.80208 0
M  V30 1049 H 96.8086 -5.74396 2.07128 0
M  V30 1050 H 98.2226 -4.2832 3.81071 0
M  V30 1051 H 96.6196 -3.94209 4.52459 0
M  V30 1052 H 97.6896 -2.59504 4.09617 0
M  V30 1053 N 99.0327 -1.24633 -0.964593 0
M  V30 1054 C 100.279 -1.08949 -1.71049 0
M  V30 1055 C 100.612 0.370302 -1.90637 0
M  V30 1056 O 99.8867 1.27349 -1.47011 0
M  V30 1057 C 100.17 -1.83329 -3.0994 0
M  V30 1058 C 100.023 -3.37077 -2.97824 0
M  V30 1059 C 101.342 -1.60846 -4.09654 0
M  V30 1060 H 98.4607 -0.397178 -0.620821 0
M  V30 1061 H 101.103 -1.5334 -1.12191 0
M  V30 1062 H 99.2527 -1.45597 -3.60186 0
M  V30 1063 H 100.925 -3.84425 -2.5498 0
M  V30 1064 H 99.1677 -3.65298 -2.33965 0
M  V30 1065 H 99.8387 -3.84324 -3.96231 0
M  V30 1066 H 102.315 -1.93674 -3.68279 0
M  V30 1067 H 101.191 -2.1534 -5.04896 0
M  V30 1068 H 101.452 -0.547434 -4.38698 0
M  V30 1069 N 100.511 1.16574 -1.06058 0
M  V30 1070 C 101.759 1.86677 -0.77434 0
M  V30 1071 C 102.08 1.81959 0.701147 0
M  V30 1072 O 101.35 1.2515 1.50713 0
M  V30 1073 H 99.9298 0.691134 -0.283449 0
M  V30 1074 H 102.592 1.41378 -1.34158 0
M  V30 1075 H 101.688 2.92181 -1.09711 0
M  V30 1076 N 101.989 0.842826 1.3317 0
M  V30 1077 C 102.952 0.284065 2.27433 0
M  V30 1078 C 103.952 -0.54948 1.5112 0
M  V30 1079 O 105.142 -0.362699 1.70382 0
M  V30 1080 C 102.274 -0.599384 3.35589 0
M  V30 1081 H 103.467 1.11589 2.78366 0
M  V30 1082 H 101.02 0.616221 1.4364 0
M  V30 1083 H 101.755 -1.45349 2.89904 0
M  V30 1084 H 101.54 -0.00291266 3.921 0
M  V30 1085 H 103.03 -0.983488 4.05854 0
M  V30 1086 N 103.467 -1.45747 0.599634 0
M  V30 1087 C 104.878 -1.85853 0.177681 0
M  V30 1088 C 105.229 -1.50102 -1.26348 0
M  V30 1089 O 104.354 -0.923905 -1.95686 0
M  V30 1090 C 104.949 -3.37326 0.315688 0
M  V30 1091 C 103.508 -3.76365 -0.0515144 0
M  V30 1092 C 102.655 -2.69722 0.643822 0
M  V30 1093 H 105.606 -1.36661 0.806814 0
M  V30 1094 H 105.627 -3.77778 -0.454321 0
M  V30 1095 H 105.139 -3.63315 1.36468 0
M  V30 1096 H 103.24 -3.55993 -1.09999 0
M  V30 1097 H 103.353 -4.77916 0.336594 0
M  V30 1098 H 101.717 -2.54567 0.0822881 0
M  V30 1099 H 102.5 -2.98549 1.6948 0
M  V30 1100 N 104.945 -0.338344 -1.53925 0
M  V30 1101 C 105.892 0.520845 -2.24846 0
M  V30 1102 C 106.862 1.09976 -1.24477 0
M  V30 1103 O 108.047 1.13735 -1.53196 0
M  V30 1104 C 105.187 1.6685 -3.02084 0
M  V30 1105 C 104.3 1.11739 -4.17299 0
M  V30 1106 C 103.435 2.23193 -4.82036 0
M  V30 1107 C 102.474 1.65407 -5.89328 0
M  V30 1108 N 101.611 2.70582 -6.47866 0
M  V30 1109 H 106.451 -0.0904881 -2.97863 0
M  V30 1110 H 103.988 -0.0564282 -1.46992 0
M  V30 1111 H 105.946 2.34407 -3.45122 0
M  V30 1112 H 104.576 2.2509 -2.31375 0
M  V30 1113 H 103.628 0.332919 -3.7894 0
M  V30 1114 H 104.94 0.654677 -4.94485 0
M  V30 1115 H 104.094 2.98626 -5.28117 0
M  V30 1116 H 102.833 2.72807 -4.04262 0
M  V30 1117 H 101.838 0.884779 -5.42634 0
M  V30 1118 H 103.063 1.16652 -6.69006 0
M  V30 1119 H 101.009 3.1946 -5.72959 0
M  V30 1120 H 100.926 2.28917 -7.20509 0
M  V30 1121 H 102.194 3.45799 -6.98601 0
M  V30 1122 N 106.423 1.57458 -0.0668435 0
M  V30 1123 C 107.386 2.11323 0.887422 0
M  V30 1124 C 108.386 1.03618 1.22964 0
M  V30 1125 O 109.576 1.29626 1.16373 0
M  V30 1126 C 106.708 2.61048 2.19242 0
M  V30 1127 H 107.901 2.96942 0.420194 0
M  V30 1128 H 105.454 1.55239 0.181793 0
M  V30 1129 H 106.189 1.78868 2.70512 0
M  V30 1130 H 105.974 3.39769 1.95702 0
M  V30 1131 H 107.464 3.02814 2.87565 0
M  V30 1132 N 107.901 -0.206675 1.56239 0
M  V30 1133 C 108.849 -1.27571 1.94495 0
M  V30 1134 C 109.843 -1.47737 0.828862 0
M  V30 1135 O 111.049 -1.48735 1.0138 0
M  V30 1136 H 107.424 -0.428029 0.6183 0
M  V30 1137 H 109.395 -0.925961 2.8367 0
M  V30 1138 C 108.144 -2.61568 2.29079 0
M  V30 1139 H 107.467 -2.46863 3.14482 0
M  V30 1140 H 108.907 -3.35144 2.5972 0
M  V30 1141 C 107.366 -3.17695 1.12123 0
M  V30 1142 O 107.896 -3.99801 0.390153 0
M  V30 1143 N 106.102 -2.76276 0.901097 0
M  V30 1144 H 105.649 -2.09613 1.49733 0
M  V30 1145 H 105.607 -3.1417 0.120319 0
M  V30 1146 N 109.379 -1.50304 -0.473955 0
M  V30 1147 C 110.607 -1.64902 -1.24959 0
M  V30 1148 C 111.022 -0.331198 -1.85872 0
M  V30 1149 O 110.379 0.68652 -1.69095 0
M  V30 1150 C 110.43 -2.73803 -2.36038 0
M  V30 1151 O 110.151 -4.00477 -1.77624 0
M  V30 1152 C 111.652 -2.99349 -3.26964 0
M  V30 1153 H 108.872 -0.554383 -0.378022 0
M  V30 1154 H 111.416 -1.9651 -0.566054 0
M  V30 1155 H 109.571 -2.44898 -3.00173 0
M  V30 1156 H 109.985 -4.60678 -2.5075 0
M  V30 1157 H 111.459 -3.79217 -4.01121 0
M  V30 1158 H 111.936 -2.10307 -3.85574 0
M  V30 1159 H 112.542 -3.29774 -2.68569 0
M  V30 1160 N 110.857 0.726932 -1.39834 0
M  V30 1161 C 112.085 1.51613 -1.40787 0
M  V30 1162 C 112.5 1.88799 -0.00451505 0
M  V30 1163 O 111.857 1.54662 0.968809 0
M  V30 1164 C 111.908 2.79863 -2.28821 0
M  V30 1165 O 111.629 2.44253 -3.63692 0
M  V30 1166 C 113.13 3.73837 -2.38245 0
M  V30 1167 H 110.35 0.468264 -0.480593 0
M  V30 1168 H 112.894 0.897607 -1.83748 0
M  V30 1169 H 111.049 3.38027 -1.89252 0
M  V30 1170 H 111.463 3.26695 -4.1033 0
M  V30 1171 H 112.937 4.60699 -3.04073 0
M  V30 1172 H 113.414 4.16153 -1.40403 0
M  V30 1173 H 114.02 3.21589 -2.78317 0
M  V30 1174 N 112.336 1.25143 0.95797 0
M  V30 1175 C 113.268 1.01023 2.05735 0
M  V30 1176 C 114.281 -0.0236902 1.62783 0
M  V30 1177 O 115.47 0.21448 1.77207 0
M  V30 1178 C 112.57 0.504595 3.35122 0
M  V30 1179 C 111.743 1.6039 4.06932 0
M  V30 1180 C 110.802 1.09922 5.14591 0
M  V30 1181 O 109.828 1.79293 5.40225 0
M  V30 1182 N 111.03 -0.0612545 5.80468 0
M  V30 1183 H 113.795 1.95683 2.26998 0
M  V30 1184 H 111.356 1.16303 1.12629 0
M  V30 1185 H 113.348 0.151516 4.04416 0
M  V30 1186 H 111.918 -0.347989 3.10657 0
M  V30 1187 H 111.138 2.12872 3.31782 0
M  V30 1188 H 112.426 2.34252 4.51667 0
M  V30 1189 H 111.824 -0.640985 5.62057 0
M  V30 1190 H 110.381 -0.355395 6.5083 0
M  V30 1191 N 113.814 -1.1601 1.06675 0
M  V30 1192 C 115.225 -1.68235 0.809565 0
M  V30 1193 C 115.576 -1.8454 -0.666303 0
M  V30 1194 O 114.701 -1.54374 -1.5165 0
M  V30 1195 C 115.296 -3.05585 1.46299 0
M  V30 1196 C 113.855 -3.54915 1.25349 0
M  V30 1197 C 113.002 -2.30804 1.53703 0
M  V30 1198 H 115.953 -1.00318 1.22971 0
M  V30 1199 H 115.974 -3.70174 0.880431 0
M  V30 1200 H 115.486 -2.93686 2.53713 0
M  V30 1201 H 113.587 -3.72067 0.199261 0
M  V30 1202 H 113.7 -4.36774 1.9689 0
M  V30 1203 H 112.064 -2.36007 0.957739 0
M  V30 1204 H 112.847 -2.21499 2.62284 0
M  V30 1205 N 115.292 -0.849877 -1.32721 0
M  V30 1206 C 116.54 -0.450032 -1.97026 0
M  V30 1207 C 116.861 0.996604 -1.67609 0
M  V30 1208 O 116.131 1.6958 -0.980786 0
M  V30 1209 H 114.711 -0.163426 -0.728904 0
M  V30 1210 H 117.373 -1.08526 -1.6189 0
M  V30 1211 H 116.469 -0.591146 -3.0645 0
M  V30 1212 N 116.77 1.45427 -0.607355 0
M  V30 1213 C 118.019 2.01452 -0.100036 0
M  V30 1214 C 118.332 1.48159 1.27704 0
M  V30 1215 O 119.538 1.96159 1.87707 0
M  V30 1216 C 117.994 3.59672 -0.128158 0
M  V30 1217 C 117.602 4.21962 -1.50507 0
M  V30 1218 C 119.346 4.23262 0.323932 0
M  V30 1219 C 117.253 5.72333 -1.48959 0
M  V30 1220 H 116.183 0.75325 -0.0336299 0
M  V30 1221 H 118.834 1.66901 -0.76265 0
M  V30 1222 H 117.216 3.91411 0.601105 0
M  V30 1223 H 118.39 4.01796 -2.25602 0
M  V30 1224 H 116.705 3.70565 -1.89923 0
M  V30 1225 H 119.302 5.33522 0.354691 0
M  V30 1226 H 119.645 3.93921 1.34656 0
M  V30 1227 H 120.178 3.96239 -0.352056 0
M  V30 1228 H 116.917 6.06373 -2.48981 0
M  V30 1229 H 116.437 5.94691 -0.781214 0
M  V30 1230 H 118.116 6.35525 -1.21313 0
M  V30 1231 N 118.248 0.346503 1.53744 0
M  V30 1232 C 119.494 -0.249473 2.0126 0
M  V30 1233 C 119.827 -1.49965 1.23386 0
M  V30 1234 O 119.102 -1.91811 0.32229 0
M  V30 1235 C 119.385 -0.560643 3.55709 0
M  V30 1236 C 119.238 0.701836 4.44291 0
M  V30 1237 C 120.557 -1.36905 4.18264 0
M  V30 1238 H 117.676 -0.0891987 0.731582 0
M  V30 1239 H 120.318 0.467624 1.84156 0
M  V30 1240 H 118.468 -1.17156 3.70414 0
M  V30 1241 H 120.14 1.33974 4.41417 0
M  V30 1242 H 118.383 1.32612 4.13033 0
M  V30 1243 H 119.054 0.43933 5.50249 0
M  V30 1244 H 121.53 -0.852448 4.07275 0
M  V30 1245 H 120.406 -1.55553 5.26398 0
M  V30 1246 H 120.667 -2.37203 3.73078 0
M  V30 1247 N 119.726 -1.57421 0.075193 0
M  V30 1248 C 120.636 -2.1642 -0.905511 0
M  V30 1249 C 121.652 -1.12828 -1.32461 0
M  V30 1250 O 122.828 -1.45109 -1.39661 0
M  V30 1251 C 119.893 -2.71693 -2.15369 0
M  V30 1252 C 118.954 -3.90171 -1.79068 0
M  V30 1253 C 118.187 -4.42798 -2.97936 0
M  V30 1254 O 118.41 -3.94416 -4.12058 0
M  V30 1255 O 117.344 -5.34085 -2.77555 0
M  V30 1256 H 121.17 -3.00588 -0.433626 0
M  V30 1257 H 118.755 -1.48664 -0.148067 0
M  V30 1258 H 120.637 -3.07104 -2.88557 0
M  V30 1259 H 119.312 -1.90582 -2.61649 0
M  V30 1260 H 118.219 -3.59606 -1.03122 0
M  V30 1261 H 119.552 -4.72584 -1.37569 0
M  V30 1262 N 121.204 0.198386 -1.56346 0
M  V30 1263 C 122.452 0.91747 -1.80075 0
M  V30 1264 C 122.773 1.83929 -0.647692 0
M  V30 1265 O 122.043 1.93029 0.334166 0
M  V30 1266 H 120.623 0.341774 -0.664228 0
M  V30 1267 H 123.285 0.204684 -1.93822 0
M  V30 1268 H 122.381 1.51055 -2.7311 0
M  V30 1269 N 122.682 1.50554 0.465978 0
M  V30 1270 C 123.93 1.61479 1.21528 0
M  V30 1271 C 124.251 0.319596 1.92363 0
M  V30 1272 O 123.521 -0.663194 1.84333 0
M  V30 1273 H 122.101 0.595055 0.451573 0
M  V30 1274 H 124.763 1.87355 0.53704 0
M  V30 1275 H 123.859 2.42846 1.96042 0
M  V30 1276 N 124.16 -0.719506 1.40217 0
M  V30 1277 C 125.092 -1.84428 1.36084 0
M  V30 1278 C 126.105 -1.60597 0.266913 0
M  V30 1279 O 127.294 -1.70544 0.526983 0
M  V30 1280 C 124.394 -3.20757 1.094 0
M  V30 1281 C 123.567 -3.71817 2.30372 0
M  V30 1282 C 122.626 -4.86748 1.99907 0
M  V30 1283 O 121.652 -4.99603 2.72737 0
M  V30 1284 N 122.854 -5.7226 0.974635 0
M  V30 1285 H 125.619 -1.88473 2.33019 0
M  V30 1286 H 123.18 -0.900885 1.3452 0
M  V30 1287 H 125.172 -3.95235 0.870116 0
M  V30 1288 H 123.742 -3.11884 0.211452 0
M  V30 1289 H 122.962 -2.88514 2.68614 0
M  V30 1290 H 124.25 -4.02666 3.11026 0
M  V30 1291 H 123.648 -5.6448 0.371368 0
M  V30 1292 H 122.205 -6.46739 0.810656 0
M  V30 1293 N 125.638 -1.25649 -0.95132 0
M  V30 1294 C 126.884 -1.10757 -1.69884 0
M  V30 1295 C 127.217 0.350061 -1.91019 0
M  V30 1296 O 126.492 1.25783 -1.48354 0
M  V30 1297 C 126.775 -1.86606 -3.07978 0
M  V30 1298 C 126.628 -3.40217 -2.94232 0
M  V30 1299 C 127.947 -1.65182 -4.07925 0
M  V30 1300 H 125.066 -0.40374 -0.616574 0
M  V30 1301 H 127.708 -1.54521 -1.10558 0
M  V30 1302 H 125.858 -1.49409 -3.58621 0
M  V30 1303 H 127.53 -3.87108 -2.50889 0
M  V30 1304 H 125.773 -3.67759 -2.30078 0
M  V30 1305 H 126.444 -3.88505 -3.92133 0
M  V30 1306 H 128.92 -1.9757 -3.66204 0
M  V30 1307 H 127.796 -2.20683 -5.02583 0
M  V30 1308 H 128.057 -0.593933 -4.38092 0
M  V30 1309 N 127.117 1.15442 -1.07289 0
M  V30 1310 C 128.047 2.22312 -0.714107 0
M  V30 1311 C 129.028 1.67467 0.298155 0
M  V30 1312 O 130.213 1.93445 0.171048 0
M  V30 1313 C 127.343 3.47124 -0.110448 0
M  V30 1314 C 126.297 4.14926 -1.04979 0
M  V30 1315 C 125.623 5.33807 -0.308924 0
M  V30 1316 C 126.923 4.64762 -2.38314 0
M  V30 1317 H 128.617 2.5258 -1.6076 0
M  V30 1318 H 126.163 1.21404 -0.77441 0
M  V30 1319 H 128.116 4.21124 0.152482 0
M  V30 1320 H 126.84 3.16187 0.81812 0
M  V30 1321 H 125.499 3.42866 -1.29764 0
M  V30 1322 H 125.147 4.99126 0.623084 0
M  V30 1323 H 124.847 5.80113 -0.935036 0
M  V30 1324 H 126.371 6.10576 -0.0537771 0
M  V30 1325 H 127.785 5.30292 -2.1786 0
M  V30 1326 H 126.182 5.21728 -2.96514 0
M  V30 1327 H 127.252 3.80434 -3.00663 0
M  V30 1328 N 128.595 0.856903 1.32268 0
M  V30 1329 C 129.542 0.301172 2.28827 0
M  V30 1330 C 130.512 -0.593104 1.5515 0
M  V30 1331 O 131.697 -0.527537 1.83362 0
M  V30 1332 C 128.837 -0.502523 3.41422 0
M  V30 1333 C 127.95 0.417797 4.29975 0
M  V30 1334 C 127.085 -0.398749 5.29701 0
M  V30 1335 C 126.124 0.518827 6.09897 0
M  V30 1336 N 125.261 -0.260674 7.01616 0
M  V30 1337 H 130.101 1.12983 2.75751 0
M  V30 1338 H 127.638 0.568582 1.35667 0
M  V30 1339 H 129.596 -0.984141 4.05426 0
M  V30 1340 H 128.226 -1.29599 2.95642 0
M  V30 1341 H 127.278 1.01781 3.66531 0
M  V30 1342 H 128.59 1.12191 4.86019 0
M  V30 1343 H 127.744 -0.943435 5.9932 0
M  V30 1344 H 126.483 -1.13622 4.7428 0
M  V30 1345 H 125.488 1.07538 5.39181 0
M  V30 1346 H 126.713 1.25495 6.67404 0
M  V30 1347 H 124.659 -0.981198 6.4862 0
M  V30 1348 H 124.576 0.384364 7.55022 0
M  V30 1349 H 125.844 -0.787014 7.75517 0
M  V30 1350 N 130.073 -1.45103 0.615059 0
M  V30 1351 C 131.313 -2.04069 0.116282 0
M  V30 1352 C 131.677 -1.4721 -1.2326 0
M  V30 1353 O 132.878 -1.97577 -1.82255 0
M  V30 1354 C 131.149 -3.57298 0.085482 0
M  V30 1355 S 132.708 -4.37394 -0.351015 0
M  V30 1356 H 129.526 -0.709006 0.0532183 0
M  V30 1357 H 132.128 -1.77709 0.81484 0
M  V30 1358 H 130.832 -3.9619 1.0706 0
M  V30 1359 H 130.363 -3.88244 -0.634835 0
M  V30 1360 H 132.378 -4.69734 -1.59889 0
M  V30 1361 N 131.551 -0.354651 -1.53558 0
M  V30 1362 C 132.828 0.294281 -1.93374 0
M  V30 1363 C 133.208 1.67313 -1.28723 0
M  V30 1364 O 132.556 2.24179 -0.442247 0
M  V30 1365 C 132.766 0.355445 -3.47185 0
M  V30 1366 C 134.114 0.601007 -4.20325 0
M  V30 1367 O 135.138 0.437106 -3.53508 0
M  V30 1368 O 133.997 0.919322 -5.38712 0
M  V30 1369 H 131.091 0.174033 -0.808481 0
M  V30 1370 H 133.637 -0.406638 -1.64756 0
M  V30 1371 H 132.409 -0.611729 -3.86489 0
M  V30 1372 H 132.032 1.1027 -3.82003 0
M  V30 1373 N 133.029 1.57378 -0.0835403 0
M  V30 1374 C 134.275 1.95025 0.577664 0
M  V30 1375 C 134.63 0.964049 1.66505 0
M  V30 1376 O 133.923 -0.0118235 1.91596 0
M  V30 1377 C 134.117 3.37063 1.1884 0
M  V30 1378 C 133.946 4.49409 0.16171 0
M  V30 1379 C 132.716 5.04642 -0.257756 0
M  V30 1380 C 134.914 5.10722 -0.605634 0
M  V30 1381 N 132.896 6.00537 -1.27393 0
M  V30 1382 C 134.267 6.02225 -1.47395 0
M  V30 1383 C 136.322 4.93501 -0.660418 0
M  V30 1384 C 135.025 6.78355 -2.39221 0
M  V30 1385 C 137.051 5.70283 -1.56623 0
M  V30 1386 C 136.413 6.61444 -2.4222 0
M  V30 1387 H 132.512 0.760512 0.182058 0
M  V30 1388 H 135.096 1.94013 -0.163419 0
M  V30 1389 H 133.267 3.3879 1.89936 0
M  V30 1390 H 134.999 3.61917 1.81103 0
M  V30 1391 H 131.754 4.73428 0.127702 0
M  V30 1392 H 132.178 6.53184 -1.77987 0
M  V30 1393 H 136.82 4.22798 -0.0128221 0
M  V30 1394 H 134.538 7.48327 -3.05011 0
M  V30 1395 H 138.124 5.58976 -1.61361 0
M  V30 1396 H 137.004 7.1982 -3.11174 0
M  V30 1397 N 134.507 -0.190092 1.56449 0
M  V30 1398 C 135.732 -0.929864 1.85387 0
M  V30 1399 C 136.157 -1.7585 0.667704 0
M  V30 1400 O 135.515 -1.77198 -0.383459 0
M  V30 1401 C 135.563 -1.79773 3.12593 0
M  V30 1402 O 134.667 -2.89713 2.93496 0
M  V30 1403 H 134.008 -0.261574 0.610307 0
M  V30 1404 H 136.538 -0.193896 2.03679 0
M  V30 1405 H 136.548 -2.20139 3.43515 0
M  V30 1406 H 135.223 -1.18892 3.98544 0
M  V30 1407 H 133.8 -2.53065 2.73884 0
M  V30 1408 N 135.985 -1.50799 -0.457987 0
M  V30 1409 C 137.21 -1.66496 -1.23668 0
M  V30 1410 C 137.635 -0.353288 -1.84752 0
M  V30 1411 O 136.993 0.684346 -1.67888 0
M  V30 1412 C 137.041 -2.76763 -2.3116 0
M  V30 1413 O 136.145 -2.38928 -3.36136 0
M  V30 1414 H 135.486 -0.555828 -0.363252 0
M  V30 1415 H 138.016 -1.9725 -0.543474 0
M  V30 1416 H 138.026 -3.00232 -2.76269 0
M  V30 1417 H 136.701 -3.71954 -1.86073 0
M  V30 1418 H 135.278 -2.25953 -2.96647 0
M  V30 1419 N 137.463 0.71206 -1.40597 0
M  V30 1420 C 138.691 1.50111 -1.42388 0
M  V30 1421 C 139.106 1.88784 -0.0245395 0
M  V30 1422 O 138.463 1.55681 0.952351 0
M  V30 1423 C 138.514 2.7742 -2.31776 0
M  V30 1424 O 138.235 2.40382 -3.66262 0
M  V30 1425 C 139.736 3.7129 -2.42196 0
M  V30 1426 H 136.956 0.46314 -0.485533 0
M  V30 1427 H 139.5 0.878068 -1.8469 0
M  V30 1428 H 137.655 3.36001 -1.92827 0
M  V30 1429 H 138.069 3.22324 -4.13772 0
M  V30 1430 H 139.543 4.57448 -3.08943 0
M  V30 1431 H 140.02 4.14641 -1.44809 0
M  V30 1432 H 140.626 3.18619 -2.81712 0
M  V30 1433 N 138.941 1.26152 0.944643 0
M  V30 1434 C 140.357 1.03189 1.21754 0
M  V30 1435 C 140.557 -0.245112 2.00004 0
M  V30 1436 O 139.613 -0.955176 2.33736 0
M  V30 1437 C 140.926 2.26119 1.98219 0
M  V30 1438 C 142.474 2.30984 2.11224 0
M  V30 1439 C 142.949 3.53597 2.91089 0
M  V30 1440 N 144.44 3.54053 2.98664 0
M  V30 1441 C 145.175 4.45593 3.60881 0
M  V30 1442 N 144.671 5.47416 4.24626 0
M  V30 1443 N 146.464 4.33252 3.58119 0
M  V30 1444 H 138.615 2.08177 0.421437 0
M  V30 1445 H 140.878 0.914723 0.248969 0
M  V30 1446 H 140.584 3.18984 1.48128 0
M  V30 1447 H 140.458 2.3009 2.98895 0
M  V30 1448 H 142.845 1.38635 2.60508 0
M  V30 1449 H 142.926 2.31026 1.09821 0
M  V30 1450 H 142.57 4.46273 2.42493 0
M  V30 1451 H 142.5 3.50802 3.92741 0
M  V30 1452 H 144.991 2.80403 2.53343 0
M  V30 1453 H 145.304 6.13459 4.69987 0
M  V30 1454 H 143.649 5.51278 4.23223 0
M  V30 1455 H 146.84 3.52924 3.0751 0
M  V30 1456 H 147.013 5.04786 4.06319 0
M  V30 1457 N 140.419 -1.14872 1.07899 0
M  V30 1458 C 141.835 -1.37776 0.805606 0
M  V30 1459 C 142.035 -1.92743 -0.587555 0
M  V30 1460 O 141.091 -2.13678 -1.34528 0
M  V30 1461 C 142.404 -2.34361 1.88402 0
M  V30 1462 C 143.952 -2.48012 1.90942 0
M  V30 1463 C 144.427 -3.47893 2.97883 0
M  V30 1464 N 145.918 -3.55433 2.97021 0
M  V30 1465 C 146.653 -4.32553 3.76412 0
M  V30 1466 N 146.149 -5.12959 4.65666 0
M  V30 1467 N 147.942 -4.27697 3.64735 0
M  V30 1468 H 140.093 -0.775365 1.97742 0
M  V30 1469 H 142.356 -0.403521 0.857831 0
M  V30 1470 H 142.062 -2.01098 2.88535 0
M  V30 1471 H 141.936 -3.34206 1.74889 0
M  V30 1472 H 144.323 -2.8057 0.914579 0
M  V30 1473 H 144.404 -1.48147 2.08534 0
M  V30 1474 H 144.048 -3.16069 3.97571 0
M  V30 1475 H 143.978 -4.47527 2.77538 0
M  V30 1476 H 146.469 -2.98048 2.32326 0
M  V30 1477 H 146.782 -5.69065 5.22862 0
M  V30 1478 H 145.127 -5.12245 4.69712 0
M  V30 1479 H 148.318 -3.63949 2.94378 0
M  V30 1480 H 148.491 -4.8755 4.26848 0
M  V30 1481 N 141.898 -0.863906 -1.31812 0
M  V30 1482 C 143.138 -0.47825 -1.98726 0
M  V30 1483 C 143.502 0.950397 -1.66828 0
M  V30 1484 O 144.703 1.44109 -2.26905 0
M  V30 1485 C 142.974 -0.721134 -3.50049 0
M  V30 1486 S 144.533 -0.434432 -4.36644 0
M  V30 1487 H 141.351 -0.178773 -0.688158 0
M  V30 1488 H 143.953 -1.11862 -1.60334 0
M  V30 1489 H 142.657 -1.75981 -3.70755 0
M  V30 1490 H 142.188 -0.0675315 -3.93342 0
M  V30 1491 H 144.203 0.735786 -4.90714 0
M  V30 1492 N 143.376 1.44774 -0.622745 0
M  V30 1493 C 144.308 2.28856 0.125485 0
M  V30 1494 C 145.321 1.40811 0.817069 0
M  V30 1495 O 146.51 1.65044 0.679918 0
M  V30 1496 C 143.61 3.16963 1.19949 0
M  V30 1497 C 142.783 4.33374 0.592064 0
M  V30 1498 C 141.842 5.02577 1.55893 0
M  V30 1499 O 140.868 5.58873 1.07933 0
M  V30 1500 N 142.07 5.03256 2.89334 0
M  V30 1501 H 144.835 2.93713 -0.596068 0
M  V30 1502 H 142.396 1.55129 -0.463303 0
M  V30 1503 H 144.388 3.60123 1.84644 0
M  V30 1504 H 142.958 2.53913 1.82337 0
M  V30 1505 H 142.178 3.93509 -0.233322 0
M  V30 1506 H 143.466 5.08527 0.166738 0
M  V30 1507 H 142.864 4.58836 3.30887 0
M  V30 1508 H 141.421 5.50232 3.49412 0
M  V30 1509 N 144.854 0.36279 1.53368 0
M  V30 1510 C 146.265 -0.117022 1.86333 0
M  V30 1511 C 146.616 -1.48397 1.28347 0
M  V30 1512 O 145.741 -2.07787 0.604428 0
M  V30 1513 C 146.336 -0.21912 3.38091 0
M  V30 1514 C 144.895 -0.643184 3.70864 0
M  V30 1515 C 144.042 0.211318 2.76494 0
M  V30 1516 H 146.993 0.581687 1.47655 0
M  V30 1517 H 147.014 -1.04319 3.6592 0
M  V30 1518 H 146.526 0.775902 3.80265 0
M  V30 1519 H 144.627 -1.64654 3.34245 0
M  V30 1520 H 144.74 -0.41973 4.77258 0
M  V30 1521 H 143.104 -0.319367 2.5269 0
M  V30 1522 H 143.887 1.20383 3.21501 0
M  V30 1523 N 146.332 -1.57332 0.0918853 0
M  V30 1524 C 147.581 -1.93412 -0.572249 0
M  V30 1525 C 147.894 -0.975515 -1.69538 0
M  V30 1526 O 149.1 -1.22991 -2.42045 0
M  V30 1527 C 147.556 -3.43648 -1.0693 0
M  V30 1528 C 147.164 -4.47994 0.0239049 0
M  V30 1529 C 148.908 -3.88695 -1.70635 0
M  V30 1530 C 146.815 -5.89381 -0.488319 0
M  V30 1531 H 145.745 -0.721939 -0.217532 0
M  V30 1532 H 148.396 -1.82735 0.167369 0
M  V30 1533 H 146.778 -3.49466 -1.8625 0
M  V30 1534 H 147.952 -4.53815 0.799277 0
M  V30 1535 H 146.267 -4.12536 0.565946 0
M  V30 1536 H 148.864 -4.91725 -2.10025 0
M  V30 1537 H 149.207 -3.27166 -2.57426 0
M  V30 1538 H 149.74 -3.85564 -0.979023 0
M  V30 1539 H 146.479 -6.54602 0.342906 0
M  V30 1540 H 145.999 -5.87037 -1.23077 0
M  V30 1541 H 147.678 -6.39863 -0.958317 0
M  V30 1542 N 147.81 0.181792 -1.56548 0
M  V30 1543 C 148.72 1.24538 -1.98815 0
M  V30 1544 C 149.736 1.49045 -0.897861 0
M  V30 1545 O 150.912 1.61399 -1.20467 0
M  V30 1546 C 147.977 2.56683 -2.33055 0
M  V30 1547 C 147.038 2.40131 -3.55859 0
M  V30 1548 C 146.271 3.65975 -3.88456 0
M  V30 1549 O 146.494 4.70711 -3.22161 0
M  V30 1550 O 145.428 3.6071 -4.81842 0
M  V30 1551 H 149.254 0.916647 -2.89536 0
M  V30 1552 H 146.839 0.387842 -1.44278 0
M  V30 1553 H 148.721 3.34655 -2.56094 0
M  V30 1554 H 147.396 2.89157 -1.45498 0
M  V30 1555 H 146.303 1.60226 -3.38051 0
M  V30 1556 H 147.636 2.12585 -4.43924 0
M  V30 1557 N 149.288 1.51039 0.449983 0
M  V30 1558 C 150.535 1.63081 1.20045 0
M  V30 1559 C 150.863 0.341024 1.91487 0
M  V30 1560 O 150.118 -0.674276 1.83717 0
M  V30 1561 C 150.417 2.77556 2.25161 0
M  V30 1562 C 150.083 4.17289 1.70823 0
M  V30 1563 C 148.745 4.55305 1.55725 0
M  V30 1564 C 151.097 5.04536 1.3074 0
M  V30 1565 C 148.425 5.78287 0.989999 0
M  V30 1566 C 150.777 6.28085 0.754482 0
M  V30 1567 C 149.441 6.64885 0.590308 0
M  V30 1568 H 148.711 0.596755 0.439277 0
M  V30 1569 H 151.358 1.85037 0.49333 0
M  V30 1570 H 149.663 2.49771 3.01863 0
M  V30 1571 H 151.36 2.84073 2.83026 0
M  V30 1572 H 147.95 3.8731 1.83546 0
M  V30 1573 H 152.134 4.75782 1.41229 0
M  V30 1574 H 147.39 6.05456 0.850451 0
M  V30 1575 H 151.564 6.95038 0.435324 0
M  V30 1576 H 149.191 7.60055 0.14862 0
M  V30 1577 N 150.766 -0.704594 1.40972 0
M  V30 1578 C 152.043 -1.45847 1.30338 0
M  V30 1579 C 152.423 -2.10973 -0.0732344 0
M  V30 1580 O 151.771 -2.00997 -1.08685 0
M  V30 1581 C 151.981 -2.48525 2.45023 0
M  V30 1582 C 153.329 -3.1404 2.8577 0
M  V30 1583 O 154.353 -2.58848 2.44696 0
M  V30 1584 O 153.212 -4.13981 3.56766 0
M  V30 1585 H 150.306 -0.649092 0.512454 0
M  V30 1586 H 152.852 -0.735836 1.52917 0
M  V30 1587 H 151.624 -1.98994 3.36923 0
M  V30 1588 H 151.247 -3.2831 2.24272 0
M  V30 1589 N 152.244 -1.26651 -0.937939 0
M  V30 1590 C 153.207 -1.08546 -2.01867 0
M  V30 1591 C 154.207 -0.0327327 -1.60767 0
M  V30 1592 O 155.397 -0.276427 -1.71993 0
M  V30 1593 C 152.529 -0.651711 -3.34613 0
M  V30 1594 H 153.722 -2.04502 -2.1936 0
M  V30 1595 H 151.275 -1.09294 -1.11734 0
M  V30 1596 H 152.01 0.309696 -3.22818 0
M  V30 1597 H 151.795 -1.41189 -3.65798 0
M  V30 1598 H 153.285 -0.546973 -4.14002 0
M  V30 1599 N 153.722 1.14298 -1.08507 0
M  V30 1600 C 154.95 1.89219 -0.836876 0
M  V30 1601 C 155.365 1.78638 0.611054 0
M  V30 1602 O 154.722 1.14643 1.41998 0
M  V30 1603 C 154.773 3.39158 -1.25116 0
M  V30 1604 O 154.494 3.49449 -2.64229 0
M  V30 1605 C 155.995 4.31073 -1.03398 0
M  V30 1606 H 153.215 0.599328 -0.301739 0
M  V30 1607 H 155.759 1.44746 -1.44461 0
M  V30 1608 H 153.914 3.81251 -0.687514 0
M  V30 1609 H 154.328 4.42589 -2.81452 0
M  V30 1610 H 155.802 5.34646 -1.37323 0
M  V30 1611 H 156.279 4.3919 0.0289259 0
M  V30 1612 H 156.885 3.94738 -1.58311 0
M  V30 1613 N 155.201 0.870884 1.31352 0
M  V30 1614 C 156.449 0.48132 1.96285 0
M  V30 1615 C 156.77 -0.969813 1.69173 0
M  V30 1616 O 156.04 -1.67998 1.00764 0
M  V30 1617 H 154.62 0.175002 0.726212 0
M  V30 1618 H 157.282 1.11087 1.60143 0
M  V30 1619 H 156.378 0.639825 3.05471 0
M  V30 1620 N 156.679 -1.44442 0.630414 0
M  V30 1621 C 157.627 -2.32437 -0.0871428 0
M  V30 1622 C 158.621 -1.47304 -0.836525 0
M  V30 1623 O 159.827 -1.63653 -0.749506 0
M  V30 1624 H 156.202 -0.750533 -0.0469495 0
M  V30 1625 H 158.173 -2.90709 0.673096 0
M  V30 1626 C 156.922 -3.31288 -1.05563 0
M  V30 1627 H 156.245 -3.96805 -0.488426 0
M  V30 1628 H 157.685 -3.9554 -1.52721 0
M  V30 1629 C 156.144 -2.6016 -2.14052 0
M  V30 1630 O 156.674 -2.39997 -3.22124 0
M  V30 1631 N 154.88 -2.19911 -1.89967 0
M  V30 1632 H 154.427 -2.36509 -1.02085 0
M  V30 1633 H 154.385 -1.72646 -2.62756 0
M  V30 1634 N 158.157 -0.370918 -1.53173 0
M  V30 1635 C 159.573 -0.0200818 -1.59587 0
M  V30 1636 C 159.773 1.46279 -1.38581 0
M  V30 1637 O 158.829 2.22506 -1.19363 0
M  V30 1638 C 160.142 -0.4808 -2.96831 0
M  V30 1639 C 161.69 -0.435477 -3.09956 0
M  V30 1640 C 162.165 -0.872092 -4.4962 0
M  V30 1641 N 163.656 -0.827364 -4.55751 0
M  V30 1642 C 164.391 -1.13683 -5.62018 0
M  V30 1643 N 163.887 -1.51584 -6.76014 0
M  V30 1644 N 165.68 -1.05927 -5.52029 0
M  V30 1645 H 157.831 -1.33652 -1.65079 0
M  V30 1646 H 160.094 -0.546634 -0.774529 0
M  V30 1647 H 159.8 -1.51577 -3.1736 0
M  V30 1648 H 159.674 0.129796 -3.76977 0
M  V30 1649 H 162.061 0.590371 -2.89134 0
M  V30 1650 H 162.142 -1.08164 -2.31806 0
M  V30 1651 H 161.786 -1.89608 -4.71181 0
M  V30 1652 H 161.716 -0.203127 -5.26208 0
M  V30 1653 H 164.207 -0.548216 -3.73902 0
M  V30 1654 H 164.52 -1.73609 -7.53047 0
M  V30 1655 H 162.865 -1.55454 -6.77391 0
M  V30 1656 H 166.056 -0.762321 -4.61851 0
M  V30 1657 H 166.229 -1.30378 -6.34749 0
M  V30 1658 N 159.635 1.57281 -0.100228 0
M  V30 1659 C 160.912 1.86014 0.604812 0
M  V30 1660 C 161.292 0.998025 1.86018 0
M  V30 1661 O 160.64 0.0718184 2.28387 0
M  V30 1662 C 160.85 3.36784 0.915278 0
M  V30 1663 C 162.198 4.04957 1.27651 0
M  V30 1664 O 163.222 3.41695 1.00613 0
M  V30 1665 O 162.081 5.16593 1.7831 0
M  V30 1666 H 159.175 0.76942 0.303185 0
M  V30 1667 H 161.721 1.69176 -0.133313 0
M  V30 1668 H 160.493 3.91292 0.0248896 0
M  V30 1669 H 160.116 3.58987 1.70921 0
M  V30 1670 N 161.113 -0.173488 1.56642 0
M  V30 1671 C 162.343 -0.904781 1.85734 0
M  V30 1672 C 162.751 -1.76431 0.68328 0
M  V30 1673 O 162.094 -1.802 -0.356865 0
M  V30 1674 C 162.156 -1.83382 3.09211 0
M  V30 1675 C 161.82 -1.15411 4.42187 0
M  V30 1676 C 162.817 -0.520609 5.17287 0
M  V30 1677 C 160.502 -1.15151 4.88923 0
M  V30 1678 C 162.496 0.106412 6.37311 0
M  V30 1679 C 160.183 -0.520664 6.08878 0
M  V30 1680 C 161.181 0.107196 6.82916 0
M  V30 1681 O 160.869 0.728102 8.00596 0
M  V30 1682 H 160.601 -0.268408 0.62043 0
M  V30 1683 H 163.155 -0.179096 2.04618 0
M  V30 1684 H 161.385 -2.59976 2.86268 0
M  V30 1685 H 163.074 -2.43476 3.24768 0
M  V30 1686 H 163.84 -0.514606 4.82262 0
M  V30 1687 H 159.719 -1.62961 4.31236 0
M  V30 1688 H 163.263 0.597081 6.9504 0
M  V30 1689 H 159.16 -0.524242 6.43368 0
M  V30 1690 H 159.928 0.627138 8.16094 0
M  V30 1691 N 162.591 -1.51276 -0.441967 0
M  V30 1692 C 163.554 -1.7167 -1.51862 0
M  V30 1693 C 164.554 -0.586793 -1.49711 0
M  V30 1694 O 165.744 -0.854276 -1.51815 0
M  V30 1695 C 162.876 -1.76889 -2.91416 0
M  V30 1696 H 164.069 -2.67754 -1.35084 0
M  V30 1697 H 161.622 -1.41196 -0.670333 0
M  V30 1698 H 162.357 -0.826026 -3.13604 0
M  V30 1699 H 162.142 -2.59001 -2.94382 0
M  V30 1700 H 163.632 -1.94522 -3.69528 0
M  V30 1701 N 164.069 0.697108 -1.41344 0
M  V30 1702 C 165.016 1.81106 -1.43071 0
M  V30 1703 C 165.986 1.63632 -0.285275 0
M  V30 1704 O 167.171 1.84504 -0.486091 0
M  V30 1705 C 164.311 3.18975 -1.31715 0
M  V30 1706 C 163.424 3.47892 -2.56115 0
M  V30 1707 C 162.559 4.75367 -2.37064 0
M  V30 1708 C 161.598 4.97247 -3.56948 0
M  V30 1709 N 160.735 6.15947 -3.36977 0
M  V30 1710 H 165.575 1.78965 -2.38276 0
M  V30 1711 H 163.112 0.873975 -1.18322 0
M  V30 1712 H 165.07 3.98615 -1.23133 0
M  V30 1713 H 163.7 3.20297 -0.401183 0
M  V30 1714 H 162.752 2.62669 -2.75153 0
M  V30 1715 H 164.064 3.59962 -3.45295 0
M  V30 1716 H 163.218 5.63059 -2.25941 0
M  V30 1717 H 161.957 4.65541 -1.45338 0
M  V30 1718 H 160.962 4.08004 -3.68527 0
M  V30 1719 H 162.187 5.08934 -4.49626 0
M  V30 1720 H 160.133 6.07336 -2.47949 0
M  V30 1721 H 160.05 6.28777 -4.19732 0
M  V30 1722 H 161.318 7.06377 -3.29623 0
M  V30 1723 N 165.547 1.27147 0.931209 0
M  V30 1724 C 166.824 1.0401 1.65654 0
M  V30 1725 C 167.204 -0.426297 2.06751 0
M  V30 1726 O 166.552 -1.40879 1.79904 0
M  V30 1727 C 166.762 1.99834 2.86125 0
M  V30 1728 C 168.11 2.29007 3.57549 0
M  V30 1729 O 169.134 1.97779 2.96246 0
M  V30 1730 O 167.993 2.82222 4.67989 0
M  V30 1731 H 165.087 0.396239 0.725895 0
M  V30 1732 H 167.633 1.38397 0.982056 0
M  V30 1733 H 166.405 2.98744 2.52721 0
M  V30 1734 H 166.028 1.65987 3.61295 0
M  V30 1735 N 167.025 -1.13721 1.09112 0
M  V30 1736 C 168.302 -1.81155 0.737706 0
M  V30 1737 C 168.682 -1.96253 -0.777683 0
M  V30 1738 O 168.03 -1.52807 -1.69889 0
M  V30 1739 C 168.24 -3.16392 1.47299 0
M  V30 1740 C 169.588 -3.91787 1.63671 0
M  V30 1741 O 170.612 -3.26005 1.43524 0
M  V30 1742 O 169.471 -5.0977 1.96969 0
M  V30 1743 H 166.565 -0.783518 0.26463 0
M  V30 1744 H 169.111 -1.20676 1.19312 0
M  V30 1745 H 167.883 -3.0061 2.50498 0
M  V30 1746 H 167.506 -3.8457 1.00953 0
M  V30 1747 N 168.503 -0.877838 -1.30888 0
M  V30 1748 C 169.914 -0.544193 -1.78593 0
M  V30 1749 C 170.265 0.939301 -1.72254 0
M  V30 1750 O 169.39 1.7337 -1.29505 0
M  V30 1751 C 169.985 -0.98105 -3.24285 0
M  V30 1752 C 168.544 -0.698935 -3.69854 0
M  V30 1753 C 167.691 -1.168 -2.51502 0
M  V30 1754 H 170.642 -1.06278 -1.17859 0
M  V30 1755 H 170.663 -0.307009 -3.79259 0
M  V30 1756 H 170.175 -2.06079 -3.28866 0
M  V30 1757 H 168.276 0.369112 -3.70767 0
M  V30 1758 H 168.389 -1.28148 -4.61644 0
M  V30 1759 H 166.753 -0.587535 -2.47831 0
M  V30 1760 H 167.536 -2.25533 -2.58824 0
M  V30 1761 N 169.982 1.44106 -0.638065 0
M  V30 1762 C 170.912 2.33448 0.0494287 0
M  V30 1763 C 171.893 1.48606 0.827672 0
M  V30 1764 O 173.078 1.77308 0.792173 0
M  V30 1765 C 170.208 3.31771 1.02691 0
M  V30 1766 C 169.162 4.26485 0.359823 0
M  V30 1767 C 168.488 5.14729 1.44769 0
M  V30 1768 C 169.788 5.17056 -0.738296 0
M  V30 1769 H 171.482 2.91183 -0.696636 0
M  V30 1770 H 169.028 1.40014 -0.336456 0
M  V30 1771 H 170.981 3.93161 1.51666 0
M  V30 1772 H 169.705 2.7226 1.80395 0
M  V30 1773 H 168.364 3.66437 -0.10934 0
M  V30 1774 H 168.012 4.51566 2.21578 0
M  V30 1775 H 167.712 5.78913 1.00668 0
M  V30 1776 H 169.236 5.78991 1.93911 0
M  V30 1777 H 170.65 5.72342 -0.331354 0
M  V30 1778 H 169.047 5.89879 -1.10286 0
M  V30 1779 H 170.117 4.57652 -1.60258 0
M  V30 1780 N 171.46 0.379036 1.52974 0
M  V30 1781 C 172.37 -0.468639 2.29872 0
M  V30 1782 C 173.386 -1.08067 1.36373 0
M  V30 1783 O 174.562 -1.08871 1.69438 0
M  V30 1784 C 171.627 -1.58594 3.083 0
M  V30 1785 C 170.688 -1.00007 4.17489 0
M  V30 1786 C 169.921 -2.06413 4.92168 0
M  V30 1787 O 170.144 -3.27751 4.66835 0
M  V30 1788 O 169.078 -1.68717 5.7777 0
M  V30 1789 H 172.904 0.157508 3.03291 0
M  V30 1790 H 170.489 0.143035 1.48714 0
M  V30 1791 H 172.371 -2.23525 3.57232 0
M  V30 1792 H 171.046 -2.19724 2.37703 0
M  V30 1793 H 169.953 -0.314299 3.72777 0
M  V30 1794 H 171.286 -0.433135 4.90291 0
M  V30 1795 N 172.938 -1.57226 0.108567 0
M  V30 1796 C 174.185 -1.94833 -0.551943 0
M  V30 1797 C 174.513 -0.991204 -1.67348 0
M  V30 1798 O 173.768 -0.0131878 -1.95696 0
M  V30 1799 C 174.067 -3.38911 -1.13463 0
M  V30 1800 C 173.733 -4.50696 -0.135509 0
M  V30 1801 C 172.395 -4.80998 0.139252 0
M  V30 1802 C 174.747 -5.18333 0.545957 0
M  V30 1803 C 172.075 -5.76259 1.10194 0
M  V30 1804 C 174.427 -6.14627 1.49721 0
M  V30 1805 C 173.091 -6.43327 1.78006 0
M  V30 1806 H 172.361 -0.712944 -0.20197 0
M  V30 1807 H 175.008 -1.90582 0.18726 0
M  V30 1808 H 173.313 -3.39805 -1.95037 0
M  V30 1809 H 175.01 -3.65317 -1.65362 0
M  V30 1810 H 171.6 -4.27087 -0.359846 0
M  V30 1811 H 175.784 -4.95087 0.346842 0
M  V30 1812 H 171.04 -5.96804 1.32795 0
M  V30 1813 H 175.214 -6.66126 2.03099 0
M  V30 1814 H 172.841 -7.1695 2.52759 0
M  V30 1815 N 174.416 0.165178 -1.56732 0
M  V30 1816 C 175.363 1.2044 -1.96883 0
M  V30 1817 C 176.333 1.43664 -0.833657 0
M  V30 1818 O 177.518 1.56302 -1.09427 0
M  V30 1819 C 174.658 2.53727 -2.33916 0
M  V30 1820 C 173.771 2.3783 -3.6064 0
M  V30 1821 C 172.906 3.64026 -3.86857 0
M  V30 1822 C 171.945 3.43088 -5.06909 0
M  V30 1823 N 171.082 4.61369 -5.29229 0
M  V30 1824 H 175.922 0.854996 -2.85471 0
M  V30 1825 H 173.459 0.41076 -1.41249 0
M  V30 1826 H 175.417 3.31419 -2.53411 0
M  V30 1827 H 174.047 2.8665 -1.48431 0
M  V30 1828 H 173.099 1.51282 -3.49024 0
M  V30 1829 H 174.411 2.18308 -4.4849 0
M  V30 1830 H 173.565 4.50152 -4.06753 0
M  V30 1831 H 172.304 3.86533 -2.97394 0
M  V30 1832 H 171.309 2.55349 -4.86906 0
M  V30 1833 H 172.534 3.21997 -5.97909 0
M  V30 1834 H 170.48 4.84084 -4.42718 0
M  V30 1835 H 170.397 4.44783 -6.11313 0
M  V30 1836 H 171.665 5.48761 -5.53608 0
M  V30 1837 N 175.894 1.51508 0.433938 0
M  V30 1838 C 177.119 1.68443 1.21003 0
M  V30 1839 C 177.544 0.382636 1.84167 0
M  V30 1840 O 176.902 -0.65755 1.68956 0
M  V30 1841 C 176.95 2.80405 2.26727 0
M  V30 1842 O 176.054 2.44245 3.32292 0
M  V30 1843 H 175.395 0.561536 0.354363 0
M  V30 1844 H 177.925 1.9809 0.512024 0
M  V30 1845 H 177.935 3.0459 2.71457 0
M  V30 1846 H 176.61 3.74867 1.80132 0
M  V30 1847 H 175.187 2.30644 2.93015 0
M  V30 1848 N 177.372 -0.689602 1.41712 0
M  V30 1849 C 178.322 -1.79571 1.40493 0
M  V30 1850 C 179.306 -1.58473 0.278409 0
M  V30 1851 O 180.498 -1.69204 0.519532 0
M  V30 1852 C 177.627 -3.17923 1.29536 0
M  V30 1853 C 176.713 -3.44695 2.47075 0
M  V30 1854 N 177.104 -3.42132 3.72531 0
M  V30 1855 C 175.402 -3.75269 2.41017 0
M  V30 1856 C 176.103 -3.67976 4.50521 0
M  V30 1857 N 175.079 -3.88014 3.80718 0
M  V30 1858 H 178.881 -1.75961 2.35404 0
M  V30 1859 H 176.395 -0.889839 1.35851 0
M  V30 1860 H 178.392 -3.97167 1.26745 0
M  V30 1861 H 177.052 -3.22741 0.356153 0
M  V30 1862 H 178.063 -3.22375 4.05333 0
M  V30 1863 H 174.74 -3.87421 1.55599 0
M  V30 1864 H 176.13 -3.7208 5.59469 0
M  V30 1865 N 178.85 -1.27639 -0.924453 0
M  V30 1866 C 179.782 -1.06442 -2.02985 0
M  V30 1867 C 180.795 -0.0194771 -1.62788 0
M  V30 1868 O 181.984 -0.261388 -1.76576 0
M  V30 1869 C 179.084 -0.59327 -3.33667 0
M  V30 1870 C 178.257 -1.71123 -4.02537 0
M  V30 1871 C 177.316 -1.23527 -5.11495 0
M  V30 1872 O 176.342 -1.93553 -5.35281 0
M  V30 1873 N 177.544 -0.0926678 -5.80426 0
M  V30 1874 H 180.309 -2.01633 -2.2173 0
M  V30 1875 H 177.87 -1.19248 -1.09505 0
M  V30 1876 H 179.862 -0.258686 -4.03872 0
M  V30 1877 H 178.432 0.265502 -3.1147 0
M  V30 1878 H 177.652 -2.21593 -3.26022 0
M  V30 1879 H 178.94 -2.46145 -4.45298 0
M  V30 1880 H 178.338 0.491741 -5.63559 0
M  V30 1881 H 176.895 0.182714 -6.51544 0
M  V30 1882 N 180.328 1.1314 -1.09713 0
M  V30 1883 C 181.574 1.84967 -0.846104 0
M  V30 1884 C 181.929 1.82082 0.621601 0
M  V30 1885 O 181.222 1.2501 1.452 0
M  V30 1886 C 181.416 3.32167 -1.3191 0
M  V30 1887 C 181.245 3.49386 -2.83125 0
M  V30 1888 C 180.015 3.63456 -3.51038 0
M  V30 1889 C 182.213 3.45179 -3.81256 0
M  V30 1890 N 180.195 3.68966 -4.9065 0
M  V30 1891 C 181.566 3.57094 -5.06837 0
M  V30 1892 C 183.621 3.28598 -3.74069 0
M  V30 1893 C 182.324 3.5414 -6.26081 0
M  V30 1894 C 184.35 3.26953 -4.92804 0
M  V30 1895 C 183.712 3.39422 -6.17229 0
M  V30 1896 H 179.811 0.692899 -0.362512 0
M  V30 1897 H 182.395 1.35506 -1.39808 0
M  V30 1898 H 180.566 3.80186 -0.794535 0
M  V30 1899 H 182.298 3.91815 -1.01308 0
M  V30 1900 H 179.053 3.65256 -3.01471 0
M  V30 1901 H 179.477 3.75404 -5.63383 0
M  V30 1902 H 184.119 3.17858 -2.78794 0
M  V30 1903 H 181.837 3.63653 -7.21653 0
M  V30 1904 H 185.423 3.15316 -4.88945 0
M  V30 1905 H 184.303 3.38114 -7.07565 0
M  V30 1906 N 181.806 0.884767 1.30421 0
M  V30 1907 C 183.053 0.503105 1.96151 0
M  V30 1908 C 183.381 -0.947676 1.69851 0
M  V30 1909 O 182.636 -1.68467 0.995861 0
M  V30 1910 C 182.935 0.724318 3.49983 0
M  V30 1911 C 182.601 2.15015 3.96332 0
M  V30 1912 C 181.263 2.54005 4.08699 0
M  V30 1913 C 183.615 3.07936 4.20505 0
M  V30 1914 C 180.943 3.85128 4.42599 0
M  V30 1915 C 183.295 4.3859 4.55874 0
M  V30 1916 C 181.959 4.77474 4.66449 0
M  V30 1917 H 181.229 0.184099 0.717766 0
M  V30 1918 H 183.876 1.12058 1.55291 0
M  V30 1919 H 182.181 0.0238086 3.91793 0
M  V30 1920 H 183.878 0.408617 3.98913 0
M  V30 1921 H 180.468 1.8375 3.87213 0
M  V30 1922 H 184.652 2.79033 4.10431 0
M  V30 1923 H 179.908 4.14996 4.48986 0
M  V30 1924 H 184.082 5.10629 4.7353 0
M  V30 1925 H 181.709 5.79115 4.92473 0
M  V30 1926 N 183.284 -1.43765 0.645699 0
M  V30 1927 C 184.532 -2.01499 0.155731 0
M  V30 1928 C 184.853 -1.51151 -1.232 0
M  V30 1929 O 184.123 -0.721044 -1.82148 0
M  V30 1930 H 182.703 -0.745003 0.0545817 0
M  V30 1931 H 185.365 -1.76075 0.835677 0
M  V30 1932 H 184.461 -3.1181 0.134577 0
M  V30 1933 N 184.763 -0.387143 -1.52771 0
M  V30 1934 C 185.726 0.436939 -2.24997 0
M  V30 1935 C 186.726 0.991991 -1.26555 0
M  V30 1936 O 187.916 0.874335 -1.50669 0
M  V30 1937 C 185.048 1.61281 -3.00335 0
M  V30 1938 H 186.241 -0.195365 -2.99263 0
M  V30 1939 H 183.794 -0.139218 -1.55679 0
M  V30 1940 H 184.529 2.2826 -2.30364 0
M  V30 1941 H 184.314 1.22154 -3.72587 0
M  V30 1942 H 185.804 2.19629 -3.5518 0
M  V30 1943 N 186.241 1.57166 -0.116904 0
M  V30 1944 C 187.466 1.999 0.55271 0
M  V30 1945 C 187.891 0.996039 1.59564 0
M  V30 1946 O 187.249 -0.032556 1.81271 0
M  V30 1947 C 187.297 3.4152 1.15742 0
M  V30 1948 O 186.401 3.44106 2.27299 0
M  V30 1949 H 185.742 0.649447 0.138258 0
M  V30 1950 H 188.272 2.03573 -0.204759 0
M  V30 1951 H 188.282 3.79684 1.49346 0
M  V30 1952 H 186.957 4.14034 0.393493 0
M  V30 1953 H 185.534 3.17759 1.9515 0
M  V30 1954 N 187.719 -0.156864 1.56817 0
M  V30 1955 C 188.965 -0.872416 1.83076 0
M  V30 1956 C 189.298 -1.81261 0.697001 0
M  V30 1957 O 188.573 -1.92171 -0.30008 0
M  V30 1958 C 188.856 -1.65551 3.19789 0
M  V30 1959 C 188.709 -0.737467 4.43713 0
M  V30 1960 C 190.028 -2.62012 3.53606 0
M  V30 1961 H 187.147 -0.315715 0.665953 0
M  V30 1962 H 189.789 -0.138004 1.89498 0
M  V30 1963 H 187.939 -2.28159 3.14445 0
M  V30 1964 H 189.611 -0.123143 4.61136 0
M  V30 1965 H 187.854 -0.0464067 4.33775 0
M  V30 1966 H 188.525 -1.32122 5.35955 0
M  V30 1967 H 191.001 -2.09525 3.59497 0
M  V30 1968 H 189.877 -3.13861 4.50314 0
M  V30 1969 H 190.138 -3.42902 2.79053 0
M  V30 1970 N 189.197 -1.51736 -0.425897 0
M  V30 1971 C 190.613 -1.40166 -0.76326 0
M  V30 1972 C 190.813 -0.492962 -1.95377 0
M  V30 1973 O 189.869 0.0475815 -2.52455 0
M  V30 1974 C 191.182 -2.82403 -1.03291 0
M  V30 1975 C 192.73 -2.91632 -1.13665 0
M  V30 1976 C 193.205 -4.34801 -1.43916 0
M  V30 1977 N 194.696 -4.3796 -1.50816 0
M  V30 1978 C 195.431 -5.4578 -1.75817 0
M  V30 1979 N 194.927 -6.63744 -1.98534 0
M  V30 1980 N 196.72 -5.33274 -1.77694 0
M  V30 1981 H 188.871 -2.09361 0.358 0
M  V30 1982 H 191.134 -0.942941 0.0978094 0
M  V30 1983 H 190.84 -3.50943 -0.230696 0
M  V30 1984 H 190.714 -3.22428 -1.95754 0
M  V30 1985 H 193.101 -2.23284 -1.92947 0
M  V30 1986 H 193.182 -2.55088 -0.190756 0
M  V30 1987 H 192.826 -5.03703 -0.65157 0
M  V30 1988 H 192.756 -4.68868 -2.39729 0
M  V30 1989 H 195.247 -3.52919 -1.35118 0
M  V30 1990 H 195.56 -7.41704 -2.17013 0
M  V30 1991 H 193.905 -6.66839 -1.95832 0
M  V30 1992 H 197.096 -4.40098 -1.59473 0
M  V30 1993 H 197.269 -6.1738 -1.9684 0
M  V30 1994 N 190.675 0.682077 -1.42076 0
M  V30 1995 C 191.9 1.47558 -1.45744 0
M  V30 1996 C 192.325 1.87977 -0.0680981 0
M  V30 1997 O 191.683 1.55522 0.9318 0
M  V30 1998 C 191.731 2.70575 -2.38373 0
M  V30 1999 O 190.835 3.68573 -1.85007 0
M  V30 2000 H 190.176 0.443585 -0.494093 0
M  V30 2001 H 192.706 0.837238 -1.86686 0
M  V30 2002 H 192.716 3.18729 -2.54707 0
M  V30 2003 H 191.391 2.40495 -3.39315 0
M  V30 2004 H 189.968 3.2757 -1.78192 0
M  V30 2005 N 192.153 1.28127 0.917671 0
M  V30 2006 C 193.1 1.11717 2.0196 0
M  V30 2007 C 194.07 0.0153929 1.66093 0
M  V30 2008 O 195.255 0.179596 1.89953 0
M  V30 2009 C 192.395 0.780927 3.36148 0
M  V30 2010 C 191.508 1.96135 3.84909 0
M  V30 2011 C 190.643 1.56609 5.0759 0
M  V30 2012 C 189.682 2.71339 5.48673 0
M  V30 2013 N 188.819 2.32332 6.62545 0
M  V30 2014 H 193.659 2.06003 2.15329 0
M  V30 2015 H 191.196 1.02535 1.05475 0
M  V30 2016 H 193.154 0.56675 4.13333 0
M  V30 2017 H 191.784 -0.124998 3.22558 0
M  V30 2018 H 190.836 2.28777 3.03916 0
M  V30 2019 H 192.148 2.82165 4.1132 0
M  V30 2020 H 191.302 1.31374 5.92305 0
M  V30 2021 H 190.041 0.677014 4.82978 0
M  V30 2022 H 189.046 2.97276 4.62501 0
M  V30 2023 H 190.271 3.60882 5.75274 0
M  V30 2024 H 188.217 1.45889 6.39572 0
M  V30 2025 H 188.134 3.11899 6.88662 0
M  V30 2026 H 189.402 2.10371 7.50576 0
M  V30 2027 N 193.631 -1.12557 1.10312 0
M  V30 2028 C 194.563 -2.17971 0.708625 0
M  V30 2029 C 195.576 -1.60806 -0.254027 0
M  V30 2030 O 196.765 -1.78458 -0.0386891 0
M  V30 2031 C 193.865 -3.38891 0.0248198 0
M  V30 2032 C 193.038 -4.25548 1.01132 0
M  V30 2033 C 192.097 -5.24972 0.35924 0
M  V30 2034 O 191.123 -5.60174 1.00965 0
M  V30 2035 N 192.325 -5.73747 -0.882847 0
M  V30 2036 H 195.09 -2.52427 1.61557 0
M  V30 2037 H 192.651 -1.27967 0.991771 0
M  V30 2038 H 194.643 -4.02485 -0.422852 0
M  V30 2039 H 193.213 -3.02596 -0.784514 0
M  V30 2040 H 192.433 -3.58589 1.6373 0
M  V30 2041 H 193.721 -4.80294 1.67914 0
M  V30 2042 H 193.119 -5.4731 -1.43065 0
M  V30 2043 H 191.676 -6.39234 -1.27369 0
M  V30 2044 N 195.109 -0.891671 -1.2995 0
M  V30 2045 C 196.386 -0.433307 -1.9074 0
M  V30 2046 C 196.766 1.08646 -1.80995 0
M  V30 2047 O 196.114 1.92476 -1.23147 0
M  V30 2048 C 196.324 -0.938895 -3.36134 0
M  V30 2049 C 197.672 -0.977829 -4.13187 0
M  V30 2050 O 198.696 -0.886015 -3.45005 0
M  V30 2051 O 197.555 -1.11453 -5.35015 0
M  V30 2052 H 194.649 -0.133699 -0.816121 0
M  V30 2053 H 197.195 -0.981011 -1.38471 0
M  V30 2054 H 195.967 -1.98281 -3.37343 0
M  V30 2055 H 195.59 -0.37074 -3.95868 0
M  V30 2056 N 196.587 1.43421 -0.653314 0
M  V30 2057 C 197.534 2.30768 0.0382271 0
M  V30 2058 C 198.504 1.44755 0.814576 0
M  V30 2059 O 199.689 1.73624 0.791162 0
M  V30 2060 C 196.829 3.30336 0.998599 0
M  V30 2061 C 195.942 4.31448 0.218342 0
M  V30 2062 C 195.077 5.18098 1.17252 0
M  V30 2063 C 194.116 6.10902 0.382702 0
M  V30 2064 N 193.253 6.90176 1.28848 0
M  V30 2065 H 198.093 2.89357 -0.712511 0
M  V30 2066 H 195.63 1.42548 -0.363128 0
M  V30 2067 H 197.588 3.86572 1.56901 0
M  V30 2068 H 196.218 2.73397 1.71621 0
M  V30 2069 H 195.27 3.77506 -0.46836 0
M  V30 2070 H 196.582 4.97227 -0.395812 0
M  V30 2071 H 195.736 5.7896 1.81356 0
M  V30 2072 H 194.475 4.52444 1.82058 0
M  V30 2073 H 193.48 5.49128 -0.27169 0
M  V30 2074 H 194.705 6.78598 -0.260957 0
M  V30 2075 H 192.651 6.27171 1.92334 0
M  V30 2076 H 192.568 7.52478 0.728887 0
M  V30 2077 H 193.836 7.55543 1.91766 0
M  V30 2078 N 198.065 0.39524 1.52563 0
M  V30 2079 C 199.314 -0.186321 2.00838 0
M  V30 2080 C 199.627 -1.47402 1.28577 0
M  V30 2081 O 200.833 -2.13599 1.67593 0
M  V30 2082 C 199.289 -0.382595 3.57861 0
M  V30 2083 C 198.897 0.892202 4.39026 0
M  V30 2084 C 200.641 -0.9202 4.14406 0
M  V30 2085 C 198.548 0.66388 5.87662 0
M  V30 2086 H 197.478 -0.0734041 0.750418 0
M  V30 2087 H 200.129 0.518552 1.76021 0
M  V30 2088 H 198.511 -1.14946 3.7895 0
M  V30 2089 H 199.685 1.66414 4.29701 0
M  V30 2090 H 198 1.35519 3.9373 0
M  V30 2091 H 200.597 -1.10683 5.23119 0
M  V30 2092 H 200.94 -1.89096 3.70875 0
M  V30 2093 H 201.473 -0.212751 3.97231 0
M  V30 2094 H 198.212 1.6058 6.35527 0
M  V30 2095 H 197.732 -0.0690193 5.9976 0
M  V30 2096 H 199.411 0.300699 6.46301 0
M  V30 2097 N 199.544 -1.57102 0.125237 0
M  V30 2098 C 200.474 -2.18659 -0.819174 0
M  V30 2099 C 201.455 -1.12843 -1.27281 0
M  V30 2100 O 202.64 -1.41104 -1.33429 0
M  V30 2101 C 199.77 -2.79096 -2.06695 0
M  V30 2102 C 198.724 -3.90548 -1.75088 0
M  V30 2103 C 198.05 -4.37821 -3.06948 0
M  V30 2104 C 199.35 -5.12356 -1.01435 0
M  V30 2105 H 201.044 -2.9783 -0.306202 0
M  V30 2106 H 198.59 -1.4326 -0.145839 0
M  V30 2107 H 200.543 -3.2082 -2.73226 0
M  V30 2108 H 199.267 -1.97223 -2.60328 0
M  V30 2109 H 197.926 -3.49409 -1.10944 0
M  V30 2110 H 197.574 -3.52799 -3.58527 0
M  V30 2111 H 197.274 -5.12982 -2.86571 0
M  V30 2112 H 198.798 -4.822 -3.74587 0
M  V30 2113 H 200.212 -5.5106 -1.58132 0
M  V30 2114 H 198.609 -5.9314 -0.911319 0
M  V30 2115 H 199.679 -4.849 -0.00218681 0
M  V30 2116 N 201.022 0.148545 -1.56898 0
M  V30 2117 C 201.985 1.16736 -1.97244 0
M  V30 2118 C 202.985 1.35947 -0.858777 0
M  V30 2119 O 204.175 1.32966 -1.12542 0
M  V30 2120 C 201.307 2.52798 -2.28705 0
M  V30 2121 H 202.5 0.821279 -2.88435 0
M  V30 2122 H 200.053 0.391831 -1.51309 0
M  V30 2123 H 200.788 2.92381 -1.403 0
M  V30 2124 H 200.573 2.40216 -3.09901 0
M  V30 2125 H 202.063 3.26179 -2.60762 0
M  V30 2126 N 202.5 1.5196 0.417844 0
M  V30 2127 C 203.74 1.67262 1.17486 0
M  V30 2128 C 204.104 0.38983 1.88001 0
M  V30 2129 O 205.305 0.418845 2.65517 0
M  V30 2130 C 203.576 2.85526 2.14965 0
M  V30 2131 S 205.135 3.21263 2.98891 0
M  V30 2132 H 201.953 0.589077 0.398132 0
M  V30 2133 H 204.555 1.89927 0.463452 0
M  V30 2134 H 203.259 3.77145 1.61833 0
M  V30 2135 H 202.79 2.65107 2.90657 0
M  V30 2136 H 204.805 2.69208 4.16823 0
M  V30 2137 N 203.978 -0.674533 1.42435 0
M  V30 2138 C 204.941 -1.76986 1.45632 0
M  V30 2139 C 205.941 -1.5708 0.343871 0
M  V30 2140 O 207.131 -1.63367 0.604709 0
M  V30 2141 C 204.263 -3.15623 1.28822 0
M  V30 2142 H 205.456 -1.75539 2.43158 0
M  V30 2143 H 203.009 -0.884189 1.28887 0
M  V30 2144 H 203.744 -3.22696 0.322193 0
M  V30 2145 H 203.529 -3.31475 2.09444 0
M  V30 2146 H 205.019 -3.95537 1.33942 0
M  V30 2147 N 205.456 -1.28612 -0.910864 0
M  V30 2148 C 206.867 -1.14406 -1.47541 0
M  V30 2149 C 207.218 0.264901 -1.94403 0
M  V30 2150 O 206.343 1.15942 -1.82719 0
M  V30 2151 C 206.938 -2.07073 -2.68153 0
M  V30 2152 C 205.497 -1.96923 -3.20778 0
M  V30 2153 C 204.644 -1.98646 -1.93481 0
M  V30 2154 H 207.595 -1.41259 -0.723291 0
M  V30 2155 H 207.616 -1.63642 -3.43514 0
M  V30 2156 H 207.128 -3.09611 -2.34015 0
M  V30 2157 H 205.229 -0.97433 -3.59635 0
M  V30 2158 H 205.342 -2.84026 -3.85832 0
M  V30 2159 H 203.706 -1.43093 -2.10705 0
M  V30 2160 H 204.489 -3.02868 -1.61634 0
M  V30 2161 N 206.934 1.1197 -1.10907 0
M  V30 2162 C 207.864 2.19928 -0.784473 0
M  V30 2163 C 208.845 1.6833 0.244726 0
M  V30 2164 O 210.03 1.93892 0.109418 0
M  V30 2165 C 207.16 3.46597 -0.220827 0
M  V30 2166 C 206.114 4.11376 -1.18127 0
M  V30 2167 C 205.44 5.32554 -0.478594 0
M  V30 2168 C 206.74 4.56945 -2.52979 0
M  V30 2169 H 208.434 2.47337 -1.68715 0
M  V30 2170 H 205.98 1.18879 -0.812642 0
M  V30 2171 H 207.933 4.21396 0.0184278 0
M  V30 2172 H 206.657 3.1863 0.717113 0
M  V30 2173 H 205.316 3.38564 -1.40606 0
M  V30 2174 H 204.964 5.00856 0.463976 0
M  V30 2175 H 204.664 5.76844 -1.11912 0
M  V30 2176 H 206.188 6.10096 -0.248 0
M  V30 2177 H 207.602 5.23093 -2.3462 0
M  V30 2178 H 205.999 5.1203 -3.12962 0
M  V30 2179 H 207.069 3.70676 -3.12614 0
M  V30 2180 N 208.412 0.89855 1.29475 0
M  V30 2181 C 209.642 0.538479 1.99459 0
M  V30 2182 C 210.05 -0.880922 1.67441 0
M  V30 2183 O 209.393 -1.59283 0.915127 0
M  V30 2184 C 209.455 0.649564 3.53583 0
M  V30 2185 C 209.119 2.03573 4.09154 0
M  V30 2186 C 210.116 3.00675 4.24135 0
M  V30 2187 C 207.801 2.3448 4.44212 0
M  V30 2188 C 209.795 4.26809 4.73405 0
M  V30 2189 C 207.482 3.60857 4.93179 0
M  V30 2190 C 208.48 4.56836 5.0773 0
M  V30 2191 O 208.168 5.80969 5.55635 0
M  V30 2192 H 207.9 0.205372 0.644048 0
M  V30 2193 H 210.454 1.20958 1.66007 0
M  V30 2194 H 208.684 -0.0785592 3.8662 0
M  V30 2195 H 210.373 0.29881 4.04799 0
M  V30 2196 H 211.139 2.78112 3.97339 0
M  V30 2197 H 207.018 1.60534 4.32145 0
M  V30 2198 H 210.562 5.0173 4.84678 0
M  V30 2199 H 206.459 3.83251 5.19412 0
M  V30 2200 H 207.227 5.83542 5.73952 0
M  V30 2201 N 209.89 -1.43072 0.660911 0
M  V30 2202 C 210.84 -2.27948 -0.04847 0
M  V30 2203 C 211.824 -1.40325 -0.787246 0
M  V30 2204 O 213.016 -1.63893 -0.668446 0
M  V30 2205 C 210.145 -3.28143 -1.00881 0
M  V30 2206 C 209.231 -4.23252 -0.268108 0
M  V30 2207 N 209.622 -5.00656 0.719528 0
M  V30 2208 C 207.92 -4.43092 -0.508493 0
M  V30 2209 C 208.621 -5.70019 1.15988 0
M  V30 2210 N 207.597 -5.41364 0.492584 0
M  V30 2211 H 211.399 -2.85213 0.709279 0
M  V30 2212 H 208.913 -1.54869 0.488822 0
M  V30 2213 H 210.91 -3.87736 -1.53188 0
M  V30 2214 H 209.57 -2.7244 -1.76654 0
M  V30 2215 H 210.581 -5.06115 1.09855 0
M  V30 2216 H 207.258 -3.98449 -1.24679 0
M  V30 2217 H 208.648 -6.4214 1.97751 0
M  V30 2218 N 211.368 -0.403325 -1.52352 0
M  V30 2219 C 212.614 0.167015 -2.02713 0
M  V30 2220 C 212.969 1.43296 -1.28391 0
M  V30 2221 O 212.262 1.87796 -0.379885 0
M  V30 2222 C 212.456 0.474665 -3.54234 0
M  V30 2223 C 212.285 -0.759909 -4.43233 0
M  V30 2224 C 211.055 -1.28338 -4.88731 0
M  V30 2225 C 213.253 -1.63634 -4.87574 0
M  V30 2226 N 211.235 -2.47404 -5.6184 0
M  V30 2227 C 212.606 -2.67329 -5.59406 0
M  V30 2228 C 214.661 -1.65478 -4.69597 0
M  V30 2229 C 213.364 -3.72773 -6.15169 0
M  V30 2230 C 215.39 -2.69837 -5.26253 0
M  V30 2231 C 214.752 -3.72253 -5.98002 0
M  V30 2232 H 210.851 0.0228343 -0.781667 0
M  V30 2233 H 213.435 -0.556368 -1.86581 0
M  V30 2234 H 211.606 1.16709 -3.7045 0
M  V30 2235 H 213.338 1.03338 -3.91284 0
M  V30 2236 H 210.093 -0.842273 -4.6605 0
M  V30 2237 H 210.517 -3.07688 -6.0304 0
M  V30 2238 H 215.159 -0.876389 -4.13617 0
M  V30 2239 H 212.877 -4.51471 -6.70223 0
M  V30 2240 H 216.463 -2.72164 -5.14216 0
M  V30 2241 H 215.343 -4.51679 -6.41058 0
M  V30 2242 N 212.846 1.57033 -0.133567 0
M  V30 2243 C 214.262 1.58035 0.222944 0
M  V30 2244 C 214.462 1.14713 1.6566 0
M  V30 2245 O 213.518 0.841218 2.38075 0
M  V30 2246 C 214.831 3.00691 -0.0236116 0
M  V30 2247 C 216.379 3.12973 0.0411512 0
M  V30 2248 C 216.854 4.57654 -0.177899 0
M  V30 2249 N 218.345 4.63033 -0.124365 0
M  V30 2250 C 219.08 5.72771 -0.268553 0
M  V30 2251 N 218.576 6.91206 -0.46972 0
M  V30 2252 N 220.369 5.61718 -0.2071 0
M  V30 2253 H 212.52 1.8349 -1.06981 0
M  V30 2254 H 214.783 0.848677 -0.422436 0
M  V30 2255 H 214.489 3.36726 -1.0153 0
M  V30 2256 H 214.363 3.70614 0.701808 0
M  V30 2257 H 216.75 2.76787 1.02338 0
M  V30 2258 H 216.831 2.45564 -0.716383 0
M  V30 2259 H 216.475 4.94542 -1.15717 0
M  V30 2260 H 216.405 5.23173 0.599797 0
M  V30 2261 H 218.896 3.7789 0.027011 0
M  V30 2262 H 219.209 7.70693 -0.570212 0
M  V30 2263 H 217.554 6.93156 -0.505876 0
M  V30 2264 H 220.745 4.68072 -0.0507986 0
M  V30 2265 H 220.918 6.47195 -0.322909 0
M  V30 2266 N 214.325 -0.140222 1.56975 0
M  V30 2267 C 215.553 -0.866437 1.87884 0
M  V30 2268 C 215.968 -1.74428 0.722517 0
M  V30 2269 O 215.325 -1.79891 -0.30749 0
M  V30 2270 C 215.376 -1.71753 3.18093 0
M  V30 2271 O 215.097 -0.875056 4.29272 0
M  V30 2272 C 216.598 -2.55074 3.62563 0
M  V30 2273 H 213.818 -0.25019 0.622612 0
M  V30 2274 H 216.362 -0.130977 2.0408 0
M  V30 2275 H 214.517 -2.40598 3.03631 0
M  V30 2276 H 214.931 -1.46002 5.03769 0
M  V30 2277 H 216.405 -3.10356 4.5649 0
M  V30 2278 H 216.882 -3.31434 2.88181 0
M  V30 2279 H 217.488 -1.91509 3.79743 0
M  V30 2280 N 215.803 -1.52179 -0.40978 0
M  V30 2281 C 216.713 -1.78364 -1.52392 0
M  V30 2282 C 217.729 -0.669183 -1.60617 0
M  V30 2283 O 218.905 -0.954518 -1.77344 0
M  V30 2284 C 215.97 -1.92822 -2.88133 0
M  V30 2285 C 215.031 -3.16725 -2.898 0
M  V30 2286 C 214.264 -3.30483 -4.19067 0
M  V30 2287 O 214.487 -2.49522 -5.12928 0
M  V30 2288 O 213.421 -4.2363 -4.27576 0
M  V30 2289 H 217.247 -2.72931 -1.33201 0
M  V30 2290 H 214.832 -1.37016 -0.59557 0
M  V30 2291 H 216.714 -2.04157 -3.68643 0
M  V30 2292 H 215.389 -1.01444 -3.07393 0
M  V30 2293 H 214.296 -3.10848 -2.08146 0
M  V30 2294 H 215.629 -4.07881 -2.75489 0
M  V30 2295 N 217.281 0.66697 -1.42791 0
M  V30 2296 C 218.214 1.79177 -1.41318 0
M  V30 2297 C 219.192 1.60234 -0.276401 0
M  V30 2298 O 220.376 1.82602 -0.46785 0
M  V30 2299 C 217.503 3.16289 -1.21157 0
M  V30 2300 C 216.549 3.53964 -2.37932 0
M  V30 2301 S 217.382 3.55501 -4.00474 0
M  V30 2302 C 218.538 4.95292 -3.8267 0
M  V30 2303 H 218.771 1.80153 -2.365 0
M  V30 2304 H 216.304 0.838357 -1.29657 0
M  V30 2305 H 218.262 3.95428 -1.10212 0
M  V30 2306 H 216.923 3.1289 -0.275481 0
M  V30 2307 H 216.116 4.53646 -2.19594 0
M  V30 2308 H 215.718 2.82204 -2.45432 0
M  V30 2309 H 218.01 5.83584 -3.44145 0
M  V30 2310 H 218.953 5.18679 -4.82055 0
M  V30 2311 H 219.361 4.68179 -3.15386 0
M  V30 2312 N 218.759 1.29093 0.90403 0
M  V30 2313 C 219.706 1.13853 2.00764 0
M  V30 2314 C 220.676 0.0330084 1.66067 0
M  V30 2315 O 221.861 0.199733 1.89752 0
M  V30 2316 C 219.001 0.816537 3.35301 0
M  V30 2317 C 218.114 2.00206 3.82807 0
M  V30 2318 C 217.249 1.61983 5.059 0
M  V30 2319 C 216.288 2.77143 5.45764 0
M  V30 2320 N 215.425 2.39346 6.60044 0
M  V30 2321 H 220.265 2.08276 2.13132 0
M  V30 2322 H 217.802 1.03648 1.04381 0
M  V30 2323 H 219.76 0.610557 4.12708 0
M  V30 2324 H 218.39 -0.090779 3.22672 0
M  V30 2325 H 217.442 2.31988 3.01473 0
M  V30 2326 H 218.754 2.86512 4.08304 0
M  V30 2327 H 217.908 1.37649 5.90879 0
M  V30 2328 H 216.647 0.728202 4.82233 0
M  V30 2329 H 215.652 3.02165 4.59322 0
M  V30 2330 H 216.877 3.66964 5.71414 0
M  V30 2331 H 214.823 1.52665 6.37989 0
M  V30 2332 H 214.74 3.19185 6.85315 0
M  V30 2333 H 216.008 2.1832 7.48303 0
M  V30 2334 N 220.237 -1.11381 1.11499 0
M  V30 2335 C 221.169 -2.17207 0.731704 0
M  V30 2336 C 222.182 -1.61066 -0.236957 0
M  V30 2337 O 223.371 -1.78489 -0.0197591 0
M  V30 2338 C 220.471 -3.38846 0.0607624 0
M  V30 2339 C 219.644 -4.24451 1.0564 0
M  V30 2340 C 218.703 -5.24562 0.4149 0
M  V30 2341 O 217.729 -5.59071 1.069 0
M  V30 2342 N 218.931 -5.74651 -0.821943 0
M  V30 2343 H 221.696 -2.50699 1.64225 0
M  V30 2344 H 219.257 -1.26908 1.00529 0
M  V30 2345 H 221.249 -4.02911 -0.380139 0
M  V30 2346 H 219.819 -3.03411 -0.752376 0
M  V30 2347 H 219.039 -3.56833 1.67524 0
M  V30 2348 H 220.327 -4.78486 1.72998 0
M  V30 2349 H 219.725 -5.48797 -1.37252 0
M  V30 2350 H 218.282 -6.40549 -1.20582 0
M  V30 2351 N 221.715 -0.905404 -1.28997 0
M  V30 2352 C 222.625 -0.392246 -2.31298 0
M  V30 2353 C 223.641 0.515889 -1.66176 0
M  V30 2354 O 224.817 0.404093 -1.97304 0
M  V30 2355 C 221.882 0.36686 -3.44754 0
M  V30 2356 C 220.943 -0.573485 -4.25452 0
M  V30 2357 C 220.176 0.149488 -5.33491 0
M  V30 2358 O 220.399 1.37255 -5.5364 0
M  V30 2359 O 219.333 -0.510919 -5.99728 0
M  V30 2360 H 223.159 -1.2411 -2.77183 0
M  V30 2361 H 220.744 -0.669926 -1.33538 0
M  V30 2362 H 222.626 0.795907 -4.13816 0
M  V30 2363 H 221.301 1.19169 -3.00966 0
M  V30 2364 H 220.208 -1.05176 -3.59011 0
M  V30 2365 H 221.541 -1.36489 -4.72897 0
M  V30 2366 N 223.193 1.4272 -0.668489 0
M  V30 2367 C 224.609 1.55992 -0.33745 0
M  V30 2368 C 224.809 1.64933 1.15756 0
M  V30 2369 O 223.865 1.61278 1.94282 0
M  V30 2370 C 225.178 2.81314 -1.06222 0
M  V30 2371 C 226.726 2.95078 -1.04394 0
M  V30 2372 C 227.201 4.23252 -1.74991 0
M  V30 2373 N 228.692 4.3015 -1.71829 0
M  V30 2374 C 229.427 5.28127 -2.23315 0
M  V30 2375 N 228.923 6.32293 -2.83156 0
M  V30 2376 N 230.716 5.19882 -2.13726 0
M  V30 2377 H 222.867 1.3516 -1.63846 0
M  V30 2378 H 225.13 0.650174 -0.689912 0
M  V30 2379 H 224.836 2.80823 -2.11734 0
M  V30 2380 H 224.71 3.72012 -0.62344 0
M  V30 2381 H 227.097 2.951 0.0028244 0
M  V30 2382 H 227.178 2.05627 -1.52155 0
M  V30 2383 H 226.822 4.2399 -2.79633 0
M  V30 2384 H 226.752 5.11626 -1.24685 0
M  V30 2385 H 229.243 3.55499 -1.28175 0
M  V30 2386 H 229.556 7.03398 -3.20079 0
M  V30 2387 H 227.901 6.32873 -2.87223 0
M  V30 2388 H 231.092 4.37423 -1.66669 0
M  V30 2389 H 231.265 5.96077 -2.54158 0
M  V30 2390 N 224.671 0.411399 1.52136 0
M  V30 2391 C 225.581 -0.419774 2.30814 0
M  V30 2392 C 226.597 -1.0515 1.38634 0
M  V30 2393 O 227.773 -1.05252 1.71709 0
M  V30 2394 C 224.838 -1.52019 3.11594 0
M  V30 2395 C 223.899 -0.91129 4.19516 0
M  V30 2396 C 223.132 -1.95927 4.96436 0
M  V30 2397 O 223.355 -3.17775 4.73683 0
M  V30 2398 O 222.289 -1.56423 5.81219 0
M  V30 2399 H 226.115 0.221805 3.02889 0
M  V30 2400 H 223.7 0.174547 1.48377 0
M  V30 2401 H 225.582 -2.15898 3.61892 0
M  V30 2402 H 224.257 -2.14633 2.42311 0
M  V30 2403 H 223.164 -0.235157 3.7336 0
M  V30 2404 H 224.497 -0.32904 4.91099 0
M  V30 2405 N 226.149 -1.5696 0.141893 0
M  V30 2406 C 227.56 -1.82797 -0.379776 0
M  V30 2407 C 227.911 -1.06033 -1.6508 0
M  V30 2408 O 227.036 -0.304011 -2.14254 0
M  V30 2409 C 227.631 -3.31578 -0.695802 0
M  V30 2410 C 226.19 -3.58014 -1.16201 0
M  V30 2411 C 225.337 -2.76699 -0.182455 0
M  V30 2412 H 228.288 -1.54406 0.366675 0
M  V30 2413 H 228.309 -3.47454 -1.55099 0
M  V30 2414 H 227.821 -3.87421 0.229449 0
M  V30 2415 H 225.922 -3.07553 -2.10338 0
M  V30 2416 H 226.035 -4.66501 -1.09151 0
M  V30 2417 H 224.399 -2.45618 -0.674072 0
M  V30 2418 H 225.182 -3.35311 0.736297 0
M  V30 2419 N 227.627 0.131896 -1.57047 0
M  V30 2420 C 228.873 0.843179 -1.84441 0
M  V30 2421 C 229.206 1.80129 -0.725749 0
M  V30 2422 O 228.481 1.92624 0.269469 0
M  V30 2423 C 228.764 1.60442 -3.22382 0
M  V30 2424 C 228.617 0.666782 -4.4483 0
M  V30 2425 C 229.936 2.56354 -3.5773 0
M  V30 2426 H 227.055 0.305081 -0.670891 0
M  V30 2427 H 229.697 0.107839 -1.89694 0
M  V30 2428 H 227.847 2.23128 -3.18035 0
M  V30 2429 H 229.519 0.0497646 -4.61273 0
M  V30 2430 H 227.762 -0.022609 -4.33794 0
M  V30 2431 H 228.433 1.23579 -5.37989 0
M  V30 2432 H 230.909 2.0378 -3.62785 0
M  V30 2433 H 229.785 3.06657 -4.5525 0
M  V30 2434 H 230.046 3.38419 -2.84473 0
M  V30 2435 N 229.106 1.52395 0.401703 0
M  V30 2436 C 230.354 1.66488 1.14569 0
M  V30 2437 C 230.675 0.400897 1.90835 0
M  V30 2438 O 229.945 -0.584415 1.8698 0
M  V30 2439 H 228.525 0.613672 0.425929 0
M  V30 2440 H 231.187 1.89464 0.457093 0
M  V30 2441 H 230.283 2.50942 1.85566 0
M  V30 2442 N 230.584 -0.659388 1.43143 0
M  V30 2443 C 231.812 -1.44723 1.47861 0
M  V30 2444 C 232.227 -1.88563 0.0945886 0
M  V30 2445 O 231.584 -1.59108 -0.893915 0
M  V30 2446 C 231.635 -2.68627 2.41913 0
M  V30 2447 O 231.356 -2.26623 3.74932 0
M  V30 2448 C 232.857 -3.62045 2.55809 0
M  V30 2449 H 230.077 -0.444801 0.502387 0
M  V30 2450 H 232.621 -0.808916 1.87821 0
M  V30 2451 H 230.776 -3.28613 2.05164 0
M  V30 2452 H 231.19 -3.06745 4.2545 0
M  V30 2453 H 232.664 -4.45666 3.25708 0
M  V30 2454 H 233.141 -4.08981 1.60099 0
M  V30 2455 H 233.747 -3.07944 2.93344 0
M  V30 2456 N 232.062 -1.29571 -0.897171 0
M  V30 2457 C 233.302 -1.18959 -1.66217 0
M  V30 2458 C 233.666 0.254271 -1.90309 0
M  V30 2459 O 234.867 0.483407 -2.64417 0
M  V30 2460 C 233.138 -1.98302 -2.9734 0
M  V30 2461 S 234.697 -2.04253 -3.88364 0
M  V30 2462 H 231.515 -0.424137 -0.570639 0
M  V30 2463 H 234.117 -1.6389 -1.06585 0
M  V30 2464 H 232.821 -3.02342 -2.77521 0
M  V30 2465 H 232.352 -1.53986 -3.62011 0
M  V30 2466 H 234.367 -1.16105 -4.82425 0
M  V30 2467 N 233.54 1.10788 -1.12088 0
M  V30 2468 C 234.787 1.82671 -0.873931 0
M  V30 2469 C 235.115 1.85004 0.600311 0
M  V30 2470 O 234.37 1.30365 1.45957 0
M  V30 2471 C 234.669 3.29294 -1.38926 0
M  V30 2472 C 234.335 3.47113 -2.87791 0
M  V30 2473 C 232.997 3.51684 -3.28439 0
M  V30 2474 C 235.349 3.52808 -3.83635 0
M  V30 2475 C 232.677 3.59513 -4.63646 0
M  V30 2476 C 235.029 3.62169 -5.18668 0
M  V30 2477 C 233.693 3.65003 -5.58864 0
M  V30 2478 H 232.963 0.668441 -0.319794 0
M  V30 2479 H 235.61 1.30613 -1.40045 0
M  V30 2480 H 233.915 3.83894 -0.783122 0
M  V30 2481 H 235.612 3.83416 -1.17443 0
M  V30 2482 H 232.202 3.4423 -2.5535 0
M  V30 2483 H 236.386 3.4853 -3.53328 0
M  V30 2484 H 231.642 3.59987 -4.94185 0
M  V30 2485 H 235.816 3.6552 -5.92763 0
M  V30 2486 H 233.443 3.70822 -6.63623 0
M  V30 2487 N 235.018 0.912232 1.28515 0
M  V30 2488 C 235.948 0.416403 2.29757 0
M  V30 2489 C 236.929 -0.515194 1.6211 0
M  V30 2490 O 238.114 -0.423253 1.89532 0
M  V30 2491 C 235.244 -0.34572 3.45575 0
M  V30 2492 C 234.198 0.496599 4.25109 0
M  V30 2493 C 233.524 -0.393771 5.33248 0
M  V30 2494 C 234.824 1.75307 4.92001 0
M  V30 2495 H 236.518 1.26249 2.7148 0
M  V30 2496 H 234.064 0.608515 1.30511 0
M  V30 2497 H 236.017 -0.703422 4.15488 0
M  V30 2498 H 234.741 -1.2257 3.02728 0
M  V30 2499 H 233.4 0.8368 3.56922 0
M  V30 2500 H 233.048 -1.27225 4.86644 0
M  V30 2501 H 232.748 0.166209 5.87365 0
M  V30 2502 H 234.272 -0.747389 6.06009 0
M  V30 2503 H 235.686 1.46437 5.54283 0
M  V30 2504 H 234.083 2.25534 5.56106 0
M  V30 2505 H 235.153 2.48176 4.16577 0
M  V30 2506 N 236.496 -1.42363 0.676048 0
M  V30 2507 C 237.428 -2.29164 -0.0404605 0
M  V30 2508 C 238.441 -1.43747 -0.764245 0
M  V30 2509 O 239.63 -1.67453 -0.618195 0
M  V30 2510 C 236.73 -3.21196 -1.08103 0
M  V30 2511 C 235.903 -4.35273 -0.430812 0
M  V30 2512 C 234.962 -5.08017 -1.37133 0
M  V30 2513 O 233.988 -5.62494 -0.87116 0
M  V30 2514 N 235.19 -5.13647 -2.70456 0
M  V30 2515 H 237.955 -2.91298 0.704667 0
M  V30 2516 H 235.516 -1.53303 0.520559 0
M  V30 2517 H 237.508 -3.66728 -1.71152 0
M  V30 2518 H 236.078 -2.60505 -1.72788 0
M  V30 2519 H 235.298 -3.92372 0.379209 0
M  V30 2520 H 236.586 -5.08795 0.0221132 0
M  V30 2521 H 235.984 -4.708 -3.1363 0
M  V30 2522 H 234.541 -5.62821 -3.28749 0
M  V30 2523 N 237.974 -0.419461 -1.51915 0
M  V30 2524 C 239.251 0.211999 -1.94448 0
M  V30 2525 C 239.631 1.61703 -1.35703 0
M  V30 2526 O 238.979 2.22102 -0.536931 0
M  V30 2527 C 239.189 0.207872 -3.4838 0
M  V30 2528 C 240.537 0.422192 -4.22496 0
M  V30 2529 O 241.561 0.286778 -3.55044 0
M  V30 2530 O 240.42 0.690009 -5.42126 0
M  V30 2531 H 237.514 0.139586 -0.815135 0
M  V30 2532 H 240.06 -0.476151 -1.62883 0
M  V30 2533 H 238.832 -0.775102 -3.83546 0
M  V30 2534 H 238.455 0.939688 -3.86336 0
M  V30 2535 N 239.452 1.56882 -0.150215 0
M  V30 2536 C 240.7 1.9584 0.499105 0
M  V30 2537 C 241.021 1.03623 1.65188 0
M  V30 2538 O 240.291 0.0984084 1.95653 0
M  V30 2539 H 238.871 0.723119 0.187373 0
M  V30 2540 H 241.533 1.9358 -0.226466 0
M  V30 2541 H 240.629 2.99638 0.873122 0
M  V30 2542 N 240.93 -0.123565 1.57115 0
M  V30 2543 C 242.158 -0.846461 1.88793 0
M  V30 2544 C 242.573 -1.73652 0.740976 0
M  V30 2545 O 241.93 -1.80207 -0.288393 0
M  V30 2546 C 241.981 -1.6837 3.19897 0
M  V30 2547 O 241.702 -0.829477 4.30176 0
M  V30 2548 C 243.203 -2.51214 3.65248 0
M  V30 2549 H 240.423 -0.243573 0.625231 0
M  V30 2550 H 242.967 -0.109324 2.04208 0
M  V30 2551 H 241.122 -2.37364 3.06165 0
M  V30 2552 H 241.536 -1.40651 5.0529 0
M  V30 2553 H 243.01 -3.05497 4.59756 0
M  V30 2554 H 243.487 -3.28359 2.9168 0
M  V30 2555 H 244.093 -1.8747 3.81752 0
M  V30 2556 N 242.408 -1.52605 -0.393616 0
M  V30 2557 C 243.355 -1.77055 -1.48054 0
M  V30 2558 C 244.325 -0.61358 -1.54352 0
M  V30 2559 O 245.51 -0.852806 -1.70681 0
M  V30 2560 C 242.65 -1.94108 -2.85335 0
M  V30 2561 C 241.763 -3.21792 -2.88226 0
M  V30 2562 C 240.898 -3.29188 -4.16904 0
M  V30 2563 C 239.937 -4.51013 -4.13828 0
M  V30 2564 N 239.074 -4.55716 -5.34105 0
M  V30 2565 H 243.914 -2.69815 -1.26506 0
M  V30 2566 H 241.451 -1.33683 -0.61379 0
M  V30 2567 H 243.409 -2.01979 -3.65049 0
M  V30 2568 H 242.039 -1.04713 -3.05344 0
M  V30 2569 H 241.091 -3.23015 -2.00911 0
M  V30 2570 H 242.403 -4.11557 -2.8182 0
M  V30 2571 H 241.557 -3.36216 -5.05018 0
M  V30 2572 H 240.296 -2.37389 -4.26026 0
M  V30 2573 H 239.301 -4.44115 -3.24102 0
M  V30 2574 H 240.526 -5.44123 -4.06333 0
M  V30 2575 H 238.472 -3.66807 -5.43865 0
M  V30 2576 H 238.389 -5.39346 -5.29756 0
M  V30 2577 H 239.657 -4.66993 -6.2413 0
M  V30 2578 N 243.887 0.651787 -1.4349 0
M  V30 2579 C 245.115 1.43937 -1.48626 0
M  V30 2580 C 245.53 1.8851 -0.104587 0
M  V30 2581 O 244.887 1.5958 0.885464 0
M  V30 2582 C 244.938 2.6734 -2.43334 0
M  V30 2583 O 244.659 2.24631 -3.76128 0
M  V30 2584 C 246.16 3.60683 -2.57726 0
M  V30 2585 H 243.38 0.44213 -0.504739 0
M  V30 2586 H 245.924 0.798944 -1.88248 0
M  V30 2587 H 244.079 3.2752 -2.06904 0
M  V30 2588 H 244.493 3.04485 -4.2707 0
M  V30 2589 H 245.967 4.43933 -3.28067 0
M  V30 2590 H 246.444 4.08126 -1.62265 0
M  V30 2591 H 247.05 3.06384 -2.94973 0
M  V30 2592 N 245.365 1.30045 0.890287 0
M  V30 2593 C 246.611 1.18737 1.64406 0
M  V30 2594 C 246.944 -0.258525 1.92472 0
M  V30 2595 O 246.219 -1.18562 1.54186 0
M  V30 2596 C 246.502 2.01087 2.98724 0
M  V30 2597 C 246.355 3.53867 2.77665 0
M  V30 2598 C 247.674 1.84457 3.9958 0
M  V30 2599 H 244.793 0.432698 0.596608 0
M  V30 2600 H 247.435 1.5962 1.0306 0
M  V30 2601 H 245.585 1.66349 3.51084 0
M  V30 2602 H 247.257 3.98637 2.32133 0
M  V30 2603 H 245.5 3.78318 2.12269 0
M  V30 2604 H 246.171 4.06772 3.7315 0
M  V30 2605 H 248.647 2.14817 3.56361 0
M  V30 2606 H 247.523 2.44411 4.91482 0
M  V30 2607 H 247.784 0.802276 4.3476 0
M  V30 2608 N 246.843 -1.10192 1.12674 0
M  V30 2609 C 247.753 -2.20172 0.810026 0
M  V30 2610 C 248.769 -1.72821 -0.202188 0
M  V30 2611 O 249.945 -2.01369 -0.0351691 0
M  V30 2612 C 247.01 -3.45631 0.272007 0
M  V30 2613 C 246.071 -4.07704 1.34447 0
M  V30 2614 C 245.304 -5.27175 0.832029 0
M  V30 2615 O 245.527 -5.69425 -0.333284 0
M  V30 2616 O 244.461 -5.80168 1.60277 0
M  V30 2617 H 248.287 -2.49701 1.72867 0
M  V30 2618 H 245.872 -1.18977 0.903597 0
M  V30 2619 H 247.754 -4.21394 -0.0230219 0
M  V30 2620 H 246.429 -3.17723 -0.619164 0
M  V30 2621 H 245.336 -3.33614 1.6927 0
M  V30 2622 H 246.669 -4.3982 2.2095 0
M  V30 2623 N 248.321 -0.919034 -1.28029 0
M  V30 2624 C 249.551 -0.570143 -1.98577 0
M  V30 2625 C 249.959 0.854172 -1.68821 0
M  V30 2626 O 249.302 1.57807 -0.940351 0
M  V30 2627 C 249.364 -0.705734 -3.52505 0
M  V30 2628 C 249.028 -2.10057 -4.05863 0
M  V30 2629 C 250.025 -3.07385 -4.19298 0
M  V30 2630 C 247.71 -2.41517 -4.40426 0
M  V30 2631 C 249.704 -4.34287 -4.66555 0
M  V30 2632 C 247.391 -3.68657 -4.87376 0
M  V30 2633 C 248.389 -4.64856 -5.00398 0
M  V30 2634 O 248.077 -5.89735 -5.46322 0
M  V30 2635 H 247.809 -0.215592 -0.6407 0
M  V30 2636 H 250.363 -1.23583 -1.64062 0
M  V30 2637 H 248.593 0.0170414 -3.86696 0
M  V30 2638 H 250.282 -0.363172 -4.04272 0
M  V30 2639 H 251.048 -2.84398 -3.92865 0
M  V30 2640 H 246.927 -1.67389 -4.29537 0
M  V30 2641 H 250.471 -5.09377 -4.76635 0
M  V30 2642 H 246.368 -3.91466 -5.13249 0
M  V30 2643 H 247.136 -5.92599 -5.64596 0
M  V30 2644 N 249.799 1.42003 -0.683588 0
M  V30 2645 C 250.762 2.29191 -0.0198243 0
M  V30 2646 C 251.762 1.43773 0.72013 0
M  V30 2647 O 252.952 1.65061 0.556815 0
M  V30 2648 C 250.084 3.26435 0.982487 0
M  V30 2649 H 251.277 2.8938 -0.787345 0
M  V30 2650 H 248.83 1.49789 -0.446418 0
M  V30 2651 H 249.565 2.71203 1.77819 0
M  V30 2652 H 249.35 3.89449 0.455182 0
M  V30 2653 H 250.84 3.918 1.44508 0
M  V30 2654 N 251.277 0.427512 1.51691 0
M  V30 2655 C 252.688 -0.0378867 1.86662 0
M  V30 2656 C 253.039 -1.42819 1.34525 0
M  V30 2657 O 252.164 -2.05037 0.692014 0
M  V30 2658 C 252.759 -0.0755266 3.38716 0
M  V30 2659 C 251.318 -0.485309 3.73258 0
M  V30 2660 C 250.465 0.328399 2.75349 0
M  V30 2661 H 253.416 0.64379 1.45055 0
M  V30 2662 H 253.437 -0.887056 3.70016 0
M  V30 2663 H 252.949 0.936487 3.76632 0
M  V30 2664 H 251.05 -1.50329 3.40928 0
M  V30 2665 H 251.163 -0.21693 4.78609 0
M  V30 2666 H 249.527 -0.211905 2.53817 0
M  V30 2667 H 250.31 1.3391 3.16106 0
M  V30 2668 N 252.755 -1.56801 0.158532 0
M  V30 2669 C 253.995 -1.98383 -0.49229 0
M  V30 2670 C 254.359 -1.04184 -1.61275 0
M  V30 2671 O 255.56 -1.34856 -2.32524 0
M  V30 2672 C 253.831 -3.4385 -0.974766 0
M  V30 2673 S 255.39 -4.07459 -1.62857 0
M  V30 2674 H 252.208 -0.693041 -0.158794 0
M  V30 2675 H 254.81 -1.93856 0.252974 0
M  V30 2676 H 253.514 -4.10131 -0.148688 0
M  V30 2677 H 253.045 -3.52115 -1.75438 0
M  V30 2678 H 255.06 -4.01458 -2.91627 0
M  V30 2679 N 254.233 0.115231 -1.57178 0
M  V30 2680 C 255.649 0.468877 -1.52557 0
M  V30 2681 C 255.849 1.81649 -0.872125 0
M  V30 2682 O 254.905 2.48347 -0.45606 0
M  V30 2683 C 256.218 0.4499 -2.97315 0
M  V30 2684 C 257.766 0.533185 -3.08425 0
M  V30 2685 C 258.241 0.54456 -4.54751 0
M  V30 2686 N 259.732 0.605892 -4.5922 0
M  V30 2687 C 260.467 0.636203 -5.6986 0
M  V30 2688 N 259.963 0.623931 -6.89985 0
M  V30 2689 N 261.756 0.679496 -5.57978 0
M  V30 2690 H 253.907 -0.767712 -1.9804 0
M  V30 2691 H 256.17 -0.283609 -0.904583 0
M  V30 2692 H 255.876 -0.472721 -3.48509 0
M  V30 2693 H 255.75 1.27632 -3.5495 0
M  V30 2694 H 258.137 1.44623 -2.57232 0
M  V30 2695 H 258.218 -0.320995 -2.53778 0
M  V30 2696 H 257.862 -0.364452 -5.06591 0
M  V30 2697 H 257.792 1.41568 -5.07214 0
M  V30 2698 H 260.283 0.621386 -3.72756 0
M  V30 2699 H 260.596 0.649787 -7.70063 0
M  V30 2700 H 258.941 0.591296 -6.9248 0
M  V30 2701 H 262.132 0.686472 -4.63039 0
M  V30 2702 H 262.305 0.69965 -6.44212 0
M  V30 2703 N 255.711 1.52812 0.385517 0
M  V30 2704 C 256.936 1.72207 1.15583 0
M  V30 2705 C 257.361 0.441034 1.82857 0
M  V30 2706 O 256.719 -0.603465 1.70962 0
M  V30 2707 C 256.767 2.87476 2.17692 0
M  V30 2708 O 255.871 2.54693 3.24354 0
M  V30 2709 H 255.212 0.572526 0.336319 0
M  V30 2710 H 257.742 1.99618 0.448744 0
M  V30 2711 H 257.752 3.13072 2.6163 0
M  V30 2712 H 256.427 3.80408 1.68115 0
M  V30 2713 H 255.004 2.3985 2.85529 0
M  V30 2714 N 257.189 -0.644168 1.43834 0
M  V30 2715 C 258.121 -1.76955 1.45669 0
M  V30 2716 C 259.134 -1.58956 0.351666 0
M  V30 2717 O 260.323 -1.6751 0.616644 0
M  V30 2718 C 257.423 -3.14507 1.26248 0
M  V30 2719 C 256.596 -3.59083 2.49757 0
M  V30 2720 C 255.655 -4.75467 2.25427 0
M  V30 2721 O 254.681 -4.84444 2.98836 0
M  V30 2722 N 255.883 -5.66289 1.27661 0
M  V30 2723 H 258.648 -1.75856 2.42682 0
M  V30 2724 H 256.209 -0.828312 1.39106 0
M  V30 2725 H 258.201 -3.90067 1.0784 0
M  V30 2726 H 256.771 -3.10325 0.376478 0
M  V30 2727 H 255.991 -2.7387 2.8353 0
M  V30 2728 H 257.279 -3.85613 3.31934 0
M  V30 2729 H 256.677 -5.61718 0.670064 0
M  V30 2730 H 255.234 -6.41533 1.15234 0
M  V30 2731 N 258.668 -1.30515 -0.883378 0
M  V30 2732 C 259.945 -1.10086 -1.6168 0
M  V30 2733 C 260.325 0.349269 -2.08191 0
M  V30 2734 O 259.673 1.34105 -1.85008 0
M  V30 2735 C 259.883 -2.10315 -2.78511 0
M  V30 2736 C 261.231 -2.42119 -3.48803 0
M  V30 2737 O 262.255 -2.08638 -2.88702 0
M  V30 2738 O 261.114 -2.99396 -4.57192 0
M  V30 2739 H 258.208 -0.422907 -0.710689 0
M  V30 2740 H 260.754 -1.41947 -0.930015 0
M  V30 2741 H 259.526 -3.07917 -2.41459 0
M  V30 2742 H 259.149 -1.79282 -3.54886 0
M  V30 2743 N 260.146 1.09593 -1.13257 0
M  V30 2744 C 261.395 1.81105 -0.887917 0
M  V30 2745 C 261.708 1.86563 0.587672 0
M  V30 2746 O 262.914 2.54367 0.949204 0
M  V30 2747 C 261.37 3.25338 -1.53895 0
M  V30 2748 C 260.978 3.28151 -3.04994 0
M  V30 2749 C 262.722 4.01617 -1.37492 0
M  V30 2750 C 260.629 4.66897 -3.6299 0
M  V30 2751 H 259.559 0.678661 -0.328534 0
M  V30 2752 H 262.21 1.23183 -1.36008 0
M  V30 2753 H 260.592 3.8331 -0.994446 0
M  V30 2754 H 261.766 2.79953 -3.66009 0
M  V30 2755 H 260.081 2.65361 -3.20893 0
M  V30 2756 H 262.678 5.04119 -1.78235 0
M  V30 2757 H 263.021 4.15072 -0.31957 0
M  V30 2758 H 263.554 3.50082 -1.88912 0
M  V30 2759 H 260.293 4.58643 -4.68323 0
M  V30 2760 H 259.813 5.15426 -3.06752 0
M  V30 2761 H 261.492 5.3587 -3.62563 0
M  V30 2762 N 261.624 0.925811 1.2754 0
M  V30 2763 C 262.901 0.483726 1.89524 0
M  V30 2764 C 263.281 -1.03809 1.83812 0
M  V30 2765 O 262.629 -1.89143 1.28207 0
M  V30 2766 C 262.839 1.02769 3.33526 0
M  V30 2767 C 264.187 1.08703 4.10449 0
M  V30 2768 O 265.211 0.977175 3.42534 0
M  V30 2769 O 264.07 1.25599 5.31871 0
M  V30 2770 H 261.164 0.15529 0.812289 0
M  V30 2771 H 263.71 1.01738 1.35822 0
M  V30 2772 H 262.482 2.07155 3.31967 0
M  V30 2773 H 262.105 0.475567 3.94746 0
M  V30 2774 N 263.102 -1.41638 0.69111 0
M  V30 2775 C 264.065 -2.29178 0.0319786 0
M  V30 2776 C 265.065 -1.44153 -0.712496 0
M  V30 2777 O 266.255 -1.65354 -0.548053 0
M  V30 2778 C 263.387 -3.26952 -0.965161 0
M  V30 2779 H 264.58 -2.88959 0.802681 0
M  V30 2780 H 262.133 -1.4955 0.454356 0
M  V30 2781 H 262.868 -2.72142 -1.76378 0
M  V30 2782 H 262.653 -3.89685 -0.434522 0
M  V30 2783 H 264.143 -3.92561 -1.42428 0
M  V30 2784 N 264.58 -0.43555 -1.51462 0
M  V30 2785 C 265.857 0.191364 -1.94662 0
M  V30 2786 C 266.237 1.60254 -1.37411 0
M  V30 2787 O 265.585 2.2152 -0.560458 0
M  V30 2788 C 265.795 0.17091 -3.48581 0
M  V30 2789 C 267.143 0.377357 -4.2292 0
M  V30 2790 O 268.167 0.249104 -3.55328 0
M  V30 2791 O 267.026 0.63247 -5.42828 0
M  V30 2792 H 264.12 0.130932 -0.816569 0
M  V30 2793 H 266.666 -0.4934 -1.62369 0
M  V30 2794 H 265.438 -0.815738 -3.82703 0
M  V30 2795 H 265.061 0.898659 -3.87311 0
M  V30 2796 N 266.058 1.56714 -0.166846 0
M  V30 2797 C 267.306 1.96358 0.478305 0
M  V30 2798 C 267.627 1.0537 1.6408 0
M  V30 2799 O 266.897 0.119154 1.95537 0
M  V30 2800 H 265.477 0.725065 0.179692 0
M  V30 2801 H 268.139 1.93329 -0.246985 0
M  V30 2802 H 267.235 3.00547 0.841292 0
M  V30 2803 N 267.536 -0.106894 1.57237 0
M  V30 2804 C 268.468 -1.15646 1.97885 0
M  V30 2805 C 269.481 -1.36981 0.879779 0
M  V30 2806 O 270.67 -1.35841 1.15799 0
M  V30 2807 C 267.77 -2.51425 2.27241 0
M  V30 2808 C 266.943 -2.50529 3.58545 0
M  V30 2809 C 266.002 -3.68145 3.75973 0
M  V30 2810 O 265.028 -3.51176 4.47956 0
M  V30 2811 N 266.23 -4.87177 3.15656 0
M  V30 2812 H 268.995 -0.81059 2.8853 0
M  V30 2813 H 266.556 -0.296024 1.59171 0
M  V30 2814 H 268.548 -3.28689 2.36105 0
M  V30 2815 H 267.118 -2.78147 1.42663 0
M  V30 2816 H 266.338 -1.58894 3.60758 0
M  V30 2817 H 267.626 -2.46997 4.44826 0
M  V30 2818 H 267.024 -5.03868 2.57165 0
M  V30 2819 H 265.581 -5.62075 3.30023 0
M  V30 2820 N 269.014 -1.53014 -0.377408 0
M  V30 2821 C 270.262 -1.6829 -1.11906 0
M  V30 2822 C 270.583 -0.431206 -1.90173 0
M  V30 2823 O 269.853 0.554595 -1.87886 0
M  V30 2824 H 268.433 -0.620371 -0.416112 0
M  V30 2825 H 271.095 -1.90167 -0.426893 0
M  V30 2826 H 270.191 -2.53862 -1.8155 0
M  V30 2827 N 270.492 0.636531 -1.44174 0
M  V30 2828 C 271.739 1.39619 -1.46672 0
M  V30 2829 C 272.067 1.94257 -0.0972691 0
M  V30 2830 O 271.322 1.73768 0.900175 0
M  V30 2831 C 271.621 2.58309 -2.47005 0
M  V30 2832 C 271.287 2.21992 -3.92467 0
M  V30 2833 C 269.949 2.118 -4.32081 0
M  V30 2834 C 272.301 1.9321 -4.84065 0
M  V30 2835 C 269.629 1.71007 -5.61225 0
M  V30 2836 C 271.981 1.53911 -6.13591 0
M  V30 2837 C 270.645 1.42257 -6.52165 0
M  V30 2838 H 269.915 0.510902 -0.536712 0
M  V30 2839 H 272.562 0.722328 -1.77355 0
M  V30 2840 H 270.867 3.30903 -2.09786 0
M  V30 2841 H 272.564 3.16533 -2.46186 0
M  V30 2842 H 269.154 2.30841 -3.61124 0
M  V30 2843 H 273.338 1.99997 -4.54219 0
M  V30 2844 H 268.594 1.60583 -5.89935 0
M  V30 2845 H 272.768 1.30677 -6.8403 0
M  V30 2846 H 270.395 1.10419 -7.52138 0
M  V30 2847 N 271.97 1.30982 0.876444 0
M  V30 2848 C 273.21 1.21589 1.64303 0
M  V30 2849 C 273.574 -0.223962 1.90689 0
M  V30 2850 O 274.775 -0.44128 2.65153 0
M  V30 2851 C 273.046 2.03007 2.94148 0
M  V30 2852 S 274.605 2.10405 3.85065 0
M  V30 2853 H 271.423 0.433161 0.563819 0
M  V30 2854 H 274.025 1.65565 1.03964 0
M  V30 2855 H 272.729 3.06719 2.72675 0
M  V30 2856 H 272.26 1.59725 3.59515 0
M  V30 2857 H 274.275 1.23765 4.80517 0
M  V30 2858 N 273.449 -1.08991 1.13837 0
M  V30 2859 C 274.381 -2.15606 0.777612 0
M  V30 2860 C 275.394 -1.61533 -0.202739 0
M  V30 2861 O 276.583 -1.78491 0.0181055 0
M  V30 2862 C 273.683 -3.3864 0.132623 0
M  V30 2863 C 272.856 -4.22115 1.1462 0
M  V30 2864 C 271.915 -5.23564 0.526074 0
M  V30 2865 O 270.941 -5.56678 1.18735 0
M  V30 2866 N 272.143 -5.76266 -0.699866 0
M  V30 2867 H 274.908 -2.47159 1.69506 0
M  V30 2868 H 272.469 -1.24747 1.03198 0
M  V30 2869 H 274.461 -4.03626 -0.29459 0
M  V30 2870 H 273.031 -3.04938 -0.687849 0
M  V30 2871 H 272.251 -3.53199 1.75055 0
M  V30 2872 H 273.539 -4.74709 1.83109 0
M  V30 2873 H 272.937 -5.51585 -1.25581 0
M  V30 2874 H 271.494 -6.42963 -1.06968 0
M  V30 2875 N 274.927 -0.932562 -1.27047 0
M  V30 2876 C 276.175 -0.574422 -1.93765 0
M  V30 2877 C 276.496 0.887993 -1.73608 0
M  V30 2878 O 275.766 1.62999 -1.08665 0
M  V30 2879 H 274.346 -0.209451 -0.717035 0
M  V30 2880 H 277.008 -1.18601 -1.5466 0
M  V30 2881 H 276.104 -0.784841 -3.02071 0
M  V30 2882 N 276.405 1.4127 -0.698611 0
M  V30 2883 C 277.653 2.00782 -0.230409 0
M  V30 2884 C 277.974 1.5562 1.17505 0
M  V30 2885 O 277.244 0.78815 1.79346 0
M  V30 2886 H 275.824 0.742464 -0.0821944 0
M  V30 2887 H 278.486 1.72852 -0.90045 0
M  V30 2888 H 277.582 3.11095 -0.25021 0
M  V30 2889 N 277.883 0.443576 1.51229 0
M  V30 2890 C 279.13 -0.120796 2.02139 0
M  V30 2891 C 279.458 -1.42166 1.32736 0
M  V30 2892 O 278.713 -1.90849 0.43301 0
M  V30 2893 C 279.012 -0.380579 3.55368 0
M  V30 2894 C 278.678 0.83523 4.43097 0
M  V30 2895 C 277.34 1.16864 4.66794 0
M  V30 2896 C 279.692 1.64601 4.94526 0
M  V30 2897 C 277.02 2.31339 5.39165 0
M  V30 2898 C 279.372 2.78181 5.68153 0
M  V30 2899 C 278.036 3.11969 5.90112 0
M  V30 2900 H 277.306 -0.0442023 0.73968 0
M  V30 2901 H 279.953 0.592046 1.82118 0
M  V30 2902 H 278.258 -1.17538 3.73754 0
M  V30 2903 H 279.955 -0.830777 3.923 0
M  V30 2904 H 276.545 0.565437 4.24854 0
M  V30 2905 H 280.729 1.40163 4.76097 0
M  V30 2906 H 275.985 2.57823 5.5438 0
M  V30 2907 H 280.159 3.41371 6.06992 0
M  V30 2908 H 277.786 4.00784 6.45969 0
M  V30 2909 N 279.361 -1.56624 0.175154 0
M  V30 2910 C 280.586 -2.01813 -0.478137 0
M  V30 2911 C 281.011 -1.05457 -1.55757 0
M  V30 2912 O 280.369 -0.0347439 -1.81267 0
M  V30 2913 C 280.417 -3.45581 -1.02987 0
M  V30 2914 O 279.521 -3.52305 -2.14371 0
M  V30 2915 H 278.862 -0.65413 -0.114059 0
M  V30 2916 H 281.392 -2.02673 0.280173 0
M  V30 2917 H 281.402 -3.84965 -1.35151 0
M  V30 2918 H 280.077 -4.1521 -0.239556 0
M  V30 2919 H 278.654 -3.24783 -1.83222 0
M  V30 2920 N 280.839 0.0985539 -1.57292 0
M  V30 2921 C 282.088 0.801358 -1.85098 0
M  V30 2922 C 282.401 1.80066 -0.763902 0
M  V30 2923 O 283.607 2.55112 -0.928981 0
M  V30 2924 C 282.063 1.47599 -3.28242 0
M  V30 2925 C 281.671 0.516624 -4.45011 0
M  V30 2926 C 283.415 2.16272 -3.65276 0
M  V30 2927 C 281.322 1.19564 -5.79188 0
M  V30 2928 H 280.252 0.303022 -0.69043 0
M  V30 2929 H 282.903 0.0542623 -1.8342 0
M  V30 2930 H 281.285 2.27042 -3.2445 0
M  V30 2931 H 282.459 -0.246065 -4.60143 0
M  V30 2932 H 280.774 -0.064227 -4.1635 0
M  V30 2933 H 283.371 2.67802 -4.62803 0
M  V30 2934 H 283.714 2.95009 -2.93727 0
M  V30 2935 H 284.247 1.43693 -3.70941 0
M  V30 2936 H 280.986 0.449157 -6.53959 0
M  V30 2937 H 280.506 1.92984 -5.67906 0
M  V30 2938 H 282.185 1.7231 -6.23633 0
M  V30 2939 N 282.317 1.53212 0.369288 0
M  V30 2940 C 283.594 1.59815 1.12776 0
M  V30 2941 C 283.974 0.403402 2.0721 0
M  V30 2942 O 283.322 -0.606667 2.20299 0
M  V30 2943 C 283.532 2.94664 1.87013 0
M  V30 2944 C 284.88 3.49109 2.41677 0
M  V30 2945 O 285.904 2.96669 1.97144 0
M  V30 2946 O 284.763 4.40775 3.23079 0
M  V30 2947 H 281.857 0.645376 0.517125 0
M  V30 2948 H 284.403 1.65553 0.37285 0
M  V30 2949 H 283.175 3.73061 1.18071 0
M  V30 2950 H 282.798 2.92401 2.69421 0
M  V30 2951 N 283.795 -0.628877 1.44509 0
M  V30 2952 C 285.042 -1.38839 1.47411 0
M  V30 2953 C 285.37 -1.94202 0.10757 0
M  V30 2954 O 284.625 -1.74243 -0.890947 0
M  V30 2955 C 284.924 -2.56995 2.48371 0
M  V30 2956 C 284.59 -2.19908 3.93639 0
M  V30 2957 C 283.252 -2.09506 4.33198 0
M  V30 2958 C 285.604 -1.9064 4.85083 0
M  V30 2959 C 282.932 -1.68028 5.62124 0
M  V30 2960 C 285.284 -1.50655 6.14399 0
M  V30 2961 C 283.948 -1.38796 6.5291 0
M  V30 2962 H 283.218 -0.508048 0.539414 0
M  V30 2963 H 285.865 -0.712913 1.77735 0
M  V30 2964 H 284.17 -3.29786 2.11538 0
M  V30 2965 H 285.867 -3.15223 2.47861 0
M  V30 2966 H 282.457 -2.28922 3.62343 0
M  V30 2967 H 286.641 -1.97585 4.55273 0
M  V30 2968 H 281.897 -1.57452 5.90778 0
M  V30 2969 H 286.071 -1.27048 6.84713 0
M  V30 2970 H 283.698 -1.06429 7.52713 0
M  V30 2971 N 285.273 -1.31445 -0.869486 0
M  V30 2972 C 286.501 -1.24122 -1.65534 0
M  V30 2973 C 286.916 0.193387 -1.87807 0
M  V30 2974 O 286.273 1.12557 -1.43656 0
M  V30 2975 C 286.324 -1.98229 -3.02304 0
M  V30 2976 O 286.045 -3.3609 -2.81026 0
M  V30 2977 C 287.546 -1.97751 -3.96749 0
M  V30 2978 H 284.766 -0.428868 -0.516055 0
M  V30 2979 H 287.31 -1.73328 -1.08525 0
M  V30 2980 H 285.465 -1.52782 -3.56001 0
M  V30 2981 H 285.879 -3.7383 -3.67902 0
M  V30 2982 H 287.353 -2.54114 -4.90031 0
M  V30 2983 H 287.83 -0.960137 -4.28577 0
M  V30 2984 H 288.436 -2.43079 -3.48988 0
M  V30 2985 N 286.751 1.08385 -1.14413 0
M  V30 2986 C 287.698 2.15311 -0.831265 0
M  V30 2987 C 288.668 1.64751 0.211292 0
M  V30 2988 O 289.853 1.90627 0.0811674 0
M  V30 2989 C 286.993 3.43658 -0.315143 0
M  V30 2990 C 286.106 4.08064 -1.41802 0
M  V30 2991 C 285.241 5.24207 -0.859126 0
M  V30 2992 C 284.28 5.80554 -1.93967 0
M  V30 2993 N 283.417 6.88042 -1.39793 0
M  V30 2994 H 288.257 2.41415 -1.74708 0
M  V30 2995 H 285.794 1.18474 -0.871909 0
M  V30 2996 H 287.752 4.172 0.00230884 0
M  V30 2997 H 286.382 3.17839 0.56378 0
M  V30 2998 H 285.434 3.3228 -1.85187 0
M  V30 2999 H 286.746 4.45962 -2.23427 0
M  V30 3000 H 285.9 6.04689 -0.49359 0
M  V30 3001 H 284.639 4.87699 -0.011932 0
M  V30 3002 H 283.644 4.98725 -2.31415 0
M  V30 3003 H 284.869 6.19121 -2.79046 0
M  V30 3004 H 282.815 6.53493 -0.572919 0
M  V30 3005 H 282.732 7.24767 -2.15054 0
M  V30 3006 H 284 7.72255 -1.0603 0
M  V30 3007 N 288.23 0.939286 1.26551 0
M  V30 3008 C 289.193 0.451987 2.24699 0
M  V30 3009 C 290.193 -0.435869 1.5478 0
M  V30 3010 O 291.383 -0.235314 1.72603 0
M  V30 3011 C 288.515 -0.348801 3.39111 0
M  V30 3012 H 289.708 1.3193 2.69322 0
M  V30 3013 H 287.261 0.721072 1.38673 0
M  V30 3014 H 287.996 -1.23444 2.99887 0
M  V30 3015 H 287.781 0.287945 3.91041 0
M  V30 3016 H 289.271 -0.679726 4.12031 0
M  V30 3017 N 289.708 -1.40897 0.706093 0
M  V30 3018 C 290.985 -1.94868 0.169099 0
M  V30 3019 C 291.365 -1.64485 -1.32318 0
M  V30 3020 O 290.713 -0.95744 -2.07474 0
M  V30 3021 C 290.923 -3.45798 0.471654 0
M  V30 3022 C 292.271 -4.22663 0.405127 0
M  V30 3023 O 293.295 -3.53865 0.407168 0
M  V30 3024 O 292.154 -5.45216 0.374383 0
M  V30 3025 H 289.248 -0.82673 0.0211352 0
M  V30 3026 H 291.794 -1.50558 0.782976 0
M  V30 3027 H 290.566 -3.61235 1.50416 0
M  V30 3028 H 290.189 -3.97225 -0.172666 0
M  V30 3029 N 291.186 -0.45159 -1.50991 0
M  V30 3030 C 292.602 -0.104647 -1.59257 0
M  V30 3031 C 292.802 1.38728 -1.4614 0
M  V30 3032 O 291.858 2.15866 -1.30989 0
M  V30 3033 C 293.171 -0.637468 -2.93865 0
M  V30 3034 C 294.719 -0.599166 -3.07212 0
M  V30 3035 C 295.194 -1.1092 -4.44366 0
M  V30 3036 N 296.685 -1.06778 -4.50725 0
M  V30 3037 C 297.42 -1.43314 -5.55201 0
M  V30 3038 N 296.916 -1.87204 -6.67028 0
M  V30 3039 N 298.709 -1.3504 -5.45638 0
M  V30 3040 H 290.86 -1.42214 -1.57762 0
M  V30 3041 H 293.123 -0.586921 -0.744465 0
M  V30 3042 H 292.829 -1.68187 -3.08879 0
M  V30 3043 H 292.703 -0.0702139 -3.77135 0
M  V30 3044 H 295.09 0.436277 -2.91857 0
M  V30 3045 H 295.171 -1.20299 -2.25747 0
M  V30 3046 H 294.815 -2.14318 -4.60467 0
M  V30 3047 H 294.745 -0.481773 -5.24392 0
M  V30 3048 H 297.236 -0.745643 -3.70471 0
M  V30 3049 H 297.549 -2.13282 -7.42786 0
M  V30 3050 H 295.894 -1.91142 -6.68199 0
M  V30 3051 H 299.085 -1.00607 -4.57161 0
M  V30 3052 H 299.258 -1.63841 -6.26945 0
M  V30 3053 N 292.664 1.56529 -0.183458 0
M  V30 3054 C 293.91 1.97537 0.459036 0
M  V30 3055 C 294.243 1.06989 1.62071 0
M  V30 3056 O 293.518 0.11948 1.94133 0
M  V30 3057 C 293.801 3.47874 0.930368 0
M  V30 3058 C 293.654 4.492 -0.232317 0
M  V30 3059 C 294.973 4.01612 1.79989 0
M  V30 3060 H 292.092 0.718204 0.165383 0
M  V30 3061 H 294.734 1.88042 -0.272038 0
M  V30 3062 H 292.884 3.56095 1.55333 0
M  V30 3063 H 294.556 4.53027 -0.86972 0
M  V30 3064 H 292.799 4.24657 -0.885928 0
M  V30 3065 H 293.47 5.51823 0.139796 0
M  V30 3066 H 295.946 3.96097 1.27461 0
M  V30 3067 H 294.822 5.07195 2.09867 0
M  V30 3068 H 295.083 3.46163 2.74998 0
M  V30 3069 N 294.142 -0.090211 1.57342 0
M  V30 3070 C 295.072 -1.10976 2.05443 0
M  V30 3071 C 296.053 -1.41482 0.944284 0
M  V30 3072 O 297.238 -1.51428 1.21586 0
M  V30 3073 C 294.368 -2.42831 2.48295 0
M  V30 3074 C 293.322 -2.26721 3.63018 0
M  V30 3075 C 292.648 -3.63796 3.91863 0
M  V30 3076 C 293.948 -1.7037 4.93732 0
M  V30 3077 H 295.642 -0.709564 2.9087 0
M  V30 3078 H 293.188 -0.339874 1.39932 0
M  V30 3079 H 295.141 -3.14431 2.80555 0
M  V30 3080 H 293.865 -2.84795 1.59873 0
M  V30 3081 H 292.524 -1.57565 3.31012 0
M  V30 3082 H 292.172 -4.03297 3.00601 0
M  V30 3083 H 291.872 -3.53861 4.69101 0
M  V30 3084 H 293.396 -4.36855 4.26603 0
M  V30 3085 H 294.81 -2.31816 5.24342 0
M  V30 3086 H 293.207 -1.71181 5.75167 0
M  V30 3087 H 294.277 -0.663542 4.80339 0
M  V30 3088 N 295.62 -1.53406 -0.361157 0
M  V30 3089 C 296.55 -1.83136 -1.44857 0
M  V30 3090 C 297.531 -0.685174 -1.5569 0
M  V30 3091 O 298.716 -0.93544 -1.70186 0
M  V30 3092 C 295.846 -2.02522 -2.82138 0
M  V30 3093 C 294.8 -3.18302 -2.86126 0
M  V30 3094 C 294.126 -3.22989 -4.26125 0
M  V30 3095 C 295.426 -4.56796 -2.53248 0
M  V30 3096 H 297.12 -2.74201 -1.20226 0
M  V30 3097 H 294.666 -1.31938 -0.576922 0
M  V30 3098 H 296.619 -2.21904 -3.58241 0
M  V30 3099 H 295.343 -1.08172 -3.08166 0
M  V30 3100 H 294.002 -2.98747 -2.12475 0
M  V30 3101 H 293.65 -2.26267 -4.49235 0
M  V30 3102 H 293.35 -4.00781 -4.29708 0
M  V30 3103 H 294.874 -3.44559 -5.04094 0
M  V30 3104 H 296.288 -4.7631 -3.19064 0
M  V30 3105 H 294.685 -5.36862 -2.68141 0
M  V30 3106 H 295.755 -4.61606 -1.48484 0
M  V30 3107 N 297.098 0.621204 -1.44841 0
M  V30 3108 C 298.346 1.37783 -1.47852 0
M  V30 3109 C 298.667 1.94653 -0.116224 0
M  V30 3110 O 297.937 1.76367 0.852737 0
M  V30 3111 H 296.517 0.511453 -0.544449 0
M  V30 3112 H 299.179 0.730446 -1.80694 0
M  V30 3113 H 298.275 2.20414 -2.20961 0
M  V30 3114 N 298.576 1.31904 0.862503 0
M  V30 3115 C 299.824 1.21776 1.61292 0
M  V30 3116 C 300.145 -0.222413 1.93727 0
M  V30 3117 O 299.415 -1.1451 1.58947 0
M  V30 3118 H 297.995 0.447717 0.597962 0
M  V30 3119 H 300.657 1.65326 1.03215 0
M  V30 3120 H 299.753 1.7948 2.5533 0
M  V30 3121 N 300.054 -1.07777 1.14986 0
M  V30 3122 C 301.465 -1.61766 0.932127 0
M  V30 3123 C 301.816 -1.88974 -0.527581 0
M  V30 3124 O 300.941 -1.65198 -1.39781 0
M  V30 3125 C 301.536 -2.93891 1.68563 0
M  V30 3126 C 300.095 -3.44639 1.5133 0
M  V30 3127 C 299.242 -2.18767 1.704 0
M  V30 3128 H 302.193 -0.909201 1.30074 0
M  V30 3129 H 302.214 -3.62623 1.15259 0
M  V30 3130 H 301.726 -2.74057 2.74799 0
M  V30 3131 H 299.827 -3.69564 0.474702 0
M  V30 3132 H 299.94 -4.20966 2.28746 0
M  V30 3133 H 298.304 -2.28253 1.13016 0
M  V30 3134 H 299.087 -2.01433 2.77992 0
M  V30 3135 N 301.532 -0.945985 -1.26051 0
M  V30 3136 C 302.78 -0.594941 -1.93145 0
M  V30 3137 C 303.101 0.86953 -1.7454 0
M  V30 3138 O 302.371 1.61838 -1.10387 0
M  V30 3139 H 300.951 -0.217044 -0.714773 0
M  V30 3140 H 303.613 -1.20235 -1.53393 0
M  V30 3141 H 302.709 -0.816835 -3.01221 0
M  V30 3142 N 303.011 1.40521 -0.713556 0
M  V30 3143 C 304.236 2.05759 -0.26035 0
M  V30 3144 C 304.661 1.53403 1.08854 0
M  V30 3145 O 304.019 0.668535 1.68524 0
M  V30 3146 C 304.067 3.59745 -0.248122 0
M  V30 3147 O 303.171 4.05123 0.77131 0
M  V30 3148 H 302.512 0.652564 -0.122703 0
M  V30 3149 H 305.042 1.79958 -0.973467 0
M  V30 3150 H 305.052 4.07911 -0.0851129 0
M  V30 3151 H 303.727 3.97218 -1.2325 0
M  V30 3152 H 302.304 3.68422 0.57619 0
M  V30 3153 N 304.489 0.459591 1.5075 0
M  V30 3154 C 305.736 -0.0993495 2.02256 0
M  V30 3155 C 306.064 -1.40751 1.34237 0
M  V30 3156 O 305.319 -1.90379 0.453228 0
M  V30 3157 C 305.618 -0.342866 3.55752 0
M  V30 3158 C 305.284 0.88218 4.42186 0
M  V30 3159 C 303.946 1.21808 4.65528 0
M  V30 3160 C 306.298 1.69837 4.92752 0
M  V30 3161 C 303.626 2.37045 5.36681 0
M  V30 3162 C 305.978 2.84192 5.65171 0
M  V30 3163 C 304.642 3.1821 5.8677 0
M  V30 3164 H 303.912 -0.0363545 0.740108 0
M  V30 3165 H 306.559 0.611329 1.8148 0
M  V30 3166 H 304.864 -1.13567 3.7498 0
M  V30 3167 H 306.561 -0.789121 3.93159 0
M  V30 3168 H 303.151 0.610467 4.2423 0
M  V30 3169 H 307.335 1.45205 4.74583 0
M  V30 3170 H 302.591 2.63689 5.51614 0
M  V30 3171 H 306.765 3.4779 6.03337 0
M  V30 3172 H 304.392 4.07613 6.41682 0
M  V30 3173 N 305.967 -1.56429 0.191757 0
M  V30 3174 C 307.197 -2.01574 -0.452928 0
M  V30 3175 C 307.605 -1.07107 -1.55964 0
M  V30 3176 O 306.948 -0.067534 -1.83576 0
M  V30 3177 C 307.01 -3.43121 -1.07278 0
M  V30 3178 C 306.674 -4.56879 -0.105214 0
M  V30 3179 C 307.671 -5.15379 0.684149 0
M  V30 3180 C 305.356 -5.023 0.00489824 0
M  V30 3181 C 307.35 -6.17746 1.57062 0
M  V30 3182 C 305.037 -6.04511 0.894935 0
M  V30 3183 C 306.035 -6.62108 1.67637 0
M  V30 3184 O 305.723 -7.62335 2.55149 0
M  V30 3185 H 305.455 -0.665554 -0.118379 0
M  V30 3186 H 308.009 -2.03245 0.296737 0
M  V30 3187 H 306.239 -3.38425 -1.87097 0
M  V30 3188 H 307.928 -3.72093 -1.62177 0
M  V30 3189 H 308.694 -4.81157 0.609365 0
M  V30 3190 H 304.573 -4.57168 -0.593156 0
M  V30 3191 H 308.117 -6.6263 2.181 0
M  V30 3192 H 304.014 -6.38157 0.970847 0
M  V30 3193 H 304.782 -7.79741 2.48892 0
M  V30 3194 N 307.445 0.0818655 -1.57387 0
M  V30 3195 C 308.691 0.778884 -1.87896 0
M  V30 3196 C 309.046 1.75692 -0.784229 0
M  V30 3197 O 308.339 1.90417 0.212567 0
M  V30 3198 C 308.533 1.53513 -3.22752 0
M  V30 3199 C 308.362 0.631838 -4.45239 0
M  V30 3200 C 307.132 0.272571 -5.04564 0
M  V30 3201 C 309.33 -0.0670191 -5.14256 0
M  V30 3202 N 307.312 -0.637498 -6.10581 0
M  V30 3203 C 308.683 -0.834653 -6.14356 0
M  V30 3204 C 310.738 -0.139551 -4.97704 0
M  V30 3205 C 309.441 -1.66806 -6.99691 0
M  V30 3206 C 311.467 -0.959903 -5.83558 0
M  V30 3207 C 310.829 -1.71561 -6.83188 0
M  V30 3208 H 306.928 0.260764 -0.737242 0
M  V30 3209 H 309.512 0.0408227 -1.94657 0
M  V30 3210 H 307.683 2.24398 -3.17018 0
M  V30 3211 H 309.415 2.18038 -3.40942 0
M  V30 3212 H 306.17 0.62319 -4.69482 0
M  V30 3213 H 306.594 -1.08548 -6.68241 0
M  V30 3214 H 311.236 0.430376 -4.20604 0
M  V30 3215 H 308.954 -2.249 -7.76174 0
M  V30 3216 H 312.54 -1.01887 -5.72809 0
M  V30 3217 H 311.42 -2.34017 -7.48469 0
M  V30 3218 N 308.923 1.53595 0.353017 0
M  V30 3219 C 309.855 1.77219 1.45348 0
M  V30 3220 C 310.868 0.65324 1.49119 0
M  V30 3221 O 312.057 0.929775 1.52373 0
M  V30 3222 C 309.157 1.84841 2.84055 0
M  V30 3223 C 308.33 3.14649 3.03833 0
M  V30 3224 C 307.389 3.13351 4.22727 0
M  V30 3225 O 306.415 3.87107 4.17297 0
M  V30 3226 N 307.617 2.35052 5.30783 0
M  V30 3227 H 310.382 2.72178 1.25457 0
M  V30 3228 H 307.943 1.52528 0.542833 0
M  V30 3229 H 309.935 1.81435 3.61751 0
M  V30 3230 H 308.505 0.971114 2.97133 0
M  V30 3231 H 307.725 3.31256 2.13689 0
M  V30 3232 H 309.013 4.00411 3.13925 0
M  V30 3233 H 308.411 1.74663 5.38061 0
M  V30 3234 H 306.968 2.37453 6.07009 0
M  V30 3235 N 310.401 -0.613514 1.45168 0
M  V30 3236 C 311.649 -1.36997 1.48581 0
M  V30 3237 C 311.97 -1.94589 0.126545 0
M  V30 3238 O 311.24 -1.76816 -0.843372 0
M  V30 3239 H 309.82 -0.508558 0.547154 0
M  V30 3240 H 312.482 -0.720853 1.81079 0
M  V30 3241 H 311.578 -2.1924 2.22127 0
M  V30 3242 N 311.879 -1.3236 -0.855495 0
M  V30 3243 C 312.811 -1.17052 -1.97057 0
M  V30 3244 C 313.824 -0.10574 -1.62456 0
M  V30 3245 O 315.013 -0.354619 -1.74942 0
M  V30 3246 C 312.113 -0.769305 -3.30053 0
M  V30 3247 C 311.286 -1.9222 -3.929 0
M  V30 3248 C 310.345 -1.50466 -5.04228 0
M  V30 3249 O 309.371 -2.21655 -5.24269 0
M  V30 3250 N 310.573 -0.400209 -5.79119 0
M  V30 3251 H 313.338 -2.13103 -2.1073 0
M  V30 3252 H 310.899 -1.24885 -1.0303 0
M  V30 3253 H 312.891 -0.472407 -4.01933 0
M  V30 3254 H 311.461 0.100025 -3.1244 0
M  V30 3255 H 310.681 -2.38563 -3.13817 0
M  V30 3256 H 311.969 -2.69403 -4.31624 0
M  V30 3257 H 311.367 0.192319 -5.65373 0
M  V30 3258 H 309.924 -0.162912 -6.51596 0
M  V30 3259 N 313.357 1.07166 -1.15556 0
M  V30 3260 C 314.287 2.16403 -0.877046 0
M  V30 3261 C 315.268 1.69217 0.173111 0
M  V30 3262 O 316.453 1.94181 0.027084 0
M  V30 3263 C 313.583 3.45349 -0.367632 0
M  V30 3264 C 312.537 4.05995 -1.35468 0
M  V30 3265 C 311.863 5.30045 -0.704038 0
M  V30 3266 C 313.163 4.45804 -2.72132 0
M  V30 3267 H 314.857 2.39959 -1.79053 0
M  V30 3268 H 312.403 1.15325 -0.862331 0
M  V30 3269 H 314.356 4.21095 -0.160317 0
M  V30 3270 H 313.08 3.21385 0.581326 0
M  V30 3271 H 311.739 3.32296 -1.54839 0
M  V30 3272 H 311.387 5.02373 0.251128 0
M  V30 3273 H 311.087 5.71579 -1.36277 0
M  V30 3274 H 312.611 6.08495 -0.50654 0
M  V30 3275 H 314.025 5.12671 -2.56595 0
M  V30 3276 H 312.422 4.98296 -3.34397 0
M  V30 3277 H 313.492 3.57083 -3.28054 0
M  V30 3278 N 314.835 0.952656 1.25548 0
M  V30 3279 C 316.084 0.602053 1.92505 0
M  V30 3280 C 316.397 -0.864663 1.75451 0
M  V30 3281 O 317.603 -1.32514 2.36965 0
M  V30 3282 C 316.059 1.02607 3.44963 0
M  V30 3283 C 315.667 2.51519 3.70732 0
M  V30 3284 C 317.411 0.747905 4.1786 0
M  V30 3285 C 315.318 2.87732 5.16686 0
M  V30 3286 H 314.248 0.22146 0.720744 0
M  V30 3287 H 316.899 1.15684 1.42441 0
M  V30 3288 H 315.281 0.399712 3.93978 0
M  V30 3289 H 316.455 3.19157 3.32378 0
M  V30 3290 H 314.77 2.76786 3.11092 0
M  V30 3291 H 317.367 0.994647 5.25367 0
M  V30 3292 H 317.71 -0.315629 4.15102 0
M  V30 3293 H 318.243 1.33452 3.74747 0
M  V30 3294 H 314.982 3.93095 5.24554 0
M  V30 3295 H 314.502 2.24765 5.56094 0
M  V30 3296 H 316.181 2.76817 5.84792 0
M  V30 3297 N 316.313 -1.40141 0.720998 0
M  V30 3298 C 317.538 -2.05618 0.271258 0
M  V30 3299 C 317.963 -1.53978 -1.08039 0
M  V30 3300 O 317.321 -0.677463 -1.68167 0
M  V30 3301 C 317.369 -3.59609 0.267197 0
M  V30 3302 O 316.473 -4.05526 -0.749814 0
M  V30 3303 H 315.814 -0.651904 0.126162 0
M  V30 3304 H 318.344 -1.79439 0.982997 0
M  V30 3305 H 318.354 -4.0786 0.106744 0
M  V30 3306 H 317.029 -3.96559 1.25354 0
M  V30 3307 H 315.606 -3.68722 -0.556644 0
M  V30 3308 N 317.792 -0.46758 -1.50504 0
M  V30 3309 C 319.069 0.15003 -1.95024 0
M  V30 3310 C 319.449 1.57304 -1.40779 0
M  V30 3311 O 318.797 2.20281 -0.607319 0
M  V30 3312 C 319.007 0.0969324 -3.48865 0
M  V30 3313 C 320.355 0.287565 -4.23625 0
M  V30 3314 O 321.379 0.173678 -3.55776 0
M  V30 3315 O 320.238 0.517186 -5.44047 0
M  V30 3316 H 317.332 0.113582 -0.819163 0
M  V30 3317 H 319.878 -0.52773 -1.61286 0
M  V30 3318 H 318.65 -0.896732 -3.80886 0
M  V30 3319 H 318.273 0.816303 -3.8913 0
M  V30 3320 N 319.27 1.56325 -0.20005 0
M  V30 3321 C 320.202 2.16555 0.750771 0
M  V30 3322 C 321.215 1.12871 1.1732 0
M  V30 3323 O 322.404 1.39943 1.10807 0
M  V30 3324 C 319.504 2.71684 2.02586 0
M  V30 3325 C 318.677 4.00321 1.76244 0
M  V30 3326 C 317.736 4.40227 2.88248 0
M  V30 3327 O 316.762 5.07552 2.57642 0
M  V30 3328 N 317.964 4.04138 4.16717 0
M  V30 3329 H 320.729 2.98772 0.235685 0
M  V30 3330 H 318.29 1.6189 -0.0182594 0
M  V30 3331 H 320.282 2.95363 2.76664 0
M  V30 3332 H 318.852 1.93893 2.45202 0
M  V30 3333 H 318.072 3.84723 0.85919 0
M  V30 3334 H 319.36 4.84279 1.56048 0
M  V30 3335 H 318.758 3.49993 4.44434 0
M  V30 3336 H 317.315 4.32756 4.87407 0
M  V30 3337 N 320.748 -0.0735177 1.57428 0
M  V30 3338 C 321.994 -0.774145 1.87443 0
M  V30 3339 C 322.327 -1.77311 0.792103 0
M  V30 3340 O 321.602 -1.93492 -0.197793 0
M  V30 3341 C 321.885 -1.48367 3.28115 0
M  V30 3342 C 321.738 -0.501227 4.46999 0
M  V30 3343 C 323.057 -2.429 3.66998 0
M  V30 3344 H 320.176 -0.279971 0.681752 0
M  V30 3345 H 322.818 -0.0373616 1.89963 0
M  V30 3346 H 320.968 -2.11171 3.26097 0
M  V30 3347 H 322.64 0.121468 4.6114 0
M  V30 3348 H 320.883 0.183593 4.33411 0
M  V30 3349 H 321.554 -1.03526 5.42205 0
M  V30 3350 H 324.03 -1.90175 3.70098 0
M  V30 3351 H 322.906 -2.89549 4.66318 0
M  V30 3352 H 323.167 -3.27628 2.96837 0
M  V30 3353 N 322.226 -1.5378 -0.344866 0
M  V30 3354 C 323.189 -1.80981 -1.40637 0
M  V30 3355 C 324.189 -0.680816 -1.45676 0
M  V30 3356 O 325.379 -0.949095 -1.46075 0
M  V30 3357 C 322.511 -1.95063 -2.79577 0
M  V30 3358 H 323.704 -2.75803 -1.17783 0
M  V30 3359 H 321.257 -1.45173 -0.579181 0
M  V30 3360 H 321.992 -1.02379 -3.07716 0
M  V30 3361 H 321.777 -2.77198 -2.77315 0
M  V30 3362 H 323.267 -2.17629 -3.56409 0
M  V30 3363 N 323.704 0.605807 -1.45491 0
M  V30 3364 C 324.614 1.74466 -1.56839 0
M  V30 3365 C 325.63 1.68006 -0.452772 0
M  V30 3366 O 326.806 1.8833 -0.713708 0
M  V30 3367 C 323.871 3.10931 -1.53371 0
M  V30 3368 C 322.932 3.28832 -2.75986 0
M  V30 3369 C 322.165 4.58787 -2.72673 0
M  V30 3370 O 322.388 5.4122 -1.80102 0
M  V30 3371 O 321.322 4.79438 -3.63899 0
M  V30 3372 H 325.148 1.67843 -2.53106 0
M  V30 3373 H 322.733 0.770108 -1.28022 0
M  V30 3374 H 324.615 3.92233 -1.54051 0
M  V30 3375 H 323.29 3.18042 -0.602572 0
M  V30 3376 H 322.197 2.47112 -2.80867 0
M  V30 3377 H 323.53 3.26599 -3.68231 0
M  V30 3378 N 325.182 1.32811 0.848464 0
M  V30 3379 C 326.431 1.23075 1.59798 0
M  V30 3380 C 326.744 -0.204419 1.94529 0
M  V30 3381 O 327.95 -0.423701 2.68173 0
M  V30 3382 C 326.406 2.15594 2.88179 0
M  V30 3383 C 326.014 3.64228 2.60849 0
M  V30 3384 C 327.758 2.14709 3.66197 0
M  V30 3385 C 325.665 4.48689 3.85269 0
M  V30 3386 H 324.595 0.457091 0.599653 0
M  V30 3387 H 327.246 1.57813 0.936342 0
M  V30 3388 H 325.628 1.73778 3.55833 0
M  V30 3389 H 326.802 4.14424 2.01467 0
M  V30 3390 H 325.117 3.67306 1.96151 0
M  V30 3391 H 327.714 2.75046 4.58534 0
M  V30 3392 H 328.057 1.13966 4.00397 0
M  V30 3393 H 328.59 2.54837 3.05455 0
M  V30 3394 H 325.329 5.5027 3.56207 0
M  V30 3395 H 324.849 4.03241 4.44024 0
M  V30 3396 H 326.528 4.62006 4.52946 0
M  V30 3397 N 326.66 -1.06551 1.16123 0
M  V30 3398 C 327.906 -1.79567 0.94252 0
M  V30 3399 C 328.239 -1.86869 -0.528547 0
M  V30 3400 O 327.514 -1.35838 -1.39206 0
M  V30 3401 C 327.797 -3.24195 1.56747 0
M  V30 3402 C 327.65 -3.24989 3.10969 0
M  V30 3403 C 328.969 -4.21678 1.25998 0
M  V30 3404 H 326.088 -0.651883 0.343828 0
M  V30 3405 H 328.73 -1.2463 1.43413 0
M  V30 3406 H 326.88 -3.71107 1.14942 0
M  V30 3407 H 328.552 -2.86258 3.61737 0
M  V30 3408 H 326.795 -2.63716 3.44436 0
M  V30 3409 H 327.466 -4.27005 3.49815 0
M  V30 3410 H 329.942 -3.83196 1.62174 0
M  V30 3411 H 328.818 -5.21146 1.7233 0
M  V30 3412 H 329.079 -4.4174 0.178367 0
M  V30 3413 N 328.138 -0.959301 -1.25041 0
M  V30 3414 C 329.363 -0.633507 -1.97488 0
M  V30 3415 C 329.788 0.788555 -1.70773 0
M  V30 3416 O 329.146 1.53394 -0.966431 0
M  V30 3417 C 329.194 -0.904057 -3.49083 0
M  V30 3418 O 328.298 0.0147939 -4.12397 0
M  V30 3419 H 327.639 -0.240368 -0.618966 0
M  V30 3420 H 330.169 -1.28717 -1.59038 0
M  V30 3421 H 330.179 -0.832203 -3.99423 0
M  V30 3422 H 328.854 -1.94048 -3.67856 0
M  V30 3423 H 327.431 -0.109664 -3.72739 0
M  V30 3424 N 329.616 1.39756 -0.72842 0
M  V30 3425 C 330.563 2.30647 -0.0841519 0
M  V30 3426 C 331.533 1.48869 0.7367 0
M  V30 3427 O 332.718 1.77574 0.698015 0
M  V30 3428 C 329.858 3.35165 0.822091 0
M  V30 3429 C 328.971 4.31999 -0.0106663 0
M  V30 3430 C 328.106 5.23585 0.896241 0
M  V30 3431 C 327.145 6.12072 0.0583381 0
M  V30 3432 N 326.282 6.96035 0.920818 0
M  V30 3433 H 331.122 2.85173 -0.864891 0
M  V30 3434 H 328.659 1.40422 -0.438179 0
M  V30 3435 H 330.617 3.94345 1.36189 0
M  V30 3436 H 329.247 2.8211 1.56888 0
M  V30 3437 H 328.299 3.74492 -0.66781 0
M  V30 3438 H 329.611 4.9443 -0.658825 0
M  V30 3439 H 328.765 5.87759 1.50412 0
M  V30 3440 H 327.504 4.61459 1.57819 0
M  V30 3441 H 326.509 5.46916 -0.562389 0
M  V30 3442 H 327.734 6.76261 -0.6203 0
M  V30 3443 H 325.68 6.36485 1.58818 0
M  V30 3444 H 325.597 7.55284 0.32899 0
M  V30 3445 H 326.865 7.64646 1.51447 0
M  V30 3446 N 331.094 0.475555 1.50254 0
M  V30 3447 C 332.324 -0.0753399 2.06463 0
M  V30 3448 C 332.732 -1.33661 1.33908 0
M  V30 3449 O 332.075 -1.79219 0.403257 0
M  V30 3450 C 332.137 -0.424921 3.5698 0
M  V30 3451 C 331.801 0.734965 4.51051 0
M  V30 3452 C 332.798 1.61827 4.94073 0
M  V30 3453 C 330.483 0.926557 4.9368 0
M  V30 3454 C 332.477 2.67754 5.78434 0
M  V30 3455 C 330.164 1.98904 5.77824 0
M  V30 3456 C 331.162 2.8629 6.20103 0
M  V30 3457 O 330.85 3.90708 7.02568 0
M  V30 3458 H 330.582 0.00576308 0.675975 0
M  V30 3459 H 333.136 0.664662 1.94349 0
M  V30 3460 H 331.366 -1.21817 3.67012 0
M  V30 3461 H 333.055 -0.911422 3.95535 0
M  V30 3462 H 333.821 1.48196 4.61804 0
M  V30 3463 H 329.7 0.25584 4.6029 0
M  V30 3464 H 333.244 3.35992 6.11355 0
M  V30 3465 H 329.141 2.12541 6.09505 0
M  V30 3466 H 329.909 3.87751 7.20827 0
M  V30 3467 N 332.573 -1.56217 0.208337 0
M  V30 3468 C 333.85 -1.89739 -0.475234 0
M  V30 3469 C 334.23 -1.1238 -1.78701 0
M  V30 3470 O 333.578 -0.228979 -2.2735 0
M  V30 3471 C 333.788 -3.42289 -0.681101 0
M  V30 3472 C 335.136 -4.12789 -0.994507 0
M  V30 3473 O 336.16 -3.47814 -0.768357 0
M  V30 3474 O 335.019 -5.27649 -1.42299 0
M  V30 3475 H 332.113 -0.788478 -0.249461 0
M  V30 3476 H 334.659 -1.67855 0.249538 0
M  V30 3477 H 333.431 -3.90534 0.244722 0
M  V30 3478 H 333.054 -3.69909 -1.45785 0
M  V30 3479 N 334.051 0.0651679 -1.57465 0
M  V30 3480 C 335.462 0.616213 -1.76238 0
M  V30 3481 C 335.813 1.7756 -0.834689 0
M  V30 3482 O 334.938 2.1639 -0.0204156 0
M  V30 3483 C 335.533 1.12462 -3.1959 0
M  V30 3484 C 334.092 1.62147 -3.39684 0
M  V30 3485 C 333.239 0.543739 -2.71917 0
M  V30 3486 H 336.19 -0.161022 -1.57881 0
M  V30 3487 H 336.211 1.99324 -3.24114 0
M  V30 3488 H 335.723 0.280592 -3.87084 0
M  V30 3489 H 333.824 2.48854 -2.77313 0
M  V30 3490 H 333.937 1.69385 -4.48158 0
M  V30 3491 H 332.301 0.990352 -2.34657 0
M  V30 3492 H 333.084 -0.290216 -3.42071 0
M  V30 3493 N 335.529 1.53961 0.336706 0
M  V30 3494 C 336.477 1.83136 1.43401 0
M  V30 3495 C 337.471 0.702313 1.54156 0
M  V30 3496 O 338.677 0.885765 1.56698 0
M  V30 3497 H 335.052 0.580309 0.478273 0
M  V30 3498 H 337.023 2.74925 1.16012 0
M  V30 3499 C 335.772 2.06385 2.79822 0
M  V30 3500 H 335.095 2.92718 2.72316 0
M  V30 3501 H 336.535 2.30761 3.55704 0
M  V30 3502 C 334.994 0.851414 3.25964 0
M  V30 3503 O 335.524 0.0541904 4.01663 0
M  V30 3504 N 333.73 0.66672 2.82848 0
M  V30 3505 H 333.277 1.31665 2.21409 0
M  V30 3506 H 333.235 -0.143032 3.14074 0
M  V30 3507 N 337.007 -0.598083 1.45811 0
M  V30 3508 C 338.253 -1.35882 1.50545 0
M  V30 3509 C 338.586 -1.93616 0.150445 0
M  V30 3510 O 337.861 -1.75604 -0.83628 0
M  V30 3511 C 338.144 -2.49966 2.59208 0
M  V30 3512 C 337.997 -1.97367 4.04186 0
M  V30 3513 C 339.316 -3.52068 2.64076 0
M  V30 3514 H 336.435 -0.492717 0.548087 0
M  V30 3515 H 339.077 -0.673319 1.77669 0
M  V30 3516 H 337.227 -3.08443 2.3621 0
M  V30 3517 H 338.899 -1.43466 4.38423 0
M  V30 3518 H 337.142 -1.283 4.14393 0
M  V30 3519 H 337.813 -2.79649 4.75921 0
M  V30 3520 H 340.289 -3.03448 2.84708 0
M  V30 3521 H 339.165 -4.2937 3.41954 0
M  V30 3522 H 339.426 -4.08304 1.69531 0
M  V30 3523 N 338.485 -1.33259 -0.841409 0
M  V30 3524 C 339.715 -1.2742 -1.62628 0
M  V30 3525 C 340.123 0.157604 -1.88542 0
M  V30 3526 O 339.466 1.10938 -1.46419 0
M  V30 3527 C 339.528 -1.97797 -3.00194 0
M  V30 3528 C 339.192 -3.47109 -2.97261 0
M  V30 3529 C 340.189 -4.42358 -2.73159 0
M  V30 3530 C 337.874 -3.89247 -3.17478 0
M  V30 3531 C 339.868 -5.77718 -2.69296 0
M  V30 3532 C 337.555 -5.24713 -3.13241 0
M  V30 3533 C 338.553 -6.1876 -2.89181 0
M  V30 3534 O 338.241 -7.51745 -2.84843 0
M  V30 3535 H 337.973 -0.440436 -0.512827 0
M  V30 3536 H 340.527 -1.76153 -1.05638 0
M  V30 3537 H 338.757 -1.43652 -3.59028 0
M  V30 3538 H 340.446 -1.8549 -3.61038 0
M  V30 3539 H 341.212 -4.11127 -2.57294 0
M  V30 3540 H 337.091 -3.16456 -3.35226 0
M  V30 3541 H 340.635 -6.51097 -2.50436 0
M  V30 3542 H 336.532 -5.55569 -3.28654 0
M  V30 3543 H 337.3 -7.61262 -3.00702 0
M  V30 3544 N 339.963 1.05934 -1.16686 0
M  V30 3545 C 341.188 1.83029 -0.975455 0
M  V30 3546 C 341.613 1.82096 0.471452 0
M  V30 3547 O 340.971 1.22443 1.33706 0
M  V30 3548 C 341.019 3.27372 -1.51195 0
M  V30 3549 O 340.123 4.06054 -0.720701 0
M  V30 3550 H 339.464 0.566194 -0.346872 0
M  V30 3551 H 341.994 1.33541 -1.55009 0
M  V30 3552 H 342.004 3.78186 -1.53099 0
M  V30 3553 H 340.679 3.27366 -2.56523 0
M  V30 3554 H 339.256 3.64812 -0.772458 0
M  V30 3555 N 341.441 0.965919 1.2453 0
M  V30 3556 C 342.69 0.622437 1.91856 0
M  V30 3557 C 343.003 -0.846006 1.76358 0
M  V30 3558 O 344.209 -1.29993 2.38357 0
M  V30 3559 C 342.665 1.0626 3.43856 0
M  V30 3560 C 342.273 2.55437 3.68043 0
M  V30 3561 C 344.017 0.792183 4.17043 0
M  V30 3562 C 341.924 2.93196 5.13605 0
M  V30 3563 H 340.854 0.229092 0.718354 0
M  V30 3564 H 343.505 1.17189 1.41206 0
M  V30 3565 H 341.887 0.441476 3.93531 0
M  V30 3566 H 343.061 3.22665 3.28974 0
M  V30 3567 H 341.376 2.8007 3.08139 0
M  V30 3568 H 343.973 1.05031 5.24283 0
M  V30 3569 H 344.316 -0.271584 4.15413 0
M  V30 3570 H 344.849 1.37419 3.73311 0
M  V30 3571 H 341.588 3.98636 5.20355 0
M  V30 3572 H 341.108 2.30651 5.53679 0
M  V30 3573 H 342.787 2.83004 5.81823 0
M  V30 3574 N 342.919 -1.39368 0.735821 0
M  V30 3575 C 343.866 -2.30599 0.0963825 0
M  V30 3576 C 344.836 -1.49257 -0.728794 0
M  V30 3577 O 346.021 -1.77941 -0.688588 0
M  V30 3578 C 343.161 -3.35596 -0.804305 0
M  V30 3579 C 342.274 -4.31987 0.0335761 0
M  V30 3580 C 341.409 -5.24053 -0.868461 0
M  V30 3581 C 340.448 -6.12095 -0.0258776 0
M  V30 3582 N 339.585 -6.96514 -0.883893 0
M  V30 3583 H 344.425 -2.8471 0.880002 0
M  V30 3584 H 341.962 -1.40188 0.445619 0
M  V30 3585 H 343.92 -3.95062 -1.34096 0
M  V30 3586 H 342.55 -2.82938 -1.55389 0
M  V30 3587 H 341.602 -3.74133 0.68766 0
M  V30 3588 H 342.914 -4.94074 0.685036 0
M  V30 3589 H 342.068 -5.88549 -1.47293 0
M  V30 3590 H 340.807 -4.62289 -1.5537 0
M  V30 3591 H 339.812 -5.4661 0.591386 0
M  V30 3592 H 341.037 -6.75923 0.656156 0
M  V30 3593 H 338.983 -6.37318 -1.55441 0
M  V30 3594 H 338.9 -7.55448 -0.288931 0
M  V30 3595 H 340.168 -7.65439 -1.4739 0
M  V30 3596 N 344.397 -0.483516 -1.5 0
M  V30 3597 C 345.627 0.0643896 -2.065 0
M  V30 3598 C 346.035 1.32949 -1.34615 0
M  V30 3599 O 345.378 1.79003 -0.412756 0
M  V30 3600 C 345.44 0.405983 -3.572 0
M  V30 3601 C 345.104 -0.758875 -4.50655 0
M  V30 3602 C 346.101 -1.64445 -4.93208 0
M  V30 3603 C 343.786 -0.952725 -4.93182 0
M  V30 3604 C 345.78 -2.70818 -5.77006 0
M  V30 3605 C 343.467 -2.01966 -5.76761 0
M  V30 3606 C 344.465 -2.89574 -6.18576 0
M  V30 3607 O 344.153 -3.94429 -7.00486 0
M  V30 3608 H 343.885 -0.00934786 -0.675935 0
M  V30 3609 H 346.439 -0.674959 -1.93993 0
M  V30 3610 H 344.669 1.19869 -3.67652 0
M  V30 3611 H 346.358 0.890433 -3.96013 0
M  V30 3612 H 347.124 -1.50643 -4.61012 0
M  V30 3613 H 343.003 -0.280247 -4.60147 0
M  V30 3614 H 346.547 -3.3923 -6.09565 0
M  V30 3615 H 342.444 -2.1577 -6.0837 0
M  V30 3616 H 343.212 -3.91568 -7.1876 0
M  V30 3617 N 345.875 1.56104 -0.216619 0
M  V30 3618 C 346.823 2.21434 0.712036 0
M  V30 3619 C 347.817 1.19218 1.20348 0
M  V30 3620 O 349.023 1.3731 1.16387 0
M  V30 3621 H 345.398 0.70992 0.248026 0
M  V30 3622 H 347.369 2.98083 0.137558 0
M  V30 3623 C 346.118 2.90434 1.91163 0
M  V30 3624 H 345.441 3.68842 1.54258 0
M  V30 3625 H 346.881 3.39552 2.5393 0
M  V30 3626 C 345.34 1.92635 2.76394 0
M  V30 3627 O 345.87 1.44017 3.74996 0
M  V30 3628 N 344.076 1.60392 2.42328 0
M  V30 3629 H 343.623 2.00122 1.622 0
M  V30 3630 H 343.581 0.952159 2.99635 0
M  V30 3631 N 347.353 -0.0568162 1.57498 0
M  V30 3632 C 348.301 -1.08452 2.05769 0
M  V30 3633 C 349.295 -1.39164 0.965903 0
M  V30 3634 O 350.501 -1.38395 1.15095 0
M  V30 3635 H 346.876 -0.367148 0.656282 0
M  V30 3636 H 348.847 -0.651368 2.91204 0
M  V30 3637 C 347.596 -2.38543 2.52968 0
M  V30 3638 H 346.919 -2.15765 3.36579 0
M  V30 3639 H 348.359 -3.08863 2.90481 0
M  V30 3640 C 346.818 -3.05562 1.41893 0
M  V30 3641 O 347.348 -3.94262 0.769442 0
M  V30 3642 N 345.554 -2.6643 1.16032 0
M  V30 3643 H 345.101 -1.94387 1.6903 0
M  V30 3644 H 345.059 -3.11593 0.419219 0
M  V30 3645 N 348.832 -1.54138 -0.328536 0
M  V30 3646 C 349.764 -1.79509 -1.4251 0
M  V30 3647 C 350.777 -0.67688 -1.48061 0
M  V30 3648 O 351.966 -0.953898 -1.50874 0
M  V30 3649 C 349.066 -1.89337 -2.81078 0
M  V30 3650 C 348.239 -3.19443 -2.98789 0
M  V30 3651 C 347.298 -3.20036 -4.17688 0
M  V30 3652 O 346.324 -3.93697 -4.11086 0
M  V30 3653 N 347.526 -2.43467 -5.26976 0
M  V30 3654 H 350.291 -2.74139 -1.21111 0
M  V30 3655 H 347.852 -1.53373 -0.518499 0
M  V30 3656 H 349.844 -1.87167 -3.58818 0
M  V30 3657 H 348.414 -1.01826 -2.95551 0
M  V30 3658 H 347.634 -3.34614 -2.08391 0
M  V30 3659 H 348.922 -4.05354 -3.07515 0
M  V30 3660 H 348.32 -1.83201 -5.35214 0
M  V30 3661 H 346.877 -2.4708 -6.03154 0
M  V30 3662 N 350.31 0.590341 -1.46126 0
M  V30 3663 C 351.24 1.71032 -1.58966 0
M  V30 3664 C 352.221 1.64302 -0.440335 0
M  V30 3665 O 353.406 1.82436 -0.665634 0
M  V30 3666 C 350.536 3.09665 -1.57241 0
M  V30 3667 C 349.49 3.31221 -2.71066 0
M  V30 3668 C 348.816 4.70303 -2.54399 0
M  V30 3669 C 350.116 3.19796 -4.1295 0
M  V30 3670 H 351.81 1.60543 -2.52718 0
M  V30 3671 H 349.356 0.770933 -1.21625 0
M  V30 3672 H 351.309 3.87831 -1.64819 0
M  V30 3673 H 350.033 3.21036 -0.600289 0
M  V30 3674 H 348.692 2.55452 -2.62944 0
M  V30 3675 H 348.34 4.78429 -1.55288 0
M  V30 3676 H 348.04 4.85679 -3.30741 0
M  V30 3677 H 349.564 5.50647 -2.63857 0
M  V30 3678 H 350.978 3.87815 -4.22223 0
M  V30 3679 H 349.375 3.46696 -4.89818 0
M  V30 3680 H 350.445 2.16983 -4.33643 0
M  V30 3681 N 351.788 1.33704 0.83433 0
M  V30 3682 C 352.751 1.24244 1.92603 0
M  V30 3683 C 353.751 0.160383 1.59998 0
M  V30 3684 O 354.941 0.412228 1.69252 0
M  V30 3685 C 352.073 0.91555 3.28376 0
M  V30 3686 H 353.266 2.21287 2.02416 0
M  V30 3687 H 350.819 1.17827 1.02696 0
M  V30 3688 H 351.554 -0.0521886 3.24258 0
M  V30 3689 H 351.339 1.69811 3.53422 0
M  V30 3690 H 352.829 0.874231 4.08347 0
M  V30 3691 N 353.266 -1.05314 1.17247 0
M  V30 3692 C 354.494 -1.81971 0.984593 0
M  V30 3693 C 354.909 -1.82929 -0.467166 0
M  V30 3694 O 354.266 -1.25564 -1.32438 0
M  V30 3695 C 354.317 -3.28143 1.51672 0
M  V30 3696 O 354.038 -3.27347 2.91163 0
M  V30 3697 C 355.539 -4.21493 1.37326 0
M  V30 3698 H 352.759 -0.573455 0.348411 0
M  V30 3699 H 355.303 -1.32808 1.55506 0
M  V30 3700 H 353.458 -3.74582 0.988302 0
M  V30 3701 H 353.872 -4.18824 3.15732 0
M  V30 3702 H 355.346 -5.22043 1.79375 0
M  V30 3703 H 355.823 -4.38031 0.320169 0
M  V30 3704 H 356.429 -3.80909 1.89178 0
M  V30 3705 N 354.744 -0.972509 -1.24016 0
M  V30 3706 C 356.16 -0.679827 -1.44397 0
M  V30 3707 C 356.36 0.756716 -1.86751 0
M  V30 3708 O 355.416 1.53007 -2.00861 0
M  V30 3709 C 356.729 -1.66803 -2.50195 0
M  V30 3710 C 358.277 -1.68119 -2.64017 0
M  V30 3711 C 358.752 -2.65748 -3.73017 0
M  V30 3712 N 360.243 -2.64219 -3.8045 0
M  V30 3713 C 360.978 -3.36433 -4.64328 0
M  V30 3714 N 360.474 -4.1818 -5.52356 0
M  V30 3715 N 362.267 -3.25235 -4.58453 0
M  V30 3716 H 354.418 -1.90059 -0.948228 0
M  V30 3717 H 356.681 -0.818527 -0.478245 0
M  V30 3718 H 356.387 -2.69498 -2.25973 0
M  V30 3719 H 356.261 -1.4446 -3.48441 0
M  V30 3720 H 358.648 -0.661319 -2.87594 0
M  V30 3721 H 358.729 -1.94525 -1.66113 0
M  V30 3722 H 358.373 -3.67872 -3.50189 0
M  V30 3723 H 358.303 -2.36619 -4.70446 0
M  V30 3724 H 360.794 -2.04887 -3.17537 0
M  V30 3725 H 361.107 -4.70157 -6.13329 0
M  V30 3726 H 359.452 -4.22273 -5.52006 0
M  V30 3727 H 362.643 -2.60829 -3.88698 0
M  V30 3728 H 362.816 -3.81776 -5.23594 0
M  V30 3729 N 356.222 1.38976 -0.743202 0
M  V30 3730 C 357.45 2.04636 -0.30525 0
M  V30 3731 C 357.865 1.56044 1.06281 0
M  V30 3732 O 357.222 0.728921 1.67311 0
M  V30 3733 C 357.273 3.60193 -0.307177 0
M  V30 3734 O 356.994 4.06998 -1.62124 0
M  V30 3735 C 358.495 4.4306 0.145928 0
M  V30 3736 H 355.715 0.65788 -0.132041 0
M  V30 3737 H 358.259 1.77866 -1.00915 0
M  V30 3738 H 356.414 3.85835 0.347898 0
M  V30 3739 H 356.828 5.01371 -1.54036 0
M  V30 3740 H 358.302 5.51921 0.0934183 0
M  V30 3741 H 358.779 4.22706 1.19231 0
M  V30 3742 H 359.385 4.22584 -0.479886 0
M  V30 3743 N 357.7 0.491464 1.49741 0
M  V30 3744 C 358.663 -0.280906 2.27472 0
M  V30 3745 C 359.663 -0.902454 1.33088 0
M  V30 3746 O 360.853 -0.768465 1.56334 0
M  V30 3747 C 357.985 -1.40209 3.10732 0
M  V30 3748 H 359.178 0.401056 2.97206 0
M  V30 3749 H 356.731 0.246131 1.5435 0
M  V30 3750 H 357.466 -2.11849 2.45541 0
M  V30 3751 H 357.251 -0.961969 3.80117 0
M  V30 3752 H 358.741 -1.9464 3.69466 0
M  V30 3753 N 359.178 -1.55987 0.224894 0
M  V30 3754 C 360.11 -2.17722 -0.716224 0
M  V30 3755 C 361.123 -1.14723 -1.15509 0
M  V30 3756 O 362.312 -1.41688 -1.08567 0
M  V30 3757 C 359.412 -2.74873 -1.98238 0
M  V30 3758 C 358.585 -4.03074 -1.69853 0
M  V30 3759 C 357.644 -4.44757 -2.81208 0
M  V30 3760 O 356.67 -5.11587 -2.49534 0
M  V30 3761 N 357.872 -4.10716 -4.10235 0
M  V30 3762 H 360.637 -2.99109 -0.188123 0
M  V30 3763 H 358.198 -1.6184 0.0440123 0
M  V30 3764 H 360.19 -2.99727 -2.7193 0
M  V30 3765 H 358.76 -1.9777 -2.42086 0
M  V30 3766 H 357.98 -3.86041 -0.797875 0
M  V30 3767 H 359.268 -4.86701 -1.48324 0
M  V30 3768 H 358.666 -3.57019 -4.38809 0
M  V30 3769 H 357.223 -4.40455 -4.80461 0
M  V30 3770 N 360.656 0.0484629 -1.57525 0
M  V30 3771 C 361.619 1.03956 -2.04269 0
M  V30 3772 C 362.619 1.30211 -0.943496 0
M  V30 3773 O 363.809 1.25539 -1.20771 0
M  V30 3774 C 360.941 2.37742 -2.44319 0
M  V30 3775 H 362.134 0.636182 -2.93075 0
M  V30 3776 H 359.687 0.294811 -1.53494 0
M  V30 3777 H 360.422 2.82866 -1.5861 0
M  V30 3778 H 360.207 2.20021 -3.24551 0
M  V30 3779 H 361.697 3.08936 -2.80978 0
M  V30 3780 N 362.134 1.5431 0.320358 0
M  V30 3781 C 363.383 1.7188 1.05546 0
M  V30 3782 C 363.696 0.501143 1.89071 0
M  V30 3783 O 364.902 0.558258 2.65699 0
M  V30 3784 C 363.358 3.04025 1.92605 0
M  V30 3785 C 362.966 4.33207 1.14176 0
M  V30 3786 C 364.71 3.30959 2.65832 0
M  V30 3787 C 362.617 5.56412 2.00399 0
M  V30 3788 H 361.547 0.640547 0.397763 0
M  V30 3789 H 364.198 1.80802 0.313522 0
M  V30 3790 H 362.58 2.89019 2.7071 0
M  V30 3791 H 363.754 4.58989 0.40819 0
M  V30 3792 H 362.069 4.13062 0.526165 0
M  V30 3793 H 364.666 4.20203 3.30656 0
M  V30 3794 H 365.009 2.48979 3.33639 0
M  V30 3795 H 365.542 3.46847 1.94787 0
M  V30 3796 H 362.281 6.41004 1.37094 0
M  V30 3797 H 361.801 5.34844 2.7148 0
M  V30 3798 H 363.48 5.92938 2.58908 0
M  V30 3799 N 363.613 -0.582584 1.46437 0
M  V30 3800 C 364.86 -1.34079 1.51753 0
M  V30 3801 C 365.188 -1.93762 0.169299 0
M  V30 3802 O 364.443 -1.76989 -0.835062 0
M  V30 3803 C 364.742 -2.48964 2.56421 0
M  V30 3804 C 364.408 -2.07273 4.00436 0
M  V30 3805 C 363.07 -1.95618 4.39644 0
M  V30 3806 C 365.422 -1.75111 4.90903 0
M  V30 3807 C 362.75 -1.5006 5.67185 0
M  V30 3808 C 365.102 -1.31032 6.18881 0
M  V30 3809 C 363.766 -1.17954 6.56996 0
M  V30 3810 H 363.036 -0.49063 0.555304 0
M  V30 3811 H 365.683 -0.656007 1.79913 0
M  V30 3812 H 363.988 -3.22889 2.21923 0
M  V30 3813 H 365.685 -3.07178 2.57765 0
M  V30 3814 H 362.275 -2.17279 3.69443 0
M  V30 3815 H 366.459 -1.83001 4.61329 0
M  V30 3816 H 361.715 -1.38577 5.95488 0
M  V30 3817 H 365.889 -1.052 6.88408 0
M  V30 3818 H 363.516 -0.824279 7.55718 0
M  V30 3819 N 365.091 -1.34144 -0.827227 0
M  V30 3820 C 366.368 -1.16844 -1.56865 0
M  V30 3821 C 366.748 0.260654 -2.09485 0
M  V30 3822 O 366.096 1.26138 -1.9053 0
M  V30 3823 C 366.306 -2.21939 -2.6934 0
M  V30 3824 C 367.654 -2.56695 -3.3822 0
M  V30 3825 O 368.678 -2.20695 -2.79593 0
M  V30 3826 O 367.537 -3.18518 -4.44082 0
M  V30 3827 H 364.631 -0.452669 -0.692112 0
M  V30 3828 H 367.177 -1.45763 -0.868973 0
M  V30 3829 H 365.949 -3.17882 -2.28182 0
M  V30 3830 H 365.572 -1.94172 -3.46962 0
M  V30 3831 N 366.569 1.04691 -1.17803 0
M  V30 3832 C 367.846 1.7472 -0.879328 0
M  V30 3833 C 368.226 2.01812 0.619271 0
M  V30 3834 O 367.574 1.65824 1.57209 0
M  V30 3835 C 367.784 3.03686 -1.71976 0
M  V30 3836 C 369.132 3.77542 -1.94286 0
M  V30 3837 O 370.156 3.13569 -1.68976 0
M  V30 3838 O 369.015 4.92506 -2.36855 0
M  V30 3839 H 366.109 0.760011 -0.326056 0
M  V30 3840 H 368.655 1.10813 -1.28525 0
M  V30 3841 H 367.427 2.79754 -2.73594 0
M  V30 3842 H 367.05 3.75332 -1.31194 0
M  V30 3843 N 368.047 0.979072 1.23499 0
M  V30 3844 C 369.272 0.664845 1.96455 0
M  V30 3845 C 369.697 -0.761287 1.72006 0
M  V30 3846 O 369.055 -1.51837 0.990713 0
M  V30 3847 C 369.103 0.959479 3.47601 0
M  V30 3848 O 368.207 0.0508168 4.12369 0
M  V30 3849 H 367.548 0.250185 0.615064 0
M  V30 3850 H 370.078 1.31231 1.5697 0
M  V30 3851 H 370.088 0.895642 3.98048 0
M  V30 3852 H 368.763 1.99876 3.64723 0
M  V30 3853 H 367.34 0.16895 3.72517 0
M  V30 3854 N 369.525 -1.3858 0.750561 0
M  V30 3855 C 370.755 -2.04175 0.31564 0
M  V30 3856 C 371.163 -1.56726 -1.05989 0
M  V30 3857 O 370.506 -0.734225 -1.68389 0
M  V30 3858 C 370.568 -3.58585 0.256389 0
M  V30 3859 C 370.232 -4.29077 1.57296 0
M  V30 3860 C 371.229 -4.54656 2.52159 0
M  V30 3861 C 368.914 -4.67324 1.84156 0
M  V30 3862 C 370.908 -5.17512 3.72103 0
M  V30 3863 C 368.595 -5.29905 3.04374 0
M  V30 3864 C 369.593 -5.54933 3.98168 0
M  V30 3865 O 369.281 -6.16212 5.16273 0
M  V30 3866 H 369.013 -0.662742 0.133226 0
M  V30 3867 H 371.567 -1.78313 1.01948 0
M  V30 3868 H 369.797 -3.83406 -0.503677 0
M  V30 3869 H 371.486 -4.05628 -0.148612 0
M  V30 3870 H 372.252 -4.25539 2.32683 0
M  V30 3871 H 368.131 -4.47191 1.11988 0
M  V30 3872 H 371.675 -5.36963 4.45327 0
M  V30 3873 H 367.572 -5.58444 3.23745 0
M  V30 3874 H 368.34 -6.34701 5.16815 0
M  V30 3875 N 371.003 -0.499398 -1.49478 0
M  V30 3876 C 371.933 0.269244 -2.31943 0
M  V30 3877 C 372.914 0.964054 -1.40143 0
M  V30 3878 O 374.099 0.955767 -1.69052 0
M  V30 3879 C 371.229 1.33504 -3.20615 0
M  V30 3880 C 370.183 0.760202 -4.21195 0
M  V30 3881 C 369.509 1.9264 -4.98792 0
M  V30 3882 C 370.809 -0.247661 -5.21712 0
M  V30 3883 H 372.503 -0.419082 -2.96452 0
M  V30 3884 H 370.049 -0.202988 -1.42562 0
M  V30 3885 H 372.002 1.88048 -3.77115 0
M  V30 3886 H 370.726 2.05253 -2.54045 0
M  V30 3887 H 369.385 0.23653 -3.65836 0
M  V30 3888 H 369.033 2.63154 -4.28671 0
M  V30 3889 H 368.733 1.54785 -5.66847 0
M  V30 3890 H 370.257 2.4762 -5.58137 0
M  V30 3891 H 371.671 0.209579 -5.72917 0
M  V30 3892 H 370.068 -0.541962 -5.97648 0
M  V30 3893 H 371.138 -1.16409 -4.7072 0
M  V30 3894 N 372.481 1.55866 -0.233164 0
M  V30 3895 C 373.729 1.9821 0.394593 0
M  V30 3896 C 374.05 1.12234 1.59463 0
M  V30 3897 O 373.32 0.201981 1.94856 0
M  V30 3898 H 371.9 0.732034 0.148778 0
M  V30 3899 H 374.562 1.92107 -0.32876 0
M  V30 3900 H 373.658 3.03845 0.713063 0
M  V30 3901 N 373.959 -0.0401083 1.57549 0
M  V30 3902 C 375.189 -0.744115 1.92734 0
M  V30 3903 C 375.597 -1.70005 0.830348 0
M  V30 3904 O 374.94 -1.82576 -0.20286 0
M  V30 3905 C 375.002 -1.56516 3.2364 0
M  V30 3906 C 374.666 -0.7752 4.50377 0
M  V30 3907 C 375.663 -0.0803326 5.19838 0
M  V30 3908 C 373.348 -0.733002 4.96923 0
M  V30 3909 C 375.342 0.646154 6.34116 0
M  V30 3910 C 373.029 -0.00276321 6.111 0
M  V30 3911 C 374.027 0.685585 6.7955 0
M  V30 3912 O 373.715 1.40399 7.91545 0
M  V30 3913 H 373.447 -0.214861 0.640945 0
M  V30 3914 H 376.001 -0.00503675 2.05399 0
M  V30 3915 H 374.231 -2.3478 3.07271 0
M  V30 3916 H 375.92 -2.15076 3.44234 0
M  V30 3917 H 376.686 -0.104035 4.84888 0
M  V30 3918 H 372.565 -1.25827 4.43496 0
M  V30 3919 H 376.109 1.18398 6.87479 0
M  V30 3920 H 372.006 0.0229012 6.45496 0
M  V30 3921 H 372.774 1.31653 8.07843 0
M  V30 3922 N 375.437 -1.54477 -0.31217 0
M  V30 3923 C 376.662 -1.77526 -1.07235 0
M  V30 3924 C 377.087 -0.527775 -1.80544 0
M  V30 3925 O 376.445 0.52121 -1.73646 0
M  V30 3926 C 376.493 -2.97535 -2.03728 0
M  V30 3927 O 375.597 -2.69878 -3.11833 0
M  V30 3928 H 374.938 -0.58792 -0.30862 0
M  V30 3929 H 377.468 -2.01532 -0.352993 0
M  V30 3930 H 377.478 -3.25198 -2.46395 0
M  V30 3931 H 376.153 -3.87996 -1.49774 0
M  V30 3932 H 374.73 -2.53199 -2.7376 0
M  V30 3933 N 376.915 0.57481 -1.46744 0
M  V30 3934 C 378.161 1.3347 -1.52688 0
M  V30 3935 C 378.494 1.93353 -0.181229 0
M  V30 3936 O 377.769 1.76912 0.808237 0
M  V30 3937 C 378.052 2.45811 -2.63152 0
M  V30 3938 C 377.905 1.90912 -4.07275 0
M  V30 3939 C 379.224 3.47822 -2.69644 0
M  V30 3940 H 376.343 0.483935 -0.555856 0
M  V30 3941 H 378.985 0.644968 -1.78718 0
M  V30 3942 H 377.135 3.04646 -2.41088 0
M  V30 3943 H 378.807 1.36473 -4.4065 0
M  V30 3944 H 377.05 1.21691 -4.16382 0
M  V30 3945 H 377.721 2.72042 -4.80309 0
M  V30 3946 H 380.197 2.9888 -2.895 0
M  V30 3947 H 379.073 4.23876 -3.48742 0
M  V30 3948 H 379.334 4.05555 -1.76005 0
M  V30 3949 N 378.394 1.34581 0.820102 0
M  V30 3950 C 379.357 1.2628 1.91275 0
M  V30 3951 C 380.357 0.177344 1.59819 0
M  V30 3952 O 381.547 0.430156 1.68806 0
M  V30 3953 C 378.679 0.950327 3.27386 0
M  V30 3954 H 379.872 2.23421 2.00057 0
M  V30 3955 H 377.425 1.1891 1.0144 0
M  V30 3956 H 378.16 -0.0177938 3.24295 0
M  V30 3957 H 377.945 1.73549 3.51601 0
M  V30 3958 H 379.435 0.917492 4.07396 0
M  V30 3959 N 379.872 -1.04064 1.18357 0
M  V30 3960 C 381.118 -1.77528 0.980397 0
M  V30 3961 C 381.451 -1.87948 -0.48879 0
M  V30 3962 O 380.726 -1.3876 -1.36293 0
M  V30 3963 C 381.009 -3.20797 1.63588 0
M  V30 3964 C 380.862 -3.1832 3.17793 0
M  V30 3965 C 382.181 -4.18911 1.34914 0
M  V30 3966 H 379.3 -0.644443 0.357578 0
M  V30 3967 H 381.942 -1.2156 1.46024 0
M  V30 3968 H 380.092 -3.68586 1.22788 0
M  V30 3969 H 381.764 -2.78521 3.67728 0
M  V30 3970 H 380.007 -2.56351 3.49952 0
M  V30 3971 H 380.678 -4.19489 3.58794 0
M  V30 3972 H 383.154 -3.7967 1.70265 0
M  V30 3973 H 382.03 -5.17374 1.83346 0
M  V30 3974 H 382.291 -4.41262 0.272027 0
M  V30 3975 N 381.35 -0.985608 -1.22978 0
M  V30 3976 C 382.598 -0.656087 -1.91154 0
M  V30 3977 C 382.919 0.813561 -1.77218 0
M  V30 3978 O 382.189 1.58244 -1.1548 0
M  V30 3979 H 380.769 -0.239674 -0.707506 0
M  V30 3980 H 383.431 -1.25054 -1.49491 0
M  V30 3981 H 382.527 -0.912253 -2.9847 0
M  V30 3982 N 382.828 1.3818 -0.7579 0
M  V30 3983 C 384.105 1.94106 -0.241306 0
M  V30 3984 C 384.485 1.69282 1.26122 0
M  V30 3985 O 383.833 1.03378 2.03777 0
M  V30 3986 C 384.043 3.43809 -0.59967 0
M  V30 3987 C 385.391 4.20868 -0.561717 0
M  V30 3988 O 386.415 3.5211 -0.538222 0
M  V30 3989 O 385.274 5.43451 -0.576478 0
M  V30 3990 H 382.368 0.825376 -0.0518042 0
M  V30 3991 H 384.914 1.47548 -0.838315 0
M  V30 3992 H 383.686 3.55403 -1.6372 0
M  V30 3993 H 383.309 3.97592 0.0251197 0
M  V30 3994 N 384.306 0.507319 1.49211 0
M  V30 3995 C 385.553 -0.0349529 2.0247 0
M  V30 3996 C 385.881 -1.36409 1.38647 0
M  V30 3997 O 385.136 -1.88841 0.513566 0
M  V30 3998 C 385.435 -0.229513 3.56662 0
M  V30 3999 C 385.101 1.02241 4.39156 0
M  V30 4000 C 383.763 1.36557 4.61417 0
M  V30 4001 C 386.115 1.85428 4.871 0
M  V30 4002 C 383.443 2.53999 5.28868 0
M  V30 4003 C 385.795 3.02028 5.55843 0
M  V30 4004 C 384.459 3.36717 5.76349 0
M  V30 4005 H 383.729 -0.0127902 0.74089 0
M  V30 4006 H 386.376 0.668756 1.79443 0
M  V30 4007 H 384.681 -1.0158 3.78403 0
M  V30 4008 H 386.378 -0.663641 3.9547 0
M  V30 4009 H 382.968 0.745124 4.22073 0
M  V30 4010 H 387.152 1.6023 4.69723 0
M  V30 4011 H 382.408 2.81105 5.42946 0
M  V30 4012 H 386.582 3.66808 5.91967 0
M  V30 4013 H 384.209 4.27821 6.28389 0
M  V30 4014 N 385.784 -1.5574 0.241426 0
M  V30 4015 C 386.732 -2.22538 -0.676718 0
M  V30 4016 C 387.726 -1.21117 -1.18436 0
M  V30 4017 O 388.932 -1.39144 -1.14188 0
M  V30 4018 H 385.307 -0.713776 -0.236701 0
M  V30 4019 H 387.278 -2.98264 -0.0901187 0
M  V30 4020 C 386.027 -2.93439 -1.86518 0
M  V30 4021 H 385.35 -3.7125 -1.4837 0
M  V30 4022 H 386.79 -3.43549 -2.48495 0
M  V30 4023 C 385.249 -1.97008 -2.73294 0
M  V30 4024 O 385.779 -1.49965 -3.72657 0
M  V30 4025 N 383.985 -1.64227 -2.39745 0
M  V30 4026 H 383.532 -2.02677 -1.58996 0
M  V30 4027 H 383.49 -0.999708 -2.98083 0
M  V30 4028 N 387.262 0.0317525 -1.57568 0
M  V30 4029 C 388.51 0.721676 -1.88776 0
M  V30 4030 C 388.831 1.76039 -0.838772 0
M  V30 4031 O 388.101 1.95482 0.127935 0
M  V30 4032 H 386.681 0.269534 -0.696678 0
M  V30 4033 H 389.343 -0.00165879 -1.949 0
M  V30 4034 H 388.439 1.21293 -2.87566 0
M  V30 4035 N 388.74 1.54641 0.303973 0
M  V30 4036 C 390.017 1.64455 1.05896 0
M  V30 4037 C 390.397 0.490923 2.05312 0
M  V30 4038 O 389.745 -0.512685 2.22674 0
M  V30 4039 C 389.955 3.02331 1.74347 0
M  V30 4040 C 391.303 3.59045 2.26653 0
M  V30 4041 O 392.327 3.04764 1.84384 0
M  V30 4042 O 391.186 4.54081 3.04093 0
M  V30 4043 H 388.28 0.666729 0.489287 0
M  V30 4044 H 390.826 1.66986 0.302298 0
M  V30 4045 H 389.598 3.77734 1.02142 0
M  V30 4046 H 389.221 3.03565 2.56777 0
M  V30 4047 N 390.218 -0.567019 1.47046 0
M  V30 4048 C 391.466 -1.322 1.52864 0
M  V30 4049 C 391.787 -1.94088 0.188388 0
M  V30 4050 O 391.057 -1.7941 -0.786693 0
M  V30 4051 H 389.637 -0.490894 0.563056 0
M  V30 4052 H 392.299 -0.662879 1.83281 0
M  V30 4053 H 391.395 -2.12062 2.2899 0
M  V30 4054 N 391.696 -1.35014 -0.812953 0
M  V30 4055 C 392.945 -1.27269 -1.56479 0
M  V30 4056 C 393.258 0.152771 -1.95002 0
M  V30 4057 O 394.464 0.352451 -2.69203 0
M  V30 4058 C 392.92 -2.23159 -2.82362 0
M  V30 4059 C 392.528 -3.71016 -2.511 0
M  V30 4060 C 394.272 -2.24342 -3.60376 0
M  V30 4061 C 392.179 -4.58746 -3.73237 0
M  V30 4062 H 391.109 -0.472829 -0.587324 0
M  V30 4063 H 393.76 -1.6024 -0.894171 0
M  V30 4064 H 392.142 -1.83151 -3.51101 0
M  V30 4065 H 393.316 -4.1962 -1.90409 0
M  V30 4066 H 391.631 -3.72378 -1.86343 0
M  V30 4067 H 394.228 -2.87107 -4.51081 0
M  V30 4068 H 394.571 -1.24542 -3.97234 0
M  V30 4069 H 395.104 -2.62846 -2.98591 0
M  V30 4070 H 391.843 -5.59521 -3.41492 0
M  V30 4071 H 391.363 -4.14871 -4.33176 0
M  V30 4072 H 393.042 -4.73852 -4.40537 0
M  V30 4073 N 393.175 1.03435 -1.18907 0
M  V30 4074 C 394.452 1.73778 -0.89781 0
M  V30 4075 C 394.832 2.02458 0.597832 0
M  V30 4076 O 394.18 1.67482 1.55441 0
M  V30 4077 C 394.39 3.01845 -1.75187 0
M  V30 4078 C 395.738 3.7546 -1.9828 0
M  V30 4079 O 396.762 3.11759 -1.72293 0
M  V30 4080 O 395.621 4.89966 -2.42065 0
M  V30 4081 H 392.715 0.75651 -0.334098 0
M  V30 4082 H 395.261 1.09444 -1.29693 0
M  V30 4083 H 394.033 2.76836 -2.76545 0
M  V30 4084 H 393.656 3.73919 -1.35167 0
M  V30 4085 N 394.653 0.992116 1.22453 0
M  V30 4086 C 395.93 0.583508 1.86694 0
M  V30 4087 C 396.31 -0.9392 1.89056 0
M  V30 4088 O 395.658 -1.82081 1.38053 0
M  V30 4089 C 395.868 1.20304 3.2761 0
M  V30 4090 C 397.216 1.30308 4.0411 0
M  V30 4091 O 398.24 1.15737 3.36873 0
M  V30 4092 O 397.099 1.53615 5.24466 0
M  V30 4093 H 394.193 0.198129 0.802916 0
M  V30 4094 H 396.739 1.08794 1.30238 0
M  V30 4095 H 395.511 2.24461 3.2052 0
M  V30 4096 H 395.134 0.684144 3.9167 0
M  V30 4097 N 396.131 -1.37776 0.765217 0
M  V30 4098 C 397.378 -1.99849 0.326588 0
M  V30 4099 C 397.706 -1.60746 -1.09504 0
M  V30 4100 O 396.961 -0.84202 -1.76659 0
M  V30 4101 C 397.26 -3.5504 0.410053 0
M  V30 4102 C 396.926 -4.13891 1.78899 0
M  V30 4103 C 395.588 -4.29678 2.16635 0
M  V30 4104 C 397.94 -4.46236 2.69301 0
M  V30 4105 C 395.268 -4.7511 3.44221 0
M  V30 4106 C 397.62 -4.93089 3.9629 0
M  V30 4107 C 396.284 -5.07082 4.34078 0
M  V30 4108 H 395.554 -0.7313 0.119507 0
M  V30 4109 H 398.201 -1.64645 0.977968 0
M  V30 4110 H 396.506 -3.90451 -0.324878 0
M  V30 4111 H 398.203 -4.00966 0.0520699 0
M  V30 4112 H 394.793 -4.02026 1.48569 0
M  V30 4113 H 398.977 -4.3363 2.41409 0
M  V30 4114 H 394.233 -4.84129 3.73402 0
M  V30 4115 H 398.407 -5.17084 4.66472 0
M  V30 4116 H 396.034 -5.42046 5.33001 0
M  V30 4117 N 397.609 -0.515225 -1.4894 0
M  V30 4118 C 398.855 0.0242508 -2.02785 0
M  V30 4119 C 399.188 1.35323 -1.39289 0
M  V30 4120 O 398.463 1.87041 -0.533469 0
M  V30 4121 C 398.746 0.16184 -3.59736 0
M  V30 4122 C 398.599 -1.19127 -4.33738 0
M  V30 4123 C 399.918 0.895719 -4.30888 0
M  V30 4124 H 397.037 0.00733914 -0.736963 0
M  V30 4125 H 399.679 -0.669395 -1.77818 0
M  V30 4126 H 397.829 0.752624 -3.8114 0
M  V30 4127 H 399.501 -1.82202 -4.23792 0
M  V30 4128 H 397.744 -1.77695 -3.95736 0
M  V30 4129 H 398.415 -1.04815 -5.41957 0
M  V30 4130 H 400.891 0.394528 -4.14225 0
M  V30 4131 H 399.767 0.960859 -5.40425 0
M  V30 4132 H 400.028 1.9427 -3.97129 0
M  V30 4133 N 399.087 1.5561 -0.249682 0
M  V30 4134 C 400.312 2.03865 0.381305 0
M  V30 4135 C 400.737 1.12769 1.50548 0
M  V30 4136 O 400.095 0.121189 1.80895 0
M  V30 4137 C 400.143 3.50101 0.863816 0
M  V30 4138 O 399.247 3.62132 1.97318 0
M  V30 4139 H 398.588 0.658827 0.0827194 0
M  V30 4140 H 401.118 2.01105 -0.376552 0
M  V30 4141 H 401.128 3.90975 1.1663 0
M  V30 4142 H 399.803 4.1588 0.0411816 0
M  V30 4143 H 398.38 3.33155 1.67517 0
M  V30 4144 N 400.565 -0.0233959 1.57583 0
M  V30 4145 C 401.813 -0.711654 1.89156 0
M  V30 4146 C 402.134 -1.75591 0.848096 0
M  V30 4147 O 401.404 -1.95547 -0.117566 0
M  V30 4148 H 399.984 -0.265835 0.698098 0
M  V30 4149 H 402.646 0.0119948 1.94896 0
M  V30 4150 H 401.742 -1.19766 2.88206 0
M  V30 4151 N 402.043 -1.548 -0.295768 0
M  V30 4152 C 403.289 -1.74588 -1.03184 0
M  V30 4153 C 403.622 -0.532962 -1.86744 0
M  V30 4154 O 402.897 0.469872 -1.88739 0
M  V30 4155 C 403.18 -3.03791 -1.93347 0
M  V30 4156 C 403.033 -4.35392 -1.12933 0
M  V30 4157 C 404.352 -3.28892 -2.92435 0
M  V30 4158 H 401.471 -0.635221 -0.373715 0
M  V30 4159 H 404.113 -1.87519 -0.30606 0
M  V30 4160 H 402.263 -2.92898 -2.55232 0
M  V30 4161 H 403.935 -4.58211 -0.532943 0
M  V30 4162 H 402.178 -4.31642 -0.432168 0
M  V30 4163 H 402.849 -5.22074 -1.79284 0
M  V30 4164 H 405.325 -3.39429 -2.4068 0
M  V30 4165 H 404.201 -4.20603 -3.52682 0
M  V30 4166 H 404.462 -2.47437 -3.6637 0
M  V30 4167 N 403.521 0.559213 -1.47345 0
M  V30 4168 C 404.932 1.14134 -1.47751 0
M  V30 4169 C 405.283 1.94834 -0.231103 0
M  V30 4170 O 404.408 2.05957 0.664137 0
M  V30 4171 C 405.003 2.07653 -2.67705 0
M  V30 4172 C 403.562 2.61141 -2.71076 0
M  V30 4173 C 402.709 1.3748 -2.40821 0
M  V30 4174 H 405.66 0.345917 -1.54884 0
M  V30 4175 H 405.681 2.91497 -2.44561 0
M  V30 4176 H 405.193 1.4889 -3.58404 0
M  V30 4177 H 403.294 3.23707 -1.84511 0
M  V30 4178 H 403.407 3.02272 -3.7171 0
M  V30 4179 H 401.771 1.68086 -1.91362 0
M  V30 4180 H 402.554 0.805135 -3.33725 0
M  V30 4181 N 404.999 1.35443 0.805782 0
M  V30 4182 C 406.415 1.15499 1.10146 0
M  V30 4183 C 406.615 -0.0319975 2.01475 0
M  V30 4184 O 405.671 -0.70236 2.42535 0
M  V30 4185 C 406.984 2.45833 1.73166 0
M  V30 4186 C 408.532 2.52047 1.85583 0
M  V30 4187 C 409.007 3.82427 2.52019 0
M  V30 4188 N 410.498 3.83682 2.59504 0
M  V30 4189 C 411.233 4.81294 3.11679 0
M  V30 4190 N 410.729 5.89294 3.64287 0
M  V30 4191 N 412.522 4.6873 3.1024 0
M  V30 4192 H 404.673 2.11469 0.198678 0
M  V30 4193 H 406.936 0.93594 0.150731 0
M  V30 4194 H 406.642 3.32874 1.13526 0
M  V30 4195 H 406.516 2.6044 2.72857 0
M  V30 4196 H 408.903 1.65435 2.44367 0
M  V30 4197 H 408.984 2.41354 0.847455 0
M  V30 4198 H 408.628 4.69437 1.93885 0
M  V30 4199 H 408.558 3.90409 3.53395 0
M  V30 4200 H 411.049 3.05648 2.22234 0
M  V30 4201 H 411.362 6.59768 4.02401 0
M  V30 4202 H 409.707 5.92985 3.62483 0
M  V30 4203 H 412.898 3.83496 2.68419 0
M  V30 4204 H 413.071 5.44965 3.50596 0
M  V30 4205 N 406.477 -1.02803 1.19454 0
M  V30 4206 C 407.44 -2.09264 0.934955 0
M  V30 4207 C 408.44 -1.60576 -0.0849015 0
M  V30 4208 O 409.63 -1.73554 0.149933 0
M  V30 4209 C 406.762 -3.38482 0.40531 0
M  V30 4210 H 407.955 -2.33726 1.87916 0
M  V30 4211 H 405.508 -1.19426 1.00832 0
M  V30 4212 H 406.243 -3.19689 -0.544899 0
M  V30 4213 H 406.028 -3.75142 1.14065 0
M  V30 4214 H 407.518 -4.16894 0.242806 0
M  V30 4215 N 407.956 -0.998596 -1.21925 0
M  V30 4216 C 408.919 -0.558679 -2.22287 0
M  V30 4217 C 409.919 0.361525 -1.56683 0
M  V30 4218 O 411.109 0.152695 -1.73529 0
M  V30 4219 C 408.241 0.18661 -3.40389 0
M  V30 4220 H 409.434 -1.4463 -2.62721 0
M  V30 4221 H 406.987 -0.786413 -1.35075 0
M  V30 4222 H 407.722 1.08996 -3.05435 0
M  V30 4223 H 407.507 -0.474188 -3.89222 0
M  V30 4224 H 408.997 0.482367 -4.14805 0
M  V30 4225 N 409.434 1.37368 -0.772513 0
M  V30 4226 C 410.85 1.53059 -0.452231 0
M  V30 4227 C 411.05 1.73065 1.03203 0
M  V30 4228 O 410.106 1.75245 1.81784 0
M  V30 4229 C 411.419 2.72659 -1.26797 0
M  V30 4230 C 412.967 2.86521 -1.25995 0
M  V30 4231 C 413.442 4.09105 -2.05905 0
M  V30 4232 N 414.933 4.16219 -2.03263 0
M  V30 4233 C 415.668 5.10107 -2.61875 0
M  V30 4234 N 415.164 6.09547 -3.29278 0
M  V30 4235 N 416.957 5.02596 -2.51701 0
M  V30 4236 H 409.108 1.22634 -1.7342 0
M  V30 4237 H 411.371 0.597206 -0.736239 0
M  V30 4238 H 411.077 2.64343 -2.31982 0
M  V30 4239 H 410.951 3.66363 -0.897672 0
M  V30 4240 H 413.338 2.94308 -0.216081 0
M  V30 4241 H 413.419 1.93774 -1.66989 0
M  V30 4242 H 413.063 4.0208 -3.10313 0
M  V30 4243 H 412.993 5.00968 -1.62292 0
M  V30 4244 H 415.484 3.45012 -1.54192 0
M  V30 4245 H 415.797 6.77718 -3.71374 0
M  V30 4246 H 414.142 6.09824 -3.33377 0
M  V30 4247 H 417.333 4.23855 -1.98657 0
M  V30 4248 H 417.506 5.75582 -2.97673 0
M  V30 4249 N 410.912 0.523116 1.48665 0
M  V30 4250 C 412.14 -0.0096312 2.06898 0
M  V30 4251 C 412.555 -1.28784 1.38059 0
M  V30 4252 O 411.912 -1.76453 0.465893 0
M  V30 4253 C 411.963 -0.244386 3.60673 0
M  V30 4254 O 411.684 0.983172 4.26925 0
M  V30 4255 C 413.185 -0.818289 4.35682 0
M  V30 4256 H 410.405 0.0304161 0.67031 0
M  V30 4257 H 412.949 0.726799 1.91149 0
M  V30 4258 H 411.104 -0.930847 3.76051 0
M  V30 4259 H 411.518 0.759653 5.1897 0
M  V30 4260 H 412.992 -0.93201 5.44075 0
M  V30 4261 H 413.469 -1.82153 3.99646 0
M  V30 4262 H 414.075 -0.168609 4.24966 0
M  V30 4263 N 412.39 -1.55475 0.257931 0
M  V30 4264 C 413.32 -2.24815 -0.630912 0
M  V30 4265 C 414.301 -1.23224 -1.17259 0
M  V30 4266 O 415.486 -1.51904 -1.20991 0
M  V30 4267 C 412.616 -2.95609 -1.82298 0
M  V30 4268 C 411.57 -4.03982 -1.41359 0
M  V30 4269 C 410.896 -4.6226 -2.68738 0
M  V30 4270 C 412.196 -5.19109 -0.57648 0
M  V30 4271 H 413.89 -2.99354 -0.0526878 0
M  V30 4272 H 411.436 -1.4398 -0.023901 0
M  V30 4273 H 413.389 -3.42822 -2.45054 0
M  V30 4274 H 412.113 -2.18577 -2.42676 0
M  V30 4275 H 410.772 -3.57555 -0.809324 0
M  V30 4276 H 410.42 -3.81915 -3.27338 0
M  V30 4277 H 410.12 -5.35424 -2.42065 0
M  V30 4278 H 411.644 -5.12212 -3.32372 0
M  V30 4279 H 413.058 -5.62479 -1.10861 0
M  V30 4280 H 411.455 -5.98729 -0.405351 0
M  V30 4281 H 412.525 -4.83174 0.408776 0
M  V30 4282 N 413.868 0.0150385 -1.57593 0
M  V30 4283 C 415.116 0.701613 -1.8953 0
M  V30 4284 C 415.437 1.75139 -0.857396 0
M  V30 4285 O 414.707 1.95607 0.107194 0
M  V30 4286 H 413.287 0.26213 -0.699498 0
M  V30 4287 H 415.949 -0.0223304 -1.94887 0
M  V30 4288 H 415.045 1.18236 -2.88837 0
M  V30 4289 N 415.346 1.54954 0.287554 0
M  V30 4290 C 416.279 1.81737 1.3801 0
M  V30 4291 C 417.257 0.669412 1.48181 0
M  V30 4292 O 418.441 0.910839 1.65033 0
M  V30 4293 C 415.568 1.96606 2.75796 0
M  V30 4294 C 414.614 3.19098 2.82982 0
M  V30 4295 S 415.447 4.7683 2.43707 0
M  V30 4296 C 416.603 4.94653 3.83496 0
M  V30 4297 H 416.836 2.74122 1.15085 0
M  V30 4298 H 414.369 1.46538 0.486403 0
M  V30 4299 H 416.327 2.05858 3.55152 0
M  V30 4300 H 414.988 1.05136 2.95982 0
M  V30 4301 H 414.181 3.26344 3.84077 0
M  V30 4302 H 413.783 3.08361 2.11635 0
M  V30 4303 H 416.075 4.79502 4.78628 0
M  V30 4304 H 417.018 5.96728 3.8121 0
M  V30 4305 H 417.426 4.2272 3.74123 0
M  V30 4306 N 416.824 -0.551391 1.4764 0
M  V30 4307 C 418.07 -1.31024 1.54792 0
M  V30 4308 C 418.403 -1.9304 0.211967 0
M  V30 4309 O 417.678 -1.78175 -0.77999 0
M  V30 4310 C 417.961 -2.41593 2.67029 0
M  V30 4311 C 417.814 -1.84408 4.10261 0
M  V30 4312 C 419.133 -3.43488 2.75143 0
M  V30 4313 H 416.252 -0.475031 0.563485 0
M  V30 4314 H 418.894 -0.616454 1.79722 0
M  V30 4315 H 417.044 -3.00772 2.45904 0
M  V30 4316 H 418.716 -1.29445 4.42766 0
M  V30 4317 H 416.959 -1.15051 4.18265 0
M  V30 4318 H 417.63 -2.64367 4.84576 0
M  V30 4319 H 420.106 -2.94236 2.94218 0
M  V30 4320 H 418.982 -4.18274 3.55441 0
M  V30 4321 H 419.243 -4.02703 1.82435 0
M  V30 4322 N 418.302 -1.35869 -0.798587 0
M  V30 4323 C 419.532 -1.32529 -1.58491 0
M  V30 4324 C 419.94 0.0975405 -1.88948 0
M  V30 4325 O 419.283 1.06224 -1.49874 0
M  V30 4326 C 419.345 -2.07247 -2.9375 0
M  V30 4327 C 419.009 -3.56391 -2.86068 0
M  V30 4328 C 420.006 -4.50824 -2.58947 0
M  V30 4329 C 417.691 -3.9915 -3.04933 0
M  V30 4330 C 419.685 -5.85993 -2.5078 0
M  V30 4331 C 417.372 -5.34413 -2.96389 0
M  V30 4332 C 418.37 -6.27646 -2.69349 0
M  V30 4333 O 418.058 -7.60426 -2.60782 0
M  V30 4334 H 417.79 -0.456529 -0.498556 0
M  V30 4335 H 420.344 -1.79425 -0.999799 0
M  V30 4336 H 418.574 -1.55001 -3.54276 0
M  V30 4337 H 420.263 -1.96883 -3.54954 0
M  V30 4338 H 421.029 -4.19104 -2.44084 0
M  V30 4339 H 416.908 -3.26961 -3.24989 0
M  V30 4340 H 420.452 -6.58735 -2.29595 0
M  V30 4341 H 416.349 -5.65743 -3.10813 0
M  V30 4342 H 417.117 -7.70444 -2.76331 0
M  V30 4343 N 419.78 1.02168 -1.19998 0
M  V30 4344 C 421.029 1.75091 -1.0013 0
M  V30 4345 C 421.342 1.89923 0.467835 0
M  V30 4346 O 422.548 2.59888 0.785515 0
M  V30 4347 C 421.004 3.14892 -1.74273 0
M  V30 4348 C 420.612 3.0809 -3.25245 0
M  V30 4349 C 422.356 3.9206 -1.62755 0
M  V30 4350 C 420.263 4.42867 -3.91948 0
M  V30 4351 H 419.193 0.656394 -0.37103 0
M  V30 4352 H 421.844 1.14284 -1.43567 0
M  V30 4353 H 420.226 3.7621 -1.2362 0
M  V30 4354 H 421.4 2.5611 -3.83072 0
M  V30 4355 H 419.715 2.44416 -3.3712 0
M  V30 4356 H 422.312 4.91764 -2.09934 0
M  V30 4357 H 422.655 4.12199 -0.582894 0
M  V30 4358 H 423.188 3.37359 -2.10793 0
M  V30 4359 H 419.927 4.27931 -4.96543 0
M  V30 4360 H 419.447 4.94874 -3.3891 0
M  V30 4361 H 421.126 5.11728 -3.95909 0
M  V30 4362 N 421.258 1.00505 1.21394 0
M  V30 4363 C 422.488 0.705584 1.94178 0
M  V30 4364 C 422.896 -0.735846 1.74304 0
M  V30 4365 O 422.239 -1.50954 1.04683 0
M  V30 4366 C 422.301 0.94689 3.46806 0
M  V30 4367 C 421.965 2.37517 3.90429 0
M  V30 4368 C 422.962 3.35539 3.97127 0
M  V30 4369 C 420.647 2.71284 4.22742 0
M  V30 4370 C 422.641 4.65395 4.3553 0
M  V30 4371 C 420.328 4.01356 4.60822 0
M  V30 4372 C 421.326 4.98223 4.67186 0
M  V30 4373 O 421.014 6.25969 5.04399 0
M  V30 4374 H 420.746 0.259216 0.624326 0
M  V30 4375 H 423.3 1.34592 1.55159 0
M  V30 4376 H 421.53 0.249386 3.85895 0
M  V30 4377 H 423.219 0.640804 4.0081 0
M  V30 4378 H 423.985 3.10786 3.7234 0
M  V30 4379 H 419.864 1.96581 4.16985 0
M  V30 4380 H 423.408 5.41002 4.40412 0
M  V30 4381 H 419.305 4.25893 4.85063 0
M  V30 4382 H 420.073 6.30085 5.22431 0
M  V30 4383 N 422.737 -1.36956 0.779787 0
M  V30 4384 C 424.014 -1.93697 0.272156 0
M  V30 4385 C 424.394 -1.71267 -1.23413 0
M  V30 4386 O 423.742 -1.06607 -2.02107 0
M  V30 4387 C 423.952 -3.42812 0.654291 0
M  V30 4388 C 425.3 -4.19921 0.628602 0
M  V30 4389 O 426.324 -3.51209 0.594172 0
M  V30 4390 O 425.183 -5.42465 0.662864 0
M  V30 4391 H 422.277 -0.824447 0.0649286 0
M  V30 4392 H 424.823 -1.46196 0.861682 0
M  V30 4393 H 423.595 -3.52754 1.69353 0
M  V30 4394 H 423.218 -3.97582 0.0381369 0
M  V30 4395 N 424.215 -0.530993 -1.48385 0
M  V30 4396 C 425.463 0.00273189 -2.021 0
M  V30 4397 C 425.784 1.34672 -1.41027 0
M  V30 4398 O 425.054 1.8724 -0.576012 0
M  V30 4399 H 423.634 0.00399774 -0.746989 0
M  V30 4400 H 426.296 -0.695054 -1.82085 0
M  V30 4401 H 425.392 0.11031 -3.11905 0
M  V30 4402 N 425.693 1.55336 -0.266172 0
M  V30 4403 C 426.64 2.22172 0.625165 0
M  V30 4404 C 427.61 1.19211 1.15663 0
M  V30 4405 O 428.795 1.47723 1.20758 0
M  V30 4406 C 425.935 2.93972 1.8076 0
M  V30 4407 C 425.048 4.11632 1.31084 0
M  V30 4408 C 424.183 4.71099 2.45436 0
M  V30 4409 C 423.222 5.8097 1.92718 0
M  V30 4410 N 422.359 6.34538 3.00509 0
M  V30 4411 H 427.199 2.9796 0.0485582 0
M  V30 4412 H 424.736 1.47095 0.0122024 0
M  V30 4413 H 426.694 3.33811 2.50251 0
M  V30 4414 H 425.324 2.20623 2.35638 0
M  V30 4415 H 424.376 3.76975 0.509326 0
M  V30 4416 H 425.688 4.90893 0.884633 0
M  V30 4417 H 424.842 5.13612 3.22936 0
M  V30 4418 H 423.581 3.91096 2.91368 0
M  V30 4419 H 422.586 5.37916 1.13695 0
M  V30 4420 H 423.811 6.62836 1.47733 0
M  V30 4421 H 421.757 5.57433 3.45839 0
M  V30 4422 H 421.674 7.09046 2.62279 0
M  V30 4423 H 422.942 6.81709 3.78011 0
M  V30 4424 N 427.171 -0.0066808 1.57599 0
M  V30 4425 C 428.119 -1.01851 2.09115 0
M  V30 4426 C 429.113 -1.36021 1.00969 0
M  V30 4427 O 430.319 -1.34663 1.19439 0
M  V30 4428 H 426.694 -0.346083 0.667631 0
M  V30 4429 H 428.665 -0.558394 2.93129 0
M  V30 4430 C 427.414 -2.30374 2.60429 0
M  V30 4431 H 426.737 -2.04947 3.43273 0
M  V30 4432 H 428.177 -2.99466 3.00161 0
M  V30 4433 C 426.636 -3.00893 1.51542 0
M  V30 4434 O 427.166 -3.91614 0.894484 0
M  V30 4435 N 425.372 -2.62603 1.2445 0
M  V30 4436 H 424.919 -1.88911 1.75129 0
M  V30 4437 H 424.877 -3.10101 0.518137 0
M  V30 4438 N 428.649 -1.55105 -0.279332 0
M  V30 4439 C 429.582 -1.82467 -1.37044 0
M  V30 4440 C 430.56 -0.677261 -1.47824 0
M  V30 4441 O 431.744 -0.919578 -1.64548 0
M  V30 4442 C 428.871 -1.98066 -2.7475 0
M  V30 4443 C 427.917 -3.20594 -2.81286 0
M  V30 4444 S 428.75 -4.78116 -2.41175 0
M  V30 4445 C 429.906 -4.9668 -3.80867 0
M  V30 4446 H 430.139 -2.74728 -1.1363 0
M  V30 4447 H 427.672 -1.46794 -0.478625 0
M  V30 4448 H 429.63 -2.07739 -3.54055 0
M  V30 4449 H 428.291 -1.06704 -2.9542 0
M  V30 4450 H 427.484 -3.28376 -3.82341 0
M  V30 4451 H 427.086 -3.09479 -2.09996 0
M  V30 4452 H 429.378 -4.82033 -4.76078 0
M  V30 4453 H 430.321 -5.98741 -3.78041 0
M  V30 4454 H 430.729 -4.24698 -3.71876 0
M  V30 4455 N 430.127 0.543554 -1.4793 0
M  V30 4456 C 431.352 1.32995 -1.59145 0
M  V30 4457 C 431.777 1.86472 -0.246956 0
M  V30 4458 O 431.135 1.63696 0.779324 0
M  V30 4459 C 431.183 2.46623 -2.63077 0
M  V30 4460 O 430.287 3.49261 -2.19295 0
M  V30 4461 H 429.628 0.394472 -0.534124 0
M  V30 4462 H 432.158 0.655489 -1.93816 0
M  V30 4463 H 432.168 2.93001 -2.83926 0
M  V30 4464 H 430.843 2.07059 -3.60693 0
M  V30 4465 H 429.42 3.09094 -2.08603 0
M  V30 4466 N 431.605 1.3629 0.791371 0
M  V30 4467 C 432.83 1.33726 1.58531 0
M  V30 4468 C 433.255 -0.0794933 1.87932 0
M  V30 4469 O 432.613 -1.05087 1.47738 0
M  V30 4470 C 432.661 2.16425 2.88431 0
M  V30 4471 O 431.765 1.5554 3.81944 0
M  V30 4472 H 431.106 0.457793 0.480959 0
M  V30 4473 H 433.636 1.79547 0.981031 0
M  V30 4474 H 433.646 2.28933 3.37718 0
M  V30 4475 H 432.321 3.19415 2.66359 0
M  V30 4476 H 430.898 1.51961 3.40532 0
M  V30 4477 N 433.083 -1.0153 1.20538 0
M  V30 4478 C 434.013 -2.11972 0.979295 0
M  V30 4479 C 434.994 -1.6985 -0.0921787 0
M  V30 4480 O 436.179 -1.94089 0.0655932 0
M  V30 4481 C 433.309 -3.43201 0.531984 0
M  V30 4482 C 432.263 -3.9907 1.54685 0
M  V30 4483 C 431.589 -5.26082 0.956127 0
M  V30 4484 C 432.889 -4.32313 2.93092 0
M  V30 4485 H 434.583 -2.31143 1.90298 0
M  V30 4486 H 432.129 -1.11079 0.916372 0
M  V30 4487 H 434.082 -4.1985 0.361044 0
M  V30 4488 H 432.806 -3.23792 -0.427327 0
M  V30 4489 H 431.465 -3.2453 1.70517 0
M  V30 4490 H 431.113 -5.02999 -0.0111538 0
M  V30 4491 H 430.813 -5.64426 1.63393 0
M  V30 4492 H 432.337 -6.05386 0.796284 0
M  V30 4493 H 433.751 -4.99845 2.80763 0
M  V30 4494 H 432.148 -4.81774 3.57791 0
M  V30 4495 H 433.218 -3.41025 3.44717 0
M  V30 4496 N 434.561 -1.01147 -1.20859 0
M  V30 4497 C 435.791 -0.715872 -1.93801 0
M  V30 4498 C 436.199 0.726592 -1.74692 0
M  V30 4499 O 435.542 1.50397 -1.05482 0
M  V30 4500 C 435.604 -0.965269 -3.46299 0
M  V30 4501 C 435.268 -2.39584 -3.89164 0
M  V30 4502 C 436.265 -3.3764 -3.95342 0
M  V30 4503 C 433.95 -2.73522 -4.21297 0
M  V30 4504 C 435.944 -4.67698 -4.33056 0
M  V30 4505 C 433.631 -4.03794 -4.58687 0
M  V30 4506 C 434.629 -5.00693 -4.64538 0
M  V30 4507 O 434.317 -6.28635 -5.01072 0
M  V30 4508 H 434.049 -0.262524 -0.622942 0
M  V30 4509 H 436.603 -1.35413 -1.54443 0
M  V30 4510 H 434.833 -0.269847 -3.85757 0
M  V30 4511 H 436.522 -0.662051 -4.00464 0
M  V30 4512 H 437.288 -3.12757 -3.70686 0
M  V30 4513 H 433.167 -1.9879 -4.15937 0
M  V30 4514 H 436.711 -5.4333 -4.37537 0
M  V30 4515 H 432.608 -4.28459 -4.82797 0
M  V30 4516 H 433.376 -6.32847 -5.19083 0
M  V30 4517 N 436.039 1.36541 -0.78704 0
M  V30 4518 C 436.987 2.31965 -0.171724 0
M  V30 4519 C 437.981 1.55689 0.667631 0
M  V30 4520 O 439.187 1.70969 0.562981 0
M  V30 4521 H 435.562 0.751101 -0.0367545 0
M  V30 4522 H 437.533 2.81428 -0.992017 0
M  V30 4523 C 436.282 3.40968 0.680904 0
M  V30 4524 H 435.605 3.99775 0.0443961 0
M  V30 4525 H 437.045 4.10063 1.07815 0
M  V30 4526 C 435.504 2.82338 1.83813 0
M  V30 4527 O 436.034 2.74311 2.93456 0
M  V30 4528 N 434.24 2.39661 1.6435 0
M  V30 4529 H 433.787 2.46389 0.751668 0
M  V30 4530 H 433.745 2.00779 2.4194 0
M  V30 4531 N 437.518 0.538854 1.48102 0
M  V30 4532 C 438.765 0.0080018 2.02498 0
M  V30 4533 C 439.093 -1.33437 1.41509 0
M  V30 4534 O 438.348 -1.87709 0.553507 0
M  V30 4535 C 438.647 -0.153808 3.57069 0
M  V30 4536 C 438.313 1.11533 4.36888 0
M  V30 4537 C 436.975 1.46314 4.58417 0
M  V30 4538 C 439.327 1.95718 4.83057 0
M  V30 4539 C 436.655 2.6516 5.23361 0
M  V30 4540 C 439.007 3.13751 5.49312 0
M  V30 4541 C 437.671 3.48866 5.69077 0
M  V30 4542 H 436.941 0.00292807 0.740994 0
M  V30 4543 H 439.588 0.706668 1.77984 0
M  V30 4544 H 437.893 -0.935309 3.80472 0
M  V30 4545 H 439.59 -0.579607 3.96789 0
M  V30 4546 H 436.18 0.834484 4.20398 0
M  V30 4547 H 440.364 1.70158 4.66219 0
M  V30 4548 H 435.62 2.92558 5.36861 0
M  V30 4549 H 439.794 3.79282 5.84053 0
M  V30 4550 H 437.421 4.41054 6.19173 0
M  V30 4551 N 438.996 -1.55193 0.274407 0
M  V30 4552 C 440.224 -2.03987 -0.345943 0
M  V30 4553 C 440.639 -1.15279 -1.4952 0
M  V30 4554 O 439.996 -0.172759 -1.8168 0
M  V30 4555 C 440.047 -3.51898 -0.827631 0
M  V30 4556 O 439.768 -4.37231 0.275855 0
M  V30 4557 C 441.269 -4.16577 -1.51587 0
M  V30 4558 H 438.489 -0.666335 -0.0789892 0
M  V30 4559 H 441.033 -2.00423 0.406294 0
M  V30 4560 H 439.188 -3.55909 -1.52996 0
M  V30 4561 H 439.602 -5.24415 -0.0943638 0
M  V30 4562 H 441.076 -5.21678 -1.80433 0
M  V30 4563 H 441.553 -3.64707 -2.44716 0
M  V30 4564 H 442.159 -4.16568 -0.857409 0
M  V30 4565 N 440.474 -0.00167713 -1.576 0
M  V30 4566 C 441.722 0.681471 -1.90264 0
M  V30 4567 C 442.043 1.7422 -0.875924 0
M  V30 4568 O 441.313 1.95709 0.0864412 0
M  V30 4569 H 439.893 0.254696 -0.702239 0
M  V30 4570 H 442.555 -0.0429996 -1.94853 0
M  V30 4571 H 441.651 1.15166 -2.90075 0
M  V30 4572 N 441.952 1.55251 0.271103 0
M  V30 4573 C 442.862 1.9136 1.35714 0
M  V30 4574 C 443.878 0.811075 1.5394 0
M  V30 4575 O 445.054 1.11031 1.6803 0
M  V30 4576 C 442.119 2.1798 2.69603 0
M  V30 4577 C 441.18 3.4153 2.60107 0
M  V30 4578 C 440.413 3.66871 3.8761 0
M  V30 4579 O 440.636 2.94689 4.8838 0
M  V30 4580 O 439.57 4.60405 3.87699 0
M  V30 4581 H 443.396 2.83815 1.08088 0
M  V30 4582 H 440.981 1.41821 0.469792 0
M  V30 4583 H 442.863 2.36518 3.48765 0
M  V30 4584 H 441.538 1.28708 2.97012 0
M  V30 4585 H 440.445 3.28325 1.79314 0
M  V30 4586 H 441.778 4.31027 2.37647 0
M  V30 4587 N 443.43 -0.535701 1.48216 0
M  V30 4588 C 444.362 -1.65662 1.58394 0
M  V30 4589 C 445.375 -1.5591 0.468607 0
M  V30 4590 O 446.564 -1.62475 0.7392 0
M  V30 4591 C 443.664 -3.04276 1.4923 0
M  V30 4592 C 442.837 -3.39567 2.75705 0
M  V30 4593 C 441.896 -4.57436 2.60075 0
M  V30 4594 O 440.922 -4.60942 3.33948 0
M  V30 4595 N 442.124 -5.55259 1.69315 0
M  V30 4596 H 444.889 -1.5737 2.55058 0
M  V30 4597 H 442.45 -0.722845 1.44867 0
M  V30 4598 H 444.442 -3.80994 1.36477 0
M  V30 4599 H 443.012 -3.06677 0.605632 0
M  V30 4600 H 442.232 -2.52083 3.03064 0
M  V30 4601 H 443.52 -3.59929 3.59623 0
M  V30 4602 H 442.918 -5.552 1.08489 0
M  V30 4603 H 441.475 -6.31218 1.62504 0
M  V30 4604 N 444.908 -1.36708 -0.784132 0
M  V30 4605 C 445.841 -1.25827 -1.90375 0
M  V30 4606 C 446.819 -0.141331 -1.61985 0
M  V30 4607 O 448.003 -0.313389 -1.85877 0
M  V30 4608 C 445.13 -0.942621 -3.25319 0
M  V30 4609 C 444.176 -2.07474 -3.72635 0
M  V30 4610 S 445.009 -3.69317 -3.8777 0
M  V30 4611 C 446.165 -3.39876 -5.25581 0
M  V30 4612 H 446.398 -2.20593 -1.99314 0
M  V30 4613 H 443.931 -1.22186 -0.943926 0
M  V30 4614 H 445.889 -0.767321 -4.03265 0
M  V30 4615 H 444.55 -0.0126566 -3.14097 0
M  V30 4616 H 443.743 -1.80858 -4.70432 0
M  V30 4617 H 443.345 -2.20953 -3.01754 0
M  V30 4618 H 445.637 -2.94097 -6.10339 0
M  V30 4619 H 446.58 -4.36956 -5.57203 0
M  V30 4620 H 446.988 -2.75098 -4.92931 0
M  V30 4621 N 446.386 1.0089 -1.21074 0
M  V30 4622 C 447.349 2.0775 -0.968129 0
M  V30 4623 C 448.349 1.6069 0.0593445 0
M  V30 4624 O 449.539 1.73293 -0.177525 0
M  V30 4625 C 446.671 3.37794 -0.459108 0
M  V30 4626 H 447.864 2.30707 -1.9161 0
M  V30 4627 H 445.417 1.17807 -1.02719 0
M  V30 4628 H 446.152 3.20516 0.49397 0
M  V30 4629 H 445.937 3.7328 -1.20019 0
M  V30 4630 H 447.427 4.16454 -0.309099 0
M  V30 4631 N 447.864 1.01787 1.20321 0
M  V30 4632 C 448.827 0.593972 2.2137 0
M  V30 4633 C 449.827 -0.336553 1.57239 0
M  V30 4634 O 451.017 -0.125069 1.7375 0
M  V30 4635 C 448.149 -0.132433 3.40643 0
M  V30 4636 H 449.342 1.48791 2.60387 0
M  V30 4637 H 446.895 0.807803 1.33807 0
M  V30 4638 H 447.63 -1.04123 3.0713 0
M  V30 4639 H 447.415 0.53605 3.88418 0
M  V30 4640 H 448.905 -0.416314 4.1552 0
M  V30 4641 N 449.342 -1.36122 0.79427 0
M  V30 4642 C 450.572 -2.03067 0.380437 0
M  V30 4643 C 450.98 -1.60018 -1.00949 0
M  V30 4644 O 450.323 -0.787425 -1.65968 0
M  V30 4645 C 450.385 -3.57587 0.37034 0
M  V30 4646 C 450.049 -4.23855 1.70867 0
M  V30 4647 C 451.046 -4.46404 2.66496 0
M  V30 4648 C 448.731 -4.61229 1.9893 0
M  V30 4649 C 450.725 -5.05412 3.88378 0
M  V30 4650 C 448.412 -5.19953 3.21079 0
M  V30 4651 C 449.41 -5.41985 4.15621 0
M  V30 4652 O 449.098 -5.99475 5.35616 0
M  V30 4653 H 448.83 -0.658168 0.154243 0
M  V30 4654 H 451.384 -1.7498 1.0757 0
M  V30 4655 H 449.614 -3.84814 -0.381444 0
M  V30 4656 H 451.303 -4.05895 -0.0194894 0
M  V30 4657 H 452.069 -4.17921 2.46103 0
M  V30 4658 H 447.948 -4.43402 1.26158 0
M  V30 4659 H 451.492 -5.22524 4.62185 0
M  V30 4660 H 447.389 -5.47862 3.41347 0
M  V30 4661 H 448.157 -6.17937 5.36745 0
M  V30 4662 N 450.82 -0.546701 -1.47814 0
M  V30 4663 C 452.067 -0.0187407 -2.02491 0
M  V30 4664 C 452.395 1.32685 -1.42215 0
M  V30 4665 O 451.65 1.87413 -0.563454 0
M  V30 4666 C 451.949 0.134869 -3.57145 0
M  V30 4667 C 451.615 -1.13849 -4.3629 0
M  V30 4668 C 450.277 -1.48743 -4.57634 0
M  V30 4669 C 452.629 -1.98277 -4.82012 0
M  V30 4670 C 449.957 -2.67932 -5.21948 0
M  V30 4671 C 452.309 -3.16659 -5.4764 0
M  V30 4672 C 450.973 -3.51879 -5.67219 0
M  V30 4673 H 450.243 -0.0068577 -0.740968 0
M  V30 4674 H 452.89 -0.716097 -1.77607 0
M  V30 4675 H 451.195 0.915118 -3.80963 0
M  V30 4676 H 452.892 0.558556 -3.97091 0
M  V30 4677 H 449.482 -0.856767 -4.19949 0
M  V30 4678 H 453.666 -1.72628 -4.6531 0
M  V30 4679 H 448.922 -2.95401 -5.35302 0
M  V30 4680 H 453.096 -3.82374 -5.82033 0
M  V30 4681 H 450.723 -4.44331 -6.16825 0
M  V30 4682 N 452.299 1.55045 -0.282633 0
M  V30 4683 C 453.547 1.99365 0.331334 0
M  V30 4684 C 453.868 1.1725 1.55812 0
M  V30 4685 O 453.138 0.263871 1.94115 0
M  V30 4686 H 451.718 0.736397 0.125414 0
M  V30 4687 H 454.38 1.90964 -0.389711 0
M  V30 4688 H 453.476 3.0596 0.616036 0
M  V30 4689 N 453.777 0.010035 1.57597 0
M  V30 4690 C 455.024 -0.6727 1.91 0
M  V30 4691 C 455.352 -1.73219 0.884614 0
M  V30 4692 O 454.607 -1.95395 -0.109215 0
M  V30 4693 C 454.906 -1.34434 3.31153 0
M  V30 4694 C 454.572 -0.417083 4.48967 0
M  V30 4695 C 453.234 -0.161809 4.80928 0
M  V30 4696 C 455.586 0.220753 5.20732 0
M  V30 4697 C 452.914 0.739426 5.82022 0
M  V30 4698 C 455.266 1.10993 6.22787 0
M  V30 4699 C 453.93 1.37428 6.532 0
M  V30 4700 H 453.2 -0.246158 0.698918 0
M  V30 4701 H 455.847 0.0677145 1.9138 0
M  V30 4702 H 454.152 -2.15905 3.26944 0
M  V30 4703 H 455.849 -1.87883 3.54261 0
M  V30 4704 H 452.439 -0.626217 4.24001 0
M  V30 4705 H 456.623 0.0365643 4.96287 0
M  V30 4706 H 451.879 0.952139 6.03941 0
M  V30 4707 H 456.053 1.61046 6.77523 0
M  V30 4708 H 453.68 2.0743 7.31353 0
M  V30 4709 N 455.255 -1.55392 -0.262866 0
M  V30 4710 C 456.48 -1.80847 -1.01533 0
M  V30 4711 C 456.905 -0.584946 -1.78774 0
M  V30 4712 O 456.263 0.465701 -1.75217 0
M  V30 4713 C 456.311 -3.03866 -1.94159 0
M  V30 4714 O 455.415 -2.79662 -3.03089 0
M  V30 4715 H 454.756 -0.597441 -0.289759 0
M  V30 4716 H 457.286 -2.02553 -0.288698 0
M  V30 4717 H 457.296 -3.32872 -2.35924 0
M  V30 4718 H 455.971 -3.92564 -1.37354 0
M  V30 4719 H 454.548 -2.61781 -2.65566 0
M  V30 4720 N 456.733 0.527833 -1.48498 0
M  V30 4721 C 457.979 1.28545 -1.56857 0
M  V30 4722 C 458.312 1.92678 -0.242651 0
M  V30 4723 O 457.587 1.79394 0.751545 0
M  V30 4724 C 457.87 2.37314 -2.70839 0
M  V30 4725 C 457.723 1.77858 -4.13142 0
M  V30 4726 C 459.042 3.39068 -2.80573 0
M  V30 4727 H 456.161 0.466006 -0.570971 0
M  V30 4728 H 458.803 0.587784 -1.8068 0
M  V30 4729 H 456.953 2.96821 -2.50658 0
M  V30 4730 H 458.625 1.22385 -4.44769 0
M  V30 4731 H 456.868 1.08383 -4.20042 0
M  V30 4732 H 457.539 2.56624 -4.88721 0
M  V30 4733 H 460.015 2.89518 -2.98862 0
M  V30 4734 H 458.891 4.12566 -3.6205 0
M  V30 4735 H 459.152 3.9975 -1.88818 0
M  V30 4736 N 458.211 1.37122 0.776871 0
M  V30 4737 C 459.174 1.32301 1.8716 0
M  V30 4738 C 460.174 0.228099 1.59174 0
M  V30 4739 O 461.364 0.483642 1.67352 0
M  V30 4740 C 458.496 1.054 3.24197 0
M  V30 4741 H 459.689 2.29673 1.92848 0
M  V30 4742 H 457.242 1.22077 0.97606 0
M  V30 4743 H 457.977 0.0853872 3.24188 0
M  V30 4744 H 457.762 1.84648 3.45901 0
M  V30 4745 H 459.252 1.04664 4.04271 0
M  V30 4746 N 459.689 -1.00246 1.21608 0
M  V30 4747 C 460.652 -2.07233 0.979133 0
M  V30 4748 C 461.652 -1.6072 -0.0508219 0
M  V30 4749 O 462.842 -1.73196 0.186712 0
M  V30 4750 C 459.974 -3.37546 0.477016 0
M  V30 4751 H 461.167 -2.29687 1.92831 0
M  V30 4752 H 458.72 -1.17261 1.03342 0
M  V30 4753 H 459.455 -3.20773 -0.476966 0
M  V30 4754 H 459.24 -3.72638 1.21997 0
M  V30 4755 H 460.73 -4.16285 0.331181 0
M  V30 4756 N 461.167 -1.02423 -1.1978 0
M  V30 4757 C 462.395 -0.737456 -1.93311 0
M  V30 4758 C 462.81 0.703023 -1.75223 0
M  V30 4759 O 462.167 1.47761 -1.07112 0
M  V30 4760 C 462.218 -1.0733 -3.45199 0
M  V30 4761 O 461.939 -2.4572 -3.62702 0
M  V30 4762 C 463.44 -0.80866 -4.35862 0
M  V30 4763 H 460.66 -0.2702 -0.614193 0
M  V30 4764 H 463.204 -1.36747 -1.52054 0
M  V30 4765 H 461.359 -0.488545 -3.84307 0
M  V30 4766 H 461.773 -2.58081 -4.56612 0
M  V30 4767 H 463.247 -1.09365 -5.41057 0
M  V30 4768 H 463.724 0.257025 -4.38447 0
M  V30 4769 H 464.33 -1.37592 -4.02428 0
M  V30 4770 N 462.645 1.35699 -0.801477 0
M  V30 4771 C 463.922 1.9324 -0.302937 0
M  V30 4772 C 464.302 1.73209 1.20672 0
M  V30 4773 O 463.65 1.09809 2.00385 0
M  V30 4774 C 463.86 3.41728 -0.708747 0
M  V30 4775 C 465.208 4.18868 -0.695328 0
M  V30 4776 O 466.232 3.5022 -0.649971 0
M  V30 4777 O 465.091 5.41342 -0.749081 0
M  V30 4778 H 462.185 0.82331 -0.0780367 0
M  V30 4779 H 464.731 1.44806 -0.884832 0
M  V30 4780 H 463.503 3.50015 -1.74944 0
M  V30 4781 H 463.126 3.97471 -0.101384 0
M  V30 4782 N 464.123 0.554532 1.47522 0
M  V30 4783 C 465.372 0.0273458 2.01681 0
M  V30 4784 C 465.685 -1.32962 1.43459 0
M  V30 4785 O 466.891 -1.94657 1.89265 0
M  V30 4786 C 465.347 -0.00159057 3.599 0
M  V30 4787 C 464.955 1.35197 4.27113 0
M  V30 4788 C 466.699 -0.476311 4.21819 0
M  V30 4789 C 464.606 1.28229 5.77331 0
M  V30 4790 H 463.536 0.00645269 0.753972 0
M  V30 4791 H 466.187 0.701985 1.69542 0
M  V30 4792 H 464.569 -0.741821 3.8899 0
M  V30 4793 H 465.743 2.1097 4.09668 0
M  V30 4794 H 464.058 1.76441 3.77171 0
M  V30 4795 H 466.655 -0.5468 5.31897 0
M  V30 4796 H 466.998 -1.4877 3.8881 0
M  V30 4797 H 467.531 0.20898 3.97251 0
M  V30 4798 H 464.27 2.26959 6.14955 0
M  V30 4799 H 463.79 0.566314 5.97121 0
M  V30 4800 H 465.469 0.983226 6.39485 0
M  V30 4801 N 465.601 -1.54893 0.290851 0
M  V30 4802 C 466.549 -2.24579 -0.605576 0
M  V30 4803 C 467.543 -1.24824 -1.14522 0
M  V30 4804 O 468.749 -1.42706 -1.09704 0
M  V30 4805 H 465.124 -0.720946 -0.213872 0
M  V30 4806 H 467.095 -2.984 0.0048173 0
M  V30 4807 C 465.844 -2.99224 -1.77088 0
M  V30 4808 H 465.167 -3.75782 -1.36484 0
M  V30 4809 H 466.607 -3.51281 -2.3744 0
M  V30 4810 C 465.066 -2.05602 -2.66888 0
M  V30 4811 O 465.596 -1.61745 -3.67698 0
M  V30 4812 N 463.802 -1.71771 -2.34399 0
M  V30 4813 H 463.349 -2.07633 -1.52468 0
M  V30 4814 H 463.307 -1.09403 -2.94751 0
M  V30 4815 N 467.08 -0.0183926 -1.57589 0
M  V30 4816 C 468.328 0.661253 -1.90976 0
M  V30 4817 C 468.649 1.73281 -0.894353 0
M  V30 4818 O 467.919 1.9579 0.0656788 0
M  V30 4819 H 466.499 0.247233 -0.704901 0
M  V30 4820 H 469.161 -0.0636639 -1.94796 0
M  V30 4821 H 468.257 1.12083 -2.9128 0
M  V30 4822 N 468.558 1.5553 0.254621 0
M  V30 4823 C 469.835 1.6774 1.00611 0
M  V30 4824 C 470.215 0.555993 2.03647 0
M  V30 4825 O 469.563 -0.441583 2.24193 0
M  V30 4826 C 469.773 3.07725 1.6464 0
M  V30 4827 C 471.121 3.66074 2.15116 0
M  V30 4828 O 472.145 3.10476 1.74595 0
M  V30 4829 O 471.004 4.63526 2.89493 0
M  V30 4830 H 468.098 0.681958 0.467828 0
M  V30 4831 H 470.644 1.67863 0.24902 0
M  V30 4832 H 469.416 3.80792 0.900734 0
M  V30 4833 H 469.039 3.1158 2.46989 0
M  V30 4834 N 470.036 -0.519951 1.48776 0
M  V30 4835 C 471.313 -1.28123 1.47797 0
M  V30 4836 C 471.693 -2.10196 0.195157 0
M  V30 4837 O 471.041 -2.13167 -0.822925 0
M  V30 4838 C 471.251 -2.15413 2.74587 0
M  V30 4839 C 472.599 -2.75225 3.23321 0
M  V30 4840 O 473.623 -2.25694 2.75574 0
M  V30 4841 O 472.482 -3.65346 4.06429 0
M  V30 4842 H 469.576 -0.578793 0.590701 0
M  V30 4843 H 472.122 -0.535779 1.6102 0
M  V30 4844 H 470.894 -1.54617 3.59457 0
M  V30 4845 H 470.517 -2.97186 2.64132 0
M  V30 4846 N 471.514 -1.37532 -0.769588 0
M  V30 4847 C 472.744 -1.35861 -1.55645 0
M  V30 4848 C 473.152 0.0574398 -1.89113 0
M  V30 4849 O 472.495 1.03021 -1.52093 0
M  V30 4850 C 472.557 -2.13431 -2.89288 0
M  V30 4851 C 472.221 -3.62378 -2.78444 0
M  V30 4852 C 473.218 -4.56215 -2.49326 0
M  V30 4853 C 470.903 -4.05529 -2.96398 0
M  V30 4854 C 472.897 -5.91181 -2.38294 0
M  V30 4855 C 470.584 -5.40579 -2.84987 0
M  V30 4856 C 471.582 -6.33218 -2.55975 0
M  V30 4857 O 471.27 -7.65787 -2.44594 0
M  V30 4858 H 471.002 -0.467001 -0.48876 0
M  V30 4859 H 473.556 -1.81505 -0.961515 0
M  V30 4860 H 471.786 -1.62481 -3.50909 0
M  V30 4861 H 473.475 -2.04368 -3.50697 0
M  V30 4862 H 474.241 -4.24187 -2.35139 0
M  V30 4863 H 470.12 -3.33781 -3.1798 0
M  V30 4864 H 473.664 -6.63457 -2.15571 0
M  V30 4865 H 469.561 -5.72209 -2.98743 0
M  V30 4866 H 470.329 -7.76132 -2.59927 0
M  V30 4867 N 472.992 0.995999 -1.22138 0
M  V30 4868 C 473.955 2.06711 -0.990109 0
M  V30 4869 C 474.955 1.60744 0.0422978 0
M  V30 4870 O 476.145 1.73095 -0.195895 0
M  V30 4871 C 473.277 3.37288 -0.49491 0
M  V30 4872 H 474.47 2.28661 -1.94047 0
M  V30 4873 H 472.023 1.16711 -1.03963 0
M  V30 4874 H 472.758 3.21022 0.459948 0
M  V30 4875 H 472.543 3.71986 -1.23971 0
M  V30 4876 H 474.033 4.16103 -0.353253 0
M  V30 4877 N 474.47 1.03057 1.19235 0
M  V30 4878 C 475.747 0.642608 1.84743 0
M  V30 4879 C 476.127 -0.878577 1.91948 0
M  V30 4880 O 475.475 -1.77597 1.43776 0
M  V30 4881 C 475.685 1.30665 3.23616 0
M  V30 4882 C 477.033 1.43098 3.9976 0
M  V30 4883 O 478.057 1.26396 3.3302 0
M  V30 4884 O 476.916 1.70223 5.19313 0
M  V30 4885 H 474.01 0.223573 0.796206 0
M  V30 4886 H 476.556 1.12883 1.26711 0
M  V30 4887 H 475.328 2.34544 3.13217 0
M  V30 4888 H 474.951 0.808405 3.89295 0
M  V30 4889 N 475.948 -1.35272 0.808662 0
M  V30 4890 C 477.194 -1.99003 0.390581 0
M  V30 4891 C 477.527 -1.63999 -1.0401 0
M  V30 4892 O 476.802 -0.904368 -1.72196 0
M  V30 4893 C 477.085 -3.55454 0.576566 0
M  V30 4894 C 476.938 -4.00249 2.05233 0
M  V30 4895 C 478.257 -4.401 0.00354277 0
M  V30 4896 H 475.376 -0.722917 0.143388 0
M  V30 4897 H 478.018 -1.6039 1.01858 0
M  V30 4898 H 476.168 -3.88477 0.0419766 0
M  V30 4899 H 477.84 -3.77626 2.64946 0
M  V30 4900 H 476.083 -3.51082 2.54801 0
M  V30 4901 H 476.754 -5.0911 2.13333 0
M  V30 4902 H 479.23 -4.13548 0.460117 0
M  V30 4903 H 478.106 -5.48656 0.163575 0
M  V30 4904 H 478.367 -4.28444 -1.09032 0
M  V30 4905 N 477.426 -0.562348 -1.47226 0
M  V30 4906 C 478.673 -0.0402165 -2.0246 0
M  V30 4907 C 479.001 1.31169 -1.43614 0
M  V30 4908 O 478.256 1.86805 -0.5833 0
M  V30 4909 C 478.555 0.0969817 -3.57268 0
M  V30 4910 C 478.221 -1.1847 -4.35058 0
M  V30 4911 C 476.883 -1.53588 -4.56031 0
M  V30 4912 C 479.235 -2.03378 -4.79882 0
M  V30 4913 C 476.563 -2.73452 -5.19077 0
M  V30 4914 C 478.915 -3.2245 -5.44251 0
M  V30 4915 C 477.579 -3.57876 -5.63455 0
M  V30 4916 H 476.849 -0.0147163 -0.740854 0
M  V30 4917 H 479.496 -0.734895 -1.76838 0
M  V30 4918 H 477.801 0.87466 -3.81912 0
M  V30 4919 H 479.498 0.516408 -3.97661 0
M  V30 4920 H 476.088 -0.90126 -4.19017 0
M  V30 4921 H 480.272 -1.77553 -4.63453 0
M  V30 4922 H 475.528 -3.01062 -5.32139 0
M  V30 4923 H 479.702 -3.88526 -5.77945 0
M  V30 4924 H 477.329 -4.50849 -6.12078 0
M  V30 4925 N 478.904 1.54736 -0.299062 0
M  V30 4926 C 480.153 1.99279 0.311549 0
M  V30 4927 C 480.466 1.19107 1.55154 0
M  V30 4928 O 481.672 1.53908 2.23662 0
M  V30 4929 C 480.128 3.54768 0.605632 0
M  V30 4930 C 479.736 4.43746 -0.615914 0
M  V30 4931 C 481.48 4.07841 1.17754 0
M  V30 4932 C 479.387 5.90663 -0.29509 0
M  V30 4933 H 478.317 0.744359 0.120187 0
M  V30 4934 H 480.968 1.78919 -0.407464 0
M  V30 4935 H 479.35 3.71021 1.38419 0
M  V30 4936 H 480.524 4.39267 -1.39218 0
M  V30 4937 H 478.839 4.01434 -1.10633 0
M  V30 4938 H 481.436 5.15174 1.43179 0
M  V30 4939 H 481.779 3.58324 2.11918 0
M  V30 4940 H 482.312 3.95123 0.460739 0
M  V30 4941 H 479.051 6.44325 -1.20524 0
M  V30 4942 H 478.571 5.98155 0.44394 0
M  V30 4943 H 480.25 6.46916 0.104048 0
M  V30 4944 N 480.382 0.0267497 1.57577 0
M  V30 4945 C 481.63 -0.651116 1.91324 0
M  V30 4946 C 481.951 -1.72804 0.90353 0
M  V30 4947 O 481.221 -1.95822 -0.0552946 0
M  V30 4948 H 479.801 -0.243491 0.706202 0
M  V30 4949 H 482.463 0.0739935 1.94759 0
M  V30 4950 H 481.559 -1.10536 2.9187 0
M  V30 4951 N 481.861 -1.55662 -0.24637 0
M  V30 4952 C 482.824 -1.89558 -1.28842 0
M  V30 4953 C 483.824 -0.772082 -1.41052 0
M  V30 4954 O 485.014 -1.04007 -1.39743 0
M  V30 4955 C 482.146 -2.12449 -2.66605 0
M  V30 4956 H 483.339 -2.82735 -1.00004 0
M  V30 4957 H 480.892 -1.48562 -0.485684 0
M  V30 4958 H 481.627 -1.21742 -3.00582 0
M  V30 4959 H 481.412 -2.94273 -2.59125 0
M  V30 4960 H 482.902 -2.39854 -3.41847 0
M  V30 4961 N 483.339 0.512053 -1.4905 0
M  V30 4962 C 484.75 1.09376 -1.51307 0
M  V30 4963 C 485.101 1.94 -0.292971 0
M  V30 4964 O 484.226 2.07965 0.598277 0
M  V30 4965 C 484.821 1.99031 -2.74176 0
M  V30 4966 C 483.38 2.52385 -2.79247 0
M  V30 4967 C 482.527 1.29749 -2.45073 0
M  V30 4968 H 485.478 0.296467 -1.55906 0
M  V30 4969 H 485.499 2.83569 -2.53711 0
M  V30 4970 H 485.011 1.37412 -3.62959 0
M  V30 4971 H 483.112 3.17673 -1.94716 0
M  V30 4972 H 483.225 2.90293 -3.81139 0
M  V30 4973 H 481.589 1.61912 -1.96612 0
M  V30 4974 H 482.372 0.698555 -3.36118 0
M  V30 4975 N 484.817 1.37938 0.762283 0
M  V30 4976 C 485.747 1.37176 1.88958 0
M  V30 4977 C 486.728 0.238945 1.68413 0
M  V30 4978 O 487.913 0.440726 1.89133 0
M  V30 4979 C 485.043 1.18742 3.2637 0
M  V30 4980 C 483.997 2.29136 3.61498 0
M  V30 4981 C 483.323 1.95816 4.97554 0
M  V30 4982 C 484.623 3.71363 3.6727 0
M  V30 4983 H 486.317 2.31509 1.89853 0
M  V30 4984 H 483.863 1.11438 0.912005 0
M  V30 4985 H 485.816 1.16837 4.04879 0
M  V30 4986 H 484.54 0.208683 3.25933 0
M  V30 4987 H 483.199 2.30213 2.85303 0
M  V30 4988 H 482.847 0.964475 4.93667 0
M  V30 4989 H 482.547 2.69745 5.22026 0
M  V30 4990 H 484.071 1.95513 5.78452 0
M  V30 4991 H 485.485 3.72364 4.35911 0
M  V30 4992 H 483.882 4.44425 4.03245 0
M  V30 4993 H 484.952 4.04305 2.67704 0
M  V30 4994 N 486.295 -0.989507 1.22664 0
M  V30 4995 C 487.542 -1.72953 1.05325 0
M  V30 4996 C 487.87 -1.90104 -0.411168 0
M  V30 4997 O 487.125 -1.44386 -1.32103 0
M  V30 4998 C 487.424 -3.13649 1.71345 0
M  V30 4999 C 487.09 -3.16403 3.21248 0
M  V30 5000 C 485.752 -3.16862 3.62149 0
M  V30 5001 C 488.104 -3.12428 4.17179 0
M  V30 5002 C 485.432 -3.11051 4.97458 0
M  V30 5003 C 487.784 -3.08159 5.52468 0
M  V30 5004 C 486.448 -3.06935 5.92746 0
M  V30 5005 H 485.718 -0.632881 0.385412 0
M  V30 5006 H 488.365 -1.15863 1.52473 0
M  V30 5007 H 486.67 -3.74069 1.16532 0
M  V30 5008 H 488.367 -3.69658 1.55416 0
M  V30 5009 H 484.957 -3.16798 2.88682 0
M  V30 5010 H 489.141 -3.11221 3.86595 0
M  V30 5011 H 484.397 -3.0845 5.27891 0
M  V30 5012 H 488.571 -3.04039 6.26525 0
M  V30 5013 H 486.198 -3.02186 6.97558 0
M  V30 5014 N 487.773 -1.03688 -1.18687 0
M  V30 5015 C 488.706 -0.569112 -2.2099 0
M  V30 5016 C 489.684 0.394315 -1.57746 0
M  V30 5017 O 490.868 0.309519 -1.85941 0
M  V30 5018 C 487.995 0.169104 -3.38278 0
M  V30 5019 C 487.041 -0.746989 -4.19908 0
M  V30 5020 S 487.874 -2.22773 -4.86963 0
M  V30 5021 C 489.03 -1.50025 -6.07654 0
M  V30 5022 H 489.263 -1.43589 -2.60326 0
M  V30 5023 H 486.796 -0.847507 -1.29061 0
M  V30 5024 H 488.754 0.588868 -4.06254 0
M  V30 5025 H 487.415 1.01172 -2.9736 0
M  V30 5026 H 486.608 -0.176626 -5.0369 0
M  V30 5027 H 486.21 -1.10543 -3.5729 0
M  V30 5028 H 488.502 -0.791217 -6.72864 0
M  V30 5029 H 489.445 -2.31498 -6.69189 0
M  V30 5030 H 489.853 -0.994245 -5.55675 0
M  V30 5031 N 489.251 1.34841 -0.815825 0
M  V30 5032 C 490.528 1.92908 -0.323416 0
M  V30 5033 C 490.908 1.74479 1.18828 0
M  V30 5034 O 490.256 1.11928 1.99209 0
M  V30 5035 C 490.466 3.40957 -0.744952 0
M  V30 5036 C 491.814 4.18107 -0.739716 0
M  V30 5037 O 492.838 3.49511 -0.68708 0
M  V30 5038 O 491.697 5.40517 -0.806456 0
M  V30 5039 H 488.791 0.822436 -0.0867646 0
M  V30 5040 H 491.337 1.4386 -0.90014 0
M  V30 5041 H 490.109 3.4814 -1.78646 0
M  V30 5042 H 489.732 3.97341 -0.143535 0
M  V30 5043 N 490.729 0.570148 1.46925 0
M  V30 5044 C 492.145 0.23087 1.57921 0
M  V30 5045 C 492.345 -1.26676 1.56702 0
M  V30 5046 O 491.401 -2.04774 1.47729 0
M  V30 5047 C 492.714 0.868973 2.8787 0
M  V30 5048 C 494.262 0.841397 3.01479 0
M  V30 5049 C 494.737 1.45881 4.34146 0
M  V30 5050 N 496.228 1.42258 4.40814 0
M  V30 5051 C 496.963 1.8698 5.42057 0
M  V30 5052 N 496.459 2.39618 6.50042 0
M  V30 5053 N 498.252 1.77972 5.33181 0
M  V30 5054 H 490.403 1.54301 1.45962 0
M  V30 5055 H 492.666 0.644224 0.69547 0
M  V30 5056 H 492.372 1.922 2.94537 0
M  V30 5057 H 492.246 0.369682 3.75384 0
M  V30 5058 H 494.633 -0.202973 2.94401 0
M  V30 5059 H 494.714 1.37858 2.15474 0
M  V30 5060 H 494.358 2.50231 4.4198 0
M  V30 5061 H 494.288 0.896958 5.18905 0
M  V30 5062 H 496.779 1.03768 3.63374 0
M  V30 5063 H 497.092 2.71633 7.23488 0
M  V30 5064 H 495.437 2.43636 6.50897 0
M  V30 5065 H 498.628 1.36617 4.4772 0
M  V30 5066 H 498.801 2.13143 6.11943 0
M  V30 5067 N 492.207 -1.54576 0.307264 0
M  V30 5068 C 493.455 -1.99867 -0.299574 0
M  V30 5069 C 493.776 -1.19714 -1.53927 0
M  V30 5070 O 493.046 -0.29472 -1.9367 0
M  V30 5071 H 491.626 -0.738299 -0.113683 0
M  V30 5072 H 494.288 -1.9032 0.420042 0
M  V30 5073 H 493.384 -3.06901 -0.567283 0
M  V30 5074 N 493.685 -0.035106 -1.57561 0
M  V30 5075 C 494.91 0.655802 -1.96759 0
M  V30 5076 C 495.335 1.64523 -0.911809 0
M  V30 5077 O 494.693 1.80857 0.126673 0
M  V30 5078 C 494.741 1.33326 -3.35047 0
M  V30 5079 O 493.845 2.44866 -3.31835 0
M  V30 5080 H 493.186 0.171807 -0.641388 0
M  V30 5081 H 495.716 -0.0987369 -2.04362 0
M  V30 5082 H 495.726 1.68867 -3.71413 0
M  V30 5083 H 494.401 0.608033 -4.11431 0
M  V30 5084 H 492.978 2.11392 -3.07193 0
M  V30 5085 N 495.163 1.55791 0.238111 0
M  V30 5086 C 496.44 1.68798 0.98826 0
M  V30 5087 C 496.82 0.577562 2.03045 0
M  V30 5088 O 496.168 -0.41778 2.24648 0
M  V30 5089 C 496.378 3.09454 1.61367 0
M  V30 5090 C 497.726 3.68335 2.11221 0
M  V30 5091 O 498.75 3.1231 1.71292 0
M  V30 5092 O 497.609 4.6657 2.84561 0
M  V30 5093 H 494.703 0.686881 0.460568 0
M  V30 5094 H 497.249 1.68118 0.231202 0
M  V30 5095 H 496.021 3.81726 0.860295 0
M  V30 5096 H 495.644 3.14182 2.4367 0
M  V30 5097 N 496.642 -0.504142 1.49319 0
M  V30 5098 C 497.89 -1.25598 1.58334 0
M  V30 5099 C 498.211 -1.93114 0.270538 0
M  V30 5100 O 497.481 -1.82585 -0.709891 0
M  V30 5101 H 496.061 -0.466571 0.58337 0
M  V30 5102 H 498.723 -0.584547 1.85928 0
M  V30 5103 H 497.819 -2.02159 2.37778 0
M  V30 5104 N 498.12 -1.38341 -0.754957 0
M  V30 5105 C 499.067 -1.3546 -1.86867 0
M  V30 5106 C 500.037 -0.217369 -1.64672 0
M  V30 5107 O 501.222 -0.409383 -1.86356 0
M  V30 5108 C 498.362 -1.18413 -3.24149 0
M  V30 5109 C 497.475 -2.41511 -3.58185 0
M  V30 5110 C 496.61 -2.17205 -4.84763 0
M  V30 5111 C 495.649 -3.36081 -5.11582 0
M  V30 5112 N 494.786 -3.11219 -6.29354 0
M  V30 5113 H 499.626 -2.30672 -1.88664 0
M  V30 5114 H 497.163 -1.14607 -0.922154 0
M  V30 5115 H 499.121 -1.06545 -4.03366 0
M  V30 5116 H 497.751 -0.268397 -3.21682 0
M  V30 5117 H 496.803 -2.64056 -2.73822 0
M  V30 5118 H 498.115 -3.30115 -3.73932 0
M  V30 5119 H 497.269 -2.02465 -5.7192 0
M  V30 5120 H 496.008 -1.25964 -4.71152 0
M  V30 5121 H 495.013 -3.51341 -4.22894 0
M  V30 5122 H 496.238 -4.28196 -5.27091 0
M  V30 5123 H 494.184 -2.22624 -6.17069 0
M  V30 5124 H 494.101 -3.93373 -6.45596 0
M  V30 5125 H 495.369 -3.00132 -7.19403 0
M  V30 5126 N 499.598 0.982988 -1.23187 0
M  V30 5127 C 500.528 2.09301 -1.03515 0
M  V30 5128 C 501.509 1.70035 0.0471136 0
M  V30 5129 O 502.694 1.93847 -0.117029 0
M  V30 5130 C 499.824 3.4167 -0.622791 0
M  V30 5131 C 498.778 3.94828 -1.65211 0
M  V30 5132 C 498.104 5.23362 -1.09527 0
M  V30 5133 C 499.404 4.2439 -3.04451 0
M  V30 5134 H 501.098 2.26016 -1.96359 0
M  V30 5135 H 498.644 1.08611 -0.945501 0
M  V30 5136 H 500.597 4.18746 -0.472233 0
M  V30 5137 H 499.321 3.24811 0.341329 0
M  V30 5138 H 497.98 3.19895 -1.79061 0
M  V30 5139 H 497.628 5.02852 -0.122211 0
M  V30 5140 H 497.328 5.59895 -1.783 0
M  V30 5141 H 498.852 6.03062 -0.956511 0
M  V30 5142 H 500.266 4.92225 -2.93917 0
M  V30 5143 H 498.663 4.72118 -3.70438 0
M  V30 5144 H 499.733 3.31765 -3.53638 0
M  V30 5145 N 501.076 1.04316 1.18135 0
M  V30 5146 C 502.008 0.594444 2.21357 0
M  V30 5147 C 503.021 -0.337215 1.59269 0
M  V30 5148 O 504.21 -0.131337 1.78016 0
M  V30 5149 C 501.31 -0.151251 3.38562 0
M  V30 5150 C 500.483 0.788907 4.30227 0
M  V30 5151 C 499.542 0.0860572 5.2613 0
M  V30 5152 O 498.568 0.717302 5.64662 0
M  V30 5153 N 499.77 -1.17969 5.68387 0
M  V30 5154 H 502.535 1.48227 2.60478 0
M  V30 5155 H 500.096 0.92396 1.32946 0
M  V30 5156 H 502.088 -0.631352 3.99745 0
M  V30 5157 H 500.658 -0.940639 2.98112 0
M  V30 5158 H 499.878 1.44882 3.6661 0
M  V30 5159 H 501.166 1.42738 4.88368 0
M  V30 5160 H 500.564 -1.71302 5.3914 0
M  V30 5161 H 499.121 -1.60402 6.31755 0
M  V30 5162 N 502.554 -1.34406 0.822964 0
M  V30 5163 C 503.464 -2.33298 0.246838 0
M  V30 5164 C 504.48 -1.62625 -0.618797 0
M  V30 5165 O 505.656 -1.94391 -0.526685 0
M  V30 5166 C 502.721 -3.41785 -0.581731 0
M  V30 5167 C 501.782 -4.28206 0.306309 0
M  V30 5168 C 501.015 -5.31512 -0.48281 0
M  V30 5169 O 501.238 -5.43973 -1.71607 0
M  V30 5170 O 500.172 -6.01749 0.134884 0
M  V30 5171 H 503.998 -2.84401 1.06534 0
M  V30 5172 H 501.583 -1.37466 0.585108 0
M  V30 5173 H 503.465 -4.08028 -1.05313 0
M  V30 5174 H 502.14 -2.92925 -1.37756 0
M  V30 5175 H 501.047 -3.64885 0.825199 0
M  V30 5176 H 502.38 -4.80507 1.06649 0
M  V30 5177 N 504.032 -0.577932 -1.46621 0
M  V30 5178 C 505.278 -0.0617793 -2.02706 0
M  V30 5179 C 505.611 1.29294 -1.44903 0
M  V30 5180 O 504.886 1.8461 -0.61232 0
M  V30 5181 C 505.169 0.00911824 -3.60099 0
M  V30 5182 C 505.022 -1.37416 -4.28295 0
M  V30 5183 C 506.341 0.712159 -4.343 0
M  V30 5184 H 503.46 -0.0239246 -0.736612 0
M  V30 5185 H 506.102 -0.744211 -1.74818 0
M  V30 5186 H 504.252 0.590292 -3.83989 0
M  V30 5187 H 505.924 -2.00013 -4.15683 0
M  V30 5188 H 504.167 -1.94319 -3.87843 0
M  V30 5189 H 504.838 -1.27707 -5.37024 0
M  V30 5190 H 507.314 0.218486 -4.15526 0
M  V30 5191 H 506.19 0.730782 -5.44014 0
M  V30 5192 H 506.451 1.77251 -4.05012 0
M  V30 5193 N 505.51 1.54411 -0.315457 0
M  V30 5194 C 506.758 2.00023 0.288971 0
M  V30 5195 C 507.079 1.20529 1.5329 0
M  V30 5196 O 506.349 0.304986 1.93511 0
M  V30 5197 H 504.929 0.738891 0.109766 0
M  V30 5198 H 507.591 1.90094 -0.430129 0
M  V30 5199 H 506.687 3.07198 0.550999 0
M  V30 5200 N 506.988 0.0434614 1.5754 0
M  V30 5201 C 507.92 -0.962586 2.08007 0
M  V30 5202 C 508.933 -1.27972 1.00634 0
M  V30 5203 O 510.122 -1.24186 1.28219 0
M  V30 5204 C 507.222 -2.28621 2.50171 0
M  V30 5205 C 506.395 -2.15214 3.80791 0
M  V30 5206 C 505.454 -3.30633 4.09351 0
M  V30 5207 O 504.48 -3.0688 4.79388 0
M  V30 5208 N 505.682 -4.54873 3.60654 0
M  V30 5209 H 508.447 -0.531891 2.94942 0
M  V30 5210 H 506.008 -0.142965 1.61268 0
M  V30 5211 H 508 -3.04689 2.66359 0
M  V30 5212 H 506.57 -2.63283 1.68525 0
M  V30 5213 H 505.79 -1.23785 3.74261 0
M  V30 5214 H 507.078 -2.03475 4.66343 0
M  V30 5215 H 506.476 -4.77063 3.04019 0
M  V30 5216 H 505.033 -5.2806 3.82094 0
M  V30 5217 N 508.466 -1.55915 -0.229846 0
M  V30 5218 C 509.712 -1.78807 -0.956868 0
M  V30 5219 C 510.045 -0.611687 -1.84315 0
M  V30 5220 O 509.32 0.389398 -1.90562 0
M  V30 5221 C 509.603 -3.11718 -1.80288 0
M  V30 5222 C 509.456 -4.3979 -0.943649 0
M  V30 5223 C 510.775 -3.40999 -2.78222 0
M  V30 5224 H 507.894 -0.6505 -0.346437 0
M  V30 5225 H 510.536 -1.88648 -0.226252 0
M  V30 5226 H 508.686 -3.03459 -2.42579 0
M  V30 5227 H 510.358 -4.60059 -0.338121 0
M  V30 5228 H 508.601 -4.33086 -0.248705 0
M  V30 5229 H 509.272 -5.29208 -1.5698 0
M  V30 5230 H 511.748 -3.49332 -2.26067 0
M  V30 5231 H 510.624 -4.35183 -3.34526 0
M  V30 5232 H 510.885 -2.62754 -3.55546 0
M  V30 5233 N 509.944 0.496216 -1.49584 0
M  V30 5234 C 511.169 1.27865 -1.63295 0
M  V30 5235 C 511.594 1.85592 -0.306156 0
M  V30 5236 O 510.952 1.66092 0.726851 0
M  V30 5237 C 511 2.38128 -2.7079 0
M  V30 5238 O 510.104 3.42108 -2.30296 0
M  V30 5239 H 509.445 0.377279 -0.546403 0
M  V30 5240 H 511.975 0.593497 -1.95803 0
M  V30 5241 H 511.985 2.8382 -2.93104 0
M  V30 5242 H 510.66 1.95479 -3.67098 0
M  V30 5243 H 509.237 3.02301 -2.18331 0
M  V30 5244 N 511.423 1.38739 0.74761 0
M  V30 5245 C 512.669 1.35475 1.50912 0
M  V30 5246 C 513.002 -0.0533093 1.94127 0
M  V30 5247 O 512.277 -1.01572 1.65871 0
M  V30 5248 C 512.56 2.31582 2.75757 0
M  V30 5249 C 512.413 3.81274 2.38642 0
M  V30 5250 C 513.732 2.25722 3.77806 0
M  V30 5251 H 510.851 0.493427 0.547447 0
M  V30 5252 H 513.493 1.69634 0.855823 0
M  V30 5253 H 511.643 2.02582 3.31501 0
M  V30 5254 H 513.315 4.20972 1.88626 0
M  V30 5255 H 511.558 3.98664 1.71025 0
M  V30 5256 H 512.229 4.4399 3.27989 0
M  V30 5257 H 514.705 2.51336 3.31616 0
M  V30 5258 H 513.581 2.95069 4.62845 0
M  V30 5259 H 513.842 1.25803 4.23823 0
M  V30 5260 N 512.901 -0.976442 1.23707 0
M  V30 5261 C 514.126 -1.75875 1.09922 0
M  V30 5262 C 514.551 -1.84911 -0.34489 0
M  V30 5263 O 513.909 -1.31363 -1.24954 0
M  V30 5264 C 513.957 -3.16179 1.73388 0
M  V30 5265 O 513.061 -4.00124 0.99871 0
M  V30 5266 H 512.402 -0.540954 0.385052 0
M  V30 5267 H 514.932 -1.22546 1.6384 0
M  V30 5268 H 514.942 -3.66741 1.78788 0
M  V30 5269 H 513.617 -3.08917 2.78466 0
M  V30 5270 H 512.194 -3.58624 1.02193 0
M  V30 5271 N 514.379 -1.04941 -1.1758 0
M  V30 5272 C 515.309 -0.669172 -2.23706 0
M  V30 5273 C 516.29 0.331835 -1.66832 0
M  V30 5274 O 517.475 0.209988 -1.93061 0
M  V30 5275 C 514.605 -0.0404889 -3.47276 0
M  V30 5276 C 513.559 -0.965983 -4.16957 0
M  V30 5277 C 512.885 -0.201312 -5.34321 0
M  V30 5278 C 514.185 -2.28902 -4.69469 0
M  V30 5279 H 515.879 -1.55639 -2.55767 0
M  V30 5280 H 513.425 -0.749793 -1.22939 0
M  V30 5281 H 515.378 0.237298 -4.20731 0
M  V30 5282 H 514.102 0.881658 -3.14475 0
M  V30 5283 H 512.761 -1.22829 -3.45411 0
M  V30 5284 H 512.409 0.723519 -4.97769 0
M  V30 5285 H 512.109 -0.817968 -5.81879 0
M  V30 5286 H 513.633 0.0692499 -6.10561 0
M  V30 5287 H 515.047 -2.07132 -5.34574 0
M  V30 5288 H 513.444 -2.85942 -5.27596 0
M  V30 5289 H 514.514 -2.92937 -3.86414 0
M  V30 5290 N 515.857 1.33968 -0.830081 0
M  V30 5291 C 516.789 2.28194 -0.21448 0
M  V30 5292 C 517.802 1.5135 0.599752 0
M  V30 5293 O 518.991 1.73286 0.42826 0
M  V30 5294 C 516.091 3.31221 0.717356 0
M  V30 5295 C 515.264 4.37365 -0.055613 0
M  V30 5296 C 514.323 5.2011 0.798231 0
M  V30 5297 O 513.349 5.68691 0.240616 0
M  V30 5298 N 514.551 5.40523 2.11695 0
M  V30 5299 H 517.316 2.81662 -1.02405 0
M  V30 5300 H 514.877 1.46568 -0.687713 0
M  V30 5301 H 516.869 3.83477 1.29334 0
M  V30 5302 H 515.439 2.78095 1.42765 0
M  V30 5303 H 514.659 3.85727 -0.812936 0
M  V30 5304 H 515.947 5.05397 -0.587444 0
M  V30 5305 H 515.345 5.0274 2.59363 0
M  V30 5306 H 513.902 5.95871 2.64162 0
M  V30 5307 N 517.335 0.585699 1.46312 0
M  V30 5308 C 518.751 0.247607 1.57668 0
M  V30 5309 C 518.951 -1.25007 1.58037 0
M  V30 5310 O 518.007 -2.03196 1.49893 0
M  V30 5311 C 519.32 0.899456 2.86933 0
M  V30 5312 C 520.868 0.873326 3.00569 0
M  V30 5313 C 521.343 1.50477 4.32574 0
M  V30 5314 N 522.834 1.46925 4.3928 0
M  V30 5315 C 523.569 1.92719 5.40044 0
M  V30 5316 N 523.065 2.46499 6.47464 0
M  V30 5317 N 524.858 1.83617 5.31264 0
M  V30 5318 H 517.009 1.55841 1.44317 0
M  V30 5319 H 519.272 0.651564 0.688599 0
M  V30 5320 H 518.978 1.95313 2.92482 0
M  V30 5321 H 518.852 0.409476 3.74971 0
M  V30 5322 H 521.239 -0.171736 2.946 0
M  V30 5323 H 521.32 1.40136 2.13999 0
M  V30 5324 H 520.964 2.54905 4.39302 0
M  V30 5325 H 520.894 0.951944 5.17924 0
M  V30 5326 H 523.385 1.07616 3.62253 0
M  V30 5327 H 523.698 2.79291 7.20567 0
M  V30 5328 H 522.043 2.50526 6.48276 0
M  V30 5329 H 525.234 1.41358 4.46246 0
M  V30 5330 H 525.407 2.19622 6.09648 0
M  V30 5331 N 518.813 -1.54241 0.323641 0
M  V30 5332 C 519.776 -2.22997 -0.529602 0
M  V30 5333 C 520.776 -1.22345 -1.04347 0
M  V30 5334 O 521.966 -1.46924 -0.935889 0
M  V30 5335 C 519.098 -2.93409 -1.73562 0
M  V30 5336 H 520.291 -2.99815 0.0714518 0
M  V30 5337 H 517.844 -1.56121 0.0747258 0
M  V30 5338 H 518.579 -2.20729 -2.37591 0
M  V30 5339 H 518.364 -3.67217 -1.37456 0
M  V30 5340 H 519.854 -3.45794 -2.34128 0
M  V30 5341 N 520.291 -0.0518155 -1.57515 0
M  V30 5342 C 521.516 0.634896 -1.97443 0
M  V30 5343 C 521.941 1.63546 -0.929207 0
M  V30 5344 O 521.299 1.80981 0.107484 0
M  V30 5345 C 521.347 1.29765 -3.36442 0
M  V30 5346 O 520.451 2.41333 -3.34413 0
M  V30 5347 H 519.792 0.164994 -0.643174 0
M  V30 5348 H 522.322 -0.120407 -2.04245 0
M  V30 5349 H 522.332 1.64918 -3.73184 0
M  V30 5350 H 521.007 0.564361 -4.12053 0
M  V30 5351 H 519.584 2.08122 -3.09418 0
M  V30 5352 N 521.769 1.56035 0.221574 0
M  V30 5353 C 523.017 1.78693 0.944102 0
M  V30 5354 C 523.338 0.620317 1.8487 0
M  V30 5355 O 522.608 -0.362784 1.92512 0
M  V30 5356 H 521.188 0.659082 0.351597 0
M  V30 5357 H 523.85 1.93497 0.233435 0
M  V30 5358 H 522.946 2.70837 1.55093 0
M  V30 5359 N 523.247 -0.488276 1.49845 0
M  V30 5360 C 524.524 -1.24959 1.50481 0
M  V30 5361 C 524.904 -2.09735 0.239698 0
M  V30 5362 O 524.252 -2.14865 -0.777524 0
M  V30 5363 C 524.462 -2.0954 2.79095 0
M  V30 5364 C 525.81 -2.68305 3.29086 0
M  V30 5365 O 526.834 -2.19797 2.80299 0
M  V30 5366 O 525.693 -3.56643 4.14087 0
M  V30 5367 H 522.787 -0.566133 0.602845 0
M  V30 5368 H 525.333 -0.501504 1.6212 0
M  V30 5369 H 524.105 -1.46958 3.62656 0
M  V30 5370 H 523.728 -2.91517 2.70377 0
M  V30 5371 N 524.725 -1.39134 -0.740242 0
M  V30 5372 C 525.972 -1.36071 -1.49969 0
M  V30 5373 C 526.3 0.0450245 -1.94448 0
M  V30 5374 O 525.555 1.02482 -1.66721 0
M  V30 5375 C 525.854 -2.27457 -2.75678 0
M  V30 5376 C 525.52 -3.75185 -2.50094 0
M  V30 5377 C 524.182 -4.15439 -2.42825 0
M  V30 5378 C 526.534 -4.68643 -2.28086 0
M  V30 5379 C 523.862 -5.4722 -2.11584 0
M  V30 5380 C 526.214 -6.00695 -1.98363 0
M  V30 5381 C 524.878 -6.40018 -1.8956 0
M  V30 5382 H 524.148 -0.497921 -0.548777 0
M  V30 5383 H 526.795 -1.71599 -0.85007 0
M  V30 5384 H 525.1 -1.8503 -3.45356 0
M  V30 5385 H 526.797 -2.22384 -3.33686 0
M  V30 5386 H 523.387 -3.43279 -2.56627 0
M  V30 5387 H 527.571 -4.3838 -2.32672 0
M  V30 5388 H 522.827 -5.76615 -2.03287 0
M  V30 5389 H 527.001 -6.72644 -1.80341 0
M  V30 5390 H 524.628 -7.42051 -1.65117 0
M  V30 5391 N 526.204 0.969867 -1.24223 0
M  V30 5392 C 527.136 2.0669 -0.99055 0
M  V30 5393 C 528.149 1.62753 0.0392222 0
M  V30 5394 O 529.338 1.77403 -0.197561 0
M  V30 5395 C 526.438 3.35589 -0.472594 0
M  V30 5396 C 525.611 4.08444 -1.56499 0
M  V30 5397 C 524.67 5.15616 -1.05007 0
M  V30 5398 O 523.696 5.41911 -1.7413 0
M  V30 5399 N 524.898 5.80383 0.116641 0
M  V30 5400 H 527.663 2.28855 -1.93508 0
M  V30 5401 H 525.224 1.13733 -1.15223 0
M  V30 5402 H 527.216 4.04542 -0.112919 0
M  V30 5403 H 525.786 3.10311 0.377617 0
M  V30 5404 H 525.006 3.33798 -2.09696 0
M  V30 5405 H 526.294 4.53882 -2.29932 0
M  V30 5406 H 525.692 5.6142 0.694589 0
M  V30 5407 H 524.249 6.50462 0.417483 0
M  V30 5408 N 527.682 1.05563 1.17022 0
M  V30 5409 C 528.91 0.78845 1.91288 0
M  V30 5410 C 529.325 -0.656318 1.77025 0
M  V30 5411 O 528.682 -1.44869 1.10992 0
M  V30 5412 C 528.733 1.16444 3.42232 0
M  V30 5413 O 528.454 2.5525 3.5606 0
M  V30 5414 C 529.955 0.923937 4.33565 0
M  V30 5415 H 527.175 0.286389 0.606813 0
M  V30 5416 H 529.719 1.4073 1.48375 0
M  V30 5417 H 527.874 0.590266 3.82877 0
M  V30 5418 H 528.288 2.70097 4.49609 0
M  V30 5419 H 529.762 1.23672 5.37968 0
M  V30 5420 H 530.239 -0.140688 4.38975 0
M  V30 5421 H 530.845 1.48214 3.98639 0
M  V30 5422 N 529.16 -1.33526 0.837174 0
M  V30 5423 C 530.388 -2.02047 0.445494 0
M  V30 5424 C 530.803 -1.62995 -0.952788 0
M  V30 5425 O 530.16 -0.842447 -1.61892 0
M  V30 5426 C 530.211 -3.57221 0.554577 0
M  V30 5427 O 529.932 -3.94863 1.89776 0
M  V30 5428 C 531.433 -4.43012 0.159634 0
M  V30 5429 H 528.653 -0.647221 0.177048 0
M  V30 5430 H 531.197 -1.70492 1.12928 0
M  V30 5431 H 529.352 -3.87315 -0.0812781 0
M  V30 5432 H 529.766 -4.89569 1.88208 0
M  V30 5433 H 531.24 -5.51253 0.28701 0
M  V30 5434 H 531.717 -4.29916 -0.898289 0
M  V30 5435 H 532.323 -4.18274 0.769855 0
M  V30 5436 N 530.638 -0.59345 -1.46 0
M  V30 5437 C 531.585 0.133618 -2.30413 0
M  V30 5438 C 532.555 0.873736 -1.41262 0
M  V30 5439 O 533.74 0.862279 -1.70204 0
M  V30 5440 C 530.88 1.13434 -3.25924 0
M  V30 5441 C 529.993 0.39656 -4.30176 0
M  V30 5442 C 529.128 1.38575 -5.12806 0
M  V30 5443 C 528.167 0.634984 -6.08797 0
M  V30 5444 N 527.304 1.57276 -6.84258 0
M  V30 5445 H 532.144 -0.592252 -2.92055 0
M  V30 5446 H 529.681 -0.303874 -1.43927 0
M  V30 5447 H 531.639 1.72752 -3.79753 0
M  V30 5448 H 530.269 1.82779 -2.66067 0
M  V30 5449 H 529.321 -0.311861 -3.79119 0
M  V30 5450 H 530.633 -0.189869 -4.98438 0
M  V30 5451 H 529.787 2.05141 -5.70966 0
M  V30 5452 H 528.526 2.00611 -4.44529 0
M  V30 5453 H 527.531 -0.0443925 -5.49782 0
M  V30 5454 H 528.756 0.0198678 -6.79097 0
M  V30 5455 H 526.702 2.18103 -6.18682 0
M  V30 5456 H 526.619 1.03941 -7.48821 0
M  V30 5457 H 527.887 2.22844 -7.46968 0
M  V30 5458 N 532.116 1.54067 -0.331816 0
M  V30 5459 C 533.046 2.27569 0.522932 0
M  V30 5460 C 534.027 1.28679 1.11247 0
M  V30 5461 O 535.212 1.57504 1.13605 0
M  V30 5462 C 532.342 3.0397 1.67987 0
M  V30 5463 C 531.296 4.10267 1.21924 0
M  V30 5464 C 530.622 4.74555 2.46377 0
M  V30 5465 C 531.922 5.21268 0.32815 0
M  V30 5466 H 533.616 2.99264 -0.0901977 0
M  V30 5467 H 531.162 1.4393 -0.044821 0
M  V30 5468 H 533.115 3.54123 2.28418 0
M  V30 5469 H 531.839 2.29906 2.31971 0
M  V30 5470 H 530.498 3.61009 0.637809 0
M  V30 5471 H 530.146 3.97098 3.08743 0
M  V30 5472 H 529.846 5.46363 2.16243 0
M  V30 5473 H 531.37 5.27487 3.07555 0
M  V30 5474 H 532.784 5.67128 0.838978 0
M  V30 5475 H 531.181 5.99982 0.119228 0
M  V30 5476 H 532.251 4.80673 -0.638839 0
M  V30 5477 N 533.594 0.0601682 1.57485 0
M  V30 5478 C 534.542 -0.928899 2.13247 0
M  V30 5479 C 535.536 -1.31616 1.06647 0
M  V30 5480 O 536.742 -1.29476 1.25043 0
M  V30 5481 H 533.117 -0.317455 0.681708 0
M  V30 5482 H 535.088 -0.433566 2.95233 0
M  V30 5483 C 533.837 -2.19121 2.69965 0
M  V30 5484 H 533.16 -1.90204 3.51657 0
M  V30 5485 H 534.6 -2.86465 3.12592 0
M  V30 5486 C 533.059 -2.94195 1.64168 0
M  V30 5487 O 533.589 -3.87468 1.05978 0
M  V30 5488 N 531.795 -2.57089 1.35476 0
M  V30 5489 H 531.342 -1.81314 1.82984 0
M  V30 5490 H 531.3 -3.07624 0.649196 0
M  V30 5491 N 535.072 -1.5615 -0.213296 0
M  V30 5492 C 536.32 -1.79191 -0.934612 0
M  V30 5493 C 536.641 -0.630112 -1.84539 0
M  V30 5494 O 535.911 0.35257 -1.92701 0
M  V30 5495 H 534.491 -0.660937 -0.348097 0
M  V30 5496 H 537.153 -1.93618 -0.22317 0
M  V30 5497 H 536.249 -2.71656 -1.53654 0
M  V30 5498 N 536.55 0.480323 -1.50102 0
M  V30 5499 C 537.797 1.23307 -1.60629 0
M  V30 5500 C 538.125 1.92135 -0.302375 0
M  V30 5501 O 537.38 1.82321 0.711154 0
M  V30 5502 C 537.679 2.30708 -2.72963 0
M  V30 5503 C 537.345 1.79195 -4.13763 0
M  V30 5504 C 536.007 1.64867 -4.52076 0
M  V30 5505 C 538.359 1.40878 -5.018 0
M  V30 5506 C 535.687 1.10631 -5.76175 0
M  V30 5507 C 538.039 0.880872 -6.26437 0
M  V30 5508 C 536.703 0.724146 -6.6356 0
M  V30 5509 H 535.973 0.451211 -0.587784 0
M  V30 5510 H 538.62 0.53051 -1.84005 0
M  V30 5511 H 536.925 3.06834 -2.43639 0
M  V30 5512 H 538.622 2.88692 -2.78313 0
M  V30 5513 H 535.212 1.91313 -3.83533 0
M  V30 5514 H 539.396 1.50786 -4.7284 0
M  V30 5515 H 534.652 0.972263 -6.0362 0
M  V30 5516 H 538.826 0.575269 -6.9402 0
M  V30 5517 H 536.453 0.301722 -7.59601 0
M  V30 5518 N 538.028 1.39524 0.732853 0
M  V30 5519 C 538.938 1.40695 1.87729 0
M  V30 5520 C 539.954 0.301496 1.71368 0
M  V30 5521 O 541.13 0.543313 1.93933 0
M  V30 5522 C 538.195 1.25098 3.23344 0
M  V30 5523 C 537.256 2.45634 3.52083 0
M  V30 5524 C 536.489 2.30772 4.81228 0
M  V30 5525 O 536.712 1.31233 5.55098 0
M  V30 5526 O 535.646 3.19799 5.09914 0
M  V30 5527 H 539.472 2.37168 1.89697 0
M  V30 5528 H 537.057 1.20663 0.880959 0
M  V30 5529 H 538.939 1.18541 4.04383 0
M  V30 5530 H 537.614 0.317209 3.22142 0
M  V30 5531 H 536.521 2.57767 2.71122 0
M  V30 5532 H 537.854 3.37712 3.58066 0
M  V30 5533 N 539.506 -0.963266 1.24736 0
M  V30 5534 C 540.752 -1.70933 1.09131 0
M  V30 5535 C 541.085 -1.90676 -0.368273 0
M  V30 5536 O 540.36 -1.47147 -1.27193 0
M  V30 5537 C 540.643 -3.09744 1.83658 0
M  V30 5538 C 540.496 -2.97465 3.37394 0
M  V30 5539 C 541.815 -4.09483 1.61282 0
M  V30 5540 H 538.934 -0.620398 0.397838 0
M  V30 5541 H 541.576 -1.12028 1.53459 0
M  V30 5542 H 539.726 -3.60031 1.4598 0
M  V30 5543 H 541.398 -2.54571 3.84696 0
M  V30 5544 H 539.641 -2.33576 3.65547 0
M  V30 5545 H 540.312 -3.95822 3.84745 0
M  V30 5546 H 542.788 -3.68073 1.94066 0
M  V30 5547 H 541.664 -5.04666 2.15878 0
M  V30 5548 H 541.925 -4.38639 0.552102 0
M  V30 5549 N 540.985 -1.06182 -1.16461 0
M  V30 5550 C 542.232 -0.777863 -1.86964 0
M  V30 5551 C 542.56 0.695602 -1.81636 0
M  V30 5552 O 541.815 1.52532 -1.22607 0
M  V30 5553 C 542.114 -1.21633 -3.36066 0
M  V30 5554 C 541.78 -2.69371 -3.61594 0
M  V30 5555 C 540.442 -3.09727 -3.6827 0
M  V30 5556 C 542.794 -3.64791 -3.7226 0
M  V30 5557 C 540.122 -4.44345 -3.83112 0
M  V30 5558 C 542.474 -4.99155 -3.88623 0
M  V30 5559 C 541.138 -5.39149 -3.93541 0
M  V30 5560 H 540.408 -0.28464 -0.68415 0
M  V30 5561 H 543.055 -1.33071 -1.37711 0
M  V30 5562 H 541.36 -0.582651 -3.87443 0
M  V30 5563 H 543.057 -0.973682 -3.88999 0
M  V30 5564 H 539.647 -2.37124 -3.57029 0
M  V30 5565 H 543.831 -3.34746 -3.66413 0
M  V30 5566 H 539.087 -4.74819 -3.85172 0
M  V30 5567 H 543.261 -5.72976 -3.95817 0
M  V30 5568 H 540.888 -6.43464 -4.04794 0
M  V30 5569 N 542.463 1.3308 -0.844243 0
M  V30 5570 C 543.426 2.27403 -0.286485 0
M  V30 5571 C 544.426 1.51179 0.547872 0
M  V30 5572 O 545.616 1.70421 0.360886 0
M  V30 5573 C 542.748 3.35653 0.595813 0
M  V30 5574 H 543.941 2.78248 -1.11885 0
M  V30 5575 H 541.494 1.43574 -0.617749 0
M  V30 5576 H 542.229 2.90058 1.4504 0
M  V30 5577 H 542.014 3.921 -0.00125994 0
M  V30 5578 H 543.504 4.05958 0.979168 0
M  V30 5579 N 543.941 0.601185 1.45683 0
M  V30 5580 C 545.357 0.264315 1.57396 0
M  V30 5581 C 545.557 -1.23324 1.59353 0
M  V30 5582 O 544.613 -2.01594 1.52039 0
M  V30 5583 C 545.926 0.929839 2.85962 0
M  V30 5584 C 547.474 0.905156 2.99626 0
M  V30 5585 C 547.949 1.55057 4.30954 0
M  V30 5586 N 549.44 1.51576 4.37697 0
M  V30 5587 C 550.175 1.98436 5.37969 0
M  V30 5588 N 549.671 2.53352 6.44813 0
M  V30 5589 N 551.464 1.89242 5.29286 0
M  V30 5590 H 543.615 1.57363 1.42656 0
M  V30 5591 H 545.878 0.658831 0.681649 0
M  V30 5592 H 545.584 1.98404 2.90394 0
M  V30 5593 H 545.458 0.449224 3.74515 0
M  V30 5594 H 547.845 -0.14048 2.94765 0
M  V30 5595 H 547.926 1.42397 2.12501 0
M  V30 5596 H 547.57 2.5955 4.36573 0
M  V30 5597 H 547.5 1.00682 5.16886 0
M  V30 5598 H 549.991 1.11452 3.61091 0
M  V30 5599 H 550.304 2.86918 7.17564 0
M  V30 5600 H 548.649 2.57388 6.45582 0
M  V30 5601 H 551.84 1.46083 4.44722 0
M  V30 5602 H 552.013 2.26075 6.07284 0
M  V30 5603 N 545.419 -1.53889 0.339982 0
M  V30 5604 C 546.666 -2.00855 -0.257621 0
M  V30 5605 C 546.994 -1.22788 -1.50842 0
M  V30 5606 O 546.249 -0.302567 -1.93347 0
M  V30 5607 C 546.548 -3.51968 -0.620735 0
M  V30 5608 C 546.214 -4.47741 0.532771 0
M  V30 5609 C 544.876 -4.73645 0.849339 0
M  V30 5610 C 547.228 -5.04551 1.3068 0
M  V30 5611 C 544.556 -5.53614 1.94237 0
M  V30 5612 C 546.908 -5.85713 2.39005 0
M  V30 5613 C 545.572 -6.09912 2.71225 0
M  V30 5614 H 544.842 -0.734979 -0.0942703 0
M  V30 5615 H 547.489 -1.85714 0.467159 0
M  V30 5616 H 545.794 -3.64921 -1.42618 0
M  V30 5617 H 547.491 -3.85762 -1.09495 0
M  V30 5618 H 544.081 -4.27711 0.275973 0
M  V30 5619 H 548.265 -4.84507 1.07549 0
M  V30 5620 H 543.521 -5.7059 2.19628 0
M  V30 5621 H 547.695 -6.28748 2.99415 0
M  V30 5622 H 545.322 -6.71665 3.56047 0
M  V30 5623 N 546.897 -0.0685191 -1.57451 0
M  V30 5624 C 548.145 0.60016 -1.92983 0
M  V30 5625 C 548.466 1.70348 -0.949028 0
M  V30 5626 O 547.736 1.959 0.00335647 0
M  V30 5627 H 546.316 0.224682 -0.712409 0
M  V30 5628 H 548.978 -0.125605 -1.94495 0
M  V30 5629 H 548.074 1.02759 -2.94698 0
M  V30 5630 N 548.375 1.56261 0.205012 0
M  V30 5631 C 549.6 1.84491 0.947512 0
M  V30 5632 C 550.025 0.650894 1.76479 0
M  V30 5633 O 549.383 -0.40035 1.76824 0
M  V30 5634 C 549.431 3.10863 1.82747 0
M  V30 5635 O 548.535 2.90719 2.925 0
M  V30 5636 H 547.876 0.607783 0.267386 0
M  V30 5637 H 550.406 2.03485 0.213323 0
M  V30 5638 H 550.416 3.41399 2.23407 0
M  V30 5639 H 549.091 3.97392 1.2269 0
M  V30 5640 H 547.668 2.71457 2.55667 0
M  V30 5641 N 549.853 -0.472356 1.50355 0
M  V30 5642 C 550.816 -1.5529 1.68576 0
M  V30 5643 C 551.816 -1.50863 0.556511 0
M  V30 5644 O 553.006 -1.53505 0.823516 0
M  V30 5645 C 550.138 -2.94921 1.70981 0
M  V30 5646 H 551.331 -1.40451 2.64978 0
M  V30 5647 H 548.884 -0.698645 1.39816 0
M  V30 5648 H 549.619 -3.15204 0.762675 0
M  V30 5649 H 549.404 -2.99541 2.53017 0
M  V30 5650 H 550.894 -3.73372 1.87037 0
M  V30 5651 N 551.331 -1.39911 -0.725443 0
M  V30 5652 C 552.58 -1.36963 -1.48068 0
M  V30 5653 C 552.893 0.0284478 -1.95579 0
M  V30 5654 O 554.099 0.180535 -2.70899 0
M  V30 5655 C 552.555 -2.40664 -2.67598 0
M  V30 5656 C 552.163 -3.86234 -2.26997 0
M  V30 5657 C 553.907 -2.46807 -3.45379 0
M  V30 5658 C 551.814 -4.81554 -3.43307 0
M  V30 5659 H 550.744 -0.509223 -0.556065 0
M  V30 5660 H 553.395 -1.65602 -0.790454 0
M  V30 5661 H 551.777 -2.05109 -3.38742 0
M  V30 5662 H 552.951 -4.3088 -1.63337 0
M  V30 5663 H 551.266 -3.83475 -1.62284 0
M  V30 5664 H 553.863 -3.15213 -4.31909 0
M  V30 5665 H 554.206 -1.49552 -3.8851 0
M  V30 5666 H 554.739 -2.81303 -2.81271 0
M  V30 5667 H 551.478 -5.80106 -3.05217 0
M  V30 5668 H 550.998 -4.4158 -4.05915 0
M  V30 5669 H 552.677 -5.0091 -4.0951 0
M  V30 5670 N 552.809 0.956637 -1.25245 0
M  V30 5671 C 553.772 2.03457 -1.05537 0
M  V30 5672 C 554.772 1.60798 -0.00886317 0
M  V30 5673 O 555.962 1.72384 -0.250865 0
M  V30 5674 C 553.094 3.35543 -0.601965 0
M  V30 5675 H 554.287 2.22372 -2.01223 0
M  V30 5676 H 551.84 1.13344 -1.07623 0
M  V30 5677 H 552.575 3.22323 0.357584 0
M  V30 5678 H 552.36 3.67854 -1.35743 0
M  V30 5679 H 553.85 4.14769 -0.485454 0
M  V30 5680 N 554.287 1.06798 1.15896 0
M  V30 5681 C 555.698 0.811355 1.68149 0
M  V30 5682 C 556.049 -0.664339 1.8461 0
M  V30 5683 O 555.174 -1.51485 1.54535 0
M  V30 5684 C 555.769 1.46624 3.05429 0
M  V30 5685 C 554.328 1.25726 3.54781 0
M  V30 5686 C 553.475 1.53949 2.3064 0
M  V30 5687 H 556.426 1.23078 1.00187 0
M  V30 5688 H 556.447 0.88437 3.7008 0
M  V30 5689 H 555.959 2.54025 2.93416 0
M  V30 5690 H 554.06 0.20322 3.72045 0
M  V30 5691 H 554.173 1.97354 4.36564 0
M  V30 5692 H 552.537 0.96025 2.35905 0
M  V30 5693 H 553.32 2.6252 2.2122 0
M  V30 5694 N 555.766 -1.3263 0.851289 0
M  V30 5695 C 556.696 -2.31449 0.308771 0
M  V30 5696 C 557.677 -1.59531 -0.590255 0
M  V30 5697 O 558.862 -1.87351 -0.511205 0
M  V30 5698 C 555.992 -3.43586 -0.506548 0
M  V30 5699 C 554.946 -4.26963 0.297753 0
M  V30 5700 C 554.272 -5.30831 -0.642094 0
M  V30 5701 C 555.572 -4.99643 1.52166 0
M  V30 5702 H 557.266 -2.77074 1.13447 0
M  V30 5703 H 554.812 -1.33207 0.546971 0
M  V30 5704 H 556.765 -4.11754 -0.896474 0
M  V30 5705 H 555.489 -2.96681 -1.36558 0
M  V30 5706 H 554.148 -3.60437 0.669391 0
M  V30 5707 H 553.796 -4.8018 -1.49788 0
M  V30 5708 H 553.496 -5.87501 -0.107968 0
M  V30 5709 H 555.02 -6.01862 -1.02927 0
M  V30 5710 H 556.434 -5.6051 1.20421 0
M  V30 5711 H 554.831 -5.66022 1.99347 0
M  V30 5712 H 555.901 -4.27701 2.28474 0
M  V30 5713 N 557.244 -0.608902 -1.45362 0
M  V30 5714 C 558.492 -0.104401 -2.0183 0
M  V30 5715 C 558.813 1.27007 -1.47967 0
M  V30 5716 O 558.083 1.83924 -0.674455 0
M  V30 5717 H 556.663 -0.0356042 -0.746151 0
M  V30 5718 H 559.325 -0.790596 -1.78145 0
M  V30 5719 H 558.421 -0.0551793 -3.12051 0
M  V30 5720 N 558.722 1.53707 -0.348139 0
M  V30 5721 C 559.999 1.93247 0.302475 0
M  V30 5722 C 560.379 1.28012 1.67857 0
M  V30 5723 O 559.727 0.43274 2.24365 0
M  V30 5724 C 559.937 3.47031 0.370159 0
M  V30 5725 C 561.285 4.20066 0.61882 0
M  V30 5726 O 562.309 3.53319 0.452087 0
M  V30 5727 O 561.168 5.38318 0.94215 0
M  V30 5728 H 558.262 0.807736 0.177458 0
M  V30 5729 H 560.808 1.64927 -0.399651 0
M  V30 5730 H 559.58 3.86745 -0.59534 0
M  V30 5731 H 559.203 3.81532 1.11888 0
M  V30 5732 N 560.2 0.0768682 1.57412 0
M  V30 5733 C 561.13 -0.886026 2.16037 0
M  V30 5734 C 562.111 -1.30691 1.08876 0
M  V30 5735 O 563.296 -1.37705 1.36934 0
M  V30 5736 C 560.426 -2.1518 2.72608 0
M  V30 5737 C 559.38 -1.87015 3.8498 0
M  V30 5738 C 558.706 -3.20266 4.28175 0
M  V30 5739 C 560.006 -1.17143 5.08994 0
M  V30 5740 H 561.7 -0.397642 2.96748 0
M  V30 5741 H 559.246 -0.189823 1.42743 0
M  V30 5742 H 561.199 -2.82962 3.12266 0
M  V30 5743 H 559.923 -2.66269 1.89125 0
M  V30 5744 H 558.582 -1.21636 3.45833 0
M  V30 5745 H 558.23 -3.69207 3.41607 0
M  V30 5746 H 557.93 -3.0221 5.03927 0
M  V30 5747 H 559.454 -3.89237 4.70454 0
M  V30 5748 H 560.868 -1.75003 5.45937 0
M  V30 5749 H 559.265 -1.09328 5.90057 0
M  V30 5750 H 560.335 -0.151295 4.84664 0
M  V30 5751 N 561.678 -1.56367 -0.196722 0
M  V30 5752 C 562.955 -1.71359 -0.943159 0
M  V30 5753 C 563.335 -0.631192 -2.01443 0
M  V30 5754 O 562.683 0.358071 -2.25677 0
M  V30 5755 C 562.893 -3.13623 -1.53106 0
M  V30 5756 C 564.241 -3.73806 -2.01381 0
M  V30 5757 O 565.265 -3.16742 -1.62951 0
M  V30 5758 O 564.124 -4.73951 -2.7209 0
M  V30 5759 H 561.218 -0.698851 -0.442195 0
M  V30 5760 H 563.764 -1.68672 -0.186547 0
M  V30 5761 H 562.536 -3.83873 -0.758785 0
M  V30 5762 H 562.159 -3.20532 -2.35255 0
M  V30 5763 N 563.156 0.464375 -1.50603 0
M  V30 5764 C 564.088 1.57916 -1.66118 0
M  V30 5765 C 565.101 1.53497 -0.54246 0
M  V30 5766 O 566.29 1.58763 -0.815877 0
M  V30 5767 C 563.39 2.96809 -1.63577 0
M  V30 5768 C 562.563 3.26026 -2.91592 0
M  V30 5769 C 561.622 4.44506 -2.81604 0
M  V30 5770 O 560.648 4.44484 -3.55559 0
M  V30 5771 N 561.85 5.46549 -1.95614 0
M  V30 5772 H 564.615 1.45022 -2.62276 0
M  V30 5773 H 562.176 0.652903 -1.48151 0
M  V30 5774 H 564.168 3.74048 -1.54499 0
M  V30 5775 H 562.738 3.03438 -0.751262 0
M  V30 5776 H 561.958 2.37337 -3.14746 0
M  V30 5777 H 563.246 3.42361 -3.76386 0
M  V30 5778 H 562.644 5.49391 -1.34854 0
M  V30 5779 H 561.201 6.22746 -1.92435 0
M  V30 5780 N 564.634 1.40294 0.718013 0
M  V30 5781 C 565.911 1.2894 1.47084 0
M  V30 5782 C 566.291 -0.0933625 2.10893 0
M  V30 5783 O 565.639 -1.10598 1.99951 0
M  V30 5784 C 565.849 2.4264 2.50852 0
M  V30 5785 C 567.197 2.8276 3.16752 0
M  V30 5786 O 568.221 2.42215 2.61171 0
M  V30 5787 O 567.08 3.528 4.17366 0
M  V30 5788 H 564.174 0.506236 0.653952 0
M  V30 5789 H 566.72 1.52208 0.750394 0
M  V30 5790 H 565.492 3.35009 2.022 0
M  V30 5791 H 565.115 2.21129 3.30435 0
M  V30 5792 N 566.112 -0.949982 1.2575 0
M  V30 5793 C 567.36 -1.6918 1.10555 0
M  V30 5794 C 567.681 -1.91773 -0.353298 0
M  V30 5795 O 566.951 -1.50814 -1.25027 0
M  V30 5796 H 565.531 -0.626952 0.406129 0
M  V30 5797 H 568.193 -1.1419 1.57945 0
M  V30 5798 H 567.289 -2.66915 1.61749 0
M  V30 5799 N 567.59 -1.07411 -1.15328 0
M  V30 5800 C 568.837 -0.797649 -1.86128 0
M  V30 5801 C 569.165 0.676298 -1.82364 0
M  V30 5802 O 568.42 1.51223 -1.24218 0
M  V30 5803 C 568.719 -1.25191 -3.34757 0
M  V30 5804 C 568.385 -2.73191 -3.58716 0
M  V30 5805 C 567.047 -3.13616 -3.64964 0
M  V30 5806 C 569.399 -3.68718 -3.6837 0
M  V30 5807 C 566.727 -4.48383 -3.78377 0
M  V30 5808 C 569.079 -5.03248 -3.83306 0
M  V30 5809 C 567.743 -5.43293 -3.878 0
M  V30 5810 H 567.013 -0.29188 -0.681092 0
M  V30 5811 H 569.66 -1.34524 -1.36292 0
M  V30 5812 H 567.965 -0.623712 -3.86804 0
M  V30 5813 H 569.662 -1.01489 -3.87945 0
M  V30 5814 H 566.252 -2.40898 -3.54494 0
M  V30 5815 H 570.436 -3.38614 -3.62842 0
M  V30 5816 H 565.692 -4.78877 -3.80114 0
M  V30 5817 H 569.866 -5.77142 -3.89718 0
M  V30 5818 H 567.493 -6.47721 -3.97946 0
M  V30 5819 N 569.068 1.32177 -0.85831 0
M  V30 5820 C 570.016 2.30729 -0.294442 0
M  V30 5821 C 571.01 1.59009 0.584165 0
M  V30 5822 O 572.216 1.73713 0.471562 0
M  V30 5823 H 568.591 0.748097 -0.0765171 0
M  V30 5824 H 570.562 2.75774 -1.1398 0
M  V30 5825 C 569.311 3.44098 0.499208 0
M  V30 5826 H 568.634 3.99449 -0.167579 0
M  V30 5827 H 570.074 4.15202 0.859273 0
M  V30 5828 C 568.533 2.91684 1.68588 0
M  V30 5829 O 569.063 2.89481 2.78503 0
M  V30 5830 N 567.269 2.48036 1.51415 0
M  V30 5831 H 566.816 2.50027 0.620006 0
M  V30 5832 H 566.774 2.13322 2.30957 0
M  V30 5833 N 570.547 0.616602 1.45037 0
M  V30 5834 C 571.824 0.0469086 1.95544 0
M  V30 5835 C 572.204 -1.42345 1.55888 0
M  V30 5836 O 571.552 -2.13055 0.825824 0
M  V30 5837 C 571.762 0.254489 3.48071 0
M  V30 5838 C 573.11 0.140025 4.24369 0
M  V30 5839 O 574.134 0.185084 3.55719 0
M  V30 5840 O 572.993 0.0327034 5.4649 0
M  V30 5841 H 570.087 -0.0306051 0.826433 0
M  V30 5842 H 572.633 0.687293 1.55159 0
M  V30 5843 H 571.405 1.27532 3.69934 0
M  V30 5844 H 571.028 -0.42073 3.95368 0
M  V30 5845 N 572.025 -1.5352 0.356285 0
M  V30 5846 C 573.274 -2.00298 -0.237373 0
M  V30 5847 C 573.587 -1.24784 -1.50627 0
M  V30 5848 O 574.793 -1.62103 -2.17795 0
M  V30 5849 C 573.249 -3.56771 -0.473545 0
M  V30 5850 C 572.857 -4.41154 0.780183 0
M  V30 5851 C 574.601 -4.1193 -1.02537 0
M  V30 5852 C 572.508 -5.89161 0.514108 0
M  V30 5853 H 571.438 -0.748307 -0.092478 0
M  V30 5854 H 574.089 -1.77283 0.473588 0
M  V30 5855 H 572.471 -3.75902 -1.24553 0
M  V30 5856 H 573.645 -4.33797 1.55425 0
M  V30 5857 H 571.96 -3.97052 1.25455 0
M  V30 5858 H 574.557 -5.20133 -1.2396 0
M  V30 5859 H 574.9 -3.65943 -1.98473 0
M  V30 5860 H 575.433 -3.96561 -0.313775 0
M  V30 5861 H 572.172 -6.39408 1.44355 0
M  V30 5862 H 571.692 -5.9939 -0.221632 0
M  V30 5863 H 573.371 -6.46857 0.136122 0
M  V30 5864 N 573.503 -0.0852151 -1.57369 0
M  V30 5865 C 574.466 0.8627 -2.12344 0
M  V30 5866 C 575.466 1.21746 -1.05046 0
M  V30 5867 O 576.656 1.14852 -1.30976 0
M  V30 5868 C 573.788 2.1618 -2.63589 0
M  V30 5869 H 574.981 0.385511 -2.97412 0
M  V30 5870 H 572.534 0.163663 -1.55441 0
M  V30 5871 H 573.269 2.68406 -1.82013 0
M  V30 5872 H 573.054 1.91723 -3.4203 0
M  V30 5873 H 574.544 2.84011 -3.06149 0
M  V30 5874 N 574.981 1.5647 0.188427 0
M  V30 5875 C 576.23 1.80207 0.905995 0
M  V30 5876 C 576.543 0.659579 1.84144 0
M  V30 5877 O 577.749 0.781431 2.60011 0
M  V30 5878 C 576.205 3.19255 1.66145 0
M  V30 5879 C 575.813 4.41324 0.770504 0
M  V30 5880 C 577.557 3.52298 2.36826 0
M  V30 5881 C 575.464 5.71394 1.52521 0
M  V30 5882 H 574.394 0.671953 0.342045 0
M  V30 5883 H 577.045 1.82808 0.159164 0
M  V30 5884 H 575.427 3.10922 2.45242 0
M  V30 5885 H 576.601 4.60797 0.0177261 0
M  V30 5886 H 574.916 4.16035 0.174199 0
M  V30 5887 H 577.513 4.46715 2.93854 0
M  V30 5888 H 577.856 2.76359 3.11338 0
M  V30 5889 H 578.389 3.62108 1.6469 0
M  V30 5890 H 575.128 6.50316 0.82275 0
M  V30 5891 H 574.648 5.55928 2.25175 0
M  V30 5892 H 576.327 6.12747 2.07725 0
M  V30 5893 N 576.459 -0.456382 1.50847 0
M  V30 5894 C 577.422 -1.53493 1.70213 0
M  V30 5895 C 578.422 -1.50264 0.572481 0
M  V30 5896 O 579.612 -1.52623 0.839751 0
M  V30 5897 C 576.744 -2.93091 1.741 0
M  V30 5898 H 577.937 -1.37633 2.66453 0
M  V30 5899 H 575.49 -0.683776 1.4055 0
M  V30 5900 H 576.225 -3.14378 0.796063 0
M  V30 5901 H 576.01 -2.9684 2.5618 0
M  V30 5902 H 577.5 -3.71368 1.90987 0
M  V30 5903 N 577.937 -1.40673 -0.710563 0
M  V30 5904 C 578.9 -1.4108 -1.80635 0
M  V30 5905 C 579.9 -0.303783 -1.57904 0
M  V30 5906 O 581.09 -0.562937 -1.64853 0
M  V30 5907 C 578.222 -1.20748 -3.18799 0
M  V30 5908 H 579.415 -2.38612 -1.81671 0
M  V30 5909 H 576.968 -1.26595 -0.916704 0
M  V30 5910 H 577.703 -0.239964 -3.23411 0
M  V30 5911 H 577.488 -2.00941 -3.36698 0
M  V30 5912 H 578.978 -1.23833 -3.98817 0
M  V30 5913 N 579.415 0.9433 -1.26252 0
M  V30 5914 C 580.826 1.50404 -1.10614 0
M  V30 5915 C 581.177 1.93666 0.31429 0
M  V30 5916 O 580.302 1.79709 1.20555 0
M  V30 5917 C 580.897 2.73336 -2.00182 0
M  V30 5918 C 579.456 3.25686 -1.88695 0
M  V30 5919 C 578.603 1.98474 -1.93658 0
M  V30 5920 H 581.554 0.759006 -1.39373 0
M  V30 5921 H 581.575 3.47567 -1.54847 0
M  V30 5922 H 581.087 2.41818 -3.03555 0
M  V30 5923 H 579.188 3.61998 -0.882489 0
M  V30 5924 H 579.301 3.92935 -2.74115 0
M  V30 5925 H 577.665 2.14278 -1.37684 0
M  V30 5926 H 578.448 1.6929 -2.98657 0
M  V30 5927 N 580.893 1.08022 1.14757 0
M  V30 5928 C 582.123 0.827646 1.89298 0
M  V30 5929 C 582.531 -0.623506 1.78631 0
M  V30 5930 O 581.874 -1.43991 1.14071 0
M  V30 5931 C 581.936 1.16553 3.40082 0
M  V30 5932 C 581.6 2.61866 3.74533 0
M  V30 5933 C 582.597 3.60116 3.74984 0
M  V30 5934 C 580.282 2.97619 4.04633 0
M  V30 5935 C 582.276 4.92151 4.05051 0
M  V30 5936 C 579.963 4.2985 4.34364 0
M  V30 5937 C 580.961 5.26926 4.34555 0
M  V30 5938 O 580.649 6.5678 4.63568 0
M  V30 5939 H 580.381 0.298396 0.606577 0
M  V30 5940 H 582.935 1.44187 1.46285 0
M  V30 5941 H 581.165 0.494296 3.83528 0
M  V30 5942 H 582.854 0.894407 3.95923 0
M  V30 5943 H 583.62 3.33837 3.51821 0
M  V30 5944 H 579.499 2.22702 4.03639 0
M  V30 5945 H 583.043 5.67915 4.05115 0
M  V30 5946 H 578.94 4.55879 4.56995 0
M  V30 5947 H 579.708 6.62035 4.81303 0
M  V30 5948 N 582.371 -1.3172 0.865308 0
M  V30 5949 C 583.619 -1.96487 0.472995 0
M  V30 5950 C 583.94 -1.68761 -0.976975 0
M  V30 5951 O 583.21 -1.00051 -1.68424 0
M  V30 5952 H 581.79 -0.726947 0.171922 0
M  V30 5953 H 584.452 -1.60612 1.10407 0
M  V30 5954 H 583.548 -3.0574 0.62687 0
M  V30 5955 N 583.85 -0.624285 -1.44708 0
M  V30 5956 C 585.098 -0.125802 -2.01708 0
M  V30 5957 C 585.418 1.2543 -1.49306 0
M  V30 5958 O 584.689 1.83198 -0.693924 0
M  V30 5959 H 583.269 -0.0435161 -0.745731 0
M  V30 5960 H 585.931 -0.809446 -1.77296 0
M  V30 5961 H 585.027 -0.0882734 -3.11975 0
M  V30 5962 N 585.328 1.53329 -0.364422 0
M  V30 5963 C 586.238 2.29414 0.490552 0
M  V30 5964 C 587.254 1.35335 1.09363 0
M  V30 5965 O 588.43 1.68391 1.10483 0
M  V30 5966 C 585.495 3.06772 1.61529 0
M  V30 5967 C 584.556 4.16516 1.03986 0
M  V30 5968 C 583.789 4.90176 2.111 0
M  V30 5969 O 584.012 4.63687 3.32191 0
M  V30 5970 O 582.946 5.76134 1.74222 0
M  V30 5971 H 586.772 3.03428 -0.12856 0
M  V30 5972 H 584.357 1.48843 -0.128837 0
M  V30 5973 H 586.239 3.55082 2.26924 0
M  V30 5974 H 584.914 2.35596 2.21983 0
M  V30 5975 H 583.821 3.7246 0.349856 0
M  V30 5976 H 585.154 4.89855 0.4799 0
M  V30 5977 N 586.806 0.0935595 1.57322 0
M  V30 5978 C 588.083 -0.612692 1.85756 0
M  V30 5979 C 588.463 -1.86439 0.99013 0
M  V30 5980 O 587.811 -2.28416 0.0621362 0
M  V30 5981 C 588.021 -0.929547 3.36393 0
M  V30 5982 C 589.369 -1.29366 4.04413 0
M  V30 5983 O 590.393 -1.02061 3.41265 0
M  V30 5984 O 589.252 -1.80498 5.15832 0
M  V30 5985 H 586.346 -0.306444 0.768128 0
M  V30 5986 H 588.892 0.126141 1.69231 0
M  V30 5987 H 587.664 -0.0414766 3.91278 0
M  V30 5988 H 587.287 -1.72441 3.5826 0
M  V30 5989 N 588.284 -1.56567 -0.180126 0
M  V30 5990 C 589.231 -1.95725 -1.22313 0
M  V30 5991 C 590.201 -0.819911 -1.44453 0
M  V30 5992 O 591.386 -1.07931 -1.57339 0
M  V30 5993 C 588.526 -2.31484 -2.55947 0
M  V30 5994 C 587.639 -3.58354 -2.4126 0
M  V30 5995 C 586.774 -3.83366 -3.67701 0
M  V30 5996 C 585.813 -5.03612 -3.47909 0
M  V30 5997 N 584.95 -5.24802 -4.66398 0
M  V30 5998 H 589.79 -2.84642 -0.882198 0
M  V30 5999 H 587.327 -1.4085 -0.42422 0
M  V30 6000 H 589.285 -2.50237 -3.33822 0
M  V30 6001 H 587.915 -1.45689 -2.88053 0
M  V30 6002 H 586.967 -3.47565 -1.54606 0
M  V30 6003 H 588.279 -4.46386 -2.22577 0
M  V30 6004 H 587.433 -4.02439 -4.54013 0
M  V30 6005 H 586.172 -2.93692 -3.89353 0
M  V30 6006 H 585.177 -4.84447 -2.59983 0
M  V30 6007 H 586.402 -5.94809 -3.27688 0
M  V30 6008 H 584.348 -4.38079 -4.88286 0
M  V30 6009 H 584.265 -6.07041 -4.50596 0
M  V30 6010 H 585.533 -5.48346 -5.54019 0
M  V30 6011 N 589.762 0.448376 -1.51087 0
M  V30 6012 C 590.709 1.54341 -1.71603 0
M  V30 6013 C 591.679 1.56463 -0.557536 0
M  V30 6014 O 592.864 1.73644 -0.79072 0
M  V30 6015 C 590.004 2.92148 -1.83695 0
M  V30 6016 C 589.117 2.99639 -3.11192 0
M  V30 6017 C 588.252 4.285 -3.13944 0
M  V30 6018 C 587.291 4.29819 -4.35801 0
M  V30 6019 N 586.428 5.50186 -4.36164 0
M  V30 6020 H 591.268 1.36151 -2.65079 0
M  V30 6021 H 588.805 0.661585 -1.31383 0
M  V30 6022 H 590.763 3.72093 -1.88687 0
M  V30 6023 H 589.393 3.0892 -0.936374 0
M  V30 6024 H 588.445 2.12425 -3.15562 0
M  V30 6025 H 589.757 2.96474 -4.01129 0
M  V30 6026 H 588.911 5.16811 -3.17791 0
M  V30 6027 H 587.65 4.34307 -2.21876 0
M  V30 6028 H 586.655 3.39902 -4.32142 0
M  V30 6029 H 587.88 4.25685 -5.29121 0
M  V30 6030 H 585.826 5.56735 -3.46961 0
M  V30 6031 H 585.743 5.48856 -5.19897 0
M  V30 6032 H 587.011 6.40559 -4.44189 0
M  V30 6033 N 591.24 1.41047 0.703093 0
M  V30 6034 C 592.488 1.39723 1.4602 0
M  V30 6035 C 592.809 0.00461257 1.94999 0
M  V30 6036 O 592.079 -0.952292 1.71196 0
M  V30 6037 H 590.659 0.514281 0.541779 0
M  V30 6038 H 593.321 1.76217 0.832678 0
M  V30 6039 H 592.417 2.07982 2.32701 0
M  V30 6040 N 592.718 -0.936591 1.26751 0
M  V30 6041 C 593.967 -1.67778 1.11953 0
M  V30 6042 C 594.28 -1.92694 -0.33589 0
M  V30 6043 O 595.486 -2.64682 -0.604618 0
M  V30 6044 C 593.942 -3.02138 1.95551 0
M  V30 6045 C 593.55 -2.84953 3.45696 0
M  V30 6046 C 595.294 -3.79917 1.89377 0
M  V30 6047 C 593.201 -4.14814 4.21525 0
M  V30 6048 H 592.131 -0.629275 0.415366 0
M  V30 6049 H 594.782 -1.04122 1.51099 0
M  V30 6050 H 593.164 -3.668 1.49243 0
M  V30 6051 H 594.338 -2.29112 3.99805 0
M  V30 6052 H 592.653 -2.20612 3.53156 0
M  V30 6053 H 595.25 -4.76134 2.43312 0
M  V30 6054 H 595.593 -4.07204 0.865464 0
M  V30 6055 H 596.126 -3.22037 2.33532 0
M  V30 6056 H 592.865 -3.92709 5.24843 0
M  V30 6057 H 592.385 -4.70352 3.72195 0
M  V30 6058 H 594.064 -4.83239 4.3022 0
M  V30 6059 N 594.196 -1.08629 -1.14182 0
M  V30 6060 C 595.442 -0.818556 -1.85546 0
M  V30 6061 C 595.775 0.654076 -1.82854 0
M  V30 6062 O 595.05 1.48099 -1.26083 0
M  V30 6063 C 595.333 -1.34397 -3.3408 0
M  V30 6064 C 595.186 -2.8821 -3.45333 0
M  V30 6065 C 596.505 -0.971069 -4.29253 0
M  V30 6066 H 593.624 -0.298821 -0.673702 0
M  V30 6067 H 596.266 -1.34629 -1.34071 0
M  V30 6068 H 594.416 -0.895064 -3.78049 0
M  V30 6069 H 596.088 -3.41488 -3.10134 0
M  V30 6070 H 594.331 -3.25756 -2.86471 0
M  V30 6071 H 595.002 -3.20047 -4.49749 0
M  V30 6072 H 597.478 -1.35809 -3.93313 0
M  V30 6073 H 596.354 -1.36586 -5.31635 0
M  V30 6074 H 596.615 0.121659 -4.41933 0
M  V30 6075 N 595.674 1.31259 -0.872281 0
M  V30 6076 C 596.904 2.00504 -0.498183 0
M  V30 6077 C 597.312 1.65632 0.914479 0
M  V30 6078 O 596.655 0.882849 1.61095 0
M  V30 6079 C 596.717 3.5482 -0.578194 0
M  V30 6080 C 596.381 4.13172 -1.95289 0
M  V30 6081 C 597.378 4.30107 -2.92069 0
M  V30 6082 C 595.063 4.48846 -2.25483 0
M  V30 6083 C 597.057 4.81908 -4.17185 0
M  V30 6084 C 594.744 5.00349 -3.50847 0
M  V30 6085 C 595.742 5.16831 -4.46514 0
M  V30 6086 O 595.43 5.67228 -5.69656 0
M  V30 6087 H 595.162 0.648055 -0.192354 0
M  V30 6088 H 597.716 1.6841 -1.17589 0
M  V30 6089 H 595.946 3.86383 0.156438 0
M  V30 6090 H 597.635 4.05318 -0.217192 0
M  V30 6091 H 598.401 4.02862 -2.7005 0
M  V30 6092 H 594.28 4.35292 -1.51795 0
M  V30 6093 H 597.824 4.94688 -4.91863 0
M  V30 6094 H 593.721 5.27028 -3.72708 0
M  V30 6095 H 594.489 5.85592 -5.7186 0
M  V30 6096 N 597.152 0.631951 1.44375 0
M  V30 6097 C 598.401 0.134214 2.01253 0
M  V30 6098 C 598.714 -1.25171 1.50305 0
M  V30 6099 O 599.92 -1.8435 1.99317 0
M  V30 6100 C 598.376 0.189187 3.59402 0
M  V30 6101 C 597.984 1.57647 4.19346 0
M  V30 6102 C 599.728 -0.252044 4.23751 0
M  V30 6103 C 597.635 1.58651 5.69722 0
M  V30 6104 H 596.565 0.0464101 0.75257 0
M  V30 6105 H 599.216 0.790868 1.65582 0
M  V30 6106 H 597.598 -0.534584 3.92375 0
M  V30 6107 H 598.772 2.32389 3.97909 0
M  V30 6108 H 597.087 1.96186 3.67288 0
M  V30 6109 H 599.684 -0.264084 5.34047 0
M  V30 6110 H 600.027 -1.27951 3.96149 0
M  V30 6111 H 600.56 0.41926 3.95584 0
M  V30 6112 H 597.299 2.59237 6.0206 0
M  V30 6113 H 596.819 0.882039 5.93279 0
M  V30 6114 H 598.498 1.32082 6.33375 0
M  V30 6115 N 598.631 -1.53133 0.372548 0
M  V30 6116 C 599.878 -2.01356 -0.214959 0
M  V30 6117 C 600.206 -1.2596 -1.48204 0
M  V30 6118 O 599.461 -0.343511 -1.92662 0
M  V30 6119 C 599.76 -3.53206 -0.545938 0
M  V30 6120 C 599.426 -4.46511 0.627624 0
M  V30 6121 C 598.088 -4.71737 0.949615 0
M  V30 6122 C 600.44 -5.01666 1.41353 0
M  V30 6123 C 597.768 -5.4937 2.05936 0
M  V30 6124 C 600.12 -5.80511 2.51375 0
M  V30 6125 C 598.784 -6.04022 2.84101 0
M  V30 6126 H 598.054 -0.736813 -0.078659 0
M  V30 6127 H 600.701 -1.84682 0.506447 0
M  V30 6128 H 599.006 -3.67864 -1.34845 0
M  V30 6129 H 600.703 -3.87997 -1.01287 0
M  V30 6130 H 597.293 -4.27029 0.366635 0
M  V30 6131 H 601.477 -4.82117 1.17802 0
M  V30 6132 H 596.733 -5.65803 2.31682 0
M  V30 6133 H 600.907 -6.22255 3.12684 0
M  V30 6134 H 598.534 -6.63962 3.70214 0
M  V30 6135 N 600.109 -0.101901 -1.5727 0
M  V30 6136 C 601.057 0.872034 -2.15635 0
M  V30 6137 C 602.051 1.28742 -1.10099 0
M  V30 6138 O 603.257 1.26116 -1.28432 0
M  V30 6139 H 599.632 0.299269 -0.689886 0
M  V30 6140 H 601.603 0.355137 -2.96279 0
M  V30 6141 C 600.352 2.11886 -2.7568 0
M  V30 6142 H 599.675 1.80813 -3.56576 0
M  V30 6143 H 601.115 2.78077 -3.20077 0
M  V30 6144 C 599.574 2.89739 -1.7191 0
M  V30 6145 O 600.104 3.84522 -1.16213 0
M  V30 6146 N 598.31 2.53407 -1.42245 0
M  V30 6147 H 597.857 1.76398 -1.87727 0
M  V30 6148 H 597.815 3.05795 -0.730529 0
M  V30 6149 N 601.587 1.56661 0.17182 0
M  V30 6150 C 602.835 1.81606 0.886774 0
M  V30 6151 C 603.156 0.678818 1.82803 0
M  V30 6152 O 602.426 -0.301354 1.93568 0
M  V30 6153 H 601.006 0.669934 0.330451 0
M  V30 6154 H 603.668 1.94142 0.171757 0
M  V30 6155 H 602.764 2.75634 1.46398 0
M  V30 6156 N 603.065 -0.440357 1.51323 0
M  V30 6157 C 604.481 -0.7766 1.39431 0
M  V30 6158 C 604.681 -1.95838 0.474296 0
M  V30 6159 O 603.737 -2.52398 -0.0716692 0
M  V30 6160 C 605.05 -1.05981 2.81405 0
M  V30 6161 C 606.598 -1.16442 2.90534 0
M  V30 6162 C 607.073 -1.48058 4.33408 0
M  V30 6163 N 608.564 -1.54988 4.36501 0
M  V30 6164 C 609.299 -1.81017 5.44078 0
M  V30 6165 N 608.795 -2.04858 6.61819 0
M  V30 6166 N 610.588 -1.82774 5.31554 0
M  V30 6167 H 602.739 0.338006 2.09693 0
M  V30 6168 H 605.002 0.0888072 0.943831 0
M  V30 6169 H 604.708 -0.264173 3.50706 0
M  V30 6170 H 604.582 -1.98822 3.20546 0
M  V30 6171 H 606.969 -1.95068 2.21432 0
M  V30 6172 H 607.05 -0.215088 2.54894 0
M  V30 6173 H 606.694 -0.699605 5.03059 0
M  V30 6174 H 606.624 -2.44192 4.66559 0
M  V30 6175 H 609.115 -1.38479 3.51613 0
M  V30 6176 H 609.428 -2.2408 7.396 0
M  V30 6177 H 607.773 -2.02187 6.6494 0
M  V30 6178 H 610.964 -1.63665 4.38556 0
M  V30 6179 H 611.137 -2.02722 6.15474 0
M  V30 6180 N 604.543 -1.41418 -0.695603 0
M  V30 6181 C 605.768 -1.44329 -1.48942 0
M  V30 6182 C 606.193 -0.0501579 -1.88033 0
M  V30 6183 O 605.551 0.946598 -1.54626 0
M  V30 6184 C 605.599 -2.3578 -2.72837 0
M  V30 6185 O 604.703 -1.81482 -3.70322 0
M  V30 6186 H 604.044 -0.489838 -0.44828 0
M  V30 6187 H 606.574 -1.85878 -0.855014 0
M  V30 6188 H 606.584 -2.51654 -3.21145 0
M  V30 6189 H 605.259 -3.37005 -2.43722 0
M  V30 6190 H 603.836 -1.75058 -3.29255 0
M  V30 6191 N 606.021 0.929856 -1.27246 0
M  V30 6192 C 607.249 1.71144 -1.16265 0
M  V30 6193 C 607.664 1.867 0.280786 0
M  V30 6194 O 607.021 1.38249 1.19136 0
M  V30 6195 C 607.072 3.11222 -1.83911 0
M  V30 6196 O 606.793 2.96398 -3.22614 0
M  V30 6197 C 608.294 4.05541 -1.79028 0
M  V30 6198 H 605.514 0.535499 -0.404328 0
M  V30 6199 H 608.058 1.16492 -1.68077 0
M  V30 6200 H 606.213 3.6274 -1.36009 0
M  V30 6201 H 606.627 3.8494 -3.56261 0
M  V30 6202 H 608.101 5.01351 -2.30978 0
M  V30 6203 H 608.578 4.32589 -0.759168 0
M  V30 6204 H 609.184 3.59947 -2.26535 0
M  V30 6205 N 607.499 1.09233 1.13605 0
M  V30 6206 C 608.747 0.825525 1.84471 0
M  V30 6207 C 609.068 -0.650702 1.83823 0
M  V30 6208 O 608.338 -1.47204 1.29259 0
M  V30 6209 H 606.918 0.3024 0.683054 0
M  V30 6210 H 609.58 1.38006 1.37624 0
M  V30 6211 H 608.676 1.17727 2.89045 0
M  V30 6212 N 608.977 -1.30795 0.87923 0
M  V30 6213 C 609.907 -2.30742 0.357796 0
M  V30 6214 C 610.888 -1.60747 -0.556283 0
M  V30 6215 O 612.073 -1.88393 -0.47135 0
M  V30 6216 C 609.203 -3.44583 -0.433555 0
M  V30 6217 C 608.157 -4.26235 0.388251 0
M  V30 6218 C 607.483 -5.32073 -0.529352 0
M  V30 6219 C 608.783 -4.96303 1.62729 0
M  V30 6220 H 610.477 -2.74605 1.19299 0
M  V30 6221 H 608.023 -1.32017 0.575104 0
M  V30 6222 H 609.976 -4.13563 -0.808934 0
M  V30 6223 H 608.7 -2.99511 -1.30234 0
M  V30 6224 H 607.359 -3.58936 0.745695 0
M  V30 6225 H 607.007 -4.83249 -1.39569 0
M  V30 6226 H 606.707 -5.87598 0.0166741 0
M  V30 6227 H 608.231 -6.0391 -0.901373 0
M  V30 6228 H 609.645 -5.5783 1.32283 0
M  V30 6229 H 608.042 -5.61666 2.11309 0
M  V30 6230 H 609.112 -4.22758 2.37494 0
M  V30 6231 N 610.455 -0.639598 -1.44038 0
M  V30 6232 C 611.403 0.0723409 -2.32487 0
M  V30 6233 C 612.397 0.827129 -1.47834 0
M  V30 6234 O 613.603 0.73907 -1.64127 0
M  V30 6235 H 609.978 0.0421696 -0.750817 0
M  V30 6236 H 611.949 -0.691593 -2.90275 0
M  V30 6237 C 610.698 1.03452 -3.31953 0
M  V30 6238 H 610.021 0.46315 -3.97108 0
M  V30 6239 H 611.461 1.502 -3.96505 0
M  V30 6240 C 609.92 2.12392 -2.61518 0
M  V30 6241 O 610.45 3.2059 -2.42044 0
M  V30 6242 N 608.656 1.88563 -2.21116 0
M  V30 6243 H 608.203 1.00577 -2.37154 0
M  V30 6244 H 608.161 2.61651 -1.74316 0
M  V30 6245 N 611.933 1.52934 -0.380664 0
M  V30 6246 C 612.896 2.24809 0.446473 0
M  V30 6247 C 613.896 1.26133 0.997347 0
M  V30 6248 O 615.086 1.50297 0.880714 0
M  V30 6249 C 612.218 2.99649 1.62553 0
M  V30 6250 H 613.411 2.99343 -0.182677 0
M  V30 6251 H 610.964 1.55736 -0.132618 0
M  V30 6252 H 611.699 2.29395 2.29235 0
M  V30 6253 H 611.484 3.72066 1.23732 0
M  V30 6254 H 612.974 3.54246 2.21133 0
M  V30 6255 N 613.412 0.11024 1.57214 0
M  V30 6256 C 614.658 -0.550684 1.9518 0
M  V30 6257 C 614.991 -1.66885 0.993122 0
M  V30 6258 O 614.266 -1.94479 0.0287907 0
M  V30 6259 C 614.549 -1.09163 3.43155 0
M  V30 6260 C 614.402 0.0225198 4.49794 0
M  V30 6261 C 615.721 -1.98527 3.92778 0
M  V30 6262 H 612.84 -0.198706 0.709708 0
M  V30 6263 H 615.482 0.184024 1.89107 0
M  V30 6264 H 613.632 -1.71775 3.48462 0
M  V30 6265 H 615.304 0.657443 4.56591 0
M  V30 6266 H 613.547 0.686868 4.28328 0
M  V30 6267 H 614.218 -0.39706 5.5057 0
M  V30 6268 H 616.694 -1.458 3.8972 0
M  V30 6269 H 615.57 -2.33298 4.96853 0
M  V30 6270 H 615.831 -2.90846 3.32958 0
M  V30 6271 N 614.89 -1.56749 -0.16351 0
M  V30 6272 C 616.301 -1.72039 -0.725216 0
M  V30 6273 C 616.652 -0.72202 -1.82432 0
M  V30 6274 O 615.777 0.114942 -2.16095 0
M  V30 6275 C 616.372 -3.11932 -1.32227 0
M  V30 6276 C 614.931 -3.28879 -1.83072 0
M  V30 6277 C 614.078 -2.67984 -0.712716 0
M  V30 6278 H 617.029 -1.58579 0.0619772 0
M  V30 6279 H 617.05 -3.11015 -2.19202 0
M  V30 6280 H 616.562 -3.84572 -0.522103 0
M  V30 6281 H 614.663 -2.61209 -2.65708 0
M  V30 6282 H 614.776 -4.36688 -1.97079 0
M  V30 6283 H 613.14 -2.28005 -1.13515 0
M  V30 6284 H 613.923 -3.43216 0.0757361 0
M  V30 6285 N 616.368 0.432326 -1.51554 0
M  V30 6286 C 617.593 1.20824 -1.68571 0
M  V30 6287 C 618.018 1.84126 -0.384596 0
M  V30 6288 O 617.376 1.69025 0.655751 0
M  V30 6289 C 617.424 2.26429 -2.80646 0
M  V30 6290 O 616.528 3.32032 -2.44598 0
M  V30 6291 H 615.869 0.353765 -0.561913 0
M  V30 6292 H 618.399 0.509916 -1.98144 0
M  V30 6293 H 618.409 2.71133 -3.04878 0
M  V30 6294 H 617.084 1.79733 -3.75058 0
M  V30 6295 H 615.661 2.92769 -2.30956 0
M  V30 6296 N 617.846 1.41785 0.688094 0
M  V30 6297 C 618.778 1.40159 1.81351 0
M  V30 6298 C 619.791 0.30262 1.59963 0
M  V30 6299 O 620.98 0.564841 1.69327 0
M  V30 6300 C 618.08 1.16517 3.1824 0
M  V30 6301 C 617.253 2.38597 3.66593 0
M  V30 6302 C 616.312 2.10699 4.82174 0
M  V30 6303 O 615.338 2.83798 4.93404 0
M  V30 6304 N 616.54 1.10187 5.69947 0
M  V30 6305 H 619.305 2.3716 1.83236 0
M  V30 6306 H 616.866 1.36494 0.870697 0
M  V30 6307 H 618.858 0.957941 3.93199 0
M  V30 6308 H 617.428 0.280873 3.11336 0
M  V30 6309 H 616.648 2.74974 2.82459 0
M  V30 6310 H 617.936 3.19919 3.95638 0
M  V30 6311 H 617.334 0.497016 5.63512 0
M  V30 6312 H 615.891 0.954518 6.44773 0
M  V30 6313 N 619.324 -0.923095 1.27737 0
M  V30 6314 C 620.573 -1.66581 1.13727 0
M  V30 6315 C 620.886 -1.9304 -0.315433 0
M  V30 6316 O 622.092 -2.65309 -0.57651 0
M  V30 6317 C 620.548 -3.00047 1.98745 0
M  V30 6318 C 620.156 -2.8127 3.48699 0
M  V30 6319 C 621.9 -3.77887 1.93395 0
M  V30 6320 C 619.807 -4.1032 4.25901 0
M  V30 6321 H 618.737 -0.624834 0.422017 0
M  V30 6322 H 621.388 -1.02514 1.52194 0
M  V30 6323 H 619.77 -3.65197 1.53125 0
M  V30 6324 H 620.944 -2.24859 4.02213 0
M  V30 6325 H 619.259 -2.16854 3.55476 0
M  V30 6326 H 621.856 -4.73526 2.48348 0
M  V30 6327 H 622.199 -4.06264 0.908605 0
M  V30 6328 H 622.732 -3.19541 2.36935 0
M  V30 6329 H 619.471 -3.8712 5.28978 0
M  V30 6330 H 618.991 -4.66377 3.77163 0
M  V30 6331 H 620.67 -4.78648 4.35321 0
M  V30 6332 N 620.802 -1.09834 -1.13024 0
M  V30 6333 C 621.732 -0.763451 -2.20666 0
M  V30 6334 C 622.713 0.260778 -1.68089 0
M  V30 6335 O 623.898 0.127915 -1.93778 0
M  V30 6336 C 621.028 -0.187744 -3.46792 0
M  V30 6337 C 619.982 -1.14196 -4.12484 0
M  V30 6338 C 619.308 -0.427755 -5.32986 0
M  V30 6339 C 620.608 -2.48607 -4.59338 0
M  V30 6340 H 622.302 -1.66347 -2.48936 0
M  V30 6341 H 619.848 -0.801261 -1.19649 0
M  V30 6342 H 621.801 0.0586375 -4.21359 0
M  V30 6343 H 620.525 0.747485 -3.17931 0
M  V30 6344 H 619.184 -1.37369 -3.3989 0
M  V30 6345 H 618.832 0.511747 -5.0039 0
M  V30 6346 H 618.532 -1.06403 -5.77886 0
M  V30 6347 H 620.056 -0.189772 -6.10305 0
M  V30 6348 H 621.47 -2.29618 -5.25308 0
M  V30 6349 H 619.867 -3.08062 -5.14993 0
M  V30 6350 H 620.937 -3.09062 -3.73642 0
M  V30 6351 N 622.28 1.30327 -0.886154 0
M  V30 6352 C 623.19 2.31854 -0.357866 0
M  V30 6353 C 624.206 1.65392 0.540502 0
M  V30 6354 O 625.382 1.96683 0.433339 0
M  V30 6355 C 622.447 3.44171 0.417999 0
M  V30 6356 C 621.508 4.26257 -0.510263 0
M  V30 6357 C 620.741 5.3321 0.228669 0
M  V30 6358 O 620.964 5.51542 1.45458 0
M  V30 6359 O 619.898 6.0042 -0.421832 0
M  V30 6360 H 623.724 2.78995 -1.19982 0
M  V30 6361 H 621.309 1.34518 -0.650028 0
M  V30 6362 H 623.191 4.12588 0.857251 0
M  V30 6363 H 621.866 2.99164 1.23623 0
M  V30 6364 H 620.773 3.60533 -0.99835 0
M  V30 6365 H 622.106 4.74871 -1.29454 0
M  V30 6366 N 623.758 0.647228 1.43697 0
M  V30 6367 C 625.006 0.157876 2.01482 0
M  V30 6368 C 625.327 -1.23039 1.51282 0
M  V30 6369 O 624.597 -1.82071 0.722982 0
M  V30 6370 H 623.177 0.0553745 0.744945 0
M  V30 6371 H 625.839 0.83755 1.75986 0
M  V30 6372 H 624.935 0.137895 3.11795 0
M  V30 6373 N 625.236 -1.5273 0.388769 0
M  V30 6374 C 626.168 -2.24081 -0.481704 0
M  V30 6375 C 627.181 -1.26307 -1.02715 0
M  V30 6376 O 628.37 -1.52386 -0.929565 0
M  V30 6377 C 625.47 -2.94315 -1.68024 0
M  V30 6378 C 624.643 -4.18791 -1.26226 0
M  V30 6379 C 623.702 -4.72028 -2.32542 0
M  V30 6380 O 622.728 -5.35129 -1.93972 0
M  V30 6381 N 623.93 -4.51838 -3.64448 0
M  V30 6382 H 626.695 -2.9942 0.129591 0
M  V30 6383 H 624.256 -1.60465 0.2151 0
M  V30 6384 H 626.248 -3.26831 -2.38671 0
M  V30 6385 H 624.818 -2.22287 -2.19789 0
M  V30 6386 H 624.038 -3.92318 -0.384703 0
M  V30 6387 H 625.326 -4.99668 -0.959647 0
M  V30 6388 H 624.724 -4.01468 -3.98547 0
M  V30 6389 H 623.281 -4.88845 -4.31131 0
M  V30 6390 N 626.714 -0.118576 -1.57153 0
M  V30 6391 C 627.96 0.534078 -1.96263 0
M  V30 6392 C 628.315 1.64316 -1.0009 0
M  V30 6393 O 627.608 1.91575 -0.0308582 0
M  V30 6394 C 627.802 1.11303 -3.39627 0
M  V30 6395 C 627.631 0.0615624 -4.49658 0
M  V30 6396 C 626.401 -0.370103 -5.03943 0
M  V30 6397 C 628.599 -0.719249 -5.09246 0
M  V30 6398 N 626.581 -1.40738 -5.9755 0
M  V30 6399 C 627.952 -1.60774 -5.98792 0
M  V30 6400 C 630.007 -0.770183 -4.91907 0
M  V30 6401 C 628.71 -2.54272 -6.72858 0
M  V30 6402 C 630.736 -1.69288 -5.66653 0
M  V30 6403 C 630.098 -2.56894 -6.55885 0
M  V30 6404 H 626.197 0.165072 -0.764379 0
M  V30 6405 H 628.781 -0.206596 -1.93601 0
M  V30 6406 H 626.952 1.82342 -3.42937 0
M  V30 6407 H 628.684 1.72996 -3.65861 0
M  V30 6408 H 625.439 0.0222121 -4.73595 0
M  V30 6409 H 625.863 -1.92493 -6.49057 0
M  V30 6410 H 630.505 -0.106999 -4.22665 0
M  V30 6411 H 628.223 -3.21605 -7.41347 0
M  V30 6412 H 631.809 -1.73772 -5.55243 0
M  V30 6413 H 630.689 -3.27131 -7.1271 0
M  V30 6414 N 628.193 1.56834 0.155195 0
M  V30 6415 C 629.156 1.96748 1.17571 0
M  V30 6416 C 630.156 0.853006 1.3631 0
M  V30 6417 O 631.346 1.11978 1.33441 0
M  V30 6418 C 628.478 2.27631 2.53765 0
M  V30 6419 H 629.671 2.88085 0.833498 0
M  V30 6420 H 627.224 1.51141 0.398242 0
M  V30 6421 H 627.959 1.39059 2.92973 0
M  V30 6422 H 627.744 3.0888 2.41527 0
M  V30 6423 H 629.234 2.59377 3.27282 0
M  V30 6424 N 629.671 -0.424282 1.51781 0
M  V30 6425 C 630.634 -1.49848 1.73431 0
M  V30 6426 C 631.634 -1.49016 0.604225 0
M  V30 6427 O 632.824 -1.50808 0.871935 0
M  V30 6428 C 629.956 -2.89332 1.80277 0
M  V30 6429 H 631.149 -1.3195 2.69312 0
M  V30 6430 H 628.702 -0.653809 1.41968 0
M  V30 6431 H 629.437 -3.12618 0.862568 0
M  V30 6432 H 629.222 -2.9134 2.62419 0
M  V30 6433 H 630.712 -3.67233 1.98821 0
M  V30 6434 N 631.149 -1.42148 -0.680565 0
M  V30 6435 C 632.565 -1.24947 -0.992995 0
M  V30 6436 C 632.765 -0.149527 -2.00944 0
M  V30 6437 O 631.821 0.481145 -2.47873 0
M  V30 6438 C 633.134 -2.60426 -1.5033 0
M  V30 6439 C 634.682 -2.67733 -1.62137 0
M  V30 6440 C 635.157 -4.03564 -2.16565 0
M  V30 6441 N 636.648 -4.05488 -2.23905 0
M  V30 6442 C 637.383 -5.07401 -2.67081 0
M  V30 6443 N 636.879 -6.19698 -3.09751 0
M  V30 6444 N 638.672 -4.94758 -2.66778 0
M  V30 6445 H 630.823 -2.12399 -0.0074788 0
M  V30 6446 H 633.086 -0.94571 -0.0658529 0
M  V30 6447 H 632.792 -3.41743 -0.830947 0
M  V30 6448 H 632.666 -2.83949 -2.483 0
M  V30 6449 H 635.053 -1.86765 -2.2848 0
M  V30 6450 H 635.134 -2.48004 -0.626713 0
M  V30 6451 H 634.778 -4.84987 -1.50833 0
M  V30 6452 H 634.708 -4.20641 -3.1681 0
M  V30 6453 H 637.199 -3.24415 -1.93812 0
M  V30 6454 H 637.512 -6.93318 -3.41365 0
M  V30 6455 H 635.857 -6.23212 -3.07623 0
M  V30 6456 H 639.048 -4.06105 -2.32801 0
M  V30 6457 H 639.221 -5.74317 -3.00107 0
M  V30 6458 N 632.627 0.916307 -1.28225 0
M  V30 6459 C 633.852 1.7043 -1.18188 0
M  V30 6460 C 634.277 1.86346 0.256274 0
M  V30 6461 O 633.635 1.37175 1.18544 0
M  V30 6462 C 633.683 3.07546 -1.88275 0
M  V30 6463 O 632.787 3.94904 -1.18848 0
M  V30 6464 H 632.128 0.521967 -0.410423 0
M  V30 6465 H 634.658 1.14589 -1.69501 0
M  V30 6466 H 634.668 3.57793 -1.96082 0
M  V30 6467 H 633.343 2.95279 -2.92887 0
M  V30 6468 H 631.92 3.53339 -1.19187 0
M  V30 6469 N 634.105 1.10431 1.1244 0
M  V30 6470 C 635.038 0.696987 2.17296 0
M  V30 6471 C 636.016 -0.301673 1.59777 0
M  V30 6472 O 637.2 -0.200583 1.8743 0
M  V30 6473 C 634.327 0.0284094 3.38688 0
M  V30 6474 C 633.373 0.990536 4.14838 0
M  V30 6475 S 634.206 2.50785 4.73146 0
M  V30 6476 C 635.362 1.85198 5.97873 0
M  V30 6477 H 635.595 1.58523 2.51511 0
M  V30 6478 H 633.128 0.921312 1.239 0
M  V30 6479 H 635.086 -0.351009 4.08997 0
M  V30 6480 H 633.747 -0.836629 3.02753 0
M  V30 6481 H 632.94 0.469991 5.01804 0
M  V30 6482 H 632.542 1.31186 3.50237 0
M  V30 6483 H 634.834 1.18217 6.67106 0
M  V30 6484 H 635.777 2.7012 6.54554 0
M  V30 6485 H 636.185 1.31653 5.48933 0
M  V30 6486 N 635.583 -1.29855 0.893053 0
M  V30 6487 C 636.994 -1.77946 0.564998 0
M  V30 6488 C 637.345 -1.73339 -0.919134 0
M  V30 6489 O 636.47 -1.3152 -1.71847 0
M  V30 6490 C 637.065 -3.23118 1.01883 0
M  V30 6491 C 635.624 -3.69013 0.742051 0
M  V30 6492 C 634.771 -2.50121 1.19727 0
M  V30 6493 H 637.722 -1.16611 1.07646 0
M  V30 6494 H 637.743 -3.78875 0.351249 0
M  V30 6495 H 637.255 -3.26439 2.09903 0
M  V30 6496 H 635.356 -3.71173 -0.325816 0
M  V30 6497 H 635.469 -4.60117 1.33527 0
M  V30 6498 H 633.833 -2.47128 0.616418 0
M  V30 6499 H 634.616 -2.56174 2.28538 0
M  V30 6500 N 637.061 -0.65484 -1.43351 0
M  V30 6501 C 638.472 -0.248506 -1.85039 0
M  V30 6502 C 638.823 1.20526 -1.54816 0
M  V30 6503 O 637.948 1.92016 -0.99794 0
M  V30 6504 C 638.543 -0.444241 -3.35875 0
M  V30 6505 C 637.102 -0.0922108 -3.76287 0
M  V30 6506 C 636.249 -0.746327 -2.67068 0
M  V30 6507 H 639.2 -0.8584 -1.33481 0
M  V30 6508 H 639.221 0.309762 -3.79237 0
M  V30 6509 H 638.733 -1.50239 -3.5784 0
M  V30 6510 H 636.834 0.96328 -3.59933 0
M  V30 6511 H 636.947 -0.518807 -4.76283 0
M  V30 6512 H 635.311 -0.179416 -2.54067 0
M  V30 6513 H 636.094 -1.80754 -2.91861 0
M  V30 6514 N 638.539 1.52521 -0.396863 0
M  V30 6515 C 639.764 2.06571 0.185258 0
M  V30 6516 C 640.189 1.26605 1.39115 0
M  V30 6517 O 639.547 0.293055 1.78916 0
M  V30 6518 C 639.595 3.5674 0.526189 0
M  V30 6519 O 638.699 3.7929 1.61903 0
M  V30 6520 H 638.04 0.663712 0.0195474 0
M  V30 6521 H 640.57 1.966 -0.566519 0
M  V30 6522 H 640.58 4.00311 0.788338 0
M  V30 6523 H 639.255 4.14379 -0.355397 0
M  V30 6524 H 637.832 3.47605 1.35 0
M  V30 6525 N 640.017 0.126909 1.57088 0
M  V30 6526 C 641.264 -0.529168 1.95464 0
M  V30 6527 C 641.592 -1.6618 1.01067 0
M  V30 6528 O 640.847 -1.95667 0.0360254 0
M  V30 6529 C 641.146 -1.095 3.40212 0
M  V30 6530 C 640.812 -0.0829015 4.50824 0
M  V30 6531 C 639.474 0.195377 4.80803 0
M  V30 6532 C 641.826 0.606411 5.1766 0
M  V30 6533 C 639.154 1.16912 5.74933 0
M  V30 6534 C 641.506 1.56884 6.12838 0
M  V30 6535 C 640.17 1.85502 6.41206 0
M  V30 6536 H 639.44 -0.193636 0.715252 0
M  V30 6537 H 642.087 0.209489 1.90351 0
M  V30 6538 H 640.392 -1.91058 3.42059 0
M  V30 6539 H 642.089 -1.61087 3.67222 0
M  V30 6540 H 638.679 -0.309979 4.27478 0
M  V30 6541 H 642.863 0.404597 4.94648 0
M  V30 6542 H 638.119 1.3975 5.95214 0
M  V30 6543 H 642.293 2.10859 6.6371 0
M  V30 6544 H 639.92 2.61109 7.13951 0
M  V30 6545 N 641.495 -1.56914 -0.146875 0
M  V30 6546 C 642.743 -1.82994 -0.85777 0
M  V30 6547 C 643.064 -0.707814 -1.817 0
M  V30 6548 O 642.334 0.270521 -1.94023 0
M  V30 6549 H 640.914 -0.675106 -0.319751 0
M  V30 6550 H 643.576 -1.9439 -0.140849 0
M  V30 6551 H 642.672 -2.77928 -1.41994 0
M  V30 6552 N 642.974 0.416227 -1.52004 0
M  V30 6553 C 644.204 1.18401 -1.69307 0
M  V30 6554 C 644.612 1.84943 -0.399072 0
M  V30 6555 O 643.955 1.72406 0.634177 0
M  V30 6556 C 644.017 2.29465 -2.76742 0
M  V30 6557 C 643.681 1.83117 -4.18709 0
M  V30 6558 C 644.678 1.32286 -5.02789 0
M  V30 6559 C 642.363 1.90167 -4.64911 0
M  V30 6560 C 644.357 0.891178 -6.31139 0
M  V30 6561 C 642.044 1.4661 -5.93253 0
M  V30 6562 C 643.042 0.961696 -6.76196 0
M  V30 6563 O 642.73 0.532388 -8.02135 0
M  V30 6564 H 642.462 0.362098 -0.570843 0
M  V30 6565 H 645.016 0.496764 -1.99302 0
M  V30 6566 H 643.246 3.01531 -2.42107 0
M  V30 6567 H 644.935 2.91252 -2.82713 0
M  V30 6568 H 645.701 1.26218 -4.68288 0
M  V30 6569 H 641.58 2.28371 -4.00459 0
M  V30 6570 H 645.124 0.496788 -6.95829 0
M  V30 6571 H 641.021 1.52355 -6.27263 0
M  V30 6572 H 641.789 0.656339 -8.15864 0
M  V30 6573 N 644.452 1.42507 0.673017 0
M  V30 6574 C 645.677 1.4668 1.46627 0
M  V30 6575 C 646.102 0.080066 1.8793 0
M  V30 6576 O 645.46 -0.921879 1.56112 0
M  V30 6577 C 645.508 2.40091 2.69051 0
M  V30 6578 O 644.612 1.8735 3.67387 0
M  V30 6579 H 643.953 0.496908 0.44043 0
M  V30 6580 H 646.483 1.87215 0.825334 0
M  V30 6581 H 646.493 2.56731 3.17101 0
M  V30 6582 H 645.168 3.4084 2.3833 0
M  V30 6583 H 643.745 1.80274 3.26429 0
M  V30 6584 N 645.93 -0.909495 1.28709 0
M  V30 6585 C 646.863 -2.01388 1.07323 0
M  V30 6586 C 647.841 -1.62596 -0.0119757 0
M  V30 6587 O 649.025 -1.88003 0.136796 0
M  V30 6588 C 646.152 -3.32755 0.631797 0
M  V30 6589 C 645.198 -3.90532 1.71428 0
M  V30 6590 S 646.031 -4.20853 3.31124 0
M  V30 6591 C 647.187 -5.55276 2.88825 0
M  V30 6592 H 647.42 -2.19219 2.00824 0
M  V30 6593 H 644.953 -1.05489 1.12745 0
M  V30 6594 H 646.911 -4.08702 0.38381 0
M  V30 6595 H 645.572 -3.12818 -0.283451 0
M  V30 6596 H 644.765 -4.85385 1.35712 0
M  V30 6597 H 644.367 -3.21237 1.91528 0
M  V30 6598 H 646.659 -6.35341 2.3526 0
M  V30 6599 H 647.602 -5.95907 3.82492 0
M  V30 6600 H 648.01 -5.16666 2.27412 0
M  V30 6601 N 647.408 -1.11026 -1.11852 0
M  V30 6602 C 648.355 -0.764662 -2.17765 0
M  V30 6603 C 649.325 0.261854 -1.64023 0
M  V30 6604 O 650.51 0.139748 -1.90288 0
M  V30 6605 C 647.65 -0.209317 -3.44465 0
M  V30 6606 C 646.763 -1.29187 -4.12231 0
M  V30 6607 C 645.898 -0.697523 -5.266 0
M  V30 6608 C 644.937 -1.76023 -5.86244 0
M  V30 6609 N 644.074 -1.18569 -6.92016 0
M  V30 6610 H 648.914 -1.67202 -2.46673 0
M  V30 6611 H 646.451 -0.835065 -1.21099 0
M  V30 6612 H 648.409 0.130599 -4.16996 0
M  V30 6613 H 647.039 0.661251 -3.15955 0
M  V30 6614 H 646.091 -1.74881 -3.37818 0
M  V30 6615 H 647.403 -2.09607 -4.52622 0
M  V30 6616 H 646.557 -0.307412 -6.05921 0
M  V30 6617 H 645.296 0.138044 -4.87505 0
M  V30 6618 H 644.301 -2.1597 -5.05606 0
M  V30 6619 H 645.526 -2.59875 -6.27409 0
M  V30 6620 H 643.472 -0.371695 -6.54946 0
M  V30 6621 H 643.389 -1.92666 -7.31038 0
M  V30 6622 H 644.657 -0.82233 -7.7515 0
M  V30 6623 N 648.886 1.2938 -0.899927 0
M  V30 6624 C 650.134 1.95164 -0.524924 0
M  V30 6625 C 650.455 1.71292 0.931888 0
M  V30 6626 O 649.725 1.04481 1.65712 0
M  V30 6627 H 648.305 0.722133 -0.191135 0
M  V30 6628 H 650.967 1.57628 -1.14627 0
M  V30 6629 H 650.063 3.0397 -0.707711 0
M  V30 6630 N 650.364 0.662433 1.43002 0
M  V30 6631 C 651.327 -0.0142016 2.29196 0
M  V30 6632 C 652.327 -0.741394 1.42688 0
M  V30 6633 O 653.517 -0.581257 1.64216 0
M  V30 6634 C 650.649 -1.03084 3.24941 0
M  V30 6635 H 651.842 0.7443 2.90517 0
M  V30 6636 H 649.395 0.424133 1.50435 0
M  V30 6637 H 650.13 -1.81826 2.68533 0
M  V30 6638 H 649.915 -0.512946 3.8873 0
M  V30 6639 H 651.405 -1.50308 3.89612 0
M  V30 6640 N 651.842 -1.52309 0.404946 0
M  V30 6641 C 653.07 -2.06185 -0.171818 0
M  V30 6642 C 653.485 -1.27536 -1.39212 0
M  V30 6643 O 652.842 -0.326112 -1.79563 0
M  V30 6644 C 652.893 -3.57647 -0.526417 0
M  V30 6645 O 652.614 -4.3332 0.645417 0
M  V30 6646 C 654.115 -4.27925 -1.15736 0
M  V30 6647 H 651.335 -0.670632 -0.0222328 0
M  V30 6648 H 653.879 -1.96259 0.574692 0
M  V30 6649 H 652.034 -3.67595 -1.22282 0
M  V30 6650 H 652.448 -5.23328 0.35042 0
M  V30 6651 H 653.922 -5.35093 -1.35572 0
M  V30 6652 H 654.399 -3.84134 -2.12926 0
M  V30 6653 H 655.005 -4.22335 -0.501281 0
M  V30 6654 N 653.32 -0.135238 -1.57019 0
M  V30 6655 C 654.597 0.563227 -1.87316 0
M  V30 6656 C 654.977 1.83749 -1.03921 0
M  V30 6657 O 654.325 2.2817 -0.122675 0
M  V30 6658 C 654.535 0.840031 -3.3874 0
M  V30 6659 C 655.883 1.18598 -4.077 0
M  V30 6660 O 656.907 0.92977 -3.43851 0
M  V30 6661 O 655.766 1.66758 -5.20436 0
M  V30 6662 H 652.86 0.285971 -0.775983 0
M  V30 6663 H 655.406 -0.170965 -1.68837 0
M  V30 6664 H 654.178 -0.0622785 -3.9125 0
M  V30 6665 H 653.801 1.62882 -3.62706 0
M  V30 6666 N 654.798 1.5699 0.138552 0
M  V30 6667 C 656.047 1.82998 0.848205 0
M  V30 6668 C 656.36 0.717829 1.81952 0
M  V30 6669 O 657.566 0.863756 2.57394 0
M  V30 6670 C 656.022 3.24379 1.55904 0
M  V30 6671 C 655.63 4.43552 0.62971 0
M  V30 6672 C 657.374 3.59654 2.25498 0
M  V30 6673 C 655.281 5.75957 1.34266 0
M  V30 6674 H 654.211 0.682495 0.320495 0
M  V30 6675 H 656.862 1.83222 0.100924 0
M  V30 6676 H 655.244 3.18567 2.35226 0
M  V30 6677 H 656.418 4.6062 -0.128882 0
M  V30 6678 H 654.733 4.16379 0.0417526 0
M  V30 6679 H 657.33 4.55837 2.79493 0
M  V30 6680 H 657.673 2.86124 3.02388 0
M  V30 6681 H 658.206 3.67164 1.53087 0
M  V30 6682 H 654.945 6.52604 0.615441 0
M  V30 6683 H 654.465 5.62811 2.07375 0
M  V30 6684 H 656.144 6.19046 1.88126 0
M  V30 6685 N 656.276 -0.40816 1.52223 0
M  V30 6686 C 657.553 -1.16807 1.56893 0
M  V30 6687 C 657.933 -2.08169 0.350537 0
M  V30 6688 O 657.281 -2.18684 -0.662536 0
M  V30 6689 C 657.491 -1.94451 2.8981 0
M  V30 6690 C 658.839 -2.50484 3.42845 0
M  V30 6691 O 659.863 -2.0463 2.91556 0
M  V30 6692 O 658.722 -3.34192 4.3241 0
M  V30 6693 H 655.816 -0.533382 0.632007 0
M  V30 6694 H 658.362 -0.414862 1.64551 0
M  V30 6695 H 657.134 -1.27527 3.69936 0
M  V30 6696 H 656.757 -2.76775 2.85449 0
M  V30 6697 N 657.755 -1.42862 -0.66545 0
M  V30 6698 C 658.702 -1.4707 -1.77874 0
M  V30 6699 C 659.672 -0.321654 -1.62956 0
M  V30 6700 O 660.857 -0.52707 -1.83376 0
M  V30 6701 C 657.997 -1.38788 -3.15962 0
M  V30 6702 C 657.11 -2.63801 -3.42101 0
M  V30 6703 C 656.245 -2.47594 -4.69969 0
M  V30 6704 C 655.284 -3.67936 -4.89172 0
M  V30 6705 N 654.421 -3.50614 -6.08288 0
M  V30 6706 H 659.261 -2.42204 -1.73613 0
M  V30 6707 H 656.798 -1.20239 -0.847401 0
M  V30 6708 H 658.756 -1.31982 -3.95773 0
M  V30 6709 H 657.386 -0.472431 -3.19324 0
M  V30 6710 H 656.438 -2.80935 -2.56475 0
M  V30 6711 H 657.75 -3.53228 -3.52181 0
M  V30 6712 H 656.904 -2.38427 -5.57886 0
M  V30 6713 H 655.643 -1.55672 -4.62188 0
M  V30 6714 H 654.648 -3.77525 -3.99694 0
M  V30 6715 H 655.873 -4.60851 -4.98792 0
M  V30 6716 H 653.819 -2.61417 -6.01662 0
M  V30 6717 H 653.736 -4.33634 -6.19272 0
M  V30 6718 H 655.004 -3.45276 -6.98859 0
M  V30 6719 N 659.233 0.902656 -1.29189 0
M  V30 6720 C 660.181 2.0278 -1.13943 0
M  V30 6721 C 661.175 1.69308 -0.055787 0
M  V30 6722 O 662.381 1.78707 -0.215371 0
M  V30 6723 H 658.756 0.664595 -0.351877 0
M  V30 6724 H 660.727 2.12778 -2.09208 0
M  V30 6725 C 659.476 3.37657 -0.82966 0
M  V30 6726 H 658.799 3.63913 -1.65551 0
M  V30 6727 H 660.239 4.17078 -0.762998 0
M  V30 6728 C 658.698 3.33648 0.466991 0
M  V30 6729 O 659.228 3.72886 1.49395 0
M  V30 6730 N 657.434 2.86745 0.471761 0
M  V30 6731 H 656.981 2.55009 -0.364406 0
M  V30 6732 H 656.939 2.84446 1.33933 0
M  V30 6733 N 660.711 1.11618 1.11262 0
M  V30 6734 C 661.959 0.864469 1.82678 0
M  V30 6735 C 662.28 -0.611564 1.85162 0
M  V30 6736 O 661.55 -1.44429 1.32352 0
M  V30 6737 H 660.13 0.316821 0.676486 0
M  V30 6738 H 662.792 1.40894 1.34666 0
M  V30 6739 H 661.888 1.23832 2.86482 0
M  V30 6740 N 662.189 -1.289 0.906776 0
M  V30 6741 C 663.419 -1.99112 0.551168 0
M  V30 6742 C 663.827 -1.67998 -0.870243 0
M  V30 6743 O 663.17 -0.92525 -1.58697 0
M  V30 6744 C 663.232 -3.53162 0.672065 0
M  V30 6745 C 662.896 -4.07849 2.06174 0
M  V30 6746 C 663.893 -4.22212 3.0337 0
M  V30 6747 C 661.578 -4.4271 2.37304 0
M  V30 6748 C 663.572 -4.70678 4.29815 0
M  V30 6749 C 661.259 -4.90871 3.6399 0
M  V30 6750 C 662.257 -5.04811 4.6006 0
M  V30 6751 O 661.945 -5.51925 5.84495 0
M  V30 6752 H 661.677 -0.642728 0.209469 0
M  V30 6753 H 664.231 -1.65234 1.22012 0
M  V30 6754 H 662.461 -3.86662 -0.05394 0
M  V30 6755 H 664.15 -4.046 0.324579 0
M  V30 6756 H 664.916 -3.9556 2.80637 0
M  V30 6757 H 660.795 -4.31114 1.63283 0
M  V30 6758 H 664.339 -4.81474 5.04806 0
M  V30 6759 H 660.236 -5.16961 3.86551 0
M  V30 6760 H 661.004 -5.70225 5.87185 0
M  V30 6761 N 663.667 -0.670007 -1.42649 0
M  V30 6762 C 665.078 -0.268118 -1.84765 0
M  V30 6763 C 665.429 1.18877 -1.56086 0
M  V30 6764 O 664.554 1.90947 -1.01825 0
M  V30 6765 C 665.149 -0.47984 -3.35385 0
M  V30 6766 C 663.708 -0.132116 -3.76168 0
M  V30 6767 C 662.855 -0.774611 -2.66261 0
M  V30 6768 H 665.806 -0.872509 -1.32563 0
M  V30 6769 H 665.827 0.269522 -3.79544 0
M  V30 6770 H 665.339 -1.54026 -3.56227 0
M  V30 6771 H 663.44 0.92505 -3.60934 0
M  V30 6772 H 663.553 -0.569294 -4.75706 0
M  V30 6773 H 661.917 -0.206353 -2.53863 0
M  V30 6774 H 662.7 -1.83839 -2.89928 0
M  V30 6775 N 665.145 1.52092 -0.413018 0
M  V30 6776 C 666.422 1.94356 0.22024 0
M  V30 6777 C 666.802 1.35017 1.62277 0
M  V30 6778 O 666.15 0.527511 2.22328 0
M  V30 6779 C 666.36 3.48289 0.222638 0
M  V30 6780 C 667.708 4.22313 0.440098 0
M  V30 6781 O 668.732 3.54919 0.301826 0
M  V30 6782 O 667.591 5.41829 0.712984 0
M  V30 6783 H 664.685 0.814536 0.14304 0
M  V30 6784 H 667.231 1.63083 -0.469242 0
M  V30 6785 H 666.003 3.83872 -0.758836 0
M  V30 6786 H 665.626 3.85934 0.956057 0
M  V30 6787 N 666.623 0.143563 1.56945 0
M  V30 6788 C 667.553 -0.7936 2.196 0
M  V30 6789 C 668.534 -1.25955 1.14321 0
M  V30 6790 O 669.719 -1.31773 1.42651 0
M  V30 6791 C 666.849 -2.03424 2.81489 0
M  V30 6792 C 665.803 -1.70519 3.92565 0
M  V30 6793 C 665.129 -3.01817 4.41373 0
M  V30 6794 C 666.429 -0.95449 5.13504 0
M  V30 6795 H 668.123 -0.271423 2.98167 0
M  V30 6796 H 665.669 -0.12911 1.4342 0
M  V30 6797 H 667.622 -2.69463 3.23987 0
M  V30 6798 H 666.346 -2.58008 2.00248 0
M  V30 6799 H 665.005 -1.06859 3.5068 0
M  V30 6800 H 664.653 -3.54386 3.56959 0
M  V30 6801 H 664.353 -2.80565 5.16292 0
M  V30 6802 H 665.877 -3.68934 4.86539 0
M  V30 6803 H 667.291 -1.5169 5.52868 0
M  V30 6804 H 665.688 -0.842035 5.94163 0
M  V30 6805 H 666.758 0.0544033 4.84869 0
M  V30 6806 N 668.101 -1.57061 -0.130224 0
M  V30 6807 C 669.35 -1.83446 -0.838488 0
M  V30 6808 C 669.663 -0.727468 -1.81569 0
M  V30 6809 O 670.869 -0.877394 -2.56932 0
M  V30 6810 C 669.325 -3.25201 -1.54182 0
M  V30 6811 C 668.933 -4.4388 -0.606178 0
M  V30 6812 C 670.677 -3.60844 -2.23588 0
M  V30 6813 C 668.584 -5.76661 -1.31209 0
M  V30 6814 H 667.514 -0.684185 -0.316871 0
M  V30 6815 H 670.165 -1.83273 -0.0912059 0
M  V30 6816 H 668.547 -3.1981 -2.33533 0
M  V30 6817 H 669.721 -4.60545 0.153308 0
M  V30 6818 H 668.036 -4.16395 -0.0196705 0
M  V30 6819 H 670.633 -4.57313 -2.77072 0
M  V30 6820 H 670.976 -2.87724 -3.00867 0
M  V30 6821 H 671.509 -3.67971 -1.51137 0
M  V30 6822 H 668.248 -6.52922 -0.580823 0
M  V30 6823 H 667.768 -5.63902 -2.04387 0
M  V30 6824 H 669.447 -6.20035 -1.8484 0
M  V30 6825 N 669.579 0.400081 -1.52437 0
M  V30 6826 C 670.825 1.14788 -1.67187 0
M  V30 6827 C 671.158 1.89928 -0.405074 0
M  V30 6828 O 670.433 1.85118 0.596804 0
M  V30 6829 C 670.716 2.13507 -2.89977 0
M  V30 6830 C 670.569 1.42204 -4.2673 0
M  V30 6831 C 671.888 3.14069 -3.083 0
M  V30 6832 H 669.007 0.415939 -0.608411 0
M  V30 6833 H 671.649 0.432542 -1.85011 0
M  V30 6834 H 669.799 2.7451 -2.74912 0
M  V30 6835 H 671.471 0.842503 -4.53541 0
M  V30 6836 H 669.714 0.723939 -4.27717 0
M  V30 6837 H 670.385 2.14281 -5.08712 0
M  V30 6838 H 672.861 2.63148 -3.22323 0
M  V30 6839 H 671.737 3.80398 -3.95713 0
M  V30 6840 H 671.998 3.82309 -2.22018 0
M  V30 6841 N 671.057 1.43213 0.657864 0
M  V30 6842 C 672.305 1.44298 1.41501 0
M  V30 6843 C 672.626 0.0666478 1.94886 0
M  V30 6844 O 671.896 -0.897345 1.74139 0
M  V30 6845 H 670.476 0.531257 0.525143 0
M  V30 6846 H 673.138 1.78777 0.776195 0
M  V30 6847 H 672.234 2.1528 2.25966 0
M  V30 6848 N 672.536 -0.895792 1.29666 0
M  V30 6849 C 673.499 -1.98189 1.15124 0
M  V30 6850 C 674.499 -1.60572 0.0855717 0
M  V30 6851 O 675.689 -1.70991 0.332826 0
M  V30 6852 C 672.821 -3.32289 0.761372 0
M  V30 6853 H 674.014 -2.12518 2.11603 0
M  V30 6854 H 671.567 -1.0808 1.12908 0
M  V30 6855 H 672.302 -3.23662 -0.203393 0
M  V30 6856 H 672.087 -3.60958 1.53139 0
M  V30 6857 H 673.577 -4.1198 0.682792 0
M  V30 6858 N 674.014 -1.12206 -1.10668 0
M  V30 6859 C 675.261 -0.875875 -1.82578 0
M  V30 6860 C 675.589 0.598342 -1.85068 0
M  V30 6861 O 674.844 1.45818 -1.3052 0
M  V30 6862 C 675.143 -1.39276 -3.29146 0
M  V30 6863 C 674.809 -2.8816 -3.46806 0
M  V30 6864 C 673.471 -3.28813 -3.51334 0
M  V30 6865 C 675.823 -3.8401 -3.52399 0
M  V30 6866 C 673.151 -4.64028 -3.59019 0
M  V30 6867 C 675.503 -5.19053 -3.61617 0
M  V30 6868 C 674.167 -5.59252 -3.64408 0
M  V30 6869 H 673.437 -0.320505 -0.6681 0
M  V30 6870 H 676.084 -1.40184 -1.30464 0
M  V30 6871 H 674.389 -0.787207 -3.8381 0
M  V30 6872 H 676.086 -1.17851 -3.83291 0
M  V30 6873 H 672.676 -2.55716 -3.43958 0
M  V30 6874 H 676.86 -3.53698 -3.48154 0
M  V30 6875 H 672.116 -4.94568 -3.59461 0
M  V30 6876 H 676.29 -5.93152 -3.64889 0
M  V30 6877 H 673.917 -6.64017 -3.70116 0
M  V30 6878 N 675.492 1.28418 -0.913599 0
M  V30 6879 C 676.74 1.94596 -0.545594 0
M  V30 6880 C 677.061 1.7227 0.913668 0
M  V30 6881 O 676.331 1.06233 1.64595 0
M  V30 6882 H 674.911 0.720065 -0.198783 0
M  V30 6883 H 677.573 1.56404 -1.16292 0
M  V30 6884 H 676.669 3.03202 -0.739911 0
M  V30 6885 N 676.97 0.677563 1.42291 0
M  V30 6886 C 678.216 0.201272 2.01799 0
M  V30 6887 C 678.549 -1.19004 1.53465 0
M  V30 6888 O 677.824 -1.79953 0.738039 0
M  V30 6889 C 678.107 0.238968 3.59306 0
M  V30 6890 C 677.96 1.66594 4.17812 0
M  V30 6891 C 679.279 -0.411287 4.38174 0
M  V30 6892 H 676.398 0.0746114 0.733214 0
M  V30 6893 H 679.04 0.862872 1.69276 0
M  V30 6894 H 677.19 -0.324368 3.87144 0
M  V30 6895 H 678.862 2.28173 4.00917 0
M  V30 6896 H 677.105 2.20576 3.73536 0
M  V30 6897 H 677.776 1.64398 5.26951 0
M  V30 6898 H 680.252 0.0682804 4.16044 0
M  V30 6899 H 679.128 -0.354286 5.47755 0
M  V30 6900 H 679.389 -1.4893 4.1626 0
M  V30 6901 N 678.448 -1.51871 0.421078 0
M  V30 6902 C 679.725 -1.9447 -0.20993 0
M  V30 6903 C 680.105 -1.35875 -1.61558 0
M  V30 6904 O 679.453 -0.539294 -2.22045 0
M  V30 6905 C 679.663 -3.48402 -0.204165 0
M  V30 6906 C 681.011 -4.2254 -0.417696 0
M  V30 6907 O 682.035 -3.55074 -0.282999 0
M  V30 6908 O 680.894 -5.422 -0.684239 0
M  V30 6909 H 677.988 -0.815283 -0.138718 0
M  V30 6910 H 680.534 -1.62832 0.477884 0
M  V30 6911 H 679.306 -3.83464 0.779183 0
M  V30 6912 H 678.929 -3.86436 -0.935576 0
M  V30 6913 N 679.926 -0.151884 -1.56866 0
M  V30 6914 C 681.342 0.204486 -1.58285 0
M  V30 6915 C 681.542 1.6431 -1.16639 0
M  V30 6916 O 680.598 2.37077 -0.868946 0
M  V30 6917 C 681.911 -0.0587019 -3.00643 0
M  V30 6918 C 683.459 0.00462303 -3.13 0
M  V30 6919 C 683.934 -0.231297 -4.57416 0
M  V30 6920 N 685.425 -0.178394 -4.62856 0
M  V30 6921 C 686.16 -0.335379 -5.72418 0
M  V30 6922 N 685.656 -0.550355 -6.90611 0
M  V30 6923 N 687.449 -0.272641 -5.61438 0
M  V30 6924 H 679.6 -1.09116 -1.82229 0
M  V30 6925 H 681.863 -0.432311 -0.843689 0
M  V30 6926 H 681.569 -1.05453 -3.35518 0
M  V30 6927 H 681.443 0.658508 -3.71407 0
M  V30 6928 H 683.83 0.991009 -2.77962 0
M  V30 6929 H 683.911 -0.744992 -2.44711 0
M  V30 6930 H 683.555 -1.2148 -4.93158 0
M  V30 6931 H 683.485 0.5387 -5.23837 0
M  V30 6932 H 685.976 -0.0170923 -3.77896 0
M  V30 6933 H 686.289 -0.660116 -7.69976 0
M  V30 6934 H 684.634 -0.586736 -6.92519 0
M  V30 6935 H 687.825 -0.105421 -4.67981 0
M  V30 6936 H 687.998 -0.398418 -6.46774 0
M  V30 6937 N 681.404 1.57128 0.121893 0
M  V30 6938 C 682.367 1.99197 1.13372 0
M  V30 6939 C 683.367 0.881728 1.3447 0
M  V30 6940 O 684.557 1.14783 1.31036 0
M  V30 6941 C 681.689 2.32963 2.4888 0
M  V30 6942 H 682.882 2.89788 0.772204 0
M  V30 6943 H 680.435 1.51952 0.366093 0
M  V30 6944 H 681.17 1.45243 2.89957 0
M  V30 6945 H 680.955 3.13934 2.34921 0
M  V30 6946 H 682.445 2.66261 3.21706 0
M  V30 6947 N 682.882 -0.391992 1.52647 0
M  V30 6948 C 684.131 -1.13449 1.6677 0
M  V30 6949 C 684.444 -1.91203 0.412399 0
M  V30 6950 O 685.65 -2.68013 0.433707 0
M  V30 6951 C 684.106 -2.06577 2.9471 0
M  V30 6952 C 683.714 -1.3426 4.27409 0
M  V30 6953 C 685.458 -2.80981 3.18198 0
M  V30 6954 C 683.365 -2.26136 5.46458 0
M  V30 6955 H 682.295 -0.427211 0.621295 0
M  V30 6956 H 684.946 -0.397522 1.79142 0
M  V30 6957 H 683.328 -2.83898 2.76076 0
M  V30 6958 H 684.502 -0.621856 4.56585 0
M  V30 6959 H 682.817 -0.718279 4.10158 0
M  V30 6960 H 685.414 -3.49898 4.04321 0
M  V30 6961 H 685.757 -3.44891 2.33144 0
M  V30 6962 H 686.29 -2.10754 3.37383 0
M  V30 6963 H 683.029 -1.66846 6.33911 0
M  V30 6964 H 682.549 -2.96134 5.21598 0
M  V30 6965 H 684.228 -2.86286 5.80215 0
M  V30 6966 N 684.36 -1.4356 -0.65026 0
M  V30 6967 C 685.29 -1.51758 -1.77459 0
M  V30 6968 C 686.271 -0.372019 -1.65982 0
M  V30 6969 O 687.456 -0.589627 -1.85033 0
M  V30 6970 C 684.586 -1.44302 -3.15902 0
M  V30 6971 C 683.54 -2.57138 -3.42146 0
M  V30 6972 C 682.866 -2.34735 -4.8042 0
M  V30 6973 C 684.166 -3.99373 -3.36598 0
M  V30 6974 H 685.86 -2.45863 -1.70855 0
M  V30 6975 H 683.406 -1.18333 -0.820566 0
M  V30 6976 H 685.359 -1.48641 -3.94314 0
M  V30 6977 H 684.083 -0.467026 -3.23244 0
M  V30 6978 H 682.742 -2.52157 -2.66106 0
M  V30 6979 H 682.39 -1.35372 -4.84441 0
M  V30 6980 H 682.09 -3.10375 -4.9894 0
M  V30 6981 H 683.614 -2.40862 -5.61086 0
M  V30 6982 H 685.028 -4.05826 -4.04942 0
M  V30 6983 H 683.425 -4.75063 -3.66654 0
M  V30 6984 H 684.495 -4.243 -2.34729 0
M  V30 6985 N 685.838 0.888903 -1.30139 0
M  V30 6986 C 687.068 1.67115 -1.21474 0
M  V30 6987 C 687.476 1.87852 0.225472 0
M  V30 6988 O 686.819 1.42324 1.16145 0
M  V30 6989 C 686.881 3.0713 -1.86846 0
M  V30 6990 C 686.545 3.09582 -3.36167 0
M  V30 6991 C 687.542 2.88929 -4.32222 0
M  V30 6992 C 685.227 3.31304 -3.77549 0
M  V30 6993 C 687.221 2.89949 -5.67634 0
M  V30 6994 C 684.908 3.31954 -5.13079 0
M  V30 6995 C 685.906 3.113 -6.07932 0
M  V30 6996 O 685.594 3.11758 -7.40987 0
M  V30 6997 H 685.326 0.528372 -0.421662 0
M  V30 6998 H 687.88 1.11919 -1.7223 0
M  V30 6999 H 686.11 3.63973 -1.30615 0
M  V30 7000 H 687.799 3.6749 -1.72354 0
M  V30 7001 H 688.565 2.71948 -4.01584 0
M  V30 7002 H 684.444 3.46417 -3.04165 0
M  V30 7003 H 687.988 2.73746 -6.41645 0
M  V30 7004 H 683.885 3.48469 -5.43359 0
M  V30 7005 H 684.653 3.27951 -7.49927 0
M  V30 7006 N 687.317 1.12792 1.10072 0
M  V30 7007 C 688.733 0.864745 1.34143 0
M  V30 7008 C 688.933 -0.503201 1.95116 0
M  V30 7009 O 687.989 -1.25111 2.19325 0
M  V30 7010 C 689.302 1.98413 2.25949 0
M  V30 7011 C 690.85 2.01545 2.39476 0
M  V30 7012 C 691.325 3.12727 3.34613 0
M  V30 7013 N 692.816 3.12194 3.42183 0
M  V30 7014 C 693.551 3.94862 4.15779 0
M  V30 7015 N 693.047 4.87528 4.92228 0
M  V30 7016 N 694.84 3.82985 4.11435 0
M  V30 7017 H 686.991 2.00926 0.68866 0
M  V30 7018 H 689.254 0.874564 0.365844 0
M  V30 7019 H 688.96 2.97005 1.88364 0
M  V30 7020 H 688.834 1.89254 3.26287 0
M  V30 7021 H 691.221 1.0357 2.76328 0
M  V30 7022 H 691.302 2.14777 1.3894 0
M  V30 7023 H 690.946 4.10936 2.98486 0
M  V30 7024 H 690.876 2.96732 4.35037 0
M  V30 7025 H 693.367 2.45065 2.87666 0
M  V30 7026 H 693.68 5.47109 5.45794 0
M  V30 7027 H 692.025 4.91539 4.9134 0
M  V30 7028 H 695.216 3.09923 3.50807 0
M  V30 7029 H 695.389 4.47641 4.68531 0
M  V30 7030 N 688.795 -1.27931 0.920396 0
M  V30 7031 C 689.758 -2.25345 0.41858 0
M  V30 7032 C 690.758 -1.54116 -0.458798 0
M  V30 7033 O 691.948 -1.72235 -0.260912 0
M  V30 7034 C 689.08 -3.38556 -0.399104 0
M  V30 7035 H 690.273 -2.71251 1.27918 0
M  V30 7036 H 687.826 -1.39728 0.700406 0
M  V30 7037 H 688.561 -2.98021 -1.27882 0
M  V30 7038 H 688.346 -3.91426 0.229863 0
M  V30 7039 H 689.836 -4.10976 -0.740817 0
M  V30 7040 N 690.273 -0.685099 -1.4193 0
M  V30 7041 C 691.689 -0.355632 -1.55587 0
M  V30 7042 C 691.889 1.13823 -1.66273 0
M  V30 7043 O 690.945 1.92387 -1.63534 0
M  V30 7044 C 692.258 -1.09498 -2.80055 0
M  V30 7045 C 693.806 -1.07831 -2.93839 0
M  V30 7046 C 694.281 -1.79919 -4.21181 0
M  V30 7047 N 695.772 -1.76837 -4.28115 0
M  V30 7048 C 696.507 -2.29463 -5.25485 0
M  V30 7049 N 696.003 -2.90516 -6.28945 0
M  V30 7050 N 697.796 -2.19779 -5.17353 0
M  V30 7051 H 689.947 -1.65412 -1.33239 0
M  V30 7052 H 692.21 -0.697453 -0.642078 0
M  V30 7053 H 691.916 -2.14997 -2.78333 0
M  V30 7054 H 691.79 -0.666813 -3.71259 0
M  V30 7055 H 694.177 -0.0316152 -2.95083 0
M  V30 7056 H 694.258 -1.54545 -2.03837 0
M  V30 7057 H 693.902 -2.84562 -4.20698 0
M  V30 7058 H 693.832 -1.30647 -5.10136 0
M  V30 7059 H 696.323 -1.32315 -3.53979 0
M  V30 7060 H 696.636 -3.28266 -6.99615 0
M  V30 7061 H 694.981 -2.94589 -6.29478 0
M  V30 7062 H 698.172 -1.71763 -4.35448 0
M  V30 7063 H 698.345 -2.61097 -5.9307 0
M  V30 7064 N 691.751 1.51645 -0.429126 0
M  V30 7065 C 693.162 1.86665 0.0359003 0
M  V30 7066 C 693.513 1.34677 1.42676 0
M  V30 7067 O 692.638 0.694195 2.04963 0
M  V30 7068 C 693.233 3.38724 0.0719221 0
M  V30 7069 C 691.792 3.7331 0.481336 0
M  V30 7070 C 690.939 2.75313 -0.331329 0
M  V30 7071 H 693.89 1.44987 -0.645333 0
M  V30 7072 H 693.911 3.7011 0.883118 0
M  V30 7073 H 693.423 3.76532 -0.940495 0
M  V30 7074 H 691.524 3.41088 1.49966 0
M  V30 7075 H 691.637 4.78631 0.211837 0
M  V30 7076 H 690.001 2.53839 0.209204 0
M  V30 7077 H 690.784 3.15963 -1.34247 0
M  V30 7078 N 693.229 0.160201 1.56784 0
M  V30 7079 C 694.475 -0.48831 1.96833 0
M  V30 7080 C 694.808 -1.63641 1.04571 0
M  V30 7081 O 694.083 -1.94289 0.0906481 0
M  V30 7082 C 694.366 -0.981908 3.46454 0
M  V30 7083 C 694.219 0.165607 4.49495 0
M  V30 7084 C 695.538 -1.85931 3.98896 0
M  V30 7085 H 692.657 -0.176027 0.71567 0
M  V30 7086 H 695.299 0.244093 1.88426 0
M  V30 7087 H 693.449 -1.60602 3.5375 0
M  V30 7088 H 695.121 0.802372 4.54268 0
M  V30 7089 H 693.364 0.822789 4.25926 0
M  V30 7090 H 694.035 -0.221699 5.51555 0
M  V30 7091 H 696.511 -1.33327 3.94161 0
M  V30 7092 H 695.387 -2.17373 5.04024 0
M  V30 7093 H 695.648 -2.80106 3.42042 0
M  V30 7094 N 694.707 -1.5719 -0.113559 0
M  V30 7095 C 695.956 -1.84325 -0.818984 0
M  V30 7096 C 696.269 -0.746685 -1.80787 0
M  V30 7097 O 697.475 -0.904596 -2.55987 0
M  V30 7098 C 695.931 -3.26818 -1.50724 0
M  V30 7099 C 695.539 -4.44498 -0.559065 0
M  V30 7100 C 697.283 -3.63196 -2.19748 0
M  V30 7101 C 695.19 -5.7802 -1.25086 0
M  V30 7102 H 694.12 -0.687507 -0.309596 0
M  V30 7103 H 696.771 -1.8336 -0.0717621 0
M  V30 7104 H 695.153 -3.22269 -2.30128 0
M  V30 7105 H 696.327 -4.60356 0.202146 0
M  V30 7106 H 694.642 -4.16393 0.024495 0
M  V30 7107 H 697.239 -4.60226 -2.72206 0
M  V30 7108 H 697.582 -2.90899 -2.97798 0
M  V30 7109 H 698.115 -3.69553 -1.47226 0
M  V30 7110 H 694.854 -6.53501 -0.511539 0
M  V30 7111 H 694.374 -5.66038 -1.98395 0
M  V30 7112 H 696.053 -6.2196 -1.78253 0
M  V30 7113 N 696.185 0.383891 -1.52853 0
M  V30 7114 C 697.413 1.1495 -1.7203 0
M  V30 7115 C 697.828 1.83578 -0.440957 0
M  V30 7116 O 697.185 1.72872 0.584925 0
M  V30 7117 C 697.236 2.19368 -2.87333 0
M  V30 7118 O 696.957 1.53536 -4.10315 0
M  V30 7119 C 698.458 3.08616 -3.18231 0
M  V30 7120 H 695.678 0.344445 -0.575846 0
M  V30 7121 H 698.222 0.448397 -1.99524 0
M  V30 7122 H 696.377 2.85105 -2.62286 0
M  V30 7123 H 696.791 2.2296 -4.74752 0
M  V30 7124 H 698.265 3.77902 -4.02361 0
M  V30 7125 H 698.742 3.72409 -2.32826 0
M  V30 7126 H 699.348 2.48518 -3.45136 0
M  V30 7127 N 697.663 1.43903 0.642637 0
M  V30 7128 C 698.909 1.46296 1.40447 0
M  V30 7129 C 699.242 0.0908361 1.93987 0
M  V30 7130 O 698.517 -0.889884 1.72949 0
M  V30 7131 C 698.8 2.51399 2.57819 0
M  V30 7132 C 698.653 3.97926 2.09702 0
M  V30 7133 C 699.972 2.53125 3.60022 0
M  V30 7134 H 697.091 0.532676 0.509338 0
M  V30 7135 H 699.733 1.75515 0.727635 0
M  V30 7136 H 697.883 2.26614 3.1556 0
M  V30 7137 H 699.555 4.33804 1.5688 0
M  V30 7138 H 697.798 4.10252 1.40982 0
M  V30 7139 H 698.469 4.67096 2.94152 0
M  V30 7140 H 700.945 2.75242 3.12059 0
M  V30 7141 H 699.821 3.28589 4.39682 0
M  V30 7142 H 700.082 1.56895 4.13324 0
M  V30 7143 N 699.141 -0.881989 1.30609 0
M  V30 7144 C 700.089 -2.00942 1.17155 0
M  V30 7145 C 701.083 -1.69198 0.0827154 0
M  V30 7146 O 702.289 -1.78342 0.243775 0
M  V30 7147 H 698.664 -0.658913 0.362406 0
M  V30 7148 H 700.635 -2.09423 2.12567 0
M  V30 7149 C 699.384 -3.36294 0.883273 0
M  V30 7150 H 698.707 -3.61233 1.7132 0
M  V30 7151 H 700.147 -4.15812 0.829255 0
M  V30 7152 C 698.606 -3.34348 -0.413851 0
M  V30 7153 O 699.136 -3.75216 -1.43444 0
M  V30 7154 N 697.342 -2.87459 -0.426082 0
M  V30 7155 H 696.889 -2.54397 0.40493 0
M  V30 7156 H 696.847 -2.8654 -1.29391 0
M  V30 7157 N 700.619 -1.13374 -1.09472 0
M  V30 7158 C 701.582 -0.813639 -2.14272 0
M  V30 7159 C 702.582 0.176677 -1.59826 0
M  V30 7160 O 703.772 -0.0503441 -1.74127 0
M  V30 7161 C 700.904 -0.210897 -3.40247 0
M  V30 7162 H 702.097 -1.74229 -2.44099 0
M  V30 7163 H 699.65 -0.938304 -1.25002 0
M  V30 7164 H 700.385 0.726998 -3.16046 0
M  V30 7165 H 700.17 -0.924048 -3.81056 0
M  V30 7166 H 701.66 -0.00377603 -4.176 0
M  V30 7167 N 702.098 1.27442 -0.927168 0
M  V30 7168 C 703.346 1.94007 -0.566203 0
M  V30 7169 C 703.667 1.7323 0.895345 0
M  V30 7170 O 702.937 1.07973 1.63459 0
M  V30 7171 H 701.517 0.717917 -0.206409 0
M  V30 7172 H 704.179 1.55161 -1.17945 0
M  V30 7173 H 703.275 3.02401 -0.772028 0
M  V30 7174 N 703.576 0.692616 1.41565 0
M  V30 7175 C 704.506 0.0397325 2.33466 0
M  V30 7176 C 705.487 -0.770334 1.51657 0
M  V30 7177 O 706.672 -0.723903 1.80203 0
M  V30 7178 C 703.802 -0.899495 3.3545 0
M  V30 7179 C 702.756 -0.196738 4.27548 0
M  V30 7180 C 702.082 -1.25012 5.19881 0
M  V30 7181 C 703.382 0.935158 5.1386 0
M  V30 7182 H 705.076 0.807296 2.88311 0
M  V30 7183 H 702.622 0.389665 1.38628 0
M  V30 7184 H 704.575 -1.36545 3.98665 0
M  V30 7185 H 703.299 -1.69869 2.78948 0
M  V30 7186 H 701.958 0.249158 3.65752 0
M  V30 7187 H 701.606 -2.04177 4.59696 0
M  V30 7188 H 701.306 -0.784931 5.82334 0
M  V30 7189 H 702.83 -1.71665 5.85972 0
M  V30 7190 H 704.244 0.549619 5.70659 0
M  V30 7191 H 702.641 1.32726 5.85238 0
M  V30 7192 H 703.711 1.77613 4.512 0
M  V30 7193 N 705.054 -1.51416 0.437162 0
M  V30 7194 C 705.964 -2.31493 -0.380537 0
M  V30 7195 C 706.98 -1.40399 -1.02782 0
M  V30 7196 O 708.156 -1.73471 -1.02323 0
M  V30 7197 C 705.221 -3.1413 -1.46709 0
M  V30 7198 C 704.282 -4.21003 -0.839953 0
M  V30 7199 C 703.515 -4.9969 -1.87473 0
M  V30 7200 O 703.738 -4.79008 -3.09689 0
M  V30 7201 O 702.672 -5.8379 -1.46536 0
M  V30 7202 H 706.498 -3.02469 0.273183 0
M  V30 7203 H 704.083 -1.48059 0.199706 0
M  V30 7204 H 705.965 -3.65505 -2.09724 0
M  V30 7205 H 704.64 -2.45919 -2.10489 0
M  V30 7206 H 703.547 -3.73706 -0.171752 0
M  V30 7207 H 704.88 -4.91587 -0.245638 0
M  V30 7208 N 706.532 -0.168513 -1.56696 0
M  V30 7209 C 707.778 0.477865 -1.9709 0
M  V30 7210 C 708.111 1.63084 -1.05438 0
M  V30 7211 O 707.386 1.94238 -0.10095 0
M  V30 7212 C 707.669 0.963521 -3.4697 0
M  V30 7213 C 707.522 -0.189443 -4.49401 0
M  V30 7214 C 708.841 1.83813 -3.99876 0
M  V30 7215 H 705.96 0.172229 -0.716593 0
M  V30 7216 H 708.602 -0.254083 -1.88293 0
M  V30 7217 H 706.752 1.58724 -3.54597 0
M  V30 7218 H 708.424 -0.826451 -4.53836 0
M  V30 7219 H 706.667 -0.845366 -4.25483 0
M  V30 7220 H 707.338 0.192446 -5.51664 0
M  V30 7221 H 709.814 1.31235 -3.94863 0
M  V30 7222 H 708.69 2.14697 -5.0517 0
M  V30 7223 H 708.951 2.78289 -3.43523 0
M  V30 7224 N 708.01 1.57248 0.105221 0
M  V30 7225 C 709.24 1.89492 0.823175 0
M  V30 7226 C 709.648 0.75934 1.73294 0
M  V30 7227 O 708.991 -0.278182 1.81581 0
M  V30 7228 C 709.053 3.16891 1.69765 0
M  V30 7229 C 708.717 4.46787 0.960769 0
M  V30 7230 C 709.714 5.19061 0.295218 0
M  V30 7231 C 707.399 4.93467 0.937854 0
M  V30 7232 C 709.393 6.36246 -0.383393 0
M  V30 7233 C 707.08 6.10566 0.255452 0
M  V30 7234 C 708.078 6.81804 -0.404003 0
M  V30 7235 O 707.766 7.96673 -1.07549 0
M  V30 7236 H 707.498 0.631512 0.24118 0
M  V30 7237 H 710.052 2.05203 0.0899655 0
M  V30 7238 H 708.282 2.973 2.47285 0
M  V30 7239 H 709.971 3.35046 2.29126 0
M  V30 7240 H 710.737 4.84044 0.304448 0
M  V30 7241 H 706.616 4.37913 1.44058 0
M  V30 7242 H 710.16 6.91787 -0.898696 0
M  V30 7243 H 706.057 6.45039 0.244032 0
M  V30 7244 H 706.825 8.12596 -0.981355 0
M  V30 7245 N 709.488 -0.375779 1.53054 0
M  V30 7246 C 710.899 -0.95309 1.6054 0
M  V30 7247 C 711.25 -1.90575 0.466446 0
M  V30 7248 O 710.375 -2.12507 -0.408609 0
M  V30 7249 C 710.97 -1.73537 2.90982 0
M  V30 7250 C 709.529 -2.26218 3.00836 0
M  V30 7251 C 708.676 -1.07157 2.55759 0
M  V30 7252 H 711.627 -0.154895 1.57942 0
M  V30 7253 H 711.648 -2.59574 2.78211 0
M  V30 7254 H 711.16 -1.04176 3.73857 0
M  V30 7255 H 709.261 -2.98852 2.22527 0
M  V30 7256 H 709.374 -2.54799 4.05727 0
M  V30 7257 H 707.738 -1.43553 2.10391 0
M  V30 7258 H 708.521 -0.393099 3.41042 0
M  V30 7259 N 710.966 -1.44241 -0.634997 0
M  V30 7260 C 712.191 -1.50516 -1.42687 0
M  V30 7261 C 712.616 -0.129864 -1.87651 0
M  V30 7262 O 711.974 0.880164 -1.58502 0
M  V30 7263 C 712.022 -2.4714 -2.62591 0
M  V30 7264 O 711.126 -1.97025 -3.62291 0
M  V30 7265 H 710.467 -0.50841 -0.427101 0
M  V30 7266 H 712.997 -1.89337 -0.775408 0
M  V30 7267 H 713.007 -2.65048 -3.10183 0
M  V30 7268 H 711.682 -3.47039 -2.29209 0
M  V30 7269 H 710.259 -1.88866 -3.21534 0
M  V30 7270 N 712.444 0.87505 -1.31075 0
M  V30 7271 C 713.693 1.62245 -1.19831 0
M  V30 7272 C 714.006 1.94078 0.24357 0
M  V30 7273 O 715.212 2.67265 0.477646 0
M  V30 7274 C 713.668 2.92464 -2.09744 0
M  V30 7275 C 713.276 2.68134 -3.58898 0
M  V30 7276 C 715.02 3.70449 -2.07287 0
M  V30 7277 C 712.927 3.9423 -4.40836 0
M  V30 7278 H 711.857 0.608741 -0.444916 0
M  V30 7279 H 714.508 0.967947 -1.55894 0
M  V30 7280 H 712.89 3.59262 -1.66574 0
M  V30 7281 H 714.064 2.09776 -4.10281 0
M  V30 7282 H 712.379 2.03511 -3.6328 0
M  V30 7283 H 714.976 4.63983 -2.65752 0
M  V30 7284 H 715.319 4.02611 -1.05876 0
M  V30 7285 H 715.852 3.10528 -2.48631 0
M  V30 7286 H 712.591 3.67221 -5.42982 0
M  V30 7287 H 712.111 4.52058 -3.94213 0
M  V30 7288 H 713.79 4.62162 -4.52786 0
M  V30 7289 N 713.922 1.13953 1.08869 0
M  V30 7290 C 714.852 0.844824 2.17681 0
M  V30 7291 C 715.833 -0.198213 1.68941 0
M  V30 7292 O 717.018 -0.0559073 1.9412 0
M  V30 7293 C 714.148 0.316325 3.45856 0
M  V30 7294 C 713.102 1.29426 4.07962 0
M  V30 7295 C 712.428 0.625275 5.31031 0
M  V30 7296 C 713.728 2.65484 4.49795 0
M  V30 7297 H 715.422 1.75471 2.42591 0
M  V30 7298 H 712.968 0.845116 1.16592 0
M  V30 7299 H 714.921 0.0977876 4.21287 0
M  V30 7300 H 713.645 -0.628972 3.20486 0
M  V30 7301 H 712.304 1.49889 3.34558 0
M  V30 7302 H 711.952 -0.325678 5.01945 0
M  V30 7303 H 711.652 1.27777 5.73539 0
M  V30 7304 H 713.176 0.416152 6.0918 0
M  V30 7305 H 714.59 2.48957 5.16424 0
M  V30 7306 H 712.987 3.26963 5.03205 0
M  V30 7307 H 714.057 3.22717 3.61914 0
M  V30 7308 N 715.4 -1.26948 0.933913 0
M  V30 7309 C 716.348 -2.2862 0.428463 0
M  V30 7310 C 717.342 -1.62144 -0.490464 0
M  V30 7311 O 718.548 -1.76167 -0.36948 0
M  V30 7312 H 714.923 -0.742363 0.120003 0
M  V30 7313 H 716.894 -2.68659 1.29865 0
M  V30 7314 C 715.643 -3.46423 -0.29774 0
M  V30 7315 H 714.966 -3.97792 0.400183 0
M  V30 7316 H 716.406 -4.19505 -0.615736 0
M  V30 7317 C 714.865 -3.01017 -1.51295 0
M  V30 7318 O 715.395 -3.05226 -2.61151 0
M  V30 7319 N 713.601 -2.56442 -1.36696 0
M  V30 7320 H 713.148 -2.53217 -0.473178 0
M  V30 7321 H 713.106 -2.26424 -2.18127 0
M  V30 7322 N 716.879 -0.700114 -1.41195 0
M  V30 7323 C 717.811 0.00155823 -2.292 0
M  V30 7324 C 718.824 0.739736 -1.45023 0
M  V30 7325 O 720.013 0.589684 -1.68478 0
M  V30 7326 C 717.113 1.02635 -3.22985 0
M  V30 7327 C 716.286 0.356871 -4.35942 0
M  V30 7328 C 715.345 1.28491 -5.10271 0
M  V30 7329 O 714.371 0.775562 -5.63892 0
M  V30 7330 N 715.573 2.61699 -5.18164 0
M  V30 7331 H 718.338 -0.754008 -2.9006 0
M  V30 7332 H 715.899 -0.546504 -1.52397 0
M  V30 7333 H 717.891 1.64902 -3.6958 0
M  V30 7334 H 716.461 1.68341 -2.63401 0
M  V30 7335 H 715.681 -0.445753 -3.91672 0
M  V30 7336 H 716.969 -0.108469 -5.08684 0
M  V30 7337 H 716.367 3.05594 -4.76056 0
M  V30 7338 H 714.924 3.19149 -5.6832 0
M  V30 7339 N 718.357 1.51182 -0.445186 0
M  V30 7340 C 719.634 1.9478 0.178965 0
M  V30 7341 C 720.014 1.38428 1.59376 0
M  V30 7342 O 719.362 0.574552 2.21159 0
M  V30 7343 C 719.572 3.48683 0.148711 0
M  V30 7344 C 720.92 4.23152 0.35042 0
M  V30 7345 O 721.944 3.55479 0.226474 0
M  V30 7346 O 720.803 5.4322 0.597893 0
M  V30 7347 H 717.897 0.817387 0.12573 0
M  V30 7348 H 720.443 1.62051 -0.503729 0
M  V30 7349 H 719.215 3.82176 -0.84009 0
M  V30 7350 H 718.838 3.87875 0.873979 0
M  V30 7351 N 719.835 0.176821 1.56605 0
M  V30 7352 C 720.783 -0.768159 2.1955 0
M  V30 7353 C 721.777 -1.23343 1.16116 0
M  V30 7354 O 722.983 -1.19844 1.34303 0
M  V30 7355 H 719.358 -0.266013 0.703378 0
M  V30 7356 H 721.329 -0.213374 2.97636 0
M  V30 7357 C 720.078 -1.98492 2.85475 0
M  V30 7358 H 719.401 -1.63595 3.64797 0
M  V30 7359 H 720.841 -2.62489 3.3298 0
M  V30 7360 C 719.3 -2.81207 1.85538 0
M  V30 7361 O 719.83 -3.7854 1.34427 0
M  V30 7362 N 718.036 -2.46331 1.54173 0
M  V30 7363 H 717.583 -1.67241 1.95929 0
M  V30 7364 H 717.541 -3.01961 0.875595 0
M  V30 7365 N 721.313 -1.57302 -0.09688 0
M  V30 7366 C 722.26 -2.01933 -1.11766 0
M  V30 7367 C 723.23 -0.895329 -1.39904 0
M  V30 7368 O 724.415 -1.16119 -1.51397 0
M  V30 7369 C 721.555 -2.44726 -2.43317 0
M  V30 7370 C 720.668 -3.70639 -2.21925 0
M  V30 7371 C 719.803 -4.02318 -3.46862 0
M  V30 7372 C 718.842 -5.21346 -3.20725 0
M  V30 7373 N 717.979 -5.48787 -4.37924 0
M  V30 7374 H 722.819 -2.88919 -0.730075 0
M  V30 7375 H 720.356 -1.42901 -0.348962 0
M  V30 7376 H 722.314 -2.6758 -3.20088 0
M  V30 7377 H 720.944 -1.60753 -2.79926 0
M  V30 7378 H 719.996 -3.55271 -1.35965 0
M  V30 7379 H 721.308 -4.57557 -1.98603 0
M  V30 7380 H 720.462 -4.25939 -4.32042 0
M  V30 7381 H 719.201 -3.13918 -3.73238 0
M  V30 7382 H 718.206 -4.97547 -2.33938 0
M  V30 7383 H 719.431 -6.11343 -2.95697 0
M  V30 7384 H 717.377 -4.63346 -4.64378 0
M  V30 7385 H 717.294 -6.30073 -4.17785 0
M  V30 7386 H 718.562 -5.76943 -5.24173 0
M  V30 7387 N 722.791 0.367657 -1.53252 0
M  V30 7388 C 724.019 1.13119 -1.73239 0
M  V30 7389 C 724.434 1.831 -0.460404 0
M  V30 7390 O 723.791 1.73483 0.566557 0
M  V30 7391 C 723.842 2.16308 -2.89643 0
M  V30 7392 O 723.563 1.49175 -4.1192 0
M  V30 7393 C 725.064 3.05224 -3.21486 0
M  V30 7394 H 722.284 0.338318 -0.579467 0
M  V30 7395 H 724.828 0.42721 -1.99988 0
M  V30 7396 H 722.983 2.82307 -2.65295 0
M  V30 7397 H 723.397 2.17912 -4.7709 0
M  V30 7398 H 724.871 3.73613 -4.06346 0
M  V30 7399 H 725.348 3.69919 -2.36763 0
M  V30 7400 H 725.954 2.44843 -3.47753 0
M  V30 7401 N 724.269 1.44576 0.627338 0
M  V30 7402 C 725.509 1.49083 1.39834 0
M  V30 7403 C 725.873 0.121643 1.91614 0
M  V30 7404 O 727.074 0.0413885 2.68768 0
M  V30 7405 C 725.345 2.52467 2.52973 0
M  V30 7406 S 726.904 2.7605 3.41089 0
M  V30 7407 H 723.722 0.527252 0.476997 0
M  V30 7408 H 726.324 1.81525 0.725872 0
M  V30 7409 H 725.028 3.50646 2.13249 0
M  V30 7410 H 724.559 2.2161 3.25042 0
M  V30 7411 H 726.574 2.07932 4.50531 0
M  V30 7412 N 725.747 -0.868086 1.31537 0
M  V30 7413 C 726.972 -1.65926 1.24432 0
M  V30 7414 C 727.397 -1.87169 -0.186936 0
M  V30 7415 O 726.755 -1.4148 -1.13371 0
M  V30 7416 C 726.803 -3.00347 1.9956 0
M  V30 7417 O 725.907 -3.90221 1.33422 0
M  V30 7418 H 725.248 -0.506375 0.429512 0
M  V30 7419 H 727.778 -1.0822 1.73637 0
M  V30 7420 H 727.788 -3.50269 2.09226 0
M  V30 7421 H 726.463 -2.84205 3.03645 0
M  V30 7422 H 725.04 -3.48672 1.32219 0
M  V30 7423 N 727.225 -1.14528 -1.08264 0
M  V30 7424 C 728.155 -0.856356 -2.1723 0
M  V30 7425 C 729.136 0.189251 -1.69044 0
M  V30 7426 O 730.321 0.0456119 -1.94146 0
M  V30 7427 C 727.451 -0.334662 -3.45684 0
M  V30 7428 C 726.405 -1.31588 -4.0727 0
M  V30 7429 C 725.731 -0.653428 -5.30692 0
M  V30 7430 C 727.031 -2.67866 -4.48381 0
M  V30 7431 H 728.725 -1.76755 -2.41657 0
M  V30 7432 H 726.271 -0.851287 -1.16143 0
M  V30 7433 H 728.224 -0.120128 -4.21229 0
M  V30 7434 H 726.948 0.611967 -3.20815 0
M  V30 7435 H 725.607 -1.51661 -3.33758 0
M  V30 7436 H 725.255 0.299054 -5.0211 0
M  V30 7437 H 724.955 -1.30817 -5.72853 0
M  V30 7438 H 726.479 -0.448453 -6.08951 0
M  V30 7439 H 727.893 -2.51692 -5.15096 0
M  V30 7440 H 726.29 -3.29627 -5.01464 0
M  V30 7441 H 727.36 -3.24632 -3.60198 0
M  V30 7442 N 728.703 1.26451 -0.940633 0
M  V30 7443 C 730.114 1.75726 -0.630653 0
M  V30 7444 C 730.465 1.76631 0.854167 0
M  V30 7445 O 729.59 1.37807 1.66848 0
M  V30 7446 C 730.185 3.19114 -1.13805 0
M  V30 7447 C 728.744 3.66005 -0.878497 0
M  V30 7448 C 727.891 2.45505 -1.28928 0
M  V30 7449 H 730.842 1.12535 -1.119 0
M  V30 7450 H 730.863 3.77311 -0.491625 0
M  V30 7451 H 730.375 3.18424 -2.21874 0
M  V30 7452 H 728.476 3.72126 0.187833 0
M  V30 7453 H 728.589 4.54844 -1.50512 0
M  V30 7454 H 726.953 2.4467 -0.707713 0
M  V30 7455 H 727.736 2.47516 -2.37888 0
M  V30 7456 N 730.181 0.707592 1.40822 0
M  V30 7457 C 731.429 0.243189 2.00632 0
M  V30 7458 C 731.75 -1.16512 1.56365 0
M  V30 7459 O 731.02 -1.78841 0.799553 0
M  V30 7460 H 729.6 0.0869203 0.741926 0
M  V30 7461 H 732.262 0.911438 1.72275 0
M  V30 7462 H 731.358 0.270014 3.1093 0
M  V30 7463 N 731.66 -1.50943 0.453197 0
M  V30 7464 C 732.888 -2.06628 -0.106135 0
M  V30 7465 C 733.303 -1.31901 -1.35084 0
M  V30 7466 O 732.66 -0.383074 -1.78434 0
M  V30 7467 C 732.711 -3.5914 -0.412368 0
M  V30 7468 O 732.432 -4.31047 0.782948 0
M  V30 7469 C 733.933 -4.31391 -1.02064 0
M  V30 7470 H 731.153 -0.670999 -0.000885896 0
M  V30 7471 H 733.697 -1.94331 0.63684 0
M  V30 7472 H 731.852 -3.71299 -1.10526 0
M  V30 7473 H 732.266 -5.21948 0.516736 0
M  V30 7474 H 733.74 -5.39135 -1.1848 0
M  V30 7475 H 734.217 -3.90714 -2.00598 0
M  V30 7476 H 734.823 -4.23716 -0.366664 0
M  V30 7477 N 733.138 -0.185124 -1.56509 0
M  V30 7478 C 734.101 0.72591 -2.17401 0
M  V30 7479 C 735.101 1.14819 -1.12575 0
M  V30 7480 O 736.291 1.0629 -1.38015 0
M  V30 7481 C 733.423 1.98979 -2.76803 0
M  V30 7482 H 734.616 0.195588 -2.99262 0
M  V30 7483 H 732.169 0.0644772 -1.56167 0
M  V30 7484 H 732.904 2.56287 -1.98714 0
M  V30 7485 H 732.689 1.69583 -3.53531 0
M  V30 7486 H 734.179 2.63966 -3.23592 0
M  V30 7487 N 734.616 1.57351 0.0885366 0
M  V30 7488 C 735.546 2.05561 1.10757 0
M  V30 7489 C 736.527 0.945789 1.41382 0
M  V30 7490 O 737.712 1.21747 1.51299 0
M  V30 7491 C 734.842 2.48554 2.42566 0
M  V30 7492 C 733.796 3.63259 2.26334 0
M  V30 7493 C 733.122 3.9225 3.63378 0
M  V30 7494 C 734.422 4.93913 1.69844 0
M  V30 7495 H 736.116 2.90946 0.706468 0
M  V30 7496 H 733.662 1.39968 0.338385 0
M  V30 7497 H 735.615 2.8089 3.14132 0
M  V30 7498 H 734.339 1.60176 2.84625 0
M  V30 7499 H 732.998 3.31179 1.57213 0
M  V30 7500 H 732.646 3.0103 4.02976 0
M  V30 7501 H 732.346 4.69478 3.53362 0
M  V30 7502 H 733.87 4.27067 4.36401 0
M  V30 7503 H 735.284 5.24588 2.31258 0
M  V30 7504 H 733.681 5.75349 1.70569 0
M  V30 7505 H 734.751 4.80409 0.65843 0
M  V30 7506 N 736.094 -0.359525 1.53444 0
M  V30 7507 C 737.041 -1.44073 1.8031 0
M  V30 7508 C 738.011 -1.52946 0.647811 0
M  V30 7509 O 739.196 -1.68739 0.890614 0
M  V30 7510 C 736.336 -2.80941 2.00416 0
M  V30 7511 C 735.449 -2.80986 3.28132 0
M  V30 7512 C 734.584 -4.09468 3.38393 0
M  V30 7513 C 733.623 -4.03679 4.60119 0
M  V30 7514 N 732.76 -5.23821 4.675 0
M  V30 7515 H 737.6 -1.20464 2.72566 0
M  V30 7516 H 735.137 -0.583859 1.35017 0
M  V30 7517 H 737.095 -3.60459 2.1006 0
M  V30 7518 H 735.725 -3.02936 1.11489 0
M  V30 7519 H 734.777 -1.93666 3.27411 0
M  V30 7520 H 736.089 -2.72583 4.17732 0
M  V30 7521 H 735.243 -4.97404 3.47382 0
M  V30 7522 H 733.982 -4.20632 2.4682 0
M  V30 7523 H 732.987 -3.14129 4.51224 0
M  V30 7524 H 734.212 -3.94112 5.5304 0
M  V30 7525 H 732.158 -5.35559 3.7883 0
M  V30 7526 H 732.075 -5.17611 5.51013 0
M  V30 7527 H 733.343 -6.13572 4.8078 0
M  V30 7528 N 737.572 -1.44907 -0.619662 0
M  V30 7529 C 738.818 -1.48512 -1.38102 0
M  V30 7530 C 739.151 -0.121686 -1.93818 0
M  V30 7531 O 738.426 0.862256 -1.74343 0
M  V30 7532 C 738.709 -2.55469 -2.53787 0
M  V30 7533 C 738.562 -4.01212 -2.03345 0
M  V30 7534 C 739.881 -2.58821 -3.55949 0
M  V30 7535 H 737 -0.540712 -0.500799 0
M  V30 7536 H 739.642 -1.7665 -0.69962 0
M  V30 7537 H 737.792 -2.31606 -3.11915 0
M  V30 7538 H 739.464 -4.36245 -1.49959 0
M  V30 7539 H 737.707 -4.12443 -1.34438 0
M  V30 7540 H 738.378 -4.71717 -2.86683 0
M  V30 7541 H 740.854 -2.80172 -3.07641 0
M  V30 7542 H 739.73 -3.35542 -4.34399 0
M  V30 7543 H 739.991 -1.63451 -4.10775 0
M  V30 7544 N 739.05 0.861098 -1.31996 0
M  V30 7545 C 740.275 1.65264 -1.2531 0
M  V30 7546 C 740.7 1.87265 0.177007 0
M  V30 7547 O 740.058 1.4208 1.12619 0
M  V30 7548 C 740.106 2.99284 -2.0115 0
M  V30 7549 O 739.21 3.89508 -1.3549 0
M  V30 7550 H 738.551 0.50409 -0.432192 0
M  V30 7551 H 741.081 1.07297 -1.74208 0
M  V30 7552 H 741.091 3.49154 -2.11081 0
M  V30 7553 H 739.766 2.82591 -3.05148 0
M  V30 7554 H 738.343 3.47966 -1.34066 0
M  V30 7555 N 740.528 1.15101 1.07655 0
M  V30 7556 C 741.768 0.934462 1.81789 0
M  V30 7557 C 742.132 -0.529101 1.84566 0
M  V30 7558 O 743.333 -0.863868 2.5454 0
M  V30 7559 C 741.604 1.52817 3.23082 0
M  V30 7560 S 743.163 1.45429 4.14 0
M  V30 7561 H 739.981 0.336379 0.626395 0
M  V30 7562 H 742.583 1.46593 1.29347 0
M  V30 7563 H 741.287 2.58635 3.18647 0
M  V30 7564 H 740.818 0.995432 3.80598 0
M  V30 7565 H 742.833 0.445058 4.942 0
M  V30 7566 N 742.006 -1.2595 0.947325 0
M  V30 7567 C 743.253 -1.93463 0.598178 0
M  V30 7568 C 743.581 -1.74271 -0.863705 0
M  V30 7569 O 742.836 -1.07684 -1.63409 0
M  V30 7570 C 743.135 -3.46034 0.894158 0
M  V30 7571 C 742.801 -3.85373 2.3409 0
M  V30 7572 C 741.463 -3.95823 2.73637 0
M  V30 7573 C 743.815 -4.04986 3.2808 0
M  V30 7574 C 741.143 -4.23288 4.06257 0
M  V30 7575 C 743.495 -4.3394 4.60303 0
M  V30 7576 C 742.159 -4.42606 4.99656 0
M  V30 7577 H 741.429 -0.707933 0.218889 0
M  V30 7578 H 744.076 -1.4964 1.19499 0
M  V30 7579 H 742.381 -3.9121 0.214874 0
M  V30 7580 H 744.078 -3.96445 0.602698 0
M  V30 7581 H 740.668 -3.7779 2.02417 0
M  V30 7582 H 744.852 -3.96333 2.9872 0
M  V30 7583 H 740.108 -4.28211 4.36401 0
M  V30 7584 H 744.282 -4.48061 5.33118 0
M  V30 7585 H 741.909 -4.63641 6.02446 0
M  V30 7586 N 743.484 -0.715051 -1.40445 0
M  V30 7587 C 744.432 -0.0509974 -2.32544 0
M  V30 7588 C 745.426 0.747602 -1.52011 0
M  V30 7589 O 746.632 0.651031 -1.67814 0
M  V30 7590 H 743.007 0.00231113 -0.751996 0
M  V30 7591 H 744.978 -0.84449 -2.86201 0
M  V30 7592 C 743.727 0.857101 -3.3697 0
M  V30 7593 H 743.05 0.252 -3.99005 0
M  V30 7594 H 744.49 1.28971 -4.03909 0
M  V30 7595 C 742.949 1.98231 -2.72408 0
M  V30 7596 O 743.479 3.07309 -2.58697 0
M  V30 7597 N 741.685 1.76577 -2.308 0
M  V30 7598 H 741.232 0.878641 -2.42152 0
M  V30 7599 H 741.19 2.52043 -1.87941 0
M  V30 7600 N 744.962 1.50701 -0.461195 0
M  V30 7601 C 746.208 2.02566 0.0973411 0
M  V30 7602 C 746.541 1.3432 1.40257 0
M  V30 7603 O 745.816 0.465692 1.88843 0
M  V30 7604 C 746.099 3.58919 0.291423 0
M  V30 7605 C 745.952 4.37751 -1.03413 0
M  V30 7606 C 747.271 4.27379 1.05048 0
M  V30 7607 H 744.39 0.73622 0.0339026 0
M  V30 7608 H 747.032 1.80115 -0.604855 0
M  V30 7609 H 745.182 3.78179 0.889539 0
M  V30 7610 H 746.854 4.30085 -1.66806 0
M  V30 7611 H 745.097 4.01885 -1.63313 0
M  V30 7612 H 745.768 5.45384 -0.852085 0
M  V30 7613 H 748.244 4.12534 0.543603 0
M  V30 7614 H 747.12 5.36609 1.15506 0
M  V30 7615 H 747.381 3.89868 2.0846 0
M  V30 7616 N 746.441 0.193421 1.56409 0
M  V30 7617 C 747.857 -0.162447 1.58771 0
M  V30 7618 C 748.057 -1.6116 1.20954 0
M  V30 7619 O 747.113 -2.3469 0.931497 0
M  V30 7620 C 748.426 0.138391 3.00381 0
M  V30 7621 C 749.974 0.0783649 3.12902 0
M  V30 7622 C 750.449 0.352491 4.56642 0
M  V30 7623 N 751.94 0.30105 4.62221 0
M  V30 7624 C 752.675 0.487028 5.71328 0
M  V30 7625 N 752.171 0.733265 6.88909 0
M  V30 7626 N 753.964 0.4214 5.60518 0
M  V30 7627 H 746.115 1.13909 1.79272 0
M  V30 7628 H 748.378 0.454528 0.83193 0
M  V30 7629 H 748.084 1.14312 3.32604 0
M  V30 7630 H 747.958 -0.559804 3.73023 0
M  V30 7631 H 750.345 -0.916963 2.80492 0
M  V30 7632 H 750.426 0.809611 2.4265 0
M  V30 7633 H 750.07 1.34513 4.89764 0
M  V30 7634 H 750 -0.399624 5.25081 0
M  V30 7635 H 752.491 0.117279 3.77718 0
M  V30 7636 H 752.804 0.86403 7.67955 0
M  V30 7637 H 751.149 0.770138 6.9072 0
M  V30 7638 H 754.34 0.229461 4.67537 0
M  V30 7639 H 754.513 0.569758 6.4549 0
M  V30 7640 N 747.919 -1.57396 -0.0801906 0
M  V30 7641 C 749.166 -1.86836 -0.780927 0
M  V30 7642 C 749.494 -0.784012 -1.77999 0
M  V30 7643 O 748.749 0.220881 -1.94449 0
M  V30 7644 C 749.048 -3.22915 -1.53169 0
M  V30 7645 C 748.714 -4.45843 -0.67339 0
M  V30 7646 C 747.376 -4.79213 -0.436829 0
M  V30 7647 C 749.728 -5.21142 -0.0776786 0
M  V30 7648 C 747.056 -5.853 0.405062 0
M  V30 7649 C 749.408 -6.28119 0.751619 0
M  V30 7650 C 748.072 -6.59995 0.998131 0
M  V30 7651 H 747.342 -0.683682 -0.285761 0
M  V30 7652 H 749.989 -1.91454 -0.0419435 0
M  V30 7653 H 748.294 -3.14049 -2.34265 0
M  V30 7654 H 749.991 -3.42926 -2.07853 0
M  V30 7655 H 746.581 -4.19721 -0.867891 0
M  V30 7656 H 750.765 -4.95682 -0.247572 0
M  V30 7657 H 746.021 -6.084 0.60488 0
M  V30 7658 H 750.195 -6.8563 1.22 0
M  V30 7659 H 747.822 -7.42027 1.65227 0
M  V30 7660 N 749.397 0.351382 -1.53633 0
M  V30 7661 C 750.637 1.10102 -1.72212 0
M  V30 7662 C 751.001 1.86128 -0.471198 0
M  V30 7663 O 752.202 2.63445 -0.533887 0
M  V30 7664 C 750.473 2.02348 -2.94602 0
M  V30 7665 S 752.032 2.84641 -3.33954 0
M  V30 7666 H 748.85 0.372145 -0.60583 0
M  V30 7667 H 751.452 0.38044 -1.91763 0
M  V30 7668 H 750.156 1.45283 -3.83824 0
M  V30 7669 H 749.687 2.78856 -2.77493 0
M  V30 7670 H 751.702 4.04724 -2.87076 0
M  V30 7671 N 750.875 1.45233 0.611969 0
M  V30 7672 C 751.805 1.5641 1.73373 0
M  V30 7673 C 752.786 0.415896 1.64937 0
M  V30 7674 O 753.971 0.638478 1.83404 0
M  V30 7675 C 751.101 1.52627 3.11965 0
M  V30 7676 C 750.055 2.66119 3.35208 0
M  V30 7677 C 749.381 2.4739 4.74028 0
M  V30 7678 C 750.681 4.08157 3.25891 0
M  V30 7679 H 752.375 2.50307 1.64277 0
M  V30 7680 H 749.921 1.20467 0.788904 0
M  V30 7681 H 751.874 1.59043 3.90235 0
M  V30 7682 H 750.598 0.552564 3.21892 0
M  V30 7683 H 749.257 2.59123 2.59327 0
M  V30 7684 H 748.905 1.48168 4.80682 0
M  V30 7685 H 748.605 3.23494 4.90536 0
M  V30 7686 H 750.129 2.55653 5.54503 0
M  V30 7687 H 751.543 4.1642 3.9404 0
M  V30 7688 H 749.94 4.84617 3.5393 0
M  V30 7689 H 751.01 4.30374 2.23397 0
M  V30 7690 N 752.353 -0.854086 1.3245 0
M  V30 7691 C 753.3 -1.96271 1.21434 0
M  V30 7692 C 754.27 -1.6582 0.0963851 0
M  V30 7693 O 755.455 -1.88851 0.27203 0
M  V30 7694 C 752.595 -3.31939 0.943952 0
M  V30 7695 C 751.708 -3.74885 2.14675 0
M  V30 7696 C 750.843 -4.99347 1.81179 0
M  V30 7697 C 749.882 -5.34785 2.97777 0
M  V30 7698 N 749.019 -6.50425 2.6437 0
M  V30 7699 H 753.859 -2.05025 2.16261 0
M  V30 7700 H 751.396 -1.00348 1.07558 0
M  V30 7701 H 753.354 -4.10076 0.767675 0
M  V30 7702 H 751.984 -3.22784 0.0324763 0
M  V30 7703 H 751.036 -2.92396 2.43328 0
M  V30 7704 H 752.348 -3.97068 3.01891 0
M  V30 7705 H 751.502 -5.85193 1.60107 0
M  V30 7706 H 750.241 -4.79101 0.911777 0
M  V30 7707 H 749.246 -4.47451 3.1948 0
M  V30 7708 H 750.471 -5.56988 3.88511 0
M  V30 7709 H 748.417 -6.31695 1.7691 0
M  V30 7710 H 748.334 -6.7263 3.45116 0
M  V30 7711 H 749.602 -7.39422 2.46729 0
M  V30 7712 N 753.831 -1.1567 -1.07043 0
M  V30 7713 C 754.794 -0.858906 -2.12498 0
M  V30 7714 C 755.794 0.142735 -1.60165 0
M  V30 7715 O 756.984 -0.0872678 -1.73981 0
M  V30 7716 C 754.116 -0.283021 -3.39723 0
M  V30 7717 H 755.309 -1.79368 -2.40348 0
M  V30 7718 H 752.862 -0.964608 -1.22984 0
M  V30 7719 H 753.597 0.659796 -3.17517 0
M  V30 7720 H 753.382 -1.00467 -3.7901 0
M  V30 7721 H 754.872 -0.0923543 -4.17498 0
M  V30 7722 N 755.309 1.25446 -0.953992 0
M  V30 7723 C 756.586 1.884 -0.525823 0
M  V30 7724 C 756.966 1.86079 0.996891 0
M  V30 7725 O 756.314 1.32389 1.8624 0
M  V30 7726 C 756.524 3.31154 -1.10172 0
M  V30 7727 C 757.872 4.07926 -1.17819 0
M  V30 7728 O 758.896 3.40273 -1.05323 0
M  V30 7729 O 757.755 5.28942 -1.37415 0
M  V30 7730 H 754.849 0.808629 -0.173345 0
M  V30 7731 H 757.395 1.33522 -1.04738 0
M  V30 7732 H 756.167 3.27271 -2.14499 0
M  V30 7733 H 755.79 3.93588 -0.56338 0
M  V30 7734 N 756.787 0.722489 1.40064 0
M  V30 7735 C 758.035 0.264455 2.00362 0
M  V30 7736 C 758.356 -1.14847 1.57592 0
M  V30 7737 O 757.626 -1.77982 0.818477 0
M  V30 7738 H 756.206 0.0947846 0.740962 0
M  V30 7739 H 758.868 0.929659 1.71299 0
M  V30 7740 H 757.964 0.302977 3.10626 0
M  V30 7741 N 758.265 -1.50454 0.469181 0
M  V30 7742 C 759.212 -2.28486 -0.325982 0
M  V30 7743 C 760.182 -1.33455 -0.988893 0
M  V30 7744 O 761.367 -1.6239 -1.0017 0
M  V30 7745 C 758.507 -3.15288 -1.40313 0
M  V30 7746 C 757.62 -4.25348 -0.755183 0
M  V30 7747 C 756.755 -4.9941 -1.81006 0
M  V30 7748 C 755.794 -6.01348 -1.14226 0
M  V30 7749 N 754.931 -6.68695 -2.1399 0
M  V30 7750 H 759.771 -2.95987 0.345753 0
M  V30 7751 H 757.308 -1.45965 0.182355 0
M  V30 7752 H 759.266 -3.63964 -2.03927 0
M  V30 7753 H 757.896 -2.49837 -2.04405 0
M  V30 7754 H 756.948 -3.80399 -0.00651901 0
M  V30 7755 H 758.26 -4.98279 -0.227941 0
M  V30 7756 H 757.414 -5.51794 -2.52206 0
M  V30 7757 H 756.153 -4.26181 -2.3711 0
M  V30 7758 H 755.158 -5.48225 -0.415876 0
M  V30 7759 H 756.383 -6.76548 -0.588135 0
M  V30 7760 H 754.329 -5.98258 -2.69115 0
M  V30 7761 H 754.246 -7.37495 -1.66246 0
M  V30 7762 H 755.514 -7.25697 -2.84576 0
M  V30 7763 N 759.743 -0.201713 -1.56304 0
M  V30 7764 C 760.991 0.434447 -1.97375 0
M  V30 7765 C 761.312 1.61692 -1.08998 0
M  V30 7766 O 760.582 1.95223 -0.162682 0
M  V30 7767 H 759.162 0.163497 -0.728888 0
M  V30 7768 H 761.824 -0.289988 -1.92731 0
M  V30 7769 H 760.92 0.774136 -3.02347 0
M  V30 7770 N 761.222 1.57436 0.0718424 0
M  V30 7771 C 762.468 1.87525 0.772149 0
M  V30 7772 C 762.801 0.79399 1.77227 0
M  V30 7773 O 762.076 -0.195733 1.93513 0
M  V30 7774 C 762.359 3.28272 1.48018 0
M  V30 7775 C 762.212 4.47052 0.49647 0
M  V30 7776 C 763.531 3.67256 2.42509 0
M  V30 7777 H 760.65 0.682049 0.279245 0
M  V30 7778 H 763.292 1.89967 0.03534 0
M  V30 7779 H 761.442 3.26321 2.10824 0
M  V30 7780 H 763.114 4.61127 -0.126375 0
M  V30 7781 H 761.357 4.33392 -0.188205 0
M  V30 7782 H 762.028 5.42315 1.02949 0
M  V30 7783 H 764.504 3.70301 1.89781 0
M  V30 7784 H 763.38 4.66626 2.89053 0
M  V30 7785 H 763.641 2.97186 3.27312 0
M  V30 7786 N 762.7 -0.34323 1.53817 0
M  V30 7787 C 763.63 -1.42709 1.84814 0
M  V30 7788 C 764.611 -1.5488 0.703297 0
M  V30 7789 O 765.796 -1.69082 0.955237 0
M  V30 7790 C 762.926 -2.79756 2.05801 0
M  V30 7791 C 761.88 -2.82392 3.21619 0
M  V30 7792 C 761.206 -4.22326 3.2794 0
M  V30 7793 C 762.506 -2.479 4.59721 0
M  V30 7794 H 764.2 -1.17018 2.75585 0
M  V30 7795 H 761.746 -0.561485 1.32602 0
M  V30 7796 H 763.699 -3.55627 2.26069 0
M  V30 7797 H 762.423 -3.06883 1.11761 0
M  V30 7798 H 761.082 -2.08974 3.01207 0
M  V30 7799 H 760.73 -4.46564 2.31494 0
M  V30 7800 H 760.43 -4.25001 4.05768 0
M  V30 7801 H 761.954 -5.00039 3.50419 0
M  V30 7802 H 763.368 -3.13484 4.80001 0
M  V30 7803 H 761.765 -2.61857 5.39954 0
M  V30 7804 H 762.835 -1.43087 4.63308 0
M  V30 7805 N 764.178 -1.45556 -0.604258 0
M  V30 7806 C 765.589 -1.44171 -1.18624 0
M  V30 7807 C 765.94 -0.171081 -1.95453 0
M  V30 7808 O 765.065 0.727156 -2.03817 0
M  V30 7809 C 765.66 -2.61193 -2.15786 0
M  V30 7810 C 764.219 -2.62918 -2.69353 0
M  V30 7811 C 763.366 -2.36479 -1.4482 0
M  V30 7812 H 766.317 -1.53747 -0.393381 0
M  V30 7813 H 766.338 -2.35481 -2.98879 0
M  V30 7814 H 765.85 -3.53656 -1.59841 0
M  V30 7815 H 763.951 -1.7447 -3.29228 0
M  V30 7816 H 764.064 -3.6224 -3.13559 0
M  V30 7817 H 762.428 -1.86103 -1.73891 0
M  V30 7818 H 763.211 -3.31091 -0.907376 0
M  V30 7819 N 765.656 0.84705 -1.32902 0
M  V30 7820 C 767.072 1.13645 -1.12058 0
M  V30 7821 C 767.272 2.01281 0.093937 0
M  V30 7822 O 766.328 2.4026 0.776608 0
M  V30 7823 C 767.641 1.80644 -2.40392 0
M  V30 7824 C 769.189 1.93246 -2.46221 0
M  V30 7825 C 769.664 2.6366 -3.74496 0
M  V30 7826 N 771.155 2.71179 -3.75521 0
M  V30 7827 C 771.89 3.26332 -4.71482 0
M  V30 7828 N 771.386 3.82236 -5.77813 0
M  V30 7829 N 773.179 3.24507 -4.58968 0
M  V30 7830 H 765.33 0.263612 -2.10758 0
M  V30 7831 H 767.593 0.17944 -0.930863 0
M  V30 7832 H 767.299 1.23708 -3.29225 0
M  V30 7833 H 767.173 2.80736 -2.51926 0
M  V30 7834 H 769.56 2.49338 -1.57843 0
M  V30 7835 H 769.641 0.921272 -2.38634 0
M  V30 7836 H 769.285 2.08229 -4.63253 0
M  V30 7837 H 769.215 3.65234 -3.79357 0
M  V30 7838 H 771.706 2.31527 -2.9867 0
M  V30 7839 H 772.019 4.22499 -6.47082 0
M  V30 7840 H 770.364 3.80546 -5.81558 0
M  V30 7841 H 773.555 2.80085 -3.7506 0
M  V30 7842 H 773.728 3.67188 -5.33926 0
M  V30 7843 N 767.134 1.16236 1.06428 0
M  V30 7844 C 768.081 0.86769 2.13869 0
M  V30 7845 C 769.051 -0.183298 1.65086 0
M  V30 7846 O 770.236 -0.0488002 1.90738 0
M  V30 7847 C 767.376 0.373427 3.43074 0
M  V30 7848 C 766.489 1.48708 4.05598 0
M  V30 7849 C 765.624 0.947977 5.22673 0
M  V30 7850 C 764.663 2.03793 5.77178 0
M  V30 7851 N 763.8 1.51451 6.85571 0
M  V30 7852 H 768.64 1.78781 2.38414 0
M  V30 7853 H 766.177 0.891892 1.16977 0
M  V30 7854 H 768.135 0.0685035 4.17144 0
M  V30 7855 H 766.765 -0.509752 3.1875 0
M  V30 7856 H 765.817 1.908 3.29089 0
M  V30 7857 H 767.129 2.30964 4.42105 0
M  V30 7858 H 766.283 0.596154 6.03764 0
M  V30 7859 H 765.022 0.0947081 4.87608 0
M  V30 7860 H 764.027 2.39847 4.94726 0
M  V30 7861 H 765.252 2.89514 6.14295 0
M  V30 7862 H 763.198 0.683755 6.52427 0
M  V30 7863 H 763.115 2.27325 7.21013 0
M  V30 7864 H 764.383 1.19123 7.70344 0
M  V30 7865 N 768.612 -1.24939 0.960631 0
M  V30 7866 C 769.542 -2.28 0.503815 0
M  V30 7867 C 770.523 -1.63959 -0.452928 0
M  V30 7868 O 771.708 -1.91009 -0.350585 0
M  V30 7869 C 768.838 -3.46643 -0.213535 0
M  V30 7870 C 767.792 -4.22903 0.658535 0
M  V30 7871 C 767.118 -5.34363 -0.189902 0
M  V30 7872 C 768.418 -4.84949 1.93963 0
M  V30 7873 H 770.112 -2.66462 1.36521 0
M  V30 7874 H 767.658 -1.28093 0.657897 0
M  V30 7875 H 769.611 -4.1787 -0.544286 0
M  V30 7876 H 768.335 -3.07187 -1.10923 0
M  V30 7877 H 766.994 -3.53467 0.972455 0
M  V30 7878 H 766.642 -4.91147 -1.08553 0
M  V30 7879 H 766.342 -5.86302 0.390331 0
M  V30 7880 H 767.866 -6.0842 -0.515484 0
M  V30 7881 H 769.28 -5.48288 1.67491 0
M  V30 7882 H 767.677 -5.47091 2.46601 0
M  V30 7883 H 768.747 -4.06799 2.639 0
M  V30 7884 N 770.09 -0.729906 -1.39679 0
M  V30 7885 C 771.038 -0.0756589 -2.32477 0
M  V30 7886 C 772.032 0.731438 -1.52795 0
M  V30 7887 O 773.238 0.633195 -1.68495 0
M  V30 7888 H 769.613 -0.00566492 -0.751979 0
M  V30 7889 H 771.584 -0.874797 -2.85289 0
M  V30 7890 C 770.333 0.821313 -3.37861 0
M  V30 7891 H 769.656 0.209666 -3.9925 0
M  V30 7892 H 771.096 1.24679 -4.05254 0
M  V30 7893 C 769.555 1.9533 -2.74495 0
M  V30 7894 O 770.085 3.04548 -2.61942 0
M  V30 7895 N 768.291 1.74119 -2.3266 0
M  V30 7896 H 767.838 0.852908 -2.4307 0
M  V30 7897 H 767.796 2.50036 -1.90603 0
M  V30 7898 N 771.568 1.50203 -0.477153 0
M  V30 7899 C 772.815 2.02358 0.0757385 0
M  V30 7900 C 773.143 1.3587 1.39174 0
M  V30 7901 O 772.398 0.475415 1.89838 0
M  V30 7902 C 772.697 3.56127 0.301325 0
M  V30 7903 C 772.363 4.41126 -0.933725 0
M  V30 7904 C 771.025 4.64075 -1.27233 0
M  V30 7905 C 773.377 4.90737 -1.75576 0
M  V30 7906 C 770.705 5.33878 -2.43292 0
M  V30 7907 C 773.057 5.61816 -2.90768 0
M  V30 7908 C 771.721 5.83016 -3.25036 0
M  V30 7909 H 770.991 0.740482 0.0277147 0
M  V30 7910 H 773.638 1.80754 -0.632467 0
M  V30 7911 H 771.943 3.76279 1.09183 0
M  V30 7912 H 773.64 3.94053 0.743184 0
M  V30 7913 H 770.23 4.23489 -0.659935 0
M  V30 7914 H 774.414 4.72856 -1.50734 0
M  V30 7915 H 769.67 5.48499 -2.70109 0
M  V30 7916 H 773.844 5.99237 -3.54807 0
M  V30 7917 H 771.471 6.36881 -4.15074 0
M  V30 7918 N 773.046 0.209999 1.56195 0
M  V30 7919 C 773.978 -0.736967 2.17029 0
M  V30 7920 C 774.991 -1.16599 1.13616 0
M  V30 7921 O 776.18 -1.09914 1.40646 0
M  V30 7922 C 773.28 -2.00852 2.72969 0
M  V30 7923 C 772.453 -1.73691 4.01435 0
M  V30 7924 C 771.512 -2.85439 4.42053 0
M  V30 7925 O 770.538 -2.54405 5.09183 0
M  V30 7926 N 771.74 -4.14135 4.06783 0
M  V30 7927 H 774.505 -0.216656 2.98916 0
M  V30 7928 H 772.066 0.0285672 1.61875 0
M  V30 7929 H 774.058 -2.74778 2.97118 0
M  V30 7930 H 772.628 -2.43963 1.95451 0
M  V30 7931 H 771.848 -0.834676 3.85262 0
M  V30 7932 H 773.136 -1.52961 4.85263 0
M  V30 7933 H 772.534 -4.42196 3.52816 0
M  V30 7934 H 771.091 -4.84642 4.35851 0
M  V30 7935 N 774.524 -1.57472 -0.0634922 0
M  V30 7936 C 775.77 -1.87932 -0.762194 0
M  V30 7937 C 776.103 -0.803377 -1.76804 0
M  V30 7938 O 775.378 0.185468 -1.93614 0
M  V30 7939 C 775.661 -3.29053 -1.46275 0
M  V30 7940 C 775.514 -4.47309 -0.472755 0
M  V30 7941 C 776.833 -3.68537 -2.40558 0
M  V30 7942 H 773.952 -0.683521 -0.275624 0
M  V30 7943 H 776.594 -1.89983 -0.0252651 0
M  V30 7944 H 774.744 -3.27435 -2.0909 0
M  V30 7945 H 776.416 -4.61053 0.150828 0
M  V30 7946 H 774.659 -4.33286 0.211187 0
M  V30 7947 H 775.33 -5.42853 -1.00072 0
M  V30 7948 H 777.806 -3.71302 -1.87814 0
M  V30 7949 H 776.682 -4.68152 -2.86574 0
M  V30 7950 H 776.943 -2.98917 -3.25731 0
M  V30 7951 N 776.003 0.335068 -1.53997 0
M  V30 7952 C 776.913 1.43511 -1.85585 0
M  V30 7953 C 777.929 1.57162 -0.746726 0
M  V30 7954 O 779.105 1.72477 -1.03988 0
M  V30 7955 C 776.17 2.78386 -2.06646 0
M  V30 7956 C 775.231 2.74007 -3.30483 0
M  V30 7957 C 774.464 4.02449 -3.50529 0
M  V30 7958 O 774.687 5.00147 -2.74242 0
M  V30 7959 O 773.621 4.06405 -4.4398 0
M  V30 7960 H 777.447 1.19731 -2.79102 0
M  V30 7961 H 775.032 0.528033 -1.39758 0
M  V30 7962 H 776.914 3.58247 -2.21894 0
M  V30 7963 H 775.589 3.0208 -1.16317 0
M  V30 7964 H 774.496 1.92736 -3.2063 0
M  V30 7965 H 775.829 2.55267 -4.20832 0
M  V30 7966 N 777.481 1.45874 0.596531 0
M  V30 7967 C 778.411 1.5824 1.71705 0
M  V30 7968 C 779.392 0.433366 1.64487 0
M  V30 7969 O 780.577 0.657895 1.82717 0
M  V30 7970 C 777.707 1.55927 3.10329 0
M  V30 7971 C 776.661 2.69659 3.32367 0
M  V30 7972 C 775.987 2.52403 4.71377 0
M  V30 7973 C 777.287 4.11591 3.21544 0
M  V30 7974 H 778.981 2.52035 1.61613 0
M  V30 7975 H 776.527 1.21297 0.776082 0
M  V30 7976 H 778.48 1.63173 3.88526 0
M  V30 7977 H 777.204 0.586674 3.21288 0
M  V30 7978 H 775.863 2.61859 2.56564 0
M  V30 7979 H 775.511 1.53258 4.79083 0
M  V30 7980 H 775.211 3.28679 4.87077 0
M  V30 7981 H 776.735 2.6152 5.5176 0
M  V30 7982 H 778.149 4.20576 3.89601 0
M  V30 7983 H 776.546 4.88344 3.4877 0
M  V30 7984 H 777.616 4.32719 2.1882 0
M  V30 7985 N 778.959 -0.83999 1.33349 0
M  V30 7986 C 779.889 -1.965 1.26135 0
M  V30 7987 C 780.87 -1.69505 0.142152 0
M  V30 7988 O 782.055 -1.91346 0.331743 0
M  V30 7989 C 779.185 -3.32632 0.99866 0
M  V30 7990 C 778.139 -3.74021 2.08068 0
M  V30 7991 C 777.465 -5.07947 1.67014 0
M  V30 7992 C 778.765 -3.87925 3.49731 0
M  V30 7993 H 780.459 -2.02793 2.20262 0
M  V30 7994 H 778.005 -0.974297 1.06035 0
M  V30 7995 H 779.958 -4.10903 0.934696 0
M  V30 7996 H 778.682 -3.26593 0.0217759 0
M  V30 7997 H 777.341 -2.98012 2.13505 0
M  V30 7998 H 776.989 -4.98378 0.680316 0
M  V30 7999 H 776.689 -5.36611 2.39422 0
M  V30 8000 H 778.213 -5.88695 1.62082 0
M  V30 8001 H 779.627 -4.5651 3.46802 0
M  V30 8002 H 778.024 -4.28023 4.20614 0
M  V30 8003 H 779.094 -2.90407 3.88319 0
M  V30 8004 N 780.437 -1.16799 -1.0581 0
M  V30 8005 C 781.367 -0.902241 -2.15364 0
M  V30 8006 C 782.348 0.153351 -1.69407 0
M  V30 8007 O 783.533 0.00442032 -1.94199 0
M  V30 8008 C 780.663 -0.407911 -3.44896 0
M  V30 8009 C 779.617 -1.40197 -4.04387 0
M  V30 8010 C 778.943 -0.765848 -5.29187 0
M  V30 8011 C 780.243 -2.77316 -4.42598 0
M  V30 8012 H 781.937 -1.81841 -2.37853 0
M  V30 8013 H 779.483 -0.875731 -1.14311 0
M  V30 8014 H 781.436 -0.20945 -4.20879 0
M  V30 8015 H 780.16 0.54378 -3.22041 0
M  V30 8016 H 778.819 -1.58707 -3.30466 0
M  V30 8017 H 778.467 0.192482 -5.02632 0
M  V30 8018 H 778.167 -1.42939 -5.69949 0
M  V30 8019 H 779.691 -0.577519 -6.07863 0
M  V30 8020 H 781.105 -2.62561 -5.09642 0
M  V30 8021 H 779.502 -3.4019 -4.94359 0
M  V30 8022 H 780.572 -3.32199 -3.53231 0
M  V30 8023 N 781.915 1.24427 -0.967243 0
M  V30 8024 C 783.192 1.87831 -0.545776 0
M  V30 8025 C 783.572 1.87126 0.977099 0
M  V30 8026 O 782.92 1.34357 1.84826 0
M  V30 8027 C 783.13 3.29967 -1.13679 0
M  V30 8028 C 784.478 4.06654 -1.22139 0
M  V30 8029 O 785.502 3.39136 -1.08926 0
M  V30 8030 O 784.361 5.27455 -1.43017 0
M  V30 8031 H 781.455 0.806745 -0.181912 0
M  V30 8032 H 784.001 1.32403 -1.06148 0
M  V30 8033 H 782.773 3.24977 -2.17958 0
M  V30 8034 H 782.396 3.92969 -0.605093 0
M  V30 8035 N 783.393 0.737304 1.3929 0
M  V30 8036 C 784.34 0.0988364 2.30588 0
M  V30 8037 C 785.31 -0.727206 1.49335 0
M  V30 8038 O 786.495 -0.686694 1.78014 0
M  V30 8039 C 783.635 -0.800734 3.35682 0
M  V30 8040 C 782.748 0.0381731 4.31983 0
M  V30 8041 C 781.883 -0.862884 5.24145 0
M  V30 8042 C 780.922 -0.0193639 6.12097 0
M  V30 8043 N 780.059 -0.87648 6.96608 0
M  V30 8044 H 784.899 0.883031 2.84617 0
M  V30 8045 H 782.436 0.447111 1.4014 0
M  V30 8046 H 784.394 -1.33676 3.95205 0
M  V30 8047 H 783.024 -1.55088 2.83103 0
M  V30 8048 H 782.076 0.691641 3.74059 0
M  V30 8049 H 783.388 0.690294 4.94 0
M  V30 8050 H 782.542 -1.46667 5.88705 0
M  V30 8051 H 781.281 -1.54878 4.62454 0
M  V30 8052 H 780.286 0.597202 5.46547 0
M  V30 8053 H 781.511 0.663348 6.75852 0
M  V30 8054 H 779.457 -1.54762 6.37483 0
M  V30 8055 H 779.374 -0.280892 7.55478 0
M  V30 8056 H 780.642 -1.46575 7.65595 0
M  V30 8057 N 784.871 -1.49948 0.485112 0
M  V30 8058 C 785.801 -2.31675 -0.291364 0
M  V30 8059 C 786.782 -1.39216 -0.977383 0
M  V30 8060 O 787.967 -1.68133 -0.971855 0
M  V30 8061 C 785.097 -3.19326 -1.36558 0
M  V30 8062 C 784.051 -4.2045 -0.800359 0
M  V30 8063 C 783.377 -4.96931 -1.97391 0
M  V30 8064 C 784.677 -5.21925 0.197867 0
M  V30 8065 H 786.371 -2.96839 0.390775 0
M  V30 8066 H 783.917 -1.42749 0.189375 0
M  V30 8067 H 785.87 -3.75304 -1.91638 0
M  V30 8068 H 784.594 -2.52074 -2.07668 0
M  V30 8069 H 783.253 -3.65594 -0.271428 0
M  V30 8070 H 782.901 -4.26141 -2.67232 0
M  V30 8071 H 782.601 -5.65344 -1.60187 0
M  V30 8072 H 784.125 -5.55749 -2.52935 0
M  V30 8073 H 785.539 -5.72691 -0.264239 0
M  V30 8074 H 783.936 -5.98138 0.484908 0
M  V30 8075 H 785.006 -4.71809 1.11912 0
M  V30 8076 N 786.349 -0.21828 -1.56081 0
M  V30 8077 C 787.296 0.693189 -2.20144 0
M  V30 8078 C 788.266 1.19274 -1.15598 0
M  V30 8079 O 789.451 1.25243 -1.4394 0
M  V30 8080 C 786.591 1.89715 -2.88275 0
M  V30 8081 C 785.704 1.4368 -4.07407 0
M  V30 8082 C 784.839 2.59807 -4.63329 0
M  V30 8083 C 783.878 2.10492 -5.74769 0
M  V30 8084 N 783.015 3.1988 -6.24997 0
M  V30 8085 H 787.855 0.14016 -2.9767 0
M  V30 8086 H 785.392 0.0574292 -1.46988 0
M  V30 8087 H 787.35 2.60398 -3.25958 0
M  V30 8088 H 785.98 2.42311 -2.13273 0
M  V30 8089 H 785.032 0.625007 -3.7523 0
M  V30 8090 H 786.344 1.03517 -4.8794 0
M  V30 8091 H 785.498 3.38577 -5.03438 0
M  V30 8092 H 784.237 3.03256 -3.81951 0
M  V30 8093 H 783.242 1.30182 -5.34165 0
M  V30 8094 H 784.467 1.68045 -6.5798 0
M  V30 8095 H 782.413 3.62817 -5.46534 0
M  V30 8096 H 782.33 2.83958 -7.00645 0
M  V30 8097 H 783.598 3.98796 -6.69763 0
M  V30 8098 N 787.827 1.57504 0.0551401 0
M  V30 8099 C 788.759 2.0158 1.09078 0
M  V30 8100 C 789.772 0.92434 1.34014 0
M  V30 8101 O 790.961 1.20202 1.31961 0
M  V30 8102 C 788.061 2.35385 2.43818 0
M  V30 8103 C 787.234 3.66588 2.38605 0
M  V30 8104 C 786.293 3.87874 3.55585 0
M  V30 8105 O 785.319 4.59259 3.36258 0
M  V30 8106 N 786.521 3.31503 4.76536 0
M  V30 8107 H 789.286 2.91039 0.71529 0
M  V30 8108 H 786.847 1.60058 0.243532 0
M  V30 8109 H 788.839 2.46784 3.20749 0
M  V30 8110 H 787.409 1.51731 2.73307 0
M  V30 8111 H 786.629 3.65787 1.46947 0
M  V30 8112 H 787.917 4.52706 2.32239 0
M  V30 8113 H 787.315 2.73592 4.9514 0
M  V30 8114 H 785.872 3.48324 5.50921 0
M  V30 8115 N 789.305 -0.326896 1.54172 0
M  V30 8116 C 790.252 -1.40216 1.83325 0
M  V30 8117 C 791.222 -1.51538 0.680107 0
M  V30 8118 O 792.407 -1.66811 0.926206 0
M  V30 8119 C 789.547 -2.76626 2.0633 0
M  V30 8120 C 788.66 -2.73963 3.34019 0
M  V30 8121 C 787.795 -4.02198 3.47002 0
M  V30 8122 C 786.834 -3.93828 4.68578 0
M  V30 8123 N 785.971 -5.13787 4.78506 0
M  V30 8124 H 790.811 -1.14656 2.7506 0
M  V30 8125 H 788.348 -0.555089 1.36225 0
M  V30 8126 H 790.306 -3.55922 2.17659 0
M  V30 8127 H 788.936 -3.00503 1.1789 0
M  V30 8128 H 787.988 -1.86677 3.31445 0
M  V30 8129 H 789.3 -2.6366 4.2342 0
M  V30 8130 H 788.454 -4.89923 3.57855 0
M  V30 8131 H 787.193 -4.15302 2.55687 0
M  V30 8132 H 786.198 -3.04487 4.57786 0
M  V30 8133 H 787.423 -3.82292 5.61275 0
M  V30 8134 H 785.369 -5.27403 3.90105 0
M  V30 8135 H 785.286 -5.05807 5.61868 0
M  V30 8136 H 786.554 -6.03236 4.93686 0
M  V30 8137 N 790.784 -1.46188 -0.588786 0
M  V30 8138 C 792.032 -1.50885 -1.34455 0
M  V30 8139 C 792.353 -0.159555 -1.94346 0
M  V30 8140 O 791.623 0.813239 -1.78222 0
M  V30 8141 H 790.203 -0.555707 -0.499198 0
M  V30 8142 H 792.865 -1.82277 -0.690014 0
M  V30 8143 H 791.961 -2.25816 -2.15438 0
M  V30 8144 N 792.262 0.832906 -1.33792 0
M  V30 8145 C 793.225 1.92471 -1.24449 0
M  V30 8146 C 794.225 1.59981 -0.162085 0
M  V30 8147 O 795.415 1.69208 -0.414029 0
M  V30 8148 C 792.547 3.28278 -0.919044 0
M  V30 8149 H 793.74 2.0218 -2.21502 0
M  V30 8150 H 791.293 1.0257 -1.17936 0
M  V30 8151 H 792.028 3.24263 0.048738 0
M  V30 8152 H 791.813 3.53241 -1.70187 0
M  V30 8153 H 793.303 4.08253 -0.878576 0
M  V30 8154 N 793.74 1.17359 1.05189 0
M  V30 8155 C 794.989 0.956412 1.77583 0
M  V30 8156 C 795.302 -0.516018 1.88671 0
M  V30 8157 O 796.508 -0.851401 2.57805 0
M  V30 8158 C 794.964 1.66203 3.19225 0
M  V30 8159 C 794.572 3.17299 3.16267 0
M  V30 8160 C 796.316 1.52725 3.96075 0
M  V30 8161 C 794.223 3.8055 4.52698 0
M  V30 8162 H 793.153 0.354204 0.665624 0
M  V30 8163 H 795.804 1.40612 1.17901 0
M  V30 8164 H 794.186 1.14006 3.79234 0
M  V30 8165 H 795.36 3.76431 2.65776 0
M  V30 8166 H 793.675 3.3079 2.52917 0
M  V30 8167 H 796.272 1.97351 4.96947 0
M  V30 8168 H 796.615 0.477803 4.13549 0
M  V30 8169 H 797.148 2.02139 3.42614 0
M  V30 8170 H 793.887 4.85492 4.4043 0
M  V30 8171 H 793.407 3.26206 5.03339 0
M  V30 8172 H 795.086 3.82757 5.21638 0
M  V30 8173 N 795.218 -1.23913 0.973828 0
M  V30 8174 C 796.634 -1.44325 0.681363 0
M  V30 8175 C 796.834 -1.86832 -0.754728 0
M  V30 8176 O 795.89 -2.01024 -1.52793 0
M  V30 8177 C 797.203 -2.50017 1.67069 0
M  V30 8178 C 798.751 -2.63838 1.68399 0
M  V30 8179 C 799.226 -3.72734 2.66145 0
M  V30 8180 N 800.717 -3.80169 2.64624 0
M  V30 8181 C 801.452 -4.6397 3.36927 0
M  V30 8182 N 800.948 -5.51911 4.18767 0
M  V30 8183 N 802.741 -4.58106 3.25722 0
M  V30 8184 H 794.892 -0.946204 1.9016 0
M  V30 8185 H 797.155 -0.477374 0.819035 0
M  V30 8186 H 796.861 -2.25686 2.69738 0
M  V30 8187 H 796.735 -3.48287 1.4483 0
M  V30 8188 H 799.122 -2.87524 0.664379 0
M  V30 8189 H 799.203 -1.65906 1.94702 0
M  V30 8190 H 798.847 -3.49797 3.68245 0
M  V30 8191 H 798.777 -4.70193 2.3712 0
M  V30 8192 H 801.268 -3.17319 2.05224 0
M  V30 8193 H 801.581 -6.12828 4.70809 0
M  V30 8194 H 799.926 -5.51556 4.2286 0
M  V30 8195 H 803.117 -3.8842 2.61242 0
M  V30 8196 H 803.29 -5.23188 3.82333 0
M  V30 8197 N 796.696 -0.74468 -1.38897 0
M  V30 8198 C 798.112 -0.421302 -1.53939 0
M  V30 8199 C 798.312 1.06668 -1.70951 0
M  V30 8200 O 797.368 1.85278 -1.71547 0
M  V30 8201 C 798.681 -1.21278 -2.75159 0
M  V30 8202 C 800.229 -1.20196 -2.89001 0
M  V30 8203 C 800.704 -1.97621 -4.13171 0
M  V30 8204 N 802.195 -1.94836 -4.2023 0
M  V30 8205 C 802.93 -2.51545 -5.15279 0
M  V30 8206 N 802.426 -3.1693 -6.16058 0
M  V30 8207 N 804.219 -2.41524 -5.07565 0
M  V30 8208 H 796.37 -1.70914 -1.26103 0
M  V30 8209 H 798.633 -0.724058 -0.611919 0
M  V30 8210 H 798.339 -2.26609 -2.68963 0
M  V30 8211 H 798.213 -0.823677 -3.68097 0
M  V30 8212 H 800.6 -0.156742 -2.94683 0
M  V30 8213 H 800.681 -1.63051 -1.97099 0
M  V30 8214 H 800.325 -3.02149 -4.0825 0
M  V30 8215 H 800.255 -1.52166 -5.04136 0
M  V30 8216 H 802.746 -1.4721 -3.48048 0
M  V30 8217 H 803.059 -3.57644 -6.85062 0
M  V30 8218 H 801.404 -3.21023 -6.16417 0
M  V30 8219 H 804.595 -1.90077 -4.27771 0
M  V30 8220 H 804.768 -2.86016 -5.81462 0
M  V30 8221 N 798.174 1.49689 -0.493057 0
M  V30 8222 C 799.137 2.27502 0.278485 0
M  V30 8223 C 800.137 1.33184 0.901037 0
M  V30 8224 O 801.327 1.56415 0.766801 0
M  V30 8225 C 798.459 3.10881 1.39878 0
M  V30 8226 H 799.652 2.97163 -0.404219 0
M  V30 8227 H 797.205 1.54324 -0.247774 0
M  V30 8228 H 797.94 2.45767 2.11587 0
M  V30 8229 H 797.725 3.80219 0.957924 0
M  V30 8230 H 799.215 3.69673 1.94247 0
M  V30 8231 N 799.652 0.226554 1.55963 0
M  V30 8232 C 800.582 -0.676079 2.23498 0
M  V30 8233 C 801.563 -1.19718 1.20837 0
M  V30 8234 O 802.748 -1.24027 1.49436 0
M  V30 8235 C 799.878 -1.88217 2.91876 0
M  V30 8236 C 798.832 -1.4947 4.01052 0
M  V30 8237 C 798.158 -2.77997 4.56751 0
M  V30 8238 C 799.458 -0.680951 5.17842 0
M  V30 8239 H 801.152 -0.112989 2.99187 0
M  V30 8240 H 798.698 -0.0529046 1.43903 0
M  V30 8241 H 800.651 -2.51911 3.37815 0
M  V30 8242 H 799.375 -2.47031 2.13643 0
M  V30 8243 H 798.034 -0.881199 3.55852 0
M  V30 8244 H 797.682 -3.34966 3.75243 0
M  V30 8245 H 797.382 -2.52803 5.30438 0
M  V30 8246 H 798.906 -3.42625 5.05411 0
M  V30 8247 H 800.32 -1.22171 5.60131 0
M  V30 8248 H 798.717 -0.525898 5.97791 0
M  V30 8249 H 799.787 0.311346 4.83899 0
M  V30 8250 N 801.13 -1.57531 -0.0467866 0
M  V30 8251 C 802.377 -1.88451 -0.74112 0
M  V30 8252 C 802.705 -0.821592 -1.76296 0
M  V30 8253 O 801.96 0.179585 -1.94874 0
M  V30 8254 C 802.259 -3.26091 -1.46285 0
M  V30 8255 C 801.925 -4.47171 -0.578669 0
M  V30 8256 C 800.587 -4.80032 -0.335083 0
M  V30 8257 C 802.939 -5.2119 0.0328809 0
M  V30 8258 C 800.267 -5.84309 0.529121 0
M  V30 8259 C 802.619 -6.26383 0.884684 0
M  V30 8260 C 801.283 -6.57729 1.1379 0
M  V30 8261 H 800.553 -0.68959 -0.271195 0
M  V30 8262 H 803.2 -1.915 -0.00132378 0
M  V30 8263 H 801.505 -3.18948 -2.27551 0
M  V30 8264 H 803.202 -3.47258 -2.00532 0
M  V30 8265 H 799.792 -4.21467 -0.778666 0
M  V30 8266 H 803.976 -4.96096 -0.142375 0
M  V30 8267 H 799.232 -6.06981 0.733794 0
M  V30 8268 H 803.406 -6.82888 1.36516 0
M  V30 8269 H 801.033 -7.38355 1.80929 0
M  V30 8270 N 802.608 0.318715 -1.54344 0
M  V30 8271 C 803.538 1.39751 -1.87061 0
M  V30 8272 C 804.519 1.53741 -0.727848 0
M  V30 8273 O 805.704 1.67541 -0.982016 0
M  V30 8274 C 802.834 2.76446 -2.10226 0
M  V30 8275 C 801.788 2.77239 -3.26071 0
M  V30 8276 C 801.114 4.17056 -3.34617 0
M  V30 8277 C 802.414 2.40555 -4.63606 0
M  V30 8278 H 804.108 1.12619 -2.77412 0
M  V30 8279 H 801.654 0.540318 -1.33479 0
M  V30 8280 H 803.607 3.51985 -2.31699 0
M  V30 8281 H 802.331 3.05066 -1.16629 0
M  V30 8282 H 800.99 2.04155 -3.04493 0
M  V30 8283 H 800.638 4.42824 -2.3857 0
M  V30 8284 H 800.338 4.18492 -4.12478 0
M  V30 8285 H 801.862 4.94401 -3.5833 0
M  V30 8286 H 803.276 3.05808 -4.84927 0
M  V30 8287 H 801.673 2.53234 -5.44052 0
M  V30 8288 H 802.743 1.35698 -4.65526 0
M  V30 8289 N 804.086 1.46499 0.581025 0
M  V30 8290 C 805.316 1.55244 1.36319 0
M  V30 8291 C 805.724 0.193059 1.88212 0
M  V30 8292 O 805.067 -0.820109 1.64377 0
M  V30 8293 C 805.129 2.498 2.58535 0
M  V30 8294 C 804.793 3.96007 2.28096 0
M  V30 8295 C 805.79 4.85171 1.8683 0
M  V30 8296 C 803.475 4.41152 2.40189 0
M  V30 8297 C 805.469 6.17493 1.58053 0
M  V30 8298 C 803.156 5.73508 2.11024 0
M  V30 8299 C 804.154 6.615 1.70021 0
M  V30 8300 O 803.842 7.914 1.41215 0
M  V30 8301 H 803.574 0.527513 0.422736 0
M  V30 8302 H 806.128 1.92623 0.713139 0
M  V30 8303 H 804.358 2.07443 3.2635 0
M  V30 8304 H 806.047 2.48934 3.20604 0
M  V30 8305 H 806.813 4.51548 1.77001 0
M  V30 8306 H 802.692 3.72886 2.71066 0
M  V30 8307 H 806.236 6.86131 1.25974 0
M  V30 8308 H 802.133 6.06679 2.20478 0
M  V30 8309 H 802.901 8.03681 1.55046 0
M  V30 8310 N 805.565 -0.825799 1.34232 0
M  V30 8311 C 806.79 -1.61883 1.29648 0
M  V30 8312 C 807.215 -1.87669 -0.127295 0
M  V30 8313 O 806.573 -1.45016 -1.08813 0
M  V30 8314 C 806.621 -2.93846 2.09014 0
M  V30 8315 O 805.725 -3.85778 1.4577 0
M  V30 8316 H 805.066 -0.492454 0.445405 0
M  V30 8317 H 807.596 -1.02641 1.76992 0
M  V30 8318 H 807.606 -3.43435 2.20264 0
M  V30 8319 H 806.281 -2.74401 3.12533 0
M  V30 8320 H 804.858 -3.4429 1.43245 0
M  V30 8321 N 807.043 -1.17915 -1.04565 0
M  V30 8322 C 808.459 -0.927761 -1.29864 0
M  V30 8323 C 808.659 0.409536 -1.97294 0
M  V30 8324 O 807.715 1.14505 -2.25044 0
M  V30 8325 C 809.028 -2.08967 -2.16225 0
M  V30 8326 C 810.576 -2.12741 -2.29587 0
M  V30 8327 C 811.051 -3.28335 -3.19312 0
M  V30 8328 N 812.542 -3.28164 -3.26898 0
M  V30 8329 C 813.277 -4.14249 -3.96466 0
M  V30 8330 N 812.773 -5.10457 -4.68407 0
M  V30 8331 N 814.566 -4.02179 -3.92694 0
M  V30 8332 H 806.717 -2.03983 -0.592011 0
M  V30 8333 H 808.98 -0.891023 -0.323701 0
M  V30 8334 H 808.686 -3.05654 -1.73979 0
M  V30 8335 H 808.56 -2.04606 -3.16885 0
M  V30 8336 H 810.947 -1.16636 -2.71072 0
M  V30 8337 H 811.028 -2.21162 -1.28535 0
M  V30 8338 H 810.672 -4.2471 -2.78539 0
M  V30 8339 H 810.602 -3.17151 -4.20384 0
M  V30 8340 H 813.093 -2.58511 -2.75646 0
M  V30 8341 H 813.406 -5.72526 -5.1907 0
M  V30 8342 H 811.751 -5.14422 -4.67328 0
M  V30 8343 H 814.942 -3.26308 -3.3562 0
M  V30 8344 H 815.115 -4.69486 -4.4664 0
M  V30 8345 N 808.521 1.23394 -0.980386 0
M  V30 8346 C 809.746 1.96384 -0.666935 0
M  V30 8347 C 810.171 1.72087 0.759456 0
M  V30 8348 O 809.529 0.992328 1.51732 0
M  V30 8349 C 809.577 3.47499 -0.963177 0
M  V30 8350 O 808.681 4.12363 -0.0552051 0
M  V30 8351 H 808.022 0.614797 -0.250839 0
M  V30 8352 H 810.552 1.56831 -1.31398 0
M  V30 8353 H 810.562 3.97953 -0.899877 0
M  V30 8354 H 809.237 3.6451 -2.00264 0
M  V30 8355 H 807.814 3.72499 -0.172914 0
M  V30 8356 N 809.999 0.752036 1.385 0
M  V30 8357 C 811.41 0.375385 1.82887 0
M  V30 8358 C 811.761 -1.09575 1.62751 0
M  V30 8359 O 810.886 -1.84685 1.12785 0
M  V30 8360 C 811.481 0.674563 3.32017 0
M  V30 8361 C 810.04 0.351208 3.74758 0
M  V30 8362 C 809.187 0.928531 2.61292 0
M  V30 8363 H 812.138 0.948313 1.27251 0
M  V30 8364 H 812.159 -0.0477781 3.8047 0
M  V30 8365 H 811.671 1.74533 3.46641 0
M  V30 8366 H 809.772 -0.713042 3.65714 0
M  V30 8367 H 809.885 0.845675 4.71577 0
M  V30 8368 H 808.249 0.354012 2.52228 0
M  V30 8369 H 809.032 2.0043 2.78716 0
M  V30 8370 N 811.477 -1.49425 0.500989 0
M  V30 8371 C 812.702 -2.07356 -0.0425154 0
M  V30 8372 C 813.127 -1.35887 -1.30063 0
M  V30 8373 O 812.485 -0.41561 -1.76472 0
M  V30 8374 C 812.533 -3.59518 -0.279188 0
M  V30 8375 O 811.637 -3.89542 -1.3539 0
M  V30 8376 H 810.978 -0.663482 0.0262207 0
M  V30 8377 H 813.508 -1.92231 0.700607 0
M  V30 8378 H 813.518 -4.04791 -0.5107 0
M  V30 8379 H 812.193 -4.10946 0.640009 0
M  V30 8380 H 810.77 -3.56079 -1.10734 0
M  V30 8381 N 812.955 -0.234822 -1.55841 0
M  V30 8382 C 813.905 0.68346 -2.17515 0
M  V30 8383 C 814.889 1.14798 -1.1274 0
M  V30 8384 O 816.081 1.09976 -1.38688 0
M  V30 8385 C 813.21 1.88551 -2.86886 0
M  V30 8386 C 812.296 1.44006 -3.98903 0
M  V30 8387 N 812.687 0.708034 -5.0082 0
M  V30 8388 C 810.985 1.7263 -4.11236 0
M  V30 8389 C 811.686 0.479036 -5.79724 0
M  V30 8390 N 810.662 1.03968 -5.33565 0
M  V30 8391 H 814.464 0.115897 -2.93671 0
M  V30 8392 H 811.978 -0.0366273 -1.62359 0
M  V30 8393 H 813.975 2.55425 -3.2949 0
M  V30 8394 H 812.635 2.45742 -2.12229 0
M  V30 8395 H 813.646 0.359363 -5.16652 0
M  V30 8396 H 810.323 2.31046 -3.47741 0
M  V30 8397 H 811.713 -0.104514 -6.71819 0
M  V30 8398 N 814.433 1.57553 0.0384317 0
M  V30 8399 C 815.658 1.93485 0.746872 0
M  V30 8400 C 816.083 0.834069 1.68597 0
M  V30 8401 O 815.441 -0.210902 1.80069 0
M  V30 8402 C 815.489 3.28463 1.4881 0
M  V30 8403 O 814.593 3.20051 2.60079 0
M  V30 8404 H 813.934 0.632675 0.201539 0
M  V30 8405 H 816.464 2.046 -0.00329815 0
M  V30 8406 H 816.474 3.63132 1.86009 0
M  V30 8407 H 815.149 4.08147 0.799297 0
M  V30 8408 H 813.726 2.96998 2.25492 0
M  V30 8409 N 815.911 -0.310526 1.54511 0
M  V30 8410 C 816.858 -1.38264 1.84802 0
M  V30 8411 C 817.828 -1.50808 0.696141 0
M  V30 8412 O 819.013 -1.6582 0.943846 0
M  V30 8413 C 816.153 -2.74422 2.09252 0
M  V30 8414 C 815.266 -2.70405 3.36906 0
M  V30 8415 C 814.401 -3.98495 3.51248 0
M  V30 8416 C 813.44 -3.88836 4.72729 0
M  V30 8417 N 812.577 -5.08683 4.83928 0
M  V30 8418 H 817.417 -1.11732 2.76261 0
M  V30 8419 H 814.954 -0.540609 1.36806 0
M  V30 8420 H 816.912 -3.53593 2.21422 0
M  V30 8421 H 815.542 -2.99235 1.2107 0
M  V30 8422 H 814.594 -1.83151 3.33406 0
M  V30 8423 H 815.906 -2.59155 4.26193 0
M  V30 8424 H 815.06 -4.861 3.63031 0
M  V30 8425 H 813.799 -4.12567 2.60077 0
M  V30 8426 H 812.804 -2.99615 4.60989 0
M  V30 8427 H 814.029 -3.76318 5.65298 0
M  V30 8428 H 811.975 -5.23236 3.95677 0
M  V30 8429 H 811.892 -4.99819 5.67201 0
M  V30 8430 H 813.16 -5.97966 5.00057 0
M  V30 8431 N 817.389 -1.46805 -0.573248 0
M  V30 8432 C 818.337 -1.58468 -1.70267 0
M  V30 8433 C 819.331 -0.452694 -1.63239 0
M  V30 8434 O 820.537 -0.629915 -1.68618 0
M  V30 8435 H 816.912 -0.498408 -0.56311 0
M  V30 8436 H 818.883 -2.5341 -1.57563 0
M  V30 8437 C 817.632 -1.60104 -3.08645 0
M  V30 8438 H 816.955 -2.4655 -3.14727 0
M  V30 8439 H 818.395 -1.72318 -3.87405 0
M  V30 8440 C 816.854 -0.33138 -3.35266 0
M  V30 8441 O 817.384 0.57438 -3.97572 0
M  V30 8442 N 815.59 -0.216358 -2.89793 0
M  V30 8443 H 815.137 -0.954345 -2.3927 0
M  V30 8444 H 815.095 0.632253 -3.07977 0
M  V30 8445 N 818.867 0.818669 -1.34668 0
M  V30 8446 C 819.8 1.93516 -1.20941 0
M  V30 8447 C 820.778 1.62292 -0.100061 0
M  V30 8448 O 821.962 1.86614 -0.265983 0
M  V30 8449 C 819.089 3.27612 -0.859524 0
M  V30 8450 C 818.135 3.77794 -1.97923 0
M  V30 8451 S 818.968 3.97043 -3.59329 0
M  V30 8452 C 820.124 5.3406 -3.2639 0
M  V30 8453 H 820.357 2.04864 -2.15449 0
M  V30 8454 H 817.89 0.974716 -1.19744 0
M  V30 8455 H 819.848 4.05087 -0.664444 0
M  V30 8456 H 818.509 3.14028 0.0672835 0
M  V30 8457 H 817.702 4.74883 -1.68827 0
M  V30 8458 H 817.304 3.0728 -2.13202 0
M  V30 8459 H 819.596 6.17626 -2.78469 0
M  V30 8460 H 820.539 5.68143 -4.22634 0
M  V30 8461 H 820.947 4.99773 -2.62464 0
M  V30 8462 N 820.346 1.18468 1.03938 0
M  V30 8463 C 821.574 1.00576 1.80809 0
M  V30 8464 C 821.989 -0.445786 1.83462 0
M  V30 8465 O 821.346 -1.30964 1.27101 0
M  V30 8466 C 821.397 1.55491 3.26351 0
M  V30 8467 O 821.118 2.94963 3.23926 0
M  V30 8468 C 822.619 1.42236 4.19862 0
M  V30 8469 H 819.839 0.35508 0.56935 0
M  V30 8470 H 822.383 1.57046 1.30984 0
M  V30 8471 H 820.538 1.03195 3.73403 0
M  V30 8472 H 820.952 3.20598 4.15111 0
M  V30 8473 H 822.426 1.85455 5.19914 0
M  V30 8474 H 822.903 0.371267 4.37628 0
M  V30 8475 H 823.509 1.9361 3.78675 0
M  V30 8476 N 821.824 -1.22873 0.986916 0
M  V30 8477 C 823.073 -1.90772 0.654911 0
M  V30 8478 C 823.386 -1.77768 -0.81595 0
M  V30 8479 O 824.592 -2.40529 -1.25929 0
M  V30 8480 C 823.048 -3.42003 1.12081 0
M  V30 8481 C 822.656 -3.63655 2.61647 0
M  V30 8482 C 824.4 -4.15638 0.862854 0
M  V30 8483 C 822.307 -5.08555 3.01871 0
M  V30 8484 H 821.237 -0.714362 0.241252 0
M  V30 8485 H 823.888 -1.39196 1.19568 0
M  V30 8486 H 822.27 -3.92725 0.508207 0
M  V30 8487 H 823.444 -3.2345 3.28202 0
M  V30 8488 H 821.759 -3.03341 2.8526 0
M  V30 8489 H 824.356 -5.22425 1.13915 0
M  V30 8490 H 824.699 -4.15814 -0.201036 0
M  V30 8491 H 825.232 -3.70924 1.43736 0
M  V30 8492 H 821.971 -5.13514 4.07411 0
M  V30 8493 H 821.491 -5.49684 2.40015 0
M  V30 8494 H 823.17 -5.76936 2.92839 0
M  V30 8495 N 823.302 -0.75937 -1.38099 0
M  V30 8496 C 824.527 -0.327859 -2.04792 0
M  V30 8497 C 824.952 1.03752 -1.56899 0
M  V30 8498 O 824.31 1.66235 -0.723581 0
M  V30 8499 C 824.358 -0.366264 -3.58735 0
M  V30 8500 O 823.462 0.637697 -4.0744 0
M  V30 8501 H 822.803 -0.144092 -0.648177 0
M  V30 8502 H 825.333 -1.03211 -1.7666 0
M  V30 8503 H 825.343 -0.219179 -4.07411 0
M  V30 8504 H 824.018 -1.36243 -3.92951 0
M  V30 8505 H 822.595 0.454749 -3.70117 0
M  V30 8506 N 824.78 1.49157 -0.508906 0
M  V30 8507 C 826.196 1.58741 -0.165372 0
M  V30 8508 C 826.396 1.5133 1.33047 0
M  V30 8509 O 825.452 1.39135 2.10707 0
M  V30 8510 C 826.765 2.91217 -0.749194 0
M  V30 8511 C 828.313 3.047 -0.716015 0
M  V30 8512 C 828.788 4.39807 -1.27804 0
M  V30 8513 N 830.279 4.46319 -1.23908 0
M  V30 8514 C 831.014 5.49325 -1.64406 0
M  V30 8515 N 830.51 6.59395 -2.12534 0
M  V30 8516 N 832.303 5.40084 -1.55773 0
M  V30 8517 H 824.454 1.52217 -1.48134 0
M  V30 8518 H 826.717 0.721514 -0.614915 0
M  V30 8519 H 826.423 3.02233 -1.79856 0
M  V30 8520 H 826.297 3.76592 -0.214144 0
M  V30 8521 H 828.684 2.9331 0.324535 0
M  V30 8522 H 828.765 2.2099 -1.2883 0
M  V30 8523 H 828.409 4.5195 -2.31741 0
M  V30 8524 H 828.339 5.2217 -0.681623 0
M  V30 8525 H 830.83 3.67354 -0.886537 0
M  V30 8526 H 831.143 7.34102 -2.41485 0
M  V30 8527 H 829.488 6.60414 -2.16513 0
M  V30 8528 H 832.679 4.52986 -1.17987 0
M  V30 8529 H 832.852 6.20233 -1.87657 0
M  V30 8530 N 826.258 0.243083 1.55714 0
M  V30 8531 C 827.506 -0.381964 1.98458 0
M  V30 8532 C 827.827 -1.58745 1.13247 0
M  V30 8533 O 827.097 -1.94723 0.214384 0
M  V30 8534 H 825.677 -0.144114 0.732967 0
M  V30 8535 H 828.339 0.340985 1.91894 0
M  V30 8536 H 827.435 -0.693702 3.04293 0
M  V30 8537 N 827.736 -1.57571 -0.0300757 0
M  V30 8538 C 828.984 -1.88852 -0.719666 0
M  V30 8539 C 829.305 -0.840645 -1.75949 0
M  V30 8540 O 828.575 0.125854 -1.95495 0
M  V30 8541 H 827.155 -0.696965 -0.268792 0
M  V30 8542 H 829.817 -1.949 0.00373285 0
M  V30 8543 H 828.913 -2.87695 -1.20987 0
M  V30 8544 N 829.214 0.302327 -1.54673 0
M  V30 8545 C 830.144 1.37759 -1.88533 0
M  V30 8546 C 831.125 1.52961 -0.744113 0
M  V30 8547 O 832.31 1.6649 -0.999731 0
M  V30 8548 C 829.44 2.74201 -2.13146 0
M  V30 8549 C 828.394 2.73765 -3.28993 0
M  V30 8550 C 827.72 4.13483 -3.39022 0
M  V30 8551 C 829.02 2.35624 -4.66132 0
M  V30 8552 H 830.714 1.0967 -2.78591 0
M  V30 8553 H 828.26 0.52613 -1.34044 0
M  V30 8554 H 830.213 3.49508 -2.35419 0
M  V30 8555 H 828.937 3.03812 -1.19858 0
M  V30 8556 H 827.596 2.00914 -3.06642 0
M  V30 8557 H 827.244 4.40269 -2.43253 0
M  V30 8558 H 826.944 4.14093 -4.16894 0
M  V30 8559 H 828.468 4.90572 -3.63553 0
M  V30 8560 H 829.882 3.00647 -4.88143 0
M  V30 8561 H 828.279 2.47449 -5.46707 0
M  V30 8562 H 829.349 1.30753 -4.66939 0
M  V30 8563 N 830.692 1.47107 0.565454 0
M  V30 8564 C 831.625 1.53505 1.68853 0
M  V30 8565 C 832.603 0.387806 1.57908 0
M  V30 8566 O 833.787 0.594433 1.78882 0
M  V30 8567 C 830.914 1.42985 3.07039 0
M  V30 8568 C 829.96 2.62109 3.36454 0
M  V30 8569 S 830.793 4.2436 3.26617 0
M  V30 8570 C 831.949 4.16378 4.67312 0
M  V30 8571 H 832.182 2.48522 1.63169 0
M  V30 8572 H 829.715 1.35204 0.745609 0
M  V30 8573 H 831.673 1.37602 3.8675 0
M  V30 8574 H 830.334 0.493671 3.10196 0
M  V30 8575 H 829.527 2.50788 4.37174 0
M  V30 8576 H 829.129 2.64571 2.64345 0
M  V30 8577 H 831.421 3.84123 5.58082 0
M  V30 8578 H 832.364 5.17156 4.83689 0
M  V30 8579 H 832.772 3.47363 4.44971 0
M  V30 8580 N 832.17 -0.811516 1.35101 0
M  V30 8581 C 833.102 -1.93102 1.23468 0
M  V30 8582 C 834.115 -1.62021 0.159095 0
M  V30 8583 O 835.304 -1.73682 0.411945 0
M  V30 8584 C 832.404 -3.27345 0.877404 0
M  V30 8585 C 831.577 -3.86368 2.05033 0
M  V30 8586 C 830.636 -4.99009 1.66963 0
M  V30 8587 O 829.662 -5.16698 2.38772 0
M  V30 8588 N 830.864 -5.7749 0.590394 0
M  V30 8589 H 833.629 -2.0361 2.19916 0
M  V30 8590 H 831.19 -0.988687 1.28205 0
M  V30 8591 H 833.182 -4.00163 0.604298 0
M  V30 8592 H 831.752 -3.126 0.00275267 0
M  V30 8593 H 830.972 -3.05804 2.48752 0
M  V30 8594 H 832.26 -4.22533 2.83449 0
M  V30 8595 H 831.658 -5.657 -0.00633259 0
M  V30 8596 H 830.215 -6.50708 0.377055 0
M  V30 8597 N 833.648 -1.19017 -1.03309 0
M  V30 8598 C 834.888 -1.00129 -1.78195 0
M  V30 8599 C 835.252 0.460236 -1.86402 0
M  V30 8600 O 836.453 0.768802 -2.57571 0
M  V30 8601 C 834.724 -1.64703 -3.17187 0
M  V30 8602 S 836.283 -1.60695 -4.08317 0
M  V30 8603 H 833.101 -0.359395 -0.613479 0
M  V30 8604 H 835.703 -1.51293 -1.23818 0
M  V30 8605 H 834.407 -2.70283 -3.08829 0
M  V30 8606 H 833.938 -1.136 -3.76641 0
M  V30 8607 H 835.953 -0.628171 -4.92208 0
M  V30 8608 N 835.127 1.22348 -0.993418 0
M  V30 8609 C 836.037 2.27987 -0.553076 0
M  V30 8610 C 837.053 1.69378 0.398386 0
M  V30 8611 O 838.229 1.99648 0.26509 0
M  V30 8612 C 835.294 3.46475 0.124809 0
M  V30 8613 C 834.355 4.20399 -0.869682 0
M  V30 8614 C 833.588 5.33229 -0.224052 0
M  V30 8615 O 833.811 5.61885 0.981915 0
M  V30 8616 O 832.745 5.94685 -0.929174 0
M  V30 8617 H 836.571 2.67822 -1.43195 0
M  V30 8618 H 834.156 1.28525 -0.761694 0
M  V30 8619 H 836.038 4.18369 0.504496 0
M  V30 8620 H 834.713 3.08565 0.978243 0
M  V30 8621 H 833.62 3.50774 -1.30031 0
M  V30 8622 H 834.953 4.62191 -1.69233 0
M  V30 8623 N 836.605 0.766683 1.37694 0
M  V30 8624 C 837.515 0.150158 2.34119 0
M  V30 8625 C 838.531 -0.685513 1.59927 0
M  V30 8626 O 839.707 -0.606616 1.92047 0
M  V30 8627 C 836.772 -0.722562 3.39087 0
M  V30 8628 C 835.833 0.128983 4.29106 0
M  V30 8629 C 835.066 -0.702178 5.29061 0
M  V30 8630 O 835.289 -1.93954 5.36412 0
M  V30 8631 O 834.223 -0.114056 6.01792 0
M  V30 8632 H 838.049 0.946829 2.88563 0
M  V30 8633 H 835.634 0.527765 1.39768 0
M  V30 8634 H 837.516 -1.22095 4.03325 0
M  V30 8635 H 836.191 -1.49751 2.86978 0
M  V30 8636 H 835.098 0.673612 3.67985 0
M  V30 8637 H 836.431 0.866892 4.84506 0
M  V30 8638 N 838.083 -1.48885 0.516809 0
M  V30 8639 C 839.013 -2.32241 -0.242157 0
M  V30 8640 C 839.994 -1.41258 -0.947633 0
M  V30 8641 O 841.179 -1.70156 -0.935973 0
M  V30 8642 C 838.309 -3.22151 -1.29754 0
M  V30 8643 C 837.263 -4.22053 -0.710995 0
M  V30 8644 C 836.589 -5.01007 -1.86806 0
M  V30 8645 C 837.889 -5.21388 0.30853 0
M  V30 8646 H 839.583 -2.95943 0.453651 0
M  V30 8647 H 837.129 -1.42316 0.219612 0
M  V30 8648 H 839.082 -3.79284 -1.83634 0
M  V30 8649 H 837.806 -2.56423 -2.02274 0
M  V30 8650 H 836.465 -3.66087 -0.193819 0
M  V30 8651 H 836.113 -4.31713 -2.58133 0
M  V30 8652 H 835.813 -5.68615 -1.48159 0
M  V30 8653 H 837.337 -5.60989 -2.4109 0
M  V30 8654 H 838.751 -5.73122 -0.142703 0
M  V30 8655 H 837.148 -5.96975 0.611673 0
M  V30 8656 H 838.218 -4.69329 1.21894 0
M  V30 8657 N 839.561 -0.251338 -1.55583 0
M  V30 8658 C 840.81 0.372681 -1.98227 0
M  V30 8659 C 841.123 1.58743 -1.1428 0
M  V30 8660 O 842.329 2.28289 -1.46957 0
M  V30 8661 C 840.785 0.714439 -3.52738 0
M  V30 8662 C 840.393 -0.479168 -4.4543 0
M  V30 8663 C 842.137 1.3024 -4.04027 0
M  V30 8664 C 840.044 -0.113318 -5.91291 0
M  V30 8665 H 838.974 0.14302 -0.740312 0
M  V30 8666 H 841.625 -0.352253 -1.80087 0
M  V30 8667 H 840.007 1.49762 -3.66589 0
M  V30 8668 H 841.181 -1.25644 -4.4334 0
M  V30 8669 H 839.496 -0.982359 -4.04646 0
M  V30 8670 H 842.093 1.58953 -5.10527 0
M  V30 8671 H 842.436 2.22837 -3.51638 0
M  V30 8672 H 842.969 0.582024 -3.93519 0
M  V30 8673 H 839.708 -1.00654 -6.47726 0
M  V30 8674 H 839.228 0.627666 -5.96507 0
M  V30 8675 H 840.907 0.30293 -6.4629 0
M  V30 8676 N 841.039 1.57585 0.0217189 0
M  V30 8677 C 842.002 2.06004 1.00474 0
M  V30 8678 C 843.002 0.965461 1.2859 0
M  V30 8679 O 844.192 1.22884 1.23471 0
M  V30 8680 C 841.324 2.48319 2.33561 0
M  V30 8681 H 842.517 2.94112 0.586346 0
M  V30 8682 H 840.07 1.53973 0.268716 0
M  V30 8683 H 840.805 1.63389 2.80133 0
M  V30 8684 H 840.59 3.28239 2.1448 0
M  V30 8685 H 842.08 2.86181 3.04122 0
M  V30 8686 N 842.517 -0.29412 1.54831 0
M  V30 8687 C 843.747 -1.04572 1.7818 0
M  V30 8688 C 844.155 -1.81187 0.544776 0
M  V30 8689 O 843.498 -1.769 -0.495169 0
M  V30 8690 C 843.56 -2.06748 2.94101 0
M  V30 8691 C 843.224 -1.49265 4.31936 0
M  V30 8692 C 844.221 -0.919136 5.11711 0
M  V30 8693 C 841.906 -1.52621 4.78552 0
M  V30 8694 C 843.9 -0.386824 6.36225 0
M  V30 8695 C 841.587 -0.990031 6.03027 0
M  V30 8696 C 842.585 -0.421315 6.81699 0
M  V30 8697 O 842.273 0.106713 8.03829 0
M  V30 8698 H 842.005 -0.31559 0.597812 0
M  V30 8699 H 844.559 -0.336817 2.0262 0
M  V30 8700 H 842.789 -2.81339 2.65303 0
M  V30 8701 H 844.478 -2.67865 3.04964 0
M  V30 8702 H 845.244 -0.886062 4.76837 0
M  V30 8703 H 841.123 -1.95826 4.17341 0
M  V30 8704 H 844.667 0.0577248 6.97576 0
M  V30 8705 H 840.564 -1.02027 6.37386 0
M  V30 8706 H 841.332 -0.00593526 8.185 0
M  V30 8707 N 843.995 -1.47404 -0.557645 0
M  V30 8708 C 844.925 -1.62736 -1.67449 0
M  V30 8709 C 845.906 -0.476824 -1.6328 0
M  V30 8710 O 847.091 -0.706108 -1.80908 0
M  V30 8711 C 844.221 -1.641 -3.06086 0
M  V30 8712 C 843.175 -2.78377 -3.25101 0
M  V30 8713 C 842.501 -2.64812 -4.6452 0
M  V30 8714 C 843.801 -4.19971 -3.10518 0
M  V30 8715 H 845.495 -2.56232 -1.54873 0
M  V30 8716 H 843.041 -1.23312 -0.743649 0
M  V30 8717 H 844.994 -1.73417 -3.84063 0
M  V30 8718 H 843.718 -0.671652 -3.19619 0
M  V30 8719 H 842.377 -2.6857 -2.49531 0
M  V30 8720 H 842.025 -1.65906 -4.74852 0
M  V30 8721 H 841.725 -3.41477 -4.78191 0
M  V30 8722 H 843.249 -2.76057 -5.44633 0
M  V30 8723 H 844.663 -4.30757 -3.78313 0
M  V30 8724 H 843.06 -4.97419 -3.35699 0
M  V30 8725 H 844.13 -4.38369 -2.0727 0
M  V30 8726 N 845.473 0.80434 -1.35529 0
M  V30 8727 C 846.889 1.10023 -1.15616 0
M  V30 8728 C 847.089 2.01478 0.0298535 0
M  V30 8729 O 846.145 2.42609 0.699778 0
M  V30 8730 C 847.458 1.72905 -2.46017 0
M  V30 8731 C 849.006 1.85315 -2.52245 0
M  V30 8732 C 849.481 2.51612 -3.82695 0
M  V30 8733 N 850.972 2.59095 -3.83958 0
M  V30 8734 C 851.707 3.11167 -4.81625 0
M  V30 8735 N 851.203 3.63659 -5.89681 0
M  V30 8736 N 852.996 3.09741 -4.6906 0
M  V30 8737 H 845.147 0.196428 -2.1149 0
M  V30 8738 H 847.41 0.149735 -0.9361 0
M  V30 8739 H 847.116 1.13171 -3.32994 0
M  V30 8740 H 846.99 2.72579 -2.6073 0
M  V30 8741 H 849.377 2.44191 -1.65695 0
M  V30 8742 H 849.458 0.844886 -2.41444 0
M  V30 8743 H 849.102 1.93385 -4.69643 0
M  V30 8744 H 849.032 3.5298 -3.90785 0
M  V30 8745 H 851.523 2.21908 -3.05884 0
M  V30 8746 H 851.836 4.01699 -6.60195 0
M  V30 8747 H 850.181 3.61852 -5.9337 0
M  V30 8748 H 853.372 2.68011 -3.83781 0
M  V30 8749 H 853.545 3.50016 -5.45338 0
M  V30 8750 N 846.951 1.19563 1.02676 0
M  V30 8751 C 848.228 0.908857 1.73203 0
M  V30 8752 C 848.608 -0.584928 2.02834 0
M  V30 8753 O 847.956 -1.54372 1.68469 0
M  V30 8754 C 848.166 1.77105 3.00724 0
M  V30 8755 C 849.514 2.00667 3.7419 0
M  V30 8756 O 850.538 1.74274 3.10656 0
M  V30 8757 O 849.397 2.4518 4.88415 0
M  V30 8758 H 846.491 0.338909 0.754367 0
M  V30 8759 H 849.037 1.30387 1.08616 0
M  V30 8760 H 847.809 2.78303 2.7507 0
M  V30 8761 H 847.432 1.37546 3.73051 0
M  V30 8762 N 848.429 -1.21819 0.999893 0
M  V30 8763 C 849.339 -2.27691 0.565159 0
M  V30 8764 C 850.355 -1.69587 -0.389398 0
M  V30 8765 O 851.531 -1.99786 -0.254499 0
M  V30 8766 C 848.596 -3.46537 -0.106432 0
M  V30 8767 C 847.657 -4.19932 0.891964 0
M  V30 8768 C 846.89 -5.33103 0.252327 0
M  V30 8769 O 847.113 -5.62398 -0.952103 0
M  V30 8770 O 846.047 -5.94184 0.960698 0
M  V30 8771 H 849.873 -2.67059 1.44613 0
M  V30 8772 H 847.458 -1.28119 0.768499 0
M  V30 8773 H 849.34 -4.18631 -0.482301 0
M  V30 8774 H 848.015 -3.09079 -0.961865 0
M  V30 8775 H 846.922 -3.5008 1.3189 0
M  V30 8776 H 848.255 -4.61287 1.71682 0
M  V30 8777 N 849.908 -0.773975 -1.37286 0
M  V30 8778 C 851.133 -0.349561 -2.04433 0
M  V30 8779 C 851.558 1.02082 -1.5799 0
M  V30 8780 O 850.916 1.65458 -0.741172 0
M  V30 8781 C 850.964 -0.404292 -3.58326 0
M  V30 8782 O 850.068 0.594447 -4.08093 0
M  V30 8783 H 849.409 -0.150959 -0.646612 0
M  V30 8784 H 851.939 -1.05079 -1.75555 0
M  V30 8785 H 851.949 -0.262378 -4.07155 0
M  V30 8786 H 850.624 -1.40403 -3.91484 0
M  V30 8787 H 849.201 0.415468 -3.70578 0
M  V30 8788 N 851.386 1.48609 -0.524698 0
M  V30 8789 C 852.296 2.33318 0.244923 0
M  V30 8790 C 853.312 1.46153 0.944214 0
M  V30 8791 O 854.488 1.79141 0.920347 0
M  V30 8792 C 851.553 3.22149 1.28144 0
M  V30 8793 C 850.614 4.25184 0.593068 0
M  V30 8794 C 849.847 5.0977 1.5802 0
M  V30 8795 O 850.07 4.96249 2.81235 0
M  V30 8796 O 849.004 5.9134 1.1225 0
M  V30 8797 H 852.83 3.00362 -0.449066 0
M  V30 8798 H 850.415 1.46643 -0.285689 0
M  V30 8799 H 852.297 3.77111 1.88057 0
M  V30 8800 H 850.972 2.57772 1.95793 0
M  V30 8801 H 849.879 3.74071 -0.0464214 0
M  V30 8802 H 851.212 4.92183 -0.0413893 0
M  V30 8803 N 852.864 0.259585 1.55447 0
M  V30 8804 C 854.111 -0.361607 1.99245 0
M  V30 8805 C 854.439 -1.57017 1.14787 0
M  V30 8806 O 853.694 -1.94658 0.201724 0
M  V30 8807 C 853.993 -0.802727 3.48269 0
M  V30 8808 C 853.659 0.299472 4.49904 0
M  V30 8809 C 852.321 0.602157 4.77418 0
M  V30 8810 C 854.673 1.04295 5.10658 0
M  V30 8811 C 852.001 1.65217 5.62957 0
M  V30 8812 C 854.353 2.08257 5.97337 0
M  V30 8813 C 853.017 2.39177 6.23178 0
M  V30 8814 H 852.287 -0.132322 0.72909 0
M  V30 8815 H 854.934 0.370059 1.8789 0
M  V30 8816 H 853.239 -1.61381 3.5702 0
M  V30 8817 H 854.936 -1.29385 3.79553 0
M  V30 8818 H 851.526 0.0534256 4.28567 0
M  V30 8819 H 855.71 0.822358 4.89439 0
M  V30 8820 H 850.966 1.89692 5.81229 0
M  V30 8821 H 855.14 2.6635 6.43452 0
M  V30 8822 H 852.767 3.20677 6.89253 0
M  V30 8823 N 854.342 -1.57594 -0.0133615 0
M  V30 8824 C 855.758 -1.5527 -0.369255 0
M  V30 8825 C 855.958 -0.987751 -1.7563 0
M  V30 8826 O 855.014 -0.615683 -2.44879 0
M  V30 8827 C 856.327 -2.99602 -0.25672 0
M  V30 8828 C 857.875 -3.11227 -0.332647 0
M  V30 8829 C 858.35 -4.57321 -0.249387 0
M  V30 8830 N 859.841 -4.62177 -0.3077 0
M  V30 8831 C 860.576 -5.72781 -0.26641 0
M  V30 8832 N 860.072 -6.92575 -0.176494 0
M  V30 8833 N 861.865 -5.61204 -0.317295 0
M  V30 8834 H 854.016 -1.92662 0.894154 0
M  V30 8835 H 856.279 -0.884352 0.341505 0
M  V30 8836 H 855.985 -3.44723 0.697072 0
M  V30 8837 H 855.859 -3.6246 -1.04415 0
M  V30 8838 H 858.246 -2.66045 -1.27688 0
M  V30 8839 H 858.327 -2.51171 0.484412 0
M  V30 8840 H 857.971 -5.03174 0.691242 0
M  V30 8841 H 857.901 -5.15306 -1.08476 0
M  V30 8842 H 860.392 -3.75994 -0.379069 0
M  V30 8843 H 860.705 -7.72653 -0.150518 0
M  V30 8844 H 859.05 -6.94854 -0.142314 0
M  V30 8845 H 862.241 -4.66509 -0.385643 0
M  V30 8846 H 862.414 -6.47388 -0.28165 0
M  V30 8847 N 855.82 0.285905 -1.54985 0
M  V30 8848 C 857.097 1.0397 -1.65679 0
M  V30 8849 C 857.477 2.04725 -0.514851 0
M  V30 8850 O 856.825 2.23257 0.486663 0
M  V30 8851 C 857.035 1.70807 -3.04345 0
M  V30 8852 C 858.383 2.22447 -3.61666 0
M  V30 8853 O 859.407 1.80815 -3.06895 0
M  V30 8854 O 858.266 2.98773 -4.57599 0
M  V30 8855 H 855.36 0.481473 -0.672394 0
M  V30 8856 H 857.906 0.282789 -1.67327 0
M  V30 8857 H 856.678 0.977271 -3.789 0
M  V30 8858 H 856.301 2.53217 -3.06541 0
M  V30 8859 N 857.298 1.47698 0.54982 0
M  V30 8860 C 858.245 1.60739 1.65625 0
M  V30 8861 C 859.215 0.450129 1.59884 0
M  V30 8862 O 860.4 0.671123 1.78607 0
M  V30 8863 C 857.54 1.63457 3.03934 0
M  V30 8864 C 856.653 2.90152 3.20056 0
M  V30 8865 C 855.788 2.84157 4.48807 0
M  V30 8866 C 854.827 4.05644 4.58387 0
M  V30 8867 N 853.964 3.97843 5.78503 0
M  V30 8868 H 858.804 2.55234 1.53817 0
M  V30 8869 H 856.341 1.26593 0.749173 0
M  V30 8870 H 858.299 1.63015 3.84034 0
M  V30 8871 H 856.929 0.724689 3.1456 0
M  V30 8872 H 855.981 3.00428 2.33339 0
M  V30 8873 H 857.293 3.80097 3.22998 0
M  V30 8874 H 856.447 2.82006 5.37175 0
M  V30 8875 H 855.186 1.91908 4.48356 0
M  V30 8876 H 854.191 4.08092 3.6843 0
M  V30 8877 H 855.416 4.9903 4.60593 0
M  V30 8878 H 853.362 3.08401 5.78986 0
M  V30 8879 H 853.279 4.81473 5.82855 0
M  V30 8880 H 854.547 3.99719 6.69212 0
M  V30 8881 N 858.776 -0.797141 1.35954 0
M  V30 8882 C 859.706 -1.92387 1.32323 0
M  V30 8883 C 860.687 -1.68967 0.196007 0
M  V30 8884 O 861.872 -1.90193 0.39245 0
M  V30 8885 C 859.002 -3.29286 1.10398 0
M  V30 8886 C 857.956 -3.67212 2.19862 0
M  V30 8887 C 857.282 -5.02377 1.8309 0
M  V30 8888 C 858.582 -3.76602 3.61896 0
M  V30 8889 H 860.276 -1.95683 2.26602 0
M  V30 8890 H 857.822 -0.94007 1.09081 0
M  V30 8891 H 859.775 -4.07721 1.06495 0
M  V30 8892 H 858.499 -3.26358 0.125668 0
M  V30 8893 H 857.158 -2.91069 2.22878 0
M  V30 8894 H 856.806 -4.95961 0.838527 0
M  V30 8895 H 856.506 -5.28722 2.56372 0
M  V30 8896 H 858.03 -5.8324 1.80729 0
M  V30 8897 H 859.444 -4.45246 3.6115 0
M  V30 8898 H 857.841 -4.14425 4.34018 0
M  V30 8899 H 858.911 -2.77906 3.97361 0
M  V30 8900 N 860.254 -1.20106 -1.0204 0
M  V30 8901 C 861.482 -1.0344 -1.79186 0
M  V30 8902 C 861.897 0.416542 -1.84148 0
M  V30 8903 O 861.254 1.28925 -1.29168 0
M  V30 8904 C 861.305 -1.60663 -3.23836 0
M  V30 8905 O 861.026 -3.00079 -3.19193 0
M  V30 8906 C 862.527 -1.48897 -4.17546 0
M  V30 8907 H 859.747 -0.364093 -0.563629 0
M  V30 8908 H 862.291 -1.5911 -1.28469 0
M  V30 8909 H 860.446 -1.09122 -3.71714 0
M  V30 8910 H 860.86 -3.27162 -4.09958 0
M  V30 8911 H 862.334 -1.93703 -5.16898 0
M  V30 8912 H 862.811 -0.440843 -4.36982 0
M  V30 8913 H 863.417 -1.9961 -3.75547 0
M  V30 8914 N 861.732 1.21287 -1.00634 0
M  V30 8915 C 863.143 1.72136 -0.722914 0
M  V30 8916 C 863.494 1.8091 0.759338 0
M  V30 8917 O 862.619 1.46458 1.59308 0
M  V30 8918 C 863.214 3.12633 -1.30561 0
M  V30 8919 C 861.773 3.60833 -1.07127 0
M  V30 8920 C 860.92 2.38326 -1.4176 0
M  V30 8921 H 863.871 1.06445 -1.17708 0
M  V30 8922 H 863.892 3.74174 -0.690937 0
M  V30 8923 H 863.404 3.06215 -2.38441 0
M  V30 8924 H 861.505 3.72599 -0.00968671 0
M  V30 8925 H 861.618 4.46226 -1.74411 0
M  V30 8926 H 859.982 2.40575 -0.836412 0
M  V30 8927 H 860.765 2.34558 -2.50674 0
M  V30 8928 N 863.21 0.781244 1.36873 0
M  V30 8929 C 864.459 0.34652 1.98701 0
M  V30 8930 C 864.772 -1.08555 1.62712 0
M  V30 8931 O 865.978 -1.62213 2.17713 0
M  V30 8932 C 864.434 0.568611 3.5538 0
M  V30 8933 C 864.042 2.01156 4.003 0
M  V30 8934 C 865.786 0.197983 4.24038 0
M  V30 8935 C 863.693 2.18074 5.49725 0
M  V30 8936 H 862.623 0.125821 0.743428 0
M  V30 8937 H 865.274 0.961721 1.56279 0
M  V30 8938 H 863.656 -0.116185 3.9583 0
M  V30 8939 H 864.83 2.73209 3.71071 0
M  V30 8940 H 863.145 2.33967 3.44454 0
M  V30 8941 H 865.742 0.302778 5.33842 0
M  V30 8942 H 866.085 -0.852927 4.07469 0
M  V30 8943 H 866.618 0.835696 3.88923 0
M  V30 8944 H 863.357 3.21519 5.71232 0
M  V30 8945 H 862.877 1.50517 5.80607 0
M  V30 8946 H 864.556 1.98393 6.15832 0
M  V30 8947 N 864.689 -1.48329 0.532571 0
M  V30 8948 C 865.917 -2.069 0.00354299 0
M  V30 8949 C 866.332 -1.38876 -1.27902 0
M  V30 8950 O 865.689 -0.477119 -1.76153 0
M  V30 8951 C 865.74 -3.60821 -0.221416 0
M  V30 8952 O 865.461 -4.26291 1.01034 0
M  V30 8953 C 866.962 -4.36194 -0.790531 0
M  V30 8954 H 864.182 -0.670103 0.0346836 0
M  V30 8955 H 866.726 -1.90682 0.738955 0
M  V30 8956 H 864.881 -3.76636 -0.906884 0
M  V30 8957 H 865.295 -5.18475 0.792683 0
M  V30 8958 H 866.769 -5.44657 -0.897347 0
M  V30 8959 H 867.246 -4.00798 -1.79605 0
M  V30 8960 H 867.852 -4.25064 -0.141546 0
M  V30 8961 N 866.167 -0.267825 -1.55308 0
M  V30 8962 C 867.416 0.351635 -1.98611 0
M  V30 8963 C 867.729 1.57522 -1.15957 0
M  V30 8964 O 868.935 2.26717 -1.49371 0
M  V30 8965 C 867.391 0.676986 -3.53475 0
M  V30 8966 C 866.999 -0.526385 -4.44897 0
M  V30 8967 C 868.743 1.25948 -4.05386 0
M  V30 8968 C 866.65 -0.176026 -5.91138 0
M  V30 8969 H 865.58 0.13516 -0.741787 0
M  V30 8970 H 868.231 -0.371333 -1.79704 0
M  V30 8971 H 866.613 1.45866 -3.68156 0
M  V30 8972 H 867.787 -1.30339 -4.41982 0
M  V30 8973 H 866.102 -1.02522 -4.03582 0
M  V30 8974 H 868.699 1.53529 -5.12184 0
M  V30 8975 H 869.042 2.19094 -3.53982 0
M  V30 8976 H 869.575 0.540253 -3.94114 0
M  V30 8977 H 866.314 -1.07518 -6.46622 0
M  V30 8978 H 865.834 0.564363 -5.97139 0
M  V30 8979 H 867.513 0.234365 -6.46575 0
M  V30 8980 N 867.645 1.57599 0.00500368 0
M  V30 8981 C 868.892 1.90349 0.690895 0
M  V30 8982 C 869.22 0.868045 1.74055 0
M  V30 8983 O 868.475 -0.127855 1.95282 0
M  V30 8984 C 868.774 3.29855 1.37588 0
M  V30 8985 C 868.44 4.48548 0.459906 0
M  V30 8986 C 867.102 4.80752 0.207693 0
M  V30 8987 C 869.454 5.20919 -0.171054 0
M  V30 8988 C 866.782 5.82701 -0.683855 0
M  V30 8989 C 869.134 6.23818 -1.05045 0
M  V30 8990 C 867.798 6.54481 -1.31189 0
M  V30 8991 H 867.068 0.696538 0.252816 0
M  V30 8992 H 869.715 1.91436 -0.0494495 0
M  V30 8993 H 868.02 3.24869 2.19015 0
M  V30 8994 H 869.717 3.52452 1.91255 0
M  V30 8995 H 866.307 4.23384 0.666648 0
M  V30 8996 H 870.491 4.96299 0.0107942 0
M  V30 8997 H 865.747 6.04822 -0.894467 0
M  V30 8998 H 869.921 6.79029 -1.54574 0
M  V30 8999 H 867.548 7.33299 -2.00442 0
M  V30 9000 N 869.123 -0.277682 1.55134 0
M  V30 9001 C 870.056 -1.3685 1.82612 0
M  V30 9002 C 871.034 -1.47752 0.678833 0
M  V30 9003 O 872.218 -1.6445 0.921329 0
M  V30 9004 C 869.345 -2.74539 1.98359 0
M  V30 9005 C 868.391 -2.80945 3.20893 0
M  V30 9006 S 869.224 -2.40666 4.78373 0
M  V30 9007 C 870.38 -3.80338 4.97085 0
M  V30 9008 H 870.613 -1.13338 2.74849 0
M  V30 9009 H 868.146 -0.477063 1.46845 0
M  V30 9010 H 870.104 -3.53834 2.08115 0
M  V30 9011 H 868.765 -2.95306 1.07019 0
M  V30 9012 H 867.958 -3.81992 3.28783 0
M  V30 9013 H 867.56 -2.09667 3.09703 0
M  V30 9014 H 869.852 -4.75565 4.8254 0
M  V30 9015 H 870.795 -3.77403 5.99143 0
M  V30 9016 H 871.203 -3.71424 4.25094 0
M  V30 9017 N 870.601 -1.47988 -0.541979 0
M  V30 9018 C 871.511 -1.64276 -1.67483 0
M  V30 9019 C 872.527 -0.525387 -1.65879 0
M  V30 9020 O 873.703 -0.794912 -1.85049 0
M  V30 9021 C 870.768 -1.66744 -3.03969 0
M  V30 9022 C 869.829 -2.90021 -3.16522 0
M  V30 9023 C 869.062 -2.92362 -4.46498 0
M  V30 9024 O 869.285 -2.03462 -5.32878 0
M  V30 9025 O 868.219 -3.84399 -4.63164 0
M  V30 9026 H 872.045 -2.60164 -1.5668 0
M  V30 9027 H 869.63 -1.31249 -0.71372 0
M  V30 9028 H 871.512 -1.70958 -3.85164 0
M  V30 9029 H 870.187 -0.740277 -3.15122 0
M  V30 9030 H 869.094 -2.91345 -2.34667 0
M  V30 9031 H 870.427 -3.82082 -3.10281 0
M  V30 9032 N 872.079 0.78992 -1.36375 0
M  V30 9033 C 873.309 1.57644 -1.33536 0
M  V30 9034 C 873.717 1.89007 0.0855075 0
M  V30 9035 O 873.06 1.50547 1.05267 0
M  V30 9036 C 873.122 2.92424 -2.09113 0
M  V30 9037 C 872.786 2.83793 -3.58205 0
M  V30 9038 C 873.783 2.56072 -4.52464 0
M  V30 9039 C 871.468 3.02386 -4.01084 0
M  V30 9040 C 873.462 2.47044 -5.87578 0
M  V30 9041 C 871.149 2.9298 -5.36289 0
M  V30 9042 C 872.147 2.65347 -6.29349 0
M  V30 9043 O 871.835 2.55935 -7.62071 0
M  V30 9044 H 871.567 0.495639 -0.459694 0
M  V30 9045 H 874.121 0.988354 -1.80058 0
M  V30 9046 H 872.351 3.53282 -1.57254 0
M  V30 9047 H 874.04 3.53693 -1.99139 0
M  V30 9048 H 874.806 2.4141 -4.2065 0
M  V30 9049 H 870.685 3.229 -3.29023 0
M  V30 9050 H 874.229 2.25396 -6.60184 0
M  V30 9051 H 870.126 3.07204 -5.67711 0
M  V30 9052 H 870.894 2.7142 -7.72187 0
M  V30 9053 N 873.557 1.20646 1.01402 0
M  V30 9054 C 874.973 0.961866 1.27359 0
M  V30 9055 C 875.173 -0.357083 1.98311 0
M  V30 9056 O 874.229 -1.08498 2.28001 0
M  V30 9057 C 875.542 2.14627 2.10609 0
M  V30 9058 C 877.09 2.18753 2.23866 0
M  V30 9059 C 877.565 3.36686 3.10494 0
M  V30 9060 N 879.056 3.36716 3.18083 0
M  V30 9061 C 879.791 4.24615 3.85343 0
M  V30 9062 N 879.287 5.22697 4.54708 0
M  V30 9063 N 881.08 4.12449 3.81893 0
M  V30 9064 H 873.231 2.05481 0.537721 0
M  V30 9065 H 875.494 0.899292 0.299963 0
M  V30 9066 H 875.2 3.10159 1.65814 0
M  V30 9067 H 875.074 2.12935 3.11349 0
M  V30 9068 H 877.461 1.23782 2.67885 0
M  V30 9069 H 877.542 2.24492 1.22626 0
M  V30 9070 H 877.186 4.31945 2.67181 0
M  V30 9071 H 877.116 3.28185 4.11828 0
M  V30 9072 H 879.607 2.65728 2.68695 0
M  V30 9073 H 879.92 5.86087 5.03708 0
M  V30 9074 H 878.265 5.26631 4.53525 0
M  V30 9075 H 881.456 3.35091 3.26851 0
M  V30 9076 H 881.629 4.81162 4.34035 0
M  V30 9077 N 875.035 -1.20752 1.01276 0
M  V30 9078 C 875.965 -2.25658 0.600064 0
M  V30 9079 C 876.946 -1.65733 -0.38298 0
M  V30 9080 O 878.131 -1.92324 -0.269256 0
M  V30 9081 C 875.261 -3.47237 -0.0663197 0
M  V30 9082 C 874.215 -4.1973 0.83731 0
M  V30 9083 C 873.541 -5.34687 0.0369102 0
M  V30 9084 C 874.841 -4.76286 2.14357 0
M  V30 9085 H 876.535 -2.60432 1.477 0
M  V30 9086 H 874.081 -1.25187 0.711634 0
M  V30 9087 H 876.034 -4.19803 -0.366563 0
M  V30 9088 H 874.758 -3.11615 -0.977944 0
M  V30 9089 H 873.417 -3.49024 1.1215 0
M  V30 9090 H 873.065 -4.95309 -0.876244 0
M  V30 9091 H 872.765 -5.84119 0.63865 0
M  V30 9092 H 874.289 -6.10059 -0.256968 0
M  V30 9093 H 875.703 -5.40691 1.90595 0
M  V30 9094 H 874.1 -5.36139 2.69583 0
M  V30 9095 H 875.17 -3.9524 2.80916 0
M  V30 9096 N 876.513 -0.788492 -1.36457 0
M  V30 9097 C 877.79 -0.284484 -1.9352 0
M  V30 9098 C 878.17 1.2232 -1.7205 0
M  V30 9099 O 877.518 2.01424 -1.07892 0
M  V30 9100 C 877.728 -0.676106 -3.42388 0
M  V30 9101 C 879.076 -0.655327 -4.19512 0
M  V30 9102 O 880.1 -0.616523 -3.50824 0
M  V30 9103 O 878.959 -0.697391 -5.42032 0
M  V30 9104 H 876.053 -0.0701769 -0.824017 0
M  V30 9105 H 878.599 -0.870974 -1.45644 0
M  V30 9106 H 877.371 -1.71596 -3.51668 0
M  V30 9107 H 876.994 -0.0634517 -3.97549 0
M  V30 9108 N 877.991 1.48044 -0.54043 0
M  V30 9109 C 879.221 2.06595 -0.0144943 0
M  V30 9110 C 879.629 1.39593 1.27713 0
M  V30 9111 O 878.972 0.480794 1.77297 0
M  V30 9112 C 879.034 3.5849 0.269316 0
M  V30 9113 C 878.698 4.47429 -0.930372 0
M  V30 9114 C 879.695 4.8657 -1.83155 0
M  V30 9115 C 877.38 4.89185 -1.14032 0
M  V30 9116 C 879.374 5.66246 -2.92649 0
M  V30 9117 C 877.061 5.6863 -2.23838 0
M  V30 9118 C 878.059 6.07069 -3.12979 0
M  V30 9119 O 877.747 6.84917 -4.20884 0
M  V30 9120 H 877.479 0.675086 -0.0351467 0
M  V30 9121 H 880.033 1.91275 -0.74853 0
M  V30 9122 H 878.263 3.71961 1.05745 0
M  V30 9123 H 879.952 3.99124 0.738595 0
M  V30 9124 H 880.718 4.54924 -1.68134 0
M  V30 9125 H 876.597 4.58742 -0.455717 0
M  V30 9126 H 880.141 5.96169 -3.62254 0
M  V30 9127 H 876.038 5.99688 -2.38839 0
M  V30 9128 H 876.806 7.03287 -4.18723 0
M  V30 9129 N 879.47 0.276058 1.55163 0
M  V30 9130 C 880.886 -0.0780579 1.59409 0
M  V30 9131 C 881.086 -1.54521 1.29327 0
M  V30 9132 O 880.142 -2.29422 1.05459 0
M  V30 9133 C 881.455 0.297422 2.99225 0
M  V30 9134 C 883.003 0.244117 3.12047 0
M  V30 9135 C 883.478 0.594051 4.54131 0
M  V30 9136 N 884.969 0.54564 4.59975 0
M  V30 9137 C 885.704 0.789192 5.67943 0
M  V30 9138 N 885.2 1.09741 6.84053 0
M  V30 9139 N 886.993 0.717926 5.57496 0
M  V30 9140 H 879.144 1.23251 1.72982 0
M  V30 9141 H 881.407 0.497988 0.806667 0
M  V30 9142 H 881.113 1.31782 3.26077 0
M  V30 9143 H 880.987 -0.361286 3.75466 0
M  V30 9144 H 883.374 -0.766992 2.84958 0
M  V30 9145 H 883.455 0.937097 2.38017 0
M  V30 9146 H 883.099 1.60285 4.81945 0
M  V30 9147 H 883.029 -0.120728 5.26462 0
M  V30 9148 H 885.52 0.317334 3.76565 0
M  V30 9149 H 885.833 1.26989 7.62295 0
M  V30 9150 H 884.178 1.13519 6.85666 0
M  V30 9151 H 887.369 0.47697 4.65664 0
M  V30 9152 H 887.542 0.911118 6.41563 0
M  V30 9153 N 880.948 -1.576 0.00335426 0
M  V30 9154 C 882.176 -1.94996 -0.691685 0
M  V30 9155 C 882.591 -0.878405 -1.67121 0
M  V30 9156 O 881.948 0.142343 -1.81944 0
M  V30 9157 C 881.999 -3.32416 -1.42063 0
M  V30 9158 O 881.72 -4.35458 -0.48038 0
M  V30 9159 C 883.221 -3.84291 -2.20987 0
M  V30 9160 H 880.441 -0.642814 -0.192434 0
M  V30 9161 H 882.985 -2.04425 0.0554706 0
M  V30 9162 H 881.14 -3.24285 -2.11939 0
M  V30 9163 H 881.554 -5.14975 -0.995054 0
M  V30 9164 H 883.028 -4.82863 -2.67483 0
M  V30 9165 H 883.505 -3.17174 -3.03805 0
M  V30 9166 H 884.111 -3.95609 -1.56121 0
M  V30 9167 N 882.426 0.269451 -1.5528 0
M  V30 9168 C 883.389 1.31642 -1.87625 0
M  V30 9169 C 884.389 1.42182 -0.751058 0
M  V30 9170 O 885.579 1.41272 -1.01921 0
M  V30 9171 C 882.711 2.6973 -2.08467 0
M  V30 9172 H 883.904 1.0419 -2.81219 0
M  V30 9173 H 881.457 0.507685 -1.47825 0
M  V30 9174 H 882.192 3.02356 -1.17266 0
M  V30 9175 H 881.977 2.63465 -2.90394 0
M  V30 9176 H 883.467 3.4537 -2.34753 0
M  V30 9177 N 883.904 1.48273 0.534124 0
M  V30 9178 C 884.867 1.6201 1.62127 0
M  V30 9179 C 885.867 0.493653 1.53035 0
M  V30 9180 O 887.057 0.759337 1.56779 0
M  V30 9181 C 884.189 1.5864 3.01739 0
M  V30 9182 H 885.382 2.58944 1.51288 0
M  V30 9183 H 882.935 1.36808 0.755861 0
M  V30 9184 H 883.67 0.631685 3.18088 0
M  V30 9185 H 883.455 2.40415 3.09747 0
M  V30 9186 H 884.945 1.71438 3.80787 0
M  V30 9187 N 885.382 -0.782676 1.36792 0
M  V30 9188 C 886.659 -1.52939 1.21939 0
M  V30 9189 C 887.039 -2.10228 -0.191639 0
M  V30 9190 O 886.387 -1.94574 -1.19805 0
M  V30 9191 C 886.597 -2.61898 2.30674 0
M  V30 9192 C 887.945 -3.29598 2.67676 0
M  V30 9193 O 888.969 -2.72186 2.29768 0
M  V30 9194 O 887.828 -4.3337 3.32946 0
M  V30 9195 H 884.922 -0.676856 0.47518 0
M  V30 9196 H 887.468 -0.82058 1.48542 0
M  V30 9197 H 886.24 -2.17607 3.25212 0
M  V30 9198 H 885.863 -3.40391 2.05475 0
M  V30 9199 N 886.86 -1.21182 -1.00761 0
M  V30 9200 C 888.088 -1.05335 -1.78079 0
M  V30 9201 C 888.503 0.396988 -1.84579 0
M  V30 9202 O 887.86 1.27548 -1.30529 0
M  V30 9203 C 887.911 -1.64089 -3.22113 0
M  V30 9204 O 887.632 -3.03448 -3.15992 0
M  V30 9205 C 889.133 -1.53318 -4.15943 0
M  V30 9206 H 886.353 -0.37005 -0.559736 0
M  V30 9207 H 888.897 -1.60463 -1.26775 0
M  V30 9208 H 887.052 -1.13059 -3.70535 0
M  V30 9209 H 887.466 -3.31492 -4.06465 0
M  V30 9210 H 888.94 -1.99174 -5.14814 0
M  V30 9211 H 889.417 -0.487166 -4.3649 0
M  V30 9212 H 890.023 -2.03582 -3.73409 0
M  V30 9213 N 888.338 1.20213 -1.01915 0
M  V30 9214 C 889.566 1.93622 -0.729255 0
M  V30 9215 C 889.981 1.74923 0.710444 0
M  V30 9216 O 889.338 1.06484 1.48214 0
M  V30 9217 C 889.389 3.45651 -1.05865 0
M  V30 9218 O 889.11 3.63741 -2.44181 0
M  V30 9219 C 890.611 4.36201 -0.790176 0
M  V30 9220 H 887.831 0.615333 -0.267594 0
M  V30 9221 H 890.375 1.52633 -1.36101 0
M  V30 9222 H 888.53 3.84511 -0.47225 0
M  V30 9223 H 888.944 4.57702 -2.56143 0
M  V30 9224 H 890.418 5.41516 -1.07071 0
M  V30 9225 H 890.895 4.38334 0.275609 0
M  V30 9226 H 891.501 4.03008 -1.35885 0
M  V30 9227 N 889.816 0.795718 1.36037 0
M  V30 9228 C 891.064 0.370291 1.98679 0
M  V30 9229 C 891.385 -1.06332 1.63458 0
M  V30 9230 O 890.655 -1.73394 0.911671 0
M  V30 9231 H 889.235 0.133928 0.734896 0
M  V30 9232 H 891.897 1.01915 1.6613 0
M  V30 9233 H 890.993 0.467207 3.08583 0
M  V30 9234 N 891.294 -1.47756 0.548274 0
M  V30 9235 C 892.224 -2.32702 -0.19284 0
M  V30 9236 C 893.205 -1.43237 -0.917457 0
M  V30 9237 O 894.39 -1.72103 -0.89967 0
M  V30 9238 C 891.52 -3.24831 -1.22891 0
M  V30 9239 C 890.474 -4.23466 -0.621312 0
M  V30 9240 C 889.8 -5.04856 -1.76137 0
M  V30 9241 C 891.1 -5.20616 0.419055 0
M  V30 9242 H 892.794 -2.94914 0.516323 0
M  V30 9243 H 890.34 -1.41818 0.24975 0
M  V30 9244 H 892.293 -3.83094 -1.75547 0
M  V30 9245 H 891.017 -2.60656 -1.9679 0
M  V30 9246 H 889.676 -3.66416 -0.116123 0
M  V30 9247 H 889.324 -4.37091 -2.48918 0
M  V30 9248 H 889.024 -5.71629 -1.36065 0
M  V30 9249 H 890.548 -5.65976 -2.29136 0
M  V30 9250 H 891.962 -5.73296 -0.0211034 0
M  V30 9251 H 890.359 -5.95543 0.738163 0
M  V30 9252 H 891.429 -4.66638 1.31822 0
M  V30 9253 N 892.772 -0.284283 -1.55015 0
M  V30 9254 C 893.704 0.63258 -2.20298 0
M  V30 9255 C 894.717 1.11045 -1.1905 0
M  V30 9256 O 895.906 1.03078 -1.4573 0
M  V30 9257 C 893.006 1.87599 -2.82241 0
M  V30 9258 C 892.179 1.5434 -4.09265 0
M  V30 9259 C 891.238 2.64023 -4.55169 0
M  V30 9260 O 890.264 2.29821 -5.20741 0
M  V30 9261 N 891.466 3.94255 -4.26079 0
M  V30 9262 H 894.231 0.0737928 -2.99609 0
M  V30 9263 H 891.792 -0.105767 -1.61554 0
M  V30 9264 H 893.784 2.60289 -3.0989 0
M  V30 9265 H 892.354 2.3436 -2.06868 0
M  V30 9266 H 891.574 0.649912 -3.88806 0
M  V30 9267 H 892.862 1.29634 -4.92009 0
M  V30 9268 H 892.26 4.24859 -3.73512 0
M  V30 9269 H 890.817 4.63295 -4.58477 0
M  V30 9270 N 894.251 1.57596 -0.0117121 0
M  V30 9271 C 895.662 1.79033 0.529521 0
M  V30 9272 C 896.013 0.920299 1.73277 0
M  V30 9273 O 895.138 0.125934 2.16033 0
M  V30 9274 C 895.733 3.24695 0.967405 0
M  V30 9275 C 894.292 3.47188 1.45387 0
M  V30 9276 C 893.439 2.74245 0.410466 0
M  V30 9277 H 896.39 1.56908 -0.237836 0
M  V30 9278 H 896.411 3.33451 1.83278 0
M  V30 9279 H 895.923 3.87992 0.0914605 0
M  V30 9280 H 894.024 2.89121 2.35032 0
M  V30 9281 H 894.137 4.55886 1.47325 0
M  V30 9282 H 892.501 2.39209 0.874721 0
M  V30 9283 H 893.284 3.40248 -0.456713 0
M  V30 9284 N 895.729 -0.261212 1.5542 0
M  V30 9285 C 896.978 -0.989072 1.75785 0
M  V30 9286 C 897.291 -1.8702 0.572961 0
M  V30 9287 O 898.497 -2.63374 0.659289 0
M  V30 9288 C 896.953 -1.80857 3.11157 0
M  V30 9289 C 896.561 -0.975535 4.3725 0
M  V30 9290 C 898.305 -2.53003 3.40866 0
M  V30 9291 C 896.212 -1.7901 5.63657 0
M  V30 9292 H 895.142 -0.373019 0.655266 0
M  V30 9293 H 897.793 -0.244267 1.81867 0
M  V30 9294 H 896.175 -2.59479 2.99144 0
M  V30 9295 H 897.349 -0.232661 4.60212 0
M  V30 9296 H 895.664 -0.368083 4.1477 0
M  V30 9297 H 898.261 -3.14372 4.32521 0
M  V30 9298 H 898.604 -3.23891 2.61535 0
M  V30 9299 H 899.137 -1.81403 3.54031 0
M  V30 9300 H 895.876 -1.12522 6.4577 0
M  V30 9301 H 895.396 -2.50863 5.44819 0
M  V30 9302 H 897.075 -2.36082 6.0239 0
M  V30 9303 N 897.207 -1.48554 -0.526253 0
M  V30 9304 C 898.137 -1.66252 -1.63959 0
M  V30 9305 C 899.118 -0.511351 -1.62232 0
M  V30 9306 O 900.303 -0.744322 -1.7937 0
M  V30 9307 C 897.433 -1.70556 -3.02536 0
M  V30 9308 C 896.387 -2.8521 -3.19123 0
M  V30 9309 C 895.713 -2.74606 -4.58798 0
M  V30 9310 C 897.013 -4.26463 -3.0154 0
M  V30 9311 H 898.707 -2.59459 -1.49404 0
M  V30 9312 H 896.253 -1.24862 -0.717326 0
M  V30 9313 H 898.206 -1.81524 -3.80298 0
M  V30 9314 H 896.93 -0.739297 -3.18123 0
M  V30 9315 H 895.589 -2.73802 -2.43779 0
M  V30 9316 H 895.237 -1.75941 -4.71226 0
M  V30 9317 H 894.937 -3.51544 -4.70841 0
M  V30 9318 H 896.461 -2.87548 -5.38655 0
M  V30 9319 H 897.875 -4.38685 -3.69091 0
M  V30 9320 H 896.272 -5.04428 -3.25073 0
M  V30 9321 H 897.342 -4.42667 -1.97925 0
M  V30 9322 N 898.685 0.775411 -1.37205 0
M  V30 9323 C 899.633 1.90996 -1.32752 0
M  V30 9324 C 900.627 1.68006 -0.216907 0
M  V30 9325 O 901.833 1.7584 -0.384723 0
M  V30 9326 H 898.208 0.62803 -0.413621 0
M  V30 9327 H 900.179 1.91869 -2.28536 0
M  V30 9328 C 898.928 3.28211 -1.14772 0
M  V30 9329 H 898.251 3.46477 -1.99484 0
M  V30 9330 H 899.691 4.07907 -1.15706 0
M  V30 9331 C 898.15 3.3658 0.146852 0
M  V30 9332 O 898.68 3.85428 1.13173 0
M  V30 9333 N 896.886 2.89936 0.196305 0
M  V30 9334 H 896.433 2.50375 -0.605807 0
M  V30 9335 H 896.391 2.95916 1.06212 0
M  V30 9336 N 900.163 1.21714 1.00117 0
M  V30 9337 C 901.095 0.937627 2.09144 0
M  V30 9338 C 902.108 -0.0806291 1.626 0
M  V30 9339 O 903.297 0.152348 1.77849 0
M  V30 9340 C 900.397 0.387036 3.36683 0
M  V30 9341 C 899.57 1.46054 4.12295 0
M  V30 9342 C 898.629 0.918505 5.18122 0
M  V30 9343 O 897.655 1.60282 5.46167 0
M  V30 9344 N 898.857 -0.264308 5.79898 0
M  V30 9345 H 901.622 1.87622 2.33705 0
M  V30 9346 H 899.183 1.12291 1.16629 0
M  V30 9347 H 901.175 0.00992825 4.04699 0
M  V30 9348 H 899.745 -0.456467 3.09249 0
M  V30 9349 H 898.965 2.01133 3.39027 0
M  V30 9350 H 900.253 2.18306 4.59587 0
M  V30 9351 H 899.651 -0.837242 5.5947 0
M  V30 9352 H 898.208 -0.582886 6.49188 0
M  V30 9353 N 901.641 -1.19671 1.02551 0
M  V30 9354 C 902.888 -1.89268 0.720002 0
M  V30 9355 C 903.216 -1.79411 -0.751127 0
M  V30 9356 O 902.471 -1.17859 -1.5623 0
M  V30 9357 C 902.77 -3.39647 1.11241 0
M  V30 9358 C 902.436 -3.69706 2.58125 0
M  V30 9359 C 901.098 -3.7762 2.98256 0
M  V30 9360 C 903.45 -3.83301 3.53171 0
M  V30 9361 C 900.778 -3.96594 4.32354 0
M  V30 9362 C 903.13 -4.03788 4.86968 0
M  V30 9363 C 901.794 -4.09934 5.26793 0
M  V30 9364 H 901.064 -0.692579 0.263467 0
M  V30 9365 H 903.711 -1.41738 1.28774 0
M  V30 9366 H 902.016 -3.89052 0.463234 0
M  V30 9367 H 903.713 -3.91809 0.853602 0
M  V30 9368 H 900.303 -3.64152 2.26033 0
M  V30 9369 H 904.487 -3.76534 3.2332 0
M  V30 9370 H 899.743 -3.9959 4.6275 0
M  V30 9371 H 903.917 -4.1325 5.60533 0
M  V30 9372 H 901.544 -4.24389 6.30712 0
M  V30 9373 N 903.119 -0.802921 -1.35613 0
M  V30 9374 C 904.347 -0.39393 -2.03115 0
M  V30 9375 C 904.762 0.993961 -1.60517 0
M  V30 9376 O 904.119 1.63984 -0.800973 0
M  V30 9377 C 904.17 -0.463486 -3.58516 0
M  V30 9378 O 903.891 -1.79666 -3.99565 0
M  V30 9379 C 905.392 -0.0468377 -4.43275 0
M  V30 9380 H 902.612 -0.160519 -0.651517 0
M  V30 9381 H 905.156 -1.08552 -1.73311 0
M  V30 9382 H 903.311 0.179821 -3.86982 0
M  V30 9383 H 903.725 -1.75688 -4.942 0
M  V30 9384 H 905.199 -0.146626 -5.51805 0
M  V30 9385 H 905.676 1.00741 -4.2749 0
M  V30 9386 H 906.282 -0.663158 -4.20098 0
M  V30 9387 N 904.597 1.47463 -0.556102 0
M  V30 9388 C 906.008 1.86298 -0.122429 0
M  V30 9389 C 906.359 1.46285 1.30749 0
M  V30 9390 O 905.484 0.865405 1.98342 0
M  V30 9391 C 906.079 3.38115 -0.215407 0
M  V30 9392 C 904.638 3.76046 0.163223 0
M  V30 9393 C 903.785 2.71515 -0.563466 0
M  V30 9394 H 906.736 1.38996 -0.765888 0
M  V30 9395 H 906.757 3.76263 0.566271 0
M  V30 9396 H 906.269 3.67207 -1.25622 0
M  V30 9397 H 904.37 3.5257 1.20519 0
M  V30 9398 H 904.483 4.78705 -0.194568 0
M  V30 9399 H 902.847 2.54699 -0.00667879 0
M  V30 9400 H 903.63 3.03449 -1.60542 0
M  V30 9401 N 906.075 0.2925 1.54862 0
M  V30 9402 C 907.038 -0.574423 2.21885 0
M  V30 9403 C 908.038 -1.06791 1.20218 0
M  V30 9404 O 909.228 -0.9653 1.45009 0
M  V30 9405 C 906.36 -1.79438 2.89853 0
M  V30 9406 H 907.553 0.0110319 2.99898 0
M  V30 9407 H 905.106 0.043256 1.5624 0
M  V30 9408 H 905.841 -2.4199 2.15897 0
M  V30 9409 H 905.626 -1.44827 3.64373 0
M  V30 9410 H 907.116 -2.41048 3.41007 0
M  V30 9411 N 907.553 -1.57587 0.0200696 0
M  V30 9412 C 908.501 -2.10814 -0.982868 0
M  V30 9413 C 909.495 -1.03263 -1.34287 0
M  V30 9414 O 910.701 -1.21708 -1.32617 0
M  V30 9415 H 907.076 -0.673409 -0.334701 0
M  V30 9416 H 909.047 -2.94034 -0.50856 0
M  V30 9417 C 907.796 -2.64301 -2.25921 0
M  V30 9418 H 907.119 -3.46703 -1.99091 0
M  V30 9419 H 908.559 -3.052 -2.94328 0
M  V30 9420 C 907.018 -1.56628 -2.98277 0
M  V30 9421 O 907.548 -0.960825 -3.9004 0
M  V30 9422 N 905.754 -1.28889 -2.60453 0
M  V30 9423 H 905.301 -1.7831 -1.85912 0
M  V30 9424 H 905.259 -0.570697 -3.09177 0
M  V30 9425 N 909.032 0.252966 -1.55557 0
M  V30 9426 C 910.281 0.979736 -1.76307 0
M  V30 9427 C 910.594 1.86714 -0.582871 0
M  V30 9428 O 911.8 2.6302 -0.673247 0
M  V30 9429 C 910.256 1.79205 -3.12112 0
M  V30 9430 C 909.864 0.952333 -4.37761 0
M  V30 9431 C 911.608 2.51191 -3.42203 0
M  V30 9432 C 909.515 1.76018 -5.64599 0
M  V30 9433 H 908.445 0.369538 -0.657235 0
M  V30 9434 H 911.096 0.234619 -1.81994 0
M  V30 9435 H 909.478 2.57888 -3.00515 0
M  V30 9436 H 910.652 0.208251 -4.60329 0
M  V30 9437 H 908.967 0.346082 -4.14959 0
M  V30 9438 H 911.564 3.12074 -4.34182 0
M  V30 9439 H 911.907 3.22499 -2.63249 0
M  V30 9440 H 912.44 1.79523 -3.54988 0
M  V30 9441 H 909.179 1.09095 -6.46358 0
M  V30 9442 H 908.699 2.4797 -5.46142 0
M  V30 9443 H 910.378 2.32884 -6.03634 0
M  V30 9444 N 910.51 1.48831 0.518367 0
M  V30 9445 C 911.735 1.61379 1.30275 0
M  V30 9446 C 912.16 0.278571 1.86026 0
M  V30 9447 O 911.518 -0.751427 1.64995 0
M  V30 9448 C 911.566 2.67225 2.42122 0
M  V30 9449 O 910.67 2.25192 3.45489 0
M  V30 9450 H 910.011 0.540742 0.385349 0
M  V30 9451 H 912.541 1.949 0.622498 0
M  V30 9452 H 912.551 2.88859 2.8814 0
M  V30 9453 H 911.226 3.64155 2.00907 0
M  V30 9454 H 909.803 2.13819 3.05509 0
M  V30 9455 N 911.988 -0.768124 1.37614 0
M  V30 9456 C 913.404 -1.06919 1.18493 0
M  V30 9457 C 913.604 -2.01486 0.0235753 0
M  V30 9458 O 912.66 -2.4438 -0.635209 0
M  V30 9459 C 913.973 -1.66321 2.50515 0
M  V30 9460 C 915.521 -1.78562 2.57069 0
M  V30 9461 C 915.996 -2.41377 3.89231 0
M  V30 9462 N 917.487 -2.48824 3.90693 0
M  V30 9463 C 918.222 -2.98288 4.89706 0
M  V30 9464 N 917.718 -3.47897 5.99115 0
M  V30 9465 N 919.511 -2.97196 4.77107 0
M  V30 9466 H 911.662 -0.140286 2.11936 0
M  V30 9467 H 913.925 -0.124863 0.939741 0
M  V30 9468 H 913.631 -1.04303 3.35878 0
M  V30 9469 H 913.505 -2.65571 2.67866 0
M  V30 9470 H 915.892 -2.39712 1.72111 0
M  V30 9471 H 915.973 -0.780574 2.43599 0
M  V30 9472 H 915.617 -1.80866 4.74605 0
M  V30 9473 H 915.547 -3.42495 4.00006 0
M  V30 9474 H 918.038 -2.1372 3.1166 0
M  V30 9475 H 918.351 -3.84053 6.70614 0
M  V30 9476 H 916.696 -3.45993 6.02755 0
M  V30 9477 H 919.887 -2.57741 3.90752 0
M  V30 9478 H 920.06 -3.35434 5.54426 0
M  V30 9479 N 913.466 -1.22244 -0.994698 0
M  V30 9480 C 914.398 -0.948706 -2.08644 0
M  V30 9481 C 915.411 0.0720049 -1.62641 0
M  V30 9482 O 916.6 -0.161778 -1.77765 0
M  V30 9483 C 913.7 -0.404885 -3.36473 0
M  V30 9484 C 912.873 -1.48239 -4.11514 0
M  V30 9485 C 911.932 -0.94597 -5.17627 0
M  V30 9486 O 910.958 -1.63177 -5.45309 0
M  V30 9487 N 912.16 0.23355 -5.8003 0
M  V30 9488 H 914.925 -1.88858 -2.32707 0
M  V30 9489 H 912.486 -1.12908 -1.16032 0
M  V30 9490 H 914.478 -0.0313903 -4.04688 0
M  V30 9491 H 913.048 0.440061 -3.09487 0
M  V30 9492 H 912.268 -2.02928 -3.37955 0
M  V30 9493 H 913.556 -2.20741 -4.58422 0
M  V30 9494 H 912.954 0.80756 -5.59906 0
M  V30 9495 H 911.511 0.54845 -6.49488 0
M  V30 9496 N 914.944 1.19125 -1.03184 0
M  V30 9497 C 915.907 2.20662 -0.619766 0
M  V30 9498 C 916.907 1.57621 0.318179 0
M  V30 9499 O 918.097 1.73885 0.104783 0
M  V30 9500 C 915.229 3.40774 0.0926696 0
M  V30 9501 H 916.422 2.58633 -1.5182 0
M  V30 9502 H 913.975 1.32855 -0.823364 0
M  V30 9503 H 914.71 3.08324 1.00531 0
M  V30 9504 H 914.495 3.87766 -0.581344 0
M  V30 9505 H 915.985 4.15977 0.367792 0
M  V30 9506 N 916.422 0.810101 1.35185 0
M  V30 9507 C 917.372 0.195541 2.2716 0
M  V30 9508 C 918.356 -0.632691 1.47939 0
M  V30 9509 O 919.548 -0.489372 1.701 0
M  V30 9510 C 916.677 -0.652164 3.37049 0
M  V30 9511 C 915.763 0.185989 4.23692 0
M  V30 9512 N 916.154 1.25073 4.90092 0
M  V30 9513 C 914.452 -0.0318033 4.45989 0
M  V30 9514 C 915.153 1.76272 5.54349 0
M  V30 9515 N 914.129 1.06861 5.32993 0
M  V30 9516 H 917.931 1.01018 2.75994 0
M  V30 9517 H 915.445 0.651612 1.48754 0
M  V30 9518 H 917.442 -1.10851 4.01893 0
M  V30 9519 H 916.102 -1.46511 2.89767 0
M  V30 9520 H 917.113 1.63341 4.91467 0
M  V30 9521 H 913.79 -0.813607 4.09496 0
M  V30 9522 H 915.18 2.65278 6.17315 0
M  V30 9523 N 917.9 -1.47166 0.563914 0
M  V30 9524 C 919.149 -2.0166 0.0401871 0
M  V30 9525 C 919.462 -1.44303 -1.32046 0
M  V30 9526 O 920.668 -1.905 -1.93448 0
M  V30 9527 C 919.124 -3.59894 0.0213257 0
M  V30 9528 C 918.732 -4.26244 1.37914 0
M  V30 9529 C 920.476 -4.22114 -0.449442 0
M  V30 9530 C 918.383 -5.76503 1.31902 0
M  V30 9531 H 917.313 -0.753916 0.0112534 0
M  V30 9532 H 919.964 -1.69091 0.712766 0
M  V30 9533 H 918.346 -3.89454 -0.717038 0
M  V30 9534 H 919.52 -4.08317 2.13574 0
M  V30 9535 H 917.835 -3.76039 1.78839 0
M  V30 9536 H 920.432 -5.32234 -0.51292 0
M  V30 9537 H 920.775 -3.89749 -1.46291 0
M  V30 9538 H 921.308 -3.9711 0.23427 0
M  V30 9539 H 918.047 -6.13498 2.3087 0
M  V30 9540 H 917.567 -5.96748 0.604324 0
M  V30 9541 H 919.246 -6.38846 1.02392 0
M  V30 9542 N 919.378 -0.300708 -1.54705 0
M  V30 9543 C 920.308 0.568675 -2.26469 0
M  V30 9544 C 921.289 1.13817 -1.26411 0
M  V30 9545 O 922.474 1.16756 -1.55183 0
M  V30 9546 C 919.604 1.74077 -3.00524 0
M  V30 9547 C 918.558 1.30165 -4.07727 0
M  V30 9548 C 917.884 2.55888 -4.69495 0
M  V30 9549 C 919.184 0.433106 -5.20501 0
M  V30 9550 H 920.878 -0.0298851 -2.99385 0
M  V30 9551 H 918.424 -0.0158135 -1.43991 0
M  V30 9552 H 920.377 2.35506 -3.49449 0
M  V30 9553 H 919.101 2.36556 -2.25186 0
M  V30 9554 H 917.76 0.710414 -3.59651 0
M  V30 9555 H 917.408 3.16681 -3.90797 0
M  V30 9556 H 917.108 2.27207 -5.41895 0
M  V30 9557 H 918.632 3.18121 -5.21183 0
M  V30 9558 H 920.046 0.95307 -5.65322 0
M  V30 9559 H 918.443 0.240085 -5.9962 0
M  V30 9560 H 919.513 -0.541866 -4.81863 0
M  V30 9561 N 920.856 1.57574 -0.0284266 0
M  V30 9562 C 921.786 2.1321 0.952039 0
M  V30 9563 C 922.767 1.04806 1.33977 0
M  V30 9564 O 923.952 1.32635 1.41851 0
M  V30 9565 C 921.082 2.65862 2.23461 0
M  V30 9566 C 920.036 3.79047 1.98765 0
M  V30 9567 C 919.362 4.18124 3.33281 0
M  V30 9568 C 920.662 5.05151 1.32739 0
M  V30 9569 H 922.356 2.95385 0.488705 0
M  V30 9570 H 919.902 1.42092 0.233628 0
M  V30 9571 H 921.855 3.03417 2.92431 0
M  V30 9572 H 920.579 1.80848 2.71959 0
M  V30 9573 H 919.238 3.41929 1.32213 0
M  V30 9574 H 918.886 3.30092 3.79537 0
M  V30 9575 H 918.586 4.94396 3.17563 0
M  V30 9576 H 920.11 4.58262 4.0352 0
M  V30 9577 H 921.524 5.40297 1.91708 0
M  V30 9578 H 919.921 5.86416 1.27421 0
M  V30 9579 H 920.991 4.83969 0.300261 0
M  V30 9580 N 922.334 -0.244713 1.55689 0
M  V30 9581 C 923.611 -0.995407 1.68378 0
M  V30 9582 C 923.991 -2.03288 0.568949 0
M  V30 9583 O 923.339 -2.24469 -0.427299 0
M  V30 9584 C 923.549 -1.62678 3.08767 0
M  V30 9585 C 924.897 -2.1278 3.67437 0
M  V30 9586 O 925.921 -1.72614 3.11581 0
M  V30 9587 O 924.78 -2.86536 4.65359 0
M  V30 9588 H 921.874 -0.463476 0.684923 0
M  V30 9589 H 924.42 -0.238326 1.68018 0
M  V30 9590 H 923.192 -0.876469 3.81358 0
M  V30 9591 H 922.815 -2.45 3.13146 0
M  V30 9592 N 923.813 -1.49104 -0.510467 0
M  V30 9593 C 925.053 -1.59723 -1.27545 0
M  V30 9594 C 925.417 -0.273525 -1.90042 0
M  V30 9595 O 926.618 -0.254835 -2.67589 0
M  V30 9596 C 924.889 -2.71771 -2.3211 0
M  V30 9597 S 926.448 -3.02282 -3.18074 0
M  V30 9598 H 923.266 -0.563489 -0.433591 0
M  V30 9599 H 925.868 -1.86719 -0.579328 0
M  V30 9600 H 924.572 -3.66483 -1.84711 0
M  V30 9601 H 924.103 -2.46739 -3.06404 0
M  V30 9602 H 926.118 -2.43076 -4.32583 0
M  V30 9603 N 925.291 0.760815 -1.38019 0
M  V30 9604 C 926.539 1.51673 -1.33566 0
M  V30 9605 C 926.86 1.94852 0.076024 0
M  V30 9606 O 926.13 1.67112 1.02227 0
M  V30 9607 H 924.71 0.562581 -0.491438 0
M  V30 9608 H 927.372 0.904832 -1.72623 0
M  V30 9609 H 926.468 2.41102 -1.98182 0
M  V30 9610 N 926.769 1.22769 0.988202 0
M  V30 9611 C 927.679 1.01844 2.11341 0
M  V30 9612 C 928.695 -0.0346937 1.73965 0
M  V30 9613 O 929.871 0.159061 2.00771 0
M  V30 9614 C 926.936 0.603837 3.41401 0
M  V30 9615 C 925.997 1.73113 3.92849 0
M  V30 9616 C 925.23 1.33621 5.16702 0
M  V30 9617 O 925.453 0.217041 5.69987 0
M  V30 9618 O 924.387 2.15444 5.62021 0
M  V30 9619 H 928.213 1.96127 2.31879 0
M  V30 9620 H 925.798 1.01405 1.09715 0
M  V30 9621 H 927.68 0.383196 4.19654 0
M  V30 9622 H 926.355 -0.310082 3.22211 0
M  V30 9623 H 925.262 2.00634 3.15748 0
M  V30 9624 H 926.595 2.62308 4.1648 0
M  V30 9625 N 928.247 -1.18576 1.03814 0
M  V30 9626 C 929.524 -1.8433 0.654358 0
M  V30 9627 C 929.904 -1.92504 -0.866338 0
M  V30 9628 O 929.252 -1.44904 -1.76678 0
M  V30 9629 C 929.462 -3.22778 1.32723 0
M  V30 9630 C 930.81 -3.98841 1.45641 0
M  V30 9631 O 931.834 -3.32209 1.28514 0
M  V30 9632 O 930.693 -5.18219 1.73526 0
M  V30 9633 H 927.787 -0.794766 0.228638 0
M  V30 9634 H 930.333 -1.25989 1.13687 0
M  V30 9635 H 929.105 -3.11717 2.36534 0
M  V30 9636 H 928.728 -3.88772 0.833176 0
M  V30 9637 N 929.725 -0.817259 -1.34754 0
M  V30 9638 C 930.673 -0.223352 -2.31525 0
M  V30 9639 C 931.667 0.632785 -1.57137 0
M  V30 9640 O 932.873 0.524757 -1.72181 0
M  V30 9641 H 929.248 -0.0534765 -0.750096 0
M  V30 9642 H 931.219 -1.05446 -2.79148 0
M  V30 9643 C 929.968 0.604784 -3.424 0
M  V30 9644 H 929.291 -0.0446664 -3.99775 0
M  V30 9645 H 930.731 0.986543 -4.12363 0
M  V30 9646 C 929.19 1.77478 -2.86362 0
M  V30 9647 O 929.72 2.87273 -2.8078 0
M  V30 9648 N 927.926 1.58971 -2.43263 0
M  V30 9649 H 927.473 0.696598 -2.48003 0
M  V30 9650 H 927.431 2.37408 -2.06119 0
M  V30 9651 N 931.203 1.46865 -0.571711 0
M  V30 9652 C 932.449 2.0273 -0.0531858 0
M  V30 9653 C 932.782 1.44353 1.29907 0
M  V30 9654 O 932.057 0.604488 1.84868 0
M  V30 9655 C 932.34 3.60092 0.0243831 0
M  V30 9656 C 932.193 4.28874 -1.35599 0
M  V30 9657 C 933.512 4.33994 0.730563 0
M  V30 9658 H 930.631 0.736706 -0.0208018 0
M  V30 9659 H 933.273 1.75132 -0.736794 0
M  V30 9660 H 931.423 3.83736 0.606565 0
M  V30 9661 H 933.095 4.16527 -1.98249 0
M  V30 9662 H 931.338 3.88664 -1.92674 0
M  V30 9663 H 932.009 5.37561 -1.25429 0
M  V30 9664 H 934.485 4.1543 0.236098 0
M  V30 9665 H 933.361 5.43699 0.753836 0
M  V30 9666 H 933.622 4.04257 1.78967 0
M  V30 9667 N 932.681 0.308908 1.54543 0
M  V30 9668 C 933.921 -0.298811 2.02204 0
M  V30 9669 C 934.285 -1.50484 1.19242 0
M  V30 9670 O 935.486 -2.18445 1.56637 0
M  V30 9671 C 933.757 -0.638849 3.51644 0
M  V30 9672 S 935.316 -1.22831 4.21258 0
M  V30 9673 H 932.134 -0.0912638 0.705118 0
M  V30 9674 H 934.736 0.438622 1.90516 0
M  V30 9675 H 933.44 0.24726 4.09654 0
M  V30 9676 H 932.971 -1.40687 3.67384 0
M  V30 9677 H 934.986 -2.51579 4.27694 0
M  V30 9678 N 934.159 -1.57557 0.0367827 0
M  V30 9679 C 935.106 -2.10679 -0.942499 0
M  V30 9680 C 936.076 -1.01068 -1.31812 0
M  V30 9681 O 937.261 -1.28533 -1.41011 0
M  V30 9682 C 934.401 -2.64467 -2.21701 0
M  V30 9683 C 933.514 -3.88114 -1.89715 0
M  V30 9684 C 932.649 -4.30268 -3.11518 0
M  V30 9685 C 931.688 -5.46652 -2.75387 0
M  V30 9686 N 930.825 -5.83927 -3.89838 0
M  V30 9687 H 935.665 -2.94066 -0.482588 0
M  V30 9688 H 933.202 -1.45344 -0.226597 0
M  V30 9689 H 935.16 -2.93745 -2.96259 0
M  V30 9690 H 933.79 -1.83898 -2.65295 0
M  V30 9691 H 932.842 -3.65516 -1.05366 0
M  V30 9692 H 934.154 -4.72743 -1.5911 0
M  V30 9693 H 933.308 -4.61023 -3.94389 0
M  V30 9694 H 932.047 -3.44421 -3.4529 0
M  V30 9695 H 931.052 -5.15583 -1.90929 0
M  V30 9696 H 932.277 -6.34204 -2.42822 0
M  V30 9697 H 930.223 -5.01035 -4.23438 0
M  V30 9698 H 930.14 -6.63214 -3.62883 0
M  V30 9699 H 931.408 -6.19291 -4.73391 0
M  V30 9700 N 935.637 0.236453 -1.55816 0
M  V30 9701 C 937.048 0.80468 -1.68469 0
M  V30 9702 C 937.399 1.85601 -0.636133 0
M  V30 9703 O 936.524 2.15323 0.215622 0
M  V30 9704 C 937.119 1.46634 -3.05424 0
M  V30 9705 C 935.678 1.98214 -3.19981 0
M  V30 9706 C 934.825 0.83695 -2.64368 0
M  V30 9707 H 937.776 0.0120647 -1.58695 0
M  V30 9708 H 937.797 2.33472 -3.00451 0
M  V30 9709 H 937.309 0.700931 -3.81718 0
M  V30 9710 H 935.41 2.77604 -2.4853 0
M  V30 9711 H 935.523 2.17235 -4.2702 0
M  V30 9712 H 933.887 1.24028 -2.22462 0
M  V30 9713 H 934.67 0.084451 -3.43196 0
M  V30 9714 N 937.115 1.49373 0.502552 0
M  V30 9715 C 938.062 1.65927 1.60427 0
M  V30 9716 C 939.032 0.500768 1.58371 0
M  V30 9717 O 940.217 0.727606 1.76382 0
M  V30 9718 C 937.357 1.73043 2.9858 0
M  V30 9719 C 936.47 3.00187 3.10663 0
M  V30 9720 C 935.605 2.98292 4.3954 0
M  V30 9721 C 934.644 4.20022 4.4525 0
M  V30 9722 N 933.781 4.16046 5.65553 0
M  V30 9723 H 938.621 2.59998 1.45619 0
M  V30 9724 H 936.158 1.28912 0.708519 0
M  V30 9725 H 938.116 1.7515 3.78653 0
M  V30 9726 H 936.746 0.824397 3.12095 0
M  V30 9727 H 935.798 3.07699 2.23663 0
M  V30 9728 H 937.11 3.9018 3.10742 0
M  V30 9729 H 936.264 2.98953 5.27932 0
M  V30 9730 H 935.003 2.06075 4.42023 0
M  V30 9731 H 934.008 4.19607 3.5526 0
M  V30 9732 H 935.233 5.13431 4.44484 0
M  V30 9733 H 933.179 3.26665 5.68881 0
M  V30 9734 H 933.096 4.99773 5.67242 0
M  V30 9735 H 934.364 4.20807 6.56156 0
M  V30 9736 N 938.594 -0.753485 1.38421 0
M  V30 9737 C 939.524 -1.8808 1.38377 0
M  V30 9738 C 940.505 -1.68258 0.249664 0
M  V30 9739 O 941.69 -1.88848 0.45276 0
M  V30 9740 C 938.82 -3.25608 1.20818 0
M  V30 9741 C 937.774 -3.60032 2.31433 0
M  V30 9742 C 937.1 -4.96297 1.9898 0
M  V30 9743 C 938.4 -3.64898 3.73694 0
M  V30 9744 H 940.094 -1.88375 2.32713 0
M  V30 9745 H 937.64 -0.90489 1.12017 0
M  V30 9746 H 939.593 -4.04127 1.19412 0
M  V30 9747 H 938.317 -3.25793 0.229433 0
M  V30 9748 H 936.976 -2.83831 2.32025 0
M  V30 9749 H 936.624 -4.93043 0.995889 0
M  V30 9750 H 936.324 -5.20298 2.73063 0
M  V30 9751 H 937.848 -5.77196 1.99193 0
M  V30 9752 H 939.262 -4.33531 3.75132 0
M  V30 9753 H 937.659 -4.00407 4.46983 0
M  V30 9754 H 938.729 -2.65124 4.06002 0
M  V30 9755 N 940.072 -1.23292 -0.981677 0
M  V30 9756 C 940.982 -1.02964 -2.10798 0
M  V30 9757 C 941.998 0.0254674 -1.73981 0
M  V30 9758 O 943.174 -0.169706 -2.00684 0
M  V30 9759 C 940.239 -0.621934 -3.41076 0
M  V30 9760 C 939.3 -1.75194 -3.91926 0
M  V30 9761 C 938.533 -1.36359 -5.15986 0
M  V30 9762 O 938.756 -0.247265 -5.69864 0
M  V30 9763 O 937.69 -2.18421 -5.60871 0
M  V30 9764 H 941.516 -1.97354 -2.30836 0
M  V30 9765 H 939.101 -1.01986 -1.09175 0
M  V30 9766 H 940.983 -0.405446 -4.19445 0
M  V30 9767 H 939.658 0.29299 -3.22371 0
M  V30 9768 H 938.565 -2.02305 -3.1468 0
M  V30 9769 H 939.898 -2.64513 -4.15083 0
M  V30 9770 N 941.55 1.18024 -1.04442 0
M  V30 9771 C 942.796 1.88377 -0.751133 0
M  V30 9772 C 943.129 1.80377 0.719571 0
M  V30 9773 O 942.404 1.20662 1.52548 0
M  V30 9774 C 942.687 3.38708 -1.22265 0
M  V30 9775 C 942.54 3.55499 -2.75574 0
M  V30 9776 C 943.859 4.32475 -0.815688 0
M  V30 9777 H 940.978 0.684037 -0.27434 0
M  V30 9778 H 943.62 1.38837 -1.29709 0
M  V30 9779 H 941.77 3.8103 -0.758192 0
M  V30 9780 H 943.442 3.22244 -3.30086 0
M  V30 9781 H 941.685 2.98028 -3.15217 0
M  V30 9782 H 942.356 4.60994 -3.03625 0
M  V30 9783 H 944.832 3.97953 -1.21542 0
M  V30 9784 H 943.708 5.36213 -1.17331 0
M  V30 9785 H 943.969 4.41207 0.280901 0
M  V30 9786 N 943.028 0.824394 1.34319 0
M  V30 9787 C 944.253 0.425194 2.02995 0
M  V30 9788 C 944.678 -0.961476 1.6167 0
M  V30 9789 O 944.036 -1.62593 0.80207 0
M  V30 9790 C 944.084 0.537004 3.56579 0
M  V30 9791 O 943.188 -0.442576 4.10018 0
M  V30 9792 H 942.529 0.174853 0.640564 0
M  V30 9793 H 945.059 1.11522 1.71534 0
M  V30 9794 H 945.069 0.413311 4.05901 0
M  V30 9795 H 943.744 1.54836 3.86004 0
M  V30 9796 H 942.321 -0.277644 3.71865 0
M  V30 9797 N 944.506 -1.46559 0.579492 0
M  V30 9798 C 945.752 -2.02699 0.0639363 0
M  V30 9799 C 946.085 -1.4504 -1.29139 0
M  V30 9800 O 945.36 -0.614284 -1.84545 0
M  V30 9801 C 945.643 -3.601 -0.00528618 0
M  V30 9802 C 945.496 -4.28149 1.37871 0
M  V30 9803 C 946.815 -4.34375 -0.707537 0
M  V30 9804 H 943.934 -0.736586 0.0247085 0
M  V30 9805 H 946.576 -1.74739 0.746071 0
M  V30 9806 H 944.726 -3.84052 -0.586206 0
M  V30 9807 H 946.398 -4.1547 2.00455 0
M  V30 9808 H 944.641 -3.87636 1.94732 0
M  V30 9809 H 945.312 -5.36888 1.28278 0
M  V30 9810 H 947.788 -4.15549 -0.214064 0
M  V30 9811 H 946.664 -5.44091 -0.724992 0
M  V30 9812 H 946.925 -4.052 -1.7682 0
M  V30 9813 N 945.984 -0.3171 -1.54377 0
M  V30 9814 C 947.261 0.341348 -1.92598 0
M  V30 9815 C 947.641 1.70402 -1.24605 0
M  V30 9816 O 946.989 2.25191 -0.387448 0
M  V30 9817 C 947.199 0.440003 -3.46215 0
M  V30 9818 C 948.547 0.703327 -4.18734 0
M  V30 9819 O 949.571 0.523181 -3.52337 0
M  V30 9820 O 948.43 1.05042 -5.3631 0
M  V30 9821 H 945.524 0.193696 -0.803997 0
M  V30 9822 H 948.07 -0.366341 -1.65699 0
M  V30 9823 H 946.842 -0.517299 -3.87866 0
M  V30 9824 H 946.465 1.19553 -3.792 0
M  V30 9825 N 947.462 1.57535 -0.0451378 0
M  V30 9826 C 948.687 1.97172 0.64326 0
M  V30 9827 C 949.112 0.922266 1.63939 0
M  V30 9828 O 948.47 -0.115155 1.80934 0
M  V30 9829 C 948.518 3.35889 1.3119 0
M  V30 9830 O 947.622 3.33387 2.42748 0
M  V30 9831 H 946.963 0.642469 0.167719 0
M  V30 9832 H 949.493 2.04295 -0.111747 0
M  V30 9833 H 949.503 3.72481 1.66499 0
M  V30 9834 H 948.178 4.1181 0.581823 0
M  V30 9835 H 946.755 3.08533 2.09432 0
M  V30 9836 N 948.94 -0.228186 1.55939 0
M  V30 9837 C 950.217 -0.977492 1.69424 0
M  V30 9838 C 950.597 -2.02674 0.590479 0
M  V30 9839 O 949.945 -2.2491 -0.403467 0
M  V30 9840 C 950.155 -1.59394 3.10475 0
M  V30 9841 C 951.503 -2.08871 3.69673 0
M  V30 9842 O 952.527 -1.693 3.13394 0
M  V30 9843 O 951.386 -2.81584 4.68372 0
M  V30 9844 H 948.48 -0.456185 0.6898 0
M  V30 9845 H 951.026 -0.220492 1.68261 0
M  V30 9846 H 949.798 -0.835971 3.82266 0
M  V30 9847 H 949.421 -2.41665 3.15727 0
M  V30 9848 N 950.418 -1.49637 -0.494624 0
M  V30 9849 C 951.35 -1.62902 -1.61231 0
M  V30 9850 C 952.363 -0.511425 -1.54558 0
M  V30 9851 O 953.552 -0.783724 -1.60375 0
M  V30 9852 C 950.652 -1.57564 -3.00045 0
M  V30 9853 C 949.825 -2.84964 -3.31835 0
M  V30 9854 C 948.884 -2.72591 -4.5009 0
M  V30 9855 O 947.91 -3.46532 -4.51558 0
M  V30 9856 N 949.112 -1.84563 -5.50379 0
M  V30 9857 H 951.877 -2.59301 -1.50276 0
M  V30 9858 H 949.438 -1.46806 -0.68262 0
M  V30 9859 H 951.43 -1.46932 -3.77085 0
M  V30 9860 H 950 -0.689974 -3.0489 0
M  V30 9861 H 949.22 -3.099 -2.4363 0
M  V30 9862 H 950.508 -3.69412 -3.49875 0
M  V30 9863 H 949.906 -1.23758 -5.51997 0
M  V30 9864 H 948.463 -1.79849 -6.26496 0
M  V30 9865 N 951.896 0.746133 -1.38819 0
M  V30 9866 C 952.843 1.86001 -1.36647 0
M  V30 9867 C 953.813 1.6453 -0.227849 0
M  V30 9868 O 954.998 1.86092 -0.421241 0
M  V30 9869 C 952.138 3.23388 -1.20474 0
M  V30 9870 C 951.251 3.5664 -2.43786 0
M  V30 9871 C 950.386 4.8337 -2.20287 0
M  V30 9872 C 949.425 5.09431 -3.39332 0
M  V30 9873 N 948.562 6.2736 -3.1522 0
M  V30 9874 H 953.402 1.87192 -2.31869 0
M  V30 9875 H 950.939 0.914838 -1.15192 0
M  V30 9876 H 952.897 4.02679 -1.09112 0
M  V30 9877 H 951.527 3.21505 -0.288874 0
M  V30 9878 H 950.579 2.72135 -2.65794 0
M  V30 9879 H 951.891 3.71823 -3.3249 0
M  V30 9880 H 951.045 5.70619 -2.06103 0
M  V30 9881 H 949.784 4.70341 -1.28961 0
M  V30 9882 H 948.789 4.20648 -3.54027 0
M  V30 9883 H 950.014 5.24354 -4.31544 0
M  V30 9884 H 947.96 6.15639 -2.26549 0
M  V30 9885 H 947.877 6.43078 -3.97476 0
M  V30 9886 H 949.145 7.17477 -3.04707 0
M  V30 9887 N 953.375 1.23811 0.975125 0
M  V30 9888 C 954.322 1.02394 2.06843 0
M  V30 9889 C 955.292 -0.060337 1.6599 0
M  V30 9890 O 956.477 0.0928187 1.90574 0
M  V30 9891 C 953.617 0.626882 3.39359 0
M  V30 9892 C 952.73 1.78385 3.9345 0
M  V30 9893 C 951.865 1.33307 5.14201 0
M  V30 9894 C 950.904 2.46045 5.60471 0
M  V30 9895 N 950.041 2.01888 6.72448 0
M  V30 9896 H 954.881 1.95973 2.24496 0
M  V30 9897 H 952.418 0.976206 1.10039 0
M  V30 9898 H 954.376 0.377742 4.15486 0
M  V30 9899 H 953.006 -0.271907 3.21653 0
M  V30 9900 H 952.058 2.14685 3.14029 0
M  V30 9901 H 953.37 2.63122 4.23755 0
M  V30 9902 H 952.524 1.04237 5.97678 0
M  V30 9903 H 951.263 0.456143 4.85562 0
M  V30 9904 H 950.268 2.75884 4.75571 0
M  V30 9905 H 951.493 3.34283 5.91127 0
M  V30 9906 H 949.439 1.16583 6.45558 0
M  V30 9907 H 949.356 2.80182 7.02164 0
M  V30 9908 H 950.624 1.75937 7.59386 0
M  V30 9909 N 954.853 -1.17469 1.05066 0
M  V30 9910 C 956.102 -1.87032 0.755114 0
M  V30 9911 C 956.415 -1.81844 -0.720572 0
M  V30 9912 O 957.621 -2.46866 -1.13002 0
M  V30 9913 C 956.077 -3.35581 1.30052 0
M  V30 9914 C 955.685 -3.49274 2.80556 0
M  V30 9915 C 957.429 -4.1048 1.08196 0
M  V30 9916 C 955.336 -4.91838 3.28404 0
M  V30 9917 H 954.266 -0.70057 0.278779 0
M  V30 9918 H 956.917 -1.32663 1.26779 0
M  V30 9919 H 955.299 -3.89479 0.715667 0
M  V30 9920 H 956.473 -3.05598 3.44886 0
M  V30 9921 H 954.788 -2.87793 3.00939 0
M  V30 9922 H 957.385 -5.15652 1.41447 0
M  V30 9923 H 957.728 -4.16295 0.0196603 0
M  V30 9924 H 958.261 -3.62784 1.63195 0
M  V30 9925 H 955 -4.91196 4.34058 0
M  V30 9926 H 954.52 -5.36189 2.68815 0
M  V30 9927 H 956.199 -5.60602 3.23009 0
M  V30 9928 N 956.331 -0.831506 -1.3388 0
M  V30 9929 C 957.561 -0.436292 -2.01941 0
M  V30 9930 C 957.969 0.964979 -1.62741 0
M  V30 9931 O 957.312 1.63733 -0.832894 0
M  V30 9932 C 957.374 -0.468811 -3.5643 0
M  V30 9933 C 957.038 -1.82491 -4.18982 0
M  V30 9934 C 958.035 -2.78705 -4.38885 0
M  V30 9935 C 955.72 -2.11574 -4.55568 0
M  V30 9936 C 957.714 -4.02168 -4.94509 0
M  V30 9937 C 955.401 -3.35296 -5.10901 0
M  V30 9938 C 956.399 -4.3041 -5.30317 0
M  V30 9939 O 956.087 -5.51944 -5.84477 0
M  V30 9940 H 955.819 -0.172335 -0.653664 0
M  V30 9941 H 958.373 -1.12354 -1.71947 0
M  V30 9942 H 956.603 0.275179 -3.8572 0
M  V30 9943 H 958.292 -0.0924518 -4.05795 0
M  V30 9944 H 959.058 -2.57534 -4.10976 0
M  V30 9945 H 954.937 -1.38338 -4.39754 0
M  V30 9946 H 958.481 -4.76418 -5.09579 0
M  V30 9947 H 954.378 -3.56326 -5.3824 0
M  V30 9948 H 955.146 -5.53582 -6.029 0
M  V30 9949 N 957.809 1.4625 -0.587256 0
M  V30 9950 C 959.058 2.01571 -0.0722643 0
M  V30 9951 C 959.371 1.46385 1.29733 0
M  V30 9952 O 960.577 1.93554 1.90392 0
M  V30 9953 C 959.033 3.59814 -0.078579 0
M  V30 9954 C 958.641 4.23996 -1.44678 0
M  V30 9955 C 960.385 4.22776 0.382231 0
M  V30 9956 C 958.292 5.74332 -1.41057 0
M  V30 9957 H 957.222 0.753642 -0.0232461 0
M  V30 9958 H 959.873 1.67936 -0.739577 0
M  V30 9959 H 958.255 3.90546 0.654988 0
M  V30 9960 H 959.429 4.04867 -2.20043 0
M  V30 9961 H 957.744 3.73147 -1.84799 0
M  V30 9962 H 960.341 5.32983 0.428182 0
M  V30 9963 H 960.684 3.92027 1.40072 0
M  V30 9964 H 961.217 3.96687 -0.297417 0
M  V30 9965 H 957.956 6.09747 -2.40601 0
M  V30 9966 H 957.476 5.95711 -0.699185 0
M  V30 9967 H 959.155 6.37137 -1.12543 0
M  V30 9968 N 959.287 0.325282 1.54207 0
M  V30 9969 C 960.535 -0.276229 2.00203 0
M  V30 9970 C 960.856 -1.52519 1.21503 0
M  V30 9971 O 960.126 -1.93313 0.317302 0
M  V30 9972 H 958.706 -0.105059 0.739575 0
M  V30 9973 H 961.368 0.442225 1.89817 0
M  V30 9974 H 960.464 -0.531427 3.07542 0
M  V30 9975 N 960.765 -1.57509 0.0534917 0
M  V30 9976 C 962.042 -1.84137 -0.659767 0
M  V30 9977 C 962.422 -0.942362 -1.88899 0
M  V30 9978 O 961.77 -0.00398566 -2.285 0
M  V30 9979 C 961.98 -3.33919 -1.01486 0
M  V30 9980 C 963.328 -4.00989 -1.39616 0
M  V30 9981 O 964.352 -3.38557 -1.10713 0
M  V30 9982 O 963.211 -5.11071 -1.93567 0
M  V30 9983 H 960.305 -0.760081 -0.325893 0
M  V30 9984 H 962.851 -1.69497 0.0830315 0
M  V30 9985 H 961.623 -3.91046 -0.141041 0
M  V30 9986 H 961.246 -3.53755 -1.81503 0
M  V30 9987 N 962.243 0.219913 -1.56058 0
M  V30 9988 C 963.52 0.968493 -1.6994 0
M  V30 9989 C 963.9 2.02358 -0.601219 0
M  V30 9990 O 963.248 2.25121 0.391534 0
M  V30 9991 C 963.458 1.57745 -3.11316 0
M  V30 9992 C 964.806 2.06908 -3.70775 0
M  V30 9993 O 965.83 1.67636 -3.14288 0
M  V30 9994 O 964.689 2.79096 -4.69859 0
M  V30 9995 H 961.783 0.452521 -0.692209 0
M  V30 9996 H 964.329 0.211566 -1.68376 0
M  V30 9997 H 963.101 0.815687 -3.82704 0
M  V30 9998 H 962.724 2.39987 -3.17005 0
M  V30 9999 N 963.721 1.49897 0.486681 0
M  V30 10000 C 964.669 1.68125 1.60738 0
M  V30 10001 C 965.663 0.547097 1.60322 0
M  V30 10002 O 966.869 0.727153 1.64659 0
M  V30 10003 H 963.244 0.530391 0.533094 0
M  V30 10004 H 965.215 2.62165 1.42521 0
M  V30 10005 C 963.964 1.77827 2.98786 0
M  V30 10006 H 963.287 2.6448 2.99818 0
M  V30 10007 H 964.727 1.94611 3.76699 0
M  V30 10008 C 963.186 0.526287 3.32764 0
M  V30 10009 O 963.716 -0.341607 4.00245 0
M  V30 10010 N 961.922 0.384947 2.88039 0
M  V30 10011 H 961.469 1.09222 2.33299 0
M  V30 10012 H 961.427 -0.451618 3.11139 0
M  V30 10013 N 965.199 -0.738761 1.39212 0
M  V30 10014 C 966.61 -1.31684 1.32348 0
M  V30 10015 C 966.961 -1.96195 -0.0139041 0
M  V30 10016 O 966.086 -1.96056 -0.916025 0
M  V30 10017 C 966.681 -2.39444 2.39691 0
M  V30 10018 C 965.24 -2.92935 2.36359 0
M  V30 10019 C 964.387 -1.66465 2.21776 0
M  V30 10020 H 967.338 -0.536543 1.49355 0
M  V30 10021 H 967.359 -3.19744 2.06262 0
M  V30 10022 H 966.871 -1.92463 3.37016 0
M  V30 10023 H 964.972 -3.44207 1.42662 0
M  V30 10024 H 965.085 -3.46306 3.31073 0
M  V30 10025 H 963.449 -1.90657 1.68884 0
M  V30 10026 H 964.232 -1.21541 3.21065 0
M  V30 10027 N 966.677 -1.24326 -0.968545 0
M  V30 10028 C 967.607 -1.05951 -2.08079 0
M  V30 10029 C 968.588 0.0272666 -1.70078 0
M  V30 10030 O 969.773 -0.139644 -1.93697 0
M  V30 10031 C 966.903 -0.662623 -3.4092 0
M  V30 10032 C 965.857 -1.69807 -3.92873 0
M  V30 10033 C 965.183 -1.15628 -5.22048 0
M  V30 10034 C 966.483 -3.09383 -4.20808 0
M  V30 10035 H 968.177 -1.98984 -2.23709 0
M  V30 10036 H 965.723 -0.958112 -1.075 0
M  V30 10037 H 967.676 -0.521071 -4.18166 0
M  V30 10038 H 966.4 0.303399 -3.25188 0
M  V30 10039 H 965.059 -1.82783 -3.17783 0
M  V30 10040 H 964.707 -0.180888 -5.02675 0
M  V30 10041 H 964.407 -1.84822 -5.57776 0
M  V30 10042 H 965.931 -1.02683 -6.01904 0
M  V30 10043 H 967.345 -2.99642 -4.88761 0
M  V30 10044 H 965.742 -3.75923 -4.67763 0
M  V30 10045 H 966.812 -3.57486 -3.27616 0
M  V30 10046 N 968.156 1.1691 -1.05688 0
M  V30 10047 C 969.384 1.91204 -0.790485 0
M  V30 10048 C 969.799 1.77095 0.654434 0
M  V30 10049 O 969.156 1.11146 1.44751 0
M  V30 10050 C 969.207 3.42108 -1.16808 0
M  V30 10051 O 968.928 3.55788 -2.55629 0
M  V30 10052 C 970.429 4.33466 -0.92855 0
M  V30 10053 H 967.649 0.606508 -0.287035 0
M  V30 10054 H 970.193 1.48225 -1.40888 0
M  V30 10055 H 968.348 3.82814 -0.59434 0
M  V30 10056 H 968.762 4.49321 -2.70575 0
M  V30 10057 H 970.236 5.37836 -1.24245 0
M  V30 10058 H 970.713 4.38989 0.136016 0
M  V30 10059 H 971.319 3.98481 -1.48638 0
M  V30 10060 N 969.634 0.838594 1.33437 0
M  V30 10061 C 970.564 0.286672 2.31734 0
M  V30 10062 C 971.545 -0.605451 1.5896 0
M  V30 10063 O 972.73 -0.529059 1.86854 0
M  V30 10064 C 969.86 -0.539311 3.43087 0
M  V30 10065 C 968.814 0.256997 4.27228 0
M  V30 10066 C 968.14 -0.692718 5.30194 0
M  V30 10067 C 969.44 1.47391 5.01072 0
M  V30 10068 H 971.134 1.10798 2.78144 0
M  V30 10069 H 968.68 0.534235 1.33723 0
M  V30 10070 H 970.633 -0.935724 4.1088 0
M  V30 10071 H 969.357 -1.39383 2.95364 0
M  V30 10072 H 968.016 0.634967 3.61059 0
M  V30 10073 H 967.664 -1.54363 4.78729 0
M  V30 10074 H 967.364 -0.164023 5.87371 0
M  V30 10075 H 968.888 -1.08665 6.00853 0
M  V30 10076 H 970.302 1.15067 5.61634 0
M  V30 10077 H 968.699 1.93937 5.67898 0
M  V30 10078 H 969.769 2.24382 4.29861 0
M  V30 10079 N 971.112 -1.45937 0.595003 0
M  V30 10080 C 972.361 -2.01529 0.0829531 0
M  V30 10081 C 972.674 -1.47071 -1.28955 0
M  V30 10082 O 973.88 -1.94561 -1.89363 0
M  V30 10083 C 972.336 -3.59767 0.0976597 0
M  V30 10084 C 971.944 -4.23223 1.46924 0
M  V30 10085 C 973.688 -4.22972 -0.359805 0
M  V30 10086 C 971.595 -5.73576 1.44101 0
M  V30 10087 H 970.525 -0.753508 0.0272425 0
M  V30 10088 H 973.176 -1.67541 0.748473 0
M  V30 10089 H 971.558 -3.90888 -0.634268 0
M  V30 10090 H 972.732 -4.03695 2.22187 0
M  V30 10091 H 971.047 -3.72161 1.86775 0
M  V30 10092 H 973.644 -5.33202 -0.39991 0
M  V30 10093 H 973.987 -3.92765 -1.37991 0
M  V30 10094 H 974.52 -3.96523 0.31845 0
M  V30 10095 H 971.259 -6.08462 2.43831 0
M  V30 10096 H 970.779 -5.95332 0.730767 0
M  V30 10097 H 972.458 -6.36531 1.1592 0
M  V30 10098 N 972.59 -0.333456 -1.54032 0
M  V30 10099 C 973.836 0.266527 -2.01041 0
M  V30 10100 C 974.169 1.51006 -1.2211 0
M  V30 10101 O 973.444 1.92078 -0.306016 0
M  V30 10102 C 973.727 0.59078 -3.55221 0
M  V30 10103 C 973.58 -0.664143 -4.4487 0
M  V30 10104 C 974.899 1.40447 -4.17088 0
M  V30 10105 H 972.018 0.0953979 -0.7308 0
M  V30 10106 H 974.66 -0.451995 -1.84545 0
M  V30 10107 H 972.81 1.20292 -3.69408 0
M  V30 10108 H 974.482 -1.30227 -4.42537 0
M  V30 10109 H 972.725 -1.29106 -4.14143 0
M  V30 10110 H 973.396 -0.392664 -5.50602 0
M  V30 10111 H 975.872 0.886946 -4.06537 0
M  V30 10112 H 974.748 1.6001 -5.2506 0
M  V30 10113 H 975.009 2.40357 -3.71054 0
M  V30 10114 N 974.068 1.57479 -0.061844 0
M  V30 10115 C 975.015 2.12152 0.908862 0
M  V30 10116 C 975.985 1.03152 1.30188 0
M  V30 10117 O 977.17 1.3076 1.38948 0
M  V30 10118 C 974.31 2.6796 2.17465 0
M  V30 10119 C 973.423 3.91083 1.83517 0
M  V30 10120 C 972.558 4.35169 3.04633 0
M  V30 10121 C 971.597 5.50964 2.66655 0
M  V30 10122 N 970.734 5.90055 3.80499 0
M  V30 10123 H 975.574 2.94797 0.435743 0
M  V30 10124 H 973.111 1.45686 0.203445 0
M  V30 10125 H 975.069 2.98421 2.91548 0
M  V30 10126 H 973.699 1.88096 2.62335 0
M  V30 10127 H 972.751 3.67146 0.995381 0
M  V30 10128 H 974.063 4.75214 1.51569 0
M  V30 10129 H 973.217 4.67239 3.87005 0
M  V30 10130 H 971.956 3.49871 3.39767 0
M  V30 10131 H 970.961 5.18556 1.82703 0
M  V30 10132 H 972.186 6.37986 2.32702 0
M  V30 10133 H 970.132 5.07708 4.15414 0
M  V30 10134 H 970.049 6.68903 3.52285 0
M  V30 10135 H 971.317 6.26744 4.63479 0
M  V30 10136 N 975.546 -0.211634 1.56173 0
M  V30 10137 C 976.509 -1.24588 1.92381 0
M  V30 10138 C 977.509 -1.39297 0.803311 0
M  V30 10139 O 978.699 -1.37392 1.07094 0
M  V30 10140 C 975.831 -2.61807 2.18335 0
M  V30 10141 H 977.024 -0.936814 2.84893 0
M  V30 10142 H 974.577 -0.452471 1.49607 0
M  V30 10143 H 975.312 -2.97795 1.28407 0
M  V30 10144 H 975.097 -2.52506 2.99972 0
M  V30 10145 H 976.587 -3.3642 2.4741 0
M  V30 10146 N 977.024 -1.50153 -0.478725 0
M  V30 10147 C 977.956 -1.64603 -1.59494 0
M  V30 10148 C 978.969 -0.527789 -1.54007 0
M  V30 10149 O 980.158 -0.80069 -1.59534 0
M  V30 10150 C 977.258 -1.60738 -2.98356 0
M  V30 10151 C 976.431 -2.88468 -3.28794 0
M  V30 10152 C 975.49 -2.77349 -4.47173 0
M  V30 10153 O 974.516 -3.51302 -4.47857 0
M  V30 10154 N 975.718 -1.9039 -5.4839 0
M  V30 10155 H 978.483 -2.6088 -1.47518 0
M  V30 10156 H 976.044 -1.47521 -0.667011 0
M  V30 10157 H 978.036 -1.50923 -3.75505 0
M  V30 10158 H 976.606 -0.722273 -3.04141 0
M  V30 10159 H 975.826 -3.12467 -2.40329 0
M  V30 10160 H 977.114 -3.73102 -3.45937 0
M  V30 10161 H 976.512 -1.29606 -5.50653 0
M  V30 10162 H 975.069 -1.86484 -6.24553 0
M  V30 10163 N 978.502 0.731368 -1.39602 0
M  V30 10164 C 979.45 1.86676 -1.38761 0
M  V30 10165 C 980.444 1.6723 -0.270247 0
M  V30 10166 O 981.65 1.74528 -0.440471 0
M  V30 10167 H 978.025 0.614553 -0.433391 0
M  V30 10168 H 979.996 1.84501 -2.34525 0
M  V30 10169 C 978.745 3.24394 -1.25155 0
M  V30 10170 H 978.068 3.39955 -2.10406 0
M  V30 10171 H 979.508 4.04019 -1.28625 0
M  V30 10172 C 977.967 3.36877 0.0396976 0
M  V30 10173 O 978.497 3.88833 1.00854 0
M  V30 10174 N 976.703 2.90414 0.103965 0
M  V30 10175 H 976.25 2.48321 -0.685155 0
M  V30 10176 H 976.208 2.99146 0.967435 0
M  V30 10177 N 979.98 1.24838 0.961938 0
M  V30 10178 C 980.912 1.00369 2.06055 0
M  V30 10179 C 981.925 -0.0288583 1.62774 0
M  V30 10180 O 983.114 0.208853 1.77274 0
M  V30 10181 C 980.214 0.493953 3.35281 0
M  V30 10182 C 979.387 1.59097 4.07439 0
M  V30 10183 C 978.446 1.08288 5.14937 0
M  V30 10184 O 977.472 1.77577 5.40791 0
M  V30 10185 N 978.674 -0.0796836 5.80445 0
M  V30 10186 H 981.439 1.94962 2.27618 0
M  V30 10187 H 979 1.15945 1.12997 0
M  V30 10188 H 980.992 0.138675 4.04462 0
M  V30 10189 H 979.562 -0.357851 3.10545 0
M  V30 10190 H 978.782 2.11817 3.32456 0
M  V30 10191 H 980.07 2.32817 4.52409 0
M  V30 10192 H 979.468 -0.658827 5.6185 0
M  V30 10193 H 978.025 -0.376057 6.50714 0
M  V30 10194 N 981.458 -1.16348 1.06306 0
M  V30 10195 C 982.706 -1.86512 0.778311 0
M  V30 10196 C 983.027 -1.82107 -0.697273 0
M  V30 10197 O 982.297 -1.2547 -1.50446 0
M  V30 10198 H 980.877 -0.690529 0.284919 0
M  V30 10199 H 983.539 -1.41092 1.34458 0
M  V30 10200 H 982.635 -2.91947 1.10333 0
M  V30 10201 N 982.937 -0.845659 -1.3299 0
M  V30 10202 C 983.847 -0.2864 -2.32845 0
M  V30 10203 C 984.863 0.591105 -1.63652 0
M  V30 10204 O 986.039 0.493615 -1.95257 0
M  V30 10205 C 983.104 0.523636 -3.42723 0
M  V30 10206 C 982.165 -0.378945 -4.27624 0
M  V30 10207 C 981.398 0.392526 -5.32255 0
M  V30 10208 O 981.621 1.6235 -5.46808 0
M  V30 10209 O 980.555 -0.237 -6.01433 0
M  V30 10210 H 984.381 -1.11346 -2.82552 0
M  V30 10211 H 981.966 -0.608356 -1.36453 0
M  V30 10212 H 983.848 0.983718 -4.09757 0
M  V30 10213 H 982.523 1.32764 -2.95221 0
M  V30 10214 H 981.43 -0.887012 -3.63432 0
M  V30 10215 H 982.763 -1.1479 -4.78627 0
M  V30 10216 N 984.415 1.45619 -0.602734 0
M  V30 10217 C 985.663 2.01873 -0.095844 0
M  V30 10218 C 985.984 1.47427 1.27633 0
M  V30 10219 O 985.254 0.666652 1.84208 0
M  V30 10220 H 983.834 0.746295 -0.0324408 0
M  V30 10221 H 986.496 1.78478 -0.783037 0
M  V30 10222 H 985.592 3.12072 -0.0419507 0
M  V30 10223 N 985.893 0.34162 1.53853 0
M  V30 10224 C 986.856 -0.503541 2.236 0
M  V30 10225 C 987.856 -1.02912 1.23554 0
M  V30 10226 O 989.046 -0.918678 1.48007 0
M  V30 10227 C 986.178 -1.70126 2.95415 0
M  V30 10228 H 987.371 0.106437 2.99711 0
M  V30 10229 H 984.924 0.0929408 1.56023 0
M  V30 10230 H 985.659 -2.34999 2.23486 0
M  V30 10231 H 985.444 -1.33161 3.68796 0
M  V30 10232 H 986.934 -2.30077 3.48503 0
M  V30 10233 N 987.371 -1.57444 0.0701946 0
M  V30 10234 C 988.601 -1.97467 -0.607476 0
M  V30 10235 C 989.009 -0.947232 -1.63781 0
M  V30 10236 O 988.352 0.074652 -1.83548 0
M  V30 10237 C 988.414 -3.33795 -1.33495 0
M  V30 10238 C 988.078 -4.54697 -0.458265 0
M  V30 10239 C 989.075 -5.19127 0.283488 0
M  V30 10240 C 986.76 -5.00833 -0.383612 0
M  V30 10241 C 988.754 -6.28043 1.08813 0
M  V30 10242 C 986.441 -6.09622 0.424705 0
M  V30 10243 C 987.439 -6.7309 1.15925 0
M  V30 10244 O 987.127 -7.79785 1.95423 0
M  V30 10245 H 986.859 -0.654405 -0.169501 0
M  V30 10246 H 989.413 -2.04931 0.138651 0
M  V30 10247 H 987.643 -3.22941 -2.12711 0
M  V30 10248 H 989.332 -3.58435 -1.9047 0
M  V30 10249 H 990.098 -4.84428 0.235397 0
M  V30 10250 H 985.977 -4.51211 -0.944968 0
M  V30 10251 H 989.521 -6.77513 1.66197 0
M  V30 10252 H 985.418 -6.43755 0.474366 0
M  V30 10253 H 986.186 -7.96655 1.87838 0
M  V30 10254 N 988.849 0.203349 -1.56283 0
M  V30 10255 C 989.759 1.27266 -1.9708 0
M  V30 10256 C 990.775 1.50268 -0.877236 0
M  V30 10257 O 991.951 1.63044 -1.18231 0
M  V30 10258 C 989.016 2.59871 -2.29495 0
M  V30 10259 C 988.077 2.45012 -3.52516 0
M  V30 10260 C 987.31 3.71293 -3.83376 0
M  V30 10261 O 987.533 4.75106 -3.15643 0
M  V30 10262 O 986.467 3.67316 -4.76826 0
M  V30 10263 H 990.293 0.956461 -2.88246 0
M  V30 10264 H 987.878 0.407688 -1.4373 0
M  V30 10265 H 989.76 3.38152 -2.51458 0
M  V30 10266 H 988.435 2.91135 -1.415 0
M  V30 10267 H 987.342 1.6487 -3.35811 0
M  V30 10268 H 988.675 2.18683 -4.40952 0
M  V30 10269 N 990.327 1.50405 0.470755 0
M  V30 10270 C 991.29 1.68741 1.5511 0
M  V30 10271 C 992.29 0.558116 1.50804 0
M  V30 10272 O 993.48 0.825149 1.53418 0
M  V30 10273 C 990.612 1.71295 2.94739 0
M  V30 10274 H 991.805 2.65127 1.40169 0
M  V30 10275 H 989.358 1.39891 0.697156 0
M  V30 10276 H 990.093 0.766029 3.15123 0
M  V30 10277 H 989.878 2.53336 2.99271 0
M  V30 10278 H 991.368 1.87434 3.73173 0
M  V30 10279 N 991.805 -0.723954 1.39988 0
M  V30 10280 C 992.715 -1.86829 1.41887 0
M  V30 10281 C 993.731 -1.71173 0.312401 0
M  V30 10282 O 994.907 -1.93583 0.555651 0
M  V30 10283 C 991.972 -3.22541 1.27154 0
M  V30 10284 C 991.033 -3.50512 2.47871 0
M  V30 10285 C 990.266 -4.79749 2.33831 0
M  V30 10286 O 990.489 -5.54251 1.34765 0
M  V30 10287 O 989.423 -5.07868 3.23039 0
M  V30 10288 H 993.249 -1.88183 2.38371 0
M  V30 10289 H 990.834 -0.873259 1.21221 0
M  V30 10290 H 992.716 -4.0362 1.21114 0
M  V30 10291 H 991.391 -3.21933 0.337715 0
M  V30 10292 H 990.298 -2.69475 2.59488 0
M  V30 10293 H 991.631 -3.55909 3.39985 0
M  V30 10294 N 993.283 -1.25346 -0.955304 0
M  V30 10295 C 994.213 -1.08152 -2.06943 0
M  V30 10296 C 995.194 0.00922598 -1.70097 0
M  V30 10297 O 996.379 -0.160181 -1.93538 0
M  V30 10298 C 993.509 -0.698745 -3.40198 0
M  V30 10299 C 992.463 -1.73965 -3.9105 0
M  V30 10300 C 991.789 -1.21158 -5.20792 0
M  V30 10301 C 993.089 -3.13829 -4.17503 0
M  V30 10302 H 994.783 -2.01345 -2.21586 0
M  V30 10303 H 992.329 -0.969459 -1.06478 0
M  V30 10304 H 994.282 -0.565394 -4.1759 0
M  V30 10305 H 993.006 0.268892 -3.25491 0
M  V30 10306 H 991.665 -1.86143 -3.15827 0
M  V30 10307 H 991.313 -0.234193 -5.02455 0
M  V30 10308 H 991.013 -1.90728 -5.55785 0
M  V30 10309 H 992.537 -1.09061 -6.00781 0
M  V30 10310 H 993.951 -3.04809 -4.85556 0
M  V30 10311 H 992.348 -3.80863 -4.63749 0
M  V30 10312 H 993.418 -3.6094 -3.23806 0
M  V30 10313 N 994.761 1.15782 -1.06922 0
M  V30 10314 C 996.01 1.85807 -0.784774 0
M  V30 10315 C 996.323 1.82967 0.691551 0
M  V30 10316 O 997.529 2.48632 1.0906 0
M  V30 10317 C 995.985 3.33469 -1.35375 0
M  V30 10318 C 995.593 3.44766 -2.86077 0
M  V30 10319 C 997.337 4.08707 -1.14713 0
M  V30 10320 C 995.244 4.86551 -3.36187 0
M  V30 10321 H 994.174 0.696046 -0.28989 0
M  V30 10322 H 996.825 1.30629 -1.28873 0
M  V30 10323 H 995.207 3.88292 -0.77754 0
M  V30 10324 H 996.381 3.00073 -3.49704 0
M  V30 10325 H 994.696 2.82969 -3.05479 0
M  V30 10326 H 997.293 5.13336 -1.49633 0
M  V30 10327 H 997.636 4.16211 -0.0858868 0
M  V30 10328 H 998.169 3.60142 -1.68946 0
M  V30 10329 H 994.908 4.84229 -4.41818 0
M  V30 10330 H 994.428 5.31844 -2.77312 0
M  V30 10331 H 996.107 5.55392 -3.31887 0
M  V30 10332 N 996.239 0.8527 1.3254 0
M  V30 10333 C 997.485 0.455798 1.97612 0
M  V30 10334 C 997.818 -0.985616 1.6733 0
M  V30 10335 O 997.093 -1.69129 0.960493 0
M  V30 10336 C 997.376 0.69312 3.53366 0
M  V30 10337 C 997.229 2.18281 3.93285 0
M  V30 10338 C 998.548 0.148236 4.3985 0
M  V30 10339 H 995.667 0.167078 0.717812 0
M  V30 10340 H 998.309 1.07076 1.56954 0
M  V30 10341 H 996.459 0.169677 3.88129 0
M  V30 10342 H 998.131 2.77218 3.68711 0
M  V30 10343 H 996.374 2.66206 3.42515 0
M  V30 10344 H 997.045 2.29957 5.01821 0
M  V30 10345 H 999.521 0.595834 4.11812 0
M  V30 10346 H 998.397 0.343873 5.47822 0
M  V30 10347 H 998.658 -0.948872 4.31797 0
M  V30 10348 N 997.718 -1.45297 0.610449 0
M  V30 10349 C 998.943 -2.07101 0.111414 0
M  V30 10350 C 999.368 -1.45161 -1.19625 0
M  V30 10351 O 998.726 -0.545368 -1.72903 0
M  V30 10352 C 998.774 -3.60598 -0.0117372 0
M  V30 10353 O 997.878 -3.98512 -1.06122 0
M  V30 10354 H 997.219 -0.659709 0.075364 0
M  V30 10355 H 999.749 -1.86504 0.841269 0
M  V30 10356 H 999.759 -4.07464 -0.209028 0
M  V30 10357 H 998.434 -4.05067 0.943076 0
M  V30 10358 H 997.011 -3.63312 -0.840158 0
M  V30 10359 N 999.196 -0.349774 -1.5367 0
M  V30 10360 C 1000.44 0.245862 -2.00196 0
M  V30 10361 C 1000.76 1.51154 -1.24144 0
M  V30 10362 O 1001.96 2.18481 -1.61178 0
M  V30 10363 C 1000.42 0.488665 -3.56567 0
M  V30 10364 C 1000.03 -0.761475 -4.41481 0
M  V30 10365 C 1001.77 1.04282 -4.11492 0
M  V30 10366 C 999.679 -0.489128 -5.89374 0
M  V30 10367 H 998.609 0.0956493 -0.747909 0
M  V30 10368 H 1001.26 -0.466068 -1.77483 0
M  V30 10369 H 999.642 1.26145 -3.75371 0
M  V30 10370 H 1000.82 -1.53585 -4.34452 0
M  V30 10371 H 999.131 -1.23771 -3.9758 0
M  V30 10372 H 1001.73 1.26164 -5.19603 0
M  V30 10373 H 1002.07 2.00023 -3.65098 0
M  V30 10374 H 1002.6 0.330582 -3.96424 0
M  V30 10375 H 999.343 -1.41643 -6.40014 0
M  V30 10376 H 998.863 0.247039 -5.99291 0
M  V30 10377 H 1000.54 -0.1087 -6.46909 0
M  V30 10378 N 1000.67 1.57404 -0.0785433 0
M  V30 10379 C 1002.08 1.81118 0.45311 0
M  V30 10380 C 1002.44 0.992963 1.69218 0
M  V30 10381 O 1001.56 0.217448 2.15305 0
M  V30 10382 C 1002.16 3.28506 0.82882 0
M  V30 10383 C 1000.71 3.53042 1.3053 0
M  V30 10384 C 999.862 2.75739 0.29378 0
M  V30 10385 H 1002.81 1.55758 -0.304171 0
M  V30 10386 H 1002.83 3.40924 1.68971 0
M  V30 10387 H 1002.35 3.88031 -0.0731826 0
M  V30 10388 H 1000.45 2.98829 2.22558 0
M  V30 10389 H 1000.56 4.61724 1.27857 0
M  V30 10390 H 998.924 2.42703 0.772477 0
M  V30 10391 H 999.707 3.38005 -0.600613 0
M  V30 10392 N 1002.15 -0.195058 1.56388 0
M  V30 10393 C 1003.08 -1.24444 1.97575 0
M  V30 10394 C 1004.06 -1.47471 0.847717 0
M  V30 10395 O 1005.25 -1.59208 1.11205 0
M  V30 10396 C 1002.38 -2.58866 2.31529 0
M  V30 10397 C 1001.33 -2.50451 3.47071 0
M  V30 10398 C 1000.66 -3.89146 3.667 0
M  V30 10399 C 1001.96 -2.02953 4.81256 0
M  V30 10400 H 1003.65 -0.902178 2.85484 0
M  V30 10401 H 1001.2 -0.43254 1.3735 0
M  V30 10402 H 1003.15 -3.3246 2.58936 0
M  V30 10403 H 1001.87 -2.94833 1.40502 0
M  V30 10404 H 1000.53 -1.79313 3.19754 0
M  V30 10405 H 1000.18 -4.22466 2.73004 0
M  V30 10406 H 999.882 -3.84391 4.44429 0
M  V30 10407 H 1001.41 -4.64363 3.96484 0
M  V30 10408 H 1002.82 -2.66306 5.07695 0
M  V30 10409 H 1001.22 -2.092 5.62455 0
M  V30 10410 H 1002.29 -0.982757 4.74837 0
M  V30 10411 N 1003.63 -1.50653 -0.462772 0
M  V30 10412 C 1004.56 -1.66286 -1.5774 0
M  V30 10413 C 1005.57 -0.544094 -1.53439 0
M  V30 10414 O 1006.76 -0.817566 -1.58676 0
M  V30 10415 C 1003.86 -1.63893 -2.96635 0
M  V30 10416 C 1003.04 -2.91939 -3.25716 0
M  V30 10417 C 1002.1 -2.82076 -4.44206 0
M  V30 10418 O 1001.12 -3.56032 -4.44106 0
M  V30 10419 N 1002.32 -1.96196 -5.4634 0
M  V30 10420 H 1005.09 -2.6243 -1.44742 0
M  V30 10421 H 1002.65 -1.48221 -0.651326 0
M  V30 10422 H 1004.64 -1.54897 -3.73884 0
M  V30 10423 H 1003.21 -0.75449 -3.03358 0
M  V30 10424 H 1002.43 -3.14998 -2.37002 0
M  V30 10425 H 1003.72 -3.7675 -3.4196 0
M  V30 10426 H 1003.12 -1.35439 -5.49247 0
M  V30 10427 H 1001.67 -1.93097 -6.2254 0
M  V30 10428 N 1005.11 0.71652 -1.4037 0
M  V30 10429 C 1006.07 1.81231 -1.40313 0
M  V30 10430 C 1007.07 1.58032 -0.297087 0
M  V30 10431 O 1008.26 1.65091 -0.555944 0
M  V30 10432 C 1005.39 3.19308 -1.19395 0
M  V30 10433 H 1006.59 1.8268 -2.3784 0
M  V30 10434 H 1004.14 0.922062 -1.26205 0
M  V30 10435 H 1004.87 3.2351 -0.226252 0
M  V30 10436 H 1004.66 3.37546 -1.99512 0
M  V30 10437 H 1006.15 3.99339 -1.22141 0
M  V30 10438 N 1006.59 1.25851 0.948643 0
M  V30 10439 C 1007.86 1.01717 1.67072 0
M  V30 10440 C 1008.24 -0.454749 2.06144 0
M  V30 10441 O 1007.59 -1.43345 1.77945 0
M  V30 10442 C 1007.8 1.95872 2.88852 0
M  V30 10443 C 1009.15 2.24057 3.60671 0
M  V30 10444 O 1010.17 1.93678 2.98944 0
M  V30 10445 O 1009.03 2.75745 4.71833 0
M  V30 10446 H 1006.13 0.386198 0.731287 0
M  V30 10447 H 1008.67 1.37031 1.00104 0
M  V30 10448 H 1007.44 2.95233 2.56814 0
M  V30 10449 H 1007.07 1.60992 3.63548 0
M  V30 10450 N 1008.06 -1.15214 1.07534 0
M  V30 10451 C 1009.31 -1.86043 0.799629 0
M  V30 10452 C 1009.64 -1.82435 -0.674356 0
M  V30 10453 O 1008.89 -1.24379 -1.51091 0
M  V30 10454 C 1009.19 -3.34623 1.25547 0
M  V30 10455 C 1008.86 -3.58425 2.73573 0
M  V30 10456 C 1007.52 -3.6463 3.14004 0
M  V30 10457 C 1009.87 -3.67977 3.6911 0
M  V30 10458 C 1007.2 -3.779 4.48786 0
M  V30 10459 C 1009.55 -3.82771 5.03656 0
M  V30 10460 C 1008.22 -3.87222 5.43705 0
M  V30 10461 H 1007.49 -0.680781 0.292605 0
M  V30 10462 H 1010.13 -1.36149 1.34669 0
M  V30 10463 H 1008.44 -3.86737 0.627828 0
M  V30 10464 H 1010.14 -3.87836 1.01901 0
M  V30 10465 H 1006.73 -3.54238 2.41275 0
M  V30 10466 H 1010.91 -3.62482 3.39 0
M  V30 10467 H 1006.17 -3.79604 4.79281 0
M  V30 10468 H 1010.34 -3.89104 5.77556 0
M  V30 10469 H 1007.97 -3.97256 6.48145 0
M  V30 10470 N 1009.54 -0.859717 -1.32086 0
M  V30 10471 C 1010.79 -0.461779 -1.96343 0
M  V30 10472 C 1011.1 0.988837 -1.68764 0
M  V30 10473 O 1012.31 1.49244 -2.268 0
M  V30 10474 C 1010.77 -0.77484 -3.5146 0
M  V30 10475 C 1010.37 -2.24153 -3.87891 0
M  V30 10476 C 1012.12 -0.444873 -4.22162 0
M  V30 10477 C 1010.03 -2.49754 -5.36075 0
M  V30 10478 H 1008.96 -0.168951 -0.734828 0
M  V30 10479 H 1011.61 -1.0512 -1.50406 0
M  V30 10480 H 1009.99 -0.114792 -3.95834 0
M  V30 10481 H 1011.16 -2.94378 -3.54511 0
M  V30 10482 H 1009.48 -2.53651 -3.30227 0
M  V30 10483 H 1012.07 -0.613508 -5.31169 0
M  V30 10484 H 1012.42 0.61391 -4.11749 0
M  V30 10485 H 1012.95 -1.06103 -3.83389 0
M  V30 10486 H 1009.69 -3.54276 -5.51515 0
M  V30 10487 H 1009.21 -1.84112 -5.70844 0
M  V30 10488 H 1010.89 -2.3396 -6.03218 0
M  V30 10489 N 1011.02 1.44971 -0.618145 0
M  V30 10490 C 1012.27 2.0176 -0.11725 0
M  V30 10491 C 1012.59 1.48773 1.26062 0
M  V30 10492 O 1011.86 0.686152 1.83491 0
M  V30 10493 H 1010.44 0.745909 -0.0403545 0
M  V30 10494 H 1013.1 1.77638 -0.801923 0
M  V30 10495 H 1012.2 3.1201 -0.0750477 0
M  V30 10496 N 1012.5 0.357919 1.53482 0
M  V30 10497 C 1013.74 -0.23451 2.0144 0
M  V30 10498 C 1014.08 -1.49044 1.24497 0
M  V30 10499 O 1013.35 -1.91566 0.336535 0
M  V30 10500 C 1013.64 -0.534193 3.56116 0
M  V30 10501 C 1013.49 0.734834 4.43757 0
M  V30 10502 C 1014.81 -1.33793 4.1927 0
M  V30 10503 H 1011.93 -0.0837595 0.732225 0
M  V30 10504 H 1014.57 0.481297 1.83803 0
M  V30 10505 H 1012.72 -1.144 3.71275 0
M  V30 10506 H 1014.39 1.37251 4.40409 0
M  V30 10507 H 1012.63 1.35678 4.12036 0
M  V30 10508 H 1013.3 0.48021 5.49907 0
M  V30 10509 H 1015.78 -0.822158 4.07897 0
M  V30 10510 H 1014.66 -1.51636 5.27539 0
M  V30 10511 H 1014.92 -2.34423 3.74831 0
M  V30 10512 N 1013.98 -1.5736 0.0868897 0
M  V30 10513 C 1015.22 -1.94341 -0.579598 0
M  V30 10514 C 1015.56 -0.968238 -1.68341 0
M  V30 10515 O 1014.83 8.29649e-05 -1.945 0
M  V30 10516 C 1015.11 -3.41497 -1.14245 0
M  V30 10517 C 1014.97 -4.49778 -0.044255 0
M  V30 10518 C 1016.29 -3.89788 -2.04336 0
M  V30 10519 H 1013.4 -0.70668 -0.20922 0
M  V30 10520 H 1016.05 -1.89359 0.15593 0
M  V30 10521 H 1014.2 -3.45873 -1.76929 0
M  V30 10522 H 1015.87 -4.57517 0.58959 0
M  V30 10523 H 1014.11 -4.293 0.623207 0
M  V30 10524 H 1014.78 -5.4992 -0.478749 0
M  V30 10525 H 1017.26 -3.87513 -1.51569 0
M  V30 10526 H 1016.13 -4.93335 -2.40648 0
M  V30 10527 H 1016.4 -3.28603 -2.95757 0
M  V30 10528 N 1015.45 0.186762 -1.56489 0
M  V30 10529 C 1016.87 0.537933 -1.50261 0
M  V30 10530 C 1017.07 1.85435 -0.788414 0
M  V30 10531 O 1016.13 2.50168 -0.342377 0
M  V30 10532 C 1017.44 0.584965 -2.94955 0
M  V30 10533 C 1018.99 0.673228 -3.05674 0
M  V30 10534 C 1019.46 0.751294 -4.51796 0
M  V30 10535 N 1020.95 0.814599 -4.55981 0
M  V30 10536 C 1021.69 0.895313 -5.66367 0
M  V30 10537 N 1021.18 0.937814 -6.86423 0
M  V30 10538 N 1022.98 0.933145 -5.543 0
M  V30 10539 H 1015.13 -0.676636 -2.01334 0
M  V30 10540 H 1017.39 -0.242079 -0.916571 0
M  V30 10541 H 1017.1 -0.313361 -3.50301 0
M  V30 10542 H 1016.97 1.4368 -3.48763 0
M  V30 10543 H 1019.36 1.56198 -2.50372 0
M  V30 10544 H 1019.44 -0.204976 -2.54977 0
M  V30 10545 H 1019.08 -0.133143 -5.07725 0
M  V30 10546 H 1019.01 1.64542 -5.00233 0
M  V30 10547 H 1021.5 0.790662 -3.69536 0
M  V30 10548 H 1021.82 1.00015 -7.66301 0
M  V30 10549 H 1020.16 0.906351 -6.89065 0
M  V30 10550 H 1023.35 0.896836 -4.59428 0
M  V30 10551 H 1023.53 0.992588 -6.40353 0
M  V30 10552 N 1016.93 1.50896 0.454776 0
M  V30 10553 C 1017.88 1.71497 1.57136 0
M  V30 10554 C 1018.87 0.58098 1.59126 0
M  V30 10555 O 1020.08 0.761916 1.63079 0
M  V30 10556 H 1016.46 0.54158 0.521724 0
M  V30 10557 H 1018.43 2.65129 1.36928 0
M  V30 10558 C 1017.18 1.84125 2.94947 0
M  V30 10559 H 1016.5 2.7078 2.9414 0
M  V30 10560 H 1017.94 2.02558 3.72487 0
M  V30 10561 C 1016.4 0.596752 3.31573 0
M  V30 10562 O 1016.93 -0.256632 4.00879 0
M  V30 10563 N 1015.13 0.445958 2.87158 0
M  V30 10564 H 1014.68 1.14146 2.30929 0
M  V30 10565 H 1014.64 -0.385519 3.12027 0
M  V30 10566 N 1018.41 -0.709066 1.40748 0
M  V30 10567 C 1019.36 -1.84445 1.41714 0
M  V30 10568 C 1020.35 -1.66779 0.296818 0
M  V30 10569 O 1021.56 -1.73805 0.468181 0
M  V30 10570 H 1017.93 -0.607581 0.443114 0
M  V30 10571 H 1019.9 -1.80747 2.3743 0
M  V30 10572 C 1018.65 -3.22362 1.303 0
M  V30 10573 H 1017.98 -3.36565 2.15787 0
M  V30 10574 H 1019.42 -4.01922 1.35036 0
M  V30 10575 C 1017.88 -3.36897 0.0139015 0
M  V30 10576 O 1018.41 -3.90389 -0.946553 0
M  V30 10577 N 1016.61 -2.90543 -0.0577491 0
M  V30 10578 H 1016.16 -2.472 0.724574 0
M  V30 10579 H 1016.12 -3.00647 -0.919721 0
M  V30 10580 N 1019.89 -1.26353 -0.941956 0
M  V30 10581 C 1020.8 -1.09618 -2.07415 0
M  V30 10582 C 1021.82 -0.0298963 -1.73974 0
M  V30 10583 O 1022.99 -0.233466 -2.00042 0
M  V30 10584 C 1020.06 -0.73013 -3.38925 0
M  V30 10585 C 1019.12 -1.87574 -3.86153 0
M  V30 10586 C 1018.35 -1.52706 -5.11387 0
M  V30 10587 O 1018.57 -0.428438 -5.68789 0
M  V30 10588 O 1017.51 -2.36154 -5.53638 0
M  V30 10589 H 1021.33 -2.04598 -2.2444 0
M  V30 10590 H 1018.92 -1.05407 -1.05876 0
M  V30 10591 H 1020.8 -0.538684 -4.17943 0
M  V30 10592 H 1019.48 0.190282 -3.2314 0
M  V30 10593 H 1018.38 -2.12214 -3.08084 0
M  V30 10594 H 1019.72 -2.77585 -4.06457 0
M  V30 10595 N 1021.37 1.14642 -1.08144 0
M  V30 10596 C 1022.33 2.17834 -0.712799 0
M  V30 10597 C 1023.33 1.58828 0.251041 0
M  V30 10598 O 1024.52 1.74173 0.0309381 0
M  V30 10599 C 1021.65 3.4086 -0.0519477 0
M  V30 10600 H 1022.85 2.51961 -1.62653 0
M  V30 10601 H 1020.4 1.29243 -0.878971 0
M  V30 10602 H 1021.13 3.12311 0.873636 0
M  V30 10603 H 1020.92 3.84952 -0.745286 0
M  V30 10604 H 1022.41 4.17163 0.191031 0
M  V30 10605 N 1022.85 0.866709 1.31628 0
M  V30 10606 C 1023.78 0.335762 2.31073 0
M  V30 10607 C 1024.76 -0.571597 1.60209 0
M  V30 10608 O 1025.94 -0.489306 1.87935 0
M  V30 10609 C 1023.07 -0.466416 3.44154 0
M  V30 10610 C 1022.03 0.347561 4.26586 0
M  V30 10611 C 1021.35 -0.5801 5.31544 0
M  V30 10612 C 1022.65 1.57986 4.97833 0
M  V30 10613 H 1024.35 1.16673 2.75731 0
M  V30 10614 H 1021.89 0.56248 1.3256 0
M  V30 10615 H 1023.84 -0.84836 4.12772 0
M  V30 10616 H 1022.57 -1.33086 2.98254 0
M  V30 10617 H 1021.23 0.71141 3.59631 0
M  V30 10618 H 1020.88 -1.44174 4.81895 0
M  V30 10619 H 1020.58 -0.0393965 5.87587 0
M  V30 10620 H 1022.1 -0.958958 6.03023 0
M  V30 10621 H 1023.51 1.26954 5.59067 0
M  V30 10622 H 1021.91 2.05939 5.63657 0
M  V30 10623 H 1022.98 2.3345 4.25005 0
M  V30 10624 N 1024.32 -1.44642 0.625825 0
M  V30 10625 C 1025.29 -2.29085 -0.072526 0
M  V30 10626 C 1026.29 -1.40755 -0.777467 0
M  V30 10627 O 1027.48 -1.62684 -0.622861 0
M  V30 10628 C 1024.61 -3.22212 -1.1132 0
M  V30 10629 H 1025.8 -2.92317 0.670124 0
M  V30 10630 H 1023.35 -1.51466 0.38571 0
M  V30 10631 H 1024.09 -2.63819 -1.88601 0
M  V30 10632 H 1023.87 -3.87299 -0.611709 0
M  V30 10633 H 1025.36 -3.8566 -1.60175 0
M  V30 10634 N 1025.8 -0.366053 -1.5329 0
M  V30 10635 C 1027.22 -0.0150149 -1.59593 0
M  V30 10636 C 1027.42 1.46719 -1.38116 0
M  V30 10637 O 1026.47 2.22884 -1.18656 0
M  V30 10638 C 1027.79 -0.471374 -2.96982 0
M  V30 10639 C 1029.33 -0.425634 -3.10092 0
M  V30 10640 C 1029.81 -0.857812 -4.49895 0
M  V30 10641 N 1031.3 -0.81289 -4.56011 0
M  V30 10642 C 1032.04 -1.11898 -5.62376 0
M  V30 10643 N 1031.53 -1.49436 -6.76491 0
M  V30 10644 N 1033.32 -1.04174 -5.52362 0
M  V30 10645 H 1025.48 -1.33127 -1.65502 0
M  V30 10646 H 1027.74 -0.544172 -0.776261 0
M  V30 10647 H 1027.44 -1.50569 -3.1784 0
M  V30 10648 H 1027.32 0.141764 -3.76934 0
M  V30 10649 H 1029.71 0.599548 -2.88945 0
M  V30 10650 H 1029.79 -1.07427 -2.32149 0
M  V30 10651 H 1029.43 -1.88111 -4.7178 0
M  V30 10652 H 1029.36 -0.186419 -5.2627 0
M  V30 10653 H 1031.85 -0.536343 -3.74075 0
M  V30 10654 H 1032.16 -1.71217 -7.53594 0
M  V30 10655 H 1030.51 -1.53302 -6.77882 0
M  V30 10656 H 1033.7 -0.747654 -4.62091 0
M  V30 10657 H 1033.87 -1.28362 -6.35159 0
M  V30 10658 N 1027.28 1.57312 -0.0952337 0
M  V30 10659 C 1028.21 2.17056 0.860753 0
M  V30 10660 C 1029.19 1.10394 1.29411 0
M  V30 10661 O 1030.38 1.38532 1.36098 0
M  V30 10662 C 1027.51 2.751 2.11984 0
M  V30 10663 C 1026.46 3.87136 1.8251 0
M  V30 10664 C 1025.79 4.31883 3.15247 0
M  V30 10665 C 1027.09 5.10326 1.11194 0
M  V30 10666 H 1028.78 2.97192 0.362983 0
M  V30 10667 H 1026.33 1.42955 0.173151 0
M  V30 10668 H 1028.28 3.15547 2.79299 0
M  V30 10669 H 1027 1.92219 2.64044 0
M  V30 10670 H 1025.66 3.47229 1.17592 0
M  V30 10671 H 1025.31 3.45893 3.65195 0
M  V30 10672 H 1025.01 5.0742 2.96309 0
M  V30 10673 H 1026.53 4.74964 3.83721 0
M  V30 10674 H 1027.95 5.47942 1.6862 0
M  V30 10675 H 1026.34 5.91293 1.02435 0
M  V30 10676 H 1027.41 4.84807 0.0947227 0
M  V30 10677 N 1028.76 -0.17846 1.56586 0
M  V30 10678 C 1029.98 -0.916061 1.86073 0
M  V30 10679 C 1030.41 -1.75349 0.680754 0
M  V30 10680 O 1029.77 -1.77479 -0.37028 0
M  V30 10681 C 1029.81 -1.77445 3.1392 0
M  V30 10682 O 1028.92 -2.87524 2.95641 0
M  V30 10683 H 1028.26 -0.257031 0.612234 0
M  V30 10684 H 1030.79 -0.178755 2.03818 0
M  V30 10685 H 1030.8 -2.1758 3.45142 0
M  V30 10686 H 1029.47 -1.15927 3.99417 0
M  V30 10687 H 1028.05 -2.51023 2.75757 0
M  V30 10688 N 1030.24 -1.51135 -0.446768 0
M  V30 10689 C 1031.48 -1.64989 -1.20656 0
M  V30 10690 C 1031.84 -0.353882 -1.88711 0
M  V30 10691 O 1033.04 -0.368099 -2.66268 0
M  V30 10692 C 1031.31 -2.81371 -2.20375 0
M  V30 10693 S 1032.87 -3.15501 -3.04967 0
M  V30 10694 H 1029.69 -0.581372 -0.409301 0
M  V30 10695 H 1032.29 -1.89008 -0.499613 0
M  V30 10696 H 1030.99 -3.73988 -1.69001 0
M  V30 10697 H 1030.53 -2.59512 -2.95664 0
M  V30 10698 H 1032.54 -2.61205 -4.21884 0
M  V30 10699 N 1031.71 0.701592 -1.41122 0
M  V30 10700 C 1032.68 1.79733 -1.42227 0
M  V30 10701 C 1033.68 1.57708 -0.313831 0
M  V30 10702 O 1034.87 1.64492 -0.573423 0
M  V30 10703 C 1032 3.18024 -1.22775 0
M  V30 10704 H 1033.19 1.80148 -2.39764 0
M  V30 10705 H 1030.74 0.908624 -1.27176 0
M  V30 10706 H 1031.48 3.23252 -0.260552 0
M  V30 10707 H 1031.26 3.35411 -2.0308 0
M  V30 10708 H 1032.75 3.98021 -1.2637 0
M  V30 10709 N 1033.19 1.2685 0.935242 0
M  V30 10710 C 1034.44 1.12745 1.68211 0
M  V30 10711 C 1034.77 -0.328128 1.91712 0
M  V30 10712 O 1034.02 -1.25701 1.49993 0
M  V30 10713 C 1034.32 1.8482 3.05903 0
M  V30 10714 C 1033.99 3.347 3.02137 0
M  V30 10715 C 1032.65 3.75583 3.00817 0
M  V30 10716 C 1035 4.30368 2.93995 0
M  V30 10717 C 1032.33 5.10511 2.89129 0
M  V30 10718 C 1034.68 5.65343 2.83848 0
M  V30 10719 C 1033.34 6.0553 2.80874 0
M  V30 10720 H 1032.61 0.412563 0.615527 0
M  V30 10721 H 1035.26 1.57366 1.09124 0
M  V30 10722 H 1033.57 1.32685 3.68649 0
M  V30 10723 H 1035.26 1.71341 3.62551 0
M  V30 10724 H 1031.85 3.02182 3.03947 0
M  V30 10725 H 1036.04 3.9976 2.94118 0
M  V30 10726 H 1031.29 5.40802 2.85208 0
M  V30 10727 H 1035.47 6.39151 2.76512 0
M  V30 10728 H 1033.09 7.10037 2.71573 0
M  V30 10729 N 1034.67 -1.14067 1.0875 0
M  V30 10730 C 1035.62 -2.19261 0.720633 0
M  V30 10731 C 1036.59 -1.63462 -0.294847 0
M  V30 10732 O 1037.77 -1.89967 -0.178058 0
M  V30 10733 C 1034.91 -3.44816 0.139873 0
M  V30 10734 C 1034.03 -4.1475 1.20856 0
M  V30 10735 C 1033.16 -5.27899 0.591285 0
M  V30 10736 C 1032.2 -5.89672 1.64176 0
M  V30 10737 N 1031.34 -6.94264 1.04603 0
M  V30 10738 H 1036.18 -2.49991 1.62198 0
M  V30 10739 H 1033.71 -1.22757 0.810497 0
M  V30 10740 H 1035.67 -4.16648 -0.214587 0
M  V30 10741 H 1034.3 -3.14558 -0.724774 0
M  V30 10742 H 1033.35 -3.41272 1.6804 0
M  V30 10743 H 1034.67 -4.56753 2.00446 0
M  V30 10744 H 1033.82 -6.06417 0.185271 0
M  V30 10745 H 1032.56 -4.87128 -0.236236 0
M  V30 10746 H 1031.56 -5.09854 2.05739 0
M  V30 10747 H 1032.79 -6.32517 2.47182 0
M  V30 10748 H 1030.73 -6.55562 0.239664 0
M  V30 10749 H 1030.65 -7.34771 1.77898 0
M  V30 10750 H 1031.92 -7.7665 0.665989 0
M  V30 10751 N 1036.15 -0.873678 -1.31166 0
M  V30 10752 C 1037.38 -0.501043 -2.00742 0
M  V30 10753 C 1037.79 0.907477 -1.65561 0
M  V30 10754 O 1037.15 1.59507 -0.886771 0
M  V30 10755 C 1037.2 -0.652877 -3.55556 0
M  V30 10756 O 1036.92 -2.00593 -3.89479 0
M  V30 10757 C 1038.42 -0.281742 -4.42404 0
M  V30 10758 H 1035.64 -0.194829 -0.642092 0
M  V30 10759 H 1038.19 -1.17587 -1.67313 0
M  V30 10760 H 1036.34 -0.0255627 -3.87392 0
M  V30 10761 H 1036.75 -2.01638 -4.84193 0
M  V30 10762 H 1038.23 -0.43892 -5.50252 0
M  V30 10763 H 1038.71 0.779389 -4.32229 0
M  V30 10764 H 1039.31 -0.88491 -4.15992 0
M  V30 10765 N 1037.63 1.44308 -0.633487 0
M  V30 10766 C 1038.54 2.34492 0.0711787 0
M  V30 10767 C 1039.55 1.52754 0.8332 0
M  V30 10768 O 1040.73 1.85475 0.784929 0
M  V30 10769 C 1037.79 3.30767 1.03895 0
M  V30 10770 C 1036.85 4.28412 0.276043 0
M  V30 10771 C 1036.09 5.20087 1.19772 0
M  V30 10772 O 1036.31 5.15743 2.4365 0
M  V30 10773 O 1035.24 5.98038 0.680764 0
M  V30 10774 H 1039.07 2.96203 -0.67063 0
M  V30 10775 H 1036.66 1.4412 -0.393678 0
M  V30 10776 H 1038.54 3.90021 1.59566 0
M  V30 10777 H 1037.21 2.71586 1.76133 0
M  V30 10778 H 1036.12 3.72696 -0.32377 0
M  V30 10779 H 1037.45 4.9052 -0.406364 0
M  V30 10780 N 1039.1 0.374177 1.53094 0
M  V30 10781 C 1040.05 -0.48326 2.27524 0
M  V30 10782 C 1041.05 -1.07606 1.30833 0
M  V30 10783 O 1042.25 -1.01827 1.48429 0
M  V30 10784 H 1038.63 -0.174578 0.731455 0
M  V30 10785 H 1040.6 0.166156 2.97937 0
M  V30 10786 C 1039.35 -1.6065 3.08362 0
M  V30 10787 H 1038.67 -1.15966 3.82612 0
M  V30 10788 H 1040.11 -2.18099 3.63606 0
M  V30 10789 C 1038.57 -2.55381 2.19732 0
M  V30 10790 O 1039.1 -3.58414 1.8139 0
M  V30 10791 N 1037.31 -2.24769 1.84194 0
M  V30 10792 H 1036.85 -1.41018 2.15573 0
M  V30 10793 H 1036.81 -2.88404 1.25181 0
M  V30 10794 N 1040.58 -1.57259 0.103575 0
M  V30 10795 C 1041.51 -2.1153 -0.882472 0
M  V30 10796 C 1042.53 -1.05446 -1.24036 0
M  V30 10797 O 1043.72 -1.32867 -1.192 0
M  V30 10798 C 1040.82 -2.58717 -2.18903 0
M  V30 10799 C 1039.99 -3.8873 -2.00519 0
M  V30 10800 C 1039.05 -4.21675 -3.14764 0
M  V30 10801 O 1038.07 -4.90755 -2.88355 0
M  V30 10802 N 1039.28 -3.77757 -4.40772 0
M  V30 10803 H 1042.04 -2.96758 -0.418901 0
M  V30 10804 H 1039.6 -1.61696 -0.0812921 0
M  V30 10805 H 1041.59 -2.77797 -2.94297 0
M  V30 10806 H 1040.16 -1.78454 -2.56657 0
M  V30 10807 H 1039.38 -3.78714 -1.09406 0
M  V30 10808 H 1040.67 -4.73771 -1.85522 0
M  V30 10809 H 1040.07 -3.22011 -4.65108 0
M  V30 10810 H 1038.63 -4.01975 -5.13088 0
M  V30 10811 N 1042.06 0.170153 -1.56679 0
M  V30 10812 C 1043.29 0.902134 -1.86197 0
M  V30 10813 C 1043.7 1.75775 -0.689098 0
M  V30 10814 O 1043.06 1.79271 0.341763 0
M  V30 10815 C 1043.11 1.77792 -3.14757 0
M  V30 10816 O 1042.83 0.956817 -4.27524 0
M  V30 10817 C 1044.33 2.61947 -3.57629 0
M  V30 10818 H 1041.55 0.262026 -0.617724 0
M  V30 10819 H 1044.1 0.169899 -2.03793 0
M  V30 10820 H 1042.25 2.46348 -2.98984 0
M  V30 10821 H 1042.67 1.5559 -5.00891 0
M  V30 10822 H 1044.14 3.19011 -4.50484 0
M  V30 10823 H 1044.62 3.36873 -2.81803 0
M  V30 10824 H 1045.22 1.98721 -3.76019 0
M  V30 10825 N 1043.54 1.5137 0.438746 0
M  V30 10826 C 1044.95 1.39514 0.775116 0
M  V30 10827 C 1045.15 0.47638 1.95788 0
M  V30 10828 O 1044.21 -0.0689832 2.52406 0
M  V30 10829 C 1045.52 2.81517 1.05681 0
M  V30 10830 C 1047.07 2.90658 1.16133 0
M  V30 10831 C 1047.55 4.33566 1.47597 0
M  V30 10832 N 1049.04 4.36665 1.54524 0
M  V30 10833 C 1049.77 5.4427 1.80438 0
M  V30 10834 N 1049.27 6.62037 2.04154 0
M  V30 10835 N 1051.06 5.31749 1.82208 0
M  V30 10836 H 1043.21 2.09657 -0.340237 0
M  V30 10837 H 1045.48 0.943736 -0.0898115 0
M  V30 10838 H 1045.18 3.50734 0.260441 0
M  V30 10839 H 1045.06 3.20757 1.98481 0
M  V30 10840 H 1047.44 2.2164 1.94833 0
M  V30 10841 H 1047.52 2.54917 0.212376 0
M  V30 10842 H 1047.17 5.03133 0.694251 0
M  V30 10843 H 1047.1 4.66819 2.43696 0
M  V30 10844 H 1049.59 3.51761 1.38105 0
M  V30 10845 H 1049.9 7.39838 2.23293 0
M  V30 10846 H 1048.25 6.65155 2.01479 0
M  V30 10847 H 1051.44 4.3873 1.63198 0
M  V30 10848 H 1051.61 6.15689 2.02067 0
M  V30 10849 N 1045.02 -0.694098 1.41492 0
M  V30 10850 C 1045.95 -1.81943 1.39389 0
M  V30 10851 C 1046.96 -1.6009 0.295836 0
M  V30 10852 O 1048.15 -1.69565 0.557658 0
M  V30 10853 C 1045.25 -3.18731 1.15167 0
M  V30 10854 C 1044.42 -3.67601 2.37041 0
M  V30 10855 C 1043.48 -4.83063 2.08654 0
M  V30 10856 O 1042.51 -4.94603 2.81704 0
M  V30 10857 N 1043.71 -5.70409 1.0777 0
M  V30 10858 H 1046.48 -1.84239 2.36381 0
M  V30 10859 H 1044.04 -0.876475 1.36123 0
M  V30 10860 H 1046.03 -3.93602 0.941264 0
M  V30 10861 H 1044.6 -3.11452 0.267673 0
M  V30 10862 H 1043.82 -2.83622 2.73774 0
M  V30 10863 H 1045.11 -3.96991 3.18239 0
M  V30 10864 H 1044.5 -5.63718 0.473123 0
M  V30 10865 H 1043.06 -6.45172 0.927177 0
M  V30 10866 N 1046.49 -1.27344 -0.928501 0
M  V30 10867 C 1047.74 -1.13804 -1.67859 0
M  V30 10868 C 1048.07 0.31555 -1.91619 0
M  V30 10869 O 1047.35 1.23087 -1.50599 0
M  V30 10870 C 1047.63 -1.9213 -3.04562 0
M  V30 10871 C 1047.48 -3.45468 -2.88048 0
M  V30 10872 C 1048.8 -1.72513 -4.04879 0
M  V30 10873 H 1045.92 -0.414796 -0.609191 0
M  V30 10874 H 1048.56 -1.5649 -1.07753 0
M  V30 10875 H 1046.71 -1.55853 -3.55868 0
M  V30 10876 H 1048.39 -3.9157 -2.43865 0
M  V30 10877 H 1046.63 -3.71849 -2.23407 0
M  V30 10878 H 1047.3 -3.95515 -3.85061 0
M  V30 10879 H 1049.78 -2.04143 -3.62581 0
M  V30 10880 H 1048.65 -2.29713 -4.98521 0
M  V30 10881 H 1048.91 -0.672856 -4.3695 0
M  V30 10882 N 1047.97 1.13488 -1.09353 0
M  V30 10883 C 1049.22 1.85022 -0.830354 0
M  V30 10884 C 1049.55 1.83266 0.64242 0
M  V30 10885 O 1048.83 1.27024 1.47293 0
M  V30 10886 C 1049.11 3.33218 -1.36521 0
M  V30 10887 C 1048.96 3.43491 -2.90404 0
M  V30 10888 C 1050.28 4.28626 -0.998381 0
M  V30 10889 H 1047.4 0.671786 -0.303105 0
M  V30 10890 H 1050.04 1.33211 -1.3548 0
M  V30 10891 H 1048.19 3.77471 -0.919117 0
M  V30 10892 H 1049.86 3.07954 -3.43456 0
M  V30 10893 H 1048.11 2.84391 -3.27573 0
M  V30 10894 H 1048.78 4.47702 -3.22905 0
M  V30 10895 H 1051.25 3.9244 -1.38311 0
M  V30 10896 H 1050.13 5.30754 -1.39968 0
M  V30 10897 H 1050.39 4.42001 0.093517 0
M  V30 10898 N 1049.45 0.880621 1.30701 0
M  V30 10899 C 1050.69 0.503519 1.98101 0
M  V30 10900 C 1051.06 -0.929075 1.68024 0
M  V30 10901 O 1052.26 -1.41208 2.28722 0
M  V30 10902 C 1050.53 0.765652 3.49102 0
M  V30 10903 S 1052.09 0.490001 4.36056 0
M  V30 10904 H 1048.9 0.187522 0.685825 0
M  V30 10905 H 1051.51 1.13895 1.58897 0
M  V30 10906 H 1050.21 1.80688 3.68484 0
M  V30 10907 H 1049.74 0.117616 3.93224 0
M  V30 10908 H 1051.76 -0.673236 4.91612 0
M  V30 10909 N 1050.93 -1.4397 0.641131 0
M  V30 10910 C 1052.21 -1.95436 0.0800918 0
M  V30 10911 C 1052.59 -1.58282 -1.39678 0
M  V30 10912 O 1051.93 -0.861867 -2.11623 0
M  V30 10913 C 1052.14 -3.47589 0.313531 0
M  V30 10914 C 1053.49 -4.2407 0.212034 0
M  V30 10915 O 1054.52 -3.55353 0.245434 0
M  V30 10916 O 1053.38 -5.46356 0.125455 0
M  V30 10917 H 1050.47 -0.826834 -0.0165735 0
M  V30 10918 H 1053.02 -1.5397 0.71353 0
M  V30 10919 H 1051.79 -3.67716 1.33793 0
M  V30 10920 H 1051.41 -3.96025 -0.353563 0
M  V30 10921 N 1052.41 -0.382291 -1.52893 0
M  V30 10922 C 1053.34 0.447829 -2.29165 0
M  V30 10923 C 1054.32 1.06956 -1.32267 0
M  V30 10924 O 1055.5 1.08365 -1.61154 0
M  V30 10925 C 1052.63 1.57902 -3.09329 0
M  V30 10926 C 1051.59 1.08369 -4.14053 0
M  V30 10927 C 1050.91 2.30641 -4.82399 0
M  V30 10928 C 1052.21 0.156591 -5.22065 0
M  V30 10929 H 1053.91 -0.188541 -2.98806 0
M  V30 10930 H 1051.45 -0.0921179 -1.43705 0
M  V30 10931 H 1053.41 2.16652 -3.61442 0
M  V30 10932 H 1052.13 2.24287 -2.37409 0
M  V30 10933 H 1050.79 0.518772 -3.62911 0
M  V30 10934 H 1050.44 2.9552 -4.07034 0
M  V30 10935 H 1050.14 1.98163 -5.53177 0
M  V30 10936 H 1051.66 2.90047 -5.37313 0
M  V30 10937 H 1053.08 0.652065 -5.6958 0
M  V30 10938 H 1051.47 -0.0780978 -6.00049 0
M  V30 10939 H 1052.54 -0.796529 -4.78313 0
M  V30 10940 N 1053.89 1.57202 -0.111913 0
M  V30 10941 C 1055.13 1.94565 0.546713 0
M  V30 10942 C 1055.45 0.995644 1.67666 0
M  V30 10943 O 1054.72 0.0506681 1.95834 0
M  V30 10944 H 1053.3 0.718334 0.204951 0
M  V30 10945 H 1055.97 1.94074 -0.179193 0
M  V30 10946 H 1055.06 2.9742 0.945931 0
M  V30 10947 N 1055.36 -0.161842 1.56767 0
M  V30 10948 C 1056.31 -1.21948 1.98069 0
M  V30 10949 C 1057.31 -1.45303 0.870835 0
M  V30 10950 O 1058.51 -1.45771 1.05598 0
M  V30 10951 H 1054.89 -0.410145 0.630306 0
M  V30 10952 H 1056.86 -0.844336 2.86205 0
M  V30 10953 C 1055.61 -2.549 2.36477 0
M  V30 10954 H 1054.93 -2.37755 3.21423 0
M  V30 10955 H 1056.37 -3.27568 2.69212 0
M  V30 10956 C 1054.83 -3.14353 1.21176 0
M  V30 10957 O 1055.36 -3.98519 0.504499 0
M  V30 10958 N 1053.56 -2.73582 0.979855 0
M  V30 10959 H 1053.11 -2.05239 1.55675 0
M  V30 10960 H 1053.07 -3.13696 0.21025 0
M  V30 10961 N 1056.84 -1.516 -0.430713 0
M  V30 10962 C 1058.25 -1.57 -1.01035 0
M  V30 10963 C 1058.6 -0.397439 -1.92132 0
M  V30 10964 O 1057.73 0.484954 -2.10896 0
M  V30 10965 C 1058.32 -2.84536 -1.83915 0
M  V30 10966 C 1056.88 -2.92485 -2.36917 0
M  V30 10967 C 1056.03 -2.5173 -1.16308 0
M  V30 10968 H 1058.98 -1.57281 -0.211734 0
M  V30 10969 H 1059 -2.68672 -2.69435 0
M  V30 10970 H 1058.51 -3.69858 -1.17586 0
M  V30 10971 H 1056.61 -2.11608 -3.0668 0
M  V30 10972 H 1056.73 -3.96277 -2.6926 0
M  V30 10973 H 1055.09 -2.05079 -1.51045 0
M  V30 10974 H 1055.87 -3.39403 -0.515793 0
M  V30 10975 N 1058.32 0.686584 -1.41858 0
M  V30 10976 C 1059.25 1.81107 -1.38836 0
M  V30 10977 C 1060.23 1.60599 -0.254293 0
M  V30 10978 O 1061.41 1.83229 -0.442641 0
M  V30 10979 C 1058.54 3.17928 -1.16787 0
M  V30 10980 C 1057.59 3.5721 -2.33031 0
M  V30 10981 S 1058.42 3.60986 -3.95536 0
M  V30 10982 C 1059.58 5.00519 -3.75808 0
M  V30 10983 H 1059.81 1.83396 -2.33994 0
M  V30 10984 H 1057.34 0.856146 -1.28489 0
M  V30 10985 H 1059.3 3.9691 -1.04752 0
M  V30 10986 H 1057.96 3.1324 -0.232335 0
M  V30 10987 H 1057.15 4.56629 -2.13321 0
M  V30 10988 H 1056.76 2.8556 -2.41519 0
M  V30 10989 H 1059.05 5.88272 -3.36069 0
M  V30 10990 H 1059.99 5.25273 -4.74862 0
M  V30 10991 H 1060.4 4.72481 -3.08904 0
M  V30 10992 N 1059.8 1.27835 0.921735 0
M  V30 10993 C 1060.74 1.11075 2.02314 0
M  V30 10994 C 1061.71 0.0101195 1.66097 0
M  V30 10995 O 1062.9 0.173564 1.90009 0
M  V30 10996 C 1060.04 0.770251 3.36394 0
M  V30 10997 C 1059.15 1.94912 3.8553 0
M  V30 10998 C 1058.29 1.54996 5.08084 0
M  V30 10999 C 1057.33 2.69595 5.49531 0
M  V30 11000 N 1056.46 2.30227 6.6328 0
M  V30 11001 H 1061.3 2.05319 2.15982 0
M  V30 11002 H 1058.84 1.022 1.058 0
M  V30 11003 H 1060.8 0.553624 4.1351 0
M  V30 11004 H 1059.43 -0.135238 3.22517 0
M  V30 11005 H 1058.48 2.27811 3.04641 0
M  V30 11006 H 1059.79 2.80858 4.12214 0
M  V30 11007 H 1058.95 1.29493 5.9272 0
M  V30 11008 H 1057.69 0.661676 4.83191 0
M  V30 11009 H 1056.69 2.95806 4.63442 0
M  V30 11010 H 1057.92 3.59054 5.76417 0
M  V30 11011 H 1055.86 1.43858 6.40032 0
M  V30 11012 H 1055.78 3.09711 6.89649 0
M  V30 11013 H 1057.05 2.07987 7.5124 0
M  V30 11014 N 1061.28 -1.12907 1.09954 0
M  V30 11015 C 1062.24 -2.16673 0.747364 0
M  V30 11016 C 1063.24 -1.59208 -0.225741 0
M  V30 11017 O 1064.43 -1.742 -0.00322482 0
M  V30 11018 C 1061.56 -3.40735 0.106169 0
M  V30 11019 H 1062.75 -2.49341 1.6664 0
M  V30 11020 H 1060.31 -1.27828 0.899421 0
M  V30 11021 H 1061.04 -3.13661 -0.82384 0
M  V30 11022 H 1060.83 -3.83717 0.806434 0
M  V30 11023 H 1062.32 -4.17414 -0.12464 0
M  V30 11024 N 1062.75 -0.88754 -1.30232 0
M  V30 11025 C 1064 -0.506277 -1.95656 0
M  V30 11026 C 1064.32 0.948191 -1.70395 0
M  V30 11027 O 1063.59 1.66701 -1.02895 0
M  V30 11028 H 1062.17 -0.184235 -0.723924 0
M  V30 11029 H 1064.83 -1.13118 -1.58715 0
M  V30 11030 H 1063.93 -0.678673 -3.04632 0
M  V30 11031 N 1064.23 1.43628 -0.648757 0
M  V30 11032 C 1065.46 2.06217 -0.167945 0
M  V30 11033 C 1065.88 1.486 1.16462 0
M  V30 11034 O 1065.23 0.61559 1.71804 0
M  V30 11035 C 1065.28 3.6144 -0.0660114 0
M  V30 11036 O 1065 4.16914 -1.34589 0
M  V30 11037 C 1066.51 4.41097 0.441408 0
M  V30 11038 H 1063.73 0.665228 -0.0878237 0
M  V30 11039 H 1066.27 1.84207 -0.888144 0
M  V30 11040 H 1064.42 3.82651 0.604722 0
M  V30 11041 H 1064.84 5.10537 -1.20218 0
M  V30 11042 H 1066.31 5.50066 0.461697 0
M  V30 11043 H 1066.79 4.13803 1.47187 0
M  V30 11044 H 1067.4 4.24845 -0.19668 0
M  V30 11045 N 1065.71 0.390394 1.52688 0
M  V30 11046 C 1066.64 -0.479319 2.24132 0
M  V30 11047 C 1067.66 -1.0258 1.26416 0
M  V30 11048 O 1068.84 -0.927943 1.52484 0
M  V30 11049 C 1065.94 -1.67711 2.94493 0
M  V30 11050 C 1065.12 -1.2578 4.18925 0
M  V30 11051 C 1064.18 -2.3204 4.72275 0
M  V30 11052 O 1063.2 -1.93402 5.35336 0
M  V30 11053 N 1064.4 -3.63967 4.52226 0
M  V30 11054 H 1067.17 0.132777 2.99406 0
M  V30 11055 H 1064.73 0.216807 1.60442 0
M  V30 11056 H 1066.72 -2.38323 3.27084 0
M  V30 11057 H 1065.29 -2.19552 2.22521 0
M  V30 11058 H 1064.51 -0.380528 3.92359 0
M  V30 11059 H 1065.8 -0.954329 4.9977 0
M  V30 11060 H 1065.2 -3.98119 4.01892 0
M  V30 11061 H 1063.76 -4.30611 4.89303 0
M  V30 11062 N 1067.19 -1.57141 0.120249 0
M  V30 11063 C 1068.12 -2.18398 -0.826112 0
M  V30 11064 C 1069.1 -1.12439 -1.27638 0
M  V30 11065 O 1070.28 -1.40679 -1.33877 0
M  V30 11066 C 1067.41 -2.78438 -2.0758 0
M  V30 11067 C 1066.37 -3.89991 -1.76327 0
M  V30 11068 C 1065.69 -4.36844 -3.08336 0
M  V30 11069 C 1066.99 -5.12031 -1.03062 0
M  V30 11070 H 1068.69 -2.97731 -0.315656 0
M  V30 11071 H 1066.23 -1.43213 -0.150387 0
M  V30 11072 H 1068.19 -3.19951 -2.74243 0
M  V30 11073 H 1066.91 -1.96396 -2.60953 0
M  V30 11074 H 1065.57 -3.49055 -1.12053 0
M  V30 11075 H 1065.22 -3.51659 -3.59646 0
M  V30 11076 H 1064.92 -5.1207 -2.88199 0
M  V30 11077 H 1066.44 -4.81009 -3.76116 0
M  V30 11078 H 1067.86 -5.50555 -1.59881 0
M  V30 11079 H 1066.25 -5.92848 -0.930146 0
M  V30 11080 H 1067.32 -4.84897 -0.017582 0
M  V30 11081 N 1068.67 0.153526 -1.5685 0
M  V30 11082 C 1069.6 1.19162 -2.00805 0
M  V30 11083 C 1070.58 1.45172 -0.886518 0
M  V30 11084 O 1071.76 1.56203 -1.15387 0
M  V30 11085 C 1068.89 2.52637 -2.38311 0
M  V30 11086 C 1067.85 2.41161 -3.53589 0
M  V30 11087 C 1067.17 3.79287 -3.76889 0
M  V30 11088 C 1068.47 1.90122 -4.86468 0
M  V30 11089 H 1070.17 0.82617 -2.87776 0
M  V30 11090 H 1067.71 0.395972 -1.38449 0
M  V30 11091 H 1069.67 3.25478 -2.6766 0
M  V30 11092 H 1068.39 2.91005 -1.4827 0
M  V30 11093 H 1067.05 1.70772 -3.24395 0
M  V30 11094 H 1066.7 4.15079 -2.84109 0
M  V30 11095 H 1066.4 3.72472 -4.54465 0
M  V30 11096 H 1067.92 4.53687 -4.08657 0
M  V30 11097 H 1069.33 2.52752 -5.14577 0
M  V30 11098 H 1067.73 1.94214 -5.67804 0
M  V30 11099 H 1068.8 0.856517 -4.77275 0
M  V30 11100 N 1070.14 1.51827 0.422667 0
M  V30 11101 C 1071.11 1.7359 1.49663 0
M  V30 11102 C 1072.11 0.605811 1.48952 0
M  V30 11103 O 1073.3 0.87354 1.50715 0
M  V30 11104 C 1070.43 1.80585 2.8914 0
M  V30 11105 H 1071.62 2.69453 1.31664 0
M  V30 11106 H 1069.18 1.42038 0.652298 0
M  V30 11107 H 1069.91 0.865895 3.12526 0
M  V30 11108 H 1069.7 2.62729 2.9106 0
M  V30 11109 H 1071.19 1.99212 3.67021 0
M  V30 11110 N 1071.62 -0.679052 1.4222 0
M  V30 11111 C 1072.87 -1.43627 1.42182 0
M  V30 11112 C 1073.19 -1.94964 0.0377095 0
M  V30 11113 O 1072.46 -1.72788 -0.923098 0
M  V30 11114 H 1071.04 -0.532972 0.523402 0
M  V30 11115 H 1073.7 -0.802649 1.77605 0
M  V30 11116 H 1072.8 -2.29137 2.11902 0
M  V30 11117 N 1073.1 -1.28322 -0.914942 0
M  V30 11118 C 1074.03 -1.14681 -2.03398 0
M  V30 11119 C 1075.01 -0.0448939 -1.70041 0
M  V30 11120 O 1076.2 -0.221672 -1.92931 0
M  V30 11121 C 1073.33 -0.806623 -3.37803 0
M  V30 11122 C 1072.28 -1.86318 -3.85318 0
M  V30 11123 C 1071.61 -1.37665 -5.16674 0
M  V30 11124 C 1072.91 -3.26953 -4.07307 0
M  V30 11125 H 1074.6 -2.08293 -2.15068 0
M  V30 11126 H 1072.15 -1.00284 -1.03339 0
M  V30 11127 H 1074.1 -0.69796 -4.1558 0
M  V30 11128 H 1072.82 0.165203 -3.26182 0
M  V30 11129 H 1071.48 -1.96096 -3.09745 0
M  V30 11130 H 1071.13 -0.393927 -5.01455 0
M  V30 11131 H 1070.83 -2.08313 -5.49435 0
M  V30 11132 H 1072.35 -1.28119 -5.97007 0
M  V30 11133 H 1073.77 -3.20102 -4.75613 0
M  V30 11134 H 1072.17 -3.95424 -4.51398 0
M  V30 11135 H 1073.24 -3.71059 -3.12159 0
M  V30 11136 N 1074.58 1.12322 -1.10551 0
M  V30 11137 C 1075.99 1.35858 -0.837543 0
M  V30 11138 C 1076.19 1.94062 0.54241 0
M  V30 11139 O 1075.25 2.1676 1.29505 0
M  V30 11140 C 1076.56 2.299 -1.9382 0
M  V30 11141 C 1078.11 2.43488 -1.96679 0
M  V30 11142 C 1078.59 3.40846 -3.05922 0
M  V30 11143 N 1080.08 3.48404 -3.05236 0
M  V30 11144 C 1080.81 4.2365 -3.86405 0
M  V30 11145 N 1080.31 5.01951 -4.77512 0
M  V30 11146 N 1082.1 4.19068 -3.74618 0
M  V30 11147 H 1074.25 0.729002 -1.99498 0
M  V30 11148 H 1076.52 0.38339 -0.867016 0
M  V30 11149 H 1076.22 1.94309 -2.9315 0
M  V30 11150 H 1076.1 3.30033 -1.82641 0
M  V30 11151 H 1078.48 2.78359 -0.979813 0
M  V30 11152 H 1078.56 1.43239 -2.11934 0
M  V30 11153 H 1078.21 3.06704 -4.04839 0
M  V30 11154 H 1078.14 4.40927 -2.87907 0
M  V30 11155 H 1080.63 2.92545 -2.39219 0
M  V30 11156 H 1080.94 5.56707 -5.36002 0
M  V30 11157 H 1079.29 5.01143 -4.8154 0
M  V30 11158 H 1082.48 3.5698 -3.02792 0
M  V30 11159 H 1082.65 4.77455 -4.38111 0
M  V30 11160 N 1076.06 0.894434 1.2976 0
M  V30 11161 C 1077.3 0.517669 1.95771 0
M  V30 11162 C 1077.63 -0.935028 1.70551 0
M  V30 11163 O 1076.89 -1.67722 1.00835 0
M  V30 11164 C 1077.19 0.750307 3.49435 0
M  V30 11165 C 1076.85 2.17955 3.94723 0
M  V30 11166 C 1075.51 2.57036 4.068 0
M  V30 11167 C 1077.87 3.11053 4.18205 0
M  V30 11168 C 1075.19 3.88406 4.39724 0
M  V30 11169 C 1077.55 4.41966 4.52602 0
M  V30 11170 C 1076.21 4.80927 4.62888 0
M  V30 11171 H 1075.48 0.189428 0.716378 0
M  V30 11172 H 1078.13 1.13209 1.54454 0
M  V30 11173 H 1076.43 0.0529242 3.91764 0
M  V30 11174 H 1078.13 0.438251 3.98598 0
M  V30 11175 H 1074.72 1.86622 3.85837 0
M  V30 11176 H 1078.9 2.82076 4.08347 0
M  V30 11177 H 1074.16 4.18321 4.4589 0
M  V30 11178 H 1078.33 5.14134 4.69722 0
M  V30 11179 H 1075.96 5.82759 4.88156 0
M  V30 11180 N 1077.53 -1.43282 0.656365 0
M  V30 11181 C 1078.76 -2.06641 0.177245 0
M  V30 11182 C 1079.18 -1.48893 -1.14946 0
M  V30 11183 O 1078.54 -0.600099 -1.7108 0
M  V30 11184 C 1078.59 -3.60453 0.10299 0
M  V30 11185 O 1077.69 -4.01687 -0.933895 0
M  V30 11186 H 1077.04 -0.656978 0.096314 0
M  V30 11187 H 1079.57 -1.83733 0.900178 0
M  V30 11188 H 1079.58 -4.07923 -0.079291 0
M  V30 11189 H 1078.25 -4.01861 1.07147 0
M  V30 11190 H 1076.83 -3.65801 -0.724148 0
M  V30 11191 N 1079.01 -0.398486 -1.52479 0
M  V30 11192 C 1080.26 0.181019 -2.0199 0
M  V30 11193 C 1080.59 1.45691 -1.28405 0
M  V30 11194 O 1079.87 1.90607 -0.387207 0
M  V30 11195 C 1080.15 0.439587 -3.57407 0
M  V30 11196 C 1080 -0.85223 -4.41653 0
M  V30 11197 C 1081.32 1.2263 -4.2267 0
M  V30 11198 H 1078.44 0.0643164 -0.734188 0
M  V30 11199 H 1081.08 -0.52986 -1.82462 0
M  V30 11200 H 1079.23 1.04516 -3.74177 0
M  V30 11201 H 1080.91 -1.48879 -4.36615 0
M  V30 11202 H 1079.15 -1.46555 -4.08294 0
M  V30 11203 H 1079.82 -0.625839 -5.48441 0
M  V30 11204 H 1082.3 0.713722 -4.09933 0
M  V30 11205 H 1081.17 1.37596 -5.31374 0
M  V30 11206 H 1081.43 2.24403 -3.80914 0
M  V30 11207 N 1080.49 1.57075 -0.12858 0
M  V30 11208 C 1081.44 2.12379 0.829418 0
M  V30 11209 C 1082.43 1.04694 1.2218 0
M  V30 11210 O 1083.62 1.30909 1.1913 0
M  V30 11211 C 1080.75 2.73436 2.07575 0
M  V30 11212 C 1079.83 3.88217 1.7073 0
M  V30 11213 N 1080.22 4.94864 1.04609 0
M  V30 11214 C 1078.52 3.9858 2.00125 0
M  V30 11215 C 1079.22 5.7514 0.871137 0
M  V30 11216 N 1078.2 5.25284 1.39918 0
M  V30 11217 H 1082 2.92209 0.314816 0
M  V30 11218 H 1079.51 1.62233 0.0735788 0
M  V30 11219 H 1081.51 3.11406 2.77185 0
M  V30 11220 H 1080.17 1.95073 2.5957 0
M  V30 11221 H 1081.18 5.13025 0.708961 0
M  V30 11222 H 1077.86 3.3127 2.541 0
M  V30 11223 H 1079.25 6.7098 0.351395 0
M  V30 11224 N 1081.97 -0.145205 1.5693 0
M  V30 11225 C 1082.9 -1.20438 1.95006 0
M  V30 11226 C 1083.91 -1.39085 0.846114 0
M  V30 11227 O 1085.1 -1.38625 1.12452 0
M  V30 11228 C 1082.2 -2.56892 2.21043 0
M  V30 11229 C 1081.38 -2.59197 3.52329 0
M  V30 11230 C 1080.44 -3.77204 3.66884 0
M  V30 11231 O 1079.46 -3.61995 4.39259 0
M  V30 11232 N 1080.66 -4.9473 3.03682 0
M  V30 11233 H 1083.43 -0.880709 2.86467 0
M  V30 11234 H 1080.99 -0.334751 1.58401 0
M  V30 11235 H 1082.98 -3.34349 2.2802 0
M  V30 11236 H 1081.55 -2.81544 1.35838 0
M  V30 11237 H 1080.77 -1.67644 3.56776 0
M  V30 11238 H 1082.06 -2.57771 4.3867 0
M  V30 11239 H 1081.46 -5.09989 2.44801 0
M  V30 11240 H 1080.01 -5.69956 3.16218 0
M  V30 11241 N 1083.45 -1.52049 -0.414609 0
M  V30 11242 C 1084.38 -1.7122 -1.52369 0
M  V30 11243 C 1085.39 -0.592634 -1.5163 0
M  V30 11244 O 1086.58 -0.867634 -1.55995 0
M  V30 11245 C 1083.68 -1.73247 -2.91271 0
M  V30 11246 C 1082.85 -3.02153 -3.16263 0
M  V30 11247 C 1081.91 -2.96066 -4.35007 0
M  V30 11248 O 1080.94 -3.69981 -4.32554 0
M  V30 11249 N 1082.14 -2.13478 -5.39822 0
M  V30 11250 H 1084.91 -2.66902 -1.3632 0
M  V30 11251 H 1082.47 -1.50218 -0.603842 0
M  V30 11252 H 1084.46 -1.66714 -3.68766 0
M  V30 11253 H 1083.03 -0.85062 -3.00804 0
M  V30 11254 H 1082.25 -3.22379 -2.2686 0
M  V30 11255 H 1083.54 -3.87439 -3.29801 0
M  V30 11256 H 1082.94 -1.52844 -5.44661 0
M  V30 11257 H 1081.49 -2.12805 -6.16082 0
M  V30 11258 N 1084.93 0.6715 -1.42579 0
M  V30 11259 C 1086.15 1.46471 -1.46836 0
M  V30 11260 C 1086.58 1.87921 -0.0820658 0
M  V30 11261 O 1085.93 1.5621 0.920217 0
M  V30 11262 C 1085.98 2.68796 -2.40377 0
M  V30 11263 O 1085.09 3.67188 -1.87741 0
M  V30 11264 H 1084.43 0.439901 -0.497376 0
M  V30 11265 H 1086.96 0.823342 -1.87303 0
M  V30 11266 H 1086.97 3.16828 -2.57068 0
M  V30 11267 H 1085.64 2.37967 -3.41093 0
M  V30 11268 H 1084.22 3.26237 -1.80621 0
M  V30 11269 N 1086.4 1.28806 0.908124 0
M  V30 11270 C 1087.31 1.15079 2.04436 0
M  V30 11271 C 1088.33 0.076012 1.73834 0
M  V30 11272 O 1089.51 0.286421 1.99353 0
M  V30 11273 C 1086.57 0.819733 3.3687 0
M  V30 11274 C 1085.63 1.97746 3.81045 0
M  V30 11275 C 1084.86 1.66211 5.07158 0
M  V30 11276 O 1085.09 0.579092 5.67453 0
M  V30 11277 O 1084.02 2.5075 5.47182 0
M  V30 11278 H 1087.85 2.10477 2.18937 0
M  V30 11279 H 1085.43 1.08177 1.03044 0
M  V30 11280 H 1087.31 0.649304 4.16368 0
M  V30 11281 H 1085.99 -0.10454 3.23531 0
M  V30 11282 H 1084.9 2.20308 3.02349 0
M  V30 11283 H 1086.23 2.88264 3.98955 0
M  V30 11284 N 1087.88 -1.11734 1.11145 0
M  V30 11285 C 1088.81 -2.16847 0.710809 0
M  V30 11286 C 1089.79 -1.59966 -0.291494 0
M  V30 11287 O 1090.98 -1.87554 -0.188645 0
M  V30 11288 C 1088.1 -3.38663 0.0499744 0
M  V30 11289 C 1087.15 -4.14199 1.01693 0
M  V30 11290 S 1087.98 -4.7154 2.53793 0
M  V30 11291 C 1089.14 -5.96682 1.89001 0
M  V30 11292 H 1089.37 -2.50497 1.60121 0
M  V30 11293 H 1086.9 -1.23311 0.929182 0
M  V30 11294 H 1088.86 -4.09212 -0.324959 0
M  V30 11295 H 1087.52 -3.03279 -0.817335 0
M  V30 11296 H 1086.72 -5.01494 0.501933 0
M  V30 11297 H 1086.32 -3.49395 1.33414 0
M  V30 11298 H 1088.61 -6.6634 1.22462 0
M  V30 11299 H 1089.55 -6.52821 2.74282 0
M  V30 11300 H 1089.96 -5.48084 1.35145 0
M  V30 11301 N 1089.36 -0.901303 -1.29284 0
M  V30 11302 C 1090.64 -0.44747 -1.90413 0
M  V30 11303 C 1091.02 1.07298 -1.81797 0
M  V30 11304 O 1090.36 1.91555 -1.24574 0
M  V30 11305 C 1090.57 -0.963849 -3.35427 0
M  V30 11306 C 1091.92 -1.00851 -4.12449 0
M  V30 11307 O 1092.95 -0.91163 -3.44337 0
M  V30 11308 O 1091.81 -1.15426 -5.34171 0
M  V30 11309 H 1088.9 -0.13976 -0.815105 0
M  V30 11310 H 1091.45 -0.991274 -1.37738 0
M  V30 11311 H 1090.22 -2.00782 -3.3586 0
M  V30 11312 H 1089.84 -0.400149 -3.95581 0
M  V30 11313 N 1090.84 1.42931 -0.663954 0
M  V30 11314 C 1092.07 2.06028 -0.189808 0
M  V30 11315 C 1092.48 1.49827 1.14879 0
M  V30 11316 O 1091.84 0.633778 1.71142 0
M  V30 11317 C 1091.89 3.61349 -0.104343 0
M  V30 11318 O 1091.61 4.15463 -1.39004 0
M  V30 11319 C 1093.11 4.4154 0.394599 0
M  V30 11320 H 1090.33 0.664259 -0.0948744 0
M  V30 11321 H 1092.87 1.83255 -0.907632 0
M  V30 11322 H 1091.03 3.83271 0.564103 0
M  V30 11323 H 1091.44 5.09233 -1.25626 0
M  V30 11324 H 1092.92 5.50525 0.403329 0
M  V30 11325 H 1093.39 4.1534 1.4279 0
M  V30 11326 H 1094 4.24612 -0.241729 0
M  V30 11327 N 1092.32 0.406567 1.52266 0
M  V30 11328 C 1093.54 -0.172101 2.06685 0
M  V30 11329 C 1093.97 -1.38306 1.27488 0
M  V30 11330 O 1093.32 -1.78726 0.304441 0
M  V30 11331 C 1093.37 -0.503463 3.57068 0
M  V30 11332 O 1092.48 -1.59485 3.80314 0
M  V30 11333 H 1091.82 -0.0153209 0.663823 0
M  V30 11334 H 1094.35 0.579025 1.96236 0
M  V30 11335 H 1094.36 -0.762833 4.00805 0
M  V30 11336 H 1093.03 0.381775 4.14144 0
M  V30 11337 H 1091.61 -1.32784 3.48458 0
M  V30 11338 N 1093.79 -1.57004 0.136909 0
M  V30 11339 C 1095.04 -1.96087 -0.517477 0
M  V30 11340 C 1095.37 -1.0213 -1.65176 0
M  V30 11341 O 1094.65 -0.0617958 -1.94402 0
M  V30 11342 C 1094.93 -3.44958 -1.03323 0
M  V30 11343 C 1094.78 -4.49691 0.0988609 0
M  V30 11344 C 1096.1 -3.96091 -1.91832 0
M  V30 11345 H 1093.22 -0.712978 -0.186632 0
M  V30 11346 H 1095.86 -1.88767 0.216095 0
M  V30 11347 H 1094.01 -3.51327 -1.65836 0
M  V30 11348 H 1095.69 -4.55409 0.734847 0
M  V30 11349 H 1093.93 -4.271 0.75947 0
M  V30 11350 H 1094.6 -5.51165 -0.303554 0
M  V30 11351 H 1097.08 -3.92139 -1.39164 0
M  V30 11352 H 1095.95 -5.00742 -2.24831 0
M  V30 11353 H 1096.21 -3.37846 -2.85153 0
M  V30 11354 N 1095.27 0.136881 -1.57004 0
M  V30 11355 C 1096.22 1.16869 -1.99023 0
M  V30 11356 C 1097.19 1.42137 -0.859435 0
M  V30 11357 O 1098.37 1.54303 -1.12229 0
M  V30 11358 C 1095.51 2.49466 -2.38455 0
M  V30 11359 C 1094.63 2.31286 -3.64871 0
M  V30 11360 C 1093.76 3.56989 -3.9336 0
M  V30 11361 C 1092.8 3.33889 -5.13015 0
M  V30 11362 N 1091.94 4.51748 -5.37464 0
M  V30 11363 H 1096.78 0.803366 -2.86967 0
M  V30 11364 H 1094.32 0.385216 -1.41967 0
M  V30 11365 H 1096.27 3.26794 -2.59348 0
M  V30 11366 H 1094.9 2.83926 -1.53577 0
M  V30 11367 H 1093.96 1.44962 -3.51696 0
M  V30 11368 H 1095.27 2.10183 -4.52355 0
M  V30 11369 H 1094.42 4.42742 -4.14806 0
M  V30 11370 H 1093.16 3.81106 -3.04318 0
M  V30 11371 H 1092.17 2.46525 -4.91432 0
M  V30 11372 H 1093.39 3.1116 -6.03619 0
M  V30 11373 H 1091.34 4.76019 -4.51377 0
M  V30 11374 H 1091.25 4.33684 -6.19237 0
M  V30 11375 H 1092.52 5.38686 -5.63416 0
M  V30 11376 N 1096.75 1.52266 0.40654 0
M  V30 11377 C 1098 1.66452 1.15325 0
M  V30 11378 C 1098.33 0.395728 1.90432 0
M  V30 11379 O 1097.58 -0.621382 1.85573 0
M  V30 11380 C 1097.88 2.8389 2.1712 0
M  V30 11381 C 1097.55 4.22011 1.58801 0
M  V30 11382 C 1096.21 4.59579 1.42621 0
M  V30 11383 C 1098.56 5.08074 1.16236 0
M  V30 11384 C 1095.89 5.80885 0.823967 0
M  V30 11385 C 1098.24 6.29988 0.574284 0
M  V30 11386 C 1096.9 6.66303 0.399638 0
M  V30 11387 H 1096.17 0.609092 0.422005 0
M  V30 11388 H 1098.82 1.86374 0.440131 0
M  V30 11389 H 1097.13 2.58314 2.94586 0
M  V30 11390 H 1098.82 2.92063 2.74774 0
M  V30 11391 H 1095.41 3.92408 1.72378 0
M  V30 11392 H 1099.6 4.79631 1.27544 0
M  V30 11393 H 1094.85 6.07644 0.676694 0
M  V30 11394 H 1099.03 6.96 0.236081 0
M  V30 11395 H 1096.65 7.60169 -0.0691262 0
M  V30 11396 N 1098.23 -0.663929 1.42933 0
M  V30 11397 C 1099.51 -1.42054 1.34462 0
M  V30 11398 C 1099.89 -2.11096 -0.0127801 0
M  V30 11399 O 1099.23 -2.04027 -1.02884 0
M  V30 11400 C 1099.44 -2.41406 2.5204 0
M  V30 11401 C 1100.79 -3.05726 2.94647 0
M  V30 11402 O 1101.82 -2.51733 2.52009 0
M  V30 11403 O 1100.67 -4.03593 3.68477 0
M  V30 11404 H 1097.77 -0.634149 0.530834 0
M  V30 11405 H 1100.31 -0.691738 1.54962 0
M  V30 11406 H 1099.09 -1.89263 3.42484 0
M  V30 11407 H 1098.71 -3.21752 2.33584 0
M  V30 11408 N 1099.71 -1.29285 -0.901281 0
M  V30 11409 C 1100.64 -1.16832 -2.0217 0
M  V30 11410 C 1101.62 -0.0629265 -1.69984 0
M  V30 11411 O 1102.8 -0.242123 -1.92685 0
M  V30 11412 C 1099.93 -0.842406 -3.36929 0
M  V30 11413 C 1098.89 -1.90394 -3.8332 0
M  V30 11414 C 1098.21 -1.43138 -5.15185 0
M  V30 11415 C 1099.51 -3.31254 -4.03817 0
M  V30 11416 H 1101.21 -2.10562 -2.12847 0
M  V30 11417 H 1098.75 -1.01375 -1.0227 0
M  V30 11418 H 1100.71 -0.741999 -4.14816 0
M  V30 11419 H 1099.43 0.130598 -3.26339 0
M  V30 11420 H 1098.09 -1.99371 -3.07647 0
M  V30 11421 H 1097.74 -0.447091 -5.01009 0
M  V30 11422 H 1097.44 -2.14129 -5.47195 0
M  V30 11423 H 1098.96 -1.34444 -5.95615 0
M  V30 11424 H 1100.37 -3.25129 -4.72191 0
M  V30 11425 H 1098.77 -4.00189 -4.47178 0
M  V30 11426 H 1099.84 -3.74349 -3.08206 0
M  V30 11427 N 1101.18 1.11143 -1.11736 0
M  V30 11428 C 1102.12 2.1705 -0.736325 0
M  V30 11429 C 1103.13 1.61116 0.233528 0
M  V30 11430 O 1104.32 1.78493 0.0159602 0
M  V30 11431 C 1101.42 3.38832 -0.067974 0
M  V30 11432 C 1100.59 4.24226 -1.06543 0
M  V30 11433 C 1099.65 5.24472 -0.426063 0
M  V30 11434 O 1098.68 5.58843 -1.0809 0
M  V30 11435 N 1099.88 5.74825 0.809711 0
M  V30 11436 H 1102.64 2.50349 -1.64758 0
M  V30 11437 H 1100.2 1.26693 -1.00799 0
M  V30 11438 H 1102.2 4.02991 0.371563 0
M  V30 11439 H 1100.77 3.0357 0.745917 0
M  V30 11440 H 1099.99 3.56475 -1.68283 0
M  V30 11441 H 1101.27 4.78117 -1.74016 0
M  V30 11442 H 1100.67 5.49088 1.36084 0
M  V30 11443 H 1099.23 6.40804 1.19218 0
M  V30 11444 N 1102.66 0.908147 1.28804 0
M  V30 11445 C 1103.91 0.534332 1.94494 0
M  V30 11446 C 1104.22 -0.92552 1.72318 0
M  V30 11447 O 1105.43 -1.40724 2.32183 0
M  V30 11448 C 1103.89 0.904748 3.48342 0
M  V30 11449 C 1103.49 2.38394 3.79305 0
M  V30 11450 C 1105.24 0.601249 4.2022 0
M  V30 11451 C 1103.15 2.69478 5.26437 0
M  V30 11452 H 1102.08 0.196107 0.728051 0
M  V30 11453 H 1104.73 1.1063 1.46401 0
M  V30 11454 H 1103.11 0.261624 3.95135 0
M  V30 11455 H 1104.28 3.07333 3.43341 0
M  V30 11456 H 1102.6 2.65733 3.20586 0
M  V30 11457 H 1105.19 0.810225 5.28526 0
M  V30 11458 H 1105.54 -0.460669 4.13743 0
M  V30 11459 H 1106.07 1.20259 3.79187 0
M  V30 11460 H 1102.81 3.74501 5.37986 0
M  V30 11461 H 1102.33 2.05171 5.63618 0
M  V30 11462 H 1104.01 2.56187 5.94119 0
M  V30 11463 N 1104.14 -1.42577 0.671525 0
M  V30 11464 C 1105.07 -2.2915 -0.0477361 0
M  V30 11465 C 1106.09 -1.43503 -0.768805 0
M  V30 11466 O 1107.27 -1.67256 -0.623509 0
M  V30 11467 C 1104.37 -3.20851 -1.09122 0
M  V30 11468 C 1103.55 -4.35134 -0.44463 0
M  V30 11469 C 1102.61 -5.07579 -1.38745 0
M  V30 11470 O 1101.63 -5.62215 -0.889015 0
M  V30 11471 N 1102.83 -5.12786 -2.72086 0
M  V30 11472 H 1105.6 -2.9152 0.695415 0
M  V30 11473 H 1103.16 -1.53467 0.515689 0
M  V30 11474 H 1105.15 -3.66183 -1.72315 0
M  V30 11475 H 1103.72 -2.59956 -1.73614 0
M  V30 11476 H 1102.94 -3.9249 0.36675 0
M  V30 11477 H 1104.23 -5.088 0.00595927 0
M  V30 11478 H 1103.63 -4.69802 -3.15123 0
M  V30 11479 H 1102.19 -5.61774 -3.30535 0
M  V30 11480 N 1105.62 -0.414636 -1.52048 0
M  V30 11481 C 1106.84 0.161137 -2.06773 0
M  V30 11482 C 1107.27 1.37628 -1.2822 0
M  V30 11483 O 1106.63 1.78562 -0.313915 0
M  V30 11484 C 1106.67 0.48452 -3.5733 0
M  V30 11485 O 1105.78 1.57466 -3.81154 0
M  V30 11486 H 1105.12 0.0118003 -0.663895 0
M  V30 11487 H 1107.65 -0.589424 -1.95926 0
M  V30 11488 H 1107.66 0.741567 -4.01204 0
M  V30 11489 H 1106.33 -0.403733 -4.13936 0
M  V30 11490 H 1104.91 1.30935 -3.49157 0
M  V30 11491 N 1107.1 1.56929 -0.145233 0
M  V30 11492 C 1108.32 2.00864 0.516564 0
M  V30 11493 C 1108.75 1.02466 1.57741 0
M  V30 11494 O 1108.1 0.000145439 1.813 0
M  V30 11495 C 1108.15 3.43552 1.09563 0
M  V30 11496 O 1107.26 3.4815 2.21055 0
M  V30 11497 H 1106.6 0.651835 0.126521 0
M  V30 11498 H 1109.13 2.0317 -0.241445 0
M  V30 11499 H 1109.14 3.82316 1.42473 0
M  V30 11500 H 1107.81 4.14677 0.318749 0
M  V30 11501 H 1106.39 3.21228 1.89387 0
M  V30 11502 N 1108.58 -0.128553 1.57075 0
M  V30 11503 C 1109.52 -1.17719 2.00611 0
M  V30 11504 C 1110.52 -1.43423 0.90146 0
M  V30 11505 O 1111.72 -1.43498 1.08666 0
M  V30 11506 H 1108.1 -0.396683 0.638864 0
M  V30 11507 H 1110.07 -0.783437 2.87932 0
M  V30 11508 C 1108.82 -2.49826 2.41831 0
M  V30 11509 H 1108.14 -2.30883 3.26394 0
M  V30 11510 H 1109.58 -3.21784 2.761 0
M  V30 11511 C 1108.04 -3.11712 1.27816 0
M  V30 11512 O 1108.57 -3.9736 0.588917 0
M  V30 11513 N 1106.78 -2.71442 1.03767 0
M  V30 11514 H 1106.32 -2.01891 1.59994 0
M  V30 11515 H 1106.28 -3.1318 0.276743 0
M  V30 11516 N 1110.05 -1.5248 -0.398459 0
M  V30 11517 C 1110.98 -1.79549 -1.49279 0
M  V30 11518 C 1111.96 -0.647004 -1.57315 0
M  V30 11519 O 1113.15 -0.893661 -1.72416 0
M  V30 11520 C 1110.28 -1.95582 -2.86993 0
M  V30 11521 C 1109.23 -3.1123 -2.93803 0
M  V30 11522 C 1108.56 -3.12501 -4.33874 0
M  V30 11523 C 1109.86 -4.50485 -2.64312 0
M  V30 11524 H 1111.55 -2.71187 -1.26877 0
M  V30 11525 H 1109.1 -1.30492 -0.608924 0
M  V30 11526 H 1111.05 -2.13102 -3.63546 0
M  V30 11527 H 1109.78 -1.00625 -3.10712 0
M  V30 11528 H 1108.44 -2.93477 -2.19697 0
M  V30 11529 H 1108.08 -2.15245 -4.54619 0
M  V30 11530 H 1107.78 -3.90183 -4.39353 0
M  V30 11531 H 1109.31 -3.32164 -5.12347 0
M  V30 11532 H 1110.72 -4.68387 -3.30585 0
M  V30 11533 H 1109.12 -5.30163 -2.81153 0
M  V30 11534 H 1110.19 -4.57848 -1.59696 0
M  V30 11535 N 1111.53 0.65634 -1.43283 0
M  V30 11536 C 1112.78 1.41627 -1.44734 0
M  V30 11537 C 1113.11 1.94372 -0.0704893 0
M  V30 11538 O 1112.36 1.72511 0.924037 0
M  V30 11539 C 1112.66 2.61688 -2.43421 0
M  V30 11540 C 1112.33 2.2738 -3.8937 0
M  V30 11541 C 1110.99 2.17735 -4.29121 0
M  V30 11542 C 1113.34 1.99863 -4.81357 0
M  V30 11543 C 1110.67 1.78725 -5.58815 0
M  V30 11544 C 1113.02 1.62352 -6.11412 0
M  V30 11545 C 1111.68 1.51231 -6.50143 0
M  V30 11546 H 1110.95 0.51825 -0.529621 0
M  V30 11547 H 1113.6 0.746701 -1.76342 0
M  V30 11548 H 1111.91 3.33763 -2.05206 0
M  V30 11549 H 1113.6 3.19896 -2.41801 0
M  V30 11550 H 1110.19 2.35795 -3.57908 0
M  V30 11551 H 1114.38 2.06237 -4.5142 0
M  V30 11552 H 1109.63 1.68698 -5.87666 0
M  V30 11553 H 1113.81 1.40091 -6.82164 0
M  V30 11554 H 1111.43 1.20774 -7.50545 0
M  V30 11555 N 1113.01 1.29761 0.894412 0
M  V30 11556 C 1114.29 1.08711 1.62608 0
M  V30 11557 C 1114.67 -0.366907 2.07887 0
M  V30 11558 O 1114.01 -1.35669 1.83865 0
M  V30 11559 C 1114.22 2.07947 2.80284 0
M  V30 11560 C 1115.57 2.39153 3.50843 0
M  V30 11561 O 1116.6 2.06183 2.9046 0
M  V30 11562 O 1115.46 2.95509 4.59713 0
M  V30 11563 H 1112.55 0.416866 0.714249 0
M  V30 11564 H 1115.1 1.41153 0.942015 0
M  V30 11565 H 1113.87 3.05859 2.44061 0
M  V30 11566 H 1113.49 1.76266 3.56393 0
M  V30 11567 N 1114.49 -1.10549 1.12324 0
M  V30 11568 C 1115.43 -2.16858 0.790024 0
M  V30 11569 C 1116.4 -1.64317 -0.242694 0
M  V30 11570 O 1117.59 -1.90438 -0.117531 0
M  V30 11571 C 1114.73 -3.44197 0.249503 0
M  V30 11572 C 1113.84 -4.10696 1.33989 0
M  V30 11573 C 1112.98 -5.25751 0.758932 0
M  V30 11574 C 1112.02 -5.8415 1.82853 0
M  V30 11575 N 1111.15 -6.90585 1.26637 0
M  V30 11576 H 1115.99 -2.44705 1.7007 0
M  V30 11577 H 1113.53 -1.20117 0.849141 0
M  V30 11578 H 1115.49 -4.1712 -0.0819251 0
M  V30 11579 H 1114.12 -3.16705 -0.624332 0
M  V30 11580 H 1113.17 -3.35754 1.78812 0
M  V30 11581 H 1114.48 -4.50144 2.14875 0
M  V30 11582 H 1113.64 -6.05521 0.378104 0
M  V30 11583 H 1112.38 -4.87632 -0.0811405 0
M  V30 11584 H 1111.38 -5.03051 2.21856 0
M  V30 11585 H 1112.61 -6.24333 2.6718 0
M  V30 11586 H 1110.55 -6.54468 0.448105 0
M  V30 11587 H 1110.47 -7.28739 2.01184 0
M  V30 11588 H 1111.74 -7.74138 0.912737 0
M  V30 11589 N 1115.97 -0.914965 -1.28321 0
M  V30 11590 C 1117.21 -0.549562 -1.95212 0
M  V30 11591 C 1117.54 0.904658 -1.71842 0
M  V30 11592 O 1116.82 1.64354 -1.04009 0
M  V30 11593 C 1117.1 -0.860927 -3.49657 0
M  V30 11594 C 1116.96 -2.36797 -3.82423 0
M  V30 11595 C 1118.27 -0.357926 -4.38642 0
M  V30 11596 H 1115.39 -0.201136 -0.709023 0
M  V30 11597 H 1118.04 -1.14443 -1.51667 0
M  V30 11598 H 1116.19 -0.354665 -3.86878 0
M  V30 11599 H 1117.86 -2.94494 -3.55065 0
M  V30 11600 H 1116.1 -2.82245 -3.29424 0
M  V30 11601 H 1116.77 -2.53637 -4.90278 0
M  V30 11602 H 1119.25 -0.791636 -4.085 0
M  V30 11603 H 1118.12 -0.604855 -5.45557 0
M  V30 11604 H 1118.38 0.741775 -4.35833 0
M  V30 11605 N 1117.44 1.42219 -0.679077 0
M  V30 11606 C 1118.67 2.06333 -0.210097 0
M  V30 11607 C 1119.09 1.50703 1.12562 0
M  V30 11608 O 1118.45 0.627241 1.70104 0
M  V30 11609 C 1118.5 3.60243 -0.160322 0
M  V30 11610 O 1117.6 4.03122 0.869872 0
M  V30 11611 H 1116.94 0.655362 -0.106754 0
M  V30 11612 H 1119.47 1.82278 -0.929294 0
M  V30 11613 H 1119.48 4.07997 0.014384 0
M  V30 11614 H 1118.16 4.00106 -1.13526 0
M  V30 11615 H 1116.74 3.66907 0.66586 0
M  V30 11616 N 1118.92 0.422693 1.51826 0
M  V30 11617 C 1120.33 -0.0438129 1.86649 0
M  V30 11618 C 1120.68 -1.43246 1.34071 0
M  V30 11619 O 1119.81 -2.05256 0.685501 0
M  V30 11620 C 1120.4 -0.0862802 3.3869 0
M  V30 11621 C 1118.96 -0.497157 3.73102 0
M  V30 11622 C 1118.11 0.319655 2.75451 0
M  V30 11623 H 1121.06 0.639181 1.45259 0
M  V30 11624 H 1121.08 -0.8988 3.69732 0
M  V30 11625 H 1120.59 0.924525 3.76927 0
M  V30 11626 H 1118.69 -1.51411 3.40449 0
M  V30 11627 H 1118.81 -0.232125 4.78537 0
M  V30 11628 H 1117.17 -0.219963 2.53748 0
M  V30 11629 H 1117.95 1.32906 3.16529 0
M  V30 11630 N 1120.4 -1.5685 0.153553 0
M  V30 11631 C 1121.65 -1.96625 -0.49665 0
M  V30 11632 C 1121.98 -1.03877 -1.64083 0
M  V30 11633 O 1121.25 -0.0824112 -1.94325 0
M  V30 11634 C 1121.54 -3.46035 -0.996585 0
M  V30 11635 C 1121.39 -4.49561 0.146551 0
M  V30 11636 C 1122.71 -3.98104 -1.8762 0
M  V30 11637 H 1119.83 -0.714917 -0.179059 0
M  V30 11638 H 1122.47 -1.88527 0.236104 0
M  V30 11639 H 1120.62 -3.53066 -1.621 0
M  V30 11640 H 1122.29 -4.54604 0.783108 0
M  V30 11641 H 1120.53 -4.26271 0.804727 0
M  V30 11642 H 1121.21 -5.51456 -0.245078 0
M  V30 11643 H 1123.68 -3.93593 -1.34997 0
M  V30 11644 H 1122.56 -5.03098 -2.19508 0
M  V30 11645 H 1122.82 -3.40852 -2.81554 0
M  V30 11646 N 1121.88 0.120221 -1.57141 0
M  V30 11647 C 1123.12 0.829449 -1.85062 0
M  V30 11648 C 1123.46 1.79585 -0.739116 0
M  V30 11649 O 1122.73 1.92819 0.255147 0
M  V30 11650 C 1123.01 1.58042 -3.23566 0
M  V30 11651 C 1122.87 0.633706 -4.45314 0
M  V30 11652 C 1124.19 2.53688 -3.59625 0
M  V30 11653 H 1121.31 0.300086 -0.67314 0
M  V30 11654 H 1123.95 0.0937393 -1.89769 0
M  V30 11655 H 1122.1 2.20758 -3.19684 0
M  V30 11656 H 1123.77 0.0154836 -4.61297 0
M  V30 11657 H 1122.01 -0.054846 -4.33765 0
M  V30 11658 H 1122.68 1.19577 -5.38893 0
M  V30 11659 H 1125.16 2.01078 -3.6429 0
M  V30 11660 H 1124.04 3.03265 -4.57516 0
M  V30 11661 H 1124.3 3.36296 -2.8698 0
M  V30 11662 N 1123.36 1.52689 0.390367 0
M  V30 11663 C 1124.58 1.71839 1.16129 0
M  V30 11664 C 1125.01 0.435226 1.82996 0
M  V30 11665 O 1124.36 -0.60889 1.70769 0
M  V30 11666 C 1124.41 2.86784 2.18603 0
M  V30 11667 O 1123.52 2.53662 3.25161 0
M  V30 11668 H 1122.86 0.571455 0.338135 0
M  V30 11669 H 1125.39 1.99475 0.45508 0
M  V30 11670 H 1125.4 3.12239 2.62622 0
M  V30 11671 H 1124.07 3.79872 1.69322 0
M  V30 11672 H 1122.65 2.38942 2.86289 0
M  V30 11673 N 1124.83 -0.648732 1.43629 0
M  V30 11674 C 1125.78 -1.75473 1.45579 0
M  V30 11675 C 1126.77 -1.57611 0.323683 0
M  V30 11676 O 1127.96 -1.67646 0.56778 0
M  V30 11677 C 1125.09 -3.14083 1.38589 0
M  V30 11678 C 1124.18 -3.37477 2.56846 0
M  V30 11679 N 1124.57 -3.31322 3.82177 0
M  V30 11680 C 1122.86 -3.68212 2.51666 0
M  V30 11681 C 1123.57 -3.54921 4.60875 0
M  V30 11682 N 1122.54 -3.76951 3.91675 0
M  V30 11683 H 1126.34 -1.69146 2.40347 0
M  V30 11684 H 1123.86 -0.850566 1.38344 0
M  V30 11685 H 1125.85 -3.93374 1.38068 0
M  V30 11686 H 1124.51 -3.21588 0.448442 0
M  V30 11687 H 1125.53 -3.10633 4.144 0
M  V30 11688 H 1122.2 -3.82806 1.66631 0
M  V30 11689 H 1123.59 -3.55904 5.69897 0
M  V30 11690 N 1126.31 -1.30234 -0.887518 0
M  V30 11691 C 1127.26 -1.164 -1.99298 0
M  V30 11692 C 1128.23 -0.0541536 -1.66012 0
M  V30 11693 O 1129.41 -0.223881 -1.89482 0
M  V30 11694 C 1126.55 -0.859169 -3.34234 0
M  V30 11695 C 1125.67 -2.05065 -3.80227 0
M  V30 11696 C 1124.8 -1.68413 -5.03796 0
M  V30 11697 C 1123.84 -2.8407 -5.4219 0
M  V30 11698 N 1122.98 -2.47732 -6.56942 0
M  V30 11699 H 1127.82 -2.10973 -2.10463 0
M  V30 11700 H 1125.36 -1.04969 -1.03053 0
M  V30 11701 H 1127.31 -0.663064 -4.11897 0
M  V30 11702 H 1125.94 0.0496808 -3.22762 0
M  V30 11703 H 1125 -2.35808 -2.98494 0
M  V30 11704 H 1126.31 -2.91688 -4.04623 0
M  V30 11705 H 1125.46 -1.45162 -5.89078 0
M  V30 11706 H 1124.2 -0.789553 -4.81266 0
M  V30 11707 H 1123.21 -3.0799 -4.55437 0
M  V30 11708 H 1124.43 -3.74211 -5.66695 0
M  V30 11709 H 1122.38 -1.60777 -6.35993 0
M  V30 11710 H 1122.29 -3.27887 -6.81195 0
M  V30 11711 H 1123.56 -2.27831 -7.45462 0
M  V30 11712 N 1127.79 1.09952 -1.12909 0
M  V30 11713 C 1129.04 1.82286 -0.888797 0
M  V30 11714 C 1129.37 1.85218 0.58379 0
M  V30 11715 O 1128.64 1.31645 1.43177 0
M  V30 11716 C 1128.93 3.28706 -1.47053 0
M  V30 11717 C 1128.78 3.34078 -3.01184 0
M  V30 11718 C 1130.1 4.25233 -1.13424 0
M  V30 11719 H 1127.22 0.661803 -0.324324 0
M  V30 11720 H 1129.86 1.28833 -1.3965 0
M  V30 11721 H 1128.01 3.74356 -1.03874 0
M  V30 11722 H 1129.68 2.96871 -3.5308 0
M  V30 11723 H 1127.93 2.73825 -3.36455 0
M  V30 11724 H 1128.6 4.37202 -3.36984 0
M  V30 11725 H 1131.07 3.87841 -1.50726 0
M  V30 11726 H 1129.95 5.26033 -1.56783 0
M  V30 11727 H 1130.21 4.42075 -0.0471496 0
M  V30 11728 N 1129.27 0.921757 1.27833 0
M  V30 11729 C 1130.55 0.477706 1.89677 0
M  V30 11730 C 1130.93 -1.04392 1.83481 0
M  V30 11731 O 1130.27 -1.89549 1.27606 0
M  V30 11732 C 1130.48 1.01709 3.33851 0
M  V30 11733 C 1131.83 1.074 4.10792 0
M  V30 11734 O 1132.86 0.966295 3.42843 0
M  V30 11735 O 1131.71 1.23909 5.32268 0
M  V30 11736 H 1128.81 0.15271 0.812778 0
M  V30 11737 H 1131.35 1.01306 1.36144 0
M  V30 11738 H 1130.13 2.061 3.32623 0
M  V30 11739 H 1129.75 0.463031 3.94895 0
M  V30 11740 N 1130.75 -1.41857 0.686609 0
M  V30 11741 C 1131.68 -2.33481 0.0298353 0
M  V30 11742 C 1132.66 -1.51329 -0.776756 0
M  V30 11743 O 1133.84 -1.79895 -0.731535 0
M  V30 11744 C 1130.97 -3.35065 -0.913707 0
M  V30 11745 C 1129.93 -4.2746 -0.214861 0
M  V30 11746 C 1129.25 -5.19346 -1.27215 0
M  V30 11747 C 1130.55 -5.14252 0.913367 0
M  V30 11748 H 1132.25 -2.8865 0.795067 0
M  V30 11749 H 1129.79 -1.38792 0.383785 0
M  V30 11750 H 1131.75 -3.98082 -1.38234 0
M  V30 11751 H 1130.47 -2.78226 -1.7105 0
M  V30 11752 H 1129.13 -3.65855 0.233651 0
M  V30 11753 H 1128.78 -4.58827 -2.06124 0
M  V30 11754 H 1128.48 -5.81996 -0.80961 0
M  V30 11755 H 1130 -5.85239 -1.74147 0
M  V30 11756 H 1131.41 -5.70887 0.525424 0
M  V30 11757 H 1129.81 -5.85796 1.30244 0
M  V30 11758 H 1130.88 -4.51949 1.75699 0
M  V30 11759 N 1132.22 -0.430739 -1.51599 0
M  V30 11760 C 1133.19 0.372319 -2.26156 0
M  V30 11761 C 1134.19 0.955338 -1.29344 0
M  V30 11762 O 1135.38 0.830823 -1.53111 0
M  V30 11763 C 1132.51 1.52613 -3.04831 0
M  V30 11764 H 1133.7 -0.280996 -2.98581 0
M  V30 11765 H 1131.26 -0.183749 -1.55216 0
M  V30 11766 H 1131.99 2.21569 -2.36807 0
M  V30 11767 H 1131.78 1.11433 -3.75932 0
M  V30 11768 H 1133.27 2.09366 -3.61325 0
M  V30 11769 N 1133.7 1.56767 -0.161869 0
M  V30 11770 C 1134.95 1.96885 0.486215 0
M  V30 11771 C 1135.28 1.04745 1.6353 0
M  V30 11772 O 1134.56 0.0927156 1.94279 0
M  V30 11773 C 1134.84 3.46559 0.97822 0
M  V30 11774 C 1134.69 4.49477 -0.17039 0
M  V30 11775 C 1136.01 3.99093 1.85506 0
M  V30 11776 H 1133.13 0.715857 0.175265 0
M  V30 11777 H 1135.77 1.88399 -0.246098 0
M  V30 11778 H 1133.92 3.53921 1.60225 0
M  V30 11779 H 1135.59 4.54183 -0.807205 0
M  V30 11780 H 1133.84 4.25838 -0.827322 0
M  V30 11781 H 1134.51 5.51578 0.21583 0
M  V30 11782 H 1136.98 3.94303 1.32908 0
M  V30 11783 H 1135.86 5.04255 2.16837 0
M  V30 11784 H 1136.12 3.4234 2.79742 0
M  V30 11785 N 1135.18 -0.111886 1.57202 0
M  V30 11786 C 1136.11 -1.13796 2.03894 0
M  V30 11787 C 1137.09 -1.4277 0.924696 0
M  V30 11788 O 1138.28 -1.53089 1.19488 0
M  V30 11789 C 1135.41 -2.46229 2.44925 0
M  V30 11790 C 1134.36 -2.31702 3.59859 0
M  V30 11791 C 1133.69 -3.69161 3.86813 0
M  V30 11792 C 1134.99 -1.77158 4.91337 0
M  V30 11793 H 1136.68 -0.749581 2.89865 0
M  V30 11794 H 1134.23 -0.359126 1.3945 0
M  V30 11795 H 1136.18 -3.18267 2.76195 0
M  V30 11796 H 1134.9 -2.86971 1.55933 0
M  V30 11797 H 1133.56 -1.62112 3.28809 0
M  V30 11798 H 1133.21 -4.07401 2.95015 0
M  V30 11799 H 1132.91 -3.60292 4.6418 0
M  V30 11800 H 1134.43 -4.42693 4.20542 0
M  V30 11801 H 1135.85 -2.3902 5.21097 0
M  V30 11802 H 1134.25 -1.79091 5.72753 0
M  V30 11803 H 1135.32 -0.729675 4.79379 0
M  V30 11804 N 1136.66 -1.52894 -0.382264 0
M  V30 11805 C 1137.62 -1.77497 -1.45008 0
M  V30 11806 C 1138.62 -0.64509 -1.47293 0
M  V30 11807 O 1139.81 -0.913192 -1.48346 0
M  V30 11808 C 1136.94 -1.88188 -2.8425 0
M  V30 11809 H 1138.14 -2.72849 -1.24473 0
M  V30 11810 H 1135.69 -1.43717 -0.61441 0
M  V30 11811 H 1136.42 -0.948451 -3.10121 0
M  V30 11812 H 1136.21 -2.70353 -2.83992 0
M  V30 11813 H 1137.7 -2.08873 -3.6161 0
M  V30 11814 N 1138.14 0.641106 -1.43971 0
M  V30 11815 C 1139.1 1.73539 -1.49723 0
M  V30 11816 C 1140.1 1.56235 -0.380438 0
M  V30 11817 O 1141.29 1.61912 -0.642673 0
M  V30 11818 C 1138.42 3.1253 -1.36153 0
M  V30 11819 H 1139.62 1.69816 -2.47189 0
M  V30 11820 H 1137.17 0.853867 -1.30915 0
M  V30 11821 H 1137.9 3.21856 -0.39742 0
M  V30 11822 H 1137.69 3.26496 -2.17124 0
M  V30 11823 H 1139.18 3.92303 -1.43138 0
M  V30 11824 N 1139.62 1.30703 0.880598 0
M  V30 11825 C 1140.86 1.19955 1.63519 0
M  V30 11826 C 1141.19 -0.244214 1.92658 0
M  V30 11827 O 1140.47 -1.17412 1.55063 0
M  V30 11828 C 1140.75 2.03302 2.97221 0
M  V30 11829 C 1140.61 3.55921 2.75028 0
M  V30 11830 C 1141.92 1.87421 3.98198 0
M  V30 11831 H 1139.04 0.43712 0.593376 0
M  V30 11832 H 1141.69 1.60382 1.01871 0
M  V30 11833 H 1139.84 1.68953 3.49839 0
M  V30 11834 H 1141.51 4.00352 2.29164 0
M  V30 11835 H 1139.75 3.79885 2.09452 0
M  V30 11836 H 1140.42 4.09533 3.70117 0
M  V30 11837 H 1142.9 2.17459 3.54755 0
M  V30 11838 H 1141.77 2.48057 4.89652 0
M  V30 11839 H 1142.03 0.834563 4.34151 0
M  V30 11840 N 1141.09 -1.09351 1.1349 0
M  V30 11841 C 1142 -2.19564 0.826366 0
M  V30 11842 C 1143.02 -1.72967 -0.189339 0
M  V30 11843 O 1144.2 -2.0139 -0.0202033 0
M  V30 11844 C 1141.26 -3.4542 0.297685 0
M  V30 11845 C 1140.32 -4.06694 1.37473 0
M  V30 11846 C 1139.55 -5.26542 0.871183 0
M  V30 11847 O 1139.78 -5.69657 -0.290958 0
M  V30 11848 O 1138.71 -5.78961 1.64584 0
M  V30 11849 H 1142.54 -2.4841 1.74718 0
M  V30 11850 H 1140.12 -1.18302 0.912414 0
M  V30 11851 H 1142 -4.21399 0.00829479 0
M  V30 11852 H 1140.68 -3.18175 -0.595536 0
M  V30 11853 H 1139.59 -3.32347 1.71745 0
M  V30 11854 H 1140.92 -4.38166 2.24212 0
M  V30 11855 N 1142.57 -0.928524 -1.27343 0
M  V30 11856 C 1143.82 -0.565207 -1.93619 0
M  V30 11857 C 1144.13 0.897988 -1.73769 0
M  V30 11858 O 1145.34 1.37012 -2.34393 0
M  V30 11859 C 1143.8 -0.960052 -3.46859 0
M  V30 11860 C 1143.4 -2.44399 -3.75464 0
M  V30 11861 C 1145.15 -0.668026 -4.19211 0
M  V30 11862 C 1143.05 -2.77819 -5.22083 0
M  V30 11863 H 1141.98 -0.207665 -0.724839 0
M  V30 11864 H 1144.64 -1.12945 -1.44623 0
M  V30 11865 H 1143.02 -0.324454 -3.94669 0
M  V30 11866 H 1144.19 -3.12756 -3.38408 0
M  V30 11867 H 1142.51 -2.70799 -3.16317 0
M  V30 11868 H 1145.1 -0.894207 -5.2717 0
M  V30 11869 H 1145.45 0.394788 -4.14424 0
M  V30 11870 H 1145.98 -1.26276 -3.77226 0
M  V30 11871 H 1142.72 -3.83013 -5.3196 0
M  V30 11872 H 1142.24 -2.14112 -5.60282 0
M  V30 11873 H 1143.92 -2.65607 -5.89968 0
M  V30 11874 N 1144.05 1.41491 -0.694123 0
M  V30 11875 C 1145.47 1.55358 -0.365532 0
M  V30 11876 C 1145.67 1.66994 1.12762 0
M  V30 11877 O 1144.72 1.64756 1.91342 0
M  V30 11878 C 1146.03 2.79352 -1.11279 0
M  V30 11879 C 1147.58 2.93147 -1.097 0
M  V30 11880 C 1148.06 4.20027 -1.82597 0
M  V30 11881 N 1149.55 4.26981 -1.7956 0
M  V30 11882 C 1150.28 5.24013 -2.32805 0
M  V30 11883 N 1149.78 6.27083 -2.94515 0
M  V30 11884 N 1151.57 5.15943 -2.23069 0
M  V30 11885 H 1143.72 1.32183 -1.66257 0
M  V30 11886 H 1145.99 0.637624 -0.701527 0
M  V30 11887 H 1145.69 2.76958 -2.16765 0
M  V30 11888 H 1145.57 3.70827 -0.690439 0
M  V30 11889 H 1147.95 2.95057 -0.0504037 0
M  V30 11890 H 1148.03 2.02849 -1.55839 0
M  V30 11891 H 1147.68 4.18878 -2.87235 0
M  V30 11892 H 1147.61 5.09294 -1.33893 0
M  V30 11893 H 1150.1 3.53129 -1.34567 0
M  V30 11894 H 1150.41 6.97511 -3.32714 0
M  V30 11895 H 1148.76 6.27589 -2.98592 0
M  V30 11896 H 1151.95 4.34346 -1.74532 0
M  V30 11897 H 1152.12 5.91396 -2.64868 0
M  V30 11898 N 1145.53 0.438773 1.51369 0
M  V30 11899 C 1146.78 -0.126962 2.01701 0
M  V30 11900 C 1147.1 -1.43086 1.32481 0
M  V30 11901 O 1146.37 -1.90427 0.459823 0
M  V30 11902 H 1144.95 -0.0499092 0.745331 0
M  V30 11903 H 1147.61 0.581808 1.86013 0
M  V30 11904 H 1146.7 -0.301836 3.10637 0
M  V30 11905 N 1147.01 -1.56678 0.170181 0
M  V30 11906 C 1148.25 -1.9714 -0.475767 0
M  V30 11907 C 1148.58 -1.05611 -1.62972 0
M  V30 11908 O 1147.86 -0.103017 -1.94227 0
M  V30 11909 C 1148.14 -3.47072 -0.959828 0
M  V30 11910 C 1148 -4.4938 0.194225 0
M  V30 11911 C 1149.31 -4.00071 -1.83387 0
M  V30 11912 H 1146.43 -0.716776 -0.171466 0
M  V30 11913 H 1149.08 -1.88266 0.256086 0
M  V30 11914 H 1147.23 -3.54766 -1.58346 0
M  V30 11915 H 1148.9 -4.53748 0.83128 0
M  V30 11916 H 1147.14 -4.25393 0.849893 0
M  V30 11917 H 1147.81 -5.51685 -0.186575 0
M  V30 11918 H 1150.29 -3.95002 -1.30815 0
M  V30 11919 H 1149.16 -5.05398 -2.14159 0
M  V30 11920 H 1149.42 -3.43819 -2.77923 0
M  V30 11921 N 1148.48 0.103547 -1.57259 0
M  V30 11922 C 1149.71 0.82624 -1.90232 0
M  V30 11923 C 1150.13 1.71902 -0.763641 0
M  V30 11924 O 1149.49 1.79043 0.285181 0
M  V30 11925 C 1149.54 1.62265 -3.22029 0
M  V30 11926 O 1148.64 2.73091 -3.09023 0
M  V30 11927 H 1147.98 0.227528 -0.6238 0
M  V30 11928 H 1150.51 0.081307 -2.04438 0
M  V30 11929 H 1150.52 2.00865 -3.5513 0
M  V30 11930 H 1149.2 0.967383 -4.04493 0
M  V30 11931 H 1147.78 2.3758 -2.8742 0
M  V30 11932 N 1149.96 1.53094 0.37415 0
M  V30 11933 C 1151.19 1.73061 1.143 0
M  V30 11934 C 1151.61 0.454611 1.82524 0
M  V30 11935 O 1150.97 -0.590743 1.71406 0
M  V30 11936 C 1151.02 2.89086 2.15549 0
M  V30 11937 O 1150.12 2.57096 3.22452 0
M  V30 11938 H 1149.46 0.575009 0.332055 0
M  V30 11939 H 1151.99 1.99946 0.433897 0
M  V30 11940 H 1152 3.15007 2.59296 0
M  V30 11941 H 1150.68 3.81647 1.65283 0
M  V30 11942 H 1149.25 2.41965 2.83738 0
M  V30 11943 N 1151.44 -0.633461 1.44309 0
M  V30 11944 C 1152.85 -1.21504 1.41752 0
M  V30 11945 C 1153.2 -1.95758 0.131667 0
M  V30 11946 O 1152.33 -2.02311 -0.768072 0
M  V30 11947 C 1152.92 -2.21005 2.56792 0
M  V30 11948 C 1151.48 -2.74596 2.57438 0
M  V30 11949 C 1150.63 -1.49555 2.33513 0
M  V30 11950 H 1153.58 -0.424277 1.52923 0
M  V30 11951 H 1153.6 -3.03563 2.29412 0
M  V30 11952 H 1153.11 -1.66934 3.50364 0
M  V30 11953 H 1151.21 -3.32676 1.67801 0
M  V30 11954 H 1151.33 -3.20794 3.55849 0
M  V30 11955 H 1149.69 -1.77605 1.82561 0
M  V30 11956 H 1150.47 -0.973899 3.29196 0
M  V30 11957 N 1152.92 -1.31168 -0.873655 0
M  V30 11958 C 1154.2 -1.11285 -1.60857 0
M  V30 11959 C 1154.58 0.333788 -2.08444 0
M  V30 11960 O 1153.92 1.32726 -1.86 0
M  V30 11961 C 1154.13 -2.12379 -2.7694 0
M  V30 11962 C 1155.48 -2.44704 -3.46994 0
M  V30 11963 O 1156.51 -2.10778 -2.87143 0
M  V30 11964 O 1155.36 -3.02786 -4.54954 0
M  V30 11965 H 1152.46 -0.428177 -0.707526 0
M  V30 11966 H 1155 -1.42634 -0.91944 0
M  V30 11967 H 1153.78 -3.09703 -2.39164 0
M  V30 11968 H 1153.4 -1.81914 -3.53544 0
M  V30 11969 N 1154.4 1.08748 -1.14068 0
M  V30 11970 C 1155.35 2.13762 -0.793087 0
M  V30 11971 C 1156.33 1.59442 0.216123 0
M  V30 11972 O 1157.52 1.7699 0.0189888 0
M  V30 11973 C 1154.65 3.42249 -0.268432 0
M  V30 11974 C 1153.74 4.03459 -1.30696 0
M  V30 11975 N 1154.13 4.39126 -2.51002 0
M  V30 11976 C 1152.43 4.30748 -1.15637 0
M  V30 11977 C 1153.13 4.87438 -3.17457 0
M  V30 11978 N 1152.1 4.85326 -2.44866 0
M  V30 11979 H 1155.91 2.39152 -1.70831 0
M  V30 11980 H 1153.42 1.26046 -1.02403 0
M  V30 11981 H 1155.42 4.169 -0.00113254 0
M  V30 11982 H 1154.08 3.18309 0.641032 0
M  V30 11983 H 1155.09 4.30266 -2.88256 0
M  V30 11984 H 1151.76 4.1638 -0.305636 0
M  V30 11985 H 1153.15 5.24443 -4.20011 0
M  V30 11986 N 1155.87 0.935264 1.26849 0
M  V30 11987 C 1157.12 0.580548 1.94313 0
M  V30 11988 C 1157.45 -0.877205 1.73259 0
M  V30 11989 O 1156.73 -1.62679 1.06611 0
M  V30 11990 C 1157.01 0.916445 3.48243 0
M  V30 11991 C 1156.86 2.42851 3.78607 0
M  V30 11992 C 1158.18 0.427665 4.38017 0
M  V30 11993 H 1155.3 0.21239 0.705733 0
M  V30 11994 H 1157.94 1.16841 1.49827 0
M  V30 11995 H 1156.09 0.416169 3.86265 0
M  V30 11996 H 1157.77 3.00106 3.50335 0
M  V30 11997 H 1156.01 2.8745 3.24892 0
M  V30 11998 H 1156.68 2.61405 4.8618 0
M  V30 11999 H 1159.16 0.856525 4.07189 0
M  V30 12000 H 1158.03 0.691571 5.44526 0
M  V30 12001 H 1158.29 -0.672344 4.36958 0
M  V30 12002 N 1157.35 -1.41121 0.701616 0
M  V30 12003 C 1158.6 -2.0113 0.235147 0
M  V30 12004 C 1158.93 -1.55587 -1.16718 0
M  V30 12005 O 1158.18 -0.760615 -1.80314 0
M  V30 12006 C 1158.48 -3.5654 0.247781 0
M  V30 12007 C 1158.15 -4.21616 1.59846 0
M  V30 12008 C 1156.81 -4.39106 1.96822 0
M  V30 12009 C 1159.16 -4.58048 2.48679 0
M  V30 12010 C 1156.49 -4.90307 3.22205 0
M  V30 12011 C 1158.84 -5.10642 3.734 0
M  V30 12012 C 1157.51 -5.26343 4.10512 0
M  V30 12013 H 1156.78 -0.735987 0.0860462 0
M  V30 12014 H 1159.42 -1.68932 0.901898 0
M  V30 12015 H 1157.73 -3.88564 -0.502528 0
M  V30 12016 H 1159.42 -4.00787 -0.130766 0
M  V30 12017 H 1156.01 -4.08381 1.30088 0
M  V30 12018 H 1160.2 -4.44184 2.21391 0
M  V30 12019 H 1155.45 -5.00647 3.50945 0
M  V30 12020 H 1159.63 -5.37811 4.42416 0
M  V30 12021 H 1157.26 -5.65779 5.07738 0
M  V30 12022 N 1158.83 -0.446794 -1.51134 0
M  V30 12023 C 1159.76 0.350229 -2.30858 0
M  V30 12024 C 1160.74 1.0125 -1.36684 0
M  V30 12025 O 1161.93 1.01433 -1.65605 0
M  V30 12026 C 1159.06 1.4464 -3.15748 0
M  V30 12027 C 1158.01 0.907102 -4.18277 0
M  V30 12028 C 1157.34 2.09974 -4.91747 0
M  V30 12029 C 1158.64 -0.0649758 -5.2226 0
M  V30 12030 H 1160.33 -0.315105 -2.97737 0
M  V30 12031 H 1157.88 -0.152985 -1.43185 0
M  V30 12032 H 1159.83 2.01127 -3.70305 0
M  V30 12033 H 1158.55 2.14016 -2.46708 0
M  V30 12034 H 1157.21 0.364382 -3.64785 0
M  V30 12035 H 1156.86 2.77991 -4.19202 0
M  V30 12036 H 1156.56 1.74523 -5.61084 0
M  V30 12037 H 1158.08 2.66996 -5.49131 0
M  V30 12038 H 1159.5 0.4099 -5.71833 0
M  V30 12039 H 1157.9 -0.332529 -5.99178 0
M  V30 12040 H 1158.97 -0.998681 -4.74504 0
M  V30 12041 N 1160.31 1.56586 -0.178487 0
M  V30 12042 C 1161.72 1.83633 0.337009 0
M  V30 12043 C 1162.07 1.09857 1.6256 0
M  V30 12044 O 1161.2 0.353933 2.13486 0
M  V30 12045 C 1161.79 3.33112 0.618225 0
M  V30 12046 C 1160.35 3.60629 1.07814 0
M  V30 12047 C 1159.5 2.7705 0.117825 0
M  V30 12048 H 1162.45 1.53508 -0.402612 0
M  V30 12049 H 1162.47 3.5098 1.46947 0
M  V30 12050 H 1161.98 3.8678 -0.319808 0
M  V30 12051 H 1160.08 3.12378 2.03103 0
M  V30 12052 H 1160.19 4.68921 0.982339 0
M  V30 12053 H 1158.56 2.47125 0.616563 0
M  V30 12054 H 1159.34 3.33501 -0.814356 0
M  V30 12055 N 1161.79 -0.095206 1.57312 0
M  V30 12056 C 1163.04 -0.797417 1.85268 0
M  V30 12057 C 1163.35 -1.79903 0.767733 0
M  V30 12058 O 1164.55 -2.54914 0.934409 0
M  V30 12059 C 1163.01 -1.469 3.28555 0
M  V30 12060 C 1162.62 -0.507152 4.4512 0
M  V30 12061 C 1164.36 -2.15494 3.65735 0
M  V30 12062 C 1162.27 -1.18331 5.79441 0
M  V30 12063 H 1161.2 -0.301552 0.691074 0
M  V30 12064 H 1163.85 -0.0503584 1.83431 0
M  V30 12065 H 1162.23 -2.26351 3.24933 0
M  V30 12066 H 1163.41 0.255858 4.60089 0
M  V30 12067 H 1161.72 0.0730882 4.16336 0
M  V30 12068 H 1164.32 -2.66816 4.63371 0
M  V30 12069 H 1164.66 -2.94383 2.94354 0
M  V30 12070 H 1165.19 -1.42903 3.71246 0
M  V30 12071 H 1161.93 -0.435238 6.54053 0
M  V30 12072 H 1161.45 -1.91775 5.68315 0
M  V30 12073 H 1163.13 -1.70983 6.23998 0
M  V30 12074 N 1163.26 -1.53291 -0.366026 0
M  V30 12075 C 1164.68 -1.61144 -0.942849 0
M  V30 12076 C 1165.03 -0.478571 -1.90274 0
M  V30 12077 O 1164.15 0.395069 -2.12763 0
M  V30 12078 C 1164.75 -2.92081 -1.71681 0
M  V30 12079 C 1163.31 -3.0227 -2.24298 0
M  V30 12080 C 1162.45 -2.56436 -1.05526 0
M  V30 12081 H 1165.4 -1.58038 -0.144835 0
M  V30 12082 H 1165.42 -2.79858 -2.57798 0
M  V30 12083 H 1164.94 -3.74513 -1.01793 0
M  V30 12084 H 1163.04 -2.24425 -2.97429 0
M  V30 12085 H 1163.15 -4.07341 -2.5221 0
M  V30 12086 H 1161.51 -2.11301 -1.42211 0
M  V30 12087 H 1162.3 -3.41285 -0.371376 0
M  V30 12088 N 1164.74 0.6258 -1.44643 0
M  V30 12089 C 1165.69 1.75869 -1.52226 0
M  V30 12090 C 1166.68 1.64765 -0.39355 0
M  V30 12091 O 1167.89 1.70779 -0.568718 0
M  V30 12092 H 1164.27 0.580712 -0.477784 0
M  V30 12093 H 1166.24 1.66596 -2.47565 0
M  V30 12094 C 1164.99 3.14217 -1.48873 0
M  V30 12095 H 1164.31 3.23411 -2.35043 0
M  V30 12096 H 1165.75 3.93365 -1.58239 0
M  V30 12097 C 1164.21 3.36243 -0.210299 0
M  V30 12098 O 1164.74 3.95243 0.717335 0
M  V30 12099 N 1162.94 2.90385 -0.111744 0
M  V30 12100 H 1162.49 2.42555 -0.867466 0
M  V30 12101 H 1162.45 3.05498 0.742871 0
M  V30 12102 N 1166.22 1.31629 0.866686 0
M  V30 12103 C 1167.47 1.22693 1.62228 0
M  V30 12104 C 1167.82 -0.212134 1.91227 0
M  V30 12105 O 1167.11 -1.1465 1.53512 0
M  V30 12106 C 1167.31 2.00775 2.95676 0
M  V30 12107 C 1167.14 3.52128 2.79708 0
M  V30 12108 C 1165.91 4.21476 2.78722 0
M  V30 12109 C 1168.11 4.47013 2.5433 0
M  V30 12110 N 1166.09 5.58963 2.53838 0
M  V30 12111 C 1167.46 5.72192 2.3874 0
M  V30 12112 C 1169.51 4.36404 2.39701 0
M  V30 12113 C 1168.22 6.8796 2.10008 0
M  V30 12114 C 1170.24 5.51959 2.12358 0
M  V30 12115 C 1169.6 6.76129 1.97559 0
M  V30 12116 H 1165.7 0.504088 0.597845 0
M  V30 12117 H 1168.29 1.65856 1.01979 0
M  V30 12118 H 1166.46 1.59975 3.53924 0
M  V30 12119 H 1168.19 1.83831 3.60539 0
M  V30 12120 H 1164.95 3.73478 2.91224 0
M  V30 12121 H 1165.37 6.31362 2.44358 0
M  V30 12122 H 1170.01 3.41066 2.49868 0
M  V30 12123 H 1167.73 7.83321 1.98578 0
M  V30 12124 H 1171.32 5.45669 2.01834 0
M  V30 12125 H 1170.2 7.64033 1.76701 0
M  V30 12126 N 1167.7 -1.08142 1.14644 0
M  V30 12127 C 1168.61 -2.18675 0.849607 0
M  V30 12128 C 1169.63 -1.73158 -0.170983 0
M  V30 12129 O 1170.8 -2.014 0.0011579 0
M  V30 12130 C 1167.87 -3.45084 0.334305 0
M  V30 12131 C 1166.93 -4.05213 1.41779 0
M  V30 12132 C 1166.16 -5.25588 0.926981 0
M  V30 12133 O 1166.38 -5.69934 -0.230522 0
M  V30 12134 O 1165.32 -5.77183 1.70715 0
M  V30 12135 H 1169.14 -2.46542 1.77343 0
M  V30 12136 H 1166.73 -1.17328 0.924911 0
M  V30 12137 H 1168.61 -4.21367 0.0529893 0
M  V30 12138 H 1167.29 -3.18788 -0.561755 0
M  V30 12139 H 1166.19 -3.30507 1.7526 0
M  V30 12140 H 1167.53 -4.35764 2.28847 0
M  V30 12141 N 1169.18 -0.941978 -1.26351 0
M  V30 12142 C 1170.13 -0.423053 -2.24041 0
M  V30 12143 C 1171.11 0.480668 -1.53553 0
M  V30 12144 O 1172.3 0.315783 -1.7416 0
M  V30 12145 C 1169.43 0.309814 -3.41899 0
M  V30 12146 C 1168.52 -0.611245 -4.19672 0
M  V30 12147 N 1168.91 -1.73738 -4.75025 0
M  V30 12148 C 1167.21 -0.416985 -4.44046 0
M  V30 12149 C 1167.91 -2.31141 -5.33806 0
M  V30 12150 N 1166.88 -1.59934 -5.1954 0
M  V30 12151 H 1170.69 -1.28268 -2.64433 0
M  V30 12152 H 1168.2 -0.797941 -1.41445 0
M  V30 12153 H 1170.2 0.698618 -4.11005 0
M  V30 12154 H 1168.86 1.1662 -3.03035 0
M  V30 12155 H 1169.87 -2.1195 -4.72544 0
M  V30 12156 H 1166.55 0.397561 -4.15603 0
M  V30 12157 H 1167.94 -3.26029 -5.87499 0
M  V30 12158 N 1170.66 1.40747 -0.709091 0
M  V30 12159 C 1171.6 2.30741 -0.0523584 0
M  V30 12160 C 1172.57 1.4784 0.757145 0
M  V30 12161 O 1173.76 1.76595 0.72242 0
M  V30 12162 C 1170.9 3.34 0.868203 0
M  V30 12163 C 1170.01 4.31972 0.0488686 0
M  V30 12164 C 1169.15 5.223 0.968311 0
M  V30 12165 C 1168.18 6.11934 0.142682 0
M  V30 12166 N 1167.32 6.947 1.01665 0
M  V30 12167 H 1172.16 2.86338 -0.825509 0
M  V30 12168 H 1169.7 1.41013 -0.418785 0
M  V30 12169 H 1171.66 3.92431 1.41611 0
M  V30 12170 H 1170.29 2.79921 1.6076 0
M  V30 12171 H 1169.34 3.75377 -0.616137 0
M  V30 12172 H 1170.65 4.95291 -0.590625 0
M  V30 12173 H 1169.8 5.85631 1.58498 0
M  V30 12174 H 1168.54 4.5924 1.64164 0
M  V30 12175 H 1167.55 5.47639 -0.486965 0
M  V30 12176 H 1168.77 6.77052 -0.527046 0
M  V30 12177 H 1166.72 6.34236 1.67575 0
M  V30 12178 H 1166.64 7.54759 0.433045 0
M  V30 12179 H 1167.9 7.62487 1.6197 0
M  V30 12180 N 1172.13 0.454803 1.50895 0
M  V30 12181 C 1173.04 -0.353495 2.31921 0
M  V30 12182 C 1174.06 -1.01136 1.41589 0
M  V30 12183 O 1175.24 -1.00291 1.74653 0
M  V30 12184 C 1172.3 -1.43032 3.15821 0
M  V30 12185 C 1171.36 -0.790763 4.21954 0
M  V30 12186 C 1170.59 -1.81628 5.01843 0
M  V30 12187 O 1170.82 -3.04078 4.8259 0
M  V30 12188 O 1169.75 -1.39713 5.8546 0
M  V30 12189 H 1173.58 0.308463 3.02129 0
M  V30 12190 H 1171.16 0.216971 1.47816 0
M  V30 12191 H 1173.04 -2.05444 3.67927 0
M  V30 12192 H 1171.72 -2.07605 2.48358 0
M  V30 12193 H 1170.63 -0.128127 3.73881 0
M  V30 12194 H 1171.96 -0.188251 4.9184 0
M  V30 12195 N 1173.61 -1.56489 0.186789 0
M  V30 12196 C 1174.56 -2.20034 -0.754164 0
M  V30 12197 C 1175.55 -1.16899 -1.22601 0
M  V30 12198 O 1176.76 -1.35064 -1.18987 0
M  V30 12199 H 1173.13 -0.705058 -0.261529 0
M  V30 12200 H 1175.11 -2.97766 -0.194418 0
M  V30 12201 C 1173.85 -2.86733 -1.9667 0
M  V30 12202 H 1173.18 -3.65831 -1.61268 0
M  V30 12203 H 1174.62 -3.34645 -2.60363 0
M  V30 12204 C 1173.08 -1.87325 -2.8002 0
M  V30 12205 O 1173.61 -1.36835 -3.77676 0
M  V30 12206 N 1171.81 -1.55738 -2.45345 0
M  V30 12207 H 1171.36 -1.9699 -1.6599 0
M  V30 12208 H 1171.32 -0.894805 -3.01398 0
M  V30 12209 N 1175.09 0.086862 -1.5736 0
M  V30 12210 C 1176.5 0.640442 -1.75372 0
M  V30 12211 C 1176.85 1.78693 -0.81014 0
M  V30 12212 O 1175.98 2.16398 0.00940712 0
M  V30 12213 C 1176.57 1.16856 -3.1801 0
M  V30 12214 C 1175.13 1.66813 -3.37417 0
M  V30 12215 C 1174.28 0.58116 -2.71142 0
M  V30 12216 H 1177.23 -0.139249 -1.58088 0
M  V30 12217 H 1177.25 2.03772 -3.21337 0
M  V30 12218 H 1176.76 0.333909 -3.86661 0
M  V30 12219 H 1174.86 2.52652 -2.73858 0
M  V30 12220 H 1174.98 1.75545 -4.45781 0
M  V30 12221 H 1173.34 1.0226 -2.3327 0
M  V30 12222 H 1174.12 -0.243047 -3.42439 0
M  V30 12223 N 1176.57 1.53483 0.357892 0
M  V30 12224 C 1177.48 1.83434 1.4625 0
M  V30 12225 C 1178.49 0.723313 1.58254 0
M  V30 12226 O 1179.67 1.01416 1.74002 0
M  V30 12227 C 1176.73 2.0249 2.81423 0
M  V30 12228 C 1175.8 3.26378 2.78883 0
M  V30 12229 C 1175.03 3.44516 4.07608 0
M  V30 12230 O 1175.25 2.66787 5.04163 0
M  V30 12231 O 1174.19 4.37898 4.12952 0
M  V30 12232 H 1178.01 2.77294 1.23861 0
M  V30 12233 H 1175.6 1.38958 0.548722 0
M  V30 12234 H 1177.48 2.16552 3.61501 0
M  V30 12235 H 1176.15 1.11819 3.03773 0
M  V30 12236 H 1175.06 3.17733 1.97475 0
M  V30 12237 H 1176.39 4.16996 2.61486 0
M  V30 12238 N 1178.05 -0.61812 1.44973 0
M  V30 12239 C 1179.27 -1.40429 1.51945 0
M  V30 12240 C 1179.69 -1.88215 0.148556 0
M  V30 12241 O 1179.05 -1.61603 -0.847978 0
M  V30 12242 C 1179.1 -2.61588 2.49507 0
M  V30 12243 O 1178.82 -2.15791 3.81269 0
M  V30 12244 C 1180.32 -3.5457 2.66074 0
M  V30 12245 H 1177.54 -0.43023 0.514921 0
M  V30 12246 H 1180.08 -0.754791 1.90061 0
M  V30 12247 H 1178.24 -3.22602 2.14492 0
M  V30 12248 H 1178.65 -2.94434 4.34061 0
M  V30 12249 H 1180.13 -4.36155 3.38338 0
M  V30 12250 H 1180.6 -4.04227 1.71746 0
M  V30 12251 H 1181.21 -2.99416 3.02043 0
M  V30 12252 N 1179.52 -1.32087 -0.859693 0
M  V30 12253 C 1180.43 -1.22587 -2.00024 0
M  V30 12254 C 1181.45 -0.140477 -1.73432 0
M  V30 12255 O 1182.63 -0.360213 -1.98153 0
M  V30 12256 C 1179.69 -0.944195 -3.33595 0
M  V30 12257 C 1178.75 -2.11752 -3.73443 0
M  V30 12258 C 1177.98 -1.84919 -5.0064 0
M  V30 12259 O 1178.21 -0.789299 -5.64913 0
M  V30 12260 O 1177.14 -2.70885 -5.37499 0
M  V30 12261 H 1180.97 -2.18457 -2.10974 0
M  V30 12262 H 1178.55 -1.11927 -0.989577 0
M  V30 12263 H 1180.43 -0.803389 -4.13671 0
M  V30 12264 H 1179.11 -0.0156083 -3.23696 0
M  V30 12265 H 1178.02 -2.31378 -2.93965 0
M  V30 12266 H 1179.35 -3.02872 -3.87981 0
M  V30 12267 N 1181 1.07532 -1.15215 0
M  V30 12268 C 1181.91 2.18222 -0.861192 0
M  V30 12269 C 1182.93 1.73246 0.161798 0
M  V30 12270 O 1184.1 2.01397 -0.0118386 0
M  V30 12271 C 1181.17 3.44902 -0.352601 0
M  V30 12272 C 1180.23 4.04455 -1.43926 0
M  V30 12273 C 1179.46 5.25089 -0.954841 0
M  V30 12274 O 1179.69 5.70048 0.200294 0
M  V30 12275 O 1178.62 5.76269 -1.73774 0
M  V30 12276 H 1182.45 2.45599 -1.78648 0
M  V30 12277 H 1180.03 1.16835 -0.93112 0
M  V30 12278 H 1181.91 4.21333 -0.0753347 0
M  V30 12279 H 1180.59 3.19082 0.544841 0
M  V30 12280 H 1179.49 3.29573 -1.7701 0
M  V30 12281 H 1180.83 4.34544 -2.31155 0
M  V30 12282 N 1182.48 0.948665 1.2585 0
M  V30 12283 C 1183.76 0.517832 1.88621 0
M  V30 12284 C 1184.14 -1.00477 1.85654 0
M  V30 12285 O 1183.49 -1.868 1.31598 0
M  V30 12286 C 1183.7 1.08768 3.31618 0
M  V30 12287 C 1185.04 1.16089 4.08422 0
M  V30 12288 O 1186.07 1.0388 3.40716 0
M  V30 12289 O 1184.93 1.35172 5.29519 0
M  V30 12290 H 1182.02 0.169916 0.809356 0
M  V30 12291 H 1184.57 1.04171 1.33964 0
M  V30 12292 H 1183.34 2.13109 3.28177 0
M  V30 12293 H 1182.96 0.54669 3.93824 0
M  V30 12294 N 1183.96 -1.40369 0.716545 0
M  V30 12295 C 1185.2 -2.01167 0.256846 0
M  V30 12296 C 1185.54 -1.56689 -1.14727 0
M  V30 12297 O 1184.81 -0.787384 -1.7785 0
M  V30 12298 C 1185.1 -3.58511 0.337963 0
M  V30 12299 C 1184.95 -4.13059 1.78052 0
M  V30 12300 C 1186.27 -4.39142 -0.290295 0
M  V30 12301 H 1183.39 -0.730877 0.0948028 0
M  V30 12302 H 1186.03 -1.66833 0.909225 0
M  V30 12303 H 1184.18 -3.87891 -0.217482 0
M  V30 12304 H 1185.85 -3.94472 2.39143 0
M  V30 12305 H 1184.09 -3.67311 2.30793 0
M  V30 12306 H 1184.76 -5.22217 1.78867 0
M  V30 12307 H 1187.24 -4.15697 0.182987 0
M  V30 12308 H 1186.12 -5.48524 -0.203097 0
M  V30 12309 H 1186.38 -4.20209 -1.37394 0
M  V30 12310 N 1185.44 -0.462799 -1.50652 0
M  V30 12311 C 1186.68 0.0948568 -2.01877 0
M  V30 12312 C 1187.01 1.4096 -1.34741 0
M  V30 12313 O 1186.28 1.89671 -0.49006 0
M  V30 12314 H 1184.86 0.0380453 -0.746031 0
M  V30 12315 H 1187.52 -0.611327 -1.85064 0
M  V30 12316 H 1186.61 0.252378 -3.11078 0
M  V30 12317 N 1186.91 1.56388 -0.195085 0
M  V30 12318 C 1188.33 1.8398 0.317513 0
M  V30 12319 C 1188.68 1.11575 1.61386 0
M  V30 12320 O 1187.8 0.376557 2.13099 0
M  V30 12321 C 1188.4 3.33749 0.582859 0
M  V30 12322 C 1186.96 3.61752 1.03983 0
M  V30 12323 C 1186.1 2.77159 0.088434 0
M  V30 12324 H 1189.05 1.53072 -0.418871 0
M  V30 12325 H 1189.07 3.52519 1.43216 0
M  V30 12326 H 1188.59 3.86419 -0.360813 0
M  V30 12327 H 1186.69 3.14515 1.99778 0
M  V30 12328 H 1186.8 4.69937 0.932549 0
M  V30 12329 H 1185.16 2.47765 0.590317 0
M  V30 12330 H 1185.95 3.32619 -0.849682 0
M  V30 12331 N 1188.39 -0.0785156 1.57404 0
M  V30 12332 C 1189.64 -0.780092 1.87196 0
M  V30 12333 C 1189.97 -1.77562 0.78647 0
M  V30 12334 O 1189.25 -1.93428 -0.203935 0
M  V30 12335 C 1189.53 -1.49408 3.27642 0
M  V30 12336 C 1189.38 -0.515416 4.46837 0
M  V30 12337 C 1190.7 -2.44064 3.66225 0
M  V30 12338 H 1187.82 -0.282134 0.680859 0
M  V30 12339 H 1190.46 -0.0433926 1.8995 0
M  V30 12340 H 1188.61 -2.12205 3.25425 0
M  V30 12341 H 1190.28 0.106827 4.61176 0
M  V30 12342 H 1188.53 0.169832 4.33467 0
M  V30 12343 H 1189.2 -1.05247 5.41874 0
M  V30 12344 H 1191.67 -1.91349 3.69493 0
M  V30 12345 H 1190.55 -2.91029 4.65396 0
M  V30 12346 H 1190.81 -3.28569 2.95796 0
M  V30 12347 N 1189.87 -1.5367 -0.349747 0
M  V30 12348 C 1191.12 -1.7087 -1.0923 0
M  V30 12349 C 1191.45 -0.467299 -1.88494 0
M  V30 12350 O 1190.72 0.535619 -1.8698 0
M  V30 12351 C 1191.01 -2.9684 -2.03858 0
M  V30 12352 C 1190.86 -4.31174 -1.28097 0
M  V30 12353 C 1192.18 -3.18459 -3.03763 0
M  V30 12354 H 1189.3 -0.621757 -0.395711 0
M  V30 12355 H 1191.94 -1.86333 -0.371481 0
M  V30 12356 H 1190.09 -2.83788 -2.65323 0
M  V30 12357 H 1191.76 -4.56066 -0.692933 0
M  V30 12358 H 1190.01 -4.29866 -0.582924 0
M  V30 12359 H 1190.68 -5.15482 -1.9744 0
M  V30 12360 H 1193.15 -3.30801 -2.52409 0
M  V30 12361 H 1192.03 -4.08006 -3.67182 0
M  V30 12362 H 1192.29 -2.34467 -3.74803 0
M  V30 12363 N 1191.35 0.610423 -1.45298 0
M  V30 12364 C 1192.28 1.73507 -1.4976 0
M  V30 12365 C 1193.29 1.58092 -0.38867 0
M  V30 12366 O 1194.48 1.66026 -0.655571 0
M  V30 12367 C 1191.58 3.11475 -1.33554 0
M  V30 12368 C 1190.76 3.53156 -2.5807 0
M  V30 12369 C 1189.81 4.70076 -2.36463 0
M  V30 12370 O 1188.84 4.77337 -3.10061 0
M  V30 12371 N 1190.04 5.63155 -1.40843 0
M  V30 12372 H 1192.81 1.70144 -2.46721 0
M  V30 12373 H 1190.37 0.79562 -1.41002 0
M  V30 12374 H 1192.36 3.87444 -1.16914 0
M  V30 12375 H 1190.93 3.09361 -0.448803 0
M  V30 12376 H 1190.15 2.67178 -2.89844 0
M  V30 12377 H 1191.44 3.77761 -3.40843 0
M  V30 12378 H 1190.84 5.60001 -0.800982 0
M  V30 12379 H 1189.39 6.38669 -1.30175 0
M  V30 12380 N 1192.83 1.32541 0.852676 0
M  V30 12381 C 1193.78 1.18224 1.94954 0
M  V30 12382 C 1194.76 0.0886514 1.60656 0
M  V30 12383 O 1195.95 0.315359 1.74168 0
M  V30 12384 C 1193.08 0.909484 3.31034 0
M  V30 12385 C 1192.17 2.04486 3.71546 0
M  V30 12386 N 1192.56 3.29362 3.83868 0
M  V30 12387 C 1190.86 1.94848 4.01186 0
M  V30 12388 C 1191.56 4.0374 4.18771 0
M  V30 12389 N 1190.53 3.32054 4.30396 0
M  V30 12390 H 1194.34 2.12893 2.02617 0
M  V30 12391 H 1191.85 1.24349 1.04456 0
M  V30 12392 H 1193.85 0.787865 4.09388 0
M  V30 12393 H 1192.51 -0.0288163 3.24687 0
M  V30 12394 H 1193.52 3.64274 3.68137 0
M  V30 12395 H 1190.19 1.08591 4.0313 0
M  V30 12396 H 1191.58 5.11434 4.35757 0
M  V30 12397 N 1194.3 -1.0692 1.15784 0
M  V30 12398 C 1195.55 -1.78983 0.929944 0
M  V30 12399 C 1195.87 -1.87884 -0.543969 0
M  V30 12400 O 1197.07 -2.56513 -0.889578 0
M  V30 12401 C 1195.53 -3.21657 1.61446 0
M  V30 12402 C 1195.14 -3.20943 3.12569 0
M  V30 12403 C 1196.88 -3.98299 1.46828 0
M  V30 12404 C 1194.79 -4.58298 3.73788 0
M  V30 12405 H 1193.72 -0.670809 0.344284 0
M  V30 12406 H 1196.37 -1.19975 1.38846 0
M  V30 12407 H 1194.75 -3.80885 1.08364 0
M  V30 12408 H 1195.92 -2.71334 3.72444 0
M  V30 12409 H 1194.24 -2.57799 3.26999 0
M  V30 12410 H 1196.84 -4.99822 1.89952 0
M  V30 12411 H 1197.18 -4.14213 0.416358 0
M  V30 12412 H 1197.71 -3.45577 1.97031 0
M  V30 12413 H 1194.45 -4.47588 4.789 0
M  V30 12414 H 1193.97 -5.08126 3.18698 0
M  V30 12415 H 1195.65 -5.27262 3.74972 0
M  V30 12416 N 1195.78 -0.955326 -1.25345 0
M  V30 12417 C 1197.01 -0.626783 -1.96863 0
M  V30 12418 C 1197.42 0.80547 -1.71198 0
M  V30 12419 O 1196.76 1.55049 -0.985163 0
M  V30 12420 C 1196.83 -0.806404 -3.50339 0
M  V30 12421 C 1196.49 -2.21595 -3.99681 0
M  V30 12422 C 1197.49 -3.19268 -4.10322 0
M  V30 12423 C 1195.17 -2.54032 -4.33328 0
M  V30 12424 C 1197.17 -4.47471 -4.53926 0
M  V30 12425 C 1194.85 -3.82465 -4.76617 0
M  V30 12426 C 1195.85 -4.78997 -4.86879 0
M  V30 12427 O 1195.54 -6.0514 -5.29208 0
M  V30 12428 H 1195.27 -0.233854 -0.634262 0
M  V30 12429 H 1197.82 -1.28232 -1.60455 0
M  V30 12430 H 1196.05 -0.0937184 -3.86586 0
M  V30 12431 H 1197.74 -0.47881 -4.03066 0
M  V30 12432 H 1198.51 -2.95534 -3.84558 0
M  V30 12433 H 1194.39 -1.79623 -4.24566 0
M  V30 12434 H 1197.93 -5.22819 -4.6185 0
M  V30 12435 H 1193.83 -4.06005 -5.01827 0
M  V30 12436 H 1194.6 -6.08527 -5.47392 0
M  V30 12437 N 1197.26 1.39987 -0.723979 0
M  V30 12438 C 1198.17 2.3447 -0.0780936 0
M  V30 12439 C 1199.19 1.57744 0.734368 0
M  V30 12440 O 1200.36 1.90091 0.665385 0
M  V30 12441 C 1197.43 3.36705 0.826492 0
M  V30 12442 C 1196.49 4.293 0.00303036 0
M  V30 12443 C 1195.72 5.26651 0.864535 0
M  V30 12444 O 1195.95 5.30194 2.10357 0
M  V30 12445 O 1194.88 6.01157 0.299057 0
M  V30 12446 H 1198.71 2.91338 -0.857646 0
M  V30 12447 H 1196.29 1.41324 -0.484536 0
M  V30 12448 H 1198.17 3.9938 1.34439 0
M  V30 12449 H 1196.85 2.82237 1.58505 0
M  V30 12450 H 1195.75 3.69883 -0.560136 0
M  V30 12451 H 1197.09 4.86942 -0.717494 0
M  V30 12452 N 1198.74 0.470782 1.50404 0
M  V30 12453 C 1199.67 -0.313458 2.31386 0
M  V30 12454 C 1200.65 -0.990623 1.38278 0
M  V30 12455 O 1201.84 -0.987854 1.67198 0
M  V30 12456 C 1198.97 -1.39599 3.18009 0
M  V30 12457 C 1197.92 -0.840443 4.19667 0
M  V30 12458 C 1197.25 -2.02124 4.95025 0
M  V30 12459 C 1198.55 0.148055 5.2209 0
M  V30 12460 H 1200.24 0.362432 2.97198 0
M  V30 12461 H 1197.79 0.175745 1.42924 0
M  V30 12462 H 1199.74 -1.9521 3.73458 0
M  V30 12463 H 1198.46 -2.10064 2.50081 0
M  V30 12464 H 1197.12 -0.306302 3.65318 0
M  V30 12465 H 1196.77 -2.71286 4.23571 0
M  V30 12466 H 1196.47 -1.65574 5.6379 0
M  V30 12467 H 1197.99 -2.58226 5.5331 0
M  V30 12468 H 1199.41 -0.318874 5.72413 0
M  V30 12469 H 1197.8 0.427811 5.98573 0
M  V30 12470 H 1198.87 1.07404 4.72855 0
M  V30 12471 N 1200.22 -1.56282 0.203376 0
M  V30 12472 C 1201.63 -1.58871 -0.152335 0
M  V30 12473 C 1201.83 -1.21978 -1.60386 0
M  V30 12474 O 1200.89 -0.946422 -2.34092 0
M  V30 12475 C 1202.2 -3.00287 0.157515 0
M  V30 12476 C 1203.75 -3.12846 0.098287 0
M  V30 12477 C 1204.23 -4.56408 0.38156 0
M  V30 12478 N 1205.72 -4.6202 0.330475 0
M  V30 12479 C 1206.45 -5.71006 0.523397 0
M  V30 12480 N 1205.95 -6.88428 0.777115 0
M  V30 12481 N 1207.74 -5.60238 0.457082 0
M  V30 12482 H 1199.89 -1.78543 1.15048 0
M  V30 12483 H 1202.15 -0.829019 0.459816 0
M  V30 12484 H 1201.86 -3.3187 1.16427 0
M  V30 12485 H 1201.73 -3.73372 -0.536041 0
M  V30 12486 H 1204.12 -2.8107 -0.899085 0
M  V30 12487 H 1204.2 -2.42129 0.825045 0
M  V30 12488 H 1203.85 -4.88897 1.37629 0
M  V30 12489 H 1203.78 -5.25325 -0.366182 0
M  V30 12490 H 1206.27 -3.77636 0.141327 0
M  V30 12491 H 1206.58 -7.67389 0.912911 0
M  V30 12492 H 1204.93 -6.90215 0.814104 0
M  V30 12493 H 1208.12 -4.67382 0.259226 0
M  V30 12494 H 1208.29 -6.45114 0.610848 0
M  V30 12495 N 1201.7 0.070167 -1.57444 0
M  V30 12496 C 1202.64 1.10193 -2.04842 0
M  V30 12497 C 1203.64 1.39978 -0.954069 0
M  V30 12498 O 1204.84 1.39366 -1.13917 0
M  V30 12499 H 1201.22 0.372699 -0.653146 0
M  V30 12500 H 1203.19 0.676033 -2.90641 0
M  V30 12501 C 1201.94 2.40679 -2.50936 0
M  V30 12502 H 1201.26 2.1861 -3.34738 0
M  V30 12503 H 1202.7 3.11315 -2.87852 0
M  V30 12504 C 1201.16 3.06754 -1.39297 0
M  V30 12505 O 1201.69 3.949 -0.735989 0
M  V30 12506 N 1199.9 2.67404 -1.13769 0
M  V30 12507 H 1199.44 1.95813 -1.67376 0
M  V30 12508 H 1199.4 3.11937 -0.392787 0
M  V30 12509 N 1203.17 1.53854 0.341593 0
M  V30 12510 C 1204.12 1.8268 1.43982 0
M  V30 12511 C 1205.12 0.697415 1.54378 0
M  V30 12512 O 1206.32 0.880785 1.56978 0
M  V30 12513 H 1202.7 0.578788 0.480113 0
M  V30 12514 H 1204.67 2.74556 1.16884 0
M  V30 12515 C 1203.42 2.05496 2.80476 0
M  V30 12516 H 1202.74 2.91852 2.73244 0
M  V30 12517 H 1204.18 2.2963 3.56435 0
M  V30 12518 C 1202.64 0.841061 3.26233 0
M  V30 12519 O 1203.17 0.0414376 4.01679 0
M  V30 12520 N 1201.37 0.657736 2.83059 0
M  V30 12521 H 1200.92 1.30962 2.21826 0
M  V30 12522 H 1200.88 -0.153003 3.14027 0
M  V30 12523 N 1204.65 -0.602709 1.4562 0
M  V30 12524 C 1205.9 -1.35889 1.49595 0
M  V30 12525 C 1206.22 -1.9449 0.141002 0
M  V30 12526 O 1205.49 -1.77438 -0.830209 0
M  V30 12527 H 1204.07 -0.504478 0.550918 0
M  V30 12528 H 1206.73 -0.707376 1.8161 0
M  V30 12529 H 1205.83 -2.17583 2.2375 0
M  V30 12530 N 1206.13 -1.32992 -0.845635 0
M  V30 12531 C 1207.54 -1.21616 -1.41656 0
M  V30 12532 C 1207.89 0.167687 -1.95482 0
M  V30 12533 O 1207.02 1.06692 -1.8827 0
M  V30 12534 C 1207.61 -2.2018 -2.575 0
M  V30 12535 C 1206.17 -2.12664 -3.10565 0
M  V30 12536 C 1205.32 -2.08042 -1.83341 0
M  V30 12537 H 1208.27 -1.44688 -0.651993 0
M  V30 12538 H 1208.29 -1.80558 -3.34931 0
M  V30 12539 H 1207.8 -3.20888 -2.18294 0
M  V30 12540 H 1205.9 -1.15235 -3.54333 0
M  V30 12541 H 1206.02 -3.02902 -3.71197 0
M  V30 12542 H 1204.38 -1.53416 -2.03312 0
M  V30 12543 H 1205.16 -3.10547 -1.46339 0
M  V30 12544 N 1207.61 1.06304 -1.1635 0
M  V30 12545 C 1208.83 1.83338 -0.969639 0
M  V30 12546 C 1209.26 1.81945 0.477231 0
M  V30 12547 O 1208.62 1.22018 1.34094 0
M  V30 12548 C 1208.66 3.2785 -1.50155 0
M  V30 12549 O 1207.77 4.06281 -0.707805 0
M  V30 12550 H 1207.11 0.567293 -0.345072 0
M  V30 12551 H 1209.64 1.34033 -1.54584 0
M  V30 12552 H 1209.65 3.7867 -1.51898 0
M  V30 12553 H 1208.32 3.28179 -2.55483 0
M  V30 12554 H 1206.9 3.65055 -0.760872 0
M  V30 12555 N 1209.09 0.96196 1.24836 0
M  V30 12556 C 1210.31 0.637709 1.97353 0
M  V30 12557 C 1210.74 -0.784919 1.7094 0
M  V30 12558 O 1210.09 -1.53188 0.969694 0
M  V30 12559 C 1210.14 0.911485 3.4889 0
M  V30 12560 O 1209.25 -0.00601668 4.124 0
M  V30 12561 H 1208.59 0.241685 0.618453 0
M  V30 12562 H 1211.12 1.29055 1.58764 0
M  V30 12563 H 1211.13 0.840702 3.99245 0
M  V30 12564 H 1209.8 1.9483 3.67442 0
M  V30 12565 H 1208.38 0.117597 3.72715 0
M  V30 12566 N 1210.56 -1.39601 0.731392 0
M  V30 12567 C 1211.81 -2.00586 0.277756 0
M  V30 12568 C 1212.14 -1.58027 -1.13391 0
M  V30 12569 O 1211.39 -0.798691 -1.7866 0
M  V30 12570 C 1211.69 -3.55934 0.323352 0
M  V30 12571 C 1211.36 -4.18131 1.68753 0
M  V30 12572 C 1210.02 -4.34833 2.06092 0
M  V30 12573 C 1212.37 -4.5267 2.58339 0
M  V30 12574 C 1209.7 -4.83362 3.32532 0
M  V30 12575 C 1212.05 -5.02607 3.84148 0
M  V30 12576 C 1210.72 -5.17517 4.21584 0
M  V30 12577 H 1209.99 -0.733996 0.101638 0
M  V30 12578 H 1212.63 -1.66981 0.937528 0
M  V30 12579 H 1210.94 -3.89542 -0.419995 0
M  V30 12580 H 1212.64 -4.00974 -0.0457235 0
M  V30 12581 H 1209.23 -4.0553 1.38722 0
M  V30 12582 H 1213.41 -4.39388 2.30763 0
M  V30 12583 H 1208.67 -4.93091 3.61485 0
M  V30 12584 H 1212.84 -5.28306 4.53724 0
M  V30 12585 H 1210.47 -5.54882 5.19625 0
M  V30 12586 N 1212.04 -0.478751 -1.50152 0
M  V30 12587 C 1213.27 0.0732929 -2.0727 0
M  V30 12588 C 1213.69 1.32066 -1.33941 0
M  V30 12589 O 1213.05 1.7707 -0.389367 0
M  V30 12590 C 1213.1 0.332528 -3.59064 0
M  V30 12591 O 1212.2 1.41158 -3.8749 0
M  V30 12592 H 1211.54 -0.0163684 -0.663798 0
M  V30 12593 H 1214.07 -0.671993 -1.9325 0
M  V30 12594 H 1214.08 0.570735 -4.03988 0
M  V30 12595 H 1212.76 -0.578934 -4.11851 0
M  V30 12596 H 1211.34 1.16008 -3.54396 0
M  V30 12597 N 1213.52 1.56172 -0.211661 0
M  V30 12598 C 1214.47 2.19849 0.702515 0
M  V30 12599 C 1215.44 1.15091 1.19763 0
M  V30 12600 O 1216.62 1.43408 1.25852 0
M  V30 12601 C 1213.76 2.87468 1.90935 0
M  V30 12602 C 1212.88 4.06794 1.45406 0
M  V30 12603 C 1212.01 4.62224 2.61769 0
M  V30 12604 C 1211.05 5.73872 2.12926 0
M  V30 12605 N 1210.19 6.23635 3.22526 0
M  V30 12606 H 1215.03 2.97608 0.152777 0
M  V30 12607 H 1212.56 1.46962 0.0636596 0
M  V30 12608 H 1214.52 3.24851 2.61777 0
M  V30 12609 H 1213.15 2.12244 2.43213 0
M  V30 12610 H 1212.2 3.74962 0.640907 0
M  V30 12611 H 1213.52 4.87497 1.05584 0
M  V30 12612 H 1212.67 5.01999 3.40709 0
M  V30 12613 H 1211.41 3.80662 3.04873 0
M  V30 12614 H 1210.41 5.33609 1.32445 0
M  V30 12615 H 1211.64 6.57262 1.70833 0
M  V30 12616 H 1209.58 5.44991 3.65131 0
M  V30 12617 H 1209.5 6.99435 2.86926 0
M  V30 12618 H 1210.77 6.68066 4.01631 0
M  V30 12619 N 1215 -0.0618163 1.57479 0
M  V30 12620 C 1215.96 -1.05684 2.0338 0
M  V30 12621 C 1216.96 -1.31006 0.932423 0
M  V30 12622 O 1218.15 -1.26559 1.19702 0
M  V30 12623 C 1215.28 -2.39805 2.42294 0
M  V30 12624 H 1216.48 -0.661006 2.92525 0
M  V30 12625 H 1214.03 -0.307814 1.53239 0
M  V30 12626 H 1214.76 -2.84201 1.56207 0
M  V30 12627 H 1214.55 -2.22764 3.22674 0
M  V30 12628 H 1216.04 -3.11307 2.78349 0
M  V30 12629 N 1216.48 -1.54033 -0.333429 0
M  V30 12630 C 1217.41 -1.7756 -1.43345 0
M  V30 12631 C 1218.39 -0.625126 -1.50103 0
M  V30 12632 O 1219.57 -0.861444 -1.67665 0
M  V30 12633 C 1216.7 -1.88332 -2.81511 0
M  V30 12634 C 1215.74 -3.10556 -2.92331 0
M  V30 12635 S 1216.58 -4.69385 -2.57755 0
M  V30 12636 C 1217.73 -4.8305 -3.98011 0
M  V30 12637 H 1217.97 -2.70584 -1.23172 0
M  V30 12638 H 1215.5 -1.4503 -0.529691 0
M  V30 12639 H 1217.46 -1.95224 -3.61106 0
M  V30 12640 H 1216.12 -0.963031 -2.98972 0
M  V30 12641 H 1215.31 -3.14798 -3.93596 0
M  V30 12642 H 1214.91 -3.01943 -2.20696 0
M  V30 12643 H 1217.21 -4.65081 -4.92652 0
M  V30 12644 H 1218.15 -5.85148 -3.98757 0
M  V30 12645 H 1218.56 -4.11427 -3.86507 0
M  V30 12646 N 1217.95 0.594978 -1.45938 0
M  V30 12647 C 1218.88 1.71536 -1.58422 0
M  V30 12648 C 1219.87 1.64441 -0.435116 0
M  V30 12649 O 1221.05 1.82647 -0.659839 0
M  V30 12650 C 1218.18 3.10163 -1.56257 0
M  V30 12651 C 1217.13 3.3208 -2.70013 0
M  V30 12652 C 1216.46 4.71108 -2.52905 0
M  V30 12653 C 1217.76 3.21105 -4.11933 0
M  V30 12654 H 1219.45 1.61344 -2.52207 0
M  V30 12655 H 1217 0.774791 -1.2138 0
M  V30 12656 H 1218.95 3.88352 -1.63587 0
M  V30 12657 H 1217.68 3.21225 -0.590093 0
M  V30 12658 H 1216.34 2.56286 -2.62132 0
M  V30 12659 H 1215.98 4.7892 -1.53768 0
M  V30 12660 H 1215.68 4.86727 -3.29197 0
M  V30 12661 H 1217.21 5.51482 -2.62107 0
M  V30 12662 H 1218.62 3.89153 -4.2099 0
M  V30 12663 H 1217.02 3.4825 -4.88715 0
M  V30 12664 H 1218.09 2.18359 -4.32952 0
M  V30 12665 N 1219.43 1.33438 0.838571 0
M  V30 12666 C 1220.38 1.20285 1.93689 0
M  V30 12667 C 1221.37 0.105686 1.60553 0
M  V30 12668 O 1222.56 0.333814 1.73824 0
M  V30 12669 C 1219.69 0.944544 3.3005 0
M  V30 12670 C 1218.77 2.08416 3.69356 0
M  V30 12671 N 1219.16 3.33415 3.80353 0
M  V30 12672 C 1217.46 1.99092 3.99097 0
M  V30 12673 C 1218.16 4.08159 4.14465 0
M  V30 12674 N 1217.14 3.36601 4.2685 0
M  V30 12675 H 1220.94 2.1503 2.00348 0
M  V30 12676 H 1218.46 1.2545 1.03131 0
M  V30 12677 H 1220.45 0.831242 4.08529 0
M  V30 12678 H 1219.11 0.00562273 3.247 0
M  V30 12679 H 1220.12 3.68159 3.64252 0
M  V30 12680 H 1216.8 1.12861 4.01956 0
M  V30 12681 H 1218.19 5.16027 4.30308 0
M  V30 12682 N 1220.91 -1.05686 1.16912 0
M  V30 12683 C 1221.84 -2.15268 0.904532 0
M  V30 12684 C 1222.82 -1.69424 -0.151548 0
M  V30 12685 O 1224.01 -1.942 -0.00235371 0
M  V30 12686 C 1221.14 -3.44853 0.411581 0
M  V30 12687 C 1220.09 -4.04237 1.40628 0
M  V30 12688 C 1219.42 -5.29105 0.771479 0
M  V30 12689 C 1220.72 -4.42303 2.77787 0
M  V30 12690 H 1222.41 -2.37659 1.82094 0
M  V30 12691 H 1219.96 -1.14217 0.876947 0
M  V30 12692 H 1221.91 -4.20857 0.213929 0
M  V30 12693 H 1220.63 -3.22099 -0.540352 0
M  V30 12694 H 1219.29 -3.30297 1.59058 0
M  V30 12695 H 1218.94 -5.02652 -0.187133 0
M  V30 12696 H 1218.64 -5.69797 1.43545 0
M  V30 12697 H 1220.16 -6.07801 0.583988 0
M  V30 12698 H 1221.58 -5.09362 2.63103 0
M  V30 12699 H 1219.98 -4.93997 3.40716 0
M  V30 12700 H 1221.05 -3.52877 3.32575 0
M  V30 12701 N 1222.39 -0.968567 -1.24324 0
M  V30 12702 C 1223.32 -0.457247 -2.24593 0
M  V30 12703 C 1224.33 0.434483 -1.56895 0
M  V30 12704 O 1225.52 0.240519 -1.76872 0
M  V30 12705 C 1222.62 0.359086 -3.36992 0
M  V30 12706 C 1221.8 -0.522945 -4.34263 0
M  V30 12707 C 1220.85 0.237528 -5.25664 0
M  V30 12708 O 1219.88 -0.368835 -5.68004 0
M  V30 12709 N 1221.08 1.52686 -5.6006 0
M  V30 12710 H 1223.85 -1.31934 -2.69098 0
M  V30 12711 H 1221.41 -0.840488 -1.38374 0
M  V30 12712 H 1223.4 0.87589 -3.95108 0
M  V30 12713 H 1221.97 1.12212 -2.91766 0
M  V30 12714 H 1221.19 -1.22071 -3.74823 0
M  V30 12715 H 1222.48 -1.12447 -4.96219 0
M  V30 12716 H 1221.88 2.0412 -5.2759 0
M  V30 12717 H 1220.43 1.98934 -6.207 0
M  V30 12718 N 1223.87 1.39211 -0.738786 0
M  V30 12719 C 1225.11 2.01209 -0.297722 0
M  V30 12720 C 1225.47 1.57579 1.10393 0
M  V30 12721 O 1224.76 0.796454 1.74262 0
M  V30 12722 C 1224.95 3.55758 -0.342224 0
M  V30 12723 C 1224.78 4.14393 -1.74666 0
M  V30 12724 C 1223.55 4.46814 -2.35978 0
M  V30 12725 C 1225.75 4.37672 -2.70089 0
M  V30 12726 N 1223.73 4.90973 -3.68536 0
M  V30 12727 C 1225.1 4.84077 -3.87388 0
M  V30 12728 C 1227.16 4.19746 -2.67802 0
M  V30 12729 C 1225.86 5.14436 -5.02741 0
M  V30 12730 C 1227.89 4.51221 -3.82301 0
M  V30 12731 C 1227.25 4.97836 -4.98336 0
M  V30 12732 H 1223.35 0.766427 -0.155283 0
M  V30 12733 H 1225.93 1.69071 -0.965568 0
M  V30 12734 H 1224.1 3.87276 0.295285 0
M  V30 12735 H 1225.84 4.04529 0.117748 0
M  V30 12736 H 1222.59 4.34744 -1.87869 0
M  V30 12737 H 1223.02 5.17405 -4.36602 0
M  V30 12738 H 1227.66 3.82906 -1.79284 0
M  V30 12739 H 1225.38 5.50179 -5.91886 0
M  V30 12740 H 1228.96 4.3897 -3.81834 0
M  V30 12741 H 1227.84 5.21728 -5.85465 0
M  V30 12742 N 1225.34 0.486708 1.49896 0
M  V30 12743 C 1226.76 0.0353906 1.86666 0
M  V30 12744 C 1227.11 -1.3743 1.40026 0
M  V30 12745 O 1226.23 -2.02163 0.77194 0
M  V30 12746 C 1226.83 0.0574475 3.38751 0
M  V30 12747 C 1225.39 -0.338464 3.74875 0
M  V30 12748 C 1224.53 0.436196 2.73848 0
M  V30 12749 H 1227.48 0.700215 1.42417 0
M  V30 12750 H 1227.5 -0.741175 3.73212 0
M  V30 12751 H 1227.02 1.08356 3.72667 0
M  V30 12752 H 1225.12 -1.36835 3.46565 0
M  V30 12753 H 1225.23 -0.0289519 4.79091 0
M  V30 12754 H 1223.59 -0.112141 2.54453 0
M  V30 12755 H 1224.38 1.46212 3.10608 0
M  V30 12756 N 1226.82 -1.56058 0.219941 0
M  V30 12757 C 1228.05 -2.02358 -0.416497 0
M  V30 12758 C 1228.46 -1.09903 -1.54007 0
M  V30 12759 O 1227.8 -0.100635 -1.83424 0
M  V30 12760 C 1227.87 -3.45 -1.01072 0
M  V30 12761 C 1227.53 -4.56994 -0.0227891 0
M  V30 12762 C 1228.53 -5.14061 0.776997 0
M  V30 12763 C 1226.21 -5.02209 0.0954981 0
M  V30 12764 C 1228.21 -6.14813 1.68179 0
M  V30 12765 C 1225.89 -6.02799 1.00383 0
M  V30 12766 C 1226.89 -6.58977 1.79552 0
M  V30 12767 O 1226.58 -7.57608 2.68858 0
M  V30 12768 H 1226.31 -0.667581 -0.106355 0
M  V30 12769 H 1228.87 -2.02677 0.333348 0
M  V30 12770 H 1227.1 -3.41745 -1.80962 0
M  V30 12771 H 1228.78 -3.74958 -1.55439 0
M  V30 12772 H 1229.55 -4.79979 0.696053 0
M  V30 12773 H 1225.43 -4.58164 -0.510599 0
M  V30 12774 H 1228.97 -6.58588 2.30017 0
M  V30 12775 H 1224.87 -6.36302 1.08579 0
M  V30 12776 H 1225.64 -7.75124 2.62915 0
M  V30 12777 N 1228.3 0.053464 -1.57509 0
M  V30 12778 C 1229.25 1.06155 -2.04939 0
M  V30 12779 C 1230.22 1.37382 -0.93357 0
M  V30 12780 O 1231.4 1.48137 -1.2025 0
M  V30 12781 C 1228.54 2.36476 -2.51343 0
M  V30 12782 C 1227.66 2.1162 -3.76618 0
M  V30 12783 C 1226.79 3.35636 -4.11731 0
M  V30 12784 C 1225.83 3.06226 -5.29993 0
M  V30 12785 N 1224.97 4.22623 -5.60655 0
M  V30 12786 H 1229.81 0.650122 -2.90822 0
M  V30 12787 H 1227.34 0.309421 -1.43809 0
M  V30 12788 H 1229.3 3.12588 -2.76306 0
M  V30 12789 H 1227.93 2.75386 -1.68411 0
M  V30 12790 H 1226.98 1.26116 -3.58886 0
M  V30 12791 H 1228.3 1.85909 -4.6286 0
M  V30 12792 H 1227.45 4.20132 -4.37692 0
M  V30 12793 H 1226.19 3.64439 -3.24092 0
M  V30 12794 H 1225.19 2.20128 -5.03809 0
M  V30 12795 H 1226.42 2.78726 -6.19265 0
M  V30 12796 H 1224.37 4.51424 -4.75976 0
M  V30 12797 H 1224.28 4.0025 -6.41355 0
M  V30 12798 H 1225.55 5.08063 -5.91178 0
M  V30 12799 N 1229.78 1.54207 0.325255 0
M  V30 12800 C 1231.01 1.76037 1.08141 0
M  V30 12801 C 1231.42 0.50816 1.82248 0
M  V30 12802 O 1230.76 -0.530709 1.75867 0
M  V30 12803 C 1230.82 2.89876 2.12632 0
M  V30 12804 C 1230.49 4.28841 1.57937 0
M  V30 12805 C 1231.48 5.09755 1.02205 0
M  V30 12806 C 1229.17 4.7538 1.62232 0
M  V30 12807 C 1231.16 6.35317 0.514929 0
M  V30 12808 C 1228.85 6.0091 1.11132 0
M  V30 12809 C 1229.85 6.80712 0.558575 0
M  V30 12810 O 1229.54 8.03881 0.05526 0
M  V30 12811 H 1229.27 0.591332 0.327571 0
M  V30 12812 H 1231.82 2.019 0.377572 0
M  V30 12813 H 1230.05 2.59581 2.86627 0
M  V30 12814 H 1231.74 2.99505 2.73955 0
M  V30 12815 H 1232.51 4.74955 0.981954 0
M  V30 12816 H 1228.39 4.1331 2.04195 0
M  V30 12817 H 1231.93 6.97551 0.0828314 0
M  V30 12818 H 1227.83 6.35201 1.14848 0
M  V30 12819 H 1228.59 8.18322 0.170842 0
M  V30 12820 N 1231.26 -0.58723 1.46251 0
M  V30 12821 C 1232.21 -1.71771 1.56836 0
M  V30 12822 C 1233.2 -1.63664 0.437096 0
M  V30 12823 O 1234.41 -1.69212 0.613797 0
M  V30 12824 H 1230.78 -0.567841 0.493012 0
M  V30 12825 H 1232.75 -1.59974 2.51895 0
M  V30 12826 C 1231.5 -3.10159 1.57152 0
M  V30 12827 H 1230.82 -3.17066 2.43535 0
M  V30 12828 H 1232.26 -3.89032 1.68613 0
M  V30 12829 C 1230.72 -3.35567 0.299374 0
M  V30 12830 O 1231.25 -3.97006 -0.612291 0
M  V30 12831 N 1229.46 -2.89987 0.188695 0
M  V30 12832 H 1229.01 -2.4017 0.93147 0
M  V30 12833 H 1228.96 -3.0736 -0.661612 0
M  V30 12834 N 1232.74 -1.33881 -0.831482 0
M  V30 12835 C 1233.68 -1.24741 -1.96322 0
M  V30 12836 C 1234.68 -0.147251 -1.68759 0
M  V30 12837 O 1235.88 -0.311684 -1.77281 0
M  V30 12838 H 1232.26 -0.387298 -0.644596 0
M  V30 12839 H 1234.23 -2.20407 -2.01155 0
M  V30 12840 C 1232.98 -1.01102 -3.32677 0
M  V30 12841 H 1232.3 -1.84986 -3.54429 0
M  V30 12842 H 1233.74 -0.987398 -4.12343 0
M  V30 12843 C 1232.2 0.285903 -3.35685 0
M  V30 12844 O 1232.73 1.29014 -3.80419 0
M  V30 12845 N 1230.94 0.316026 -2.88877 0
M  V30 12846 H 1230.48 -0.501758 -2.52666 0
M  V30 12847 H 1230.44 1.18357 -2.91271 0
M  V30 12848 N 1234.21 1.05064 -1.1747 0
M  V30 12849 C 1235.16 2.14948 -0.888815 0
M  V30 12850 C 1236.16 1.68761 0.147038 0
M  V30 12851 O 1237.36 1.8 -0.000164278 0
M  V30 12852 H 1233.74 0.701898 -0.269894 0
M  V30 12853 H 1235.71 2.36265 -1.82268 0
M  V30 12854 C 1234.46 3.45154 -0.420006 0
M  V30 12855 H 1233.78 3.81096 -1.20854 0
M  V30 12856 H 1235.22 4.23209 -0.258866 0
M  V30 12857 C 1233.68 3.25671 0.862551 0
M  V30 12858 O 1234.21 3.5235 1.92906 0
M  V30 12859 N 1232.41 2.79048 0.81121 0
M  V30 12860 H 1231.96 2.57537 -0.0569025 0
M  V30 12861 H 1231.92 2.66392 1.66981 0
M  V30 12862 N 1235.69 0.975146 1.23809 0
M  V30 12863 C 1236.92 0.658978 1.96125 0
M  V30 12864 C 1237.33 -0.773044 1.72248 0
M  V30 12865 O 1236.69 -1.51956 1.01072 0
M  V30 12866 C 1236.74 0.933355 3.49243 0
M  V30 12867 O 1236.46 2.30909 3.72307 0
M  V30 12868 C 1237.96 0.632408 4.38766 0
M  V30 12869 H 1235.18 0.245237 0.62458 0
M  V30 12870 H 1237.73 1.3051 1.5744 0
M  V30 12871 H 1235.88 0.333323 3.85963 0
M  V30 12872 H 1236.3 2.39476 4.66638 0
M  V30 12873 H 1237.77 0.874791 5.45024 0
M  V30 12874 H 1238.25 -0.433453 4.37056 0
M  V30 12875 H 1238.85 1.21268 4.07645 0
M  V30 12876 N 1237.17 -1.38817 0.746158 0
M  V30 12877 C 1238.1 -2.33144 0.128836 0
M  V30 12878 C 1239.08 -1.54487 -0.711873 0
M  V30 12879 O 1240.27 -1.82836 -0.654577 0
M  V30 12880 C 1237.4 -3.38639 -0.770772 0
M  V30 12881 C 1236.35 -4.27987 -0.0333669 0
M  V30 12882 C 1235.68 -5.24274 -1.05073 0
M  V30 12883 C 1236.98 -5.09915 1.13066 0
M  V30 12884 H 1238.67 -2.85019 0.916778 0
M  V30 12885 H 1236.22 -1.37039 0.442306 0
M  V30 12886 H 1238.17 -4.03587 -1.21225 0
M  V30 12887 H 1236.89 -2.8523 -1.59095 0
M  V30 12888 H 1235.55 -3.64534 0.388612 0
M  V30 12889 H 1235.2 -4.67156 -1.86478 0
M  V30 12890 H 1234.9 -5.84906 -0.562037 0
M  V30 12891 H 1236.42 -5.92099 -1.49169 0
M  V30 12892 H 1237.84 -5.68145 0.767084 0
M  V30 12893 H 1236.23 -5.79744 1.54972 0
M  V30 12894 H 1237.3 -4.4409 1.94709 0
M  V30 12895 N 1238.65 -0.49465 -1.49636 0
M  V30 12896 C 1239.58 0.276606 -2.31856 0
M  V30 12897 C 1240.56 0.968499 -1.39836 0
M  V30 12898 O 1241.74 0.96113 -1.68748 0
M  V30 12899 C 1238.87 1.34522 -3.20189 0
M  V30 12900 C 1237.83 0.773571 -4.20951 0
M  V30 12901 C 1237.15 1.94223 -4.98178 0
M  V30 12902 C 1238.45 -0.231096 -5.21788 0
M  V30 12903 H 1240.15 -0.409668 -2.96584 0
M  V30 12904 H 1237.69 -0.198461 -1.42626 0
M  V30 12905 H 1239.65 1.89244 -3.76517 0
M  V30 12906 H 1238.37 2.06059 -2.53392 0
M  V30 12907 H 1237.03 0.248144 -3.65759 0
M  V30 12908 H 1236.68 2.64514 -4.27834 0
M  V30 12909 H 1236.38 1.56584 -5.66353 0
M  V30 12910 H 1237.9 2.49391 -5.57348 0
M  V30 12911 H 1239.32 0.227768 -5.72847 0
M  V30 12912 H 1237.71 -0.522984 -5.97817 0
M  V30 12913 H 1238.78 -1.14914 -4.71087 0
M  V30 12914 N 1240.13 1.55939 -0.228214 0
M  V30 12915 C 1241.36 2.02576 0.405759 0
M  V30 12916 C 1241.76 1.10718 1.53422 0
M  V30 12917 O 1241.11 0.110361 1.83368 0
M  V30 12918 C 1241.17 3.45531 0.992405 0
M  V30 12919 C 1240.83 4.57 -0.00144674 0
M  V30 12920 C 1241.83 5.13642 -0.804248 0
M  V30 12921 C 1239.51 5.02152 -0.12213 0
M  V30 12922 C 1241.51 6.13912 -1.71437 0
M  V30 12923 C 1239.2 6.02258 -1.03578 0
M  V30 12924 C 1240.19 6.58015 -1.83044 0
M  V30 12925 O 1239.88 7.56172 -2.72872 0
M  V30 12926 H 1239.61 0.668136 0.102813 0
M  V30 12927 H 1242.17 2.02497 -0.344092 0
M  V30 12928 H 1240.4 3.427 1.79147 0
M  V30 12929 H 1242.09 3.75777 1.53448 0
M  V30 12930 H 1242.85 4.79603 -0.721497 0
M  V30 12931 H 1238.73 4.58428 0.486294 0
M  V30 12932 H 1242.28 6.57359 -2.33506 0
M  V30 12933 H 1238.17 6.35718 -1.11952 0
M  V30 12934 H 1238.94 7.73719 -2.67022 0
M  V30 12935 N 1241.6 -0.0451101 1.57535 0
M  V30 12936 C 1242.85 -0.738072 1.87711 0
M  V30 12937 C 1243.17 -1.7737 0.824579 0
M  V30 12938 O 1244.37 -2.51812 1.01503 0
M  V30 12939 C 1242.83 -1.36373 3.33062 0
M  V30 12940 C 1242.44 -0.365283 4.46508 0
M  V30 12941 C 1244.18 -2.0375 3.72406 0
M  V30 12942 C 1242.09 -0.998371 5.82912 0
M  V30 12943 H 1241.02 -0.279413 0.700317 0
M  V30 12944 H 1243.67 0.00802425 1.83498 0
M  V30 12945 H 1242.05 -2.15899 3.31969 0
M  V30 12946 H 1243.22 0.402102 4.59042 0
M  V30 12947 H 1241.54 0.205505 4.15893 0
M  V30 12948 H 1244.14 -2.51939 4.71625 0
M  V30 12949 H 1244.48 -2.84869 3.03571 0
M  V30 12950 H 1245.01 -1.3102 3.75604 0
M  V30 12951 H 1241.75 -0.226935 6.55107 0
M  V30 12952 H 1241.27 -1.73598 5.74129 0
M  V30 12953 H 1242.95 -1.51044 6.29122 0
M  V30 12954 N 1243.08 -1.54377 -0.317073 0
M  V30 12955 C 1244.01 -1.8721 -1.39552 0
M  V30 12956 C 1244.99 -0.729483 -1.53664 0
M  V30 12957 O 1246.18 -0.983799 -1.67437 0
M  V30 12958 C 1243.31 -2.1052 -2.76222 0
M  V30 12959 C 1242.26 -3.26366 -2.76892 0
M  V30 12960 C 1241.59 -3.35061 -4.16699 0
M  V30 12961 C 1242.89 -4.63862 -2.40061 0
M  V30 12962 H 1244.58 -2.77532 -1.12323 0
M  V30 12963 H 1242.13 -1.33536 -0.538897 0
M  V30 12964 H 1244.08 -2.32073 -3.51739 0
M  V30 12965 H 1242.81 -1.16953 -3.04942 0
M  V30 12966 H 1241.46 -3.0471 -2.03831 0
M  V30 12967 H 1241.11 -2.39041 -4.4257 0
M  V30 12968 H 1240.81 -4.12923 -4.18053 0
M  V30 12969 H 1242.34 -3.58856 -4.94019 0
M  V30 12970 H 1243.75 -4.85252 -3.05292 0
M  V30 12971 H 1242.15 -5.44321 -2.52655 0
M  V30 12972 H 1243.22 -4.6567 -1.35202 0
M  V30 12973 N 1244.56 0.579466 -1.4656 0
M  V30 12974 C 1245.51 1.68327 -1.53785 0
M  V30 12975 C 1246.49 1.55887 -0.398512 0
M  V30 12976 O 1247.69 1.64746 -0.647119 0
M  V30 12977 C 1244.82 3.07113 -1.53416 0
M  V30 12978 C 1243.9 3.24839 -2.72655 0
M  V30 12979 N 1244.29 3.12711 -3.97549 0
M  V30 12980 C 1242.59 3.55786 -2.68947 0
M  V30 12981 C 1243.29 3.32528 -4.77284 0
M  V30 12982 N 1242.27 3.57834 -4.09214 0
M  V30 12983 H 1246.07 1.57486 -2.48144 0
M  V30 12984 H 1243.58 0.783591 -1.42245 0
M  V30 12985 H 1245.58 3.86338 -1.5668 0
M  V30 12986 H 1244.24 3.19083 -0.601365 0
M  V30 12987 H 1245.25 2.90508 -4.28749 0
M  V30 12988 H 1241.93 3.7442 -1.84705 0
M  V30 12989 H 1243.32 3.28308 -5.86228 0
M  V30 12990 N 1246.04 1.3432 0.824371 0
M  V30 12991 C 1247.27 1.29481 1.60992 0
M  V30 12992 C 1247.68 -0.133581 1.88728 0
M  V30 12993 O 1247.02 -1.09065 1.4782 0
M  V30 12994 C 1247.08 2.01604 2.97651 0
M  V30 12995 C 1246.75 3.50866 2.92817 0
M  V30 12996 C 1247.74 4.458 2.67504 0
M  V30 12997 C 1245.43 3.93258 3.12495 0
M  V30 12998 C 1247.42 5.81101 2.61918 0
M  V30 12999 C 1245.11 5.28659 3.06533 0
M  V30 13000 C 1246.11 6.22392 2.81278 0
M  V30 13001 O 1245.79 7.55311 2.75246 0
M  V30 13002 H 1245.53 0.446931 0.507177 0
M  V30 13003 H 1248.08 1.77484 1.03386 0
M  V30 13004 H 1246.31 1.48212 3.5717 0
M  V30 13005 H 1248 1.90073 3.58646 0
M  V30 13006 H 1248.77 4.1437 2.52037 0
M  V30 13007 H 1244.64 3.20699 3.31169 0
M  V30 13008 H 1248.19 6.54233 2.42125 0
M  V30 13009 H 1244.09 5.59709 3.21553 0
M  V30 13010 H 1244.85 7.6503 2.90984 0
M  V30 13011 N 1247.52 -1.0444 1.18026 0
M  V30 13012 C 1248.79 -1.74533 0.883045 0
M  V30 13013 C 1249.17 -2.01944 -0.614975 0
M  V30 13014 O 1248.52 -1.66158 -1.56855 0
M  V30 13015 C 1248.73 -3.0332 1.72621 0
M  V30 13016 C 1250.08 -3.77128 1.9509 0
M  V30 13017 O 1251.1 -3.13209 1.69643 0
M  V30 13018 O 1249.96 -4.92001 2.37903 0
M  V30 13019 H 1247.06 -0.759315 0.327673 0
M  V30 13020 H 1249.6 -1.10539 1.2876 0
M  V30 13021 H 1248.37 -2.79171 2.74188 0
M  V30 13022 H 1248 -3.75052 1.31993 0
M  V30 13023 N 1248.99 -0.981699 -1.2329 0
M  V30 13024 C 1250.24 -0.646818 -1.91048 0
M  V30 13025 C 1250.56 0.823479 -1.77421 0
M  V30 13026 O 1251.76 1.26948 -2.39993 0
M  V30 13027 C 1250.22 -1.1063 -3.42475 0
M  V30 13028 C 1249.83 -2.60103 -3.6476 0
M  V30 13029 C 1251.57 -0.845227 -4.16 0
M  V30 13030 C 1249.48 -2.99712 -5.0983 0
M  V30 13031 H 1248.41 -0.238221 -0.715379 0
M  V30 13032 H 1251.06 -1.18977 -1.39702 0
M  V30 13033 H 1249.44 -0.491554 -3.92937 0
M  V30 13034 H 1250.61 -3.26828 -3.24839 0
M  V30 13035 H 1248.93 -2.83972 -3.04547 0
M  V30 13036 H 1251.53 -1.11699 -5.22903 0
M  V30 13037 H 1251.87 0.218661 -4.15725 0
M  V30 13038 H 1252.4 -1.42162 -3.7153 0
M  V30 13039 H 1249.14 -4.0523 -5.15237 0
M  V30 13040 H 1248.66 -2.37683 -5.50697 0
M  V30 13041 H 1250.34 -2.9039 -5.78172 0
M  V30 13042 N 1250.47 1.3842 -0.753509 0
M  V30 13043 C 1251.75 1.94181 -0.235142 0
M  V30 13044 C 1252.13 1.68881 1.26659 0
M  V30 13045 O 1251.48 1.02731 2.04104 0
M  V30 13046 C 1251.69 3.43998 -0.588751 0
M  V30 13047 C 1253.04 4.21044 -0.548352 0
M  V30 13048 O 1254.06 3.52279 -0.52704 0
M  V30 13049 O 1252.92 5.43631 -0.559221 0
M  V30 13050 H 1250.01 0.825536 -0.0491834 0
M  V30 13051 H 1252.56 1.47813 -0.833626 0
M  V30 13052 H 1251.33 3.55921 -1.6259 0
M  V30 13053 H 1250.95 3.97582 0.0377429 0
M  V30 13054 N 1251.95 0.502579 1.49372 0
M  V30 13055 C 1253.2 -0.0412993 2.02058 0
M  V30 13056 C 1253.52 -1.37338 1.38431 0
M  V30 13057 O 1252.79 -1.88305 0.540175 0
M  V30 13058 H 1251.37 -0.0182522 0.746777 0
M  V30 13059 H 1254.03 0.660179 1.83378 0
M  V30 13060 H 1253.13 -0.169812 3.11638 0
M  V30 13061 N 1253.43 -1.55816 0.23648 0
M  V30 13062 C 1254.84 -1.84757 -0.268622 0
M  V30 13063 C 1255.19 -1.15815 -1.58371 0
M  V30 13064 O 1254.32 -0.432923 -2.12025 0
M  V30 13065 C 1254.91 -3.35177 -0.494167 0
M  V30 13066 C 1253.47 -3.64382 -0.943551 0
M  V30 13067 C 1252.62 -2.77296 -0.0149191 0
M  V30 13068 H 1255.57 -1.51908 0.459308 0
M  V30 13069 H 1255.59 -3.56192 -1.3382 0
M  V30 13070 H 1255.1 -3.85327 0.463138 0
M  V30 13071 H 1253.2 -3.19701 -1.91369 0
M  V30 13072 H 1253.31 -4.72244 -0.807626 0
M  V30 13073 H 1251.68 -2.49243 -0.524419 0
M  V30 13074 H 1252.46 -3.30249 0.937571 0
M  V30 13075 N 1254.91 0.036755 -1.57557 0
M  V30 13076 C 1255.84 1.07261 -2.01421 0
M  V30 13077 C 1256.82 1.35609 -0.897161 0
M  V30 13078 O 1258 1.48395 -1.16237 0
M  V30 13079 C 1255.13 2.40912 -2.38074 0
M  V30 13080 C 1254.17 2.28471 -3.60143 0
M  V30 13081 S 1255.01 1.64544 -5.09594 0
M  V30 13082 C 1256.16 2.99701 -5.49482 0
M  V30 13083 H 1256.4 0.698959 -2.88967 0
M  V30 13084 H 1253.93 0.246481 -1.5242 0
M  V30 13085 H 1255.89 3.17776 -2.59862 0
M  V30 13086 H 1254.55 2.75427 -1.50993 0
M  V30 13087 H 1253.74 3.27117 -3.8342 0
M  V30 13088 H 1253.34 1.59749 -3.38166 0
M  V30 13089 H 1255.64 3.96032 -5.49695 0
M  V30 13090 H 1256.58 2.81166 -6.49885 0
M  V30 13091 H 1256.99 3.0192 -4.76975 0
M  V30 13092 N 1256.39 1.54543 0.308881 0
M  V30 13093 C 1257.33 1.85693 1.40074 0
M  V30 13094 C 1258.33 0.730004 1.52864 0
M  V30 13095 O 1259.53 0.913884 1.55075 0
M  V30 13096 H 1255.91 0.588842 0.467728 0
M  V30 13097 H 1257.88 2.76973 1.11034 0
M  V30 13098 C 1256.63 2.11399 2.76054 0
M  V30 13099 H 1255.95 2.97583 2.66992 0
M  V30 13100 H 1257.39 2.37139 3.51484 0
M  V30 13101 C 1255.85 0.91007 3.24375 0
M  V30 13102 O 1256.38 0.12663 4.015 0
M  V30 13103 N 1254.59 0.717629 2.816 0
M  V30 13104 H 1254.13 1.35637 2.18998 0
M  V30 13105 H 1254.09 -0.0863585 3.14281 0
M  V30 13106 N 1257.86 -0.571685 1.46866 0
M  V30 13107 C 1259.1 -1.34041 1.54313 0
M  V30 13108 C 1259.47 -1.9101 0.194708 0
M  V30 13109 O 1260.67 -2.68414 0.143968 0
M  V30 13110 C 1258.94 -2.4315 2.61941 0
M  V30 13111 S 1260.5 -3.30301 2.88871 0
M  V30 13112 H 1257.32 -0.45652 0.545078 0
M  V30 13113 H 1259.92 -0.656041 1.84164 0
M  V30 13114 H 1258.62 -1.99707 3.58532 0
M  V30 13115 H 1258.15 -3.16345 2.33858 0
M  V30 13116 H 1260.17 -4.42265 2.24981 0
M  V30 13117 N 1259.34 -1.34755 -0.817236 0
M  V30 13118 C 1260.57 -1.30522 -1.60536 0
M  V30 13119 C 1260.98 0.119541 -1.88421 0
M  V30 13120 O 1260.34 1.06833 -1.47962 0
M  V30 13121 C 1260.39 -2.09939 -2.94292 0
M  V30 13122 O 1260.11 -3.46858 -2.67621 0
M  V30 13123 C 1261.61 -2.13168 -3.88683 0
M  V30 13124 H 1258.83 -0.448789 -0.498828 0
M  V30 13125 H 1261.38 -1.77453 -1.01639 0
M  V30 13126 H 1259.53 -1.66634 -3.49731 0
M  V30 13127 H 1259.95 -3.87979 -3.52949 0
M  V30 13128 H 1261.42 -2.73147 -4.79682 0
M  V30 13129 H 1261.9 -1.12758 -4.24479 0
M  V30 13130 H 1262.5 -2.56587 -3.39181 0
M  V30 13131 N 1260.82 1.03812 -1.18578 0
M  V30 13132 C 1262.04 1.8124 -1.00831 0
M  V30 13133 C 1262.47 1.82917 0.43853 0
M  V30 13134 O 1261.83 1.24835 1.31476 0
M  V30 13135 C 1261.88 3.24592 -1.57075 0
M  V30 13136 O 1260.98 4.04688 -0.793824 0
M  V30 13137 H 1260.32 0.559846 -0.357028 0
M  V30 13138 H 1262.85 1.30724 -1.57393 0
M  V30 13139 H 1262.86 3.75363 -1.59896 0
M  V30 13140 H 1261.54 3.22686 -2.62387 0
M  V30 13141 H 1260.11 3.63359 -0.838134 0
M  V30 13142 N 1262.3 0.988223 1.22768 0
M  V30 13143 C 1263.57 0.577578 1.86878 0
M  V30 13144 C 1263.95 -0.945197 1.88757 0
M  V30 13145 O 1263.3 -1.82519 1.37474 0
M  V30 13146 C 1263.51 1.19263 3.2799 0
M  V30 13147 C 1264.86 1.29024 4.04522 0
M  V30 13148 O 1265.88 1.14667 3.37239 0
M  V30 13149 O 1264.74 1.51949 5.24951 0
M  V30 13150 H 1261.84 0.195579 0.803541 0
M  V30 13151 H 1264.38 1.0838 1.30582 0
M  V30 13152 H 1263.16 2.23442 3.21231 0
M  V30 13153 H 1262.78 0.671706 3.91885 0
M  V30 13154 N 1263.78 -1.38018 0.760839 0
M  V30 13155 C 1264.71 -2.28037 0.0862629 0
M  V30 13156 C 1265.69 -1.45757 -0.720679 0
M  V30 13157 O 1266.87 -1.7511 -0.697766 0
M  V30 13158 C 1264 -3.26949 -0.884437 0
M  V30 13159 C 1263.04 -4.26189 -0.162839 0
M  V30 13160 S 1263.88 -5.23193 1.14148 0
M  V30 13161 C 1265.03 -6.25658 0.174043 0
M  V30 13162 H 1265.27 -2.84902 0.849596 0
M  V30 13163 H 1262.8 -1.44129 0.55374 0
M  V30 13164 H 1264.76 -3.84447 -1.43913 0
M  V30 13165 H 1263.42 -2.69052 -1.6208 0
M  V30 13166 H 1262.61 -4.9593 -0.89829 0
M  V30 13167 H 1262.21 -3.72624 0.320537 0
M  V30 13168 H 1264.5 -6.74303 -0.657423 0
M  V30 13169 H 1265.45 -7.03108 0.839319 0
M  V30 13170 H 1265.86 -5.6411 -0.209887 0
M  V30 13171 N 1265.25 -0.510493 -1.49103 0
M  V30 13172 C 1266.16 0.267176 -2.33074 0
M  V30 13173 C 1267.18 0.958117 -1.45245 0
M  V30 13174 O 1268.36 0.937399 -1.78255 0
M  V30 13175 C 1265.42 1.31212 -3.20911 0
M  V30 13176 C 1264.48 0.633613 -4.24598 0
M  V30 13177 C 1263.71 1.62878 -5.08239 0
M  V30 13178 O 1263.94 2.85958 -4.93543 0
M  V30 13179 O 1262.87 1.17887 -5.90242 0
M  V30 13180 H 1266.7 -0.420384 -3.00776 0
M  V30 13181 H 1264.28 -0.271683 -1.46909 0
M  V30 13182 H 1266.16 1.91647 -3.75299 0
M  V30 13183 H 1264.84 1.98244 -2.55892 0
M  V30 13184 H 1263.75 -0.0107246 -3.74098 0
M  V30 13185 H 1265.08 0.0055777 -4.922 0
M  V30 13186 N 1266.73 1.55688 -0.24474 0
M  V30 13187 C 1267.98 1.98067 0.381081 0
M  V30 13188 C 1268.29 1.13606 1.59227 0
M  V30 13189 O 1269.5 1.45988 2.2891 0
M  V30 13190 C 1267.96 3.52432 0.729385 0
M  V30 13191 C 1267.56 4.45629 -0.460282 0
M  V30 13192 C 1269.31 4.03471 1.31952 0
M  V30 13193 C 1267.21 5.91334 -0.088252 0
M  V30 13194 H 1266.14 0.739699 0.146157 0
M  V30 13195 H 1268.8 1.80235 -0.344615 0
M  V30 13196 H 1267.18 3.65951 1.51315 0
M  V30 13197 H 1268.35 4.43868 -1.23764 0
M  V30 13198 H 1266.67 4.05059 -0.965197 0
M  V30 13199 H 1269.26 5.09849 1.61116 0
M  V30 13200 H 1269.61 3.50691 2.24325 0
M  V30 13201 H 1270.14 3.93269 0.5987 0
M  V30 13202 H 1266.88 6.48147 -0.979069 0
M  V30 13203 H 1266.4 5.96235 0.652947 0
M  V30 13204 H 1268.08 6.46156 0.330324 0
M  V30 13205 N 1268.21 -0.0283989 1.57574 0
M  V30 13206 C 1269.16 -1.04723 2.07692 0
M  V30 13207 C 1270.15 -1.37399 0.990847 0
M  V30 13208 O 1271.36 -1.36297 1.17572 0
M  V30 13209 H 1267.73 -0.355251 0.662798 0
M  V30 13210 H 1269.7 -0.598737 2.92331 0
M  V30 13211 C 1268.45 -2.33941 2.57229 0
M  V30 13212 H 1267.78 -2.09659 3.40416 0
M  V30 13213 H 1269.22 -3.03574 2.96005 0
M  V30 13214 C 1267.67 -3.02953 1.47381 0
M  V30 13215 O 1268.2 -3.9281 0.840431 0
M  V30 13216 N 1266.41 -2.64294 1.20819 0
M  V30 13217 H 1265.96 -1.91307 1.72509 0
M  V30 13218 H 1265.92 -3.10786 0.475353 0
M  V30 13219 N 1269.69 -1.54705 -0.300681 0
M  V30 13220 C 1271.1 -1.64998 -0.873654 0
M  V30 13221 C 1271.45 -0.558842 -1.88073 0
M  V30 13222 O 1270.57 0.304474 -2.14247 0
M  V30 13223 C 1271.17 -2.99099 -1.59138 0
M  V30 13224 C 1269.73 -3.11512 -2.11276 0
M  V30 13225 C 1268.88 -2.60681 -0.945551 0
M  V30 13226 H 1271.83 -1.5851 -0.0776752 0
M  V30 13227 H 1271.85 -2.9054 -2.45696 0
M  V30 13228 H 1271.36 -3.78493 -0.858172 0
M  V30 13229 H 1269.46 -2.36838 -2.87643 0
M  V30 13230 H 1269.57 -4.17672 -2.34707 0
M  V30 13231 H 1267.94 -2.17143 -1.33121 0
M  V30 13232 H 1268.72 -3.42553 -0.226291 0
M  V30 13233 N 1271.17 0.563888 -1.47167 0
M  V30 13234 C 1272.1 1.68137 -1.62025 0
M  V30 13235 C 1273.08 1.63481 -0.469899 0
M  V30 13236 O 1274.26 1.81206 -0.698432 0
M  V30 13237 C 1271.39 3.06779 -1.62801 0
M  V30 13238 C 1270.35 3.26278 -2.76996 0
M  V30 13239 C 1269.67 4.65638 -2.62841 0
M  V30 13240 C 1270.97 3.12295 -4.18651 0
M  V30 13241 H 1272.67 1.55958 -2.55573 0
M  V30 13242 H 1270.21 0.74887 -1.22996 0
M  V30 13243 H 1272.17 3.84795 -1.71787 0
M  V30 13244 H 1270.89 3.19901 -0.658097 0
M  V30 13245 H 1269.55 2.50668 -2.67509 0
M  V30 13246 H 1269.2 4.75551 -1.63892 0
M  V30 13247 H 1268.9 4.79635 -3.39447 0
M  V30 13248 H 1270.42 5.45798 -2.73746 0
M  V30 13249 H 1271.83 3.80136 -4.2915 0
M  V30 13250 H 1270.23 3.37805 -4.95992 0
M  V30 13251 H 1271.3 2.09126 -4.37486 0
M  V30 13252 N 1272.64 1.35187 0.810078 0
M  V30 13253 C 1274.06 1.15149 1.10512 0
M  V30 13254 C 1274.26 -0.038394 2.01463 0
M  V30 13255 O 1273.32 -0.710056 2.42311 0
M  V30 13256 C 1274.63 2.45282 1.73946 0
M  V30 13257 C 1276.18 2.51457 1.86382 0
M  V30 13258 C 1276.65 3.81625 2.53232 0
M  V30 13259 N 1278.14 3.82856 2.6072 0
M  V30 13260 C 1278.88 4.80302 3.13206 0
M  V30 13261 N 1278.37 5.88134 3.66156 0
M  V30 13262 N 1280.17 4.67743 3.11726 0
M  V30 13263 H 1272.32 2.11405 0.205391 0
M  V30 13264 H 1274.58 0.935457 0.153702 0
M  V30 13265 H 1274.29 3.32512 1.14582 0
M  V30 13266 H 1274.16 2.59573 2.73682 0
M  V30 13267 H 1276.55 1.64659 2.44891 0
M  V30 13268 H 1276.63 2.41084 0.855113 0
M  V30 13269 H 1276.27 4.68819 1.95375 0
M  V30 13270 H 1276.2 3.89285 3.54633 0
M  V30 13271 H 1278.69 3.04941 2.23203 0
M  V30 13272 H 1279.01 6.58487 4.04494 0
M  V30 13273 H 1277.35 5.91831 3.64364 0
M  V30 13274 H 1280.54 3.82642 2.69635 0
M  V30 13275 H 1280.72 5.43849 3.52324 0
M  V30 13276 N 1274.12 -1.03182 1.19127 0
M  V30 13277 C 1275.37 -1.75934 0.986415 0
M  V30 13278 C 1275.68 -1.89519 -0.48392 0
M  V30 13279 O 1276.89 -2.59213 -0.80752 0
M  V30 13280 C 1275.35 -3.16358 1.71597 0
M  V30 13281 C 1274.95 -3.10836 3.22622 0
M  V30 13282 C 1276.7 -3.93426 1.59425 0
M  V30 13283 C 1274.61 -4.46174 3.88179 0
M  V30 13284 H 1273.54 -0.659516 0.365451 0
M  V30 13285 H 1276.19 -1.15497 1.42593 0
M  V30 13286 H 1274.57 -3.77245 1.20426 0
M  V30 13287 H 1275.74 -2.59348 3.80887 0
M  V30 13288 H 1274.06 -2.47266 3.35035 0
M  V30 13289 H 1276.65 -4.93526 2.05757 0
M  V30 13290 H 1277 -4.12678 0.547926 0
M  V30 13291 H 1277.53 -3.39134 2.07925 0
M  V30 13292 H 1274.27 -4.32126 4.92897 0
M  V30 13293 H 1273.79 -4.97729 3.34702 0
M  V30 13294 H 1275.47 -5.15066 3.91556 0
M  V30 13295 N 1275.6 -0.99472 -1.22242 0
M  V30 13296 C 1276.55 -0.546504 -2.24236 0
M  V30 13297 C 1277.52 0.422101 -1.60647 0
M  V30 13298 O 1278.7 0.326452 -1.87987 0
M  V30 13299 C 1275.84 0.130909 -3.44852 0
M  V30 13300 C 1274.96 -0.879653 -4.22949 0
M  V30 13301 C 1274.09 -0.175569 -5.3091 0
M  V30 13302 C 1273.13 -1.17438 -6.00729 0
M  V30 13303 N 1272.27 -0.498474 -7.00328 0
M  V30 13304 H 1277.11 -1.42099 -2.61939 0
M  V30 13305 H 1274.64 -0.711755 -1.28734 0
M  V30 13306 H 1276.6 0.540596 -4.13683 0
M  V30 13307 H 1275.23 0.96917 -3.07907 0
M  V30 13308 H 1274.28 -1.40765 -3.53397 0
M  V30 13309 H 1275.6 -1.64017 -4.71062 0
M  V30 13310 H 1274.75 0.290756 -6.06003 0
M  V30 13311 H 1273.49 0.617438 -4.83776 0
M  V30 13312 H 1272.49 -1.65131 -5.24416 0
M  V30 13313 H 1273.72 -1.96829 -6.4995 0
M  V30 13314 H 1271.66 0.275063 -6.55423 0
M  V30 13315 H 1271.58 -1.19741 -7.46457 0
M  V30 13316 H 1272.85 -0.0550119 -7.79481 0
M  V30 13317 N 1277.08 1.37613 -0.768148 0
M  V30 13318 C 1278.33 1.99023 -0.327543 0
M  V30 13319 C 1278.64 1.61669 1.10103 0
M  V30 13320 O 1279.85 2.16155 1.64284 0
M  V30 13321 C 1278.3 3.55906 -0.534674 0
M  V30 13322 C 1277.91 4.02201 -1.97327 0
M  V30 13323 C 1279.65 4.24208 -0.157512 0
M  V30 13324 C 1277.56 5.51781 -2.12819 0
M  V30 13325 H 1276.49 0.744595 -0.118722 0
M  V30 13326 H 1279.14 1.5719 -0.946764 0
M  V30 13327 H 1277.52 3.95701 0.153951 0
M  V30 13328 H 1278.7 3.73661 -2.69655 0
M  V30 13329 H 1277.01 3.46671 -2.30669 0
M  V30 13330 H 1279.61 5.34107 -0.251824 0
M  V30 13331 H 1279.95 4.06636 0.89177 0
M  V30 13332 H 1280.49 3.89703 -0.798546 0
M  V30 13333 H 1277.23 5.74274 -3.16053 0
M  V30 13334 H 1276.75 5.82017 -1.4497 0
M  V30 13335 H 1278.42 6.17697 -1.92508 0
M  V30 13336 N 1278.56 0.518393 1.4883 0
M  V30 13337 C 1279.78 -0.0183131 2.07392 0
M  V30 13338 C 1280.21 -1.28468 1.37396 0
M  V30 13339 O 1279.56 -1.75975 0.436177 0
M  V30 13340 C 1279.61 -0.237211 3.59819 0
M  V30 13341 O 1278.72 -1.30835 3.91096 0
M  V30 13342 H 1278.06 0.0339621 0.663131 0
M  V30 13343 H 1280.59 0.722993 1.914 0
M  V30 13344 H 1280.6 -0.463424 4.0536 0
M  V30 13345 H 1279.27 0.687925 4.10171 0
M  V30 13346 H 1277.85 -1.06571 3.57347 0
M  V30 13347 N 1280.03 -1.55556 0.252993 0
M  V30 13348 C 1281.26 -2.03945 -0.376965 0
M  V30 13349 C 1281.68 -1.13089 -1.50308 0
M  V30 13350 O 1281.04 -0.125039 -1.80868 0
M  V30 13351 C 1281.09 -3.50284 -0.856363 0
M  V30 13352 O 1280.19 -3.62551 -1.96546 0
M  V30 13353 H 1279.54 -0.659002 -0.081317 0
M  V30 13354 H 1282.07 -2.01024 0.380831 0
M  V30 13355 H 1282.08 -3.91222 -1.15798 0
M  V30 13356 H 1280.75 -4.15887 -0.0323302 0
M  V30 13357 H 1279.33 -3.33511 -1.66808 0
M  V30 13358 N 1281.51 0.0200419 -1.57587 0
M  V30 13359 C 1282.44 1.01715 -2.10181 0
M  V30 13360 C 1283.42 1.37136 -1.00636 0
M  V30 13361 O 1284.61 1.45862 -1.2821 0
M  V30 13362 C 1281.74 2.31531 -2.58865 0
M  V30 13363 C 1280.69 2.10327 -3.72755 0
M  V30 13364 C 1280.02 3.45981 -4.07678 0
M  V30 13365 C 1281.32 1.4821 -5.0083 0
M  V30 13366 H 1283.01 0.579307 -2.93742 0
M  V30 13367 H 1280.56 0.277211 -1.41307 0
M  V30 13368 H 1282.51 3.01623 -2.94281 0
M  V30 13369 H 1281.24 2.77392 -1.72399 0
M  V30 13370 H 1279.89 1.42665 -3.37701 0
M  V30 13371 H 1279.54 3.89508 -3.18265 0
M  V30 13372 H 1279.24 3.32616 -4.84397 0
M  V30 13373 H 1280.77 4.17421 -4.45637 0
M  V30 13374 H 1282.18 2.08232 -5.34146 0
M  V30 13375 H 1280.58 1.45393 -5.82221 0
M  V30 13376 H 1281.65 0.448942 -4.82817 0
M  V30 13377 N 1282.99 1.54862 0.292472 0
M  V30 13378 C 1283.92 1.82786 1.38282 0
M  V30 13379 C 1284.94 0.711253 1.46441 0
M  V30 13380 O 1286.12 0.988851 1.48607 0
M  V30 13381 C 1283.22 1.95845 2.76582 0
M  V30 13382 C 1282.4 3.2633 2.91252 0
M  V30 13383 C 1281.46 3.29697 4.10105 0
M  V30 13384 O 1280.48 4.03184 4.01785 0
M  V30 13385 N 1281.68 2.557 5.21151 0
M  V30 13386 H 1284.45 2.76891 1.1468 0
M  V30 13387 H 1282.01 1.54541 0.482561 0
M  V30 13388 H 1284 1.95491 3.54352 0
M  V30 13389 H 1282.57 1.08696 2.93094 0
M  V30 13390 H 1281.79 3.39387 2.00525 0
M  V30 13391 H 1283.08 4.12421 2.9797 0
M  V30 13392 H 1282.48 1.95642 5.30792 0
M  V30 13393 H 1281.04 2.61089 5.97223 0
M  V30 13394 N 1284.47 -0.556076 1.47464 0
M  V30 13395 C 1285.7 -1.33858 1.57764 0
M  V30 13396 C 1286.11 -1.87415 0.22825 0
M  V30 13397 O 1285.47 -1.65054 -0.778674 0
M  V30 13398 C 1285.52 -2.5077 2.60378 0
M  V30 13399 O 1285.24 -1.99426 3.90078 0
M  V30 13400 C 1286.74 -3.42965 2.80873 0
M  V30 13401 H 1283.96 -0.408003 0.532705 0
M  V30 13402 H 1286.51 -0.673501 1.93091 0
M  V30 13403 H 1284.66 -3.13214 2.27982 0
M  V30 13404 H 1285.07 -2.75759 4.46158 0
M  V30 13405 H 1286.55 -4.21412 3.56533 0
M  V30 13406 H 1287.03 -3.96579 1.88737 0
M  V30 13407 H 1287.63 -2.86336 3.14471 0
M  V30 13408 N 1285.95 -1.35615 -0.802897 0
M  V30 13409 C 1287.18 -1.32217 -1.59142 0
M  V30 13410 C 1287.59 0.0995496 -1.88537 0
M  V30 13411 O 1286.95 1.05258 -1.49087 0
M  V30 13412 C 1287 -2.13048 -2.92049 0
M  V30 13413 O 1286.72 -3.49677 -2.63927 0
M  V30 13414 C 1288.22 -2.17278 -3.864 0
M  V30 13415 H 1285.44 -0.454054 -0.49404 0
M  V30 13416 H 1287.98 -1.78521 -0.997516 0
M  V30 13417 H 1286.14 -1.70334 -3.47944 0
M  V30 13418 H 1286.55 -3.917 -3.48814 0
M  V30 13419 H 1288.03 -2.7822 -4.76758 0
M  V30 13420 H 1288.5 -1.17253 -4.23259 0
M  V30 13421 H 1289.11 -2.6017 -3.3644 0
M  V30 13422 N 1287.43 1.02549 -1.19673 0
M  V30 13423 C 1288.34 2.14373 -0.952972 0
M  V30 13424 C 1289.35 1.73776 0.0881727 0
M  V30 13425 O 1290.53 2.01165 -0.0972471 0
M  V30 13426 C 1287.59 3.43096 -0.498569 0
M  V30 13427 C 1286.65 3.97987 -1.60951 0
M  V30 13428 C 1285.89 5.20567 -1.17669 0
M  V30 13429 O 1286.11 5.70385 -0.0416636 0
M  V30 13430 O 1285.04 5.6838 -1.98059 0
M  V30 13431 H 1288.87 2.378 -1.88904 0
M  V30 13432 H 1286.45 1.12781 -0.979836 0
M  V30 13433 H 1288.34 4.20634 -0.253968 0
M  V30 13434 H 1287.01 3.21105 0.409018 0
M  V30 13435 H 1285.92 3.21768 -1.90829 0
M  V30 13436 H 1287.25 4.24349 -2.49377 0
M  V30 13437 N 1288.9 1.00119 1.21713 0
M  V30 13438 C 1289.85 0.558388 2.23943 0
M  V30 13439 C 1290.82 -0.413576 1.60869 0
M  V30 13440 O 1292.01 -0.316478 1.88157 0
M  V30 13441 C 1289.15 -0.112618 3.44916 0
M  V30 13442 C 1288.26 0.902071 4.22477 0
M  V30 13443 C 1287.39 0.203722 5.30809 0
M  V30 13444 C 1286.43 1.20622 6.00097 0
M  V30 13445 N 1285.57 0.535607 7.00054 0
M  V30 13446 H 1290.41 1.43486 2.61182 0
M  V30 13447 H 1287.95 0.718572 1.28355 0
M  V30 13448 H 1289.9 -0.51865 4.13964 0
M  V30 13449 H 1288.53 -0.952827 3.08417 0
M  V30 13450 H 1287.59 1.42637 3.52645 0
M  V30 13451 H 1288.9 1.66513 4.70186 0
M  V30 13452 H 1288.05 -0.258614 6.06149 0
M  V30 13453 H 1286.79 -0.591773 4.84096 0
M  V30 13454 H 1285.8 1.6791 5.23532 0
M  V30 13455 H 1287.02 2.00273 6.48897 0
M  V30 13456 H 1284.97 -0.2403 6.5556 0
M  V30 13457 H 1284.88 1.23698 7.45812 0
M  V30 13458 H 1286.15 0.0963489 7.7944 0
M  V30 13459 N 1290.38 -1.37203 0.775435 0
M  V30 13460 C 1291.33 -2.32102 0.152051 0
M  V30 13461 C 1292.32 -1.55117 -0.680806 0
M  V30 13462 O 1293.53 -1.70486 -0.577455 0
M  V30 13463 H 1289.9 -0.751386 0.0303853 0
M  V30 13464 H 1291.88 -2.82259 0.968121 0
M  V30 13465 C 1290.62 -3.40378 -0.709788 0
M  V30 13466 H 1289.95 -3.99723 -0.0782879 0
M  V30 13467 H 1291.39 -4.09134 -1.11288 0
M  V30 13468 C 1289.85 -2.80769 -1.862 0
M  V30 13469 O 1290.38 -2.71813 -2.95771 0
M  V30 13470 N 1288.58 -2.38259 -1.66376 0
M  V30 13471 H 1288.13 -2.45743 -0.772531 0
M  V30 13472 H 1288.09 -1.98721 -2.43634 0
M  V30 13473 N 1291.86 -0.526279 -1.48553 0
M  V30 13474 C 1293.14 0.073385 -1.95462 0
M  V30 13475 C 1293.52 1.51658 -1.46843 0
M  V30 13476 O 1292.86 2.17729 -0.693293 0
M  V30 13477 C 1293.07 -0.040041 -3.48977 0
M  V30 13478 C 1294.42 0.121108 -4.24427 0
M  V30 13479 O 1295.45 0.0339335 -3.56184 0
M  V30 13480 O 1294.31 0.303297 -5.45658 0
M  V30 13481 H 1291.4 0.0813498 -0.822989 0
M  V30 13482 H 1293.95 -0.590614 -1.59091 0
M  V30 13483 H 1292.72 -1.0455 -3.77074 0
M  V30 13484 H 1292.34 0.662975 -3.92034 0
M  V30 13485 N 1293.34 1.5542 -0.261239 0
M  V30 13486 C 1294.57 2.03687 0.363225 0
M  V30 13487 C 1294.98 1.14007 1.50492 0
M  V30 13488 O 1294.34 0.157349 1.8182 0
M  V30 13489 C 1294.39 3.51184 0.857435 0
M  V30 13490 O 1294.11 4.37449 -0.238776 0
M  V30 13491 C 1295.61 4.15277 1.55113 0
M  V30 13492 H 1292.83 0.665641 0.0846356 0
M  V30 13493 H 1295.37 2.00761 -0.389288 0
M  V30 13494 H 1293.53 3.54599 1.56008 0
M  V30 13495 H 1293.94 5.24316 0.138821 0
M  V30 13496 H 1295.42 5.20129 1.8485 0
M  V30 13497 H 1295.89 3.62619 2.47799 0
M  V30 13498 H 1296.5 4.15826 0.892695 0
M  V30 13499 N 1294.82 -0.0116844 1.57596 0
M  V30 13500 C 1296.06 -0.699994 1.90336 0
M  V30 13501 C 1296.39 -1.74067 0.861072 0
M  V30 13502 O 1295.67 -1.94119 -0.121712 0
M  V30 13503 C 1295.95 -1.35377 3.33684 0
M  V30 13504 C 1295.81 -0.325434 4.48621 0
M  V30 13505 C 1297.12 -2.28312 3.76247 0
M  V30 13506 H 1294.24 -0.253002 0.692213 0
M  V30 13507 H 1296.89 0.037211 1.89964 0
M  V30 13508 H 1295.04 -1.98212 3.34132 0
M  V30 13509 H 1296.71 0.302331 4.60308 0
M  V30 13510 H 1294.95 0.353527 4.32357 0
M  V30 13511 H 1295.62 -0.8217 5.4585 0
M  V30 13512 H 1298.1 -1.75505 3.77276 0
M  V30 13513 H 1296.97 -2.71028 4.77321 0
M  V30 13514 H 1297.23 -3.15727 3.09465 0
M  V30 13515 N 1296.29 -1.55015 -0.284256 0
M  V30 13516 C 1297.26 -1.8636 -1.33426 0
M  V30 13517 C 1298.26 -0.737457 -1.42892 0
M  V30 13518 O 1299.45 -1.00569 -1.42238 0
M  V30 13519 C 1296.58 -2.05884 -2.71707 0
M  V30 13520 H 1297.77 -2.80212 -1.06869 0
M  V30 13521 H 1295.32 -1.47334 -0.521767 0
M  V30 13522 H 1296.06 -1.14376 -3.03461 0
M  V30 13523 H 1295.84 -2.87867 -2.66224 0
M  V30 13524 H 1297.33 -2.31447 -3.47595 0
M  V30 13525 N 1297.77 0.548248 -1.47757 0
M  V30 13526 C 1299.02 1.30243 -1.54535 0
M  V30 13527 C 1299.34 1.93832 -0.213089 0
M  V30 13528 O 1298.61 1.80397 0.763782 0
M  V30 13529 H 1297.19 0.483684 -0.569262 0
M  V30 13530 H 1299.85 0.639485 -1.8411 0
M  V30 13531 H 1298.95 2.09128 -2.31672 0
M  V30 13532 N 1299.25 1.36039 0.795694 0
M  V30 13533 C 1300.18 1.25713 1.91648 0
M  V30 13534 C 1301.19 0.177993 1.61824 0
M  V30 13535 O 1302.38 0.432186 1.73189 0
M  V30 13536 C 1299.48 0.915546 3.26299 0
M  V30 13537 C 1298.66 2.09528 3.83949 0
M  V30 13538 C 1297.72 1.72775 4.97026 0
M  V30 13539 O 1296.74 2.44786 5.13876 0
M  V30 13540 N 1297.94 0.65775 5.76762 0
M  V30 13541 H 1300.71 2.22277 2.01029 0
M  V30 13542 H 1298.27 1.2935 0.973657 0
M  V30 13543 H 1300.26 0.650958 3.9943 0
M  V30 13544 H 1298.83 0.0392343 3.12575 0
M  V30 13545 H 1298.05 2.52304 3.0288 0
M  V30 13546 H 1299.34 2.88361 4.19196 0
M  V30 13547 H 1298.74 0.0596875 5.65669 0
M  V30 13548 H 1297.29 0.45297 6.50224 0
M  V30 13549 N 1300.73 -1.01913 1.20215 0
M  V30 13550 C 1301.98 -1.75124 1.00876 0
M  V30 13551 C 1302.3 -1.89485 -0.460475 0
M  V30 13552 O 1301.57 -1.43552 -1.33302 0
M  V30 13553 H 1300.15 -0.648777 0.370266 0
M  V30 13554 H 1302.81 -1.22883 1.5128 0
M  V30 13555 H 1301.91 -2.7558 1.46499 0
M  V30 13556 N 1302.21 -1.00763 -1.2118 0
M  V30 13557 C 1303.12 -0.579646 -2.27326 0
M  V30 13558 C 1304.13 0.378592 -1.69831 0
M  V30 13559 O 1305.31 0.241772 -1.99944 0
M  V30 13560 C 1302.37 0.0843648 -3.46597 0
M  V30 13561 C 1301.43 -0.918685 -4.19355 0
M  V30 13562 C 1300.67 -0.286267 -5.32932 0
M  V30 13563 O 1300.89 0.916274 -5.62993 0
M  V30 13564 O 1299.82 -0.998513 -5.9356 0
M  V30 13565 H 1303.65 -1.46311 -2.66133 0
M  V30 13566 H 1301.24 -0.776641 -1.27627 0
M  V30 13567 H 1303.12 0.455636 -4.18929 0
M  V30 13568 H 1301.79 0.942166 -3.09685 0
M  V30 13569 H 1300.7 -1.34116 -3.49233 0
M  V30 13570 H 1302.03 -1.74616 -4.60185 0
M  V30 13571 N 1303.68 1.3679 -0.7827 0
M  V30 13572 C 1305.1 1.52719 -0.463594 0
M  V30 13573 C 1305.3 1.73827 1.01914 0
M  V30 13574 O 1304.36 1.76591 1.80477 0
M  V30 13575 C 1305.67 2.71709 -1.2882 0
M  V30 13576 C 1307.22 2.85577 -1.2812 0
M  V30 13577 C 1307.69 4.07564 -2.0894 0
M  V30 13578 N 1309.18 4.14697 -2.0635 0
M  V30 13579 C 1309.92 5.08147 -2.65659 0
M  V30 13580 N 1309.41 6.07083 -3.33799 0
M  V30 13581 N 1311.21 5.00712 -2.55429 0
M  V30 13582 H 1303.36 1.21342 -1.74327 0
M  V30 13583 H 1305.62 0.591719 -0.740657 0
M  V30 13584 H 1305.33 2.62612 -2.3394 0
M  V30 13585 H 1305.2 3.65686 -0.924873 0
M  V30 13586 H 1307.59 2.94139 -0.237947 0
M  V30 13587 H 1307.67 1.92528 -1.68424 0
M  V30 13588 H 1307.31 3.99763 -3.13293 0
M  V30 13589 H 1307.24 4.99748 -1.66011 0
M  V30 13590 H 1309.73 3.43856 -1.56752 0
M  V30 13591 H 1310.05 6.74939 -3.764 0
M  V30 13592 H 1308.39 6.07329 -3.379 0
M  V30 13593 H 1311.58 4.22367 -2.01802 0
M  V30 13594 H 1311.76 5.73354 -3.01943 0
M  V30 13595 N 1305.16 0.53415 1.48272 0
M  V30 13596 C 1306.44 -0.0630181 1.95498 0
M  V30 13597 C 1306.82 -1.50877 1.47646 0
M  V30 13598 O 1306.17 -2.17358 0.704829 0
M  V30 13599 C 1306.38 0.0585475 3.48951 0
M  V30 13600 C 1307.73 -0.0985978 4.24486 0
M  V30 13601 O 1308.75 -0.0150438 3.56197 0
M  V30 13602 O 1307.61 -0.274356 5.45811 0
M  V30 13603 H 1304.7 -0.0769841 0.823409 0
M  V30 13604 H 1307.25 0.599043 1.58775 0
M  V30 13605 H 1306.02 1.06549 3.76514 0
M  V30 13606 H 1305.64 -0.642175 3.9238 0
M  V30 13607 N 1306.64 -1.55279 0.269478 0
M  V30 13608 C 1307.59 -2.18984 -0.634838 0
M  V30 13609 C 1308.57 -1.15269 -1.12258 0
M  V30 13610 O 1309.77 -1.41103 -1.0686 0
M  V30 13611 C 1306.9 -2.91014 -1.82114 0
M  V30 13612 C 1305.98 -4.02011 -1.35084 0
M  V30 13613 N 1306.37 -5.02273 -0.596299 0
M  V30 13614 C 1304.67 -4.14979 -1.63427 0
M  V30 13615 C 1305.37 -5.80647 -0.349781 0
M  V30 13616 N 1304.35 -5.35749 -0.92057 0
M  V30 13617 H 1308.15 -2.93857 -0.0504516 0
M  V30 13618 H 1305.66 -1.62237 0.0727843 0
M  V30 13619 H 1307.66 -3.35098 -2.48022 0
M  V30 13620 H 1306.32 -2.1765 -2.40953 0
M  V30 13621 H 1307.33 -5.17324 -0.244188 0
M  V30 13622 H 1304.01 -3.52802 -2.23242 0
M  V30 13623 H 1305.4 -6.71419 0.254139 0
M  V30 13624 N 1308.12 0.00332656 -1.576 0
M  V30 13625 C 1309.05 0.994803 -2.11248 0
M  V30 13626 C 1310.03 1.36061 -1.02085 0
M  V30 13627 O 1311.21 1.44494 -1.2975 0
M  V30 13628 C 1308.34 2.28772 -2.61306 0
M  V30 13629 C 1307.3 2.06362 -3.74965 0
M  V30 13630 C 1306.62 3.41638 -4.11324 0
M  V30 13631 C 1307.92 1.4289 -5.02374 0
M  V30 13632 H 1309.62 0.548119 -2.9434 0
M  V30 13633 H 1307.16 0.262208 -1.41593 0
M  V30 13634 H 1309.12 2.98485 -2.97464 0
M  V30 13635 H 1307.84 2.75547 -1.75332 0
M  V30 13636 H 1306.5 1.39076 -3.39195 0
M  V30 13637 H 1306.15 3.8611 -3.22379 0
M  V30 13638 H 1305.85 3.2746 -4.87897 0
M  V30 13639 H 1307.37 4.12671 -4.50039 0
M  V30 13640 H 1308.79 2.02555 -5.36325 0
M  V30 13641 H 1307.18 1.3921 -5.8373 0
M  V30 13642 H 1308.25 0.397708 -4.83266 0
M  V30 13643 N 1309.6 1.55164 0.276031 0
M  V30 13644 C 1310.85 1.74833 1.0058 0
M  V30 13645 C 1311.16 0.555089 1.87558 0
M  V30 13646 O 1312.36 0.634127 2.63991 0
M  V30 13647 C 1310.82 3.09417 1.83818 0
M  V30 13648 C 1310.43 4.36299 1.01721 0
M  V30 13649 C 1312.17 3.38437 2.56244 0
M  V30 13650 C 1310.08 5.61923 1.8438 0
M  V30 13651 H 1309.01 0.651676 0.379254 0
M  V30 13652 H 1311.66 1.81626 0.26161 0
M  V30 13653 H 1310.04 2.96654 2.62321 0
M  V30 13654 H 1311.22 4.59969 0.276565 0
M  V30 13655 H 1309.53 4.144 0.407645 0
M  V30 13656 H 1312.13 4.29501 3.18485 0
M  V30 13657 H 1312.47 2.58432 3.26372 0
M  V30 13658 H 1313 3.52284 1.84773 0
M  V30 13659 H 1309.74 6.44667 1.18679 0
M  V30 13660 H 1309.26 5.424 2.56051 0
M  V30 13661 H 1310.94 6.0011 2.4182 0
M  V30 13662 N 1311.07 -0.540404 1.48045 0
M  V30 13663 C 1312.3 -1.32177 1.59175 0
M  V30 13664 C 1312.72 -1.87163 0.248115 0
M  V30 13665 O 1312.07 -1.65871 -0.761124 0
M  V30 13666 C 1312.13 -2.47995 2.63023 0
M  V30 13667 O 1311.85 -1.95278 3.92171 0
M  V30 13668 C 1313.35 -3.39967 2.84495 0
M  V30 13669 H 1310.57 -0.40233 0.537002 0
M  V30 13670 H 1313.11 -0.652983 1.93795 0
M  V30 13671 H 1311.27 -3.10779 2.31291 0
M  V30 13672 H 1311.68 -2.71012 4.49058 0
M  V30 13673 H 1313.15 -4.17607 3.60982 0
M  V30 13674 H 1313.63 -3.94555 1.92932 0
M  V30 13675 H 1314.24 -2.82985 3.1749 0
M  V30 13676 N 1312.55 -1.36459 -0.788468 0
M  V30 13677 C 1313.5 -1.30863 -1.90115 0
M  V30 13678 C 1314.47 -0.177148 -1.65153 0
M  V30 13679 O 1315.65 -0.363817 -1.87299 0
M  V30 13680 C 1312.79 -1.10473 -3.2694 0
M  V30 13681 C 1311.91 -2.32704 -3.63968 0
M  V30 13682 C 1311.04 -2.05319 -4.89916 0
M  V30 13683 C 1310.08 -3.23506 -5.19625 0
M  V30 13684 N 1309.22 -2.9578 -6.36756 0
M  V30 13685 H 1314.06 -2.26003 -1.94233 0
M  V30 13686 H 1311.6 -1.12324 -0.949827 0
M  V30 13687 H 1313.55 -0.966773 -4.05844 0
M  V30 13688 H 1312.18 -0.189873 -3.22241 0
M  V30 13689 H 1311.24 -2.573 -2.8018 0
M  V30 13690 H 1312.55 -3.20899 -3.81871 0
M  V30 13691 H 1311.7 -1.88459 -5.76687 0
M  V30 13692 H 1310.44 -1.14437 -4.74084 0
M  V30 13693 H 1309.45 -3.40924 -4.31336 0
M  V30 13694 H 1310.67 -4.15216 -5.37376 0
M  V30 13695 H 1308.62 -2.0751 -6.22315 0
M  V30 13696 H 1308.53 -3.77513 -6.54996 0
M  V30 13697 H 1309.8 -2.825 -7.26508 0
M  V30 13698 N 1314.03 1.01274 -1.20754 0
M  V30 13699 C 1315.45 1.27256 -0.963221 0
M  V30 13700 C 1315.65 1.98349 0.354972 0
M  V30 13701 O 1314.7 2.28116 1.08255 0
M  V30 13702 C 1316.02 2.1038 -2.14851 0
M  V30 13703 C 1317.56 2.23633 -2.18991 0
M  V30 13704 C 1318.04 3.10136 -3.37016 0
M  V30 13705 N 1319.53 3.17724 -3.37054 0
M  V30 13706 C 1320.26 3.84891 -4.25025 0
M  V30 13707 N 1319.76 4.54152 -5.23181 0
M  V30 13708 N 1321.55 3.81454 -4.12855 0
M  V30 13709 H 1313.7 0.535534 -2.05538 0
M  V30 13710 H 1315.97 0.299006 -0.899611 0
M  V30 13711 H 1315.67 1.65484 -3.10335 0
M  V30 13712 H 1315.55 3.11122 -2.13267 0
M  V30 13713 H 1317.93 2.67753 -1.24067 0
M  V30 13714 H 1318.02 1.22387 -2.24622 0
M  V30 13715 H 1317.66 2.66721 -4.32229 0
M  V30 13716 H 1317.59 4.11478 -3.28623 0
M  V30 13717 H 1320.08 2.68412 -2.66014 0
M  V30 13718 H 1320.39 5.03084 -5.86623 0
M  V30 13719 H 1318.74 4.52964 -5.27113 0
M  V30 13720 H 1321.93 3.26494 -3.35439 0
M  V30 13721 H 1322.1 4.33523 -4.81624 0
M  V30 13722 N 1315.51 1.01404 1.20644 0
M  V30 13723 C 1316.79 0.617088 1.85611 0
M  V30 13724 C 1317.17 -0.904947 1.9072 0
M  V30 13725 O 1316.51 -1.79562 1.41315 0
M  V30 13726 C 1316.72 1.26193 3.25386 0
M  V30 13727 C 1318.07 1.37575 4.01694 0
M  V30 13728 O 1319.1 1.21795 3.34731 0
M  V30 13729 O 1317.96 1.6305 5.2161 0
M  V30 13730 H 1315.05 0.212579 0.799211 0
M  V30 13731 H 1317.6 1.11126 1.28254 0
M  V30 13732 H 1316.37 2.30206 3.16419 0
M  V30 13733 H 1315.99 0.754679 3.90372 0
M  V30 13734 N 1316.99 -1.36373 0.789944 0
M  V30 13735 C 1317.92 -2.32616 0.202944 0
M  V30 13736 C 1318.9 -1.56674 -0.662364 0
M  V30 13737 O 1320.08 -1.84826 -0.596078 0
M  V30 13738 C 1317.21 -3.4092 -0.662646 0
M  V30 13739 C 1316.17 -4.27877 0.102811 0
M  V30 13740 C 1315.49 -5.27352 -0.883407 0
M  V30 13741 C 1316.79 -5.0606 1.29231 0
M  V30 13742 H 1318.49 -2.81958 1.00699 0
M  V30 13743 H 1316.03 -1.35562 0.48568 0
M  V30 13744 H 1317.99 -4.07239 -1.08324 0
M  V30 13745 H 1316.71 -2.90147 -1.4994 0
M  V30 13746 H 1315.37 -3.63114 0.504389 0
M  V30 13747 H 1315.02 -4.72853 -1.71521 0
M  V30 13748 H 1314.72 -5.86398 -0.375669 0
M  V30 13749 H 1316.24 -5.96545 -1.30256 0
M  V30 13750 H 1317.66 -5.65417 0.947446 0
M  V30 13751 H 1316.05 -5.74521 1.73338 0
M  V30 13752 H 1317.12 -4.37671 2.08739 0
M  V30 13753 N 1318.47 -0.542005 -1.47987 0
M  V30 13754 C 1319.43 0.203537 -2.28294 0
M  V30 13755 C 1320.43 0.856762 -1.36074 0
M  V30 13756 O 1321.62 0.71496 -1.58852 0
M  V30 13757 C 1318.75 1.29581 -3.15312 0
M  V30 13758 H 1319.94 -0.501701 -2.95674 0
M  V30 13759 H 1317.5 -0.298378 -1.53426 0
M  V30 13760 H 1318.23 2.03393 -2.5259 0
M  V30 13761 H 1318.02 0.832398 -3.83163 0
M  V30 13762 H 1319.51 1.81988 -3.75859 0
M  V30 13763 N 1319.94 1.55134 -0.277709 0
M  V30 13764 C 1320.87 2.256 0.602232 0
M  V30 13765 C 1321.85 1.24708 1.15681 0
M  V30 13766 O 1323.04 1.53433 1.19046 0
M  V30 13767 C 1320.17 2.97907 1.78519 0
M  V30 13768 C 1319.12 4.0575 1.36203 0
M  V30 13769 C 1318.45 4.65644 2.62829 0
M  V30 13770 C 1319.75 5.19801 0.510327 0
M  V30 13771 H 1321.44 2.99396 0.0145622 0
M  V30 13772 H 1318.99 1.43999 0.00556389 0
M  V30 13773 H 1320.94 3.45915 2.40668 0
M  V30 13774 H 1319.67 2.21649 2.39873 0
M  V30 13775 H 1318.33 3.58557 0.763726 0
M  V30 13776 H 1317.97 3.86053 3.22447 0
M  V30 13777 H 1317.67 5.38463 2.35227 0
M  V30 13778 H 1319.2 5.16403 3.25823 0
M  V30 13779 H 1320.61 5.63845 1.03689 0
M  V30 13780 H 1319.01 5.99197 0.329073 0
M  V30 13781 H 1320.08 4.82614 -0.470273 0
M  V30 13782 N 1321.42 0.00503138 1.57599 0
M  V30 13783 C 1322.65 -0.693231 1.95471 0
M  V30 13784 C 1323.07 -1.66233 0.880246 0
M  V30 13785 O 1322.43 -1.80582 -0.161164 0
M  V30 13786 C 1322.48 -1.39696 3.32442 0
M  V30 13787 O 1321.58 -2.51154 3.27101 0
M  V30 13788 H 1320.92 -0.184015 0.637992 0
M  V30 13789 H 1323.45 0.0597194 2.04513 0
M  V30 13790 H 1323.46 -1.75924 3.68123 0
M  V30 13791 H 1322.14 -0.686438 4.10196 0
M  V30 13792 H 1320.71 -2.17216 3.03103 0
M  V30 13793 N 1322.9 -1.55308 -0.267798 0
M  V30 13794 C 1323.81 -1.91649 -1.35307 0
M  V30 13795 C 1324.83 -0.814349 -1.53767 0
M  V30 13796 O 1326 -1.11388 -1.67793 0
M  V30 13797 C 1323.07 -2.18553 -2.69138 0
M  V30 13798 C 1322.13 -3.42083 -2.5938 0
M  V30 13799 C 1321.36 -3.67695 -3.86828 0
M  V30 13800 O 1321.58 -2.95728 -4.87751 0
M  V30 13801 O 1320.52 -4.61229 -3.86718 0
M  V30 13802 H 1324.34 -2.84044 -1.07483 0
M  V30 13803 H 1321.93 -1.41921 -0.466772 0
M  V30 13804 H 1323.81 -2.3726 -3.48261 0
M  V30 13805 H 1322.49 -1.2934 -2.96737 0
M  V30 13806 H 1321.39 -3.28706 -1.78614 0
M  V30 13807 H 1322.73 -4.31532 -2.36729 0
M  V30 13808 N 1324.38 0.532545 -1.4833 0
M  V30 13809 C 1325.63 1.28597 -1.55908 0
M  V30 13810 C 1325.95 1.93595 -0.233635 0
M  V30 13811 O 1325.22 1.81197 0.744605 0
M  V30 13812 H 1323.8 0.477619 -0.57436 0
M  V30 13813 H 1326.46 0.619922 -1.84778 0
M  V30 13814 H 1325.55 2.0666 -2.33877 0
M  V30 13815 N 1325.86 1.36875 0.78122 0
M  V30 13816 C 1327.13 1.22101 1.52809 0
M  V30 13817 C 1327.51 -0.189402 2.10249 0
M  V30 13818 O 1326.86 -1.19598 1.94701 0
M  V30 13819 C 1327.07 2.30953 2.61652 0
M  V30 13820 C 1328.42 2.68027 3.29313 0
M  V30 13821 O 1329.44 2.30058 2.71941 0
M  V30 13822 O 1328.3 3.33407 4.33015 0
M  V30 13823 H 1325.4 0.4759 0.676349 0
M  V30 13824 H 1327.94 1.48629 0.818998 0
M  V30 13825 H 1326.71 3.25443 2.17261 0
M  V30 13826 H 1326.34 2.05837 3.40172 0
M  V30 13827 N 1327.33 -1.00632 1.21289 0
M  V30 13828 C 1328.58 -1.73802 1.02351 0
M  V30 13829 C 1328.9 -1.90503 -0.443611 0
M  V30 13830 O 1330.1 -2.60868 -0.752356 0
M  V30 13831 C 1328.56 -3.12647 1.78269 0
M  V30 13832 C 1328.17 -3.03923 3.29142 0
M  V30 13833 C 1329.91 -3.89956 1.67735 0
M  V30 13834 C 1327.82 -4.3784 3.97556 0
M  V30 13835 H 1326.75 -0.651616 0.379358 0
M  V30 13836 H 1329.4 -1.12446 1.45011 0
M  V30 13837 H 1327.78 -3.74605 1.28401 0
M  V30 13838 H 1328.95 -2.51211 3.86303 0
M  V30 13839 H 1327.27 -2.40103 3.40205 0
M  V30 13840 H 1329.87 -4.89051 2.1618 0
M  V30 13841 H 1330.21 -4.11423 0.635338 0
M  V30 13842 H 1330.74 -3.34647 2.15072 0
M  V30 13843 H 1327.48 -4.21573 5.01952 0
M  V30 13844 H 1327 -4.90518 3.45184 0
M  V30 13845 H 1328.68 -5.06644 4.02393 0
M  V30 13846 N 1328.81 -1.02043 -1.20104 0
M  V30 13847 C 1329.76 -0.564679 -2.20897 0
M  V30 13848 C 1330.75 0.382041 -1.56299 0
M  V30 13849 O 1331.94 0.204384 -1.75816 0
M  V30 13850 C 1329.07 0.0917516 -3.43177 0
M  V30 13851 C 1328.15 -0.876903 -4.14935 0
M  V30 13852 N 1328.54 -2.03596 -4.63014 0
M  V30 13853 C 1326.84 -0.698538 -4.40496 0
M  V30 13854 C 1327.54 -2.64621 -5.18026 0
M  V30 13855 N 1326.52 -1.92651 -5.08317 0
M  V30 13856 H 1330.32 -1.44825 -2.5574 0
M  V30 13857 H 1327.83 -0.88628 -1.36084 0
M  V30 13858 H 1329.83 0.43582 -4.14616 0
M  V30 13859 H 1328.49 0.971116 -3.09838 0
M  V30 13860 H 1329.5 -2.41573 -4.58108 0
M  V30 13861 H 1326.18 0.132449 -4.1729 0
M  V30 13862 H 1327.57 -3.62732 -5.65575 0
M  V30 13863 N 1330.29 1.35952 -0.797165 0
M  V30 13864 C 1331.52 2.0328 -0.385316 0
M  V30 13865 C 1331.93 1.60095 1.00076 0
M  V30 13866 O 1331.29 0.794014 1.64322 0
M  V30 13867 C 1331.34 3.5871 -0.448284 0
M  V30 13868 O 1331.06 4.00323 -1.7797 0
M  V30 13869 C 1332.56 4.43291 -0.0280465 0
M  V30 13870 H 1329.78 0.652192 -0.157756 0
M  V30 13871 H 1332.33 1.73769 -1.07817 0
M  V30 13872 H 1330.48 3.86903 0.196224 0
M  V30 13873 H 1330.9 4.94941 -1.73592 0
M  V30 13874 H 1332.37 5.51862 -0.123234 0
M  V30 13875 H 1332.85 4.27059 1.02552 0
M  V30 13876 H 1333.45 4.20375 -0.645343 0
M  V30 13877 N 1331.77 0.549846 1.47697 0
M  V30 13878 C 1332.7 -0.190364 2.32723 0
M  V30 13879 C 1333.68 -0.915933 1.43334 0
M  V30 13880 O 1334.86 -0.897838 1.72199 0
M  V30 13881 C 1331.99 -1.22545 3.24961 0
M  V30 13882 C 1330.95 -0.616805 4.23532 0
M  V30 13883 C 1330.27 -1.75599 5.05044 0
M  V30 13884 C 1331.57 0.424595 5.20571 0
M  V30 13885 H 1333.27 0.519461 2.94859 0
M  V30 13886 H 1330.81 0.251259 1.41791 0
M  V30 13887 H 1332.77 -1.75139 3.83281 0
M  V30 13888 H 1331.49 -1.96512 2.60865 0
M  V30 13889 H 1330.15 -0.112224 3.66428 0
M  V30 13890 H 1329.8 -2.48453 4.37356 0
M  V30 13891 H 1329.5 -1.35456 5.71774 0
M  V30 13892 H 1331.02 -2.28533 5.6622 0
M  V30 13893 H 1332.44 -0.0150025 5.73298 0
M  V30 13894 H 1330.83 0.7445 5.95464 0
M  V30 13895 H 1331.9 1.32318 4.66497 0
M  V30 13896 N 1333.25 -1.54984 0.285932 0
M  V30 13897 C 1334.49 -1.99436 -0.32709 0
M  V30 13898 C 1334.82 -1.17582 -1.55562 0
M  V30 13899 O 1334.09 -0.268002 -1.94058 0
M  V30 13900 H 1332.67 -0.736662 -0.123846 0
M  V30 13901 H 1335.33 -1.90881 0.393774 0
M  V30 13902 H 1334.42 -3.0609 -0.609523 0
M  V30 13903 N 1334.72 -0.0133892 -1.57594 0
M  V30 13904 C 1335.96 0.672977 -1.93004 0
M  V30 13905 C 1336.33 1.70188 -0.888816 0
M  V30 13906 O 1337.53 2.4396 -1.12859 0
M  V30 13907 C 1335.8 1.28743 -3.33407 0
M  V30 13908 S 1337.36 1.99706 -3.90721 0
M  V30 13909 H 1334.18 0.221972 -0.675462 0
M  V30 13910 H 1336.78 -0.0732871 -1.95363 0
M  V30 13911 H 1335.48 0.525931 -4.07016 0
M  V30 13912 H 1335.01 2.07134 -3.34454 0
M  V30 13913 H 1337.03 3.27375 -3.72881 0
M  V30 13914 N 1336.2 1.55448 0.259558 0
M  V30 13915 C 1337.45 1.76337 0.987396 0
M  V30 13916 C 1337.77 0.57505 1.86328 0
M  V30 13917 O 1337.04 -0.409621 1.9157 0
M  V30 13918 H 1335.62 0.650312 0.367565 0
M  V30 13919 H 1338.28 1.9287 0.280551 0
M  V30 13920 H 1337.38 2.66975 1.61651 0
M  V30 13921 N 1337.68 -0.524672 1.4861 0
M  V30 13922 C 1338.93 -1.28211 1.5713 0
M  V30 13923 C 1339.26 -1.92626 0.246751 0
M  V30 13924 O 1338.53 -1.79553 -0.747725 0
M  V30 13925 C 1338.82 -2.36737 2.71344 0
M  V30 13926 C 1338.67 -1.76978 4.1352 0
M  V30 13927 C 1339.99 -3.3847 2.81294 0
M  V30 13928 H 1337.11 -0.46479 0.571961 0
M  V30 13929 H 1339.75 -0.583937 1.80804 0
M  V30 13930 H 1337.9 -2.96287 2.51289 0
M  V30 13931 H 1339.57 -1.21438 4.45029 0
M  V30 13932 H 1337.82 -1.07488 4.20272 0
M  V30 13933 H 1338.49 -2.55583 4.89266 0
M  V30 13934 H 1340.96 -2.88882 2.99477 0
M  V30 13935 H 1339.84 -4.11795 3.62928 0
M  V30 13936 H 1340.1 -3.99347 1.89669 0
M  V30 13937 N 1339.16 -1.37287 -0.77395 0
M  V30 13938 C 1340.12 -1.32699 -1.86878 0
M  V30 13939 C 1341.12 -0.231486 -1.59125 0
M  V30 13940 O 1342.31 -0.487203 -1.67248 0
M  V30 13941 C 1339.44 -1.0609 -3.23972 0
M  V30 13942 H 1340.64 -2.30083 -1.92359 0
M  V30 13943 H 1338.19 -1.22284 -0.973459 0
M  V30 13944 H 1338.92 -0.0922868 -3.24169 0
M  V30 13945 H 1338.71 -1.85383 -3.45508 0
M  V30 13946 H 1340.2 -1.05524 -4.04048 0
M  V30 13947 N 1340.64 0.999871 -1.21821 0
M  V30 13948 C 1341.57 2.09044 -0.939852 0
M  V30 13949 C 1342.58 1.62609 0.0788987 0
M  V30 13950 O 1343.77 1.77832 -0.154241 0
M  V30 13951 C 1340.87 3.36641 -0.390618 0
M  V30 13952 C 1340.04 4.12139 -1.46493 0
M  V30 13953 C 1339.1 5.18023 -0.924019 0
M  V30 13954 O 1338.13 5.45996 -1.60864 0
M  V30 13955 N 1339.33 5.79926 0.258136 0
M  V30 13956 H 1342.1 2.33506 -1.8787 0
M  V30 13957 H 1339.66 1.16509 -1.12415 0
M  V30 13958 H 1341.65 4.04697 -0.0142349 0
M  V30 13959 H 1340.22 3.09298 0.453176 0
M  V30 13960 H 1339.44 3.38813 -2.01494 0
M  V30 13961 H 1340.73 4.59354 -2.18795 0
M  V30 13962 H 1340.12 5.59559 0.831288 0
M  V30 13963 H 1338.68 6.4925 0.575977 0
M  V30 13964 N 1342.11 1.02678 1.19562 0
M  V30 13965 C 1343.35 0.7307 1.90893 0
M  V30 13966 C 1343.72 -0.727166 1.77697 0
M  V30 13967 O 1344.92 -1.13623 2.43605 0
M  V30 13968 C 1343.19 1.16683 3.37816 0
M  V30 13969 S 1344.75 0.994271 4.27387 0
M  V30 13970 H 1341.57 0.266082 0.659334 0
M  V30 13971 H 1344.17 1.31617 1.44558 0
M  V30 13972 H 1342.87 2.22354 3.44945 0
M  V30 13973 H 1342.4 0.574559 3.89182 0
M  V30 13974 H 1344.42 -0.0963871 4.96106 0
M  V30 13975 N 1343.59 -1.35528 0.804364 0
M  V30 13976 C 1344.52 -2.32388 0.227604 0
M  V30 13977 C 1345.5 -1.57368 -0.645709 0
M  V30 13978 O 1346.69 -1.85448 -0.576441 0
M  V30 13979 C 1343.82 -3.41603 -0.62645 0
M  V30 13980 C 1342.77 -4.27743 0.148187 0
M  V30 13981 C 1342.1 -5.28259 -0.827425 0
M  V30 13982 C 1343.4 -5.04661 1.34591 0
M  V30 13983 H 1345.09 -2.80874 1.03684 0
M  V30 13984 H 1342.64 -1.3504 0.500031 0
M  V30 13985 H 1344.59 -4.08365 -1.03999 0
M  V30 13986 H 1343.32 -2.91721 -1.46855 0
M  V30 13987 H 1341.97 -3.62558 0.542874 0
M  V30 13988 H 1341.62 -4.74645 -1.66496 0
M  V30 13989 H 1341.32 -5.86763 -0.313453 0
M  V30 13990 H 1342.85 -5.97893 -1.23921 0
M  V30 13991 H 1344.26 -5.6438 1.00736 0
M  V30 13992 H 1342.66 -5.7265 1.79422 0
M  V30 13993 H 1343.73 -4.35432 2.1337 0
M  V30 13994 N 1345.07 -0.557671 -1.47404 0
M  V30 13995 C 1346.02 0.189765 -2.30019 0
M  V30 13996 C 1346.99 0.907923 -1.3909 0
M  V30 13997 O 1348.17 0.903528 -1.68051 0
M  V30 13998 C 1345.31 1.21348 -3.23061 0
M  V30 13999 C 1344.43 0.501343 -4.29081 0
M  V30 14000 C 1343.56 1.51039 -5.09275 0
M  V30 14001 C 1342.6 0.783254 -6.07068 0
M  V30 14002 N 1341.74 1.73916 -6.80219 0
M  V30 14003 H 1346.58 -0.520856 -2.93413 0
M  V30 14004 H 1344.11 -0.268686 -1.44625 0
M  V30 14005 H 1346.07 1.81961 -3.75428 0
M  V30 14006 H 1344.7 1.89213 -2.61531 0
M  V30 14007 H 1343.75 -0.219317 -3.79767 0
M  V30 14008 H 1345.07 -0.0682656 -4.98753 0
M  V30 14009 H 1344.22 2.19004 -5.65793 0
M  V30 14010 H 1342.96 2.11392 -4.39505 0
M  V30 14011 H 1341.96 0.0896883 -5.49727 0
M  V30 14012 H 1343.19 0.185464 -6.78847 0
M  V30 14013 H 1341.14 2.33125 -6.13179 0
M  V30 14014 H 1341.05 1.22171 -7.46063 0
M  V30 14015 H 1342.32 2.40993 -7.41311 0
M  V30 14016 N 1346.55 1.54831 -0.294147 0
M  V30 14017 C 1347.8 1.99179 0.317874 0
M  V30 14018 C 1348.11 1.18614 1.55532 0
M  V30 14019 O 1349.32 1.53197 2.24149 0
M  V30 14020 C 1347.77 3.54574 0.616893 0
M  V30 14021 C 1347.38 4.43939 -0.601822 0
M  V30 14022 C 1349.13 4.07465 1.19049 0
M  V30 14023 C 1347.03 5.90754 -0.276336 0
M  V30 14024 H 1345.96 0.743974 0.12255 0
M  V30 14025 H 1348.61 1.79047 -0.401781 0
M  V30 14026 H 1347 3.70579 1.39596 0
M  V30 14027 H 1348.17 4.39706 -1.37822 0
M  V30 14028 H 1346.48 4.01783 -1.09357 0
M  V30 14029 H 1349.08 5.14716 1.44814 0
M  V30 14030 H 1349.42 3.5765 2.13055 0
M  V30 14031 H 1349.96 3.94975 0.473282 0
M  V30 14032 H 1346.7 6.44704 -1.18478 0
M  V30 14033 H 1346.22 5.98011 0.462928 0
M  V30 14034 H 1347.9 6.4688 0.124587 0
M  V30 14035 N 1348.03 0.0217466 1.57585 0
M  V30 14036 C 1349.27 -0.659463 1.91778 0
M  V30 14037 C 1349.61 -1.72201 0.897801 0
M  V30 14038 O 1348.88 -1.94333 -0.080509 0
M  V30 14039 C 1349.16 -1.28269 3.36481 0
M  V30 14040 C 1349.02 -0.230201 4.49211 0
M  V30 14041 C 1350.34 -2.20279 3.81005 0
M  V30 14042 H 1347.46 -0.238263 0.697424 0
M  V30 14043 H 1350.1 0.0774967 1.89842 0
M  V30 14044 H 1348.25 -1.9108 3.38262 0
M  V30 14045 H 1349.92 0.399901 4.59563 0
M  V30 14046 H 1348.16 0.445157 4.3151 0
M  V30 14047 H 1348.83 -0.705732 5.4747 0
M  V30 14048 H 1351.31 -1.67463 3.80914 0
M  V30 14049 H 1350.19 -2.60842 4.82962 0
M  V30 14050 H 1350.45 -3.09092 3.16093 0
M  V30 14051 N 1349.51 -1.55583 -0.251311 0
M  V30 14052 C 1350.75 -1.7897 -0.987372 0
M  V30 14053 C 1351.11 -0.590559 -1.82692 0
M  V30 14054 O 1352.31 -0.703109 -2.59441 0
M  V30 14055 C 1350.58 -3.07069 -1.82876 0
M  V30 14056 S 1352.14 -3.51659 -2.62452 0
M  V30 14057 H 1348.96 -0.628624 -0.332194 0
M  V30 14058 H 1351.56 -1.93821 -0.255653 0
M  V30 14059 H 1350.26 -3.92415 -1.20161 0
M  V30 14060 H 1349.8 -2.94943 -2.60331 0
M  V30 14061 H 1351.81 -3.12644 -3.85316 0
M  V30 14062 N 1350.98 0.516783 -1.48886 0
M  V30 14063 C 1351.92 1.63632 -1.60491 0
M  V30 14064 C 1352.93 1.55301 -0.488424 0
M  V30 14065 O 1354.12 1.6152 -0.75983 0
M  V30 14066 C 1351.22 3.02351 -1.53093 0
M  V30 14067 C 1350.39 3.36028 -2.80006 0
M  V30 14068 C 1349.45 4.54087 -2.65879 0
M  V30 14069 O 1348.48 4.56652 -3.3979 0
M  V30 14070 N 1349.68 5.53058 -1.76372 0
M  V30 14071 H 1352.44 1.54109 -2.57042 0
M  V30 14072 H 1350 0.704338 -1.45776 0
M  V30 14073 H 1352 3.79225 -1.41318 0
M  V30 14074 H 1350.57 3.05881 -0.644637 0
M  V30 14075 H 1349.79 2.48204 -3.06249 0
M  V30 14076 H 1351.07 3.5532 -3.64177 0
M  V30 14077 H 1350.47 5.53773 -1.1555 0
M  V30 14078 H 1349.03 6.29097 -1.70529 0
M  V30 14079 N 1352.46 1.37696 0.766659 0
M  V30 14080 C 1353.71 1.33382 1.52765 0
M  V30 14081 C 1354.04 -0.0800569 1.94035 0
M  V30 14082 O 1353.32 -1.03848 1.64456 0
M  V30 14083 C 1353.6 2.2776 2.78922 0
M  V30 14084 C 1353.45 3.77949 2.43874 0
M  V30 14085 C 1354.77 2.20494 3.80881 0
M  V30 14086 H 1351.89 0.485836 0.554195 0
M  V30 14087 H 1354.53 1.68438 0.879119 0
M  V30 14088 H 1352.68 1.97994 3.34261 0
M  V30 14089 H 1354.35 4.18333 1.9441 0
M  V30 14090 H 1352.6 3.96269 1.76503 0
M  V30 14091 H 1353.27 4.39428 3.34077 0
M  V30 14092 H 1355.74 2.46742 3.35048 0
M  V30 14093 H 1354.62 2.88663 4.66867 0
M  V30 14094 H 1354.88 1.19951 4.25516 0
M  V30 14095 N 1353.94 -0.993397 1.22349 0
M  V30 14096 C 1355.19 -1.72945 1.04568 0
M  V30 14097 C 1355.51 -1.90419 -0.420178 0
M  V30 14098 O 1354.78 -1.46348 -1.30227 0
M  V30 14099 H 1353.36 -0.640777 0.383945 0
M  V30 14100 H 1356.02 -1.19647 1.53853 0
M  V30 14101 H 1355.12 -2.72411 1.52311 0
M  V30 14102 N 1355.42 -1.03311 -1.19015 0
M  V30 14103 C 1356.83 -0.750946 -1.4083 0
M  V30 14104 C 1357.03 0.662704 -1.90291 0
M  V30 14105 O 1356.09 1.42806 -2.08237 0
M  V30 14106 C 1357.4 -1.79064 -2.41571 0
M  V30 14107 C 1358.95 -1.81068 -2.55311 0
M  V30 14108 C 1359.43 -2.84008 -3.59309 0
M  V30 14109 N 1360.92 -2.82852 -3.6681 0
M  V30 14110 C 1361.65 -3.59156 -4.46984 0
M  V30 14111 N 1361.15 -4.45188 -5.30829 0
M  V30 14112 N 1362.94 -3.47679 -4.41674 0
M  V30 14113 H 1355.09 -1.94548 -0.852329 0
M  V30 14114 H 1357.35 -0.841344 -0.436858 0
M  V30 14115 H 1357.06 -2.80425 -2.12261 0
M  V30 14116 H 1356.93 -1.61646 -3.40809 0
M  V30 14117 H 1359.32 -0.803825 -2.83941 0
M  V30 14118 H 1359.4 -2.02562 -1.56212 0
M  V30 14119 H 1359.05 -3.84867 -3.3142 0
M  V30 14120 H 1358.98 -2.59771 -4.58069 0
M  V30 14121 H 1361.47 -2.20457 -3.06932 0
M  V30 14122 H 1361.78 -5.00139 -5.89135 0
M  V30 14123 H 1360.13 -4.49259 -5.30275 0
M  V30 14124 H 1363.32 -2.79876 -3.75216 0
M  V30 14125 H 1363.49 -4.07396 -5.03917 0
M  V30 14126 N 1356.9 1.35099 -0.81154 0
M  V30 14127 C 1357.83 2.32264 -0.239925 0
M  V30 14128 C 1358.81 1.57708 0.637354 0
M  V30 14129 O 1359.99 1.85751 0.566598 0
M  V30 14130 C 1357.12 3.41931 0.608325 0
M  V30 14131 C 1356.08 4.27659 -0.170869 0
M  V30 14132 C 1355.4 5.28691 0.799398 0
M  V30 14133 C 1356.7 5.0394 -1.37266 0
M  V30 14134 H 1358.4 2.8032 -1.05172 0
M  V30 14135 H 1355.94 1.34773 -0.507185 0
M  V30 14136 H 1357.89 4.08911 1.01832 0
M  V30 14137 H 1356.62 2.92496 1.45306 0
M  V30 14138 H 1355.28 3.62265 -0.562094 0
M  V30 14139 H 1354.93 4.75521 1.63977 0
M  V30 14140 H 1354.63 5.86921 0.282331 0
M  V30 14141 H 1356.15 5.98542 1.20749 0
M  V30 14142 H 1357.56 5.63838 -1.03728 0
M  V30 14143 H 1355.96 5.7169 -1.82456 0
M  V30 14144 H 1357.03 4.34295 -2.15676 0
M  V30 14145 N 1358.37 0.56548 1.47106 0
M  V30 14146 C 1359.65 -0.0215358 1.95588 0
M  V30 14147 C 1360.03 -1.47712 1.50813 0
M  V30 14148 O 1359.38 -2.15814 0.750776 0
M  V30 14149 C 1359.59 0.132552 3.48748 0
M  V30 14150 C 1360.94 -0.00853591 4.24599 0
M  V30 14151 O 1361.96 0.0605142 3.56149 0
M  V30 14152 O 1360.82 -0.158519 5.4627 0
M  V30 14153 H 1357.91 -0.0595011 0.824857 0
M  V30 14154 H 1360.46 0.632586 1.57469 0
M  V30 14155 H 1359.23 1.14511 3.7417 0
M  V30 14156 H 1358.85 -0.558801 3.93654 0
M  V30 14157 N 1359.85 -1.54672 0.302354 0
M  V30 14158 C 1361.27 -1.59519 -0.0509899 0
M  V30 14159 C 1361.47 -1.31931 -1.52304 0
M  V30 14160 O 1360.52 -1.09338 -2.27599 0
M  V30 14161 C 1361.84 -2.98678 0.348168 0
M  V30 14162 C 1363.39 -3.11587 0.297046 0
M  V30 14163 C 1363.86 -4.53057 0.671046 0
M  V30 14164 N 1365.35 -4.58983 0.623633 0
M  V30 14165 C 1366.09 -5.66522 0.885476 0
M  V30 14166 N 1365.58 -6.82092 1.21336 0
M  V30 14167 N 1367.38 -5.56198 0.812448 0
M  V30 14168 H 1359.53 -1.70865 1.2617 0
M  V30 14169 H 1361.79 -0.798099 0.511608 0
M  V30 14170 H 1361.5 -3.23794 1.37297 0
M  V30 14171 H 1361.37 -3.76025 -0.297505 0
M  V30 14172 H 1363.76 -2.86219 -0.718515 0
M  V30 14173 H 1363.84 -2.36392 0.977361 0
M  V30 14174 H 1363.48 -4.79155 1.68442 0
M  V30 14175 H 1363.41 -5.26591 -0.0313537 0
M  V30 14176 H 1365.9 -3.75972 0.381203 0
M  V30 14177 H 1366.22 -7.6003 1.39909 0
M  V30 14178 H 1364.56 -6.83641 1.25141 0
M  V30 14179 H 1367.75 -4.64787 0.555939 0
M  V30 14180 H 1367.92 -6.39924 1.01988 0
M  V30 14181 N 1361.33 -0.0301034 -1.57571 0
M  V30 14182 C 1362.58 0.647042 -1.91462 0
M  V30 14183 C 1362.9 1.72612 -0.907206 0
M  V30 14184 O 1362.17 1.95833 0.0511268 0
M  V30 14185 H 1360.75 0.241988 -0.706718 0
M  V30 14186 H 1363.41 -0.0781385 -1.94743 0
M  V30 14187 H 1362.51 1.09915 -2.92105 0
M  V30 14188 N 1362.81 1.55714 0.243056 0
M  V30 14189 C 1363.76 1.90638 1.30099 0
M  V30 14190 C 1364.73 0.761049 1.47639 0
M  V30 14191 O 1365.91 1.01505 1.61559 0
M  V30 14192 C 1363.05 2.20985 2.65065 0
M  V30 14193 C 1362.16 3.48343 2.55501 0
M  V30 14194 C 1361.3 3.68241 3.82847 0
M  V30 14195 C 1360.34 4.89187 3.67916 0
M  V30 14196 N 1359.47 5.05586 4.87162 0
M  V30 14197 H 1364.31 2.80857 0.996155 0
M  V30 14198 H 1361.85 1.39027 0.480619 0
M  V30 14199 H 1363.81 2.36585 3.43632 0
M  V30 14200 H 1362.44 1.33966 2.93689 0
M  V30 14201 H 1361.49 3.41054 1.68483 0
M  V30 14202 H 1362.8 4.37057 2.4038 0
M  V30 14203 H 1361.96 3.83822 4.69857 0
M  V30 14204 H 1360.7 2.77768 4.00869 0
M  V30 14205 H 1359.7 4.7358 2.79289 0
M  V30 14206 H 1360.93 5.81124 3.51385 0
M  V30 14207 H 1358.87 4.18051 5.05538 0
M  V30 14208 H 1358.79 5.88395 4.74686 0
M  V30 14209 H 1360.06 5.25582 5.7566 0
M  V30 14210 N 1364.29 -0.50888 1.49158 0
M  V30 14211 C 1365.51 -1.29245 1.62205 0
M  V30 14212 C 1365.94 -1.85845 0.29041 0
M  V30 14213 O 1365.29 -1.6547 -0.740906 0
M  V30 14214 C 1365.34 -2.40415 2.68762 0
M  V30 14215 O 1364.45 -3.44048 2.27387 0
M  V30 14216 H 1363.79 -0.381898 0.543185 0
M  V30 14217 H 1366.32 -0.610076 1.95293 0
M  V30 14218 H 1366.33 -2.86295 2.90688 0
M  V30 14219 H 1365 -1.98584 3.65427 0
M  V30 14220 H 1363.58 -3.04141 2.1576 0
M  V30 14221 N 1365.76 -1.381 -0.759346 0
M  V30 14222 C 1366.73 -1.34674 -1.8546 0
M  V30 14223 C 1367.73 -0.248351 -1.58871 0
M  V30 14224 O 1368.92 -0.504915 -1.66722 0
M  V30 14225 C 1366.05 -1.0952 -3.22828 0
M  V30 14226 H 1367.24 -2.3211 -1.89908 0
M  V30 14227 H 1364.8 -1.2331 -0.960435 0
M  V30 14228 H 1365.53 -0.126664 -3.24053 0
M  V30 14229 H 1365.32 -1.89037 -3.43522 0
M  V30 14230 H 1366.81 -1.09804 -4.02906 0
M  V30 14231 N 1367.24 0.986894 -1.22875 0
M  V30 14232 C 1368.49 1.72152 -1.05103 0
M  V30 14233 C 1368.8 1.91185 0.413248 0
M  V30 14234 O 1370.01 2.62031 0.710759 0
M  V30 14235 C 1368.47 3.09771 -1.8322 0
M  V30 14236 C 1368.07 2.98648 -3.33936 0
M  V30 14237 C 1369.82 3.87238 -1.73917 0
M  V30 14238 C 1367.73 4.31459 -4.04471 0
M  V30 14239 H 1366.66 0.645498 -0.389677 0
M  V30 14240 H 1369.31 1.10125 -1.46781 0
M  V30 14241 H 1367.69 3.72515 -1.34345 0
M  V30 14242 H 1368.86 2.45033 -3.9025 0
M  V30 14243 H 1367.18 2.34661 -3.43982 0
M  V30 14244 H 1369.77 4.85549 -2.23933 0
M  V30 14245 H 1370.12 4.1036 -0.700711 0
M  V30 14246 H 1370.65 3.31183 -2.20369 0
M  V30 14247 H 1367.39 4.13534 -5.08596 0
M  V30 14248 H 1366.91 4.84964 -3.52944 0
M  V30 14249 H 1368.59 5.00179 -4.10403 0
M  V30 14250 N 1368.72 1.0394 1.18466 0
M  V30 14251 C 1369.65 0.650182 2.24265 0
M  V30 14252 C 1370.63 -0.345968 1.66545 0
M  V30 14253 O 1371.82 -0.226348 1.92876 0
M  V30 14254 C 1368.95 0.0110451 3.47298 0
M  V30 14255 C 1367.9 0.930599 4.17761 0
M  V30 14256 C 1367.23 0.156005 5.34472 0
M  V30 14257 C 1368.53 2.24913 4.71393 0
M  V30 14258 H 1370.22 1.53465 2.57078 0
M  V30 14259 H 1367.77 0.739343 1.23571 0
M  V30 14260 H 1369.72 -0.272959 4.20515 0
M  V30 14261 H 1368.44 -0.908288 3.13716 0
M  V30 14262 H 1367.1 1.19897 3.4644 0
M  V30 14263 H 1366.75 -0.765695 4.97138 0
M  V30 14264 H 1366.45 0.768606 5.82551 0
M  V30 14265 H 1367.97 -0.121011 6.1048 0
M  V30 14266 H 1369.39 2.02592 5.36311 0
M  V30 14267 H 1367.79 2.81459 5.30001 0
M  V30 14268 H 1368.86 2.8965 3.88884 0
M  V30 14269 N 1370.2 -1.34667 0.818693 0
M  V30 14270 C 1371.43 -2.02348 0.417002 0
M  V30 14271 C 1371.84 -1.61813 -0.980464 0
M  V30 14272 O 1371.18 -0.817232 -1.64521 0
M  V30 14273 C 1371.24 -3.56861 0.434779 0
M  V30 14274 C 1370.91 -4.20704 1.78485 0
M  V30 14275 C 1371.9 -4.41524 2.74504 0
M  V30 14276 C 1369.59 -4.57566 2.07217 0
M  V30 14277 C 1371.58 -4.98324 3.97431 0
M  V30 14278 C 1369.27 -5.14078 3.30405 0
M  V30 14279 C 1370.27 -5.344 4.2533 0
M  V30 14280 O 1369.95 -5.89717 5.46342 0
M  V30 14281 H 1369.69 -0.655279 0.16609 0
M  V30 14282 H 1372.24 -1.73011 1.10708 0
M  V30 14283 H 1370.47 -3.8544 -0.311973 0
M  V30 14284 H 1372.16 -4.05864 0.0537258 0
M  V30 14285 H 1372.93 -4.13414 2.53601 0
M  V30 14286 H 1368.8 -4.41054 1.34135 0
M  V30 14287 H 1372.35 -5.14102 4.71534 0
M  V30 14288 H 1368.25 -5.41616 3.51174 0
M  V30 14289 H 1369.01 -6.08155 5.47804 0
M  V30 14290 N 1371.68 -0.573274 -1.46804 0
M  V30 14291 C 1372.92 -0.0553432 -2.02724 0
M  V30 14292 C 1373.26 1.29753 -1.44492 0
M  V30 14293 O 1372.53 1.84804 -0.606455 0
M  V30 14294 C 1372.81 0.0205511 -3.60094 0
M  V30 14295 C 1372.67 -1.36055 -4.2873 0
M  V30 14296 C 1373.99 0.725944 -4.34071 0
M  V30 14297 H 1371.1 -0.0215858 -0.736684 0
M  V30 14298 H 1373.75 -0.738657 -1.75054 0
M  V30 14299 H 1371.9 0.602481 -3.838 0
M  V30 14300 H 1373.57 -1.98692 -4.16316 0
M  V30 14301 H 1371.81 -1.93087 -3.88458 0
M  V30 14302 H 1372.48 -1.26001 -5.37427 0
M  V30 14303 H 1374.96 0.231677 -4.15455 0
M  V30 14304 H 1373.83 0.74805 -5.43779 0
M  V30 14305 H 1374.1 1.78536 -4.04447 0
M  V30 14306 N 1373.15 1.5451 -0.310553 0
M  V30 14307 C 1374.1 2.23871 0.561277 0
M  V30 14308 C 1375.07 1.22475 1.12202 0
M  V30 14309 O 1376.26 1.51121 1.16477 0
M  V30 14310 C 1373.4 2.99029 1.72267 0
M  V30 14311 C 1372.51 4.15218 1.19241 0
M  V30 14312 C 1371.64 4.77935 2.31843 0
M  V30 14313 C 1370.68 5.86251 1.75999 0
M  V30 14314 N 1369.82 6.42885 2.82212 0
M  V30 14315 H 1374.66 2.97977 -0.0367998 0
M  V30 14316 H 1372.2 1.4707 -0.0299317 0
M  V30 14317 H 1374.16 3.40842 2.40588 0
M  V30 14318 H 1372.79 2.27281 2.29223 0
M  V30 14319 H 1371.84 3.78279 0.401148 0
M  V30 14320 H 1373.15 4.93225 0.743675 0
M  V30 14321 H 1372.3 5.2265 3.08094 0
M  V30 14322 H 1371.04 3.99281 2.80047 0
M  V30 14323 H 1370.05 5.40952 0.982415 0
M  V30 14324 H 1371.27 6.66795 1.28688 0
M  V30 14325 H 1369.22 5.67109 3.29732 0
M  V30 14326 H 1369.14 7.16267 2.41864 0
M  V30 14327 H 1370.4 6.92256 3.58332 0
M  V30 14328 N 1374.63 0.0384594 1.57553 0
M  V30 14329 C 1375.86 -0.651613 1.96898 0
M  V30 14330 C 1376.28 -1.64328 0.915308 0
M  V30 14331 O 1375.64 -1.80883 -0.122824 0
M  V30 14332 C 1375.69 -1.32613 3.3533 0
M  V30 14333 O 1374.79 -2.44159 3.32355 0
M  V30 14334 H 1374.13 -0.170441 0.641752 0
M  V30 14335 H 1376.66 0.103086 2.0434 0
M  V30 14336 H 1376.67 -1.68076 3.71772 0
M  V30 14337 H 1375.35 -0.599275 4.1156 0
M  V30 14338 H 1373.93 -2.10738 3.07642 0
M  V30 14339 N 1376.11 -1.55841 -0.234795 0
M  V30 14340 C 1377.04 -1.94344 -1.29432 0
M  V30 14341 C 1378.02 -0.809912 -1.49581 0
M  V30 14342 O 1379.21 -1.07117 -1.61986 0
M  V30 14343 C 1376.34 -2.24866 -2.64675 0
M  V30 14344 C 1375.29 -3.40584 -2.59203 0
M  V30 14345 C 1374.62 -3.56678 -3.98353 0
M  V30 14346 C 1375.92 -4.75935 -2.15135 0
M  V30 14347 H 1377.61 -2.83096 -0.97454 0
M  V30 14348 H 1375.16 -1.36205 -0.467355 0
M  V30 14349 H 1377.11 -2.50392 -3.38942 0
M  V30 14350 H 1375.83 -1.32953 -2.98314 0
M  V30 14351 H 1374.49 -3.15087 -1.87393 0
M  V30 14352 H 1374.14 -2.62164 -4.29277 0
M  V30 14353 H 1373.84 -4.34503 -3.95577 0
M  V30 14354 H 1375.37 -3.84538 -4.74302 0
M  V30 14355 H 1376.78 -5.00753 -2.7914 0
M  V30 14356 H 1375.18 -5.56949 -2.23446 0
M  V30 14357 H 1376.25 -4.72182 -1.10328 0
M  V30 14358 N 1377.59 0.500963 -1.49426 0
M  V30 14359 C 1378.52 1.61114 -1.69011 0
M  V30 14360 C 1379.5 1.61341 -0.538813 0
M  V30 14361 O 1380.69 1.78081 -0.77466 0
M  V30 14362 C 1377.82 2.99598 -1.75666 0
M  V30 14363 C 1376.77 3.14236 -2.90585 0
M  V30 14364 C 1376.1 4.54071 -2.82354 0
M  V30 14365 C 1377.4 2.94258 -4.3152 0
M  V30 14366 H 1379.09 1.44978 -2.61957 0
M  V30 14367 H 1376.64 0.69603 -1.26061 0
M  V30 14368 H 1378.59 3.77163 -1.87953 0
M  V30 14369 H 1377.31 3.16822 -0.793186 0
M  V30 14370 H 1375.97 2.39096 -2.779 0
M  V30 14371 H 1375.62 4.68172 -1.83914 0
M  V30 14372 H 1375.32 4.64806 -3.59485 0
M  V30 14373 H 1376.84 5.33696 -2.96649 0
M  V30 14374 H 1378.26 3.61592 -4.44886 0
M  V30 14375 H 1376.65 3.16464 -5.09873 0
M  V30 14376 H 1377.72 1.90383 -4.45962 0
M  V30 14377 N 1379.07 1.38501 0.752011 0
M  V30 14378 C 1380.31 1.36 1.51246 0
M  V30 14379 C 1380.67 -0.049305 1.92337 0
M  V30 14380 O 1379.96 -1.01227 1.62676 0
M  V30 14381 C 1380.16 2.25111 2.77596 0
M  V30 14382 C 1379.98 3.74566 2.48858 0
M  V30 14383 C 1378.75 4.43582 2.41999 0
M  V30 14384 C 1380.95 4.6696 2.1553 0
M  V30 14385 N 1378.93 5.78465 2.05553 0
M  V30 14386 C 1380.31 5.90366 1.89388 0
M  V30 14387 C 1382.36 4.55148 2.01853 0
M  V30 14388 C 1381.06 7.03283 1.50948 0
M  V30 14389 C 1383.09 5.6797 1.64815 0
M  V30 14390 C 1382.45 6.90439 1.39546 0
M  V30 14391 H 1378.55 0.552942 0.552973 0
M  V30 14392 H 1381.13 1.73902 0.875559 0
M  V30 14393 H 1379.31 1.89395 3.39093 0
M  V30 14394 H 1381.04 2.13725 3.43662 0
M  V30 14395 H 1377.79 3.96816 2.58523 0
M  V30 14396 H 1378.22 6.498 1.8997 0
M  V30 14397 H 1382.86 3.61015 2.20063 0
M  V30 14398 H 1380.58 7.97333 1.31477 0
M  V30 14399 H 1384.16 5.60811 1.54862 0
M  V30 14400 H 1383.04 7.7626 1.11313 0
M  V30 14401 N 1380.55 -0.980364 1.23396 0
M  V30 14402 C 1381.77 -1.75689 1.09275 0
M  V30 14403 C 1382.19 -1.85418 -0.355773 0
M  V30 14404 O 1381.55 -1.33337 -1.24609 0
M  V30 14405 C 1381.6 -3.18378 1.71223 0
M  V30 14406 O 1381.32 -3.09154 3.10411 0
M  V30 14407 C 1382.82 -4.12425 1.62545 0
M  V30 14408 H 1380.04 -0.551354 0.382427 0
M  V30 14409 H 1382.58 -1.23169 1.63247 0
M  V30 14410 H 1380.74 -3.67925 1.21285 0
M  V30 14411 H 1381.15 -3.9898 3.40464 0
M  V30 14412 H 1382.63 -5.1025 2.10592 0
M  V30 14413 H 1383.1 -4.35296 0.584275 0
M  V30 14414 H 1383.71 -3.68782 2.1185 0
M  V30 14415 N 1382.02 -1.04567 -1.17913 0
M  V30 14416 C 1382.93 -0.651674 -2.25367 0
M  V30 14417 C 1383.95 0.32437 -1.7095 0
M  V30 14418 O 1385.13 0.178039 -2.00612 0
M  V30 14419 C 1382.19 -0.0259452 -3.4669 0
M  V30 14420 C 1381.25 -1.05163 -4.1622 0
M  V30 14421 C 1380.48 -0.45567 -5.31751 0
M  V30 14422 O 1380.71 0.736698 -5.65623 0
M  V30 14423 O 1379.64 -1.18684 -5.90083 0
M  V30 14424 H 1383.47 -1.54704 -2.61344 0
M  V30 14425 H 1381.05 -0.816852 -1.25092 0
M  V30 14426 H 1382.93 0.322126 -4.20167 0
M  V30 14427 H 1381.61 0.843165 -3.12526 0
M  V30 14428 H 1380.52 -1.45159 -3.44789 0
M  V30 14429 H 1381.85 -1.89168 -4.54397 0
M  V30 14430 N 1383.5 1.34231 -0.825823 0
M  V30 14431 C 1384.73 2.02417 -0.428348 0
M  V30 14432 C 1385.14 1.62181 0.966573 0
M  V30 14433 O 1384.5 0.828691 1.62601 0
M  V30 14434 C 1384.55 3.57678 -0.524271 0
M  V30 14435 O 1384.27 3.96458 -1.86422 0
M  V30 14436 C 1385.77 4.43132 -0.122069 0
M  V30 14437 H 1382.99 0.648699 -0.171554 0
M  V30 14438 H 1385.54 1.71443 -1.11478 0
M  V30 14439 H 1383.69 3.87232 0.114112 0
M  V30 14440 H 1384.11 4.91147 -1.84051 0
M  V30 14441 H 1385.58 5.51477 -0.240264 0
M  V30 14442 H 1386.06 4.29139 0.934705 0
M  V30 14443 H 1386.66 4.18912 -0.734366 0
M  V30 14444 N 1384.98 0.581051 1.46498 0
M  V30 14445 C 1386.23 0.0659956 2.02392 0
M  V30 14446 C 1386.55 -1.29329 1.45273 0
M  V30 14447 O 1385.81 -1.86047 0.607041 0
M  V30 14448 C 1386.11 -0.0514774 3.57363 0
M  V30 14449 C 1385.77 1.24 4.33514 0
M  V30 14450 C 1384.44 1.59383 4.54038 0
M  V30 14451 C 1386.79 2.09473 4.77253 0
M  V30 14452 C 1384.12 2.8004 5.15552 0
M  V30 14453 C 1386.47 3.29355 5.401 0
M  V30 14454 C 1385.13 3.65022 5.58852 0
M  V30 14455 H 1384.4 0.0241495 0.740606 0
M  V30 14456 H 1387.05 0.757354 1.75887 0
M  V30 14457 H 1385.35 -0.825955 3.82995 0
M  V30 14458 H 1387.05 -0.465726 3.98286 0
M  V30 14459 H 1383.64 0.954547 4.17835 0
M  V30 14460 H 1387.83 1.83441 4.61154 0
M  V30 14461 H 1383.08 3.07814 5.28262 0
M  V30 14462 H 1387.26 3.95855 5.7295 0
M  V30 14463 H 1384.88 4.58607 6.06287 0
M  V30 14464 N 1386.46 -1.54343 0.318742 0
M  V30 14465 C 1387.39 -2.20392 -0.591833 0
M  V30 14466 C 1388.37 -1.17931 -1.11942 0
M  V30 14467 O 1389.55 -1.4665 -1.18432 0
M  V30 14468 C 1386.68 -2.8618 -1.81159 0
M  V30 14469 C 1385.73 -4.02319 -1.41568 0
M  V30 14470 S 1386.56 -5.33551 -0.456481 0
M  V30 14471 C 1387.71 -6.02831 -1.68363 0
M  V30 14472 H 1387.95 -2.97284 -0.0307625 0
M  V30 14473 H 1385.48 -1.54057 0.102835 0
M  V30 14474 H 1387.44 -3.24707 -2.51148 0
M  V30 14475 H 1386.1 -2.091 -2.34384 0
M  V30 14476 H 1385.29 -4.47197 -2.32445 0
M  V30 14477 H 1384.89 -3.65441 -0.795535 0
M  V30 14478 H 1387.19 -6.24716 -2.62175 0
M  V30 14479 H 1388.13 -6.96488 -1.27709 0
M  V30 14480 H 1388.54 -5.32682 -1.86841 0
M  V30 14481 N 1387.94 -0.0468143 -1.5753 0
M  V30 14482 C 1388.88 0.946945 -2.12452 0
M  V30 14483 C 1389.88 1.32515 -1.05527 0
M  V30 14484 O 1391.08 1.30532 -1.23941 0
M  V30 14485 H 1387.46 0.323223 -0.678993 0
M  V30 14486 H 1389.43 0.45858 -2.94855 0
M  V30 14487 C 1388.18 2.21402 -2.68098 0
M  V30 14488 H 1387.5 1.93178 -3.50032 0
M  V30 14489 H 1388.94 2.89105 -3.10152 0
M  V30 14490 C 1387.4 2.95576 -1.61668 0
M  V30 14491 O 1387.93 3.88353 -1.02689 0
M  V30 14492 N 1386.14 2.58228 -1.33291 0
M  V30 14493 H 1385.68 1.82858 -1.8144 0
M  V30 14494 H 1385.64 3.08164 -0.623092 0
M  V30 14495 N 1389.41 1.55964 0.226527 0
M  V30 14496 C 1390.36 1.92007 1.28069 0
M  V30 14497 C 1391.33 0.776666 1.46823 0
M  V30 14498 O 1392.52 1.03213 1.60474 0
M  V30 14499 C 1389.66 2.23784 2.62707 0
M  V30 14500 C 1388.77 3.51034 2.51792 0
M  V30 14501 C 1387.9 3.72281 3.7892 0
M  V30 14502 C 1386.94 4.93062 3.62707 0
M  V30 14503 N 1386.08 5.10725 4.81772 0
M  V30 14504 H 1390.92 2.81898 0.96631 0
M  V30 14505 H 1388.46 1.39529 0.465847 0
M  V30 14506 H 1390.42 2.40217 3.41104 0
M  V30 14507 H 1389.05 1.37073 2.92251 0
M  V30 14508 H 1388.1 3.42822 1.64856 0
M  V30 14509 H 1389.41 4.39582 2.35731 0
M  V30 14510 H 1388.56 3.88783 4.6576 0
M  V30 14511 H 1387.3 2.82004 3.97901 0
M  V30 14512 H 1386.31 4.76515 2.7425 0
M  V30 14513 H 1387.53 5.84819 3.45201 0
M  V30 14514 H 1385.48 4.2339 5.01076 0
M  V30 14515 H 1385.4 5.93397 4.68419 0
M  V30 14516 H 1386.66 5.31658 5.70053 0
M  V30 14517 N 1390.89 -0.493031 1.4969 0
M  V30 14518 C 1391.8 -1.61991 1.69694 0
M  V30 14519 C 1392.82 -1.64061 0.579641 0
M  V30 14520 O 1393.99 -1.82335 0.855323 0
M  V30 14521 C 1391.06 -2.98323 1.76648 0
M  V30 14522 C 1390.12 -3.06816 3.00271 0
M  V30 14523 C 1389.35 -4.36644 3.06883 0
M  V30 14524 O 1389.58 -5.25901 2.20872 0
M  V30 14525 O 1388.51 -4.50275 3.99419 0
M  V30 14526 H 1392.34 -1.48042 2.65174 0
M  V30 14527 H 1389.92 -0.670182 1.33525 0
M  V30 14528 H 1391.8 -3.79335 1.83529 0
M  V30 14529 H 1390.48 -3.12517 0.843482 0
M  V30 14530 H 1389.39 -2.24962 2.98903 0
M  V30 14531 H 1390.72 -2.97551 3.92077 0
M  V30 14532 N 1392.37 -1.38898 -0.744656 0
M  V30 14533 C 1393.32 -1.36974 -1.87992 0
M  V30 14534 C 1394.31 -0.254277 -1.67481 0
M  V30 14535 O 1395.52 -0.423797 -1.7494 0
M  V30 14536 H 1391.89 -0.427508 -0.618661 0
M  V30 14537 H 1393.86 -2.32754 -1.86731 0
M  V30 14538 C 1392.61 -1.22054 -3.25573 0
M  V30 14539 H 1391.94 -2.07152 -3.41947 0
M  V30 14540 H 1393.38 -1.24763 -4.05228 0
M  V30 14541 C 1391.84 0.0718413 -3.36823 0
M  V30 14542 O 1392.37 1.0456 -3.87853 0
M  V30 14543 N 1390.57 0.131672 -2.90302 0
M  V30 14544 H 1390.12 -0.661428 -2.48964 0
M  V30 14545 H 1390.08 0.995936 -2.98209 0
M  V30 14546 N 1393.85 0.973806 -1.23914 0
M  V30 14547 C 1394.78 2.07003 -0.983982 0
M  V30 14548 C 1395.79 1.62739 0.0443893 0
M  V30 14549 O 1396.98 1.77465 -0.191927 0
M  V30 14550 C 1394.08 3.35737 -0.461937 0
M  V30 14551 C 1393.26 4.08939 -1.55202 0
M  V30 14552 C 1392.31 5.15947 -1.03369 0
M  V30 14553 O 1391.34 5.42461 -1.72409 0
M  V30 14554 N 1392.54 5.80343 0.135067 0
M  V30 14555 H 1395.31 2.29468 -1.92781 0
M  V30 14556 H 1392.87 1.14098 -1.14861 0
M  V30 14557 H 1394.86 4.04576 -0.100074 0
M  V30 14558 H 1393.43 3.10189 0.387467 0
M  V30 14559 H 1392.65 3.34462 -2.08635 0
M  V30 14560 H 1393.94 4.5461 -2.2849 0
M  V30 14561 H 1393.34 5.61196 0.71241 0
M  V30 14562 H 1391.89 6.50326 0.438132 0
M  V30 14563 N 1395.33 1.05191 1.17357 0
M  V30 14564 C 1396.27 0.646796 2.23426 0
M  V30 14565 C 1397.27 -0.331918 1.66116 0
M  V30 14566 O 1398.47 -0.197982 1.78908 0
M  V30 14567 H 1394.85 0.190988 0.727343 0
M  V30 14568 H 1396.82 1.55152 2.54893 0
M  V30 14569 C 1395.57 0.037505 3.4768 0
M  V30 14570 H 1394.89 0.781686 3.92084 0
M  V30 14571 H 1396.33 -0.20858 4.23487 0
M  V30 14572 C 1394.79 -1.21581 3.14197 0
M  V30 14573 O 1395.32 -2.3052 3.28973 0
M  V30 14574 N 1393.53 -1.11346 2.68422 0
M  V30 14575 H 1393.07 -0.226943 2.56598 0
M  V30 14576 H 1393.03 -1.95291 2.46392 0
M  V30 14577 N 1396.8 -1.33791 0.83293 0
M  V30 14578 C 1397.75 -2.26795 0.234069 0
M  V30 14579 C 1398.74 -1.48991 -0.60749 0
M  V30 14580 O 1399.93 -1.70907 -0.46043 0
M  V30 14581 C 1397.06 -3.38107 -0.594863 0
M  V30 14582 C 1396.15 -4.23315 0.257877 0
M  V30 14583 N 1396.54 -4.87899 1.33373 0
M  V30 14584 C 1394.83 -4.45978 0.0438997 0
M  V30 14585 C 1395.54 -5.51278 1.85655 0
M  V30 14586 N 1394.51 -5.31103 1.15892 0
M  V30 14587 H 1398.31 -2.7424 1.05688 0
M  V30 14588 H 1395.83 -1.47627 0.676767 0
M  V30 14589 H 1397.82 -4.03716 -1.04014 0
M  V30 14590 H 1396.48 -2.92212 -1.41571 0
M  V30 14591 H 1397.5 -4.88624 1.71659 0
M  V30 14592 H 1394.17 -4.10818 -0.743985 0
M  V30 14593 H 1395.56 -6.12723 2.75717 0
M  V30 14594 N 1398.28 -0.588812 -1.46187 0
M  V30 14595 C 1399.51 -0.0806571 -2.07243 0
M  V30 14596 C 1399.93 1.21766 -1.43369 0
M  V30 14597 O 1399.29 1.73694 -0.51964 0
M  V30 14598 C 1399.34 0.065267 -3.60541 0
M  V30 14599 O 1398.44 1.12026 -3.96893 0
M  V30 14600 H 1397.78 -0.0655622 -0.660755 0
M  V30 14601 H 1400.31 -0.813489 -1.87733 0
M  V30 14602 H 1400.32 0.269494 -4.07109 0
M  V30 14603 H 1399 -0.88284 -4.06422 0
M  V30 14604 H 1397.58 0.894 -3.62025 0
M  V30 14605 N 1399.76 1.54172 -0.326923 0
M  V30 14606 C 1400.99 2.04747 0.276107 0
M  V30 14607 C 1401.4 1.20251 1.4607 0
M  V30 14608 O 1400.74 0.226753 1.82295 0
M  V30 14609 C 1400.8 3.51143 0.770651 0
M  V30 14610 C 1400.47 4.56066 -0.292079 0
M  V30 14611 C 1401.46 5.07487 -1.12928 0
M  V30 14612 C 1399.15 5.00358 -0.441232 0
M  V30 14613 C 1401.14 6.01767 -2.10133 0
M  V30 14614 C 1398.83 5.94452 -1.4167 0
M  V30 14615 C 1399.83 6.45042 -2.24521 0
M  V30 14616 O 1399.52 7.37288 -3.20409 0
M  V30 14617 H 1399.25 0.673322 0.0601144 0
M  V30 14618 H 1401.8 1.99899 -0.472176 0
M  V30 14619 H 1400.03 3.53399 1.5699 0
M  V30 14620 H 1401.72 3.84775 1.2924 0
M  V30 14621 H 1402.49 4.74044 -1.02505 0
M  V30 14622 H 1398.37 4.60593 0.193767 0
M  V30 14623 H 1401.91 6.41178 -2.74839 0
M  V30 14624 H 1397.81 6.27311 -1.52155 0
M  V30 14625 H 1398.58 7.55171 -3.15687 0
M  V30 14626 N 1401.24 0.0551678 1.57503 0
M  V30 14627 C 1402.46 -0.630692 1.97578 0
M  V30 14628 C 1402.89 -1.63348 0.932686 0
M  V30 14629 O 1402.25 -1.81004 -0.103632 0
M  V30 14630 C 1402.29 -1.29049 3.36718 0
M  V30 14631 O 1401.4 -2.40621 3.34926 0
M  V30 14632 H 1400.74 -0.163625 0.643524 0
M  V30 14633 H 1403.27 0.124753 2.04219 0
M  V30 14634 H 1403.28 -1.64124 3.73534 0
M  V30 14635 H 1401.95 -0.55559 4.12172 0
M  V30 14636 H 1400.53 -2.07463 3.0986 0
M  V30 14637 N 1402.72 -1.56081 -0.218252 0
M  V30 14638 C 1403.65 -1.95706 -1.27364 0
M  V30 14639 C 1404.63 -0.825731 -1.48713 0
M  V30 14640 O 1405.81 -1.08829 -1.60841 0
M  V30 14641 C 1402.94 -2.2766 -2.62275 0
M  V30 14642 C 1401.9 -3.43314 -2.55576 0
M  V30 14643 C 1401.22 -3.60883 -3.94547 0
M  V30 14644 C 1402.52 -4.7819 -2.10075 0
M  V30 14645 H 1404.22 -2.84113 -0.944459 0
M  V30 14646 H 1401.76 -1.36693 -0.452882 0
M  V30 14647 H 1403.72 -2.53973 -3.36268 0
M  V30 14648 H 1402.44 -1.3611 -2.96887 0
M  V30 14649 H 1401.1 -3.17056 -1.8404 0
M  V30 14650 H 1400.75 -2.66703 -4.26472 0
M  V30 14651 H 1400.45 -4.38674 -3.90946 0
M  V30 14652 H 1401.97 -3.89547 -4.70197 0
M  V30 14653 H 1403.38 -5.03686 -2.73813 0
M  V30 14654 H 1401.78 -5.59287 -2.17527 0
M  V30 14655 H 1402.85 -4.73325 -1.05314 0
M  V30 14656 N 1404.2 0.485086 -1.49949 0
M  V30 14657 C 1405.14 1.5848 -1.67788 0
M  V30 14658 C 1406.11 1.57776 -0.519216 0
M  V30 14659 O 1407.3 1.75521 -0.748141 0
M  V30 14660 C 1404.44 2.9654 -1.76516 0
M  V30 14661 C 1403.55 3.07139 -3.03792 0
M  V30 14662 C 1402.69 4.36029 -3.03401 0
M  V30 14663 C 1401.72 4.40318 -4.2519 0
M  V30 14664 N 1400.86 5.60659 -4.22618 0
M  V30 14665 H 1405.7 1.42575 -2.6168 0
M  V30 14666 H 1403.24 0.693426 -1.29731 0
M  V30 14667 H 1405.2 3.76583 -1.79557 0
M  V30 14668 H 1403.83 3.11112 -0.860764 0
M  V30 14669 H 1402.88 2.20057 -3.10289 0
M  V30 14670 H 1404.19 3.06167 -3.9378 0
M  V30 14671 H 1403.34 5.24407 -3.05094 0
M  V30 14672 H 1402.08 4.39588 -2.11219 0
M  V30 14673 H 1401.09 3.50339 -4.23725 0
M  V30 14674 H 1402.31 4.38461 -5.18583 0
M  V30 14675 H 1400.26 5.6503 -3.33282 0
M  V30 14676 H 1400.18 5.61371 -5.06359 0
M  V30 14677 H 1401.44 6.51201 -4.28436 0
M  V30 14678 N 1405.67 1.39291 0.737279 0
M  V30 14679 C 1406.9 1.39844 1.53162 0
M  V30 14680 C 1407.32 -0.00568546 1.88099 0
M  V30 14681 O 1406.68 -0.992085 1.51748 0
M  V30 14682 C 1406.73 2.27577 2.79716 0
M  V30 14683 O 1405.83 1.70408 3.75546 0
M  V30 14684 H 1405.17 0.476314 0.462624 0
M  V30 14685 H 1407.7 1.83258 0.909819 0
M  V30 14686 H 1407.71 2.42009 3.28475 0
M  V30 14687 H 1406.39 3.29621 2.53619 0
M  V30 14688 H 1404.97 1.65206 3.34307 0
M  V30 14689 N 1407.15 -0.967221 1.24429 0
M  V30 14690 C 1408.38 -1.75053 1.11226 0
M  V30 14691 C 1408.8 -1.85162 -0.331139 0
M  V30 14692 O 1408.16 -1.32288 -1.23974 0
M  V30 14693 C 1408.21 -3.14882 1.75733 0
M  V30 14694 O 1407.31 -3.99371 1.02842 0
M  V30 14695 H 1406.65 -0.538078 0.389061 0
M  V30 14696 H 1409.18 -1.21325 1.64746 0
M  V30 14697 H 1409.19 -3.65402 1.81509 0
M  V30 14698 H 1407.87 -3.06839 2.80754 0
M  V30 14699 H 1406.44 -3.57854 1.04856 0
M  V30 14700 N 1408.63 -1.05812 -1.16797 0
M  V30 14701 C 1409.59 -0.668766 -2.19226 0
M  V30 14702 C 1410.59 0.28299 -1.5829 0
M  V30 14703 O 1411.78 0.0660233 -1.74075 0
M  V30 14704 C 1408.91 0.0167379 -3.40896 0
M  V30 14705 H 1410.11 -1.57543 -2.55187 0
M  V30 14706 H 1407.66 -0.852753 -1.30988 0
M  V30 14707 H 1408.4 0.936382 -3.10487 0
M  V30 14708 H 1408.18 -0.667576 -3.86375 0
M  V30 14709 H 1409.67 0.275041 -4.16693 0
M  V30 14710 N 1410.11 1.33347 -0.840014 0
M  V30 14711 C 1411.33 2.02485 -0.448856 0
M  V30 14712 C 1411.76 1.62781 0.942543 0
M  V30 14713 O 1411.12 0.82099 1.61646 0
M  V30 14714 C 1411.16 3.55928 -0.578582 0
M  V30 14715 O 1410.27 4.10507 0.394695 0
M  V30 14716 H 1409.61 0.63848 -0.182317 0
M  V30 14717 H 1412.14 1.70221 -1.13516 0
M  V30 14718 H 1412.15 4.05391 -0.460653 0
M  V30 14719 H 1410.82 3.8417 -1.5933 0
M  V30 14720 H 1409.4 3.72164 0.234227 0
M  V30 14721 N 1411.59 0.596556 1.45873 0
M  V30 14722 C 1412.83 0.0874583 2.02311 0
M  V30 14723 C 1413.16 -1.27781 1.46636 0
M  V30 14724 O 1412.42 -1.85393 0.62674 0
M  V30 14725 C 1412.71 -0.0135714 3.57397 0
M  V30 14726 C 1412.38 1.28591 4.32175 0
M  V30 14727 C 1411.04 1.6419 4.52322 0
M  V30 14728 C 1413.39 2.14523 4.75005 0
M  V30 14729 C 1410.72 2.85493 5.12553 0
M  V30 14730 C 1413.07 3.35065 5.36577 0
M  V30 14731 C 1411.74 3.70929 5.54949 0
M  V30 14732 H 1411.01 0.0320033 0.740309 0
M  V30 14733 H 1413.66 0.775967 1.75074 0
M  V30 14734 H 1411.96 -0.785287 3.8385 0
M  V30 14735 H 1413.66 -0.423456 3.98758 0
M  V30 14736 H 1410.25 0.99881 4.16799 0
M  V30 14737 H 1414.43 1.88321 4.59183 0
M  V30 14738 H 1409.69 3.134 5.24967 0
M  V30 14739 H 1413.86 4.01909 5.6872 0
M  V30 14740 H 1411.49 4.65011 6.01389 0
M  V30 14741 N 1413.06 -1.53996 0.335095 0
M  V30 14742 C 1414.01 -2.26221 -0.541007 0
M  V30 14743 C 1415.01 -1.28053 -1.109 0
M  V30 14744 O 1416.21 -1.4579 -1.05571 0
M  V30 14745 H 1412.59 -0.726775 -0.193136 0
M  V30 14746 H 1414.56 -2.98263 0.0902792 0
M  V30 14747 C 1413.31 -3.04173 -1.68445 0
M  V30 14748 H 1412.63 -3.79537 -1.25665 0
M  V30 14749 H 1414.07 -3.57937 -2.27282 0
M  V30 14750 C 1412.53 -2.13162 -2.6089 0
M  V30 14751 O 1413.06 -1.7221 -3.62914 0
M  V30 14752 N 1411.26 -1.78414 -2.29384 0
M  V30 14753 H 1410.81 -2.11914 -1.46458 0
M  V30 14754 H 1410.77 -1.178 -2.91497 0
M  V30 14755 N 1414.54 -0.0635198 -1.57472 0
M  V30 14756 C 1415.79 0.608384 -1.93459 0
M  V30 14757 C 1416.12 1.6976 -0.943141 0
M  V30 14758 O 1415.4 1.94478 0.0289567 0
M  V30 14759 C 1415.68 1.19302 -3.39763 0
M  V30 14760 C 1415.53 0.11102 -4.49663 0
M  V30 14761 C 1416.85 2.101 -3.86712 0
M  V30 14762 H 1413.97 0.219688 -0.703496 0
M  V30 14763 H 1416.61 -0.127803 -1.8957 0
M  V30 14764 H 1414.76 1.82044 -3.43209 0
M  V30 14765 H 1416.43 -0.521606 -4.58342 0
M  V30 14766 H 1414.68 -0.559408 -4.30178 0
M  V30 14767 H 1415.35 0.560332 -5.49149 0
M  V30 14768 H 1417.82 1.57305 -3.8522 0
M  V30 14769 H 1416.7 2.47945 -4.89708 0
M  V30 14770 H 1416.96 3.00603 -3.24177 0
M  V30 14771 N 1416.02 1.56195 0.209972 0
M  V30 14772 C 1417.27 1.78941 0.930744 0
M  V30 14773 C 1417.58 0.634139 1.85035 0
M  V30 14774 O 1418.79 0.745524 2.61064 0
M  V30 14775 C 1417.24 3.16935 1.70529 0
M  V30 14776 C 1416.85 4.40221 0.83125 0
M  V30 14777 C 1418.6 3.49 2.41659 0
M  V30 14778 C 1416.5 5.69238 1.60381 0
M  V30 14779 H 1415.43 0.667176 0.351273 0
M  V30 14780 H 1418.08 1.82572 0.184341 0
M  V30 14781 H 1416.47 3.07513 2.49503 0
M  V30 14782 H 1417.64 4.60728 0.081227 0
M  V30 14783 H 1415.95 4.15756 0.231517 0
M  V30 14784 H 1418.55 4.42623 2.99982 0
M  V30 14785 H 1418.89 2.72042 3.15117 0
M  V30 14786 H 1419.43 3.59804 1.69665 0
M  V30 14787 H 1416.17 6.49121 0.912292 0
M  V30 14788 H 1415.69 5.52772 2.32815 0
M  V30 14789 H 1417.37 6.09827 2.16149 0
M  V30 14790 N 1417.5 -0.477127 1.50204 0
M  V30 14791 C 1418.41 -1.60182 1.71403 0
M  V30 14792 C 1419.42 -1.63437 0.597009 0
M  V30 14793 O 1420.6 -1.81418 0.874614 0
M  V30 14794 C 1417.66 -2.96432 1.79802 0
M  V30 14795 C 1416.73 -3.03614 3.03508 0
M  V30 14796 C 1415.96 -4.33365 3.11497 0
M  V30 14797 O 1416.18 -5.23529 2.26438 0
M  V30 14798 O 1415.12 -4.46013 4.04173 0
M  V30 14799 H 1418.94 -1.45221 2.66729 0
M  V30 14800 H 1416.53 -0.655982 1.34228 0
M  V30 14801 H 1418.41 -3.77367 1.87542 0
M  V30 14802 H 1417.08 -3.11605 0.876581 0
M  V30 14803 H 1415.99 -2.21779 3.01272 0
M  V30 14804 H 1417.32 -2.93376 3.95211 0
M  V30 14805 N 1418.98 -1.3968 -0.729882 0
M  V30 14806 C 1420.22 -1.37182 -1.48954 0
M  V30 14807 C 1420.55 0.0305728 -1.94476 0
M  V30 14808 O 1419.81 1.0124 -1.67478 0
M  V30 14809 C 1420.11 -2.29499 -2.7398 0
M  V30 14810 C 1419.77 -3.77034 -2.47298 0
M  V30 14811 C 1418.43 -4.17232 -2.39731 0
M  V30 14812 C 1420.79 -4.70325 -2.24597 0
M  V30 14813 C 1418.11 -5.48777 -2.07511 0
M  V30 14814 C 1420.47 -6.02153 -1.93893 0
M  V30 14815 C 1419.13 -6.41409 -1.84798 0
M  V30 14816 H 1418.4 -0.501985 -0.545061 0
M  V30 14817 H 1421.05 -1.72226 -0.837294 0
M  V30 14818 H 1419.35 -1.87592 -3.43972 0
M  V30 14819 H 1421.05 -2.24857 -3.32024 0
M  V30 14820 H 1417.64 -3.45177 -2.54069 0
M  V30 14821 H 1421.82 -4.40097 -2.29408 0
M  V30 14822 H 1417.08 -5.78109 -1.98996 0
M  V30 14823 H 1421.25 -6.73966 -1.75337 0
M  V30 14824 H 1418.88 -7.43258 -1.59598 0
M  V30 14825 N 1420.45 0.960609 -1.2494 0
M  V30 14826 C 1421.87 1.51915 -1.0853 0
M  V30 14827 C 1422.22 1.93215 0.340949 0
M  V30 14828 O 1421.34 1.78031 1.2302 0
M  V30 14829 C 1421.94 2.76069 -1.96396 0
M  V30 14830 C 1420.5 3.28255 -1.84189 0
M  V30 14831 C 1419.64 2.01124 -1.90905 0
M  V30 14832 H 1422.59 0.778141 -1.38314 0
M  V30 14833 H 1422.61 3.49668 -1.50042 0
M  V30 14834 H 1422.13 2.45979 -3.00193 0
M  V30 14835 H 1420.23 3.6318 -0.832518 0
M  V30 14836 H 1420.34 3.96675 -2.68673 0
M  V30 14837 H 1418.7 2.16155 -1.34718 0
M  V30 14838 H 1419.49 1.73389 -2.96295 0
M  V30 14839 N 1421.93 1.0643 1.16234 0
M  V30 14840 C 1423.16 0.80148 1.9042 0
M  V30 14841 C 1423.57 -0.648064 1.77755 0
M  V30 14842 O 1422.91 -1.4555 1.12076 0
M  V30 14843 C 1422.98 1.11855 3.41656 0
M  V30 14844 C 1422.64 2.5668 3.78107 0
M  V30 14845 C 1423.64 3.54914 3.79911 0
M  V30 14846 C 1421.32 2.92015 4.08696 0
M  V30 14847 C 1423.32 4.86522 4.11795 0
M  V30 14848 C 1421 4.23823 4.40247 0
M  V30 14849 C 1422 5.20887 4.41776 0
M  V30 14850 O 1421.69 6.50329 4.72575 0
M  V30 14851 H 1421.42 0.290009 0.610632 0
M  V30 14852 H 1423.97 1.42157 1.48258 0
M  V30 14853 H 1422.2 0.441395 3.84173 0
M  V30 14854 H 1423.89 0.839759 3.97118 0
M  V30 14855 H 1424.66 3.28957 3.56388 0
M  V30 14856 H 1420.54 2.17119 4.0667 0
M  V30 14857 H 1424.08 5.62278 4.12903 0
M  V30 14858 H 1419.98 4.49538 4.63235 0
M  V30 14859 H 1420.75 6.55339 4.90381 0
M  V30 14860 N 1423.41 -1.329 0.847073 0
M  V30 14861 C 1424.36 -2.29044 0.284199 0
M  V30 14862 C 1425.33 -1.54706 -0.604591 0
M  V30 14863 O 1426.51 -1.82966 -0.541116 0
M  V30 14864 C 1423.65 -3.4104 -0.527822 0
M  V30 14865 C 1422.77 -4.30273 0.385907 0
M  V30 14866 C 1421.9 -5.29391 -0.438009 0
M  V30 14867 C 1420.94 -6.10265 0.473596 0
M  V30 14868 N 1420.08 -7.01403 -0.312684 0
M  V30 14869 H 1424.92 -2.76582 1.10935 0
M  V30 14870 H 1422.45 -1.36085 0.558508 0
M  V30 14871 H 1424.41 -4.04686 -1.01417 0
M  V30 14872 H 1423.04 -2.94673 -1.31787 0
M  V30 14873 H 1422.09 -3.67275 0.99061 0
M  V30 14874 H 1423.41 -4.86837 1.08585 0
M  V30 14875 H 1422.56 -5.98604 -0.987842 0
M  V30 14876 H 1421.3 -4.73424 -1.17135 0
M  V30 14877 H 1420.3 -5.39963 1.03537 0
M  V30 14878 H 1421.53 -6.68316 1.20543 0
M  V30 14879 H 1419.47 -6.47875 -1.02926 0
M  V30 14880 H 1419.39 -7.55286 0.328376 0
M  V30 14881 H 1420.66 -7.74912 -0.844489 0
M  V30 14882 N 1424.89 -0.604284 -1.45555 0
M  V30 14883 C 1425.84 0.129013 -2.32242 0
M  V30 14884 C 1426.83 0.862933 -1.45773 0
M  V30 14885 O 1428.04 0.778874 -1.62276 0
M  V30 14886 H 1424.41 0.0604661 -0.749565 0
M  V30 14887 H 1426.38 -0.620603 -2.91875 0
M  V30 14888 C 1425.13 1.11516 -3.29332 0
M  V30 14889 H 1424.45 0.559849 -3.95861 0
M  V30 14890 H 1425.89 1.59824 -3.92724 0
M  V30 14891 C 1424.35 2.18706 -2.5626 0
M  V30 14892 O 1424.88 3.26397 -2.34154 0
M  V30 14893 N 1423.09 1.93899 -2.16452 0
M  V30 14894 H 1422.64 1.0633 -2.34631 0
M  V30 14895 H 1422.59 2.65824 -1.67884 0
M  V30 14896 N 1426.37 1.53816 -0.343257 0
M  V30 14897 C 1427.3 2.27951 0.506005 0
M  V30 14898 C 1428.28 1.29502 1.10287 0
M  V30 14899 O 1429.46 1.58344 1.12432 0
M  V30 14900 C 1426.59 3.0521 1.65723 0
M  V30 14901 C 1425.55 4.11161 1.18871 0
M  V30 14902 C 1424.87 4.76373 2.42843 0
M  V30 14903 C 1426.17 5.21498 0.289403 0
M  V30 14904 H 1427.87 2.99189 -0.112435 0
M  V30 14905 H 1425.41 1.43893 -0.055516 0
M  V30 14906 H 1427.37 3.55811 2.2578 0
M  V30 14907 H 1426.09 2.31624 2.30256 0
M  V30 14908 H 1424.75 3.61473 0.610962 0
M  V30 14909 H 1424.4 3.99381 3.05784 0
M  V30 14910 H 1424.1 5.47955 2.12177 0
M  V30 14911 H 1425.62 5.29758 3.03627 0
M  V30 14912 H 1427.03 5.67736 0.796808 0
M  V30 14913 H 1425.43 6.00054 0.0746366 0
M  V30 14914 H 1426.5 4.80185 -0.674543 0
M  V30 14915 N 1427.84 0.0718701 1.57436 0
M  V30 14916 C 1429.26 -0.460784 1.80924 0
M  V30 14917 C 1429.61 -1.69637 0.985781 0
M  V30 14918 O 1428.73 -2.15395 0.208319 0
M  V30 14919 C 1429.33 -0.842738 3.28151 0
M  V30 14920 C 1427.89 -1.32026 3.52486 0
M  V30 14921 C 1427.03 -0.305466 2.75612 0
M  V30 14922 H 1429.98 0.297566 1.55885 0
M  V30 14923 H 1430 -1.70414 3.40205 0
M  V30 14924 H 1429.52 0.056733 3.88059 0
M  V30 14925 H 1427.62 -2.23822 2.97883 0
M  V30 14926 H 1427.73 -1.29813 4.61178 0
M  V30 14927 H 1426.09 -0.782758 2.42374 0
M  V30 14928 H 1426.88 0.586279 3.38257 0
M  V30 14929 N 1429.32 -1.56304 -0.201686 0
M  V30 14930 C 1430.57 -1.79433 -0.921241 0
M  V30 14931 C 1430.88 -0.643943 -1.84696 0
M  V30 14932 O 1432.09 -0.759359 -2.60665 0
M  V30 14933 C 1430.55 -3.17835 -1.68846 0
M  V30 14934 C 1430.15 -4.40655 -0.807892 0
M  V30 14935 C 1431.9 -3.50277 -2.39805 0
M  V30 14936 C 1429.81 -5.7008 -1.5736 0
M  V30 14937 H 1428.74 -0.669029 -0.34773 0
M  V30 14938 H 1431.39 -1.82667 -0.174657 0
M  V30 14939 H 1429.77 -3.08832 -2.47869 0
M  V30 14940 H 1430.94 -4.60765 -0.0567923 0
M  V30 14941 H 1429.26 -4.15873 -0.209465 0
M  V30 14942 H 1431.85 -4.44207 -2.97631 0
M  V30 14943 H 1432.2 -2.7371 -3.1367 0
M  V30 14944 H 1432.73 -3.60698 -1.67754 0
M  V30 14945 H 1429.47 -6.49595 -0.877855 0
M  V30 14946 H 1428.99 -5.53999 -2.2988 0
M  V30 14947 H 1430.67 -6.10964 -2.12912 0
M  V30 14948 N 1430.8 0.469154 -1.50455 0
M  V30 14949 C 1431.71 1.59271 -1.7225 0
M  V30 14950 C 1432.73 1.63119 -0.605668 0
M  V30 14951 O 1433.9 1.80952 -0.884222 0
M  V30 14952 C 1430.97 2.95475 -1.81372 0
M  V30 14953 C 1430.03 3.02 -3.05114 0
M  V30 14954 C 1429.26 4.31707 -3.13791 0
M  V30 14955 O 1429.48 5.2232 -2.29211 0
M  V30 14956 O 1428.42 4.43864 -4.06532 0
M  V30 14957 H 1432.24 1.43804 -2.67496 0
M  V30 14958 H 1429.83 0.648855 -1.34574 0
M  V30 14959 H 1431.71 3.76367 -1.89541 0
M  V30 14960 H 1430.39 3.11136 -0.893094 0
M  V30 14961 H 1429.29 2.20178 -3.02444 0
M  V30 14962 H 1430.63 2.91275 -3.96761 0
M  V30 14963 N 1432.28 1.40065 0.722464 0
M  V30 14964 C 1433.56 1.28473 1.47493 0
M  V30 14965 C 1433.94 -0.100058 2.10863 0
M  V30 14966 O 1433.28 -1.11232 1.99599 0
M  V30 14967 C 1433.49 2.41842 2.51621 0
M  V30 14968 C 1434.84 2.81753 3.17648 0
M  V30 14969 O 1435.87 2.41385 2.61939 0
M  V30 14970 O 1434.72 3.51473 4.18484 0
M  V30 14971 H 1431.82 0.504158 0.655556 0
M  V30 14972 H 1434.36 1.51969 0.755223 0
M  V30 14973 H 1433.14 3.34365 2.03263 0
M  V30 14974 H 1432.76 2.20079 3.31136 0
M  V30 14975 N 1433.76 -0.95397 1.25448 0
M  V30 14976 C 1435.01 -1.69305 1.09631 0
M  V30 14977 C 1435.32 -1.92213 -0.362413 0
M  V30 14978 O 1436.53 -2.63824 -0.641036 0
M  V30 14979 C 1434.98 -3.04805 1.91369 0
M  V30 14980 C 1434.59 -2.8969 3.41737 0
M  V30 14981 C 1436.33 -3.82491 1.84123 0
M  V30 14982 C 1434.24 -4.20584 4.15768 0
M  V30 14983 H 1433.17 -0.63494 0.406654 0
M  V30 14984 H 1435.82 -1.06195 1.49649 0
M  V30 14985 H 1434.2 -3.68822 1.44174 0
M  V30 14986 H 1435.38 -2.346 3.9661 0
M  V30 14987 H 1433.69 -2.25458 3.50082 0
M  V30 14988 H 1436.29 -4.79442 2.36727 0
M  V30 14989 H 1436.63 -4.08358 0.809265 0
M  V30 14990 H 1437.17 -3.25224 2.29072 0
M  V30 14991 H 1433.9 -3.99905 5.19381 0
M  V30 14992 H 1433.42 -4.75436 3.65678 0
M  V30 14993 H 1435.1 -4.89122 4.2352 0
M  V30 14994 N 1435.24 -1.07045 -1.15668 0
M  V30 14995 C 1436.46 -0.812746 -1.90268 0
M  V30 14996 C 1436.88 0.633722 -1.77847 0
M  V30 14997 O 1436.24 1.43444 -1.12828 0
M  V30 14998 C 1436.29 -1.20793 -3.40722 0
M  V30 14999 O 1436.01 -2.59764 -3.52781 0
M  V30 15000 C 1437.51 -0.979074 -4.32353 0
M  V30 15001 H 1434.73 -0.294093 -0.603117 0
M  V30 15002 H 1437.27 -1.42609 -1.46571 0
M  V30 15003 H 1435.43 -0.638975 -3.82094 0
M  V30 15004 H 1435.84 -2.75801 -4.46133 0
M  V30 15005 H 1437.32 -1.30513 -5.36349 0
M  V30 15006 H 1437.79 0.0847752 -4.39118 0
M  V30 15007 H 1438.4 -1.53278 -3.96719 0
M  V30 15008 N 1436.71 1.32449 -0.85411 0
M  V30 15009 C 1437.66 2.30821 -0.287115 0
M  V30 15010 C 1438.66 1.58823 0.58921 0
M  V30 15011 O 1439.86 1.73563 0.477075 0
M  V30 15012 H 1436.24 0.748336 -0.0741416 0
M  V30 15013 H 1438.21 2.76134 -1.13104 0
M  V30 15014 C 1436.96 3.43937 0.51013 0
M  V30 15015 H 1436.28 3.995 -0.154895 0
M  V30 15016 H 1437.72 4.14927 0.872451 0
M  V30 15017 C 1436.18 2.91147 1.69513 0
M  V30 15018 O 1436.71 2.88595 2.7942 0
M  V30 15019 N 1434.91 2.47554 1.52202 0
M  V30 15020 H 1434.46 2.49829 0.627941 0
M  V30 15021 H 1434.42 2.12587 2.31633 0
M  V30 15022 N 1438.19 0.611994 1.45232 0
M  V30 15023 C 1439.42 0.113618 2.07089 0
M  V30 15024 C 1439.84 -1.1947 1.45288 0
M  V30 15025 O 1439.2 -1.72845 0.547207 0
M  V30 15026 C 1439.25 -0.00789978 3.60599 0
M  V30 15027 O 1438.35 -1.05697 3.98625 0
M  V30 15028 H 1437.69 0.076066 0.659629 0
M  V30 15029 H 1440.22 0.843253 1.86415 0
M  V30 15030 H 1440.23 -0.204692 4.07486 0
M  V30 15031 H 1438.91 0.947386 4.04966 0
M  V30 15032 H 1437.48 -0.836291 3.63401 0
M  V30 15033 N 1439.67 -1.53632 0.351409 0
M  V30 15034 C 1440.9 -2.05458 -0.243852 0
M  V30 15035 C 1441.31 -1.22588 -1.43589 0
M  V30 15036 O 1440.67 -0.263088 -1.80594 0
M  V30 15037 C 1440.72 -3.55586 -0.651226 0
M  V30 15038 O 1440.44 -4.35313 0.493415 0
M  V30 15039 C 1441.94 -4.23614 -1.30637 0
M  V30 15040 H 1439.16 -0.669443 -0.0456828 0
M  V30 15041 H 1441.71 -1.98149 0.505675 0
M  V30 15042 H 1439.86 -3.63091 -1.35068 0
M  V30 15043 H 1440.28 -5.24234 0.167107 0
M  V30 15044 H 1441.75 -5.30022 -1.5421 0
M  V30 15045 H 1442.23 -3.76449 -2.26236 0
M  V30 15046 H 1442.83 -4.20323 -0.648738 0
M  V30 15047 N 1441.15 -0.0802183 -1.57396 0
M  V30 15048 C 1442.08 0.881426 -2.16225 0
M  V30 15049 C 1443.06 1.30459 -1.09154 0
M  V30 15050 O 1444.24 1.37413 -1.37227 0
M  V30 15051 C 1441.37 2.14599 -2.73065 0
M  V30 15052 C 1440.33 1.86195 -3.85377 0
M  V30 15053 C 1439.65 3.19354 -4.28856 0
M  V30 15054 C 1440.95 1.16059 -5.09242 0
M  V30 15055 H 1442.65 0.391325 -2.96832 0
M  V30 15056 H 1440.19 0.186785 -1.42783 0
M  V30 15057 H 1442.15 2.82297 -3.12868 0
M  V30 15058 H 1440.87 2.65866 -1.89691 0
M  V30 15059 H 1439.53 1.209 -3.46091 0
M  V30 15060 H 1439.18 3.68479 -3.42392 0
M  V30 15061 H 1438.88 3.01137 -5.04569 0
M  V30 15062 H 1440.4 3.88235 -4.71281 0
M  V30 15063 H 1441.82 1.7384 -5.46308 0
M  V30 15064 H 1440.21 1.08072 -5.90288 0
M  V30 15065 H 1441.28 0.14098 -4.84695 0
M  V30 15066 N 1442.63 1.56409 0.193394 0
M  V30 15067 C 1443.87 1.80991 0.914875 0
M  V30 15068 C 1444.2 0.654538 1.82837 0
M  V30 15069 O 1443.48 -0.344816 1.91419 0
M  V30 15070 C 1443.76 3.15841 1.72964 0
M  V30 15071 C 1443.62 4.41873 0.840748 0
M  V30 15072 C 1444.93 3.474 2.70188 0
M  V30 15073 H 1442.05 0.658408 0.331161 0
M  V30 15074 H 1444.7 1.89125 0.182161 0
M  V30 15075 H 1442.85 3.09038 2.35431 0
M  V30 15076 H 1444.52 4.60723 0.230654 0
M  V30 15077 H 1442.76 4.33549 0.147558 0
M  V30 15078 H 1443.43 5.32728 1.44586 0
M  V30 15079 H 1445.91 3.54513 2.17852 0
M  V30 15080 H 1444.78 4.42872 3.24278 0
M  V30 15081 H 1445.04 2.7098 3.49317 0
M  V30 15082 N 1444.1 -0.461169 1.50702 0
M  V30 15083 C 1445.33 -1.23554 1.65958 0
M  V30 15084 C 1445.75 -1.85584 0.346977 0
M  V30 15085 O 1445.1 -1.69672 -0.672129 0
M  V30 15086 C 1445.15 -2.33704 2.75799 0
M  V30 15087 O 1444.88 -1.74215 4.01971 0
M  V30 15088 C 1446.38 -3.24409 3.02116 0
M  V30 15089 H 1443.6 -0.373299 0.557574 0
M  V30 15090 H 1446.14 -0.549338 1.96984 0
M  V30 15091 H 1444.3 -2.98081 2.47439 0
M  V30 15092 H 1444.71 -2.46827 4.62792 0
M  V30 15093 H 1446.18 -3.97885 3.82611 0
M  V30 15094 H 1446.66 -3.83774 2.13576 0
M  V30 15095 H 1447.27 -2.65757 3.32044 0
M  V30 15096 N 1445.58 -1.40446 -0.715026 0
M  V30 15097 C 1446.81 -1.4207 -1.50412 0
M  V30 15098 C 1447.22 -0.0205547 -1.88789 0
M  V30 15099 O 1446.58 0.955635 -1.55479 0
M  V30 15100 C 1446.63 -2.3119 -2.77909 0
M  V30 15101 O 1446.35 -3.65754 -2.41154 0
M  V30 15102 C 1447.85 -2.41412 -3.718 0
M  V30 15103 H 1445.07 -0.484554 -0.464164 0
M  V30 15104 H 1447.62 -1.84504 -0.881964 0
M  V30 15105 H 1445.77 -1.92117 -3.36407 0
M  V30 15106 H 1446.19 -4.13091 -3.23197 0
M  V30 15107 H 1447.66 -3.07976 -4.58099 0
M  V30 15108 H 1448.14 -1.43934 -4.14945 0
M  V30 15109 H 1448.74 -2.81039 -3.19213 0
M  V30 15110 N 1447.06 0.947303 -1.25952 0
M  V30 15111 C 1448.01 2.06642 -1.06779 0
M  V30 15112 C 1449 1.694 0.00348362 0
M  V30 15113 O 1450.21 1.79351 -0.152715 0
M  V30 15114 H 1446.58 0.676499 -0.32841 0
M  V30 15115 H 1448.55 2.19968 -2.01635 0
M  V30 15116 C 1447.3 3.40353 -0.711015 0
M  V30 15117 H 1446.63 3.69483 -1.52718 0
M  V30 15118 H 1448.07 4.19493 -0.616606 0
M  V30 15119 C 1446.52 3.3181 0.58344 0
M  V30 15120 O 1447.05 3.67431 1.6235 0
M  V30 15121 N 1445.26 2.84919 0.571797 0
M  V30 15122 H 1444.81 2.56128 -0.274962 0
M  V30 15123 H 1444.77 2.79586 1.43803 0
M  V30 15124 N 1448.54 1.07657 1.15099 0
M  V30 15125 C 1449.78 0.802796 1.86234 0
M  V30 15126 C 1450.12 -0.669555 1.82293 0
M  V30 15127 O 1449.39 -1.49162 1.24823 0
M  V30 15128 C 1449.68 1.3156 3.35208 0
M  V30 15129 C 1449.53 2.85272 3.47764 0
M  V30 15130 C 1450.85 0.934641 4.30061 0
M  V30 15131 H 1447.97 0.293099 0.676212 0
M  V30 15132 H 1450.61 1.33488 1.35207 0
M  V30 15133 H 1448.76 0.86298 3.78794 0
M  V30 15134 H 1450.43 3.38847 3.13018 0
M  V30 15135 H 1448.67 3.23316 2.89222 0
M  V30 15136 H 1449.34 3.16223 4.52446 0
M  V30 15137 H 1451.82 1.3247 3.9445 0
M  V30 15138 H 1450.7 1.32074 5.32774 0
M  V30 15139 H 1450.96 -0.159122 4.41814 0
M  V30 15140 N 1450.02 -1.31994 0.861122 0
M  V30 15141 C 1451.24 -2.01211 0.481865 0
M  V30 15142 C 1451.66 -1.64687 -0.923233 0
M  V30 15143 O 1451.02 -0.87151 -1.60346 0
M  V30 15144 C 1451.07 -3.56162 0.618919 0
M  V30 15145 O 1450.79 -3.91376 1.96868 0
M  V30 15146 C 1452.29 -4.42652 0.239514 0
M  V30 15147 H 1449.51 -0.643922 0.188693 0
M  V30 15148 H 1452.05 -1.68427 1.15985 0
M  V30 15149 H 1450.21 -3.87398 -0.0114042 0
M  V30 15150 H 1450.62 -4.86095 1.97008 0
M  V30 15151 H 1452.1 -5.50646 0.386394 0
M  V30 15152 H 1452.57 -4.31466 -0.820598 0
M  V30 15153 H 1453.18 -4.16818 0.845175 0
M  V30 15154 N 1451.49 -0.619688 -1.44906 0
M  V30 15155 C 1452.74 -0.128286 -2.02995 0
M  V30 15156 C 1453.1 1.23194 -1.47787 0
M  V30 15157 O 1452.39 1.80316 -0.64782 0
M  V30 15158 C 1452.58 -0.0432891 -3.57374 0
M  V30 15159 C 1452.41 -1.39373 -4.27557 0
M  V30 15160 C 1451.18 -1.97756 -4.64995 0
M  V30 15161 C 1453.38 -2.32512 -4.5874 0
M  V30 15162 N 1451.36 -3.26154 -5.20093 0
M  V30 15163 C 1452.73 -3.45517 -5.14799 0
M  V30 15164 C 1454.79 -2.31734 -4.40685 0
M  V30 15165 C 1453.49 -4.57924 -5.54706 0
M  V30 15166 C 1455.52 -3.43197 -4.81632 0
M  V30 15167 C 1454.88 -4.54924 -5.37795 0
M  V30 15168 H 1450.98 -0.0905961 -0.776734 0
M  V30 15169 H 1453.56 -0.820685 -1.76558 0
M  V30 15170 H 1451.73 0.61836 -3.83446 0
M  V30 15171 H 1453.46 0.455886 -4.02124 0
M  V30 15172 H 1450.22 -1.50826 -4.48941 0
M  V30 15173 H 1450.64 -3.91768 -5.52129 0
M  V30 15174 H 1455.29 -1.46609 -3.96567 0
M  V30 15175 H 1453 -5.43765 -5.97784 0
M  V30 15176 H 1456.59 -3.43757 -4.69385 0
M  V30 15177 H 1455.47 -5.39748 -5.68896 0
M  V30 15178 N 1452.97 1.53444 -0.359552 0
M  V30 15179 C 1454.22 2.00769 0.231564 0
M  V30 15180 C 1454.54 1.2487 1.49775 0
M  V30 15181 O 1453.81 0.360284 1.92558 0
M  V30 15182 H 1452.39 0.741732 0.0885581 0
M  V30 15183 H 1455.05 1.88785 -0.484397 0
M  V30 15184 H 1454.15 3.0865 0.462789 0
M  V30 15185 N 1454.45 0.0885642 1.57351 0
M  V30 15186 C 1455.7 -0.57633 1.93291 0
M  V30 15187 C 1456.01 -1.69743 0.971934 0
M  V30 15188 O 1457.22 -2.42304 1.22479 0
M  V30 15189 C 1455.67 -1.07655 3.43422 0
M  V30 15190 C 1455.28 0.0144488 4.47998 0
M  V30 15191 C 1457.03 -1.71455 3.88334 0
M  V30 15192 C 1454.93 -0.500758 5.89276 0
M  V30 15193 H 1453.86 -0.219055 0.721478 0
M  V30 15194 H 1456.51 0.163511 1.8277 0
M  V30 15195 H 1454.9 -1.86988 3.49072 0
M  V30 15196 H 1456.07 0.789696 4.53983 0
M  V30 15197 H 1454.39 0.557237 4.12655 0
M  V30 15198 H 1456.98 -2.11063 4.91281 0
M  V30 15199 H 1457.33 -2.58116 3.26621 0
M  V30 15200 H 1457.86 -0.987159 3.85357 0
M  V30 15201 H 1454.6 0.329088 6.54673 0
M  V30 15202 H 1454.12 -1.24315 5.86776 0
M  V30 15203 H 1455.8 -0.971821 6.3966 0
M  V30 15204 N 1455.93 -1.56509 -0.185096 0
M  V30 15205 C 1456.86 -1.91878 -1.25361 0
M  V30 15206 C 1457.87 -0.810443 -1.41194 0
M  V30 15207 O 1459.06 -1.08887 -1.41442 0
M  V30 15208 C 1456.16 -2.14433 -2.62434 0
M  V30 15209 C 1455.34 -3.45618 -2.6808 0
M  V30 15210 C 1454.39 -3.57165 -3.86419 0
M  V30 15211 O 1453.42 -4.29904 -3.73056 0
M  V30 15212 N 1454.62 -2.90993 -5.02298 0
M  V30 15213 H 1457.39 -2.84133 -0.953328 0
M  V30 15214 H 1454.95 -1.57498 -0.374955 0
M  V30 15215 H 1456.94 -2.19437 -3.40044 0
M  V30 15216 H 1455.51 -1.28629 -2.84909 0
M  V30 15217 H 1454.73 -3.52394 -1.76669 0
M  V30 15218 H 1456.02 -4.31968 -2.68851 0
M  V30 15219 H 1455.42 -2.31743 -5.16054 0
M  V30 15220 H 1453.97 -3.01611 -5.77819 0
M  V30 15221 N 1457.41 0.45317 -1.50944 0
M  V30 15222 C 1458.82 1.03354 -1.55482 0
M  V30 15223 C 1459.17 1.92701 -0.368873 0
M  V30 15224 O 1458.29 2.10153 0.516208 0
M  V30 15225 C 1458.89 1.88118 -2.81775 0
M  V30 15226 C 1457.45 2.41232 -2.88936 0
M  V30 15227 C 1456.59 1.20032 -2.49975 0
M  V30 15228 H 1459.55 0.235059 -1.5695 0
M  V30 15229 H 1459.57 2.73394 -2.64643 0
M  V30 15230 H 1459.08 1.23064 -3.68072 0
M  V30 15231 H 1457.18 3.09788 -2.07032 0
M  V30 15232 H 1457.29 2.75113 -3.92237 0
M  V30 15233 H 1455.66 1.54072 -2.02815 0
M  V30 15234 H 1456.44 0.56612 -3.386 0
M  V30 15235 N 1458.88 1.40823 0.707568 0
M  V30 15236 C 1459.85 1.41464 1.80334 0
M  V30 15237 C 1460.85 0.307143 1.57839 0
M  V30 15238 O 1462.04 0.566444 1.64733 0
M  V30 15239 C 1459.17 1.21426 3.18541 0
M  V30 15240 H 1460.36 2.38998 1.81162 0
M  V30 15241 H 1457.92 1.2679 0.914007 0
M  V30 15242 H 1458.65 0.246847 3.23359 0
M  V30 15243 H 1458.44 2.01657 3.36269 0
M  V30 15244 H 1459.93 1.24681 3.98553 0
M  V30 15245 N 1460.36 -0.94061 1.26453 0
M  V30 15246 C 1461.77 -1.50169 1.10934 0
M  V30 15247 C 1462.12 -1.93733 -0.310167 0
M  V30 15248 O 1461.25 -1.79966 -1.20172 0
M  V30 15249 C 1461.84 -2.7291 2.00763 0
M  V30 15250 C 1460.4 -3.25283 1.89388 0
M  V30 15251 C 1459.55 -1.98061 1.9408 0
M  V30 15252 H 1462.5 -0.756038 1.39534 0
M  V30 15253 H 1462.52 -3.47237 1.55586 0
M  V30 15254 H 1462.03 -2.41172 3.04069 0
M  V30 15255 H 1460.14 -3.6181 0.890192 0
M  V30 15256 H 1460.25 -3.92351 2.7495 0
M  V30 15257 H 1458.61 -2.13985 1.3814 0
M  V30 15258 H 1459.4 -1.68654 2.99016 0
M  V30 15259 N 1461.84 -1.08266 -1.14527 0
M  V30 15260 C 1462.77 -0.655392 -2.18586 0
M  V30 15261 C 1463.75 0.332109 -1.59172 0
M  V30 15262 O 1464.94 0.236315 -1.87013 0
M  V30 15263 C 1462.06 0.0362295 -3.38681 0
M  V30 15264 C 1461.11 -0.91119 -4.16653 0
M  V30 15265 S 1461.94 -2.4171 -4.77846 0
M  V30 15266 C 1463.1 -1.73755 -6.01299 0
M  V30 15267 H 1463.33 -1.53694 -2.54491 0
M  V30 15268 H 1460.86 -0.897499 -1.25636 0
M  V30 15269 H 1462.82 0.428996 -4.08252 0
M  V30 15270 H 1461.48 0.894253 -3.01101 0
M  V30 15271 H 1460.68 -0.374143 -5.02609 0
M  V30 15272 H 1460.28 -1.24478 -3.52677 0
M  V30 15273 H 1462.57 -1.05465 -6.69241 0
M  V30 15274 H 1463.51 -2.5758 -6.59589 0
M  V30 15275 H 1463.92 -1.21153 -5.51346 0
M  V30 15276 N 1463.32 1.31536 -0.86811 0
M  V30 15277 C 1464.73 1.78991 -0.530937 0
M  V30 15278 C 1465.08 1.71553 0.952046 0
M  V30 15279 O 1464.21 1.28216 1.74326 0
M  V30 15280 C 1464.8 3.25004 -0.956981 0
M  V30 15281 C 1463.36 3.70362 -0.671495 0
M  V30 15282 C 1462.51 2.52361 -1.14932 0
M  V30 15283 H 1465.46 1.18644 -1.05401 0
M  V30 15284 H 1465.48 3.79477 -0.278883 0
M  V30 15285 H 1464.99 3.30385 -2.03635 0
M  V30 15286 H 1463.09 3.70483 0.39659 0
M  V30 15287 H 1463.21 4.62581 -1.24722 0
M  V30 15288 H 1461.57 2.4826 -0.569144 0
M  V30 15289 H 1462.35 2.60489 -2.23608 0
M  V30 15290 N 1464.8 0.627364 1.44575 0
M  V30 15291 C 1466.04 0.130545 2.02379 0
M  V30 15292 C 1466.38 -1.24301 1.49208 0
M  V30 15293 O 1465.65 -1.82425 0.674626 0
M  V30 15294 C 1465.93 0.11311 3.59922 0
M  V30 15295 C 1465.79 1.51874 4.23385 0
M  V30 15296 C 1467.11 -0.564341 4.36467 0
M  V30 15297 H 1464.23 0.0489125 0.735375 0
M  V30 15298 H 1466.87 0.803118 1.72192 0
M  V30 15299 H 1465.02 -0.459621 3.85772 0
M  V30 15300 H 1466.69 2.14007 4.08655 0
M  V30 15301 H 1464.93 2.07371 3.81024 0
M  V30 15302 H 1465.6 1.4586 5.3238 0
M  V30 15303 H 1468.08 -0.0773244 4.16028 0
M  V30 15304 H 1466.96 -0.545715 5.46181 0
M  V30 15305 H 1467.22 -1.63403 4.10794 0
M  V30 15306 N 1466.28 -1.53251 0.367684 0
M  V30 15307 C 1467.69 -1.86369 -0.111073 0
M  V30 15308 C 1468.04 -1.2882 -1.47986 0
M  V30 15309 O 1467.16 -0.611058 -2.07593 0
M  V30 15310 C 1467.76 -3.38159 -0.208325 0
M  V30 15311 C 1466.32 -3.71067 -0.63134 0
M  V30 15312 C 1465.46 -2.76425 0.220144 0
M  V30 15313 H 1468.41 -1.47469 0.586398 0
M  V30 15314 H 1468.44 -3.66252 -1.03151 0
M  V30 15315 H 1467.95 -3.80015 0.788038 0
M  V30 15316 H 1466.05 -3.34769 -1.63586 0
M  V30 15317 H 1466.16 -4.77389 -0.404491 0
M  V30 15318 H 1464.53 -2.5279 -0.311298 0
M  V30 15319 H 1465.31 -3.21115 1.21409 0
M  V30 15320 N 1467.75 -0.0969077 -1.57302 0
M  V30 15321 C 1469 0.567212 -1.94706 0
M  V30 15322 C 1469.33 1.67721 -0.978937 0
M  V30 15323 O 1468.61 1.94496 -0.0123016 0
M  V30 15324 C 1468.89 1.12069 -3.42217 0
M  V30 15325 C 1468.74 0.015615 -4.49797 0
M  V30 15326 C 1470.06 2.0185 -3.91081 0
M  V30 15327 H 1467.18 0.204716 -0.707997 0
M  V30 15328 H 1469.82 -0.167984 -1.89256 0
M  V30 15329 H 1467.97 1.74723 -3.46993 0
M  V30 15330 H 1469.65 -0.61871 -4.57132 0
M  V30 15331 H 1467.89 -0.650529 -4.28895 0
M  V30 15332 H 1468.56 0.443724 -5.50214 0
M  V30 15333 H 1471.04 1.49098 -3.8847 0
M  V30 15334 H 1469.91 2.37502 -4.94858 0
M  V30 15335 H 1470.17 2.93659 -3.3048 0
M  V30 15336 N 1469.23 1.56605 0.176793 0
M  V30 15337 C 1470.48 1.82848 0.89097 0
M  V30 15338 C 1470.83 0.676661 1.80108 0
M  V30 15339 O 1470.13 -0.32721 1.88785 0
M  V30 15340 C 1470.32 3.12888 1.7273 0
M  V30 15341 C 1470.15 4.40609 0.899652 0
M  V30 15342 C 1468.92 5.01996 0.57688 0
M  V30 15343 C 1471.12 5.13722 0.243765 0
M  V30 15344 N 1469.1 6.13317 -0.267482 0
M  V30 15345 C 1470.47 6.18276 -0.461997 0
M  V30 15346 C 1472.52 4.97638 0.161367 0
M  V30 15347 C 1471.23 7.0849 -1.24233 0
M  V30 15348 C 1473.25 5.88291 -0.605623 0
M  V30 15349 C 1472.62 6.92304 -1.29977 0
M  V30 15350 H 1468.71 0.720143 0.304824 0
M  V30 15351 H 1471.3 1.94055 0.15834 0
M  V30 15352 H 1469.47 3.02883 2.43139 0
M  V30 15353 H 1471.2 3.27148 2.38236 0
M  V30 15354 H 1467.96 4.6486 0.905666 0
M  V30 15355 H 1468.38 6.73578 -0.679811 0
M  V30 15356 H 1473.02 4.17236 0.683677 0
M  V30 15357 H 1470.74 7.88342 -1.77601 0
M  V30 15358 H 1474.33 5.77918 -0.670976 0
M  V30 15359 H 1473.21 7.61239 -1.88375 0
M  V30 15360 N 1470.71 -0.445159 1.51182 0
M  V30 15361 C 1471.96 -1.19701 1.63705 0
M  V30 15362 C 1472.29 -1.91047 0.348511 0
M  V30 15363 O 1471.56 -1.83264 -0.651497 0
M  V30 15364 C 1471.85 -2.22021 2.83511 0
M  V30 15365 C 1471.7 -1.54809 4.2232 0
M  V30 15366 C 1473.02 -3.23083 2.9884 0
M  V30 15367 H 1470.14 -0.433818 0.595795 0
M  V30 15368 H 1472.78 -0.487276 1.83645 0
M  V30 15369 H 1470.93 -2.82551 2.66641 0
M  V30 15370 H 1472.6 -0.976774 4.5084 0
M  V30 15371 H 1470.84 -0.850596 4.25379 0
M  V30 15372 H 1471.52 -2.29289 5.02126 0
M  V30 15373 H 1473.99 -2.72601 3.14369 0
M  V30 15374 H 1472.87 -3.91978 3.84246 0
M  V30 15375 H 1473.13 -3.88732 2.1057 0
M  V30 15376 N 1472.19 -1.41197 -0.700089 0
M  V30 15377 C 1473.44 -1.39611 -1.45574 0
M  V30 15378 C 1473.75 -0.00683378 -1.95599 0
M  V30 15379 O 1474.96 0.131643 -2.71181 0
M  V30 15380 C 1473.41 -2.45452 -2.63214 0
M  V30 15381 C 1473.02 -3.90265 -2.19993 0
M  V30 15382 C 1474.76 -2.52996 -3.40871 0
M  V30 15383 C 1472.67 -4.87668 -3.34565 0
M  V30 15384 H 1471.6 -0.51917 -0.546789 0
M  V30 15385 H 1474.25 -1.67001 -0.760456 0
M  V30 15386 H 1472.63 -2.11186 -3.34987 0
M  V30 15387 H 1473.81 -4.33756 -1.55539 0
M  V30 15388 H 1472.12 -3.86339 -1.55341 0
M  V30 15389 H 1474.72 -3.22952 -4.26153 0
M  V30 15390 H 1475.06 -1.56536 -3.85749 0
M  V30 15391 H 1475.6 -2.86331 -2.76151 0
M  V30 15392 H 1472.33 -5.85517 -2.94704 0
M  V30 15393 H 1471.85 -4.4883 -3.97884 0
M  V30 15394 H 1473.53 -5.08215 -4.00409 0
M  V30 15395 N 1473.67 0.933891 -1.2695 0
M  V30 15396 C 1474.91 1.67539 -1.1231 0
M  V30 15397 C 1475.23 1.92765 0.331788 0
M  V30 15398 O 1476.43 2.6481 0.598983 0
M  V30 15399 C 1474.89 3.01722 -1.96194 0
M  V30 15400 C 1474.5 2.84216 -3.46302 0
M  V30 15401 C 1476.24 3.79513 -1.90185 0
M  V30 15402 C 1474.15 4.13916 -4.22407 0
M  V30 15403 H 1473.08 0.62839 -0.416704 0
M  V30 15404 H 1475.73 1.03801 -1.5132 0
M  V30 15405 H 1474.11 3.66482 -1.50023 0
M  V30 15406 H 1475.29 2.28261 -4.00292 0
M  V30 15407 H 1473.6 2.1986 -3.53625 0
M  V30 15408 H 1476.2 4.75615 -2.44325 0
M  V30 15409 H 1476.54 4.07019 -0.874129 0
M  V30 15410 H 1477.07 3.21539 -2.34217 0
M  V30 15411 H 1473.81 3.91591 -5.25677 0
M  V30 15412 H 1473.33 4.69558 -3.73196 0
M  V30 15413 H 1475.01 4.82322 -4.31248 0
M  V30 15414 N 1475.14 1.08871 1.13951 0
M  V30 15415 C 1476.07 0.744715 2.21306 0
M  V30 15416 C 1477.05 -0.275019 1.67862 0
M  V30 15417 O 1478.24 -0.144339 1.93663 0
M  V30 15418 C 1475.37 0.158336 3.46939 0
M  V30 15419 C 1474.32 1.10695 4.13438 0
M  V30 15420 C 1473.65 0.382552 5.3333 0
M  V30 15421 C 1474.95 2.44704 4.61429 0
M  V30 15422 H 1476.64 1.6423 2.50337 0
M  V30 15423 H 1474.19 0.791088 1.20324 0
M  V30 15424 H 1476.14 -0.0943587 4.21294 0
M  V30 15425 H 1474.87 -0.774413 3.17286 0
M  V30 15426 H 1473.53 1.34482 3.41043 0
M  V30 15427 H 1473.17 -0.554153 4.99938 0
M  V30 15428 H 1472.87 1.01499 5.78767 0
M  V30 15429 H 1474.4 0.138023 6.10444 0
M  V30 15430 H 1475.81 2.25156 5.27236 0
M  V30 15431 H 1474.21 3.03684 5.17586 0
M  V30 15432 H 1475.28 3.05883 3.76249 0
M  V30 15433 N 1476.62 -1.31073 0.875073 0
M  V30 15434 C 1477.58 -2.26672 0.339481 0
M  V30 15435 C 1478.58 -1.52416 -0.512439 0
M  V30 15436 O 1479.77 -1.71217 -0.321012 0
M  V30 15437 C 1476.91 -3.36952 -0.517311 0
M  V30 15438 H 1478.1 -2.7556 1.18349 0
M  V30 15439 H 1475.65 -1.42093 0.65109 0
M  V30 15440 H 1476.39 -2.93364 -1.38231 0
M  V30 15441 H 1476.17 -3.9199 0.092773 0
M  V30 15442 H 1477.66 -4.08133 -0.884154 0
M  V30 15443 N 1478.1 -0.635022 -1.4424 0
M  V30 15444 C 1479.35 -0.141276 -2.02307 0
M  V30 15445 C 1479.68 1.23508 -1.49865 0
M  V30 15446 O 1478.95 1.82065 -0.684291 0
M  V30 15447 C 1479.24 -0.132196 -3.59857 0
M  V30 15448 C 1479.09 -1.54117 -4.22573 0
M  V30 15449 C 1480.41 0.541186 -4.3676 0
M  V30 15450 H 1477.53 -0.0528117 -0.735105 0
M  V30 15451 H 1480.17 -0.812239 -1.71763 0
M  V30 15452 H 1478.32 0.439156 -3.8601 0
M  V30 15453 H 1479.99 -2.16171 -4.07514 0
M  V30 15454 H 1478.24 -2.09389 -3.79919 0
M  V30 15455 H 1478.91 -1.48682 -5.31599 0
M  V30 15456 H 1481.38 0.0552603 -4.16063 0
M  V30 15457 H 1480.26 0.516742 -5.46462 0
M  V30 15458 H 1480.52 1.61222 -4.11655 0
M  V30 15459 N 1479.58 1.53054 -0.375806 0
M  V30 15460 C 1480.51 2.28973 0.45754 0
M  V30 15461 C 1481.49 1.31812 1.07516 0
M  V30 15462 O 1482.67 1.60693 1.09048 0
M  V30 15463 C 1479.8 3.08657 1.59212 0
M  V30 15464 C 1478.76 4.1359 1.10123 0
M  V30 15465 C 1478.08 4.81417 2.32684 0
M  V30 15466 C 1479.38 5.21994 0.17872 0
M  V30 15467 H 1481.08 2.98883 -0.175872 0
M  V30 15468 H 1478.62 1.43743 -0.0860253 0
M  V30 15469 H 1480.58 3.6052 2.18182 0
M  V30 15470 H 1479.3 2.36456 2.25291 0
M  V30 15471 H 1477.96 3.62688 0.534151 0
M  V30 15472 H 1477.61 4.05778 2.97243 0
M  V30 15473 H 1477.31 5.52332 2.00506 0
M  V30 15474 H 1478.83 5.36079 2.92322 0
M  V30 15475 H 1480.25 5.69298 0.676204 0
M  V30 15476 H 1478.64 6.00077 -0.0526605 0
M  V30 15477 H 1479.71 4.78646 -0.776246 0
M  V30 15478 N 1481.06 0.105248 1.57248 0
M  V30 15479 C 1482.02 -0.835589 2.13426 0
M  V30 15480 C 1483.02 -1.20398 1.06587 0
M  V30 15481 O 1484.21 -1.13175 1.32428 0
M  V30 15482 C 1481.34 -2.12806 2.6632 0
M  V30 15483 H 1482.53 -0.347606 2.97879 0
M  V30 15484 H 1480.09 -0.143855 1.55637 0
M  V30 15485 H 1480.82 -2.66066 1.85416 0
M  V30 15486 H 1480.61 -1.87352 3.44444 0
M  V30 15487 H 1482.1 -2.80089 3.09741 0
M  V30 15488 N 1482.53 -1.56697 -0.168486 0
M  V30 15489 C 1483.78 -1.81794 -0.882907 0
M  V30 15490 C 1484.1 -0.682707 -1.82658 0
M  V30 15491 O 1483.37 0.297234 -1.93632 0
M  V30 15492 H 1481.95 -0.670636 -0.329024 0
M  V30 15493 H 1484.62 -1.94178 -0.167625 0
M  V30 15494 H 1483.71 -2.75945 -1.45811 0
M  V30 15495 N 1484.01 0.437135 -1.51416 0
M  V30 15496 C 1484.94 1.538 -1.75692 0
M  V30 15497 C 1485.92 1.5891 -0.606759 0
M  V30 15498 O 1487.11 1.74635 -0.849492 0
M  V30 15499 C 1484.24 2.91877 -1.88215 0
M  V30 15500 C 1483.19 3.01628 -3.03652 0
M  V30 15501 C 1482.52 4.41687 -3.01358 0
M  V30 15502 C 1483.82 2.75691 -4.43612 0
M  V30 15503 H 1485.51 1.33737 -2.67871 0
M  V30 15504 H 1483.06 0.641936 -1.289 0
M  V30 15505 H 1485.01 3.68851 -2.03781 0
M  V30 15506 H 1483.74 3.13173 -0.926847 0
M  V30 15507 H 1482.39 2.27094 -2.87791 0
M  V30 15508 H 1482.04 4.5995 -2.03605 0
M  V30 15509 H 1481.74 4.49141 -3.78875 0
M  V30 15510 H 1483.27 5.20634 -3.19018 0
M  V30 15511 H 1484.68 3.42398 -4.59822 0
M  V30 15512 H 1483.08 2.94554 -5.22836 0
M  V30 15513 H 1484.15 1.71297 -4.53636 0
M  V30 15514 N 1485.49 1.41566 0.692592 0
M  V30 15515 C 1486.42 1.46423 1.81886 0
M  V30 15516 C 1487.4 0.32258 1.67013 0
M  V30 15517 O 1488.59 0.534437 1.86701 0
M  V30 15518 C 1485.72 1.3486 3.20047 0
M  V30 15519 C 1484.67 2.46867 3.49629 0
M  V30 15520 C 1484 2.20369 4.87177 0
M  V30 15521 C 1485.3 3.89205 3.48306 0
M  V30 15522 H 1486.99 2.40683 1.78079 0
M  V30 15523 H 1484.54 1.15845 0.855334 0
M  V30 15524 H 1486.49 1.36869 3.98553 0
M  V30 15525 H 1485.21 0.370859 3.24488 0
M  V30 15526 H 1483.87 2.44146 2.73475 0
M  V30 15527 H 1483.52 1.20931 4.88247 0
M  V30 15528 H 1483.22 2.95426 5.07934 0
M  V30 15529 H 1484.74 2.24099 5.6799 0
M  V30 15530 H 1486.16 3.93626 4.16811 0
M  V30 15531 H 1484.56 4.63969 3.80595 0
M  V30 15532 H 1485.63 4.17144 2.47222 0
M  V30 15533 N 1486.97 -0.927146 1.27443 0
M  V30 15534 C 1487.9 -2.04483 1.12735 0
M  V30 15535 C 1488.88 -1.70076 0.0286662 0
M  V30 15536 O 1490.06 -1.93133 0.203252 0
M  V30 15537 C 1487.19 -3.38557 0.774352 0
M  V30 15538 C 1486.15 -3.87078 1.82632 0
M  V30 15539 C 1485.47 -5.17964 1.32729 0
M  V30 15540 C 1486.77 -4.10409 3.23051 0
M  V30 15541 H 1488.47 -2.17046 2.06231 0
M  V30 15542 H 1486.01 -1.04292 0.992937 0
M  V30 15543 H 1487.97 -4.16227 0.658273 0
M  V30 15544 H 1486.69 -3.26009 -0.196321 0
M  V30 15545 H 1485.35 -3.11602 1.93132 0
M  V30 15546 H 1485 -5.01808 0.346059 0
M  V30 15547 H 1484.7 -5.51398 2.03061 0
M  V30 15548 H 1486.22 -5.98203 1.22416 0
M  V30 15549 H 1487.64 -4.78646 3.15549 0
M  V30 15550 H 1486.03 -4.5515 3.91099 0
M  V30 15551 H 1487.1 -3.15685 3.68064 0
M  V30 15552 N 1488.45 -1.09474 -1.13372 0
M  V30 15553 C 1489.38 -0.756441 -2.20908 0
M  V30 15554 C 1490.36 0.266113 -1.68006 0
M  V30 15555 O 1491.54 0.134067 -1.93737 0
M  V30 15556 C 1488.67 -0.176733 -3.4685 0
M  V30 15557 C 1487.63 -1.12886 -4.12845 0
M  V30 15558 C 1486.95 -0.410831 -5.33119 0
M  V30 15559 C 1488.25 -2.47148 -4.60125 0
M  V30 15560 H 1489.95 -1.65555 -2.49463 0
M  V30 15561 H 1487.49 -0.797458 -1.19902 0
M  V30 15562 H 1489.45 0.0720151 -4.21338 0
M  V30 15563 H 1488.17 0.757576 -3.17692 0
M  V30 15564 H 1486.83 -1.36289 -3.40325 0
M  V30 15565 H 1486.48 0.527632 -5.00225 0
M  V30 15566 H 1486.18 -1.04567 -5.78221 0
M  V30 15567 H 1487.7 -0.170394 -6.10362 0
M  V30 15568 H 1489.11 -2.27949 -5.26034 0
M  V30 15569 H 1487.51 -3.06425 -5.15969 0
M  V30 15570 H 1488.58 -3.07874 -3.74622 0
M  V30 15571 N 1489.92 1.30607 -0.882012 0
M  V30 15572 C 1490.89 2.26489 -0.351498 0
M  V30 15573 C 1491.89 1.52686 0.504348 0
M  V30 15574 O 1493.08 1.71385 0.311928 0
M  V30 15575 C 1490.21 3.37222 0.499435 0
M  V30 15576 H 1491.4 2.74929 -1.19809 0
M  V30 15577 H 1488.96 1.41746 -0.658616 0
M  V30 15578 H 1489.69 2.94093 1.36673 0
M  V30 15579 H 1489.48 3.91936 -0.11356 0
M  V30 15580 H 1490.97 4.08596 0.862497 0
M  V30 15581 N 1491.4 0.642663 1.43901 0
M  V30 15582 C 1492.65 0.152003 2.0223 0
M  V30 15583 C 1492.98 -1.22711 1.50518 0
M  V30 15584 O 1492.26 -1.817 0.693937 0
M  V30 15585 C 1492.54 0.151278 3.59782 0
M  V30 15586 C 1492.39 1.56356 4.2175 0
M  V30 15587 C 1493.71 -0.518016 4.37041 0
M  V30 15588 H 1490.83 0.0567094 0.734815 0
M  V30 15589 H 1493.47 0.821337 1.7133 0
M  V30 15590 H 1491.62 -0.418679 3.86237 0
M  V30 15591 H 1493.29 2.18329 4.06362 0
M  V30 15592 H 1491.54 2.11401 3.78803 0
M  V30 15593 H 1492.21 1.51499 5.30803 0
M  V30 15594 H 1494.68 -0.0331947 4.16087 0
M  V30 15595 H 1493.56 -0.487754 5.46729 0
M  V30 15596 H 1493.82 -1.59036 4.12504 0
M  V30 15597 N 1492.88 -1.52852 0.383918 0
M  V30 15598 C 1493.81 -2.29213 -0.44539 0
M  V30 15599 C 1494.79 -1.3238 -1.06815 0
M  V30 15600 O 1495.98 -1.61269 -1.08194 0
M  V30 15601 C 1493.11 -3.09497 -1.57573 0
M  V30 15602 C 1492.06 -4.14168 -1.07928 0
M  V30 15603 C 1491.39 -4.82644 -2.30128 0
M  V30 15604 C 1492.69 -5.22082 -0.151035 0
M  V30 15605 H 1494.38 -2.98786 0.19172 0
M  V30 15606 H 1491.93 -1.43695 0.0936471 0
M  V30 15607 H 1493.88 -3.61672 -2.16267 0
M  V30 15608 H 1492.6 -2.37647 -2.24034 0
M  V30 15609 H 1491.26 -3.62966 -0.514909 0
M  V30 15610 H 1490.91 -4.07348 -2.95087 0
M  V30 15611 H 1490.61 -5.53388 -1.97574 0
M  V30 15612 H 1492.14 -5.37621 -2.89475 0
M  V30 15613 H 1493.55 -5.69649 -0.646003 0
M  V30 15614 H 1491.95 -6.00041 0.0844833 0
M  V30 15615 H 1493.02 -4.78228 0.801618 0
M  V30 15616 N 1494.36 -0.113586 -1.5719 0
M  V30 15617 C 1495.61 0.546529 -1.95297 0
M  V30 15618 C 1495.94 1.66674 -0.996671 0
M  V30 15619 O 1495.21 1.94472 -0.0329298 0
M  V30 15620 C 1495.5 1.08433 -3.43387 0
M  V30 15621 C 1495.35 -0.0320929 -4.49789 0
M  V30 15622 C 1496.67 1.97691 -3.932 0
M  V30 15623 H 1493.79 0.197195 -0.710129 0
M  V30 15624 H 1496.43 -0.188048 -1.89067 0
M  V30 15625 H 1494.58 1.71033 -3.48827 0
M  V30 15626 H 1496.25 -0.66716 -4.5645 0
M  V30 15627 H 1494.49 -0.695983 -4.2818 0
M  V30 15628 H 1495.17 0.385341 -5.50653 0
M  V30 15629 H 1497.64 1.4497 -3.90029 0
M  V30 15630 H 1496.52 2.3224 -4.97349 0
M  V30 15631 H 1496.78 2.90137 -3.33576 0
M  V30 15632 N 1495.84 1.56784 0.160173 0
M  V30 15633 C 1497.08 1.82621 0.874982 0
M  V30 15634 C 1497.41 0.692427 1.81757 0
M  V30 15635 O 1496.67 -0.319535 1.93074 0
M  V30 15636 C 1496.97 3.14703 1.69402 0
M  V30 15637 C 1496.63 4.41839 0.899373 0
M  V30 15638 C 1495.29 4.7637 0.680099 0
M  V30 15639 C 1497.65 5.20072 0.342747 0
M  V30 15640 C 1494.97 5.86603 -0.106723 0
M  V30 15641 C 1497.33 6.3113 -0.431044 0
M  V30 15642 C 1495.99 6.64219 -0.661017 0
M  V30 15643 H 1495.26 0.668256 0.320178 0
M  V30 15644 H 1497.91 1.90993 0.139305 0
M  V30 15645 H 1496.21 3.01723 2.49941 0
M  V30 15646 H 1497.91 3.31906 2.25032 0
M  V30 15647 H 1494.5 4.14761 1.08033 0
M  V30 15648 H 1498.68 4.9378 0.499467 0
M  V30 15649 H 1493.94 6.1069 -0.294528 0
M  V30 15650 H 1498.11 6.9095 -0.869557 0
M  V30 15651 H 1495.74 7.49473 -1.27257 0
M  V30 15652 N 1497.32 -0.429099 1.51646 0
M  V30 15653 C 1498.56 -1.17958 1.64966 0
M  V30 15654 C 1498.89 -1.90667 0.368755 0
M  V30 15655 O 1498.17 -1.83945 -0.632023 0
M  V30 15656 C 1498.45 -2.19002 2.8585 0
M  V30 15657 C 1498.31 -1.50321 4.23938 0
M  V30 15658 C 1499.62 -3.19895 3.0225 0
M  V30 15659 H 1496.74 -0.427474 0.600362 0
M  V30 15660 H 1499.39 -0.46777 1.84152 0
M  V30 15661 H 1497.54 -2.79707 2.69623 0
M  V30 15662 H 1499.21 -0.928902 4.51851 0
M  V30 15663 H 1497.45 -0.805431 4.26257 0
M  V30 15664 H 1498.12 -2.2395 5.0453 0
M  V30 15665 H 1500.6 -2.69251 3.17243 0
M  V30 15666 H 1499.47 -3.8788 3.88381 0
M  V30 15667 H 1499.73 -3.86477 2.14682 0
M  V30 15668 N 1498.79 -1.41931 -0.685074 0
M  V30 15669 C 1499.73 -1.39028 -1.8096 0
M  V30 15670 C 1500.7 -0.256001 -1.60572 0
M  V30 15671 O 1501.89 -0.44459 -1.83182 0
M  V30 15672 C 1499.02 -1.17125 -3.17804 0
M  V30 15673 C 1498.06 -2.33411 -3.56961 0
M  V30 15674 S 1498.89 -3.9592 -3.60565 0
M  V30 15675 C 1500.05 -3.7634 -5.00119 0
M  V30 15676 H 1500.28 -2.34189 -1.83146 0
M  V30 15677 H 1497.82 -1.2858 -0.854778 0
M  V30 15678 H 1499.77 -1.05175 -3.96798 0
M  V30 15679 H 1498.44 -0.235668 -3.13215 0
M  V30 15680 H 1497.63 -2.13807 -4.56402 0
M  V30 15681 H 1497.23 -2.41823 -2.85303 0
M  V30 15682 H 1499.52 -3.36695 -5.87914 0
M  V30 15683 H 1500.47 -4.7542 -5.24768 0
M  V30 15684 H 1500.87 -3.09407 -4.72152 0
M  V30 15685 N 1500.27 0.920374 -1.27933 0
M  V30 15686 C 1501.5 1.70028 -1.17363 0
M  V30 15687 C 1501.91 1.87246 0.271214 0
M  V30 15688 O 1501.25 1.39449 1.19581 0
M  V30 15689 C 1501.31 3.11595 -1.79301 0
M  V30 15690 C 1500.98 3.17687 -3.28518 0
M  V30 15691 C 1501.98 2.99383 -4.25048 0
M  V30 15692 C 1499.66 3.40412 -3.69357 0
M  V30 15693 C 1501.65 3.03704 -5.60395 0
M  V30 15694 C 1499.34 3.44367 -5.04832 0
M  V30 15695 C 1500.34 3.26032 -6.0016 0
M  V30 15696 O 1500.03 3.29735 -7.33164 0
M  V30 15697 H 1499.76 0.538497 -0.408652 0
M  V30 15698 H 1502.31 1.16086 -1.6945 0
M  V30 15699 H 1500.54 3.6705 -1.217 0
M  V30 15700 H 1502.23 3.71584 -1.63341 0
M  V30 15701 H 1503 2.8166 -3.94833 0
M  V30 15702 H 1498.88 3.53731 -2.95627 0
M  V30 15703 H 1502.42 2.89312 -6.34779 0
M  V30 15704 H 1498.32 3.61616 -5.347 0
M  V30 15705 H 1499.09 3.46141 -7.41707 0
M  V30 15706 N 1501.75 1.10074 1.1279 0
M  V30 15707 C 1503.17 0.831776 1.36212 0
M  V30 15708 C 1503.37 -0.550632 1.93831 0
M  V30 15709 O 1502.42 -1.30422 2.16209 0
M  V30 15710 C 1503.73 1.92844 2.3072 0
M  V30 15711 C 1505.28 1.95645 2.4432 0
M  V30 15712 C 1505.76 3.04474 3.4214 0
M  V30 15713 N 1507.25 3.03756 3.49695 0
M  V30 15714 C 1507.98 3.84605 4.25284 0
M  V30 15715 N 1507.48 4.7538 5.0397 0
M  V30 15716 N 1509.27 3.72838 4.20652 0
M  V30 15717 H 1501.42 1.99187 0.737452 0
M  V30 15718 H 1503.69 0.865383 0.387062 0
M  V30 15719 H 1503.39 2.92323 1.9555 0
M  V30 15720 H 1503.27 1.81241 3.30805 0
M  V30 15721 H 1505.65 0.968004 2.78772 0
M  V30 15722 H 1505.73 2.11325 1.44136 0
M  V30 15723 H 1505.38 4.03536 3.08418 0
M  V30 15724 H 1505.31 2.86036 4.42144 0
M  V30 15725 H 1507.8 2.37977 2.93556 0
M  V30 15726 H 1508.11 5.33637 5.58974 0
M  V30 15727 H 1506.46 4.79411 5.0318 0
M  V30 15728 H 1509.65 3.01276 3.5826 0
M  V30 15729 H 1509.82 4.36083 4.79308 0
M  V30 15730 N 1503.23 -1.30138 0.888926 0
M  V30 15731 C 1504.16 -2.26177 0.303221 0
M  V30 15732 C 1505.14 -1.51962 -0.578471 0
M  V30 15733 O 1506.32 -1.80963 -0.527685 0
M  V30 15734 C 1503.45 -3.3389 -0.568783 0
M  V30 15735 C 1502.5 -4.25801 0.24412 0
M  V30 15736 S 1503.33 -5.09931 1.63496 0
M  V30 15737 C 1504.48 -6.21151 0.76959 0
M  V30 15738 H 1504.72 -2.75507 1.11728 0
M  V30 15739 H 1502.25 -1.38195 0.688594 0
M  V30 15740 H 1504.21 -3.96413 -1.06614 0
M  V30 15741 H 1502.87 -2.83276 -1.35697 0
M  V30 15742 H 1502.06 -5.02234 -0.42151 0
M  V30 15743 H 1501.66 -3.67872 0.67424 0
M  V30 15744 H 1503.96 -6.77499 -0.0117256 0
M  V30 15745 H 1504.9 -6.91907 1.50566 0
M  V30 15746 H 1505.31 -5.63542 0.328744 0
M  V30 15747 N 1504.71 -0.650285 -1.43559 0
M  V30 15748 C 1505.95 -0.162164 -2.01448 0
M  V30 15749 C 1506.27 1.22717 -1.51544 0
M  V30 15750 O 1505.54 1.81917 -0.726855 0
M  V30 15751 H 1504.12 -0.0569599 -0.744825 0
M  V30 15752 H 1506.79 -0.841294 -1.75807 0
M  V30 15753 H 1505.88 -0.144531 -3.11765 0
M  V30 15754 N 1506.18 1.52647 -0.392018 0
M  V30 15755 C 1507.43 2.01613 0.1893 0
M  V30 15756 C 1507.76 1.27837 1.46588 0
M  V30 15757 O 1507.01 0.368018 1.92209 0
M  V30 15758 C 1507.31 3.53872 0.500914 0
M  V30 15759 C 1506.98 4.45675 -0.684434 0
M  V30 15760 C 1505.64 4.70489 -1.00961 0
M  V30 15761 C 1507.99 4.99825 -1.4773 0
M  V30 15762 C 1505.32 5.46703 -2.12915 0
M  V30 15763 C 1507.67 5.77263 -2.58747 0
M  V30 15764 C 1506.34 6.00355 -2.9177 0
M  V30 15765 H 1505.61 0.737755 0.0692697 0
M  V30 15766 H 1508.25 1.84022 -0.529924 0
M  V30 15767 H 1506.56 3.69551 1.3015 0
M  V30 15768 H 1508.26 3.89256 0.963382 0
M  V30 15769 H 1504.85 4.26527 -0.420985 0
M  V30 15770 H 1509.03 4.80577 -1.23932 0
M  V30 15771 H 1504.29 5.62807 -2.38868 0
M  V30 15772 H 1508.46 6.18223 -3.20583 0
M  V30 15773 H 1506.09 6.59194 -3.7864 0
M  V30 15774 N 1507.66 0.121921 1.57128 0
M  V30 15775 C 1508.91 -0.535371 1.95295 0
M  V30 15776 C 1509.24 -1.665 1.00539 0
M  V30 15777 O 1508.49 -1.95677 0.0298129 0
M  V30 15778 C 1508.79 -1.10579 3.39863 0
M  V30 15779 C 1508.46 -0.0972144 4.50795 0
M  V30 15780 C 1507.12 0.180111 4.80863 0
M  V30 15781 C 1509.47 0.589973 5.1785 0
M  V30 15782 C 1506.8 1.15086 5.75302 0
M  V30 15783 C 1509.15 1.54937 6.13333 0
M  V30 15784 C 1507.82 1.83465 6.41792 0
M  V30 15785 H 1507.09 -0.195906 0.714634 0
M  V30 15786 H 1509.73 0.203445 1.90416 0
M  V30 15787 H 1508.04 -1.92143 3.4145 0
M  V30 15788 H 1509.73 -1.62252 3.66709 0
M  V30 15789 H 1506.32 -0.32355 4.27377 0
M  V30 15790 H 1510.51 0.38889 4.94774 0
M  V30 15791 H 1505.76 1.3786 5.95655 0
M  V30 15792 H 1509.94 2.08751 6.64376 0
M  V30 15793 H 1507.57 2.58841 7.14777 0
M  V30 15794 N 1509.14 -1.56867 -0.151857 0
M  V30 15795 C 1510.09 -1.97899 -1.18763 0
M  V30 15796 C 1511.06 -0.845833 -1.42951 0
M  V30 15797 O 1512.24 -1.10751 -1.55367 0
M  V30 15798 C 1509.38 -2.36063 -2.5173 0
M  V30 15799 C 1508.5 -3.62647 -2.34757 0
M  V30 15800 C 1507.63 -3.89936 -3.60726 0
M  V30 15801 C 1506.67 -5.09806 -3.38769 0
M  V30 15802 N 1505.81 -5.33129 -4.56856 0
M  V30 15803 H 1510.65 -2.86187 -0.830713 0
M  V30 15804 H 1508.18 -1.41592 -0.398745 0
M  V30 15805 H 1510.14 -2.56218 -3.29254 0
M  V30 15806 H 1508.77 -1.50861 -2.85379 0
M  V30 15807 H 1507.82 -3.50297 -1.48312 0
M  V30 15808 H 1509.14 -4.50328 -2.1449 0
M  V30 15809 H 1508.29 -4.10563 -4.4668 0
M  V30 15810 H 1507.03 -3.00668 -3.83993 0
M  V30 15811 H 1506.03 -4.89057 -2.51203 0
M  V30 15812 H 1507.26 -6.00623 -3.16906 0
M  V30 15813 H 1505.2 -4.46815 -4.80305 0
M  V30 15814 H 1505.12 -6.1507 -4.39574 0
M  V30 15815 H 1506.39 -5.5825 -5.44038 0
M  V30 15816 N 1510.62 0.421051 -1.51871 0
M  V30 15817 C 1512.03 0.758781 -1.40409 0
M  V30 15818 C 1512.23 1.95219 -0.499197 0
M  V30 15819 O 1511.29 2.52469 0.0395216 0
M  V30 15820 C 1512.6 1.02388 -2.82731 0
M  V30 15821 C 1514.15 1.12733 -2.91994 0
M  V30 15822 C 1514.63 1.42527 -4.35259 0
M  V30 15823 N 1516.12 1.49417 -4.38439 0
M  V30 15824 C 1516.85 1.74074 -5.46339 0
M  V30 15825 N 1516.35 1.96414 -6.64375 0
M  V30 15826 N 1518.14 1.7599 -5.33839 0
M  V30 15827 H 1510.29 -0.364682 -2.09246 0
M  V30 15828 H 1512.56 -0.100819 -0.942624 0
M  V30 15829 H 1512.26 0.219491 -3.51014 0
M  V30 15830 H 1512.14 1.94724 -3.23052 0
M  V30 15831 H 1514.52 1.92233 -2.23899 0
M  V30 15832 H 1514.6 0.182611 -2.55147 0
M  V30 15833 H 1514.25 0.635486 -5.03909 0
M  V30 15834 H 1514.18 2.38231 -4.69631 0
M  V30 15835 H 1516.67 1.3399 -3.53348 0
M  V30 15836 H 1516.98 2.14644 -7.42393 0
M  V30 15837 H 1515.33 1.93702 -6.67461 0
M  V30 15838 H 1518.52 1.58067 -4.40605 0
M  V30 15839 H 1518.69 1.94868 -6.18005 0
M  V30 15840 N 1512.1 1.42293 0.677538 0
M  V30 15841 C 1513.34 1.42827 1.43973 0
M  V30 15842 C 1513.68 0.0435041 1.94151 0
M  V30 15843 O 1512.95 -0.931794 1.70727 0
M  V30 15844 C 1513.23 2.45037 2.63873 0
M  V30 15845 C 1513.09 3.92694 2.19344 0
M  V30 15846 C 1514.41 2.4427 3.66087 0
M  V30 15847 H 1511.52 0.520097 0.522176 0
M  V30 15848 H 1514.17 1.73688 0.770219 0
M  V30 15849 H 1512.32 2.18851 3.20993 0
M  V30 15850 H 1513.99 4.2985 1.67412 0
M  V30 15851 H 1512.23 4.06692 1.50944 0
M  V30 15852 H 1512.9 4.59784 3.05455 0
M  V30 15853 H 1515.38 2.67551 3.18678 0
M  V30 15854 H 1514.25 3.17769 4.47564 0
M  V30 15855 H 1514.52 1.46769 4.17027 0
M  V30 15856 N 1513.57 -0.913576 1.28419 0
M  V30 15857 C 1514.99 -1.192 1.0613 0
M  V30 15858 C 1515.19 -2.00542 -0.196232 0
M  V30 15859 O 1514.25 -2.35998 -0.897853 0
M  V30 15860 C 1515.56 -1.92642 2.30889 0
M  V30 15861 C 1517.11 -2.05524 2.3607 0
M  V30 15862 C 1517.58 -2.82374 3.60595 0
M  V30 15863 N 1519.07 -2.89935 3.61236 0
M  V30 15864 C 1519.81 -3.49899 4.54266 0
M  V30 15865 N 1519.3 -4.11141 5.57615 0
M  V30 15866 N 1521.1 -3.4744 4.41862 0
M  V30 15867 H 1513.25 -0.370509 2.09143 0
M  V30 15868 H 1515.51 -0.226573 0.920526 0
M  V30 15869 H 1515.22 -1.40299 3.22504 0
M  V30 15870 H 1515.09 -2.93191 2.37316 0
M  V30 15871 H 1517.48 -2.57047 1.44951 0
M  V30 15872 H 1517.56 -1.0415 2.33637 0
M  V30 15873 H 1517.2 -2.3153 4.52058 0
M  V30 15874 H 1517.13 -3.84063 3.60282 0
M  V30 15875 H 1519.62 -2.46424 2.86502 0
M  V30 15876 H 1519.94 -4.54877 6.24746 0
M  V30 15877 H 1518.28 -4.09645 5.61441 0
M  V30 15878 H 1521.47 -2.98806 3.60323 0
M  V30 15879 H 1521.65 -3.9388 5.14551 0
M  V30 15880 N 1515.05 -1.1067 -1.12204 0
M  V30 15881 C 1516.46 -0.867959 -1.65298 0
M  V30 15882 C 1516.81 0.601297 -1.86759 0
M  V30 15883 O 1515.94 1.46153 -1.59588 0
M  V30 15884 C 1516.53 -1.56906 -3.00276 0
M  V30 15885 C 1515.09 -1.37696 -3.5031 0
M  V30 15886 C 1514.24 -1.61688 -2.25282 0
M  V30 15887 H 1517.19 -1.26408 -0.959521 0
M  V30 15888 H 1517.21 -1.00947 -3.66865 0
M  V30 15889 H 1516.72 -2.63838 -2.84625 0
M  V30 15890 H 1514.83 -0.329381 -3.71141 0
M  V30 15891 H 1514.94 -2.12058 -4.29614 0
M  V30 15892 H 1513.3 -1.03977 -2.3251 0
M  V30 15893 H 1514.09 -2.69877 -2.12182 0
M  V30 15894 N 1516.53 1.29665 -0.895815 0
M  V30 15895 C 1517.94 1.77825 -0.568784 0
M  V30 15896 C 1518.29 1.73534 0.915443 0
M  V30 15897 O 1517.42 1.31885 1.71567 0
M  V30 15898 C 1518.01 3.22901 -1.0257 0
M  V30 15899 C 1516.57 3.68854 -0.749903 0
M  V30 15900 C 1515.72 2.49866 -1.20259 0
M  V30 15901 H 1518.67 1.16381 -1.07894 0
M  V30 15902 H 1518.69 3.788 -0.359312 0
M  V30 15903 H 1518.2 3.25991 -2.10597 0
M  V30 15904 H 1516.3 3.71241 0.317916 0
M  V30 15905 H 1516.42 4.59831 -1.34506 0
M  V30 15906 H 1514.78 2.46997 -0.621676 0
M  V30 15907 H 1515.56 2.55687 -2.29083 0
M  V30 15908 N 1518.01 0.657889 1.43212 0
M  V30 15909 C 1518.94 -0.0695999 2.29094 0
M  V30 15910 C 1519.95 -0.782463 1.42763 0
M  V30 15911 O 1521.14 -0.63944 1.66654 0
M  V30 15912 C 1518.24 -1.12178 3.19796 0
M  V30 15913 C 1517.42 -0.486131 4.3469 0
M  V30 15914 C 1516.47 -1.43582 5.06232 0
M  V30 15915 O 1515.5 -0.942622 5.61341 0
M  V30 15916 N 1516.7 -2.76966 5.10167 0
M  V30 15917 H 1519.47 0.667565 2.92171 0
M  V30 15918 H 1517.03 0.501022 1.53953 0
M  V30 15919 H 1519.02 -1.75801 3.64522 0
M  V30 15920 H 1517.59 -1.76087 2.58287 0
M  V30 15921 H 1516.81 0.329281 3.92822 0
M  V30 15922 H 1518.1 -0.0425918 5.08782 0
M  V30 15923 H 1517.5 -3.19592 4.66774 0
M  V30 15924 H 1516.05 -3.3588 5.58595 0
M  V30 15925 N 1519.49 -1.52437 0.400108 0
M  V30 15926 C 1520.4 -2.30496 -0.436875 0
M  V30 15927 C 1521.41 -1.37851 -1.06175 0
M  V30 15928 O 1522.59 -1.70924 -1.06522 0
M  V30 15929 C 1519.65 -3.10459 -1.54325 0
M  V30 15930 C 1518.71 -4.18829 -0.942367 0
M  V30 15931 C 1517.95 -4.94969 -1.99602 0
M  V30 15932 O 1518.17 -4.71314 -3.21278 0
M  V30 15933 O 1517.1 -5.80043 -1.60728 0
M  V30 15934 H 1520.93 -3.03045 0.199343 0
M  V30 15935 H 1518.52 -1.48502 0.163541 0
M  V30 15936 H 1520.4 -3.60282 -2.18575 0
M  V30 15937 H 1519.07 -2.40713 -2.16423 0
M  V30 15938 H 1517.98 -3.73176 -0.262831 0
M  V30 15939 H 1519.31 -4.90841 -0.365441 0
M  V30 15940 N 1520.96 -0.130252 -1.57061 0
M  V30 15941 C 1521.87 0.829198 -2.19457 0
M  V30 15942 C 1522.89 1.2843 -1.17395 0
M  V30 15943 O 1524.07 1.34496 -1.49909 0
M  V30 15944 C 1521.13 2.05727 -2.79065 0
M  V30 15945 C 1520.19 1.65301 -3.962 0
M  V30 15946 C 1519.43 2.82253 -4.52956 0
M  V30 15947 O 1519.65 3.97999 -4.08598 0
M  V30 15948 O 1518.58 2.5869 -5.43473 0
M  V30 15949 H 1522.41 0.328139 -3.01922 0
M  V30 15950 H 1519.99 0.0959361 -1.49092 0
M  V30 15951 H 1521.88 2.7763 -3.17017 0
M  V30 15952 H 1520.55 2.54817 -1.99624 0
M  V30 15953 H 1519.46 0.904712 -3.62996 0
M  V30 15954 H 1520.79 1.20942 -4.7711 0
M  V30 15955 N 1522.44 1.56945 0.143535 0
M  V30 15956 C 1523.38 1.95134 1.2023 0
M  V30 15957 C 1524.39 0.847593 1.38995 0
M  V30 15958 O 1525.58 1.12599 1.38505 0
M  V30 15959 C 1522.68 2.21316 2.56656 0
M  V30 15960 C 1521.85 3.52604 2.58822 0
M  V30 15961 C 1520.91 3.67285 3.76813 0
M  V30 15962 O 1519.94 4.39644 3.61527 0
M  V30 15963 N 1521.14 3.04208 4.94406 0
M  V30 15964 H 1523.9 2.86561 0.87766 0
M  V30 15965 H 1521.46 1.58437 0.333065 0
M  V30 15966 H 1523.46 2.28375 3.34106 0
M  V30 15967 H 1522.03 1.36137 2.81399 0
M  V30 15968 H 1521.25 3.56954 1.67264 0
M  V30 15969 H 1522.53 4.38944 2.57304 0
M  V30 15970 H 1521.93 2.45344 5.09728 0
M  V30 15971 H 1520.49 3.16824 5.69619 0
M  V30 15972 N 1523.92 -0.412991 1.52093 0
M  V30 15973 C 1524.83 -1.52768 1.78042 0
M  V30 15974 C 1525.85 -1.60758 0.665791 0
M  V30 15975 O 1527.02 -1.77545 0.950772 0
M  V30 15976 C 1524.09 -2.8854 1.92213 0
M  V30 15977 C 1523.15 -2.90468 3.16112 0
M  V30 15978 C 1522.38 -4.19763 3.29598 0
M  V30 15979 O 1522.61 -5.13454 2.48438 0
M  V30 15980 O 1521.54 -4.2847 4.22726 0
M  V30 15981 H 1525.37 -1.33777 2.72649 0
M  V30 15982 H 1522.95 -0.598461 1.3689 0
M  V30 15983 H 1524.83 -3.69073 2.03379 0
M  V30 15984 H 1523.51 -3.07607 1.00795 0
M  V30 15985 H 1522.41 -2.08801 3.10408 0
M  V30 15986 H 1523.75 -2.76349 4.07298 0
M  V30 15987 N 1525.4 -1.4265 -0.669982 0
M  V30 15988 C 1526.82 -1.25682 -0.983682 0
M  V30 15989 C 1527.02 -0.164456 -2.00828 0
M  V30 15990 O 1526.07 0.462711 -2.48224 0
M  V30 15991 C 1527.38 -2.61536 -1.4839 0
M  V30 15992 C 1528.93 -2.6893 -1.60143 0
M  V30 15993 C 1529.41 -4.05162 -2.1356 0
M  V30 15994 N 1530.9 -4.07141 -2.20886 0
M  V30 15995 C 1531.63 -5.09371 -2.63303 0
M  V30 15996 N 1531.13 -6.21983 -3.05137 0
M  V30 15997 N 1532.92 -4.96727 -2.63094 0
M  V30 15998 H 1525.07 -2.12398 0.0083059 0
M  V30 15999 H 1527.34 -0.946173 -0.058823 0
M  V30 16000 H 1527.04 -3.42351 -0.805527 0
M  V30 16001 H 1526.92 -2.85786 -2.46183 0
M  V30 16002 H 1529.3 -1.88457 -2.27085 0
M  V30 16003 H 1529.38 -2.48463 -0.608266 0
M  V30 16004 H 1529.03 -4.86094 -1.47224 0
M  V30 16005 H 1528.96 -4.22984 -3.13676 0
M  V30 16006 H 1531.45 -3.25846 -1.91396 0
M  V30 16007 H 1531.76 -6.95835 -3.36204 0
M  V30 16008 H 1530.11 -6.25481 -3.02983 0
M  V30 16009 H 1533.3 -4.07824 -2.29777 0
M  V30 16010 H 1533.47 -5.76531 -2.95831 0
M  V30 16011 N 1526.88 0.906753 -1.28902 0
M  V30 16012 C 1527.79 2.04313 -1.15296 0
M  V30 16013 C 1528.8 1.73826 -0.0778619 0
M  V30 16014 O 1529.98 1.99322 -0.288543 0
M  V30 16015 C 1527.04 3.36782 -0.823317 0
M  V30 16016 C 1526.11 3.80834 -1.98152 0
M  V30 16017 C 1525.34 5.06981 -1.66751 0
M  V30 16018 O 1525.56 5.67391 -0.58513 0
M  V30 16019 O 1524.5 5.46915 -2.51332 0
M  V30 16020 H 1528.32 2.18713 -2.10709 0
M  V30 16021 H 1525.91 1.02928 -1.08287 0
M  V30 16022 H 1527.79 4.16298 -0.653735 0
M  V30 16023 H 1526.46 3.23542 0.101097 0
M  V30 16024 H 1525.37 3.02115 -2.2063 0
M  V30 16025 H 1526.7 3.98648 -2.88688 0
M  V30 16026 N 1528.36 1.11264 1.11616 0
M  V30 16027 C 1529.29 0.727118 2.17361 0
M  V30 16028 C 1530.3 -0.240356 1.61016 0
M  V30 16029 O 1531.49 -0.0235265 1.78484 0
M  V30 16030 C 1528.59 0.05361 3.38858 0
M  V30 16031 C 1527.76 1.04744 4.24673 0
M  V30 16032 C 1526.82 0.403827 5.24648 0
M  V30 16033 O 1525.85 1.0572 5.59296 0
M  V30 16034 N 1527.05 -0.834071 5.74477 0
M  V30 16035 H 1529.81 1.63696 2.51045 0
M  V30 16036 H 1527.38 1.00261 1.2712 0
M  V30 16037 H 1529.37 -0.388643 4.0283 0
M  V30 16038 H 1527.94 -0.758778 3.03251 0
M  V30 16039 H 1527.16 1.6677 3.57185 0
M  V30 16040 H 1528.45 1.71988 4.7885 0
M  V30 16041 H 1527.84 -1.3841 5.48506 0
M  V30 16042 H 1526.4 -1.21933 6.40293 0
M  V30 16043 N 1529.83 -1.29188 0.902679 0
M  V30 16044 C 1530.76 -2.3006 0.399357 0
M  V30 16045 C 1531.74 -1.61724 -0.527199 0
M  V30 16046 O 1532.93 -1.89213 -0.437293 0
M  V30 16047 C 1530.06 -3.45309 -0.371331 0
M  V30 16048 C 1529.01 -4.25466 0.465068 0
M  V30 16049 C 1528.34 -5.32941 -0.433295 0
M  V30 16050 C 1529.64 -4.93287 1.71655 0
M  V30 16051 H 1531.33 -2.72409 1.24233 0
M  V30 16052 H 1528.88 -1.30958 0.598822 0
M  V30 16053 H 1530.83 -4.14955 -0.734207 0
M  V30 16054 H 1529.56 -3.01811 -1.24811 0
M  V30 16055 H 1528.22 -3.57532 0.810315 0
M  V30 16056 H 1527.86 -4.85688 -1.3083 0
M  V30 16057 H 1527.56 -5.87472 0.122657 0
M  V30 16058 H 1529.09 -6.05438 -0.792298 0
M  V30 16059 H 1530.5 -5.55353 1.42323 0
M  V30 16060 H 1528.9 -5.57763 2.21405 0
M  V30 16061 H 1529.97 -4.18406 2.45081 0
M  V30 16062 N 1531.31 -0.665475 -1.42861 0
M  V30 16063 C 1532.24 0.0574495 -2.29128 0
M  V30 16064 C 1533.26 0.774881 -1.43176 0
M  V30 16065 O 1534.45 0.630593 -1.6699 0
M  V30 16066 C 1531.55 1.10481 -3.20386 0
M  V30 16067 C 1530.72 0.463071 -4.34942 0
M  V30 16068 C 1529.78 1.40896 -5.06986 0
M  V30 16069 O 1528.8 0.912839 -5.61833 0
M  V30 16070 N 1530.01 2.74257 -5.11628 0
M  V30 16071 H 1532.77 -0.683051 -2.91812 0
M  V30 16072 H 1530.33 -0.509179 -1.53685 0
M  V30 16073 H 1532.32 1.73866 -3.65449 0
M  V30 16074 H 1530.89 1.74715 -2.59217 0
M  V30 16075 H 1530.11 -0.350109 -3.92642 0
M  V30 16076 H 1531.4 0.0156092 -5.08798 0
M  V30 16077 H 1530.8 3.17112 -4.68462 0
M  V30 16078 H 1529.36 3.32913 -5.60368 0
M  V30 16079 N 1532.79 1.52222 -0.408187 0
M  V30 16080 C 1534.2 1.86598 0.0616213 0
M  V30 16081 C 1534.55 1.32698 1.44519 0
M  V30 16082 O 1533.68 0.665883 2.059 0
M  V30 16083 C 1534.27 3.38592 0.118595 0
M  V30 16084 C 1532.83 3.72611 0.532737 0
M  V30 16085 C 1531.98 2.75744 -0.293356 0
M  V30 16086 H 1534.93 1.45862 -0.625291 0
M  V30 16087 H 1534.95 3.68858 0.934039 0
M  V30 16088 H 1534.46 3.77792 -0.888516 0
M  V30 16089 H 1532.56 3.38989 1.54652 0
M  V30 16090 H 1532.68 4.78294 0.277777 0
M  V30 16091 H 1531.04 2.53527 0.244166 0
M  V30 16092 H 1531.82 3.17783 -1.2988 0
M  V30 16093 N 1534.27 0.138579 1.5699 0
M  V30 16094 C 1535.22 -0.815878 2.12902 0
M  V30 16095 C 1536.2 -1.21511 1.0547 0
M  V30 16096 O 1537.39 -1.18294 1.31665 0
M  V30 16097 C 1534.52 -2.0583 2.74752 0
M  V30 16098 C 1533.61 -1.68255 3.89296 0
M  V30 16099 N 1534 -1.01456 4.9552 0
M  V30 16100 C 1532.3 -1.97583 3.99846 0
M  V30 16101 C 1533 -0.834498 5.75683 0
M  V30 16102 N 1531.97 -1.36571 5.26165 0
M  V30 16103 H 1535.78 -0.296204 2.92404 0
M  V30 16104 H 1533.29 -0.0632473 1.62277 0
M  V30 16105 H 1535.29 -2.75197 3.13165 0
M  V30 16106 H 1533.95 -2.58323 1.96721 0
M  V30 16107 H 1534.96 -0.67628 5.13466 0
M  V30 16108 H 1531.64 -2.51985 3.32881 0
M  V30 16109 H 1533.03 -0.308664 6.71191 0
M  V30 16110 N 1535.75 -1.57019 -0.13521 0
M  V30 16111 C 1536.66 -2.02427 -1.18578 0
M  V30 16112 C 1537.67 -0.941738 -1.46312 0
M  V30 16113 O 1538.85 -1.25208 -1.57749 0
M  V30 16114 C 1535.91 -2.40577 -2.49647 0
M  V30 16115 C 1534.97 -3.62835 -2.29455 0
M  V30 16116 C 1534.21 -3.99156 -3.54274 0
M  V30 16117 O 1534.43 -3.36001 -4.60933 0
M  V30 16118 O 1533.36 -4.92345 -3.46238 0
M  V30 16119 H 1537.19 -2.92131 -0.830237 0
M  V30 16120 H 1534.77 -1.45366 -0.344814 0
M  V30 16121 H 1536.66 -2.65922 -3.269 0
M  V30 16122 H 1535.33 -1.54023 -2.84708 0
M  V30 16123 H 1534.24 -3.42661 -1.50114 0
M  V30 16124 H 1535.57 -4.50043 -1.99305 0
M  V30 16125 N 1537.22 0.404919 -1.52309 0
M  V30 16126 C 1538.17 1.51412 -1.7657 0
M  V30 16127 C 1539.17 1.5713 -0.632983 0
M  V30 16128 O 1540.37 1.60486 -0.815121 0
M  V30 16129 H 1536.75 0.503636 -0.55844 0
M  V30 16130 H 1538.72 1.28137 -2.69488 0
M  V30 16131 C 1537.47 2.88733 -1.93722 0
M  V30 16132 H 1536.79 2.85078 -2.80304 0
M  V30 16133 H 1538.23 3.65626 -2.14695 0
M  V30 16134 C 1536.69 3.29431 -0.705444 0
M  V30 16135 O 1537.22 4.01506 0.124693 0
M  V30 16136 N 1535.43 2.85536 -0.540128 0
M  V30 16137 H 1534.97 2.27052 -1.21677 0
M  V30 16138 H 1534.93 3.13126 0.282723 0
M  V30 16139 N 1538.7 1.43003 0.662408 0
M  V30 16140 C 1539.95 1.43848 1.41958 0
M  V30 16141 C 1540.27 0.06046 1.94906 0
M  V30 16142 O 1539.54 -0.90287 1.73854 0
M  V30 16143 H 1538.12 0.529587 0.526827 0
M  V30 16144 H 1540.78 1.7853 0.781867 0
M  V30 16145 H 1539.88 2.14562 2.26649 0
M  V30 16146 N 1540.18 -0.899904 1.29381 0
M  V30 16147 C 1541.09 -2.03699 1.16378 0
M  V30 16148 C 1542.11 -1.73782 0.0870792 0
M  V30 16149 O 1543.28 -1.99167 0.299109 0
M  V30 16150 C 1540.35 -3.36341 0.841166 0
M  V30 16151 C 1539.41 -3.79778 2.00168 0
M  V30 16152 C 1538.64 -5.0609 1.69437 0
M  V30 16153 O 1538.86 -5.67073 0.615212 0
M  V30 16154 O 1537.8 -5.45574 2.54229 0
M  V30 16155 H 1541.62 -2.17592 2.11866 0
M  V30 16156 H 1539.21 -1.02353 1.08831 0
M  V30 16157 H 1541.09 -4.15946 0.675803 0
M  V30 16158 H 1539.77 -3.23591 -0.0839376 0
M  V30 16159 H 1538.67 -3.00941 2.22229 0
M  V30 16160 H 1540.01 -3.97111 2.90798 0
M  V30 16161 N 1541.66 -1.11854 -1.11024 0
M  V30 16162 C 1542.91 -0.868355 -1.82494 0
M  V30 16163 C 1543.23 0.607622 -1.85292 0
M  V30 16164 O 1542.5 1.44147 -1.32659 0
M  V30 16165 H 1541.08 -0.31826 -0.67581 0
M  V30 16166 H 1543.74 -1.4118 -1.34366 0
M  V30 16167 H 1542.84 -1.24441 -2.86218 0
M  V30 16168 N 1543.14 1.28707 -0.909517 0
M  V30 16169 C 1544.08 2.29396 -0.384756 0
M  V30 16170 C 1545.08 1.61179 0.521318 0
M  V30 16171 O 1546.28 1.7543 0.403032 0
M  V30 16172 H 1542.66 0.744518 -0.105814 0
M  V30 16173 H 1544.63 2.71089 -1.24714 0
M  V30 16174 C 1543.38 3.45792 0.363795 0
M  V30 16175 H 1542.7 3.98483 -0.324198 0
M  V30 16176 H 1544.14 4.18254 0.695681 0
M  V30 16177 C 1542.6 2.98075 1.57012 0
M  V30 16178 O 1543.13 3.00187 2.66929 0
M  V30 16179 N 1541.34 2.53787 1.41565 0
M  V30 16180 H 1540.88 2.52268 0.521415 0
M  V30 16181 H 1540.84 2.2222 2.22408 0
M  V30 16182 N 1544.61 0.673042 1.42506 0
M  V30 16183 C 1545.84 0.201349 2.0642 0
M  V30 16184 C 1546.26 -1.132 1.50224 0
M  V30 16185 O 1545.62 -1.70368 0.620024 0
M  V30 16186 C 1545.67 0.14505 3.60308 0
M  V30 16187 O 1544.77 -0.886953 4.02749 0
M  V30 16188 H 1544.12 0.103975 0.655809 0
M  V30 16189 H 1546.65 0.921559 1.8267 0
M  V30 16190 H 1546.66 -0.0316792 4.07988 0
M  V30 16191 H 1545.33 1.11829 4.00583 0
M  V30 16192 H 1543.91 -0.681408 3.66621 0
M  V30 16193 N 1546.09 -1.52004 0.416254 0
M  V30 16194 C 1547 -2.30947 -0.412403 0
M  V30 16195 C 1548.02 -1.38969 -1.04707 0
M  V30 16196 O 1549.19 -1.72044 -1.04703 0
M  V30 16197 C 1546.26 -3.12078 -1.51024 0
M  V30 16198 C 1545.32 -4.19805 -0.897892 0
M  V30 16199 C 1544.55 -4.97059 -1.94341 0
M  V30 16200 O 1544.78 -4.74695 -3.16261 0
M  V30 16201 O 1543.71 -5.81715 -1.54567 0
M  V30 16202 H 1547.54 -3.02817 0.231473 0
M  V30 16203 H 1545.12 -1.4832 0.179283 0
M  V30 16204 H 1547 -3.6258 -2.14741 0
M  V30 16205 H 1545.68 -2.42995 -2.13858 0
M  V30 16206 H 1544.59 -3.73433 -0.223236 0
M  V30 16207 H 1545.92 -4.91201 -0.31336 0
M  V30 16208 N 1547.57 -0.146903 -1.56914 0
M  V30 16209 C 1548.8 0.511181 -2.00486 0
M  V30 16210 C 1549.21 1.58425 -1.02699 0
M  V30 16211 O 1548.57 1.82484 -0.0239878 0
M  V30 16212 C 1548.62 1.11191 -3.43975 0
M  V30 16213 O 1548.34 0.0817094 -4.38024 0
M  V30 16214 C 1549.84 1.85061 -4.02824 0
M  V30 16215 H 1547.06 0.133078 -0.657671 0
M  V30 16216 H 1549.61 -0.241457 -2.0307 0
M  V30 16217 H 1547.76 1.81517 -3.42243 0
M  V30 16218 H 1548.18 0.52181 -5.21898 0
M  V30 16219 H 1549.65 2.22385 -5.05222 0
M  V30 16220 H 1550.13 2.73649 -3.4353 0
M  V30 16221 H 1550.73 1.19434 -4.08186 0
M  V30 16222 O 1549.09 1.61498 -0.00830815 0
M  V30 16223 H 1549.78 1.83937 0.607211 0
M  V30 END ATOM
M  V30 BEGIN BOND
M  V30 END BOND
M  V30 END CTAB
M  END
$$$$
