drugbank_target|P06703 Protein S100-A6 (DB11093; DB11348; DB14481)
 OpenBabel12092120263D

  0  0  0     0  0            999 V3000
M  V30 BEGIN CTAB
M  V30 COUNTS 1448 1456 0 0 0
M  V30 BEGIN ATOM
M  V30 1 H -0.908 1.98254 -0.117106 0
M  V30 2 N 0 1.576 0 0
M  V30 3 C 0.933 2.03868 1.02534 0
M  V30 4 C 1.911 0.928543 1.3348 0
M  V30 5 O 3.095 1.19667 1.45644 0
M  V30 6 C 0.222 2.43627 2.35294 0
M  V30 7 C -0.732 3.65373 2.2001 0
M  V30 8 S 0.101 5.13292 1.52614 0
M  V30 9 C 1.257 5.56322 2.86805 0
M  V30 10 H 1.49 2.90518 0.631377 0
M  V30 11 H -0.977 1.52953 0.210867 0
M  V30 12 H 0.981 2.67203 3.11629 0
M  V30 13 H -0.358 1.57376 2.7183 0
M  V30 14 H -1.165 3.90944 3.18086 0
M  V30 15 H -1.563 3.418 1.51819 0
M  V30 16 H 0.729 5.58782 3.83104 0
M  V30 17 H 1.672 6.56266 2.65933 0
M  V30 18 H 2.08 4.83886 2.90714 0
M  V30 19 N 1.4781 -0.272755 1.55222 0
M  V30 20 C 2.4411 -1.32041 1.87344 0
M  V30 21 C 3.4411 -1.42342 0.74803 0
M  V30 22 O 4.6311 -1.41488 1.0162 0
M  V30 23 C 1.7631 -2.70173 2.07893 0
M  V30 24 H 2.9561 -1.04789 2.80997 0
M  V30 25 H 0.5091 -0.51083 1.47717 0
M  V30 26 H 1.2441 -3.02605 1.16622 0
M  V30 27 H 1.0291 -2.64082 2.89833 0
M  V30 28 H 2.5191 -3.45869 2.34017 0
M  V30 29 N 2.9562 -1.48159 -0.537278 0
M  V30 30 C 4.1962 -1.57397 -1.30405 0
M  V30 31 C 4.5602 -0.239202 -1.90504 0
M  V30 32 O 5.7612 -0.206528 -2.68005 0
M  V30 33 C 4.0322 -2.6754 -2.36974 0
M  V30 34 S 5.5912 -2.96496 -3.23475 0
M  V30 35 H 2.4092 -0.555577 -0.443684 0
M  V30 36 H 5.0112 -1.85644 -0.612912 0
M  V30 37 H 3.7152 -3.63092 -1.91291 0
M  V30 38 H 3.2462 -2.41172 -3.10805 0
M  V30 39 H 5.2612 -2.35234 -4.36897 0
M  V30 40 N 4.4343 0.785586 -1.36625 0
M  V30 41 C 5.8453 1.36101 -1.27803 0
M  V30 42 C 6.1963 1.96035 0.0804875 0
M  V30 43 O 5.3213 1.92834 0.982042 0
M  V30 44 C 5.9163 2.47442 -2.31426 0
M  V30 45 C 4.4753 3.00789 -2.26281 0
M  V30 46 C 3.6223 1.73896 -2.15999 0
M  V30 47 H 6.5733 0.586928 -1.47448 0
M  V30 48 H 6.5943 3.2656 -1.95291 0
M  V30 49 H 6.1063 2.03791 -3.30289 0
M  V30 50 H 4.2073 3.48851 -1.30896 0
M  V30 51 H 4.3203 3.57343 -3.19128 0
M  V30 52 H 2.6843 1.9628 -1.62316 0
M  V30 53 H 3.4673 1.32368 -3.16755 0
M  V30 54 N 5.9124 1.20967 1.01018 0
M  V30 55 C 6.8424 0.988272 2.11555 0
M  V30 56 C 7.8234 -0.0849778 1.69888 0
M  V30 57 O 9.0084 0.0738202 1.9406 0
M  V30 58 C 6.1384 0.546528 3.42973 0
M  V30 59 C 5.0924 1.56375 3.9841 0
M  V30 60 C 4.4184 0.97842 5.25672 0
M  V30 61 C 5.7184 2.94922 4.31066 0
M  V30 62 H 7.4124 1.91276 2.30334 0
M  V30 63 H 4.9584 0.921073 1.1069 0
M  V30 64 H 6.9114 0.378839 4.19694 0
M  V30 65 H 5.6354 -0.413598 3.23971 0
M  V30 66 H 4.2944 1.71891 3.23804 0
M  V30 67 H 3.9424 0.0101688 5.02999 0
M  V30 68 H 3.6424 1.65784 5.63728 0
M  V30 69 H 5.1664 0.821939 6.05043 0
M  V30 70 H 6.5804 2.8288 4.9865 0
M  V30 71 H 4.9774 3.5983 4.80253 0
M  V30 72 H 6.0474 3.4616 3.39561 0
M  V30 73 N 7.3905 -1.2043 1.01659 0
M  V30 74 C 8.6675 -1.8548 0.621004 0
M  V30 75 C 9.0475 -1.9091 -0.900919 0
M  V30 76 O 8.3955 -1.41694 -1.79263 0
M  V30 77 C 8.6055 -3.25119 1.2688 0
M  V30 78 C 9.9535 -4.01403 1.38423 0
M  V30 79 O 10.9775 -3.34473 1.22501 0
M  V30 80 O 9.8365 -5.21265 1.64151 0
M  V30 81 H 6.9305 -0.798761 0.214266 0
M  V30 82 H 9.4765 -1.28019 1.11396 0
M  V30 83 H 8.2485 -3.15932 2.30873 0
M  V30 84 H 7.8715 -3.90212 0.762917 0
M  V30 85 N 8.8686 -0.792821 -1.36206 0
M  V30 86 C 9.8006 -0.151469 -2.28699 0
M  V30 87 C 10.8136 0.641262 -1.49638 0
M  V30 88 O 12.0026 0.475885 -1.72039 0
M  V30 89 C 9.1026 0.808424 -3.29117 0
M  V30 90 C 8.2756 0.0650202 -4.37352 0
M  V30 91 C 7.3346 0.941358 -5.17711 0
M  V30 92 O 6.3606 0.397352 -5.67811 0
M  V30 93 N 7.5626 2.2652 -5.3448 0
M  V30 94 H 10.3276 -0.945982 -2.84379 0
M  V30 95 H 7.8886 -0.647032 -1.48409 0
M  V30 96 H 9.8806 1.3986 -3.79765 0
M  V30 97 H 8.4506 1.5038 -2.74052 0
M  V30 98 H 7.6706 -0.706255 -3.87822 0
M  V30 99 H 8.9586 -0.447847 -5.06825 0
M  V30 100 H 8.3566 2.73128 -4.95396 0
M  V30 101 H 6.9136 2.80493 -5.88359 0
M  V30 102 N 10.3467 1.47872 -0.545128 0
M  V30 103 C 11.3097 2.28337 0.198717 0
M  V30 104 C 12.3097 1.36255 0.853888 0
M  V30 105 O 13.4997 1.59003 0.711606 0
M  V30 106 C 10.6317 3.15585 1.28915 0
M  V30 107 H 11.8247 2.95567 -0.507941 0
M  V30 108 H 9.3777 1.53362 -0.301616 0
M  V30 109 H 10.1127 2.53019 2.02859 0
M  V30 110 H 9.8977 3.83337 0.824309 0
M  V30 111 H 11.3877 3.76243 1.81194 0
M  V30 112 N 11.8248 0.280983 1.55075 0
M  V30 113 C 13.0738 -0.334784 1.98902 0
M  V30 114 C 13.3868 -1.56534 1.17288 0
M  V30 115 O 14.5928 -2.25443 1.51287 0
M  V30 116 C 13.0488 -0.646994 3.54037 0
M  V30 117 C 12.6568 0.564085 4.44435 0
M  V30 118 C 14.4008 -1.22506 4.06439 0
M  V30 119 C 12.3078 0.226137 5.90967 0
M  V30 120 H 11.2378 -0.128866 0.742906 0
M  V30 121 H 13.8888 0.386556 1.79382 0
M  V30 122 H 12.2708 -1.42739 3.6938 0
M  V30 123 H 13.4448 1.34082 4.40861 0
M  V30 124 H 11.7598 1.0594 4.02698 0
M  V30 125 H 14.3568 -1.49182 5.13468 0
M  V30 126 H 14.6998 -2.16085 3.55827 0
M  V30 127 H 15.2328 -0.50682 3.94558 0
M  V30 128 H 11.9718 1.12996 6.45687 0
M  V30 129 H 11.4918 -0.513717 5.97596 0
M  V30 130 H 13.1708 -0.179539 6.46751 0
M  V30 131 N 13.3029 -1.57598 0.00835791 0
M  V30 132 C 14.5509 -1.90551 -0.6734 0
M  V30 133 C 14.8719 -0.883301 -1.73847 0
M  V30 134 O 14.1419 0.0781442 -1.95744 0
M  V30 135 H 12.7219 -0.703312 -0.251717 0
M  V30 136 H 15.3839 -1.94833 0.0512592 0
M  V30 137 H 14.4799 -2.9056 -1.13935 0
M  V30 138 N 14.781 0.264519 -1.55364 0
M  V30 139 C 15.711 1.33121 -1.91836 0
M  V30 140 C 16.692 1.51101 -0.781192 0
M  V30 141 O 17.877 1.64003 -1.04003 0
M  V30 142 C 15.007 2.68921 -2.19769 0
M  V30 143 C 13.961 2.65661 -3.35571 0
M  V30 144 C 13.287 4.05093 -3.49004 0
M  V30 145 C 14.587 2.24187 -4.71739 0
M  V30 146 H 16.281 1.02844 -2.81182 0
M  V30 147 H 13.827 0.493286 -1.35287 0
M  V30 148 H 15.78 3.43663 -2.43872 0
M  V30 149 H 14.504 3.00799 -1.27231 0
M  V30 150 H 13.163 1.93377 -3.1145 0
M  V30 151 H 12.811 4.34206 -2.53917 0
M  V30 152 H 12.511 4.03804 -4.26868 0
M  V30 153 H 14.035 4.81561 -3.75408 0
M  V30 154 H 15.449 2.88654 -4.9533 0
M  V30 155 H 13.846 2.34044 -5.52579 0
M  V30 156 H 14.916 1.19327 -4.69988 0
M  V30 157 N 16.2591 1.48442 0.529413 0
M  V30 158 C 17.1891 1.65902 1.64313 0
M  V30 159 C 18.1701 0.507897 1.6234 0
M  V30 160 O 19.3551 0.740503 1.79528 0
M  V30 161 C 16.4851 1.69911 3.02898 0
M  V30 162 C 15.4391 2.8453 3.19729 0
M  V30 163 C 14.7651 2.73629 4.59381 0
M  V30 164 C 16.0651 4.25821 3.02447 0
M  V30 165 H 17.7591 2.5914 1.49955 0
M  V30 166 H 15.3051 1.24709 0.719982 0
M  V30 167 H 17.2581 1.80715 3.80684 0
M  V30 168 H 15.9821 0.732524 3.18279 0
M  V30 169 H 14.6411 2.73283 2.44361 0
M  V30 170 H 14.2891 1.74938 4.71599 0
M  V30 171 H 13.9891 3.50541 4.71588 0
M  V30 172 H 15.5131 2.86401 5.39265 0
M  V30 173 H 16.9271 4.37898 3.70024 0
M  V30 174 H 15.3241 5.03735 3.26146 0
M  V30 175 H 16.3941 4.42244 1.98867 0
M  V30 176 N 17.7372 -0.778329 1.37039 0
M  V30 177 C 18.9832 -1.53892 1.32079 0
M  V30 178 C 19.3162 -1.9396 -0.0965386 0
M  V30 179 O 18.5912 -1.63568 -1.05242 0
M  V30 180 C 18.8742 -2.80847 2.25382 0
M  V30 181 C 18.7272 -2.47076 3.75864 0
M  V30 182 C 20.0462 -3.82741 2.1725 0
M  V30 183 H 17.1652 -0.558303 0.48111 0
M  V30 184 H 19.8072 -0.893397 1.67685 0
M  V30 185 H 17.9572 -3.35931 1.95148 0
M  V30 186 H 19.6292 -1.97957 4.16666 0
M  V30 187 H 17.8722 -1.79863 3.94755 0
M  V30 188 H 18.5432 -3.37798 4.36574 0
M  V30 189 H 21.0192 -3.37133 2.43887 0
M  V30 190 H 19.8952 -4.69303 2.84686 0
M  V30 191 H 20.1562 -4.2652 1.16331 0
M  V30 192 N 19.2153 -1.21501 -1.00376 0
M  V30 193 C 20.1783 -0.976927 -2.07337 0
M  V30 194 C 21.1783 0.0525322 -1.60714 0
M  V30 195 O 22.3683 -0.184869 -1.73216 0
M  V30 196 C 19.5003 -0.473423 -3.37597 0
M  V30 197 H 20.6933 -1.92587 -2.29892 0
M  V30 198 H 18.2463 -1.03217 -1.17371 0
M  V30 199 H 18.9813 0.480379 -3.20722 0
M  V30 200 H 18.7663 -1.216 -3.72768 0
M  V30 201 H 20.2563 -0.32675 -4.1632 0
M  V30 202 N 20.6934 1.19889 -1.02296 0
M  V30 203 C 21.9424 1.88743 -0.711257 0
M  V30 204 C 22.2554 1.80112 0.762817 0
M  V30 205 O 23.4614 2.44161 1.18733 0
M  V30 206 C 21.9174 3.38525 -1.22185 0
M  V30 207 C 21.5254 3.55727 -2.72328 0
M  V30 208 C 23.2694 4.12893 -0.985864 0
M  V30 209 C 21.1764 4.99369 -3.16835 0
M  V30 210 H 20.1064 0.706885 -0.262353 0
M  V30 211 H 22.7574 1.35586 -1.23648 0
M  V30 212 H 21.1394 3.91044 -0.624571 0
M  V30 213 H 22.3134 3.13564 -3.3766 0
M  V30 214 H 20.6284 2.94739 -2.9414 0
M  V30 215 H 23.2254 5.18813 -1.29374 0
M  V30 216 H 23.5684 4.16228 0.0775055 0
M  V30 217 H 24.1014 3.66494 -1.54684 0
M  V30 218 H 20.8404 5.01193 -4.22476 0
M  V30 219 H 20.3604 5.42317 -2.56228 0
M  V30 220 H 22.0394 5.67988 -3.09837 0
M  V30 221 N 22.1715 0.800033 1.35784 0
M  V30 222 C 23.4185 0.377342 1.98953 0
M  V30 223 C 23.7465 -1.05378 1.6348 0
M  V30 224 O 23.0015 -1.74459 0.886707 0
M  V30 225 C 23.3005 0.500276 3.53881 0
M  V30 226 C 22.9665 1.89375 4.09204 0
M  V30 227 C 21.6285 2.27499 4.24025 0
M  V30 228 C 23.9805 2.8057 4.39238 0
M  V30 229 C 21.3085 3.562 4.66195 0
M  V30 230 C 23.6605 4.0871 4.82844 0
M  V30 231 C 22.3245 4.46843 4.95871 0
M  V30 232 H 21.5945 0.138079 0.728021 0
M  V30 233 H 24.2415 1.01955 1.62103 0
M  V30 234 H 22.5465 -0.225405 3.91151 0
M  V30 235 H 24.2435 0.154097 4.00704 0
M  V30 236 H 20.8335 1.58753 3.98115 0
M  V30 237 H 25.0175 2.52367 4.27346 0
M  V30 238 H 20.2735 3.85602 4.74469 0
M  V30 239 H 24.4475 4.79481 5.05046 0
M  V30 240 H 22.0745 5.46623 5.28306 0
M  V30 241 N 23.6496 -1.47581 0.552962 0
M  V30 242 C 24.5996 -2.26961 -0.217423 0
M  V30 243 C 25.5836 -1.34099 -0.889168 0
M  V30 244 O 26.7756 -1.58483 -0.788176 0
M  V30 245 C 23.9046 -3.19756 -1.24944 0
M  V30 246 C 22.9906 -4.20097 -0.581327 0
M  V30 247 N 23.3816 -5.04614 0.346171 0
M  V30 248 C 21.6796 -4.38099 -0.835767 0
M  V30 249 C 22.3806 -5.77052 0.733854 0
M  V30 250 N 21.3566 -5.43526 0.0896567 0
M  V30 251 H 25.1586 -2.89688 0.495761 0
M  V30 252 H 22.6726 -1.58068 0.372597 0
M  V30 253 H 24.6696 -3.75305 -1.81527 0
M  V30 254 H 23.3296 -2.58585 -1.96376 0
M  V30 255 H 24.3406 -5.12869 0.720098 0
M  V30 256 H 21.0176 -3.88102 -1.53892 0
M  V30 257 H 22.4076 -6.5504 1.49574 0
M  V30 258 N 25.1277 -0.289203 -1.54924 0
M  V30 259 C 26.0747 0.592115 -2.23075 0
M  V30 260 C 27.0447 1.13881 -1.20915 0
M  V30 261 O 28.2297 1.18551 -1.495 0
M  V30 262 C 25.3697 1.76376 -2.96623 0
M  V30 263 C 24.4827 1.24959 -4.13533 0
M  V30 264 C 23.6177 2.38416 -4.74691 0
M  V30 265 C 22.6567 1.84072 -5.83767 0
M  V30 266 N 21.7937 2.91057 -6.38929 0
M  V30 267 H 26.6337 0.00432038 -2.98 0
M  V30 268 H 24.1707 -0.00963529 -1.47097 0
M  V30 269 H 26.1287 2.45268 -3.3749 0
M  V30 270 H 24.7587 2.32337 -2.24097 0
M  V30 271 H 23.8107 0.453307 -3.77689 0
M  V30 272 H 25.1227 0.811662 -4.92152 0
M  V30 273 H 24.2767 3.15276 -5.18349 0
M  V30 274 H 23.0157 2.8553 -3.95378 0
M  V30 275 H 22.0207 1.05697 -5.39545 0
M  V30 276 H 23.2457 1.37877 -6.64956 0
M  V30 277 H 21.1917 3.37526 -5.62505 0
M  V30 278 H 21.1087 2.51724 -7.12861 0
M  V30 279 H 22.3767 3.6785 -6.87246 0
M  V30 280 N 26.6058 1.57591 -0.0167156 0
M  V30 281 C 27.8358 1.95292 0.674149 0
M  V30 282 C 28.2438 0.891097 1.66901 0
M  V30 283 O 27.5868 -0.136908 1.83189 0
M  V30 284 C 27.6488 3.29072 1.44747 0
M  V30 285 C 27.3128 4.52879 0.612331 0
M  V30 286 C 28.3098 5.1979 -0.107126 0
M  V30 287 C 25.9948 4.99242 0.553381 0
M  V30 288 C 27.9888 6.31375 -0.874339 0
M  V30 289 C 25.6758 6.10713 -0.217546 0
M  V30 290 C 26.6738 6.76637 -0.930123 0
M  V30 291 O 26.3618 7.85969 -1.68844 0
M  V30 292 H 26.0938 0.648275 0.191615 0
M  V30 293 H 28.6478 2.05284 -0.0690148 0
M  V30 294 H 26.8778 3.15535 2.2355 0
M  V30 295 H 28.5668 3.51764 2.02526 0
M  V30 296 H 29.3328 4.84948 -0.0708392 0
M  V30 297 H 25.2118 4.47744 1.09757 0
M  V30 298 H 28.7558 6.82764 -1.43106 0
M  V30 299 H 24.6528 6.44994 -0.255593 0
M  V30 300 H 25.4208 8.02571 -1.6069 0
M  V30 301 N 28.0839 -0.256276 1.55502 0
M  V30 302 C 29.3089 -1.00766 1.81276 0
M  V30 303 C 29.7339 -1.78524 0.59252 0
M  V30 304 O 29.0919 -1.75413 -0.45827 0
M  V30 305 C 29.1399 -1.92869 3.04687 0
M  V30 306 O 28.2439 -3.019 2.80945 0
M  V30 307 H 27.5849 -0.287224 0.598664 0
M  V30 308 H 30.1149 -0.280109 2.02674 0
M  V30 309 H 30.1249 -2.34511 3.33869 0
M  V30 310 H 28.7999 -1.35689 3.93143 0
M  V30 311 H 27.3769 -2.64454 2.62904 0
M  V30 312 N 29.562 -1.4872 -0.521534 0
M  V30 313 C 30.81 -1.56857 -1.27437 0
M  V30 314 C 31.131 -0.247982 -1.93417 0
M  V30 315 O 30.401 0.731151 -1.81744 0
M  V30 316 H 28.981 -0.577885 -0.473347 0
M  V30 317 H 31.643 -1.85233 -0.606205 0
M  V30 318 H 30.739 -2.35402 -2.0492 0
M  V30 319 N 31.0401 0.771051 -1.3745 0
M  V30 320 C 32.4561 1.07171 -1.18265 0
M  V30 321 C 32.6561 2.01491 -0.019287 0
M  V30 322 O 31.7121 2.44244 0.640408 0
M  V30 323 C 33.0251 1.66854 -2.50161 0
M  V30 324 C 34.5731 1.79109 -2.56689 0
M  V30 325 C 35.0481 2.42205 -3.88717 0
M  V30 326 N 36.5391 2.49655 -3.90162 0
M  V30 327 C 37.2741 2.9933 -4.8907 0
M  V30 328 N 36.7701 3.49172 -5.98374 0
M  V30 329 N 38.5631 2.9821 -4.76474 0
M  V30 330 H 30.7141 0.144796 -2.11906 0
M  V30 331 H 32.9771 0.126863 -0.939473 0
M  V30 332 H 32.6831 1.05017 -3.35655 0
M  V30 333 H 32.5571 2.6614 -2.673 0
M  V30 334 H 34.9441 2.40077 -1.71601 0
M  V30 335 H 35.0251 0.785757 -2.43433 0
M  V30 336 H 34.6691 1.81875 -4.74219 0
M  V30 337 H 34.5991 3.43345 -3.99276 0
M  V30 338 H 37.0901 2.14383 -3.11205 0
M  V30 339 H 37.4031 3.8548 -6.69795 0
M  V30 340 H 35.7481 3.47275 -6.02018 0
M  V30 341 H 38.9391 2.58572 -3.90203 0
M  V30 342 H 39.1121 3.36613 -5.53711 0
M  V30 343 N 32.5182 1.22032 0.997298 0
M  V30 344 C 33.4282 1.00271 2.12092 0
M  V30 345 C 34.4442 -0.047621 1.73935 0
M  V30 346 O 35.6202 0.144136 2.00884 0
M  V30 347 C 32.6852 0.578449 3.4184 0
M  V30 348 C 31.7462 1.70189 3.94125 0
M  V30 349 C 30.9792 1.29778 5.17681 0
M  V30 350 O 31.2022 0.174676 5.70132 0
M  V30 351 O 30.1362 2.11261 5.63607 0
M  V30 352 H 33.9622 1.94398 2.3333 0
M  V30 353 H 31.5472 1.00587 1.10465 0
M  V30 354 H 33.4292 0.351998 4.19927 0
M  V30 355 H 32.1042 -0.334019 3.21972 0
M  V30 356 H 31.0112 1.98282 3.1723 0
M  V30 357 H 32.3442 2.59206 4.18417 0
M  V30 358 N 33.9963 -1.19345 1.0293 0
M  V30 359 C 35.2443 -1.88665 0.724574 0
M  V30 360 C 35.5653 -1.80036 -0.749144 0
M  V30 361 O 34.8353 -1.2111 -1.53978 0
M  V30 362 H 33.4153 -0.698406 0.265025 0
M  V30 363 H 36.0773 -1.44885 1.30362 0
M  V30 364 H 35.1733 -2.94987 1.01926 0
M  V30 365 N 35.4744 -0.807222 -1.35358 0
M  V30 366 C 36.7514 -0.311126 -1.9311 0
M  V30 367 C 37.1314 1.19937 -1.73719 0
M  V30 368 O 36.4794 1.99918 -1.10657 0
M  V30 369 C 36.6894 -0.723226 -3.41424 0
M  V30 370 C 38.0374 -0.713078 -4.18569 0
M  V30 371 O 39.0614 -0.664811 -3.49941 0
M  V30 372 O 37.9204 -0.772022 -5.41019 0
M  V30 373 H 35.0144 -0.081526 -0.822972 0
M  V30 374 H 37.5604 -0.890962 -1.4443 0
M  V30 375 H 36.3324 -1.76426 -3.4927 0
M  V30 376 H 35.9554 -0.118232 -3.97424 0
M  V30 377 N 36.9525 1.47285 -0.560781 0
M  V30 378 C 37.8995 2.30058 0.18491 0
M  V30 379 C 38.8695 1.39281 0.904986 0
M  V30 380 O 40.0545 1.68241 0.899979 0
M  V30 381 C 37.1945 3.23317 1.20666 0
M  V30 382 C 36.3075 4.29186 0.492285 0
M  V30 383 C 35.4425 5.09592 1.49964 0
M  V30 384 C 34.4815 6.07232 0.770439 0
M  V30 385 N 33.6185 6.80584 1.72479 0
M  V30 386 H 38.4585 2.93302 -0.527048 0
M  V30 387 H 35.9955 1.44568 -0.271738 0
M  V30 388 H 37.9535 3.75811 1.81168 0
M  V30 389 H 36.5835 2.61929 1.88661 0
M  V30 390 H 35.6355 3.7972 -0.227333 0
M  V30 391 H 36.9475 4.98738 -0.0787929 0
M  V30 392 H 36.1015 5.66254 2.17809 0
M  V30 393 H 34.8405 4.3995 2.10464 0
M  V30 394 H 33.8455 5.49745 0.0780846 0
M  V30 395 H 35.0705 6.78884 0.171134 0
M  V30 396 H 33.0165 6.1367 2.3183 0
M  V30 397 H 32.9335 7.46319 1.20596 0
M  V30 398 H 34.2015 7.41818 2.39428 0
M  V30 399 N 38.4306 0.297415 1.54768 0
M  V30 400 C 39.3806 -0.595275 2.20092 0
M  V30 401 C 40.3646 -1.10163 1.17273 0
M  V30 402 O 41.5566 -1.043 1.43006 0
M  V30 403 C 38.6856 -1.7684 2.94249 0
M  V30 404 C 37.7716 -1.27818 4.0438 0
M  V30 405 N 38.1626 -0.505695 5.03266 0
M  V30 406 C 36.4606 -1.55923 4.17857 0
M  V30 407 C 37.1616 -0.245094 5.81183 0
M  V30 408 N 36.1376 -0.823881 5.3732 0
M  V30 409 H 39.9396 0.00250837 2.939 0
M  V30 410 H 37.4536 0.102007 1.62079 0
M  V30 411 H 39.4506 -2.41944 3.39513 0
M  V30 412 H 38.1106 -2.36992 2.21957 0
M  V30 413 H 39.1216 -0.150928 5.1768 0
M  V30 414 H 35.7986 -2.16849 3.56767 0
M  V30 415 H 37.1886 0.375084 6.70852 0
M  V30 416 N 39.9087 -1.5758 0.0250728 0
M  V30 417 C 41.1367 -1.9593 -0.664747 0
M  V30 418 C 41.5517 -0.901352 -1.65895 0
M  V30 419 O 40.9087 0.117255 -1.82123 0
M  V30 420 C 40.9597 -3.34342 -1.37468 0
M  V30 421 O 40.6807 -4.36079 -0.420324 0
M  V30 422 C 42.1817 -3.873 -2.1567 0
M  V30 423 H 39.4017 -0.645405 -0.183557 0
M  V30 424 H 41.9457 -2.04329 0.0836372 0
M  V30 425 H 40.1007 -3.27175 -2.0745 0
M  V30 426 H 40.5147 -5.16297 -0.923991 0
M  V30 427 H 41.9887 -4.86504 -2.60803 0
M  V30 428 H 42.4657 -3.21331 -2.99405 0
M  V30 429 H 43.0717 -3.97723 -1.50654 0
M  V30 430 N 41.3868 0.248026 -1.55636 0
M  V30 431 C 42.3168 1.31079 -1.93237 0
M  V30 432 C 43.2978 1.50264 -0.797174 0
M  V30 433 O 44.4828 1.62891 -1.05737 0
M  V30 434 C 41.6128 2.66575 -2.22609 0
M  V30 435 C 40.5668 2.62087 -3.3837 0
M  V30 436 C 39.8928 4.01369 -3.53281 0
M  V30 437 C 41.1928 2.19171 -4.7409 0
M  V30 438 H 42.8868 0.998556 -2.82257 0
M  V30 439 H 40.4328 0.47891 -1.35803 0
M  V30 440 H 42.3858 3.41057 -2.47503 0
M  V30 441 H 41.1098 2.99432 -1.30414 0
M  V30 442 H 39.7688 1.90063 -3.13483 0
M  V30 443 H 39.4168 4.31489 -2.58508 0
M  V30 444 H 39.1168 3.99254 -4.31127 0
M  V30 445 H 40.6408 4.77552 -3.80495 0
M  V30 446 H 42.0548 2.83384 -4.98363 0
M  V30 447 H 40.4518 2.2817 -5.5503 0
M  V30 448 H 41.5218 1.14336 -4.71227 0
M  V30 449 N 42.8649 1.48995 0.513639 0
M  V30 450 C 44.0899 1.61792 1.29762 0
M  V30 451 C 44.5149 0.284475 1.85936 0
M  V30 452 O 43.8729 -0.746185 1.65232 0
M  V30 453 C 43.9209 2.67993 2.41272 0
M  V30 454 O 43.0249 2.26287 3.44772 0
M  V30 455 H 42.3659 0.541963 0.38363 0
M  V30 456 H 44.8959 1.95097 0.616307 0
M  V30 457 H 44.9059 2.89772 2.87221 0
M  V30 458 H 43.5809 3.64791 1.9975 0
M  V30 459 H 42.1579 2.14788 3.04829 0
M  V30 460 N 44.343 -0.763751 1.37857 0
M  V30 461 C 45.29 -1.87726 1.34267 0
M  V30 462 C 46.26 -1.64807 0.206879 0
M  V30 463 O 47.445 -1.86613 0.397508 0
M  V30 464 C 44.585 -3.24896 1.16346 0
M  V30 465 C 43.698 -3.59716 2.39225 0
M  V30 466 C 42.833 -4.86137 2.14114 0
M  V30 467 C 41.872 -5.13711 3.32817 0
M  V30 468 N 41.009 -6.31323 3.07206 0
M  V30 469 H 45.849 -1.90129 2.29466 0
M  V30 470 H 43.386 -0.929433 1.14017 0
M  V30 471 H 45.344 -4.04036 1.03975 0
M  V30 472 H 43.974 -3.21847 0.247909 0
M  V30 473 H 43.026 -2.75498 2.62307 0
M  V30 474 H 44.338 -3.76027 3.27728 0
M  V30 475 H 43.492 -5.73198 1.9882 0
M  V30 476 H 42.231 -4.71945 1.22961 0
M  V30 477 H 41.236 -4.25123 3.48641 0
M  V30 478 H 42.461 -5.29807 4.24832 0
M  V30 479 H 40.407 -6.18474 2.1869 0
M  V30 480 H 40.324 -6.48087 3.89254 0
M  V30 481 H 41.592 -7.213 2.95546 0
M  V30 482 N 45.8211 -1.22559 -0.990812 0
M  V30 483 C 46.7681 -0.997519 -2.0813 0
M  V30 484 C 47.7381 0.0814702 -1.659 0
M  V30 485 O 48.9231 -0.0685424 -1.90677 0
M  V30 486 C 46.0631 -0.583615 -3.40129 0
M  V30 487 C 45.1761 -1.7336 -3.9569 0
M  V30 488 C 44.3111 -1.26748 -5.15857 0
M  V30 489 C 43.3501 -2.38888 -5.63559 0
M  V30 490 N 42.4871 -1.93308 -6.74964 0
M  V30 491 H 47.3271 -1.93099 -2.26973 0
M  V30 492 H 44.8641 -0.962114 -1.11273 0
M  V30 493 H 46.8221 -0.324801 -4.15934 0
M  V30 494 H 45.4521 0.312845 -3.2128 0
M  V30 495 H 44.5041 -2.10669 -3.16738 0
M  V30 496 H 45.8161 -2.57704 -4.27071 0
M  V30 497 H 44.9701 -0.966173 -5.98957 0
M  V30 498 H 43.7091 -0.394272 -4.86104 0
M  V30 499 H 42.7141 -2.69805 -4.79046 0
M  V30 500 H 43.9391 -3.26728 -5.95336 0
M  V30 501 H 41.8851 -1.08352 -6.4699 0
M  V30 502 H 41.8021 -2.71217 -7.05675 0
M  V30 503 H 43.0701 -1.66252 -7.61564 0
M  V30 504 N 47.2992 1.18797 -1.03562 0
M  V30 505 C 48.2092 2.25913 -0.632505 0
M  V30 506 C 49.2252 1.70668 0.338882 0
M  V30 507 O 50.4012 2.00453 0.195076 0
M  V30 508 C 47.4662 3.467 0.00350942 0
M  V30 509 C 46.5272 4.17098 -1.01624 0
M  V30 510 C 45.7602 5.32119 -0.410478 0
M  V30 511 O 45.9832 5.64976 0.784725 0
M  V30 512 O 44.9172 5.9107 -1.13667 0
M  V30 513 H 48.7432 2.62648 -1.52478 0
M  V30 514 H 46.3282 1.25781 -0.806195 0
M  V30 515 H 48.2102 4.19878 0.35781 0
M  V30 516 H 46.8852 3.11798 0.869686 0
M  V30 517 H 45.7922 3.4601 -1.42224 0
M  V30 518 H 47.1252 4.55987 -1.85301 0
M  V30 519 N 48.7773 0.814389 1.34928 0
M  V30 520 C 49.7073 0.244827 2.32213 0
M  V30 521 C 50.6883 -0.634024 1.57842 0
M  V30 522 O 51.8733 -0.562676 1.8587 0
M  V30 523 C 49.0033 -0.601106 3.42058 0
M  V30 524 C 47.9573 0.179896 4.27622 0
M  V30 525 C 47.2833 -0.788237 5.28858 0
M  V30 526 C 48.5833 1.38329 5.03649 0
M  V30 527 H 50.2773 1.05763 2.80097 0
M  V30 528 H 47.8233 0.510029 1.34665 0
M  V30 529 H 49.7763 -1.00968 4.09125 0
M  V30 530 H 48.5003 -1.44688 2.92802 0
M  V30 531 H 47.1593 0.569739 3.62146 0
M  V30 532 H 46.8073 -1.62973 4.75866 0
M  V30 533 H 46.5073 -0.269942 5.8698 0
M  V30 534 H 48.0313 -1.19485 5.98795 0
M  V30 535 H 49.4453 1.04918 5.63618 0
M  V30 536 H 47.8423 1.83662 5.71304 0
M  V30 537 H 48.9123 2.16592 4.33839 0
M  V30 538 N 50.2554 -1.46986 0.568584 0
M  V30 539 C 51.2024 -2.30153 -0.172707 0
M  V30 540 C 52.1724 -1.39759 -0.897586 0
M  V30 541 O 53.3574 -1.68716 -0.891044 0
M  V30 542 C 50.4974 -3.23952 -1.1895 0
M  V30 543 C 49.6104 -4.29441 -0.469517 0
M  V30 544 C 48.7454 -5.1038 -1.47259 0
M  V30 545 C 47.7844 -6.07632 -0.738225 0
M  V30 546 N 46.9214 -6.8149 -1.68868 0
M  V30 547 H 51.7614 -2.93019 0.542596 0
M  V30 548 H 49.2984 -1.44422 0.279401 0
M  V30 549 H 51.2564 -3.76767 -1.79173 0
M  V30 550 H 49.8864 -2.62926 -1.87269 0
M  V30 551 H 48.9384 -3.79594 0.247467 0
M  V30 552 H 50.2504 -4.98689 0.105241 0
M  V30 553 H 49.4044 -5.67402 -2.14803 0
M  V30 554 H 48.1434 -4.4106 -2.08128 0
M  V30 555 H 47.1484 -5.49778 -0.0489293 0
M  V30 556 H 48.3734 -6.78966 -0.135129 0
M  V30 557 H 46.3194 -6.14891 -2.28573 0
M  V30 558 H 46.2364 -7.46948 -1.16636 0
M  V30 559 H 47.5044 -7.43078 -2.3549 0
M  V30 560 N 51.7335 -0.305618 -1.54608 0
M  V30 561 C 52.6435 0.57778 -2.27374 0
M  V30 562 C 53.6595 1.14451 -1.31061 0
M  V30 563 O 54.8355 1.16831 -1.6405 0
M  V30 564 C 51.9005 1.73123 -3.00382 0
M  V30 565 C 50.9615 1.19812 -4.12242 0
M  V30 566 C 50.1945 2.2966 -4.81759 0
M  V30 567 O 50.4175 3.49651 -4.50666 0
M  V30 568 O 49.3515 1.96091 -5.69062 0
M  V30 569 H 53.1775 -0.012624 -3.03697 0
M  V30 570 H 50.7625 -0.0719184 -1.49227 0
M  V30 571 H 52.6445 2.40315 -3.4616 0
M  V30 572 H 51.3195 2.30815 -2.26949 0
M  V30 573 H 50.2265 0.491798 -3.70853 0
M  V30 574 H 51.5595 0.666566 -4.87666 0
M  V30 575 N 53.2116 1.57565 -0.0334293 0
M  V30 576 C 54.1416 2.13511 0.945265 0
M  V30 577 C 55.1226 1.05231 1.33643 0
M  V30 578 O 56.3076 1.33084 1.41429 0
M  V30 579 C 53.4376 2.6657 2.22616 0
M  V30 580 C 52.3916 3.79676 1.97561 0
M  V30 581 C 51.7176 4.1918 3.31952 0
M  V30 582 C 53.0176 5.0557 1.31135 0
M  V30 583 H 54.7116 2.95538 0.479325 0
M  V30 584 H 52.2576 1.42166 0.229115 0
M  V30 585 H 54.2106 3.04344 2.91466 0
M  V30 586 H 52.9346 1.8171 2.71384 0
M  V30 587 H 51.5936 3.42347 1.31127 0
M  V30 588 H 51.2416 3.31296 3.78487 0
M  V30 589 H 50.9416 4.95402 3.15992 0
M  V30 590 H 52.4656 4.59541 4.02063 0
M  V30 591 H 53.8796 5.40903 1.89992 0
M  V30 592 H 52.2766 5.86818 1.25559 0
M  V30 593 H 53.3466 4.84062 0.284894 0
M  V30 594 N 54.6897 -0.239769 1.55765 0
M  V30 595 C 55.9387 -0.964754 1.77131 0
M  V30 596 C 56.2517 -1.86213 0.59868 0
M  V30 597 O 57.4577 -2.6244 0.695522 0
M  V30 598 C 55.9137 -1.76552 3.1362 0
M  V30 599 C 55.5217 -0.915185 4.38553 0
M  V30 600 C 57.2657 -2.48281 3.44321 0
M  V30 601 C 55.1727 -1.71225 5.66071 0
M  V30 602 H 54.1027 -0.363953 0.660344 0
M  V30 603 H 56.7537 -0.219181 1.82186 0
M  V30 604 H 55.1357 -2.55331 3.02691 0
M  V30 605 H 56.3097 -0.169217 4.60489 0
M  V30 606 H 54.6247 -0.310889 4.15238 0
M  V30 607 H 57.2217 -3.08382 4.36812 0
M  V30 608 H 57.5647 -3.20256 2.65973 0
M  V30 609 H 58.0977 -1.76507 3.56497 0
M  V30 610 H 54.8367 -1.03612 6.4726 0
M  V30 611 H 54.3567 -2.43331 5.48224 0
M  V30 612 H 56.0357 -2.27758 6.05587 0
M  V30 613 N 56.1678 -1.49265 -0.50573 0
M  V30 614 C 57.0998 -1.617 -1.62437 0
M  V30 615 C 58.1128 -0.499924 -1.54934 0
M  V30 616 O 59.3018 -0.771785 -1.60953 0
M  V30 617 C 56.4018 -1.5533 -3.01207 0
M  V30 618 C 55.5748 -2.8249 -3.33943 0
M  V30 619 C 54.6338 -2.69238 -4.52103 0
M  V30 620 O 53.6598 -3.43167 -4.5412 0
M  V30 621 N 54.8618 -1.80468 -5.51735 0
M  V30 622 H 57.6268 -2.58177 -1.52199 0
M  V30 623 H 55.1878 -1.46294 -0.693511 0
M  V30 624 H 57.1798 -1.44125 -3.78167 0
M  V30 625 H 55.7498 -0.667297 -3.05395 0
M  V30 626 H 54.9698 -3.08081 -2.45926 0
M  V30 627 H 56.2578 -3.66802 -3.5261 0
M  V30 628 H 55.6558 -1.19653 -5.52901 0
M  V30 629 H 54.2128 -1.75188 -6.27816 0
M  V30 630 N 57.6459 0.756429 -1.3826 0
M  V30 631 C 58.5929 1.87011 -1.35261 0
M  V30 632 C 59.5629 1.64695 -0.215616 0
M  V30 633 O 60.7479 1.864 -0.407399 0
M  V30 634 C 57.8879 3.24275 -1.18068 0
M  V30 635 C 57.0009 3.58442 -2.41129 0
M  V30 636 C 56.1359 4.84994 -2.16689 0
M  V30 637 C 55.1749 5.11939 -3.35537 0
M  V30 638 N 54.3119 6.29685 -3.10549 0
M  V30 639 H 59.1519 1.8891 -2.30472 0
M  V30 640 H 56.6889 0.923373 -1.14509 0
M  V30 641 H 58.6469 4.03479 -1.06116 0
M  V30 642 H 57.2769 3.21711 -0.264973 0
M  V30 643 H 56.3289 2.74103 -2.63764 0
M  V30 644 H 57.6409 3.74283 -3.29717 0
M  V30 645 H 56.7949 5.72135 -2.01857 0
M  V30 646 H 55.5339 4.71286 -1.25462 0
M  V30 647 H 54.5389 4.23268 -3.50891 0
M  V30 648 H 55.7639 5.27546 -4.27635 0
M  V30 649 H 53.7099 6.17306 -2.21967 0
M  V30 650 H 53.6269 6.46014 -3.92686 0
M  V30 651 H 54.8949 7.19722 -2.99367 0
M  V30 652 N 59.124 1.23083 0.984299 0
M  V30 653 C 60.034 1.02515 2.11016 0
M  V30 654 C 61.05 -0.0291702 1.73976 0
M  V30 655 O 62.226 0.165434 2.00719 0
M  V30 656 C 59.291 0.614673 3.41208 0
M  V30 657 C 58.352 1.74359 3.92297 0
M  V30 658 C 57.585 1.35261 5.16275 0
M  V30 659 O 57.808 0.235136 5.69915 0
M  V30 660 O 56.742 2.17227 5.61334 0
M  V30 661 H 60.568 1.96862 2.31255 0
M  V30 662 H 58.153 1.01753 1.09392 0
M  V30 663 H 60.035 0.396518 4.1953 0
M  V30 664 H 58.71 -0.299851 3.22308 0
M  V30 665 H 57.617 2.01635 3.1511 0
M  V30 666 H 58.95 2.63629 4.15645 0
M  V30 667 N 60.6021 -1.18246 1.0419 0
M  V30 668 C 61.5321 -2.24127 0.654914 0
M  V30 669 C 62.5131 -1.66617 -0.342451 0
M  V30 670 O 63.6981 -1.92924 -0.222277 0
M  V30 671 C 60.8281 -3.47295 0.0183757 0
M  V30 672 C 59.7821 -4.17563 0.939414 0
M  V30 673 C 59.1081 -5.34438 0.167286 0
M  V30 674 C 60.4081 -4.70917 2.25908 0
M  V30 675 H 62.1021 -2.56753 1.54007 0
M  V30 676 H 59.6481 -1.23414 0.74195 0
M  V30 677 H 61.6011 -4.20572 -0.264082 0
M  V30 678 H 60.3251 -3.13907 -0.901664 0
M  V30 679 H 58.9841 -3.46186 1.20628 0
M  V30 680 H 58.6321 -4.97298 -0.7552 0
M  V30 681 H 58.3321 -5.82388 0.780901 0
M  V30 682 H 59.8561 -6.10504 -0.108125 0
M  V30 683 H 61.2701 -5.35882 2.03724 0
M  V30 684 H 59.6671 -5.29406 2.82577 0
M  V30 685 H 60.7371 -3.88272 2.9047 0
M  V30 686 N 62.0802 -0.821533 -1.34494 0
M  V30 687 C 63.3082 -0.421884 -2.02553 0
M  V30 688 C 63.7232 0.971745 -1.61872 0
M  V30 689 O 63.0802 1.62864 -0.823496 0
M  V30 690 C 63.1312 -0.51285 -3.57844 0
M  V30 691 O 62.8522 -1.85155 -3.97051 0
M  V30 692 C 64.3532 -0.107921 -4.43169 0
M  V30 693 H 61.5732 -0.169482 -0.649243 0
M  V30 694 H 64.1172 -1.1093 -1.71798 0
M  V30 695 H 62.2722 0.126474 -3.87193 0
M  V30 696 H 62.6862 -1.82482 -4.91732 0
M  V30 697 H 64.1602 -0.222657 -5.51551 0
M  V30 698 H 64.6372 0.948401 -4.28838 0
M  V30 699 H 65.2432 -0.720989 -4.19144 0
M  V30 700 N 63.5583 1.46682 -0.576371 0
M  V30 701 C 64.8073 2.01619 -0.0572825 0
M  V30 702 C 65.1203 1.45417 1.30818 0
M  V30 703 O 66.3263 1.92133 1.91825 0
M  V30 704 C 64.7823 3.59863 -0.0518371 0
M  V30 705 C 64.3903 4.25059 -1.41523 0
M  V30 706 C 66.1343 4.2248 0.413639 0
M  V30 707 C 64.0413 5.75364 -1.36785 0
M  V30 708 H 62.9713 0.753794 -0.0176448 0
M  V30 709 H 65.6223 1.68481 -0.727076 0
M  V30 710 H 64.0043 3.90048 0.683994 0
M  V30 711 H 65.1783 4.06491 -2.17029 0
M  V30 712 H 63.4933 3.7451 -1.8202 0
M  V30 713 H 66.0903 5.3265 0.467779 0
M  V30 714 H 66.4333 3.90976 1.42982 0
M  V30 715 H 66.9663 3.96897 -0.267929 0
M  V30 716 H 63.7053 6.11518 -2.36063 0
M  V30 717 H 63.2253 5.96214 -0.654895 0
M  V30 718 H 64.9043 6.37955 -1.07805 0
M  V30 719 N 65.0364 0.313813 1.54444 0
M  V30 720 C 66.2844 -0.291099 1.99993 0
M  V30 721 C 66.6054 -1.53418 1.20366 0
M  V30 722 O 65.8754 -1.93544 0.302927 0
M  V30 723 H 64.4554 -0.110552 0.738774 0
M  V30 724 H 67.1174 0.428106 1.9014 0
M  V30 725 H 66.2134 -0.554268 3.07139 0
M  V30 726 N 66.5145 -1.57545 0.0417849 0
M  V30 727 C 67.7395 -1.97035 -0.647455 0
M  V30 728 C 68.1645 -0.918775 -1.64135 0
M  V30 729 O 67.5225 0.119006 -1.80909 0
M  V30 730 C 67.5705 -3.35609 -1.31905 0
M  V30 731 O 66.6745 -3.3287 -2.43457 0
M  V30 732 H 66.0155 -0.64211 -0.169086 0
M  V30 733 H 68.5455 -2.04318 0.107399 0
M  V30 734 H 68.5555 -3.72126 -1.67291 0
M  V30 735 H 67.2305 -4.11685 -0.590586 0
M  V30 736 H 65.8075 -3.08087 -2.10088 0
M  V30 737 N 67.9926 0.231505 -1.5589 0
M  V30 738 C 68.9396 1.28682 -1.91598 0
M  V30 739 C 69.9096 1.47071 -0.771974 0
M  V30 740 O 71.0946 1.60802 -1.027 0
M  V30 741 C 68.2346 2.6342 -2.22944 0
M  V30 742 C 67.3476 2.52912 -3.50228 0
M  V30 743 C 66.4826 3.80106 -3.7107 0
M  V30 744 C 65.5216 3.64279 -4.91902 0
M  V30 745 N 64.6586 4.834 -5.09184 0
M  V30 746 H 69.4986 0.975305 -2.81588 0
M  V30 747 H 67.0356 0.470299 -1.39379 0
M  V30 748 H 68.9936 3.41869 -2.39126 0
M  V30 749 H 67.6236 2.92687 -1.36139 0
M  V30 750 H 66.6756 1.6595 -3.42294 0
M  V30 751 H 67.9876 2.37133 -4.38827 0
M  V30 752 H 67.1416 4.66999 -3.87295 0
M  V30 753 H 65.8806 3.98799 -2.80733 0
M  V30 754 H 64.8856 2.7577 -4.75637 0
M  V30 755 H 66.1106 3.47067 -5.83714 0
M  V30 756 H 64.0566 5.02425 -4.21788 0
M  V30 757 H 63.9736 4.70311 -5.91898 0
M  V30 758 H 65.2416 5.71747 -5.29835 0
M  V30 759 N 69.4707 1.49531 0.497807 0
M  V30 760 C 70.4007 1.6935 1.60757 0
M  V30 761 C 71.3817 0.542218 1.61227 0
M  V30 762 O 72.5667 0.778417 1.77917 0
M  V30 763 C 69.6967 1.76298 2.99226 0
M  V30 764 C 68.6507 2.91248 3.13622 0
M  V30 765 C 67.9767 2.83312 4.53474 0
M  V30 766 C 69.2767 4.3214 2.93346 0
M  V30 767 H 70.9707 2.62263 1.44425 0
M  V30 768 H 68.5167 1.26208 0.693367 0
M  V30 769 H 70.4697 1.88749 3.76765 0
M  V30 770 H 69.1937 0.799871 3.16654 0
M  V30 771 H 67.8527 2.78404 2.38509 0
M  V30 772 H 67.5007 1.84902 4.67782 0
M  V30 773 H 67.2007 3.60465 4.64046 0
M  V30 774 H 68.7247 2.97775 5.33069 0
M  V30 775 H 70.1387 4.45649 3.60652 0
M  V30 776 H 68.5357 5.1054 3.15387 0
M  V30 777 H 69.6057 4.46363 1.89441 0
M  V30 778 N 70.9488 -0.749086 1.3866 0
M  V30 779 C 71.8808 -1.87273 1.32142 0
M  V30 780 C 72.8938 -1.61127 0.232787 0
M  V30 781 O 74.0828 -1.71623 0.49069 0
M  V30 782 C 71.1828 -3.23005 1.02571 0
M  V30 783 C 70.3558 -3.7662 2.22433 0
M  V30 784 C 69.4148 -4.90879 1.89537 0
M  V30 785 O 68.4408 -5.05276 2.62078 0
M  V30 786 N 69.6428 -5.74198 0.853031 0
M  V30 787 H 72.4078 -1.93373 2.28969 0
M  V30 788 H 69.9688 -0.929216 1.32579 0
M  V30 789 H 71.9608 -3.96992 0.786085 0
M  V30 790 H 70.5308 -3.12262 0.145249 0
M  V30 791 H 69.7508 -2.94147 2.62434 0
M  V30 792 H 71.0388 -4.09173 3.02415 0
M  V30 793 H 70.4368 -5.6514 0.25155 0
M  V30 794 H 68.9938 -6.48313 0.67329 0
M  V30 795 N 72.4269 -1.23603 -0.977757 0
M  V30 796 C 73.7039 -0.977897 -1.69401 0
M  V30 797 C 74.0839 0.502738 -2.05026 0
M  V30 798 O 73.4319 1.47459 -1.74551 0
M  V30 799 C 73.6419 -1.89077 -2.93345 0
M  V30 800 C 74.9899 -2.15579 -3.65802 0
M  V30 801 O 76.0139 -1.86648 -3.03383 0
M  V30 802 O 74.8729 -2.64658 -4.78141 0
M  V30 803 H 71.9669 -0.369025 -0.740101 0
M  V30 804 H 74.5129 -1.34657 -1.03274 0
M  V30 805 H 73.2849 -2.89158 -2.63634 0
M  V30 806 H 72.9079 -1.52463 -3.67207 0
M  V30 807 N 73.905 1.17692 -1.04816 0
M  V30 808 C 74.868 2.19787 -0.650117 0
M  V30 809 C 75.868 1.58044 0.296427 0
M  V30 810 O 77.058 1.74012 0.0808097 0
M  V30 811 C 74.19 3.40869 0.0456987 0
M  V30 812 H 75.383 2.56516 -1.5537 0
M  V30 813 H 72.936 1.31708 -0.841594 0
M  V30 814 H 73.671 3.09681 0.962726 0
M  V30 815 H 73.456 3.86928 -0.634727 0
M  V30 816 H 74.946 4.16445 0.310432 0
M  V30 817 N 75.3831 0.828654 1.34056 0
M  V30 818 C 76.2931 0.256725 2.33191 0
M  V30 819 C 77.3091 -0.611898 1.62886 0
M  V30 820 O 78.4851 -0.51844 1.94613 0
M  V30 821 C 75.5501 -0.567238 3.42028 0
M  V30 822 C 74.6111 0.324458 4.28072 0
M  V30 823 C 73.8441 -0.460274 5.31712 0
M  V30 824 O 74.0671 -1.693 5.44696 0
M  V30 825 O 73.0011 0.160391 6.01686 0
M  V30 826 H 76.8271 1.07739 2.83947 0
M  V30 827 H 74.4121 0.59093 1.37217 0
M  V30 828 H 76.2941 -1.03582 4.08471 0
M  V30 829 H 74.9691 -1.36513 2.93506 0
M  V30 830 H 73.8761 0.840659 3.64532 0
M  V30 831 H 75.2091 1.08685 4.8005 0
M  V30 832 N 76.8612 -1.46375 0.584142 0
M  V30 833 C 78.1102 -2.01585 0.0679741 0
M  V30 834 C 78.4232 -1.46109 -1.30045 0
M  V30 835 O 79.6292 -1.93148 -1.90804 0
M  V30 836 C 78.0852 -3.5983 0.0709207 0
M  V30 837 C 77.6932 -4.24303 1.43775 0
M  V30 838 C 79.4372 -4.22693 -0.391228 0
M  V30 839 C 77.3442 -5.74631 1.39834 0
M  V30 840 H 76.2742 -0.753689 0.0216421 0
M  V30 841 H 78.9252 -1.68093 0.736001 0
M  V30 842 H 77.3072 -3.90405 -0.663299 0
M  V30 843 H 78.4812 -4.05335 2.19181 0
M  V30 844 H 76.7962 -3.73539 1.84004 0
M  V30 845 H 79.3932 -5.3289 -0.439524 0
M  V30 846 H 79.7362 -3.91728 -1.40906 0
M  V30 847 H 80.2692 -3.96749 0.288974 0
M  V30 848 H 77.0082 -6.10258 2.39303 0
M  V30 849 H 76.5282 -5.95858 0.686505 0
M  V30 850 H 78.2072 -6.37375 1.11187 0
M  V30 851 N 78.3393 -0.321999 -1.54275 0
M  V30 852 C 79.3023 0.531975 -2.22941 0
M  V30 853 C 80.3023 1.04478 -1.22234 0
M  V30 854 O 81.4923 0.937452 -1.46825 0
M  V30 855 C 78.6243 1.73874 -2.93224 0
M  V30 856 H 79.8173 -0.0682612 -2.99822 0
M  V30 857 H 77.3703 -0.0730644 -1.56129 0
M  V30 858 H 78.1053 2.37825 -2.20476 0
M  V30 859 H 77.8903 1.37847 -3.6707 0
M  V30 860 H 79.3803 2.34496 -3.45545 0
M  V30 861 N 79.8174 1.5752 -0.0501392 0
M  V30 862 C 81.2334 1.56631 0.306402 0
M  V30 863 C 81.4334 1.0577 1.71508 0
M  V30 864 O 80.4894 0.713837 2.422 0
M  V30 865 C 81.8024 3.00393 0.135811 0
M  V30 866 C 83.3504 3.12315 0.206993 0
M  V30 867 C 83.8254 4.57954 0.064944 0
M  V30 868 N 85.3164 4.63041 0.121254 0
M  V30 869 C 86.0514 5.73389 0.0354381 0
M  V30 870 N 85.5474 6.92724 -0.102666 0
M  V30 871 N 87.3404 5.62026 0.090946 0
M  V30 872 H 79.4914 1.88903 -0.971046 0
M  V30 873 H 81.7544 0.869876 -0.376855 0
M  V30 874 H 81.4604 3.41635 -0.835384 0
M  V30 875 H 81.3344 3.66373 0.897275 0
M  V30 876 H 83.7214 2.70973 1.16866 0
M  V30 877 H 83.8024 2.49016 -0.585208 0
M  V30 878 H 83.4464 4.99981 -0.893394 0
M  V30 879 H 83.3764 5.19258 0.876277 0
M  V30 880 H 85.8674 3.77216 0.227284 0
M  V30 881 H 86.1804 7.72633 -0.160882 0
M  V30 882 H 84.5254 6.94864 -0.137737 0
M  V30 883 H 87.7164 4.67684 0.197388 0
M  V30 884 H 87.8894 6.47997 0.0206089 0
M  V30 885 N 81.2955 -0.223234 1.56011 0
M  V30 886 C 82.2255 -1.27988 1.95298 0
M  V30 887 C 83.2065 -1.48976 0.820979 0
M  V30 888 O 84.3915 -1.61188 1.08315 0
M  V30 889 C 81.5215 -2.63 2.26822 0
M  V30 890 C 80.4755 -2.56671 3.42497 0
M  V30 891 C 79.8015 -3.95697 3.59622 0
M  V30 892 C 81.1015 -2.11601 4.77517 0
M  V30 893 H 82.7955 -0.953525 2.8381 0
M  V30 894 H 80.3415 -0.457244 1.36548 0
M  V30 895 H 82.2945 -3.37077 2.52898 0
M  V30 896 H 81.0185 -2.9732 1.35161 0
M  V30 897 H 79.6775 -1.85051 3.16467 0
M  V30 898 H 79.3255 -4.27322 2.6534 0
M  V30 899 H 79.0255 -3.92345 4.37424 0
M  V30 900 H 80.5495 -4.71438 3.88044 0
M  V30 901 H 81.9635 -2.7542 5.02809 0
M  V30 902 H 80.3605 -2.19311 5.5859 0
M  V30 903 H 81.4305 -1.06824 4.72987 0
M  V30 904 N 82.7736 -1.49793 -0.48987 0
M  V30 905 C 83.7066 -1.61898 -1.60823 0
M  V30 906 C 84.6846 -0.467651 -1.5573 0
M  V30 907 O 85.8686 -0.684682 -1.75626 0
M  V30 908 C 82.9956 -1.58422 -2.99366 0
M  V30 909 C 82.0416 -2.78889 -3.22682 0
M  V30 910 S 82.8746 -4.40429 -3.04602 0
M  V30 911 C 84.0306 -4.39617 -4.4552 0
M  V30 912 H 84.2636 -2.56502 -1.50312 0
M  V30 913 H 81.7966 -1.38822 -0.675849 0
M  V30 914 H 83.7546 -1.57103 -3.79248 0
M  V30 915 H 82.4156 -0.650866 -3.07283 0
M  V30 916 H 81.6086 -2.72708 -4.23847 0
M  V30 917 H 81.2106 -2.77678 -2.50541 0
M  V30 918 H 83.5026 -4.12022 -5.37814 0
M  V30 919 H 84.4456 -5.41097 -4.56749 0
M  V30 920 H 84.8536 -3.69554 -4.2672 0
M  V30 921 N 84.2517 0.741722 -1.39055 0
M  V30 922 C 85.1617 1.88621 -1.39496 0
M  V30 923 C 86.1777 1.71557 -0.290578 0
M  V30 924 O 87.3537 1.94275 -0.530954 0
M  V30 925 C 84.4187 3.24134 -1.23037 0
M  V30 926 C 83.4797 3.5364 -2.43387 0
M  V30 927 C 82.7127 4.82687 -2.27703 0
M  V30 928 O 82.9357 5.55922 -1.27696 0
M  V30 929 O 81.8697 5.1194 -3.16545 0
M  V30 930 H 85.6957 1.91203 -2.35956 0
M  V30 931 H 83.2807 0.888625 -1.20099 0
M  V30 932 H 85.1627 4.0513 -1.15964 0
M  V30 933 H 83.8377 3.22337 -0.296691 0
M  V30 934 H 82.7447 2.72758 -2.56035 0
M  V30 935 H 84.0777 3.60209 -3.35425 0
M  V30 936 N 85.7298 1.2412 0.971189 0
M  V30 937 C 87.0068 0.986867 1.6888 0
M  V30 938 C 87.3868 -0.491857 2.0529 0
M  V30 939 O 86.7348 -1.46531 1.75331 0
M  V30 940 C 86.9448 1.9063 2.92338 0
M  V30 941 C 88.2928 2.17515 3.64654 0
M  V30 942 O 89.3168 1.88254 3.02388 0
M  V30 943 O 88.1758 2.6719 4.7673 0
M  V30 944 H 85.2698 0.372944 0.738134 0
M  V30 945 H 87.8158 1.35203 1.02559 0
M  V30 946 H 86.5878 2.90552 2.62097 0
M  V30 947 H 86.2108 1.54408 3.66393 0
M  V30 948 N 87.2079 -1.17134 1.05439 0
M  V30 949 C 88.1379 -2.2342 0.678649 0
M  V30 950 C 89.1189 -1.66971 -0.32476 0
M  V30 951 O 90.3039 -1.93149 -0.201802 0
M  V30 952 C 87.4339 -3.47256 0.0552099 0
M  V30 953 C 86.3879 -4.16543 0.98365 0
M  V30 954 C 85.7139 -5.34231 0.223961 0
M  V30 955 C 87.0139 -4.68495 2.3089 0
M  V30 956 H 88.7079 -2.55105 1.56722 0
M  V30 957 H 86.2539 -1.2262 0.754998 0
M  V30 958 H 88.2069 -4.20828 -0.21946 0
M  V30 959 H 86.9309 -3.14846 -0.868319 0
M  V30 960 H 85.5899 -3.44887 1.24293 0
M  V30 961 H 85.2379 -4.98071 -0.702412 0
M  V30 962 H 84.9379 -5.81527 0.842627 0
M  V30 963 H 86.4619 -6.10585 -0.0433671 0
M  V30 964 H 87.8759 -5.33691 2.09396 0
M  V30 965 H 86.2729 -5.26379 2.88176 0
M  V30 966 H 87.3429 -3.85169 2.94572 0
M  V30 967 N 88.686 -0.835752 -1.33615 0
M  V30 968 C 89.963 -0.352017 -1.92406 0
M  V30 969 C 90.343 1.16225 -1.76224 0
M  V30 970 O 89.691 1.97526 -1.14873 0
M  V30 971 C 89.901 -0.795485 -3.39813 0
M  V30 972 C 91.249 -0.801703 -4.16963 0
M  V30 973 O 92.273 -0.738889 -3.48452 0
M  V30 974 O 91.132 -0.886607 -5.3926 0
M  V30 975 H 88.226 -0.0989641 -0.821057 0
M  V30 976 H 90.772 -0.921397 -1.42507 0
M  V30 977 H 89.544 -1.83795 -3.45449 0
M  V30 978 H 89.167 -0.202505 -3.97084 0
M  V30 979 N 90.1641 1.46063 -0.591896 0
M  V30 980 C 91.5801 1.57561 -0.254288 0
M  V30 981 C 91.7801 1.58565 1.24336 0
M  V30 982 O 90.8361 1.50753 2.02558 0
M  V30 983 C 92.1491 2.86549 -0.911611 0
M  V30 984 C 93.6971 3.00197 -0.886059 0
M  V30 985 C 94.1721 4.31933 -1.5231 0
M  V30 986 N 95.6631 4.38654 -1.48786 0
M  V30 987 C 96.3981 5.39222 -1.95006 0
M  V30 988 N 95.8941 6.46414 -2.49241 0
M  V30 989 N 97.6871 5.3048 -1.85868 0
M  V30 990 H 89.8381 1.43655 -1.56451 0
M  V30 991 H 92.1011 0.68583 -0.654478 0
M  V30 992 H 91.8071 2.91651 -1.96551 0
M  V30 993 H 91.6811 3.74794 -0.425368 0
M  V30 994 H 94.0681 2.9467 0.159246 0
M  V30 995 H 94.1491 2.13403 -1.41041 0
M  V30 996 H 93.7931 4.38217 -2.56765 0
M  V30 997 H 93.7231 5.17516 -0.973891 0
M  V30 998 H 96.2141 3.61793 -1.09151 0
M  V30 999 H 96.5271 7.19376 -2.82344 0
M  V30 1000 H 94.8721 6.47208 -2.53272 0
M  V30 1001 H 98.0631 4.45643 -1.43248 0
M  V30 1002 H 98.2361 6.08711 -2.22204 0
M  V30 1003 N 91.6422 0.330177 1.54103 0
M  V30 1004 C 92.5902 -0.548226 2.26047 0
M  V30 1005 C 93.5842 -1.11309 1.27698 0
M  V30 1006 O 94.7902 -1.06036 1.45452 0
M  V30 1007 H 91.1652 -0.195456 0.726155 0
M  V30 1008 H 93.1362 0.0807567 2.98291 0
M  V30 1009 C 91.8852 -1.69415 3.03634 0
M  V30 1010 H 91.2082 -1.26876 3.79134 0
M  V30 1011 H 92.6482 -2.28423 3.5721 0
M  V30 1012 C 91.1072 -2.61569 2.12328 0
M  V30 1013 O 91.6372 -3.63462 1.7105 0
M  V30 1014 N 89.8432 -2.29952 1.77681 0
M  V30 1015 H 89.3902 -1.47134 2.11446 0
M  V30 1016 H 89.3482 -2.91871 1.16869 0
M  V30 1017 N 93.1203 -1.57491 0.0584922 0
M  V30 1018 C 94.0673 -2.11958 -0.913376 0
M  V30 1019 C 95.0373 -1.02875 -1.30407 0
M  V30 1020 O 96.2223 -1.30464 -1.39226 0
M  V30 1021 C 93.3623 -2.67497 -2.18035 0
M  V30 1022 C 92.4753 -3.90691 -1.84349 0
M  V30 1023 C 91.6103 -4.3452 -3.05559 0
M  V30 1024 C 90.6493 -5.50395 -2.67827 0
M  V30 1025 N 89.7863 -5.89244 -3.81754 0
M  V30 1026 H 94.6263 -2.94704 -0.442017 0
M  V30 1027 H 92.1633 -1.45643 -0.206545 0
M  V30 1028 H 94.1213 -2.978 -2.92183 0
M  V30 1029 H 92.7513 -1.87537 -2.62735 0
M  V30 1030 H 91.8033 -3.66934 -1.00319 0
M  V30 1031 H 93.1153 -4.7489 -1.5258 0
M  V30 1032 H 92.2693 -4.66414 -3.87998 0
M  V30 1033 H 91.0083 -3.49147 -3.40511 0
M  V30 1034 H 90.0133 -5.18165 -1.83806 0
M  V30 1035 H 91.2383 -6.3749 -2.34059 0
M  V30 1036 H 89.1843 -5.06823 -4.16493 0
M  V30 1037 H 89.1013 -6.68151 -3.53708 0
M  V30 1038 H 90.3693 -6.25756 -4.64811 0
M  V30 1039 N 94.5984 0.214957 -1.56127 0
M  V30 1040 C 95.8754 0.963093 -1.70247 0
M  V30 1041 C 96.2554 2.02166 -0.60764 0
M  V30 1042 O 95.6034 2.25244 0.384385 0
M  V30 1043 C 95.8134 1.56756 -3.11815 0
M  V30 1044 C 97.1614 2.0573 -3.7143 0
M  V30 1045 O 98.1854 1.66637 -3.14818 0
M  V30 1046 O 97.0444 2.77603 -4.70743 0
M  V30 1047 H 94.1384 0.450321 -0.693643 0
M  V30 1048 H 96.6844 0.206219 -1.68442 0
M  V30 1049 H 95.4564 0.803533 -3.82961 0
M  V30 1050 H 95.0794 2.3898 -3.17765 0
M  V30 1051 N 96.0765 1.50051 0.48192 0
M  V30 1052 C 97.0085 1.64263 1.59844 0
M  V30 1053 C 98.0215 0.52451 1.54119 0
M  V30 1054 O 99.2105 0.797293 1.59704 0
M  V30 1055 C 96.3105 1.60102 2.98698 0
M  V30 1056 C 95.4835 2.87767 3.29407 0
M  V30 1057 C 94.5425 2.76397 4.47762 0
M  V30 1058 O 93.5685 3.50348 4.48603 0
M  V30 1059 N 94.7705 1.89222 5.48794 0
M  V30 1060 H 97.5355 2.60566 1.48073 0
M  V30 1061 H 95.0965 1.47379 0.670149 0
M  V30 1062 H 97.0885 1.50123 3.75826 0
M  V30 1063 H 95.6585 0.715798 3.04294 0
M  V30 1064 H 94.8785 3.11954 2.40994 0
M  V30 1065 H 96.1665 3.72365 3.4673 0
M  V30 1066 H 95.5645 1.28434 5.50928 0
M  V30 1067 H 94.1215 1.85154 6.24949 0
M  V30 1068 N 97.5546 -0.734337 1.39446 0
M  V30 1069 C 98.4646 -1.87879 1.40495 0
M  V30 1070 C 99.4806 -1.714 0.299672 0
M  V30 1071 O 100.657 -1.93991 0.541249 0
M  V30 1072 C 97.7216 -3.23477 1.24754 0
M  V30 1073 C 96.7826 -3.52344 2.45259 0
M  V30 1074 C 96.0156 -4.81473 2.30259 0
M  V30 1075 O 96.2386 -5.55237 1.30643 0
M  V30 1076 O 95.1726 -5.10254 3.19256 0
M  V30 1077 H 98.9986 -1.89949 2.36966 0
M  V30 1078 H 96.5836 -0.882243 1.20569 0
M  V30 1079 H 98.4656 -4.04509 1.18111 0
M  V30 1080 H 97.1406 -3.22176 0.313781 0
M  V30 1081 H 96.0476 -2.71396 2.57478 0
M  V30 1082 H 97.3806 -3.58426 3.37331 0
M  V30 1083 N 99.0327 -1.24633 -0.964593 0
M  V30 1084 C 100.279 -1.08949 -1.71049 0
M  V30 1085 C 100.612 0.370302 -1.90637 0
M  V30 1086 O 99.8867 1.27349 -1.47011 0
M  V30 1087 C 100.17 -1.83329 -3.0994 0
M  V30 1088 C 100.023 -3.37077 -2.97824 0
M  V30 1089 C 101.342 -1.60846 -4.09654 0
M  V30 1090 H 98.4607 -0.397178 -0.620821 0
M  V30 1091 H 101.103 -1.5334 -1.12191 0
M  V30 1092 H 99.2527 -1.45597 -3.60186 0
M  V30 1093 H 100.925 -3.84425 -2.5498 0
M  V30 1094 H 99.1677 -3.65298 -2.33965 0
M  V30 1095 H 99.8387 -3.84324 -3.96231 0
M  V30 1096 H 102.315 -1.93674 -3.68279 0
M  V30 1097 H 101.191 -2.1534 -5.04896 0
M  V30 1098 H 101.452 -0.547434 -4.38698 0
M  V30 1099 N 100.511 1.16574 -1.06058 0
M  V30 1100 C 101.459 2.22941 -0.663343 0
M  V30 1101 C 102.453 1.66358 0.319593 0
M  V30 1102 O 103.659 1.7905 0.184713 0
M  V30 1103 H 100.034 0.725907 -0.196376 0
M  V30 1104 H 102.005 2.53736 -1.57037 0
M  V30 1105 C 100.754 3.47642 -0.0632808 0
M  V30 1106 H 100.077 3.91493 -0.810733 0
M  V30 1107 H 101.517 4.2363 0.177177 0
M  V30 1108 C 99.9758 3.1509 1.19248 0
M  V30 1109 O 100.506 3.30673 2.28075 0
M  V30 1110 N 98.7118 2.6924 1.09353 0
M  V30 1111 H 98.2588 2.5676 0.207912 0
M  V30 1112 H 98.2168 2.47833 1.93458 0
M  V30 1113 N 101.989 0.842826 1.3317 0
M  V30 1114 C 103.236 0.440447 1.97652 0
M  V30 1115 C 103.564 -1.00123 1.6675 0
M  V30 1116 O 102.819 -1.7155 0.941761 0
M  V30 1117 C 103.118 0.612607 3.52111 0
M  V30 1118 C 102.784 2.02297 4.02972 0
M  V30 1119 C 101.446 2.40874 4.16573 0
M  V30 1120 C 103.798 2.94402 4.30089 0
M  V30 1121 C 101.126 3.70852 4.54627 0
M  V30 1122 C 103.478 4.23865 4.69597 0
M  V30 1123 C 102.142 4.62392 4.81404 0
M  V30 1124 H 101.412 0.161171 0.72326 0
M  V30 1125 H 104.059 1.07061 1.58777 0
M  V30 1126 H 102.364 -0.100849 3.9167 0
M  V30 1127 H 104.061 0.2815 4.00011 0
M  V30 1128 H 100.651 1.71338 3.92863 0
M  V30 1129 H 104.835 2.65835 4.19101 0
M  V30 1130 H 100.091 4.00501 4.61962 0
M  V30 1131 H 104.265 4.95306 4.89536 0
M  V30 1132 H 101.892 5.63154 5.10648 0
M  V30 1133 N 103.467 -1.45747 0.599634 0
M  V30 1134 C 104.399 -2.28628 -0.161879 0
M  V30 1135 C 105.412 -1.39494 -0.839367 0
M  V30 1136 O 106.601 -1.63941 -0.706089 0
M  V30 1137 C 103.701 -3.15014 -1.24976 0
M  V30 1138 C 102.874 -4.32378 -0.660935 0
M  V30 1139 C 101.933 -5.00033 -1.63869 0
M  V30 1140 O 100.959 -5.57085 -1.1681 0
M  V30 1141 N 102.161 -4.98589 -2.97303 0
M  V30 1142 H 104.926 -2.94624 0.549265 0
M  V30 1143 H 102.487 -1.55847 0.438565 0
M  V30 1144 H 104.479 -3.5714 -1.9035 0
M  V30 1145 H 103.049 -2.5098 -1.86354 0
M  V30 1146 H 102.269 -3.9383 0.170688 0
M  V30 1147 H 103.557 -5.08197 -0.247619 0
M  V30 1148 H 102.955 -4.53514 -3.38145 0
M  V30 1149 H 101.512 -5.44603 -3.58121 0
M  V30 1150 N 104.945 -0.338344 -1.53925 0
M  V30 1151 C 105.855 0.529421 -2.28548 0
M  V30 1152 C 106.871 1.11645 -1.3346 0
M  V30 1153 O 108.047 1.13325 -1.66492 0
M  V30 1154 C 105.112 1.66713 -3.03987 0
M  V30 1155 C 104.173 1.11041 -4.14691 0
M  V30 1156 C 103.406 2.19389 -4.86522 0
M  V30 1157 O 103.629 3.40013 -4.57982 0
M  V30 1158 O 102.563 1.83976 -5.73094 0
M  V30 1159 H 106.389 -0.0770399 -3.03602 0
M  V30 1160 H 103.974 -0.103555 -1.49041 0
M  V30 1161 H 105.856 2.32918 -3.5118 0
M  V30 1162 H 104.531 2.25949 -2.31794 0
M  V30 1163 H 103.438 0.413024 -3.71813 0
M  V30 1164 H 104.771 0.562975 -4.8897 0
M  V30 1165 N 106.423 1.57458 -0.0668435 0
M  V30 1166 C 107.653 1.97337 0.611677 0
M  V30 1167 C 108.061 0.943744 1.63982 0
M  V30 1168 O 107.404 -0.0785584 1.83532 0
M  V30 1169 C 107.466 3.33511 1.34205 0
M  V30 1170 C 107.13 4.54598 0.467941 0
M  V30 1171 C 108.127 5.19186 -0.272439 0
M  V30 1172 C 105.812 5.0075 0.39427 0
M  V30 1173 C 107.806 6.28274 -1.07476 0
M  V30 1174 C 105.493 6.09711 -0.411729 0
M  V30 1175 C 106.491 6.73335 -1.14492 0
M  V30 1176 O 106.179 7.80199 -1.93763 0
M  V30 1177 H 105.911 0.654042 0.170893 0
M  V30 1178 H 108.465 2.04961 -0.134289 0
M  V30 1179 H 106.695 3.22487 2.13398 0
M  V30 1180 H 108.384 3.58029 1.91233 0
M  V30 1181 H 109.15 4.84477 -0.225086 0
M  V30 1182 H 105.029 4.51009 0.954569 0
M  V30 1183 H 108.573 6.77866 -1.64755 0
M  V30 1184 H 104.47 6.43854 -0.460664 0
M  V30 1185 H 105.238 7.97053 -1.86142 0
M  V30 1186 N 107.901 -0.206675 1.56239 0
M  V30 1187 C 109.147 -0.930218 1.80208 0
M  V30 1188 C 109.48 -1.83387 0.638981 0
M  V30 1189 O 108.755 -1.91119 -0.361066 0
M  V30 1190 C 109.038 -1.75641 3.1436 0
M  V30 1191 C 108.891 -0.878257 4.41142 0
M  V30 1192 C 110.21 -2.73129 3.45092 0
M  V30 1193 H 107.329 -0.336742 0.655571 0
M  V30 1194 H 109.971 -0.198222 1.88963 0
M  V30 1195 H 108.121 -2.38048 3.07027 0
M  V30 1196 H 109.793 -0.269787 4.6051 0
M  V30 1197 H 108.036 -0.184385 4.33408 0
M  V30 1198 H 108.707 -1.49106 5.3148 0
M  V30 1199 H 111.183 -2.20856 3.52649 0
M  V30 1200 H 110.059 -3.28028 4.40101 0
M  V30 1201 H 110.32 -3.51606 2.68003 0
M  V30 1202 N 109.379 -1.50304 -0.473955 0
M  V30 1203 C 110.607 -1.64902 -1.24959 0
M  V30 1204 C 111.022 -0.331198 -1.85872 0
M  V30 1205 O 110.379 0.68652 -1.69095 0
M  V30 1206 C 110.43 -2.73803 -2.36038 0
M  V30 1207 O 110.151 -4.00477 -1.77624 0
M  V30 1208 C 111.652 -2.99349 -3.26964 0
M  V30 1209 H 108.872 -0.554383 -0.378022 0
M  V30 1210 H 111.416 -1.9651 -0.566054 0
M  V30 1211 H 109.571 -2.44898 -3.00173 0
M  V30 1212 H 109.985 -4.60678 -2.5075 0
M  V30 1213 H 111.459 -3.79217 -4.01121 0
M  V30 1214 H 111.936 -2.10307 -3.85574 0
M  V30 1215 H 112.542 -3.29774 -2.68569 0
M  V30 1216 N 110.857 0.726932 -1.39834 0
M  V30 1217 C 112.104 1.48664 -1.37496 0
M  V30 1218 C 112.432 1.94482 0.0264678 0
M  V30 1219 O 111.687 1.67692 1.00886 0
M  V30 1220 C 111.986 2.73495 -2.30077 0
M  V30 1221 C 111.652 2.46502 -3.77555 0
M  V30 1222 C 110.314 2.3885 -4.17737 0
M  V30 1223 C 112.666 2.23604 -4.70798 0
M  V30 1224 C 109.994 2.06352 -5.49214 0
M  V30 1225 C 112.346 1.92622 -6.02561 0
M  V30 1226 C 111.01 1.83444 -6.41798 0
M  V30 1227 H 110.28 0.544001 -0.503135 0
M  V30 1228 H 112.927 0.833657 -1.72402 0
M  V30 1229 H 111.232 3.43575 -1.88317 0
M  V30 1230 H 112.929 3.31549 -2.25558 0
M  V30 1231 H 109.519 2.5334 -3.45712 0
M  V30 1232 H 113.703 2.28479 -4.40581 0
M  V30 1233 H 108.959 1.97776 -5.78528 0
M  V30 1234 H 113.133 1.73914 -6.74334 0
M  V30 1235 H 110.76 1.58029 -7.43593 0
M  V30 1236 N 112.336 1.25143 0.95797 0
M  V30 1237 C 113.266 1.07711 2.07173 0
M  V30 1238 C 114.247 -0.0128462 1.70095 0
M  V30 1239 O 115.432 0.156061 1.93572 0
M  V30 1240 C 112.562 0.691503 3.40346 0
M  V30 1241 C 111.516 1.73132 3.9142 0
M  V30 1242 C 110.842 1.20049 5.21049 0
M  V30 1243 C 112.142 3.1294 4.1817 0
M  V30 1244 H 113.836 2.00873 2.22014 0
M  V30 1245 H 111.382 0.967191 1.06684 0
M  V30 1246 H 113.335 0.556505 4.17709 0
M  V30 1247 H 112.059 -0.275819 3.25433 0
M  V30 1248 H 110.718 1.8547 3.16222 0
M  V30 1249 H 110.366 0.223499 5.02503 0
M  V30 1250 H 110.066 1.89545 5.56189 0
M  V30 1251 H 111.59 1.07782 6.01012 0
M  V30 1252 H 113.004 3.03775 4.86203 0
M  V30 1253 H 111.401 3.79875 4.64559 0
M  V30 1254 H 112.471 3.6025 3.24573 0
M  V30 1255 N 113.814 -1.1601 1.06675 0
M  V30 1256 C 115.062 -1.86264 0.784229 0
M  V30 1257 C 115.383 -1.82328 -0.691488 0
M  V30 1258 O 114.653 -1.25947 -1.50047 0
M  V30 1259 H 113.233 -0.689621 0.28711 0
M  V30 1260 H 115.895 -1.40664 1.34906 0
M  V30 1261 H 114.991 -2.91595 1.11259 0
M  V30 1262 N 115.292 -0.849877 -1.32721 0
M  V30 1263 C 116.255 -0.296122 -2.27279 0
M  V30 1264 C 117.255 0.541458 -1.5141 0
M  V30 1265 O 118.445 0.353658 -1.70572 0
M  V30 1266 C 115.577 0.581579 -3.35902 0
M  V30 1267 H 116.77 -1.13064 -2.77771 0
M  V30 1268 H 114.323 -0.62383 -1.43311 0
M  V30 1269 H 115.058 1.43809 -2.9067 0
M  V30 1270 H 114.843 -0.0178814 -3.92096 0
M  V30 1271 H 116.333 0.961951 -4.0637 0
M  V30 1272 N 116.77 1.45427 -0.607355 0
M  V30 1273 C 117.7 2.3329 0.0989352 0
M  V30 1274 C 118.681 1.46816 0.859007 0
M  V30 1275 O 119.866 1.75588 0.829604 0
M  V30 1276 C 116.996 3.29518 1.09705 0
M  V30 1277 C 115.95 4.25626 0.450206 0
M  V30 1278 C 115.276 5.11542 1.55655 0
M  V30 1279 C 116.576 5.18505 -0.628455 0
M  V30 1280 H 118.27 2.92595 -0.634716 0
M  V30 1281 H 115.816 1.40696 -0.306681 0
M  V30 1282 H 117.769 3.89855 1.59971 0
M  V30 1283 H 116.493 2.68372 1.86129 0
M  V30 1284 H 115.152 3.66586 -0.0315886 0
M  V30 1285 H 114.8 4.46765 2.31107 0
M  V30 1286 H 114.5 5.76647 1.12925 0
M  V30 1287 H 116.024 5.74748 2.06148 0
M  V30 1288 H 117.438 5.72916 -0.209877 0
M  V30 1289 H 115.835 5.92085 -0.977489 0
M  V30 1290 H 116.905 4.60948 -1.50514 0
M  V30 1291 N 118.248 0.346503 1.53744 0
M  V30 1292 C 119.211 -0.496439 2.23759 0
M  V30 1293 C 120.211 -1.0252 1.2388 0
M  V30 1294 O 121.401 -0.913974 1.48297 0
M  V30 1295 C 118.533 -1.69187 2.95954 0
M  V30 1296 H 119.726 0.115952 2.99676 0
M  V30 1297 H 117.279 0.0978939 1.55993 0
M  V30 1298 H 118.014 -2.34288 2.24231 0
M  V30 1299 H 117.799 -1.31989 3.69217 0
M  V30 1300 H 119.289 -2.28969 3.49232 0
M  V30 1301 N 119.726 -1.57421 0.075193 0
M  V30 1302 C 120.656 -2.15942 -0.888324 0
M  V30 1303 C 121.637 -1.08737 -1.30806 0
M  V30 1304 O 122.822 -1.36787 -1.37851 0
M  V30 1305 C 119.952 -2.72379 -2.1547 0
M  V30 1306 C 118.906 -3.8478 -1.87425 0
M  V30 1307 C 118.232 -4.27834 -3.20721 0
M  V30 1308 C 119.532 -5.08869 -1.17684 0
M  V30 1309 H 121.226 -2.96705 -0.400799 0
M  V30 1310 H 118.772 -1.42723 -0.191342 0
M  V30 1311 H 120.725 -3.11965 -2.83295 0
M  V30 1312 H 119.449 -1.88841 -2.6647 0
M  V30 1313 H 118.108 -3.45703 -1.22004 0
M  V30 1314 H 117.756 -3.41214 -3.6957 0
M  V30 1315 H 117.456 -5.03605 -3.02746 0
M  V30 1316 H 118.98 -4.70039 -3.89738 0
M  V30 1317 H 120.394 -5.4575 -1.75584 0
M  V30 1318 H 118.791 -5.8994 -1.09956 0
M  V30 1319 H 119.861 -4.84648 -0.156453 0
M  V30 1320 N 121.204 0.198386 -1.56346 0
M  V30 1321 C 122.453 0.917451 -1.79627 0
M  V30 1322 C 122.766 1.8456 -0.64784 0
M  V30 1323 O 123.972 2.60504 -0.764859 0
M  V30 1324 C 122.428 1.68175 -3.18191 0
M  V30 1325 C 122.036 0.798589 -4.40825 0
M  V30 1326 C 123.78 2.39065 -3.50782 0
M  V30 1327 C 121.687 1.56157 -5.70411 0
M  V30 1328 H 120.617 0.346317 -0.669762 0
M  V30 1329 H 123.268 0.170801 -1.82703 0
M  V30 1330 H 121.65 2.47216 -3.09354 0
M  V30 1331 H 122.824 0.0470665 -4.60776 0
M  V30 1332 H 121.139 0.200686 -4.15916 0
M  V30 1333 H 123.736 2.96692 -4.44835 0
M  V30 1334 H 124.079 3.13091 -2.74371 0
M  V30 1335 H 124.612 1.66993 -3.61052 0
M  V30 1336 H 121.351 0.864142 -6.49779 0
M  V30 1337 H 120.871 2.2871 -5.54483 0
M  V30 1338 H 122.55 2.11622 -6.11412 0
M  V30 1339 N 122.682 1.50554 0.465978 0
M  V30 1340 C 123.912 1.65323 1.23903 0
M  V30 1341 C 124.32 0.338051 1.86155 0
M  V30 1342 O 123.663 -0.690518 1.70228 0
M  V30 1343 C 123.725 2.69048 2.3844 0
M  V30 1344 C 123.389 4.12462 1.96784 0
M  V30 1345 C 124.386 4.98168 1.48745 0
M  V30 1346 C 122.071 4.58407 2.05349 0
M  V30 1347 C 124.065 6.27868 1.0982 0
M  V30 1348 C 121.752 5.88112 1.66035 0
M  V30 1349 C 122.75 6.72668 1.18349 0
M  V30 1350 O 122.438 7.99951 0.795825 0
M  V30 1351 H 122.17 0.558629 0.38067 0
M  V30 1352 H 124.724 1.97561 0.562022 0
M  V30 1353 H 122.954 2.32062 3.09328 0
M  V30 1354 H 124.643 2.72985 3.0039 0
M  V30 1355 H 125.409 4.63885 1.41546 0
M  V30 1356 H 121.288 3.92735 2.41414 0
M  V30 1357 H 124.832 6.93819 0.725293 0
M  V30 1358 H 120.729 6.21914 1.72895 0
M  V30 1359 H 121.497 8.13265 0.924222 0
M  V30 1360 N 124.16 -0.719506 1.40217 0
M  V30 1361 C 125.108 -1.85493 1.40339 0
M  V30 1362 C 126.102 -1.66995 0.284415 0
M  V30 1363 O 127.308 -1.74148 0.455252 0
M  V30 1364 H 123.683 -0.610857 0.438586 0
M  V30 1365 H 125.654 -1.82506 2.36081 0
M  V30 1366 C 124.403 -3.23321 1.27901 0
M  V30 1367 H 123.726 -3.38159 2.1328 0
M  V30 1368 H 125.166 -4.02914 1.32045 0
M  V30 1369 C 123.625 -3.36898 -0.0111355 0
M  V30 1370 O 124.155 -3.89674 -0.975538 0
M  V30 1371 N 122.361 -2.90492 -0.0793393 0
M  V30 1372 H 121.908 -2.47731 0.706183 0
M  V30 1373 H 121.866 -2.99955 -0.942038 0
M  V30 1374 N 125.638 -1.25649 -0.95132 0
M  V30 1375 C 126.548 -1.08073 -2.08224 0
M  V30 1376 C 127.564 -0.0169666 -1.73992 0
M  V30 1377 O 128.74 -0.218593 -2.0021 0
M  V30 1378 C 125.805 -0.704922 -3.39458 0
M  V30 1379 C 124.866 -1.84699 -3.87537 0
M  V30 1380 C 124.099 -1.48902 -5.12508 0
M  V30 1381 O 124.322 -0.386156 -5.69091 0
M  V30 1382 O 123.256 -2.32033 -5.55378 0
M  V30 1383 H 127.082 -2.02924 -2.25954 0
M  V30 1384 H 124.667 -1.04618 -1.06656 0
M  V30 1385 H 126.549 -0.507609 -4.18332 0
M  V30 1386 H 125.224 0.214291 -3.2299 0
M  V30 1387 H 124.131 -2.09919 -3.09653 0
M  V30 1388 H 125.464 -2.74557 -4.08509 0
M  V30 1389 N 127.117 1.15442 -1.07289 0
M  V30 1390 C 128.08 2.18358 -0.696591 0
M  V30 1391 C 129.08 1.58637 0.262837 0
M  V30 1392 O 130.27 1.74145 0.0438809 0
M  V30 1393 C 127.402 3.4089 -0.0266151 0
M  V30 1394 H 128.595 2.53162 -1.60776 0
M  V30 1395 H 126.148 1.29893 -0.869342 0
M  V30 1396 H 126.883 3.11653 0.896822 0
M  V30 1397 H 126.668 3.85495 -0.716657 0
M  V30 1398 H 128.158 4.17009 0.222028 0
M  V30 1399 N 128.595 0.856903 1.32268 0
M  V30 1400 C 129.525 0.31858 2.31316 0
M  V30 1401 C 130.506 -0.583487 1.59779 0
M  V30 1402 O 131.691 -0.503259 1.87566 0
M  V30 1403 C 128.821 -0.491979 3.43798 0
M  V30 1404 C 127.775 0.315849 4.26833 0
M  V30 1405 C 127.101 -0.619586 5.31098 0
M  V30 1406 C 128.401 1.54282 4.98993 0
M  V30 1407 H 130.095 1.14621 2.76591 0
M  V30 1408 H 127.641 0.552613 1.32974 0
M  V30 1409 H 129.594 -0.879012 4.1213 0
M  V30 1410 H 128.318 -1.35299 2.97257 0
M  V30 1411 H 126.977 0.684664 3.6015 0
M  V30 1412 H 126.625 -1.47751 4.8081 0
M  V30 1413 H 126.325 -0.0830621 5.87541 0
M  V30 1414 H 127.849 -1.00375 6.02293 0
M  V30 1415 H 129.263 1.22796 5.59995 0
M  V30 1416 H 127.66 2.01745 5.65172 0
M  V30 1417 H 128.73 2.30285 4.26728 0
M  V30 1418 N 130.073 -1.45103 0.615059 0
M  V30 1419 C 131.02 -2.30586 -0.0993978 0
M  V30 1420 C 131.99 -1.42544 -0.852669 0
M  V30 1421 O 133.175 -1.71465 -0.836917 0
M  V30 1422 C 130.315 -3.27572 -1.08583 0
M  V30 1423 C 129.428 -4.30717 -0.332656 0
M  V30 1424 C 128.563 -5.14807 -1.30947 0
M  V30 1425 C 127.602 -6.09673 -0.544538 0
M  V30 1426 N 126.739 -6.86517 -1.47101 0
M  V30 1427 H 131.579 -2.91144 0.635542 0
M  V30 1428 H 129.116 -1.4346 0.325206 0
M  V30 1429 H 131.074 -3.82276 -1.67095 0
M  V30 1430 H 129.704 -2.68751 -1.78809 0
M  V30 1431 H 128.756 -3.78615 0.368107 0
M  V30 1432 H 130.068 -4.98102 0.263842 0
M  V30 1433 H 129.222 -5.73948 -1.96643 0
M  V30 1434 H 127.961 -4.47458 -1.9399 0
M  V30 1435 H 126.966 -5.49656 0.126003 0
M  V30 1436 H 128.191 -6.79052 0.080947 0
M  V30 1437 H 126.137 -6.21851 -2.08895 0
M  V30 1438 H 126.054 -7.50281 -0.928137 0
M  V30 1439 H 127.322 -7.50194 -2.11731 0
M  V30 1440 N 131.551 -0.354651 -1.53558 0
M  V30 1441 C 132.799 0.237972 -2.00694 0
M  V30 1442 C 133.12 1.50173 -1.24391 0
M  V30 1443 O 132.39 1.92673 -0.354135 0
M  V30 1444 H 130.97 0.0909256 -0.741446 0
M  V30 1445 H 133.632 -0.478368 -1.88938 0
M  V30 1446 H 132.728 0.47264 -3.085 0
M  V30 1447 O 133.068 1.59947 -0.223399 0
M  V30 1448 H 133.759 1.90387 0.356737 0
M  V30 END ATOM
M  V30 BEGIN BOND
M  V30 END BOND
M  V30 END CTAB
M  END
$$$$
