drugbank_target|P06733 Alpha-enolase (DB01593; DB09130; DB11638; DB14487; DB14533; DB14548)
 OpenBabel12092121033D

  0  0  0     0  0            999 V3000
M  V30 BEGIN CTAB
M  V30 COUNTS 6664 6719 0 0 0
M  V30 BEGIN ATOM
M  V30 1 H -0.908 1.98254 -0.117106 0
M  V30 2 N 0 1.576 0 0
M  V30 3 C 0.933 2.03868 1.02534 0
M  V30 4 C 1.911 0.928543 1.3348 0
M  V30 5 O 3.095 1.19667 1.45644 0
M  V30 6 C 0.222 2.43627 2.35294 0
M  V30 7 C -0.732 3.65373 2.2001 0
M  V30 8 S 0.101 5.13292 1.52614 0
M  V30 9 C 1.257 5.56322 2.86805 0
M  V30 10 H 1.49 2.90518 0.631377 0
M  V30 11 H -0.977 1.52953 0.210867 0
M  V30 12 H 0.981 2.67203 3.11629 0
M  V30 13 H -0.358 1.57376 2.7183 0
M  V30 14 H -1.165 3.90944 3.18086 0
M  V30 15 H -1.563 3.418 1.51819 0
M  V30 16 H 0.729 5.58782 3.83104 0
M  V30 17 H 1.672 6.56266 2.65933 0
M  V30 18 H 2.08 4.83886 2.90714 0
M  V30 19 N 1.4781 -0.272755 1.55222 0
M  V30 20 C 2.7031 -1.02683 1.80197 0
M  V30 21 C 3.1281 -1.79142 0.573551 0
M  V30 22 O 2.4861 -1.74917 -0.476849 0
M  V30 23 C 2.5341 -1.9609 3.02624 0
M  V30 24 O 1.6381 -3.04863 2.77727 0
M  V30 25 H 0.9791 -0.293557 0.595584 0
M  V30 26 H 3.5091 -0.30159 2.02365 0
M  V30 27 H 3.5191 -2.38039 3.31363 0
M  V30 28 H 2.1941 -1.39851 3.91682 0
M  V30 29 H 0.7711 -2.67228 2.60084 0
M  V30 30 N 2.9562 -1.48159 -0.537278 0
M  V30 31 C 4.2052 -1.5506 -1.28993 0
M  V30 32 C 4.5182 -0.226211 -1.94288 0
M  V30 33 O 5.7242 -0.173395 -2.70946 0
M  V30 34 C 4.1802 -2.73429 -2.34018 0
M  V30 35 C 3.7882 -4.1248 -1.74825 0
M  V30 36 C 5.5322 -2.89638 -3.10339 0
M  V30 37 C 3.4392 -5.22121 -2.77747 0
M  V30 38 H 2.3692 -0.577231 -0.485098 0
M  V30 39 H 5.0202 -1.74478 -0.568317 0
M  V30 40 H 3.4022 -2.47431 -3.09182 0
M  V30 41 H 4.5762 -4.48466 -1.05899 0
M  V30 42 H 2.8912 -4.01327 -1.11022 0
M  V30 43 H 5.4882 -3.68718 -3.87235 0
M  V30 44 H 5.8312 -1.9882 -3.65754 0
M  V30 45 H 6.3642 -3.15502 -2.42288 0
M  V30 46 H 3.1032 -6.1488 -2.27161 0
M  V30 47 H 2.6232 -4.90631 -3.45024 0
M  V30 48 H 4.3022 -5.49924 -3.4087 0
M  V30 49 N 4.4343 0.785586 -1.36625 0
M  V30 50 C 5.3643 1.91259 -1.33949 0
M  V30 51 C 6.3453 1.68795 -0.210325 0
M  V30 52 O 7.5303 1.89854 -0.408561 0
M  V30 53 C 4.6603 3.28339 -1.13186 0
M  V30 54 C 3.6143 3.65335 -2.22967 0
M  V30 55 C 2.9403 5.00806 -1.87342 0
M  V30 56 C 4.2403 3.7352 -3.65075 0
M  V30 57 H 5.9343 1.93755 -2.28253 0
M  V30 58 H 3.4803 0.930788 -1.09874 0
M  V30 59 H 5.4333 4.06804 -1.09948 0
M  V30 60 H 4.1573 3.2624 -0.153332 0
M  V30 61 H 2.8163 2.89169 -2.25337 0
M  V30 62 H 2.4643 4.95233 -0.880545 0
M  V30 63 H 2.1643 5.26529 -2.60846 0
M  V30 64 H 3.6883 5.81687 -1.85667 0
M  V30 65 H 5.1023 4.42168 -3.64911 0
M  V30 66 H 3.4993 4.10731 -4.37516 0
M  V30 67 H 4.5693 2.74527 -3.99703 0
M  V30 68 N 5.9124 1.20967 1.01018 0
M  V30 69 C 6.8594 0.964281 2.09691 0
M  V30 70 C 7.8294 -0.107853 1.65749 0
M  V30 71 O 9.0144 0.0381987 1.90762 0
M  V30 72 C 6.1544 0.52943 3.41015 0
M  V30 73 C 5.2674 1.67043 3.98398 0
M  V30 74 C 4.4024 1.18525 5.17808 0
M  V30 75 C 3.4414 2.29892 5.67288 0
M  V30 76 N 2.5784 1.82546 6.77954 0
M  V30 77 H 7.4184 1.89463 2.30017 0
M  V30 78 H 4.9554 0.944289 1.1279 0
M  V30 79 H 6.9134 0.258588 4.16398 0
M  V30 80 H 5.5434 -0.363919 3.20742 0
M  V30 81 H 4.5954 2.05603 3.20049 0
M  V30 82 H 5.9074 2.50877 4.31117 0
M  V30 83 H 5.0614 0.870762 6.00419 0
M  V30 84 H 3.8004 0.316887 4.86669 0
M  V30 85 H 2.8054 2.6215 4.83278 0
M  V30 86 H 4.0304 3.17216 6.00459 0
M  V30 87 H 1.9764 0.980454 6.48632 0
M  V30 88 H 1.8934 2.59956 7.09901 0
M  V30 89 H 3.1614 1.54115 7.64113 0
M  V30 90 N 7.3905 -1.2043 1.01659 0
M  V30 91 C 8.6395 -1.89118 0.701237 0
M  V30 92 C 8.9525 -1.79705 -0.772358 0
M  V30 93 O 10.1585 -2.43528 -1.20026 0
M  V30 94 C 8.6145 -3.39168 1.20388 0
M  V30 95 C 8.2225 -3.57166 2.70438 0
M  V30 96 C 9.9665 -4.1341 0.963953 0
M  V30 97 C 7.8735 -5.01042 3.14183 0
M  V30 98 H 6.8035 -0.708267 0.2586 0
M  V30 99 H 9.4545 -1.36239 1.22927 0
M  V30 100 H 7.8365 -3.91369 0.603824 0
M  V30 101 H 9.0105 -3.15351 3.35992 0
M  V30 102 H 7.3255 -2.96294 2.92572 0
M  V30 103 H 9.9225 -5.19491 1.26621 0
M  V30 104 H 10.2655 -4.16181 -0.099578 0
M  V30 105 H 10.7985 -3.67309 1.52738 0
M  V30 106 H 7.5375 -5.03426 4.19812 0
M  V30 107 H 7.0575 -5.43668 2.53348 0
M  V30 108 H 8.7365 -5.69623 3.0682 0
M  V30 109 N 8.8686 -0.792821 -1.36206 0
M  V30 110 C 9.8186 -0.166598 -2.27391 0
M  V30 111 C 10.8026 0.651479 -1.47121 0
M  V30 112 O 11.9946 0.510994 -1.69463 0
M  V30 113 C 9.1236 0.695033 -3.36191 0
M  V30 114 C 8.2096 -0.132019 -4.23894 0
M  V30 115 N 8.6006 -1.18822 -4.91645 0
M  V30 116 C 6.8986 0.0885952 -4.45912 0
M  V30 117 C 7.5996 -1.69198 -5.56549 0
M  V30 118 N 6.5756 -1.00065 -5.34311 0
M  V30 119 H 10.3776 -0.974947 -2.77258 0
M  V30 120 H 7.8916 -0.632616 -1.49572 0
M  V30 121 H 9.8886 1.1596 -4.00448 0
M  V30 122 H 8.5486 1.50189 -2.87877 0
M  V30 123 H 9.5596 -1.57069 -4.93507 0
M  V30 124 H 6.2366 0.865688 -4.08426 0
M  V30 125 H 7.6266 -2.57395 -6.20643 0
M  V30 126 N 10.3467 1.47872 -0.545128 0
M  V30 127 C 11.3097 2.28337 0.198717 0
M  V30 128 C 12.3097 1.36255 0.853888 0
M  V30 129 O 13.4997 1.59003 0.711606 0
M  V30 130 C 10.6317 3.15585 1.28915 0
M  V30 131 H 11.8247 2.95567 -0.507941 0
M  V30 132 H 9.3777 1.53362 -0.301616 0
M  V30 133 H 10.1127 2.53019 2.02859 0
M  V30 134 H 9.8977 3.83337 0.824309 0
M  V30 135 H 11.3877 3.76243 1.81194 0
M  V30 136 N 11.8248 0.280983 1.55075 0
M  V30 137 C 13.2408 -0.0729964 1.59433 0
M  V30 138 C 13.4408 -1.5411 1.29817 0
M  V30 139 O 12.4968 -2.29086 1.06187 0
M  V30 140 C 13.8098 0.306921 2.9913 0
M  V30 141 C 15.3578 0.254023 3.11968 0
M  V30 142 C 15.8328 0.608467 4.5394 0
M  V30 143 N 17.3238 0.560241 4.59799 0
M  V30 144 C 18.0588 0.80722 5.6769 0
M  V30 145 N 17.5548 1.11912 6.83701 0
M  V30 146 N 19.3478 0.735623 5.57266 0
M  V30 147 H 11.4988 1.238 1.7259 0
M  V30 148 H 13.7618 0.500547 0.805082 0
M  V30 149 H 13.4678 1.32816 3.25657 0
M  V30 150 H 13.3418 -0.349363 3.75579 0
M  V30 151 H 15.7288 -0.75794 2.852 0
M  V30 152 H 15.8098 0.944649 2.37718 0
M  V30 153 H 15.4538 1.61814 4.81434 0
M  V30 154 H 15.3838 -0.104013 5.26497 0
M  V30 155 H 17.8748 0.329288 3.76463 0
M  V30 156 H 18.1878 1.29409 7.61888 0
M  V30 157 H 16.5328 1.15695 6.85303 0
M  V30 158 H 19.7238 0.491752 4.6551 0
M  V30 159 H 19.8968 0.931482 6.4127 0
M  V30 160 N 13.3029 -1.57598 0.00835791 0
M  V30 161 C 14.2129 -2.12385 -0.996487 0
M  V30 162 C 15.2289 -1.07108 -1.37127 0
M  V30 163 O 16.4049 -1.39055 -1.4569 0
M  V30 164 C 13.4699 -2.62314 -2.26699 0
M  V30 165 C 12.5309 -3.82225 -1.95456 0
M  V30 166 C 11.7639 -4.29763 -3.16449 0
M  V30 167 O 11.9869 -3.76584 -4.28416 0
M  V30 168 O 10.9209 -5.21832 -2.99958 0
M  V30 169 H 14.7469 -2.98479 -0.560725 0
M  V30 170 H 12.3319 -1.47903 -0.210987 0
M  V30 171 H 14.2139 -2.94589 -3.01322 0
M  V30 172 H 12.8889 -1.79313 -2.69497 0
M  V30 173 H 11.7959 -3.54909 -1.18282 0
M  V30 174 H 13.1289 -4.66324 -1.57489 0
M  V30 175 N 14.781 0.264519 -1.55364 0
M  V30 176 C 16.03 0.992812 -1.75574 0
M  V30 177 C 16.343 1.87142 -0.568979 0
M  V30 178 O 17.549 2.63513 -0.653682 0
M  V30 179 C 16.005 1.81519 -3.10771 0
M  V30 180 C 15.613 0.984839 -4.37041 0
M  V30 181 C 17.357 2.53727 -3.40327 0
M  V30 182 C 15.264 1.80209 -5.63275 0
M  V30 183 H 14.194 0.374412 -0.65447 0
M  V30 184 H 16.845 0.248138 -1.81815 0
M  V30 185 H 15.227 2.60115 -2.98591 0
M  V30 186 H 16.401 0.242455 -4.60162 0
M  V30 187 H 14.716 0.37691 -4.14691 0
M  V30 188 H 17.313 3.15292 -4.3185 0
M  V30 189 H 17.656 3.24447 -2.60845 0
M  V30 190 H 18.189 1.82156 -3.53644 0
M  V30 191 H 14.928 1.13896 -6.45529 0
M  V30 192 H 14.448 2.52022 -5.44284 0
M  V30 193 H 16.127 2.37364 -6.01887 0
M  V30 194 N 16.2591 1.48442 0.529413 0
M  V30 195 C 17.5061 1.56488 1.28521 0
M  V30 196 C 17.8341 0.239042 1.93025 0
M  V30 197 O 17.0891 -0.770713 1.79885 0
M  V30 198 C 17.3881 2.6523 2.39558 0
M  V30 199 C 17.0541 4.07648 1.92702 0
M  V30 200 C 15.7161 4.46411 1.79641 0
M  V30 201 C 18.0681 4.96896 1.573 0
M  V30 202 C 15.3961 5.72226 1.29514 0
M  V30 203 C 17.7481 6.23202 1.08636 0
M  V30 204 C 16.4121 6.60821 0.941919 0
M  V30 205 H 15.6821 0.572631 0.470292 0
M  V30 206 H 18.3291 1.82161 0.59072 0
M  V30 207 H 16.6341 2.33419 3.14679 0
M  V30 208 H 18.3311 2.68671 2.97686 0
M  V30 209 H 14.9211 3.77036 2.03819 0
M  V30 210 H 19.1051 4.67626 1.66251 0
M  V30 211 H 14.3611 6.00097 1.17019 0
M  V30 212 H 18.5351 6.91753 0.803136 0
M  V30 213 H 16.1621 7.58198 0.5513 0
M  V30 214 N 17.7372 -0.778329 1.37039 0
M  V30 215 C 19.0142 -1.52551 1.22424 0
M  V30 216 C 19.3942 -2.10288 -0.184964 0
M  V30 217 O 18.7422 -1.94953 -1.19187 0
M  V30 218 C 18.9522 -2.61164 2.31504 0
M  V30 219 C 20.3002 -3.28746 2.68721 0
M  V30 220 O 21.3242 -2.71455 2.30631 0
M  V30 221 O 20.1832 -4.3231 3.3432 0
M  V30 222 H 17.2772 -0.675343 0.477326 0
M  V30 223 H 19.8232 -0.815859 1.48801 0
M  V30 224 H 18.5952 -2.16574 3.25901 0
M  V30 225 H 18.2182 -3.39737 2.06554 0
M  V30 226 N 19.2153 -1.21501 -1.00376 0
M  V30 227 C 20.4403 -1.05977 -1.78279 0
M  V30 228 C 20.8653 0.385994 -1.84097 0
M  V30 229 O 20.2233 1.27849 -1.28547 0
M  V30 230 C 20.2713 -1.66302 -3.19963 0
M  V30 231 O 19.3753 -0.909333 -4.0225 0
M  V30 232 H 18.7163 -0.372906 -0.549397 0
M  V30 233 H 21.2463 -1.6107 -1.26165 0
M  V30 234 H 21.2563 -1.70574 -3.70632 0
M  V30 235 H 19.9313 -2.71515 -3.15043 0
M  V30 236 H 18.5083 -0.941795 -3.60811 0
M  V30 237 N 20.6934 1.19889 -1.02296 0
M  V30 238 C 22.1094 1.41462 -0.738954 0
M  V30 239 C 22.3094 1.89721 0.678846 0
M  V30 240 O 21.3654 2.07016 1.4457 0
M  V30 241 C 22.6784 2.43083 -1.77005 0
M  V30 242 C 24.2264 2.5684 -1.78892 0
M  V30 243 C 24.7014 3.61709 -2.80945 0
M  V30 244 N 26.1924 3.69199 -2.79725 0
M  V30 245 C 26.9274 4.50019 -3.55345 0
M  V30 246 N 26.4234 5.34592 -4.40662 0
M  V30 247 N 28.2164 4.44612 -3.43914 0
M  V30 248 H 20.3674 0.868827 -1.93817 0
M  V30 249 H 22.6304 0.44399 -0.837602 0
M  V30 250 H 22.3364 2.14636 -2.78612 0
M  V30 251 H 22.2104 3.4217 -1.58744 0
M  V30 252 H 24.5974 2.84614 -0.779674 0
M  V30 253 H 24.6784 1.57927 -2.01228 0
M  V30 254 H 24.3224 3.34678 -3.82038 0
M  V30 255 H 24.2524 4.60259 -2.5587 0
M  V30 256 H 26.7434 3.08794 -2.17842 0
M  V30 257 H 27.0564 5.93363 -4.95116 0
M  V30 258 H 25.4014 5.34073 -4.44737 0
M  V30 259 H 28.5924 3.7758 -2.76679 0
M  V30 260 H 28.7654 5.0736 -4.031 0
M  V30 261 N 22.1715 0.800033 1.35784 0
M  V30 262 C 23.4195 0.376597 1.9856 0
M  V30 263 C 23.7405 -1.05812 1.63795 0
M  V30 264 O 23.0105 -1.73103 0.917171 0
M  V30 265 H 21.5905 0.136261 0.734467 0
M  V30 266 H 24.2525 1.02442 1.65806 0
M  V30 267 H 23.3485 0.477002 3.08433 0
M  V30 268 N 23.6496 -1.47581 0.552962 0
M  V30 269 C 24.5976 -2.31648 -0.21023 0
M  V30 270 C 25.5916 -1.42663 -0.913432 0
M  V30 271 O 26.7976 -1.5945 -0.835201 0
M  V30 272 H 23.1726 -0.746989 -0.0866676 0
M  V30 273 H 25.1436 -2.93869 0.518051 0
M  V30 274 C 23.8926 -3.25226 -1.22976 0
M  V30 275 H 23.2156 -3.93658 -0.698077 0
M  V30 276 H 24.6556 -3.86889 -1.73473 0
M  V30 277 C 23.1146 -2.48448 -2.27542 0
M  V30 278 O 23.6446 -2.22585 -3.34393 0
M  V30 279 N 21.8506 -2.09532 -2.01357 0
M  V30 280 H 21.3976 -2.30765 -1.14478 0
M  V30 281 H 21.3556 -1.58476 -2.71538 0
M  V30 282 N 25.1277 -0.289203 -1.54924 0
M  V30 283 C 26.5387 0.205791 -1.85562 0
M  V30 284 C 26.8897 1.54351 -1.2112 0
M  V30 285 O 26.0147 2.10435 -0.504601 0
M  V30 286 C 26.6097 0.380177 -3.3666 0
M  V30 287 C 25.1687 0.819395 -3.67373 0
M  V30 288 C 24.3157 -0.079159 -2.77187 0
M  V30 289 H 27.2667 -0.510577 -1.50262 0
M  V30 290 H 27.2877 1.21659 -3.60526 0
M  V30 291 H 26.7997 -0.593589 -3.83534 0
M  V30 292 H 24.9007 1.80413 -3.26009 0
M  V30 293 H 25.0137 0.646957 -4.74712 0
M  V30 294 H 23.3777 0.439565 -2.50878 0
M  V30 295 H 24.1607 -1.04906 -3.26878 0
M  V30 296 N 26.6058 1.57591 -0.0167156 0
M  V30 297 C 27.8338 1.95575 0.675128 0
M  V30 298 C 28.2488 0.892542 1.6637 0
M  V30 299 O 27.6058 -0.126912 1.82058 0
M  V30 300 C 27.6568 3.33608 1.39239 0
M  V30 301 O 27.3778 4.3585 0.443444 0
M  V30 302 C 28.8788 3.86151 2.17721 0
M  V30 303 H 26.0988 0.644423 0.186978 0
M  V30 304 H 28.6428 2.0437 -0.0728 0
M  V30 305 H 26.7978 3.2607 2.09182 0
M  V30 306 H 27.2118 5.158 0.951358 0
M  V30 307 H 28.6858 4.85114 2.63379 0
M  V30 308 H 29.1628 3.19738 3.01105 0
M  V30 309 H 29.7688 3.96918 1.52761 0
M  V30 310 N 28.0839 -0.256276 1.55502 0
M  V30 311 C 29.3299 -0.987079 1.77157 0
M  V30 312 C 29.6629 -1.85327 0.580315 0
M  V30 313 O 28.9379 -1.89874 -0.421686 0
M  V30 314 C 29.2209 -1.85553 3.08613 0
M  V30 315 C 29.0739 -1.01816 4.38125 0
M  V30 316 C 30.3929 -2.8397 3.36228 0
M  V30 317 H 27.5119 -0.357428 0.644526 0
M  V30 318 H 30.1539 -0.258239 1.88237 0
M  V30 319 H 28.3039 -2.47695 2.99298 0
M  V30 320 H 29.9759 -0.416159 4.59419 0
M  V30 321 H 28.2189 -0.322178 4.32602 0
M  V30 322 H 28.8899 -1.65939 5.26468 0
M  V30 323 H 31.3659 -2.31964 3.45445 0
M  V30 324 H 30.2419 -3.41864 4.29442 0
M  V30 325 H 30.5029 -3.59955 2.56681 0
M  V30 326 N 29.562 -1.4872 -0.521534 0
M  V30 327 C 30.472 -1.66569 -1.65203 0
M  V30 328 C 31.488 -0.548197 -1.65139 0
M  V30 329 O 32.664 -0.820339 -1.83936 0
M  V30 330 C 29.729 -1.70917 -3.01642 0
M  V30 331 C 28.79 -2.94356 -3.12495 0
M  V30 332 C 28.023 -2.98487 -4.42426 0
M  V30 333 O 28.246 -2.10786 -5.30024 0
M  V30 334 O 27.18 -3.90746 -4.57822 0
M  V30 335 H 31.006 -2.62298 -1.5308 0
M  V30 336 H 28.591 -1.3222 -0.695565 0
M  V30 337 H 30.473 -1.7625 -3.82771 0
M  V30 338 H 29.148 -0.783633 -3.14071 0
M  V30 339 H 28.055 -2.94552 -2.3063 0
M  V30 340 H 29.388 -3.86322 -3.04986 0
M  V30 341 N 31.0401 0.771051 -1.3745 0
M  V30 342 C 32.2861 1.5319 -1.32894 0
M  V30 343 C 32.6191 1.94008 0.0862511 0
M  V30 344 O 31.8941 1.64124 1.04373 0
M  V30 345 C 32.1771 2.79648 -2.26868 0
M  V30 346 C 32.0301 2.45079 -3.77169 0
M  V30 347 C 33.3491 3.81583 -2.19277 0
M  V30 348 H 30.4681 0.555744 -0.484064 0
M  V30 349 H 33.1101 0.884492 -1.68157 0
M  V30 350 H 31.2601 3.34891 -1.96926 0
M  V30 351 H 32.9321 1.95745 -4.1771 0
M  V30 352 H 31.1751 1.77767 -3.95704 0
M  V30 353 H 31.8461 3.35478 -4.38359 0
M  V30 354 H 34.3221 3.35835 -2.45671 0
M  V30 355 H 33.1981 4.67787 -2.87171 0
M  V30 356 H 33.4591 4.25897 -1.18592 0
M  V30 357 N 32.5182 1.22032 0.997298 0
M  V30 358 C 33.7952 0.950823 1.70935 0
M  V30 359 C 34.1752 -0.535292 2.042 0
M  V30 360 O 33.5232 -1.50217 1.72183 0
M  V30 361 C 33.7332 1.84386 2.96315 0
M  V30 362 C 35.0812 2.09732 3.69185 0
M  V30 363 O 36.1052 1.81798 3.06314 0
M  V30 364 O 34.9642 2.57018 4.82291 0
M  V30 365 H 32.0582 0.357204 0.745878 0
M  V30 366 H 34.6042 1.32997 1.05404 0
M  V30 367 H 33.3762 2.84928 2.68201 0
M  V30 368 H 32.9992 1.46602 3.69586 0
M  V30 369 N 33.9963 -1.19345 1.0293 0
M  V30 370 C 34.9263 -2.2481 0.631105 0
M  V30 371 C 35.9073 -1.66245 -0.360104 0
M  V30 372 O 37.0923 -1.92677 -0.242726 0
M  V30 373 C 34.2223 -3.47295 -0.0184607 0
M  V30 374 C 33.1763 -4.18536 0.895073 0
M  V30 375 C 32.5023 -5.34586 0.110592 0
M  V30 376 C 33.8023 -4.73287 2.209 0
M  V30 377 H 35.4963 -2.58372 1.51275 0
M  V30 378 H 33.0423 -1.24194 0.728818 0
M  V30 379 H 34.9953 -4.20268 -0.308675 0
M  V30 380 H 33.7193 -3.12933 -0.934907 0
M  V30 381 H 32.3783 -3.47446 1.16949 0
M  V30 382 H 32.0263 -4.96469 -0.807902 0
M  V30 383 H 31.7263 -5.83183 0.719087 0
M  V30 384 H 33.2503 -6.10355 -0.172871 0
M  V30 385 H 34.6643 -5.38013 1.98028 0
M  V30 386 H 33.0613 -5.32373 2.76946 0
M  V30 387 H 34.1313 -3.91331 2.86336 0
M  V30 388 N 35.4744 -0.807222 -1.35358 0
M  V30 389 C 36.7214 -0.387888 -1.9875 0
M  V30 390 C 37.0494 1.04509 -1.64037 0
M  V30 391 O 36.3044 1.73986 -0.895946 0
M  V30 392 C 36.6034 -0.519036 -3.53611 0
M  V30 393 C 36.2694 -1.91542 -4.08194 0
M  V30 394 C 34.9314 -2.29745 -4.22813 0
M  V30 395 C 37.2834 -2.82896 -4.37744 0
M  V30 396 C 34.6114 -3.58668 -4.643 0
M  V30 397 C 36.9634 -4.11265 -4.8067 0
M  V30 398 C 35.6274 -4.49466 -4.93494 0
M  V30 399 H 34.8974 -0.141938 -0.727279 0
M  V30 400 H 37.5444 -1.02814 -1.6156 0
M  V30 401 H 35.8494 0.204658 -3.91265 0
M  V30 402 H 37.5464 -0.175345 -4.00616 0
M  V30 403 H 34.1364 -1.60862 -3.97268 0
M  V30 404 H 38.3204 -2.54629 -4.26002 0
M  V30 405 H 33.5764 -3.88113 -4.72418 0
M  V30 406 H 37.7504 -4.82153 -5.02496 0
M  V30 407 H 35.3774 -5.49418 -5.25399 0
M  V30 408 N 36.9525 1.47285 -0.560781 0
M  V30 409 C 38.1805 2.06855 -0.0430262 0
M  V30 410 C 38.5955 1.41291 1.25229 0
M  V30 411 O 37.9525 0.510648 1.7521 0
M  V30 412 C 38.0035 3.61178 0.152518 0
M  V30 413 O 37.7245 4.24285 -1.0915 0
M  V30 414 C 39.2255 4.37624 0.707145 0
M  V30 415 H 36.4455 0.669319 -0.0474652 0
M  V30 416 H 38.9895 1.89237 -0.77521 0
M  V30 417 H 37.1445 3.78298 0.834843 0
M  V30 418 H 37.5585 5.16868 -0.891482 0
M  V30 419 H 39.0325 5.46271 0.793244 0
M  V30 420 H 39.5095 4.04152 1.71923 0
M  V30 421 H 40.1155 4.25257 0.0604027 0
M  V30 422 N 38.4306 0.297415 1.54768 0
M  V30 423 C 39.6556 -0.318435 2.04941 0
M  V30 424 C 40.0806 -1.4701 1.17345 0
M  V30 425 O 39.4386 -1.80436 0.176758 0
M  V30 426 C 39.4866 -0.755749 3.52592 0
M  V30 427 O 38.5906 -1.86088 3.68028 0
M  V30 428 H 37.9316 -0.062421 0.661059 0
M  V30 429 H 40.4616 0.438215 1.99852 0
M  V30 430 H 40.4716 -1.04552 3.94376 0
M  V30 431 H 39.1466 0.0867233 4.1581 0
M  V30 432 H 37.7236 -1.57193 3.38149 0
M  V30 433 N 39.9087 -1.5758 0.0250728 0
M  V30 434 C 40.8557 -2.09973 -0.958129 0
M  V30 435 C 41.8257 -1.00085 -1.3256 0
M  V30 436 O 43.0107 -1.27481 -1.41962 0
M  V30 437 C 40.1507 -2.62812 -2.2366 0
M  V30 438 C 39.2637 -3.86693 -1.92594 0
M  V30 439 C 38.3987 -4.27941 -3.14707 0
M  V30 440 C 37.4377 -5.44591 -2.79442 0
M  V30 441 N 36.5747 -5.81014 -3.94167 0
M  V30 442 H 41.4147 -2.937 -0.504428 0
M  V30 443 H 38.9517 -1.45172 -0.237392 0
M  V30 444 H 40.9097 -2.91536 -2.98434 0
M  V30 445 H 39.5397 -1.81922 -2.66654 0
M  V30 446 H 38.5917 -3.64723 -1.0808 0
M  V30 447 H 39.9037 -4.71547 -1.62619 0
M  V30 448 H 39.0577 -4.58079 -3.97804 0
M  V30 449 H 37.7967 -3.41845 -3.4784 0
M  V30 450 H 36.8017 -5.1415 -1.94755 0
M  V30 451 H 38.0267 -6.32382 -2.47528 0
M  V30 452 H 35.9727 -4.97874 -4.2715 0
M  V30 453 H 35.8897 -6.60498 -3.67801 0
M  V30 454 H 37.1577 -6.15756 -4.7798 0
M  V30 455 N 41.3868 0.248026 -1.55636 0
M  V30 456 C 42.6348 0.974295 -1.77065 0
M  V30 457 C 42.9558 1.85897 -0.588849 0
M  V30 458 O 42.2258 1.91868 0.395407 0
M  V30 459 H 40.8058 0.362733 -0.653019 0
M  V30 460 H 43.4678 0.266244 -1.93073 0
M  V30 461 H 42.5638 1.59667 -2.68166 0
M  V30 462 N 42.8649 1.48995 0.513639 0
M  V30 463 C 43.7949 1.67636 1.62544 0
M  V30 464 C 44.7759 0.525087 1.61793 0
M  V30 465 O 45.9609 0.759502 1.78732 0
M  V30 466 C 43.0909 1.73114 3.01079 0
M  V30 467 C 42.0449 2.87905 3.16693 0
M  V30 468 C 41.3709 2.78486 4.56453 0
M  V30 469 C 42.6709 4.29005 2.97913 0
M  V30 470 H 44.3649 2.60716 1.47198 0
M  V30 471 H 41.9109 1.25465 0.706714 0
M  V30 472 H 43.8639 1.84742 3.78746 0
M  V30 473 H 42.5879 0.766241 3.17484 0
M  V30 474 H 41.2469 2.75859 2.41448 0
M  V30 475 H 40.8949 1.7993 4.69717 0
M  V30 476 H 40.5949 3.55523 4.67843 0
M  V30 477 H 42.1189 2.92104 5.36197 0
M  V30 478 H 43.5329 4.41798 3.65359 0
M  V30 479 H 41.9299 5.07166 3.20785 0
M  V30 480 H 42.9999 4.44329 1.94165 0
M  V30 481 N 44.343 -0.763751 1.37857 0
M  V30 482 C 45.59 -1.52257 1.33506 0
M  V30 483 C 45.918 -1.94343 -0.078022 0
M  V30 484 O 45.173 -1.64958 -1.05297 0
M  V30 485 C 45.472 -2.79499 2.22745 0
M  V30 486 C 45.138 -2.56426 3.70886 0
M  V30 487 C 43.8 -2.49842 4.11257 0
M  V30 488 C 46.152 -2.36008 4.64704 0
M  V30 489 C 43.48 -2.20841 5.43549 0
M  V30 490 C 45.832 -2.0853 5.97242 0
M  V30 491 C 44.496 -2.00396 6.36709 0
M  V30 492 H 43.766 -0.557149 0.488534 0
M  V30 493 H 46.413 -0.879073 1.70131 0
M  V30 494 H 44.718 -3.48447 1.79142 0
M  V30 495 H 46.415 -3.37413 2.16688 0
M  V30 496 H 43.005 -2.62416 3.38874 0
M  V30 497 H 47.189 -2.40079 4.34368 0
M  V30 498 H 42.445 -2.13045 5.73081 0
M  V30 499 H 46.619 -1.91732 6.69486 0
M  V30 500 H 44.246 -1.77688 7.39142 0
M  V30 501 N 45.8211 -1.22559 -0.990812 0
M  V30 502 C 47.2371 -0.985996 -1.255 0
M  V30 503 C 47.4371 0.319173 -1.98956 0
M  V30 504 O 46.4931 1.04127 -2.3003 0
M  V30 505 C 47.8061 -2.18607 -2.06474 0
M  V30 506 C 49.3541 -2.22985 -2.19651 0
M  V30 507 C 49.8291 -3.4255 -3.04012 0
M  V30 508 N 51.3201 -3.42725 -3.11599 0
M  V30 509 C 52.0551 -4.31892 -3.7717 0
M  V30 510 N 51.5511 -5.31279 -4.44651 0
M  V30 511 N 53.3441 -4.19662 -3.73952 0
M  V30 512 H 45.4951 -2.06469 -0.49841 0
M  V30 513 H 47.7581 -0.904853 -0.282747 0
M  V30 514 H 47.4641 -3.13267 -1.59865 0
M  V30 515 H 47.3381 -2.18838 -3.07229 0
M  V30 516 H 49.7251 -1.28871 -2.65474 0
M  V30 517 H 49.8061 -2.26791 -1.18319 0
M  V30 518 H 49.4501 -4.36965 -2.58889 0
M  V30 519 H 49.3801 -3.35984 -4.0549 0
M  V30 520 H 51.8711 -2.70807 -2.63575 0
M  V30 521 H 52.1841 -5.95593 -4.92431 0
M  V30 522 H 50.5291 -5.3519 -4.43392 0
M  V30 523 H 53.7201 -3.41268 -3.20396 0
M  V30 524 H 53.8931 -4.89358 -4.24774 0
M  V30 525 N 47.2992 1.18797 -1.03562 0
M  V30 526 C 48.2622 2.20464 -0.626769 0
M  V30 527 C 49.2622 1.57721 0.313173 0
M  V30 528 O 50.4522 1.73917 0.0992615 0
M  V30 529 C 47.5842 3.40802 0.0818498 0
M  V30 530 H 48.7772 2.58149 -1.5264 0
M  V30 531 H 46.3302 1.32593 -0.827578 0
M  V30 532 H 47.0652 3.08642 0.995518 0
M  V30 533 H 46.8502 3.8758 -0.593652 0
M  V30 534 H 48.3402 4.16092 0.354584 0
M  V30 535 N 48.7773 0.814389 1.34928 0
M  V30 536 C 49.7403 0.235759 2.27984 0
M  V30 537 C 50.7403 -0.581412 1.49921 0
M  V30 538 O 51.9303 -0.398758 1.69575 0
M  V30 539 C 49.0623 -0.670433 3.34242 0
M  V30 540 H 50.2553 1.05659 2.80671 0
M  V30 541 H 47.8083 0.585614 1.44915 0
M  V30 542 H 48.5433 -1.51466 2.86755 0
M  V30 543 H 48.3283 -0.0860822 3.92005 0
M  V30 544 H 49.8183 -1.06935 4.03676 0
M  V30 545 N 50.2554 -1.46986 0.568584 0
M  V30 546 C 51.5014 -2.02741 0.0488709 0
M  V30 547 C 51.8344 -1.44077 -1.30214 0
M  V30 548 O 51.1094 -0.600552 -1.84996 0
M  V30 549 C 51.3924 -3.60086 -0.032047 0
M  V30 550 C 51.2454 -4.29162 1.34686 0
M  V30 551 C 52.5644 -4.33838 -0.739798 0
M  V30 552 H 49.6834 -0.736749 0.0192338 0
M  V30 553 H 52.3254 -1.75289 0.733065 0
M  V30 554 H 50.4754 -3.83606 -0.61473 0
M  V30 555 H 52.1474 -4.16948 1.97362 0
M  V30 556 H 50.3904 -3.89073 1.91846 0
M  V30 557 H 51.0614 -5.37826 1.24285 0
M  V30 558 H 53.5374 -4.15378 -0.244939 0
M  V30 559 H 52.4134 -5.43537 -0.765406 0
M  V30 560 H 52.6744 -4.03875 -1.79827 0
M  V30 561 N 51.7335 -0.305618 -1.54608 0
M  V30 562 C 53.1445 0.186098 -1.8577 0
M  V30 563 C 53.4955 1.53058 -1.22751 0
M  V30 564 O 52.6205 2.09888 -0.526893 0
M  V30 565 C 53.2155 0.344449 -3.37044 0
M  V30 566 C 51.7745 0.780384 -3.68221 0
M  V30 567 C 50.9215 -0.108554 -2.77087 0
M  V30 568 H 53.8725 -0.526485 -1.49712 0
M  V30 569 H 53.8935 1.17828 -3.61796 0
M  V30 570 H 53.4055 -0.634235 -3.82883 0
M  V30 571 H 51.5065 1.76945 -3.27904 0
M  V30 572 H 51.6195 0.596572 -4.75371 0
M  V30 573 H 49.9835 0.412931 -2.5133 0
M  V30 574 H 50.7665 -1.08368 -3.25747 0
M  V30 575 N 53.2116 1.57565 -0.0334293 0
M  V30 576 C 54.4366 1.96689 0.657895 0
M  V30 577 C 54.8616 0.910057 1.64619 0
M  V30 578 O 54.2196 -0.128598 1.80843 0
M  V30 579 C 54.2676 3.34905 1.33683 0
M  V30 580 O 53.3716 3.31574 2.45219 0
M  V30 581 H 52.7126 0.641205 0.172489 0
M  V30 582 H 55.2426 2.04372 -0.0965621 0
M  V30 583 H 55.2526 3.71234 1.69262 0
M  V30 584 H 53.9276 4.11366 0.612411 0
M  V30 585 H 52.5046 3.06968 2.11719 0
M  V30 586 N 54.6897 -0.239769 1.55765 0
M  V30 587 C 55.9377 -0.964892 1.77579 0
M  V30 588 C 56.2587 -1.85582 0.598699 0
M  V30 589 O 55.5287 -1.92075 -0.385226 0
M  V30 590 H 54.1087 -0.359265 0.654933 0
M  V30 591 H 56.7707 -0.256001 1.93211 0
M  V30 592 H 55.8667 -1.58243 2.69009 0
M  V30 593 N 56.1678 -1.49265 -0.50573 0
M  V30 594 C 57.1308 -1.65075 -1.59006 0
M  V30 595 C 58.1308 -0.522768 -1.52065 0
M  V30 596 O 59.3208 -0.789117 -1.55302 0
M  V30 597 C 56.4528 -1.64369 -2.98656 0
M  V30 598 H 57.6458 -2.61784 -1.46319 0
M  V30 599 H 55.1988 -1.38226 -0.729616 0
M  V30 600 H 55.9338 -0.692272 -3.16825 0
M  V30 601 H 55.7188 -2.46282 -3.05103 0
M  V30 602 H 57.2088 -1.78674 -3.77446 0
M  V30 603 N 57.6459 0.756429 -1.3826 0
M  V30 604 C 58.8709 1.55077 -1.37717 0
M  V30 605 C 59.2959 1.88073 0.03164 0
M  V30 606 O 58.6539 1.50364 1.01293 0
M  V30 607 C 58.7019 2.8283 -2.23695 0
M  V30 608 O 57.8059 3.77862 -1.6521 0
M  V30 609 H 57.1469 0.469152 -0.469885 0
M  V30 610 H 59.6769 0.935019 -1.81985 0
M  V30 611 H 59.6869 3.31783 -2.37453 0
M  V30 612 H 58.3619 2.58144 -3.2609 0
M  V30 613 H 56.9389 3.36555 -1.60578 0
M  V30 614 N 59.124 1.23083 0.984299 0
M  V30 615 C 60.352 1.08714 1.76037 0
M  V30 616 C 60.767 -0.361691 1.85303 0
M  V30 617 O 60.124 -1.25034 1.32939 0
M  V30 618 C 60.175 1.70206 3.18923 0
M  V30 619 O 59.896 3.09423 3.10144 0
M  V30 620 C 61.397 1.61227 4.12941 0
M  V30 621 H 58.617 0.380664 0.552572 0
M  V30 622 H 61.161 1.62853 1.23689 0
M  V30 623 H 59.316 1.20109 3.6831 0
M  V30 624 H 59.73 3.39188 4.00065 0
M  V30 625 H 61.204 2.08962 5.10919 0
M  V30 626 H 61.681 0.570375 4.35481 0
M  V30 627 H 62.287 2.10671 3.69456 0
M  V30 628 N 60.6021 -1.18246 1.0419 0
M  V30 629 C 61.8501 -1.87886 0.744543 0
M  V30 630 C 62.1711 -1.8082 -0.730006 0
M  V30 631 O 61.4411 -1.22736 -1.52685 0
M  V30 632 H 60.0211 -0.695556 0.272417 0
M  V30 633 H 62.6831 -1.43494 1.31892 0
M  V30 634 H 61.7791 -2.9389 1.05049 0
M  V30 635 N 62.0802 -0.821533 -1.34494 0
M  V30 636 C 63.3292 -0.405355 -1.97585 0
M  V30 637 C 63.6422 1.03677 -1.65863 0
M  V30 638 O 64.8482 1.55679 -2.22433 0
M  V30 639 C 63.3042 -0.673861 -3.53535 0
M  V30 640 C 62.9122 -2.12951 -3.94152 0
M  V30 641 C 64.6562 -0.32378 -4.23263 0
M  V30 642 C 62.5632 -2.34298 -5.43009 0
M  V30 643 H 61.4932 -0.147836 -0.739365 0
M  V30 644 H 64.1442 -1.00769 -1.53355 0
M  V30 645 H 62.5262 -0.00137554 -3.96 0
M  V30 646 H 63.7002 -2.84104 -3.62797 0
M  V30 647 H 62.0152 -2.44089 -3.37356 0
M  V30 648 H 64.6122 -0.461126 -5.32708 0
M  V30 649 H 64.9552 0.731586 -4.09821 0
M  V30 650 H 65.4882 -0.950786 -3.8627 0
M  V30 651 H 62.2272 -3.38335 -5.61435 0
M  V30 652 H 61.7472 -1.67687 -5.75883 0
M  V30 653 H 63.4262 -2.16588 -6.09671 0
M  V30 654 N 63.5583 1.46682 -0.576371 0
M  V30 655 C 64.7883 2.06498 -0.0648694 0
M  V30 656 C 65.1963 1.42665 1.24271 0
M  V30 657 O 64.5393 0.523886 1.76071 0
M  V30 658 C 64.6013 3.5904 0.181816 0
M  V30 659 C 64.2653 4.45028 -1.0392 0
M  V30 660 C 65.2623 4.81959 -1.94966 0
M  V30 661 C 62.9473 4.86259 -1.25927 0
M  V30 662 C 64.9413 5.58942 -3.06371 0
M  V30 663 C 62.6283 5.63002 -2.37638 0
M  V30 664 C 63.6263 5.99257 -3.2769 0
M  V30 665 O 63.3143 6.7445 -4.37461 0
M  V30 666 H 63.0463 0.674028 -0.0515987 0
M  V30 667 H 65.6003 1.89393 -0.794951 0
M  V30 668 H 63.8303 3.74429 0.966436 0
M  V30 669 H 65.5193 4.00806 0.641047 0
M  V30 670 H 66.2853 4.50689 -1.79177 0
M  V30 671 H 62.1643 4.57494 -0.567448 0
M  V30 672 H 65.7083 5.87158 -3.76684 0
M  V30 673 H 61.6053 5.93686 -2.53392 0
M  V30 674 H 62.3733 6.92867 -4.35749 0
M  V30 675 N 65.0364 0.313813 1.54444 0
M  V30 676 C 65.9464 -0.565714 2.27677 0
M  V30 677 C 66.9624 -1.13754 1.31666 0
M  V30 678 O 68.1384 -1.15959 1.64668 0
M  V30 679 C 65.2034 -1.71528 3.01296 0
M  V30 680 C 64.2644 -1.17624 4.12872 0
M  V30 681 C 63.4974 -2.27102 4.8297 0
M  V30 682 O 63.7204 -3.47256 4.52514 0
M  V30 683 O 62.6544 -1.9307 5.70094 0
M  V30 684 H 66.4804 0.0287296 3.03686 0
M  V30 685 H 64.0654 0.0798312 1.49187 0
M  V30 686 H 65.9474 -2.38476 3.4743 0
M  V30 687 H 64.6224 -2.29608 2.2817 0
M  V30 688 H 63.5294 -0.472124 3.71109 0
M  V30 689 H 64.8624 -0.640695 4.88012 0
M  V30 690 N 66.5145 -1.57545 0.0417849 0
M  V30 691 C 67.4775 -2.09885 -0.92093 0
M  V30 692 C 68.4775 -1.01648 -1.24596 0
M  V30 693 O 69.6675 -1.27759 -1.1842 0
M  V30 694 C 66.7995 -2.57527 -2.23367 0
M  V30 695 H 67.9925 -2.96236 -0.467382 0
M  V30 696 H 65.5455 -1.5493 -0.206467 0
M  V30 697 H 66.2805 -1.74542 -2.73323 0
M  V30 698 H 66.0655 -3.36613 -2.01083 0
M  V30 699 H 67.5555 -2.98201 -2.92346 0
M  V30 700 N 67.9926 0.231505 -1.5589 0
M  V30 701 C 68.9226 1.29022 -1.94617 0
M  V30 702 C 69.9036 1.4941 -0.813067 0
M  V30 703 O 71.0886 1.6176 -1.07459 0
M  V30 704 C 68.2186 2.64199 -2.25424 0
M  V30 705 C 67.1726 2.58484 -3.41131 0
M  V30 706 C 66.4986 3.97599 -3.57518 0
M  V30 707 C 67.7986 2.1413 -4.76388 0
M  V30 708 H 69.4926 0.968563 -2.83301 0
M  V30 709 H 67.0386 0.464479 -1.36303 0
M  V30 710 H 68.9916 3.38413 -2.51107 0
M  V30 711 H 67.7156 2.98032 -1.33583 0
M  V30 712 H 66.3746 1.86727 -3.15481 0
M  V30 713 H 66.0226 4.28723 -2.6307 0
M  V30 714 H 65.7226 3.94659 -4.35337 0
M  V30 715 H 67.2466 4.7349 -3.85538 0
M  V30 716 H 68.6606 2.78083 -5.01341 0
M  V30 717 H 67.0576 2.2227 -5.57419 0
M  V30 718 H 68.1276 1.09331 -4.72414 0
M  V30 719 N 69.4707 1.49531 0.497807 0
M  V30 720 C 70.3807 1.69176 1.62532 0
M  V30 721 C 71.3967 0.5744 1.64246 0
M  V30 722 O 72.5727 0.849497 1.82608 0
M  V30 723 C 69.6377 1.75695 2.98885 0
M  V30 724 C 68.6987 2.9929 3.07773 0
M  V30 725 C 67.9317 3.05488 4.37622 0
M  V30 726 O 68.1547 2.19192 5.26603 0
M  V30 727 O 67.0887 3.9798 4.51548 0
M  V30 728 H 70.9147 2.647 1.48887 0
M  V30 729 H 68.4997 1.3331 0.674441 0
M  V30 730 H 70.3817 1.82317 3.79919 0
M  V30 731 H 69.0567 0.8335 3.12785 0
M  V30 732 H 67.9637 2.98183 2.25915 0
M  V30 733 H 69.2967 3.91125 2.98801 0
M  V30 734 N 70.9488 -0.749086 1.3866 0
M  V30 735 C 71.8788 -1.8764 1.38973 0
M  V30 736 C 72.8598 -1.68178 0.255004 0
M  V30 737 O 74.0448 -1.88704 0.458754 0
M  V30 738 C 71.1748 -3.25222 1.21851 0
M  V30 739 C 70.1288 -3.59295 2.32575 0
M  V30 740 C 69.4548 -4.95663 2.00555 0
M  V30 741 C 70.7548 -3.63709 3.7485 0
M  V30 742 H 72.4488 -1.87635 2.3331 0
M  V30 743 H 69.9948 -0.901329 1.12303 0
M  V30 744 H 71.9478 -4.03746 1.20695 0
M  V30 745 H 70.6718 -3.25719 0.239775 0
M  V30 746 H 69.3308 -2.83093 2.32925 0
M  V30 747 H 68.9788 -4.92724 1.01154 0
M  V30 748 H 68.6788 -5.19429 2.74714 0
M  V30 749 H 70.2028 -5.7656 2.01024 0
M  V30 750 H 71.6168 -4.32338 3.76506 0
M  V30 751 H 70.0138 -3.98986 4.48252 0
M  V30 752 H 71.0838 -2.63834 4.06841 0
M  V30 753 N 72.4269 -1.23603 -0.977757 0
M  V30 754 C 73.8429 -0.999251 -1.24447 0
M  V30 755 C 74.0429 0.298053 -1.99283 0
M  V30 756 O 73.0989 1.01681 -2.31122 0
M  V30 757 C 74.4119 -2.20784 -2.04144 0
M  V30 758 C 75.9599 -2.25303 -2.17273 0
M  V30 759 C 76.4349 -3.45755 -3.00362 0
M  V30 760 N 77.9259 -3.4601 -3.07947 0
M  V30 761 C 78.6609 -4.35868 -3.72568 0
M  V30 762 N 78.1569 -5.35966 -4.38991 0
M  V30 763 N 79.9499 -4.23605 -3.6948 0
M  V30 764 H 72.1009 -2.06986 -0.476483 0
M  V30 765 H 74.3639 -0.907801 -0.273134 0
M  V30 766 H 74.0699 -3.14945 -1.56533 0
M  V30 767 H 73.9439 -2.22085 -3.04891 0
M  V30 768 H 76.3309 -1.3168 -2.64092 0
M  V30 769 H 76.4119 -2.28033 -1.15907 0
M  V30 770 H 76.0559 -4.39687 -2.5424 0
M  V30 771 H 75.9859 -3.40266 -4.01904 0
M  V30 772 H 78.4769 -2.73588 -2.60688 0
M  V30 773 H 78.7899 -6.00783 -4.86086 0
M  V30 774 H 77.1349 -5.39863 -4.37691 0
M  V30 775 H 80.3259 -3.44647 -3.16759 0
M  V30 776 H 80.4989 -4.93836 -4.1956 0
M  V30 777 N 73.905 1.17692 -1.04816 0
M  V30 778 C 75.182 1.83768 -0.669963 0
M  V30 779 C 75.562 1.93232 0.849986 0
M  V30 780 O 74.91 1.46397 1.75443 0
M  V30 781 C 75.12 3.21641 -1.35455 0
M  V30 782 C 76.468 3.97592 -1.49017 0
M  V30 783 O 77.492 3.31107 -1.31326 0
M  V30 784 O 76.351 5.16729 -1.77914 0
M  V30 785 H 73.445 0.792799 -0.235368 0
M  V30 786 H 75.991 1.25021 -1.14751 0
M  V30 787 H 74.763 3.097 -2.39168 0
M  V30 788 H 74.386 3.88052 -0.866107 0
M  V30 789 N 75.3831 0.828654 1.34056 0
M  V30 790 C 76.3311 0.242973 2.31327 0
M  V30 791 C 77.3251 -0.61944 1.57668 0
M  V30 792 O 78.5311 -0.51014 1.7262 0
M  V30 793 H 74.9061 0.059834 0.749616 0
M  V30 794 H 76.8771 1.07809 2.78244 0
M  V30 795 C 75.6261 -0.575733 3.429 0
M  V30 796 H 74.9491 0.0785582 3.99723 0
M  V30 797 H 76.3891 -0.951547 4.13185 0
M  V30 798 C 74.8481 -1.75044 2.87856 0
M  V30 799 O 75.3781 -2.84882 2.83205 0
M  V30 800 N 73.5841 -1.56903 2.44602 0
M  V30 801 H 73.1311 -0.675547 2.48584 0
M  V30 802 H 73.0891 -2.35652 2.08124 0
M  V30 803 N 76.8612 -1.46375 0.584142 0
M  V30 804 C 78.1382 -1.956 0.0033388 0
M  V30 805 C 78.5182 -1.52679 -1.45782 0
M  V30 806 O 77.8662 -0.77816 -2.14842 0
M  V30 807 C 78.0762 -3.48551 0.176891 0
M  V30 808 C 79.4242 -4.24576 0.0454609 0
M  V30 809 O 80.4482 -3.56043 0.105801 0
M  V30 810 O 79.3072 -5.46427 -0.0890376 0
M  V30 811 H 76.4012 -0.825547 -0.0490066 0
M  V30 812 H 78.9472 -1.56652 0.65256 0
M  V30 813 H 77.7192 -3.72683 1.1926 0
M  V30 814 H 77.3422 -3.94332 -0.508695 0
M  V30 815 N 78.3393 -0.321999 -1.54275 0
M  V30 816 C 79.2863 0.544664 -2.24281 0
M  V30 817 C 80.2563 1.1129 -1.23303 0
M  V30 818 O 81.4413 1.15354 -1.51981 0
M  V30 819 C 78.5813 1.70045 -3.00298 0
M  V30 820 C 77.6943 1.16159 -4.1609 0
M  V30 821 C 76.8293 2.28293 -4.79641 0
M  V30 822 C 75.8683 1.71648 -5.8754 0
M  V30 823 N 75.0053 2.77438 -6.44959 0
M  V30 824 H 79.8453 -0.0588907 -2.97942 0
M  V30 825 H 77.3823 -0.0408345 -1.47043 0
M  V30 826 H 79.3403 2.38054 -3.42616 0
M  V30 827 H 77.9703 2.27531 -2.28975 0
M  V30 828 H 77.0223 0.373092 -3.78566 0
M  V30 829 H 78.3343 0.707087 -4.93763 0
M  V30 830 H 77.4883 3.0421 -5.2492 0
M  V30 831 H 76.2273 2.77079 -4.01346 0
M  V30 832 H 75.2323 0.942282 -5.41665 0
M  V30 833 H 76.4573 1.23741 -6.67731 0
M  V30 834 H 74.4033 3.25519 -5.69538 0
M  V30 835 H 74.3203 2.36547 -7.1804 0
M  V30 836 H 75.5883 3.53189 -6.94894 0
M  V30 837 N 79.8174 1.5752 -0.0501392 0
M  V30 838 C 81.0454 1.96963 0.633492 0
M  V30 839 C 81.4604 0.927631 1.6444 0
M  V30 840 O 80.8174 -0.0882665 1.82286 0
M  V30 841 C 80.8684 3.36487 1.32132 0
M  V30 842 O 80.5894 4.36693 0.350894 0
M  V30 843 C 82.0904 3.90682 2.09481 0
M  V30 844 H 79.3104 0.648244 0.173266 0
M  V30 845 H 81.8544 2.0417 -0.116134 0
M  V30 846 H 80.0094 3.30434 2.02218 0
M  V30 847 H 80.4234 5.17702 0.841735 0
M  V30 848 H 81.8974 4.90591 2.5303 0
M  V30 849 H 82.3744 3.26053 2.94255 0
M  V30 850 H 82.9804 4.00069 1.44307 0
M  V30 851 N 81.2955 -0.223234 1.56011 0
M  V30 852 C 82.7115 -0.572856 1.48965 0
M  V30 853 C 82.9115 -1.87225 0.74492 0
M  V30 854 O 81.9675 -2.50899 0.283896 0
M  V30 855 C 83.2805 -0.653646 2.9351 0
M  V30 856 C 84.8285 -0.744386 3.0402 0
M  V30 857 C 85.3035 -0.856535 4.49919 0
M  V30 858 N 86.7945 -0.9208 4.53955 0
M  V30 859 C 87.5295 -1.02726 5.64123 0
M  V30 860 N 87.0255 -1.09777 6.84047 0
M  V30 861 N 88.8185 -1.06226 5.51971 0
M  V30 862 H 80.9695 0.629462 2.02858 0
M  V30 863 H 83.2325 0.220621 0.921971 0
M  V30 864 H 82.9385 0.231518 3.50937 0
M  V30 865 H 82.8125 -1.51781 3.45315 0
M  V30 866 H 85.1995 -1.61999 2.46658 0
M  V30 867 H 85.2805 0.14541 2.55386 0
M  V30 868 H 84.9245 0.0146069 5.07898 0
M  V30 869 H 84.8545 -1.76172 4.96257 0
M  V30 870 H 87.3455 -0.876694 3.6759 0
M  V30 871 H 87.6585 -1.17872 7.63758 0
M  V30 872 H 86.0035 -1.06693 6.86762 0
M  V30 873 H 89.1945 -1.00382 4.5721 0
M  V30 874 H 89.3675 -1.14177 6.37862 0
M  V30 875 N 82.7736 -1.49793 -0.48987 0
M  V30 876 C 84.0036 -1.6333 -1.26518 0
M  V30 877 C 84.4116 -0.308392 -1.8667 0
M  V30 878 O 83.7546 0.717512 -1.69108 0
M  V30 879 C 83.8166 -2.6522 -2.4269 0
M  V30 880 C 83.4806 -4.09279 -2.03321 0
M  V30 881 C 84.4776 -4.95738 -1.56652 0
M  V30 882 C 82.1626 -4.55082 -2.12616 0
M  V30 883 C 84.1566 -6.26041 -1.19795 0
M  V30 884 C 81.8436 -5.85396 -1.75371 0
M  V30 885 C 82.8416 -6.707 -1.29036 0
M  V30 886 O 82.5296 -7.98584 -0.92299 0
M  V30 887 H 82.2616 -0.552502 -0.389509 0
M  V30 888 H 84.8156 -1.96642 -0.593381 0
M  V30 889 H 83.0456 -2.27112 -3.12981 0
M  V30 890 H 84.7346 -2.68171 -3.04695 0
M  V30 891 H 85.5006 -4.61575 -1.48908 0
M  V30 892 H 81.3796 -3.88844 -2.47631 0
M  V30 893 H 84.9236 -6.92578 -0.835582 0
M  V30 894 H 80.8206 -6.19085 -1.82768 0
M  V30 895 H 81.5886 -8.11692 -1.05349 0
M  V30 896 N 84.2517 0.741722 -1.39055 0
M  V30 897 C 85.1847 1.86416 -1.31622 0
M  V30 898 C 86.1627 1.61473 -0.191076 0
M  V30 899 O 87.3467 1.84825 -0.370399 0
M  V30 900 C 84.4737 3.22266 -1.04221 0
M  V30 901 C 83.5197 3.66079 -2.18834 0
M  V30 902 S 84.3527 3.7623 -3.81066 0
M  V30 903 C 85.5087 5.14881 -3.55877 0
M  V30 904 H 85.7417 1.92437 -2.26617 0
M  V30 905 H 83.2747 0.905907 -1.25031 0
M  V30 906 H 85.2327 4.00714 -0.890964 0
M  V30 907 H 83.8937 3.1391 -0.109237 0
M  V30 908 H 83.0867 4.64648 -1.95238 0
M  V30 909 H 82.6887 2.94817 -2.30128 0
M  V30 910 H 84.9807 6.01006 -3.12726 0
M  V30 911 H 85.9237 5.43503 -4.53884 0
M  V30 912 H 86.3317 4.84239 -2.90126 0
M  V30 913 N 85.7298 1.2412 0.971189 0
M  V30 914 C 86.9778 1.07668 1.71032 0
M  V30 915 C 87.2988 -0.385797 1.91146 0
M  V30 916 O 86.5688 -1.27569 1.4867 0
M  V30 917 H 85.1488 0.395429 0.633755 0
M  V30 918 H 87.8108 1.55984 1.16855 0
M  V30 919 H 86.9068 1.57195 2.69622 0
M  V30 920 N 87.2079 -1.17134 1.05439 0
M  V30 921 C 88.1549 -2.21235 0.657539 0
M  V30 922 C 89.1249 -1.62551 -0.341543 0
M  V30 923 O 90.3099 -1.89379 -0.232393 0
M  V30 924 C 87.4499 -3.45076 0.0410575 0
M  V30 925 C 86.5629 -4.18042 1.08927 0
M  V30 926 C 85.6979 -5.29376 0.439848 0
M  V30 927 C 84.7369 -5.94132 1.4722 0
M  V30 928 N 83.8739 -6.96975 0.846756 0
M  V30 929 H 88.7139 -2.54534 1.54972 0
M  V30 930 H 86.2509 -1.25028 0.775006 0
M  V30 931 H 88.2089 -4.15862 -0.33383 0
M  V30 932 H 86.8389 -3.12353 -0.814568 0
M  V30 933 H 85.8909 -3.45945 1.58196 0
M  V30 934 H 87.2029 -4.62306 1.87282 0
M  V30 935 H 86.3569 -6.06699 0.0115125 0
M  V30 936 H 85.0959 -4.86251 -0.375656 0
M  V30 937 H 84.1009 -5.15538 1.91052 0
M  V30 938 H 85.3259 -6.39337 2.28965 0
M  V30 939 H 83.2719 -6.5598 0.0518075 0
M  V30 940 H 83.1889 -7.39565 1.5678 0
M  V30 941 H 84.4569 -7.78239 0.443277 0
M  V30 942 N 88.686 -0.835752 -1.33615 0
M  V30 943 C 89.934 -0.429109 -1.97492 0
M  V30 944 C 90.255 1.01433 -1.66543 0
M  V30 945 O 89.525 1.70611 -0.962744 0
M  V30 946 H 88.105 -0.155686 -0.730596 0
M  V30 947 H 90.767 -1.06802 -1.63031 0
M  V30 948 H 89.863 -0.55861 -3.0706 0
M  V30 949 N 90.1641 1.46063 -0.591896 0
M  V30 950 C 91.4101 2.02638 -0.0811191 0
M  V30 951 C 91.7431 1.4613 1.27905 0
M  V30 952 O 91.0181 0.629908 1.84017 0
M  V30 953 C 91.3011 3.60091 -0.0252436 0
M  V30 954 C 91.1541 4.26965 -1.41496 0
M  V30 955 C 92.4731 4.3496 0.670685 0
M  V30 956 H 89.5921 0.73635 -0.0309524 0
M  V30 957 H 92.2341 1.741 -0.760859 0
M  V30 958 H 90.3841 3.84535 0.553624 0
M  V30 959 H 92.0561 4.13756 -2.0397 0
M  V30 960 H 90.2991 3.85971 -1.98011 0
M  V30 961 H 90.9701 5.35781 -1.32825 0
M  V30 962 H 93.4461 4.15716 0.178825 0
M  V30 963 H 92.3221 5.44686 0.678837 0
M  V30 964 H 92.5831 4.06685 1.73379 0
M  V30 965 N 91.6422 0.330177 1.54103 0
M  V30 966 C 92.8672 -0.274893 2.0557 0
M  V30 967 C 93.2922 -1.44487 1.20437 0
M  V30 968 O 92.6502 -1.80021 0.214991 0
M  V30 969 C 92.6982 -0.68079 3.54115 0
M  V30 970 O 91.8022 -1.7824 3.71893 0
M  V30 971 H 91.1432 -0.0483849 0.662235 0
M  V30 972 H 93.6732 0.480508 1.98878 0
M  V30 973 H 93.6832 -0.961635 3.96505 0
M  V30 974 H 92.3582 0.174903 4.15532 0
M  V30 975 H 90.9352 -1.49985 3.41407 0
M  V30 976 N 93.1203 -1.57491 0.0584922 0
M  V30 977 C 94.0673 -2.11958 -0.913376 0
M  V30 978 C 95.0373 -1.02875 -1.30407 0
M  V30 979 O 96.2223 -1.30464 -1.39226 0
M  V30 980 C 93.3623 -2.67497 -2.18035 0
M  V30 981 C 92.4753 -3.90691 -1.84349 0
M  V30 982 C 91.6103 -4.3452 -3.05559 0
M  V30 983 C 90.6493 -5.50395 -2.67827 0
M  V30 984 N 89.7863 -5.89244 -3.81754 0
M  V30 985 H 94.6263 -2.94704 -0.442017 0
M  V30 986 H 92.1633 -1.45643 -0.206545 0
M  V30 987 H 94.1213 -2.978 -2.92183 0
M  V30 988 H 92.7513 -1.87537 -2.62735 0
M  V30 989 H 91.8033 -3.66934 -1.00319 0
M  V30 990 H 93.1153 -4.7489 -1.5258 0
M  V30 991 H 92.2693 -4.66414 -3.87998 0
M  V30 992 H 91.0083 -3.49147 -3.40511 0
M  V30 993 H 90.0133 -5.18165 -1.83806 0
M  V30 994 H 91.2383 -6.3749 -2.34059 0
M  V30 995 H 89.1843 -5.06823 -4.16493 0
M  V30 996 H 89.1013 -6.68151 -3.53708 0
M  V30 997 H 90.3693 -6.25756 -4.64811 0
M  V30 998 N 94.5984 0.214957 -1.56127 0
M  V30 999 C 95.5614 1.24997 -1.92116 0
M  V30 1000 C 96.5614 1.39467 -0.800344 0
M  V30 1001 O 97.7514 1.37619 -1.06802 0
M  V30 1002 C 94.8834 2.62271 -2.17777 0
M  V30 1003 H 96.0764 0.942875 -2.84693 0
M  V30 1004 H 93.6294 0.455654 -1.49511 0
M  V30 1005 H 94.3644 2.98068 -1.27773 0
M  V30 1006 H 94.1494 2.53143 -2.99434 0
M  V30 1007 H 95.6394 3.36946 -2.46693 0
M  V30 1008 N 96.0765 1.50051 0.48192 0
M  V30 1009 C 97.3225 1.60736 1.2366 0
M  V30 1010 C 97.6555 0.301786 1.91841 0
M  V30 1011 O 96.9305 -0.696025 1.8162 0
M  V30 1012 C 97.2135 2.78009 2.28874 0
M  V30 1013 C 97.0665 4.18416 1.65069 0
M  V30 1014 C 98.3855 2.90867 3.30279 0
M  V30 1015 H 95.5045 0.585031 0.448228 0
M  V30 1016 H 98.1465 1.82402 0.531946 0
M  V30 1017 H 96.2965 2.59667 2.88973 0
M  V30 1018 H 97.9685 4.48322 1.0865 0
M  V30 1019 H 96.2115 4.23177 0.954148 0
M  V30 1020 H 96.8825 4.96381 2.41474 0
M  V30 1021 H 99.3585 3.07623 2.80191 0
M  V30 1022 H 98.2345 3.74566 4.01238 0
M  V30 1023 H 98.4955 2.01021 3.93755 0
M  V30 1024 N 97.5546 -0.734337 1.39446 0
M  V30 1025 C 98.4646 -1.87879 1.40495 0
M  V30 1026 C 99.4806 -1.714 0.299672 0
M  V30 1027 O 100.657 -1.93991 0.541249 0
M  V30 1028 C 97.7216 -3.23477 1.24754 0
M  V30 1029 C 96.7826 -3.52344 2.45259 0
M  V30 1030 C 96.0156 -4.81473 2.30259 0
M  V30 1031 O 96.2386 -5.55237 1.30643 0
M  V30 1032 O 95.1726 -5.10254 3.19256 0
M  V30 1033 H 98.9986 -1.89949 2.36966 0
M  V30 1034 H 96.5836 -0.882243 1.20569 0
M  V30 1035 H 98.4656 -4.04509 1.18111 0
M  V30 1036 H 97.1406 -3.22176 0.313781 0
M  V30 1037 H 96.0476 -2.71396 2.57478 0
M  V30 1038 H 97.3806 -3.58426 3.37331 0
M  V30 1039 N 99.0327 -1.24633 -0.964593 0
M  V30 1040 C 99.9827 -1.00841 -2.04487 0
M  V30 1041 C 100.967 0.0512468 -1.60818 0
M  V30 1042 O 102.159 -0.162865 -1.76249 0
M  V30 1043 C 99.2877 -0.618474 -3.37683 0
M  V30 1044 C 98.3737 -1.71437 -3.87905 0
M  V30 1045 N 98.7647 -2.9477 -4.11029 0
M  V30 1046 C 97.0627 -1.5926 -4.16596 0
M  V30 1047 C 97.7637 -3.65834 -4.52261 0
M  V30 1048 N 96.7397 -2.9341 -4.57615 0
M  V30 1049 H 100.542 -1.94487 -2.20345 0
M  V30 1050 H 98.0557 -1.14805 -1.14863 0
M  V30 1051 H 100.053 -0.429247 -4.14684 0
M  V30 1052 H 98.7127 0.310766 -3.23209 0
M  V30 1053 H 99.7237 -3.30917 -3.9839 0
M  V30 1054 H 96.4007 -0.731606 -4.1104 0
M  V30 1055 H 97.7907 -4.71646 -4.78539 0
M  V30 1056 N 100.511 1.16574 -1.06058 0
M  V30 1057 C 101.76 1.86385 -0.770944 0
M  V30 1058 C 102.073 1.82448 0.705129 0
M  V30 1059 O 103.279 2.47815 1.10905 0
M  V30 1060 C 101.735 3.34466 -1.32893 0
M  V30 1061 C 101.343 3.46883 -2.83507 0
M  V30 1062 C 103.087 4.09548 -1.11672 0
M  V30 1063 C 100.994 4.89036 -3.32562 0
M  V30 1064 H 99.9238 0.698181 -0.284709 0
M  V30 1065 H 102.575 1.31583 -1.27899 0
M  V30 1066 H 100.957 3.88859 -0.748662 0
M  V30 1067 H 102.131 3.02663 -3.47465 0
M  V30 1068 H 100.446 2.85232 -3.03368 0
M  V30 1069 H 103.043 5.14434 -1.45814 0
M  V30 1070 H 103.386 4.16264 -0.0549535 0
M  V30 1071 H 103.919 3.61387 -1.66265 0
M  V30 1072 H 100.658 4.87499 -4.38207 0
M  V30 1073 H 100.178 5.3389 -2.73351 0
M  V30 1074 H 101.857 5.57843 -3.2775 0
M  V30 1075 N 101.989 0.842826 1.3317 0
M  V30 1076 C 102.937 0.267495 2.31057 0
M  V30 1077 C 103.931 -0.602682 1.58316 0
M  V30 1078 O 105.137 -0.491803 1.73151 0
M  V30 1079 H 101.512 0.0677813 0.748939 0
M  V30 1080 H 103.483 1.10754 2.77085 0
M  V30 1081 C 102.232 -0.539331 3.43492 0
M  V30 1082 H 101.555 0.12095 3.99617 0
M  V30 1083 H 102.995 -0.90767 4.14171 0
M  V30 1084 C 101.454 -1.71981 2.89697 0
M  V30 1085 O 101.984 -2.81862 2.86211 0
M  V30 1086 N 100.19 -1.54299 2.46252 0
M  V30 1087 H 99.7369 -0.649143 2.49287 0
M  V30 1088 H 99.6949 -2.33431 2.10612 0
M  V30 1089 N 103.467 -1.45747 0.599634 0
M  V30 1090 C 104.414 -2.30467 -0.123849 0
M  V30 1091 C 105.384 -1.41632 -0.86774 0
M  V30 1092 O 106.569 -1.70568 -0.855056 0
M  V30 1093 C 103.709 -3.26402 -1.12051 0
M  V30 1094 C 102.822 -4.3034 -0.37832 0
M  V30 1095 C 101.957 -5.13389 -1.364 0
M  V30 1096 C 100.996 -6.09061 -0.609171 0
M  V30 1097 N 100.133 -6.84918 -1.54374 0
M  V30 1098 H 104.973 -2.91802 0.604627 0
M  V30 1099 H 102.51 -1.43797 0.309972 0
M  V30 1100 H 104.468 -3.80482 -1.7114 0
M  V30 1101 H 103.098 -2.66839 -1.8165 0
M  V30 1102 H 102.15 -3.78984 0.327929 0
M  V30 1103 H 103.462 -4.98354 0.210997 0
M  V30 1104 H 102.616 -5.7183 -2.02719 0
M  V30 1105 H 101.355 -4.45376 -1.98725 0
M  V30 1106 H 100.36 -5.49758 0.0676979 0
M  V30 1107 H 101.585 -6.79099 0.00891991 0
M  V30 1108 H 99.531 -6.19601 -2.15478 0
M  V30 1109 H 99.448 -7.49254 -1.00766 0
M  V30 1110 H 100.716 -7.47906 -2.19676 0
M  V30 1111 N 104.945 -0.338344 -1.53925 0
M  V30 1112 C 106.173 0.261298 -2.05243 0
M  V30 1113 C 106.588 1.44625 -1.21363 0
M  V30 1114 O 105.945 1.80811 -0.247736 0
M  V30 1115 C 105.996 0.681412 -3.5502 0
M  V30 1116 O 105.717 -0.456414 -4.35716 0
M  V30 1117 C 107.218 1.34232 -4.22489 0
M  V30 1118 H 104.438 0.0513685 -0.669031 0
M  V30 1119 H 106.982 -0.488822 -1.98572 0
M  V30 1120 H 105.137 1.38148 -3.61931 0
M  V30 1121 H 105.551 -0.122564 -5.24357 0
M  V30 1122 H 107.025 1.58708 -5.28693 0
M  V30 1123 H 107.502 2.29426 -3.74514 0
M  V30 1124 H 108.108 0.684424 -4.19757 0
M  V30 1125 N 106.423 1.57458 -0.0668435 0
M  V30 1126 C 107.672 1.92477 0.602947 0
M  V30 1127 C 107.985 0.948419 1.71068 0
M  V30 1128 O 109.191 1.19124 2.43971 0
M  V30 1129 C 107.647 3.41903 1.12383 0
M  V30 1130 C 107.255 4.47975 0.04737 0
M  V30 1131 C 108.999 3.85931 1.76797 0
M  V30 1132 C 106.906 5.88529 0.582022 0
M  V30 1133 H 105.836 0.718387 0.22899 0
M  V30 1134 H 108.487 1.82978 -0.138276 0
M  V30 1135 H 106.869 3.46459 1.91787 0
M  V30 1136 H 108.043 4.55029 -0.726978 0
M  V30 1137 H 106.358 4.13384 -0.500243 0
M  V30 1138 H 108.955 4.88322 2.17821 0
M  V30 1139 H 109.298 3.23029 2.62599 0
M  V30 1140 H 109.831 3.83958 1.04024 0
M  V30 1141 H 106.57 6.55065 -0.238721 0
M  V30 1142 H 106.09 5.85004 1.324 0
M  V30 1143 H 107.769 6.38258 1.05999 0
M  V30 1144 N 107.901 -0.206675 1.56239 0
M  V30 1145 C 108.864 -1.23976 1.92776 0
M  V30 1146 C 109.864 -1.39041 0.807729 0
M  V30 1147 O 111.054 -1.37051 1.0753 0
M  V30 1148 C 108.186 -2.61112 2.19165 0
M  V30 1149 H 109.379 -0.927764 2.85189 0
M  V30 1150 H 106.932 -0.447718 1.4975 0
M  V30 1151 H 107.667 -2.97386 1.29352 0
M  V30 1152 H 107.452 -2.51552 3.00772 0
M  V30 1153 H 108.942 -3.35633 2.48476 0
M  V30 1154 N 109.379 -1.50304 -0.473955 0
M  V30 1155 C 110.79 -1.54042 -1.0549 0
M  V30 1156 C 111.141 -0.342248 -1.93192 0
M  V30 1157 O 110.266 0.545157 -2.09421 0
M  V30 1158 C 110.861 -2.79152 -1.91989 0
M  V30 1159 C 109.42 -2.8558 -2.45196 0
M  V30 1160 C 108.567 -2.48295 -1.2347 0
M  V30 1161 H 111.518 -1.5661 -0.256693 0
M  V30 1162 H 111.539 -2.60845 -2.7702 0
M  V30 1163 H 111.051 -3.66339 -1.28131 0
M  V30 1164 H 109.152 -2.02738 -3.12615 0
M  V30 1165 H 109.265 -3.88403 -2.80499 0
M  V30 1166 H 107.629 -2.00669 -1.56856 0
M  V30 1167 H 108.412 -3.37787 -0.612789 0
M  V30 1168 N 110.857 0.726932 -1.39834 0
M  V30 1169 C 111.82 1.82269 -1.38962 0
M  V30 1170 C 112.82 1.58248 -0.285334 0
M  V30 1171 O 114.01 1.65499 -0.54366 0
M  V30 1172 C 111.142 3.20186 -1.17019 0
M  V30 1173 H 112.335 1.84443 -2.36476 0
M  V30 1174 H 109.888 0.931416 -1.25516 0
M  V30 1175 H 110.623 3.23669 -0.202204 0
M  V30 1176 H 110.408 3.3902 -1.96998 0
M  V30 1177 H 111.898 4.00235 -1.1917 0
M  V30 1178 N 112.336 1.25143 0.95797 0
M  V30 1179 C 113.266 1.07711 2.07173 0
M  V30 1180 C 114.247 -0.0128462 1.70095 0
M  V30 1181 O 115.432 0.156061 1.93572 0
M  V30 1182 C 112.562 0.691503 3.40346 0
M  V30 1183 C 111.516 1.73132 3.9142 0
M  V30 1184 C 110.842 1.20049 5.21049 0
M  V30 1185 C 112.142 3.1294 4.1817 0
M  V30 1186 H 113.836 2.00873 2.22014 0
M  V30 1187 H 111.382 0.967191 1.06684 0
M  V30 1188 H 113.335 0.556505 4.17709 0
M  V30 1189 H 112.059 -0.275819 3.25433 0
M  V30 1190 H 110.718 1.8547 3.16222 0
M  V30 1191 H 110.366 0.223499 5.02503 0
M  V30 1192 H 110.066 1.89545 5.56189 0
M  V30 1193 H 111.59 1.07782 6.01012 0
M  V30 1194 H 113.004 3.03775 4.86203 0
M  V30 1195 H 111.401 3.79875 4.64559 0
M  V30 1196 H 112.471 3.6025 3.24573 0
M  V30 1197 N 113.814 -1.1601 1.06675 0
M  V30 1198 C 115.06 -1.86909 0.786945 0
M  V30 1199 C 115.393 -1.81717 -0.685018 0
M  V30 1200 O 114.668 -1.23551 -1.50218 0
M  V30 1201 C 114.951 -3.36313 1.28707 0
M  V30 1202 C 114.804 -3.50175 2.82308 0
M  V30 1203 C 116.123 -4.3084 0.898071 0
M  V30 1204 H 113.242 -0.678677 0.287343 0
M  V30 1205 H 115.884 -1.36336 1.32334 0
M  V30 1206 H 114.034 -3.79513 0.830768 0
M  V30 1207 H 115.706 -3.15886 3.36175 0
M  V30 1208 H 113.949 -2.91959 3.20847 0
M  V30 1209 H 114.62 -4.55116 3.12368 0
M  V30 1210 H 117.096 -3.95561 1.29114 0
M  V30 1211 H 115.972 -5.33876 1.27543 0
M  V30 1212 H 116.233 -4.41662 -0.196651 0
M  V30 1213 N 115.292 -0.849877 -1.32721 0
M  V30 1214 C 116.517 -0.463856 -2.02146 0
M  V30 1215 C 116.942 0.930449 -1.63476 0
M  V30 1216 O 116.3 1.61033 -0.832952 0
M  V30 1217 C 116.348 -0.604955 -3.55489 0
M  V30 1218 O 115.452 0.36425 -4.10788 0
M  V30 1219 H 114.793 -0.187046 -0.637111 0
M  V30 1220 H 117.323 -1.14775 -1.69375 0
M  V30 1221 H 117.333 -0.490696 -4.05038 0
M  V30 1222 H 116.008 -1.62174 -3.82978 0
M  V30 1223 H 114.585 0.206628 -3.72327 0
M  V30 1224 N 116.77 1.45427 -0.607355 0
M  V30 1225 C 117.717 2.3053 0.111625 0
M  V30 1226 C 118.687 1.4209 0.860216 0
M  V30 1227 O 119.872 1.71019 0.845998 0
M  V30 1228 C 117.012 3.26992 1.10319 0
M  V30 1229 C 116.125 4.30535 0.355493 0
M  V30 1230 C 115.26 5.14105 1.33676 0
M  V30 1231 C 114.299 6.09376 0.576862 0
M  V30 1232 N 113.436 6.85727 1.5074 0
M  V30 1233 H 118.276 2.91477 -0.620093 0
M  V30 1234 H 115.813 1.43631 -0.317594 0
M  V30 1235 H 117.771 3.81385 1.6912 0
M  V30 1236 H 116.401 2.67799 1.80232 0
M  V30 1237 H 115.453 3.78805 -0.348023 0
M  V30 1238 H 116.765 4.98235 -0.237423 0
M  V30 1239 H 115.919 5.72897 1.99684 0
M  V30 1240 H 114.658 4.46423 1.9636 0
M  V30 1241 H 113.663 5.49715 -0.0968519 0
M  V30 1242 H 114.888 6.79085 -0.0449341 0
M  V30 1243 H 112.834 6.20735 2.12189 0
M  V30 1244 H 112.751 7.49778 0.967913 0
M  V30 1245 H 114.019 7.4906 2.15706 0
M  V30 1246 N 118.248 0.346503 1.53744 0
M  V30 1247 C 119.195 -0.508914 2.25119 0
M  V30 1248 C 120.165 -1.09315 1.25058 0
M  V30 1249 O 121.35 -1.12921 1.53797 0
M  V30 1250 C 118.49 -1.65246 3.02965 0
M  V30 1251 C 117.603 -1.09525 4.17886 0
M  V30 1252 C 116.738 -2.20634 4.83212 0
M  V30 1253 C 115.777 -1.62279 5.90196 0
M  V30 1254 N 114.914 -2.67143 6.49291 0
M  V30 1255 H 119.754 0.106283 2.9781 0
M  V30 1256 H 117.291 0.0642227 1.4696 0
M  V30 1257 H 119.249 -2.32574 3.4636 0
M  V30 1258 H 117.879 -2.2386 2.32565 0
M  V30 1259 H 116.931 -0.312818 3.79112 0
M  V30 1260 H 118.243 -0.628444 4.94825 0
M  V30 1261 H 117.397 -2.95821 5.29693 0
M  V30 1262 H 116.136 -2.70659 4.05703 0
M  V30 1263 H 115.141 -0.855989 5.43096 0
M  V30 1264 H 116.366 -1.13102 6.69615 0
M  V30 1265 H 114.312 -3.16417 5.74645 0
M  V30 1266 H 114.229 -2.25093 7.21713 0
M  V30 1267 H 115.497 -3.4209 7.00425 0
M  V30 1268 N 119.726 -1.57421 0.075193 0
M  V30 1269 C 120.656 -2.15942 -0.888324 0
M  V30 1270 C 121.637 -1.08737 -1.30806 0
M  V30 1271 O 122.822 -1.36787 -1.37851 0
M  V30 1272 C 119.952 -2.72379 -2.1547 0
M  V30 1273 C 118.906 -3.8478 -1.87425 0
M  V30 1274 C 118.232 -4.27834 -3.20721 0
M  V30 1275 C 119.532 -5.08869 -1.17684 0
M  V30 1276 H 121.226 -2.96705 -0.400799 0
M  V30 1277 H 118.772 -1.42723 -0.191342 0
M  V30 1278 H 120.725 -3.11965 -2.83295 0
M  V30 1279 H 119.449 -1.88841 -2.6647 0
M  V30 1280 H 118.108 -3.45703 -1.22004 0
M  V30 1281 H 117.756 -3.41214 -3.6957 0
M  V30 1282 H 117.456 -5.03605 -3.02746 0
M  V30 1283 H 118.98 -4.70039 -3.89738 0
M  V30 1284 H 120.394 -5.4575 -1.75584 0
M  V30 1285 H 118.791 -5.8994 -1.09956 0
M  V30 1286 H 119.861 -4.84648 -0.156453 0
M  V30 1287 N 121.204 0.198386 -1.56346 0
M  V30 1288 C 122.152 1.26538 -1.95169 0
M  V30 1289 C 123.146 1.47295 -0.836685 0
M  V30 1290 O 124.352 1.48195 -1.02167 0
M  V30 1291 H 120.727 0.424744 -0.620561 0
M  V30 1292 H 122.698 0.910904 -2.84157 0
M  V30 1293 C 121.447 2.6035 -2.30463 0
M  V30 1294 H 120.77 2.45192 -3.15786 0
M  V30 1295 H 122.21 3.33762 -2.61494 0
M  V30 1296 C 120.669 3.17096 -1.13806 0
M  V30 1297 O 121.199 3.99588 -0.41135 0
M  V30 1298 N 119.405 2.75795 -0.915736 0
M  V30 1299 H 118.952 2.08816 -1.50843 0
M  V30 1300 H 118.91 3.14101 -0.136979 0
M  V30 1301 N 122.682 1.50554 0.465978 0
M  V30 1302 C 123.928 1.62038 1.21949 0
M  V30 1303 C 124.261 0.322116 1.9151 0
M  V30 1304 O 123.536 -0.676723 1.82348 0
M  V30 1305 C 123.819 2.80421 2.25912 0
M  V30 1306 C 123.672 4.20144 1.60622 0
M  V30 1307 C 124.991 2.94354 3.27176 0
M  V30 1308 H 122.11 0.589752 0.441998 0
M  V30 1309 H 124.752 1.82956 0.51257 0
M  V30 1310 H 122.902 2.62717 2.86203 0
M  V30 1311 H 124.574 4.49449 1.03889 0
M  V30 1312 H 122.817 4.24165 0.909211 0
M  V30 1313 H 123.488 4.98914 2.36196 0
M  V30 1314 H 125.964 3.10578 2.76913 0
M  V30 1315 H 124.84 3.788 3.97242 0
M  V30 1316 H 125.101 2.05186 3.916 0
M  V30 1317 N 124.16 -0.719506 1.40217 0
M  V30 1318 C 125.388 -1.50864 1.41589 0
M  V30 1319 C 125.803 -1.88794 0.0145275 0
M  V30 1320 O 125.16 -1.55174 -0.960594 0
M  V30 1321 C 125.211 -2.78646 2.30302 0
M  V30 1322 O 124.932 -2.42321 3.64983 0
M  V30 1323 C 126.433 -3.72569 2.40224 0
M  V30 1324 H 123.653 -0.465709 0.48307 0
M  V30 1325 H 126.197 -0.88785 1.84221 0
M  V30 1326 H 124.352 -3.37019 1.91042 0
M  V30 1327 H 124.766 -3.24514 4.12057 0
M  V30 1328 H 126.24 -4.5908 3.06512 0
M  V30 1329 H 126.717 -4.15403 1.42608 0
M  V30 1330 H 127.323 -3.20109 2.80019 0
M  V30 1331 N 125.638 -1.25649 -0.95132 0
M  V30 1332 C 126.548 -1.08073 -2.08224 0
M  V30 1333 C 127.564 -0.0169666 -1.73992 0
M  V30 1334 O 128.74 -0.218593 -2.0021 0
M  V30 1335 C 125.805 -0.704922 -3.39458 0
M  V30 1336 C 124.866 -1.84699 -3.87537 0
M  V30 1337 C 124.099 -1.48902 -5.12508 0
M  V30 1338 O 124.322 -0.386156 -5.69091 0
M  V30 1339 O 123.256 -2.32033 -5.55378 0
M  V30 1340 H 127.082 -2.02924 -2.25954 0
M  V30 1341 H 124.667 -1.04618 -1.06656 0
M  V30 1342 H 126.549 -0.507609 -4.18332 0
M  V30 1343 H 125.224 0.214291 -3.2299 0
M  V30 1344 H 124.131 -2.09919 -3.09653 0
M  V30 1345 H 125.464 -2.74557 -4.08509 0
M  V30 1346 N 127.117 1.15442 -1.07289 0
M  V30 1347 C 128.049 2.19773 -0.650585 0
M  V30 1348 C 129.062 1.60076 0.296572 0
M  V30 1349 O 130.251 1.78293 0.0859905 0
M  V30 1350 C 127.351 3.38838 0.0650398 0
M  V30 1351 C 126.524 4.2808 -0.898141 0
M  V30 1352 C 125.583 5.2574 -0.219926 0
M  V30 1353 O 124.609 5.62654 -0.860773 0
M  V30 1354 N 125.811 5.71205 1.03466 0
M  V30 1355 H 128.576 2.56622 -1.54808 0
M  V30 1356 H 126.137 1.30551 -0.957494 0
M  V30 1357 H 128.129 4.01222 0.529415 0
M  V30 1358 H 126.699 3.00409 0.864466 0
M  V30 1359 H 125.919 3.62804 -1.54165 0
M  V30 1360 H 127.207 4.84577 -1.5512 0
M  V30 1361 H 126.605 5.43325 1.57526 0
M  V30 1362 H 125.162 6.35633 1.44272 0
M  V30 1363 N 128.595 0.856903 1.32268 0
M  V30 1364 C 129.505 0.306131 2.32594 0
M  V30 1365 C 130.521 -0.577209 1.64147 0
M  V30 1366 O 131.697 -0.477043 1.95669 0
M  V30 1367 C 128.762 -0.494561 3.43154 0
M  V30 1368 C 127.823 0.415186 4.27288 0
M  V30 1369 C 127.056 -0.347387 5.32568 0
M  V30 1370 O 127.279 -1.57708 5.48165 0
M  V30 1371 O 126.213 0.287982 6.01211 0
M  V30 1372 H 130.039 1.13737 2.81598 0
M  V30 1373 H 127.624 0.619902 1.35932 0
M  V30 1374 H 129.506 -0.948944 4.10576 0
M  V30 1375 H 128.181 -1.30257 2.96336 0
M  V30 1376 H 127.088 0.917793 3.62667 0
M  V30 1377 H 128.421 1.18844 4.77637 0
M  V30 1378 N 130.073 -1.45103 0.615059 0
M  V30 1379 C 131.02 -2.30586 -0.0993978 0
M  V30 1380 C 131.99 -1.42544 -0.852669 0
M  V30 1381 O 133.175 -1.71465 -0.836917 0
M  V30 1382 C 130.315 -3.27572 -1.08583 0
M  V30 1383 C 129.428 -4.30717 -0.332656 0
M  V30 1384 C 128.563 -5.14807 -1.30947 0
M  V30 1385 C 127.602 -6.09673 -0.544538 0
M  V30 1386 N 126.739 -6.86517 -1.47101 0
M  V30 1387 H 131.579 -2.91144 0.635542 0
M  V30 1388 H 129.116 -1.4346 0.325206 0
M  V30 1389 H 131.074 -3.82276 -1.67095 0
M  V30 1390 H 129.704 -2.68751 -1.78809 0
M  V30 1391 H 128.756 -3.78615 0.368107 0
M  V30 1392 H 130.068 -4.98102 0.263842 0
M  V30 1393 H 129.222 -5.73948 -1.96643 0
M  V30 1394 H 127.961 -4.47458 -1.9399 0
M  V30 1395 H 126.966 -5.49656 0.126003 0
M  V30 1396 H 128.191 -6.79052 0.080947 0
M  V30 1397 H 126.137 -6.21851 -2.08895 0
M  V30 1398 H 126.054 -7.50281 -0.928137 0
M  V30 1399 H 127.322 -7.50194 -2.11731 0
M  V30 1400 N 131.551 -0.354651 -1.53558 0
M  V30 1401 C 132.8 0.239504 -2.00273 0
M  V30 1402 C 133.113 1.50759 -1.24623 0
M  V30 1403 O 134.319 2.17968 -1.61871 0
M  V30 1404 C 132.775 0.477341 -3.5672 0
M  V30 1405 C 132.383 -0.775488 -4.41237 0
M  V30 1406 C 134.127 1.02975 -4.11821 0
M  V30 1407 C 132.034 -0.507838 -5.89216 0
M  V30 1408 H 130.964 0.0932743 -0.748208 0
M  V30 1409 H 133.615 -0.471701 -1.77334 0
M  V30 1410 H 131.997 1.24953 -3.7577 0
M  V30 1411 H 133.171 -1.54963 -4.33962 0
M  V30 1412 H 131.486 -1.25033 -3.97185 0
M  V30 1413 H 134.083 1.24513 -5.2 0
M  V30 1414 H 134.426 1.98862 -3.65731 0
M  V30 1415 H 134.959 0.317994 -3.96527 0
M  V30 1416 H 131.698 -1.43674 -6.39561 0
M  V30 1417 H 131.218 0.228011 -5.99366 0
M  V30 1418 H 132.897 -0.129238 -6.46871 0
M  V30 1419 N 133.029 1.57378 -0.0835403 0
M  V30 1420 C 134.306 1.85363 0.624507 0
M  V30 1421 C 134.686 0.978239 1.87066 0
M  V30 1422 O 134.034 0.0475908 2.2845 0
M  V30 1423 C 134.244 3.35795 0.950947 0
M  V30 1424 C 135.592 4.03581 1.31939 0
M  V30 1425 O 136.616 3.40609 1.04232 0
M  V30 1426 O 135.475 5.14672 1.83779 0
M  V30 1427 H 132.569 0.766162 0.311329 0
M  V30 1428 H 135.115 1.69307 -0.115362 0
M  V30 1429 H 133.887 3.91244 0.0663899 0
M  V30 1430 H 133.51 3.57154 1.74719 0
M  V30 1431 N 134.507 -0.190092 1.56449 0
M  V30 1432 C 135.454 -1.23557 1.94942 0
M  V30 1433 C 136.424 -1.44972 0.810696 0
M  V30 1434 O 137.609 -1.58023 1.06927 0
M  V30 1435 C 134.749 -2.57416 2.2985 0
M  V30 1436 C 133.862 -2.43537 3.5681 0
M  V30 1437 C 132.997 -3.70134 3.81017 0
M  V30 1438 C 132.036 -3.51109 5.01387 0
M  V30 1439 N 131.173 -4.6973 5.21822 0
M  V30 1440 H 136.013 -0.900304 2.84075 0
M  V30 1441 H 133.55 -0.43318 1.40577 0
M  V30 1442 H 135.508 -3.35409 2.48106 0
M  V30 1443 H 134.138 -2.88975 1.43852 0
M  V30 1444 H 133.19 -1.56816 3.46573 0
M  V30 1445 H 134.502 -2.25415 4.4496 0
M  V30 1446 H 133.656 -4.56566 3.9954 0
M  V30 1447 H 132.395 -3.91215 2.91207 0
M  V30 1448 H 131.4 -2.63063 4.82782 0
M  V30 1449 H 132.625 -3.31468 5.9271 0
M  V30 1450 H 130.571 -4.91065 4.34961 0
M  V30 1451 H 130.488 -4.54452 6.0416 0
M  V30 1452 H 131.756 -5.57499 5.44808 0
M  V30 1453 N 135.985 -1.50799 -0.457987 0
M  V30 1454 C 136.915 -1.73553 -1.5621 0
M  V30 1455 C 137.896 -0.584774 -1.59732 0
M  V30 1456 O 139.081 -0.825314 -1.7579 0
M  V30 1457 C 136.211 -1.84169 -2.94447 0
M  V30 1458 C 135.165 -2.99461 -3.0579 0
M  V30 1459 C 134.491 -2.95235 -4.45803 0
M  V30 1460 C 135.791 -4.39766 -2.81786 0
M  V30 1461 H 137.485 -2.66 -1.37421 0
M  V30 1462 H 135.031 -1.28002 -0.659662 0
M  V30 1463 H 136.984 -1.98672 -3.71628 0
M  V30 1464 H 135.708 -0.883545 -3.14422 0
M  V30 1465 H 134.367 -2.8463 -2.31044 0
M  V30 1466 H 134.015 -1.97239 -4.62715 0
M  V30 1467 H 133.715 -3.72642 -4.54326 0
M  V30 1468 H 135.239 -3.11803 -5.24987 0
M  V30 1469 H 136.653 -4.55054 -3.4871 0
M  V30 1470 H 135.05 -5.18722 -3.0174 0
M  V30 1471 H 136.12 -4.51229 -1.7754 0
M  V30 1472 N 137.463 0.71206 -1.40597 0
M  V30 1473 C 138.396 1.83582 -1.35546 0
M  V30 1474 C 139.374 1.61032 -0.225284 0
M  V30 1475 O 140.558 1.83998 -0.409519 0
M  V30 1476 C 137.685 3.19983 -1.11034 0
M  V30 1477 C 136.731 3.61355 -2.2655 0
M  V30 1478 S 137.564 3.68062 -3.88961 0
M  V30 1479 C 138.72 5.07216 -3.66719 0
M  V30 1480 H 138.953 1.87586 -2.30648 0
M  V30 1481 H 136.486 0.879182 -1.26924 0
M  V30 1482 H 138.444 3.98734 -0.975761 0
M  V30 1483 H 137.105 3.13608 -0.175798 0
M  V30 1484 H 136.298 4.60403 -2.0505 0
M  V30 1485 H 135.9 2.8987 -2.36329 0
M  V30 1486 H 138.192 5.94238 -3.25404 0
M  V30 1487 H 139.135 5.33753 -4.6531 0
M  V30 1488 H 139.543 4.77976 -3.00332 0
M  V30 1489 N 138.941 1.26152 0.944643 0
M  V30 1490 C 140.19 1.10883 1.68487 0
M  V30 1491 C 140.503 -0.348153 1.92477 0
M  V30 1492 O 141.709 -0.621459 2.64292 0
M  V30 1493 C 140.165 1.93624 3.03377 0
M  V30 1494 C 139.773 3.43875 2.87148 0
M  V30 1495 C 141.517 1.86954 3.81115 0
M  V30 1496 C 139.424 4.18875 4.1749 0
M  V30 1497 H 138.354 0.41135 0.631907 0
M  V30 1498 H 141.005 1.50433 1.05082 0
M  V30 1499 H 139.387 1.46904 3.67743 0
M  V30 1500 H 140.561 3.98338 2.31653 0
M  V30 1501 H 138.876 3.51744 2.22856 0
M  V30 1502 H 141.473 2.40275 4.77673 0
M  V30 1503 H 141.816 0.839518 4.07747 0
M  V30 1504 H 142.349 2.31477 3.23517 0
M  V30 1505 H 139.088 5.22332 3.96043 0
M  V30 1506 H 138.608 3.69193 4.72712 0
M  V30 1507 H 140.287 4.27134 4.85968 0
M  V30 1508 N 140.419 -1.14872 1.07899 0
M  V30 1509 C 141.329 -2.2341 0.715915 0
M  V30 1510 C 142.345 -1.71808 -0.275306 0
M  V30 1511 O 143.521 -2.01039 -0.120545 0
M  V30 1512 C 140.586 -3.46474 0.125168 0
M  V30 1513 C 139.647 -4.13039 1.17034 0
M  V30 1514 C 138.88 -5.30229 0.607688 0
M  V30 1515 O 139.103 -5.675 -0.574497 0
M  V30 1516 O 138.037 -5.86444 1.35526 0
M  V30 1517 H 141.863 -2.56808 1.62121 0
M  V30 1518 H 139.448 -1.22702 0.852322 0
M  V30 1519 H 141.33 -4.20917 -0.201729 0
M  V30 1520 H 140.005 -3.14811 -0.753364 0
M  V30 1521 H 138.912 -3.40493 1.54968 0
M  V30 1522 H 140.245 -4.48796 2.02097 0
M  V30 1523 N 141.898 -0.863906 -1.31812 0
M  V30 1524 C 142.831 -0.259963 -2.26714 0
M  V30 1525 C 143.809 0.607392 -1.50829 0
M  V30 1526 O 144.993 0.562155 -1.79922 0
M  V30 1527 C 142.12 0.632456 -3.32743 0
M  V30 1528 C 141.166 -0.162743 -4.26189 0
M  V30 1529 S 141.999 -1.53726 -5.12961 0
M  V30 1530 C 143.155 -0.650803 -6.22507 0
M  V30 1531 H 143.388 -1.06445 -2.77591 0
M  V30 1532 H 140.921 -0.662071 -1.39485 0
M  V30 1533 H 142.879 1.14167 -3.94305 0
M  V30 1534 H 141.54 1.41083 -2.80632 0
M  V30 1535 H 140.733 0.517366 -5.01338 0
M  V30 1536 H 140.335 -0.60385 -3.69093 0
M  V30 1537 H 142.627 0.141134 -6.77353 0
M  V30 1538 H 143.57 -1.37322 -6.94657 0
M  V30 1539 H 143.978 -0.221041 -5.64067 0
M  V30 1540 N 143.376 1.44774 -0.622745 0
M  V30 1541 C 144.653 1.95522 -0.0551974 0
M  V30 1542 C 145.033 1.5649 1.41683 0
M  V30 1543 O 144.381 0.834848 2.12703 0
M  V30 1544 C 144.591 3.4796 -0.269242 0
M  V30 1545 C 145.939 4.24306 -0.158014 0
M  V30 1546 O 146.963 3.55637 -0.200162 0
M  V30 1547 O 145.822 5.46471 -0.0558693 0
M  V30 1548 H 142.916 0.826556 0.0271015 0
M  V30 1549 H 145.462 1.54866 -0.693864 0
M  V30 1550 H 144.234 3.6939 -1.29099 0
M  V30 1551 H 143.857 3.95543 0.403966 0
M  V30 1552 N 144.854 0.36279 1.53368 0
M  V30 1553 C 146.102 -0.227326 2.00817 0
M  V30 1554 C 146.423 -1.49511 1.25186 0
M  V30 1555 O 145.693 -1.92482 0.364348 0
M  V30 1556 H 144.273 -0.0869923 0.741917 0
M  V30 1557 H 146.935 0.488381 1.88682 0
M  V30 1558 H 146.031 -0.456273 3.08747 0
M  V30 1559 N 146.332 -1.57332 0.0918853 0
M  V30 1560 C 147.56 -1.98574 -0.581048 0
M  V30 1561 C 147.975 -0.970903 -1.61923 0
M  V30 1562 O 147.332 0.0399054 -1.82456 0
M  V30 1563 C 147.383 -3.39872 -1.23164 0
M  V30 1564 O 147.104 -4.37469 -0.234989 0
M  V30 1565 C 148.605 -3.96099 -1.99049 0
M  V30 1566 H 145.825 -0.65261 -0.156018 0
M  V30 1567 H 148.369 -2.0379 0.170225 0
M  V30 1568 H 146.524 -3.35679 -1.93386 0
M  V30 1569 H 146.938 -5.19751 -0.70418 0
M  V30 1570 H 148.412 -4.97127 -2.39934 0
M  V30 1571 H 148.889 -3.3374 -2.85507 0
M  V30 1572 H 149.495 -4.03755 -1.3365 0
M  V30 1573 N 147.81 0.181792 -1.56548 0
M  V30 1574 C 148.72 1.24538 -1.98815 0
M  V30 1575 C 149.736 1.49045 -0.897861 0
M  V30 1576 O 150.912 1.61399 -1.20467 0
M  V30 1577 C 147.977 2.56683 -2.33055 0
M  V30 1578 C 147.038 2.40131 -3.55859 0
M  V30 1579 C 146.271 3.65975 -3.88456 0
M  V30 1580 O 146.494 4.70711 -3.22161 0
M  V30 1581 O 145.428 3.6071 -4.81842 0
M  V30 1582 H 149.254 0.916647 -2.89536 0
M  V30 1583 H 146.839 0.387842 -1.44278 0
M  V30 1584 H 148.721 3.34655 -2.56094 0
M  V30 1585 H 147.396 2.89157 -1.45498 0
M  V30 1586 H 146.303 1.60226 -3.38051 0
M  V30 1587 H 147.636 2.12585 -4.43924 0
M  V30 1588 N 149.288 1.51039 0.449983 0
M  V30 1589 C 150.236 1.71995 1.5659 0
M  V30 1590 C 151.23 0.586029 1.5894 0
M  V30 1591 O 152.436 0.76709 1.62837 0
M  V30 1592 H 148.811 0.543233 0.520001 0
M  V30 1593 H 150.782 2.65562 1.36085 0
M  V30 1594 C 149.531 1.8506 2.9436 0
M  V30 1595 H 148.854 2.71712 2.93279 0
M  V30 1596 H 150.294 2.0374 3.71842 0
M  V30 1597 C 148.753 0.607277 3.31382 0
M  V30 1598 O 149.283 -0.243903 4.00959 0
M  V30 1599 N 147.489 0.455073 2.87015 0
M  V30 1600 H 147.036 1.14879 2.30566 0
M  V30 1601 H 146.994 -0.375611 3.12148 0
M  V30 1602 N 150.766 -0.704594 1.40972 0
M  V30 1603 C 151.713 -1.81862 1.42109 0
M  V30 1604 C 152.683 -1.63781 0.276593 0
M  V30 1605 O 153.868 -1.84759 0.4763 0
M  V30 1606 C 151.008 -3.19669 1.30022 0
M  V30 1607 C 150.121 -3.49246 2.54267 0
M  V30 1608 C 149.256 -4.76618 2.3454 0
M  V30 1609 C 148.295 -4.99133 3.54306 0
M  V30 1610 N 147.432 -6.17726 3.33706 0
M  V30 1611 H 152.272 -1.80226 2.37324 0
M  V30 1612 H 149.809 -0.880238 1.17857 0
M  V30 1613 H 151.767 -3.99263 1.21018 0
M  V30 1614 H 150.397 -3.20506 0.384192 0
M  V30 1615 H 149.449 -2.64125 2.73756 0
M  V30 1616 H 150.761 -3.61788 3.43381 0
M  V30 1617 H 149.915 -5.64249 2.22952 0
M  V30 1618 H 148.654 -4.66305 1.42867 0
M  V30 1619 H 147.659 -4.09953 3.66359 0
M  V30 1620 H 148.884 -5.11311 4.4692 0
M  V30 1621 H 146.83 -6.08642 2.44725 0
M  V30 1622 H 146.747 -6.30995 4.16391 0
M  V30 1623 H 148.015 -7.08115 3.25873 0
M  V30 1624 N 152.244 -1.26651 -0.937939 0
M  V30 1625 C 153.469 -1.15279 -1.72411 0
M  V30 1626 C 153.894 0.287866 -1.85884 0
M  V30 1627 O 153.252 1.20855 -1.35143 0
M  V30 1628 C 153.3 -1.83028 -3.10698 0
M  V30 1629 O 152.404 -1.12128 -3.96864 0
M  V30 1630 H 151.745 -0.401504 -0.528858 0
M  V30 1631 H 154.275 -1.67531 -1.1745 0
M  V30 1632 H 154.285 -1.89981 -3.6107 0
M  V30 1633 H 152.96 -2.87833 -3.00208 0
M  V30 1634 H 151.537 -1.13173 -3.55312 0
M  V30 1635 N 153.722 1.14298 -1.08507 0
M  V30 1636 C 154.669 2.19414 -0.715965 0
M  V30 1637 C 155.639 1.63399 0.298326 0
M  V30 1638 O 156.824 1.89929 0.182101 0
M  V30 1639 C 153.964 3.44845 -0.132534 0
M  V30 1640 C 153.077 4.15007 -1.19973 0
M  V30 1641 C 152.212 5.28024 -0.580048 0
M  V30 1642 C 151.251 5.9002 -1.62921 0
M  V30 1643 N 150.388 6.94485 -1.03125 0
M  V30 1644 H 155.228 2.50336 -1.61666 0
M  V30 1645 H 152.765 1.2293 -0.807882 0
M  V30 1646 H 154.723 4.16601 0.223454 0
M  V30 1647 H 153.353 3.14403 0.731467 0
M  V30 1648 H 152.405 3.41629 -1.67313 0
M  V30 1649 H 153.717 4.57178 -1.99473 0
M  V30 1650 H 152.871 6.06455 -0.172364 0
M  V30 1651 H 151.61 4.87076 0.246603 0
M  V30 1652 H 150.615 5.10291 -2.04654 0
M  V30 1653 H 151.84 6.33042 -2.45835 0
M  V30 1654 H 149.786 6.55612 -0.225711 0
M  V30 1655 H 149.703 7.35148 -1.76334 0
M  V30 1656 H 150.971 7.7679 -0.649458 0
M  V30 1657 N 155.201 0.870884 1.31352 0
M  V30 1658 C 156.448 0.482273 1.96673 0
M  V30 1659 C 156.776 -0.965638 1.68836 0
M  V30 1660 O 156.031 -1.69514 0.977937 0
M  V30 1661 C 156.33 0.687157 3.50732 0
M  V30 1662 C 155.996 2.108 3.9859 0
M  V30 1663 C 154.658 2.49656 4.1137 0
M  V30 1664 C 157.01 3.03459 4.23748 0
M  V30 1665 C 154.338 3.80412 4.46659 0
M  V30 1666 C 156.69 4.3373 4.60501 0
M  V30 1667 C 155.354 4.725 4.71487 0
M  V30 1668 H 154.624 0.176476 0.719679 0
M  V30 1669 H 157.271 1.10405 1.56471 0
M  V30 1670 H 155.576 -0.0177476 3.91796 0
M  V30 1671 H 157.273 0.366284 3.99324 0
M  V30 1672 H 153.863 1.79633 3.8914 0
M  V30 1673 H 158.047 2.74665 4.13368 0
M  V30 1674 H 153.303 4.1021 4.53362 0
M  V30 1675 H 157.477 5.05578 4.78919 0
M  V30 1676 H 155.104 5.73859 4.98588 0
M  V30 1677 N 156.679 -1.44442 0.630414 0
M  V30 1678 C 157.927 -2.01653 0.134351 0
M  V30 1679 C 158.248 -1.49836 -1.24796 0
M  V30 1680 O 157.518 -0.701684 -1.82902 0
M  V30 1681 H 156.098 -0.74554 0.0466769 0
M  V30 1682 H 158.76 -1.76952 0.816955 0
M  V30 1683 H 157.856 -3.11935 0.101498 0
M  V30 1684 N 158.157 -0.370918 -1.53173 0
M  V30 1685 C 159.12 0.460778 -2.24521 0
M  V30 1686 C 160.12 1.00536 -1.25496 0
M  V30 1687 O 161.31 0.890266 -1.49733 0
M  V30 1688 C 158.442 1.64457 -2.98608 0
M  V30 1689 H 159.635 -0.163613 -2.99453 0
M  V30 1690 H 157.188 -0.122699 -1.55818 0
M  V30 1691 H 157.923 2.30691 -2.2793 0
M  V30 1692 H 157.708 1.26099 -3.7127 0
M  V30 1693 H 159.198 2.23384 -3.5283 0
M  V30 1694 N 159.635 1.57281 -0.100228 0
M  V30 1695 C 160.583 2.15542 0.874328 0
M  V30 1696 C 161.577 1.09962 1.28859 0
M  V30 1697 O 162.783 1.28298 1.26252 0
M  V30 1698 H 159.158 0.689567 0.300003 0
M  V30 1699 H 161.129 2.96241 0.35829 0
M  V30 1700 C 159.878 2.75454 2.1218 0
M  V30 1701 H 159.201 3.56384 1.81193 0
M  V30 1702 H 160.641 3.19781 2.78417 0
M  V30 1703 C 159.1 1.71602 2.89921 0
M  V30 1704 O 159.63 1.15804 3.84646 0
M  V30 1705 N 157.836 1.41975 2.53558 0
M  V30 1706 H 157.383 1.87539 1.76598 0
M  V30 1707 H 157.341 0.727274 3.05873 0
M  V30 1708 N 161.113 -0.173488 1.56642 0
M  V30 1709 C 162.076 -1.19859 1.95362 0
M  V30 1710 C 163.076 -1.37296 0.83704 0
M  V30 1711 O 164.266 -1.34739 1.10413 0
M  V30 1712 C 161.398 -2.56405 2.24654 0
M  V30 1713 H 162.591 -0.867062 2.87092 0
M  V30 1714 H 160.144 -0.415853 1.50666 0
M  V30 1715 H 160.879 -2.94576 1.35631 0
M  V30 1716 H 160.664 -2.45115 3.06041 0
M  V30 1717 H 162.154 -3.30287 2.5554 0
M  V30 1718 N 162.591 -1.51276 -0.441967 0
M  V30 1719 C 163.84 -1.6295 -1.18871 0
M  V30 1720 C 164.153 -0.349312 -1.92456 0
M  V30 1721 O 165.359 -0.345355 -2.69295 0
M  V30 1722 C 163.815 -2.87759 -2.16155 0
M  V30 1723 C 163.423 -4.22764 -1.48239 0
M  V30 1724 C 165.167 -3.08788 -2.91291 0
M  V30 1725 C 163.074 -5.38728 -2.4398 0
M  V30 1726 H 162.004 -0.606913 -0.447406 0
M  V30 1727 H 164.655 -1.77739 -0.456205 0
M  V30 1728 H 163.037 -2.66593 -2.92821 0
M  V30 1729 H 164.211 -4.54293 -0.771635 0
M  V30 1730 H 162.526 -4.07575 -0.852741 0
M  V30 1731 H 165.123 -3.92599 -3.63002 0
M  V30 1732 H 165.466 -2.21679 -3.5237 0
M  V30 1733 H 165.999 -3.30272 -2.21733 0
M  V30 1734 H 162.738 -6.28082 -1.87598 0
M  V30 1735 H 162.258 -5.1158 -3.13123 0
M  V30 1736 H 163.937 -5.70489 -3.05207 0
M  V30 1737 N 164.069 0.697108 -1.41344 0
M  V30 1738 C 164.999 1.82353 -1.45841 0
M  V30 1739 C 165.98 1.67115 -0.317247 0
M  V30 1740 O 167.165 1.86871 -0.528474 0
M  V30 1741 C 164.295 3.20476 -1.33838 0
M  V30 1742 C 163.249 3.50415 -2.4575 0
M  V30 1743 C 162.575 4.87878 -2.18813 0
M  V30 1744 C 163.875 3.49546 -3.88091 0
M  V30 1745 H 165.569 1.78846 -2.40113 0
M  V30 1746 H 163.115 0.859028 -1.15571 0
M  V30 1747 H 165.068 3.98988 -1.35596 0
M  V30 1748 H 163.792 3.24604 -0.360498 0
M  V30 1749 H 162.451 2.74253 -2.43271 0
M  V30 1750 H 162.099 4.8863 -1.19371 0
M  V30 1751 H 161.799 5.08875 -2.93803 0
M  V30 1752 H 163.323 5.68702 -2.22284 0
M  V30 1753 H 164.737 4.18066 -3.92293 0
M  V30 1754 H 163.134 3.82075 -4.62751 0
M  V30 1755 H 164.204 2.48552 -4.16353 0
M  V30 1756 N 165.547 1.27147 0.931209 0
M  V30 1757 C 166.795 1.13055 1.6752 0
M  V30 1758 C 167.116 -0.324791 1.92276 0
M  V30 1759 O 166.386 -1.22775 1.52654 0
M  V30 1760 H 164.966 0.415391 0.620854 0
M  V30 1761 H 167.628 1.59623 1.11833 0
M  V30 1762 H 166.724 1.65694 2.64485 0
M  V30 1763 N 167.025 -1.13721 1.09112 0
M  V30 1764 C 168.271 -1.85198 0.826414 0
M  V30 1765 C 168.604 -1.83129 -0.646319 0
M  V30 1766 O 167.879 -1.2671 -1.47563 0
M  V30 1767 C 168.162 -3.33507 1.35812 0
M  V30 1768 C 168.015 -3.44108 2.89672 0
M  V30 1769 C 169.334 -4.28838 0.989256 0
M  V30 1770 H 166.453 -0.67243 0.301675 0
M  V30 1771 H 169.095 -1.33499 1.35197 0
M  V30 1772 H 167.245 -3.77666 0.911082 0
M  V30 1773 H 168.917 -3.08684 3.428 0
M  V30 1774 H 167.16 -2.85087 3.26967 0
M  V30 1775 H 167.831 -4.48388 3.21951 0
M  V30 1776 H 170.307 -3.92734 1.37475 0
M  V30 1777 H 169.183 -5.31051 1.38838 0
M  V30 1778 H 169.444 -4.4198 -0.102924 0
M  V30 1779 N 168.503 -0.877838 -1.30888 0
M  V30 1780 C 169.728 -0.506629 -2.01117 0
M  V30 1781 C 170.153 0.895564 -1.65412 0
M  V30 1782 O 169.511 1.5923 -0.866922 0
M  V30 1783 C 169.559 -0.680223 -3.54126 0
M  V30 1784 O 168.663 0.277033 -4.11468 0
M  V30 1785 H 168.004 -0.200518 -0.633 0
M  V30 1786 H 170.534 -1.18342 -1.66902 0
M  V30 1787 H 170.544 -0.5765 -4.03907 0
M  V30 1788 H 169.219 -1.70261 -3.79452 0
M  V30 1789 H 167.796 0.127606 -3.72682 0
M  V30 1790 N 169.982 1.44106 -0.638065 0
M  V30 1791 C 170.912 2.33448 0.0494287 0
M  V30 1792 C 171.893 1.48606 0.827672 0
M  V30 1793 O 173.078 1.77308 0.792173 0
M  V30 1794 C 170.208 3.31771 1.02691 0
M  V30 1795 C 169.162 4.26485 0.359823 0
M  V30 1796 C 168.488 5.14729 1.44769 0
M  V30 1797 C 169.788 5.17056 -0.738296 0
M  V30 1798 H 171.482 2.91183 -0.696636 0
M  V30 1799 H 169.028 1.40014 -0.336456 0
M  V30 1800 H 170.981 3.93161 1.51666 0
M  V30 1801 H 169.705 2.7226 1.80395 0
M  V30 1802 H 168.364 3.66437 -0.10934 0
M  V30 1803 H 168.012 4.51566 2.21578 0
M  V30 1804 H 167.712 5.78913 1.00668 0
M  V30 1805 H 169.236 5.78991 1.93911 0
M  V30 1806 H 170.65 5.72342 -0.331354 0
M  V30 1807 H 169.047 5.89879 -1.10286 0
M  V30 1808 H 170.117 4.57652 -1.60258 0
M  V30 1809 N 171.46 0.379036 1.52974 0
M  V30 1810 C 172.423 -0.448865 2.24762 0
M  V30 1811 C 173.423 -0.998689 1.26027 0
M  V30 1812 O 174.613 -0.882313 1.50203 0
M  V30 1813 C 171.745 -1.62872 2.99476 0
M  V30 1814 H 172.938 0.179491 2.99362 0
M  V30 1815 H 170.491 0.13096 1.5575 0
M  V30 1816 H 171.226 -2.29479 2.29151 0
M  V30 1817 H 171.011 -1.24128 3.71934 0
M  V30 1818 H 172.501 -2.2151 3.5401 0
M  V30 1819 N 172.938 -1.57226 0.108567 0
M  V30 1820 C 174.184 -1.95121 -0.552761 0
M  V30 1821 C 174.517 -0.991345 -1.66991 0
M  V30 1822 O 173.792 -0.0267211 -1.94482 0
M  V30 1823 C 174.075 -3.43039 -1.09528 0
M  V30 1824 C 173.928 -4.49797 0.0177332 0
M  V30 1825 C 175.247 -3.92567 -1.98945 0
M  V30 1826 H 172.366 -0.709496 -0.199461 0
M  V30 1827 H 175.008 -1.89126 0.182011 0
M  V30 1828 H 173.158 -3.48279 -1.72146 0
M  V30 1829 H 174.83 -4.56661 0.652584 0
M  V30 1830 H 173.073 -4.284 0.682309 0
M  V30 1831 H 173.744 -5.50528 -0.402919 0
M  V30 1832 H 176.22 -3.89565 -1.46214 0
M  V30 1833 H 175.096 -4.96605 -2.33827 0
M  V30 1834 H 175.357 -3.32648 -2.91201 0
M  V30 1835 N 174.416 0.165178 -1.56732 0
M  V30 1836 C 175.656 0.887231 -1.8414 0
M  V30 1837 C 176.02 1.79159 -0.690353 0
M  V30 1838 O 177.221 2.55172 -0.845032 0
M  V30 1839 C 175.492 1.65674 -3.16681 0
M  V30 1840 S 177.051 2.42671 -3.6559 0
M  V30 1841 H 173.869 0.297042 -0.645978 0
M  V30 1842 H 176.471 0.148439 -1.94936 0
M  V30 1843 H 175.175 0.983507 -3.98441 0
M  V30 1844 H 174.706 2.43679 -3.08843 0
M  V30 1845 H 176.721 3.67499 -3.33406 0
M  V30 1846 N 175.894 1.51508 0.433938 0
M  V30 1847 C 176.841 1.73068 1.52696 0
M  V30 1848 C 177.811 0.572441 1.55924 0
M  V30 1849 O 178.996 0.807253 1.72882 0
M  V30 1850 C 176.136 1.86474 2.90381 0
M  V30 1851 C 175.249 3.14037 2.96656 0
M  V30 1852 C 174.384 3.18019 4.25485 0
M  V30 1853 C 173.423 4.39882 4.2564 0
M  V30 1854 N 172.56 4.41394 5.45999 0
M  V30 1855 H 177.4 2.66366 1.33615 0
M  V30 1856 H 174.937 1.32008 0.649018 0
M  V30 1857 H 176.895 1.92229 3.70275 0
M  V30 1858 H 175.525 0.965809 3.08013 0
M  V30 1859 H 174.577 3.17575 2.09404 0
M  V30 1860 H 175.889 4.0394 2.92633 0
M  V30 1861 H 175.043 3.22708 5.13755 0
M  V30 1862 H 173.782 2.2601 4.3217 0
M  V30 1863 H 172.787 4.35366 3.35763 0
M  V30 1864 H 174.012 5.33159 4.20617 0
M  V30 1865 H 171.958 3.52258 5.53399 0
M  V30 1866 H 171.875 5.25111 5.4387 0
M  V30 1867 H 173.143 4.50281 6.36292 0
M  V30 1868 N 177.372 -0.689602 1.41712 0
M  V30 1869 C 178.335 -1.78521 1.43746 0
M  V30 1870 C 179.335 -1.57436 0.327191 0
M  V30 1871 O 180.525 -1.64 0.587348 0
M  V30 1872 C 177.657 -3.16971 1.25467 0
M  V30 1873 H 178.85 -1.78108 2.41283 0
M  V30 1874 H 176.403 -0.89781 1.27942 0
M  V30 1875 H 177.138 -3.23019 0.287948 0
M  V30 1876 H 176.923 -3.33678 2.05917 0
M  V30 1877 H 178.413 -3.96935 1.2974 0
M  V30 1878 N 178.85 -1.27639 -0.924453 0
M  V30 1879 C 180.098 -1.13941 -1.66918 0
M  V30 1880 C 180.419 0.314589 -1.92446 0
M  V30 1881 O 179.689 1.21964 -1.53303 0
M  V30 1882 H 178.269 -0.418678 -0.618642 0
M  V30 1883 H 180.931 -1.60213 -1.10985 0
M  V30 1884 H 180.027 -1.67094 -2.63602 0
M  V30 1885 N 180.328 1.1314 -1.09713 0
M  V30 1886 C 181.291 2.16831 -0.742751 0
M  V30 1887 C 182.291 1.59159 0.229129 0
M  V30 1888 O 183.481 1.74199 0.00693237 0
M  V30 1889 C 180.613 3.40756 -0.0989168 0
M  V30 1890 H 181.806 2.49695 -1.66109 0
M  V30 1891 H 179.359 1.2802 -0.896699 0
M  V30 1892 H 180.094 3.13485 0.830514 0
M  V30 1893 H 179.879 3.83888 -0.798265 0
M  V30 1894 H 181.369 4.17386 0.133524 0
M  V30 1895 N 181.806 0.884767 1.30421 0
M  V30 1896 C 183.052 0.503851 1.96441 0
M  V30 1897 C 183.385 -0.944518 1.69684 0
M  V30 1898 O 182.66 -1.66737 1.00145 0
M  V30 1899 C 182.943 0.779085 3.51571 0
M  V30 1900 C 182.796 2.27807 3.87846 0
M  V30 1901 C 184.115 0.255452 4.39358 0
M  V30 1902 H 181.234 0.184533 0.713524 0
M  V30 1903 H 183.876 1.10872 1.54297 0
M  V30 1904 H 182.026 0.264274 3.876 0
M  V30 1905 H 183.698 2.86127 3.61841 0
M  V30 1906 H 181.941 2.74479 3.35922 0
M  V30 1907 H 182.612 2.42125 4.96064 0
M  V30 1908 H 185.088 0.696079 4.10236 0
M  V30 1909 H 183.964 0.477361 5.4682 0
M  V30 1910 H 184.225 -0.843293 4.33983 0
M  V30 1911 N 183.284 -1.43765 0.645699 0
M  V30 1912 C 184.194 -2.34544 -0.0512957 0
M  V30 1913 C 185.21 -1.53455 -0.82022 0
M  V30 1914 O 186.386 -1.86133 -0.769176 0
M  V30 1915 C 183.451 -3.31636 -1.01087 0
M  V30 1916 C 182.512 -4.2863 -0.239712 0
M  V30 1917 C 181.745 -5.21084 -1.15358 0
M  V30 1918 O 181.968 -5.1779 -2.39269 0
M  V30 1919 O 180.902 -5.98593 -0.630038 0
M  V30 1920 H 184.728 -2.95624 0.695718 0
M  V30 1921 H 182.313 -1.43781 0.405882 0
M  V30 1922 H 184.195 -3.9136 -1.56254 0
M  V30 1923 H 182.87 -2.73069 -1.73824 0
M  V30 1924 H 181.777 -3.72408 0.355356 0
M  V30 1925 H 183.11 -4.90157 0.447936 0
M  V30 1926 N 184.763 -0.387143 -1.52771 0
M  V30 1927 C 185.71 0.449048 -2.26389 0
M  V30 1928 C 186.68 1.05961 -1.27912 0
M  V30 1929 O 187.865 1.08804 -1.56737 0
M  V30 1930 C 185.005 1.57155 -3.0724 0
M  V30 1931 C 184.118 0.984066 -4.20643 0
M  V30 1932 C 183.253 2.07745 -4.88892 0
M  V30 1933 C 182.292 1.46574 -5.94292 0
M  V30 1934 N 181.429 2.49834 -6.56146 0
M  V30 1935 H 186.269 -0.185205 -2.97424 0
M  V30 1936 H 183.806 -0.103164 -1.46738 0
M  V30 1937 H 185.764 2.23309 -3.52405 0
M  V30 1938 H 184.394 2.17615 -2.38419 0
M  V30 1939 H 183.446 0.212193 -3.79808 0
M  V30 1940 H 184.758 0.497029 -4.96318 0
M  V30 1941 H 183.912 2.81673 -5.3735 0
M  V30 1942 H 182.651 2.59807 -4.12737 0
M  V30 1943 H 181.656 0.711696 -5.45174 0
M  V30 1944 H 182.881 0.953088 -6.72379 0
M  V30 1945 H 180.827 3.0107 -5.82832 0
M  V30 1946 H 180.744 2.05879 -7.27427 0
M  V30 1947 H 182.012 3.23399 -7.09249 0
M  V30 1948 N 186.241 1.57166 -0.116904 0
M  V30 1949 C 187.489 1.94737 0.540533 0
M  V30 1950 C 187.81 1.00096 1.67349 0
M  V30 1951 O 187.08 0.0568854 1.95817 0
M  V30 1952 H 185.66 0.718981 0.202669 0
M  V30 1953 H 188.322 1.94017 -0.185353 0
M  V30 1954 H 187.418 2.97719 0.936483 0
M  V30 1955 N 187.719 -0.156864 1.56817 0
M  V30 1956 C 188.965 -0.872416 1.83076 0
M  V30 1957 C 189.298 -1.81261 0.697001 0
M  V30 1958 O 188.573 -1.92171 -0.30008 0
M  V30 1959 C 188.856 -1.65551 3.19789 0
M  V30 1960 C 188.709 -0.737467 4.43713 0
M  V30 1961 C 190.028 -2.62012 3.53606 0
M  V30 1962 H 187.147 -0.315715 0.665953 0
M  V30 1963 H 189.789 -0.138004 1.89498 0
M  V30 1964 H 187.939 -2.28159 3.14445 0
M  V30 1965 H 189.611 -0.123143 4.61136 0
M  V30 1966 H 187.854 -0.0464067 4.33775 0
M  V30 1967 H 188.525 -1.32122 5.35955 0
M  V30 1968 H 191.001 -2.09525 3.59497 0
M  V30 1969 H 189.877 -3.13861 4.50314 0
M  V30 1970 H 190.138 -3.42902 2.79053 0
M  V30 1971 N 189.197 -1.51736 -0.425897 0
M  V30 1972 C 190.608 -1.5732 -1.00536 0
M  V30 1973 C 190.959 -0.403537 -1.92005 0
M  V30 1974 O 190.084 0.478256 -2.11049 0
M  V30 1975 C 190.679 -2.85119 -1.8301 0
M  V30 1976 C 189.238 -2.93236 -2.35987 0
M  V30 1977 C 188.385 -2.52098 -1.15508 0
M  V30 1978 H 191.336 -1.57348 -0.206739 0
M  V30 1979 H 191.357 -2.69526 -2.68581 0
M  V30 1980 H 190.869 -3.7023 -1.16411 0
M  V30 1981 H 188.97 -2.12581 -3.06007 0
M  V30 1982 H 189.083 -3.9713 -2.68001 0
M  V30 1983 H 187.447 -2.05558 -1.50393 0
M  V30 1984 H 188.23 -3.39565 -0.505014 0
M  V30 1985 N 190.675 0.682077 -1.42076 0
M  V30 1986 C 191.605 1.80796 -1.47767 0
M  V30 1987 C 192.586 1.6677 -0.334954 0
M  V30 1988 O 193.771 1.863 -0.548264 0
M  V30 1989 C 190.901 3.19038 -1.37229 0
M  V30 1990 C 189.855 3.47789 -2.49453 0
M  V30 1991 C 189.181 4.8553 -2.23975 0
M  V30 1992 C 190.481 3.45411 -3.91776 0
M  V30 1993 H 192.175 1.7629 -2.41997 0
M  V30 1994 H 189.721 0.846721 -1.16476 0
M  V30 1995 H 191.674 3.97528 -1.39821 0
M  V30 1996 H 190.398 3.24204 -0.394907 0
M  V30 1997 H 189.057 2.71657 -2.46166 0
M  V30 1998 H 188.705 4.87337 -1.24547 0
M  V30 1999 H 188.405 5.0573 -2.99184 0
M  V30 2000 H 189.929 5.66312 -2.28304 0
M  V30 2001 H 191.343 4.13882 -3.96705 0
M  V30 2002 H 189.74 3.77145 -4.66778 0
M  V30 2003 H 190.81 2.44122 -4.18966 0
M  V30 2004 N 192.153 1.28127 0.917671 0
M  V30 2005 C 193.383 1.17722 1.6978 0
M  V30 2006 C 193.791 -0.267261 1.87303 0
M  V30 2007 O 193.134 -1.19286 1.39702 0
M  V30 2008 C 193.196 1.79958 3.11216 0
M  V30 2009 C 192.86 3.29187 3.16993 0
M  V30 2010 C 193.857 4.25679 2.98485 0
M  V30 2011 C 191.542 3.70075 3.39632 0
M  V30 2012 C 193.536 5.61035 3.02521 0
M  V30 2013 C 191.223 5.05557 3.433 0
M  V30 2014 C 192.221 6.00847 3.24764 0
M  V30 2015 O 191.909 7.33859 3.28187 0
M  V30 2016 H 191.641 0.409788 0.537634 0
M  V30 2017 H 194.195 1.69694 1.15728 0
M  V30 2018 H 192.425 1.22475 3.66793 0
M  V30 2019 H 194.114 1.64125 3.71238 0
M  V30 2020 H 194.88 3.95426 2.80826 0
M  V30 2021 H 190.759 2.96373 3.53106 0
M  V30 2022 H 194.303 6.35388 2.87971 0
M  V30 2023 H 190.2 5.35462 3.60486 0
M  V30 2024 H 190.968 7.42436 3.44575 0
M  V30 2025 N 193.631 -1.12557 1.10312 0
M  V30 2026 C 195.047 -1.36036 0.834649 0
M  V30 2027 C 195.247 -1.93946 -0.546539 0
M  V30 2028 O 194.303 -2.16484 -1.29966 0
M  V30 2029 C 195.616 -2.30312 1.9333 0
M  V30 2030 C 197.164 -2.43906 1.9616 0
M  V30 2031 C 197.639 -3.41496 3.05195 0
M  V30 2032 N 199.13 -3.49053 3.04494 0
M  V30 2033 C 199.865 -4.24471 3.85502 0
M  V30 2034 N 199.361 -5.02966 4.76442 0
M  V30 2035 N 201.154 -4.19864 3.73725 0
M  V30 2036 H 193.305 -0.733246 1.99342 0
M  V30 2037 H 195.568 -0.385234 0.866198 0
M  V30 2038 H 195.274 -1.94933 2.92735 0
M  V30 2039 H 195.148 -3.30421 1.81939 0
M  V30 2040 H 197.535 -2.78567 0.973886 0
M  V30 2041 H 197.616 -1.4369 2.11629 0
M  V30 2042 H 197.26 -3.07565 4.04186 0
M  V30 2043 H 197.19 -4.41539 2.86968 0
M  V30 2044 H 199.681 -2.93053 2.38596 0
M  V30 2045 H 199.994 -5.57846 5.34815 0
M  V30 2046 H 198.339 -5.02167 4.80472 0
M  V30 2047 H 201.53 -3.57623 3.02032 0
M  V30 2048 H 201.703 -4.78386 4.37093 0
M  V30 2049 N 195.109 -0.891671 -1.2995 0
M  V30 2050 C 196.059 -0.334811 -2.25528 0
M  V30 2051 C 197.043 0.540553 -1.51548 0
M  V30 2052 O 198.235 0.383882 -1.72787 0
M  V30 2053 C 195.364 0.44374 -3.4042 0
M  V30 2054 C 194.45 -0.44609 -4.21747 0
M  V30 2055 N 194.841 -1.54963 -4.81477 0
M  V30 2056 C 193.139 -0.242415 -4.45341 0
M  V30 2057 C 193.84 -2.10015 -5.42465 0
M  V30 2058 N 192.816 -1.39423 -5.25416 0
M  V30 2059 H 196.618 -1.17792 -2.69262 0
M  V30 2060 H 194.132 -0.741822 -1.44467 0
M  V30 2061 H 196.129 0.859362 -4.07947 0
M  V30 2062 H 194.789 1.28421 -2.98225 0
M  V30 2063 H 195.8 -1.93244 -4.80497 0
M  V30 2064 H 192.477 0.560342 -4.13723 0
M  V30 2065 H 193.867 -3.02724 -5.9984 0
M  V30 2066 N 196.587 1.43421 -0.653314 0
M  V30 2067 C 197.836 2.01032 -0.164076 0
M  V30 2068 C 198.149 1.52147 1.22926 0
M  V30 2069 O 199.355 2.02031 1.81371 0
M  V30 2070 C 197.811 3.59082 -0.24252 0
M  V30 2071 C 197.419 4.1696 -1.63855 0
M  V30 2072 C 199.163 4.24079 0.18911 0
M  V30 2073 C 197.07 5.67304 -1.67092 0
M  V30 2074 H 196 0.751798 -0.0575769 0
M  V30 2075 H 198.651 1.6439 -0.815362 0
M  V30 2076 H 197.033 3.93125 0.476276 0
M  V30 2077 H 198.207 3.94416 -2.38271 0
M  V30 2078 H 196.522 3.64335 -2.01616 0
M  V30 2079 H 199.119 5.34381 0.184775 0
M  V30 2080 H 199.462 3.98005 1.22056 0
M  V30 2081 H 199.995 3.94918 -0.477938 0
M  V30 2082 H 196.734 5.98145 -2.68146 0
M  V30 2083 H 196.254 5.91904 -0.970014 0
M  V30 2084 H 197.933 6.31344 -1.4147 0
M  V30 2085 N 198.065 0.39524 1.52563 0
M  V30 2086 C 199.028 -0.425001 2.25225 0
M  V30 2087 C 200.028 -0.985266 1.27079 0
M  V30 2088 O 201.218 -0.866332 1.5113 0
M  V30 2089 C 198.35 -1.59686 3.01186 0
M  V30 2090 H 199.543 0.211233 2.99155 0
M  V30 2091 H 197.096 0.147472 1.55603 0
M  V30 2092 H 197.831 -2.27035 2.31572 0
M  V30 2093 H 197.616 -1.20176 3.73229 0
M  V30 2094 H 199.106 -2.17743 3.5634 0
M  V30 2095 N 199.544 -1.57102 0.125237 0
M  V30 2096 C 200.821 -1.86953 -0.575142 0
M  V30 2097 C 201.201 -1.02749 -1.84407 0
M  V30 2098 O 200.549 -0.108144 -2.28244 0
M  V30 2099 C 200.759 -3.38198 -0.861583 0
M  V30 2100 C 202.107 -4.06937 -1.21192 0
M  V30 2101 O 203.131 -3.43252 -0.951645 0
M  V30 2102 O 201.99 -5.19364 -1.70068 0
M  V30 2103 H 199.084 -0.774147 -0.290906 0
M  V30 2104 H 201.63 -1.68942 0.160211 0
M  V30 2105 H 200.402 -3.91282 0.0373647 0
M  V30 2106 H 200.025 -3.61661 -1.65188 0
M  V30 2107 N 201.022 0.148545 -1.56898 0
M  V30 2108 C 201.952 1.18524 -2.01182 0
M  V30 2109 C 202.933 1.4489 -0.891123 0
M  V30 2110 O 204.118 1.55836 -1.15882 0
M  V30 2111 C 201.248 2.51879 -2.39112 0
M  V30 2112 C 200.202 2.40038 -3.54353 0
M  V30 2113 C 199.528 3.78089 -3.78091 0
M  V30 2114 C 200.828 1.88577 -4.87069 0
M  V30 2115 H 202.522 0.817029 -2.88036 0
M  V30 2116 H 200.068 0.391575 -1.38574 0
M  V30 2117 H 202.021 3.24627 -2.68692 0
M  V30 2118 H 200.745 2.90532 -1.49193 0
M  V30 2119 H 199.404 1.69742 -3.24936 0
M  V30 2120 H 199.052 4.14175 -2.85426 0
M  V30 2121 H 198.752 3.71028 -4.55645 0
M  V30 2122 H 200.276 4.52387 -4.10095 0
M  V30 2123 H 201.69 2.51117 -5.15377 0
M  V30 2124 H 200.087 1.9241 -5.68417 0
M  V30 2125 H 201.157 0.84136 -4.77545 0
M  V30 2126 N 202.5 1.5196 0.417844 0
M  V30 2127 C 203.463 1.74065 1.49111 0
M  V30 2128 C 204.463 0.610537 1.48758 0
M  V30 2129 O 205.653 0.87832 1.50437 0
M  V30 2130 C 202.785 1.81502 2.88565 0
M  V30 2131 H 203.978 2.69869 1.30807 0
M  V30 2132 H 201.531 1.42244 0.647785 0
M  V30 2133 H 202.266 0.875813 3.1225 0
M  V30 2134 H 202.051 2.63651 2.90225 0
M  V30 2135 H 203.541 2.00376 3.66387 0
M  V30 2136 N 203.978 -0.674533 1.42435 0
M  V30 2137 C 205.226 -1.43175 1.42637 0
M  V30 2138 C 205.547 -1.94951 0.0438992 0
M  V30 2139 O 204.817 -1.7308 -0.917607 0
M  V30 2140 H 203.397 -0.531307 0.525092 0
M  V30 2141 H 206.059 -0.797006 1.77859 0
M  V30 2142 H 205.155 -2.28463 2.12629 0
M  V30 2143 N 205.456 -1.28612 -0.910864 0
M  V30 2144 C 206.404 -1.1265 -2.03501 0
M  V30 2145 C 207.398 -0.0450054 -1.6934 0
M  V30 2146 O 208.604 -0.203988 -1.7884 0
M  V30 2147 H 204.979 -0.347639 -0.666822 0
M  V30 2148 H 206.95 -2.07849 -2.14106 0
M  V30 2149 C 205.699 -0.808143 -3.38178 0
M  V30 2150 H 205.022 -1.63231 -3.6496 0
M  V30 2151 H 206.462 -0.736426 -4.17556 0
M  V30 2152 C 204.921 0.488226 -3.33344 0
M  V30 2153 O 205.451 1.51766 -3.71927 0
M  V30 2154 N 203.657 0.490009 -2.86439 0
M  V30 2155 H 203.204 -0.348161 -2.55236 0
M  V30 2156 H 203.162 1.35741 -2.83587 0
M  V30 2157 N 206.934 1.1197 -1.10907 0
M  V30 2158 C 208.159 1.87942 -0.877064 0
M  V30 2159 C 208.584 1.79341 0.567314 0
M  V30 2160 O 207.942 1.15184 1.40009 0
M  V30 2161 C 207.99 3.34926 -1.33629 0
M  V30 2162 O 207.094 4.09303 -0.504447 0
M  V30 2163 H 206.435 0.583785 -0.316371 0
M  V30 2164 H 208.965 1.4157 -1.47712 0
M  V30 2165 H 208.975 3.8577 -1.32837 0
M  V30 2166 H 207.65 3.40504 -2.3881 0
M  V30 2167 H 206.227 3.68393 -0.577993 0
M  V30 2168 N 208.412 0.89855 1.29475 0
M  V30 2169 C 209.322 0.379974 2.31502 0
M  V30 2170 C 210.338 -0.524695 1.659 0
M  V30 2171 O 211.514 -0.414551 1.97087 0
M  V30 2172 C 208.579 -0.385138 3.44554 0
M  V30 2173 C 207.64 0.550914 4.2575 0
M  V30 2174 C 206.873 -0.177778 5.33404 0
M  V30 2175 O 207.096 -1.40189 5.52904 0
M  V30 2176 O 206.03 0.479106 5.9999 0
M  V30 2177 H 209.856 1.22639 2.77837 0
M  V30 2178 H 207.441 0.662834 1.33891 0
M  V30 2179 H 209.323 -0.817841 4.13388 0
M  V30 2180 H 207.998 -1.20763 3.0033 0
M  V30 2181 H 206.905 1.03271 3.59564 0
M  V30 2182 H 208.238 1.33979 4.73614 0
M  V30 2183 N 209.89 -1.43072 0.660911 0
M  V30 2184 C 211.136 -2.0202 0.177708 0
M  V30 2185 C 211.469 -1.52066 -1.20787 0
M  V30 2186 O 210.744 -0.716987 -1.80802 0
M  V30 2187 C 211.027 -3.59561 0.197019 0
M  V30 2188 C 210.88 -4.19727 1.61706 0
M  V30 2189 C 212.199 -4.37664 -0.462396 0
M  V30 2190 H 209.318 -0.734034 0.0660494 0
M  V30 2191 H 211.96 -1.70272 0.843058 0
M  V30 2192 H 210.11 -3.86739 -0.369527 0
M  V30 2193 H 211.782 -4.03553 2.23479 0
M  V30 2194 H 210.025 -3.76084 2.16201 0
M  V30 2195 H 210.696 -5.28834 1.58237 0
M  V30 2196 H 213.172 -4.16095 0.0197215 0
M  V30 2197 H 212.048 -5.47305 -0.418188 0
M  V30 2198 H 212.309 -4.14493 -1.53778 0
M  V30 2199 N 211.368 -0.403325 -1.52352 0
M  V30 2200 C 212.617 0.175668 -2.00934 0
M  V30 2201 C 212.93 1.46718 -1.29356 0
M  V30 2202 O 214.136 2.12708 -1.68724 0
M  V30 2203 C 212.592 0.363612 -3.58058 0
M  V30 2204 C 212.2 -0.915472 -4.38547 0
M  V30 2205 C 213.944 0.89821 -4.14888 0
M  V30 2206 C 211.851 -0.695035 -5.87302 0
M  V30 2207 H 210.781 0.0694234 -0.750797 0
M  V30 2208 H 213.432 -0.527879 -1.75743 0
M  V30 2209 H 211.814 1.12935 -3.79555 0
M  V30 2210 H 212.988 -1.68691 -4.28812 0
M  V30 2211 H 211.303 -1.37606 -3.93006 0
M  V30 2212 H 213.9 1.07907 -5.23699 0
M  V30 2213 H 214.243 1.87126 -3.71873 0
M  V30 2214 H 214.776 0.191681 -3.97338 0
M  V30 2215 H 211.515 -1.63948 -6.34666 0
M  V30 2216 H 211.035 0.0372116 -5.99788 0
M  V30 2217 H 212.714 -0.33497 -6.46132 0
M  V30 2218 N 212.846 1.57033 -0.133567 0
M  V30 2219 C 213.776 2.1909 0.807567 0
M  V30 2220 C 214.757 1.13517 1.26681 0
M  V30 2221 O 215.942 1.41809 1.32679 0
M  V30 2222 C 213.072 2.80188 2.05212 0
M  V30 2223 C 212.026 3.91471 1.73015 0
M  V30 2224 C 211.352 4.39443 3.04622 0
M  V30 2225 C 212.652 5.12886 0.987168 0
M  V30 2226 H 214.346 2.97988 0.290403 0
M  V30 2227 H 211.892 1.43335 0.138239 0
M  V30 2228 H 213.845 3.22264 2.71521 0
M  V30 2229 H 212.569 1.98601 2.59278 0
M  V30 2230 H 211.228 3.49993 1.0909 0
M  V30 2231 H 210.876 3.54695 3.56651 0
M  V30 2232 H 210.576 5.14495 2.83847 0
M  V30 2233 H 212.1 4.8418 3.72024 0
M  V30 2234 H 213.514 5.51891 1.55208 0
M  V30 2235 H 211.911 5.93615 0.87985 0
M  V30 2236 H 212.981 4.84894 -0.0235286 0
M  V30 2237 N 214.325 -0.140222 1.56975 0
M  V30 2238 C 215.736 -0.699596 1.73097 0
M  V30 2239 C 216.087 -1.8134 0.749022 0
M  V30 2240 O 215.212 -2.16241 -0.0828503 0
M  V30 2241 C 215.807 -1.27582 3.1386 0
M  V30 2242 C 214.366 -1.78169 3.31561 0
M  V30 2243 C 213.513 -0.672855 2.69013 0
M  V30 2244 H 216.464 0.0855115 1.58469 0
M  V30 2245 H 216.485 -2.14561 3.14235 0
M  V30 2246 H 215.997 -0.464955 3.85305 0
M  V30 2247 H 214.098 -2.61801 2.65124 0
M  V30 2248 H 214.211 -1.90574 4.39566 0
M  V30 2249 H 212.575 -1.10118 2.29665 0
M  V30 2250 H 213.358 0.126679 3.43066 0
M  V30 2251 N 215.803 -1.52179 -0.40978 0
M  V30 2252 C 217.049 -1.66453 -1.15851 0
M  V30 2253 C 217.382 -0.392972 -1.90182 0
M  V30 2254 O 216.657 0.608579 -1.84734 0
M  V30 2255 C 216.94 -2.88612 -2.15349 0
M  V30 2256 C 216.793 -4.25815 -1.44918 0
M  V30 2257 C 218.112 -3.06294 -3.16026 0
M  V30 2258 H 215.231 -0.60575 -0.419805 0
M  V30 2259 H 217.873 -1.84732 -0.444314 0
M  V30 2260 H 216.023 -2.73158 -2.76255 0
M  V30 2261 H 217.695 -4.52995 -0.871365 0
M  V30 2262 H 215.938 -4.27247 -0.751159 0
M  V30 2263 H 216.609 -5.07337 -2.17516 0
M  V30 2264 H 219.085 -3.20641 -2.65195 0
M  V30 2265 H 217.961 -3.93283 -3.8291 0
M  V30 2266 H 218.222 -2.19579 -3.83715 0
M  V30 2267 N 217.281 0.66697 -1.42791 0
M  V30 2268 C 218.692 1.2478 -1.38877 0
M  V30 2269 C 219.043 1.96012 -0.0859426 0
M  V30 2270 O 218.168 2.00463 0.815081 0
M  V30 2271 C 218.763 2.26938 -2.51564 0
M  V30 2272 C 217.322 2.80529 -2.50959 0
M  V30 2273 C 216.469 1.54965 -2.29959 0
M  V30 2274 H 219.42 0.459853 -1.51892 0
M  V30 2275 H 219.441 3.08834 -2.22265 0
M  V30 2276 H 218.953 1.75065 -3.46372 0
M  V30 2277 H 217.054 3.36502 -1.59991 0
M  V30 2278 H 217.167 3.29012 -3.48265 0
M  V30 2279 H 215.531 1.81817 -1.78366 0
M  V30 2280 H 216.314 1.05047 -3.26833 0
M  V30 2281 N 218.759 1.29093 0.90403 0
M  V30 2282 C 219.722 1.1386 1.98919 0
M  V30 2283 C 220.722 0.0753457 1.60623 0
M  V30 2284 O 221.912 0.321931 1.71199 0
M  V30 2285 C 219.044 0.740198 3.32767 0
M  V30 2286 H 220.237 2.10246 2.13861 0
M  V30 2287 H 217.79 1.12218 1.08797 0
M  V30 2288 H 218.525 -0.223997 3.23525 0
M  V30 2289 H 218.31 1.50838 3.61926 0
M  V30 2290 H 219.8 0.656546 4.12407 0
M  V30 2291 N 220.237 -1.11381 1.11499 0
M  V30 2292 C 221.484 -1.83132 0.864231 0
M  V30 2293 C 221.812 -1.84683 -0.610114 0
M  V30 2294 O 221.067 -1.29589 -1.46646 0
M  V30 2295 C 221.366 -3.30026 1.37177 0
M  V30 2296 C 221.032 -3.48634 2.85946 0
M  V30 2297 C 219.694 -3.53421 3.26569 0
M  V30 2298 C 222.046 -3.54837 3.81759 0
M  V30 2299 C 219.374 -3.61967 4.61733 0
M  V30 2300 C 221.726 -3.64915 5.1674 0
M  V30 2301 C 220.39 -3.67962 5.5692 0
M  V30 2302 H 219.66 -0.670127 0.316245 0
M  V30 2303 H 222.307 -1.31354 1.3935 0
M  V30 2304 H 220.612 -3.84304 0.762753 0
M  V30 2305 H 222.309 -3.84034 1.15408 0
M  V30 2306 H 218.899 -3.45579 2.53521 0
M  V30 2307 H 223.083 -3.50399 3.51474 0
M  V30 2308 H 218.339 -3.62603 4.92269 0
M  V30 2309 H 222.513 -3.68658 5.90816 0
M  V30 2310 H 220.14 -3.74336 6.61647 0
M  V30 2311 N 221.715 -0.905404 -1.28997 0
M  V30 2312 C 222.663 -0.377431 -2.29517 0
M  V30 2313 C 223.657 0.526461 -1.61012 0
M  V30 2314 O 224.863 0.40863 -1.753 0
M  V30 2315 H 221.238 -0.103437 -0.744852 0
M  V30 2316 H 223.209 -1.23848 -2.71485 0
M  V30 2317 C 221.958 0.374833 -3.45674 0
M  V30 2318 H 221.281 -0.311474 -3.98585 0
M  V30 2319 H 222.721 0.70903 -4.1803 0
M  V30 2320 C 221.18 1.57963 -2.97572 0
M  V30 2321 O 221.71 2.67886 -2.99333 0
M  V30 2322 N 219.916 1.42375 -2.53333 0
M  V30 2323 H 219.463 0.529466 -2.521 0
M  V30 2324 H 219.421 2.23117 -2.21509 0
M  V30 2325 N 223.193 1.4272 -0.668489 0
M  V30 2326 C 224.439 2.01923 -0.188419 0
M  V30 2327 C 224.772 1.52704 1.19979 0
M  V30 2328 O 224.047 0.726566 1.8042 0
M  V30 2329 C 224.33 3.59451 -0.216085 0
M  V30 2330 C 224.183 4.18864 -1.6393 0
M  V30 2331 C 225.502 4.37903 0.439179 0
M  V30 2332 H 222.621 0.733674 -0.0699412 0
M  V30 2333 H 225.263 1.69822 -0.852076 0
M  V30 2334 H 223.413 3.86929 0.349012 0
M  V30 2335 H 225.085 4.02362 -2.25616 0
M  V30 2336 H 223.328 3.74933 -2.18193 0
M  V30 2337 H 223.999 5.27987 -1.61039 0
M  V30 2338 H 226.475 4.16079 -0.0417878 0
M  V30 2339 H 225.351 5.47519 0.389157 0
M  V30 2340 H 225.612 4.15303 1.51577 0
M  V30 2341 N 224.671 0.411399 1.52136 0
M  V30 2342 C 225.92 -0.165009 2.01024 0
M  V30 2343 C 226.233 -1.4603 1.30133 0
M  V30 2344 O 227.439 -2.1181 1.69849 0
M  V30 2345 C 225.895 -0.344618 3.58246 0
M  V30 2346 C 225.503 0.938716 4.38055 0
M  V30 2347 C 227.247 -0.876195 4.15359 0
M  V30 2348 C 225.154 0.726172 5.86925 0
M  V30 2349 H 224.084 -0.0654407 0.751155 0
M  V30 2350 H 226.735 0.537192 1.75461 0
M  V30 2351 H 225.117 -1.10921 3.80148 0
M  V30 2352 H 226.291 1.70963 4.27912 0
M  V30 2353 H 224.606 1.39688 3.92271 0
M  V30 2354 H 227.203 -1.05128 5.24263 0
M  V30 2355 H 227.546 -1.85152 3.7286 0
M  V30 2356 H 228.079 -0.170607 3.97434 0
M  V30 2357 H 224.818 1.67312 6.33788 0
M  V30 2358 H 224.338 -0.00540283 5.998 0
M  V30 2359 H 226.017 0.369231 6.45946 0
M  V30 2360 N 226.149 -1.5696 0.141893 0
M  V30 2361 C 227.097 -2.17784 -0.816874 0
M  V30 2362 C 228.091 -1.1334 -1.25899 0
M  V30 2363 O 229.297 -1.316 -1.22806 0
M  V30 2364 H 225.672 -0.697278 -0.281615 0
M  V30 2365 H 227.643 -2.97087 -0.279621 0
M  V30 2366 C 226.392 -2.80983 -2.04802 0
M  V30 2367 H 225.715 -3.61062 -1.7168 0
M  V30 2368 H 227.155 -3.2705 -2.69841 0
M  V30 2369 C 225.614 -1.79228 -2.8527 0
M  V30 2370 O 226.144 -1.25962 -3.8144 0
M  V30 2371 N 224.35 -1.48647 -2.49704 0
M  V30 2372 H 223.897 -1.92155 -1.71564 0
M  V30 2373 H 223.855 -0.808115 -3.03837 0
M  V30 2374 N 227.627 0.131896 -1.57047 0
M  V30 2375 C 228.875 0.840269 -1.83804 0
M  V30 2376 C 229.196 1.81017 -0.72512 0
M  V30 2377 O 228.466 1.94272 0.251995 0
M  V30 2378 H 227.046 0.313294 -0.678127 0
M  V30 2379 H 229.708 0.122294 -1.94516 0
M  V30 2380 H 228.804 1.39335 -2.79271 0
M  V30 2381 N 229.106 1.52395 0.401703 0
M  V30 2382 C 230.354 1.66488 1.14569 0
M  V30 2383 C 230.675 0.400897 1.90835 0
M  V30 2384 O 229.945 -0.584415 1.8698 0
M  V30 2385 H 228.525 0.613672 0.425929 0
M  V30 2386 H 231.187 1.89464 0.457093 0
M  V30 2387 H 230.283 2.50942 1.85566 0
M  V30 2388 N 230.584 -0.659388 1.43143 0
M  V30 2389 C 231.809 -1.45221 1.48073 0
M  V30 2390 C 232.234 -1.87845 0.097995 0
M  V30 2391 O 231.592 -1.56985 -0.90694 0
M  V30 2392 C 231.64 -2.66748 2.42647 0
M  V30 2393 O 230.744 -3.65583 1.90848 0
M  V30 2394 H 230.085 -0.435669 0.501088 0
M  V30 2395 H 232.615 -0.807432 1.87994 0
M  V30 2396 H 232.625 -3.14637 2.59745 0
M  V30 2397 H 231.3 -2.35067 3.43098 0
M  V30 2398 H 229.877 -3.24693 1.83381 0
M  V30 2399 N 232.062 -1.29571 -0.897171 0
M  V30 2400 C 233.012 -1.11539 -1.98855 0
M  V30 2401 C 233.996 -0.0340716 -1.60864 0
M  V30 2402 O 235.188 -0.256062 -1.75138 0
M  V30 2403 C 232.317 -0.796603 -3.3393 0
M  V30 2404 C 231.403 -1.91758 -3.78272 0
M  V30 2405 N 231.794 -3.16143 -3.94826 0
M  V30 2406 C 230.092 -1.81119 -4.07568 0
M  V30 2407 C 230.793 -3.89293 -4.32233 0
M  V30 2408 N 229.769 -3.17255 -4.41419 0
M  V30 2409 H 233.571 -2.05894 -2.09726 0
M  V30 2410 H 231.085 -1.20732 -1.08616 0
M  V30 2411 H 233.082 -0.648459 -4.11826 0
M  V30 2412 H 231.742 0.139003 -3.24402 0
M  V30 2413 H 232.753 -3.5157 -3.80288 0
M  V30 2414 H 229.43 -0.948461 -4.06584 0
M  V30 2415 H 230.82 -4.9635 -4.52865 0
M  V30 2416 N 233.54 1.10788 -1.12088 0
M  V30 2417 C 234.503 2.15207 -0.788577 0
M  V30 2418 C 235.503 1.59609 0.195317 0
M  V30 2419 O 236.693 1.74174 -0.0300193 0
M  V30 2420 C 233.825 3.4047 -0.171174 0
M  V30 2421 H 235.018 2.46116 -1.71368 0
M  V30 2422 H 232.571 1.26089 -0.923652 0
M  V30 2423 H 233.306 3.15176 0.763832 0
M  V30 2424 H 233.091 3.82109 -0.879514 0
M  V30 2425 H 234.581 4.17576 0.04496 0
M  V30 2426 N 235.018 0.912232 1.28515 0
M  V30 2427 C 236.266 0.543523 1.94654 0
M  V30 2428 C 236.587 -0.9155 1.72173 0
M  V30 2429 O 235.857 -1.64708 1.06058 0
M  V30 2430 H 234.437 0.198017 0.720277 0
M  V30 2431 H 237.099 1.16126 1.56527 0
M  V30 2432 H 236.195 0.736684 3.03281 0
M  V30 2433 N 236.496 -1.42363 0.676048 0
M  V30 2434 C 237.444 -2.32596 -0.0131507 0
M  V30 2435 C 238.438 -1.49891 -0.789238 0
M  V30 2436 O 239.644 -1.65955 -0.697061 0
M  V30 2437 H 236.019 -0.751647 -0.0230481 0
M  V30 2438 H 237.99 -2.88421 0.765243 0
M  V30 2439 C 236.739 -3.34479 -0.949702 0
M  V30 2440 H 236.062 -3.98158 -0.361938 0
M  V30 2441 H 237.502 -4.00199 -1.4006 0
M  V30 2442 C 235.961 -2.66838 -2.05667 0
M  V30 2443 O 236.491 -2.50124 -3.14326 0
M  V30 2444 N 234.697 -2.25843 -1.82875 0
M  V30 2445 H 234.244 -2.39637 -0.945085 0
M  V30 2446 H 234.202 -1.80918 -2.5713 0
M  V30 2447 N 237.974 -0.419461 -1.51915 0
M  V30 2448 C 238.921 0.400927 -2.27291 0
M  V30 2449 C 239.891 1.03224 -1.30131 0
M  V30 2450 O 241.076 1.05455 -1.59009 0
M  V30 2451 C 238.216 1.50603 -3.10504 0
M  V30 2452 C 237.329 0.89462 -4.22635 0
M  V30 2453 C 236.464 1.97328 -4.93189 0
M  V30 2454 C 235.503 1.33935 -5.97267 0
M  V30 2455 N 234.64 2.3586 -6.61298 0
M  V30 2456 H 239.48 -0.248251 -2.96964 0
M  V30 2457 H 237.017 -0.134266 -1.46486 0
M  V30 2458 H 238.975 2.15783 -3.57062 0
M  V30 2459 H 237.605 2.12509 -2.42981 0
M  V30 2460 H 236.657 0.131583 -3.80172 0
M  V30 2461 H 237.969 0.391641 -4.9726 0
M  V30 2462 H 237.123 2.70211 -5.43204 0
M  V30 2463 H 235.862 2.50994 -4.18155 0
M  V30 2464 H 234.867 0.595896 -5.46561 0
M  V30 2465 H 236.092 0.810252 -6.74249 0
M  V30 2466 H 234.038 2.88639 -5.89087 0
M  V30 2467 H 233.955 1.90403 -7.3163 0
M  V30 2468 H 235.223 3.08282 -7.15949 0
M  V30 2469 N 239.452 1.56882 -0.150215 0
M  V30 2470 C 240.382 2.19935 0.784284 0
M  V30 2471 C 241.363 1.14854 1.25469 0
M  V30 2472 O 242.548 1.43209 1.31168 0
M  V30 2473 C 239.678 2.82349 2.02229 0
M  V30 2474 C 238.632 3.93285 1.68853 0
M  V30 2475 C 237.958 4.42649 2.99944 0
M  V30 2476 C 239.258 5.13904 0.932714 0
M  V30 2477 H 240.952 2.9828 0.258781 0
M  V30 2478 H 238.498 1.43473 0.123029 0
M  V30 2479 H 240.451 3.25126 2.68088 0
M  V30 2480 H 239.175 2.0134 2.57157 0
M  V30 2481 H 237.834 3.5113 1.05371 0
M  V30 2482 H 237.482 3.58458 3.52869 0
M  V30 2483 H 237.182 5.17476 2.78374 0
M  V30 2484 H 238.706 4.88099 3.66868 0
M  V30 2485 H 240.12 5.53506 1.49345 0
M  V30 2486 H 238.517 5.94515 0.81684 0
M  V30 2487 H 239.587 4.84842 -0.0749568 0
M  V30 2488 N 240.93 -0.123565 1.57115 0
M  V30 2489 C 241.893 -1.13583 1.99076 0
M  V30 2490 C 242.893 -1.34564 0.880296 0
M  V30 2491 O 244.083 -1.31158 1.14644 0
M  V30 2492 C 241.215 -2.49128 2.32698 0
M  V30 2493 H 242.408 -0.775287 2.89706 0
M  V30 2494 H 239.961 -0.36771 1.51913 0
M  V30 2495 H 240.696 -2.90111 1.44934 0
M  V30 2496 H 240.481 -2.35255 3.13684 0
M  V30 2497 H 241.971 -3.2199 2.65918 0
M  V30 2498 N 242.408 -1.52605 -0.393616 0
M  V30 2499 C 243.341 -1.71798 -1.50202 0
M  V30 2500 C 244.319 -0.565743 -1.52441 0
M  V30 2501 O 245.503 -0.794987 -1.70916 0
M  V30 2502 C 242.63 -1.7714 -2.88685 0
M  V30 2503 C 241.676 -2.98845 -3.04292 0
M  V30 2504 S 242.509 -4.58909 -2.75976 0
M  V30 2505 C 243.665 -4.6706 -4.1666 0
M  V30 2506 H 243.898 -2.65542 -1.33696 0
M  V30 2507 H 241.431 -1.42839 -0.586195 0
M  V30 2508 H 243.389 -1.80903 -3.68489 0
M  V30 2509 H 242.05 -0.844969 -3.02521 0
M  V30 2510 H 241.243 -2.99111 -4.05646 0
M  V30 2511 H 240.845 -2.9305 -2.32374 0
M  V30 2512 H 243.137 -4.45391 -5.10523 0
M  V30 2513 H 244.08 -5.6905 -4.21412 0
M  V30 2514 H 244.488 -3.95944 -4.02354 0
M  V30 2515 N 243.887 0.651787 -1.4349 0
M  V30 2516 C 244.819 1.77725 -1.44729 0
M  V30 2517 C 245.832 1.59141 -0.343231 0
M  V30 2518 O 247.021 1.67835 -0.607751 0
M  V30 2519 C 244.121 3.15172 -1.24579 0
M  V30 2520 C 243.294 3.60402 -2.47849 0
M  V30 2521 C 242.353 4.76656 -2.22902 0
M  V30 2522 O 241.379 4.86022 -2.96263 0
M  V30 2523 N 242.581 5.66958 -1.24656 0
M  V30 2524 H 245.346 1.77141 -2.41746 0
M  V30 2525 H 242.907 0.835678 -1.38665 0
M  V30 2526 H 244.899 3.90634 -1.0577 0
M  V30 2527 H 243.469 3.1052 -0.360015 0
M  V30 2528 H 242.689 2.75369 -2.82073 0
M  V30 2529 H 243.977 3.87368 -3.29884 0
M  V30 2530 H 243.375 5.62065 -0.640265 0
M  V30 2531 H 241.932 6.42135 -1.1183 0
M  V30 2532 N 245.365 1.30045 0.890287 0
M  V30 2533 C 246.275 1.17885 2.02831 0
M  V30 2534 C 247.291 0.0999609 1.73713 0
M  V30 2535 O 248.467 0.313867 1.98939 0
M  V30 2536 C 245.532 0.866079 3.35708 0
M  V30 2537 C 244.593 2.02979 3.78283 0
M  V30 2538 C 243.826 1.73184 5.0482 0
M  V30 2539 O 244.049 0.657237 5.66601 0
M  V30 2540 O 242.983 2.58267 5.43674 0
M  V30 2541 H 246.809 2.13474 2.16015 0
M  V30 2542 H 244.394 1.09587 1.01543 0
M  V30 2543 H 246.276 0.706623 4.15433 0
M  V30 2544 H 244.951 -0.0599443 3.23644 0
M  V30 2545 H 243.858 2.24454 2.99285 0
M  V30 2546 H 245.191 2.93734 3.94944 0
M  V30 2547 N 246.843 -1.10192 1.12674 0
M  V30 2548 C 248.09 -1.82205 0.883606 0
M  V30 2549 C 248.418 -1.8532 -0.590492 0
M  V30 2550 O 247.673 -1.31137 -1.45264 0
M  V30 2551 C 247.972 -3.28552 1.4067 0
M  V30 2552 C 247.638 -3.45582 2.89627 0
M  V30 2553 C 246.3 -3.49937 3.30299 0
M  V30 2554 C 248.652 -3.50768 3.85501 0
M  V30 2555 C 245.98 -3.57049 4.65546 0
M  V30 2556 C 248.332 -3.59414 5.20581 0
M  V30 2557 C 246.996 -3.62034 5.60792 0
M  V30 2558 H 246.266 -0.666735 0.323334 0
M  V30 2559 H 248.913 -1.29868 1.40736 0
M  V30 2560 H 247.218 -3.83473 0.80347 0
M  V30 2561 H 248.915 -3.82788 1.19475 0
M  V30 2562 H 245.505 -3.42871 2.57172 0
M  V30 2563 H 249.689 -3.46651 3.55171 0
M  V30 2564 H 244.945 -3.57361 4.96088 0
M  V30 2565 H 249.119 -3.62371 5.94693 0
M  V30 2566 H 246.746 -3.67298 6.6558 0
M  V30 2567 N 248.321 -0.919034 -1.28029 0
M  V30 2568 C 249.254 -0.355887 -2.25408 0
M  V30 2569 C 250.232 0.542874 -1.5327 0
M  V30 2570 O 251.416 0.485338 -1.82145 0
M  V30 2571 C 248.543 0.490759 -3.35126 0
M  V30 2572 C 247.589 -0.343358 -4.25116 0
M  V30 2573 S 248.422 -1.75344 -5.05979 0
M  V30 2574 C 249.578 -0.914244 -6.19187 0
M  V30 2575 H 249.811 -1.18123 -2.72826 0
M  V30 2576 H 247.344 -0.720636 -1.36551 0
M  V30 2577 H 249.302 0.973404 -3.98792 0
M  V30 2578 H 247.963 1.29054 -2.86363 0
M  V30 2579 H 247.156 0.304266 -5.03081 0
M  V30 2580 H 246.758 -0.759851 -3.662 0
M  V30 2581 H 249.05 -0.146282 -6.77342 0
M  V30 2582 H 249.993 -1.66661 -6.88208 0
M  V30 2583 H 250.401 -0.460082 -5.62622 0
M  V30 2584 N 249.799 1.42003 -0.683588 0
M  V30 2585 C 251.048 2.00638 -0.206681 0
M  V30 2586 C 251.361 1.5472 1.19671 0
M  V30 2587 O 252.567 2.05833 1.77045 0
M  V30 2588 C 251.023 3.58487 -0.318632 0
M  V30 2589 C 250.631 4.1339 -1.72663 0
M  V30 2590 C 252.375 4.24384 0.0991141 0
M  V30 2591 C 250.282 5.63633 -1.79087 0
M  V30 2592 H 249.212 0.750408 -0.0735107 0
M  V30 2593 H 251.863 1.62624 -0.850048 0
M  V30 2594 H 250.245 3.94047 0.392781 0
M  V30 2595 H 251.419 3.89273 -2.46583 0
M  V30 2596 H 249.734 3.59976 -2.09299 0
M  V30 2597 H 252.331 5.34652 0.0713833 0
M  V30 2598 H 252.674 4.00505 1.13586 0
M  V30 2599 H 253.207 3.93816 -0.561599 0
M  V30 2600 H 249.946 5.92323 -2.80774 0
M  V30 2601 H 249.466 5.89714 -1.09535 0
M  V30 2602 H 251.145 6.28201 -1.5483 0
M  V30 2603 N 251.277 0.427512 1.51691 0
M  V30 2604 C 252.207 -0.3796 2.30394 0
M  V30 2605 C 253.188 -1.02982 1.35384 0
M  V30 2606 O 254.373 -1.03534 1.643 0
M  V30 2607 C 251.503 -1.48649 3.1388 0
M  V30 2608 C 250.457 -0.960294 4.17088 0
M  V30 2609 C 249.783 -2.16219 4.89033 0
M  V30 2610 C 251.083 -0.00153679 5.223 0
M  V30 2611 H 252.777 0.277164 2.98114 0
M  V30 2612 H 250.323 0.134739 1.43368 0
M  V30 2613 H 252.276 -2.05826 3.67714 0
M  V30 2614 H 251 -2.1714 2.43962 0
M  V30 2615 H 249.659 -0.410806 3.64291 0
M  V30 2616 H 249.307 -2.83307 4.15628 0
M  V30 2617 H 249.007 -1.81654 5.58816 0
M  V30 2618 H 250.531 -2.73968 5.45687 0
M  V30 2619 H 251.945 -0.482687 5.71264 0
M  V30 2620 H 250.342 0.256199 5.99553 0
M  V30 2621 H 251.412 0.938174 4.75738 0
M  V30 2622 N 252.755 -1.56801 0.158532 0
M  V30 2623 C 254.166 -1.83189 -0.360366 0
M  V30 2624 C 254.517 -1.07778 -1.63946 0
M  V30 2625 O 253.642 -0.326718 -2.13919 0
M  V30 2626 C 254.237 -3.32297 -0.660595 0
M  V30 2627 C 252.796 -3.59227 -1.12398 0
M  V30 2628 C 251.943 -2.76877 -0.153097 0
M  V30 2629 H 254.894 -1.54008 0.383031 0
M  V30 2630 H 254.915 -3.4908 -1.51405 0
M  V30 2631 H 254.427 -3.87156 0.270527 0
M  V30 2632 H 252.528 -3.09766 -2.07064 0
M  V30 2633 H 252.641 -4.67632 -1.04197 0
M  V30 2634 H 251.005 -2.46319 -0.647983 0
M  V30 2635 H 251.788 -3.34511 0.77182 0
M  V30 2636 N 254.233 0.115231 -1.57178 0
M  V30 2637 C 255.479 0.82357 -1.85325 0
M  V30 2638 C 255.812 1.79349 -0.744814 0
M  V30 2639 O 255.087 1.92899 0.249024 0
M  V30 2640 C 255.37 1.57014 -3.24066 0
M  V30 2641 C 255.223 0.619565 -4.45513 0
M  V30 2642 C 256.542 2.52545 -3.60429 0
M  V30 2643 H 253.661 0.297948 -0.674089 0
M  V30 2644 H 256.303 0.0877138 -1.89797 0
M  V30 2645 H 254.453 2.19742 -3.20383 0
M  V30 2646 H 256.125 0.000837639 -4.613 0
M  V30 2647 H 254.368 -0.0686174 -4.33746 0
M  V30 2648 H 255.039 1.17866 -5.3927 0
M  V30 2649 H 257.515 1.9992 -3.64926 0
M  V30 2650 H 256.391 3.01811 -4.58477 0
M  V30 2651 H 256.652 3.35383 -2.88047 0
M  V30 2652 N 255.711 1.52812 0.385517 0
M  V30 2653 C 256.959 1.67694 1.12797 0
M  V30 2654 C 257.28 0.421115 1.90399 0
M  V30 2655 O 256.55 -0.564551 1.87589 0
M  V30 2656 H 255.13 0.618155 0.419396 0
M  V30 2657 H 257.792 1.89938 0.436972 0
M  V30 2658 H 256.888 2.52896 1.82894 0
M  V30 2659 N 257.189 -0.644168 1.43834 0
M  V30 2660 C 258.152 -1.73857 1.49353 0
M  V30 2661 C 259.152 -1.56315 0.377112 0
M  V30 2662 O 260.342 -1.62048 0.639226 0
M  V30 2663 C 257.474 -3.12819 1.35488 0
M  V30 2664 H 258.667 -1.70342 2.46827 0
M  V30 2665 H 256.22 -0.856652 1.30733 0
M  V30 2666 H 256.955 -3.2194 0.390569 0
M  V30 2667 H 256.74 -3.26958 2.16428 0
M  V30 2668 H 258.23 -3.92606 1.42302 0
M  V30 2669 N 258.668 -1.30515 -0.883378 0
M  V30 2670 C 259.631 -1.1701 -1.97082 0
M  V30 2671 C 260.631 -0.10089 -1.60483 0
M  V30 2672 O 261.821 -0.349127 -1.70666 0
M  V30 2673 C 258.953 -0.793045 -3.31547 0
M  V30 2674 H 260.146 -2.13622 -2.10489 0
M  V30 2675 H 257.699 -1.13935 -1.06998 0
M  V30 2676 H 258.434 0.172499 -3.23841 0
M  V30 2677 H 258.219 -1.56576 -3.5948 0
M  V30 2678 H 259.709 -0.722073 -4.1131 0
M  V30 2679 N 260.146 1.09593 -1.13257 0
M  V30 2680 C 261.094 2.18271 -0.803783 0
M  V30 2681 C 262.088 1.68054 0.213148 0
M  V30 2682 O 263.294 1.79862 0.0704699 0
M  V30 2683 H 259.669 0.711949 -0.242143 0
M  V30 2684 H 261.64 2.43235 -1.72856 0
M  V30 2685 C 260.389 3.46536 -0.28424 0
M  V30 2686 H 259.712 3.85545 -1.05807 0
M  V30 2687 H 261.152 4.23899 -0.0925945 0
M  V30 2688 C 259.611 3.22036 0.989684 0
M  V30 2689 O 260.141 3.44509 2.06584 0
M  V30 2690 N 258.347 2.7565 0.920086 0
M  V30 2691 H 257.894 2.57562 0.0442019 0
M  V30 2692 H 257.852 2.59635 1.77306 0
M  V30 2693 N 261.624 0.925811 1.2754 0
M  V30 2694 C 262.871 0.565255 1.94451 0
M  V30 2695 C 263.199 -0.89316 1.7278 0
M  V30 2696 O 262.454 -1.65213 1.04895 0
M  V30 2697 C 262.753 0.835296 3.47502 0
M  V30 2698 C 262.419 2.27515 3.89291 0
M  V30 2699 C 261.081 2.66879 4.00411 0
M  V30 2700 C 263.433 3.21158 4.10496 0
M  V30 2701 C 260.761 3.99014 4.30122 0
M  V30 2702 C 263.113 4.52871 4.4169 0
M  V30 2703 C 261.777 4.92072 4.51023 0
M  V30 2704 H 261.047 0.206841 0.711546 0
M  V30 2705 H 263.694 1.16942 1.51647 0
M  V30 2706 H 261.999 0.148442 3.91519 0
M  V30 2707 H 263.696 0.535322 3.97411 0
M  V30 2708 H 260.286 1.95976 3.81171 0
M  V30 2709 H 264.47 2.9195 4.01346 0
M  V30 2710 H 259.726 4.2907 4.35556 0
M  V30 2711 H 263.9 5.25436 4.57045 0
M  V30 2712 H 261.527 5.9449 4.738 0
M  V30 2713 N 263.102 -1.41638 0.69111 0
M  V30 2714 C 264.518 -1.55435 0.362224 0
M  V30 2715 C 264.718 -1.66754 -1.13117 0
M  V30 2716 O 263.774 -1.64348 -1.91692 0
M  V30 2717 C 265.087 -2.79588 1.10684 0
M  V30 2718 C 266.635 -2.9338 1.09075 0
M  V30 2719 C 267.11 -4.20414 1.81703 0
M  V30 2720 N 268.601 -4.27362 1.7865 0
M  V30 2721 C 269.336 -5.24507 2.31689 0
M  V30 2722 N 268.832 -6.27708 2.93179 0
M  V30 2723 N 270.625 -5.16416 2.2197 0
M  V30 2724 H 262.776 -1.32536 1.65976 0
M  V30 2725 H 265.039 -0.639115 0.700168 0
M  V30 2726 H 264.745 -2.77419 2.16175 0
M  V30 2727 H 264.619 -3.70973 0.682545 0
M  V30 2728 H 267.006 -2.95067 0.0441238 0
M  V30 2729 H 267.087 -2.0318 1.55407 0
M  V30 2730 H 266.731 -4.19488 2.86343 0
M  V30 2731 H 266.661 -5.09578 1.32808 0
M  V30 2732 H 269.152 -3.53415 1.33815 0
M  V30 2733 H 269.465 -6.98217 3.31229 0
M  V30 2734 H 267.81 -6.28223 2.97255 0
M  V30 2735 H 271.001 -4.34716 1.73607 0
M  V30 2736 H 271.174 -5.91958 2.63609 0
M  V30 2737 N 264.58 -0.43555 -1.51462 0
M  V30 2738 C 265.49 0.383001 -2.31453 0
M  V30 2739 C 266.506 1.02931 -1.4029 0
M  V30 2740 O 267.682 1.02507 -1.73362 0
M  V30 2741 C 264.747 1.47043 -3.13973 0
M  V30 2742 C 263.808 0.844433 -4.20913 0
M  V30 2743 C 263.041 1.88004 -4.9949 0
M  V30 2744 O 263.264 3.10199 -4.78678 0
M  V30 2745 O 262.198 1.47157 -5.83634 0
M  V30 2746 H 266.024 -0.269964 -3.02498 0
M  V30 2747 H 263.609 -0.19813 -1.4808 0
M  V30 2748 H 265.491 2.10113 -3.65281 0
M  V30 2749 H 264.166 2.10751 -2.45695 0
M  V30 2750 H 263.073 0.175729 -3.73687 0
M  V30 2751 H 264.406 0.250869 -4.9156 0
M  V30 2752 N 266.058 1.56714 -0.166846 0
M  V30 2753 C 267.021 2.16539 0.751232 0
M  V30 2754 C 268.021 1.11228 1.16125 0
M  V30 2755 O 269.211 1.36765 1.07894 0
M  V30 2756 C 266.343 2.74462 2.02196 0
M  V30 2757 H 267.536 2.99013 0.230499 0
M  V30 2758 H 265.089 1.56081 0.0826982 0
M  V30 2759 H 265.824 1.95709 2.58589 0
M  V30 2760 H 265.609 3.51527 1.73698 0
M  V30 2761 H 267.099 3.20489 2.67725 0
M  V30 2762 N 267.536 -0.106894 1.57237 0
M  V30 2763 C 268.469 -1.16125 1.96444 0
M  V30 2764 C 269.447 -1.3947 0.835871 0
M  V30 2765 O 270.631 -1.53425 1.09513 0
M  V30 2766 C 267.758 -2.51277 2.27107 0
M  V30 2767 C 266.804 -2.44285 3.4961 0
M  V30 2768 S 267.637 -1.87077 5.01759 0
M  V30 2769 C 268.793 -3.23877 5.35588 0
M  V30 2770 H 269.026 -0.826971 2.85567 0
M  V30 2771 H 266.559 -0.314124 1.51171 0
M  V30 2772 H 268.517 -3.29035 2.45451 0
M  V30 2773 H 267.178 -2.81879 1.38576 0
M  V30 2774 H 266.371 -3.4387 3.68469 0
M  V30 2775 H 265.973 -1.74652 3.30715 0
M  V30 2776 H 268.265 -4.20122 5.31511 0
M  V30 2777 H 269.208 -3.09833 6.36717 0
M  V30 2778 H 269.616 -3.22864 4.63054 0
M  V30 2779 N 269.014 -1.53014 -0.377408 0
M  V30 2780 C 270.43 -1.42523 -0.718281 0
M  V30 2781 C 270.63 -0.55487 -1.9371 0
M  V30 2782 O 269.686 -0.0327593 -2.52479 0
M  V30 2783 C 270.999 -2.85546 -0.942539 0
M  V30 2784 C 272.547 -2.95101 -1.04329 0
M  V30 2785 C 273.022 -4.3916 -1.3001 0
M  V30 2786 N 274.513 -4.42536 -1.36806 0
M  V30 2787 C 275.248 -5.51097 -1.58364 0
M  V30 2788 N 274.744 -6.69724 -1.77317 0
M  V30 2789 N 276.537 -5.38657 -1.60638 0
M  V30 2790 H 268.688 -2.08116 0.424426 0
M  V30 2791 H 270.951 -0.939352 0.127759 0
M  V30 2792 H 270.657 -3.51499 -0.118929 0
M  V30 2793 H 270.531 -3.28493 -1.85397 0
M  V30 2794 H 272.918 -2.29309 -1.85745 0
M  V30 2795 H 272.999 -2.55566 -0.109505 0
M  V30 2796 H 272.643 -5.05521 -0.490991 0
M  V30 2797 H 272.573 -4.76258 -2.24691 0
M  V30 2798 H 275.064 -3.57039 -1.23821 0
M  V30 2799 H 275.377 -7.48233 -1.93306 0
M  V30 2800 H 273.722 -6.72732 -1.74518 0
M  V30 2801 H 276.913 -4.44948 -1.45391 0
M  V30 2802 H 277.086 -6.2333 -1.77098 0
M  V30 2803 N 270.492 0.636531 -1.44174 0
M  V30 2804 C 271.741 1.39213 -1.45954 0
M  V30 2805 C 272.054 1.95374 -0.0939119 0
M  V30 2806 O 273.26 2.71498 0.0107767 0
M  V30 2807 C 271.716 2.52025 -2.56927 0
M  V30 2808 C 271.324 2.024 -3.99673 0
M  V30 2809 C 273.068 3.29269 -2.67922 0
M  V30 2810 C 270.975 3.12521 -5.0208 0
M  V30 2811 H 269.905 0.523132 -0.542999 0
M  V30 2812 H 272.556 0.685349 -1.70221 0
M  V30 2813 H 270.938 3.25253 -2.25891 0
M  V30 2814 H 272.112 1.36073 -4.40251 0
M  V30 2815 H 270.427 1.37987 -3.92872 0
M  V30 2816 H 273.024 4.11352 -3.41605 0
M  V30 2817 H 273.367 3.78397 -1.73555 0
M  V30 2818 H 273.9 2.63129 -2.98342 0
M  V30 2819 H 270.639 2.68343 -5.98057 0
M  V30 2820 H 270.159 3.77507 -4.66099 0
M  V30 2821 H 271.838 3.77385 -5.25538 0
M  V30 2822 N 271.97 1.30982 0.876444 0
M  V30 2823 C 273.218 1.20058 1.62575 0
M  V30 2824 C 273.539 -0.242947 1.93481 0
M  V30 2825 O 272.809 -1.1619 1.57724 0
M  V30 2826 H 271.389 0.44135 0.602677 0
M  V30 2827 H 274.051 1.64222 1.04962 0
M  V30 2828 H 273.147 1.76762 2.57219 0
M  V30 2829 N 273.449 -1.08991 1.13837 0
M  V30 2830 C 274.412 -2.13925 0.822715 0
M  V30 2831 C 275.412 -1.599 -0.1699 0
M  V30 2832 O 276.602 -1.74104 0.0577251 0
M  V30 2833 C 273.734 -3.40155 0.225318 0
M  V30 2834 H 274.927 -2.43358 1.75262 0
M  V30 2835 H 272.48 -1.24603 0.943594 0
M  V30 2836 H 273.215 -3.16352 -0.713594 0
M  V30 2837 H 273 -3.80661 0.940193 0
M  V30 2838 H 274.49 -4.17594 0.0214784 0
M  V30 2839 N 274.927 -0.932562 -1.27047 0
M  V30 2840 C 275.837 -0.441219 -2.30414 0
M  V30 2841 C 276.853 0.480525 -1.67233 0
M  V30 2842 O 278.029 0.362151 -1.98117 0
M  V30 2843 C 275.094 0.293651 -3.45454 0
M  V30 2844 C 274.155 -0.663601 -4.2414 0
M  V30 2845 C 273.388 0.0362932 -5.33688 0
M  V30 2846 O 273.611 1.2548 -5.56427 0
M  V30 2847 O 272.545 -0.638015 -5.98509 0
M  V30 2848 H 276.371 -1.29962 -2.74488 0
M  V30 2849 H 273.956 -0.6981 -1.32087 0
M  V30 2850 H 275.838 0.707951 -4.15411 0
M  V30 2851 H 274.513 1.12758 -3.03426 0
M  V30 2852 H 273.42 -1.12768 -3.56699 0
M  V30 2853 H 274.753 -1.46489 -4.69896 0
M  V30 2854 N 276.405 1.4127 -0.698611 0
M  V30 2855 C 277.651 2.01478 -0.231207 0
M  V30 2856 C 277.984 1.55215 1.16713 0
M  V30 2857 O 277.259 0.764672 1.78838 0
M  V30 2858 C 277.542 3.58912 -0.292281 0
M  V30 2859 C 277.395 4.15293 -1.72778 0
M  V30 2860 C 278.714 4.38736 0.346194 0
M  V30 2861 H 275.833 0.732025 -0.0854878 0
M  V30 2862 H 278.475 1.67977 -0.887906 0
M  V30 2863 H 276.625 3.87582 0.26686 0
M  V30 2864 H 278.297 3.97486 -2.341 0
M  V30 2865 H 276.54 3.7022 -2.26096 0
M  V30 2866 H 277.211 5.24452 -1.72202 0
M  V30 2867 H 279.687 4.15897 -0.130035 0
M  V30 2868 H 278.563 5.48221 0.272932 0
M  V30 2869 H 278.824 4.18425 1.42734 0
M  V30 2870 N 277.883 0.443576 1.51229 0
M  V30 2871 C 279.113 -0.119117 2.06256 0
M  V30 2872 C 279.521 -1.36471 1.31043 0
M  V30 2873 O 278.864 -1.80034 0.365151 0
M  V30 2874 C 278.926 -0.500546 3.55998 0
M  V30 2875 C 278.59 0.639125 4.52509 0
M  V30 2876 C 279.587 1.51311 4.97394 0
M  V30 2877 C 277.272 0.821632 4.95535 0
M  V30 2878 C 279.266 2.55425 5.83984 0
M  V30 2879 C 276.953 1.86603 5.81913 0
M  V30 2880 C 277.951 2.73072 6.26036 0
M  V30 2881 O 277.639 3.75718 7.10698 0
M  V30 2882 H 277.371 -0.00857665 0.675946 0
M  V30 2883 H 279.925 0.623288 1.95715 0
M  V30 2884 H 278.155 -1.29575 3.64345 0
M  V30 2885 H 279.844 -0.995116 3.93513 0
M  V30 2886 H 280.61 1.38367 4.64844 0
M  V30 2887 H 276.489 0.158149 4.60729 0
M  V30 2888 H 280.033 3.22949 6.18344 0
M  V30 2889 H 275.93 1.99564 6.13876 0
M  V30 2890 H 276.698 3.72374 7.2889 0
M  V30 2891 N 279.361 -1.56624 0.175154 0
M  V30 2892 C 280.311 -2.14747 -0.766004 0
M  V30 2893 C 281.295 -1.08275 -1.19018 0
M  V30 2894 O 282.487 -1.34388 -1.15191 0
M  V30 2895 C 279.616 -2.79478 -1.99366 0
M  V30 2896 C 278.702 -3.93114 -1.5913 0
M  V30 2897 N 279.093 -4.97752 -0.89872 0
M  V30 2898 C 277.391 -4.04345 -1.88204 0
M  V30 2899 C 278.092 -5.77473 -0.700012 0
M  V30 2900 N 277.068 -5.29207 -1.24263 0
M  V30 2901 H 280.87 -2.93015 -0.22793 0
M  V30 2902 H 278.384 -1.6238 -0.0253843 0
M  V30 2903 H 280.381 -3.19498 -2.67818 0
M  V30 2904 H 279.041 -2.02692 -2.53665 0
M  V30 2905 H 280.052 -5.14903 -0.556347 0
M  V30 2906 H 276.729 -3.38667 -2.44153 0
M  V30 2907 H 278.119 -6.71728 -0.152047 0
M  V30 2908 N 280.839 0.0985539 -1.57292 0
M  V30 2909 C 281.787 1.1387 -2.02821 0
M  V30 2910 C 282.781 1.41676 -0.928666 0
M  V30 2911 O 283.987 1.41398 -1.11385 0
M  V30 2912 H 280.362 0.384419 -0.646317 0
M  V30 2913 H 282.333 0.728347 -2.89375 0
M  V30 2914 C 281.082 2.45166 -2.46554 0
M  V30 2915 H 280.405 2.24613 -3.3074 0
M  V30 2916 H 281.845 3.16456 -2.8219 0
M  V30 2917 C 280.304 3.09216 -1.33742 0
M  V30 2918 O 280.834 3.96163 -0.66464 0
M  V30 2919 N 279.04 2.69413 -1.08928 0
M  V30 2920 H 278.587 1.98801 -1.63817 0
M  V30 2921 H 278.545 3.12594 -0.336458 0
M  V30 2922 N 282.317 1.53212 0.369288 0
M  V30 2923 C 283.247 1.82365 1.45826 0
M  V30 2924 C 284.228 0.676907 1.56051 0
M  V30 2925 O 285.413 0.926401 1.70679 0
M  V30 2926 C 282.543 2.01023 2.83208 0
M  V30 2927 C 281.497 3.1678 2.8781 0
M  V30 2928 C 280.823 3.20724 4.27832 0
M  V30 2929 C 282.123 4.55447 2.55667 0
M  V30 2930 H 283.817 2.73559 1.21678 0
M  V30 2931 H 281.363 1.3163 0.583911 0
M  V30 2932 H 283.316 2.20001 3.59413 0
M  V30 2933 H 282.04 1.06536 3.08736 0
M  V30 2934 H 280.699 2.97616 2.14056 0
M  V30 2935 H 280.347 2.23882 4.50429 0
M  V30 2936 H 280.047 3.98496 4.31827 0
M  V30 2937 H 281.571 3.41881 5.05915 0
M  V30 2938 H 282.985 4.74611 3.21586 0
M  V30 2939 H 281.382 5.35432 2.70984 0
M  V30 2940 H 282.452 4.60812 1.5093 0
M  V30 2941 N 283.795 -0.628877 1.44509 0
M  V30 2942 C 284.742 -1.74074 1.51549 0
M  V30 2943 C 285.712 -1.62084 0.363021 0
M  V30 2944 O 286.897 -1.81975 0.573567 0
M  V30 2945 C 284.037 -3.12328 1.46784 0
M  V30 2946 C 283.15 -3.35277 2.72422 0
M  V30 2947 C 282.285 -4.63515 2.59475 0
M  V30 2948 C 281.324 -4.7965 3.80266 0
M  V30 2949 N 280.461 -5.99168 3.65981 0
M  V30 2950 H 285.301 -1.67392 2.46544 0
M  V30 2951 H 282.838 -0.816527 1.22357 0
M  V30 2952 H 284.796 -3.92286 1.42012 0
M  V30 2953 H 283.426 -3.18018 0.553544 0
M  V30 2954 H 282.478 -2.49242 2.87372 0
M  V30 2955 H 283.79 -3.43078 3.62076 0
M  V30 2956 H 282.944 -5.51638 2.52548 0
M  V30 2957 H 281.683 -4.58076 1.67384 0
M  V30 2958 H 280.688 -3.89957 3.87574 0
M  V30 2959 H 281.913 -4.86902 4.73395 0
M  V30 2960 H 279.859 -5.94814 2.76644 0
M  V30 2961 H 279.776 -6.08035 4.49254 0
M  V30 2962 H 281.044 -6.89846 3.6295 0
M  V30 2963 N 285.273 -1.31445 -0.869486 0
M  V30 2964 C 286.221 -1.19067 -1.99814 0
M  V30 2965 C 287.215 -0.0988569 -1.69111 0
M  V30 2966 O 288.421 -0.260781 -1.78101 0
M  V30 2967 H 284.796 -0.368677 -0.655425 0
M  V30 2968 H 286.767 -2.14555 -2.07385 0
M  V30 2969 C 285.516 -0.915323 -3.35436 0
M  V30 2970 H 284.839 -1.74759 -3.59582 0
M  V30 2971 H 286.279 -0.868895 -4.15001 0
M  V30 2972 C 284.738 0.381928 -3.34728 0
M  V30 2973 O 285.268 1.39857 -3.76567 0
M  V30 2974 N 283.474 0.398633 -2.87853 0
M  V30 2975 H 283.021 -0.429186 -2.54 0
M  V30 2976 H 282.979 1.26651 -2.87762 0
M  V30 2977 N 286.751 1.08385 -1.14413 0
M  V30 2978 C 287.997 1.81044 -0.913834 0
M  V30 2979 C 288.33 1.86004 0.558209 0
M  V30 2980 O 287.605 1.33606 1.4135 0
M  V30 2981 C 287.888 3.26648 -1.51569 0
M  V30 2982 C 287.741 3.29895 -3.0576 0
M  V30 2983 C 289.06 4.23629 -1.19273 0
M  V30 2984 H 286.179 0.65727 -0.333414 0
M  V30 2985 H 288.821 1.26896 -1.41412 0
M  V30 2986 H 286.971 3.72889 -1.09023 0
M  V30 2987 H 288.643 2.91977 -3.57137 0
M  V30 2988 H 286.886 2.69163 -3.40197 0
M  V30 2989 H 287.557 4.32516 -3.42977 0
M  V30 2990 H 290.033 3.85727 -1.56057 0
M  V30 2991 H 288.909 5.23822 -1.64017 0
M  V30 2992 H 289.17 4.41968 -0.108068 0
M  V30 2993 N 288.23 0.939286 1.26551 0
M  V30 2994 C 289.479 0.581601 1.93133 0
M  V30 2995 C 289.792 -0.883224 1.74524 0
M  V30 2996 O 290.998 -1.3502 2.35546 0
M  V30 2997 C 289.454 0.989425 3.46032 0
M  V30 2998 C 289.062 2.47573 3.73379 0
M  V30 2999 C 290.806 0.703544 4.18629 0
M  V30 3000 C 288.713 2.82235 5.19709 0
M  V30 3001 H 287.643 0.213803 0.723052 0
M  V30 3002 H 290.294 1.14167 1.4366 0
M  V30 3003 H 288.676 0.357902 3.94379 0
M  V30 3004 H 289.85 3.15614 3.35744 0
M  V30 3005 H 288.165 2.73471 3.1401 0
M  V30 3006 H 290.762 0.938869 5.26393 0
M  V30 3007 H 291.105 -0.359639 4.14744 0
M  V30 3008 H 291.638 1.2947 3.76141 0
M  V30 3009 H 288.377 3.87509 5.28694 0
M  V30 3010 H 287.897 2.18854 5.58447 0
M  V30 3011 H 289.576 2.70599 5.87695 0
M  V30 3012 N 289.708 -1.40897 0.706093 0
M  V30 3013 C 290.655 -2.30751 0.0474474 0
M  V30 3014 C 291.625 -1.47678 -0.76029 0
M  V30 3015 O 292.81 -1.76441 -0.726177 0
M  V30 3016 C 289.95 -3.33815 -0.875309 0
M  V30 3017 C 289.063 -4.31961 -0.0580623 0
M  V30 3018 C 288.198 -5.22093 -0.979425 0
M  V30 3019 C 287.237 -6.11902 -0.155706 0
M  V30 3020 N 286.374 -6.94482 -1.03144 0
M  V30 3021 H 291.214 -2.86513 0.819413 0
M  V30 3022 H 288.751 -1.41102 0.415783 0
M  V30 3023 H 290.709 -3.92129 -1.42446 0
M  V30 3024 H 289.339 -2.79579 -1.61356 0
M  V30 3025 H 288.391 -3.75507 0.608147 0
M  V30 3026 H 289.703 -4.95415 0.580082 0
M  V30 3027 H 288.857 -5.85292 -1.59744 0
M  V30 3028 H 287.596 -4.5889 -1.65141 0
M  V30 3029 H 286.601 -5.47742 0.475309 0
M  V30 3030 H 287.826 -6.77162 0.512635 0
M  V30 3031 H 285.772 -6.33877 -1.68924 0
M  V30 3032 H 285.689 -7.54665 -0.449108 0
M  V30 3033 H 286.957 -7.6214 -1.63593 0
M  V30 3034 N 291.186 -0.45159 -1.50991 0
M  V30 3035 C 292.096 0.358431 -2.31846 0
M  V30 3036 C 293.112 1.01438 -1.41373 0
M  V30 3037 O 294.288 1.00663 -1.74439 0
M  V30 3038 C 291.353 1.43704 -3.15515 0
M  V30 3039 C 290.414 0.799742 -4.21785 0
M  V30 3040 C 289.647 1.82696 -5.01456 0
M  V30 3041 O 289.87 3.05105 -4.81941 0
M  V30 3042 O 288.804 1.40958 -5.85162 0
M  V30 3043 H 292.63 -0.302032 -3.02194 0
M  V30 3044 H 290.215 -0.213825 -1.47862 0
M  V30 3045 H 292.097 2.06227 -3.67489 0
M  V30 3046 H 290.772 2.08133 -2.47916 0
M  V30 3047 H 289.679 0.136084 -3.73852 0
M  V30 3048 H 291.012 0.198718 -4.91799 0
M  V30 3049 N 292.664 1.56529 -0.183458 0
M  V30 3050 C 293.611 2.18546 0.742055 0
M  V30 3051 C 294.581 1.12912 1.2182 0
M  V30 3052 O 295.766 1.41115 1.28418 0
M  V30 3053 C 292.906 2.83977 1.96089 0
M  V30 3054 C 292.019 4.04105 1.52719 0
M  V30 3055 C 291.154 4.57427 2.70063 0
M  V30 3056 C 290.193 5.69938 2.23243 0
M  V30 3057 N 289.33 6.17717 3.33722 0
M  V30 3058 H 294.17 2.97284 0.206432 0
M  V30 3059 H 291.707 1.46823 0.0901571 0
M  V30 3060 H 293.665 3.20077 2.67594 0
M  V30 3061 H 292.295 2.07822 2.47002 0
M  V30 3062 H 291.347 3.73745 0.708436 0
M  V30 3063 H 292.659 4.85513 1.1436 0
M  V30 3064 H 291.813 4.95772 3.49708 0
M  V30 3065 H 290.552 3.75101 3.11689 0
M  V30 3066 H 289.557 5.31133 1.42048 0
M  V30 3067 H 290.782 6.54073 1.82661 0
M  V30 3068 H 288.728 5.38317 3.74902 0
M  V30 3069 H 288.645 6.94146 2.99495 0
M  V30 3070 H 289.913 6.60713 4.13616 0
M  V30 3071 N 294.142 -0.090211 1.57342 0
M  V30 3072 C 295.372 -0.805055 1.90269 0
M  V30 3073 C 295.78 -1.72561 0.775842 0
M  V30 3074 O 295.123 -1.81839 -0.260843 0
M  V30 3075 C 295.185 -1.66734 3.18497 0
M  V30 3076 C 294.849 -0.918092 4.47683 0
M  V30 3077 C 295.846 -0.245674 5.19319 0
M  V30 3078 C 293.531 -0.890724 4.94339 0
M  V30 3079 C 295.525 0.444088 6.35851 0
M  V30 3080 C 293.212 -0.197179 6.10782 0
M  V30 3081 C 294.21 0.469044 6.81388 0
M  V30 3082 O 293.898 1.15146 7.95611 0
M  V30 3083 H 293.63 -0.235143 0.633785 0
M  V30 3084 H 296.184 -0.0703805 2.05279 0
M  V30 3085 H 294.414 -2.44437 2.99646 0
M  V30 3086 H 296.103 -2.25919 3.37217 0
M  V30 3087 H 296.869 -0.258246 4.84312 0
M  V30 3088 H 292.748 -1.39873 4.39268 0
M  V30 3089 H 296.292 0.964667 6.90898 0
M  V30 3090 H 292.189 -0.18247 6.45242 0
M  V30 3091 H 292.957 1.05885 8.11622 0
M  V30 3092 N 295.62 -1.53406 -0.361157 0
M  V30 3093 C 296.868 -1.69467 -1.10115 0
M  V30 3094 C 297.189 -0.451352 -1.89705 0
M  V30 3095 O 296.459 0.534636 -1.88463 0
M  V30 3096 H 295.039 -0.624749 -0.409508 0
M  V30 3097 H 297.701 -1.90609 -0.406699 0
M  V30 3098 H 296.797 -2.55774 -1.78847 0
M  V30 3099 N 297.098 0.621204 -1.44841 0
M  V30 3100 C 298.045 1.73267 -1.5247 0
M  V30 3101 C 299.015 1.6189 -0.371611 0
M  V30 3102 O 300.2 1.81668 -0.58321 0
M  V30 3103 C 297.34 3.11545 -1.48438 0
M  V30 3104 C 296.453 3.33827 -2.74196 0
M  V30 3105 C 295.588 4.62133 -2.61929 0
M  V30 3106 C 294.627 4.77627 -3.82804 0
M  V30 3107 N 293.764 5.97219 -3.69153 0
M  V30 3108 H 298.604 1.66082 -2.47428 0
M  V30 3109 H 296.141 0.810026 -1.22788 0
M  V30 3110 H 298.099 3.91528 -1.4409 0
M  V30 3111 H 296.729 3.1772 -0.570402 0
M  V30 3112 H 295.781 2.47715 -2.88689 0
M  V30 3113 H 297.093 3.41153 -3.6389 0
M  V30 3114 H 296.247 5.50291 -2.5547 0
M  V30 3115 H 294.986 4.57182 -1.69811 0
M  V30 3116 H 293.991 3.87896 -3.89637 0
M  V30 3117 H 295.216 4.84385 -4.75971 0
M  V30 3118 H 293.162 5.93339 -2.79794 0
M  V30 3119 H 293.079 6.05644 -4.52472 0
M  V30 3120 H 294.347 6.87912 -3.66603 0
M  V30 3121 N 298.576 1.31904 0.862503 0
M  V30 3122 C 299.853 1.12644 1.59908 0
M  V30 3123 C 300.233 -0.316104 2.0872 0
M  V30 3124 O 299.581 -1.31145 1.87118 0
M  V30 3125 C 299.791 2.1472 2.7513 0
M  V30 3126 C 301.139 2.47637 3.44907 0
M  V30 3127 O 302.163 2.13205 2.85346 0
M  V30 3128 O 301.022 3.06632 4.52371 0
M  V30 3129 H 298.116 0.43416 0.703871 0
M  V30 3130 H 300.662 1.43408 0.907314 0
M  V30 3131 H 299.434 3.1172 2.3653 0
M  V30 3132 H 299.057 1.84905 3.51989 0
M  V30 3133 N 300.054 -1.07777 1.14986 0
M  V30 3134 C 301.017 -2.13041 0.845358 0
M  V30 3135 C 302.017 -1.60071 -0.152931 0
M  V30 3136 O 303.207 -1.74033 0.0761879 0
M  V30 3137 C 300.339 -3.39896 0.261383 0
M  V30 3138 H 301.532 -2.41485 1.77834 0
M  V30 3139 H 299.085 -1.23595 0.956757 0
M  V30 3140 H 299.82 -3.17091 -0.68 0
M  V30 3141 H 299.605 -3.79642 0.980514 0
M  V30 3142 H 301.095 -4.17548 0.0657687 0
M  V30 3143 N 301.532 -0.945985 -1.26051 0
M  V30 3144 C 302.76 -0.613025 -1.9761 0
M  V30 3145 C 303.175 0.813035 -1.70397 0
M  V30 3146 O 302.532 1.54274 -0.974979 0
M  V30 3147 C 302.583 -0.85159 -3.51326 0
M  V30 3148 O 302.304 -2.22157 -3.77595 0
M  V30 3149 C 303.805 -0.529831 -4.40122 0
M  V30 3150 H 301.025 -0.230593 -0.630133 0
M  V30 3151 H 303.569 -1.268 -1.60443 0
M  V30 3152 H 301.724 -0.243151 -3.86636 0
M  V30 3153 H 302.138 -2.2852 -4.721 0
M  V30 3154 H 303.612 -0.747348 -5.46917 0
M  V30 3155 H 304.089 0.535341 -4.35925 0
M  V30 3156 H 304.695 -1.11721 -4.10364 0
M  V30 3157 N 303.011 1.40521 -0.713556 0
M  V30 3158 C 303.959 2.32549 -0.0485227 0
M  V30 3159 C 304.953 1.51931 0.74922 0
M  V30 3160 O 306.159 1.67745 0.652816 0
M  V30 3161 H 302.534 0.751994 0.00311138 0
M  V30 3162 H 304.505 2.86291 -0.841443 0
M  V30 3163 C 303.254 3.36879 0.860687 0
M  V30 3164 H 302.577 3.98978 0.256246 0
M  V30 3165 H 304.017 4.03772 1.294 0
M  V30 3166 C 302.476 2.72197 1.9852 0
M  V30 3167 O 303.006 2.5837 3.07584 0
M  V30 3168 N 301.212 2.30612 1.76823 0
M  V30 3169 H 300.759 2.42059 0.881217 0
M  V30 3170 H 300.717 1.87672 2.52243 0
M  V30 3171 N 304.489 0.459591 1.5075 0
M  V30 3172 C 305.735 -0.0994966 2.02556 0
M  V30 3173 C 306.068 -1.40399 1.3417 0
M  V30 3174 O 305.343 -1.88892 0.463683 0
M  V30 3175 C 305.626 -0.295242 3.58888 0
M  V30 3176 C 305.479 1.02947 4.37861 0
M  V30 3177 C 306.798 -1.05502 4.27267 0
M  V30 3178 H 303.917 -0.034686 0.736183 0
M  V30 3179 H 306.559 0.602938 1.8018 0
M  V30 3180 H 304.709 -0.893563 3.78084 0
M  V30 3181 H 306.381 1.66348 4.30263 0
M  V30 3182 H 304.624 1.62885 4.02058 0
M  V30 3183 H 305.295 0.846281 5.45474 0
M  V30 3184 H 307.771 -0.547993 4.12476 0
M  V30 3185 H 306.647 -1.16077 5.36486 0
M  V30 3186 H 306.908 -2.08875 3.89645 0
M  V30 3187 N 305.967 -1.56429 0.191757 0
M  V30 3188 C 307.215 -1.97095 -0.447006 0
M  V30 3189 C 307.536 -1.07967 -1.62383 0
M  V30 3190 O 306.806 -0.150248 -1.95323 0
M  V30 3191 H 305.386 -0.727832 -0.168135 0
M  V30 3192 H 308.048 -1.92911 0.27771 0
M  V30 3193 H 307.144 -3.01848 -0.793371 0
M  V30 3194 N 307.445 0.0818655 -1.57387 0
M  V30 3195 C 308.722 0.815343 -1.77796 0
M  V30 3196 C 309.102 1.96289 -0.77679 0
M  V30 3197 O 308.45 2.27691 0.192106 0
M  V30 3198 C 308.66 1.29765 -3.23978 0
M  V30 3199 C 310.008 1.7351 -3.8753 0
M  V30 3200 O 311.032 1.39356 -3.27808 0
M  V30 3201 O 309.891 2.36708 -4.92576 0
M  V30 3202 H 306.985 0.389914 -0.729312 0
M  V30 3203 H 309.531 0.0627213 -1.69584 0
M  V30 3204 H 308.303 0.47608 -3.88393 0
M  V30 3205 H 307.926 2.11189 -3.36875 0
M  V30 3206 N 308.923 1.53595 0.353017 0
M  V30 3207 C 309.833 1.83897 1.45667 0
M  V30 3208 C 310.849 0.728334 1.58023 0
M  V30 3209 O 312.025 1.01968 1.73679 0
M  V30 3210 C 309.09 2.03383 2.80778 0
M  V30 3211 C 308.151 3.27262 2.77845 0
M  V30 3212 C 307.384 3.45809 4.06512 0
M  V30 3213 O 307.607 2.68387 5.03314 0
M  V30 3214 O 306.541 4.39207 4.11559 0
M  V30 3215 H 310.367 2.77686 1.2298 0
M  V30 3216 H 307.952 1.39132 0.544308 0
M  V30 3217 H 309.834 2.17698 3.60812 0
M  V30 3218 H 308.509 1.12783 3.03417 0
M  V30 3219 H 307.416 3.18359 1.96465 0
M  V30 3220 H 308.749 4.17824 2.60161 0
M  V30 3221 N 310.401 -0.613514 1.45168 0
M  V30 3222 C 311.649 -1.36997 1.48581 0
M  V30 3223 C 311.97 -1.94589 0.126545 0
M  V30 3224 O 311.24 -1.76816 -0.843372 0
M  V30 3225 H 309.82 -0.508558 0.547154 0
M  V30 3226 H 312.482 -0.720853 1.81079 0
M  V30 3227 H 311.578 -2.1924 2.22127 0
M  V30 3228 N 311.879 -1.3236 -0.855495 0
M  V30 3229 C 313.127 -1.22629 -1.60644 0
M  V30 3230 C 313.448 0.212136 -1.93843 0
M  V30 3231 O 312.718 1.13666 -1.59552 0
M  V30 3232 H 311.298 -0.450882 -0.595579 0
M  V30 3233 H 313.96 -1.65871 -1.02337 0
M  V30 3234 H 313.056 -1.80832 -2.54374 0
M  V30 3235 N 313.357 1.07166 -1.15556 0
M  V30 3236 C 314.604 1.79798 -0.931604 0
M  V30 3237 C 314.932 1.8682 0.54115 0
M  V30 3238 O 314.187 1.34942 1.41736 0
M  V30 3239 C 314.486 3.24707 -1.49332 0
M  V30 3240 C 314.152 3.37781 -2.98688 0
M  V30 3241 C 312.814 3.41057 -3.39461 0
M  V30 3242 C 315.166 3.40424 -3.94665 0
M  V30 3243 C 312.494 3.4458 -4.74849 0
M  V30 3244 C 314.846 3.45485 -5.29927 0
M  V30 3245 C 313.51 3.47039 -5.70193 0
M  V30 3246 H 312.78 0.657928 -0.340898 0
M  V30 3247 H 315.427 1.26091 -1.44129 0
M  V30 3248 H 313.732 3.81208 -0.904859 0
M  V30 3249 H 315.429 3.79486 -1.29582 0
M  V30 3250 H 312.019 3.35932 -2.66172 0
M  V30 3251 H 316.203 3.37113 -3.64237 0
M  V30 3252 H 311.459 3.44083 -5.05388 0
M  V30 3253 H 315.633 3.46476 -6.04092 0
M  V30 3254 H 313.26 3.49522 -6.75084 0
M  V30 3255 N 314.835 0.952656 1.25548 0
M  V30 3256 C 315.798 0.475794 2.24207 0
M  V30 3257 C 316.798 -0.419428 1.55234 0
M  V30 3258 O 317.988 -0.216994 1.72843 0
M  V30 3259 C 315.12 -0.312814 3.39462 0
M  V30 3260 H 316.313 1.34779 2.67908 0
M  V30 3261 H 313.866 0.735739 1.37901 0
M  V30 3262 H 314.601 -1.20257 3.01179 0
M  V30 3263 H 314.386 0.329404 3.90714 0
M  V30 3264 H 315.876 -0.635986 4.12729 0
M  V30 3265 N 316.313 -1.40141 0.720998 0
M  V30 3266 C 317.724 -1.83678 0.334553 0
M  V30 3267 C 318.075 -1.6027 -1.13173 0
M  V30 3268 O 317.2 -1.08643 -1.87152 0
M  V30 3269 C 317.795 -3.33437 0.600437 0
M  V30 3270 C 316.354 -3.75447 0.267642 0
M  V30 3271 C 315.501 -2.63296 0.870097 0
M  V30 3272 H 318.452 -1.29331 0.919732 0
M  V30 3273 H 318.473 -3.80269 -0.132517 0
M  V30 3274 H 317.985 -3.50442 1.66768 0
M  V30 3275 H 316.086 -3.64035 -0.794329 0
M  V30 3276 H 316.199 -4.73344 0.74042 0
M  V30 3277 H 314.563 -2.52954 0.297739 0
M  V30 3278 H 315.346 -2.83112 1.94172 0
M  V30 3279 N 317.792 -0.46758 -1.50504 0
M  V30 3280 C 318.74 0.342482 -2.30065 0
M  V30 3281 C 319.734 0.993596 -1.37201 0
M  V30 3282 O 320.94 0.925102 -1.54408 0
M  V30 3283 H 317.315 0.129283 -0.740803 0
M  V30 3284 H 319.286 -0.34899 -2.96352 0
M  V30 3285 C 318.035 1.4139 -3.17654 0
M  V30 3286 H 317.358 0.922264 -3.89017 0
M  V30 3287 H 318.798 1.95335 -3.76325 0
M  V30 3288 C 317.257 2.4139 -2.35016 0
M  V30 3289 O 317.787 3.46586 -2.03079 0
M  V30 3290 N 315.993 2.13021 -1.97662 0
M  V30 3291 H 315.54 1.27499 -2.23834 0
M  V30 3292 H 315.498 2.80164 -1.42673 0
M  V30 3293 N 319.27 1.56325 -0.20005 0
M  V30 3294 C 320.519 1.96895 0.437652 0
M  V30 3295 C 320.832 1.08999 1.62415 0
M  V30 3296 O 322.038 1.39372 2.32997 0
M  V30 3297 C 320.494 3.50198 0.830025 0
M  V30 3298 C 320.102 4.46765 -0.332461 0
M  V30 3299 C 321.846 3.99526 1.43453 0
M  V30 3300 C 319.753 5.91344 0.0811468 0
M  V30 3301 H 318.683 0.735209 0.167282 0
M  V30 3302 H 321.334 1.81148 -0.292853 0
M  V30 3303 H 319.716 3.61467 1.61734 0
M  V30 3304 H 320.89 4.47231 -1.11 0
M  V30 3305 H 319.205 4.07657 -0.848789 0
M  V30 3306 H 321.802 5.05025 1.75652 0
M  V30 3307 H 322.145 3.44122 2.34277 0
M  V30 3308 H 322.678 3.91393 0.71109 0
M  V30 3309 H 319.417 6.50685 -0.793033 0
M  V30 3310 H 318.937 5.94121 0.823445 0
M  V30 3311 H 320.616 6.44945 0.515252 0
M  V30 3312 N 320.748 -0.0735177 1.57428 0
M  V30 3313 C 321.678 -1.0879 2.06608 0
M  V30 3314 C 322.659 -1.40473 0.959237 0
M  V30 3315 O 323.844 -1.5013 1.23185 0
M  V30 3316 C 320.974 -2.40183 2.50857 0
M  V30 3317 C 319.928 -2.22858 3.65402 0
M  V30 3318 C 319.254 -3.59619 3.957 0
M  V30 3319 C 320.554 -1.65123 4.95511 0
M  V30 3320 H 322.248 -0.678673 2.91607 0
M  V30 3321 H 319.794 -0.325013 1.40284 0
M  V30 3322 H 321.747 -3.11437 2.83874 0
M  V30 3323 H 320.471 -2.83083 1.62885 0
M  V30 3324 H 319.13 -1.54045 3.32664 0
M  V30 3325 H 318.778 -4.00086 3.04861 0
M  V30 3326 H 318.478 -3.48866 4.72828 0
M  V30 3327 H 320.002 -4.32306 4.31212 0
M  V30 3328 H 321.416 -2.26241 5.26771 0
M  V30 3329 H 319.813 -1.65071 5.7695 0
M  V30 3330 H 320.883 -0.612559 4.81015 0
M  V30 3331 N 322.226 -1.5378 -0.344866 0
M  V30 3332 C 323.136 -1.84667 -1.4469 0
M  V30 3333 C 324.152 -0.736704 -1.57635 0
M  V30 3334 O 325.328 -1.02888 -1.73136 0
M  V30 3335 C 322.393 -2.04869 -2.79696 0
M  V30 3336 C 321.454 -3.28731 -2.76106 0
M  V30 3337 C 320.687 -3.4796 -4.04673 0
M  V30 3338 O 320.91 -2.71052 -5.01883 0
M  V30 3339 O 319.844 -4.41383 -4.09224 0
M  V30 3340 H 323.67 -2.78334 -1.21506 0
M  V30 3341 H 321.255 -1.39418 -0.536921 0
M  V30 3342 H 323.137 -2.19609 -3.59652 0
M  V30 3343 H 321.812 -1.14391 -3.02814 0
M  V30 3344 H 320.719 -3.19396 -1.94774 0
M  V30 3345 H 322.052 -4.19198 -2.57941 0
M  V30 3346 N 323.704 0.605807 -1.45491 0
M  V30 3347 C 324.652 1.73754 -1.54636 0
M  V30 3348 C 325.646 1.64207 -0.416219 0
M  V30 3349 O 326.852 1.69979 -0.592199 0
M  V30 3350 H 323.227 0.574073 -0.485741 0
M  V30 3351 H 325.198 1.63169 -2.49837 0
M  V30 3352 C 323.947 3.12135 -1.53189 0
M  V30 3353 H 323.27 3.20141 -2.39478 0
M  V30 3354 H 324.71 3.91147 -1.63645 0
M  V30 3355 C 323.169 3.35921 -0.256616 0
M  V30 3356 O 323.699 3.96194 0.662798 0
M  V30 3357 N 321.905 2.90204 -0.151751 0
M  V30 3358 H 321.452 2.41336 -0.90081 0
M  V30 3359 H 321.41 3.06492 0.700699 0
M  V30 3360 N 325.182 1.32811 0.848464 0
M  V30 3361 C 326.129 1.22265 1.95755 0
M  V30 3362 C 327.099 0.103413 1.65778 0
M  V30 3363 O 328.284 0.280033 1.88734 0
M  V30 3364 C 325.424 0.958014 3.31536 0
M  V30 3365 C 324.537 2.16262 3.73971 0
M  V30 3366 C 323.672 1.83295 4.98575 0
M  V30 3367 C 322.711 3.00041 5.33518 0
M  V30 3368 N 321.848 2.67125 6.49299 0
M  V30 3369 H 326.688 2.17128 2.04107 0
M  V30 3370 H 324.225 1.07982 0.998913 0
M  V30 3371 H 326.183 0.785052 4.09747 0
M  V30 3372 H 324.813 0.046159 3.22767 0
M  V30 3373 H 323.865 2.44565 2.91362 0
M  V30 3374 H 325.177 3.03572 3.95785 0
M  V30 3375 H 324.331 1.62586 5.84509 0
M  V30 3376 H 323.07 0.932078 4.7871 0
M  V30 3377 H 322.075 3.21374 4.46093 0
M  V30 3378 H 323.3 3.90869 5.55336 0
M  V30 3379 H 321.246 1.79586 6.3094 0
M  V30 3380 H 321.163 3.47965 6.71161 0
M  V30 3381 H 322.431 2.49861 7.3837 0
M  V30 3382 N 326.66 -1.06551 1.16123 0
M  V30 3383 C 327.57 -2.17484 0.879662 0
M  V30 3384 C 328.586 -1.73377 -0.147104 0
M  V30 3385 O 329.762 -2.01379 0.0289128 0
M  V30 3386 C 326.827 -3.44591 0.381829 0
M  V30 3387 C 325.888 -4.0322 1.4735 0
M  V30 3388 C 325.121 -5.24261 0.999324 0
M  V30 3389 O 325.344 -5.70198 -0.151957 0
M  V30 3390 O 324.278 -5.74775 1.78653 0
M  V30 3391 H 328.104 -2.44075 1.80724 0
M  V30 3392 H 325.689 -1.16042 0.940992 0
M  V30 3393 H 327.571 -4.21254 0.111053 0
M  V30 3394 H 326.246 -3.19532 -0.51777 0
M  V30 3395 H 325.153 -3.2806 1.79798 0
M  V30 3396 H 326.486 -4.32568 2.34831 0
M  V30 3397 N 328.138 -0.959301 -1.25041 0
M  V30 3398 C 329.386 -0.615393 -1.92503 0
M  V30 3399 C 329.707 0.850969 -1.75452 0
M  V30 3400 O 328.977 1.60658 -1.12098 0
M  V30 3401 H 327.557 -0.224613 -0.712431 0
M  V30 3402 H 330.219 -1.21855 -1.5211 0
M  V30 3403 H 329.315 -0.848738 -3.00338 0
M  V30 3404 N 329.616 1.39756 -0.72842 0
M  V30 3405 C 330.546 2.33289 -0.0991354 0
M  V30 3406 C 331.527 1.53568 0.731489 0
M  V30 3407 O 332.712 1.81987 0.677807 0
M  V30 3408 C 329.842 3.3763 0.813834 0
M  V30 3409 C 328.796 4.2791 0.0878663 0
M  V30 3410 C 328.122 5.22894 1.11741 0
M  V30 3411 C 329.422 5.11314 -1.06563 0
M  V30 3412 H 331.116 2.86163 -0.880408 0
M  V30 3413 H 328.662 1.37591 -0.424819 0
M  V30 3414 H 330.615 4.0201 1.26355 0
M  V30 3415 H 329.339 2.83181 1.62715 0
M  V30 3416 H 327.998 3.65 -0.342159 0
M  V30 3417 H 327.646 4.64744 1.92412 0
M  V30 3418 H 327.346 5.84143 0.636477 0
M  V30 3419 H 328.87 5.90151 1.56697 0
M  V30 3420 H 330.284 5.69076 -0.694671 0
M  V30 3421 H 328.681 5.81671 -1.47577 0
M  V30 3422 H 329.751 4.46534 -1.89038 0
M  V30 3423 N 331.094 0.475555 1.50254 0
M  V30 3424 C 332.004 -0.321501 2.32387 0
M  V30 3425 C 333.02 -0.991755 1.42969 0
M  V30 3426 O 334.196 -0.978747 1.76018 0
M  V30 3427 C 331.261 -1.38667 3.17762 0
M  V30 3428 C 330.322 -0.732538 4.23004 0
M  V30 3429 C 329.555 -1.74695 5.04299 0
M  V30 3430 O 329.778 -2.97399 4.86734 0
M  V30 3431 O 328.712 -1.31631 5.8733 0
M  V30 3432 H 332.538 0.350071 3.01676 0
M  V30 3433 H 330.123 0.237321 1.47503 0
M  V30 3434 H 332.005 -2.00354 3.70724 0
M  V30 3435 H 330.68 -2.04163 2.51196 0
M  V30 3436 H 329.587 -0.0765902 3.74022 0
M  V30 3437 H 330.92 -0.120452 4.92053 0
M  V30 3438 N 332.573 -1.56217 0.208337 0
M  V30 3439 C 333.503 -2.22694 -0.702116 0
M  V30 3440 C 334.484 -1.19432 -1.2112 0
M  V30 3441 O 335.669 -1.47978 -1.25762 0
M  V30 3442 C 332.799 -2.8966 -1.9161 0
M  V30 3443 C 331.753 -3.9928 -1.5414 0
M  V30 3444 C 331.079 -4.53476 -2.83308 0
M  V30 3445 C 332.379 -5.17012 -0.741339 0
M  V30 3446 H 334.073 -2.99034 -0.147898 0
M  V30 3447 H 331.619 -1.43831 -0.0696951 0
M  V30 3448 H 333.572 -3.34852 -2.55836 0
M  V30 3449 H 332.296 -2.10746 -2.49507 0
M  V30 3450 H 330.955 -3.54799 -0.922668 0
M  V30 3451 H 330.603 -3.71308 -3.39322 0
M  V30 3452 H 330.303 -5.27451 -2.58976 0
M  V30 3453 H 331.827 -5.01378 -3.485 0
M  V30 3454 H 333.241 -5.58667 -1.28699 0
M  V30 3455 H 331.638 -5.97137 -0.595627 0
M  V30 3456 H 332.708 -4.8423 0.254851 0
M  V30 3457 N 334.051 0.0651679 -1.57465 0
M  V30 3458 C 334.981 1.07693 -2.07182 0
M  V30 3459 C 335.962 1.39962 -0.966673 0
M  V30 3460 O 337.147 1.49475 -1.2398 0
M  V30 3461 C 334.277 2.3885 -2.52127 0
M  V30 3462 C 333.231 2.20917 -3.66579 0
M  V30 3463 C 332.557 3.57515 -3.97601 0
M  V30 3464 C 333.857 1.62493 -4.9638 0
M  V30 3465 H 335.551 0.663199 -2.91962 0
M  V30 3466 H 333.097 0.317569 -1.40455 0
M  V30 3467 H 335.05 3.09928 -2.85522 0
M  V30 3468 H 333.774 2.82215 -1.64384 0
M  V30 3469 H 332.433 1.52279 -3.33477 0
M  V30 3470 H 332.081 3.98463 -3.06979 0
M  V30 3471 H 331.781 3.46353 -4.74672 0
M  V30 3472 H 333.305 4.30013 -4.33499 0
M  V30 3473 H 334.719 2.23445 -5.27963 0
M  V30 3474 H 333.116 1.62009 -5.77818 0
M  V30 3475 H 334.186 0.587041 -4.81333 0
M  V30 3476 N 335.529 1.53961 0.336706 0
M  V30 3477 C 336.476 1.82428 1.41381 0
M  V30 3478 C 337.446 0.670444 1.51968 0
M  V30 3479 O 338.631 0.915565 1.67398 0
M  V30 3480 C 335.771 2.04564 2.77934 0
M  V30 3481 C 334.884 3.32267 2.76084 0
M  V30 3482 C 334.019 3.44434 4.04399 0
M  V30 3483 C 333.058 4.66061 3.96804 0
M  V30 3484 N 332.195 4.75224 5.16823 0
M  V30 3485 H 337.035 2.74324 1.16405 0
M  V30 3486 H 334.572 1.35869 0.563752 0
M  V30 3487 H 336.53 2.15388 3.57301 0
M  V30 3488 H 335.16 1.15974 3.01247 0
M  V30 3489 H 334.212 3.3025 1.88784 0
M  V30 3490 H 335.524 4.21733 2.66351 0
M  V30 3491 H 334.678 3.54728 4.92192 0
M  V30 3492 H 333.417 2.53037 4.16921 0
M  V30 3493 H 332.422 4.55838 3.07396 0
M  V30 3494 H 333.647 5.58829 3.85858 0
M  V30 3495 H 331.593 3.86739 5.29876 0
M  V30 3496 H 331.51 5.58636 5.09374 0
M  V30 3497 H 332.778 4.89835 6.06367 0
M  V30 3498 N 337.007 -0.598083 1.45811 0
M  V30 3499 C 338.235 -1.38322 1.53866 0
M  V30 3500 C 338.65 -1.87992 0.174479 0
M  V30 3501 O 338.007 -1.62756 -0.825627 0
M  V30 3502 C 338.058 -2.58125 2.53089 0
M  V30 3503 O 337.779 -2.10516 3.84206 0
M  V30 3504 C 339.28 -3.50869 2.70935 0
M  V30 3505 H 336.5 -0.423093 0.520801 0
M  V30 3506 H 339.044 -0.728527 1.91083 0
M  V30 3507 H 337.199 -3.19615 2.18917 0
M  V30 3508 H 337.613 -2.88425 4.38077 0
M  V30 3509 H 339.087 -4.31451 3.44317 0
M  V30 3510 H 339.564 -4.01822 1.77301 0
M  V30 3511 H 340.17 -2.95225 3.06141 0
M  V30 3512 N 338.485 -1.33259 -0.841409 0
M  V30 3513 C 339.448 -1.23221 -1.9326 0
M  V30 3514 C 340.448 -0.151895 -1.60081 0
M  V30 3515 O 341.638 -0.403246 -1.69468 0
M  V30 3516 C 338.77 -0.898123 -3.28856 0
M  V30 3517 H 339.963 -2.2021 -2.03587 0
M  V30 3518 H 337.516 -1.17281 -1.03319 0
M  V30 3519 H 338.251 0.0693841 -3.24226 0
M  V30 3520 H 338.036 -1.67934 -3.54317 0
M  V30 3521 H 339.526 -0.852563 -4.08805 0
M  V30 3522 N 339.963 1.05934 -1.16686 0
M  V30 3523 C 341.212 1.78188 -0.945085 0
M  V30 3524 C 341.525 1.88338 0.528021 0
M  V30 3525 O 342.731 2.57258 0.867799 0
M  V30 3526 C 341.187 3.20277 -1.64167 0
M  V30 3527 C 340.795 3.18281 -3.15279 0
M  V30 3528 C 342.539 3.97039 -1.502 0
M  V30 3529 C 340.446 4.55112 -3.7766 0
M  V30 3530 H 339.376 0.667866 -0.349959 0
M  V30 3531 H 342.027 1.18794 -1.39858 0
M  V30 3532 H 340.409 3.79952 -1.11589 0
M  V30 3533 H 341.583 2.68167 -3.74731 0
M  V30 3534 H 339.898 2.55018 -3.29173 0
M  V30 3535 H 342.495 4.98194 -1.94183 0
M  V30 3536 H 342.838 4.13845 -0.451461 0
M  V30 3537 H 343.371 3.43894 -1.99954 0
M  V30 3538 H 340.11 4.43512 -4.82677 0
M  V30 3539 H 339.63 5.05406 -3.22994 0
M  V30 3540 H 341.309 5.24064 -3.79428 0
M  V30 3541 N 341.441 0.965919 1.2453 0
M  V30 3542 C 342.689 0.625593 1.92174 0
M  V30 3543 C 343.01 -0.841652 1.75901 0
M  V30 3544 O 342.28 -1.60061 1.12948 0
M  V30 3545 H 340.86 0.228388 0.71123 0
M  V30 3546 H 343.522 1.2266 1.51461 0
M  V30 3547 H 342.618 0.864653 2.99884 0
M  V30 3548 N 342.919 -1.39368 0.735821 0
M  V30 3549 C 343.866 -2.30599 0.0963825 0
M  V30 3550 C 344.836 -1.49257 -0.728794 0
M  V30 3551 O 346.021 -1.77941 -0.688588 0
M  V30 3552 C 343.161 -3.35596 -0.804305 0
M  V30 3553 C 342.274 -4.31987 0.0335761 0
M  V30 3554 C 341.409 -5.24053 -0.868461 0
M  V30 3555 C 340.448 -6.12095 -0.0258776 0
M  V30 3556 N 339.585 -6.96514 -0.883893 0
M  V30 3557 H 344.425 -2.8471 0.880002 0
M  V30 3558 H 341.962 -1.40188 0.445619 0
M  V30 3559 H 343.92 -3.95062 -1.34096 0
M  V30 3560 H 342.55 -2.82938 -1.55389 0
M  V30 3561 H 341.602 -3.74133 0.68766 0
M  V30 3562 H 342.914 -4.94074 0.685036 0
M  V30 3563 H 342.068 -5.88549 -1.47293 0
M  V30 3564 H 340.807 -4.62289 -1.5537 0
M  V30 3565 H 339.812 -5.4661 0.591386 0
M  V30 3566 H 341.037 -6.75923 0.656156 0
M  V30 3567 H 338.983 -6.37318 -1.55441 0
M  V30 3568 H 338.9 -7.55448 -0.288931 0
M  V30 3569 H 340.168 -7.65439 -1.4739 0
M  V30 3570 N 344.397 -0.483516 -1.5 0
M  V30 3571 C 345.36 0.292965 -2.2732 0
M  V30 3572 C 346.36 0.909499 -1.32608 0
M  V30 3573 O 347.55 0.776745 -1.55924 0
M  V30 3574 C 344.682 1.41854 -3.09984 0
M  V30 3575 H 345.875 -0.385289 -2.97415 0
M  V30 3576 H 343.428 -0.237942 -1.54478 0
M  V30 3577 H 344.163 2.13148 -2.44414 0
M  V30 3578 H 343.948 0.982114 -3.79601 0
M  V30 3579 H 345.438 1.96597 -3.68429 0
M  V30 3580 N 345.875 1.56104 -0.216619 0
M  V30 3581 C 347.123 1.97781 0.415593 0
M  V30 3582 C 347.444 1.10536 1.60645 0
M  V30 3583 O 346.714 0.181303 1.95059 0
M  V30 3584 H 345.294 0.730415 0.156534 0
M  V30 3585 H 347.956 1.92445 -0.308366 0
M  V30 3586 H 347.052 3.03072 0.74525 0
M  V30 3587 N 347.353 -0.0568162 1.57498 0
M  V30 3588 C 348.583 -0.764515 1.91934 0
M  V30 3589 C 348.991 -1.70877 0.81227 0
M  V30 3590 O 348.334 -1.82351 -0.222213 0
M  V30 3591 C 348.396 -1.5994 3.21962 0
M  V30 3592 C 348.06 -0.822925 4.4953 0
M  V30 3593 C 349.057 -0.135464 5.19723 0
M  V30 3594 C 346.742 -0.785666 4.96117 0
M  V30 3595 C 348.736 0.578861 6.34766 0
M  V30 3596 C 346.423 -0.0675784 6.11063 0
M  V30 3597 C 347.421 0.613471 6.80239 0
M  V30 3598 O 347.109 1.31996 7.92989 0
M  V30 3599 H 346.841 -0.221647 0.63863 0
M  V30 3600 H 349.395 -0.0268218 2.05382 0
M  V30 3601 H 347.625 -2.38026 3.04763 0
M  V30 3602 H 349.314 -2.18715 3.41934 0
M  V30 3603 H 350.08 -0.155458 4.84751 0
M  V30 3604 H 345.959 -1.30524 4.42136 0
M  V30 3605 H 349.503 1.111 6.88696 0
M  V30 3606 H 345.4 -0.0455636 6.45484 0
M  V30 3607 H 346.168 1.23077 8.09194 0
M  V30 3608 N 348.832 -1.54138 -0.328536 0
M  V30 3609 C 350.06 -1.76062 -1.08673 0
M  V30 3610 C 350.475 -0.506852 -1.81869 0
M  V30 3611 O 349.832 0.522223 -1.74869 0
M  V30 3612 C 349.883 -2.95054 -2.08866 0
M  V30 3613 O 349.604 -4.15583 -1.38644 0
M  V30 3614 C 351.105 -3.2915 -2.96943 0
M  V30 3615 H 348.325 -0.587889 -0.323461 0
M  V30 3616 H 350.869 -2.0101 -0.376175 0
M  V30 3617 H 349.024 -2.72394 -2.75464 0
M  V30 3618 H 349.438 -4.82481 -2.05699 0
M  V30 3619 H 350.912 -4.15723 -3.63151 0
M  V30 3620 H 351.389 -2.461 -3.63774 0
M  V30 3621 H 351.995 -3.53871 -2.35914 0
M  V30 3622 N 350.31 0.590341 -1.46126 0
M  V30 3623 C 351.587 1.35029 -1.41515 0
M  V30 3624 C 351.967 2.10888 -0.0946472 0
M  V30 3625 O 351.315 2.08998 0.923693 0
M  V30 3626 C 351.525 2.28269 -2.63997 0
M  V30 3627 C 352.873 2.90338 -3.09821 0
M  V30 3628 O 353.897 2.38585 -2.64492 0
M  V30 3629 O 352.756 3.84321 -3.88535 0
M  V30 3630 H 349.85 0.606317 -0.562413 0
M  V30 3631 H 352.396 0.611994 -1.58281 0
M  V30 3632 H 351.168 1.71591 -3.51671 0
M  V30 3633 H 350.791 3.0945 -2.49652 0
M  V30 3634 N 351.788 1.33704 0.83433 0
M  V30 3635 C 352.735 1.24335 1.94447 0
M  V30 3636 C 353.705 0.120991 1.65659 0
M  V30 3637 O 354.89 0.300035 1.88426 0
M  V30 3638 C 352.03 0.993124 3.30501 0
M  V30 3639 C 351.143 2.20217 3.71657 0
M  V30 3640 C 350.278 1.88572 4.96602 0
M  V30 3641 C 349.317 3.05683 5.30306 0
M  V30 3642 N 348.454 2.73997 6.46429 0
M  V30 3643 H 353.294 2.1928 2.01792 0
M  V30 3644 H 350.831 1.09035 0.987404 0
M  V30 3645 H 352.789 0.828467 4.08892 0
M  V30 3646 H 351.419 0.0803902 3.227 0
M  V30 3647 H 350.471 2.47642 2.88752 0
M  V30 3648 H 351.783 3.07752 3.92543 0
M  V30 3649 H 350.937 1.68776 5.82752 0
M  V30 3650 H 349.676 0.982799 4.77695 0
M  V30 3651 H 348.681 3.26088 4.42659 0
M  V30 3652 H 349.906 3.96737 5.51159 0
M  V30 3653 H 347.852 1.86268 6.28999 0
M  V30 3654 H 347.769 3.55064 6.67432 0
M  V30 3655 H 349.037 2.57679 7.35678 0
M  V30 3656 N 353.266 -1.05314 1.17247 0
M  V30 3657 C 354.512 -1.78557 0.961513 0
M  V30 3658 C 354.845 -1.87419 -0.508697 0
M  V30 3659 O 354.12 -1.37307 -1.37757 0
M  V30 3660 C 354.403 -3.22514 1.60176 0
M  V30 3661 C 354.256 -3.21673 3.14399 0
M  V30 3662 C 355.575 -4.20318 1.30463 0
M  V30 3663 H 352.694 -0.6482 0.350723 0
M  V30 3664 H 355.336 -1.23102 1.44727 0
M  V30 3665 H 353.486 -3.69867 1.18871 0
M  V30 3666 H 355.158 -2.82405 3.64753 0
M  V30 3667 H 353.401 -2.60048 3.47214 0
M  V30 3668 H 354.072 -4.23271 3.54324 0
M  V30 3669 H 356.548 -3.81454 1.66229 0
M  V30 3670 H 355.424 -5.19289 1.77848 0
M  V30 3671 H 355.685 -4.41526 0.22521 0
M  V30 3672 N 354.744 -0.972509 -1.24016 0
M  V30 3673 C 355.99 -0.637978 -1.92504 0
M  V30 3674 C 356.323 0.825383 -1.75787 0
M  V30 3675 O 355.598 1.59442 -1.11393 0
M  V30 3676 C 355.881 -1.01942 -3.45369 0
M  V30 3677 C 355.734 -2.53983 -3.71231 0
M  V30 3678 C 357.053 -0.55751 -4.36555 0
M  V30 3679 H 354.172 -0.233248 -0.699117 0
M  V30 3680 H 356.814 -1.21238 -1.46292 0
M  V30 3681 H 354.964 -0.530656 -3.84859 0
M  V30 3682 H 356.636 -3.10374 -3.41271 0
M  V30 3683 H 354.879 -2.96968 -3.16216 0
M  V30 3684 H 355.55 -2.75723 -4.78206 0
M  V30 3685 H 358.026 -0.977029 -4.04467 0
M  V30 3686 H 356.902 -0.85292 -5.42233 0
M  V30 3687 H 357.163 0.542328 -4.38761 0
M  V30 3688 N 356.222 1.38976 -0.743202 0
M  V30 3689 C 357.471 1.99581 -0.291592 0
M  V30 3690 C 357.784 1.59656 1.13001 0
M  V30 3691 O 358.99 2.13157 1.68156 0
M  V30 3692 C 357.446 3.56813 -0.470391 0
M  V30 3693 C 357.054 4.05695 -1.90041 0
M  V30 3694 C 358.798 4.24423 -0.0809709 0
M  V30 3695 C 356.705 5.5553 -2.02832 0
M  V30 3696 H 355.635 0.746615 -0.105272 0
M  V30 3697 H 358.286 1.58872 -0.918258 0
M  V30 3698 H 356.668 3.95359 0.225299 0
M  V30 3699 H 357.842 3.78464 -2.62872 0
M  V30 3700 H 356.157 3.50775 -2.24379 0
M  V30 3701 H 358.754 5.34474 -0.155445 0
M  V30 3702 H 359.097 4.04962 0.96497 0
M  V30 3703 H 359.63 3.9108 -0.728124 0
M  V30 3704 H 356.369 5.79881 -3.05643 0
M  V30 3705 H 355.889 5.84537 -1.34448 0
M  V30 3706 H 357.568 6.21069 -1.81335 0
M  V30 3707 N 357.7 0.491464 1.49741 0
M  V30 3708 C 358.948 -0.0563141 2.02022 0
M  V30 3709 C 359.269 -1.38363 1.37407 0
M  V30 3710 O 358.539 -1.88702 0.526166 0
M  V30 3711 H 357.119 -0.0238014 0.746621 0
M  V30 3712 H 359.781 0.646533 1.83864 0
M  V30 3713 H 358.877 -0.192967 3.11503 0
M  V30 3714 N 359.178 -1.55987 0.224894 0
M  V30 3715 C 360.111 -2.16413 -0.723929 0
M  V30 3716 C 361.089 -1.10952 -1.18863 0
M  V30 3717 O 362.273 -1.39225 -1.27077 0
M  V30 3718 C 359.4 -2.74711 -1.98121 0
M  V30 3719 C 358.446 -3.9303 -1.6562 0
M  V30 3720 S 359.279 -5.29817 -0.778058 0
M  V30 3721 C 360.435 -5.91555 -2.04483 0
M  V30 3722 H 360.668 -2.96555 -0.210347 0
M  V30 3723 H 358.201 -1.54397 0.00955457 0
M  V30 3724 H 360.159 -3.08938 -2.70311 0
M  V30 3725 H 358.82 -1.94555 -2.46591 0
M  V30 3726 H 358.013 -4.32334 -2.59043 0
M  V30 3727 H 357.615 -3.59966 -1.01491 0
M  V30 3728 H 359.907 -6.07732 -2.99446 0
M  V30 3729 H 360.85 -6.87498 -1.69563 0
M  V30 3730 H 361.258 -5.20419 -2.18688 0
M  V30 3731 N 360.656 0.0484629 -1.57525 0
M  V30 3732 C 361.933 0.777447 -1.79486 0
M  V30 3733 C 362.313 1.94597 -0.818251 0
M  V30 3734 O 361.661 2.28047 0.143767 0
M  V30 3735 C 361.871 1.22864 -3.26658 0
M  V30 3736 C 363.219 1.65251 -3.91123 0
M  V30 3737 O 364.243 1.32372 -3.3069 0
M  V30 3738 O 363.102 2.26207 -4.97486 0
M  V30 3739 H 360.196 0.374357 -0.737419 0
M  V30 3740 H 362.742 0.0267359 -1.69679 0
M  V30 3741 H 361.514 0.393589 -3.89316 0
M  V30 3742 H 361.137 2.03996 -3.41279 0
M  V30 3743 N 362.134 1.5431 0.320358 0
M  V30 3744 C 363.38 1.72924 1.05949 0
M  V30 3745 C 363.713 0.503185 1.87568 0
M  V30 3746 O 362.988 -0.499839 1.87968 0
M  V30 3747 C 363.271 3.00676 1.98156 0
M  V30 3748 C 363.124 4.3354 1.19845 0
M  V30 3749 C 364.443 3.24198 2.9763 0
M  V30 3750 H 361.562 0.629195 0.383774 0
M  V30 3751 H 364.204 1.87008 0.335854 0
M  V30 3752 H 362.354 2.888 2.59859 0
M  V30 3753 H 364.026 4.57305 0.605773 0
M  V30 3754 H 362.269 4.309 0.500784 0
M  V30 3755 H 362.94 5.19156 1.87567 0
M  V30 3756 H 365.416 3.35557 2.4605 0
M  V30 3757 H 364.292 4.14938 3.59329 0
M  V30 3758 H 364.553 2.41577 3.7026 0
M  V30 3759 N 363.613 -0.582584 1.46437 0
M  V30 3760 C 364.576 -1.67366 1.56592 0
M  V30 3761 C 365.576 -1.54575 0.443072 0
M  V30 3762 O 366.766 -1.59191 0.707381 0
M  V30 3763 C 363.898 -3.06791 1.48634 0
M  V30 3764 H 365.091 -1.5972 2.5383 0
M  V30 3765 H 362.644 -0.800432 1.34249 0
M  V30 3766 H 363.379 -3.19993 0.526763 0
M  V30 3767 H 363.164 -3.17484 2.30101 0
M  V30 3768 H 364.654 -3.86218 1.58826 0
M  V30 3769 N 365.091 -1.34144 -0.827227 0
M  V30 3770 C 366.054 -1.25264 -1.91942 0
M  V30 3771 C 367.054 -0.168866 -1.59911 0
M  V30 3772 O 368.244 -0.421198 -1.69031 0
M  V30 3773 C 365.376 -0.932952 -3.27885 0
M  V30 3774 H 366.569 -2.22357 -2.0124 0
M  V30 3775 H 364.122 -1.1837 -1.0207 0
M  V30 3776 H 364.857 0.0349917 -3.24281 0
M  V30 3777 H 364.642 -1.71682 -3.52516 0
M  V30 3778 H 366.132 -0.895874 -4.07877 0
M  V30 3779 N 366.569 1.04691 -1.17803 0
M  V30 3780 C 367.794 1.81984 -0.994813 0
M  V30 3781 C 368.219 1.82586 0.452112 0
M  V30 3782 O 367.577 1.23854 1.324 0
M  V30 3783 C 367.625 3.2575 -1.54659 0
M  V30 3784 O 366.729 4.05267 -0.763728 0
M  V30 3785 H 366.07 0.562483 -0.352857 0
M  V30 3786 H 368.6 1.3189 -1.56417 0
M  V30 3787 H 368.61 3.76541 -1.57102 0
M  V30 3788 H 367.285 3.24627 -2.59981 0
M  V30 3789 H 365.862 3.63972 -0.811108 0
M  V30 3790 N 368.047 0.979072 1.23499 0
M  V30 3791 C 368.957 0.526431 2.28617 0
M  V30 3792 C 369.973 -0.418126 1.68901 0
M  V30 3793 O 371.149 -0.288372 1.99325 0
M  V30 3794 C 368.214 -0.165235 3.46306 0
M  V30 3795 C 367.275 0.82056 4.21385 0
M  V30 3796 C 366.508 0.161807 5.33455 0
M  V30 3797 O 366.731 -1.04742 5.60701 0
M  V30 3798 O 365.665 0.859708 5.95729 0
M  V30 3799 H 369.491 1.4006 2.69475 0
M  V30 3800 H 367.076 0.746643 1.29405 0
M  V30 3801 H 368.958 -0.553287 4.17752 0
M  V30 3802 H 367.633 -1.01419 3.07402 0
M  V30 3803 H 366.54 1.25929 3.52268 0
M  V30 3804 H 367.873 1.63828 4.64135 0
M  V30 3805 N 369.525 -1.3858 0.750561 0
M  V30 3806 C 370.772 -2.00184 0.305373 0
M  V30 3807 C 371.1 -1.59575 -1.11203 0
M  V30 3808 O 370.355 -0.823236 -1.77542 0
M  V30 3809 C 370.654 -3.55455 0.372373 0
M  V30 3810 C 370.32 -4.15765 1.745 0
M  V30 3811 C 368.982 -4.31951 2.12065 0
M  V30 3812 C 371.334 -4.49067 2.64553 0
M  V30 3813 C 368.662 -4.78734 3.39162 0
M  V30 3814 C 371.014 -4.97265 3.91038 0
M  V30 3815 C 369.678 -5.11658 4.28676 0
M  V30 3816 H 368.948 -0.732526 0.111744 0
M  V30 3817 H 371.595 -1.65673 0.960451 0
M  V30 3818 H 369.9 -3.90084 -0.366272 0
M  V30 3819 H 371.597 -4.00999 0.00953918 0
M  V30 3820 H 368.187 -4.03579 1.44297 0
M  V30 3821 H 372.371 -4.36166 2.36796 0
M  V30 3822 H 367.627 -4.88062 3.68246 0
M  V30 3823 H 371.801 -5.22003 4.60962 0
M  V30 3824 H 369.428 -5.47668 5.27222 0
M  V30 3825 N 371.003 -0.499398 -1.49478 0
M  V30 3826 C 372.25 0.0456899 -2.02448 0
M  V30 3827 C 372.578 1.37142 -1.37921 0
M  V30 3828 O 371.833 1.89111 -0.503544 0
M  V30 3829 C 372.132 0.248424 -3.56536 0
M  V30 3830 C 371.798 -0.999107 -4.39692 0
M  V30 3831 C 370.46 -1.34108 -4.62135 0
M  V30 3832 C 372.812 -1.82842 -4.88076 0
M  V30 3833 C 370.14 -2.51191 -5.30208 0
M  V30 3834 C 372.492 -2.99076 -5.57437 0
M  V30 3835 C 371.156 -3.33655 -5.78127 0
M  V30 3836 H 370.426 0.0167191 -0.740811 0
M  V30 3837 H 373.073 -0.65923 -1.79795 0
M  V30 3838 H 371.378 1.03586 -3.77859 0
M  V30 3839 H 373.075 0.684605 -3.95113 0
M  V30 3840 H 369.665 -0.722729 -4.22463 0
M  V30 3841 H 373.849 -1.57737 -4.70566 0
M  V30 3842 H 369.105 -2.78221 -5.44429 0
M  V30 3843 H 373.279 -3.63664 -5.93904 0
M  V30 3844 H 370.906 -4.24483 -6.30649 0
M  V30 3845 N 372.481 1.55866 -0.233164 0
M  V30 3846 C 373.897 1.59133 0.121988 0
M  V30 3847 C 374.097 1.25016 1.58029 0
M  V30 3848 O 373.153 0.990922 2.32243 0
M  V30 3849 C 374.466 2.99932 -0.214792 0
M  V30 3850 C 376.014 3.12601 -0.157971 0
M  V30 3851 C 376.489 4.55597 -0.46859 0
M  V30 3852 N 377.98 4.61305 -0.418585 0
M  V30 3853 C 378.715 5.69903 -0.63227 0
M  V30 3854 N 378.211 6.86819 -0.90835 0
M  V30 3855 N 380.004 5.59264 -0.563913 0
M  V30 3856 H 372.155 1.76315 -1.18434 0
M  V30 3857 H 374.418 0.820093 -0.475553 0
M  V30 3858 H 374.124 3.29588 -1.22739 0
M  V30 3859 H 373.998 3.74327 0.464691 0
M  V30 3860 H 376.385 2.82735 0.845283 0
M  V30 3861 H 376.466 2.40511 -0.871102 0
M  V30 3862 H 376.11 4.86182 -1.46934 0
M  V30 3863 H 376.04 5.25928 0.265865 0
M  V30 3864 H 378.531 3.77297 -0.213368 0
M  V30 3865 H 378.844 7.65507 -1.05919 0
M  V30 3866 H 377.189 6.88536 -0.945673 0
M  V30 3867 H 380.38 4.66802 -0.348372 0
M  V30 3868 H 380.553 6.43831 -0.733847 0
M  V30 3869 N 373.959 -0.0401083 1.57549 0
M  V30 3870 C 375.184 -0.748931 1.93406 0
M  V30 3871 C 375.609 -1.68686 0.832274 0
M  V30 3872 O 374.967 -1.80047 -0.212818 0
M  V30 3873 C 375.015 -1.4916 3.28304 0
M  V30 3874 O 374.119 -2.6042 3.19774 0
M  V30 3875 H 373.46 -0.202212 0.63246 0
M  V30 3876 H 375.99 0.00112086 2.046 0
M  V30 3877 H 376 -1.86395 3.62934 0
M  V30 3878 H 374.675 -0.80364 4.08062 0
M  V30 3879 H 373.252 -2.25808 2.96758 0
M  V30 3880 N 375.437 -1.54477 -0.31217 0
M  V30 3881 C 376.685 -1.72884 -1.04668 0
M  V30 3882 C 377.006 -0.511477 -1.88173 0
M  V30 3883 O 376.276 0.474407 -1.90069 0
M  V30 3884 H 374.856 -0.637461 -0.389425 0
M  V30 3885 H 377.518 -1.91807 -0.345852 0
M  V30 3886 H 376.614 -2.61334 -1.70619 0
M  V30 3887 N 376.915 0.57481 -1.46744 0
M  V30 3888 C 377.862 1.68329 -1.57905 0
M  V30 3889 C 378.832 1.60625 -0.422927 0
M  V30 3890 O 380.017 1.79721 -0.640711 0
M  V30 3891 C 377.157 3.06665 -1.58274 0
M  V30 3892 C 376.27 3.24935 -2.84678 0
M  V30 3893 C 375.405 4.53566 -2.76499 0
M  V30 3894 C 374.444 4.65207 -3.97806 0
M  V30 3895 N 373.581 5.85172 -3.87967 0
M  V30 3896 H 378.421 1.58127 -2.52587 0
M  V30 3897 H 375.958 0.770552 -1.25303 0
M  V30 3898 H 377.916 3.86745 -1.56473 0
M  V30 3899 H 376.546 3.15745 -0.671194 0
M  V30 3900 H 375.598 2.38405 -2.96424 0
M  V30 3901 H 376.91 3.29403 -3.7456 0
M  V30 3902 H 376.064 5.41885 -2.72848 0
M  V30 3903 H 374.803 4.51548 -1.8427 0
M  V30 3904 H 373.808 3.75304 -4.0178 0
M  V30 3905 H 375.033 4.68997 -4.9114 0
M  V30 3906 H 372.979 5.84137 -2.98529 0
M  V30 3907 H 372.896 5.90943 -4.71511 0
M  V30 3908 H 374.164 6.759 -3.88303 0
M  V30 3909 N 378.394 1.34581 0.820102 0
M  V30 3910 C 379.624 1.29991 1.6058 0
M  V30 3911 C 380.032 -0.127588 1.88769 0
M  V30 3912 O 379.375 -1.08595 1.48165 0
M  V30 3913 C 379.437 2.02548 2.9701 0
M  V30 3914 C 379.101 3.51794 2.91701 0
M  V30 3915 C 380.098 4.46647 2.66087 0
M  V30 3916 C 377.783 3.94249 3.11245 0
M  V30 3917 C 379.777 5.81929 2.60071 0
M  V30 3918 C 377.464 5.2963 3.04853 0
M  V30 3919 C 378.462 6.23282 2.793 0
M  V30 3920 O 378.15 7.56181 2.72847 0
M  V30 3921 H 377.882 0.448539 0.505756 0
M  V30 3922 H 380.436 1.77811 1.02822 0
M  V30 3923 H 378.666 1.49345 3.56697 0
M  V30 3924 H 380.355 1.91211 3.58041 0
M  V30 3925 H 381.121 4.15168 2.5072 0
M  V30 3926 H 377 3.21749 3.30149 0
M  V30 3927 H 380.544 6.54999 2.40046 0
M  V30 3928 H 376.441 5.60727 3.19774 0
M  V30 3929 H 377.209 7.6595 2.88553 0
M  V30 3930 N 379.872 -1.04064 1.18357 0
M  V30 3931 C 381.149 -1.74252 0.888581 0
M  V30 3932 C 381.529 -2.02138 -0.60856 0
M  V30 3933 O 380.877 -1.66656 -1.56327 0
M  V30 3934 C 381.087 -3.0277 1.73584 0
M  V30 3935 C 382.435 -3.76506 1.96286 0
M  V30 3936 O 383.459 -3.12668 1.70637 0
M  V30 3937 O 382.318 -4.91243 2.39464 0
M  V30 3938 H 379.412 -0.758271 0.330082 0
M  V30 3939 H 381.958 -1.1013 1.2911 0
M  V30 3940 H 380.73 -2.78299 2.75073 0
M  V30 3941 H 380.353 -3.74631 1.33183 0
M  V30 3942 N 381.35 -0.985608 -1.22978 0
M  V30 3943 C 382.28 -0.549649 -2.26939 0
M  V30 3944 C 383.261 0.419803 -1.64838 0
M  V30 3945 O 384.446 0.31203 -1.91677 0
M  V30 3946 C 381.576 0.143652 -3.47003 0
M  V30 3947 C 380.53 -0.743606 -4.21491 0
M  V30 3948 C 379.856 0.0822027 -5.34637 0
M  V30 3949 C 381.156 -2.03694 -4.80943 0
M  V30 3950 H 382.85 -1.41862 -2.63658 0
M  V30 3951 H 380.396 -0.683571 -1.26741 0
M  V30 3952 H 382.349 0.459985 -4.18882 0
M  V30 3953 H 381.073 1.04711 -3.09359 0
M  V30 3954 H 379.732 -1.04347 -3.51436 0
M  V30 3955 H 379.38 0.986359 -4.93234 0
M  V30 3956 H 379.08 -0.508377 -5.85397 0
M  V30 3957 H 380.604 0.392797 -6.09335 0
M  V30 3958 H 382.018 -1.78504 -5.44802 0
M  V30 3959 H 380.415 -2.57573 -5.42011 0
M  V30 3960 H 381.485 -2.72042 -4.01399 0
M  V30 3961 N 382.828 1.3818 -0.7579 0
M  V30 3962 C 384.105 1.94106 -0.241306 0
M  V30 3963 C 384.485 1.69282 1.26122 0
M  V30 3964 O 383.833 1.03378 2.03777 0
M  V30 3965 C 384.043 3.43809 -0.59967 0
M  V30 3966 C 385.391 4.20868 -0.561717 0
M  V30 3967 O 386.415 3.5211 -0.538222 0
M  V30 3968 O 385.274 5.43451 -0.576478 0
M  V30 3969 H 382.368 0.825376 -0.0518042 0
M  V30 3970 H 384.914 1.47548 -0.838315 0
M  V30 3971 H 383.686 3.55403 -1.6372 0
M  V30 3972 H 383.309 3.97592 0.0251197 0
M  V30 3973 N 384.306 0.507319 1.49211 0
M  V30 3974 C 385.553 -0.0349529 2.0247 0
M  V30 3975 C 385.881 -1.36409 1.38647 0
M  V30 3976 O 385.136 -1.88841 0.513566 0
M  V30 3977 C 385.435 -0.229513 3.56662 0
M  V30 3978 C 385.101 1.02241 4.39156 0
M  V30 3979 C 383.763 1.36557 4.61417 0
M  V30 3980 C 386.115 1.85428 4.871 0
M  V30 3981 C 383.443 2.53999 5.28868 0
M  V30 3982 C 385.795 3.02028 5.55843 0
M  V30 3983 C 384.459 3.36717 5.76349 0
M  V30 3984 H 383.729 -0.0127902 0.74089 0
M  V30 3985 H 386.376 0.668756 1.79443 0
M  V30 3986 H 384.681 -1.0158 3.78403 0
M  V30 3987 H 386.378 -0.663641 3.9547 0
M  V30 3988 H 382.968 0.745124 4.22073 0
M  V30 3989 H 387.152 1.6023 4.69723 0
M  V30 3990 H 382.408 2.81105 5.42946 0
M  V30 3991 H 386.582 3.66808 5.91967 0
M  V30 3992 H 384.209 4.27821 6.28389 0
M  V30 3993 N 385.784 -1.5574 0.241426 0
M  V30 3994 C 386.731 -2.21149 -0.660432 0
M  V30 3995 C 387.701 -1.17356 -1.17545 0
M  V30 3996 O 388.886 -1.45784 -1.23093 0
M  V30 3997 C 386.026 -2.91059 -1.85414 0
M  V30 3998 C 385.139 -4.09495 -1.37616 0
M  V30 3999 C 384.274 -4.67135 -2.529 0
M  V30 4000 C 383.313 -5.77831 -2.01936 0
M  V30 4001 N 382.45 -6.29677 -3.10566 0
M  V30 4002 H 387.29 -2.97845 -0.095955 0
M  V30 4003 H 384.827 -1.47057 -0.0356024 0
M  V30 4004 H 386.785 -3.29788 -2.5553 0
M  V30 4005 H 385.415 -2.16846 -2.39118 0
M  V30 4006 H 384.467 -3.76117 -0.569235 0
M  V30 4007 H 385.779 -4.89423 -0.962618 0
M  V30 4008 H 384.933 -5.08409 -3.31067 0
M  V30 4009 H 383.672 -3.86411 -2.97553 0
M  V30 4010 H 382.677 -5.36039 -1.22238 0
M  V30 4011 H 383.902 -6.60402 -1.58259 0
M  V30 4012 H 381.848 -5.5186 -3.54664 0
M  V30 4013 H 381.765 -7.04783 -2.73526 0
M  V30 4014 H 383.033 -6.75609 -3.88809 0
M  V30 4015 N 387.262 0.0317525 -1.57568 0
M  V30 4016 C 388.487 0.738664 -1.938 0
M  V30 4017 C 388.912 1.68242 -0.841208 0
M  V30 4018 O 388.27 1.80157 0.203267 0
M  V30 4019 C 388.318 1.47417 -3.29091 0
M  V30 4020 O 387.422 2.5872 -3.2115 0
M  V30 4021 H 386.763 0.198856 -0.633524 0
M  V30 4022 H 389.293 -0.0119713 -2.04596 0
M  V30 4023 H 389.303 1.84468 -3.63917 0
M  V30 4024 H 387.978 0.781988 -4.08482 0
M  V30 4025 H 386.555 2.24231 -2.97951 0
M  V30 4026 N 388.74 1.54641 0.303973 0
M  V30 4027 C 390.151 1.64811 0.877163 0
M  V30 4028 C 390.502 0.554838 1.88191 0
M  V30 4029 O 389.627 -0.309033 2.14182 0
M  V30 4030 C 390.222 2.9876 1.59775 0
M  V30 4031 C 388.781 3.11061 2.11938 0
M  V30 4032 C 387.928 2.60479 0.951097 0
M  V30 4033 H 390.879 1.58493 0.0810486 0
M  V30 4034 H 390.9 2.90017 2.46314 0
M  V30 4035 H 390.412 3.7831 0.866226 0
M  V30 4036 H 388.513 2.36225 2.88146 0
M  V30 4037 H 388.626 4.17171 2.35595 0
M  V30 4038 H 386.99 2.16859 1.33583 0
M  V30 4039 H 387.773 3.42504 0.233581 0
M  V30 4040 N 390.218 -0.567019 1.47046 0
M  V30 4041 C 391.495 -1.3276 1.43646 0
M  V30 4042 C 391.875 -2.1071 0.128186 0
M  V30 4043 O 391.223 -2.10441 -0.890326 0
M  V30 4044 C 391.433 -2.2404 2.67595 0
M  V30 4045 C 392.781 -2.85372 3.14401 0
M  V30 4046 O 393.805 -2.34346 2.68254 0
M  V30 4047 O 392.664 -3.78091 3.946 0
M  V30 4048 H 389.758 -0.597293 0.571988 0
M  V30 4049 H 392.304 -0.586735 1.59234 0
M  V30 4050 H 391.076 -1.65975 3.54356 0
M  V30 4051 H 390.699 -3.05439 2.54544 0
M  V30 4052 N 391.696 -1.35014 -0.812953 0
M  V30 4053 C 392.973 -1.18502 -1.55617 0
M  V30 4054 C 393.353 0.238421 -2.09749 0
M  V30 4055 O 392.701 1.2411 -1.91857 0
M  V30 4056 C 392.911 -2.24783 -2.66971 0
M  V30 4057 C 394.259 -2.60268 -3.35478 0
M  V30 4058 O 395.283 -2.23648 -2.77236 0
M  V30 4059 O 394.142 -3.2321 -4.40678 0
M  V30 4060 H 391.236 -0.459984 -0.687272 0
M  V30 4061 H 393.782 -1.46677 -0.853464 0
M  V30 4062 H 392.554 -3.20284 -2.24798 0
M  V30 4063 H 392.177 -1.97841 -3.44884 0
M  V30 4064 N 393.175 1.03435 -1.18907 0
M  V30 4065 C 394.586 1.58195 -0.991523 0
M  V30 4066 C 394.937 1.90801 0.457081 0
M  V30 4067 O 394.062 1.70272 1.33553 0
M  V30 4068 C 394.657 2.87432 -1.79355 0
M  V30 4069 C 393.216 3.38785 -1.64017 0
M  V30 4070 C 392.363 2.12292 -1.78402 0
M  V30 4071 H 395.314 0.860299 -1.33359 0
M  V30 4072 H 395.335 3.58096 -1.28638 0
M  V30 4073 H 394.847 2.63669 -2.84781 0
M  V30 4074 H 392.948 3.67547 -0.611536 0
M  V30 4075 H 393.061 4.12186 -2.44212 0
M  V30 4076 H 391.425 2.23901 -1.2141 0
M  V30 4077 H 392.208 1.90977 -2.85277 0
M  V30 4078 N 394.653 0.992116 1.22453 0
M  V30 4079 C 395.878 0.685644 1.95739 0
M  V30 4080 C 396.303 -0.743 1.72804 0
M  V30 4081 O 395.661 -1.50778 1.00676 0
M  V30 4082 C 395.709 0.996293 3.46564 0
M  V30 4083 O 394.813 0.0945512 4.12292 0
M  V30 4084 H 394.154 0.256694 0.612376 0
M  V30 4085 H 396.684 1.32888 1.5557 0
M  V30 4086 H 396.694 0.93781 3.97076 0
M  V30 4087 H 395.369 2.03733 3.62582 0
M  V30 4088 H 393.946 0.208451 3.72317 0
M  V30 4089 N 396.131 -1.37776 0.765217 0
M  V30 4090 C 397.547 -1.53297 0.444108 0
M  V30 4091 C 397.747 -1.72515 -1.04119 0
M  V30 4092 O 396.803 -1.74278 -1.82711 0
M  V30 4093 C 398.116 -2.73328 1.25349 0
M  V30 4094 C 399.664 -2.87185 1.24473 0
M  V30 4095 C 400.139 -4.10191 2.03733 0
M  V30 4096 N 401.63 -4.17291 2.01053 0
M  V30 4097 C 402.365 -5.11488 2.59166 0
M  V30 4098 N 401.861 -6.11285 3.26041 0
M  V30 4099 N 403.654 -5.03924 2.49032 0
M  V30 4100 H 395.805 -1.23552 1.72768 0
M  V30 4101 H 398.068 -0.601103 0.733062 0
M  V30 4102 H 397.774 -2.6557 2.30577 0
M  V30 4103 H 397.648 -3.66834 0.87823 0
M  V30 4104 H 400.035 -2.94418 0.20047 0
M  V30 4105 H 400.116 -1.94657 1.65959 0
M  V30 4106 H 399.76 -4.0372 3.08176 0
M  V30 4107 H 399.69 -5.01821 1.59633 0
M  V30 4108 H 402.181 -3.45825 1.5236 0
M  V30 4109 H 402.494 -6.79678 3.67774 0
M  V30 4110 H 400.839 -6.11583 3.30138 0
M  V30 4111 H 404.03 -4.24902 1.96407 0
M  V30 4112 H 404.203 -5.77152 2.94617 0
M  V30 4113 N 397.609 -0.515225 -1.4894 0
M  V30 4114 C 398.839 0.0205735 -2.0659 0
M  V30 4115 C 399.247 1.30064 -1.37405 0
M  V30 4116 O 398.59 1.78087 -0.450632 0
M  V30 4117 C 398.652 0.330124 -3.57981 0
M  V30 4118 C 398.316 -0.854295 -4.48944 0
M  V30 4119 C 399.313 -1.7487 -4.89609 0
M  V30 4120 C 396.998 -1.05712 -4.9105 0
M  V30 4121 C 398.992 -2.82996 -5.71132 0
M  V30 4122 C 396.679 -2.14154 -5.72347 0
M  V30 4123 C 397.677 -3.0263 -6.12294 0
M  V30 4124 O 397.365 -4.09198 -6.91962 0
M  V30 4125 H 397.097 -0.0236833 -0.675585 0
M  V30 4126 H 399.651 -0.715956 -1.92518 0
M  V30 4127 H 397.881 1.12044 -3.70112 0
M  V30 4128 H 399.57 0.806233 -3.97812 0
M  V30 4129 H 400.336 -1.60388 -4.57712 0
M  V30 4130 H 396.215 -0.377788 -4.59449 0
M  V30 4131 H 399.759 -3.52083 -6.02232 0
M  V30 4132 H 395.656 -2.28626 -6.03656 0
M  V30 4133 H 396.424 -4.06726 -7.10293 0
M  V30 4134 N 399.087 1.5561 -0.249682 0
M  V30 4135 C 400.336 1.98187 0.37479 0
M  V30 4136 C 400.649 1.14111 1.58865 0
M  V30 4137 O 401.855 1.46714 2.28445 0
M  V30 4138 C 400.311 3.52661 0.718192 0
M  V30 4139 C 399.919 4.45481 -0.474428 0
M  V30 4140 C 401.663 4.03888 1.3067 0
M  V30 4141 C 399.57 5.91303 -0.107026 0
M  V30 4142 H 398.5 0.740159 0.143808 0
M  V30 4143 H 401.151 1.80125 -0.350336 0
M  V30 4144 H 399.533 3.66429 1.50152 0
M  V30 4145 H 400.707 4.43473 -1.25172 0
M  V30 4146 H 399.022 4.04751 -0.978052 0
M  V30 4147 H 401.619 5.10358 1.59496 0
M  V30 4148 H 401.962 3.51401 2.23211 0
M  V30 4149 H 402.495 3.93457 0.586211 0
M  V30 4150 H 399.234 6.47833 -0.999642 0
M  V30 4151 H 398.754 5.9644 0.634013 0
M  V30 4152 H 400.433 6.46258 0.309807 0
M  V30 4153 N 400.565 -0.0233959 1.57583 0
M  V30 4154 C 401.79 -0.728376 1.94189 0
M  V30 4155 C 402.215 -1.67793 0.850119 0
M  V30 4156 O 401.573 -1.80262 -0.19371 0
M  V30 4157 C 401.621 -1.45669 3.29868 0
M  V30 4158 O 400.725 -2.57013 3.22518 0
M  V30 4159 H 400.066 -0.195493 0.63457 0
M  V30 4160 H 402.596 0.0228214 2.04587 0
M  V30 4161 H 402.606 -1.82535 3.6489 0
M  V30 4162 H 401.281 -0.760314 4.08891 0
M  V30 4163 H 399.858 -2.22648 2.99136 0
M  V30 4164 N 402.043 -1.548 -0.295768 0
M  V30 4165 C 403.454 -1.65274 -0.868411 0
M  V30 4166 C 403.805 -0.56481 -1.87894 0
M  V30 4167 O 402.93 0.29767 -2.14343 0
M  V30 4168 C 403.525 -2.99603 -1.58188 0
M  V30 4169 C 402.084 -3.12181 -2.10286 0
M  V30 4170 C 401.231 -2.6098 -0.93727 0
M  V30 4171 H 404.182 -1.58534 -0.0726422 0
M  V30 4172 H 404.203 -2.91319 -2.44772 0
M  V30 4173 H 403.715 -3.78764 -0.846151 0
M  V30 4174 H 401.816 -2.3775 -2.8689 0
M  V30 4175 H 401.929 -4.18415 -2.33379 0
M  V30 4176 H 400.293 -2.17564 -1.32431 0
M  V30 4177 H 401.076 -3.42623 -0.215414 0
M  V30 4178 N 403.521 0.559213 -1.47345 0
M  V30 4179 C 404.798 1.31997 -1.44348 0
M  V30 4180 C 405.178 2.1064 -0.139358 0
M  V30 4181 O 404.526 2.1091 0.879153 0
M  V30 4182 C 404.736 2.22618 -2.68779 0
M  V30 4183 C 406.084 2.83701 -3.1591 0
M  V30 4184 O 407.108 2.32921 -2.69493 0
M  V30 4185 O 405.967 3.75993 -3.966 0
M  V30 4186 H 403.061 0.594251 -0.575147 0
M  V30 4187 H 405.607 0.578282 -1.59543 0
M  V30 4188 H 404.379 1.64093 -3.55231 0
M  V30 4189 H 404.002 3.04085 -2.5616 0
M  V30 4190 N 404.999 1.35443 0.805782 0
M  V30 4191 C 405.931 1.24285 1.92577 0
M  V30 4192 C 406.944 0.165962 1.61952 0
M  V30 4193 O 408.133 0.419303 1.73505 0
M  V30 4194 C 405.233 0.891272 3.2697 0
M  V30 4195 C 404.406 2.06669 3.85495 0
M  V30 4196 C 403.465 1.69077 4.98297 0
M  V30 4197 O 402.491 2.4096 5.15681 0
M  V30 4198 N 403.693 0.614869 5.77234 0
M  V30 4199 H 406.458 2.20777 2.02676 0
M  V30 4200 H 404.019 1.28623 0.983243 0
M  V30 4201 H 406.011 0.621256 3.99903 0
M  V30 4202 H 404.581 0.016004 3.12596 0
M  V30 4203 H 403.801 2.50046 3.04747 0
M  V30 4204 H 405.089 2.85237 4.21328 0
M  V30 4205 H 404.487 0.017648 5.65697 0
M  V30 4206 H 403.044 0.404636 6.50543 0
M  V30 4207 N 406.477 -1.02803 1.19454 0
M  V30 4208 C 407.407 -2.12999 0.956758 0
M  V30 4209 C 408.388 -1.69743 -0.110188 0
M  V30 4210 O 409.573 -1.94148 0.0450038 0
M  V30 4211 C 406.703 -3.43746 0.495553 0
M  V30 4212 C 405.657 -4.00688 1.50443 0
M  V30 4213 C 404.983 -5.27067 0.900275 0
M  V30 4214 C 406.283 -4.35397 2.8849 0
M  V30 4215 H 407.977 -2.33148 1.87836 0
M  V30 4216 H 405.523 -1.12045 0.904539 0
M  V30 4217 H 407.476 -4.2021 0.316493 0
M  V30 4218 H 406.2 -3.23321 -0.461646 0
M  V30 4219 H 404.859 -3.2632 1.67065 0
M  V30 4220 H 404.507 -5.02959 -0.064503 0
M  V30 4221 H 404.207 -5.66127 1.57397 0
M  V30 4222 H 405.731 -6.06196 0.73203 0
M  V30 4223 H 407.145 -5.02795 2.75446 0
M  V30 4224 H 405.542 -4.85541 3.52661 0
M  V30 4225 H 406.612 -3.44662 3.41081 0
M  V30 4226 N 407.956 -0.998596 -1.21925 0
M  V30 4227 C 408.919 -0.558679 -2.22287 0
M  V30 4228 C 409.919 0.361525 -1.56683 0
M  V30 4229 O 411.109 0.152695 -1.73529 0
M  V30 4230 C 408.241 0.18661 -3.40389 0
M  V30 4231 H 409.434 -1.4463 -2.62721 0
M  V30 4232 H 406.987 -0.786413 -1.35075 0
M  V30 4233 H 407.722 1.08996 -3.05435 0
M  V30 4234 H 407.507 -0.474188 -3.89222 0
M  V30 4235 H 408.997 0.482367 -4.14805 0
M  V30 4236 N 409.434 1.37368 -0.772513 0
M  V30 4237 C 410.711 1.93839 -0.26188 0
M  V30 4238 C 411.091 1.7061 1.24319 0
M  V30 4239 O 410.439 1.05534 2.02669 0
M  V30 4240 C 410.649 3.43154 -0.636102 0
M  V30 4241 C 411.997 4.20249 -0.606324 0
M  V30 4242 O 413.021 3.5152 -0.575538 0
M  V30 4243 O 411.88 5.42809 -0.634086 0
M  V30 4244 H 408.974 0.82478 -0.0605555 0
M  V30 4245 H 411.52 1.4665 -0.853917 0
M  V30 4246 H 410.292 3.53647 -1.6748 0
M  V30 4247 H 409.915 3.97596 -0.0170516 0
M  V30 4248 N 410.912 0.523116 1.48665 0
M  V30 4249 C 411.842 -0.23231 2.32342 0
M  V30 4250 C 412.823 -0.941637 1.41659 0
M  V30 4251 O 414.008 -0.928751 1.70552 0
M  V30 4252 C 411.138 -1.28387 3.22698 0
M  V30 4253 C 410.092 -0.693098 4.22351 0
M  V30 4254 C 409.418 -1.8468 5.01794 0
M  V30 4255 C 410.718 0.33063 5.21252 0
M  V30 4256 H 412.412 0.466192 2.95748 0
M  V30 4257 H 409.958 0.225643 1.42221 0
M  V30 4258 H 411.911 -1.82024 3.80059 0
M  V30 4259 H 410.635 -2.01186 2.57278 0
M  V30 4260 H 409.294 -0.178299 3.66166 0
M  V30 4261 H 408.942 -2.56301 4.32804 0
M  V30 4262 H 408.642 -1.45747 5.69238 0
M  V30 4263 H 410.166 -2.38709 5.62006 0
M  V30 4264 H 411.58 -0.118407 5.73178 0
M  V30 4265 H 409.977 0.636974 5.9671 0
M  V30 4266 H 411.047 1.23883 4.68808 0
M  V30 4267 N 412.39 -1.55475 0.257931 0
M  V30 4268 C 413.62 -2.03314 -0.367026 0
M  V30 4269 C 414.028 -1.13625 -1.51281 0
M  V30 4270 O 413.371 -0.145334 -1.83124 0
M  V30 4271 C 413.433 -3.47362 -0.926284 0
M  V30 4272 C 413.097 -4.56914 0.0886584 0
M  V30 4273 C 414.094 -5.12013 0.902123 0
M  V30 4274 C 411.779 -5.01827 0.217936 0
M  V30 4275 C 413.773 -6.10529 1.83122 0
M  V30 4276 C 411.46 -6.00172 1.15052 0
M  V30 4277 C 412.458 -6.54402 1.95568 0
M  V30 4278 O 412.146 -7.50827 2.87253 0
M  V30 4279 H 411.878 -0.669976 -0.0900443 0
M  V30 4280 H 414.432 -2.01804 0.382673 0
M  V30 4281 H 412.662 -3.46056 -1.72575 0
M  V30 4282 H 414.351 -3.78637 -1.46249 0
M  V30 4283 H 415.117 -4.78139 0.812891 0
M  V30 4284 H 410.996 -4.59272 -0.398721 0
M  V30 4285 H 414.54 -6.52783 2.46008 0
M  V30 4286 H 410.437 -6.33465 1.24064 0
M  V30 4287 H 411.205 -7.68483 2.81739 0
M  V30 4288 N 413.868 0.0150385 -1.57593 0
M  V30 4289 C 414.815 1.01126 -2.07466 0
M  V30 4290 C 415.785 1.35064 -0.966794 0
M  V30 4291 O 416.97 1.4516 -1.23827 0
M  V30 4292 C 414.11 2.30276 -2.57035 0
M  V30 4293 C 413.223 2.02373 -3.81666 0
M  V30 4294 C 412.358 3.25496 -4.19793 0
M  V30 4295 C 411.397 2.93211 -5.37303 0
M  V30 4296 N 410.534 4.08826 -5.70794 0
M  V30 4297 H 415.374 0.57901 -2.92321 0
M  V30 4298 H 412.911 0.27426 -1.44521 0
M  V30 4299 H 414.869 3.05757 -2.83846 0
M  V30 4300 H 413.499 2.71197 -1.75077 0
M  V30 4301 H 412.551 1.17327 -3.61854 0
M  V30 4302 H 413.863 1.74567 -4.67256 0
M  V30 4303 H 413.017 4.09333 -4.47807 0
M  V30 4304 H 411.756 3.56428 -3.32882 0
M  V30 4305 H 410.761 2.07777 -5.09027 0
M  V30 4306 H 411.986 2.63542 -6.25877 0
M  V30 4307 H 409.932 4.39682 -4.86842 0
M  V30 4308 H 409.849 3.84491 -6.50924 0
M  V30 4309 H 411.117 4.93496 -6.03392 0
M  V30 4310 N 415.346 1.54954 0.287554 0
M  V30 4311 C 416.571 1.79209 1.04397 0
M  V30 4312 C 416.996 0.556431 1.79682 0
M  V30 4313 O 416.354 -0.493518 1.74454 0
M  V30 4314 C 416.402 3.00739 1.98969 0
M  V30 4315 O 415.506 2.74805 3.075 0
M  V30 4316 H 414.847 0.592755 0.299227 0
M  V30 4317 H 417.377 2.02068 0.320886 0
M  V30 4318 H 417.387 3.29077 2.4119 0
M  V30 4319 H 416.062 3.90329 1.43582 0
M  V30 4320 H 414.639 2.57523 2.69697 0
M  V30 4321 N 416.824 -0.551391 1.4764 0
M  V30 4322 C 418.071 -1.3083 1.54563 0
M  V30 4323 C 418.399 -1.93359 0.210361 0
M  V30 4324 O 417.654 -1.78721 -0.797332 0
M  V30 4325 C 417.953 -2.43469 2.61644 0
M  V30 4326 C 417.619 -1.98732 4.04742 0
M  V30 4327 C 416.281 -1.86248 4.43695 0
M  V30 4328 C 418.633 -1.64659 4.94507 0
M  V30 4329 C 415.961 -1.37995 5.70241 0
M  V30 4330 C 418.313 -1.17875 6.21521 0
M  V30 4331 C 416.977 -1.03992 6.5935 0
M  V30 4332 H 416.247 -0.478741 0.565587 0
M  V30 4333 H 418.894 -0.617697 1.81264 0
M  V30 4334 H 417.199 -3.18109 2.28722 0
M  V30 4335 H 418.896 -3.01642 2.64222 0
M  V30 4336 H 415.486 -2.09393 3.73968 0
M  V30 4337 H 419.67 -1.73174 4.65107 0
M  V30 4338 H 414.926 -1.25915 5.98294 0
M  V30 4339 H 419.1 -0.905739 6.90485 0
M  V30 4340 H 416.727 -0.663794 7.57296 0
M  V30 4341 N 418.302 -1.35869 -0.798587 0
M  V30 4342 C 419.551 -1.28921 -1.5512 0
M  V30 4343 C 419.864 0.13208 -1.95154 0
M  V30 4344 O 421.07 0.323879 -2.69561 0
M  V30 4345 C 419.526 -2.26141 -2.79979 0
M  V30 4346 C 419.134 -3.73658 -2.47151 0
M  V30 4347 C 420.878 -2.28152 -3.57976 0
M  V30 4348 C 418.785 -4.62679 -3.6835 0
M  V30 4349 H 417.715 -0.479031 -0.582276 0
M  V30 4350 H 420.366 -1.61179 -0.877125 0
M  V30 4351 H 418.748 -1.86865 -3.49138 0
M  V30 4352 H 419.922 -4.21616 -1.85947 0
M  V30 4353 H 418.237 -3.74333 -1.82383 0
M  V30 4354 H 420.834 -2.91875 -4.4801 0
M  V30 4355 H 421.177 -1.28748 -3.95891 0
M  V30 4356 H 421.71 -2.65998 -2.95787 0
M  V30 4357 H 418.449 -5.63111 -3.35538 0
M  V30 4358 H 417.969 -4.19442 -4.28752 0
M  V30 4359 H 419.648 -4.78498 -4.35487 0
M  V30 4360 N 419.78 1.02168 -1.19998 0
M  V30 4361 C 420.727 2.10601 -0.944228 0
M  V30 4362 C 421.697 1.65639 0.123664 0
M  V30 4363 O 422.882 1.9079 -0.0199941 0
M  V30 4364 C 420.022 3.41504 -0.496865 0
M  V30 4365 C 419.135 3.99973 -1.63234 0
M  V30 4366 C 418.27 5.18915 -1.13579 0
M  V30 4367 C 417.309 5.69456 -2.24468 0
M  V30 4368 N 416.446 6.79665 -1.76068 0
M  V30 4369 H 421.286 2.31814 -1.8726 0
M  V30 4370 H 418.823 1.13686 -0.933483 0
M  V30 4371 H 420.781 4.16626 -0.218843 0
M  V30 4372 H 419.411 3.2038 0.394508 0
M  V30 4373 H 418.463 3.21997 -2.0254 0
M  V30 4374 H 419.775 4.33492 -2.46752 0
M  V30 4375 H 418.929 6.01222 -0.813429 0
M  V30 4376 H 417.668 4.8695 -0.270434 0
M  V30 4377 H 416.673 4.85757 -2.57526 0
M  V30 4378 H 417.898 6.03459 -3.11472 0
M  V30 4379 H 415.844 6.49538 -0.918516 0
M  V30 4380 H 415.761 7.12349 -2.5317 0
M  V30 4381 H 417.029 7.65549 -1.46817 0
M  V30 4382 N 421.258 1.00505 1.21394 0
M  V30 4383 C 422.535 0.603277 1.86064 0
M  V30 4384 C 422.915 -0.919095 1.90042 0
M  V30 4385 O 422.263 -1.80607 1.39977 0
M  V30 4386 C 422.473 1.23772 3.26315 0
M  V30 4387 C 423.821 1.34586 4.02705 0
M  V30 4388 O 424.845 1.19304 3.35626 0
M  V30 4389 O 423.704 1.59169 5.22807 0
M  V30 4390 H 420.798 0.206634 0.800769 0
M  V30 4391 H 423.344 1.1017 1.29076 0
M  V30 4392 H 422.116 2.27848 3.18121 0
M  V30 4393 H 421.739 0.725648 3.90922 0
M  V30 4394 N 422.737 -1.36956 0.779787 0
M  V30 4395 C 423.967 -2.03459 0.358877 0
M  V30 4396 C 424.375 -1.58939 -1.02641 0
M  V30 4397 O 423.718 -0.769777 -1.66794 0
M  V30 4398 C 423.78 -3.5796 0.332393 0
M  V30 4399 C 423.444 -4.25644 1.66362 0
M  V30 4400 C 424.441 -4.49205 2.61746 0
M  V30 4401 C 422.126 -4.63313 1.94027 0
M  V30 4402 C 424.12 -5.09503 3.82996 0
M  V30 4403 C 421.807 -5.2333 3.15546 0
M  V30 4404 C 422.805 -5.46363 4.0985 0
M  V30 4405 O 422.493 -6.05122 5.29228 0
M  V30 4406 H 422.225 -0.659767 0.147254 0
M  V30 4407 H 424.779 -1.76111 1.05708 0
M  V30 4408 H 423.009 -3.84388 -0.422237 0
M  V30 4409 H 424.698 -4.05852 -0.0625389 0
M  V30 4410 H 425.464 -4.20508 2.41657 0
M  V30 4411 H 421.343 -4.44715 1.21448 0
M  V30 4412 H 424.887 -5.27397 4.56617 0
M  V30 4413 H 420.784 -5.51451 3.35517 0
M  V30 4414 H 421.552 -6.23595 5.30161 0
M  V30 4415 N 424.215 -0.530993 -1.48385 0
M  V30 4416 C 425.626 -0.0907905 -1.86479 0
M  V30 4417 C 425.977 1.33213 -1.44044 0
M  V30 4418 O 425.102 1.99783 -0.831615 0
M  V30 4419 C 425.697 -0.157987 -3.38431 0
M  V30 4420 C 424.256 0.227026 -3.75715 0
M  V30 4421 C 423.403 -0.5173 -2.72432 0
M  V30 4422 H 426.354 -0.742186 -1.40276 0
M  V30 4423 H 426.375 0.630053 -3.75247 0
M  V30 4424 H 425.887 -1.19372 -3.69286 0
M  V30 4425 H 423.988 1.26486 -3.50474 0
M  V30 4426 H 424.101 -0.113288 -4.78966 0
M  V30 4427 H 422.465 0.0365527 -2.54674 0
M  V30 4428 H 423.248 -1.55368 -3.0613 0
M  V30 4429 N 425.693 1.55336 -0.266172 0
M  V30 4430 C 426.939 1.99692 0.353681 0
M  V30 4431 C 427.272 1.1543 1.56172 0
M  V30 4432 O 426.547 0.222218 1.93226 0
M  V30 4433 C 426.83 3.52316 0.74466 0
M  V30 4434 C 426.683 4.47337 -0.470101 0
M  V30 4435 C 428.002 4.10588 1.58447 0
M  V30 4436 H 425.121 0.725961 0.12708 0
M  V30 4437 H 427.763 1.86336 -0.371333 0
M  V30 4438 H 425.913 3.63829 1.36239 0
M  V30 4439 H 427.585 4.4778 -1.10864 0
M  V30 4440 H 425.828 4.19364 -1.10978 0
M  V30 4441 H 426.499 5.51788 -0.15291 0
M  V30 4442 H 428.975 4.02297 1.06286 0
M  V30 4443 H 427.851 5.17607 1.82686 0
M  V30 4444 H 428.112 3.60253 2.56262 0
M  V30 4445 N 427.171 -0.0066808 1.57599 0
M  V30 4446 C 428.417 -0.693947 1.90558 0
M  V30 4447 C 428.75 -1.73792 0.866594 0
M  V30 4448 O 428.025 -1.94156 -0.115548 0
M  V30 4449 C 428.308 -1.34317 3.34112 0
M  V30 4450 C 428.161 -0.311189 4.48722 0
M  V30 4451 C 429.48 -2.27116 3.7697 0
M  V30 4452 H 426.599 -0.250803 0.693013 0
M  V30 4453 H 429.241 0.043242 1.89951 0
M  V30 4454 H 427.391 -1.9715 3.3476 0
M  V30 4455 H 429.063 0.316944 4.6021 0
M  V30 4456 H 427.306 0.367253 4.32243 0
M  V30 4457 H 427.977 -0.804366 5.46108 0
M  V30 4458 H 430.453 -1.74306 3.77831 0
M  V30 4459 H 429.329 -2.69511 4.78179 0
M  V30 4460 H 429.59 -3.14743 3.10466 0
M  V30 4461 N 428.649 -1.55105 -0.279332 0
M  V30 4462 C 429.874 -1.7976 -1.03446 0
M  V30 4463 C 430.299 -0.565952 -1.79384 0
M  V30 4464 O 429.657 0.484259 -1.74713 0
M  V30 4465 C 429.705 -3.0179 -1.97371 0
M  V30 4466 O 428.809 -2.76432 -3.06038 0
M  V30 4467 H 428.15 -0.594334 -0.29608 0
M  V30 4468 H 430.68 -2.02235 -0.310165 0
M  V30 4469 H 430.69 -3.30351 -2.39441 0
M  V30 4470 H 429.365 -3.91085 -1.4151 0
M  V30 4471 H 427.942 -2.58949 -2.68328 0
M  V30 4472 N 430.127 0.543554 -1.4793 0
M  V30 4473 C 431.376 1.29649 -1.54512 0
M  V30 4474 C 431.689 1.94382 -0.217973 0
M  V30 4475 O 432.895 2.71017 -0.161908 0
M  V30 4476 C 431.351 2.35175 -2.72435 0
M  V30 4477 C 430.959 1.76572 -4.11736 0
M  V30 4478 C 432.703 3.11564 -2.8832 0
M  V30 4479 C 430.61 2.79958 -5.20939 0
M  V30 4480 H 429.54 0.487541 -0.57517 0
M  V30 4481 H 432.191 0.575708 -1.74235 0
M  V30 4482 H 430.573 3.10229 -2.46118 0
M  V30 4483 H 431.747 1.07799 -4.48013 0
M  V30 4484 H 430.062 1.12722 -4.00852 0
M  V30 4485 H 432.659 3.88794 -3.67074 0
M  V30 4486 H 433.002 3.66594 -1.97268 0
M  V30 4487 H 433.535 2.43623 -3.14472 0
M  V30 4488 H 430.274 2.29766 -6.13912 0
M  V30 4489 H 429.794 3.47101 -4.89164 0
M  V30 4490 H 431.473 3.43198 -5.48474 0
M  V30 4491 N 431.605 1.3629 0.791371 0
M  V30 4492 C 432.515 1.32606 1.93527 0
M  V30 4493 C 433.531 0.228541 1.72493 0
M  V30 4494 O 434.707 0.460571 1.96063 0
M  V30 4495 C 431.772 1.11271 3.28359 0
M  V30 4496 C 430.833 2.3048 3.62185 0
M  V30 4497 C 430.066 2.10154 4.90583 0
M  V30 4498 O 430.289 1.07572 5.60165 0
M  V30 4499 O 429.223 2.97884 5.23019 0
M  V30 4500 H 433.049 2.28909 1.99585 0
M  V30 4501 H 430.634 1.16818 0.931344 0
M  V30 4502 H 432.516 1.01283 4.09047 0
M  V30 4503 H 431.191 0.180292 3.23198 0
M  V30 4504 H 430.098 2.46036 2.81811 0
M  V30 4505 H 431.431 3.22221 3.72068 0
M  V30 4506 N 433.083 -1.0153 1.20538 0
M  V30 4507 C 434.36 -1.72327 0.925343 0
M  V30 4508 C 434.74 -2.03383 -0.565547 0
M  V30 4509 O 434.088 -1.69934 -1.52757 0
M  V30 4510 C 434.298 -2.9902 1.79967 0
M  V30 4511 C 435.646 -3.72258 2.04228 0
M  V30 4512 O 436.67 -3.08979 1.77231 0
M  V30 4513 O 435.529 -4.86053 2.4983 0
M  V30 4514 H 432.623 -0.751099 0.346092 0
M  V30 4515 H 435.169 -1.07366 1.31417 0
M  V30 4516 H 433.941 -2.72402 2.80915 0
M  V30 4517 H 433.564 -3.71721 1.41099 0
M  V30 4518 N 434.561 -1.01147 -1.20859 0
M  V30 4519 C 435.972 -0.730205 -1.71828 0
M  V30 4520 C 436.323 0.751662 -1.8123 0
M  V30 4521 O 435.448 1.58686 -1.47132 0
M  V30 4522 C 436.043 -1.31885 -3.12077 0
M  V30 4523 C 434.602 -1.08656 -3.60376 0
M  V30 4524 C 433.749 -1.42769 -2.37723 0
M  V30 4525 H 436.7 -1.18158 -1.05945 0
M  V30 4526 H 436.721 -0.706793 -3.73878 0
M  V30 4527 H 436.233 -2.39737 -3.05201 0
M  V30 4528 H 434.334 -0.0254814 -3.72591 0
M  V30 4529 H 434.447 -1.76301 -4.45483 0
M  V30 4530 H 432.811 -0.846603 -2.40218 0
M  V30 4531 H 433.594 -2.51666 -2.33493 0
M  V30 4532 N 436.039 1.36541 -0.78704 0
M  V30 4533 C 437.286 1.99304 -0.358341 0
M  V30 4534 C 437.614 1.62467 1.06933 0
M  V30 4535 O 436.869 0.870019 1.75297 0
M  V30 4536 C 437.168 3.54343 -0.466485 0
M  V30 4537 C 436.834 4.10993 -1.85461 0
M  V30 4538 C 435.496 4.26177 -2.23443 0
M  V30 4539 C 437.848 4.41895 -2.76366 0
M  V30 4540 C 435.176 4.69573 -3.51736 0
M  V30 4541 C 437.528 4.86722 -4.04084 0
M  V30 4542 C 436.192 5.00112 -4.42091 0
M  V30 4543 H 435.462 0.729306 -0.131126 0
M  V30 4544 H 438.109 1.63068 -1.00404 0
M  V30 4545 H 436.414 3.90918 0.262719 0
M  V30 4546 H 438.111 4.00833 -0.115854 0
M  V30 4547 H 434.701 3.99612 -1.54946 0
M  V30 4548 H 438.885 4.29735 -2.48277 0
M  V30 4549 H 434.141 4.78127 -3.81057 0
M  V30 4550 H 438.315 5.09598 -4.7464 0
M  V30 4551 H 435.942 5.33498 -5.41557 0
M  V30 4552 N 437.518 0.538854 1.48102 0
M  V30 4553 C 438.795 -0.0568108 1.95517 0
M  V30 4554 C 439.175 -1.50408 1.48124 0
M  V30 4555 O 438.523 -2.17133 0.711727 0
M  V30 4556 C 438.733 0.0696262 3.48931 0
M  V30 4557 C 440.081 -0.0851202 4.24515 0
M  V30 4558 O 441.105 -0.0037347 3.562 0
M  V30 4559 O 439.964 -0.257025 5.45895 0
M  V30 4560 H 437.058 -0.0743695 0.823649 0
M  V30 4561 H 439.604 0.604081 1.58584 0
M  V30 4562 H 438.376 1.07744 3.76174 0
M  V30 4563 H 437.999 -0.629714 3.92582 0
M  V30 4564 N 438.996 -1.55193 0.274407 0
M  V30 4565 C 439.928 -2.1989 -0.646595 0
M  V30 4566 C 440.941 -1.1834 -1.11801 0
M  V30 4567 O 442.13 -1.4507 -1.04004 0
M  V30 4568 C 439.23 -2.8104 -1.89393 0
M  V30 4569 C 438.403 -4.08274 -1.56943 0
M  V30 4570 C 437.462 -4.53478 -2.66916 0
M  V30 4571 O 436.488 -5.19267 -2.33132 0
M  V30 4572 N 437.69 -4.2356 -3.9696 0
M  V30 4573 H 440.455 -2.99556 -0.0928686 0
M  V30 4574 H 438.016 -1.61618 0.0954783 0
M  V30 4575 H 440.008 -3.08226 -2.62257 0
M  V30 4576 H 438.578 -2.05372 -2.35672 0
M  V30 4577 H 437.798 -3.88384 -0.674655 0
M  V30 4578 H 439.086 -4.91173 -1.32764 0
M  V30 4579 H 438.484 -3.70799 -4.27229 0
M  V30 4580 H 437.041 -4.55518 -4.66205 0
M  V30 4581 N 440.474 -0.00167713 -1.576 0
M  V30 4582 C 441.751 0.719951 -1.81868 0
M  V30 4583 C 442.131 1.91895 -0.879747 0
M  V30 4584 O 441.479 2.28389 0.0711423 0
M  V30 4585 C 441.689 1.12409 -3.30402 0
M  V30 4586 C 443.037 1.52724 -3.96182 0
M  V30 4587 O 444.061 1.21784 -3.34734 0
M  V30 4588 O 442.92 2.10265 -5.04431 0
M  V30 4589 H 440.014 0.350707 -0.748955 0
M  V30 4590 H 442.56 -0.0272597 -1.69678 0
M  V30 4591 H 441.332 0.269532 -3.90371 0
M  V30 4592 H 440.955 1.93035 -3.47596 0
M  V30 4593 N 441.952 1.55251 0.271103 0
M  V30 4594 C 443.229 1.66664 1.02384 0
M  V30 4595 C 443.609 0.534363 2.04225 0
M  V30 4596 O 442.957 -0.465337 2.23712 0
M  V30 4597 C 443.167 3.05961 1.67895 0
M  V30 4598 C 444.515 3.63772 2.18986 0
M  V30 4599 O 445.539 3.08606 1.77878 0
M  V30 4600 O 444.398 4.60429 2.94393 0
M  V30 4601 H 441.492 0.676957 0.475035 0
M  V30 4602 H 444.038 1.67589 0.26681 0
M  V30 4603 H 442.81 3.79815 0.941071 0
M  V30 4604 H 442.433 3.08943 2.5028 0
M  V30 4605 N 443.43 -0.535701 1.48216 0
M  V30 4606 C 444.676 -1.2913 1.57153 0
M  V30 4607 C 445.031 -1.90899 0.239823 0
M  V30 4608 O 444.324 -1.76022 -0.756748 0
M  V30 4609 C 444.518 -2.4068 2.64212 0
M  V30 4610 C 444.347 -1.89844 4.07663 0
M  V30 4611 C 443.117 -1.72708 4.74869 0
M  V30 4612 C 445.315 -1.43031 4.94011 0
M  V30 4613 N 443.297 -1.16437 6.02757 0
M  V30 4614 C 444.668 -0.986691 6.12098 0
M  V30 4615 C 446.723 -1.3128 4.80281 0
M  V30 4616 C 445.426 -0.437231 7.1797 0
M  V30 4617 C 447.452 -0.777346 5.86269 0
M  V30 4618 C 446.814 -0.343774 7.03561 0
M  V30 4619 H 442.913 -0.463753 0.629648 0
M  V30 4620 H 445.497 -0.604736 1.8507 0
M  V30 4621 H 443.668 -3.06839 2.38126 0
M  V30 4622 H 445.4 -3.07706 2.62867 0
M  V30 4623 H 442.155 -1.96061 4.31111 0
M  V30 4624 H 442.579 -0.903281 6.70947 0
M  V30 4625 H 447.221 -1.63408 3.89946 0
M  V30 4626 H 444.939 -0.103621 8.08034 0
M  V30 4627 H 448.525 -0.689688 5.77698 0
M  V30 4628 H 447.405 0.0641219 7.84174 0
M  V30 4629 N 444.908 -1.36708 -0.784132 0
M  V30 4630 C 446.156 -1.30972 -1.53918 0
M  V30 4631 C 446.477 0.109086 -1.94695 0
M  V30 4632 O 445.747 1.05048 -1.65353 0
M  V30 4633 H 444.327 -0.481819 -0.570841 0
M  V30 4634 H 446.989 -1.71063 -0.934002 0
M  V30 4635 H 446.085 -1.94061 -2.44431 0
M  V30 4636 N 446.386 1.0089 -1.21074 0
M  V30 4637 C 447.349 2.0775 -0.968129 0
M  V30 4638 C 448.349 1.6069 0.0593445 0
M  V30 4639 O 449.539 1.73293 -0.177525 0
M  V30 4640 C 446.671 3.37794 -0.459108 0
M  V30 4641 H 447.864 2.30707 -1.9161 0
M  V30 4642 H 445.417 1.17807 -1.02719 0
M  V30 4643 H 446.152 3.20516 0.49397 0
M  V30 4644 H 445.937 3.7328 -1.20019 0
M  V30 4645 H 447.427 4.16454 -0.309099 0
M  V30 4646 N 447.864 1.01787 1.20321 0
M  V30 4647 C 449.11 0.718699 1.90279 0
M  V30 4648 C 449.465 -0.743669 1.77447 0
M  V30 4649 O 448.758 -1.53345 1.14874 0
M  V30 4650 C 448.952 1.09076 3.40349 0
M  V30 4651 C 448.781 2.58775 3.67784 0
M  V30 4652 C 447.551 3.25578 3.86428 0
M  V30 4653 C 449.749 3.56966 3.70243 0
M  V30 4654 N 447.731 4.64495 4.01395 0
M  V30 4655 C 449.102 4.8145 3.90649 0
M  V30 4656 C 451.157 3.5092 3.53213 0
M  V30 4657 C 449.86 6.00619 3.95789 0
M  V30 4658 C 451.886 4.69493 3.59625 0
M  V30 4659 C 451.248 5.92786 3.80505 0
M  V30 4660 H 447.347 0.31468 0.715891 0
M  V30 4661 H 449.931 1.30295 1.44677 0
M  V30 4662 H 448.102 0.534839 3.847 0
M  V30 4663 H 449.834 0.744997 3.97784 0
M  V30 4664 H 446.589 2.76003 3.84862 0
M  V30 4665 H 447.013 5.36624 4.12752 0
M  V30 4666 H 451.655 2.56593 3.36035 0
M  V30 4667 H 449.373 6.95326 4.11762 0
M  V30 4668 H 452.959 4.66432 3.47754 0
M  V30 4669 H 451.839 6.83003 3.85327 0
M  V30 4670 N 449.342 -1.36122 0.79427 0
M  V30 4671 C 450.274 -2.28683 0.153903 0
M  V30 4672 C 451.287 -1.49707 -0.639669 0
M  V30 4673 O 452.476 -1.7209 -0.474054 0
M  V30 4674 C 449.576 -3.29202 -0.804921 0
M  V30 4675 C 448.749 -4.37358 -0.060366 0
M  V30 4676 C 447.808 -5.17811 -0.935849 0
M  V30 4677 O 446.834 -5.67853 -0.391309 0
M  V30 4678 N 448.036 -5.34721 -2.25951 0
M  V30 4679 H 450.801 -2.84278 0.949008 0
M  V30 4680 H 448.362 -1.4834 0.648611 0
M  V30 4681 H 450.354 -3.79914 -1.39455 0
M  V30 4682 H 448.924 -2.74212 -1.50088 0
M  V30 4683 H 448.144 -3.87746 0.710382 0
M  V30 4684 H 449.432 -5.06777 0.45324 0
M  V30 4685 H 448.83 -4.95687 -2.72601 0
M  V30 4686 H 447.387 -5.88657 -2.79867 0
M  V30 4687 N 450.82 -0.546701 -1.47814 0
M  V30 4688 C 451.767 0.206854 -2.29871 0
M  V30 4689 C 452.737 0.918235 -1.38411 0
M  V30 4690 O 453.922 0.915991 -1.67375 0
M  V30 4691 C 451.062 1.23746 -3.22151 0
M  V30 4692 C 450.175 0.533216 -4.28697 0
M  V30 4693 C 449.31 1.5482 -5.08138 0
M  V30 4694 C 448.349 0.828347 -6.06469 0
M  V30 4695 N 447.486 1.78966 -6.78908 0
M  V30 4696 H 452.326 -0.499037 -2.93792 0
M  V30 4697 H 449.863 -0.25793 -1.44821 0
M  V30 4698 H 451.821 1.84746 -3.74065 0
M  V30 4699 H 450.451 1.91151 -2.60117 0
M  V30 4700 H 449.503 -0.191089 -3.7992 0
M  V30 4701 H 450.815 -0.0311987 -4.9879 0
M  V30 4702 H 449.969 2.23202 -5.6415 0
M  V30 4703 H 448.708 2.14652 -4.37922 0
M  V30 4704 H 447.713 0.130539 -5.49645 0
M  V30 4705 H 448.938 0.235907 -6.7869 0
M  V30 4706 H 446.884 2.37675 -6.1143 0
M  V30 4707 H 446.801 1.27712 -7.45135 0
M  V30 4708 H 448.069 2.46496 -7.395 0
M  V30 4709 N 452.299 1.55045 -0.282633 0
M  V30 4710 C 453.546 1.9976 0.33199 0
M  V30 4711 C 453.874 1.17105 1.55295 0
M  V30 4712 O 453.129 0.230599 1.94337 0
M  V30 4713 C 453.428 3.49422 0.750938 0
M  V30 4714 C 453.094 4.4941 -0.366228 0
M  V30 4715 C 451.756 4.76471 -0.672964 0
M  V30 4716 C 454.108 5.09054 -1.11864 0
M  V30 4717 C 451.436 5.60442 -1.73556 0
M  V30 4718 C 453.788 5.9418 -2.17102 0
M  V30 4719 C 452.452 6.19558 -2.48402 0
M  V30 4720 H 451.722 0.730974 0.121484 0
M  V30 4721 H 454.369 1.8732 -0.39791 0
M  V30 4722 H 452.674 3.59377 1.56063 0
M  V30 4723 H 454.371 3.81432 1.23736 0
M  V30 4724 H 450.961 4.2844 -0.117041 0
M  V30 4725 H 455.145 4.88165 -0.894925 0
M  V30 4726 H 450.401 5.78349 -1.983 0
M  V30 4727 H 454.575 6.39427 -2.75873 0
M  V30 4728 H 452.202 6.84417 -3.30874 0
M  V30 4729 N 453.777 0.010035 1.57597 0
M  V30 4730 C 455.005 -0.683413 1.95287 0
M  V30 4731 C 455.42 -1.66747 0.885481 0
M  V30 4732 O 454.777 -1.82003 -0.134629 0
M  V30 4733 C 454.828 -1.40652 3.33015 0
M  V30 4734 O 454.549 -0.461916 4.35658 0
M  V30 4735 C 456.05 -2.19356 3.85225 0
M  V30 4736 H 453.27 -0.189708 0.643624 0
M  V30 4737 H 455.814 0.0641359 2.04399 0
M  V30 4738 H 453.969 -2.10562 3.2518 0
M  V30 4739 H 454.383 -0.973215 5.15392 0
M  V30 4740 H 455.857 -2.65433 4.83993 0
M  V30 4741 H 456.334 -3.02457 3.18459 0
M  V30 4742 H 456.94 -1.54442 3.96267 0
M  V30 4743 N 455.255 -1.55392 -0.262866 0
M  V30 4744 C 456.218 -1.88181 -1.30846 0
M  V30 4745 C 457.218 -0.757079 -1.41862 0
M  V30 4746 O 458.408 -1.02519 -1.40838 0
M  V30 4747 C 455.54 -2.09609 -2.68844 0
M  V30 4748 H 456.733 -2.81659 -1.02997 0
M  V30 4749 H 454.286 -1.48039 -0.501414 0
M  V30 4750 H 455.021 -1.18547 -3.01856 0
M  V30 4751 H 454.806 -2.91508 -2.62231 0
M  V30 4752 H 456.296 -2.36215 -3.44372 0
M  V30 4753 N 456.733 0.527833 -1.48498 0
M  V30 4754 C 457.958 1.313 -1.60546 0
M  V30 4755 C 458.383 1.86199 -0.26672 0
M  V30 4756 O 457.741 1.64513 0.761918 0
M  V30 4757 C 457.789 2.43818 -2.65678 0
M  V30 4758 O 456.893 3.46916 -2.22987 0
M  V30 4759 H 456.234 0.388784 -0.538277 0
M  V30 4760 H 458.764 0.634896 -1.945 0
M  V30 4761 H 458.774 2.89973 -2.87018 0
M  V30 4762 H 457.449 2.03222 -3.62869 0
M  V30 4763 H 456.026 3.06864 -2.11869 0
M  V30 4764 N 458.211 1.37122 0.776871 0
M  V30 4765 C 459.174 1.32301 1.8716 0
M  V30 4766 C 460.174 0.228099 1.59174 0
M  V30 4767 O 461.364 0.483642 1.67352 0
M  V30 4768 C 458.496 1.054 3.24197 0
M  V30 4769 H 459.689 2.29673 1.92848 0
M  V30 4770 H 457.242 1.22077 0.97606 0
M  V30 4771 H 457.977 0.0853872 3.24188 0
M  V30 4772 H 457.762 1.84648 3.45901 0
M  V30 4773 H 459.252 1.04664 4.04271 0
M  V30 4774 N 459.689 -1.00246 1.21608 0
M  V30 4775 C 460.937 -1.73717 1.0328 0
M  V30 4776 C 461.258 -1.90102 -0.434318 0
M  V30 4777 O 460.528 -1.45376 -1.31311 0
M  V30 4778 H 459.108 -0.643613 0.379172 0
M  V30 4779 H 461.77 -1.20787 1.52959 0
M  V30 4780 H 460.866 -2.73535 1.50283 0
M  V30 4781 N 461.167 -1.02423 -1.1978 0
M  V30 4782 C 462.416 -0.713265 -1.88667 0
M  V30 4783 C 462.729 0.7609 -1.80193 0
M  V30 4784 O 463.935 1.18473 -2.44288 0
M  V30 4785 C 462.391 -1.22545 -3.38394 0
M  V30 4786 C 461.999 -2.72706 -3.55437 0
M  V30 4787 C 463.743 -0.990257 -4.12788 0
M  V30 4788 C 461.65 -3.17367 -4.99031 0
M  V30 4789 H 460.58 -0.263105 -0.706606 0
M  V30 4790 H 463.231 -1.23792 -1.35454 0
M  V30 4791 H 461.613 -0.628732 -3.90977 0
M  V30 4792 H 462.787 -3.37993 -3.13205 0
M  V30 4793 H 461.102 -2.94453 -2.94425 0
M  V30 4794 H 463.699 -1.29926 -5.18675 0
M  V30 4795 H 464.042 0.0730761 -4.16236 0
M  V30 4796 H 464.575 -1.55074 -3.66329 0
M  V30 4797 H 461.314 -4.23009 -5.00743 0
M  V30 4798 H 460.834 -2.56805 -5.42044 0
M  V30 4799 H 462.513 -3.10441 -5.67658 0
M  V30 4800 N 462.645 1.35699 -0.801477 0
M  V30 4801 C 463.577 2.28598 -0.166028 0
M  V30 4802 C 464.59 1.50044 0.631721 0
M  V30 4803 O 465.779 1.72339 0.464921 0
M  V30 4804 C 462.879 3.29625 0.787451 0
M  V30 4805 C 462.052 4.37384 0.037171 0
M  V30 4806 C 461.111 5.183 0.908375 0
M  V30 4807 O 460.137 5.68053 0.361189 0
M  V30 4808 N 461.339 5.35912 2.23112 0
M  V30 4809 H 464.104 2.83771 -0.964071 0
M  V30 4810 H 461.665 1.47994 -0.656469 0
M  V30 4811 H 463.657 3.80648 1.37439 0
M  V30 4812 H 462.227 2.75004 1.48632 0
M  V30 4813 H 461.447 3.87364 -0.730935 0
M  V30 4814 H 462.735 5.0653 -0.480109 0
M  V30 4815 H 462.133 4.97125 2.69968 0
M  V30 4816 H 460.69 5.90133 2.76741 0
M  V30 4817 N 464.123 0.554532 1.47522 0
M  V30 4818 C 465.369 0.0295227 2.02779 0
M  V30 4819 C 465.702 -1.31582 1.42828 0
M  V30 4820 O 464.977 -1.85561 0.582872 0
M  V30 4821 C 465.26 -0.0664057 3.60039 0
M  V30 4822 C 465.113 1.30585 4.30427 0
M  V30 4823 C 466.432 -0.781162 4.33112 0
M  V30 4824 H 463.551 0.0122027 0.736899 0
M  V30 4825 H 466.193 0.716305 1.7598 0
M  V30 4826 H 464.343 -0.651307 3.83002 0
M  V30 4827 H 466.015 1.93374 4.18813 0
M  V30 4828 H 464.258 1.88125 3.90886 0
M  V30 4829 H 464.929 1.19147 5.38988 0
M  V30 4830 H 467.405 -0.284565 4.15126 0
M  V30 4831 H 466.281 -0.817237 5.42782 0
M  V30 4832 H 466.542 -1.83672 4.0214 0
M  V30 4833 N 465.601 -1.54893 0.290851 0
M  V30 4834 C 466.847 -2.0023 -0.321867 0
M  V30 4835 C 467.18 -1.179 -1.54316 0
M  V30 4836 O 466.455 -0.25293 -1.92848 0
M  V30 4837 C 466.738 -3.53456 -0.688515 0
M  V30 4838 C 466.591 -4.46532 0.541209 0
M  V30 4839 C 467.91 -4.13057 -1.51895 0
M  V30 4840 H 465.029 -0.727891 -0.115515 0
M  V30 4841 H 467.671 -1.85722 0.400931 0
M  V30 4842 H 465.821 -3.6595 -1.30433 0
M  V30 4843 H 467.493 -4.4596 1.17973 0
M  V30 4844 H 465.736 -4.17545 1.17636 0
M  V30 4845 H 466.407 -5.51475 0.240675 0
M  V30 4846 H 468.883 -4.03937 -0.99872 0
M  V30 4847 H 467.759 -5.20448 -1.74429 0
M  V30 4848 H 468.02 -3.64284 -2.50498 0
M  V30 4849 N 467.08 -0.0183926 -1.57589 0
M  V30 4850 C 468.328 0.661253 -1.90976 0
M  V30 4851 C 468.649 1.73281 -0.894353 0
M  V30 4852 O 467.919 1.9579 0.0656788 0
M  V30 4853 H 466.499 0.247233 -0.704901 0
M  V30 4854 H 469.161 -0.0636639 -1.94796 0
M  V30 4855 H 468.257 1.12083 -2.9128 0
M  V30 4856 N 468.558 1.5553 0.254621 0
M  V30 4857 C 469.835 1.6774 1.00611 0
M  V30 4858 C 470.215 0.555993 2.03647 0
M  V30 4859 O 469.563 -0.441583 2.24193 0
M  V30 4860 C 469.773 3.07725 1.6464 0
M  V30 4861 C 471.121 3.66074 2.15116 0
M  V30 4862 O 472.145 3.10476 1.74595 0
M  V30 4863 O 471.004 4.63526 2.89493 0
M  V30 4864 H 468.098 0.681958 0.467828 0
M  V30 4865 H 470.644 1.67863 0.24902 0
M  V30 4866 H 469.416 3.80792 0.900734 0
M  V30 4867 H 469.039 3.1158 2.46989 0
M  V30 4868 N 470.036 -0.519951 1.48776 0
M  V30 4869 C 471.313 -1.28123 1.47797 0
M  V30 4870 C 471.693 -2.10196 0.195157 0
M  V30 4871 O 471.041 -2.13167 -0.822925 0
M  V30 4872 C 471.251 -2.15413 2.74587 0
M  V30 4873 C 472.599 -2.75225 3.23321 0
M  V30 4874 O 473.623 -2.25694 2.75574 0
M  V30 4875 O 472.482 -3.65346 4.06429 0
M  V30 4876 H 469.576 -0.578793 0.590701 0
M  V30 4877 H 472.122 -0.535779 1.6102 0
M  V30 4878 H 470.894 -1.54617 3.59457 0
M  V30 4879 H 470.517 -2.97186 2.64132 0
M  V30 4880 N 471.514 -1.37532 -0.769588 0
M  V30 4881 C 472.444 -1.36172 -1.89682 0
M  V30 4882 C 473.425 -0.23001 -1.68538 0
M  V30 4883 O 474.61 -0.43069 -1.89364 0
M  V30 4884 C 471.74 -1.1701 -3.26995 0
M  V30 4885 C 470.694 -2.27216 -3.62708 0
M  V30 4886 C 470.02 -1.93174 -4.98586 0
M  V30 4887 C 471.32 -3.6941 -3.69234 0
M  V30 4888 H 473.014 -2.30499 -1.91078 0
M  V30 4889 H 470.56 -1.10953 -0.917902 0
M  V30 4890 H 472.513 -1.14688 -4.05493 0
M  V30 4891 H 471.237 -0.191395 -3.26039 0
M  V30 4892 H 469.896 -2.28697 -2.86519 0
M  V30 4893 H 469.544 -0.938281 -4.94171 0
M  V30 4894 H 469.244 -2.66973 -5.23449 0
M  V30 4895 H 470.768 -1.92443 -5.79481 0
M  V30 4896 H 472.182 -3.70047 -4.37879 0
M  V30 4897 H 470.579 -4.4228 -4.05597 0
M  V30 4898 H 471.649 -4.0288 -2.69844 0
M  V30 4899 N 472.992 0.995999 -1.22138 0
M  V30 4900 C 474.22 1.77066 -1.07029 0
M  V30 4901 C 474.635 1.8495 0.379357 0
M  V30 4902 O 473.992 1.3174 1.26297 0
M  V30 4903 C 474.043 3.20533 -1.67155 0
M  V30 4904 O 473.764 3.13082 -3.06449 0
M  V30 4905 C 475.265 4.14461 -1.5728 0
M  V30 4906 H 472.485 0.556179 -0.375374 0
M  V30 4907 H 475.029 1.25238 -1.61666 0
M  V30 4908 H 473.184 3.6944 -1.16589 0
M  V30 4909 H 473.598 4.03283 -3.35355 0
M  V30 4910 H 475.072 5.1289 -2.04078 0
M  V30 4911 H 475.549 4.36005 -0.528795 0
M  V30 4912 H 476.155 3.71449 -2.07136 0
M  V30 4913 N 474.47 1.03057 1.19235 0
M  V30 4914 C 475.716 0.729098 1.89241 0
M  V30 4915 C 476.049 -0.740573 1.79525 0
M  V30 4916 O 475.324 -1.53946 1.18874 0
M  V30 4917 C 475.607 1.18304 3.40112 0
M  V30 4918 C 475.46 2.71406 3.5869 0
M  V30 4919 C 476.779 0.765161 4.33397 0
M  V30 4920 H 473.898 0.266338 0.687192 0
M  V30 4921 H 476.54 1.28079 1.40341 0
M  V30 4922 H 474.69 0.713672 3.81889 0
M  V30 4923 H 476.362 3.26303 3.26074 0
M  V30 4924 H 474.605 3.11717 3.01687 0
M  V30 4925 H 475.276 2.98225 4.64506 0
M  V30 4926 H 477.752 1.16889 3.99345 0
M  V30 4927 H 476.628 1.11065 5.37546 0
M  V30 4928 H 476.889 -0.332372 4.40849 0
M  V30 4929 N 475.948 -1.35272 0.808662 0
M  V30 4930 C 477.176 -2.02946 0.402537 0
M  V30 4931 C 477.591 -1.60937 -0.987147 0
M  V30 4932 O 476.948 -0.807917 -1.63643 0
M  V30 4933 C 476.999 -3.58317 0.47868 0
M  V30 4934 O 476.72 -3.98799 1.81358 0
M  V30 4935 C 478.221 -4.43251 0.0656281 0
M  V30 4936 H 475.441 -0.650831 0.163279 0
M  V30 4937 H 477.985 -1.72849 1.09286 0
M  V30 4938 H 476.14 -3.87055 -0.163415 0
M  V30 4939 H 476.554 -4.93451 1.77781 0
M  V30 4940 H 478.028 -5.51738 0.170017 0
M  V30 4941 H 478.505 -4.27913 -0.989278 0
M  V30 4942 H 479.111 -4.19813 0.68096 0
M  V30 4943 N 477.426 -0.562348 -1.47226 0
M  V30 4944 C 478.374 0.195476 -2.31777 0
M  V30 4945 C 479.368 0.90433 -1.43242 0
M  V30 4946 O 480.574 0.825031 -1.59979 0
M  V30 4947 H 476.949 0.0819095 -0.747526 0
M  V30 4948 H 478.92 -0.536753 -2.93533 0
M  V30 4949 C 477.669 1.20902 -3.26003 0
M  V30 4950 H 476.992 0.672997 -3.94095 0
M  V30 4951 H 478.432 1.71006 -3.87986 0
M  V30 4952 C 476.891 2.25955 -2.49891 0
M  V30 4953 O 477.421 3.32969 -2.2471 0
M  V30 4954 N 475.627 2.00019 -2.1081 0
M  V30 4955 H 475.174 1.13006 -2.31489 0
M  V30 4956 H 475.132 2.70523 -1.60201 0
M  V30 4957 N 478.904 1.54736 -0.299062 0
M  V30 4958 C 480.315 1.8569 0.193971 0
M  V30 4959 C 480.666 1.22101 1.53577 0
M  V30 4960 O 479.791 0.51799 2.10109 0
M  V30 4961 C 480.386 3.36895 0.358733 0
M  V30 4962 C 478.945 3.67887 0.795986 0
M  V30 4963 C 478.092 2.77131 -0.096807 0
M  V30 4964 H 481.043 1.49934 -0.520134 0
M  V30 4965 H 481.064 3.61294 1.19361 0
M  V30 4966 H 480.576 3.83148 -0.617998 0
M  V30 4967 H 478.677 3.27151 1.78334 0
M  V30 4968 H 478.79 4.75114 0.616718 0
M  V30 4969 H 477.154 2.51153 0.423581 0
M  V30 4970 H 477.937 3.26204 -1.06986 0
M  V30 4971 N 480.382 0.0267497 1.57577 0
M  V30 4972 C 481.329 -0.955894 2.10075 0
M  V30 4973 C 482.299 -1.32453 1.00226 0
M  V30 4974 O 483.484 -1.41826 1.27632 0
M  V30 4975 C 480.624 -2.2338 2.6305 0
M  V30 4976 C 479.737 -1.92183 3.86898 0
M  V30 4977 C 478.872 -3.14251 4.28275 0
M  V30 4978 C 477.911 -2.78862 5.44888 0
M  V30 4979 N 477.048 -3.93548 5.81433 0
M  V30 4980 H 481.888 -0.501303 2.93753 0
M  V30 4981 H 479.425 -0.235847 1.45197 0
M  V30 4982 H 481.383 -2.98124 2.91853 0
M  V30 4983 H 480.013 -2.6646 1.82205 0
M  V30 4984 H 479.065 -1.07692 3.64838 0
M  V30 4985 H 480.377 -1.62117 4.7172 0
M  V30 4986 H 479.531 -3.97317 4.58502 0
M  V30 4987 H 478.27 -3.47476 3.42215 0
M  V30 4988 H 477.275 -1.94208 5.14357 0
M  V30 4989 H 478.5 -2.46855 6.32645 0
M  V30 4990 H 476.446 -4.2662 4.98328 0
M  V30 4991 H 476.363 -3.67098 6.6089 0
M  V30 4992 H 477.631 -4.77325 6.16264 0
M  V30 4993 N 481.861 -1.55662 -0.24637 0
M  V30 4994 C 483.277 -1.48098 -0.594907 0
M  V30 4995 C 483.477 -0.717044 -1.8831 0
M  V30 4996 O 482.533 -0.246618 -2.51293 0
M  V30 4997 C 483.846 -2.92507 -0.697146 0
M  V30 4998 C 485.394 -3.02881 -0.789436 0
M  V30 4999 C 485.869 -4.48598 -0.923232 0
M  V30 5000 N 487.36 -4.52538 -0.988088 0
M  V30 5001 C 488.095 -5.62536 -1.11089 0
M  V30 5002 N 487.591 -6.82342 -1.19919 0
M  V30 5003 N 489.384 -5.50334 -1.14408 0
M  V30 5004 H 481.535 -2.0377 0.599278 0
M  V30 5005 H 483.798 -0.925145 0.20691 0
M  V30 5006 H 483.504 -3.51242 0.179396 0
M  V30 5007 H 483.378 -3.43024 -1.5689 0
M  V30 5008 H 485.765 -2.44226 -1.65643 0
M  V30 5009 H 485.846 -2.55574 0.107482 0
M  V30 5010 H 485.49 -5.07864 -0.0607927 0
M  V30 5011 H 485.42 -4.93587 -1.8352 0
M  V30 5012 H 487.911 -3.66248 -0.931167 0
M  V30 5013 H 488.224 -7.61924 -1.29197 0
M  V30 5014 H 486.569 -6.85102 -1.16876 0
M  V30 5015 H 489.76 -4.5567 -1.07158 0
M  V30 5016 H 489.933 -6.36096 -1.23634 0
M  V30 5017 N 483.339 0.512053 -1.4905 0
M  V30 5018 C 484.588 1.26343 -1.57227 0
M  V30 5019 C 484.901 1.93876 -0.259155 0
M  V30 5020 O 486.107 2.70612 -0.219358 0
M  V30 5021 C 484.563 2.29343 -2.77362 0
M  V30 5022 C 484.171 1.67799 -4.15388 0
M  V30 5023 C 485.915 3.05378 -2.94864 0
M  V30 5024 C 483.822 2.68845 -5.2676 0
M  V30 5025 H 482.752 0.475231 -0.585382 0
M  V30 5026 H 485.403 0.53862 -1.75417 0
M  V30 5027 H 483.785 3.04938 -2.52643 0
M  V30 5028 H 484.959 0.982715 -4.50199 0
M  V30 5029 H 483.274 1.04194 -4.03153 0
M  V30 5030 H 485.871 3.80921 -3.75238 0
M  V30 5031 H 486.214 3.62327 -2.05 0
M  V30 5032 H 486.747 2.36898 -3.19569 0
M  V30 5033 H 483.486 2.16692 -6.18647 0
M  V30 5034 H 483.006 3.36647 -4.96416 0
M  V30 5035 H 484.685 3.31487 -5.5563 0
M  V30 5036 N 484.817 1.37938 0.762283 0
M  V30 5037 C 485.78 1.34279 1.85747 0
M  V30 5038 C 486.78 0.244969 1.58923 0
M  V30 5039 O 487.97 0.501365 1.66829 0
M  V30 5040 C 485.102 1.08833 3.23061 0
M  V30 5041 H 486.295 2.31705 1.90401 0
M  V30 5042 H 483.848 1.23105 0.963057 0
M  V30 5043 H 484.583 0.119767 3.24079 0
M  V30 5044 H 484.368 1.88306 3.43923 0
M  V30 5045 H 485.858 1.08946 4.03138 0
M  V30 5046 N 486.295 -0.989507 1.22664 0
M  V30 5047 C 487.242 -2.08024 0.999733 0
M  V30 5048 C 488.212 -1.65909 -0.0797047 0
M  V30 5049 O 489.397 -1.90669 0.0705715 0
M  V30 5050 C 486.537 -3.40067 0.587234 0
M  V30 5051 C 485.65 -3.95505 1.73781 0
M  V30 5052 C 484.785 -5.15722 1.27297 0
M  V30 5053 C 483.824 -5.63305 2.39488 0
M  V30 5054 N 482.961 -6.74758 1.94026 0
M  V30 5055 H 487.801 -2.26768 1.9334 0
M  V30 5056 H 485.338 -1.11171 0.963297 0
M  V30 5057 H 487.296 -4.15899 0.329227 0
M  V30 5058 H 485.926 -3.21314 -0.309426 0
M  V30 5059 H 484.978 -3.16513 2.11006 0
M  V30 5060 H 486.29 -4.26797 2.58158 0
M  V30 5061 H 485.444 -5.98854 0.972546 0
M  V30 5062 H 484.183 -4.86061 0.399445 0
M  V30 5063 H 483.188 -4.78759 2.70315 0
M  V30 5064 H 484.413 -5.94988 3.27362 0
M  V30 5065 H 482.359 -6.46874 1.09041 0
M  V30 5066 H 482.276 -7.05386 2.71968 0
M  V30 5067 H 483.544 -7.61387 1.67062 0
M  V30 5068 N 487.773 -1.03688 -1.18687 0
M  V30 5069 C 488.736 -0.629115 -2.20397 0
M  V30 5070 C 489.736 0.311495 -1.57754 0
M  V30 5071 O 490.926 0.0974107 -1.73927 0
M  V30 5072 C 488.058 0.0782231 -3.4081 0
M  V30 5073 H 489.251 -1.52915 -2.57987 0
M  V30 5074 H 486.804 -0.828988 -1.32505 0
M  V30 5075 H 487.539 0.992233 -3.08748 0
M  V30 5076 H 487.324 -0.597776 -3.87517 0
M  V30 5077 H 488.814 0.350156 -4.16129 0
M  V30 5078 N 489.251 1.34841 -0.815825 0
M  V30 5079 C 490.497 1.98793 -0.401129 0
M  V30 5080 C 490.83 1.64548 1.03139 0
M  V30 5081 O 490.105 0.913487 1.71714 0
M  V30 5082 C 490.388 3.55143 -0.595409 0
M  V30 5083 C 490.241 3.99155 -2.07352 0
M  V30 5084 C 491.56 4.40092 -0.0268823 0
M  V30 5085 H 488.679 0.722146 -0.14722 0
M  V30 5086 H 491.321 1.59847 -1.02707 0
M  V30 5087 H 489.471 3.8845 -0.0625779 0
M  V30 5088 H 491.143 3.76216 -2.66945 0
M  V30 5089 H 489.386 3.49726 -2.56659 0
M  V30 5090 H 490.057 5.07971 -2.1603 0
M  V30 5091 H 492.533 4.13298 -0.482042 0
M  V30 5092 H 491.409 5.48562 -0.19267 0
M  V30 5093 H 491.67 4.29016 1.06759 0
M  V30 5094 N 490.729 0.570148 1.46925 0
M  V30 5095 C 491.677 -0.183181 2.31878 0
M  V30 5096 C 492.671 -0.896721 1.43719 0
M  V30 5097 O 493.877 -0.816536 1.60414 0
M  V30 5098 H 490.252 -0.077944 0.74795 0
M  V30 5099 H 492.223 0.552312 2.93244 0
M  V30 5100 C 490.972 -1.19172 3.2664 0
M  V30 5101 H 490.295 -0.652088 3.94446 0
M  V30 5102 H 491.735 -1.68946 3.88887 0
M  V30 5103 C 490.194 -2.24627 2.51086 0
M  V30 5104 O 490.724 -3.31773 2.26472 0
M  V30 5105 N 488.93 -1.98898 2.11867 0
M  V30 5106 H 488.477 -1.11777 2.32086 0
M  V30 5107 H 488.435 -2.6967 1.61634 0
M  V30 5108 N 492.207 -1.54576 0.307264 0
M  V30 5109 C 493.117 -2.27435 -0.57536 0
M  V30 5110 C 494.133 -1.31183 -1.14311 0
M  V30 5111 O 495.309 -1.64175 -1.16656 0
M  V30 5112 C 492.374 -3.00566 -1.72803 0
M  V30 5113 C 491.435 -4.12369 -1.19373 0
M  V30 5114 C 490.668 -4.82003 -2.29147 0
M  V30 5115 O 490.891 -4.51038 -3.49171 0
M  V30 5116 O 489.825 -5.69271 -1.95485 0
M  V30 5117 H 493.651 -3.03696 0.0158558 0
M  V30 5118 H 491.236 -1.49219 0.0735064 0
M  V30 5119 H 493.118 -3.46416 -2.39946 0
M  V30 5120 H 491.793 -2.27195 -2.30574 0
M  V30 5121 H 490.7 -3.70905 -0.487851 0
M  V30 5122 H 492.033 -4.87736 -0.661376 0
M  V30 5123 N 493.685 -0.035106 -1.57561 0
M  V30 5124 C 494.632 0.94474 -2.10578 0
M  V30 5125 C 495.602 1.3192 -1.00927 0
M  V30 5126 O 496.787 1.41147 -1.28382 0
M  V30 5127 C 493.927 2.21982 -2.64231 0
M  V30 5128 C 493.04 1.90128 -3.87911 0
M  V30 5129 C 492.175 3.11975 -4.29936 0
M  V30 5130 C 491.214 2.75968 -5.46359 0
M  V30 5131 N 490.351 3.90459 -5.83512 0
M  V30 5132 H 495.191 0.485717 -2.94015 0
M  V30 5133 H 492.728 0.228143 -1.4532 0
M  V30 5134 H 494.686 2.96572 -2.9343 0
M  V30 5135 H 493.316 2.6549 -1.83616 0
M  V30 5136 H 492.368 1.05755 -3.65404 0
M  V30 5137 H 493.68 1.59613 -4.72573 0
M  V30 5138 H 492.834 3.9488 -4.60603 0
M  V30 5139 H 491.573 3.45657 -3.44053 0
M  V30 5140 H 490.578 1.91478 -5.1538 0
M  V30 5141 H 491.803 2.43497 -6.33945 0
M  V30 5142 H 489.749 4.23971 -5.00584 0
M  V30 5143 H 489.666 3.63588 -6.62827 0
M  V30 5144 H 490.934 4.7405 -6.18787 0
M  V30 5145 N 495.163 1.55791 0.238111 0
M  V30 5146 C 496.388 1.8244 0.986432 0
M  V30 5147 C 496.813 0.613314 1.7782 0
M  V30 5148 O 496.171 -0.437767 1.75935 0
M  V30 5149 C 496.219 3.06917 1.893 0
M  V30 5150 O 495.323 2.84449 2.98601 0
M  V30 5151 H 494.664 0.601975 0.280218 0
M  V30 5152 H 497.194 2.02987 0.256437 0
M  V30 5153 H 497.204 3.36583 2.30598 0
M  V30 5154 H 495.879 3.947 1.31091 0
M  V30 5155 H 494.456 2.65972 2.61368 0
M  V30 5156 N 496.642 -0.504142 1.49319 0
M  V30 5157 C 497.882 -1.26867 1.60263 0
M  V30 5158 C 498.246 -1.89924 0.281578 0
M  V30 5159 O 499.447 -2.67479 0.266176 0
M  V30 5160 C 497.718 -2.30956 2.72753 0
M  V30 5161 S 499.277 -3.1679 3.03628 0
M  V30 5162 H 496.095 -0.431198 0.565322 0
M  V30 5163 H 498.697 -0.571407 1.86963 0
M  V30 5164 H 497.401 -1.83156 3.67263 0
M  V30 5165 H 496.932 -3.05356 2.48035 0
M  V30 5166 H 498.947 -4.31549 2.44908 0
M  V30 5167 N 498.12 -1.38341 -0.754957 0
M  V30 5168 C 499.068 -1.35573 -1.89005 0
M  V30 5169 C 500.062 -0.241824 -1.67665 0
M  V30 5170 O 501.268 -0.410785 -1.7525 0
M  V30 5171 H 497.643 -0.422898 -0.621821 0
M  V30 5172 H 499.614 -2.31359 -1.88455 0
M  V30 5173 C 498.363 -1.19631 -3.26471 0
M  V30 5174 H 497.686 -2.04605 -3.43477 0
M  V30 5175 H 499.126 -1.21748 -4.06144 0
M  V30 5176 C 497.585 0.0968705 -3.36761 0
M  V30 5177 O 498.115 1.07439 -3.87066 0
M  V30 5178 N 496.321 0.153242 -2.90196 0
M  V30 5179 H 495.868 -0.642908 -2.49448 0
M  V30 5180 H 495.826 1.01807 -2.9746 0
M  V30 5181 N 499.598 0.982988 -1.23187 0
M  V30 5182 C 500.838 1.73903 -1.07412 0
M  V30 5183 C 501.202 1.88146 0.382764 0
M  V30 5184 O 502.403 2.6053 0.661638 0
M  V30 5185 C 500.674 3.10105 -1.77678 0
M  V30 5186 S 502.233 4.01323 -1.77441 0
M  V30 5187 H 499.051 0.598093 -0.384456 0
M  V30 5188 H 501.653 1.17456 -1.56283 0
M  V30 5189 H 500.357 2.97388 -2.82822 0
M  V30 5190 H 499.888 3.71622 -1.29077 0
M  V30 5191 H 501.903 4.89189 -0.831162 0
M  V30 5192 N 501.076 1.04316 1.18135 0
M  V30 5193 C 502.006 0.657299 2.24058 0
M  V30 5194 C 502.987 -0.340678 1.66654 0
M  V30 5195 O 504.172 -0.220223 1.92947 0
M  V30 5196 C 501.302 0.0220715 3.47293 0
M  V30 5197 C 500.256 0.943857 4.17463 0
M  V30 5198 C 499.582 0.172973 5.3442 0
M  V30 5199 C 500.882 2.26409 4.70677 0
M  V30 5200 H 502.576 1.5428 2.56589 0
M  V30 5201 H 500.122 0.743263 1.23335 0
M  V30 5202 H 502.075 -0.259607 4.206 0
M  V30 5203 H 500.799 -0.898323 3.14003 0
M  V30 5204 H 499.458 1.20996 3.46057 0
M  V30 5205 H 499.106 -0.749907 4.97379 0
M  V30 5206 H 498.806 0.787098 5.82304 0
M  V30 5207 H 500.33 -0.101628 6.10515 0
M  V30 5208 H 501.744 2.04294 5.35665 0
M  V30 5209 H 500.141 2.8314 5.29105 0
M  V30 5210 H 501.211 2.90883 3.87962 0
M  V30 5211 N 502.554 -1.34406 0.822964 0
M  V30 5212 C 503.484 -2.32052 0.259608 0
M  V30 5213 C 504.465 -1.58243 -0.623961 0
M  V30 5214 O 505.65 -1.86224 -0.55083 0
M  V30 5215 C 502.78 -3.42434 -0.579314 0
M  V30 5216 C 501.734 -4.27499 0.20712 0
M  V30 5217 C 501.06 -5.29349 -0.754547 0
M  V30 5218 C 502.36 -5.02758 1.41533 0
M  V30 5219 H 504.054 -2.79418 1.07545 0
M  V30 5220 H 501.6 -1.34338 0.518593 0
M  V30 5221 H 503.553 -4.0976 -0.983612 0
M  V30 5222 H 502.277 -2.93717 -1.4282 0
M  V30 5223 H 500.936 -3.61776 0.592787 0
M  V30 5224 H 500.584 -4.76895 -1.59939 0
M  V30 5225 H 500.284 -5.8714 -0.232561 0
M  V30 5226 H 501.808 -5.99544 -1.1567 0
M  V30 5227 H 503.222 -5.62938 1.08504 0
M  V30 5228 H 501.619 -5.70123 1.87296 0
M  V30 5229 H 502.689 -4.32451 2.1935 0
M  V30 5230 N 504.032 -0.577932 -1.46621 0
M  V30 5231 C 504.962 0.145917 -2.33044 0
M  V30 5232 C 505.943 0.888412 -1.45056 0
M  V30 5233 O 507.128 0.864812 -1.73881 0
M  V30 5234 C 504.258 1.16322 -3.27241 0
M  V30 5235 C 503.212 0.535868 -4.24632 0
M  V30 5236 C 502.538 1.65929 -5.08303 0
M  V30 5237 C 503.838 -0.523861 -5.19666 0
M  V30 5238 H 505.532 -0.575636 -2.93814 0
M  V30 5239 H 503.078 -0.278272 -1.41286 0
M  V30 5240 H 505.031 1.67793 -3.86553 0
M  V30 5241 H 503.755 1.91498 -2.64567 0
M  V30 5242 H 502.414 0.0422759 -3.66576 0
M  V30 5243 H 502.062 2.40061 -4.42018 0
M  V30 5244 H 501.762 1.2452 -5.74255 0
M  V30 5245 H 503.286 2.17686 -5.70478 0
M  V30 5246 H 504.7 -0.0944059 -5.73222 0
M  V30 5247 H 503.097 -0.858 -5.93935 0
M  V30 5248 H 504.167 -1.41197 -4.63887 0
M  V30 5249 N 505.51 1.54411 -0.315457 0
M  V30 5250 C 506.457 2.24048 0.554166 0
M  V30 5251 C 507.427 1.2283 1.11812 0
M  V30 5252 O 508.612 1.51491 1.15997 0
M  V30 5253 C 505.752 2.99574 1.71316 0
M  V30 5254 C 504.865 4.15594 1.17922 0
M  V30 5255 C 504 4.78669 2.30324 0
M  V30 5256 C 503.039 5.86807 1.74137 0
M  V30 5257 N 502.176 6.43777 2.8017 0
M  V30 5258 H 507.016 2.97964 -0.0462602 0
M  V30 5259 H 504.553 1.47059 -0.0346009 0
M  V30 5260 H 506.511 3.41604 2.39505 0
M  V30 5261 H 505.141 2.28008 2.285 0
M  V30 5262 H 504.193 3.78404 0.389136 0
M  V30 5263 H 505.505 4.93459 0.728012 0
M  V30 5264 H 504.659 5.23626 3.06433 0
M  V30 5265 H 503.398 4.00168 2.78778 0
M  V30 5266 H 502.403 5.41261 0.965236 0
M  V30 5267 H 503.628 6.67201 1.2657 0
M  V30 5268 H 501.574 5.68153 3.2793 0
M  V30 5269 H 501.491 7.17031 2.39588 0
M  V30 5270 H 502.759 6.9339 3.56132 0
M  V30 5271 N 506.988 0.0434614 1.5754 0
M  V30 5272 C 508.234 -0.632971 1.92669 0
M  V30 5273 C 508.567 -1.70947 0.921446 0
M  V30 5274 O 507.842 -1.94426 -0.0537202 0
M  V30 5275 C 508.125 -1.23619 3.38216 0
M  V30 5276 C 507.978 -0.168274 4.49485 0
M  V30 5277 C 509.297 -2.15008 3.84005 0
M  V30 5278 H 506.416 -0.228629 0.700641 0
M  V30 5279 H 509.058 0.103651 1.89717 0
M  V30 5280 H 507.208 -1.864 3.40863 0
M  V30 5281 H 508.88 0.463196 4.58969 0
M  V30 5282 H 507.123 0.504581 4.30855 0
M  V30 5283 H 507.794 -0.630218 5.48391 0
M  V30 5284 H 510.27 -1.62198 3.83185 0
M  V30 5285 H 509.146 -2.54161 4.86511 0
M  V30 5286 H 509.407 -3.04707 3.20322 0
M  V30 5287 N 508.466 -1.55915 -0.229846 0
M  V30 5288 C 509.414 -1.9258 -1.30444 0
M  V30 5289 C 510.408 -0.806839 -1.48951 0
M  V30 5290 O 511.614 -0.991606 -1.50224 0
M  V30 5291 H 507.989 -0.611878 -0.437161 0
M  V30 5292 H 509.96 -2.82264 -0.96797 0
M  V30 5293 C 508.709 -2.25171 -2.6494 0
M  V30 5294 H 508.032 -3.10782 -2.51504 0
M  V30 5295 H 509.472 -2.54716 -3.38963 0
M  V30 5296 C 507.931 -1.07394 -3.19324 0
M  V30 5297 O 508.461 -0.330759 -4.00336 0
M  V30 5298 N 506.667 -0.859984 -2.77584 0
M  V30 5299 H 506.214 -1.46605 -2.11813 0
M  V30 5300 H 506.172 -0.0736671 -3.14314 0
M  V30 5301 N 509.944 0.496216 -1.49584 0
M  V30 5302 C 510.876 1.61404 -1.62731 0
M  V30 5303 C 511.889 1.54613 -0.50978 0
M  V30 5304 O 513.078 1.60458 -0.782017 0
M  V30 5305 C 510.178 3.00212 -1.57245 0
M  V30 5306 C 509.351 3.32138 -2.84611 0
M  V30 5307 C 508.41 4.5038 -2.72112 0
M  V30 5308 O 507.436 4.51926 -3.46051 0
M  V30 5309 N 508.638 5.50575 -1.83977 0
M  V30 5310 H 511.403 1.50552 -2.59141 0
M  V30 5311 H 508.964 0.684182 -1.46733 0
M  V30 5312 H 510.956 3.77241 -1.4653 0
M  V30 5313 H 509.526 3.04964 -0.686729 0
M  V30 5314 H 508.746 2.4396 -3.09641 0
M  V30 5315 H 510.034 3.50268 -3.69039 0
M  V30 5316 H 509.432 5.52128 -1.23171 0
M  V30 5317 H 507.989 6.26687 -1.79182 0
M  V30 5318 N 511.423 1.38739 0.74761 0
M  V30 5319 C 512.672 1.3459 1.50228 0
M  V30 5320 C 512.985 -0.0595592 1.95509 0
M  V30 5321 O 514.191 -0.22361 2.70578 0
M  V30 5322 C 512.647 2.36377 2.71393 0
M  V30 5323 C 512.255 3.82573 2.33113 0
M  V30 5324 C 513.999 2.41281 3.49262 0
M  V30 5325 C 511.906 4.76032 3.50924 0
M  V30 5326 H 510.836 0.500312 0.564096 0
M  V30 5327 H 513.487 1.64324 0.8167 0
M  V30 5328 H 511.869 1.99694 3.41962 0
M  V30 5329 H 513.043 4.28227 1.70171 0
M  V30 5330 H 511.358 3.80844 1.68365 0
M  V30 5331 H 513.955 3.08301 4.36869 0
M  V30 5332 H 514.298 1.43353 3.9084 0
M  V30 5333 H 514.831 2.76793 2.85711 0
M  V30 5334 H 511.57 5.75177 3.14408 0
M  V30 5335 H 511.09 4.35066 4.12889 0
M  V30 5336 H 512.769 4.94331 4.17427 0
M  V30 5337 N 512.901 -0.976442 1.23707 0
M  V30 5338 C 514.149 -1.71487 1.06942 0
M  V30 5339 C 514.47 -1.9098 -0.393897 0
M  V30 5340 O 513.74 -1.48128 -1.28198 0
M  V30 5341 H 512.32 -0.635425 0.392739 0
M  V30 5342 H 514.982 -1.17515 1.55487 0
M  V30 5343 H 514.078 -2.70286 1.56051 0
M  V30 5344 N 514.379 -1.04941 -1.1758 0
M  V30 5345 C 515.604 -0.778253 -1.92245 0
M  V30 5346 C 516.029 0.659707 -1.76152 0
M  V30 5347 O 515.387 1.45803 -1.07755 0
M  V30 5348 C 515.435 -1.16051 -3.41416 0
M  V30 5349 O 514.539 -0.291153 -4.11371 0
M  V30 5350 H 513.88 -0.285619 -0.599431 0
M  V30 5351 H 516.41 -1.40159 -1.49052 0
M  V30 5352 H 516.42 -1.12619 -3.92149 0
M  V30 5353 H 515.095 -2.208 -3.52449 0
M  V30 5354 H 513.672 -0.385851 -3.70898 0
M  V30 5355 N 515.857 1.33968 -0.830081 0
M  V30 5356 C 517.103 1.98357 -0.422191 0
M  V30 5357 C 517.436 1.65633 1.01387 0
M  V30 5358 O 516.711 0.931648 1.70735 0
M  V30 5359 C 516.994 3.54492 -0.633043 0
M  V30 5360 C 516.847 3.96934 -2.11574 0
M  V30 5361 C 518.166 4.40039 -0.0735584 0
M  V30 5362 H 515.285 0.720544 -0.154871 0
M  V30 5363 H 517.927 1.58749 -1.04397 0
M  V30 5364 H 516.077 3.88361 -0.103775 0
M  V30 5365 H 517.749 3.73363 -2.7092 0
M  V30 5366 H 515.992 3.46984 -2.60354 0
M  V30 5367 H 516.663 5.05651 -2.21406 0
M  V30 5368 H 519.139 4.12764 -0.52585 0
M  V30 5369 H 518.015 5.48327 -0.250841 0
M  V30 5370 H 518.276 4.30124 1.02202 0
M  V30 5371 N 517.335 0.585699 1.46312 0
M  V30 5372 C 518.563 0.0781299 2.06752 0
M  V30 5373 C 518.978 -1.22812 1.43396 0
M  V30 5374 O 518.335 -1.74318 0.540314 0
M  V30 5375 C 518.386 -0.0911927 3.61385 0
M  V30 5376 O 518.107 1.16336 4.22371 0
M  V30 5377 C 519.608 -0.632765 4.38761 0
M  V30 5378 H 516.828 0.0588188 0.668417 0
M  V30 5379 H 519.372 0.807218 1.87894 0
M  V30 5380 H 517.527 -0.770514 3.7966 0
M  V30 5381 H 517.941 0.979082 5.15281 0
M  V30 5382 H 519.415 -0.70041 5.47538 0
M  V30 5383 H 519.892 -1.65039 4.07012 0
M  V30 5384 H 520.498 0.0117856 4.25298 0
M  V30 5385 N 518.813 -1.54241 0.323641 0
M  V30 5386 C 519.723 -2.28033 -0.551205 0
M  V30 5387 C 520.739 -1.32388 -1.12913 0
M  V30 5388 O 521.915 -1.65403 -1.14908 0
M  V30 5389 C 518.98 -3.02382 -1.69606 0
M  V30 5390 C 518.041 -4.13612 -1.14993 0
M  V30 5391 C 517.274 -4.84407 -2.24022 0
M  V30 5392 O 517.497 -4.54716 -3.44368 0
M  V30 5393 O 516.431 -5.71312 -1.89436 0
M  V30 5394 H 520.257 -3.03662 0.048066 0
M  V30 5395 H 517.842 -1.49133 0.0893289 0
M  V30 5396 H 519.724 -3.48941 -2.36259 0
M  V30 5397 H 518.399 -2.29628 -2.28151 0
M  V30 5398 H 517.306 -3.71402 -0.448484 0
M  V30 5399 H 518.639 -4.8841 -0.609608 0
M  V30 5400 N 520.291 -0.0518155 -1.57515 0
M  V30 5401 C 521.516 0.634896 -1.97443 0
M  V30 5402 C 521.941 1.63546 -0.929207 0
M  V30 5403 O 521.299 1.80981 0.107484 0
M  V30 5404 C 521.347 1.29765 -3.36442 0
M  V30 5405 O 520.451 2.41333 -3.34413 0
M  V30 5406 H 519.792 0.164994 -0.643174 0
M  V30 5407 H 522.322 -0.120407 -2.04245 0
M  V30 5408 H 522.332 1.64918 -3.73184 0
M  V30 5409 H 521.007 0.564361 -4.12053 0
M  V30 5410 H 519.584 2.08122 -3.09418 0
M  V30 5411 N 521.769 1.56035 0.221574 0
M  V30 5412 C 522.699 1.95434 1.2778 0
M  V30 5413 C 523.68 0.822564 1.48889 0
M  V30 5414 O 524.865 1.08486 1.61072 0
M  V30 5415 C 521.995 2.27102 2.62759 0
M  V30 5416 C 520.949 3.4277 2.56306 0
M  V30 5417 C 520.275 3.60043 3.95314 0
M  V30 5418 C 521.575 4.77742 2.11093 0
M  V30 5419 H 523.269 2.83912 0.950504 0
M  V30 5420 H 520.815 1.36596 0.455791 0
M  V30 5421 H 522.768 2.53256 3.36807 0
M  V30 5422 H 521.492 1.35478 2.97176 0
M  V30 5423 H 520.151 3.16664 1.84715 0
M  V30 5424 H 519.799 2.65794 4.27039 0
M  V30 5425 H 519.499 4.37841 3.91879 0
M  V30 5426 H 521.023 3.88545 4.71025 0
M  V30 5427 H 522.437 5.03102 2.74885 0
M  V30 5428 H 520.834 5.58823 2.18716 0
M  V30 5429 H 521.904 4.731 1.06321 0
M  V30 5430 N 523.247 -0.488276 1.49845 0
M  V30 5431 C 524.179 -1.60539 1.63584 0
M  V30 5432 C 525.192 -1.5434 0.517972 0
M  V30 5433 O 526.381 -1.60041 0.790516 0
M  V30 5434 C 523.481 -2.99374 1.58835 0
M  V30 5435 C 522.654 -3.30624 2.86368 0
M  V30 5436 C 521.713 -4.4893 2.74496 0
M  V30 5437 O 520.739 -4.50085 3.48443 0
M  V30 5438 N 521.941 -5.49591 1.86894 0
M  V30 5439 H 524.706 -1.49176 2.59936 0
M  V30 5440 H 522.267 -0.67639 1.47094 0
M  V30 5441 H 524.259 -3.76459 1.48529 0
M  V30 5442 H 522.829 -3.04595 0.702892 0
M  V30 5443 H 522.049 -2.42314 3.1093 0
M  V30 5444 H 523.337 -3.48305 3.70892 0
M  V30 5445 H 522.735 -5.51467 1.26097 0
M  V30 5446 H 521.292 -6.25728 1.82503 0
M  V30 5447 N 524.725 -1.39134 -0.740242 0
M  V30 5448 C 525.688 -1.37217 -1.83587 0
M  V30 5449 C 526.688 -0.270221 -1.58513 0
M  V30 5450 O 527.878 -0.527843 -1.6601 0
M  V30 5451 C 525.01 -1.13959 -3.21288 0
M  V30 5452 H 526.203 -2.34705 -1.86691 0
M  V30 5453 H 523.756 -1.24622 -0.94335 0
M  V30 5454 H 524.491 -0.17131 -3.23847 0
M  V30 5455 H 524.276 -1.93754 -3.40884 0
M  V30 5456 H 525.766 -1.15346 -4.01354 0
M  V30 5457 N 526.204 0.969867 -1.24223 0
M  V30 5458 C 527.444 1.72754 -1.0925 0
M  V30 5459 C 527.808 1.88541 0.362787 0
M  V30 5460 O 529.009 2.61217 0.633969 0
M  V30 5461 C 527.28 3.08204 -1.80957 0
M  V30 5462 S 528.839 3.99418 -1.81688 0
M  V30 5463 H 525.657 0.593981 -0.390778 0
M  V30 5464 H 528.259 1.15792 -1.5752 0
M  V30 5465 H 526.963 2.94372 -2.85961 0
M  V30 5466 H 526.494 3.70232 -1.33012 0
M  V30 5467 H 528.509 4.8828 -0.883001 0
M  V30 5468 N 527.682 1.05563 1.17022 0
M  V30 5469 C 528.629 0.659893 2.21165 0
M  V30 5470 C 529.599 -0.339813 1.62587 0
M  V30 5471 O 530.784 -0.230378 1.89404 0
M  V30 5472 C 527.924 0.0447297 3.45071 0
M  V30 5473 C 527.037 1.09372 4.17926 0
M  V30 5474 C 526.172 0.445481 5.29329 0
M  V30 5475 C 525.211 1.47852 5.93975 0
M  V30 5476 N 524.348 0.854172 6.96885 0
M  V30 5477 H 529.188 1.55243 2.54369 0
M  V30 5478 H 526.725 0.776336 1.24946 0
M  V30 5479 H 528.683 -0.329404 4.15898 0
M  V30 5480 H 527.313 -0.811244 3.1244 0
M  V30 5481 H 526.365 1.58564 3.45777 0
M  V30 5482 H 527.677 1.87773 4.62107 0
M  V30 5483 H 526.831 0.0179688 6.06697 0
M  V30 5484 H 525.57 -0.370481 4.86291 0
M  V30 5485 H 524.575 1.91601 5.15334 0
M  V30 5486 H 525.8 2.29645 6.39093 0
M  V30 5487 H 523.746 0.0587882 6.55974 0
M  V30 5488 H 523.663 1.57567 7.39397 0
M  V30 5489 H 524.931 0.451559 7.78191 0
M  V30 5490 N 529.16 -1.33526 0.837174 0
M  V30 5491 C 530.09 -2.31764 0.284206 0
M  V30 5492 C 531.071 -1.58896 -0.607142 0
M  V30 5493 O 532.256 -1.86798 -0.531047 0
M  V30 5494 C 529.386 -3.43029 -0.542962 0
M  V30 5495 C 528.34 -4.27255 0.252451 0
M  V30 5496 C 527.666 -5.3012 -0.69836 0
M  V30 5497 C 528.966 -5.01229 1.46858 0
M  V30 5498 H 530.66 -2.78262 1.10502 0
M  V30 5499 H 528.206 -1.3378 0.532812 0
M  V30 5500 H 530.159 -4.1078 -0.940096 0
M  V30 5501 H 528.883 -2.95216 -1.39697 0
M  V30 5502 H 527.542 -3.61127 0.631124 0
M  V30 5503 H 527.19 -4.78564 -1.54872 0
M  V30 5504 H 526.89 -5.87353 -0.170274 0
M  V30 5505 H 528.414 -6.00737 -1.09305 0
M  V30 5506 H 529.828 -5.61756 1.14469 0
M  V30 5507 H 528.225 -5.68104 1.93333 0
M  V30 5508 H 529.295 -4.301 2.23924 0
M  V30 5509 N 530.638 -0.59345 -1.46 0
M  V30 5510 C 531.601 0.123538 -2.28867 0
M  V30 5511 C 532.601 0.808628 -1.38989 0
M  V30 5512 O 533.791 0.658945 -1.61256 0
M  V30 5513 C 530.923 1.1847 -3.19653 0
M  V30 5514 H 532.116 -0.604843 -2.93737 0
M  V30 5515 H 529.669 -0.351875 -1.52288 0
M  V30 5516 H 530.404 1.94431 -2.59552 0
M  V30 5517 H 530.189 0.69783 -3.8584 0
M  V30 5518 H 531.679 1.68726 -3.81997 0
M  V30 5519 N 532.116 1.54067 -0.331816 0
M  V30 5520 C 533.048 2.22139 0.564538 0
M  V30 5521 C 534.061 1.22408 1.07332 0
M  V30 5522 O 535.25 1.4883 0.985481 0
M  V30 5523 C 532.35 2.87876 1.78831 0
M  V30 5524 C 531.523 4.13817 1.41682 0
M  V30 5525 C 530.582 4.63072 2.49901 0
M  V30 5526 O 529.608 5.27562 2.13699 0
M  V30 5527 N 530.81 4.38001 3.80967 0
M  V30 5528 H 533.575 2.99694 -0.0183736 0
M  V30 5529 H 531.136 1.61153 -0.155396 0
M  V30 5530 H 533.128 3.17747 2.50637 0
M  V30 5531 H 531.698 2.13977 2.27887 0
M  V30 5532 H 530.918 3.9062 0.530044 0
M  V30 5533 H 532.206 4.95762 1.14443 0
M  V30 5534 H 531.604 3.864 4.13173 0
M  V30 5535 H 530.161 4.72507 4.48977 0
M  V30 5536 N 533.594 0.0601682 1.57485 0
M  V30 5537 C 534.557 -0.896373 2.10945 0
M  V30 5538 C 535.557 -1.23402 1.03095 0
M  V30 5539 O 536.747 -1.16921 1.29132 0
M  V30 5540 C 533.879 -2.20346 2.60116 0
M  V30 5541 H 535.072 -0.432778 2.96761 0
M  V30 5542 H 532.625 -0.188372 1.55161 0
M  V30 5543 H 533.36 -2.71268 1.7772 0
M  V30 5544 H 533.145 -1.9714 3.38937 0
M  V30 5545 H 534.635 -2.88846 3.01592 0
M  V30 5546 N 535.072 -1.5615 -0.213296 0
M  V30 5547 C 536.02 -1.93953 -1.28394 0
M  V30 5548 C 537.014 -0.822592 -1.48087 0
M  V30 5549 O 538.22 -1.00748 -1.49164 0
M  V30 5550 H 534.595 -0.61648 -0.430646 0
M  V30 5551 H 536.566 -2.83275 -0.937977 0
M  V30 5552 C 535.315 -2.27969 -2.62537 0
M  V30 5553 H 534.638 -3.13432 -2.48194 0
M  V30 5554 H 536.078 -2.58297 -3.36242 0
M  V30 5555 C 534.537 -1.10775 -3.18167 0
M  V30 5556 O 535.067 -0.373201 -3.99963 0
M  V30 5557 N 533.273 -0.889377 -2.76656 0
M  V30 5558 H 532.82 -1.48843 -2.10246 0
M  V30 5559 H 532.778 -0.107 -3.14218 0
M  V30 5560 N 536.55 0.480323 -1.50102 0
M  V30 5561 C 537.798 1.23063 -1.60312 0
M  V30 5562 C 538.119 1.92659 -0.301226 0
M  V30 5563 O 537.389 1.83691 0.680753 0
M  V30 5564 H 535.969 0.457231 -0.590719 0
M  V30 5565 H 538.631 0.554893 -1.86834 0
M  V30 5566 H 537.727 1.9835 -2.40964 0
M  V30 5567 N 538.028 1.39524 0.732853 0
M  V30 5568 C 539.274 1.38072 1.49358 0
M  V30 5569 C 539.629 -0.0227943 1.92386 0
M  V30 5570 O 538.922 -0.98976 1.64056 0
M  V30 5571 C 539.116 2.28916 2.74468 0
M  V30 5572 C 538.945 3.7796 2.43673 0
M  V30 5573 C 537.715 4.46874 2.35863 0
M  V30 5574 C 539.913 4.69886 2.09074 0
M  V30 5575 N 537.895 5.81242 1.97561 0
M  V30 5576 C 539.266 5.9292 1.81234 0
M  V30 5577 C 541.321 4.57887 1.95561 0
M  V30 5578 C 540.024 7.05297 1.41242 0
M  V30 5579 C 542.05 5.70187 1.56972 0
M  V30 5580 C 541.412 6.92297 1.30018 0
M  V30 5581 H 537.511 0.56051 0.5453 0
M  V30 5582 H 540.095 1.75093 0.85151 0
M  V30 5583 H 538.266 1.9405 3.36451 0
M  V30 5584 H 539.998 2.18441 3.40684 0
M  V30 5585 H 536.753 4.00341 2.5303 0
M  V30 5586 H 537.177 6.52356 1.80997 0
M  V30 5587 H 541.819 3.64014 2.15067 0
M  V30 5588 H 539.537 7.99069 1.20476 0
M  V30 5589 H 543.123 5.62892 1.47119 0
M  V30 5590 H 542.003 7.7772 1.00605 0
M  V30 5591 N 539.506 -0.963266 1.24736 0
M  V30 5592 C 540.754 -1.70343 1.08755 0
M  V30 5593 C 541.075 -1.91387 -0.373619 0
M  V30 5594 O 540.345 -1.4948 -1.2662 0
M  V30 5595 H 538.925 -0.631224 0.399456 0
M  V30 5596 H 541.587 -1.15859 1.56725 0
M  V30 5597 H 540.683 -2.68616 1.58909 0
M  V30 5598 N 540.985 -1.06182 -1.16461 0
M  V30 5599 C 542.231 -0.779015 -1.87241 0
M  V30 5600 C 542.564 0.692715 -1.81425 0
M  V30 5601 O 541.839 1.5074 -1.22913 0
M  V30 5602 C 542.122 -1.2728 -3.36856 0
M  V30 5603 C 541.975 -2.80821 -3.51368 0
M  V30 5604 C 543.294 -0.879799 -4.31216 0
M  V30 5605 H 540.413 -0.284464 -0.679889 0
M  V30 5606 H 543.055 -1.31755 -1.36896 0
M  V30 5607 H 541.205 -0.814673 -3.79862 0
M  V30 5608 H 542.877 -3.34833 -3.17308 0
M  V30 5609 H 541.12 -3.19606 -2.93316 0
M  V30 5610 H 541.791 -3.10435 -4.56436 0
M  V30 5611 H 544.267 -1.27436 -3.96105 0
M  V30 5612 H 543.143 -1.25278 -5.34412 0
M  V30 5613 H 543.404 0.215372 -4.41575 0
M  V30 5614 N 542.463 1.3308 -0.844243 0
M  V30 5615 C 543.396 2.27075 -0.226279 0
M  V30 5616 C 544.374 1.49911 0.629716 0
M  V30 5617 O 545.558 1.79068 0.588803 0
M  V30 5618 C 542.685 3.31767 0.681782 0
M  V30 5619 C 541.731 4.26384 -0.0994565 0
M  V30 5620 S 542.564 5.15186 -1.46094 0
M  V30 5621 C 543.72 6.23405 -0.558319 0
M  V30 5622 H 543.953 2.79141 -1.02312 0
M  V30 5623 H 541.486 1.40452 -0.641292 0
M  V30 5624 H 543.444 3.92566 1.20008 0
M  V30 5625 H 542.105 2.78507 1.45234 0
M  V30 5626 H 541.298 5.00514 0.591733 0
M  V30 5627 H 540.9 3.69949 -0.548991 0
M  V30 5628 H 543.192 6.77069 0.241672 0
M  V30 5629 H 544.135 6.96619 -1.26995 0
M  V30 5630 H 544.543 5.64333 -0.13728 0
M  V30 5631 N 543.941 0.601185 1.45683 0
M  V30 5632 C 545.187 0.0940202 2.02582 0
M  V30 5633 C 545.52 -1.26972 1.46941 0
M  V30 5634 O 544.795 -1.83613 0.641612 0
M  V30 5635 C 545.078 0.0481715 3.60068 0
M  V30 5636 C 544.931 1.44212 4.26055 0
M  V30 5637 C 546.25 -0.642975 4.35378 0
M  V30 5638 H 543.369 0.0356404 0.736138 0
M  V30 5639 H 546.011 0.771929 1.73612 0
M  V30 5640 H 544.161 -0.529128 3.8488 0
M  V30 5641 H 545.833 2.06601 4.12449 0
M  V30 5642 H 544.076 2.00465 3.84703 0
M  V30 5643 H 544.747 1.36234 5.34925 0
M  V30 5644 H 547.223 -0.152351 4.15821 0
M  V30 5645 H 546.099 -0.644141 5.45107 0
M  V30 5646 H 546.36 -1.70785 4.0778 0
M  V30 5647 N 545.419 -1.53889 0.339982 0
M  V30 5648 C 546.644 -2.05741 -0.261798 0
M  V30 5649 C 547.069 -1.21354 -1.43718 0
M  V30 5650 O 546.427 -0.22645 -1.7988 0
M  V30 5651 C 546.475 -3.54542 -0.658228 0
M  V30 5652 O 545.579 -3.7302 -1.75869 0
M  V30 5653 H 544.92 -0.662529 -0.0441672 0
M  V30 5654 H 547.45 -1.98568 0.493161 0
M  V30 5655 H 547.46 -3.9711 -0.936368 0
M  V30 5656 H 546.135 -4.15412 0.201358 0
M  V30 5657 H 544.712 -3.42355 -1.47809 0
M  V30 5658 N 546.897 -0.0685191 -1.57451 0
M  V30 5659 C 547.847 0.909895 -2.09057 0
M  V30 5660 C 548.831 1.26088 -0.999528 0
M  V30 5661 O 550.023 1.24041 -1.26265 0
M  V30 5662 C 547.152 2.17863 -2.65312 0
M  V30 5663 C 546.238 1.85427 -3.81415 0
M  V30 5664 N 546.629 1.23426 -4.9051 0
M  V30 5665 C 544.927 2.15196 -3.90649 0
M  V30 5666 C 545.628 1.09008 -5.71395 0
M  V30 5667 N 544.604 1.59871 -5.1956 0
M  V30 5668 H 548.406 0.426145 -2.90794 0
M  V30 5669 H 545.92 0.135462 -1.61834 0
M  V30 5670 H 547.917 2.88872 -3.00597 0
M  V30 5671 H 546.577 2.66829 -1.85021 0
M  V30 5672 H 547.588 0.904305 -5.09944 0
M  V30 5673 H 544.265 2.66562 -3.21327 0
M  V30 5674 H 545.655 0.607305 -6.6915 0
M  V30 5675 N 548.375 1.56261 0.205012 0
M  V30 5676 C 549.791 1.49623 0.555433 0
M  V30 5677 C 549.991 0.766719 1.86343 0
M  V30 5678 O 549.047 0.313158 2.50551 0
M  V30 5679 C 550.36 2.94253 0.619347 0
M  V30 5680 C 551.908 3.04868 0.708855 0
M  V30 5681 C 552.383 4.50888 0.803969 0
M  V30 5682 N 553.874 4.54999 0.867758 0
M  V30 5683 C 554.609 5.65284 0.96135 0
M  V30 5684 N 554.105 6.85282 1.01786 0
M  V30 5685 N 555.898 5.53174 0.997771 0
M  V30 5686 H 548.049 2.0211 -0.653094 0
M  V30 5687 H 550.312 0.919333 -0.231366 0
M  V30 5688 H 550.018 3.50643 -0.272458 0
M  V30 5689 H 549.892 3.47063 1.47741 0
M  V30 5690 H 552.279 2.48532 1.5911 0
M  V30 5691 H 552.36 2.55199 -0.175205 0
M  V30 5692 H 552.004 5.07846 -0.0738798 0
M  V30 5693 H 551.934 4.98279 1.70369 0
M  V30 5694 H 554.425 3.68588 0.833735 0
M  V30 5695 H 554.738 7.65081 1.08951 0
M  V30 5696 H 553.083 6.8796 0.986706 0
M  V30 5697 H 556.274 4.5835 0.950392 0
M  V30 5698 H 556.447 6.39151 1.06725 0
M  V30 5699 N 549.853 -0.472356 1.50355 0
M  V30 5700 C 551.078 -1.25251 1.65309 0
M  V30 5701 C 551.503 -1.85081 0.335643 0
M  V30 5702 O 550.861 -1.67227 -0.700335 0
M  V30 5703 C 550.909 -2.3379 2.74544 0
M  V30 5704 O 550.013 -3.38401 2.35709 0
M  V30 5705 H 549.354 -0.368539 0.552336 0
M  V30 5706 H 551.884 -0.562271 1.96722 0
M  V30 5707 H 551.894 -2.79121 2.97583 0
M  V30 5708 H 550.569 -1.89614 3.70161 0
M  V30 5709 H 549.146 -2.9879 2.23112 0
M  V30 5710 N 551.331 -1.39911 -0.725443 0
M  V30 5711 C 552.579 -1.37382 -1.48224 0
M  V30 5712 C 552.9 0.0264107 -1.94982 0
M  V30 5713 O 552.17 0.979408 -1.6966 0
M  V30 5714 H 550.75 -0.505596 -0.549892 0
M  V30 5715 H 553.412 -1.7487 -0.860608 0
M  V30 5716 H 552.508 -2.04254 -2.3598 0
M  V30 5717 N 552.809 0.956637 -1.25245 0
M  V30 5718 C 553.719 2.0868 -1.0719 0
M  V30 5719 C 554.735 1.73997 -0.00959074 0
M  V30 5720 O 555.911 2.00301 -0.210104 0
M  V30 5721 C 552.976 3.39754 -0.690526 0
M  V30 5722 C 552.037 3.88316 -1.83055 0
M  V30 5723 C 551.27 5.13134 -1.46728 0
M  V30 5724 O 551.493 5.6925 -0.362029 0
M  V30 5725 O 550.427 5.56356 -2.29677 0
M  V30 5726 H 554.253 2.26813 -2.01965 0
M  V30 5727 H 551.838 1.07098 -1.04165 0
M  V30 5728 H 553.72 4.18543 -0.489871 0
M  V30 5729 H 552.395 3.22896 0.227981 0
M  V30 5730 H 551.302 3.1054 -2.08604 0
M  V30 5731 H 552.635 4.09669 -2.72822 0
M  V30 5732 N 554.287 1.06798 1.15896 0
M  V30 5733 C 555.515 0.808694 1.90441 0
M  V30 5734 C 555.93 -0.637506 1.77711 0
M  V30 5735 O 555.287 -1.43684 1.12522 0
M  V30 5736 C 555.338 1.20068 3.40978 0
M  V30 5737 O 555.059 2.59013 3.53333 0
M  V30 5738 C 556.56 0.96987 4.3256 0
M  V30 5739 H 553.78 0.292809 0.603742 0
M  V30 5740 H 556.324 1.42296 1.46874 0
M  V30 5741 H 554.479 0.630842 3.82229 0
M  V30 5742 H 554.893 2.7485 4.46719 0
M  V30 5743 H 556.367 1.29371 5.36626 0
M  V30 5744 H 556.844 -0.0941209 4.39099 0
M  V30 5745 H 557.45 1.52433 3.97044 0
M  V30 5746 N 555.766 -1.3263 0.851289 0
M  V30 5747 C 556.676 -2.32722 0.296268 0
M  V30 5748 C 557.692 -1.63901 -0.584162 0
M  V30 5749 O 558.868 -1.95465 -0.485334 0
M  V30 5750 C 555.933 -3.42942 -0.509103 0
M  V30 5751 C 554.994 -4.2746 0.397069 0
M  V30 5752 C 554.227 -5.32416 -0.36996 0
M  V30 5753 O 554.45 -5.47491 -1.6003 0
M  V30 5754 O 553.384 -6.01327 0.262493 0
M  V30 5755 H 557.21 -2.82078 1.12543 0
M  V30 5756 H 554.795 -1.36194 0.614135 0
M  V30 5757 H 556.677 -4.1017 -0.96634 0
M  V30 5758 H 555.352 -2.95781 -1.31512 0
M  V30 5759 H 554.259 -3.63053 0.902411 0
M  V30 5760 H 555.592 -4.78136 1.16818 0
M  V30 5761 N 557.244 -0.608902 -1.45362 0
M  V30 5762 C 558.521 -0.0365378 -1.95566 0
M  V30 5763 C 558.901 1.43169 -1.55131 0
M  V30 5764 O 558.249 2.1349 -0.814513 0
M  V30 5765 C 558.459 -0.236026 -3.48201 0
M  V30 5766 C 559.807 -0.117518 -4.24437 0
M  V30 5767 O 560.831 -0.166217 -3.55812 0
M  V30 5768 O 559.69 -0.00372127 -5.465 0
M  V30 5769 H 556.784 0.0349874 -0.82626 0
M  V30 5770 H 559.33 -0.679055 -1.55521 0
M  V30 5771 H 558.102 -1.25569 -3.70605 0
M  V30 5772 H 557.725 0.441691 -3.95139 0
M  V30 5773 N 558.722 1.53707 -0.348139 0
M  V30 5774 C 559.95 2.05406 0.248224 0
M  V30 5775 C 560.365 1.22282 1.43849 0
M  V30 5776 O 559.722 0.259244 1.80649 0
M  V30 5777 C 559.773 3.55446 0.658793 0
M  V30 5778 O 559.494 4.35417 -0.484149 0
M  V30 5779 C 560.995 4.23335 1.31539 0
M  V30 5780 H 558.215 0.669344 0.0471075 0
M  V30 5781 H 560.759 1.98257 -0.501456 0
M  V30 5782 H 558.914 3.62803 1.35841 0
M  V30 5783 H 559.328 5.24268 -0.155949 0
M  V30 5784 H 560.802 5.29692 1.55338 0
M  V30 5785 H 561.279 3.75967 2.27036 0
M  V30 5786 H 561.885 4.20184 0.657683 0
M  V30 5787 N 560.2 0.0768682 1.57412 0
M  V30 5788 C 561.447 -0.591085 1.93681 0
M  V30 5789 C 561.775 -1.69311 0.957286 0
M  V30 5790 O 561.03 -1.95682 -0.0262428 0
M  V30 5791 C 561.329 -1.20268 3.36557 0
M  V30 5792 C 560.995 -0.226286 4.50332 0
M  V30 5793 C 559.657 0.0423142 4.81181 0
M  V30 5794 C 562.009 0.441415 5.19327 0
M  V30 5795 C 559.337 0.985616 5.78362 0
M  V30 5796 C 561.689 1.37307 6.17519 0
M  V30 5797 C 560.353 1.65009 6.46783 0
M  V30 5798 H 559.623 -0.216293 0.70873 0
M  V30 5799 H 562.27 0.148824 1.90921 0
M  V30 5800 H 560.575 -2.01844 3.35807 0
M  V30 5801 H 562.272 -1.72688 3.61911 0
M  V30 5802 H 558.862 -0.445821 4.26275 0
M  V30 5803 H 563.046 0.247023 4.95685 0
M  V30 5804 H 558.302 1.20743 5.99359 0
M  V30 5805 H 562.476 1.89637 6.70083 0
M  V30 5806 H 560.103 2.38263 7.21897 0
M  V30 5807 N 561.678 -1.56367 -0.196722 0
M  V30 5808 C 562.927 -1.79724 -0.915539 0
M  V30 5809 C 563.24 -0.649804 -1.84491 0
M  V30 5810 O 564.446 -0.767631 -2.60422 0
M  V30 5811 C 562.902 -3.18369 -1.67836 0
M  V30 5812 C 562.51 -4.4091 -0.793897 0
M  V30 5813 C 564.254 -3.51037 -2.38691 0
M  V30 5814 C 562.161 -5.70577 -1.55549 0
M  V30 5815 H 561.091 -0.67013 -0.345604 0
M  V30 5816 H 563.742 -1.82721 -0.168856 0
M  V30 5817 H 562.124 -3.09617 -2.46887 0
M  V30 5818 H 563.298 -4.60781 -0.042163 0
M  V30 5819 H 561.613 -4.15937 -0.19626 0
M  V30 5820 H 564.21 -4.4515 -2.96219 0
M  V30 5821 H 564.553 -2.74704 -3.12799 0
M  V30 5822 H 565.086 -3.61229 -1.66608 0
M  V30 5823 H 561.825 -6.49871 -0.857226 0
M  V30 5824 H 561.345 -5.54726 -2.2812 0
M  V30 5825 H 563.024 -6.11637 -2.10971 0
M  V30 5826 N 563.156 0.464375 -1.50603 0
M  V30 5827 C 564.119 1.54393 -1.69397 0
M  V30 5828 C 565.119 1.50566 -0.564504 0
M  V30 5829 O 566.309 1.53066 -0.831645 0
M  V30 5830 C 563.441 2.9401 -1.72543 0
M  V30 5831 H 564.634 1.39044 -2.65719 0
M  V30 5832 H 562.187 0.69122 -1.40185 0
M  V30 5833 H 562.922 3.14795 -0.77938 0
M  V30 5834 H 562.707 2.98195 -2.54602 0
M  V30 5835 H 564.197 3.72375 -1.89015 0
M  V30 5836 N 564.634 1.40294 0.718013 0
M  V30 5837 C 565.911 1.2894 1.47084 0
M  V30 5838 C 566.291 -0.0933625 2.10893 0
M  V30 5839 O 565.639 -1.10598 1.99951 0
M  V30 5840 C 565.849 2.4264 2.50852 0
M  V30 5841 C 567.197 2.8276 3.16752 0
M  V30 5842 O 568.221 2.42215 2.61171 0
M  V30 5843 O 567.08 3.528 4.17366 0
M  V30 5844 H 564.174 0.506236 0.653952 0
M  V30 5845 H 566.72 1.52208 0.750394 0
M  V30 5846 H 565.492 3.35009 2.022 0
M  V30 5847 H 565.115 2.21129 3.30435 0
M  V30 5848 N 566.112 -0.949982 1.2575 0
M  V30 5849 C 567.042 -2.06483 1.09028 0
M  V30 5850 C 568.023 -1.701 -0.00201532 0
M  V30 5851 O 569.208 -1.93469 0.168383 0
M  V30 5852 C 566.338 -3.39899 0.71316 0
M  V30 5853 C 565.292 -3.90309 1.75621 0
M  V30 5854 C 564.618 -5.20274 1.23365 0
M  V30 5855 C 565.918 -4.16169 3.15596 0
M  V30 5856 H 567.612 -2.20731 2.02283 0
M  V30 5857 H 565.158 -1.06066 0.973964 0
M  V30 5858 H 567.111 -4.17346 0.58309 0
M  V30 5859 H 565.835 -3.25602 -0.255091 0
M  V30 5860 H 564.494 -3.15035 1.8748 0
M  V30 5861 H 564.142 -5.02351 0.255491 0
M  V30 5862 H 563.842 -5.54971 1.93082 0
M  V30 5863 H 565.366 -6.00314 1.11607 0
M  V30 5864 H 566.78 -4.84259 3.06864 0
M  V30 5865 H 565.177 -4.62131 3.82825 0
M  V30 5866 H 566.247 -3.22273 3.6231 0
M  V30 5867 N 567.59 -1.07411 -1.15328 0
M  V30 5868 C 568.836 -0.798831 -1.86404 0
M  V30 5869 C 569.169 0.673433 -1.8215 0
M  V30 5870 O 568.444 1.49428 -1.24505 0
M  V30 5871 C 568.727 -1.30846 -3.35487 0
M  V30 5872 C 568.58 -2.84532 -3.4837 0
M  V30 5873 C 569.899 -0.925486 -4.30259 0
M  V30 5874 H 567.018 -0.291659 -0.676834 0
M  V30 5875 H 569.66 -1.332 -1.35491 0
M  V30 5876 H 567.81 -0.854916 -3.78977 0
M  V30 5877 H 569.482 -3.3818 -3.13739 0
M  V30 5878 H 567.725 -3.22699 -2.8991 0
M  V30 5879 H 568.396 -3.15259 -4.53118 0
M  V30 5880 H 570.872 -1.3163 -3.94731 0
M  V30 5881 H 569.748 -1.3094 -5.33053 0
M  V30 5882 H 570.009 0.168525 -4.41779 0
M  V30 5883 N 569.068 1.32177 -0.85831 0
M  V30 5884 C 570.314 1.97417 -0.46417 0
M  V30 5885 C 570.647 1.67746 0.978514 0
M  V30 5886 O 569.922 0.967654 1.68721 0
M  V30 5887 C 570.205 3.53069 -0.708094 0
M  V30 5888 C 570.058 3.92357 -2.19946 0
M  V30 5889 C 571.377 4.39783 -0.166881 0
M  V30 5890 H 568.496 0.717097 -0.17012 0
M  V30 5891 H 571.138 1.56499 -1.07741 0
M  V30 5892 H 569.288 3.88054 -0.186128 0
M  V30 5893 H 570.96 3.67533 -2.78779 0
M  V30 5894 H 569.203 3.41384 -2.67656 0
M  V30 5895 H 569.874 5.00841 -2.32082 0
M  V30 5896 H 572.35 4.11556 -0.613285 0
M  V30 5897 H 571.226 5.47671 -0.367093 0
M  V30 5898 H 571.487 4.32196 0.930559 0
M  V30 5899 N 570.547 0.616602 1.45037 0
M  V30 5900 C 571.795 0.115103 2.01772 0
M  V30 5901 C 572.116 -1.2622 1.48639 0
M  V30 5902 O 571.386 -1.83563 0.684199 0
M  V30 5903 H 569.966 0.0395607 0.745952 0
M  V30 5904 H 572.628 0.800032 1.77723 0
M  V30 5905 H 571.724 0.0717274 3.12018 0
M  V30 5906 N 572.025 -1.5352 0.356285 0
M  V30 5907 C 572.955 -2.28372 -0.486661 0
M  V30 5908 C 573.936 -1.30432 -1.09185 0
M  V30 5909 O 575.121 -1.59291 -1.11085 0
M  V30 5910 C 572.251 -3.06604 -1.63129 0
M  V30 5911 C 571.205 -4.12154 -1.15381 0
M  V30 5912 C 570.531 -4.78415 -2.38796 0
M  V30 5913 C 571.831 -5.21724 -0.245179 0
M  V30 5914 H 573.525 -2.99083 0.137797 0
M  V30 5915 H 571.071 -1.43841 0.0677134 0
M  V30 5916 H 573.024 -3.57712 -2.22755 0
M  V30 5917 H 571.748 -2.33568 -2.28284 0
M  V30 5918 H 570.407 -3.61978 -0.580294 0
M  V30 5919 H 570.055 -4.01959 -3.02387 0
M  V30 5920 H 569.755 -5.49734 -2.07524 0
M  V30 5921 H 571.279 -5.32313 -2.99125 0
M  V30 5922 H 572.693 -5.68391 -0.748646 0
M  V30 5923 H 571.09 -6.00095 -0.0237608 0
M  V30 5924 H 572.16 -4.79596 0.715229 0
M  V30 5925 N 573.503 -0.0852151 -1.57369 0
M  V30 5926 C 574.743 0.584297 -1.95871 0
M  V30 5927 C 575.107 1.6596 -0.965473 0
M  V30 5928 O 576.308 2.38561 -1.23862 0
M  V30 5929 C 574.579 1.13411 -3.38929 0
M  V30 5930 S 576.138 1.81687 -3.99419 0
M  V30 5931 H 572.956 0.19095 -0.684879 0
M  V30 5932 H 575.558 -0.162267 -1.94825 0
M  V30 5933 H 574.262 0.339845 -4.0899 0
M  V30 5934 H 573.793 1.91672 -3.43548 0
M  V30 5935 H 575.808 3.10037 -3.87417 0
M  V30 5936 N 574.981 1.5647 0.188427 0
M  V30 5937 C 576.209 1.85131 0.923803 0
M  V30 5938 C 576.624 0.668537 1.76567 0
M  V30 5939 O 575.981 -0.362662 1.7886 0
M  V30 5940 C 576.032 3.12661 1.81453 0
M  V30 5941 O 575.753 4.26378 1.00665 0
M  V30 5942 C 577.254 3.54548 2.66103 0
M  V30 5943 H 574.474 0.614624 0.269218 0
M  V30 5944 H 577.018 2.03581 0.193671 0
M  V30 5945 H 575.173 2.96088 2.49821 0
M  V30 5946 H 575.587 4.99041 1.61425 0
M  V30 5947 H 577.061 4.4673 3.24247 0
M  V30 5948 H 577.538 2.77853 3.40139 0
M  V30 5949 H 578.144 3.73674 2.03096 0
M  V30 5950 N 576.459 -0.456382 1.50847 0
M  V30 5951 C 577.707 -1.20497 1.62249 0
M  V30 5952 C 578.028 -1.92156 0.331839 0
M  V30 5953 O 577.298 -1.84751 -0.651443 0
M  V30 5954 H 575.878 -0.447775 0.597918 0
M  V30 5955 H 578.54 -0.525099 1.87693 0
M  V30 5956 H 577.636 -1.94492 2.44089 0
M  V30 5957 N 577.937 -1.40673 -0.710563 0
M  V30 5958 C 578.869 -1.37256 -1.83558 0
M  V30 5959 C 579.882 -0.277133 -1.60424 0
M  V30 5960 O 581.071 -0.537831 -1.70205 0
M  V30 5961 C 578.171 -1.1144 -3.20054 0
M  V30 5962 C 577.344 -2.32734 -3.70342 0
M  V30 5963 C 576.403 -2.03002 -4.85465 0
M  V30 5964 O 575.429 -2.75912 -4.97857 0
M  V30 5965 N 576.631 -1.01105 -5.71627 0
M  V30 5966 H 579.396 -2.34215 -1.86985 0
M  V30 5967 H 576.957 -1.35091 -0.892301 0
M  V30 5968 H 578.949 -0.895265 -3.94673 0
M  V30 5969 H 577.519 -0.231307 -3.11743 0
M  V30 5970 H 576.739 -2.70446 -2.86798 0
M  V30 5971 H 578.027 -3.13584 -4.00678 0
M  V30 5972 H 577.425 -0.407303 -5.64232 0
M  V30 5973 H 575.982 -0.85182 -6.4621 0
M  V30 5974 N 579.415 0.9433 -1.26252 0
M  V30 5975 C 580.664 1.68369 -1.11062 0
M  V30 5976 C 580.977 1.92514 0.346104 0
M  V30 5977 O 582.183 2.64358 0.618646 0
M  V30 5978 C 580.639 3.03171 -1.93946 0
M  V30 5979 C 580.247 2.86782 -3.4418 0
M  V30 5980 C 581.991 3.80916 -1.87359 0
M  V30 5981 C 579.898 4.17044 -4.19319 0
M  V30 5982 H 578.828 0.631469 -0.412023 0
M  V30 5983 H 581.479 1.04922 -1.50544 0
M  V30 5984 H 579.861 3.67587 -1.47296 0
M  V30 5985 H 581.035 2.31229 -3.98585 0
M  V30 5986 H 579.35 2.22482 -3.51981 0
M  V30 5987 H 581.947 4.77417 -2.40784 0
M  V30 5988 H 582.29 4.07658 -0.843857 0
M  V30 5989 H 582.823 3.2327 -2.31821 0
M  V30 5990 H 579.562 3.95487 -5.22753 0
M  V30 5991 H 579.082 4.72319 -3.69696 0
M  V30 5992 H 580.761 4.85513 -4.27651 0
M  V30 5993 N 580.893 1.08022 1.14757 0
M  V30 5994 C 581.84 0.706657 2.19716 0
M  V30 5995 C 582.81 -0.30525 1.63271 0
M  V30 5996 O 583.995 -0.19015 1.8985 0
M  V30 5997 C 581.135 0.117914 3.44898 0
M  V30 5998 C 580.248 1.18212 4.15512 0
M  V30 5999 C 579.383 0.557659 5.28265 0
M  V30 6000 C 578.422 1.60418 5.90705 0
M  V30 6001 N 577.559 1.0018 6.94916 0
M  V30 6002 H 582.399 1.60603 2.51019 0
M  V30 6003 H 579.936 0.802664 1.23271 0
M  V30 6004 H 581.894 -0.241112 4.16503 0
M  V30 6005 H 580.524 -0.744788 3.1409 0
M  V30 6006 H 579.576 1.65863 3.42335 0
M  V30 6007 H 580.888 1.97533 4.5802 0
M  V30 6008 H 580.042 0.146654 6.06523 0
M  V30 6009 H 578.781 -0.267249 4.86967 0
M  V30 6010 H 577.786 2.02489 5.11154 0
M  V30 6011 H 579.011 2.43149 6.34078 0
M  V30 6012 H 576.957 0.197917 6.55701 0
M  V30 6013 H 576.874 1.73216 7.35889 0
M  V30 6014 H 578.142 0.616523 7.77058 0
M  V30 6015 N 582.371 -1.3172 0.865308 0
M  V30 6016 C 583.599 -2.01057 0.488251 0
M  V30 6017 C 584.014 -1.64979 -0.918 0
M  V30 6018 O 583.371 -0.876597 -1.60069 0
M  V30 6019 C 583.422 -3.55964 0.630224 0
M  V30 6020 O 583.143 -3.90749 1.98109 0
M  V30 6021 C 584.644 -4.42574 0.253567 0
M  V30 6022 H 581.864 -0.64332 0.190736 0
M  V30 6023 H 584.408 -1.68058 1.16519 0
M  V30 6024 H 582.563 -3.874 0.000895422 0
M  V30 6025 H 582.977 -4.85467 1.9855 0
M  V30 6026 H 584.451 -5.50521 0.403875 0
M  V30 6027 H 584.928 -4.31724 -0.806895 0
M  V30 6028 H 585.534 -4.16547 0.858404 0
M  V30 6029 N 583.85 -0.624285 -1.44708 0
M  V30 6030 C 585.098 -0.125802 -2.01708 0
M  V30 6031 C 585.418 1.2543 -1.49306 0
M  V30 6032 O 584.689 1.83198 -0.693924 0
M  V30 6033 H 583.269 -0.0435161 -0.745731 0
M  V30 6034 H 585.931 -0.809446 -1.77296 0
M  V30 6035 H 585.027 -0.0882734 -3.11975 0
M  V30 6036 N 585.328 1.53329 -0.364422 0
M  V30 6037 C 586.291 2.24323 0.470292 0
M  V30 6038 C 587.291 1.25068 1.01067 0
M  V30 6039 O 588.481 1.49354 0.896605 0
M  V30 6040 C 585.613 2.97908 1.65722 0
M  V30 6041 H 586.806 2.9952 -0.150917 0
M  V30 6042 H 584.359 1.55868 -0.116092 0
M  V30 6043 H 585.094 2.2695 2.31655 0
M  V30 6044 H 584.879 3.70732 1.27671 0
M  V30 6045 H 586.369 3.5188 2.24878 0
M  V30 6046 N 586.806 0.0935595 1.57322 0
M  V30 6047 C 588.217 -0.435807 1.81542 0
M  V30 6048 C 588.568 -1.68263 1.00907 0
M  V30 6049 O 587.693 -2.15087 0.237983 0
M  V30 6050 C 588.288 -0.797436 3.29282 0
M  V30 6051 C 586.847 -1.27155 3.54272 0
M  V30 6052 C 585.994 -0.267455 2.76007 0
M  V30 6053 H 588.945 0.31902 1.5546 0
M  V30 6054 H 588.966 -1.6571 3.42521 0
M  V30 6055 H 588.478 0.110206 3.87943 0
M  V30 6056 H 586.579 -2.19696 3.00939 0
M  V30 6057 H 586.692 -1.23445 4.62923 0
M  V30 6058 H 585.056 -0.749282 2.43429 0
M  V30 6059 H 585.839 0.632839 3.37417 0
M  V30 6060 N 588.284 -1.56567 -0.180126 0
M  V30 6061 C 589.524 -1.83285 -0.904761 0
M  V30 6062 C 589.888 -0.673226 -1.7981 0
M  V30 6063 O 591.089 -0.820645 -2.55967 0
M  V30 6064 C 589.36 -3.15086 -1.68688 0
M  V30 6065 S 590.919 -3.63258 -2.46149 0
M  V30 6066 H 587.737 -0.643114 -0.303193 0
M  V30 6067 H 590.339 -1.94785 -0.167034 0
M  V30 6068 H 589.043 -3.97484 -1.02148 0
M  V30 6069 H 588.574 -3.06504 -2.46615 0
M  V30 6070 H 590.589 -3.29884 -3.70663 0
M  V30 6071 N 589.762 0.448376 -1.51087 0
M  V30 6072 C 591.178 0.783984 -1.39017 0
M  V30 6073 C 591.378 1.96087 -0.463904 0
M  V30 6074 O 590.434 2.52357 0.0850534 0
M  V30 6075 C 591.747 1.07471 -2.80839 0
M  V30 6076 C 593.295 1.17981 -2.89913 0
M  V30 6077 C 593.77 1.50354 -4.32617 0
M  V30 6078 N 595.261 1.57301 -4.35673 0
M  V30 6079 C 595.996 1.839 -5.4311 0
M  V30 6080 N 595.492 2.08365 -6.60724 0
M  V30 6081 N 597.285 1.8559 -5.30578 0
M  V30 6082 H 589.436 -0.326881 -2.0987 0
M  V30 6083 H 591.699 -0.0838006 -0.944289 0
M  V30 6084 H 591.405 0.282768 -3.50561 0
M  V30 6085 H 591.279 2.00519 -3.19487 0
M  V30 6086 H 593.666 1.9624 -2.20395 0
M  V30 6087 H 593.747 0.228603 -2.54776 0
M  V30 6088 H 593.391 0.726273 -5.0268 0
M  V30 6089 H 593.321 2.46663 -4.65258 0
M  V30 6090 H 595.812 1.40342 -3.50874 0
M  V30 6091 H 596.125 2.27999 -7.38401 0
M  V30 6092 H 594.47 2.0571 -6.63859 0
M  V30 6093 H 597.661 1.65989 -4.37682 0
M  V30 6094 H 597.834 2.05983 -6.1439 0
M  V30 6095 N 591.24 1.41047 0.703093 0
M  V30 6096 C 592.465 1.43537 1.49706 0
M  V30 6097 C 592.89 0.0401853 1.88057 0
M  V30 6098 O 592.248 -0.954785 1.54122 0
M  V30 6099 C 592.296 2.3433 2.74084 0
M  V30 6100 O 591.4 1.79515 3.71279 0
M  V30 6101 H 590.741 0.487454 0.450871 0
M  V30 6102 H 593.271 1.85422 0.86486 0
M  V30 6103 H 593.281 2.49947 3.22476 0
M  V30 6104 H 591.956 3.35708 2.45506 0
M  V30 6105 H 590.533 1.7331 3.30179 0
M  V30 6106 N 592.718 -0.936591 1.26751 0
M  V30 6107 C 593.628 -2.06949 1.10496 0
M  V30 6108 C 594.644 -1.7396 0.037271 0
M  V30 6109 O 595.82 -1.99941 0.241944 0
M  V30 6110 C 592.885 -3.38612 0.744491 0
M  V30 6111 C 591.946 -3.85355 1.89209 0
M  V30 6112 C 591.179 -5.10735 1.54873 0
M  V30 6113 O 591.402 -5.68602 0.452546 0
M  V30 6114 O 590.336 -5.52632 2.38499 0
M  V30 6115 H 594.162 -2.23571 2.05547 0
M  V30 6116 H 591.747 -1.05428 1.05855 0
M  V30 6117 H 593.629 -4.17711 0.556396 0
M  V30 6118 H 592.304 -3.23218 -0.176582 0
M  V30 6119 H 591.211 -3.07182 2.13518 0
M  V30 6120 H 592.544 -4.05277 2.79305 0
M  V30 6121 N 594.196 -1.08629 -1.14182 0
M  V30 6122 C 595.612 -0.814363 -1.3726 0
M  V30 6123 C 595.812 0.575271 -1.93114 0
M  V30 6124 O 594.868 1.33165 -2.1453 0
M  V30 6125 C 596.181 -1.8989 -2.33157 0
M  V30 6126 C 597.729 -1.92518 -2.46791 0
M  V30 6127 C 598.204 -3.00092 -3.45989 0
M  V30 6128 N 599.695 -2.99279 -3.53534 0
M  V30 6129 C 600.43 -3.79158 -4.30147 0
M  V30 6130 N 599.926 -4.68923 -5.09983 0
M  V30 6131 N 601.719 -3.67451 -4.25366 0
M  V30 6132 H 593.87 -1.98232 -0.762758 0
M  V30 6133 H 596.133 -0.860383 -0.398051 0
M  V30 6134 H 595.839 -2.89809 -1.99257 0
M  V30 6135 H 595.713 -1.77013 -3.33086 0
M  V30 6136 H 598.1 -0.932425 -2.79982 0
M  V30 6137 H 598.181 -2.09473 -1.46816 0
M  V30 6138 H 597.825 -3.99575 -3.13532 0
M  V30 6139 H 597.755 -2.80382 -4.45751 0
M  V30 6140 H 600.246 -2.3422 -2.96563 0
M  V30 6141 H 600.559 -5.26475 -5.65724 0
M  V30 6142 H 598.904 -4.72964 -5.09244 0
M  V30 6143 H 602.095 -2.9669 -3.62067 0
M  V30 6144 H 602.268 -4.29944 -4.84822 0
M  V30 6145 N 595.674 1.31259 -0.872281 0
M  V30 6146 C 596.604 2.30929 -0.345554 0
M  V30 6147 C 597.585 1.60449 0.5648 0
M  V30 6148 O 598.77 1.8814 0.481335 0
M  V30 6149 C 595.9 3.44348 0.451823 0
M  V30 6150 C 594.854 4.26435 -0.365641 0
M  V30 6151 C 594.18 5.31785 0.557562 0
M  V30 6152 C 595.48 4.97159 -1.60095 0
M  V30 6153 H 597.174 2.75234 -1.17841 0
M  V30 6154 H 594.72 1.3232 -0.568094 0
M  V30 6155 H 596.673 4.13128 0.830854 0
M  V30 6156 H 595.397 2.98816 1.31821 0
M  V30 6157 H 594.056 3.59326 -0.726649 0
M  V30 6158 H 593.704 4.82502 1.4213 0
M  V30 6159 H 593.404 5.87598 0.0144878 0
M  V30 6160 H 594.928 6.03424 0.933387 0
M  V30 6161 H 596.342 5.58523 -1.29323 0
M  V30 6162 H 594.739 5.62779 -2.08327 0
M  V30 6163 H 595.809 4.24012 -2.35249 0
M  V30 6164 N 597.152 0.631951 1.44375 0
M  V30 6165 C 598.115 -0.0628142 2.29114 0
M  V30 6166 C 599.115 -0.771494 1.41084 0
M  V30 6167 O 600.305 -0.615959 1.62947 0
M  V30 6168 C 597.437 -1.09953 3.22681 0
M  V30 6169 H 598.63 0.682509 2.92031 0
M  V30 6170 H 596.183 0.392128 1.51301 0
M  V30 6171 H 596.918 -1.87481 2.64616 0
M  V30 6172 H 596.703 -0.595286 3.87555 0
M  V30 6173 H 598.193 -1.58538 3.86336 0
M  V30 6174 N 598.631 -1.53133 0.372548 0
M  V30 6175 C 599.578 -2.25951 -0.470631 0
M  V30 6176 C 600.548 -1.26895 -1.07176 0
M  V30 6177 O 601.733 -1.55691 -1.10294 0
M  V30 6178 C 598.873 -3.05726 -1.6008 0
M  V30 6179 C 597.986 -4.19684 -1.02416 0
M  V30 6180 C 597.121 -4.86888 -2.124 0
M  V30 6181 C 596.16 -5.92866 -1.52238 0
M  V30 6182 N 595.297 -6.53732 -2.56084 0
M  V30 6183 H 600.137 -2.97587 0.156816 0
M  V30 6184 H 597.674 -1.4683 0.0891571 0
M  V30 6185 H 599.632 -3.50258 -2.26661 0
M  V30 6186 H 598.262 -2.36331 -2.1988 0
M  V30 6187 H 597.314 -3.79588 -0.248426 0
M  V30 6188 H 598.626 -4.95821 -0.544366 0
M  V30 6189 H 597.78 -5.34638 -2.86787 0
M  V30 6190 H 596.519 -4.10239 -2.63734 0
M  V30 6191 H 595.524 -5.4447 -0.763685 0
M  V30 6192 H 596.749 -6.71439 -1.0172 0
M  V30 6193 H 594.695 -5.79932 -3.06618 0
M  V30 6194 H 594.612 -7.25429 -2.12811 0
M  V30 6195 H 595.88 -7.0613 -3.30152 0
M  V30 6196 N 600.109 -0.101901 -1.5727 0
M  V30 6197 C 601.339 0.567568 -1.98651 0
M  V30 6198 C 601.747 1.61839 -0.980037 0
M  V30 6199 O 601.09 1.83661 0.0376564 0
M  V30 6200 C 601.152 1.26742 -3.36417 0
M  V30 6201 C 600.816 0.366561 -4.55528 0
M  V30 6202 C 601.813 -0.388022 -5.1845 0
M  V30 6203 C 599.498 0.282629 -5.01504 0
M  V30 6204 C 601.492 -1.21445 -6.25724 0
M  V30 6205 C 599.179 -0.547443 -6.08643 0
M  V30 6206 C 600.177 -1.29462 -6.70618 0
M  V30 6207 O 599.865 -2.11095 -7.7569 0
M  V30 6208 H 599.597 0.156282 -0.657687 0
M  V30 6209 H 602.151 -0.179912 -2.04611 0
M  V30 6210 H 600.381 2.06162 -3.27161 0
M  V30 6211 H 602.07 1.8321 -3.622 0
M  V30 6212 H 602.836 -0.332949 -4.83856 0
M  V30 6213 H 598.715 0.853868 -4.53023 0
M  V30 6214 H 602.259 -1.79814 -6.74027 0
M  V30 6215 H 598.156 -0.603971 -6.42668 0
M  V30 6216 H 598.924 -2.03851 -7.92709 0
M  V30 6217 N 601.587 1.56661 0.17182 0
M  V30 6218 C 602.535 1.97289 1.23207 0
M  V30 6219 C 603.529 0.861566 1.45854 0
M  V30 6220 O 604.735 1.04668 1.4644 0
M  V30 6221 H 601.11 0.627681 0.41415 0
M  V30 6222 H 603.081 2.85662 0.862542 0
M  V30 6223 C 601.83 2.34849 2.564 0
M  V30 6224 H 601.153 3.19903 2.39797 0
M  V30 6225 H 602.593 2.67121 3.29276 0
M  V30 6226 C 601.052 1.19172 3.15119 0
M  V30 6227 O 601.582 0.479113 3.98833 0
M  V30 6228 N 599.788 0.962415 2.74201 0
M  V30 6229 H 599.335 1.54365 2.06226 0
M  V30 6230 H 599.293 0.190272 3.13824 0
M  V30 6231 N 603.065 -0.440357 1.51323 0
M  V30 6232 C 603.997 -1.55254 1.68609 0
M  V30 6233 C 605.01 -1.52614 0.566812 0
M  V30 6234 O 606.199 -1.57445 0.841032 0
M  V30 6235 C 603.299 -2.94169 1.68279 0
M  V30 6236 C 602.472 -3.21346 2.96742 0
M  V30 6237 C 601.531 -4.3997 2.8864 0
M  V30 6238 O 600.557 -4.38771 3.62586 0
M  V30 6239 N 601.759 -5.43367 2.04285 0
M  V30 6240 H 604.524 -1.40831 2.6455 0
M  V30 6241 H 602.085 -0.629251 1.49171 0
M  V30 6242 H 604.077 -3.71543 1.60431 0
M  V30 6243 H 602.647 -3.02205 0.799441 0
M  V30 6244 H 601.867 -2.32299 3.18482 0
M  V30 6245 H 603.155 -3.3633 3.81785 0
M  V30 6246 H 602.553 -5.47176 1.43578 0
M  V30 6247 H 601.11 -6.19605 2.02318 0
M  V30 6248 N 604.543 -1.41418 -0.695603 0
M  V30 6249 C 605.473 -1.46035 -1.82197 0
M  V30 6250 C 606.454 -0.319025 -1.67082 0
M  V30 6251 O 607.639 -0.530462 -1.86815 0
M  V30 6252 C 604.769 -1.34179 -3.20333 0
M  V30 6253 C 603.723 -2.46123 -3.50154 0
M  V30 6254 C 603.049 -2.19332 -4.87645 0
M  V30 6255 C 604.349 -3.88463 -3.49133 0
M  V30 6256 H 606.043 -2.40303 -1.78591 0
M  V30 6257 H 603.589 -1.15663 -0.857797 0
M  V30 6258 H 605.542 -1.36021 -3.98844 0
M  V30 6259 H 604.266 -0.363952 -3.24566 0
M  V30 6260 H 602.925 -2.43563 -2.73994 0
M  V30 6261 H 602.573 -1.19891 -4.88503 0
M  V30 6262 H 602.273 -2.94344 -5.08562 0
M  V30 6263 H 603.797 -2.22889 -5.68465 0
M  V30 6264 H 605.211 -3.92738 -4.17648 0
M  V30 6265 H 603.608 -4.63158 -3.81582 0
M  V30 6266 H 604.678 -4.16617 -2.48109 0
M  V30 6267 N 606.021 0.929856 -1.27246 0
M  V30 6268 C 606.951 2.04722 -1.12299 0
M  V30 6269 C 607.932 1.70082 -0.0250464 0
M  V30 6270 O 609.117 1.93176 -0.199141 0
M  V30 6271 C 606.247 3.38721 -0.767145 0
M  V30 6272 C 605.201 3.87466 -1.81808 0
M  V30 6273 C 604.527 5.18246 -1.31626 0
M  V30 6274 C 605.827 4.11095 -3.22177 0
M  V30 6275 H 607.521 2.17485 -2.05769 0
M  V30 6276 H 605.067 1.04503 -0.990715 0
M  V30 6277 H 607.02 4.16366 -0.649413 0
M  V30 6278 H 605.744 3.25967 0.203259 0
M  V30 6279 H 604.403 3.12012 -1.92468 0
M  V30 6280 H 604.051 5.01881 -0.335378 0
M  V30 6281 H 603.751 5.51829 -2.01887 0
M  V30 6282 H 605.275 5.98462 -1.21143 0
M  V30 6283 H 606.689 4.79316 -3.1453 0
M  V30 6284 H 605.086 4.55982 -3.90129 0
M  V30 6285 H 606.156 3.16468 -3.67391 0
M  V30 6286 N 607.499 1.09233 1.13605 0
M  V30 6287 C 608.915 0.82163 1.36826 0
M  V30 6288 C 609.115 -0.565021 1.93416 0
M  V30 6289 O 608.171 -1.32026 2.15234 0
M  V30 6290 C 609.484 1.91124 2.32147 0
M  V30 6291 C 611.032 1.93824 2.45767 0
M  V30 6292 C 611.507 3.01923 3.44393 0
M  V30 6293 N 612.998 3.01149 3.51942 0
M  V30 6294 C 613.733 3.81434 4.2813 0
M  V30 6295 N 613.229 4.71621 5.07489 0
M  V30 6296 N 615.022 3.69702 4.23411 0
M  V30 6297 H 607.173 1.98633 0.752234 0
M  V30 6298 H 609.436 0.862482 0.393482 0
M  V30 6299 H 609.142 2.90862 1.97717 0
M  V30 6300 H 609.016 1.78777 3.32142 0
M  V30 6301 H 611.403 0.94726 2.79483 0
M  V30 6302 H 611.484 2.10248 1.45703 0
M  V30 6303 H 611.128 4.01232 3.11408 0
M  V30 6304 H 611.058 2.82742 4.44257 0
M  V30 6305 H 613.549 2.35789 2.95317 0
M  V30 6306 H 613.862 5.29468 5.62924 0
M  V30 6307 H 612.207 4.75658 5.06729 0
M  V30 6308 H 615.398 2.98606 3.60489 0
M  V30 6309 H 615.571 4.32509 4.82535 0
M  V30 6310 N 608.977 -1.30795 0.87923 0
M  V30 6311 C 610.226 -1.95636 0.490875 0
M  V30 6312 C 610.539 -1.70214 -0.963674 0
M  V30 6313 O 611.745 -2.28991 -1.45861 0
M  V30 6314 C 610.201 -3.50271 0.826929 0
M  V30 6315 C 609.809 -3.84521 2.29886 0
M  V30 6316 C 611.553 -4.21456 0.507494 0
M  V30 6317 C 609.46 -5.32309 2.57685 0
M  V30 6318 H 608.39 -0.732238 0.179841 0
M  V30 6319 H 611.041 -1.48829 1.07341 0
M  V30 6320 H 609.423 -3.9562 0.173542 0
M  V30 6321 H 610.597 -3.50102 2.99609 0
M  V30 6322 H 608.912 -3.26425 2.58526 0
M  V30 6323 H 611.509 -5.30199 0.692293 0
M  V30 6324 H 611.852 -4.12614 -0.552718 0
M  V30 6325 H 612.385 -3.81772 1.11782 0
M  V30 6326 H 609.124 -5.46195 3.62424 0
M  V30 6327 H 608.644 -5.68048 1.92566 0
M  V30 6328 H 610.323 -5.99678 2.42889 0
M  V30 6329 N 610.455 -0.639598 -1.44038 0
M  V30 6330 C 611.365 0.0612377 -2.3452 0
M  V30 6331 C 612.381 0.826717 -1.53106 0
M  V30 6332 O 613.557 0.777059 -1.85806 0
M  V30 6333 C 610.622 1.02492 -3.31204 0
M  V30 6334 C 609.683 0.25788 -4.28525 0
M  V30 6335 C 608.916 1.17566 -5.2059 0
M  V30 6336 O 609.139 2.41461 -5.16771 0
M  V30 6337 O 608.073 0.655407 -5.98321 0
M  V30 6338 H 611.899 -0.68318 -2.95916 0
M  V30 6339 H 609.484 -0.399784 -1.43952 0
M  V30 6340 H 611.366 1.57911 -3.90694 0
M  V30 6341 H 610.041 1.7498 -2.7233 0
M  V30 6342 H 608.948 -0.339566 -3.72556 0
M  V30 6343 H 610.281 -0.427154 -4.90343 0
M  V30 6344 N 611.933 1.52934 -0.380664 0
M  V30 6345 C 612.843 2.29921 0.466192 0
M  V30 6346 C 613.859 1.36488 1.07922 0
M  V30 6347 O 615.035 1.69553 1.0869 0
M  V30 6348 C 612.1 3.08468 1.58266 0
M  V30 6349 C 611.161 4.17595 0.995627 0
M  V30 6350 C 610.394 4.92387 2.05889 0
M  V30 6351 O 610.617 4.67184 3.27254 0
M  V30 6352 O 609.551 5.77949 1.68102 0
M  V30 6353 H 613.377 3.03274 -0.160735 0
M  V30 6354 H 610.962 1.48698 -0.144617 0
M  V30 6355 H 612.844 3.57469 2.23145 0
M  V30 6356 H 611.519 2.37937 2.19471 0
M  V30 6357 H 610.426 3.72811 0.310332 0
M  V30 6358 H 611.759 4.90336 0.427918 0
M  V30 6359 N 613.412 0.11024 1.57214 0
M  V30 6360 C 614.322 -0.857077 2.18383 0
M  V30 6361 C 615.338 -1.29915 1.1575 0
M  V30 6362 O 616.514 -1.36394 1.48184 0
M  V30 6363 C 613.579 -2.09264 2.76423 0
M  V30 6364 C 612.64 -1.70333 3.94063 0
M  V30 6365 C 611.873 -2.87999 4.49324 0
M  V30 6366 O 612.096 -4.0317 4.03497 0
M  V30 6367 O 611.03 -2.6559 5.40135 0
M  V30 6368 H 614.856 -0.366561 3.0148 0
M  V30 6369 H 612.441 -0.114914 1.48957 0
M  V30 6370 H 614.323 -2.81644 3.13456 0
M  V30 6371 H 612.998 -2.57339 1.96363 0
M  V30 6372 H 611.905 -0.950864 3.61814 0
M  V30 6373 H 613.238 -1.27007 4.75531 0
M  V30 6374 N 614.89 -1.56749 -0.16351 0
M  V30 6375 C 615.82 -2.00042 -1.20438 0
M  V30 6376 C 616.801 -0.877256 -1.45733 0
M  V30 6377 O 617.986 -1.1439 -1.56935 0
M  V30 6378 C 615.116 -2.36697 -2.54149 0
M  V30 6379 C 614.07 -3.52046 -2.43408 0
M  V30 6380 C 613.396 -3.74466 -3.81679 0
M  V30 6381 C 614.696 -4.85247 -1.93216 0
M  V30 6382 H 616.39 -2.87244 -0.844477 0
M  V30 6383 H 613.936 -1.38194 -0.40478 0
M  V30 6384 H 615.889 -2.65582 -3.27176 0
M  V30 6385 H 614.613 -1.46414 -2.91943 0
M  V30 6386 H 613.272 -3.23301 -1.72834 0
M  V30 6387 H 612.92 -2.81461 -4.1688 0
M  V30 6388 H 612.62 -4.52084 -3.75359 0
M  V30 6389 H 614.144 -4.0576 -4.5628 0
M  V30 6390 H 615.558 -5.12957 -2.56023 0
M  V30 6391 H 613.955 -5.66556 -1.97825 0
M  V30 6392 H 615.025 -4.7672 -0.88689 0
M  V30 6393 N 616.368 0.432326 -1.51554 0
M  V30 6394 C 617.616 1.17901 -1.64146 0
M  V30 6395 C 617.937 1.91604 -0.362367 0
M  V30 6396 O 617.207 1.85764 0.621968 0
M  V30 6397 H 615.787 0.438206 -0.604966 0
M  V30 6398 H 618.449 0.495172 -1.88505 0
M  V30 6399 H 617.545 1.90584 -2.47152 0
M  V30 6400 N 617.846 1.41785 0.688094 0
M  V30 6401 C 619.071 1.45117 1.48175 0
M  V30 6402 C 619.496 0.060129 1.88004 0
M  V30 6403 O 618.854 -0.938385 1.55126 0
M  V30 6404 C 618.902 2.37224 2.71583 0
M  V30 6405 O 618.006 1.83443 3.69354 0
M  V30 6406 H 617.347 0.492208 0.445676 0
M  V30 6407 H 619.877 1.86329 0.845145 0
M  V30 6408 H 619.887 2.53353 3.19806 0
M  V30 6409 H 618.562 3.38293 2.41931 0
M  V30 6410 H 617.139 1.76802 3.28322 0
M  V30 6411 N 619.324 -0.923095 1.27737 0
M  V30 6412 C 620.271 -2.02432 1.1086 0
M  V30 6413 C 621.241 -1.66098 0.00835195 0
M  V30 6414 O 622.426 -1.90027 0.171542 0
M  V30 6415 C 619.566 -3.36476 0.766671 0
M  V30 6416 C 618.679 -3.85737 1.94501 0
M  V30 6417 C 617.814 -5.08249 1.54455 0
M  V30 6418 C 616.853 -5.49818 2.6901 0
M  V30 6419 N 615.99 -6.63524 2.29521 0
M  V30 6420 H 620.83 -2.16201 2.05089 0
M  V30 6421 H 618.367 -1.05909 1.02087 0
M  V30 6422 H 620.325 -4.13569 0.549223 0
M  V30 6423 H 618.955 -3.22502 -0.13867 0
M  V30 6424 H 618.007 -3.04883 2.27487 0
M  V30 6425 H 619.319 -4.12513 2.80419 0
M  V30 6426 H 618.473 -5.92857 1.28862 0
M  V30 6427 H 617.212 -4.83261 0.656534 0
M  V30 6428 H 616.217 -4.63757 2.95313 0
M  V30 6429 H 617.442 -5.76799 3.5844 0
M  V30 6430 H 615.388 -6.40185 1.43177 0
M  V30 6431 H 615.305 -6.89978 3.08977 0
M  V30 6432 H 616.573 -7.51461 2.07187 0
M  V30 6433 N 620.802 -1.09834 -1.13024 0
M  V30 6434 C 621.765 -0.745058 -2.16752 0
M  V30 6435 C 622.765 0.227435 -1.59183 0
M  V30 6436 O 623.955 0.0050786 -1.74199 0
M  V30 6437 C 621.087 -0.102543 -3.40746 0
M  V30 6438 H 622.28 -1.66375 -2.49518 0
M  V30 6439 H 619.833 -0.898061 -1.27924 0
M  V30 6440 H 620.568 0.827177 -3.13573 0
M  V30 6441 H 620.353 -0.80235 -3.83803 0
M  V30 6442 H 621.843 0.129082 -4.174 0
M  V30 6443 N 622.28 1.30327 -0.886154 0
M  V30 6444 C 623.227 2.28099 -0.352069 0
M  V30 6445 C 624.197 1.56433 0.558397 0
M  V30 6446 O 625.382 1.84492 0.486561 0
M  V30 6447 C 622.522 3.42456 0.426346 0
M  V30 6448 C 621.635 4.28938 -0.513472 0
M  V30 6449 C 620.77 5.30458 0.280657 0
M  V30 6450 C 619.809 6.0859 -0.654556 0
M  V30 6451 N 618.946 7.02022 0.104322 0
M  V30 6452 H 623.786 2.73166 -1.19097 0
M  V30 6453 H 621.323 1.34367 -0.598662 0
M  V30 6454 H 623.281 4.07518 0.893587 0
M  V30 6455 H 621.911 2.98455 1.22981 0
M  V30 6456 H 620.963 3.64173 -1.09921 0
M  V30 6457 H 622.275 4.83399 -1.2299 0
M  V30 6458 H 621.429 6.01273 0.8097 0
M  V30 6459 H 620.168 4.76693 1.03029 0
M  V30 6460 H 619.173 5.36651 -1.19522 0
M  V30 6461 H 620.398 6.64443 -1.4033 0
M  V30 6462 H 618.344 6.50645 0.836472 0
M  V30 6463 H 618.261 7.53979 -0.552453 0
M  V30 6464 H 619.529 7.77077 0.614069 0
M  V30 6465 N 623.758 0.647228 1.43697 0
M  V30 6466 C 625.005 0.158188 2.01881 0
M  V30 6467 C 625.333 -1.22573 1.51017 0
M  V30 6468 O 624.588 -1.83086 0.69122 0
M  V30 6469 C 624.887 0.111481 3.57226 0
M  V30 6470 C 624.553 1.43633 4.27411 0
M  V30 6471 C 623.215 1.79915 4.463 0
M  V30 6472 C 625.567 2.31011 4.67208 0
M  V30 6473 C 622.895 3.03251 5.02251 0
M  V30 6474 C 625.247 3.53633 5.24525 0
M  V30 6475 C 623.911 3.90118 5.41631 0
M  V30 6476 H 623.181 0.0578851 0.738736 0
M  V30 6477 H 625.828 0.836746 1.72252 0
M  V30 6478 H 624.133 -0.650507 3.86362 0
M  V30 6479 H 625.83 -0.283682 3.99995 0
M  V30 6480 H 622.42 1.14403 4.1305 0
M  V30 6481 H 626.604 2.04272 4.52313 0
M  V30 6482 H 621.86 3.31575 5.13681 0
M  V30 6483 H 626.034 4.21561 5.5431 0
M  V30 6484 H 623.661 4.85768 5.84751 0
M  V30 6485 N 625.236 -1.5273 0.388769 0
M  V30 6486 C 626.199 -2.25043 -0.434544 0
M  V30 6487 C 627.199 -1.26661 -0.990644 0
M  V30 6488 O 628.389 -1.50762 -0.872731 0
M  V30 6489 C 625.521 -3.00507 -1.60961 0
M  V30 6490 H 626.714 -2.99242 0.198549 0
M  V30 6491 H 624.267 -1.55664 0.140875 0
M  V30 6492 H 625.002 -2.30607 -2.28015 0
M  V30 6493 H 624.787 -3.72716 -1.21757 0
M  V30 6494 H 626.277 -3.55413 -2.19251 0
M  V30 6495 N 626.714 -0.118576 -1.57153 0
M  V30 6496 C 627.962 0.538461 -1.94795 0
M  V30 6497 C 628.283 1.67243 -1.00274 0
M  V30 6498 O 627.553 1.95811 -0.0589692 0
M  V30 6499 H 626.133 0.201904 -0.719197 0
M  V30 6500 H 628.795 -0.187418 -1.93997 0
M  V30 6501 H 627.891 0.933315 -2.97818 0
M  V30 6502 N 628.193 1.56834 0.155195 0
M  V30 6503 C 629.609 1.51315 0.50755 0
M  V30 6504 C 629.809 0.825614 1.83809 0
M  V30 6505 O 628.865 0.39271 2.49427 0
M  V30 6506 C 630.178 2.96074 0.52542 0
M  V30 6507 C 631.726 3.06968 0.611505 0
M  V30 6508 C 632.201 4.53218 0.660115 0
M  V30 6509 N 633.692 4.5753 0.722564 0
M  V30 6510 C 634.427 5.68056 0.781023 0
M  V30 6511 N 633.923 6.88173 0.799327 0
M  V30 6512 N 635.716 5.56068 0.821278 0
M  V30 6513 H 627.867 1.9993 -0.717063 0
M  V30 6514 H 630.13 0.911507 -0.260496 0
M  V30 6515 H 629.836 3.49599 -0.383875 0
M  V30 6516 H 629.71 3.51587 1.36624 0
M  V30 6517 H 632.097 2.53468 1.51122 0
M  V30 6518 H 632.178 2.54513 -0.256306 0
M  V30 6519 H 631.822 5.07354 -0.23541 0
M  V30 6520 H 631.752 5.03447 1.5443 0
M  V30 6521 H 634.243 3.71054 0.716049 0
M  V30 6522 H 634.556 7.6816 0.845553 0
M  V30 6523 H 632.901 6.90751 0.767337 0
M  V30 6524 H 636.092 4.61142 0.804091 0
M  V30 6525 H 636.265 6.42223 0.863372 0
M  V30 6526 N 629.671 -0.424282 1.51781 0
M  V30 6527 C 630.619 -1.53649 1.74628 0
M  V30 6528 C 631.613 -1.57923 0.612922 0
M  V30 6529 O 632.819 -1.61511 0.794618 0
M  V30 6530 H 629.194 -0.510706 0.551981 0
M  V30 6531 H 631.165 -1.31558 2.67834 0
M  V30 6532 C 629.914 -2.91177 1.9003 0
M  V30 6533 H 629.237 -2.88625 2.76651 0
M  V30 6534 H 630.677 -3.6833 2.10021 0
M  V30 6535 C 629.136 -3.30303 0.663435 0
M  V30 6536 O 629.666 -4.01315 -0.175812 0
M  V30 6537 N 627.872 -2.86201 0.503723 0
M  V30 6538 H 627.419 -2.28583 1.18776 0
M  V30 6539 H 627.377 -3.12741 -0.322575 0
M  V30 6540 N 631.149 -1.42148 -0.680565 0
M  V30 6541 C 632.396 -1.4231 -1.44063 0
M  V30 6542 C 632.724 -0.037488 -1.94464 0
M  V30 6543 O 631.979 0.953184 -1.70918 0
M  V30 6544 C 632.278 -2.38945 -2.65782 0
M  V30 6545 C 631.944 -3.85455 -2.33956 0
M  V30 6546 C 630.606 -4.25364 -2.24987 0
M  V30 6547 C 632.958 -4.77895 -2.08004 0
M  V30 6548 C 630.286 -5.55701 -1.88184 0
M  V30 6549 C 632.638 -6.08568 -1.72706 0
M  V30 6550 C 631.302 -6.47482 -1.62244 0
M  V30 6551 H 630.572 -0.520748 -0.527164 0
M  V30 6552 H 633.219 -1.7505 -0.776524 0
M  V30 6553 H 631.524 -1.99511 -3.37198 0
M  V30 6554 H 633.221 -2.36336 -3.23954 0
M  V30 6555 H 629.811 -3.53855 -2.41836 0
M  V30 6556 H 633.995 -4.47854 -2.1387 0
M  V30 6557 H 629.251 -5.84718 -1.78648 0
M  V30 6558 H 633.425 -6.79688 -1.5165 0
M  V30 6559 H 631.052 -7.48387 -1.33496 0
M  V30 6560 N 632.627 0.916307 -1.28225 0
M  V30 6561 C 634.043 1.19425 -1.05876 0
M  V30 6562 C 634.243 2.005 0.2005 0
M  V30 6563 O 633.299 2.35806 0.902873 0
M  V30 6564 C 634.612 1.93133 -2.30478 0
M  V30 6565 C 636.16 2.06026 -2.35632 0
M  V30 6566 C 636.635 2.83141 -3.59994 0
M  V30 6567 N 638.126 2.90704 -3.60618 0
M  V30 6568 C 638.861 3.50865 -4.53521 0
M  V30 6569 N 638.357 4.12327 -5.56739 0
M  V30 6570 N 640.15 3.48379 -4.41122 0
M  V30 6571 H 632.301 0.37496 -2.09064 0
M  V30 6572 H 634.564 0.228531 -0.920042 0
M  V30 6573 H 634.27 1.40985 -3.22205 0
M  V30 6574 H 634.144 2.93696 -2.36691 0
M  V30 6575 H 636.531 2.57355 -1.44404 0
M  V30 6576 H 636.612 1.04647 -2.33415 0
M  V30 6577 H 636.256 2.32492 -4.51564 0
M  V30 6578 H 636.186 3.84829 -3.59464 0
M  V30 6579 H 638.677 2.47034 -2.85977 0
M  V30 6580 H 638.99 4.56205 -6.23776 0
M  V30 6581 H 637.335 4.10839 -5.60568 0
M  V30 6582 H 640.526 2.99572 -3.59686 0
M  V30 6583 H 640.699 3.94974 -5.13712 0
M  V30 6584 N 634.105 1.10431 1.1244 0
M  V30 6585 C 635.053 0.747974 2.20246 0
M  V30 6586 C 636.047 -0.255848 1.67457 0
M  V30 6587 O 637.253 -0.116221 1.79624 0
M  V30 6588 H 633.628 0.223946 0.71788 0
M  V30 6589 H 635.599 1.6661 2.47556 0
M  V30 6590 C 634.348 0.195957 3.47147 0
M  V30 6591 H 633.671 0.959606 3.88113 0
M  V30 6592 H 635.111 -0.0153154 4.23997 0
M  V30 6593 C 633.57 -1.07132 3.19413 0
M  V30 6594 O 634.1 -2.15284 3.3914 0
M  V30 6595 N 632.306 -0.98994 2.73219 0
M  V30 6596 H 631.853 -0.109736 2.57366 0
M  V30 6597 H 631.811 -1.83856 2.55038 0
M  V30 6598 N 635.583 -1.29855 0.893053 0
M  V30 6599 C 636.994 -1.77946 0.564998 0
M  V30 6600 C 637.345 -1.73339 -0.919134 0
M  V30 6601 O 636.47 -1.3152 -1.71847 0
M  V30 6602 C 637.065 -3.23118 1.01883 0
M  V30 6603 C 635.624 -3.69013 0.742051 0
M  V30 6604 C 634.771 -2.50121 1.19727 0
M  V30 6605 H 637.722 -1.16611 1.07646 0
M  V30 6606 H 637.743 -3.78875 0.351249 0
M  V30 6607 H 637.255 -3.26439 2.09903 0
M  V30 6608 H 635.356 -3.71173 -0.325816 0
M  V30 6609 H 635.469 -4.60117 1.33527 0
M  V30 6610 H 633.833 -2.47128 0.616418 0
M  V30 6611 H 634.616 -2.56174 2.28538 0
M  V30 6612 N 637.061 -0.65484 -1.43351 0
M  V30 6613 C 637.991 0.0221809 -2.33489 0
M  V30 6614 C 638.972 0.810272 -1.49561 0
M  V30 6615 O 640.157 0.771426 -1.78221 0
M  V30 6616 C 637.287 0.988117 -3.32947 0
M  V30 6617 C 636.241 0.310026 -4.26876 0
M  V30 6618 C 635.567 1.38752 -5.16384 0
M  V30 6619 C 636.867 -0.798589 -5.16159 0
M  V30 6620 H 638.561 -0.730571 -2.9035 0
M  V30 6621 H 636.107 -0.352773 -1.39612 0
M  V30 6622 H 638.06 1.47067 -3.94904 0
M  V30 6623 H 636.784 1.77205 -2.74346 0
M  V30 6624 H 635.443 -0.152097 -3.66284 0
M  V30 6625 H 635.091 2.16293 -4.54121 0
M  V30 6626 H 634.791 0.939051 -5.80048 0
M  V30 6627 H 636.315 1.87141 -5.81215 0
M  V30 6628 H 637.729 -0.398126 -5.71916 0
M  V30 6629 H 636.126 -1.17163 -5.88552 0
M  V30 6630 H 637.196 -1.65588 -4.55751 0
M  V30 6631 N 638.539 1.52521 -0.396863 0
M  V30 6632 C 639.502 2.2527 0.422604 0
M  V30 6633 C 640.502 1.27184 0.983913 0
M  V30 6634 O 641.692 1.51222 0.864723 0
M  V30 6635 C 638.824 3.01356 1.59365 0
M  V30 6636 H 640.017 2.99133 -0.214416 0
M  V30 6637 H 637.57 1.55587 -0.149128 0
M  V30 6638 H 638.305 2.31813 2.26789 0
M  V30 6639 H 638.09 3.73357 1.19779 0
M  V30 6640 H 639.58 3.56571 2.17363 0
M  V30 6641 N 640.017 0.126909 1.57088 0
M  V30 6642 C 640.964 -0.82036 2.15728 0
M  V30 6643 C 641.934 -1.25811 1.08447 0
M  V30 6644 O 643.119 -1.33422 1.36393 0
M  V30 6645 C 640.259 -2.06199 2.76724 0
M  V30 6646 C 639.372 -1.67188 3.98337 0
M  V30 6647 C 638.507 -2.86378 4.47393 0
M  V30 6648 C 637.546 -2.43644 5.61519 0
M  V30 6649 N 636.683 -3.55775 6.05284 0
M  V30 6650 H 641.523 -0.313472 2.96347 0
M  V30 6651 H 639.06 -0.14303 1.46403 0
M  V30 6652 H 641.018 -2.78959 3.10222 0
M  V30 6653 H 639.648 -2.54333 1.98782 0
M  V30 6654 H 638.7 -0.842714 3.70948 0
M  V30 6655 H 640.012 -1.31789 4.81075 0
M  V30 6656 H 639.166 -3.67353 4.82842 0
M  V30 6657 H 637.905 -3.25009 3.63621 0
M  V30 6658 H 636.91 -1.61104 5.25667 0
M  V30 6659 H 638.135 -2.06122 6.47063 0
M  V30 6660 H 636.081 -3.94065 5.24451 0
M  V30 6661 H 635.998 -3.24325 6.82898 0
M  V30 6662 H 637.266 -4.37166 6.45373 0
M  V30 6663 O 641.534 -1.61495 -0.0122585 0
M  V30 6664 H 642.225 -1.83148 -0.630585 0
M  V30 END ATOM
M  V30 BEGIN BOND
M  V30 END BOND
M  V30 END CTAB
M  END
$$$$
