drugbank_target|P06727 Apolipoprotein A-IV (DB01593; DB09130; DB14487)
 OpenBabel12092121073D

  0  0  0     0  0            999 V3000
M  V30 BEGIN CTAB
M  V30 COUNTS 6385 6425 0 0 0
M  V30 BEGIN ATOM
M  V30 1 H -0.908 1.98254 -0.117106 0
M  V30 2 N 0 1.576 0 0
M  V30 3 C 0.933 2.03868 1.02534 0
M  V30 4 C 1.911 0.928543 1.3348 0
M  V30 5 O 3.095 1.19667 1.45644 0
M  V30 6 C 0.222 2.43627 2.35294 0
M  V30 7 C -0.732 3.65373 2.2001 0
M  V30 8 S 0.101 5.13292 1.52614 0
M  V30 9 C 1.257 5.56322 2.86805 0
M  V30 10 H 1.49 2.90518 0.631377 0
M  V30 11 H -0.977 1.52953 0.210867 0
M  V30 12 H 0.981 2.67203 3.11629 0
M  V30 13 H -0.358 1.57376 2.7183 0
M  V30 14 H -1.165 3.90944 3.18086 0
M  V30 15 H -1.563 3.418 1.51819 0
M  V30 16 H 0.729 5.58782 3.83104 0
M  V30 17 H 1.672 6.56266 2.65933 0
M  V30 18 H 2.08 4.83886 2.90714 0
M  V30 19 N 1.4781 -0.272755 1.55222 0
M  V30 20 C 2.7251 -1.00433 1.7584 0
M  V30 21 C 3.0531 -1.86275 0.559629 0
M  V30 22 O 2.3081 -1.90269 -0.457857 0
M  V30 23 C 2.6071 -1.91642 3.01675 0
M  V30 24 C 2.2731 -1.21548 4.34208 0
M  V30 25 C 0.9351 -1.02166 4.70229 0
M  V30 26 C 3.2871 -0.716684 5.16249 0
M  V30 27 C 0.6151 -0.316334 5.85847 0
M  V30 28 C 2.9671 -0.0249476 6.32595 0
M  V30 29 C 1.6311 0.180579 6.67256 0
M  V30 30 H 0.9011 -0.367509 0.643443 0
M  V30 31 H 3.5481 -0.276596 1.89492 0
M  V30 32 H 1.8531 -2.71037 2.82924 0
M  V30 33 H 3.5501 -2.48369 3.14824 0
M  V30 34 H 0.1401 -1.37645 4.05896 0
M  V30 35 H 4.3241 -0.854047 4.88896 0
M  V30 36 H -0.4199 -0.146378 6.11225 0
M  V30 37 H 3.7541 0.369311 6.9542 0
M  V30 38 H 1.3811 0.729098 7.56696 0
M  V30 39 N 2.9562 -1.48159 -0.537278 0
M  V30 40 C 3.8862 -1.65029 -1.6519 0
M  V30 41 C 4.8672 -0.499281 -1.62607 0
M  V30 42 O 6.0522 -0.730972 -1.79918 0
M  V30 43 C 3.1822 -1.68303 -3.03795 0
M  V30 44 C 2.1362 -2.8283 -3.21234 0
M  V30 45 C 1.4622 -2.71189 -4.60826 0
M  V30 46 C 2.7622 -4.24211 -3.04701 0
M  V30 47 H 4.4562 -2.58341 -1.51328 0
M  V30 48 H 2.0022 -1.24325 -0.726585 0
M  V30 49 H 3.9552 -1.78693 -3.81637 0
M  V30 50 H 2.6792 -0.715635 -3.18663 0
M  V30 51 H 1.3382 -2.71983 -2.45807 0
M  V30 52 H 0.9862 -1.72435 -4.7252 0
M  V30 53 H 0.6862 -3.48035 -4.7344 0
M  V30 54 H 2.2102 -2.83537 -5.40777 0
M  V30 55 H 3.6242 -4.3593 -3.72341 0
M  V30 56 H 2.0212 -5.01998 -3.28813 0
M  V30 57 H 3.0912 -4.41184 -2.01209 0
M  V30 58 N 4.4343 0.785586 -1.36625 0
M  V30 59 C 5.3813 1.89838 -1.31264 0
M  V30 60 C 6.3513 1.65115 -0.180633 0
M  V30 61 O 7.5363 1.87222 -0.36777 0
M  V30 62 C 4.6763 3.26706 -1.11163 0
M  V30 63 C 3.7893 3.63476 -2.33472 0
M  V30 64 C 2.9243 4.89481 -2.06353 0
M  V30 65 C 1.9633 5.18941 -3.24602 0
M  V30 66 N 1.1003 6.36131 -2.97123 0
M  V30 67 H 5.9403 1.93756 -2.26413 0
M  V30 68 H 3.4773 0.947454 -1.12524 0
M  V30 69 H 5.4353 4.05639 -0.975337 0
M  V30 70 H 4.0653 3.222 -0.196674 0
M  V30 71 H 3.1173 2.79636 -2.57891 0
M  V30 72 H 4.4293 3.81193 -3.21704 0
M  V30 73 H 3.5833 5.76288 -1.89675 0
M  V30 74 H 2.3223 4.73841 -1.15437 0
M  V30 75 H 1.3273 4.30615 -3.41834 0
M  V30 76 H 2.5523 5.36498 -4.16349 0
M  V30 77 H 0.4983 6.21875 -2.08823 0
M  V30 78 H 0.4153 6.54198 -3.78894 0
M  V30 79 H 1.6833 7.2591 -2.84033 0
M  V30 80 N 5.9124 1.20967 1.01018 0
M  V30 81 C 6.8754 0.965918 2.07853 0
M  V30 82 C 7.8754 -0.0610545 1.60684 0
M  V30 83 O 9.0654 0.175681 1.73312 0
M  V30 84 C 6.1974 0.455513 3.37843 0
M  V30 85 H 7.3904 1.91365 2.3091 0
M  V30 86 H 4.9434 1.02594 1.17916 0
M  V30 87 H 5.6784 -0.497381 3.20463 0
M  V30 88 H 5.4634 1.19622 3.73407 0
M  V30 89 H 6.9534 0.304667 4.16487 0
M  V30 90 N 7.3905 -1.2043 1.01659 0
M  V30 91 C 8.6365 -1.90079 0.706963 0
M  V30 92 C 8.9695 -1.78648 -0.761474 0
M  V30 93 O 8.2445 -1.17069 -1.55323 0
M  V30 94 C 8.5275 -3.41469 1.14327 0
M  V30 95 C 8.3805 -3.61833 2.67201 0
M  V30 96 C 9.6995 -4.34261 0.714529 0
M  V30 97 H 6.8185 -0.690254 0.2583 0
M  V30 98 H 9.4605 -1.41826 1.26433 0
M  V30 99 H 7.6105 -3.82696 0.669056 0
M  V30 100 H 9.2825 -3.2986 3.22475 0
M  V30 101 H 7.5255 -3.05304 3.08175 0
M  V30 102 H 8.1965 -4.67955 2.92783 0
M  V30 103 H 10.6725 -4.00682 1.12221 0
M  V30 104 H 9.5485 -5.38806 1.04784 0
M  V30 105 H 9.8095 -4.40431 -0.383799 0
M  V30 106 N 8.8686 -0.792821 -1.36206 0
M  V30 107 C 10.1146 -0.36733 -1.99446 0
M  V30 108 C 10.4476 1.05917 -1.62774 0
M  V30 109 O 9.7226 1.7324 -0.88421 0
M  V30 110 C 10.0056 -0.535044 -3.56103 0
M  V30 111 C 9.8586 -2.00548 -4.02617 0
M  V30 112 C 11.1776 0.0478191 -4.40074 0
M  V30 113 H 8.2966 -0.134941 -0.724541 0
M  V30 114 H 10.9386 -0.999794 -1.61568 0
M  V30 115 H 9.0886 0.00336329 -3.885 0
M  V30 116 H 10.7606 -2.60521 -3.80692 0
M  V30 117 H 9.0036 -2.50686 -3.54032 0
M  V30 118 H 9.6746 -2.07377 -5.11565 0
M  V30 119 H 12.1506 -0.411822 -4.14057 0
M  V30 120 H 11.0266 -0.0995336 -5.4881 0
M  V30 121 H 11.2876 1.14025 -4.27142 0
M  V30 122 N 10.3467 1.47872 -0.545128 0
M  V30 123 C 11.2767 2.32661 0.197793 0
M  V30 124 C 12.2577 1.43041 0.920504 0
M  V30 125 O 13.4427 1.71912 0.90333 0
M  V30 126 C 10.5727 3.24569 1.23582 0
M  V30 127 C 9.5267 4.23333 0.630323 0
M  V30 128 C 8.8527 5.0448 1.77211 0
M  V30 129 C 10.1527 5.20704 -0.407974 0
M  V30 130 H 11.8467 2.95024 -0.510045 0
M  V30 131 H 9.3927 1.4187 -0.246731 0
M  V30 132 H 11.3457 3.8272 1.76362 0
M  V30 133 H 10.0697 2.60236 1.97344 0
M  V30 134 H 8.7287 3.6639 0.123922 0
M  V30 135 H 8.3767 4.36561 2.49847 0
M  V30 136 H 8.0767 5.71339 1.37281 0
M  V30 137 H 9.6007 5.65487 2.3034 0
M  V30 138 H 11.0147 5.7329 0.033305 0
M  V30 139 H 9.4117 5.95699 -0.725486 0
M  V30 140 H 10.4817 4.66917 -1.30828 0
M  V30 141 N 11.8248 0.280983 1.55075 0
M  V30 142 C 13.0528 -0.337293 2.04132 0
M  V30 143 C 13.4678 -1.4903 1.15912 0
M  V30 144 O 12.8248 -1.81606 0.180459 0
M  V30 145 C 12.8758 -0.812706 3.52246 0
M  V30 146 O 12.5968 0.294387 4.3711 0
M  V30 147 C 14.0978 -1.4982 4.17216 0
M  V30 148 H 11.3178 -0.0761638 0.666663 0
M  V30 149 H 13.8618 0.414787 2.00249 0
M  V30 150 H 12.0168 -1.51486 3.56554 0
M  V30 151 H 12.4308 -0.0721325 5.2445 0
M  V30 152 H 13.9048 -1.7822 5.22438 0
M  V30 153 H 14.3818 -2.43168 3.65741 0
M  V30 154 H 14.9878 -0.839742 4.16927 0
M  V30 155 N 13.3029 -1.57598 0.00835791 0
M  V30 156 C 14.2329 -2.1198 -0.979113 0
M  V30 157 C 15.2139 -1.03091 -1.35301 0
M  V30 158 O 16.3989 -1.30818 -1.43528 0
M  V30 159 C 13.5289 -2.62995 -2.26828 0
M  V30 160 C 12.4829 -3.76485 -2.03576 0
M  V30 161 C 11.8089 -4.13846 -3.38579 0
M  V30 162 C 13.1089 -5.0342 -1.39161 0
M  V30 163 H 14.8029 -2.94738 -0.526281 0
M  V30 164 H 12.3489 -1.41783 -0.251704 0
M  V30 165 H 14.3019 -2.99669 -2.96271 0
M  V30 166 H 13.0259 -1.7737 -2.7424 0
M  V30 167 H 11.6849 -3.40217 -1.36557 0
M  V30 168 H 11.3329 -3.25232 -3.83709 0
M  V30 169 H 11.0329 -4.90312 -3.23834 0
M  V30 170 H 12.5569 -4.53086 -4.09323 0
M  V30 171 H 13.9709 -5.37812 -1.98573 0
M  V30 172 H 12.3679 -5.84746 -1.34878 0
M  V30 173 H 13.4379 -4.83548 -0.361868 0
M  V30 174 N 14.781 0.264519 -1.55364 0
M  V30 175 C 15.744 1.31046 -1.88042 0
M  V30 176 C 16.744 1.41943 -0.755569 0
M  V30 177 O 17.934 1.40947 -1.02369 0
M  V30 178 C 15.066 2.69067 -2.09323 0
M  V30 179 H 16.259 1.03297 -2.81549 0
M  V30 180 H 13.812 0.502989 -1.47986 0
M  V30 181 H 14.547 3.01982 -1.18226 0
M  V30 182 H 14.332 2.62542 -2.91229 0
M  V30 183 H 15.822 3.44623 -2.35848 0
M  V30 184 N 16.2591 1.48442 0.529413 0
M  V30 185 C 17.1891 1.65902 1.64313 0
M  V30 186 C 18.1701 0.507897 1.6234 0
M  V30 187 O 19.3551 0.740503 1.79528 0
M  V30 188 C 16.4851 1.69911 3.02898 0
M  V30 189 C 15.4391 2.8453 3.19729 0
M  V30 190 C 14.7651 2.73629 4.59381 0
M  V30 191 C 16.0651 4.25821 3.02447 0
M  V30 192 H 17.7591 2.5914 1.49955 0
M  V30 193 H 15.3051 1.24709 0.719982 0
M  V30 194 H 17.2581 1.80715 3.80684 0
M  V30 195 H 15.9821 0.732524 3.18279 0
M  V30 196 H 14.6411 2.73283 2.44361 0
M  V30 197 H 14.2891 1.74938 4.71599 0
M  V30 198 H 13.9891 3.50541 4.71588 0
M  V30 199 H 15.5131 2.86401 5.39265 0
M  V30 200 H 16.9271 4.37898 3.70024 0
M  V30 201 H 15.3241 5.03735 3.26146 0
M  V30 202 H 16.3941 4.42244 1.98867 0
M  V30 203 N 17.7372 -0.778329 1.37039 0
M  V30 204 C 18.9832 -1.53892 1.32079 0
M  V30 205 C 19.3162 -1.9396 -0.0965386 0
M  V30 206 O 18.5912 -1.63568 -1.05242 0
M  V30 207 C 18.8742 -2.80847 2.25382 0
M  V30 208 C 18.7272 -2.47076 3.75864 0
M  V30 209 C 20.0462 -3.82741 2.1725 0
M  V30 210 H 17.1652 -0.558303 0.48111 0
M  V30 211 H 19.8072 -0.893397 1.67685 0
M  V30 212 H 17.9572 -3.35931 1.95148 0
M  V30 213 H 19.6292 -1.97957 4.16666 0
M  V30 214 H 17.8722 -1.79863 3.94755 0
M  V30 215 H 18.5432 -3.37798 4.36574 0
M  V30 216 H 21.0192 -3.37133 2.43887 0
M  V30 217 H 19.8952 -4.69303 2.84686 0
M  V30 218 H 20.1562 -4.2652 1.16331 0
M  V30 219 N 19.2153 -1.21501 -1.00376 0
M  V30 220 C 20.1783 -0.976927 -2.07337 0
M  V30 221 C 21.1783 0.0525322 -1.60714 0
M  V30 222 O 22.3683 -0.184869 -1.73216 0
M  V30 223 C 19.5003 -0.473423 -3.37597 0
M  V30 224 H 20.6933 -1.92587 -2.29892 0
M  V30 225 H 18.2463 -1.03217 -1.17371 0
M  V30 226 H 18.9813 0.480379 -3.20722 0
M  V30 227 H 18.7663 -1.216 -3.72768 0
M  V30 228 H 20.2563 -0.32675 -4.1632 0
M  V30 229 N 20.6934 1.19889 -1.02296 0
M  V30 230 C 21.9394 1.89701 -0.717033 0
M  V30 231 C 22.2724 1.7905 0.751989 0
M  V30 232 O 21.5474 1.17891 1.547 0
M  V30 233 C 21.8304 3.40858 -1.16136 0
M  V30 234 C 21.6834 3.60411 -2.69117 0
M  V30 235 C 23.0024 4.33876 -0.737549 0
M  V30 236 H 20.1214 0.688874 -0.261957 0
M  V30 237 H 22.7634 1.41154 -1.27183 0
M  V30 238 H 20.9134 3.82335 -0.689342 0
M  V30 239 H 22.5854 3.28145 -3.2422 0
M  V30 240 H 20.8284 3.03665 -3.0979 0
M  V30 241 H 21.4994 4.66396 -2.95261 0
M  V30 242 H 23.9754 4.00081 -1.14344 0
M  V30 243 H 22.8514 5.38242 -1.0764 0
M  V30 244 H 23.1124 4.40628 0.360436 0
M  V30 245 N 22.1715 0.800033 1.35784 0
M  V30 246 C 23.1345 0.211565 2.28221 0
M  V30 247 C 24.1345 -0.59728 1.49296 0
M  V30 248 O 25.3245 -0.416721 1.69142 0
M  V30 249 C 22.4565 -0.705846 3.33513 0
M  V30 250 H 23.6495 1.02677 2.81776 0
M  V30 251 H 21.2025 0.570211 1.45528 0
M  V30 252 H 21.9375 -1.54498 2.85133 0
M  V30 253 H 21.7225 -0.127655 3.91892 0
M  V30 254 H 23.2125 -1.11211 4.02519 0
M  V30 255 N 23.6496 -1.47581 0.552962 0
M  V30 256 C 24.8976 -2.02082 0.0272703 0
M  V30 257 C 25.2186 -1.4301 -1.32563 0
M  V30 258 O 24.4886 -0.603745 -1.86365 0
M  V30 259 H 23.0686 -0.746966 0.00709182 0
M  V30 260 H 25.7306 -1.81033 0.722008 0
M  V30 261 H 24.8266 -3.12034 -0.0639951 0
M  V30 262 N 25.1277 -0.289203 -1.54924 0
M  V30 263 C 26.0907 0.579144 -2.21762 0
M  V30 264 C 27.0907 1.07047 -1.1999 0
M  V30 265 O 28.2807 0.968384 -1.44803 0
M  V30 266 C 25.4127 1.80055 -2.8947 0
M  V30 267 H 26.6057 -0.00464908 -2.999 0
M  V30 268 H 24.1587 -0.0399306 -1.56249 0
M  V30 269 H 24.8937 2.42449 -2.15381 0
M  V30 270 H 24.6787 1.45602 -3.64064 0
M  V30 271 H 26.1687 2.41773 -3.40493 0
M  V30 272 N 26.6058 1.57591 -0.0167156 0
M  V30 273 C 28.0218 1.55946 0.339557 0
M  V30 274 C 28.2218 1.02109 1.73713 0
M  V30 275 O 27.2778 0.662303 2.43659 0
M  V30 276 C 28.5908 3.00037 0.199499 0
M  V30 277 C 30.1388 3.11805 0.273193 0
M  V30 278 C 30.6138 4.57713 0.162068 0
M  V30 279 N 32.1048 4.6268 0.219444 0
M  V30 280 C 32.8398 5.73185 0.157054 0
M  V30 281 N 32.3358 6.92786 0.0442936 0
M  V30 282 N 34.1288 5.61707 0.21014 0
M  V30 283 H 26.2798 1.90921 -0.930758 0
M  V30 284 H 28.5428 0.877674 -0.358319 0
M  V30 285 H 28.2488 3.4333 -0.76273 0
M  V30 286 H 28.1228 3.64387 0.974786 0
M  V30 287 H 30.5098 2.68433 1.22587 0
M  V30 288 H 30.5908 2.50201 -0.532256 0
M  V30 289 H 30.2348 5.01763 -0.78714 0
M  V30 290 H 30.1648 5.17283 0.986222 0
M  V30 291 H 32.6558 3.76649 0.307246 0
M  V30 292 H 32.9688 7.728 0.00304069 0
M  V30 293 H 31.3138 6.94999 0.00968457 0
M  V30 294 H 34.5048 4.6716 0.296546 0
M  V30 295 H 34.6778 6.47807 0.158054 0
M  V30 296 N 28.0839 -0.256276 1.55502 0
M  V30 297 C 29.0469 -1.30047 1.88734 0
M  V30 298 C 30.0469 -1.4154 0.763086 0
M  V30 299 O 31.2369 -1.40403 1.03115 0
M  V30 300 C 28.3689 -2.67953 2.10747 0
M  V30 301 H 29.5619 -1.01802 2.82093 0
M  V30 302 H 27.1149 -0.495134 1.4825 0
M  V30 303 H 27.8499 -3.01351 1.19825 0
M  V30 304 H 27.6349 -2.60993 2.92617 0
M  V30 305 H 29.1249 -3.43368 2.37673 0
M  V30 306 N 29.562 -1.4872 -0.521534 0
M  V30 307 C 30.472 -1.66569 -1.65203 0
M  V30 308 C 31.488 -0.548197 -1.65139 0
M  V30 309 O 32.664 -0.820339 -1.83936 0
M  V30 310 C 29.729 -1.70917 -3.01642 0
M  V30 311 C 28.79 -2.94356 -3.12495 0
M  V30 312 C 28.023 -2.98487 -4.42426 0
M  V30 313 O 28.246 -2.10786 -5.30024 0
M  V30 314 O 27.18 -3.90746 -4.57822 0
M  V30 315 H 31.006 -2.62298 -1.5308 0
M  V30 316 H 28.591 -1.3222 -0.695565 0
M  V30 317 H 30.473 -1.7625 -3.82771 0
M  V30 318 H 29.148 -0.783633 -3.14071 0
M  V30 319 H 28.055 -2.94552 -2.3063 0
M  V30 320 H 29.388 -3.86322 -3.04986 0
M  V30 321 N 31.0401 0.771051 -1.3745 0
M  V30 322 C 32.2861 1.5319 -1.32894 0
M  V30 323 C 32.6191 1.94008 0.0862511 0
M  V30 324 O 31.8941 1.64124 1.04373 0
M  V30 325 C 32.1771 2.79648 -2.26868 0
M  V30 326 C 32.0301 2.45079 -3.77169 0
M  V30 327 C 33.3491 3.81583 -2.19277 0
M  V30 328 H 30.4681 0.555744 -0.484064 0
M  V30 329 H 33.1101 0.884492 -1.68157 0
M  V30 330 H 31.2601 3.34891 -1.96926 0
M  V30 331 H 32.9321 1.95745 -4.1771 0
M  V30 332 H 31.1751 1.77767 -3.95704 0
M  V30 333 H 31.8461 3.35478 -4.38359 0
M  V30 334 H 34.3221 3.35835 -2.45671 0
M  V30 335 H 33.1981 4.67787 -2.87171 0
M  V30 336 H 33.4591 4.25897 -1.18592 0
M  V30 337 N 32.5182 1.22032 0.997298 0
M  V30 338 C 33.7432 1.06921 1.77715 0
M  V30 339 C 34.1682 -0.376226 1.84299 0
M  V30 340 O 33.5262 -1.27165 1.29223 0
M  V30 341 C 33.5742 1.67996 3.19076 0
M  V30 342 O 32.6782 0.930653 4.01762 0
M  V30 343 H 32.0192 0.375814 0.547412 0
M  V30 344 H 34.5492 1.61737 1.25309 0
M  V30 345 H 34.5592 1.72538 3.69723 0
M  V30 346 H 33.2342 2.73182 3.13599 0
M  V30 347 H 31.8112 0.960917 3.60307 0
M  V30 348 N 33.9963 -1.19345 1.0293 0
M  V30 349 C 34.9593 -2.20793 0.615069 0
M  V30 350 C 35.9593 -1.57553 -0.321533 0
M  V30 351 O 37.1493 -1.73862 -0.108483 0
M  V30 352 C 34.2813 -3.40754 -0.0999222 0
M  V30 353 H 35.4743 -2.58955 1.51269 0
M  V30 354 H 33.0273 -1.3303 0.820534 0
M  V30 355 H 33.7623 -3.0811 -1.01187 0
M  V30 356 H 33.5473 -3.87889 0.57309 0
M  V30 357 H 35.0373 -4.15898 -0.376645 0
M  V30 358 N 35.4744 -0.807222 -1.35358 0
M  V30 359 C 36.7514 -0.311126 -1.9311 0
M  V30 360 C 37.1314 1.19937 -1.73719 0
M  V30 361 O 36.4794 1.99918 -1.10657 0
M  V30 362 C 36.6894 -0.723226 -3.41424 0
M  V30 363 C 38.0374 -0.713078 -4.18569 0
M  V30 364 O 39.0614 -0.664811 -3.49941 0
M  V30 365 O 37.9204 -0.772022 -5.41019 0
M  V30 366 H 35.0144 -0.081526 -0.822972 0
M  V30 367 H 37.5604 -0.890962 -1.4443 0
M  V30 368 H 36.3324 -1.76426 -3.4927 0
M  V30 369 H 35.9554 -0.118232 -3.97424 0
M  V30 370 N 36.9525 1.47285 -0.560781 0
M  V30 371 C 37.8845 2.28118 0.222438 0
M  V30 372 C 38.8975 1.37219 0.876056 0
M  V30 373 O 40.0865 1.62011 0.749307 0
M  V30 374 C 37.1865 3.1159 1.33285 0
M  V30 375 C 36.3595 4.30473 0.77534 0
M  V30 376 C 35.4185 4.95513 1.77069 0
M  V30 377 O 34.4445 5.53792 1.31539 0
M  V30 378 N 35.6465 4.90531 3.10418 0
M  V30 379 H 38.4115 2.95976 -0.470958 0
M  V30 380 H 35.9725 1.56955 -0.39709 0
M  V30 381 H 37.9645 3.51967 1.99752 0
M  V30 382 H 36.5345 2.45951 1.92943 0
M  V30 383 H 35.7545 3.94144 -0.0662113 0
M  V30 384 H 37.0425 5.07362 0.382272 0
M  V30 385 H 36.4405 4.44389 3.5005 0
M  V30 386 H 34.9975 5.34917 3.72434 0
M  V30 387 N 38.4306 0.297415 1.54768 0
M  V30 388 C 39.6766 -0.313376 2.00364 0
M  V30 389 C 40.0096 -1.53815 1.18553 0
M  V30 390 O 39.2846 -1.92739 0.261103 0
M  V30 391 C 39.5676 -0.673525 3.53745 0
M  V30 392 C 39.4206 0.560133 4.46299 0
M  V30 393 C 40.7396 -1.50143 4.13697 0
M  V30 394 H 37.8586 -0.112428 0.728374 0
M  V30 395 H 40.5006 0.4088 1.8555 0
M  V30 396 H 38.6506 -1.28881 3.665 0
M  V30 397 H 40.3226 1.19863 4.45455 0
M  V30 398 H 38.5656 1.19405 4.17043 0
M  V30 399 H 39.2366 0.26405 5.51368 0
M  V30 400 H 41.7126 -0.981588 4.04356 0
M  V30 401 H 40.5886 -1.72221 5.21182 0
M  V30 402 H 40.8496 -2.48952 3.65343 0
M  V30 403 N 39.9087 -1.5758 0.0250728 0
M  V30 404 C 40.8717 -2.08896 -0.943139 0
M  V30 405 C 41.8717 -1.00321 -1.25668 0
M  V30 406 O 43.0617 -1.26495 -1.19769 0
M  V30 407 C 40.1937 -2.55143 -2.26086 0
M  V30 408 H 41.3867 -2.95723 -0.498775 0
M  V30 409 H 38.9397 -1.54703 -0.222888 0
M  V30 410 H 39.6747 -1.71633 -2.75159 0
M  V30 411 H 39.4597 -3.34461 -2.04641 0
M  V30 412 H 40.9497 -2.95083 -2.95492 0
M  V30 413 N 41.3868 0.248026 -1.55636 0
M  V30 414 C 42.6148 0.993808 -1.81469 0
M  V30 415 C 43.0298 1.78991 -0.60064 0
M  V30 416 O 42.3868 1.77345 0.430682 0
M  V30 417 C 42.4378 1.93258 -3.05506 0
M  V30 418 O 42.1588 1.16869 -4.22224 0
M  V30 419 C 43.6598 2.79444 -3.4413 0
M  V30 420 H 40.8798 0.292486 -0.603898 0
M  V30 421 H 43.4238 0.271253 -2.02693 0
M  V30 422 H 41.5788 2.60943 -2.86335 0
M  V30 423 H 41.9928 1.80359 -4.92515 0
M  V30 424 H 43.4668 3.41066 -4.34026 0
M  V30 425 H 43.9438 3.50499 -2.64665 0
M  V30 426 H 44.5498 2.17214 -3.65648 0
M  V30 427 N 42.8649 1.48995 0.513639 0
M  V30 428 C 44.1109 1.58076 1.27042 0
M  V30 429 C 44.4439 0.261026 1.92438 0
M  V30 430 O 43.7189 -0.734393 1.80103 0
M  V30 431 C 44.0019 2.73091 2.34719 0
M  V30 432 C 43.8549 4.14821 1.73907 0
M  V30 433 C 45.1739 2.83796 3.36375 0
M  V30 434 H 42.2929 0.575391 0.460536 0
M  V30 435 H 44.9349 1.81232 0.570516 0
M  V30 436 H 43.0849 2.53479 2.94416 0
M  V30 437 H 44.7569 4.45917 1.18135 0
M  V30 438 H 42.9999 4.21058 1.0437 0
M  V30 439 H 43.6709 4.91147 2.51949 0
M  V30 440 H 46.1469 3.01611 2.86653 0
M  V30 441 H 45.0229 3.65971 4.09093 0
M  V30 442 H 45.2839 1.92624 3.9793 0
M  V30 443 N 44.343 -0.763751 1.37857 0
M  V30 444 C 45.276 -1.88486 1.28639 0
M  V30 445 C 46.254 -1.61757 0.165363 0
M  V30 446 O 47.438 -1.85391 0.340948 0
M  V30 447 C 44.565 -3.23884 0.990811 0
M  V30 448 C 43.611 -3.69514 2.12983 0
M  V30 449 S 44.444 -3.82244 3.75033 0
M  V30 450 C 45.6 -5.20477 3.47641 0
M  V30 451 H 45.833 -1.96017 2.23527 0
M  V30 452 H 43.366 -0.925684 1.23574 0
M  V30 453 H 45.324 -4.02081 0.827101 0
M  V30 454 H 43.985 -3.14044 0.0592832 0
M  V30 455 H 43.178 -4.67696 1.87821 0
M  V30 456 H 42.78 -2.98441 2.25408 0
M  V30 457 H 45.072 -6.05905 3.03125 0
M  V30 458 H 46.015 -5.50655 4.4518 0
M  V30 459 H 46.423 -4.88793 2.82385 0
M  V30 460 N 45.8211 -1.22559 -0.990812 0
M  V30 461 C 47.0671 -1.06303 -1.73411 0
M  V30 462 C 47.4221 0.397442 -1.8825 0
M  V30 463 O 46.7151 1.29062 -1.41611 0
M  V30 464 C 46.9091 -1.71011 -3.13831 0
M  V30 465 C 46.7381 -3.232 -3.12685 0
M  V30 466 C 45.5081 -3.92314 -3.18461 0
M  V30 467 C 47.7061 -4.20107 -2.96673 0
M  V30 468 N 45.6881 -5.31571 -3.07091 0
M  V30 469 C 47.0591 -5.46208 -2.93354 0
M  V30 470 C 49.1141 -4.10973 -2.8108 0
M  V30 471 C 47.8171 -6.64225 -2.76039 0
M  V30 472 C 49.8431 -5.28642 -2.65126 0
M  V30 473 C 49.2051 -6.53663 -2.62496 0
M  V30 474 H 45.3041 -0.443441 -0.644115 0
M  V30 475 H 47.8881 -1.55131 -1.17654 0
M  V30 476 H 46.0591 -1.2473 -3.67827 0
M  V30 477 H 47.7911 -1.47828 -3.76735 0
M  V30 478 H 44.5461 -3.43326 -3.26227 0
M  V30 479 H 44.9701 -6.0455 -3.0471 0
M  V30 480 H 49.6121 -3.15098 -2.8191 0
M  V30 481 H 47.3301 -7.60246 -2.73954 0
M  V30 482 H 50.9161 -5.23407 -2.54039 0
M  V30 483 H 49.7961 -7.43182 -2.50302 0
M  V30 484 N 47.2992 1.18797 -1.03562 0
M  V30 485 C 48.5762 1.84469 -0.650434 0
M  V30 486 C 48.9562 1.92319 0.870433 0
M  V30 487 O 48.3042 1.44528 1.76986 0
M  V30 488 C 48.5142 3.2306 -1.32036 0
M  V30 489 C 49.8622 3.9915 -1.44792 0
M  V30 490 O 50.8862 3.32481 -1.27806 0
M  V30 491 O 49.7452 5.18587 -1.72423 0
M  V30 492 H 46.8392 0.795251 -0.226946 0
M  V30 493 H 49.3852 1.26231 -1.13419 0
M  V30 494 H 48.1572 3.1222 -2.3587 0
M  V30 495 H 47.7802 3.88949 -0.8249 0
M  V30 496 N 48.7773 0.814389 1.34928 0
M  V30 497 C 50.0073 0.41054 2.0248 0
M  V30 498 C 50.4153 -0.985625 1.61499 0
M  V30 499 O 49.7583 -1.64781 0.811976 0
M  V30 500 C 49.8203 0.423384 3.56998 0
M  V30 501 C 49.4843 1.77141 4.21272 0
M  V30 502 C 50.4813 2.73093 4.42398 0
M  V30 503 C 48.1663 2.05755 4.58225 0
M  V30 504 C 50.1603 3.95838 4.9959 0
M  V30 505 C 47.8473 3.28762 5.1513 0
M  V30 506 C 48.8453 4.23621 5.35755 0
M  V30 507 O 48.5333 5.44456 5.91458 0
M  V30 508 H 48.2653 0.163997 0.655806 0
M  V30 509 H 50.8193 1.10155 1.73364 0
M  V30 510 H 49.0493 -0.324276 3.85338 0
M  V30 511 H 50.7383 0.0407683 4.0588 0
M  V30 512 H 51.5043 2.5228 4.14222 0
M  V30 513 H 47.3833 1.32727 4.4148 0
M  V30 514 H 50.9273 4.69891 5.15605 0
M  V30 515 H 46.8243 3.49443 5.42734 0
M  V30 516 H 47.5923 5.4586 6.09901 0
M  V30 517 N 50.2554 -1.46986 0.568584 0
M  V30 518 C 51.5024 -2.02441 0.0487986 0
M  V30 519 C 51.8304 -1.44169 -1.30559 0
M  V30 520 O 51.0854 -0.591213 -1.86556 0
M  V30 521 C 51.3844 -3.57306 -0.081836 0
M  V30 522 C 51.0504 -4.34552 1.20313 0
M  V30 523 C 49.7124 -4.55376 1.5552 0
M  V30 524 C 52.0644 -4.79016 2.05411 0
M  V30 525 C 49.3924 -5.17913 2.7565 0
M  V30 526 C 51.7444 -5.42879 3.24754 0
M  V30 527 C 50.4084 -5.61933 3.60261 0
M  V30 528 H 49.6784 -0.740785 0.0178567 0
M  V30 529 H 52.3254 -1.76525 0.742384 0
M  V30 530 H 50.6304 -3.8228 -0.858463 0
M  V30 531 H 52.3274 -3.97876 -0.499546 0
M  V30 532 H 48.9174 -4.18631 0.919014 0
M  V30 533 H 53.1014 -4.62696 1.79516 0
M  V30 534 H 48.3574 -5.30858 3.03315 0
M  V30 535 H 52.5314 -5.76293 3.90973 0
M  V30 536 H 50.1584 -6.10161 4.53439 0
M  V30 537 N 51.7335 -0.305618 -1.54608 0
M  V30 538 C 52.9585 0.307562 -2.05107 0
M  V30 539 C 53.3835 1.46385 -1.18123 0
M  V30 540 O 52.7415 1.8034 -0.186324 0
M  V30 541 C 52.7895 0.73704 -3.52987 0
M  V30 542 O 51.8935 1.84134 -3.6901 0
M  V30 543 H 51.2345 0.0589143 -0.661381 0
M  V30 544 H 53.7645 -0.448807 -1.99617 0
M  V30 545 H 53.7745 1.02459 -3.94925 0
M  V30 546 H 52.4495 -0.108773 -4.15758 0
M  V30 547 H 51.0265 1.55398 -3.38978 0
M  V30 548 N 53.2116 1.57565 -0.0334293 0
M  V30 549 C 54.1436 2.0739 0.975811 0
M  V30 550 C 55.1566 0.998166 1.2861 0
M  V30 551 O 56.3456 1.27426 1.25 0
M  V30 552 C 53.4456 2.4871 2.30209 0
M  V30 553 C 52.6186 3.79413 2.17634 0
M  V30 554 C 51.6776 4.07237 3.33233 0
M  V30 555 O 50.7036 4.77425 3.09927 0
M  V30 556 N 51.9056 3.5775 4.5716 0
M  V30 557 H 54.6706 2.94598 0.55066 0
M  V30 558 H 52.2316 1.61173 0.15323 0
M  V30 559 H 54.2236 2.64413 3.06378 0
M  V30 560 H 52.7936 1.66845 2.64351 0
M  V30 561 H 52.0136 3.73465 1.26165 0
M  V30 562 H 53.3016 4.65038 2.0644 0
M  V30 563 H 52.6996 3.00976 4.78989 0
M  V30 564 H 51.2566 3.78724 5.30482 0
M  V30 565 N 54.6897 -0.239769 1.55765 0
M  V30 566 C 55.6197 -1.30052 1.9393 0
M  V30 567 C 56.6007 -1.49839 0.805132 0
M  V30 568 O 57.7857 -1.62328 1.06599 0
M  V30 569 C 54.9157 -2.65391 2.2402 0
M  V30 570 C 53.8697 -2.60289 3.39755 0
M  V30 571 C 53.1957 -3.99489 3.55405 0
M  V30 572 C 54.4957 -2.16654 4.75246 0
M  V30 573 H 56.1897 -0.983573 2.82783 0
M  V30 574 H 53.7357 -0.471701 1.36055 0
M  V30 575 H 55.6887 -3.3974 2.49308 0
M  V30 576 H 54.4127 -2.98736 1.32 0
M  V30 577 H 53.0717 -1.88398 3.14487 0
M  V30 578 H 52.7197 -4.30112 2.60793 0
M  V30 579 H 52.4197 -3.96962 4.33238 0
M  V30 580 H 53.9437 -4.75528 3.83022 0
M  V30 581 H 55.3577 -2.80737 4.99859 0
M  V30 582 H 53.7547 -2.25223 5.56232 0
M  V30 583 H 54.8247 -1.11835 4.71827 0
M  V30 584 N 56.1678 -1.49265 -0.50573 0
M  V30 585 C 57.3928 -1.62478 -1.28902 0
M  V30 586 C 57.8178 -0.294332 -1.85783 0
M  V30 587 O 57.1758 0.737412 -1.65626 0
M  V30 588 C 57.2238 -2.69268 -2.39848 0
M  V30 589 O 56.3278 -2.28113 -3.43567 0
M  V30 590 H 55.6688 -0.54399 -0.380751 0
M  V30 591 H 58.1988 -1.95421 -0.605952 0
M  V30 592 H 58.2088 -2.91291 -2.85681 0
M  V30 593 H 56.8838 -3.65846 -1.97812 0
M  V30 594 H 55.4608 -2.16401 -3.03685 0
M  V30 595 N 57.6459 0.756429 -1.3826 0
M  V30 596 C 58.5939 1.89149 -1.35372 0
M  V30 597 C 59.5879 1.67691 -0.24004 0
M  V30 598 O 60.7939 1.75294 -0.408919 0
M  V30 599 H 57.1689 0.622271 -0.422236 0
M  V30 600 H 59.1399 1.88701 -2.31159 0
M  V30 601 C 57.8889 3.26599 -1.19284 0
M  V30 602 H 57.2119 3.43695 -2.0424 0
M  V30 603 H 58.6519 4.06274 -1.21316 0
M  V30 604 C 57.1109 3.3675 0.100454 0
M  V30 605 O 57.6409 3.86951 1.07851 0
M  V30 606 N 55.8469 2.90179 0.15633 0
M  V30 607 H 55.3939 2.49517 -0.640253 0
M  V30 608 H 55.3519 2.97352 1.02123 0
M  V30 609 N 59.124 1.23083 0.984299 0
M  V30 610 C 60.072 1.00593 2.09723 0
M  V30 611 C 61.066 -0.0538014 1.69315 0
M  V30 612 O 62.272 0.0993719 1.79725 0
M  V30 613 H 58.647 0.30817 0.685956 0
M  V30 614 H 60.618 1.95012 2.2586 0
M  V30 615 C 59.367 0.609601 3.42314 0
M  V30 616 H 58.69 1.41675 3.73856 0
M  V30 617 H 60.13 0.491726 4.21139 0
M  V30 618 C 58.589 -0.681745 3.2993 0
M  V30 619 O 59.119 -1.73192 3.62446 0
M  V30 620 N 57.325 -0.656178 2.83095 0
M  V30 621 H 56.872 0.198759 2.56832 0
M  V30 622 H 56.83 -1.52044 2.75191 0
M  V30 623 N 60.6021 -1.18246 1.0419 0
M  V30 624 C 61.5651 -2.20128 0.638452 0
M  V30 625 C 62.5651 -1.57885 -0.304805 0
M  V30 626 O 63.7551 -1.73967 -0.0900369 0
M  V30 627 C 60.8871 -3.4084 -0.0637751 0
M  V30 628 H 62.0801 -2.57336 1.54007 0
M  V30 629 H 59.6331 -1.32152 0.834598 0
M  V30 630 H 60.3681 -3.09166 -0.979136 0
M  V30 631 H 60.1531 -3.8726 0.614198 0
M  V30 632 H 61.6431 -4.16274 -0.332512 0
M  V30 633 N 62.0802 -0.821533 -1.34494 0
M  V30 634 C 63.0272 -0.240397 -2.29545 0
M  V30 635 C 63.9972 0.634031 -1.53523 0
M  V30 636 O 65.1822 0.575966 -1.81899 0
M  V30 637 C 62.3222 0.592869 -3.39969 0
M  V30 638 C 61.4352 -0.30365 -4.30932 0
M  V30 639 C 60.5702 0.539049 -5.28458 0
M  V30 640 C 59.6092 -0.356942 -6.11058 0
M  V30 641 N 58.7462 0.446603 -7.00678 0
M  V30 642 H 63.5862 -1.05632 -2.7865 0
M  V30 643 H 61.1232 -0.532413 -1.37127 0
M  V30 644 H 63.0812 1.09129 -4.02675 0
M  V30 645 H 61.7112 1.37392 -2.92102 0
M  V30 646 H 60.7632 -0.920276 -3.691 0
M  V30 647 H 62.0752 -0.992661 -4.88823 0
M  V30 648 H 61.2292 1.102 -5.96608 0
M  V30 649 H 59.9682 1.26157 -4.71101 0
M  V30 650 H 58.9732 -0.932047 -5.41842 0
M  V30 651 H 60.1982 -1.07755 -6.70497 0
M  V30 652 H 58.1442 1.15282 -6.45791 0
M  V30 653 H 58.0612 -0.184048 -7.55776 0
M  V30 654 H 59.3292 0.992352 -7.73158 0
M  V30 655 N 63.5583 1.46682 -0.576371 0
M  V30 656 C 64.4683 2.34032 0.163141 0
M  V30 657 C 65.4843 1.49367 0.892501 0
M  V30 658 O 66.6603 1.82252 0.857106 0
M  V30 659 C 63.7253 3.26435 1.16795 0
M  V30 660 C 62.7863 4.26998 0.443944 0
M  V30 661 C 62.0193 5.14986 1.40088 0
M  V30 662 O 62.2423 5.05785 2.637 0
M  V30 663 O 61.1763 5.94906 0.914917 0
M  V30 664 H 65.0023 2.98607 -0.55388 0
M  V30 665 H 62.5873 1.45554 -0.336821 0
M  V30 666 H 64.4693 3.83459 1.74748 0
M  V30 667 H 63.1443 2.64465 1.86655 0
M  V30 668 H 62.0513 3.7368 -0.177271 0
M  V30 669 H 63.3843 4.91736 -0.213566 0
M  V30 670 N 65.0364 0.313813 1.54444 0
M  V30 671 C 65.9994 -0.54379 2.22656 0
M  V30 672 C 66.9994 -1.05124 1.21678 0
M  V30 673 O 68.1894 -0.945225 1.46325 0
M  V30 674 C 65.3214 -1.75427 2.92298 0
M  V30 675 H 66.5144 0.0523599 2.99854 0
M  V30 676 H 64.0674 0.0647834 1.56166 0
M  V30 677 H 64.8024 -2.38991 2.19211 0
M  V30 678 H 64.5874 -1.39791 3.66334 0
M  V30 679 H 66.0774 -2.36325 3.44297 0
M  V30 680 N 66.5145 -1.57545 0.0417849 0
M  V30 681 C 67.7605 -1.92601 -0.635021 0
M  V30 682 C 68.0935 -0.919627 -1.71045 0
M  V30 683 O 67.3685 0.0557892 -1.9442 0
M  V30 684 C 67.6515 -3.38085 -1.23979 0
M  V30 685 C 67.5045 -4.49467 -0.173057 0
M  V30 686 C 68.8235 -3.83776 -2.15416 0
M  V30 687 H 65.9425 -0.700397 -0.229374 0
M  V30 688 H 68.5845 -1.89728 0.101633 0
M  V30 689 H 66.7345 -3.40664 -1.86762 0
M  V30 690 H 68.4065 -4.59018 0.458312 0
M  V30 691 H 66.6495 -4.30909 0.499996 0
M  V30 692 H 67.3205 -5.48323 -0.636054 0
M  V30 693 H 69.7965 -3.83013 -1.62605 0
M  V30 694 H 68.6725 -4.8624 -2.54679 0
M  V30 695 H 68.9335 -3.19998 -3.05047 0
M  V30 696 N 67.9926 0.231505 -1.5589 0
M  V30 697 C 68.9026 1.308 -1.94752 0
M  V30 698 C 69.9186 1.51826 -0.849989 0
M  V30 699 O 71.0946 1.6515 -1.15271 0
M  V30 700 C 68.1596 2.63968 -2.24771 0
M  V30 701 C 67.2206 2.51331 -3.48039 0
M  V30 702 C 66.4536 3.78148 -3.76616 0
M  V30 703 O 66.6766 4.80722 -3.07022 0
M  V30 704 O 65.6106 3.75857 -4.70123 0
M  V30 705 H 69.4366 1.0083 -2.86474 0
M  V30 706 H 67.0216 0.433547 -1.42971 0
M  V30 707 H 68.9036 3.42633 -2.45318 0
M  V30 708 H 67.5786 2.9364 -1.36225 0
M  V30 709 H 66.4856 1.709 -3.32782 0
M  V30 710 H 67.8186 2.26601 -4.36936 0
M  V30 711 N 69.4707 1.49531 0.497807 0
M  V30 712 C 70.4207 1.62829 1.59596 0
M  V30 713 C 71.4047 0.483824 1.53453 0
M  V30 714 O 72.5967 0.736937 1.60929 0
M  V30 715 C 69.7257 1.7011 2.98191 0
M  V30 716 C 68.8117 2.90144 3.09317 0
M  V30 717 N 69.2027 4.1418 2.90324 0
M  V30 718 C 67.5007 2.88148 3.40422 0
M  V30 719 C 68.2017 4.94886 3.05717 0
M  V30 720 N 67.1777 4.28314 3.34736 0
M  V30 721 H 70.9797 2.56446 1.4357 0
M  V30 722 H 68.4937 1.46347 0.704001 0
M  V30 723 H 70.4907 1.77735 3.77115 0
M  V30 724 H 69.1507 0.776315 3.15283 0
M  V30 725 H 70.1617 4.44109 2.66436 0
M  V30 726 H 66.8387 2.05061 3.63671 0
M  V30 727 H 68.2287 6.03432 2.95499 0
M  V30 728 N 70.9488 -0.749086 1.3866 0
M  V30 729 C 71.8788 -1.8764 1.38973 0
M  V30 730 C 72.8598 -1.68178 0.255004 0
M  V30 731 O 74.0448 -1.88704 0.458754 0
M  V30 732 C 71.1748 -3.25222 1.21851 0
M  V30 733 C 70.1288 -3.59295 2.32575 0
M  V30 734 C 69.4548 -4.95663 2.00555 0
M  V30 735 C 70.7548 -3.63709 3.7485 0
M  V30 736 H 72.4488 -1.87635 2.3331 0
M  V30 737 H 69.9948 -0.901329 1.12303 0
M  V30 738 H 71.9478 -4.03746 1.20695 0
M  V30 739 H 70.6718 -3.25719 0.239775 0
M  V30 740 H 69.3308 -2.83093 2.32925 0
M  V30 741 H 68.9788 -4.92724 1.01154 0
M  V30 742 H 68.6788 -5.19429 2.74714 0
M  V30 743 H 70.2028 -5.7656 2.01024 0
M  V30 744 H 71.6168 -4.32338 3.76506 0
M  V30 745 H 70.0138 -3.98986 4.48252 0
M  V30 746 H 71.0838 -2.63834 4.06841 0
M  V30 747 N 72.4269 -1.23603 -0.977757 0
M  V30 748 C 73.3589 -0.977369 -2.07317 0
M  V30 749 C 74.3719 0.0495845 -1.62724 0
M  V30 750 O 75.5609 -0.186261 -1.77526 0
M  V30 751 C 72.6609 -0.451216 -3.35883 0
M  V30 752 C 71.8339 -1.53896 -4.09432 0
M  V30 753 C 70.8929 -1.01721 -5.16274 0
M  V30 754 O 69.9189 -1.70676 -5.43009 0
M  V30 755 N 71.1209 0.153594 -5.80297 0
M  V30 756 H 73.8859 -1.92047 -2.30082 0
M  V30 757 H 71.4469 -1.14497 -1.14465 0
M  V30 758 H 73.4389 -0.0871574 -4.04606 0
M  V30 759 H 72.0089 0.397368 -3.10064 0
M  V30 760 H 71.2289 -2.07566 -3.35127 0
M  V30 761 H 72.5169 -2.27037 -4.55337 0
M  V30 762 H 71.9149 0.730323 -5.60966 0
M  V30 763 H 70.4719 0.458892 -6.50183 0
M  V30 764 N 73.905 1.17692 -1.04816 0
M  V30 765 C 74.852 2.21581 -0.645797 0
M  V30 766 C 75.822 1.62367 0.350159 0
M  V30 767 O 77.007 1.89254 0.242433 0
M  V30 768 C 74.147 3.45092 -0.0227568 0
M  V30 769 C 73.26 4.18613 -1.06709 0
M  V30 770 C 72.395 5.29602 -0.411767 0
M  V30 771 C 71.434 5.94904 -1.44067 0
M  V30 772 N 70.571 6.97414 -0.809781 0
M  V30 773 H 75.411 2.55353 -1.5362 0
M  V30 774 H 72.948 1.25438 -0.768364 0
M  V30 775 H 74.906 4.15679 0.35588 0
M  V30 776 H 73.536 3.11917 0.831122 0
M  V30 777 H 72.588 3.46779 -1.5636 0
M  V30 778 H 73.9 4.63293 -1.84827 0
M  V30 779 H 73.054 6.06696 0.0206623 0
M  V30 780 H 71.793 4.86045 0.401438 0
M  V30 781 H 70.798 5.16544 -1.88316 0
M  V30 782 H 72.023 6.40542 -2.25571 0
M  V30 783 H 69.969 6.55998 -0.0170186 0
M  V30 784 H 69.886 7.40386 -1.52856 0
M  V30 785 H 71.154 7.78463 -0.401999 0
M  V30 786 N 75.3831 0.828654 1.34056 0
M  V30 787 C 76.6081 0.431637 2.02859 0
M  V30 788 C 77.0331 -0.956339 1.61975 0
M  V30 789 O 76.3911 -1.62338 0.807228 0
M  V30 790 C 76.4391 0.548323 3.56407 0
M  V30 791 O 75.5431 -0.429556 4.10157 0
M  V30 792 H 74.8841 0.176886 0.640006 0
M  V30 793 H 77.4141 1.12066 1.71179 0
M  V30 794 H 77.4241 0.426196 4.05768 0
M  V30 795 H 76.0991 1.5606 3.8551 0
M  V30 796 H 74.6761 -0.265836 3.71951 0
M  V30 797 N 76.8612 -1.46375 0.584142 0
M  V30 798 C 77.7712 -2.34115 -0.150728 0
M  V30 799 C 78.7872 -1.49838 -0.884567 0
M  V30 800 O 79.9632 -1.82704 -0.847429 0
M  V30 801 C 77.0282 -3.2705 -1.15062 0
M  V30 802 C 76.0892 -4.27228 -0.421293 0
M  V30 803 C 75.3222 -5.15722 -1.37355 0
M  V30 804 O 75.5452 -5.07176 -2.61014 0
M  V30 805 O 74.4792 -5.95383 -0.883355 0
M  V30 806 H 78.3052 -2.98309 0.569708 0
M  V30 807 H 75.8902 -1.45373 0.344535 0
M  V30 808 H 77.7722 -3.84381 -1.72712 0
M  V30 809 H 76.4472 -2.65451 -1.8525 0
M  V30 810 H 75.3542 -3.7358 0.197085 0
M  V30 811 H 76.6872 -4.91616 0.239641 0
M  V30 812 N 78.3393 -0.321999 -1.54275 0
M  V30 813 C 79.2693 0.537411 -2.27231 0
M  V30 814 C 80.2503 1.12064 -1.27968 0
M  V30 815 O 81.4353 1.14606 -1.56777 0
M  V30 816 C 78.5653 1.69919 -3.02894 0
M  V30 817 C 77.5193 1.24534 -4.09482 0
M  V30 818 C 76.8453 2.49394 -4.72977 0
M  V30 819 C 78.1453 0.361335 -5.21049 0
M  V30 820 H 79.8393 -0.0711406 -2.99315 0
M  V30 821 H 77.3853 -0.0356555 -1.43956 0
M  V30 822 H 79.3383 2.30668 -3.52662 0
M  V30 823 H 78.0623 2.33431 -2.28424 0
M  V30 824 H 76.7213 0.660782 -3.60596 0
M  V30 825 H 76.3693 3.11265 -3.95124 0
M  V30 826 H 76.0693 2.19718 -5.44975 0
M  V30 827 H 77.5933 3.10908 -5.25517 0
M  V30 828 H 79.0073 0.875072 -5.66582 0
M  V30 829 H 77.4043 0.157428 -5.99893 0
M  V30 830 H 78.4743 -0.60822 -4.8107 0
M  V30 831 N 79.8174 1.5752 -0.0501392 0
M  V30 832 C 81.0454 1.96963 0.633492 0
M  V30 833 C 81.4604 0.927631 1.6444 0
M  V30 834 O 80.8174 -0.0882665 1.82286 0
M  V30 835 C 80.8684 3.36487 1.32132 0
M  V30 836 O 80.5894 4.36693 0.350894 0
M  V30 837 C 82.0904 3.90682 2.09481 0
M  V30 838 H 79.3104 0.648244 0.173266 0
M  V30 839 H 81.8544 2.0417 -0.116134 0
M  V30 840 H 80.0094 3.30434 2.02218 0
M  V30 841 H 80.4234 5.17702 0.841735 0
M  V30 842 H 81.8974 4.90591 2.5303 0
M  V30 843 H 82.3744 3.26053 2.94255 0
M  V30 844 H 82.9804 4.00069 1.44307 0
M  V30 845 N 81.2955 -0.223234 1.56011 0
M  V30 846 C 82.2275 -1.30006 1.88762 0
M  V30 847 C 83.2405 -1.43129 0.775746 0
M  V30 848 O 84.4295 -1.44057 1.05403 0
M  V30 849 C 81.5295 -2.67589 2.07965 0
M  V30 850 C 80.7025 -2.76434 3.38973 0
M  V30 851 C 79.7615 -3.95019 3.47629 0
M  V30 852 O 78.7875 -3.83436 4.20672 0
M  V30 853 N 79.9895 -5.09249 2.78649 0
M  V30 854 H 82.7545 -1.02238 2.81722 0
M  V30 855 H 80.3155 -0.413278 1.56536 0
M  V30 856 H 82.3075 -3.45297 2.11073 0
M  V30 857 H 80.8775 -2.87964 1.21638 0
M  V30 858 H 80.0975 -1.85216 3.47978 0
M  V30 859 H 81.3855 -2.79313 4.25278 0
M  V30 860 H 80.7835 -5.21556 2.19081 0
M  V30 861 H 79.3405 -5.85007 2.8742 0
M  V30 862 N 82.7736 -1.49793 -0.48987 0
M  V30 863 C 83.7056 -1.63413 -1.60713 0
M  V30 864 C 84.7186 -0.516329 -1.54395 0
M  V30 865 O 85.9076 -0.788812 -1.60125 0
M  V30 866 C 83.0076 -1.58516 -2.99543 0
M  V30 867 C 82.1806 -2.86016 -3.30928 0
M  V30 868 C 81.2396 -2.74018 -4.49222 0
M  V30 869 O 80.2656 -3.47964 -4.50455 0
M  V30 870 N 81.4676 -1.86309 -5.4979 0
M  V30 871 H 84.2326 -2.59777 -1.49452 0
M  V30 872 H 81.7936 -1.47022 -0.677955 0
M  V30 873 H 83.7856 -1.48128 -3.76617 0
M  V30 874 H 82.3556 -0.69965 -3.0467 0
M  V30 875 H 81.5756 -3.10672 -2.42645 0
M  V30 876 H 82.8636 -3.70521 -3.487 0
M  V30 877 H 82.2616 -1.2551 -5.51601 0
M  V30 878 H 80.8186 -1.81837 -6.25922 0
M  V30 879 N 84.2517 0.741722 -1.39055 0
M  V30 880 C 85.1817 1.869 -1.39966 0
M  V30 881 C 86.1627 1.6804 -0.26392 0
M  V30 882 O 87.3477 1.88458 -0.468755 0
M  V30 883 C 84.4777 3.24572 -1.23574 0
M  V30 884 C 83.4317 3.58056 -2.34477 0
M  V30 885 C 82.7577 4.94593 -2.0318 0
M  V30 886 C 84.0577 3.61716 -3.76774 0
M  V30 887 H 85.7517 1.86395 -2.34302 0
M  V30 888 H 83.2977 0.895361 -1.1278 0
M  V30 889 H 85.2507 4.031 -1.22834 0
M  V30 890 H 83.9747 3.25587 -0.257045 0
M  V30 891 H 82.6337 2.81854 -2.34423 0
M  V30 892 H 82.2817 4.92181 -1.03765 0
M  V30 893 H 81.9817 5.17964 -2.77465 0
M  V30 894 H 83.5057 5.75486 -2.04079 0
M  V30 895 H 84.9197 4.30335 -3.78794 0
M  V30 896 H 83.3167 3.96603 -4.50362 0
M  V30 897 H 84.3867 2.61672 -4.08235 0
M  V30 898 N 85.7298 1.2412 0.971189 0
M  V30 899 C 86.6778 1.02812 2.08644 0
M  V30 900 C 87.6718 -0.0358403 1.69362 0
M  V30 901 O 88.8778 0.118429 1.7961 0
M  V30 902 H 85.2528 0.315428 0.682649 0
M  V30 903 H 87.2238 1.97397 2.23779 0
M  V30 904 C 85.9728 0.645874 3.41649 0
M  V30 905 H 85.2958 1.45632 3.72332 0
M  V30 906 H 86.7358 0.536366 4.20594 0
M  V30 907 C 85.1948 -0.646713 3.30635 0
M  V30 908 O 85.7248 -1.69338 3.64263 0
M  V30 909 N 83.9308 -0.626115 2.83775 0
M  V30 910 H 83.4778 0.225988 2.56607 0
M  V30 911 H 83.4358 -1.49117 2.76788 0
M  V30 912 N 87.2079 -1.17134 1.05439 0
M  V30 913 C 88.1709 -2.19439 0.661764 0
M  V30 914 C 89.1709 -1.58199 -0.288042 0
M  V30 915 O 90.3609 -1.74053 -0.0715803 0
M  V30 916 C 87.4929 -3.40889 -0.0276209 0
M  V30 917 H 88.6859 -2.55688 1.56728 0
M  V30 918 H 86.2389 -1.31259 0.848567 0
M  V30 919 H 86.9739 -3.10187 -0.94629 0
M  V30 920 H 86.7589 -3.86586 0.655238 0
M  V30 921 H 88.2489 -4.16603 -0.288342 0
M  V30 922 N 88.686 -0.835752 -1.33615 0
M  V30 923 C 89.616 -0.281739 -2.31794 0
M  V30 924 C 90.597 0.608833 -1.58831 0
M  V30 925 O 91.782 0.533035 -1.86741 0
M  V30 926 C 88.912 0.546612 -3.42971 0
M  V30 927 C 87.866 -0.247904 -4.27281 0
M  V30 928 C 87.192 0.704001 -5.30045 0
M  V30 929 C 88.492 -1.46324 -5.01385 0
M  V30 930 H 90.186 -1.10206 -2.78379 0
M  V30 931 H 87.732 -0.531388 -1.33837 0
M  V30 932 H 89.685 0.944467 -4.1068 0
M  V30 933 H 88.409 1.40011 -2.95067 0
M  V30 934 H 87.068 -0.627281 -3.61194 0
M  V30 935 H 86.716 1.55381 -4.78399 0
M  V30 936 H 86.416 0.176524 -5.87335 0
M  V30 937 H 87.94 1.09944 -6.0062 0
M  V30 938 H 89.354 -1.13871 -5.61877 0
M  V30 939 H 87.751 -1.92728 -5.6831 0
M  V30 940 H 88.821 -2.23467 -4.30338 0
M  V30 941 N 90.1641 1.46063 -0.591896 0
M  V30 942 C 91.4111 2.02338 -0.0809991 0
M  V30 943 C 91.7391 1.46228 1.28249 0
M  V30 944 O 90.9941 0.620818 1.85592 0
M  V30 945 C 91.2931 3.57391 0.0249813 0
M  V30 946 C 90.9591 4.32583 -1.27211 0
M  V30 947 C 89.6211 4.52844 -1.62745 0
M  V30 948 C 91.9731 4.75687 -2.13005 0
M  V30 949 C 89.3011 5.13462 -2.83855 0
M  V30 950 C 91.6531 5.37644 -3.3335 0
M  V30 951 C 90.3171 5.5613 -3.69155 0
M  V30 952 H 89.5871 0.740407 -0.0296397 0
M  V30 953 H 92.2341 1.75321 -0.770374 0
M  V30 954 H 90.5391 3.83597 0.797537 0
M  V30 955 H 92.2361 3.98621 0.436184 0
M  V30 956 H 88.8261 4.17116 -0.985499 0
M  V30 957 H 93.0101 4.59782 -1.86855 0
M  V30 958 H 88.2661 5.25965 -3.11722 0
M  V30 959 H 92.4401 5.7 -4.00092 0
M  V30 960 H 90.0671 6.0287 -4.63089 0
M  V30 961 N 91.6422 0.330177 1.54103 0
M  V30 962 C 92.5742 -0.566902 2.22079 0
M  V30 963 C 93.5872 -1.07462 1.22294 0
M  V30 964 O 94.7762 -0.987065 1.48726 0
M  V30 965 C 91.8762 -1.79138 2.87685 0
M  V30 966 C 91.0492 -1.42123 4.13666 0
M  V30 967 C 90.1082 -2.50394 4.62806 0
M  V30 968 O 89.1342 -2.14261 5.27334 0
M  V30 969 N 90.3362 -3.81433 4.37595 0
M  V30 970 H 93.1012 0.0151844 2.99696 0
M  V30 971 H 90.6622 0.153681 1.61169 0
M  V30 972 H 92.6542 -2.50975 3.1748 0
M  V30 973 H 91.2242 -2.28115 2.13734 0
M  V30 974 H 90.4442 -0.534201 3.90564 0
M  V30 975 H 91.7322 -1.14971 4.9564 0
M  V30 976 H 91.1302 -4.13584 3.8596 0
M  V30 977 H 89.6872 -4.4948 4.72029 0
M  V30 978 N 93.1203 -1.57491 0.0584922 0
M  V30 979 C 94.3973 -1.84346 -0.653918 0
M  V30 980 C 94.7773 -0.948355 -1.88599 0
M  V30 981 O 94.1253 -0.0112403 -2.28497 0
M  V30 982 C 94.3353 -3.34239 -1.00425 0
M  V30 983 C 95.6833 -4.01431 -1.38342 0
M  V30 984 O 96.7073 -3.38907 -1.09637 0
M  V30 985 O 95.5663 -5.11683 -1.91943 0
M  V30 986 H 92.6603 -0.761112 -0.323478 0
M  V30 987 H 95.2063 -1.6947 0.0884125 0
M  V30 988 H 93.9783 -3.91089 -0.128625 0
M  V30 989 H 93.6013 -3.54329 -1.80378 0
M  V30 990 N 94.5984 0.214957 -1.56127 0
M  V30 991 C 95.5454 1.26642 -1.92952 0
M  V30 992 C 96.5154 1.46244 -0.78753 0
M  V30 993 O 97.7004 1.59704 -1.04399 0
M  V30 994 C 94.8404 2.6104 -2.25726 0
M  V30 995 C 93.9534 2.49183 -3.52891 0
M  V30 996 C 93.0884 3.76149 -3.7508 0
M  V30 997 C 92.1274 3.59041 -4.95738 0
M  V30 998 N 91.2644 4.77972 -5.14283 0
M  V30 999 H 96.1044 0.945384 -2.82607 0
M  V30 1000 H 93.6414 0.455489 -1.3987 0
M  V30 1001 H 95.5994 3.39313 -2.42739 0
M  V30 1002 H 94.2294 2.91227 -1.39236 0
M  V30 1003 H 93.2814 1.6231 -3.44034 0
M  V30 1004 H 94.5934 2.32466 -4.41318 0
M  V30 1005 H 93.7474 4.62865 -3.92226 0
M  V30 1006 H 92.4864 3.95799 -2.84947 0
M  V30 1007 H 91.4914 2.7071 -4.78535 0
M  V30 1008 H 92.7164 3.40856 -5.87362 0
M  V30 1009 H 90.6624 4.97923 -4.27093 0
M  V30 1010 H 90.5794 4.64006 -5.96853 0
M  V30 1011 H 91.8474 5.66096 -5.35869 0
M  V30 1012 N 96.0765 1.50051 0.48192 0
M  V30 1013 C 97.0065 1.71046 1.58951 0
M  V30 1014 C 97.9875 0.559288 1.60642 0
M  V30 1015 O 99.1725 0.797243 1.77081 0
M  V30 1016 C 96.3025 1.79462 2.97339 0
M  V30 1017 C 95.2565 2.94558 3.10515 0
M  V30 1018 C 94.5825 2.88105 4.50444 0
M  V30 1019 C 95.8825 4.35227 2.88747 0
M  V30 1020 H 97.5765 2.6378 1.41635 0
M  V30 1021 H 95.1225 1.26936 0.679942 0
M  V30 1022 H 97.0755 1.92734 3.74742 0
M  V30 1023 H 95.7995 0.833412 3.15788 0
M  V30 1024 H 94.4585 2.80918 2.35543 0
M  V30 1025 H 94.1065 1.89853 4.65795 0
M  V30 1026 H 93.8065 3.65366 4.60197 0
M  V30 1027 H 95.3305 3.03412 5.29881 0
M  V30 1028 H 96.7445 4.49449 3.55905 0
M  V30 1029 H 95.1415 5.13856 3.09955 0
M  V30 1030 H 96.2115 4.48347 1.84696 0
M  V30 1031 N 97.5546 -0.734337 1.39446 0
M  V30 1032 C 98.8026 -1.49096 1.36436 0
M  V30 1033 C 99.1236 -1.94961 -0.0388255 0
M  V30 1034 O 98.3936 -1.69033 -0.990191 0
M  V30 1035 H 96.9736 -0.5531 0.502085 0
M  V30 1036 H 99.6356 -0.871725 1.74319 0
M  V30 1037 H 98.7316 -2.37276 2.02747 0
M  V30 1038 N 99.0327 -1.24633 -0.964593 0
M  V30 1039 C 99.9427 -1.05859 -2.09359 0
M  V30 1040 C 100.959 0.00148855 -1.74 0
M  V30 1041 O 102.135 -0.197346 -2.00431 0
M  V30 1042 C 99.1997 -0.668879 -3.40187 0
M  V30 1043 C 98.2607 -1.80578 -3.89474 0
M  V30 1044 C 97.4937 -1.43457 -5.14058 0
M  V30 1045 O 97.7167 -0.325775 -5.69469 0
M  V30 1046 O 96.6507 -2.2613 -5.57807 0
M  V30 1047 H 100.477 -2.00516 -2.28094 0
M  V30 1048 H 98.0617 -1.03481 -1.0776 0
M  V30 1049 H 99.9437 -0.463211 -4.18846 0
M  V30 1050 H 98.6187 0.248536 -3.22744 0
M  V30 1051 H 97.5257 -2.06623 -3.11862 0
M  V30 1052 H 98.8587 -2.70208 -4.11398 0
M  V30 1053 N 100.511 1.16574 -1.06058 0
M  V30 1054 C 101.757 1.87324 -0.777022 0
M  V30 1055 C 102.09 1.81351 0.694645 0
M  V30 1056 O 101.365 1.22753 1.50871 0
M  V30 1057 C 101.648 3.36991 -1.26922 0
M  V30 1058 C 101.501 3.51667 -2.80447 0
M  V30 1059 C 102.82 4.3131 -0.87521 0
M  V30 1060 H 99.9388 0.680191 -0.28374 0
M  V30 1061 H 102.581 1.37036 -1.3161 0
M  V30 1062 H 100.731 3.79949 -0.81063 0
M  V30 1063 H 102.403 3.17664 -3.34495 0
M  V30 1064 H 100.646 2.93656 -3.19294 0
M  V30 1065 H 101.317 4.56766 -3.0995 0
M  V30 1066 H 103.793 3.9624 -1.27014 0
M  V30 1067 H 102.669 5.34545 -1.2471 0
M  V30 1068 H 102.93 4.41552 0.220071 0
M  V30 1069 N 101.989 0.842826 1.3317 0
M  V30 1070 C 102.937 0.267495 2.31057 0
M  V30 1071 C 103.931 -0.602682 1.58316 0
M  V30 1072 O 105.137 -0.491803 1.73151 0
M  V30 1073 H 101.512 0.0677813 0.748939 0
M  V30 1074 H 103.483 1.10754 2.77085 0
M  V30 1075 C 102.232 -0.539331 3.43492 0
M  V30 1076 H 101.555 0.12095 3.99617 0
M  V30 1077 H 102.995 -0.90767 4.14171 0
M  V30 1078 C 101.454 -1.71981 2.89697 0
M  V30 1079 O 101.984 -2.81862 2.86211 0
M  V30 1080 N 100.19 -1.54299 2.46252 0
M  V30 1081 H 99.7369 -0.649143 2.49287 0
M  V30 1082 H 99.6949 -2.33431 2.10612 0
M  V30 1083 N 103.467 -1.45747 0.599634 0
M  V30 1084 C 104.695 -2.06668 0.0978551 0
M  V30 1085 C 105.11 -1.44562 -1.21439 0
M  V30 1086 O 104.467 -0.556923 -1.73795 0
M  V30 1087 C 104.518 -3.61456 -0.0567044 0
M  V30 1088 O 104.239 -4.21242 1.20361 0
M  V30 1089 C 105.74 -4.39345 -0.590869 0
M  V30 1090 H 102.96 -0.667825 0.0651943 0
M  V30 1091 H 105.504 -1.87115 0.82511 0
M  V30 1092 H 103.659 -3.80378 -0.734251 0
M  V30 1093 H 104.073 -5.14323 1.02821 0
M  V30 1094 H 105.547 -5.48182 -0.648131 0
M  V30 1095 H 106.024 -4.08568 -1.61147 0
M  V30 1096 H 106.63 -4.25268 0.0523679 0
M  V30 1097 N 104.945 -0.338344 -1.53925 0
M  V30 1098 C 106.175 0.260919 -2.04946 0
M  V30 1099 C 106.583 1.45174 -1.2133 0
M  V30 1100 O 105.926 1.82122 -0.240262 0
M  V30 1101 C 105.988 0.744596 -3.51704 0
M  V30 1102 C 105.652 -0.325883 -4.55837 0
M  V30 1103 C 106.649 -1.16687 -5.06636 0
M  V30 1104 C 104.334 -0.478317 -5.00017 0
M  V30 1105 C 106.328 -2.14588 -6.00192 0
M  V30 1106 C 104.015 -1.46073 -5.93385 0
M  V30 1107 C 105.013 -2.29297 -6.4336 0
M  V30 1108 O 104.701 -3.25867 -7.34892 0
M  V30 1109 H 104.433 0.0551207 -0.673749 0
M  V30 1110 H 106.987 -0.486984 -1.99544 0
M  V30 1111 H 105.217 1.54366 -3.54553 0
M  V30 1112 H 106.906 1.26383 -3.85723 0
M  V30 1113 H 107.672 -1.06016 -4.73271 0
M  V30 1114 H 103.551 0.159613 -4.60724 0
M  V30 1115 H 107.095 -2.79585 -6.39123 0
M  V30 1116 H 102.992 -1.56802 -6.26166 0
M  V30 1117 H 103.76 -3.21278 -7.5281 0
M  V30 1118 N 106.423 1.57458 -0.0668435 0
M  V30 1119 C 107.386 2.11323 0.887422 0
M  V30 1120 C 108.386 1.03618 1.22964 0
M  V30 1121 O 109.576 1.29626 1.16373 0
M  V30 1122 C 106.708 2.61048 2.19242 0
M  V30 1123 H 107.901 2.96942 0.420194 0
M  V30 1124 H 105.454 1.55239 0.181793 0
M  V30 1125 H 106.189 1.78868 2.70512 0
M  V30 1126 H 105.974 3.39769 1.95702 0
M  V30 1127 H 107.464 3.02814 2.87565 0
M  V30 1128 N 107.901 -0.206675 1.56239 0
M  V30 1129 C 109.149 -0.927007 1.79586 0
M  V30 1130 C 109.47 -1.8427 0.637929 0
M  V30 1131 O 108.74 -1.92849 -0.344398 0
M  V30 1132 H 107.32 -0.345292 0.662407 0
M  V30 1133 H 109.982 -0.21496 1.93711 0
M  V30 1134 H 109.078 -1.52501 2.72305 0
M  V30 1135 N 109.379 -1.50304 -0.473955 0
M  V30 1136 C 110.656 -1.51667 -1.23518 0
M  V30 1137 C 111.036 -0.259701 -2.09496 0
M  V30 1138 O 110.384 0.756986 -2.15597 0
M  V30 1139 C 110.594 -2.81082 -2.06868 0
M  V30 1140 C 111.942 -3.31631 -2.65153 0
M  V30 1141 O 112.966 -2.82384 -2.17113 0
M  V30 1142 O 111.825 -4.17471 -3.52675 0
M  V30 1143 H 108.919 -0.60822 -0.560355 0
M  V30 1144 H 111.465 -1.62592 -0.486011 0
M  V30 1145 H 110.237 -3.64041 -1.4349 0
M  V30 1146 H 109.86 -2.73146 -2.88924 0
M  V30 1147 N 110.857 0.726932 -1.39834 0
M  V30 1148 C 111.787 1.85405 -1.41941 0
M  V30 1149 C 112.768 1.67751 -0.281728 0
M  V30 1150 O 113.953 1.8795 -0.488717 0
M  V30 1151 C 111.083 3.23243 -1.2701 0
M  V30 1152 C 110.037 3.55549 -2.38262 0
M  V30 1153 C 109.363 4.9241 -2.08415 0
M  V30 1154 C 110.663 3.577 -3.80589 0
M  V30 1155 H 112.357 1.83899 -2.36266 0
M  V30 1156 H 109.903 0.883349 -1.13723 0
M  V30 1157 H 111.856 4.01775 -1.27103 0
M  V30 1158 H 110.58 3.25296 -0.291564 0
M  V30 1159 H 109.239 2.79351 -2.37399 0
M  V30 1160 H 108.887 4.91052 -1.0898 0
M  V30 1161 H 108.587 5.14992 -2.82943 0
M  V30 1162 H 110.111 5.73289 -2.10171 0
M  V30 1163 H 111.525 4.26293 -3.83337 0
M  V30 1164 H 109.922 3.91804 -4.54543 0
M  V30 1165 H 110.992 2.57328 -4.10987 0
M  V30 1166 N 112.336 1.25143 0.95797 0
M  V30 1167 C 113.268 1.01023 2.05735 0
M  V30 1168 C 114.281 -0.0236902 1.62783 0
M  V30 1169 O 115.47 0.21448 1.77207 0
M  V30 1170 C 112.57 0.504595 3.35122 0
M  V30 1171 C 111.743 1.6039 4.06932 0
M  V30 1172 C 110.802 1.09922 5.14591 0
M  V30 1173 O 109.828 1.79293 5.40225 0
M  V30 1174 N 111.03 -0.0612545 5.80468 0
M  V30 1175 H 113.795 1.95683 2.26998 0
M  V30 1176 H 111.356 1.16303 1.12629 0
M  V30 1177 H 113.348 0.151516 4.04416 0
M  V30 1178 H 111.918 -0.347989 3.10657 0
M  V30 1179 H 111.138 2.12872 3.31782 0
M  V30 1180 H 112.426 2.34252 4.51667 0
M  V30 1181 H 111.824 -0.640985 5.62057 0
M  V30 1182 H 110.381 -0.355395 6.5083 0
M  V30 1183 N 113.814 -1.1601 1.06675 0
M  V30 1184 C 114.761 -2.20525 0.680967 0
M  V30 1185 C 115.731 -1.62904 -0.324283 0
M  V30 1186 O 116.916 -1.89615 -0.212294 0
M  V30 1187 C 114.056 -3.45013 0.0776551 0
M  V30 1188 C 113.169 -4.16863 1.13355 0
M  V30 1189 C 112.304 -5.2888 0.49597 0
M  V30 1190 C 111.343 -5.92537 1.53513 0
M  V30 1191 N 110.48 -6.96038 0.920631 0
M  V30 1192 H 115.32 -2.52876 1.57663 0
M  V30 1193 H 112.857 -1.24199 0.788223 0
M  V30 1194 H 114.815 -4.16193 -0.289704 0
M  V30 1195 H 113.445 -3.132 -0.781393 0
M  V30 1196 H 112.497 -3.44248 1.61857 0
M  V30 1197 H 113.809 -4.60294 1.92174 0
M  V30 1198 H 112.963 -6.06653 0.0758604 0
M  V30 1199 H 111.702 -4.86622 -0.324062 0
M  V30 1200 H 110.707 -5.13482 1.9651 0
M  V30 1201 H 111.932 -6.36873 2.35733 0
M  V30 1202 H 109.878 -6.55888 0.12138 0
M  V30 1203 H 109.795 -7.3786 1.64616 0
M  V30 1204 H 111.063 -7.77725 0.525795 0
M  V30 1205 N 115.292 -0.849877 -1.32721 0
M  V30 1206 C 116.239 -0.289033 -2.28983 0
M  V30 1207 C 117.209 0.601324 -1.54833 0
M  V30 1208 O 118.394 0.537253 -1.8308 0
M  V30 1209 C 115.534 0.520623 -3.4115 0
M  V30 1210 C 114.647 -0.394989 -4.3019 0
M  V30 1211 C 113.782 0.426834 -5.29482 0
M  V30 1212 C 112.821 -0.486476 -6.10164 0
M  V30 1213 N 111.958 0.297879 -7.01468 0
M  V30 1214 H 116.798 -1.11519 -2.76347 0
M  V30 1215 H 114.335 -0.56138 -1.35967 0
M  V30 1216 H 116.293 1.00563 -4.04899 0
M  V30 1217 H 114.923 1.31165 -2.9495 0
M  V30 1218 H 113.975 -0.99836 -3.67065 0
M  V30 1219 H 115.287 -1.09612 -4.86607 0
M  V30 1220 H 114.441 0.975205 -5.98811 0
M  V30 1221 H 113.18 1.16136 -4.73671 0
M  V30 1222 H 112.185 -1.04677 -5.39743 0
M  V30 1223 H 113.41 -1.21953 -6.6806 0
M  V30 1224 H 111.356 1.01558 -6.48091 0
M  V30 1225 H 111.273 -0.344318 -7.55216 0
M  V30 1226 H 112.541 0.828131 -7.75089 0
M  V30 1227 N 116.77 1.45427 -0.607355 0
M  V30 1228 C 117.7 2.3329 0.0989352 0
M  V30 1229 C 118.681 1.46816 0.859007 0
M  V30 1230 O 119.866 1.75588 0.829604 0
M  V30 1231 C 116.996 3.29518 1.09705 0
M  V30 1232 C 115.95 4.25626 0.450206 0
M  V30 1233 C 115.276 5.11542 1.55655 0
M  V30 1234 C 116.576 5.18505 -0.628455 0
M  V30 1235 H 118.27 2.92595 -0.634716 0
M  V30 1236 H 115.816 1.40696 -0.306681 0
M  V30 1237 H 117.769 3.89855 1.59971 0
M  V30 1238 H 116.493 2.68372 1.86129 0
M  V30 1239 H 115.152 3.66586 -0.0315886 0
M  V30 1240 H 114.8 4.46765 2.31107 0
M  V30 1241 H 114.5 5.76647 1.12925 0
M  V30 1242 H 116.024 5.74748 2.06148 0
M  V30 1243 H 117.438 5.72916 -0.209877 0
M  V30 1244 H 115.835 5.92085 -0.977489 0
M  V30 1245 H 116.905 4.60948 -1.50514 0
M  V30 1246 N 118.248 0.346503 1.53744 0
M  V30 1247 C 119.494 -0.249473 2.0126 0
M  V30 1248 C 119.827 -1.49965 1.23386 0
M  V30 1249 O 119.102 -1.91811 0.32229 0
M  V30 1250 C 119.385 -0.560643 3.55709 0
M  V30 1251 C 119.238 0.701836 4.44291 0
M  V30 1252 C 120.557 -1.36905 4.18264 0
M  V30 1253 H 117.676 -0.0891987 0.731582 0
M  V30 1254 H 120.318 0.467624 1.84156 0
M  V30 1255 H 118.468 -1.17156 3.70414 0
M  V30 1256 H 120.14 1.33974 4.41417 0
M  V30 1257 H 118.383 1.32612 4.13033 0
M  V30 1258 H 119.054 0.43933 5.50249 0
M  V30 1259 H 121.53 -0.852448 4.07275 0
M  V30 1260 H 120.406 -1.55553 5.26398 0
M  V30 1261 H 120.667 -2.37203 3.73078 0
M  V30 1262 N 119.726 -1.57421 0.075193 0
M  V30 1263 C 121.137 -1.81021 -0.456964 0
M  V30 1264 C 121.488 -0.98936 -1.69429 0
M  V30 1265 O 120.613 -0.212865 -2.15351 0
M  V30 1266 C 121.208 -3.28329 -0.83581 0
M  V30 1267 C 119.767 -3.52764 -1.31281 0
M  V30 1268 C 118.914 -2.75676 -0.299648 0
M  V30 1269 H 121.865 -1.55822 0.300856 0
M  V30 1270 H 121.886 -3.40564 -1.69696 0
M  V30 1271 H 121.398 -3.88046 0.0649238 0
M  V30 1272 H 119.499 -2.98355 -2.23193 0
M  V30 1273 H 119.612 -4.61451 -1.28839 0
M  V30 1274 H 117.976 -2.42538 -0.777641 0
M  V30 1275 H 118.759 -3.38132 0.593417 0
M  V30 1276 N 121.204 0.198386 -1.56346 0
M  V30 1277 C 122.451 0.919286 -1.80431 0
M  V30 1278 C 122.779 1.83393 -0.647866 0
M  V30 1279 O 122.034 1.92236 0.366556 0
M  V30 1280 C 122.333 1.77031 -3.10475 0
M  V30 1281 C 121.999 1.00693 -4.39513 0
M  V30 1282 C 120.661 0.796145 -4.74568 0
M  V30 1283 C 123.013 0.469559 -5.19081 0
M  V30 1284 C 120.341 0.0364588 -5.86689 0
M  V30 1285 C 122.693 -0.2769 -6.31994 0
M  V30 1286 C 121.357 -0.49873 -6.65634 0
M  V30 1287 H 120.627 0.336391 -0.660244 0
M  V30 1288 H 123.274 0.185872 -1.90596 0
M  V30 1289 H 121.579 2.5723 -2.95533 0
M  V30 1290 H 123.276 2.33065 -3.26315 0
M  V30 1291 H 119.866 1.18122 -4.12001 0
M  V30 1292 H 124.05 0.619816 -4.92414 0
M  V30 1293 H 119.306 -0.145412 -6.11227 0
M  V30 1294 H 123.48 -0.700684 -6.92866 0
M  V30 1295 H 121.107 -1.0893 -7.52355 0
M  V30 1296 N 122.682 1.50554 0.465978 0
M  V30 1297 C 123.645 1.69233 1.54574 0
M  V30 1298 C 124.645 0.562901 1.50626 0
M  V30 1299 O 125.835 0.830016 1.53155 0
M  V30 1300 C 122.967 1.7223 2.94193 0
M  V30 1301 H 124.16 2.65571 1.39327 0
M  V30 1302 H 121.713 1.40111 0.692711 0
M  V30 1303 H 122.448 0.77603 3.14878 0
M  V30 1304 H 122.233 2.54285 2.98466 0
M  V30 1305 H 123.723 1.88618 3.72576 0
M  V30 1306 N 124.16 -0.719506 1.40217 0
M  V30 1307 C 125.388 -1.50864 1.41589 0
M  V30 1308 C 125.803 -1.88794 0.0145275 0
M  V30 1309 O 125.16 -1.55174 -0.960594 0
M  V30 1310 C 125.211 -2.78646 2.30302 0
M  V30 1311 O 124.932 -2.42321 3.64983 0
M  V30 1312 C 126.433 -3.72569 2.40224 0
M  V30 1313 H 123.653 -0.465709 0.48307 0
M  V30 1314 H 126.197 -0.88785 1.84221 0
M  V30 1315 H 124.352 -3.37019 1.91042 0
M  V30 1316 H 124.766 -3.24514 4.12057 0
M  V30 1317 H 126.24 -4.5908 3.06512 0
M  V30 1318 H 126.717 -4.15403 1.42608 0
M  V30 1319 H 127.323 -3.20109 2.80019 0
M  V30 1320 N 125.638 -1.25649 -0.95132 0
M  V30 1321 C 126.548 -1.08073 -2.08224 0
M  V30 1322 C 127.564 -0.0169666 -1.73992 0
M  V30 1323 O 128.74 -0.218593 -2.0021 0
M  V30 1324 C 125.805 -0.704922 -3.39458 0
M  V30 1325 C 124.866 -1.84699 -3.87537 0
M  V30 1326 C 124.099 -1.48902 -5.12508 0
M  V30 1327 O 124.322 -0.386156 -5.69091 0
M  V30 1328 O 123.256 -2.32033 -5.55378 0
M  V30 1329 H 127.082 -2.02924 -2.25954 0
M  V30 1330 H 124.667 -1.04618 -1.06656 0
M  V30 1331 H 126.549 -0.507609 -4.18332 0
M  V30 1332 H 125.224 0.214291 -3.2299 0
M  V30 1333 H 124.131 -2.09919 -3.09653 0
M  V30 1334 H 125.464 -2.74557 -4.08509 0
M  V30 1335 N 127.117 1.15442 -1.07289 0
M  V30 1336 C 128.047 2.22312 -0.714107 0
M  V30 1337 C 129.028 1.67467 0.298155 0
M  V30 1338 O 130.213 1.93445 0.171048 0
M  V30 1339 C 127.343 3.47124 -0.110448 0
M  V30 1340 C 126.297 4.14926 -1.04979 0
M  V30 1341 C 125.623 5.33807 -0.308924 0
M  V30 1342 C 126.923 4.64762 -2.38314 0
M  V30 1343 H 128.617 2.5258 -1.6076 0
M  V30 1344 H 126.163 1.21404 -0.77441 0
M  V30 1345 H 128.116 4.21124 0.152482 0
M  V30 1346 H 126.84 3.16187 0.81812 0
M  V30 1347 H 125.499 3.42866 -1.29764 0
M  V30 1348 H 125.147 4.99126 0.623084 0
M  V30 1349 H 124.847 5.80113 -0.935036 0
M  V30 1350 H 126.371 6.10576 -0.0537771 0
M  V30 1351 H 127.785 5.30292 -2.1786 0
M  V30 1352 H 126.182 5.21728 -2.96514 0
M  V30 1353 H 127.252 3.80434 -3.00663 0
M  V30 1354 N 128.595 0.856903 1.32268 0
M  V30 1355 C 129.545 0.274899 2.26337 0
M  V30 1356 C 130.529 -0.580543 1.50062 0
M  V30 1357 O 131.721 -0.429559 1.71708 0
M  V30 1358 C 128.85 -0.533841 3.39124 0
M  V30 1359 C 127.936 0.334114 4.22782 0
M  V30 1360 N 128.327 1.42143 4.85416 0
M  V30 1361 C 126.625 0.124256 4.45827 0
M  V30 1362 C 127.326 1.95559 5.47843 0
M  V30 1363 N 126.302 1.25444 5.28928 0
M  V30 1364 H 130.104 1.10612 2.72291 0
M  V30 1365 H 127.618 0.703258 1.46383 0
M  V30 1366 H 129.615 -0.96722 4.05525 0
M  V30 1367 H 128.275 -1.36283 2.94715 0
M  V30 1368 H 129.286 1.80436 4.85451 0
M  V30 1369 H 125.963 -0.669837 4.12092 0
M  V30 1370 H 127.353 2.86714 6.07655 0
M  V30 1371 N 130.073 -1.45103 0.615059 0
M  V30 1372 C 130.983 -2.34382 -0.101034 0
M  V30 1373 C 131.999 -1.51681 -0.852585 0
M  V30 1374 O 133.175 -1.8446 -0.808484 0
M  V30 1375 C 130.24 -3.29417 -1.08099 0
M  V30 1376 C 129.301 -4.28025 -0.330577 0
M  V30 1377 C 128.534 -5.1852 -1.26385 0
M  V30 1378 O 128.757 -5.12598 -2.50198 0
M  V30 1379 O 127.691 -5.97122 -0.756866 0
M  V30 1380 H 131.517 -2.97033 0.632855 0
M  V30 1381 H 129.102 -1.4461 0.375293 0
M  V30 1382 H 130.984 -3.87958 -1.6452 0
M  V30 1383 H 129.659 -2.69321 -1.79577 0
M  V30 1384 H 128.566 -3.73078 0.276283 0
M  V30 1385 H 129.899 -4.90997 0.343866 0
M  V30 1386 N 131.551 -0.354651 -1.53558 0
M  V30 1387 C 132.967 -0.00315426 -1.596 0
M  V30 1388 C 133.167 1.47741 -1.37021 0
M  V30 1389 O 132.223 2.23759 -1.16996 0
M  V30 1390 C 133.536 -0.44929 -2.97325 0
M  V30 1391 C 135.084 -0.402578 -3.104 0
M  V30 1392 C 135.559 -0.824355 -4.5052 0
M  V30 1393 N 137.05 -0.778979 -4.56603 0
M  V30 1394 C 137.785 -1.07715 -5.63192 0
M  V30 1395 N 137.281 -1.44405 -6.77583 0
M  V30 1396 N 139.074 -1.00066 -5.53121 0
M  V30 1397 H 131.225 -1.31893 -1.66487 0
M  V30 1398 H 133.488 -0.538388 -0.780284 0
M  V30 1399 H 133.194 -1.48202 -3.1895 0
M  V30 1400 H 133.068 0.169772 -3.76818 0
M  V30 1401 H 135.455 0.621004 -2.88492 0
M  V30 1402 H 135.536 -1.05699 -2.32941 0
M  V30 1403 H 135.18 -1.846 -4.73165 0
M  V30 1404 H 135.11 -0.147304 -5.26394 0
M  V30 1405 H 137.601 -0.508528 -3.74463 0
M  V30 1406 H 137.914 -1.65612 -7.54846 0
M  V30 1407 H 136.259 -1.4826 -6.79002 0
M  V30 1408 H 139.45 -0.713293 -4.62633 0
M  V30 1409 H 139.623 -1.23638 -6.36096 0
M  V30 1410 N 133.029 1.57378 -0.0835403 0
M  V30 1411 C 133.959 2.1641 0.87686 0
M  V30 1412 C 134.94 1.09429 1.30228 0
M  V30 1413 O 136.125 1.37516 1.37124 0
M  V30 1414 C 133.255 2.73517 2.14022 0
M  V30 1415 C 132.209 3.85769 1.85381 0
M  V30 1416 C 131.535 4.29529 3.18448 0
M  V30 1417 C 132.835 5.09486 1.14984 0
M  V30 1418 H 134.529 2.96914 0.385059 0
M  V30 1419 H 132.075 1.42823 0.18377 0
M  V30 1420 H 134.028 3.13463 2.81636 0
M  V30 1421 H 132.752 1.90252 2.65465 0
M  V30 1422 H 131.411 3.46345 1.20169 0
M  V30 1423 H 131.059 3.43169 3.67755 0
M  V30 1424 H 130.759 5.05204 3.00071 0
M  V30 1425 H 132.283 4.72099 3.8724 0
M  V30 1426 H 133.697 5.46674 1.72687 0
M  V30 1427 H 132.094 5.90515 1.06826 0
M  V30 1428 H 133.164 4.84724 0.130749 0
M  V30 1429 N 134.507 -0.190092 1.56449 0
M  V30 1430 C 135.47 -1.21925 1.9408 0
M  V30 1431 C 136.47 -1.38176 0.822431 0
M  V30 1432 O 137.66 -1.35903 1.08977 0
M  V30 1433 C 134.792 -2.58773 2.21922 0
M  V30 1434 H 135.985 -0.897464 2.86157 0
M  V30 1435 H 133.538 -0.43181 1.50217 0
M  V30 1436 H 134.273 -2.95998 1.32499 0
M  V30 1437 H 134.058 -2.48348 3.03424 0
M  V30 1438 H 135.548 -3.32978 2.52022 0
M  V30 1439 N 135.985 -1.50799 -0.457987 0
M  V30 1440 C 136.932 -1.70617 -1.5543 0
M  V30 1441 C 137.902 -0.547562 -1.56815 0
M  V30 1442 O 139.087 -0.779647 -1.74144 0
M  V30 1443 C 136.227 -1.81831 -2.93311 0
M  V30 1444 C 135.34 -3.09278 -3.01615 0
M  V30 1445 C 134.475 -3.11209 -4.30491 0
M  V30 1446 C 133.514 -4.33055 -4.32585 0
M  V30 1447 N 132.651 -4.32652 -5.52952 0
M  V30 1448 H 137.491 -2.64207 -1.37836 0
M  V30 1449 H 135.028 -1.30959 -0.669937 0
M  V30 1450 H 136.986 -1.86314 -3.73287 0
M  V30 1451 H 135.616 -0.916685 -3.0951 0
M  V30 1452 H 134.668 -3.14203 -2.1443 0
M  V30 1453 H 135.98 -3.99233 -2.99022 0
M  V30 1454 H 135.134 -3.14494 -5.18824 0
M  V30 1455 H 133.873 -2.19106 -4.35711 0
M  V30 1456 H 132.878 -4.29969 -3.42647 0
M  V30 1457 H 134.103 -5.264 -4.29046 0
M  V30 1458 H 132.049 -3.43409 -5.58933 0
M  V30 1459 H 131.966 -5.16392 -5.52155 0
M  V30 1460 H 133.234 -4.40101 -6.43375 0
M  V30 1461 N 137.463 0.71206 -1.40597 0
M  V30 1462 C 138.74 1.46536 -1.29563 0
M  V30 1463 C 139.12 2.10931 0.0844217 0
M  V30 1464 O 138.468 2.00418 1.0975 0
M  V30 1465 C 138.678 2.49821 -2.43701 0
M  V30 1466 C 140.026 3.15551 -2.841 0
M  V30 1467 O 141.05 2.60142 -2.4332 0
M  V30 1468 O 139.909 4.15867 -3.54566 0
M  V30 1469 H 137.003 0.651801 -0.509004 0
M  V30 1470 H 139.549 0.743935 -1.52524 0
M  V30 1471 H 138.321 2.00778 -3.35863 0
M  V30 1472 H 137.944 3.29495 -2.22528 0
M  V30 1473 N 138.941 1.26152 0.944643 0
M  V30 1474 C 140.166 1.14363 1.7302 0
M  V30 1475 C 140.591 -0.29772 1.85729 0
M  V30 1476 O 139.949 -1.2157 1.34501 0
M  V30 1477 C 139.997 1.81378 3.11664 0
M  V30 1478 O 139.101 1.10022 3.97453 0
M  V30 1479 H 138.442 0.398694 0.53098 0
M  V30 1480 H 140.972 1.66906 1.18337 0
M  V30 1481 H 140.982 1.88064 3.62072 0
M  V30 1482 H 139.657 2.86237 3.0173 0
M  V30 1483 H 138.234 1.11287 3.55907 0
M  V30 1484 N 140.419 -1.14872 1.07899 0
M  V30 1485 C 141.329 -2.2341 0.715915 0
M  V30 1486 C 142.345 -1.71808 -0.275306 0
M  V30 1487 O 143.521 -2.01039 -0.120545 0
M  V30 1488 C 140.586 -3.46474 0.125168 0
M  V30 1489 C 139.647 -4.13039 1.17034 0
M  V30 1490 C 138.88 -5.30229 0.607688 0
M  V30 1491 O 139.103 -5.675 -0.574497 0
M  V30 1492 O 138.037 -5.86444 1.35526 0
M  V30 1493 H 141.863 -2.56808 1.62121 0
M  V30 1494 H 139.448 -1.22702 0.852322 0
M  V30 1495 H 141.33 -4.20917 -0.201729 0
M  V30 1496 H 140.005 -3.14811 -0.753364 0
M  V30 1497 H 138.912 -3.40493 1.54968 0
M  V30 1498 H 140.245 -4.48796 2.02097 0
M  V30 1499 N 141.898 -0.863906 -1.31812 0
M  V30 1500 C 142.845 -0.313303 -2.28664 0
M  V30 1501 C 143.815 0.584868 -1.55462 0
M  V30 1502 O 145 0.517805 -1.83639 0
M  V30 1503 C 142.14 0.48441 -3.41683 0
M  V30 1504 C 141.253 -0.440594 -4.29747 0
M  V30 1505 C 140.388 0.370652 -5.29905 0
M  V30 1506 C 139.427 -0.551164 -6.09613 0
M  V30 1507 N 138.564 0.223462 -7.01744 0
M  V30 1508 H 143.404 -1.14444 -2.75148 0
M  V30 1509 H 140.941 -0.575769 -1.35364 0
M  V30 1510 H 142.899 0.962627 -4.05943 0
M  V30 1511 H 141.529 1.28029 -2.96325 0
M  V30 1512 H 140.581 -1.03724 -3.65986 0
M  V30 1513 H 141.893 -1.14767 -4.85417 0
M  V30 1514 H 141.047 0.911638 -5.99812 0
M  V30 1515 H 139.786 1.11105 -4.74876 0
M  V30 1516 H 138.791 -1.10396 -5.38603 0
M  V30 1517 H 140.016 -1.29032 -6.66729 0
M  V30 1518 H 137.962 0.946787 -6.49132 0
M  V30 1519 H 137.879 -0.424399 -7.54808 0
M  V30 1520 H 139.147 0.745876 -7.75923 0
M  V30 1521 N 143.376 1.44774 -0.622745 0
M  V30 1522 C 144.306 2.33382 0.0741861 0
M  V30 1523 C 145.287 1.47719 0.843387 0
M  V30 1524 O 146.472 1.76458 0.810934 0
M  V30 1525 C 143.602 3.30663 1.06204 0
M  V30 1526 C 142.556 4.26079 0.405037 0
M  V30 1527 C 141.882 5.13165 1.5022 0
M  V30 1528 C 143.182 5.1781 -0.683414 0
M  V30 1529 H 144.876 2.91905 -0.665713 0
M  V30 1530 H 142.422 1.40363 -0.321587 0
M  V30 1531 H 144.375 3.9153 1.55827 0
M  V30 1532 H 143.099 2.70331 1.83272 0
M  V30 1533 H 141.758 3.66532 -0.0704683 0
M  V30 1534 H 141.406 4.49191 2.26355 0
M  V30 1535 H 141.106 5.77812 1.06803 0
M  V30 1536 H 142.63 5.76902 2.00041 0
M  V30 1537 H 144.044 5.72661 -0.270631 0
M  V30 1538 H 142.441 5.91015 -1.04023 0
M  V30 1539 H 143.511 4.59326 -1.55395 0
M  V30 1540 N 144.854 0.36279 1.53368 0
M  V30 1541 C 145.801 -0.485008 2.25646 0
M  V30 1542 C 146.771 -1.07982 1.2621 0
M  V30 1543 O 147.956 -1.11284 1.54986 0
M  V30 1544 C 145.096 -1.62023 3.04701 0
M  V30 1545 C 144.209 -1.05086 4.19024 0
M  V30 1546 C 143.344 -2.15496 4.85525 0
M  V30 1547 C 142.383 -1.5601 5.91884 0
M  V30 1548 N 141.52 -2.60241 6.52088 0
M  V30 1549 H 146.36 0.137864 2.97681 0
M  V30 1550 H 143.897 0.0798061 1.46883 0
M  V30 1551 H 145.855 -2.28887 3.48807 0
M  V30 1552 H 144.485 -2.2138 2.34927 0
M  V30 1553 H 143.537 -0.27259 3.79422 0
M  V30 1554 H 144.849 -0.575926 4.95464 0
M  V30 1555 H 144.003 -2.90186 5.32801 0
M  V30 1556 H 142.742 -2.66341 4.08551 0
M  V30 1557 H 141.747 -0.798338 5.43973 0
M  V30 1558 H 142.972 -1.05994 6.70777 0
M  V30 1559 H 140.918 -3.10304 5.77968 0
M  V30 1560 H 140.835 -2.17426 7.24059 0
M  V30 1561 H 142.103 -3.34641 7.04014 0
M  V30 1562 N 146.332 -1.57332 0.0918853 0
M  V30 1563 C 147.242 -2.17368 -0.882505 0
M  V30 1564 C 148.258 -1.14226 -1.31257 0
M  V30 1565 O 149.434 -1.46582 -1.38115 0
M  V30 1566 C 146.499 -2.73962 -2.12476 0
M  V30 1567 C 145.56 -3.92048 -1.7492 0
M  V30 1568 C 144.793 -4.45933 -2.93223 0
M  V30 1569 O 145.016 -3.98764 -4.07852 0
M  V30 1570 O 143.95 -5.36999 -2.71875 0
M  V30 1571 H 147.776 -3.01031 -0.40172 0
M  V30 1572 H 145.361 -1.48813 -0.132291 0
M  V30 1573 H 147.243 -3.10147 -2.85283 0
M  V30 1574 H 145.918 -1.93347 -2.59613 0
M  V30 1575 H 144.825 -3.6068 -0.993025 0
M  V30 1576 H 146.158 -4.74017 -1.32548 0
M  V30 1577 N 147.81 0.181792 -1.56548 0
M  V30 1578 C 148.72 1.24538 -1.98815 0
M  V30 1579 C 149.736 1.49045 -0.897861 0
M  V30 1580 O 150.912 1.61399 -1.20467 0
M  V30 1581 C 147.977 2.56683 -2.33055 0
M  V30 1582 C 147.038 2.40131 -3.55859 0
M  V30 1583 C 146.271 3.65975 -3.88456 0
M  V30 1584 O 146.494 4.70711 -3.22161 0
M  V30 1585 O 145.428 3.6071 -4.81842 0
M  V30 1586 H 149.254 0.916647 -2.89536 0
M  V30 1587 H 146.839 0.387842 -1.44278 0
M  V30 1588 H 148.721 3.34655 -2.56094 0
M  V30 1589 H 147.396 2.89157 -1.45498 0
M  V30 1590 H 146.303 1.60226 -3.38051 0
M  V30 1591 H 147.636 2.12585 -4.43924 0
M  V30 1592 N 149.288 1.51039 0.449983 0
M  V30 1593 C 150.537 1.62317 1.19733 0
M  V30 1594 C 150.85 0.339101 1.92638 0
M  V30 1595 O 152.056 0.331069 2.69474 0
M  V30 1596 C 150.512 2.86608 2.17678 0
M  V30 1597 C 150.12 4.21972 1.50479 0
M  V30 1598 C 151.864 3.07239 2.92924 0
M  V30 1599 C 149.771 5.37426 2.46834 0
M  V30 1600 H 148.701 0.604532 0.450619 0
M  V30 1601 H 151.352 1.77494 0.465625 0
M  V30 1602 H 149.734 2.65037 2.94231 0
M  V30 1603 H 150.908 4.53878 0.795716 0
M  V30 1604 H 149.223 4.07117 0.874344 0
M  V30 1605 H 151.82 3.90668 3.65079 0
M  V30 1606 H 152.163 2.19807 3.5354 0
M  V30 1607 H 152.696 3.29091 2.23481 0
M  V30 1608 H 149.435 6.27079 1.90926 0
M  V30 1609 H 148.955 5.09912 3.15832 0
M  V30 1610 H 150.634 5.68862 3.08228 0
M  V30 1611 N 150.766 -0.704594 1.40972 0
M  V30 1612 C 152.014 -1.46169 1.39568 0
M  V30 1613 C 152.335 -1.95 0.00253745 0
M  V30 1614 O 151.605 -1.71095 -0.954114 0
M  V30 1615 H 150.185 -0.542326 0.513704 0
M  V30 1616 H 152.847 -0.834553 1.76128 0
M  V30 1617 H 151.943 -2.32922 2.07735 0
M  V30 1618 N 152.244 -1.26651 -0.937939 0
M  V30 1619 C 153.191 -1.0849 -2.03712 0
M  V30 1620 C 154.161 0.011033 -1.66096 0
M  V30 1621 O 155.346 -0.149353 -1.90215 0
M  V30 1622 C 152.486 -0.72735 -3.37348 0
M  V30 1623 C 151.599 -1.89986 -3.87981 0
M  V30 1624 C 150.734 -1.48513 -5.10017 0
M  V30 1625 C 149.773 -2.62575 -5.5292 0
M  V30 1626 N 148.91 -2.21762 -6.66158 0
M  V30 1627 H 153.75 -2.02551 -2.18579 0
M  V30 1628 H 151.287 -1.00844 -1.07093 0
M  V30 1629 H 153.245 -0.50092 -4.14182 0
M  V30 1630 H 151.875 0.176298 -3.22318 0
M  V30 1631 H 150.927 -2.23913 -3.07518 0
M  V30 1632 H 152.239 -2.75586 -4.15757 0
M  V30 1633 H 151.393 -1.21934 -5.94321 0
M  V30 1634 H 150.132 -0.60009 -4.83994 0
M  V30 1635 H 149.137 -2.8988 -4.67172 0
M  V30 1636 H 150.362 -3.51685 -5.80943 0
M  V30 1637 H 148.308 -1.35696 -6.41812 0
M  V30 1638 H 148.225 -3.00903 -6.93537 0
M  V30 1639 H 149.493 -1.98403 -7.53828 0
M  V30 1640 N 153.722 1.14298 -1.08507 0
M  V30 1641 C 154.632 2.23027 -0.727753 0
M  V30 1642 C 155.648 1.71952 0.26619 0
M  V30 1643 O 156.824 2.011 0.109882 0
M  V30 1644 C 153.889 3.46403 -0.143541 0
M  V30 1645 C 152.95 4.12413 -1.19223 0
M  V30 1646 C 152.183 5.29899 -0.635798 0
M  V30 1647 O 152.406 5.67796 0.544393 0
M  V30 1648 O 151.34 5.85717 -1.38634 0
M  V30 1649 H 155.166 2.55945 -1.63481 0
M  V30 1650 H 152.751 1.22248 -0.858817 0
M  V30 1651 H 154.633 4.21018 0.179404 0
M  V30 1652 H 153.308 3.15206 0.736659 0
M  V30 1653 H 152.215 3.39667 -1.56772 0
M  V30 1654 H 153.548 4.47718 -2.04474 0
M  V30 1655 N 155.201 0.870884 1.31352 0
M  V30 1656 C 156.131 0.343096 2.30966 0
M  V30 1657 C 157.112 -0.566507 1.60389 0
M  V30 1658 O 158.297 -0.483336 1.88089 0
M  V30 1659 C 155.427 -0.455487 3.443 0
M  V30 1660 C 154.381 0.361103 4.26474 0
M  V30 1661 C 153.707 -0.563221 5.31725 0
M  V30 1662 C 155.007 1.59566 4.97329 0
M  V30 1663 H 156.701 1.17548 2.75359 0
M  V30 1664 H 154.247 0.566686 1.32381 0
M  V30 1665 H 156.2 -0.83525 4.13039 0
M  V30 1666 H 154.924 -1.32139 2.98675 0
M  V30 1667 H 153.583 0.722825 3.59403 0
M  V30 1668 H 153.231 -1.42643 4.82351 0
M  V30 1669 H 152.931 -0.0207409 5.87596 0
M  V30 1670 H 154.455 -0.939808 6.03324 0
M  V30 1671 H 155.869 1.28728 5.58661 0
M  V30 1672 H 154.266 2.07728 5.63 0
M  V30 1673 H 155.336 2.34798 4.24262 0
M  V30 1674 N 156.679 -1.44442 0.630414 0
M  V30 1675 C 157.589 -2.34476 -0.0761693 0
M  V30 1676 C 158.605 -1.52576 -0.836449 0
M  V30 1677 O 159.781 -1.85307 -0.788874 0
M  V30 1678 C 156.846 -3.30545 -1.04599 0
M  V30 1679 C 155.907 -4.28352 -0.28516 0
M  V30 1680 C 155.14 -5.19831 -1.20878 0
M  V30 1681 O 155.363 -5.15223 -2.44747 0
M  V30 1682 O 154.297 -5.97892 -0.693491 0
M  V30 1683 H 158.123 -2.96345 0.664324 0
M  V30 1684 H 155.708 -1.44203 0.39061 0
M  V30 1685 H 157.59 -3.89681 -1.60396 0
M  V30 1686 H 156.265 -2.7121 -1.76711 0
M  V30 1687 H 155.172 -3.72764 0.315837 0
M  V30 1688 H 156.505 -4.90605 0.395924 0
M  V30 1689 N 158.157 -0.370918 -1.53173 0
M  V30 1690 C 159.067 0.480823 -2.2962 0
M  V30 1691 C 160.083 1.08789 -1.35798 0
M  V30 1692 O 161.259 1.09768 -1.68858 0
M  V30 1693 C 158.324 1.60227 -3.07454 0
M  V30 1694 C 157.385 1.0222 -4.16953 0
M  V30 1695 C 156.618 2.0902 -4.91066 0
M  V30 1696 O 156.841 3.30222 -4.65091 0
M  V30 1697 O 155.775 1.71778 -5.76867 0
M  V30 1698 H 159.601 -0.141421 -3.03371 0
M  V30 1699 H 157.186 -0.135146 -1.48787 0
M  V30 1700 H 159.068 2.25417 -3.56041 0
M  V30 1701 H 157.743 2.20982 -2.36535 0
M  V30 1702 H 156.65 0.334064 -3.72605 0
M  V30 1703 H 157.983 0.459131 -4.90054 0
M  V30 1704 N 159.635 1.57281 -0.100228 0
M  V30 1705 C 160.565 2.17328 0.853857 0
M  V30 1706 C 161.546 1.10804 1.2906 0
M  V30 1707 O 162.731 1.38963 1.35657 0
M  V30 1708 C 159.861 2.75772 2.11109 0
M  V30 1709 C 158.815 3.87713 1.81279 0
M  V30 1710 C 158.141 4.32882 3.13874 0
M  V30 1711 C 159.441 5.10677 1.09574 0
M  V30 1712 H 161.135 2.97305 0.353545 0
M  V30 1713 H 158.681 1.43009 0.168612 0
M  V30 1714 H 160.634 3.16433 2.78296 0
M  V30 1715 H 159.358 1.93057 2.63432 0
M  V30 1716 H 158.017 3.476 1.16489 0
M  V30 1717 H 157.665 3.47051 3.64095 0
M  V30 1718 H 157.365 5.08358 2.94696 0
M  V30 1719 H 158.889 4.7618 3.82211 0
M  V30 1720 H 160.303 5.48474 1.66879 0
M  V30 1721 H 158.7 5.91615 1.00557 0
M  V30 1722 H 159.77 4.84835 0.0793299 0
M  V30 1723 N 161.113 -0.173488 1.56642 0
M  V30 1724 C 162.529 -0.525174 1.50712 0
M  V30 1725 C 162.729 -1.8476 0.804107 0
M  V30 1726 O 161.785 -2.49869 0.363574 0
M  V30 1727 C 163.098 -0.559937 2.95441 0
M  V30 1728 C 164.646 -0.647288 3.06234 0
M  V30 1729 C 165.121 -0.712963 4.52417 0
M  V30 1730 N 166.612 -0.775911 4.56655 0
M  V30 1731 C 167.347 -0.847264 5.67106 0
M  V30 1732 N 166.843 -0.879585 6.87194 0
M  V30 1733 N 168.636 -0.886117 5.55071 0
M  V30 1734 H 160.787 0.693681 2.00753 0
M  V30 1735 H 163.05 0.249841 0.914485 0
M  V30 1736 H 162.756 0.343049 3.50023 0
M  V30 1737 H 162.63 -1.40718 3.49969 0
M  V30 1738 H 165.017 -1.5407 2.51687 0
M  V30 1739 H 165.098 0.226586 2.54794 0
M  V30 1740 H 164.742 0.176183 5.07594 0
M  V30 1741 H 164.672 -1.60295 5.0161 0
M  V30 1742 H 167.163 -0.759304 3.70193 0
M  V30 1743 H 167.476 -0.935144 7.67121 0
M  V30 1744 H 165.821 -0.847898 6.89808 0
M  V30 1745 H 169.012 -0.857853 4.60172 0
M  V30 1746 H 169.185 -0.938263 6.41171 0
M  V30 1747 N 162.591 -1.51276 -0.441967 0
M  V30 1748 C 163.554 -1.7167 -1.51862 0
M  V30 1749 C 164.554 -0.586793 -1.49711 0
M  V30 1750 O 165.744 -0.854276 -1.51815 0
M  V30 1751 C 162.876 -1.76889 -2.91416 0
M  V30 1752 H 164.069 -2.67754 -1.35084 0
M  V30 1753 H 161.622 -1.41196 -0.670333 0
M  V30 1754 H 162.357 -0.826026 -3.13604 0
M  V30 1755 H 162.142 -2.59001 -2.94382 0
M  V30 1756 H 163.632 -1.94522 -3.69528 0
M  V30 1757 N 164.069 0.697108 -1.41344 0
M  V30 1758 C 165.485 1.00751 -1.2378 0
M  V30 1759 C 165.685 2.01105 -0.126066 0
M  V30 1760 O 164.741 2.47295 0.51004 0
M  V30 1761 C 166.054 1.53359 -2.58653 0
M  V30 1762 C 167.602 1.6525 -2.65822 0
M  V30 1763 C 168.077 2.2126 -4.01009 0
M  V30 1764 N 169.568 2.28622 -4.02847 0
M  V30 1765 C 170.303 2.72984 -5.04249 0
M  V30 1766 N 169.799 3.16962 -6.16041 0
M  V30 1767 N 171.592 2.72534 -4.91611 0
M  V30 1768 H 163.743 0.0322662 -2.12375 0
M  V30 1769 H 166.006 0.0768853 -0.944877 0
M  V30 1770 H 165.712 0.870773 -3.4075 0
M  V30 1771 H 165.586 2.51597 -2.81032 0
M  V30 1772 H 167.973 2.30644 -1.84086 0
M  V30 1773 H 168.054 0.655614 -2.47256 0
M  V30 1774 H 167.698 1.56482 -4.83193 0
M  V30 1775 H 167.628 3.21698 -4.16915 0
M  V30 1776 H 170.119 1.97585 -3.22131 0
M  V30 1777 H 170.432 3.49434 -6.89287 0
M  V30 1778 H 168.777 3.14875 -6.1958 0
M  V30 1779 H 171.968 2.37525 -4.0336 0
M  V30 1780 H 172.141 3.06789 -5.70775 0
M  V30 1781 N 165.547 1.27147 0.931209 0
M  V30 1782 C 166.477 1.12081 2.04842 0
M  V30 1783 C 167.458 0.0232364 1.70084 0
M  V30 1784 O 168.643 0.197085 1.93197 0
M  V30 1785 C 165.773 0.76354 3.38803 0
M  V30 1786 C 164.727 1.81396 3.87659 0
M  V30 1787 C 164.053 1.31075 5.18385 0
M  V30 1788 C 165.353 3.21739 4.11438 0
M  V30 1789 H 167.047 2.05537 2.17703 0
M  V30 1790 H 164.593 0.989603 1.04608 0
M  V30 1791 H 166.546 0.644982 4.16435 0
M  V30 1792 H 165.27 -0.206727 3.25945 0
M  V30 1793 H 163.929 1.92136 3.12217 0
M  V30 1794 H 163.577 0.330037 5.01916 0
M  V30 1795 H 163.277 2.013 5.52044 0
M  V30 1796 H 164.801 1.20506 5.98591 0
M  V30 1797 H 166.215 3.14019 4.79651 0
M  V30 1798 H 164.612 3.89644 4.56397 0
M  V30 1799 H 165.682 3.67054 3.16859 0
M  V30 1800 N 167.025 -1.13721 1.09112 0
M  V30 1801 C 167.955 -2.21148 0.749385 0
M  V30 1802 C 168.936 -1.6792 -0.271475 0
M  V30 1803 O 170.121 -1.93693 -0.140251 0
M  V30 1804 C 167.251 -3.46905 0.165659 0
M  V30 1805 C 166.205 -4.13203 1.11567 0
M  V30 1806 C 165.531 -5.33248 0.393809 0
M  V30 1807 C 166.831 -4.60912 2.45678 0
M  V30 1808 H 168.525 -2.4999 1.64758 0
M  V30 1809 H 166.071 -1.20156 0.793626 0
M  V30 1810 H 168.024 -4.21313 -0.085466 0
M  V30 1811 H 166.748 -3.17449 -0.767714 0
M  V30 1812 H 165.407 -3.40758 1.35202 0
M  V30 1813 H 165.055 -5.00054 -0.543599 0
M  V30 1814 H 164.755 -5.78552 1.02721 0
M  V30 1815 H 166.279 -6.10413 0.150908 0
M  V30 1816 H 167.693 -5.26759 2.26269 0
M  V30 1817 H 166.09 -5.16944 3.04776 0
M  V30 1818 H 167.16 -3.75603 3.06677 0
M  V30 1819 N 168.503 -0.877838 -1.30888 0
M  V30 1820 C 169.914 -0.544193 -1.78593 0
M  V30 1821 C 170.265 0.939301 -1.72254 0
M  V30 1822 O 169.39 1.7337 -1.29505 0
M  V30 1823 C 169.985 -0.98105 -3.24285 0
M  V30 1824 C 168.544 -0.698935 -3.69854 0
M  V30 1825 C 167.691 -1.168 -2.51502 0
M  V30 1826 H 170.642 -1.06278 -1.17859 0
M  V30 1827 H 170.663 -0.307009 -3.79259 0
M  V30 1828 H 170.175 -2.06079 -3.28866 0
M  V30 1829 H 168.276 0.369112 -3.70767 0
M  V30 1830 H 168.389 -1.28148 -4.61644 0
M  V30 1831 H 166.753 -0.587535 -2.47831 0
M  V30 1832 H 167.536 -2.25533 -2.58824 0
M  V30 1833 N 169.982 1.44106 -0.638065 0
M  V30 1834 C 170.932 2.27843 0.0847285 0
M  V30 1835 C 171.916 1.39055 0.809471 0
M  V30 1836 O 173.108 1.62808 0.694435 0
M  V30 1837 C 170.237 3.26497 1.06089 0
M  V30 1838 C 169.323 4.22772 0.33541 0
M  V30 1839 N 169.714 5.01737 -0.639787 0
M  V30 1840 C 168.012 4.42227 0.578921 0
M  V30 1841 C 168.713 5.71792 -1.06904 0
M  V30 1842 N 167.689 5.42079 -0.406395 0
M  V30 1843 H 171.491 2.86305 -0.663814 0
M  V30 1844 H 169.005 1.55627 -0.464122 0
M  V30 1845 H 171.002 3.8525 1.59337 0
M  V30 1846 H 169.662 2.69595 1.80966 0
M  V30 1847 H 170.673 5.07799 -1.01789 0
M  V30 1848 H 167.35 3.96415 1.31003 0
M  V30 1849 H 168.74 6.45205 -1.8751 0
M  V30 1850 N 171.46 0.379036 1.52974 0
M  V30 1851 C 172.423 -0.448865 2.24762 0
M  V30 1852 C 173.423 -0.998689 1.26027 0
M  V30 1853 O 174.613 -0.882313 1.50203 0
M  V30 1854 C 171.745 -1.62872 2.99476 0
M  V30 1855 H 172.938 0.179491 2.99362 0
M  V30 1856 H 170.491 0.13096 1.5575 0
M  V30 1857 H 171.226 -2.29479 2.29151 0
M  V30 1858 H 171.011 -1.24128 3.71934 0
M  V30 1859 H 172.501 -2.2151 3.5401 0
M  V30 1860 N 172.938 -1.57226 0.108567 0
M  V30 1861 C 173.886 -2.16002 -0.862885 0
M  V30 1862 C 174.88 -1.10644 -1.28274 0
M  V30 1863 O 176.086 -1.28966 -1.2557 0
M  V30 1864 H 172.461 -0.691148 -0.296342 0
M  V30 1865 H 174.432 -2.96427 -0.342575 0
M  V30 1866 C 173.181 -2.76576 -2.10716 0
M  V30 1867 H 172.504 -3.5734 -1.793 0
M  V30 1868 H 173.944 -3.21253 -2.76717 0
M  V30 1869 C 172.403 -1.73137 -2.89007 0
M  V30 1870 O 172.933 -1.17842 -3.84026 0
M  V30 1871 N 171.139 -1.43317 -2.52801 0
M  V30 1872 H 170.686 -1.88473 -1.75601 0
M  V30 1873 H 170.644 -0.743485 -3.05483 0
M  V30 1874 N 174.416 0.165178 -1.56732 0
M  V30 1875 C 175.326 1.22423 -2.00125 0
M  V30 1876 C 176.342 1.48084 -0.913619 0
M  V30 1877 O 177.518 1.60112 -1.22172 0
M  V30 1878 C 174.583 2.54197 -2.35764 0
M  V30 1879 C 173.644 2.36343 -3.58386 0
M  V30 1880 C 172.877 3.61834 -3.92316 0
M  V30 1881 O 173.1 4.67267 -3.27135 0
M  V30 1882 O 172.034 3.55579 -4.85641 0
M  V30 1883 H 175.86 0.885886 -2.90492 0
M  V30 1884 H 173.445 0.372518 -1.44681 0
M  V30 1885 H 175.327 3.3192 -2.59629 0
M  V30 1886 H 174.002 2.87598 -1.48557 0
M  V30 1887 H 172.909 1.56632 -3.39731 0
M  V30 1888 H 174.242 2.07865 -4.46154 0
M  V30 1889 N 175.894 1.51508 0.433938 0
M  V30 1890 C 177.14 1.64588 1.18484 0
M  V30 1891 C 177.473 0.362666 1.90784 0
M  V30 1892 O 176.748 -0.637892 1.83742 0
M  V30 1893 C 177.031 2.85149 2.19913 0
M  V30 1894 C 176.884 4.23456 1.51674 0
M  V30 1895 C 178.203 3.01227 3.20858 0
M  V30 1896 H 175.322 0.598994 0.429389 0
M  V30 1897 H 177.964 1.84002 0.473647 0
M  V30 1898 H 176.114 2.68729 2.80566 0
M  V30 1899 H 177.786 4.51552 0.943322 0
M  V30 1900 H 176.029 4.25998 0.819035 0
M  V30 1901 H 176.7 5.03812 2.2556 0
M  V30 1902 H 179.176 3.16382 2.70263 0
M  V30 1903 H 178.052 3.87141 3.89118 0
M  V30 1904 H 178.313 2.13447 3.8716 0
M  V30 1905 N 177.372 -0.689602 1.41712 0
M  V30 1906 C 178.597 -1.48329 1.44959 0
M  V30 1907 C 179.022 -1.8801 0.0581283 0
M  V30 1908 O 178.38 -1.55026 -0.940035 0
M  V30 1909 C 178.428 -2.71835 2.36935 0
M  V30 1910 O 177.532 -3.69549 1.8305 0
M  V30 1911 H 176.873 -0.446199 0.491734 0
M  V30 1912 H 179.403 -0.847127 1.86239 0
M  V30 1913 H 179.413 -3.20076 2.53013 0
M  V30 1914 H 178.088 -2.42291 3.38035 0
M  V30 1915 H 176.665 -3.2851 1.76452 0
M  V30 1916 N 178.85 -1.27639 -0.924453 0
M  V30 1917 C 179.782 -1.06442 -2.02985 0
M  V30 1918 C 180.795 -0.0194771 -1.62788 0
M  V30 1919 O 181.984 -0.261388 -1.76576 0
M  V30 1920 C 179.084 -0.59327 -3.33667 0
M  V30 1921 C 178.257 -1.71123 -4.02537 0
M  V30 1922 C 177.316 -1.23527 -5.11495 0
M  V30 1923 O 176.342 -1.93553 -5.35281 0
M  V30 1924 N 177.544 -0.0926678 -5.80426 0
M  V30 1925 H 180.309 -2.01633 -2.2173 0
M  V30 1926 H 177.87 -1.19248 -1.09505 0
M  V30 1927 H 179.862 -0.258686 -4.03872 0
M  V30 1928 H 178.432 0.265502 -3.1147 0
M  V30 1929 H 177.652 -2.21593 -3.26022 0
M  V30 1930 H 178.94 -2.46145 -4.45298 0
M  V30 1931 H 178.338 0.491741 -5.63559 0
M  V30 1932 H 176.895 0.182714 -6.51544 0
M  V30 1933 N 180.328 1.1314 -1.09713 0
M  V30 1934 C 181.275 2.18642 -0.739196 0
M  V30 1935 C 182.245 1.63706 0.280978 0
M  V30 1936 O 183.43 1.90111 0.161946 0
M  V30 1937 C 180.57 3.44685 -0.169102 0
M  V30 1938 C 179.683 4.13711 -1.24367 0
M  V30 1939 C 178.818 5.27379 -0.636019 0
M  V30 1940 C 177.857 5.88259 -1.69169 0
M  V30 1941 N 176.994 6.93352 -1.10485 0
M  V30 1942 H 181.834 2.48607 -1.64312 0
M  V30 1943 H 179.371 1.22066 -0.820875 0
M  V30 1944 H 181.329 4.16815 0.179256 0
M  V30 1945 H 179.959 3.15161 0.698079 0
M  V30 1946 H 179.011 3.39835 -1.70927 0
M  V30 1947 H 180.323 4.55037 -2.04311 0
M  V30 1948 H 179.477 6.06238 -0.236677 0
M  V30 1949 H 178.216 4.8731 0.194928 0
M  V30 1950 H 177.221 5.08092 -2.10055 0
M  V30 1951 H 178.446 6.30399 -2.52536 0
M  V30 1952 H 176.392 6.55335 -0.295234 0
M  V30 1953 H 176.309 7.33236 -1.84121 0
M  V30 1954 H 177.577 7.76057 -0.73181 0
M  V30 1955 N 181.806 0.884767 1.30421 0
M  V30 1956 C 183.055 0.499164 1.95426 0
M  V30 1957 C 183.368 -0.95645 1.70621 0
M  V30 1958 O 184.574 -1.44889 2.29607 0
M  V30 1959 C 183.03 0.84177 3.49917 0
M  V30 1960 C 182.638 2.31514 3.83543 0
M  V30 1961 C 184.382 0.525355 4.21237 0
M  V30 1962 C 182.289 2.59939 5.31212 0
M  V30 1963 H 181.219 0.182944 0.73147 0
M  V30 1964 H 183.87 1.07971 1.48373 0
M  V30 1965 H 182.252 0.190311 3.95542 0
M  V30 1966 H 183.426 3.0109 3.48829 0
M  V30 1967 H 181.741 2.59907 3.25326 0
M  V30 1968 H 184.338 0.714762 5.29901 0
M  V30 1969 H 184.681 -0.535222 4.12845 0
M  V30 1970 H 185.214 1.134 3.81294 0
M  V30 1971 H 181.953 3.64736 5.44654 0
M  V30 1972 H 181.473 1.94972 5.67227 0
M  V30 1973 H 183.152 2.45429 5.98643 0
M  V30 1974 N 183.284 -1.43765 0.645699 0
M  V30 1975 C 184.532 -2.01499 0.155731 0
M  V30 1976 C 184.853 -1.51151 -1.232 0
M  V30 1977 O 184.123 -0.721044 -1.82148 0
M  V30 1978 H 182.703 -0.745003 0.0545817 0
M  V30 1979 H 185.365 -1.76075 0.835677 0
M  V30 1980 H 184.461 -3.1181 0.134577 0
M  V30 1981 N 184.763 -0.387143 -1.52771 0
M  V30 1982 C 186.04 0.253197 -1.93954 0
M  V30 1983 C 186.42 1.64545 -1.32243 0
M  V30 1984 O 185.768 2.23191 -0.489699 0
M  V30 1985 C 185.978 0.281722 -3.47861 0
M  V30 1986 C 187.326 0.511715 -4.21505 0
M  V30 1987 O 188.35 0.362023 -3.54356 0
M  V30 1988 O 187.209 0.804847 -5.40541 0
M  V30 1989 H 184.303 0.156845 -0.811991 0
M  V30 1990 H 186.849 -0.441494 -1.63856 0
M  V30 1991 H 185.621 -0.693571 -3.85104 0
M  V30 1992 H 185.244 1.02142 -3.84256 0
M  V30 1993 N 186.241 1.57166 -0.116904 0
M  V30 1994 C 187.189 2.16457 0.851418 0
M  V30 1995 C 188.183 1.11323 1.27686 0
M  V30 1996 O 189.389 1.2963 1.24884 0
M  V30 1997 H 185.764 0.69271 0.292672 0
M  V30 1998 H 187.735 2.96605 0.32685 0
M  V30 1999 C 186.484 2.77689 2.09246 0
M  V30 2000 H 185.807 3.58285 1.77402 0
M  V30 2001 H 187.247 3.22716 2.7501 0
M  V30 2002 C 185.706 1.74667 2.88085 0
M  V30 2003 O 186.236 1.19877 3.83396 0
M  V30 2004 N 184.442 1.44656 2.52038 0
M  V30 2005 H 183.989 1.89402 1.74599 0
M  V30 2006 H 183.947 0.759675 3.05084 0
M  V30 2007 N 187.719 -0.156864 1.56817 0
M  V30 2008 C 188.649 -1.19589 2.00551 0
M  V30 2009 C 189.63 -1.4536 0.883426 0
M  V30 2010 O 190.815 -1.56449 1.15054 0
M  V30 2011 C 187.945 -2.53143 2.37773 0
M  V30 2012 C 186.899 -2.41913 3.53075 0
M  V30 2013 C 186.225 -3.80088 3.76081 0
M  V30 2014 C 187.525 -1.91157 4.86062 0
M  V30 2015 H 189.219 -0.832293 2.87599 0
M  V30 2016 H 186.765 -0.398918 1.38364 0
M  V30 2017 H 188.718 -3.26047 2.66967 0
M  V30 2018 H 187.442 -2.91319 1.4765 0
M  V30 2019 H 186.101 -1.71462 3.24031 0
M  V30 2020 H 185.749 -4.15683 2.83225 0
M  V30 2021 H 185.449 -3.73439 4.53671 0
M  V30 2022 H 186.973 -4.54556 4.0769 0
M  V30 2023 H 188.387 -2.53846 5.14038 0
M  V30 2024 H 186.784 -1.95422 5.67389 0
M  V30 2025 H 187.854 -0.866673 4.77092 0
M  V30 2026 N 189.197 -1.51736 -0.425897 0
M  V30 2027 C 190.613 -1.40166 -0.76326 0
M  V30 2028 C 190.813 -0.492962 -1.95377 0
M  V30 2029 O 189.869 0.0475815 -2.52455 0
M  V30 2030 C 191.182 -2.82403 -1.03291 0
M  V30 2031 C 192.73 -2.91632 -1.13665 0
M  V30 2032 C 193.205 -4.34801 -1.43916 0
M  V30 2033 N 194.696 -4.3796 -1.50816 0
M  V30 2034 C 195.431 -5.4578 -1.75817 0
M  V30 2035 N 194.927 -6.63744 -1.98534 0
M  V30 2036 N 196.72 -5.33274 -1.77694 0
M  V30 2037 H 188.871 -2.09361 0.358 0
M  V30 2038 H 191.134 -0.942941 0.0978094 0
M  V30 2039 H 190.84 -3.50943 -0.230696 0
M  V30 2040 H 190.714 -3.22428 -1.95754 0
M  V30 2041 H 193.101 -2.23284 -1.92947 0
M  V30 2042 H 193.182 -2.55088 -0.190756 0
M  V30 2043 H 192.826 -5.03703 -0.65157 0
M  V30 2044 H 192.756 -4.68868 -2.39729 0
M  V30 2045 H 195.247 -3.52919 -1.35118 0
M  V30 2046 H 195.56 -7.41704 -2.17013 0
M  V30 2047 H 193.905 -6.66839 -1.95832 0
M  V30 2048 H 197.096 -4.40098 -1.59473 0
M  V30 2049 H 197.269 -6.1738 -1.9684 0
M  V30 2050 N 190.675 0.682077 -1.42076 0
M  V30 2051 C 191.585 1.82535 -1.47371 0
M  V30 2052 C 192.601 1.7017 -0.363079 0
M  V30 2053 O 193.777 1.91848 -0.612875 0
M  V30 2054 C 190.842 3.18624 -1.36674 0
M  V30 2055 C 189.903 3.42999 -2.58167 0
M  V30 2056 C 189.136 4.72595 -2.4797 0
M  V30 2057 O 189.359 5.50006 -1.5116 0
M  V30 2058 O 188.293 4.98054 -3.37974 0
M  V30 2059 H 192.119 1.81023 -2.43853 0
M  V30 2060 H 189.704 0.836887 -1.2376 0
M  V30 2061 H 191.586 3.99847 -1.33043 0
M  V30 2062 H 190.261 3.20789 -0.433138 0
M  V30 2063 H 189.168 2.61653 -2.67373 0
M  V30 2064 H 190.501 3.45659 -3.50401 0
M  V30 2065 N 192.153 1.28127 0.917671 0
M  V30 2066 C 193.083 1.14248 2.03641 0
M  V30 2067 C 194.064 0.0412748 1.7005 0
M  V30 2068 O 195.249 0.217566 1.92977 0
M  V30 2069 C 192.379 0.799431 3.37974 0
M  V30 2070 C 191.333 1.85497 3.85713 0
M  V30 2071 C 190.659 1.36565 5.16966 0
M  V30 2072 C 191.959 3.26085 4.08002 0
M  V30 2073 H 193.653 2.07835 2.15511 0
M  V30 2074 H 191.199 1.00064 1.03553 0
M  V30 2075 H 193.152 0.689114 4.15727 0
M  V30 2076 H 191.876 -0.172145 3.26146 0
M  V30 2077 H 190.535 1.95437 3.10161 0
M  V30 2078 H 190.183 0.383253 5.01538 0
M  V30 2079 H 189.883 2.07143 5.49878 0
M  V30 2080 H 191.407 1.26848 5.97279 0
M  V30 2081 H 192.821 3.19089 4.76293 0
M  V30 2082 H 191.218 3.94462 4.52238 0
M  V30 2083 H 192.288 3.70394 3.12948 0
M  V30 2084 N 193.631 -1.12557 1.10312 0
M  V30 2085 C 194.563 -2.17971 0.708625 0
M  V30 2086 C 195.576 -1.60806 -0.254027 0
M  V30 2087 O 196.765 -1.78458 -0.0386891 0
M  V30 2088 C 193.865 -3.38891 0.0248198 0
M  V30 2089 C 193.038 -4.25548 1.01132 0
M  V30 2090 C 192.097 -5.24972 0.35924 0
M  V30 2091 O 191.123 -5.60174 1.00965 0
M  V30 2092 N 192.325 -5.73747 -0.882847 0
M  V30 2093 H 195.09 -2.52427 1.61557 0
M  V30 2094 H 192.651 -1.27967 0.991771 0
M  V30 2095 H 194.643 -4.02485 -0.422852 0
M  V30 2096 H 193.213 -3.02596 -0.784514 0
M  V30 2097 H 192.433 -3.58589 1.6373 0
M  V30 2098 H 193.721 -4.80294 1.67914 0
M  V30 2099 H 193.119 -5.4731 -1.43065 0
M  V30 2100 H 191.676 -6.39234 -1.27369 0
M  V30 2101 N 195.109 -0.891671 -1.2995 0
M  V30 2102 C 196.041 -0.320695 -2.26945 0
M  V30 2103 C 197.054 0.528497 -1.53983 0
M  V30 2104 O 198.243 0.346959 -1.75096 0
M  V30 2105 C 195.343 0.562066 -3.34207 0
M  V30 2106 C 194.516 -0.259576 -4.36629 0
M  V30 2107 C 193.575 0.554739 -5.23268 0
M  V30 2108 O 192.601 -0.0249311 -5.69195 0
M  V30 2109 N 193.803 1.8625 -5.4981 0
M  V30 2110 H 196.568 -1.15432 -2.76578 0
M  V30 2111 H 194.129 -0.755336 -1.432 0
M  V30 2112 H 196.121 1.11304 -3.89093 0
M  V30 2113 H 194.691 1.29637 -2.84452 0
M  V30 2114 H 193.911 -0.991986 -3.81514 0
M  V30 2115 H 195.199 -0.822564 -5.02107 0
M  V30 2116 H 194.597 2.35628 -5.14292 0
M  V30 2117 H 193.154 2.36078 -6.07545 0
M  V30 2118 N 196.587 1.43421 -0.653314 0
M  V30 2119 C 198.003 1.56341 -0.320886 0
M  V30 2120 C 198.203 1.63696 1.17499 0
M  V30 2121 O 197.259 1.59208 1.95982 0
M  V30 2122 C 198.572 2.82424 -1.03233 0
M  V30 2123 C 200.12 2.96168 -1.01259 0
M  V30 2124 C 200.595 4.25084 -1.70492 0
M  V30 2125 N 202.086 4.31948 -1.67257 0
M  V30 2126 C 202.821 5.30466 -2.17701 0
M  V30 2127 N 202.317 6.35261 -2.76434 0
M  V30 2128 N 204.11 5.2212 -2.082 0
M  V30 2129 H 196.261 1.3689 -1.62403 0
M  V30 2130 H 198.524 0.657455 -0.682977 0
M  V30 2131 H 198.23 2.83053 -2.08744 0
M  V30 2132 H 198.104 3.72653 -0.583948 0
M  V30 2133 H 200.491 2.9508 0.0341235 0
M  V30 2134 H 200.572 2.07229 -1.49966 0
M  V30 2135 H 200.216 4.26932 -2.7512 0
M  V30 2136 H 200.146 5.1292 -1.19251 0
M  V30 2137 H 202.637 3.56838 -1.24398 0
M  V30 2138 H 202.95 7.06754 -3.12601 0
M  V30 2139 H 201.295 6.35884 -2.80495 0
M  V30 2140 H 204.486 4.39166 -1.62021 0
M  V30 2141 H 204.659 5.98739 -2.47822 0
M  V30 2142 N 198.065 0.39524 1.52563 0
M  V30 2143 C 198.995 -0.428384 2.29537 0
M  V30 2144 C 199.976 -1.05831 1.33169 0
M  V30 2145 O 201.161 -1.06995 1.62067 0
M  V30 2146 C 198.291 -1.55274 3.10656 0
M  V30 2147 C 197.245 -1.04855 4.14957 0
M  V30 2148 C 196.571 -2.26543 4.84337 0
M  V30 2149 C 197.871 -0.112324 5.22179 0
M  V30 2150 H 199.565 0.213867 2.98635 0
M  V30 2151 H 197.111 0.104298 1.43622 0
M  V30 2152 H 199.064 -2.1358 3.63265 0
M  V30 2153 H 197.788 -2.22266 2.39302 0
M  V30 2154 H 196.447 -0.487985 3.63338 0
M  V30 2155 H 196.095 -2.92059 4.09525 0
M  V30 2156 H 195.795 -1.93466 5.54837 0
M  V30 2157 H 197.319 -2.85481 5.39753 0
M  V30 2158 H 198.733 -0.603752 5.70112 0
M  V30 2159 H 197.13 0.128968 5.99961 0
M  V30 2160 H 198.2 0.837052 4.77621 0
M  V30 2161 N 199.544 -1.57102 0.125237 0
M  V30 2162 C 200.454 -2.19191 -0.8362 0
M  V30 2163 C 201.47 -1.16985 -1.28805 0
M  V30 2164 O 202.646 -1.49479 -1.34974 0
M  V30 2165 C 199.711 -2.78407 -2.06617 0
M  V30 2166 C 198.772 -3.9567 -1.66565 0
M  V30 2167 C 198.005 -4.52052 -2.83698 0
M  V30 2168 O 198.228 -4.07326 -3.99302 0
M  V30 2169 O 197.162 -5.42645 -2.60423 0
M  V30 2170 H 200.988 -3.01816 -0.337776 0
M  V30 2171 H 198.573 -1.4906 -0.100695 0
M  V30 2172 H 200.455 -3.16129 -2.7864 0
M  V30 2173 H 199.13 -1.9881 -2.55453 0
M  V30 2174 H 198.037 -3.62705 -0.916296 0
M  V30 2175 H 199.37 -4.76722 -1.22464 0
M  V30 2176 N 201.022 0.148545 -1.56898 0
M  V30 2177 C 202.433 0.708766 -1.72723 0
M  V30 2178 C 202.784 1.81734 -0.739395 0
M  V30 2179 O 201.909 2.16194 0.0943169 0
M  V30 2180 C 202.504 1.29245 -3.13179 0
M  V30 2181 C 201.063 1.79925 -3.30611 0
M  V30 2182 C 200.21 0.687111 -2.68652 0
M  V30 2183 H 203.161 -0.0771063 -1.58513 0
M  V30 2184 H 203.182 2.16224 -3.13093 0
M  V30 2185 H 202.694 0.485382 -3.85053 0
M  V30 2186 H 200.795 2.63203 -2.63732 0
M  V30 2187 H 200.908 1.92903 -4.38549 0
M  V30 2188 H 199.272 1.11335 -2.29078 0
M  V30 2189 H 200.055 -0.108483 -3.43129 0
M  V30 2190 N 202.5 1.5196 0.417844 0
M  V30 2191 C 203.73 1.69181 1.18581 0
M  V30 2192 C 204.138 0.397104 1.84986 0
M  V30 2193 O 203.481 -0.636011 1.72339 0
M  V30 2194 C 203.543 2.76497 2.29759 0
M  V30 2195 C 203.207 4.18514 1.83563 0
M  V30 2196 C 204.204 5.02648 1.32821 0
M  V30 2197 C 201.889 4.64708 1.90661 0
M  V30 2198 C 203.883 6.31044 0.897894 0
M  V30 2199 C 201.57 5.93096 1.47241 0
M  V30 2200 C 202.568 6.76093 0.968891 0
M  V30 2201 O 202.256 8.02078 0.540924 0
M  V30 2202 H 201.988 0.570457 0.362705 0
M  V30 2203 H 204.542 1.99249 0.498885 0
M  V30 2204 H 202.772 2.41786 3.01789 0
M  V30 2205 H 204.461 2.82403 2.91553 0
M  V30 2206 H 205.227 4.68154 1.26716 0
M  V30 2207 H 201.106 4.00216 2.28797 0
M  V30 2208 H 204.65 6.95776 0.504192 0
M  V30 2209 H 200.547 6.271 1.53022 0
M  V30 2210 H 201.315 8.15794 0.66502 0
M  V30 2211 N 203.978 -0.674533 1.42435 0
M  V30 2212 C 204.941 -1.76986 1.45632 0
M  V30 2213 C 205.941 -1.5708 0.343871 0
M  V30 2214 O 207.131 -1.63367 0.604709 0
M  V30 2215 C 204.263 -3.15623 1.28822 0
M  V30 2216 H 205.456 -1.75539 2.43158 0
M  V30 2217 H 203.009 -0.884189 1.28887 0
M  V30 2218 H 203.744 -3.22696 0.322193 0
M  V30 2219 H 203.529 -3.31475 2.09444 0
M  V30 2220 H 205.019 -3.95537 1.33942 0
M  V30 2221 N 205.456 -1.28612 -0.910864 0
M  V30 2222 C 206.733 -1.06632 -1.63979 0
M  V30 2223 C 207.113 0.393351 -2.07403 0
M  V30 2224 O 206.461 1.37999 -1.82122 0
M  V30 2225 C 206.671 -2.0436 -2.8291 0
M  V30 2226 C 208.019 -2.34666 -3.5386 0
M  V30 2227 O 209.043 -2.02467 -2.93062 0
M  V30 2228 O 207.902 -2.89631 -4.63439 0
M  V30 2229 H 204.996 -0.407737 -0.7195 0
M  V30 2230 H 207.542 -1.39942 -0.959914 0
M  V30 2231 H 206.314 -3.02727 -2.47936 0
M  V30 2232 H 205.937 -1.71714 -3.58609 0
M  V30 2233 N 206.934 1.1197 -1.10907 0
M  V30 2234 C 207.866 2.17592 -0.720175 0
M  V30 2235 C 208.879 1.60938 0.245495 0
M  V30 2236 O 210.068 1.78476 0.0292245 0
M  V30 2237 C 207.168 3.38873 -0.0427917 0
M  V30 2238 C 206.341 4.25006 -1.03388 0
M  V30 2239 C 205.4 5.24774 -0.387075 0
M  V30 2240 O 204.426 5.59631 -1.03934 0
M  V30 2241 N 205.628 5.74208 0.852407 0
M  V30 2242 H 208.393 2.51567 -1.62893 0
M  V30 2243 H 205.954 1.27439 -0.998543 0
M  V30 2244 H 207.946 4.02703 0.401501 0
M  V30 2245 H 206.516 3.03007 0.768456 0
M  V30 2246 H 205.736 3.57716 -1.65629 0
M  V30 2247 H 207.024 4.79397 -1.70458 0
M  V30 2248 H 206.422 5.48062 1.40161 0
M  V30 2249 H 204.979 6.39901 1.23977 0
M  V30 2250 N 208.412 0.89855 1.29475 0
M  V30 2251 C 209.342 0.39201 2.30186 0
M  V30 2252 C 210.323 -0.532359 1.61555 0
M  V30 2253 O 211.508 -0.443331 1.89072 0
M  V30 2254 C 208.638 -0.382353 3.45189 0
M  V30 2255 C 207.592 0.451483 4.25612 0
M  V30 2256 C 206.918 -0.450307 5.328 0
M  V30 2257 C 208.218 1.70079 4.93832 0
M  V30 2258 H 209.912 1.23362 2.72804 0
M  V30 2259 H 207.458 0.594638 1.31149 0
M  V30 2260 H 209.411 -0.747451 4.14718 0
M  V30 2261 H 208.135 -1.25774 3.01411 0
M  V30 2262 H 206.794 0.798897 3.57789 0
M  V30 2263 H 206.442 -1.32379 4.85268 0
M  V30 2264 H 206.142 0.103902 5.87508 0
M  V30 2265 H 207.666 -0.811623 6.05182 0
M  V30 2266 H 209.08 1.40549 5.55805 0
M  V30 2267 H 207.477 2.19623 5.58467 0
M  V30 2268 H 208.547 2.43744 4.19186 0
M  V30 2269 N 209.89 -1.43072 0.660911 0
M  V30 2270 C 211.306 -1.56169 0.329173 0
M  V30 2271 C 211.506 -1.64317 -1.16629 0
M  V30 2272 O 210.562 -1.60245 -1.95135 0
M  V30 2273 C 211.875 -2.81873 1.04729 0
M  V30 2274 C 213.423 -2.95627 1.02828 0
M  V30 2275 C 213.898 -4.24174 1.72744 0
M  V30 2276 N 215.389 -4.31055 1.69545 0
M  V30 2277 C 216.124 -5.29304 2.20511 0
M  V30 2278 N 215.62 -6.33786 2.79799 0
M  V30 2279 N 217.413 -5.21008 2.10966 0
M  V30 2280 H 209.564 -1.36027 1.63127 0
M  V30 2281 H 211.827 -0.653823 0.686454 0
M  V30 2282 H 211.533 -2.81942 2.10242 0
M  V30 2283 H 211.407 -3.72338 0.603702 0
M  V30 2284 H 213.794 -2.95094 -0.0184742 0
M  V30 2285 H 213.875 -2.06431 1.51063 0
M  V30 2286 H 213.519 -4.25467 2.7738 0
M  V30 2287 H 213.449 -5.1228 1.2197 0
M  V30 2288 H 215.94 -3.56174 1.26288 0
M  V30 2289 H 216.253 -7.05086 3.16344 0
M  V30 2290 H 214.598 -6.34387 2.83863 0
M  V30 2291 H 217.789 -4.38301 1.64347 0
M  V30 2292 H 217.962 -5.97416 2.50993 0
M  V30 2293 N 211.368 -0.403325 -1.52352 0
M  V30 2294 C 212.596 0.174012 -2.06167 0
M  V30 2295 C 213.011 1.39347 -1.27388 0
M  V30 2296 O 212.368 1.79597 -0.324201 0
M  V30 2297 C 212.419 0.530223 -3.5759 0
M  V30 2298 O 212.14 -0.640806 -4.33388 0
M  V30 2299 C 213.641 1.16192 -4.27802 0
M  V30 2300 H 210.861 0.0229464 -0.670608 0
M  V30 2301 H 213.405 -0.572604 -1.9632 0
M  V30 2302 H 211.56 1.22673 -3.67464 0
M  V30 2303 H 211.974 -0.344851 -5.23365 0
M  V30 2304 H 213.448 1.36141 -5.34948 0
M  V30 2305 H 213.925 2.13335 -3.83907 0
M  V30 2306 H 214.531 0.505775 -4.22282 0
M  V30 2307 N 212.846 1.57033 -0.133567 0
M  V30 2308 C 213.778 2.13176 0.841944 0
M  V30 2309 C 214.791 1.07794 1.22001 0
M  V30 2310 O 215.98 1.35117 1.16643 0
M  V30 2311 C 213.08 2.62847 2.13926 0
M  V30 2312 C 212.253 3.92486 1.93064 0
M  V30 2313 C 211.312 4.27605 3.0666 0
M  V30 2314 O 210.338 4.96168 2.78937 0
M  V30 2315 N 211.54 3.861 4.33483 0
M  V30 2316 H 214.305 2.97503 0.362192 0
M  V30 2317 H 211.866 1.61821 0.05042 0
M  V30 2318 H 213.858 2.83363 2.88942 0
M  V30 2319 H 212.428 1.83319 2.53205 0
M  V30 2320 H 211.648 3.80732 1.02159 0
M  V30 2321 H 212.936 4.77225 1.76447 0
M  V30 2322 H 212.334 3.30828 4.58878 0
M  V30 2323 H 210.891 4.11694 5.05323 0
M  V30 2324 N 214.325 -0.140222 1.56975 0
M  V30 2325 C 215.571 -0.852949 1.83991 0
M  V30 2326 C 215.904 -1.80512 0.716187 0
M  V30 2327 O 215.179 -1.92479 -0.279681 0
M  V30 2328 C 215.462 -1.6215 3.21527 0
M  V30 2329 C 215.315 -0.690363 4.4447 0
M  V30 2330 C 216.634 -2.58247 3.56366 0
M  V30 2331 H 213.753 -0.308634 0.669264 0
M  V30 2332 H 216.395 -0.117898 1.89634 0
M  V30 2333 H 214.545 -2.24812 3.16847 0
M  V30 2334 H 216.217 -0.0742264 4.6124 0
M  V30 2335 H 214.46 -0.000396433 4.338 0
M  V30 2336 H 215.131 -1.2643 5.37326 0
M  V30 2337 H 217.607 -2.05701 3.61699 0
M  V30 2338 H 216.483 -3.09067 4.53617 0
M  V30 2339 H 216.744 -3.39923 2.82674 0
M  V30 2340 N 215.803 -1.52179 -0.40978 0
M  V30 2341 C 216.751 -1.76086 -1.51975 0
M  V30 2342 C 217.745 -0.627964 -1.57331 0
M  V30 2343 O 218.951 -0.809993 -1.60745 0
M  V30 2344 H 215.326 -0.556829 -0.505416 0
M  V30 2345 H 217.297 -2.69077 -1.28996 0
M  V30 2346 C 216.046 -1.92799 -2.8935 0
M  V30 2347 H 215.369 -2.79392 -2.85972 0
M  V30 2348 H 216.809 -2.13527 -3.66309 0
M  V30 2349 C 215.268 -0.694923 -3.29655 0
M  V30 2350 O 215.798 0.13751 -4.01465 0
M  V30 2351 N 214.004 -0.53101 -2.85707 0
M  V30 2352 H 213.551 -1.20952 -2.27439 0
M  V30 2353 H 213.509 0.292718 -3.13034 0
M  V30 2354 N 217.281 0.66697 -1.42791 0
M  V30 2355 C 218.509 1.45505 -1.47091 0
M  V30 2356 C 218.924 1.8861 -0.0845873 0
M  V30 2357 O 218.281 1.58632 0.90234 0
M  V30 2358 C 218.332 2.69906 -2.40485 0
M  V30 2359 O 218.053 2.28608 -3.73725 0
M  V30 2360 C 219.554 3.63396 -2.53886 0
M  V30 2361 H 216.774 0.447459 -0.500022 0
M  V30 2362 H 219.318 0.818866 -1.8739 0
M  V30 2363 H 217.473 3.29696 -2.03419 0
M  V30 2364 H 217.887 3.08997 -4.23817 0
M  V30 2365 H 219.361 4.47387 -3.2334 0
M  V30 2366 H 219.838 4.09824 -1.57927 0
M  V30 2367 H 220.444 3.09495 -2.91706 0
M  V30 2368 N 218.759 1.29093 0.90403 0
M  V30 2369 C 219.691 1.09658 2.01266 0
M  V30 2370 C 220.704 0.0453729 1.62737 0
M  V30 2371 O 221.893 0.289446 1.76138 0
M  V30 2372 C 218.993 0.646278 3.32681 0
M  V30 2373 C 218.166 1.77505 3.99763 0
M  V30 2374 C 217.225 1.31649 5.09465 0
M  V30 2375 O 216.251 2.02045 5.32134 0
M  V30 2376 N 217.453 0.184997 5.80205 0
M  V30 2377 H 220.218 2.05135 2.18494 0
M  V30 2378 H 217.779 1.20975 1.07594 0
M  V30 2379 H 219.771 0.322906 4.0341 0
M  V30 2380 H 218.341 -0.215916 3.11853 0
M  V30 2381 H 217.561 2.26752 3.22455 0
M  V30 2382 H 218.849 2.53198 4.41325 0
M  V30 2383 H 218.247 -0.402021 5.6427 0
M  V30 2384 H 216.804 -0.0790358 6.51752 0
M  V30 2385 N 220.237 -1.11381 1.11499 0
M  V30 2386 C 221.2 -2.15622 0.777153 0
M  V30 2387 C 222.2 -1.59504 -0.203779 0
M  V30 2388 O 223.39 -1.74188 0.020782 0
M  V30 2389 C 220.522 -3.40556 0.153116 0
M  V30 2390 H 221.715 -2.47021 1.70061 0
M  V30 2391 H 219.268 -1.26577 0.916952 0
M  V30 2392 H 220.003 -3.14767 -0.780536 0
M  V30 2393 H 219.788 -3.8257 0.859238 0
M  V30 2394 H 221.278 -4.17546 -0.0671044 0
M  V30 2395 N 221.715 -0.905404 -1.28997 0
M  V30 2396 C 222.625 -0.392246 -2.31298 0
M  V30 2397 C 223.641 0.515889 -1.66176 0
M  V30 2398 O 224.817 0.404093 -1.97304 0
M  V30 2399 C 221.882 0.36686 -3.44754 0
M  V30 2400 C 220.943 -0.573485 -4.25452 0
M  V30 2401 C 220.176 0.149488 -5.33491 0
M  V30 2402 O 220.399 1.37255 -5.5364 0
M  V30 2403 O 219.333 -0.510919 -5.99728 0
M  V30 2404 H 223.159 -1.2411 -2.77183 0
M  V30 2405 H 220.744 -0.669926 -1.33538 0
M  V30 2406 H 222.626 0.795907 -4.13816 0
M  V30 2407 H 221.301 1.19169 -3.00966 0
M  V30 2408 H 220.208 -1.05176 -3.59011 0
M  V30 2409 H 221.541 -1.36489 -4.72897 0
M  V30 2410 N 223.193 1.4272 -0.668489 0
M  V30 2411 C 224.125 2.2914 0.052613 0
M  V30 2412 C 225.138 1.43339 0.771857 0
M  V30 2413 O 226.327 1.67123 0.627067 0
M  V30 2414 C 223.427 3.20618 1.09804 0
M  V30 2415 C 222.6 4.35039 0.45389 0
M  V30 2416 C 221.659 5.07282 1.39825 0
M  V30 2417 O 220.685 5.62024 0.900978 0
M  V30 2418 N 221.887 5.12206 2.73176 0
M  V30 2419 H 224.652 2.91668 -0.689209 0
M  V30 2420 H 222.213 1.53577 -0.512422 0
M  V30 2421 H 224.205 3.65815 1.73094 0
M  V30 2422 H 222.775 2.59585 1.74167 0
M  V30 2423 H 221.995 3.92567 -0.358396 0
M  V30 2424 H 223.283 5.088 0.00486972 0
M  V30 2425 H 222.681 4.6913 3.16122 0
M  V30 2426 H 221.238 5.61069 3.31729 0
M  V30 2427 N 224.671 0.411399 1.52136 0
M  V30 2428 C 225.601 -0.404015 2.29978 0
M  V30 2429 C 226.582 -1.04412 1.34284 0
M  V30 2430 O 227.767 -1.0527 1.63192 0
M  V30 2431 C 224.897 -1.5197 3.12286 0
M  V30 2432 C 223.851 -1.00448 4.16046 0
M  V30 2433 C 223.177 -2.21393 4.86712 0
M  V30 2434 C 224.477 -0.0569336 5.22269 0
M  V30 2435 H 226.171 0.245529 2.98392 0
M  V30 2436 H 223.717 0.119525 1.43503 0
M  V30 2437 H 225.67 -2.09715 3.6551 0
M  V30 2438 H 224.394 -2.19716 2.41646 0
M  V30 2439 H 223.053 -0.449421 3.63835 0
M  V30 2440 H 222.701 -2.87699 4.12599 0
M  V30 2441 H 222.401 -1.87571 5.56858 0
M  V30 2442 H 223.925 -2.7974 5.4275 0
M  V30 2443 H 225.339 -0.54325 5.7072 0
M  V30 2444 H 223.736 0.192594 5.99791 0
M  V30 2445 H 224.806 0.887663 4.76706 0
M  V30 2446 N 226.149 -1.5696 0.141893 0
M  V30 2447 C 227.565 -1.58151 -0.21456 0
M  V30 2448 C 227.765 -1.1559 -1.65049 0
M  V30 2449 O 226.821 -0.853832 -2.37626 0
M  V30 2450 C 228.134 -3.00674 0.0395576 0
M  V30 2451 C 229.682 -3.1299 -0.0245529 0
M  V30 2452 C 230.157 -4.57554 0.202167 0
M  V30 2453 N 231.648 -4.62961 0.148919 0
M  V30 2454 C 232.383 -5.7262 0.298924 0
M  V30 2455 N 231.879 -6.90947 0.50637 0
M  V30 2456 N 233.672 -5.61601 0.236886 0
M  V30 2457 H 225.823 -1.8292 1.07953 0
M  V30 2458 H 228.086 -0.846425 0.42693 0
M  V30 2459 H 227.792 -3.36183 1.03315 0
M  V30 2460 H 227.666 -3.70981 -0.682143 0
M  V30 2461 H 230.053 -2.77326 -1.00869 0
M  V30 2462 H 230.134 -2.4518 0.729396 0
M  V30 2463 H 229.778 -4.93922 1.18338 0
M  V30 2464 H 229.708 -5.23484 -0.572044 0
M  V30 2465 H 232.199 -3.77899 -0.00697015 0
M  V30 2466 H 232.512 -7.7038 0.611076 0
M  V30 2467 H 230.857 -6.92878 0.542628 0
M  V30 2468 H 234.048 -4.68039 0.0756209 0
M  V30 2469 H 234.221 -6.47015 0.357227 0
M  V30 2470 N 227.627 0.131896 -1.57047 0
M  V30 2471 C 229.043 0.485031 -1.52051 0
M  V30 2472 C 229.243 1.82563 -0.85281 0
M  V30 2473 O 228.299 2.48817 -0.429694 0
M  V30 2474 C 229.612 0.481409 -2.96821 0
M  V30 2475 C 231.16 0.565868 -3.07842 0
M  V30 2476 C 231.635 0.592762 -4.54148 0
M  V30 2477 N 233.126 0.654564 -4.58552 0
M  V30 2478 C 233.861 0.696608 -5.69153 0
M  V30 2479 N 233.357 0.697078 -6.89284 0
M  V30 2480 N 235.15 0.738639 -5.57226 0
M  V30 2481 H 227.301 -0.746664 -1.98843 0
M  V30 2482 H 229.564 -0.273999 -0.90754 0
M  V30 2483 H 229.27 -0.435731 -3.4899 0
M  V30 2484 H 229.144 1.3139 -3.53577 0
M  V30 2485 H 231.531 1.47343 -2.55684 0
M  V30 2486 H 231.612 -0.29406 -2.54104 0
M  V30 2487 H 231.256 -0.310701 -5.06949 0
M  V30 2488 H 231.186 1.46939 -5.05684 0
M  V30 2489 H 233.677 0.660887 -3.72076 0
M  V30 2490 H 233.99 0.731426 -7.69331 0
M  V30 2491 H 232.335 0.66471 -6.91814 0
M  V30 2492 H 235.526 0.735545 -4.62285 0
M  V30 2493 H 235.699 0.767938 -6.43434 0
M  V30 2494 N 229.106 1.52395 0.401703 0
M  V30 2495 C 230.038 1.72505 1.50912 0
M  V30 2496 C 231.051 0.605468 1.51122 0
M  V30 2497 O 232.24 0.880828 1.55254 0
M  V30 2498 C 229.34 1.75711 2.89791 0
M  V30 2499 C 228.513 3.04824 3.1369 0
M  V30 2500 C 227.572 2.99743 4.32482 0
M  V30 2501 O 226.598 3.73635 4.29402 0
M  V30 2502 N 227.8 2.18047 5.37992 0
M  V30 2503 H 230.565 2.68049 1.34052 0
M  V30 2504 H 228.126 1.50724 0.591084 0
M  V30 2505 H 230.118 1.69834 3.6734 0
M  V30 2506 H 228.688 0.876092 3.00072 0
M  V30 2507 H 227.908 3.2429 2.24119 0
M  V30 2508 H 229.196 3.90221 3.26504 0
M  V30 2509 H 228.594 1.57456 5.43345 0
M  V30 2510 H 227.151 2.18021 6.14256 0
M  V30 2511 N 230.584 -0.659388 1.43143 0
M  V30 2512 C 231.514 -1.78422 1.50625 0
M  V30 2513 C 232.495 -1.66216 0.361443 0
M  V30 2514 O 233.68 -1.85404 0.577834 0
M  V30 2515 C 230.81 -3.16815 1.42287 0
M  V30 2516 C 229.764 -3.43777 2.54954 0
M  V30 2517 C 229.09 -4.81905 2.31671 0
M  V30 2518 C 230.39 -3.39134 3.97222 0
M  V30 2519 H 232.084 -1.72417 2.44771 0
M  V30 2520 H 229.63 -0.828084 1.17808 0
M  V30 2521 H 231.583 -3.95253 1.46127 0
M  V30 2522 H 230.307 -3.23534 0.446435 0
M  V30 2523 H 228.966 -2.67707 2.50457 0
M  V30 2524 H 228.614 -4.85294 1.32284 0
M  V30 2525 H 228.314 -5.00906 3.07192 0
M  V30 2526 H 229.838 -5.62609 2.37284 0
M  V30 2527 H 231.252 -4.07518 4.03239 0
M  V30 2528 H 229.649 -3.69671 4.72719 0
M  V30 2529 H 230.719 -2.37426 4.22797 0
M  V30 2530 N 232.062 -1.29571 -0.897171 0
M  V30 2531 C 233.29 -1.20583 -1.68129 0
M  V30 2532 C 233.705 0.233181 -1.87354 0
M  V30 2533 O 233.062 1.15579 -1.41236 0
M  V30 2534 C 233.113 -1.91772 -3.06441 0
M  V30 2535 O 232.834 -3.30053 -2.88091 0
M  V30 2536 C 234.335 -1.89291 -4.00854 0
M  V30 2537 H 231.555 -0.417826 -0.525036 0
M  V30 2538 H 234.099 -1.70987 -1.12177 0
M  V30 2539 H 232.254 -1.45196 -3.59161 0
M  V30 2540 H 232.668 -3.65942 -3.75748 0
M  V30 2541 H 234.142 -2.43662 -4.95311 0
M  V30 2542 H 234.619 -0.869014 -4.30517 0
M  V30 2543 H 235.225 -2.35622 -3.54066 0
M  V30 2544 N 233.54 1.10788 -1.12088 0
M  V30 2545 C 234.951 1.64181 -0.88891 0
M  V30 2546 C 235.302 1.87508 0.577498 0
M  V30 2547 O 234.427 1.61434 1.44112 0
M  V30 2548 C 235.022 2.98257 -1.60712 0
M  V30 2549 C 233.581 3.4853 -1.42139 0
M  V30 2550 C 232.728 2.23208 -1.6454 0
M  V30 2551 H 235.679 0.943368 -1.27618 0
M  V30 2552 H 235.7 3.65552 -1.05604 0
M  V30 2553 H 235.212 2.81246 -2.67436 0
M  V30 2554 H 233.313 3.70692 -0.376552 0
M  V30 2555 H 233.426 4.26882 -2.17505 0
M  V30 2556 H 231.79 2.31169 -1.06925 0
M  V30 2557 H 232.573 2.08733 -2.72554 0
M  V30 2558 N 235.018 0.912232 1.28515 0
M  V30 2559 C 236.248 0.559604 1.98877 0
M  V30 2560 C 236.656 -0.863113 1.68366 0
M  V30 2561 O 235.999 -1.58304 0.931969 0
M  V30 2562 C 236.061 0.68703 3.52874 0
M  V30 2563 C 235.725 2.07901 4.06972 0
M  V30 2564 C 236.722 3.05157 4.20922 0
M  V30 2565 C 234.407 2.39178 4.417 0
M  V30 2566 C 236.401 4.31806 4.68852 0
M  V30 2567 C 234.088 3.66068 4.89324 0
M  V30 2568 C 235.086 4.62195 5.02856 0
M  V30 2569 O 234.774 5.86829 5.49442 0
M  V30 2570 H 234.506 0.212191 0.641834 0
M  V30 2571 H 237.06 1.22712 1.64715 0
M  V30 2572 H 235.29 -0.0375486 3.86682 0
M  V30 2573 H 236.979 0.341727 4.04459 0
M  V30 2574 H 237.745 2.82311 3.94367 0
M  V30 2575 H 233.624 1.65109 4.30418 0
M  V30 2576 H 237.168 5.06842 4.79329 0
M  V30 2577 H 233.065 3.88739 5.15318 0
M  V30 2578 H 233.833 5.89597 5.6773 0
M  V30 2579 N 236.496 -1.42363 0.676048 0
M  V30 2580 C 237.459 -2.29199 0.00766941 0
M  V30 2581 C 238.459 -1.43389 -0.727745 0
M  V30 2582 O 239.649 -1.64764 -0.56556 0
M  V30 2583 C 236.781 -3.2591 -0.999785 0
M  V30 2584 H 237.974 -2.89794 0.771988 0
M  V30 2585 H 235.527 -1.50024 0.438468 0
M  V30 2586 H 236.262 -2.70256 -1.79255 0
M  V30 2587 H 236.047 -3.89202 -0.475829 0
M  V30 2588 H 237.537 -3.91028 -1.46583 0
M  V30 2589 N 237.974 -0.419461 -1.51915 0
M  V30 2590 C 238.906 0.43646 -2.25006 0
M  V30 2591 C 239.919 1.00149 -1.28351 0
M  V30 2592 O 241.108 0.898674 -1.54227 0
M  V30 2593 C 238.208 1.6206 -2.9764 0
M  V30 2594 C 237.381 1.17763 -4.21249 0
M  V30 2595 C 236.44 2.22985 -4.76617 0
M  V30 2596 O 235.466 1.83151 -5.38929 0
M  V30 2597 N 236.668 3.55271 -4.59089 0
M  V30 2598 H 239.433 -0.18989 -2.99098 0
M  V30 2599 H 236.994 -0.247386 -1.59999 0
M  V30 2600 H 238.986 2.32038 -3.31573 0
M  V30 2601 H 237.556 2.15266 -2.2667 0
M  V30 2602 H 236.776 0.305582 -3.93014 0
M  V30 2603 H 238.064 0.858781 -5.015 0
M  V30 2604 H 237.462 3.90377 -4.09417 0
M  V30 2605 H 236.019 4.21195 -4.97432 0
M  V30 2606 N 239.452 1.56882 -0.150215 0
M  V30 2607 C 240.868 1.58263 0.20617 0
M  V30 2608 C 241.068 1.16464 1.64434 0
M  V30 2609 O 240.124 0.866422 2.3717 0
M  V30 2610 C 241.437 3.00649 -0.0555025 0
M  V30 2611 C 242.985 3.12999 0.00795388 0
M  V30 2612 C 243.46 4.5744 -0.226429 0
M  V30 2613 N 244.951 4.62875 -0.173469 0
M  V30 2614 C 245.686 5.72454 -0.329288 0
M  V30 2615 N 245.182 6.90669 -0.543005 0
M  V30 2616 N 246.975 5.61467 -0.266666 0
M  V30 2617 H 239.126 1.82345 -1.08922 0
M  V30 2618 H 241.389 0.844149 -0.431413 0
M  V30 2619 H 241.095 3.3563 -1.05096 0
M  V30 2620 H 240.969 3.71337 0.66246 0
M  V30 2621 H 243.356 2.77857 0.993966 0
M  V30 2622 H 243.437 2.4479 -0.742388 0
M  V30 2623 H 243.081 4.93287 -1.20956 0
M  V30 2624 H 243.011 5.2378 0.544274 0
M  V30 2625 H 245.502 3.77898 -0.0130709 0
M  V30 2626 H 245.815 7.70045 -0.651922 0
M  V30 2627 H 244.16 6.92581 -0.579366 0
M  V30 2628 H 247.351 4.67992 -0.100441 0
M  V30 2629 H 247.524 6.46816 -0.391535 0
M  V30 2630 N 240.93 -0.123565 1.57115 0
M  V30 2631 C 241.863 -1.18202 1.95201 0
M  V30 2632 C 242.841 -1.40349 0.821031 0
M  V30 2633 O 244.025 -1.54578 1.07879 0
M  V30 2634 C 241.152 -2.53671 2.24429 0
M  V30 2635 C 240.198 -2.4798 3.46999 0
M  V30 2636 S 241.031 -1.92389 4.99747 0
M  V30 2637 C 242.187 -3.2954 5.32123 0
M  V30 2638 H 242.42 -0.857212 2.84674 0
M  V30 2639 H 239.953 -0.33014 1.50829 0
M  V30 2640 H 241.911 -3.3162 2.41947 0
M  V30 2641 H 240.572 -2.83332 1.35579 0
M  V30 2642 H 239.765 -3.47758 3.64801 0
M  V30 2643 H 239.367 -1.7815 3.28844 0
M  V30 2644 H 241.659 -4.25736 5.27025 0
M  V30 2645 H 242.602 -3.16569 6.33395 0
M  V30 2646 H 243.01 -3.27758 4.59603 0
M  V30 2647 N 242.408 -1.52605 -0.393616 0
M  V30 2648 C 243.318 -1.79971 -1.50492 0
M  V30 2649 C 244.334 -0.686181 -1.59899 0
M  V30 2650 O 245.51 -0.973274 -1.76322 0
M  V30 2651 C 242.575 -1.95867 -2.86072 0
M  V30 2652 C 241.636 -3.19781 -2.86424 0
M  V30 2653 C 240.869 -3.34909 -4.15538 0
M  V30 2654 O 241.092 -2.54948 -5.10253 0
M  V30 2655 O 240.026 -4.28141 -4.23059 0
M  V30 2656 H 243.852 -2.74328 -1.30299 0
M  V30 2657 H 241.437 -1.3764 -0.581005 0
M  V30 2658 H 243.319 -2.08056 -3.66457 0
M  V30 2659 H 241.994 -1.04699 -3.063 0
M  V30 2660 H 240.901 -3.13038 -2.04837 0
M  V30 2661 H 242.234 -4.1078 -2.71147 0
M  V30 2662 N 243.887 0.651787 -1.4349 0
M  V30 2663 C 245.303 0.96762 -1.26922 0
M  V30 2664 C 245.503 2.00602 -0.189982 0
M  V30 2665 O 244.559 2.48793 0.431107 0
M  V30 2666 C 245.872 1.45052 -2.63401 0
M  V30 2667 C 247.42 1.5671 -2.70945 0
M  V30 2668 C 247.895 2.0839 -4.07845 0
M  V30 2669 N 249.386 2.1569 -4.09917 0
M  V30 2670 C 250.121 2.56804 -5.12679 0
M  V30 2671 N 249.617 2.97203 -6.25813 0
M  V30 2672 N 251.41 2.56756 -5.00033 0
M  V30 2673 H 243.561 -0.0353158 -2.12371 0
M  V30 2674 H 245.824 0.0467858 -0.946845 0
M  V30 2675 H 245.53 0.761926 -3.43348 0
M  V30 2676 H 245.404 2.42529 -2.88894 0
M  V30 2677 H 247.791 2.2467 -1.9133 0
M  V30 2678 H 247.872 0.57662 -2.49216 0
M  V30 2679 H 247.516 1.41031 -4.87927 0
M  V30 2680 H 247.446 3.08271 -4.26938 0
M  V30 2681 H 249.937 1.87237 -3.28254 0
M  V30 2682 H 250.25 3.27328 -7.00055 0
M  V30 2683 H 248.595 2.95004 -6.29283 0
M  V30 2684 H 251.786 2.24572 -4.10713 0
M  V30 2685 H 251.959 2.88475 -5.80247 0
M  V30 2686 N 245.365 1.30045 0.890287 0
M  V30 2687 C 246.611 1.18737 1.64406 0
M  V30 2688 C 246.944 -0.258525 1.92472 0
M  V30 2689 O 246.219 -1.18562 1.54186 0
M  V30 2690 C 246.502 2.01087 2.98724 0
M  V30 2691 C 246.355 3.53867 2.77665 0
M  V30 2692 C 247.674 1.84457 3.9958 0
M  V30 2693 H 244.793 0.432698 0.596608 0
M  V30 2694 H 247.435 1.5962 1.0306 0
M  V30 2695 H 245.585 1.66349 3.51084 0
M  V30 2696 H 247.257 3.98637 2.32133 0
M  V30 2697 H 245.5 3.78318 2.12269 0
M  V30 2698 H 246.171 4.06772 3.7315 0
M  V30 2699 H 248.647 2.14817 3.56361 0
M  V30 2700 H 247.523 2.44411 4.91482 0
M  V30 2701 H 247.784 0.802276 4.3476 0
M  V30 2702 N 246.843 -1.10192 1.12674 0
M  V30 2703 C 247.773 -2.18652 0.819362 0
M  V30 2704 C 248.754 -1.68698 -0.217915 0
M  V30 2705 O 249.939 -1.94041 -0.0785581 0
M  V30 2706 C 247.069 -3.46202 0.27594 0
M  V30 2707 C 246.023 -4.09444 1.24656 0
M  V30 2708 C 245.349 -5.31725 0.563258 0
M  V30 2709 C 246.649 -4.52863 2.60217 0
M  V30 2710 H 248.343 -2.44622 1.72628 0
M  V30 2711 H 245.889 -1.17571 0.831451 0
M  V30 2712 H 247.842 -4.21372 0.0486149 0
M  V30 2713 H 246.566 -3.1973 -0.666331 0
M  V30 2714 H 245.225 -3.36284 1.45974 0
M  V30 2715 H 244.873 -5.0153 -0.384235 0
M  V30 2716 H 244.573 -5.74991 1.21075 0
M  V30 2717 H 246.097 -6.09624 0.34503 0
M  V30 2718 H 247.511 -5.19294 2.42913 0
M  V30 2719 H 245.908 -5.06986 3.21068 0
M  V30 2720 H 246.978 -3.65656 3.18471 0
M  V30 2721 N 248.321 -0.919034 -1.28029 0
M  V30 2722 C 249.737 -0.617972 -1.4715 0
M  V30 2723 C 249.937 0.835242 -1.83374 0
M  V30 2724 O 248.993 1.61388 -1.94191 0
M  V30 2725 C 250.306 -1.56041 -2.57044 0
M  V30 2726 C 251.854 -1.56769 -2.7091 0
M  V30 2727 C 252.329 -2.49688 -3.83953 0
M  V30 2728 N 253.82 -2.47845 -3.91314 0
M  V30 2729 C 254.555 -3.16437 -4.78179 0
M  V30 2730 N 254.051 -3.94376 -5.69596 0
M  V30 2731 N 255.844 -3.05498 -4.71834 0
M  V30 2732 H 247.995 -1.85866 -1.02798 0
M  V30 2733 H 250.258 -0.797506 -0.512531 0
M  V30 2734 H 249.964 -2.59671 -2.372 0
M  V30 2735 H 249.838 -1.29551 -3.54255 0
M  V30 2736 H 252.225 -0.538745 -2.90141 0
M  V30 2737 H 252.306 -1.87305 -1.74214 0
M  V30 2738 H 251.95 -3.52688 -3.65477 0
M  V30 2739 H 251.88 -2.16453 -4.80058 0
M  V30 2740 H 254.371 -1.91234 -3.25941 0
M  V30 2741 H 254.684 -4.43721 -6.32718 0
M  V30 2742 H 253.029 -3.98481 -5.69419 0
M  V30 2743 H 256.22 -2.44108 -3.99411 0
M  V30 2744 H 256.393 -3.59225 -5.39316 0
M  V30 2745 N 249.799 1.42003 -0.683588 0
M  V30 2746 C 250.709 2.34597 -0.0109075 0
M  V30 2747 C 251.725 1.55576 0.779245 0
M  V30 2748 O 252.901 1.88107 0.719555 0
M  V30 2749 C 249.966 3.34199 0.922588 0
M  V30 2750 C 249.027 4.29115 0.125984 0
M  V30 2751 C 248.26 5.23959 1.01502 0
M  V30 2752 O 248.483 5.23952 2.25456 0
M  V30 2753 O 247.417 6.00053 0.47111 0
M  V30 2754 H 251.243 2.93675 -0.773853 0
M  V30 2755 H 248.828 1.42654 -0.443861 0
M  V30 2756 H 250.71 3.95365 1.45823 0
M  V30 2757 H 249.385 2.77582 1.66523 0
M  V30 2758 H 248.292 3.71335 -0.453969 0
M  V30 2759 H 249.625 4.88798 -0.577736 0
M  V30 2760 N 251.277 0.427512 1.51691 0
M  V30 2761 C 252.225 -0.403359 2.29076 0
M  V30 2762 C 253.219 -1.02962 1.34518 0
M  V30 2763 O 254.425 -0.965715 1.51901 0
M  V30 2764 H 250.8 -0.148879 0.737115 0
M  V30 2765 H 252.771 0.270295 2.97173 0
M  V30 2766 C 251.52 -1.49763 3.13794 0
M  V30 2767 H 250.843 -1.02508 3.86435 0
M  V30 2768 H 252.283 -2.05244 3.71014 0
M  V30 2769 C 250.742 -2.47536 2.28533 0
M  V30 2770 O 251.272 -3.51848 1.93819 0
M  V30 2771 N 249.478 -2.18187 1.91945 0
M  V30 2772 H 249.025 -1.33389 2.20375 0
M  V30 2773 H 248.983 -2.83848 1.35195 0
M  V30 2774 N 252.755 -1.56801 0.158532 0
M  V30 2775 C 253.718 -2.16138 -0.762705 0
M  V30 2776 C 254.718 -1.1061 -1.16713 0
M  V30 2777 O 255.908 -1.36191 -1.08617 0
M  V30 2778 C 253.04 -2.73386 -2.03649 0
M  V30 2779 H 254.233 -2.98886 -0.246354 0
M  V30 2780 H 251.786 -1.56035 -0.0909744 0
M  V30 2781 H 252.521 -1.94335 -2.59623 0
M  V30 2782 H 252.306 -3.50601 -1.75559 0
M  V30 2783 H 253.796 -3.19065 -2.6942 0
M  V30 2784 N 254.233 0.115231 -1.57178 0
M  V30 2785 C 255.51 0.852873 -1.76027 0
M  V30 2786 C 255.89 1.97892 -0.73498 0
M  V30 2787 O 255.238 2.27232 0.24036 0
M  V30 2788 C 255.448 1.36608 -3.21153 0
M  V30 2789 C 256.796 1.81692 -3.83762 0
M  V30 2790 O 257.82 1.46278 -3.24779 0
M  V30 2791 O 256.679 2.47104 -4.87444 0
M  V30 2792 H 253.773 0.405296 -0.720877 0
M  V30 2793 H 256.319 0.0986785 -1.69413 0
M  V30 2794 H 255.091 0.558357 -3.87296 0
M  V30 2795 H 254.714 2.18287 -3.3232 0
M  V30 2796 N 255.711 1.52812 0.385517 0
M  V30 2797 C 256.936 1.72207 1.15583 0
M  V30 2798 C 257.361 0.441034 1.82857 0
M  V30 2799 O 256.719 -0.603465 1.70962 0
M  V30 2800 C 256.767 2.87476 2.17692 0
M  V30 2801 O 255.871 2.54693 3.24354 0
M  V30 2802 H 255.212 0.572526 0.336319 0
M  V30 2803 H 257.742 1.99618 0.448744 0
M  V30 2804 H 257.752 3.13072 2.6163 0
M  V30 2805 H 256.427 3.80408 1.68115 0
M  V30 2806 H 255.004 2.3985 2.85529 0
M  V30 2807 N 257.189 -0.644168 1.43834 0
M  V30 2808 C 258.119 -1.76814 1.52509 0
M  V30 2809 C 259.1 -1.65823 0.379052 0
M  V30 2810 O 260.285 -1.84781 0.597466 0
M  V30 2811 C 257.415 -3.15288 1.4564 0
M  V30 2812 C 256.369 -3.41053 2.58586 0
M  V30 2813 C 255.695 -4.79421 2.36769 0
M  V30 2814 C 256.995 -3.34902 4.00797 0
M  V30 2815 H 258.689 -1.69812 2.46586 0
M  V30 2816 H 256.235 -0.815542 1.1868 0
M  V30 2817 H 258.188 -3.93681 1.50311 0
M  V30 2818 H 256.912 -3.23043 0.480725 0
M  V30 2819 H 255.571 -2.65035 2.53282 0
M  V30 2820 H 255.219 -4.83863 1.37424 0
M  V30 2821 H 254.919 -4.9762 3.12487 0
M  V30 2822 H 256.443 -5.6006 2.43238 0
M  V30 2823 H 257.857 -4.03218 4.07539 0
M  V30 2824 H 256.254 -3.64637 4.76613 0
M  V30 2825 H 257.324 -2.32928 4.25291 0
M  V30 2826 N 258.668 -1.30515 -0.883378 0
M  V30 2827 C 259.6 -1.12846 -1.99496 0
M  V30 2828 C 260.613 -0.0712571 -1.62644 0
M  V30 2829 O 261.802 -0.317432 -1.75655 0
M  V30 2830 C 258.902 -0.699123 -3.3161 0
M  V30 2831 C 258.075 -1.83842 -3.96889 0
M  V30 2832 C 257.134 -1.39737 -5.07307 0
M  V30 2833 O 256.16 -2.10485 -5.28852 0
M  V30 2834 N 257.362 -0.277279 -5.79837 0
M  V30 2835 H 260.127 -2.08585 -2.15203 0
M  V30 2836 H 257.688 -1.22672 -1.05656 0
M  V30 2837 H 259.68 -0.387044 -4.02845 0
M  V30 2838 H 258.25 0.166276 -3.12157 0
M  V30 2839 H 257.47 -2.31853 -3.18807 0
M  V30 2840 H 258.758 -2.60187 -4.37241 0
M  V30 2841 H 258.156 0.3122 -5.64838 0
M  V30 2842 H 256.713 -0.0246623 -6.51795 0
M  V30 2843 N 260.146 1.09593 -1.13257 0
M  V30 2844 C 261.109 2.14359 -0.811358 0
M  V30 2845 C 262.109 1.59808 0.178377 0
M  V30 2846 O 263.299 1.74132 -0.0484911 0
M  V30 2847 C 260.431 3.40269 -0.207276 0
M  V30 2848 H 261.624 2.44284 -1.73969 0
M  V30 2849 H 259.177 1.25102 -0.936973 0
M  V30 2850 H 259.912 3.15969 0.73036 0
M  V30 2851 H 259.697 3.81154 -0.919992 0
M  V30 2852 H 261.187 4.176 0.000667944 0
M  V30 2853 N 261.624 0.925811 1.2754 0
M  V30 2854 C 262.849 0.580924 1.99098 0
M  V30 2855 C 263.274 -0.833555 1.68622 0
M  V30 2856 O 262.632 -1.55903 0.925422 0
M  V30 2857 C 262.68 0.811186 3.51358 0
M  V30 2858 O 261.784 -0.124129 4.12213 0
M  V30 2859 H 261.125 0.223873 0.625122 0
M  V30 2860 H 263.655 1.24455 1.62395 0
M  V30 2861 H 263.665 0.72601 4.01489 0
M  V30 2862 H 262.34 1.84227 3.72872 0
M  V30 2863 H 260.917 0.0108006 3.72898 0
M  V30 2864 N 263.102 -1.41638 0.69111 0
M  V30 2865 C 264.032 -2.3347 0.037248 0
M  V30 2866 C 265.013 -1.51575 -0.771947 0
M  V30 2867 O 266.198 -1.80126 -0.72582 0
M  V30 2868 C 263.328 -3.35354 -0.903064 0
M  V30 2869 C 262.282 -4.27526 -0.201288 0
M  V30 2870 C 261.608 -5.19747 -1.25565 0
M  V30 2871 C 262.908 -5.13959 0.929689 0
M  V30 2872 H 264.602 -2.88397 0.804227 0
M  V30 2873 H 262.148 -1.38669 0.388189 0
M  V30 2874 H 264.101 -3.98519 -1.36969 0
M  V30 2875 H 262.825 -2.78767 -1.70166 0
M  V30 2876 H 261.484 -3.65779 0.245265 0
M  V30 2877 H 261.132 -4.59479 -2.04666 0
M  V30 2878 H 260.832 -5.8225 -0.791128 0
M  V30 2879 H 262.356 -5.85789 -1.72288 0
M  V30 2880 H 263.77 -5.70718 0.543546 0
M  V30 2881 H 262.167 -5.85379 1.32103 0
M  V30 2882 H 263.237 -4.51389 1.77133 0
M  V30 2883 N 264.58 -0.43555 -1.51462 0
M  V30 2884 C 265.996 -0.0877501 -1.59359 0
M  V30 2885 C 266.196 1.4027 -1.4466 0
M  V30 2886 O 265.252 2.17243 -1.28693 0
M  V30 2887 C 266.565 -0.606264 -2.94525 0
M  V30 2888 C 268.113 -0.566548 -3.0783 0
M  V30 2889 C 268.588 -1.06201 -4.45517 0
M  V30 2890 N 270.079 -1.01992 -4.51832 0
M  V30 2891 C 270.814 -1.37417 -5.5669 0
M  V30 2892 N 270.31 -1.80119 -6.68976 0
M  V30 2893 N 272.103 -1.29245 -5.47039 0
M  V30 2894 H 264.254 -1.40533 -1.59261 0
M  V30 2895 H 266.517 -0.578992 -0.750648 0
M  V30 2896 H 266.223 -1.64901 -3.10645 0
M  V30 2897 H 266.097 -0.0302097 -3.77188 0
M  V30 2898 H 268.484 0.467208 -2.91378 0
M  V30 2899 H 268.565 -1.17898 -2.2701 0
M  V30 2900 H 268.209 -2.09422 -4.62715 0
M  V30 2901 H 268.139 -0.426127 -5.24873 0
M  V30 2902 H 270.63 -0.706308 -3.71241 0
M  V30 2903 H 270.943 -2.05392 -7.45006 0
M  V30 2904 H 269.288 -1.84044 -6.70189 0
M  V30 2905 H 272.479 -0.957522 -4.58202 0
M  V30 2906 H 272.652 -1.57182 -6.28648 0
M  V30 2907 N 266.058 1.56714 -0.166846 0
M  V30 2908 C 267.469 1.83378 0.350646 0
M  V30 2909 C 267.82 1.08646 1.63372 0
M  V30 2910 O 266.945 0.338058 2.13743 0
M  V30 2911 C 267.54 3.32643 0.642963 0
M  V30 2912 C 266.099 3.59818 1.10491 0
M  V30 2913 C 265.246 2.76954 0.138411 0
M  V30 2914 H 268.197 1.53803 -0.391193 0
M  V30 2915 H 268.218 3.49878 1.49551 0
M  V30 2916 H 267.73 3.87007 -0.291055 0
M  V30 2917 H 265.831 3.1086 2.05418 0
M  V30 2918 H 265.944 4.68178 1.01716 0
M  V30 2919 H 264.308 2.4666 0.634911 0
M  V30 2920 H 265.091 3.34097 -0.789549 0
M  V30 2921 N 267.536 -0.106894 1.57237 0
M  V30 2922 C 268.486 -1.1366 1.9765 0
M  V30 2923 C 269.47 -1.36416 0.853203 0
M  V30 2924 O 270.662 -1.37305 1.11697 0
M  V30 2925 C 267.791 -2.46 2.39455 0
M  V30 2926 C 266.877 -2.26668 3.58445 0
M  V30 2927 N 267.268 -1.77176 4.73754 0
M  V30 2928 C 265.566 -2.57279 3.64312 0
M  V30 2929 C 266.267 -1.71836 5.5574 0
M  V30 2930 N 265.243 -2.16623 4.98573 0
M  V30 2931 H 269.045 -0.74669 2.84256 0
M  V30 2932 H 266.559 -0.314483 1.59326 0
M  V30 2933 H 268.556 -3.2049 2.6663 0
M  V30 2934 H 267.216 -2.85738 1.54219 0
M  V30 2935 H 268.227 -1.46545 4.96734 0
M  V30 2936 H 264.904 -3.00622 2.89711 0
M  V30 2937 H 266.294 -1.34723 6.58255 0
M  V30 2938 N 269.014 -1.53014 -0.377408 0
M  V30 2939 C 269.977 -1.77957 -1.44444 0
M  V30 2940 C 270.977 -0.649763 -1.47087 0
M  V30 2941 O 272.167 -0.917897 -1.48055 0
M  V30 2942 C 269.299 -1.89089 -2.83651 0
M  V30 2943 H 270.492 -2.73243 -1.23606 0
M  V30 2944 H 268.045 -1.43912 -0.609844 0
M  V30 2945 H 268.78 -0.958293 -3.09818 0
M  V30 2946 H 268.565 -2.71254 -2.83132 0
M  V30 2947 H 270.055 -2.1002 -3.60945 0
M  V30 2948 N 270.492 0.636531 -1.44174 0
M  V30 2949 C 271.769 1.39463 -1.37148 0
M  V30 2950 C 272.149 2.11082 -0.027507 0
M  V30 2951 O 271.497 2.05954 0.989716 0
M  V30 2952 C 271.707 2.36552 -2.56601 0
M  V30 2953 C 273.055 3.00048 -3.00427 0
M  V30 2954 O 274.079 2.46878 -2.56767 0
M  V30 2955 O 272.938 3.96488 -3.76111 0
M  V30 2956 H 270.032 0.623903 -0.542839 0
M  V30 2957 H 272.578 0.662039 -1.56253 0
M  V30 2958 H 271.35 1.82692 -3.46034 0
M  V30 2959 H 270.973 3.17236 -2.39681 0
M  V30 2960 N 271.97 1.30982 0.876444 0
M  V30 2961 C 272.88 1.2003 2.01569 0
M  V30 2962 C 273.896 0.11838 1.73597 0
M  V30 2963 O 275.072 0.33495 1.98595 0
M  V30 2964 C 272.137 0.901637 3.34771 0
M  V30 2965 C 271.198 2.06979 3.76109 0
M  V30 2966 C 270.431 1.78529 5.02954 0
M  V30 2967 O 270.654 0.717296 5.65872 0
M  V30 2968 O 269.588 2.64019 5.40905 0
M  V30 2969 H 273.414 2.15753 2.13739 0
M  V30 2970 H 270.999 1.10658 1.00375 0
M  V30 2971 H 272.881 0.750645 4.1466 0
M  V30 2972 H 271.556 -0.0256141 3.2369 0
M  V30 2973 H 270.463 2.27616 2.96887 0
M  V30 2974 H 271.796 2.97907 3.91807 0
M  V30 2975 N 273.449 -1.08991 1.13837 0
M  V30 2976 C 274.379 -2.17771 0.842507 0
M  V30 2977 C 275.36 -1.6892 -0.20001 0
M  V30 2978 O 276.545 -1.94113 -0.0579731 0
M  V30 2979 C 273.675 -3.4589 0.312644 0
M  V30 2980 C 272.629 -4.08099 1.28992 0
M  V30 2981 C 271.955 -5.31098 0.619623 0
M  V30 2982 C 273.255 -4.50077 2.65005 0
M  V30 2983 H 274.949 -2.42777 1.75213 0
M  V30 2984 H 272.495 -1.16682 0.843875 0
M  V30 2985 H 274.448 -4.21297 0.0933043 0
M  V30 2986 H 273.172 -3.20419 -0.632382 0
M  V30 2987 H 271.831 -3.34717 1.49533 0
M  V30 2988 H 271.479 -5.0191 -0.33102 0
M  V30 2989 H 271.179 -5.73674 1.27167 0
M  V30 2990 H 272.703 -6.09224 0.409669 0
M  V30 2991 H 274.117 -5.16688 2.48407 0
M  V30 2992 H 272.514 -5.03553 3.26427 0
M  V30 2993 H 273.584 -3.62257 3.22332 0
M  V30 2994 N 274.927 -0.932562 -1.27047 0
M  V30 2995 C 275.874 -0.434072 -2.26681 0
M  V30 2996 C 276.844 0.501639 -1.58344 0
M  V30 2997 O 278.029 0.419734 -1.86126 0
M  V30 2998 C 275.169 0.30261 -3.43771 0
M  V30 2999 C 274.282 -0.667774 -4.26808 0
M  V30 3000 C 273.417 0.0892393 -5.31125 0
M  V30 3001 C 272.456 -0.873532 -6.05835 0
M  V30 3002 N 271.593 -0.148832 -7.01942 0
M  V30 3003 H 276.433 -1.28868 -2.68695 0
M  V30 3004 H 273.97 -0.646713 -1.32121 0
M  V30 3005 H 275.928 0.746092 -4.10474 0
M  V30 3006 H 274.558 1.12142 -3.02695 0
M  V30 3007 H 273.61 -1.22978 -3.59973 0
M  V30 3008 H 274.922 -1.40337 -4.78651 0
M  V30 3009 H 274.076 0.592409 -6.03801 0
M  V30 3010 H 272.815 0.85777 -4.80097 0
M  V30 3011 H 271.82 -1.38791 -5.31994 0
M  V30 3012 H 273.045 -1.64193 -6.58952 0
M  V30 3013 H 270.991 0.601365 -6.53238 0
M  V30 3014 H 270.908 -0.82391 -7.51497 0
M  V30 3015 H 272.176 0.333527 -7.78786 0
M  V30 3016 N 276.405 1.4127 -0.698611 0
M  V30 3017 C 277.368 2.29158 -0.044132 0
M  V30 3018 C 278.368 1.44529 0.704841 0
M  V30 3019 O 279.558 1.65643 0.539276 0
M  V30 3020 C 276.69 3.27459 0.947809 0
M  V30 3021 H 277.883 2.88529 -0.817994 0
M  V30 3022 H 275.436 1.49307 -0.46228 0
M  V30 3023 H 276.171 2.73073 1.74933 0
M  V30 3024 H 275.956 3.8991 0.41385 0
M  V30 3025 H 277.446 3.93311 1.40344 0
M  V30 3026 N 277.883 0.443576 1.51229 0
M  V30 3027 C 278.83 -0.364716 2.279 0
M  V30 3028 C 279.8 -1.0114 1.31757 0
M  V30 3029 O 280.985 -1.02912 1.60667 0
M  V30 3030 C 278.125 -1.45644 3.12861 0
M  V30 3031 C 277.238 -0.827269 4.24005 0
M  V30 3032 C 276.373 -1.89456 4.96266 0
M  V30 3033 C 275.412 -1.24416 5.99322 0
M  V30 3034 N 274.549 -2.25309 6.64966 0
M  V30 3035 H 279.389 0.295464 2.96532 0
M  V30 3036 H 276.926 0.157554 1.46254 0
M  V30 3037 H 278.884 -2.10076 3.6045 0
M  V30 3038 H 277.514 -2.08616 2.46331 0
M  V30 3039 H 276.566 -0.0710839 3.80334 0
M  V30 3040 H 277.878 -0.312481 4.9782 0
M  V30 3041 H 277.032 -2.61535 5.47434 0
M  V30 3042 H 275.771 -2.4431 4.22095 0
M  V30 3043 H 274.776 -0.508868 5.4744 0
M  V30 3044 H 276.001 -0.702882 6.75453 0
M  V30 3045 H 273.947 -2.79231 5.93604 0
M  V30 3046 H 273.864 -1.78739 7.34567 0
M  V30 3047 H 275.132 -2.96853 7.20763 0
M  V30 3048 N 279.361 -1.56624 0.175154 0
M  V30 3049 C 280.61 -1.96173 -0.468921 0
M  V30 3050 C 280.923 -1.06401 -1.64128 0
M  V30 3051 O 282.129 -1.35648 -2.35185 0
M  V30 3052 C 280.585 -3.48833 -0.885633 0
M  V30 3053 C 280.193 -4.47237 0.261343 0
M  V30 3054 C 281.937 -3.97194 -1.49791 0
M  V30 3055 C 279.844 -5.9114 -0.175214 0
M  V30 3056 H 278.774 -0.732455 -0.178958 0
M  V30 3057 H 281.425 -1.81591 0.263997 0
M  V30 3058 H 279.807 -3.58848 -1.67464 0
M  V30 3059 H 280.981 -4.4894 1.03871 0
M  V30 3060 H 279.296 -4.08956 0.783827 0
M  V30 3061 H 281.893 -5.02167 -1.83665 0
M  V30 3062 H 282.236 -3.40351 -2.39722 0
M  V30 3063 H 282.769 -3.90212 -0.773267 0
M  V30 3064 H 279.508 -6.51865 0.689414 0
M  V30 3065 H 279.028 -5.92735 -0.91786 0
M  V30 3066 H 280.707 -6.44044 -0.617792 0
M  V30 3067 N 280.839 0.0985539 -1.57292 0
M  V30 3068 C 282.116 0.834155 -1.76921 0
M  V30 3069 C 282.496 1.97101 -0.755928 0
M  V30 3070 O 281.844 2.27474 0.216245 0
M  V30 3071 C 282.054 1.33194 -3.22584 0
M  V30 3072 C 283.402 1.77611 -3.85668 0
M  V30 3073 O 284.426 1.42825 -3.26312 0
M  V30 3074 O 283.285 2.4192 -4.90038 0
M  V30 3075 H 280.379 0.397628 -0.725135 0
M  V30 3076 H 282.925 0.0807044 -1.69508 0
M  V30 3077 H 281.697 0.517248 -3.87866 0
M  V30 3078 H 281.32 2.1475 -3.34616 0
M  V30 3079 N 282.317 1.53212 0.369288 0
M  V30 3080 C 283.249 1.75668 1.47219 0
M  V30 3081 C 284.262 0.637387 1.49804 0
M  V30 3082 O 285.451 0.913561 1.5335 0
M  V30 3083 C 282.551 1.81818 2.85999 0
M  V30 3084 C 281.724 3.11409 3.07153 0
M  V30 3085 C 280.783 3.08849 4.26026 0
M  V30 3086 O 279.809 3.82659 4.2138 0
M  V30 3087 N 281.011 2.29409 5.33246 0
M  V30 3088 H 283.776 2.70832 1.28337 0
M  V30 3089 H 281.337 1.51944 0.55898 0
M  V30 3090 H 283.329 1.77588 3.63655 0
M  V30 3091 H 281.899 0.939544 2.98146 0
M  V30 3092 H 281.119 3.28971 2.1719 0
M  V30 3093 H 282.407 3.97059 3.18154 0
M  V30 3094 H 281.805 1.68946 5.39883 0
M  V30 3095 H 280.362 2.31001 6.09493 0
M  V30 3096 N 283.795 -0.628877 1.44509 0
M  V30 3097 C 284.743 -1.76193 1.51852 0
M  V30 3098 C 285.737 -1.64849 0.390042 0
M  V30 3099 O 286.943 -1.709 0.565082 0
M  V30 3100 H 283.318 -0.581728 0.476547 0
M  V30 3101 H 285.289 -1.67123 2.47209 0
M  V30 3102 C 284.038 -3.14533 1.48204 0
M  V30 3103 H 283.361 -3.23911 2.34354 0
M  V30 3104 H 284.801 -3.93701 1.57402 0
M  V30 3105 C 283.26 -3.36287 0.203142 0
M  V30 3106 O 283.79 -3.9509 -0.725745 0
M  V30 3107 N 281.996 -2.90408 0.105563 0
M  V30 3108 H 281.543 -2.42739 0.862301 0
M  V30 3109 H 281.501 -3.05339 -0.749371 0
M  V30 3110 N 285.273 -1.31445 -0.869486 0
M  V30 3111 C 286.519 -1.21337 -1.62496 0
M  V30 3112 C 286.852 0.227872 -1.92858 0
M  V30 3113 O 286.127 1.16094 -1.56053 0
M  V30 3114 C 286.41 -2.05814 -2.95487 0
M  V30 3115 C 286.263 -3.5824 -2.72 0
M  V30 3116 C 287.582 -1.9079 -3.96594 0
M  V30 3117 H 284.701 -0.442135 -0.589649 0
M  V30 3118 H 287.343 -1.6124 -1.00507 0
M  V30 3119 H 285.493 -1.71913 -3.48394 0
M  V30 3120 H 287.165 -4.0228 -2.25762 0
M  V30 3121 H 285.408 -3.81647 -2.06224 0
M  V30 3122 H 286.079 -4.12657 -3.66631 0
M  V30 3123 H 288.555 -2.20459 -3.52898 0
M  V30 3124 H 287.431 -2.52199 -4.87531 0
M  V30 3125 H 287.692 -0.871341 -4.33428 0
M  V30 3126 N 286.751 1.08385 -1.14413 0
M  V30 3127 C 287.661 2.18856 -0.844951 0
M  V30 3128 C 288.677 1.73121 0.174668 0
M  V30 3129 O 289.853 2.014 0.00312857 0
M  V30 3130 C 286.918 3.45155 -0.32696 0
M  V30 3131 C 285.979 4.05513 -1.40916 0
M  V30 3132 C 285.212 5.25784 -0.915793 0
M  V30 3133 O 285.435 5.69884 0.242651 0
M  V30 3134 O 284.369 5.77545 -1.69487 0
M  V30 3135 H 288.195 2.46919 -1.76818 0
M  V30 3136 H 285.78 1.17524 -0.922411 0
M  V30 3137 H 287.662 4.21377 -0.0440211 0
M  V30 3138 H 286.337 3.18668 0.568539 0
M  V30 3139 H 285.244 3.30879 -1.74556 0
M  V30 3140 H 286.577 4.3625 -2.27919 0
M  V30 3141 N 288.23 0.939286 1.26551 0
M  V30 3142 C 289.14 0.453432 2.30176 0
M  V30 3143 C 290.156 -0.471649 1.67486 0
M  V30 3144 O 291.332 -0.35164 1.98306 0
M  V30 3145 C 288.397 -0.275326 3.45605 0
M  V30 3146 C 287.458 0.686084 4.23782 0
M  V30 3147 C 286.691 -0.00798994 5.33699 0
M  V30 3148 O 286.914 -1.22528 5.57085 0
M  V30 3149 O 285.848 0.669746 5.98162 0
M  V30 3150 H 289.674 1.31416 2.73795 0
M  V30 3151 H 287.259 0.705095 1.31715 0
M  V30 3152 H 289.141 -0.685911 4.1578 0
M  V30 3153 H 287.816 -1.11147 3.0402 0
M  V30 3154 H 286.723 1.14658 3.56096 0
M  V30 3155 H 288.056 1.48979 4.69112 0
M  V30 3156 N 289.708 -1.40897 0.706093 0
M  V30 3157 C 290.638 -2.33418 0.0620085 0
M  V30 3158 C 291.619 -1.52385 -0.755827 0
M  V30 3159 O 292.804 -1.80886 -0.706674 0
M  V30 3160 C 289.934 -3.36293 -0.867445 0
M  V30 3161 C 288.888 -4.27716 -0.155932 0
M  V30 3162 C 288.214 -5.2105 -1.20046 0
M  V30 3163 C 289.514 -5.12944 0.984149 0
M  V30 3164 H 291.208 -2.87527 0.83477 0
M  V30 3165 H 288.754 -1.38249 0.402875 0
M  V30 3166 H 290.707 -3.99949 -1.32735 0
M  V30 3167 H 289.431 -2.80556 -1.67199 0
M  V30 3168 H 288.09 -3.65498 0.284047 0
M  V30 3169 H 287.738 -4.61624 -1.99781 0
M  V30 3170 H 287.438 -5.83056 -0.729328 0
M  V30 3171 H 288.962 -5.87584 -1.66066 0
M  V30 3172 H 290.376 -5.70109 0.604048 0
M  V30 3173 H 288.773 -5.83945 1.38304 0
M  V30 3174 H 289.843 -4.49485 1.81911 0
M  V30 3175 N 291.186 -0.45159 -1.50991 0
M  V30 3176 C 292.133 0.352625 -2.2809 0
M  V30 3177 C 293.103 1.0044 -1.32291 0
M  V30 3178 O 294.288 1.02058 -1.6121 0
M  V30 3179 C 291.428 1.43983 -3.13629 0
M  V30 3180 C 290.541 0.804772 -4.24438 0
M  V30 3181 C 289.676 1.86822 -4.97263 0
M  V30 3182 C 288.715 1.21236 -5.99973 0
M  V30 3183 N 287.852 2.2178 -6.66152 0
M  V30 3184 H 292.692 -0.311186 -2.96371 0
M  V30 3185 H 290.229 -0.165308 -1.46168 0
M  V30 3186 H 292.187 2.08161 -3.61559 0
M  V30 3187 H 290.817 2.07307 -2.47434 0
M  V30 3188 H 289.869 0.0509129 -3.80366 0
M  V30 3189 H 291.181 0.286076 -4.97979 0
M  V30 3190 H 290.335 2.58628 -5.48813 0
M  V30 3191 H 289.074 2.42068 -4.23385 0
M  V30 3192 H 288.079 0.479828 -5.47702 0
M  V30 3193 H 289.304 0.667051 -6.75816 0
M  V30 3194 H 287.25 2.76079 -5.95077 0
M  V30 3195 H 287.167 1.74841 -7.35504 0
M  V30 3196 H 288.435 2.93026 -7.22327 0
M  V30 3197 N 292.664 1.56529 -0.183458 0
M  V30 3198 C 293.912 1.96855 0.457452 0
M  V30 3199 C 294.233 1.07104 1.62953 0
M  V30 3200 O 293.503 0.139887 1.954 0
M  V30 3201 H 292.083 0.72693 0.171992 0
M  V30 3202 H 294.745 1.93056 -0.267476 0
M  V30 3203 H 293.841 3.01423 0.809368 0
M  V30 3204 N 294.142 -0.090211 1.57342 0
M  V30 3205 C 295.558 -0.444547 1.53284 0
M  V30 3206 C 295.758 -1.80238 0.900914 0
M  V30 3207 O 294.814 -2.4759 0.495513 0
M  V30 3208 C 296.127 -0.402543 2.97993 0
M  V30 3209 C 297.675 -0.48405 3.09234 0
M  V30 3210 C 298.15 -0.472144 4.5556 0
M  V30 3211 N 299.641 -0.532757 4.60126 0
M  V30 3212 C 300.376 -0.545462 5.708 0
M  V30 3213 N 299.872 -0.514082 6.9089 0
M  V30 3214 N 301.665 -0.59064 5.58988 0
M  V30 3215 H 293.816 0.799121 1.96794 0
M  V30 3216 H 296.079 0.297965 0.899956 0
M  V30 3217 H 295.785 0.528106 3.47712 0
M  V30 3218 H 295.659 -1.21969 3.56936 0
M  V30 3219 H 298.046 -1.40512 2.595 0
M  V30 3220 H 298.127 0.361328 2.53235 0
M  V30 3221 H 297.771 0.445 5.05947 0
M  V30 3222 H 297.701 -1.3348 5.09402 0
M  V30 3223 H 300.192 -0.562006 3.73698 0
M  V30 3224 H 300.505 -0.527195 7.71 0
M  V30 3225 H 298.85 -0.481054 6.93333 0
M  V30 3226 H 302.041 -0.61272 4.64073 0
M  V30 3227 H 302.214 -0.597073 6.45243 0
M  V30 3228 N 295.62 -1.53406 -0.361157 0
M  V30 3229 C 296.55 -1.83136 -1.44857 0
M  V30 3230 C 297.531 -0.685174 -1.5569 0
M  V30 3231 O 298.716 -0.93544 -1.70186 0
M  V30 3232 C 295.846 -2.02522 -2.82138 0
M  V30 3233 C 294.8 -3.18302 -2.86126 0
M  V30 3234 C 294.126 -3.22989 -4.26125 0
M  V30 3235 C 295.426 -4.56796 -2.53248 0
M  V30 3236 H 297.12 -2.74201 -1.20226 0
M  V30 3237 H 294.666 -1.31938 -0.576922 0
M  V30 3238 H 296.619 -2.21904 -3.58241 0
M  V30 3239 H 295.343 -1.08172 -3.08166 0
M  V30 3240 H 294.002 -2.98747 -2.12475 0
M  V30 3241 H 293.65 -2.26267 -4.49235 0
M  V30 3242 H 293.35 -4.00781 -4.29708 0
M  V30 3243 H 294.874 -3.44559 -5.04094 0
M  V30 3244 H 296.288 -4.7631 -3.19064 0
M  V30 3245 H 294.685 -5.36862 -2.68141 0
M  V30 3246 H 295.755 -4.61606 -1.48484 0
M  V30 3247 N 297.098 0.621204 -1.44841 0
M  V30 3248 C 298.326 1.40752 -1.51646 0
M  V30 3249 C 298.741 1.88246 -0.144549 0
M  V30 3250 O 298.098 1.61422 0.851416 0
M  V30 3251 C 298.149 2.62119 -2.4895 0
M  V30 3252 O 297.87 2.16602 -3.80808 0
M  V30 3253 C 299.371 3.55135 -2.65319 0
M  V30 3254 H 296.591 0.431325 -0.514004 0
M  V30 3255 H 299.135 0.758835 -1.899 0
M  V30 3256 H 297.29 3.23058 -2.13805 0
M  V30 3257 H 297.704 2.95358 -4.33433 0
M  V30 3258 H 299.178 4.36874 -3.37409 0
M  V30 3259 H 299.655 4.04592 -1.70886 0
M  V30 3260 H 300.261 3.00058 -3.01405 0
M  V30 3261 N 298.576 1.31904 0.862503 0
M  V30 3262 C 299.987 1.19803 1.43193 0
M  V30 3263 C 300.338 -0.192567 1.95253 0
M  V30 3264 O 299.463 -1.09081 1.86896 0
M  V30 3265 C 300.058 2.16883 2.60283 0
M  V30 3266 C 298.617 2.08692 3.13248 0
M  V30 3267 C 297.764 2.05691 1.85975 0
M  V30 3268 H 300.715 1.43846 0.670365 0
M  V30 3269 H 300.736 1.76278 3.37204 0
M  V30 3270 H 300.248 3.18083 2.22363 0
M  V30 3271 H 298.349 1.10713 3.55771 0
M  V30 3272 H 298.462 2.9815 3.75025 0
M  V30 3273 H 296.826 1.50814 2.05249 0
M  V30 3274 H 297.609 3.08659 1.50282 0
M  V30 3275 N 300.054 -1.07777 1.14986 0
M  V30 3276 C 301.284 -1.83752 0.944402 0
M  V30 3277 C 301.692 -1.8218 -0.51058 0
M  V30 3278 O 301.035 -1.22852 -1.36576 0
M  V30 3279 C 301.097 -3.32128 1.37592 0
M  V30 3280 C 300.761 -3.57425 2.84775 0
M  V30 3281 C 301.758 -3.5173 3.8286 0
M  V30 3282 C 299.443 -3.8523 3.2234 0
M  V30 3283 C 301.437 -3.73482 5.16517 0
M  V30 3284 C 299.124 -4.06634 4.56171 0
M  V30 3285 C 300.122 -4.00754 5.53069 0
M  V30 3286 O 299.81 -4.2159 6.84483 0
M  V30 3287 H 299.542 -0.58673 0.335744 0
M  V30 3288 H 302.096 -1.36982 1.53052 0
M  V30 3289 H 300.326 -3.79686 0.733165 0
M  V30 3290 H 302.015 -3.89555 1.14024 0
M  V30 3291 H 302.781 -3.30256 3.55184 0
M  V30 3292 H 298.66 -3.88923 2.47508 0
M  V30 3293 H 302.204 -3.68808 5.92137 0
M  V30 3294 H 298.101 -4.27593 4.83564 0
M  V30 3295 H 298.869 -4.38961 6.90837 0
M  V30 3296 N 301.532 -0.945985 -1.26051 0
M  V30 3297 C 302.495 -0.463897 -2.24456 0
M  V30 3298 C 303.495 0.427655 -1.55009 0
M  V30 3299 O 304.685 0.226157 -1.72726 0
M  V30 3300 C 301.817 0.330812 -3.39291 0
M  V30 3301 H 303.01 -1.33357 -2.68619 0
M  V30 3302 H 300.563 -0.728416 -1.38289 0
M  V30 3303 H 301.298 1.21852 -3.00537 0
M  V30 3304 H 301.083 -0.308679 -3.90883 0
M  V30 3305 H 302.573 0.657865 -4.12386 0
M  V30 3306 N 303.011 1.40521 -0.713556 0
M  V30 3307 C 304.288 1.94775 -0.17943 0
M  V30 3308 C 304.668 1.65184 1.31444 0
M  V30 3309 O 304.016 0.968429 2.06963 0
M  V30 3310 C 304.226 3.45543 -0.489986 0
M  V30 3311 C 305.574 4.22442 -0.427536 0
M  V30 3312 O 306.598 3.53644 -0.425929 0
M  V30 3313 O 305.457 5.4501 -0.403292 0
M  V30 3314 H 302.551 0.826606 -0.0255192 0
M  V30 3315 H 305.097 1.5014 -0.790949 0
M  V30 3316 H 303.869 3.60432 -1.5233 0
M  V30 3317 H 303.492 3.97311 0.151598 0
M  V30 3318 N 304.489 0.459591 1.5075 0
M  V30 3319 C 305.399 -0.34613 2.32033 0
M  V30 3320 C 306.415 -1.00686 1.41909 0
M  V30 3321 O 307.591 -0.997361 1.7497 0
M  V30 3322 C 304.656 -1.42029 3.16273 0
M  V30 3323 C 303.717 -0.777362 4.22203 0
M  V30 3324 C 302.95 -1.80034 5.02418 0
M  V30 3325 O 303.173 -3.02544 4.83553 0
M  V30 3326 O 302.107 -1.37853 5.85901 0
M  V30 3327 H 305.933 0.318054 3.0203 0
M  V30 3328 H 303.518 0.221663 1.47746 0
M  V30 3329 H 305.4 -2.04275 3.68578 0
M  V30 3330 H 304.075 -2.06815 2.49016 0
M  V30 3331 H 302.982 -0.116256 3.73919 0
M  V30 3332 H 304.315 -0.172634 4.91897 0
M  V30 3333 N 305.967 -1.56429 0.191757 0
M  V30 3334 C 307.214 -1.97485 -0.447891 0
M  V30 3335 C 307.542 -1.07852 -1.61859 0
M  V30 3336 O 306.797 -0.116903 -1.95351 0
M  V30 3337 C 307.096 -3.44449 -0.953384 0
M  V30 3338 C 306.762 -4.50781 0.103586 0
M  V30 3339 C 305.424 -4.79584 0.394023 0
M  V30 3340 C 307.776 -5.1471 0.819946 0
M  V30 3341 C 305.104 -5.69607 1.40585 0
M  V30 3342 C 307.456 -6.05827 1.8209 0
M  V30 3343 C 306.12 -6.32987 2.11857 0
M  V30 3344 H 305.39 -0.722648 -0.163895 0
M  V30 3345 H 308.037 -1.89322 0.28802 0
M  V30 3346 H 306.342 -3.49666 -1.76751 0
M  V30 3347 H 308.039 -3.73569 -1.45765 0
M  V30 3348 H 304.629 -4.28394 -0.132951 0
M  V30 3349 H 308.813 -4.92552 0.608789 0
M  V30 3350 H 304.069 -5.88926 1.64243 0
M  V30 3351 H 308.243 -6.54424 2.38123 0
M  V30 3352 H 305.87 -7.02544 2.90407 0
M  V30 3353 N 307.445 0.0818655 -1.57387 0
M  V30 3354 C 308.392 1.09834 -2.0299 0
M  V30 3355 C 309.362 1.39043 -0.908639 0
M  V30 3356 O 310.547 1.50282 -1.17559 0
M  V30 3357 C 307.687 2.40971 -2.47037 0
M  V30 3358 C 306.8 2.18379 -3.7274 0
M  V30 3359 C 305.935 3.43008 -4.0561 0
M  V30 3360 C 304.974 3.15736 -5.24383 0
M  V30 3361 N 304.111 4.32667 -5.52941 0
M  V30 3362 H 308.951 0.702472 -2.89602 0
M  V30 3363 H 306.488 0.33531 -1.43227 0
M  V30 3364 H 308.446 3.1752 -2.70623 0
M  V30 3365 H 307.076 2.78379 -1.63417 0
M  V30 3366 H 306.128 1.32569 -3.56552 0
M  V30 3367 H 307.44 1.94227 -4.59431 0
M  V30 3368 H 306.594 4.27958 -4.30043 0
M  V30 3369 H 305.333 3.70225 -3.17466 0
M  V30 3370 H 304.338 2.2918 -4.99757 0
M  V30 3371 H 305.563 2.8985 -6.14136 0
M  V30 3372 H 303.509 4.59935 -4.67756 0
M  V30 3373 H 303.426 4.11753 -6.34031 0
M  V30 3374 H 304.694 5.18644 -5.81918 0
M  V30 3375 N 308.923 1.53595 0.353017 0
M  V30 3376 C 310.169 1.70638 1.09593 0
M  V30 3377 C 310.502 0.463286 1.88593 0
M  V30 3378 O 309.777 -0.539597 1.86865 0
M  V30 3379 C 310.06 2.96406 2.04489 0
M  V30 3380 C 309.913 4.30901 1.29014 0
M  V30 3381 C 311.232 3.17812 3.0444 0
M  V30 3382 H 308.351 0.620913 0.397034 0
M  V30 3383 H 310.993 1.86254 0.375446 0
M  V30 3384 H 309.143 2.83223 2.65927 0
M  V30 3385 H 310.815 4.55917 0.702638 0
M  V30 3386 H 309.058 4.29741 0.592071 0
M  V30 3387 H 309.729 5.1506 1.98537 0
M  V30 3388 H 312.205 3.30263 2.53112 0
M  V30 3389 H 311.081 4.07223 3.6805 0
M  V30 3390 H 311.342 2.33669 3.75301 0
M  V30 3391 N 310.401 -0.613514 1.45168 0
M  V30 3392 C 311.348 -1.72456 1.53387 0
M  V30 3393 C 312.318 -1.6169 0.380191 0
M  V30 3394 O 313.503 -1.81356 0.592836 0
M  V30 3395 C 310.643 -3.10753 1.50088 0
M  V30 3396 C 309.756 -3.32368 2.75963 0
M  V30 3397 C 308.891 -4.60737 2.64376 0
M  V30 3398 C 307.93 -4.7559 3.85332 0
M  V30 3399 N 307.067 -5.95253 3.72315 0
M  V30 3400 H 311.907 -1.64768 2.48305 0
M  V30 3401 H 309.444 -0.803503 1.23216 0
M  V30 3402 H 311.402 -3.90758 1.46164 0
M  V30 3403 H 310.032 -3.17413 0.587243 0
M  V30 3404 H 309.084 -2.4618 2.89999 0
M  V30 3405 H 310.396 -3.39218 3.65695 0
M  V30 3406 H 309.55 -5.48928 2.58385 0
M  V30 3407 H 308.289 -4.56275 1.72233 0
M  V30 3408 H 307.294 -3.85824 3.91688 0
M  V30 3409 H 308.519 -4.81854 4.78533 0
M  V30 3410 H 306.465 -5.91847 2.82937 0
M  V30 3411 H 306.382 -6.03236 4.55677 0
M  V30 3412 H 307.65 -6.85958 3.70246 0
M  V30 3413 N 311.879 -1.3236 -0.855495 0
M  V30 3414 C 313.128 -1.22226 -1.60448 0
M  V30 3415 C 313.441 0.214733 -1.94418 0
M  V30 3416 O 314.647 0.437917 -2.67945 0
M  V30 3417 C 313.103 -2.14063 -2.89318 0
M  V30 3418 C 312.711 -3.62839 -2.62777 0
M  V30 3419 C 314.455 -2.12764 -3.67331 0
M  V30 3420 C 312.362 -4.4664 -3.87643 0
M  V30 3421 H 311.292 -0.453904 -0.602069 0
M  V30 3422 H 313.943 -1.57314 -0.944698 0
M  V30 3423 H 312.325 -1.71889 -3.5675 0
M  V30 3424 H 313.499 -4.1335 -2.03662 0
M  V30 3425 H 311.814 -3.66261 -1.98096 0
M  V30 3426 H 314.411 -2.72611 -4.59987 0
M  V30 3427 H 314.754 -1.11841 -4.00995 0
M  V30 3428 H 315.287 -2.53214 -3.06802 0
M  V30 3429 H 312.026 -5.48373 -3.5912 0
M  V30 3430 H 311.546 -4.0088 -4.46156 0
M  V30 3431 H 313.225 -4.59597 -4.55389 0
M  V30 3432 N 313.357 1.07166 -1.15556 0
M  V30 3433 C 314.634 1.76546 -0.842069 0
M  V30 3434 C 315.014 2.00453 0.661939 0
M  V30 3435 O 314.362 1.62452 1.60691 0
M  V30 3436 C 314.572 3.07266 -1.65495 0
M  V30 3437 C 315.92 3.81578 -1.86234 0
M  V30 3438 O 316.944 3.17083 -1.62287 0
M  V30 3439 O 315.803 4.97419 -2.26355 0
M  V30 3440 H 312.897 0.766756 -0.309862 0
M  V30 3441 H 315.443 1.13514 -1.26145 0
M  V30 3442 H 314.215 2.85494 -2.67598 0
M  V30 3443 H 313.838 3.7803 -1.23203 0
M  V30 3444 N 314.835 0.952656 1.25548 0
M  V30 3445 C 315.767 0.428609 2.25157 0
M  V30 3446 C 316.78 -0.454428 1.56329 0
M  V30 3447 O 317.969 -0.263023 1.76552 0
M  V30 3448 C 315.069 -0.401972 3.36508 0
M  V30 3449 C 314.242 0.467601 4.34893 0
M  V30 3450 C 313.301 -0.30445 5.25319 0
M  V30 3451 O 312.327 0.296473 5.68427 0
M  V30 3452 N 313.529 -1.59805 5.5807 0
M  V30 3453 H 316.294 1.28497 2.70756 0
M  V30 3454 H 313.855 0.822798 1.39433 0
M  V30 3455 H 315.847 -0.926134 3.9396 0
M  V30 3456 H 314.417 -1.15918 2.90313 0
M  V30 3457 H 313.637 1.17288 3.76347 0
M  V30 3458 H 314.925 1.06119 4.97611 0
M  V30 3459 H 314.323 -2.10823 5.24948 0
M  V30 3460 H 312.88 -2.06822 6.18116 0
M  V30 3461 N 316.313 -1.40141 0.720998 0
M  V30 3462 C 317.541 -2.05096 0.272656 0
M  V30 3463 C 317.956 -1.54334 -1.0875 0
M  V30 3464 O 317.313 -0.702211 -1.6845 0
M  V30 3465 C 317.364 -3.60636 0.249835 0
M  V30 3466 O 317.085 -4.09526 1.55629 0
M  V30 3467 C 318.586 -4.42772 -0.216396 0
M  V30 3468 H 315.806 -0.659897 0.121558 0
M  V30 3469 H 318.35 -1.79449 0.980723 0
M  V30 3470 H 316.505 -3.85232 -0.409237 0
M  V30 3471 H 316.919 -5.03758 1.4604 0
M  V30 3472 H 318.393 -5.51702 -0.181212 0
M  V30 3473 H 318.87 -4.20756 -1.25941 0
M  V30 3474 H 319.476 -4.23294 0.412596 0
M  V30 3475 N 317.792 -0.46758 -1.50504 0
M  V30 3476 C 319.038 0.0887532 -2.02606 0
M  V30 3477 C 319.371 1.39686 -1.34913 0
M  V30 3478 O 318.646 1.88644 -0.473694 0
M  V30 3479 C 318.929 0.276206 -3.59039 0
M  V30 3480 C 318.782 -1.05267 -4.37309 0
M  V30 3481 C 320.101 1.03235 -4.27821 0
M  V30 3482 H 317.22 0.0307814 -0.736357 0
M  V30 3483 H 319.862 -0.612485 -1.79857 0
M  V30 3484 H 318.012 0.8735 -3.78553 0
M  V30 3485 H 319.684 -1.68628 -4.29374 0
M  V30 3486 H 317.927 -1.65015 -4.01189 0
M  V30 3487 H 318.598 -0.875197 -5.45018 0
M  V30 3488 H 321.074 0.526111 -4.12761 0
M  V30 3489 H 319.95 1.1323 -5.37094 0
M  V30 3490 H 320.211 2.06806 -3.90748 0
M  V30 3491 N 319.27 1.56325 -0.20005 0
M  V30 3492 C 320.18 2.22931 0.730668 0
M  V30 3493 C 321.196 1.22997 1.23076 0
M  V30 3494 O 322.372 1.55748 1.27689 0
M  V30 3495 C 319.437 2.87948 1.93098 0
M  V30 3496 C 318.498 4.03166 1.47497 0
M  V30 3497 C 317.731 4.65073 2.61807 0
M  V30 3498 O 317.954 4.25913 3.79413 0
M  V30 3499 O 316.888 5.54452 2.34237 0
M  V30 3500 H 320.714 3.03084 0.193391 0
M  V30 3501 H 318.299 1.49371 0.0294621 0
M  V30 3502 H 320.181 3.29063 2.6324 0
M  V30 3503 H 318.856 2.10771 2.45677 0
M  V30 3504 H 317.763 3.66664 0.742201 0
M  V30 3505 H 319.096 4.82022 0.995796 0
M  V30 3506 N 320.748 -0.0735177 1.57428 0
M  V30 3507 C 321.658 -1.10547 2.06922 0
M  V30 3508 C 322.674 -1.42506 0.998402 0
M  V30 3509 O 323.85 -1.52717 1.31299 0
M  V30 3510 C 320.915 -2.40019 2.50184 0
M  V30 3511 C 319.976 -2.15046 3.71556 0
M  V30 3512 C 319.209 -3.38345 4.12745 0
M  V30 3513 O 319.432 -4.47399 3.53822 0
M  V30 3514 O 318.366 -3.2666 5.05546 0
M  V30 3515 H 322.192 -0.715013 2.95163 0
M  V30 3516 H 319.777 -0.287531 1.46607 0
M  V30 3517 H 321.659 -3.16218 2.78539 0
M  V30 3518 H 320.334 -2.78447 1.65072 0
M  V30 3519 H 319.241 -1.36558 3.48285 0
M  V30 3520 H 320.574 -1.81499 4.57514 0
M  V30 3521 N 322.226 -1.5378 -0.344866 0
M  V30 3522 C 323.156 -1.84662 -1.42906 0
M  V30 3523 C 324.137 -0.701648 -1.54955 0
M  V30 3524 O 325.322 -0.953438 -1.69184 0
M  V30 3525 C 322.452 -2.05503 -2.79974 0
M  V30 3526 C 321.406 -3.21318 -2.82734 0
M  V30 3527 C 320.732 -3.2749 -4.22675 0
M  V30 3528 C 322.032 -4.59456 -2.48389 0
M  V30 3529 H 323.726 -2.75461 -1.17311 0
M  V30 3530 H 321.272 -1.32542 -0.562896 0
M  V30 3531 H 323.225 -2.25691 -3.55867 0
M  V30 3532 H 321.949 -1.11434 -3.07002 0
M  V30 3533 H 320.608 -3.00984 -2.09294 0
M  V30 3534 H 320.256 -2.31019 -4.4681 0
M  V30 3535 H 319.956 -4.05316 -4.25433 0
M  V30 3536 H 321.48 -3.49887 -5.00412 0
M  V30 3537 H 322.894 -4.79667 -3.13995 0
M  V30 3538 H 321.291 -5.39675 -2.62432 0
M  V30 3539 H 322.361 -4.63155 -1.4358 0
M  V30 3540 N 323.704 0.605807 -1.45491 0
M  V30 3541 C 325.12 0.926751 -1.29936 0
M  V30 3542 C 325.32 1.99896 -0.253706 0
M  V30 3543 O 324.376 2.50038 0.351737 0
M  V30 3544 C 325.689 1.36599 -2.67883 0
M  V30 3545 C 327.237 1.4801 -2.75793 0
M  V30 3546 C 327.712 1.95309 -4.14268 0
M  V30 3547 N 329.203 2.0254 -4.16571 0
M  V30 3548 C 329.938 2.40363 -5.20589 0
M  V30 3549 N 329.434 2.77143 -6.34952 0
M  V30 3550 N 331.227 2.40718 -5.07948 0
M  V30 3551 H 323.378 -0.102862 -2.12151 0
M  V30 3552 H 325.641 0.016639 -0.947854 0
M  V30 3553 H 325.347 0.652306 -3.45598 0
M  V30 3554 H 325.221 2.33215 -2.96463 0
M  V30 3555 H 327.608 2.1847 -1.98381 0
M  V30 3556 H 327.689 0.497041 -2.50925 0
M  V30 3557 H 327.333 1.25436 -4.92167 0
M  V30 3558 H 327.263 2.94532 -4.3653 0
M  V30 3559 H 329.754 1.76699 -3.34045 0
M  V30 3560 H 330.067 3.0489 -7.10114 0
M  V30 3561 H 328.412 2.74834 -6.3835 0
M  V30 3562 H 331.603 2.11392 -4.1765 0
M  V30 3563 H 331.776 2.69869 -5.89131 0
M  V30 3564 N 325.182 1.32811 0.848464 0
M  V30 3565 C 326.598 1.11937 1.13764 0
M  V30 3566 C 326.798 -0.0960789 2.01271 0
M  V30 3567 O 325.854 -0.779165 2.40178 0
M  V30 3568 C 327.167 2.402 1.809 0
M  V30 3569 C 328.715 2.46016 1.93508 0
M  V30 3570 C 329.19 3.74215 2.64059 0
M  V30 3571 N 330.681 3.75232 2.71579 0
M  V30 3572 C 331.416 4.71134 3.26833 0
M  V30 3573 N 330.912 5.77406 3.8285 0
M  V30 3574 N 332.705 4.58623 3.24995 0
M  V30 3575 H 324.856 2.1073 0.265855 0
M  V30 3576 H 327.119 0.930671 0.180431 0
M  V30 3577 H 326.825 3.29093 1.24058 0
M  V30 3578 H 326.699 2.51628 2.81004 0
M  V30 3579 H 329.086 1.57577 2.49506 0
M  V30 3580 H 329.167 2.38536 0.923811 0
M  V30 3581 H 328.811 4.63031 2.08722 0
M  V30 3582 H 328.741 3.78968 3.65637 0
M  V30 3583 H 331.232 2.98423 2.31845 0
M  V30 3584 H 331.545 6.46632 4.23187 0
M  V30 3585 H 329.89 5.81152 3.81165 0
M  V30 3586 H 333.081 3.74762 2.80484 0
M  V30 3587 H 333.254 5.33535 3.67756 0
M  V30 3588 N 326.66 -1.06551 1.16123 0
M  V30 3589 C 327.885 -1.83544 0.965735 0
M  V30 3590 C 328.31 -1.81843 -0.481102 0
M  V30 3591 O 327.668 -1.21732 -1.34354 0
M  V30 3592 C 327.716 -3.28169 1.49457 0
M  V30 3593 O 326.82 -4.0643 0.699157 0
M  V30 3594 H 326.161 -0.568026 0.343864 0
M  V30 3595 H 328.691 -1.34362 1.54299 0
M  V30 3596 H 328.701 -3.78992 1.51092 0
M  V30 3597 H 327.376 -3.28722 2.54784 0
M  V30 3598 H 325.953 -3.65216 0.7531 0
M  V30 3599 N 328.138 -0.959301 -1.25041 0
M  V30 3600 C 329.068 -0.501388 -2.28053 0
M  V30 3601 C 330.049 0.454673 -1.63911 0
M  V30 3602 O 331.234 0.352618 -1.90972 0
M  V30 3603 C 328.364 0.217224 -3.4662 0
M  V30 3604 C 327.318 -0.654034 -4.22973 0
M  V30 3605 C 326.644 0.195589 -5.34342 0
M  V30 3606 C 327.944 -1.93447 -4.85155 0
M  V30 3607 H 329.638 -1.36238 -2.66608 0
M  V30 3608 H 327.184 -0.656534 -1.28163 0
M  V30 3609 H 329.137 0.548732 -4.17812 0
M  V30 3610 H 327.861 1.1125 -3.07068 0
M  V30 3611 H 326.52 -0.968693 -3.5357 0
M  V30 3612 H 326.168 1.09076 -4.91031 0
M  V30 3613 H 325.868 -0.384091 -5.86343 0
M  V30 3614 H 327.392 0.521958 -6.08365 0
M  V30 3615 H 328.806 -1.66908 -5.48466 0
M  V30 3616 H 327.203 -2.46018 -5.47353 0
M  V30 3617 H 328.273 -2.63466 -4.07079 0
M  V30 3618 N 329.616 1.39756 -0.72842 0
M  V30 3619 C 330.579 2.29012 -0.0927297 0
M  V30 3620 C 331.579 1.45992 0.674025 0
M  V30 3621 O 332.769 1.66749 0.50402 0
M  V30 3622 C 329.901 3.29396 0.878137 0
M  V30 3623 H 331.094 2.86729 -0.879011 0
M  V30 3624 H 328.647 1.48293 -0.493847 0
M  V30 3625 H 329.382 2.76722 1.69101 0
M  V30 3626 H 329.167 3.907 0.331051 0
M  V30 3627 H 330.657 3.96199 1.3197 0
M  V30 3628 N 331.094 0.475555 1.50254 0
M  V30 3629 C 332.505 0.0215174 1.86688 0
M  V30 3630 C 332.856 -1.38467 1.39001 0
M  V30 3631 O 331.981 -2.02732 0.756894 0
M  V30 3632 C 332.576 0.0322715 3.38785 0
M  V30 3633 C 331.135 -0.366314 3.74613 0
M  V30 3634 C 330.282 0.415832 2.74164 0
M  V30 3635 H 333.233 0.689612 1.42934 0
M  V30 3636 H 333.254 -0.76889 3.7265 0
M  V30 3637 H 332.766 1.05584 3.73462 0
M  V30 3638 H 330.867 -1.39406 3.45538 0
M  V30 3639 H 330.98 -0.064555 4.79057 0
M  V30 3640 H 329.344 -0.131048 2.54363 0
M  V30 3641 H 330.127 1.43899 3.11686 0
M  V30 3642 N 332.573 -1.56217 0.208337 0
M  V30 3643 C 333.803 -2.02043 -0.431523 0
M  V30 3644 C 334.211 -1.08755 -1.54819 0
M  V30 3645 O 333.554 -0.0870009 -1.83494 0
M  V30 3646 C 333.616 -3.44239 -1.03633 0
M  V30 3647 C 333.28 -4.56965 -0.0567502 0
M  V30 3648 C 334.277 -5.14624 0.738773 0
M  V30 3649 C 331.962 -5.02266 0.0581736 0
M  V30 3650 C 333.956 -6.16045 1.63605 0
M  V30 3651 C 331.643 -6.03528 0.959001 0
M  V30 3652 C 332.641 -6.60293 1.7465 0
M  V30 3653 O 332.329 -7.59586 2.6322 0
M  V30 3654 H 332.061 -0.666772 -0.111313 0
M  V30 3655 H 334.615 -2.02919 0.318277 0
M  V30 3656 H 332.845 -3.40391 -1.83497 0
M  V30 3657 H 334.534 -3.73793 -1.58221 0
M  V30 3658 H 335.3 -4.80483 0.660364 0
M  V30 3659 H 331.179 -4.57771 -0.544633 0
M  V30 3660 H 334.723 -6.60279 2.25116 0
M  V30 3661 H 330.62 -6.37092 1.03848 0
M  V30 3662 H 331.388 -7.77057 2.57148 0
M  V30 3663 N 334.051 0.0651679 -1.57465 0
M  V30 3664 C 335.014 1.06117 -2.03155 0
M  V30 3665 C 336.014 1.31204 -0.929632 0
M  V30 3666 O 337.204 1.26813 -1.19432 0
M  V30 3667 C 334.336 2.4032 -2.41783 0
M  V30 3668 H 335.529 0.667231 -2.92383 0
M  V30 3669 H 333.082 0.311075 -1.53173 0
M  V30 3670 H 333.817 2.84532 -1.55601 0
M  V30 3671 H 333.602 2.23451 -3.22199 0
M  V30 3672 H 335.092 3.11898 -2.77685 0
M  V30 3673 N 335.529 1.53961 0.336706 0
M  V30 3674 C 336.461 1.78751 1.4346 0
M  V30 3675 C 337.474 0.669019 1.48418 0
M  V30 3676 O 338.663 0.945884 1.51378 0
M  V30 3677 C 335.763 1.87844 2.82078 0
M  V30 3678 C 334.936 3.17854 3.00479 0
M  V30 3679 C 333.995 3.17816 4.19379 0
M  V30 3680 O 333.021 3.91511 4.13168 0
M  V30 3681 N 334.223 2.40669 5.2826 0
M  V30 3682 H 336.988 2.73493 1.22563 0
M  V30 3683 H 334.549 1.53096 0.526625 0
M  V30 3684 H 336.541 1.85261 3.59806 0
M  V30 3685 H 335.111 1.00257 2.96086 0
M  V30 3686 H 334.331 3.33504 2.10163 0
M  V30 3687 H 335.619 4.03718 3.0966 0
M  V30 3688 H 335.017 1.8036 5.36178 0
M  V30 3689 H 333.574 2.43877 6.04456 0
M  V30 3690 N 337.007 -0.598083 1.45811 0
M  V30 3691 C 338.284 -1.35777 1.40797 0
M  V30 3692 C 338.664 -2.10935 0.083462 0
M  V30 3693 O 338.012 -2.08505 -0.934763 0
M  V30 3694 C 338.222 -2.29666 2.62783 0
M  V30 3695 C 339.57 -2.91977 3.08277 0
M  V30 3696 O 340.594 -2.39984 2.63223 0
M  V30 3697 O 339.453 -3.86376 3.86491 0
M  V30 3698 H 336.547 -0.609291 0.55919 0
M  V30 3699 H 339.093 -0.620379 1.57954 0
M  V30 3700 H 337.865 -1.73454 3.50756 0
M  V30 3701 H 337.488 -3.1077 2.48008 0
M  V30 3702 N 338.485 -1.33259 -0.841409 0
M  V30 3703 C 339.713 -1.27605 -1.62864 0
M  V30 3704 C 340.128 0.153507 -1.88175 0
M  V30 3705 O 339.485 1.09485 -1.46011 0
M  V30 3706 C 339.536 -2.04596 -2.98031 0
M  V30 3707 O 339.257 -3.41975 -2.73834 0
M  V30 3708 C 340.758 -2.06122 -3.92465 0
M  V30 3709 H 337.978 -0.439718 -0.506842 0
M  V30 3710 H 340.522 -1.75591 -1.04824 0
M  V30 3711 H 338.677 -1.60299 -3.5268 0
M  V30 3712 H 339.091 -3.81549 -3.59889 0
M  V30 3713 H 340.565 -2.64451 -4.84531 0
M  V30 3714 H 341.042 -1.05083 -4.26444 0
M  V30 3715 H 341.648 -2.50427 -3.43753 0
M  V30 3716 N 339.963 1.05934 -1.16686 0
M  V30 3717 C 340.895 2.13468 -0.834503 0
M  V30 3718 C 341.908 1.62013 0.15984 0
M  V30 3719 O 343.097 1.7838 -0.0654228 0
M  V30 3720 C 340.197 3.3817 -0.222361 0
M  V30 3721 C 339.37 4.18928 -1.25771 0
M  V30 3722 C 338.429 5.21985 -0.664703 0
M  V30 3723 O 337.455 5.53334 -1.33453 0
M  V30 3724 N 338.657 5.77919 0.546834 0
M  V30 3725 H 341.422 2.42578 -1.75999 0
M  V30 3726 H 338.983 1.21967 -1.06469 0
M  V30 3727 H 340.975 4.04266 0.187472 0
M  V30 3728 H 339.545 3.06655 0.606758 0
M  V30 3729 H 338.765 3.48433 -1.84358 0
M  V30 3730 H 340.053 4.69687 -1.95631 0
M  V30 3731 H 339.451 5.54721 1.10912 0
M  V30 3732 H 338.008 6.45573 0.898829 0
M  V30 3733 N 341.441 0.965919 1.2453 0
M  V30 3734 C 342.351 0.502154 2.29163 0
M  V30 3735 C 343.367 -0.436017 1.68448 0
M  V30 3736 O 344.543 -0.309497 1.99008 0
M  V30 3737 C 341.608 -0.201956 3.46111 0
M  V30 3738 C 340.669 0.775821 4.22232 0
M  V30 3739 C 339.902 0.105217 5.33596 0
M  V30 3740 O 340.125 -1.10683 5.59558 0
M  V30 3741 O 339.059 0.796475 5.96607 0
M  V30 3742 H 342.885 1.37194 2.70946 0
M  V30 3743 H 340.47 0.732875 1.30189 0
M  V30 3744 H 342.352 -0.597564 4.17142 0
M  V30 3745 H 341.027 -1.04673 3.06309 0
M  V30 3746 H 339.934 1.22185 3.53584 0
M  V30 3747 H 341.267 1.58896 4.65846 0
M  V30 3748 N 342.919 -1.39368 0.735821 0
M  V30 3749 C 343.866 -2.30599 0.0963825 0
M  V30 3750 C 344.836 -1.49257 -0.728794 0
M  V30 3751 O 346.021 -1.77941 -0.688588 0
M  V30 3752 C 343.161 -3.35596 -0.804305 0
M  V30 3753 C 342.274 -4.31987 0.0335761 0
M  V30 3754 C 341.409 -5.24053 -0.868461 0
M  V30 3755 C 340.448 -6.12095 -0.0258776 0
M  V30 3756 N 339.585 -6.96514 -0.883893 0
M  V30 3757 H 344.425 -2.8471 0.880002 0
M  V30 3758 H 341.962 -1.40188 0.445619 0
M  V30 3759 H 343.92 -3.95062 -1.34096 0
M  V30 3760 H 342.55 -2.82938 -1.55389 0
M  V30 3761 H 341.602 -3.74133 0.68766 0
M  V30 3762 H 342.914 -4.94074 0.685036 0
M  V30 3763 H 342.068 -5.88549 -1.47293 0
M  V30 3764 H 340.807 -4.62289 -1.5537 0
M  V30 3765 H 339.812 -5.4661 0.591386 0
M  V30 3766 H 341.037 -6.75923 0.656156 0
M  V30 3767 H 338.983 -6.37318 -1.55441 0
M  V30 3768 H 338.9 -7.55448 -0.288931 0
M  V30 3769 H 340.168 -7.65439 -1.4739 0
M  V30 3770 N 344.397 -0.483516 -1.5 0
M  V30 3771 C 345.327 0.293829 -2.31644 0
M  V30 3772 C 346.308 0.978864 -1.39112 0
M  V30 3773 O 347.493 0.973644 -1.68029 0
M  V30 3774 C 344.623 1.36897 -3.19181 0
M  V30 3775 C 343.577 0.804833 -4.20365 0
M  V30 3776 C 342.903 1.9792 -4.96721 0
M  V30 3777 C 344.203 -0.192313 -5.21946 0
M  V30 3778 H 345.897 -0.387616 -2.9688 0
M  V30 3779 H 343.443 -0.187856 -1.42769 0
M  V30 3780 H 345.396 1.92037 -3.751 0
M  V30 3781 H 344.12 2.07936 -2.51853 0
M  V30 3782 H 342.779 0.275319 -3.65565 0
M  V30 3783 H 342.427 2.67686 -4.25856 0
M  V30 3784 H 342.127 1.60789 -5.65173 0
M  V30 3785 H 343.651 2.53526 -5.55479 0
M  V30 3786 H 345.065 0.270333 -5.72662 0
M  V30 3787 H 343.462 -0.478543 -5.98189 0
M  V30 3788 H 344.532 -1.11409 -4.71928 0
M  V30 3789 N 345.875 1.56104 -0.216619 0
M  V30 3790 C 346.823 2.21434 0.712036 0
M  V30 3791 C 347.817 1.19218 1.20348 0
M  V30 3792 O 349.023 1.3731 1.16387 0
M  V30 3793 H 345.398 0.70992 0.248026 0
M  V30 3794 H 347.369 2.98083 0.137558 0
M  V30 3795 C 346.118 2.90434 1.91163 0
M  V30 3796 H 345.441 3.68842 1.54258 0
M  V30 3797 H 346.881 3.39552 2.5393 0
M  V30 3798 C 345.34 1.92635 2.76394 0
M  V30 3799 O 345.87 1.44017 3.74996 0
M  V30 3800 N 344.076 1.60392 2.42328 0
M  V30 3801 H 343.623 2.00122 1.622 0
M  V30 3802 H 343.581 0.952159 2.99635 0
M  V30 3803 N 347.353 -0.0568162 1.57498 0
M  V30 3804 C 348.303 -1.07315 2.01166 0
M  V30 3805 C 349.287 -1.33632 0.896171 0
M  V30 3806 O 350.479 -1.33682 1.16009 0
M  V30 3807 C 347.608 -2.38257 2.47161 0
M  V30 3808 C 346.694 -2.1515 3.65474 0
M  V30 3809 N 347.085 -1.62014 4.7915 0
M  V30 3810 C 345.383 -2.45559 3.72313 0
M  V30 3811 C 346.084 -1.54069 5.60926 0
M  V30 3812 N 345.06 -2.00652 5.05213 0
M  V30 3813 H 348.862 -0.655878 2.86488 0
M  V30 3814 H 346.376 -0.263635 1.60246 0
M  V30 3815 H 348.373 -3.11845 2.76691 0
M  V30 3816 H 347.033 -2.80687 1.63232 0
M  V30 3817 H 348.044 -1.30667 5.01145 0
M  V30 3818 H 344.721 -2.91253 2.99129 0
M  V30 3819 H 346.111 -1.13712 6.62208 0
M  V30 3820 N 348.832 -1.54138 -0.328536 0
M  V30 3821 C 349.764 -1.79509 -1.4251 0
M  V30 3822 C 350.777 -0.67688 -1.48061 0
M  V30 3823 O 351.966 -0.953898 -1.50874 0
M  V30 3824 C 349.066 -1.89337 -2.81078 0
M  V30 3825 C 348.239 -3.19443 -2.98789 0
M  V30 3826 C 347.298 -3.20036 -4.17688 0
M  V30 3827 O 346.324 -3.93697 -4.11086 0
M  V30 3828 N 347.526 -2.43467 -5.26976 0
M  V30 3829 H 350.291 -2.74139 -1.21111 0
M  V30 3830 H 347.852 -1.53373 -0.518499 0
M  V30 3831 H 349.844 -1.87167 -3.58818 0
M  V30 3832 H 348.414 -1.01826 -2.95551 0
M  V30 3833 H 347.634 -3.34614 -2.08391 0
M  V30 3834 H 348.922 -4.05354 -3.07515 0
M  V30 3835 H 348.32 -1.83201 -5.35214 0
M  V30 3836 H 346.877 -2.4708 -6.03154 0
M  V30 3837 N 350.31 0.590341 -1.46126 0
M  V30 3838 C 351.24 1.71032 -1.58966 0
M  V30 3839 C 352.221 1.64302 -0.440335 0
M  V30 3840 O 353.406 1.82436 -0.665634 0
M  V30 3841 C 350.536 3.09665 -1.57241 0
M  V30 3842 C 349.49 3.31221 -2.71066 0
M  V30 3843 C 348.816 4.70303 -2.54399 0
M  V30 3844 C 350.116 3.19796 -4.1295 0
M  V30 3845 H 351.81 1.60543 -2.52718 0
M  V30 3846 H 349.356 0.770933 -1.21625 0
M  V30 3847 H 351.309 3.87831 -1.64819 0
M  V30 3848 H 350.033 3.21036 -0.600289 0
M  V30 3849 H 348.692 2.55452 -2.62944 0
M  V30 3850 H 348.34 4.78429 -1.55288 0
M  V30 3851 H 348.04 4.85679 -3.30741 0
M  V30 3852 H 349.564 5.50647 -2.63857 0
M  V30 3853 H 350.978 3.87815 -4.22223 0
M  V30 3854 H 349.375 3.46696 -4.89818 0
M  V30 3855 H 350.445 2.16983 -4.33643 0
M  V30 3856 N 351.788 1.33704 0.83433 0
M  V30 3857 C 352.698 1.26382 1.97648 0
M  V30 3858 C 353.714 0.173548 1.73132 0
M  V30 3859 O 354.89 0.397962 1.97429 0
M  V30 3860 C 351.955 1.00769 3.31733 0
M  V30 3861 C 351.016 2.1884 3.69334 0
M  V30 3862 C 350.249 1.9444 4.9702 0
M  V30 3863 O 350.472 0.896961 5.63303 0
M  V30 3864 O 349.406 2.81093 5.32231 0
M  V30 3865 H 353.232 2.22444 2.06767 0
M  V30 3866 H 350.817 1.13795 0.968037 0
M  V30 3867 H 352.699 0.882186 4.12062 0
M  V30 3868 H 351.374 0.0773783 3.23608 0
M  V30 3869 H 350.281 2.36946 2.89495 0
M  V30 3870 H 351.614 3.10221 3.82131 0
M  V30 3871 N 353.266 -1.05314 1.17247 0
M  V30 3872 C 354.514 -1.77941 0.958194 0
M  V30 3873 C 354.835 -1.88089 -0.514556 0
M  V30 3874 O 354.105 -1.39676 -1.37359 0
M  V30 3875 H 352.685 -0.659116 0.351533 0
M  V30 3876 H 355.347 -1.27166 1.47699 0
M  V30 3877 H 354.443 -2.79663 1.38546 0
M  V30 3878 N 354.744 -0.972509 -1.24016 0
M  V30 3879 C 355.674 -0.525548 -2.27509 0
M  V30 3880 C 356.655 0.437262 -1.64384 0
M  V30 3881 O 357.84 0.332343 -1.91335 0
M  V30 3882 C 354.97 0.180448 -3.46831 0
M  V30 3883 C 353.924 -0.698859 -4.22256 0
M  V30 3884 C 353.25 0.138903 -5.3452 0
M  V30 3885 C 354.55 -1.98582 -4.83076 0
M  V30 3886 H 356.244 -1.39058 -2.65148 0
M  V30 3887 H 353.79 -0.67009 -1.27459 0
M  V30 3888 H 355.743 0.504387 -4.18371 0
M  V30 3889 H 354.467 1.07987 -3.08231 0
M  V30 3890 H 353.126 -1.00614 -3.52523 0
M  V30 3891 H 352.774 1.03862 -4.9216 0
M  V30 3892 H 352.474 -0.446259 -5.85903 0
M  V30 3893 H 353.998 0.457404 -6.08884 0
M  V30 3894 H 355.412 -1.72715 -5.46665 0
M  V30 3895 H 353.809 -2.5181 -5.44713 0
M  V30 3896 H 354.879 -2.67769 -4.04262 0
M  V30 3897 N 356.222 1.38976 -0.743202 0
M  V30 3898 C 357.45 2.04636 -0.30525 0
M  V30 3899 C 357.865 1.56044 1.06281 0
M  V30 3900 O 357.222 0.728921 1.67311 0
M  V30 3901 C 357.273 3.60193 -0.307177 0
M  V30 3902 O 356.994 4.06998 -1.62124 0
M  V30 3903 C 358.495 4.4306 0.145928 0
M  V30 3904 H 355.715 0.65788 -0.132041 0
M  V30 3905 H 358.259 1.77866 -1.00915 0
M  V30 3906 H 356.414 3.85835 0.347898 0
M  V30 3907 H 356.828 5.01371 -1.54036 0
M  V30 3908 H 358.302 5.51921 0.0934183 0
M  V30 3909 H 358.779 4.22706 1.19231 0
M  V30 3910 H 359.385 4.22584 -0.479886 0
M  V30 3911 N 357.7 0.491464 1.49741 0
M  V30 3912 C 358.947 -0.0564256 2.02421 0
M  V30 3913 C 359.275 -1.37872 1.37192 0
M  V30 3914 O 358.53 -1.89375 0.493508 0
M  V30 3915 C 358.829 -0.267329 3.56399 0
M  V30 3916 C 358.495 0.975775 4.40215 0
M  V30 3917 C 357.157 1.31655 4.62839 0
M  V30 3918 C 359.509 1.80251 4.89039 0
M  V30 3919 C 356.837 2.48375 5.31532 0
M  V30 3920 C 359.189 2.96116 5.59015 0
M  V30 3921 C 357.853 3.30585 5.79888 0
M  V30 3922 H 357.123 -0.0206476 0.740712 0
M  V30 3923 H 359.77 0.649686 1.80143 0
M  V30 3924 H 358.075 -1.05588 3.77304 0
M  V30 3925 H 359.772 -0.705549 3.94744 0
M  V30 3926 H 356.362 0.700315 4.2284 0
M  V30 3927 H 360.546 1.55239 4.71396 0
M  V30 3928 H 355.802 2.7533 5.45897 0
M  V30 3929 H 359.976 3.60509 5.95824 0
M  V30 3930 H 357.603 4.21132 6.32892 0
M  V30 3931 N 359.178 -1.55987 0.224894 0
M  V30 3932 C 360.11 -2.17722 -0.716224 0
M  V30 3933 C 361.123 -1.14723 -1.15509 0
M  V30 3934 O 362.312 -1.41688 -1.08567 0
M  V30 3935 C 359.412 -2.74873 -1.98238 0
M  V30 3936 C 358.585 -4.03074 -1.69853 0
M  V30 3937 C 357.644 -4.44757 -2.81208 0
M  V30 3938 O 356.67 -5.11587 -2.49534 0
M  V30 3939 N 357.872 -4.10716 -4.10235 0
M  V30 3940 H 360.637 -2.99109 -0.188123 0
M  V30 3941 H 358.198 -1.6184 0.0440123 0
M  V30 3942 H 360.19 -2.99727 -2.7193 0
M  V30 3943 H 358.76 -1.9777 -2.42086 0
M  V30 3944 H 357.98 -3.86041 -0.797875 0
M  V30 3945 H 359.268 -4.86701 -1.48324 0
M  V30 3946 H 358.666 -3.57019 -4.38809 0
M  V30 3947 H 357.223 -4.40455 -4.80461 0
M  V30 3948 N 360.656 0.0484629 -1.57525 0
M  V30 3949 C 361.589 1.08755 -2.00618 0
M  V30 3950 C 362.567 1.36272 -0.887058 0
M  V30 3951 O 363.751 1.49255 -1.15131 0
M  V30 3952 C 360.878 2.42675 -2.36277 0
M  V30 3953 C 359.924 2.31142 -3.58435 0
M  V30 3954 S 360.757 1.68326 -5.08357 0
M  V30 3955 C 361.913 3.03776 -5.47239 0
M  V30 3956 H 362.146 0.720415 -2.88439 0
M  V30 3957 H 359.679 0.257801 -1.52233 0
M  V30 3958 H 361.637 3.19699 -2.57494 0
M  V30 3959 H 360.298 2.76541 -1.48942 0
M  V30 3960 H 359.491 3.29957 -3.80978 0
M  V30 3961 H 359.093 1.62258 -3.36969 0
M  V30 3962 H 361.385 4.00106 -5.46737 0
M  V30 3963 H 362.328 2.85988 -6.47778 0
M  V30 3964 H 362.736 3.05456 -4.74718 0
M  V30 3965 N 362.134 1.5431 0.320358 0
M  V30 3966 C 363.081 1.83918 1.39438 0
M  V30 3967 C 364.051 0.686525 1.51248 0
M  V30 3968 O 365.236 0.933269 1.66417 0
M  V30 3969 C 362.376 2.075 2.75749 0
M  V30 3970 C 361.489 3.35177 2.72544 0
M  V30 3971 C 360.624 3.48704 4.00723 0
M  V30 3972 C 359.663 4.70244 3.91838 0
M  V30 3973 N 358.8 4.80679 5.11754 0
M  V30 3974 H 363.64 2.75544 1.13489 0
M  V30 3975 H 361.177 1.36459 0.549309 0
M  V30 3976 H 363.135 2.19166 3.54996 0
M  V30 3977 H 361.765 1.19163 3 0
M  V30 3978 H 360.817 3.32233 1.85271 0
M  V30 3979 H 362.129 4.24534 2.61863 0
M  V30 3980 H 361.283 3.59928 4.88402 0
M  V30 3981 H 360.022 2.57445 4.14214 0
M  V30 3982 H 359.027 4.59072 3.02544 0
M  V30 3983 H 360.252 5.6289 3.7991 0
M  V30 3984 H 358.198 3.92337 5.25745 0
M  V30 3985 H 358.115 5.64007 5.0342 0
M  V30 3986 H 359.383 4.96239 6.01138 0
M  V30 3987 N 363.613 -0.582584 1.46437 0
M  V30 3988 C 364.56 -1.69164 1.5701 0
M  V30 3989 C 365.53 -1.60847 0.414403 0
M  V30 3990 O 366.715 -1.80058 0.631171 0
M  V30 3991 C 363.855 -3.075 1.56646 0
M  V30 3992 C 362.968 -3.2644 2.82951 0
M  V30 3993 C 362.103 -4.55026 2.7409 0
M  V30 3994 C 361.142 -4.6731 3.95333 0
M  V30 3995 N 360.279 -5.87221 3.84858 0
M  V30 3996 H 365.119 -1.59464 2.51744 0
M  V30 3997 H 362.656 -0.777186 1.24893 0
M  V30 3998 H 364.614 -3.8757 1.5442 0
M  V30 3999 H 363.244 -3.16096 0.654439 0
M  V30 4000 H 362.296 -2.39974 2.95155 0
M  V30 4001 H 363.608 -3.31385 3.72808 0
M  V30 4002 H 362.762 -5.43324 2.6997 0
M  V30 4003 H 361.501 -4.52519 1.81873 0
M  V30 4004 H 360.506 -3.77429 3.99784 0
M  V30 4005 H 361.731 -4.71595 4.88646 0
M  V30 4006 H 359.677 -5.85712 2.95427 0
M  V30 4007 H 359.594 -5.93435 4.6837 0
M  V30 4008 H 360.862 -6.7795 3.84713 0
M  V30 4009 N 365.091 -1.34144 -0.827227 0
M  V30 4010 C 366.039 -1.25364 -1.95925 0
M  V30 4011 C 367.033 -0.152608 -1.68711 0
M  V30 4012 O 368.239 -0.317311 -1.77181 0
M  V30 4013 H 364.614 -0.389342 -0.643364 0
M  V30 4014 H 366.585 -2.21045 -2.00454 0
M  V30 4015 C 365.334 -1.02158 -3.32354 0
M  V30 4016 H 364.657 -1.86111 -3.5384 0
M  V30 4017 H 366.097 -1.00048 -4.12027 0
M  V30 4018 C 364.556 0.275244 -3.35774 0
M  V30 4019 O 365.086 1.27806 -3.80826 0
M  V30 4020 N 363.292 0.306853 -2.88975 0
M  V30 4021 H 362.839 -0.509777 -2.52506 0
M  V30 4022 H 362.797 1.17432 -2.91646 0
M  V30 4023 N 366.569 1.04691 -1.17803 0
M  V30 4024 C 367.532 2.10724 -0.901545 0
M  V30 4025 C 368.532 1.6042 0.110437 0
M  V30 4026 O 369.722 1.7377 -0.122303 0
M  V30 4027 C 366.854 3.39084 -0.351409 0
M  V30 4028 H 368.047 2.36686 -1.84174 0
M  V30 4029 H 365.6 1.21015 -0.98919 0
M  V30 4030 H 366.335 3.18782 0.59569 0
M  V30 4031 H 366.12 3.76909 -1.08083 0
M  V30 4032 H 367.61 4.17227 -0.176451 0
M  V30 4033 N 368.047 0.979072 1.23499 0
M  V30 4034 C 368.957 0.526431 2.28617 0
M  V30 4035 C 369.973 -0.418126 1.68901 0
M  V30 4036 O 371.149 -0.288372 1.99325 0
M  V30 4037 C 368.214 -0.165235 3.46306 0
M  V30 4038 C 367.275 0.82056 4.21385 0
M  V30 4039 C 366.508 0.161807 5.33455 0
M  V30 4040 O 366.731 -1.04742 5.60701 0
M  V30 4041 O 365.665 0.859708 5.95729 0
M  V30 4042 H 369.491 1.4006 2.69475 0
M  V30 4043 H 367.076 0.746643 1.29405 0
M  V30 4044 H 368.958 -0.553287 4.17752 0
M  V30 4045 H 367.633 -1.01419 3.07402 0
M  V30 4046 H 366.54 1.25929 3.52268 0
M  V30 4047 H 367.873 1.63828 4.64135 0
M  V30 4048 N 369.525 -1.3858 0.750561 0
M  V30 4049 C 370.435 -2.34278 0.122825 0
M  V30 4050 C 371.451 -1.59116 -0.704131 0
M  V30 4051 O 372.627 -1.91326 -0.628987 0
M  V30 4052 C 369.692 -3.38221 -0.762086 0
M  V30 4053 C 368.753 -4.29227 0.078896 0
M  V30 4054 C 367.986 -5.28205 -0.763874 0
M  V30 4055 O 368.209 -5.34112 -2.00201 0
M  V30 4056 O 367.143 -6.01618 -0.18428 0
M  V30 4057 H 370.969 -2.89649 0.913088 0
M  V30 4058 H 368.554 -1.40374 0.511417 0
M  V30 4059 H 370.436 -4.01872 -1.26793 0
M  V30 4060 H 369.111 -2.85211 -1.5309 0
M  V30 4061 H 368.018 -3.68747 0.630621 0
M  V30 4062 H 369.351 -4.85484 0.810289 0
M  V30 4063 N 371.003 -0.499398 -1.49478 0
M  V30 4064 C 371.933 0.269244 -2.31943 0
M  V30 4065 C 372.914 0.964054 -1.40143 0
M  V30 4066 O 374.099 0.955767 -1.69052 0
M  V30 4067 C 371.229 1.33504 -3.20615 0
M  V30 4068 C 370.183 0.760202 -4.21195 0
M  V30 4069 C 369.509 1.9264 -4.98792 0
M  V30 4070 C 370.809 -0.247661 -5.21712 0
M  V30 4071 H 372.503 -0.419082 -2.96452 0
M  V30 4072 H 370.049 -0.202988 -1.42562 0
M  V30 4073 H 372.002 1.88048 -3.77115 0
M  V30 4074 H 370.726 2.05253 -2.54045 0
M  V30 4075 H 369.385 0.23653 -3.65836 0
M  V30 4076 H 369.033 2.63154 -4.28671 0
M  V30 4077 H 368.733 1.54785 -5.66847 0
M  V30 4078 H 370.257 2.4762 -5.58137 0
M  V30 4079 H 371.671 0.209579 -5.72917 0
M  V30 4080 H 370.068 -0.541962 -5.97648 0
M  V30 4081 H 371.138 -1.16409 -4.7072 0
M  V30 4082 N 372.481 1.55866 -0.233164 0
M  V30 4083 C 373.428 2.20796 0.67215 0
M  V30 4084 C 374.398 1.16731 1.18166 0
M  V30 4085 O 375.583 1.45129 1.23864 0
M  V30 4086 C 372.723 2.90072 1.86955 0
M  V30 4087 C 371.836 4.08759 1.39786 0
M  V30 4088 C 370.971 4.65787 2.55374 0
M  V30 4089 C 370.01 5.76752 2.04998 0
M  V30 4090 N 369.147 6.28021 3.13901 0
M  V30 4091 H 373.987 2.9779 0.111749 0
M  V30 4092 H 371.524 1.47036 0.0434007 0
M  V30 4093 H 373.482 3.28428 2.57276 0
M  V30 4094 H 372.112 2.15575 2.40265 0
M  V30 4095 H 371.164 3.7581 0.589173 0
M  V30 4096 H 372.476 4.88906 0.98856 0
M  V30 4097 H 371.63 5.06646 3.33758 0
M  V30 4098 H 370.369 3.84828 2.99598 0
M  V30 4099 H 369.374 5.35383 1.25079 0
M  V30 4100 H 370.599 6.59553 1.61759 0
M  V30 4101 H 368.545 5.49971 3.57586 0
M  V30 4102 H 368.462 7.03323 2.7726 0
M  V30 4103 H 369.73 6.73538 3.92386 0
M  V30 4104 N 373.959 -0.0401083 1.57549 0
M  V30 4105 C 374.922 -1.02871 2.04817 0
M  V30 4106 C 375.922 -1.29708 0.950388 0
M  V30 4107 O 377.112 -1.24897 1.21435 0
M  V30 4108 C 374.244 -2.36443 2.45576 0
M  V30 4109 H 375.437 -0.620631 2.93408 0
M  V30 4110 H 372.99 -0.286667 1.53649 0
M  V30 4111 H 373.725 -2.82021 1.60108 0
M  V30 4112 H 373.51 -2.18296 3.25713 0
M  V30 4113 H 375 -3.07441 2.82612 0
M  V30 4114 N 375.437 -1.54477 -0.31217 0
M  V30 4115 C 376.853 -1.45442 -0.657185 0
M  V30 4116 C 377.053 -0.63653 -1.91182 0
M  V30 4117 O 376.109 -0.139815 -2.52113 0
M  V30 4118 C 377.422 -2.89287 -0.82058 0
M  V30 4119 C 378.97 -2.9926 -0.917188 0
M  V30 4120 C 379.445 -4.44279 -1.11267 0
M  V30 4121 N 380.936 -4.4794 -1.17914 0
M  V30 4122 C 381.671 -5.57318 -1.34848 0
M  V30 4123 N 381.167 -6.76642 -1.48752 0
M  V30 4124 N 382.96 -5.44986 -1.37647 0
M  V30 4125 H 375.111 -2.06129 0.512313 0
M  V30 4126 H 377.374 -0.933088 0.167485 0
M  V30 4127 H 377.08 -3.51687 0.0302604 0
M  V30 4128 H 376.954 -3.36061 -1.71298 0
M  V30 4129 H 379.341 -2.36981 -1.75852 0
M  V30 4130 H 379.422 -2.558 -0.00101257 0
M  V30 4131 H 379.066 -5.07149 -0.27614 0
M  V30 4132 H 378.996 -4.85359 -2.04289 0
M  V30 4133 H 381.487 -3.61969 -1.08567 0
M  V30 4134 H 381.8 -7.55758 -1.61397 0
M  V30 4135 H 380.145 -6.79529 -1.45828 0
M  V30 4136 H 383.336 -4.50715 -1.26388 0
M  V30 4137 H 383.509 -6.3028 -1.50501 0
M  V30 4138 N 376.915 0.57481 -1.46744 0
M  V30 4139 C 378.164 1.32898 -1.51727 0
M  V30 4140 C 378.477 1.948 -0.176692 0
M  V30 4141 O 379.683 2.71299 -0.104385 0
M  V30 4142 C 378.139 2.40901 -2.67385 0
M  V30 4143 C 377.747 1.85266 -4.07898 0
M  V30 4144 C 379.491 3.17609 -2.81646 0
M  V30 4145 C 377.398 2.90945 -5.14883 0
M  V30 4146 H 376.328 0.499631 -0.564699 0
M  V30 4147 H 378.979 0.612536 -1.72975 0
M  V30 4148 H 377.361 3.15379 -2.39483 0
M  V30 4149 H 378.535 1.17278 -4.45626 0
M  V30 4150 H 376.85 1.21199 -3.98371 0
M  V30 4151 H 379.447 3.96493 -3.58744 0
M  V30 4152 H 379.79 3.70696 -1.89448 0
M  V30 4153 H 380.323 2.50239 -3.09233 0
M  V30 4154 H 377.062 2.42736 -6.089 0
M  V30 4155 H 376.582 3.57398 -4.81691 0
M  V30 4156 H 378.261 3.54755 -5.41071 0
M  V30 4157 N 378.394 1.34581 0.820102 0
M  V30 4158 C 379.619 1.30333 1.61332 0
M  V30 4159 C 380.044 -0.119339 1.87721 0
M  V30 4160 O 379.402 -1.08197 1.45475 0
M  V30 4161 C 379.45 2.10258 2.92957 0
M  V30 4162 O 378.554 1.47404 3.85157 0
M  V30 4163 H 377.895 0.447488 0.490561 0
M  V30 4164 H 380.425 1.77425 1.01889 0
M  V30 4165 H 380.435 2.21718 3.42498 0
M  V30 4166 H 379.11 3.13693 2.73074 0
M  V30 4167 H 377.687 1.44703 3.43679 0
M  V30 4168 N 379.872 -1.04064 1.18357 0
M  V30 4169 C 380.835 -2.10243 0.912707 0
M  V30 4170 C 381.835 -1.60477 -0.101928 0
M  V30 4171 O 383.025 -1.73703 0.131517 0
M  V30 4172 C 380.157 -3.38893 0.369387 0
M  V30 4173 H 381.35 -2.35706 1.85426 0
M  V30 4174 H 378.903 -1.20489 0.995594 0
M  V30 4175 H 379.638 -3.19094 -0.578776 0
M  V30 4176 H 379.423 -3.76331 1.1008 0
M  V30 4177 H 380.913 -4.17128 0.198575 0
M  V30 4178 N 381.35 -0.985608 -1.22978 0
M  V30 4179 C 382.575 -0.675254 -1.961 0
M  V30 4180 C 383 0.752154 -1.72407 0
M  V30 4181 O 382.358 1.5131 -0.998751 0
M  V30 4182 C 382.406 -0.977899 -3.47087 0
M  V30 4183 O 381.51 -0.072685 -4.12336 0
M  V30 4184 H 380.851 -0.253443 -0.613728 0
M  V30 4185 H 383.381 -1.32061 -1.56272 0
M  V30 4186 H 383.391 -0.916739 -3.97567 0
M  V30 4187 H 382.066 -2.01807 -3.63657 0
M  V30 4188 H 380.643 -0.188703 -3.72422 0
M  V30 4189 N 382.828 1.3818 -0.7579 0
M  V30 4190 C 383.791 2.28764 -0.141286 0
M  V30 4191 C 384.791 1.47388 0.642907 0
M  V30 4192 O 385.981 1.67781 0.468536 0
M  V30 4193 C 383.113 3.31184 0.808069 0
M  V30 4194 H 384.306 2.848 -0.939633 0
M  V30 4195 H 381.859 1.47212 -0.525191 0
M  V30 4196 H 382.594 2.80247 1.63193 0
M  V30 4197 H 382.379 3.91314 0.248104 0
M  V30 4198 H 383.869 3.98909 1.23536 0
M  V30 4199 N 384.306 0.507319 1.49211 0
M  V30 4200 C 385.216 -0.272136 2.33016 0
M  V30 4201 C 386.232 -0.961206 1.45041 0
M  V30 4202 O 387.408 -0.941191 1.78055 0
M  V30 4203 C 384.473 -1.31895 3.20631 0
M  V30 4204 C 383.534 -0.642648 4.24463 0
M  V30 4205 C 382.767 -1.63959 5.07891 0
M  V30 4206 O 382.99 -2.87007 4.92933 0
M  V30 4207 O 381.924 -1.19143 5.8999 0
M  V30 4208 H 385.75 0.413982 3.00865 0
M  V30 4209 H 383.335 0.268556 1.46966 0
M  V30 4210 H 385.217 -1.92446 3.7489 0
M  V30 4211 H 383.892 -1.98788 2.5547 0
M  V30 4212 H 382.799 0.00276252 3.741 0
M  V30 4213 H 384.132 -0.0160534 4.92197 0
M  V30 4214 N 385.784 -1.5574 0.241426 0
M  V30 4215 C 386.694 -2.2479 -0.671305 0
M  V30 4216 C 387.71 -1.26217 -1.19772 0
M  V30 4217 O 388.886 -1.59079 -1.23514 0
M  V30 4218 C 385.951 -2.92966 -1.85396 0
M  V30 4219 C 385.012 -4.06935 -1.36756 0
M  V30 4220 C 384.245 -4.71851 -2.49384 0
M  V30 4221 O 384.468 -4.35823 -3.67987 0
M  V30 4222 O 383.402 -5.60467 -2.19454 0
M  V30 4223 H 387.228 -3.0349 -0.112966 0
M  V30 4224 H 384.813 -1.49397 0.0101513 0
M  V30 4225 H 386.695 -3.35927 -2.54423 0
M  V30 4226 H 385.37 -2.17211 -2.40002 0
M  V30 4227 H 384.277 -3.68503 -0.644726 0
M  V30 4228 H 385.61 -4.84492 -0.867647 0
M  V30 4229 N 387.262 0.0317525 -1.57568 0
M  V30 4230 C 388.192 1.03274 -2.0942 0
M  V30 4231 C 389.173 1.3788 -0.996143 0
M  V30 4232 O 390.358 1.46811 -1.27122 0
M  V30 4233 C 387.488 2.33448 -2.57137 0
M  V30 4234 C 386.442 2.13091 -3.71182 0
M  V30 4235 C 385.768 3.49001 -4.05095 0
M  V30 4236 C 387.068 1.51928 -4.99715 0
M  V30 4237 H 388.762 0.60112 -2.93303 0
M  V30 4238 H 386.308 0.287705 -1.41097 0
M  V30 4239 H 388.261 3.03802 -2.92032 0
M  V30 4240 H 386.985 2.78665 -1.70333 0
M  V30 4241 H 385.644 1.45171 -3.36632 0
M  V30 4242 H 385.292 3.91862 -3.15362 0
M  V30 4243 H 384.992 3.36207 -4.81911 0
M  V30 4244 H 386.516 4.20721 -4.42522 0
M  V30 4245 H 387.93 2.12196 -5.32584 0
M  V30 4246 H 386.327 1.49716 -5.81124 0
M  V30 4247 H 387.397 0.484811 -4.8247 0
M  V30 4248 N 388.74 1.54641 0.303973 0
M  V30 4249 C 390.156 1.45788 0.649463 0
M  V30 4250 C 390.356 0.64666 1.90842 0
M  V30 4251 O 389.412 0.153183 2.52035 0
M  V30 4252 C 390.725 2.89718 0.805227 0
M  V30 4253 C 392.273 2.99742 0.901305 0
M  V30 4254 C 392.748 4.44863 1.08909 0
M  V30 4255 N 394.239 4.48559 1.15536 0
M  V30 4256 C 394.974 5.58026 1.3189 0
M  V30 4257 N 394.47 6.77422 1.45161 0
M  V30 4258 N 396.263 5.45708 1.34755 0
M  V30 4259 H 388.414 2.05854 -0.523237 0
M  V30 4260 H 390.677 0.932186 -0.172431 0
M  V30 4261 H 390.383 3.51666 -0.0489108 0
M  V30 4262 H 390.257 3.36964 1.69513 0
M  V30 4263 H 392.644 2.3791 1.74593 0
M  V30 4264 H 392.725 2.55797 -0.0125531 0
M  V30 4265 H 392.369 5.07288 0.249241 0
M  V30 4266 H 392.299 4.86436 2.01713 0
M  V30 4267 H 394.79 3.6254 1.06646 0
M  V30 4268 H 395.103 7.56604 1.57387 0
M  V30 4269 H 393.448 6.80292 1.42223 0
M  V30 4270 H 396.639 4.51378 1.23996 0
M  V30 4271 H 396.812 6.3107 1.47157 0
M  V30 4272 N 390.218 -0.567019 1.47046 0
M  V30 4273 C 391.15 -1.68985 1.54844 0
M  V30 4274 C 392.163 -1.56869 0.435431 0
M  V30 4275 O 393.352 -1.64006 0.70457 0
M  V30 4276 C 390.452 -3.07373 1.42742 0
M  V30 4277 C 389.625 -3.45339 2.6844 0
M  V30 4278 C 388.684 -4.62849 2.50314 0
M  V30 4279 O 387.71 -4.67922 3.24095 0
M  V30 4280 N 388.912 -5.58726 1.57499 0
M  V30 4281 H 391.677 -1.62745 2.51663 0
M  V30 4282 H 389.238 -0.753411 1.43302 0
M  V30 4283 H 391.23 -3.83803 1.28365 0
M  V30 4284 H 389.8 -3.07893 0.540445 0
M  V30 4285 H 389.02 -2.58455 2.97648 0
M  V30 4286 H 390.308 -3.67476 3.51907 0
M  V30 4287 H 389.706 -5.57376 0.966876 0
M  V30 4288 H 388.263 -6.34523 1.49078 0
M  V30 4289 N 391.696 -1.35014 -0.812953 0
M  V30 4290 C 393.112 -1.14914 -1.10757 0
M  V30 4291 C 393.312 0.0426818 -2.01455 0
M  V30 4292 O 392.368 0.715212 -2.42159 0
M  V30 4293 C 393.681 -2.44911 -1.74468 0
M  V30 4294 C 395.229 -2.5106 -1.86917 0
M  V30 4295 C 395.704 -3.81085 -2.54044 0
M  V30 4296 N 397.195 -3.82301 -2.61535 0
M  V30 4297 C 397.93 -4.79634 -3.14227 0
M  V30 4298 N 397.426 -5.87353 -3.67407 0
M  V30 4299 N 399.219 -4.67078 -3.12721 0
M  V30 4300 H 391.37 -2.1136 -0.20989 0
M  V30 4301 H 393.633 -0.935128 -0.155692 0
M  V30 4302 H 393.339 -3.32267 -1.15289 0
M  V30 4303 H 393.213 -2.58989 -2.74234 0
M  V30 4304 H 395.6 -1.64137 -2.45241 0
M  V30 4305 H 395.681 -2.40901 -0.860242 0
M  V30 4306 H 395.325 -4.68402 -1.96372 0
M  V30 4307 H 395.255 -3.88529 -3.55461 0
M  V30 4308 H 397.746 -3.04465 -2.23851 0
M  V30 4309 H 398.059 -6.57624 -4.05894 0
M  V30 4310 H 396.404 -5.91054 -3.65623 0
M  V30 4311 H 399.595 -3.82067 -2.70449 0
M  V30 4312 H 399.768 -5.43098 -3.53481 0
M  V30 4313 N 393.175 1.03435 -1.18907 0
M  V30 4314 C 394.105 2.13503 -0.945448 0
M  V30 4315 C 395.086 1.69682 0.119189 0
M  V30 4316 O 396.271 1.94169 -0.034707 0
M  V30 4317 C 393.401 3.44004 -0.477316 0
M  V30 4318 C 392.355 4.0148 -1.48316 0
M  V30 4319 C 391.681 5.27537 -0.872311 0
M  V30 4320 C 392.981 4.36921 -2.86177 0
M  V30 4321 H 394.675 2.34141 -1.86597 0
M  V30 4322 H 392.221 1.12523 -0.898584 0
M  V30 4323 H 394.174 4.20372 -0.294204 0
M  V30 4324 H 392.898 3.23072 0.478786 0
M  V30 4325 H 391.557 3.27201 -1.65332 0
M  V30 4326 H 391.205 5.02917 0.0911752 0
M  V30 4327 H 390.905 5.66954 -1.54393 0
M  V30 4328 H 392.429 6.06576 -0.699871 0
M  V30 4329 H 393.843 5.04248 -2.72776 0
M  V30 4330 H 392.24 4.87405 -3.50081 0
M  V30 4331 H 393.31 3.46466 -3.39248 0
M  V30 4332 N 394.653 0.992116 1.22453 0
M  V30 4333 C 395.616 0.546883 2.2258 0
M  V30 4334 C 396.616 -0.369829 1.56489 0
M  V30 4335 O 397.806 -0.161896 1.73446 0
M  V30 4336 C 394.938 -0.204659 3.40285 0
M  V30 4337 H 396.131 1.43234 2.63484 0
M  V30 4338 H 393.684 0.779239 1.3549 0
M  V30 4339 H 394.419 -1.10614 3.04853 0
M  V30 4340 H 394.204 0.45354 3.89468 0
M  V30 4341 H 395.694 -0.504358 4.14543 0
M  V30 4342 N 396.131 -1.37776 0.765217 0
M  V30 4343 C 397.542 -1.82521 0.392819 0
M  V30 4344 C 397.893 -1.63789 -1.08017 0
M  V30 4345 O 397.018 -1.14542 -1.83601 0
M  V30 4346 C 397.613 -3.31358 0.706214 0
M  V30 4347 C 396.172 -3.74406 0.386952 0
M  V30 4348 C 395.319 -2.60394 0.953422 0
M  V30 4349 H 398.27 -1.2634 0.960412 0
M  V30 4350 H 398.291 -3.80498 -0.0114706 0
M  V30 4351 H 397.803 -3.44959 1.77833 0
M  V30 4352 H 395.904 -3.66377 -0.678112 0
M  V30 4353 H 396.017 -4.70749 0.890636 0
M  V30 4354 H 394.381 -2.51878 0.378064 0
M  V30 4355 H 395.164 -2.76791 2.03081 0
M  V30 4356 N 397.609 -0.515225 -1.4894 0
M  V30 4357 C 398.539 0.244628 -2.32215 0
M  V30 4358 C 399.52 0.949136 -1.41157 0
M  V30 4359 O 400.705 0.937783 -1.70057 0
M  V30 4360 C 397.835 1.30096 -3.22013 0
M  V30 4361 C 396.789 0.715486 -4.21977 0
M  V30 4362 C 396.115 1.87339 -5.00808 0
M  V30 4363 C 397.415 -0.302982 -5.2142 0
M  V30 4364 H 399.109 -0.450501 -2.95991 0
M  V30 4365 H 396.655 -0.218098 -1.42339 0
M  V30 4366 H 398.608 1.84037 -3.79089 0
M  V30 4367 H 397.332 2.02547 -2.56207 0
M  V30 4368 H 395.991 0.197715 -3.66066 0
M  V30 4369 H 395.639 2.58592 -4.31438 0
M  V30 4370 H 395.339 1.48764 -5.68457 0
M  V30 4371 H 396.863 2.41686 -5.60732 0
M  V30 4372 H 398.277 0.148802 -5.73107 0
M  V30 4373 H 396.674 -0.60532 -5.97039 0
M  V30 4374 H 397.744 -1.21395 -4.69459 0
M  V30 4375 N 399.087 1.5561 -0.249682 0
M  V30 4376 C 400.05 2.20217 0.635394 0
M  V30 4377 C 401.05 1.17227 1.10066 0
M  V30 4378 O 402.24 1.42292 1.00492 0
M  V30 4379 C 399.372 2.84794 1.87363 0
M  V30 4380 H 400.565 2.99814 0.0716752 0
M  V30 4381 H 398.118 1.563 -0.000153234 0
M  V30 4382 H 398.853 2.09142 2.47851 0
M  V30 4383 H 398.638 3.60241 1.5482 0
M  V30 4384 H 400.128 3.3423 2.5036 0
M  V30 4385 N 400.565 -0.0233959 1.57583 0
M  V30 4386 C 401.475 -1.03907 2.10334 0
M  V30 4387 C 402.491 -1.39257 1.04323 0
M  V30 4388 O 403.667 -1.48462 1.36091 0
M  V30 4389 C 400.732 -2.31938 2.57693 0
M  V30 4390 C 399.793 -2.03117 3.78209 0
M  V30 4391 C 399.026 -3.25043 4.233 0
M  V30 4392 O 399.249 -4.35916 3.67876 0
M  V30 4393 O 398.183 -3.10411 5.15683 0
M  V30 4394 H 402.009 -0.620748 2.97288 0
M  V30 4395 H 399.594 -0.240743 1.47448 0
M  V30 4396 H 401.476 -3.07196 2.88458 0
M  V30 4397 H 400.151 -2.73055 1.73847 0
M  V30 4398 H 399.058 -1.25408 3.52454 0
M  V30 4399 H 400.391 -1.66852 4.63056 0
M  V30 4400 N 402.043 -1.548 -0.295768 0
M  V30 4401 C 403.32 -1.65014 -1.05023 0
M  V30 4402 C 403.7 -0.501805 -2.05049 0
M  V30 4403 O 403.048 0.500869 -2.22943 0
M  V30 4404 C 403.258 -3.03252 -1.72741 0
M  V30 4405 C 404.606 -3.60242 -2.24746 0
M  V30 4406 O 405.63 -3.05737 -1.82765 0
M  V30 4407 O 404.489 -4.55687 -3.01681 0
M  V30 4408 H 401.583 -0.669314 -0.485744 0
M  V30 4409 H 404.129 -1.67144 -0.293438 0
M  V30 4410 H 402.901 -3.7827 -1.00138 0
M  V30 4411 H 402.524 -3.04922 -2.55163 0
M  V30 4412 N 403.521 0.559213 -1.47345 0
M  V30 4413 C 404.767 1.31843 -1.54095 0
M  V30 4414 C 405.1 1.93149 -0.201726 0
M  V30 4415 O 404.375 1.77759 0.789428 0
M  V30 4416 C 404.658 2.43006 -2.65744 0
M  V30 4417 C 404.511 1.86581 -4.09277 0
M  V30 4418 C 405.83 3.44943 -2.73318 0
M  V30 4419 H 402.949 0.478012 -0.560957 0
M  V30 4420 H 405.591 0.625977 -1.79392 0
M  V30 4421 H 403.741 3.02072 -2.44305 0
M  V30 4422 H 405.413 1.31792 -4.42073 0
M  V30 4423 H 403.656 1.17268 -4.17649 0
M  V30 4424 H 404.327 2.66933 -4.83168 0
M  V30 4425 H 406.803 2.95793 -2.92653 0
M  V30 4426 H 405.679 4.20153 -3.53218 0
M  V30 4427 H 405.94 4.03665 -1.80296 0
M  V30 4428 N 404.999 1.35443 0.805782 0
M  V30 4429 C 406.415 1.15499 1.10146 0
M  V30 4430 C 406.615 -0.0319975 2.01475 0
M  V30 4431 O 405.671 -0.70236 2.42535 0
M  V30 4432 C 406.984 2.45833 1.73166 0
M  V30 4433 C 408.532 2.52047 1.85583 0
M  V30 4434 C 409.007 3.82427 2.52019 0
M  V30 4435 N 410.498 3.83682 2.59504 0
M  V30 4436 C 411.233 4.81294 3.11679 0
M  V30 4437 N 410.729 5.89294 3.64287 0
M  V30 4438 N 412.522 4.6873 3.1024 0
M  V30 4439 H 404.673 2.11469 0.198678 0
M  V30 4440 H 406.936 0.93594 0.150731 0
M  V30 4441 H 406.642 3.32874 1.13526 0
M  V30 4442 H 406.516 2.6044 2.72857 0
M  V30 4443 H 408.903 1.65435 2.44367 0
M  V30 4444 H 408.984 2.41354 0.847455 0
M  V30 4445 H 408.628 4.69437 1.93885 0
M  V30 4446 H 408.558 3.90409 3.53395 0
M  V30 4447 H 411.049 3.05648 2.22234 0
M  V30 4448 H 411.362 6.59768 4.02401 0
M  V30 4449 H 409.707 5.92985 3.62483 0
M  V30 4450 H 412.898 3.83496 2.68419 0
M  V30 4451 H 413.071 5.44965 3.50596 0
M  V30 4452 N 406.477 -1.02803 1.19454 0
M  V30 4453 C 407.725 -1.75869 0.995722 0
M  V30 4454 C 408.046 -1.89138 -0.474543 0
M  V30 4455 O 407.316 -1.42558 -1.34366 0
M  V30 4456 H 405.896 -0.651511 0.365435 0
M  V30 4457 H 408.558 -1.24004 1.50363 0
M  V30 4458 H 407.654 -2.76661 1.44447 0
M  V30 4459 N 407.956 -0.998596 -1.21925 0
M  V30 4460 C 408.904 -0.546641 -2.26085 0
M  V30 4461 C 409.898 0.405576 -1.64473 0
M  V30 4462 O 411.104 0.277471 -1.77849 0
M  V30 4463 H 407.479 -0.158403 -0.735127 0
M  V30 4464 H 409.45 -1.43645 -2.61551 0
M  V30 4465 C 408.199 0.117388 -3.47502 0
M  V30 4466 H 407.522 -0.606277 -3.95176 0
M  V30 4467 H 408.962 0.396993 -4.22137 0
M  V30 4468 C 407.421 1.35455 -3.0847 0
M  V30 4469 O 407.951 2.44944 -3.18379 0
M  V30 4470 N 406.157 1.23191 -2.63196 0
M  V30 4471 H 405.704 0.341006 -2.55333 0
M  V30 4472 H 405.662 2.06071 -2.37449 0
M  V30 4473 N 409.434 1.37368 -0.772513 0
M  V30 4474 C 410.364 2.32856 -0.173304 0
M  V30 4475 C 411.345 1.55818 0.682262 0
M  V30 4476 O 412.53 1.84052 0.619566 0
M  V30 4477 C 409.66 3.40048 0.706007 0
M  V30 4478 C 408.614 4.27973 -0.0483144 0
M  V30 4479 C 407.94 5.26184 0.950491 0
M  V30 4480 C 409.24 5.07665 -1.22776 0
M  V30 4481 H 410.934 2.83217 -0.971002 0
M  V30 4482 H 408.48 1.3617 -0.468377 0
M  V30 4483 H 410.433 4.05827 1.13501 0
M  V30 4484 H 409.157 2.88214 1.53623 0
M  V30 4485 H 407.816 3.63726 -0.458107 0
M  V30 4486 H 407.464 4.7063 1.77529 0
M  V30 4487 H 407.164 5.85872 0.450314 0
M  V30 4488 H 408.688 5.94838 1.37842 0
M  V30 4489 H 410.102 5.66578 -0.875366 0
M  V30 4490 H 408.499 5.76681 -1.66007 0
M  V30 4491 H 409.569 4.40294 -2.03149 0
M  V30 4492 N 410.912 0.523116 1.48665 0
M  V30 4493 C 412.328 0.180511 1.58576 0
M  V30 4494 C 412.528 -1.31597 1.52592 0
M  V30 4495 O 411.584 -2.0937 1.4114 0
M  V30 4496 C 412.897 0.776949 2.90489 0
M  V30 4497 C 414.445 0.745058 3.04003 0
M  V30 4498 C 414.92 1.31995 4.38567 0
M  V30 4499 N 416.411 1.28162 4.45117 0
M  V30 4500 C 417.146 1.6964 5.47731 0
M  V30 4501 N 416.642 2.18816 6.57337 0
M  V30 4502 N 418.435 1.6092 5.38573 0
M  V30 4503 H 410.586 1.4958 1.50797 0
M  V30 4504 H 412.849 0.621772 0.715614 0
M  V30 4505 H 412.555 1.82732 3.00503 0
M  V30 4506 H 412.429 0.25007 3.7637 0
M  V30 4507 H 414.816 -0.296532 2.93606 0
M  V30 4508 H 414.897 1.30933 2.1975 0
M  V30 4509 H 414.541 2.36043 4.49718 0
M  V30 4510 H 414.471 0.731418 5.21496 0
M  V30 4511 H 416.962 0.92155 3.66491 0
M  V30 4512 H 417.275 2.48478 7.31764 0
M  V30 4513 H 415.62 2.22805 6.58318 0
M  V30 4514 H 418.811 1.22304 4.5184 0
M  V30 4515 H 418.984 1.93567 6.18414 0
M  V30 4516 N 412.39 -1.55475 0.257931 0
M  V30 4517 C 413.638 -1.98813 -0.363009 0
M  V30 4518 C 413.959 -1.14757 -1.57657 0
M  V30 4519 O 413.229 -0.232956 -1.9451 0
M  V30 4520 H 411.809 -0.734308 -0.137113 0
M  V30 4521 H 414.471 -1.9156 0.359281 0
M  V30 4522 H 413.567 -3.04941 -0.664634 0
M  V30 4523 N 413.868 0.0150385 -1.57593 0
M  V30 4524 C 414.816 1.02958 -2.08572 0
M  V30 4525 C 415.81 1.36554 -1.00246 0
M  V30 4526 O 417.016 1.35295 -1.18724 0
M  V30 4527 H 413.391 0.349619 -0.665786 0
M  V30 4528 H 415.362 0.573932 -2.92829 0
M  V30 4529 C 414.111 2.31752 -2.59203 0
M  V30 4530 H 413.434 2.06765 -3.42182 0
M  V30 4531 H 414.874 3.01053 -2.98568 0
M  V30 4532 C 413.333 3.01692 -1.49945 0
M  V30 4533 O 413.863 3.92083 -0.873704 0
M  V30 4534 N 412.069 2.6326 -1.23056 0
M  V30 4535 H 411.616 1.89838 -1.74125 0
M  V30 4536 H 411.574 3.10372 -0.501685 0
M  V30 4537 N 415.346 1.54954 0.287554 0
M  V30 4538 C 416.574 1.78881 1.03967 0
M  V30 4539 C 416.989 0.554894 1.80462 0
M  V30 4540 O 416.346 -0.475676 1.76192 0
M  V30 4541 C 416.397 3.00488 2.0097 0
M  V30 4542 O 416.118 4.19113 1.27577 0
M  V30 4543 C 417.619 3.36907 2.88112 0
M  V30 4544 H 414.839 0.596259 0.307761 0
M  V30 4545 H 417.383 2.01937 0.322749 0
M  V30 4546 H 415.538 2.79601 2.68145 0
M  V30 4547 H 415.952 4.87765 1.92835 0
M  V30 4548 H 417.426 4.25205 3.52001 0
M  V30 4549 H 417.903 2.55659 3.57121 0
M  V30 4550 H 418.509 3.60001 2.26449 0
M  V30 4551 N 416.824 -0.551391 1.4764 0
M  V30 4552 C 417.734 -1.68525 1.63207 0
M  V30 4553 C 418.75 -1.6621 0.514815 0
M  V30 4554 O 419.926 -1.85551 0.783113 0
M  V30 4555 C 416.991 -3.05025 1.64805 0
M  V30 4556 C 416.052 -3.18362 2.88 0
M  V30 4557 C 415.285 -4.4835 2.89513 0
M  V30 4558 O 415.508 -5.34163 2.00065 0
M  V30 4559 O 414.442 -4.65602 3.81443 0
M  V30 4560 H 418.268 -1.58333 2.59161 0
M  V30 4561 H 415.853 -0.722063 1.30792 0
M  V30 4562 H 417.735 -3.86245 1.68502 0
M  V30 4563 H 416.41 -3.15587 0.720197 0
M  V30 4564 H 415.317 -2.36518 2.89845 0
M  V30 4565 H 416.65 -3.12707 3.80099 0
M  V30 4566 N 418.302 -1.35869 -0.798587 0
M  V30 4567 C 419.55 -1.29332 -1.55298 0
M  V30 4568 C 419.871 0.129729 -1.94568 0
M  V30 4569 O 419.141 1.06796 -1.6423 0
M  V30 4570 H 417.721 -0.475737 -0.57592 0
M  V30 4571 H 420.383 -1.70062 -0.952093 0
M  V30 4572 H 419.479 -1.91458 -2.46476 0
M  V30 4573 N 419.78 1.02168 -1.19998 0
M  V30 4574 C 420.71 2.12488 -0.96804 0
M  V30 4575 C 421.691 1.69799 0.101185 0
M  V30 4576 O 422.876 1.94121 -0.0552993 0
M  V30 4577 C 420.006 3.43479 -0.513776 0
M  V30 4578 C 418.96 3.99884 -1.52566 0
M  V30 4579 C 418.286 5.26582 -0.928214 0
M  V30 4580 C 419.586 4.33861 -2.90795 0
M  V30 4581 H 421.28 2.32149 -1.89069 0
M  V30 4582 H 418.826 1.11564 -0.910468 0
M  V30 4583 H 420.779 4.20036 -0.338774 0
M  V30 4584 H 419.503 3.23561 0.444493 0
M  V30 4585 H 418.162 3.25429 -1.68794 0
M  V30 4586 H 417.81 5.02986 0.0378289 0
M  V30 4587 H 417.51 5.65284 -1.60397 0
M  V30 4588 H 419.034 6.05799 -0.764167 0
M  V30 4589 H 420.448 5.01327 -2.78109 0
M  V30 4590 H 418.845 4.83664 -3.55231 0
M  V30 4591 H 419.915 3.42848 -3.42904 0
M  V30 4592 N 421.258 1.00505 1.21394 0
M  V30 4593 C 422.19 0.52372 2.23136 0
M  V30 4594 C 423.203 -0.387714 1.58116 0
M  V30 4595 O 424.392 -0.187905 1.77508 0
M  V30 4596 C 421.492 -0.258885 3.3791 0
M  V30 4597 C 420.665 0.651634 4.32519 0
M  V30 4598 C 419.724 -0.0813705 5.26137 0
M  V30 4599 O 418.75 0.537295 5.66658 0
M  V30 4600 N 419.952 -1.35992 5.64346 0
M  V30 4601 H 422.717 1.39865 2.65062 0
M  V30 4602 H 420.278 0.881196 1.35818 0
M  V30 4603 H 422.27 -0.758208 3.97534 0
M  V30 4604 H 420.84 -1.035 2.94968 0
M  V30 4605 H 420.06 1.33145 3.71034 0
M  V30 4606 H 421.348 1.27129 4.92662 0
M  V30 4607 H 420.746 -1.88368 5.33417 0
M  V30 4608 H 419.303 -1.8042 6.26332 0
M  V30 4609 N 422.737 -1.36956 0.779787 0
M  V30 4610 C 423.684 -2.30175 0.169697 0
M  V30 4611 C 424.654 -1.51501 -0.68094 0
M  V30 4612 O 425.839 -1.80042 -0.631629 0
M  V30 4613 C 422.979 -3.37985 -0.697131 0
M  V30 4614 C 422.092 -4.31661 0.170992 0
M  V30 4615 C 421.227 -5.2655 -0.701298 0
M  V30 4616 C 420.266 -6.11867 0.168869 0
M  V30 4617 N 419.403 -6.98973 -0.661855 0
M  V30 4618 H 424.243 -2.81767 0.970135 0
M  V30 4619 H 421.78 -1.38699 0.489994 0
M  V30 4620 H 423.738 -3.99128 -1.2146 0
M  V30 4621 H 422.368 -2.87739 -1.46309 0
M  V30 4622 H 421.42 -3.71756 0.80634 0
M  V30 4623 H 422.732 -4.91644 0.841875 0
M  V30 4624 H 421.886 -5.92937 -1.28494 0
M  V30 4625 H 420.625 -4.66998 -1.40584 0
M  V30 4626 H 419.63 -5.44452 0.764986 0
M  V30 4627 H 420.855 -6.73493 0.870863 0
M  V30 4628 H 418.801 -6.41941 -1.35086 0
M  V30 4629 H 418.718 -7.55984 -0.0484447 0
M  V30 4630 H 419.986 -7.6974 -1.22963 0
M  V30 4631 N 424.215 -0.530993 -1.48385 0
M  V30 4632 C 425.44 0.000729535 -2.074 0
M  V30 4633 C 425.865 1.27298 -1.3848 0
M  V30 4634 O 425.223 1.75599 -0.451081 0
M  V30 4635 C 425.271 0.206697 -3.60007 0
M  V30 4636 O 424.375 1.27514 -3.92191 0
M  V30 4637 H 423.716 -0.039583 -0.662819 0
M  V30 4638 H 426.246 -0.739194 -1.9078 0
M  V30 4639 H 426.256 0.42904 -4.05738 0
M  V30 4640 H 424.931 -0.722675 -4.09573 0
M  V30 4641 H 423.508 1.03537 -3.58238 0
M  V30 4642 N 425.693 1.55336 -0.266172 0
M  V30 4643 C 426.623 2.25146 0.618981 0
M  V30 4644 C 427.604 1.23845 1.16604 0
M  V30 4645 O 428.789 1.52544 1.20183 0
M  V30 4646 C 425.919 2.96572 1.80728 0
M  V30 4647 C 424.873 4.04726 1.39215 0
M  V30 4648 C 424.199 4.63678 2.66283 0
M  V30 4649 C 425.499 5.19407 0.548942 0
M  V30 4650 H 427.193 2.99377 0.0368116 0
M  V30 4651 H 424.739 1.43991 0.0162651 0
M  V30 4652 H 426.692 3.44116 2.43232 0
M  V30 4653 H 425.416 2.19861 2.41514 0
M  V30 4654 H 424.075 3.57979 0.790351 0
M  V30 4655 H 423.723 3.83646 3.25308 0
M  V30 4656 H 423.423 5.367 2.39222 0
M  V30 4657 H 424.947 5.13967 3.29651 0
M  V30 4658 H 426.361 5.63059 1.07876 0
M  V30 4659 H 424.758 5.98936 0.373593 0
M  V30 4660 H 425.828 4.8295 -0.434394 0
M  V30 4661 N 427.171 -0.0066808 1.57599 0
M  V30 4662 C 428.134 -0.985035 2.06953 0
M  V30 4663 C 429.134 -1.27663 0.977687 0
M  V30 4664 O 430.324 -1.22293 1.24057 0
M  V30 4665 C 427.456 -2.3118 2.50536 0
M  V30 4666 H 428.649 -0.558255 2.94658 0
M  V30 4667 H 426.202 -0.254011 1.54222 0
M  V30 4668 H 426.937 -2.78561 1.66054 0
M  V30 4669 H 426.722 -2.11338 3.3027 0
M  V30 4670 H 428.212 -3.01377 2.8907 0
M  V30 4671 N 428.649 -1.55105 -0.279332 0
M  V30 4672 C 429.559 -1.90638 -1.36727 0
M  V30 4673 C 430.575 -0.802899 -1.54368 0
M  V30 4674 O 431.751 -1.10138 -1.68616 0
M  V30 4675 C 428.816 -2.16547 -2.70755 0
M  V30 4676 C 427.877 -3.40146 -2.61915 0
M  V30 4677 C 427.11 -3.6481 -3.8955 0
M  V30 4678 O 427.333 -2.92095 -4.89935 0
M  V30 4679 O 426.267 -4.58343 -3.90135 0
M  V30 4680 H 430.093 -2.83237 -1.09591 0
M  V30 4681 H 427.678 -1.4157 -0.477306 0
M  V30 4682 H 429.56 -2.34665 -3.50014 0
M  V30 4683 H 428.235 -1.27131 -2.9769 0
M  V30 4684 H 427.142 -3.2737 -1.81052 0
M  V30 4685 H 428.475 -4.29761 -2.3993 0
M  V30 4686 N 430.127 0.543554 -1.4793 0
M  V30 4687 C 431.057 1.65888 -1.64327 0
M  V30 4688 C 432.038 1.62818 -0.492383 0
M  V30 4689 O 433.223 1.80226 -0.723338 0
M  V30 4690 C 430.353 3.04506 -1.67013 0
M  V30 4691 C 429.307 3.2243 -2.81466 0
M  V30 4692 C 428.633 4.61972 -2.69233 0
M  V30 4693 C 429.933 3.06496 -4.22915 0
M  V30 4694 H 431.627 1.52421 -2.57698 0
M  V30 4695 H 429.173 0.731849 -1.24016 0
M  V30 4696 H 431.126 3.82391 -1.77074 0
M  V30 4697 H 429.85 3.18964 -0.70212 0
M  V30 4698 H 428.509 2.46957 -2.70938 0
M  V30 4699 H 428.157 4.73247 -1.7043 0
M  V30 4700 H 427.857 4.74911 -3.46025 0
M  V30 4701 H 429.381 5.41974 -2.81242 0
M  V30 4702 H 430.795 3.74186 -4.34348 0
M  V30 4703 H 429.192 3.30938 -5.006 0
M  V30 4704 H 430.262 2.03077 -4.40327 0
M  V30 4705 N 431.605 1.3629 0.791371 0
M  V30 4706 C 432.853 1.30154 1.5461 0
M  V30 4707 C 433.174 -0.119409 1.94634 0
M  V30 4708 O 432.444 -1.05924 1.64794 0
M  V30 4709 H 431.024 0.478784 0.573389 0
M  V30 4710 H 433.686 1.70565 0.94306 0
M  V30 4711 H 432.782 1.92762 2.45457 0
M  V30 4712 N 433.083 -1.0153 1.20538 0
M  V30 4713 C 434.331 -1.74803 1.01432 0
M  V30 4714 C 434.652 -1.8963 -0.454456 0
M  V30 4715 O 433.922 -1.43975 -1.32846 0
M  V30 4716 H 432.502 -0.647598 0.372324 0
M  V30 4717 H 435.164 -1.22402 1.5167 0
M  V30 4718 H 434.26 -2.75114 1.47373 0
M  V30 4719 N 434.561 -1.01147 -1.20859 0
M  V30 4720 C 435.511 -0.548247 -2.2131 0
M  V30 4721 C 436.495 0.393646 -1.5601 0
M  V30 4722 O 437.687 0.217445 -1.75659 0
M  V30 4723 C 434.816 0.117252 -3.431 0
M  V30 4724 C 433.902 -0.846043 -4.15575 0
M  V30 4725 N 434.293 -2.00149 -4.64515 0
M  V30 4726 C 432.591 -0.665783 -4.41003 0
M  V30 4727 C 433.292 -2.60764 -5.19978 0
M  V30 4728 N 432.268 -1.88868 -5.09735 0
M  V30 4729 H 436.07 -1.42921 -2.56809 0
M  V30 4730 H 433.584 -0.876142 -1.36739 0
M  V30 4731 H 435.581 0.46662 -4.1428 0
M  V30 4732 H 434.241 0.994115 -3.09107 0
M  V30 4733 H 435.252 -2.38162 -4.5989 0
M  V30 4734 H 431.929 0.163456 -4.1718 0
M  V30 4735 H 433.319 -3.58519 -5.68255 0
M  V30 4736 N 436.039 1.36541 -0.78704 0
M  V30 4737 C 436.969 2.32659 -0.197992 0
M  V30 4738 C 437.95 1.56533 0.665697 0
M  V30 4739 O 439.135 1.84698 0.60001 0
M  V30 4740 C 436.265 3.40778 0.669901 0
M  V30 4741 C 435.219 4.27897 -0.0937039 0
M  V30 4742 C 434.545 5.27163 0.894629 0
M  V30 4743 C 435.845 5.06334 -1.28154 0
M  V30 4744 H 437.539 2.82171 -1.00099 0
M  V30 4745 H 435.085 1.35665 -0.482793 0
M  V30 4746 H 437.038 4.07008 1.09191 0
M  V30 4747 H 435.762 2.89827 1.50558 0
M  V30 4748 H 434.421 3.6322 -0.49666 0
M  V30 4749 H 434.069 4.72486 1.72527 0
M  V30 4750 H 433.769 5.86317 0.388149 0
M  V30 4751 H 435.293 5.96266 1.31525 0
M  V30 4752 H 436.707 5.65617 -0.93541 0
M  V30 4753 H 435.104 5.74888 -1.72115 0
M  V30 4754 H 436.174 4.38114 -2.07807 0
M  V30 4755 N 437.518 0.538854 1.48102 0
M  V30 4756 C 438.795 -0.0568108 1.95517 0
M  V30 4757 C 439.175 -1.50408 1.48124 0
M  V30 4758 O 438.523 -2.17133 0.711727 0
M  V30 4759 C 438.733 0.0696262 3.48931 0
M  V30 4760 C 440.081 -0.0851202 4.24515 0
M  V30 4761 O 441.105 -0.0037347 3.562 0
M  V30 4762 O 439.964 -0.257025 5.45895 0
M  V30 4763 H 437.058 -0.0743695 0.823649 0
M  V30 4764 H 439.604 0.604081 1.58584 0
M  V30 4765 H 438.376 1.07744 3.76174 0
M  V30 4766 H 437.999 -0.629714 3.92582 0
M  V30 4767 N 438.996 -1.55193 0.274407 0
M  V30 4768 C 439.928 -2.1989 -0.646595 0
M  V30 4769 C 440.941 -1.1834 -1.11801 0
M  V30 4770 O 442.13 -1.4507 -1.04004 0
M  V30 4771 C 439.23 -2.8104 -1.89393 0
M  V30 4772 C 438.403 -4.08274 -1.56943 0
M  V30 4773 C 437.462 -4.53478 -2.66916 0
M  V30 4774 O 436.488 -5.19267 -2.33132 0
M  V30 4775 N 437.69 -4.2356 -3.9696 0
M  V30 4776 H 440.455 -2.99556 -0.0928686 0
M  V30 4777 H 438.016 -1.61618 0.0954783 0
M  V30 4778 H 440.008 -3.08226 -2.62257 0
M  V30 4779 H 438.578 -2.05372 -2.35672 0
M  V30 4780 H 437.798 -3.88384 -0.674655 0
M  V30 4781 H 439.086 -4.91173 -1.32764 0
M  V30 4782 H 438.484 -3.70799 -4.27229 0
M  V30 4783 H 437.041 -4.55518 -4.66205 0
M  V30 4784 N 440.474 -0.00167713 -1.576 0
M  V30 4785 C 441.406 1.0174 -2.05382 0
M  V30 4786 C 442.419 1.30595 -0.972052 0
M  V30 4787 O 443.608 1.27542 -1.24882 0
M  V30 4788 C 440.708 2.35174 -2.44022 0
M  V30 4789 C 439.881 2.25234 -3.74951 0
M  V30 4790 C 438.94 3.4137 -4.00441 0
M  V30 4791 O 437.966 3.19483 -4.71083 0
M  V30 4792 N 439.168 4.64275 -3.48467 0
M  V30 4793 H 441.933 0.609902 -2.93428 0
M  V30 4794 H 439.494 0.185672 -1.60832 0
M  V30 4795 H 441.486 3.11643 -2.58187 0
M  V30 4796 H 440.056 2.67659 -1.61485 0
M  V30 4797 H 439.276 1.33664 -3.70847 0
M  V30 4798 H 440.564 2.15767 -4.60784 0
M  V30 4799 H 439.962 4.84955 -2.91264 0
M  V30 4800 H 438.519 5.38005 -3.67959 0
M  V30 4801 N 441.952 1.55251 0.271103 0
M  V30 4802 C 443.198 1.76207 1.00394 0
M  V30 4803 C 443.531 0.562604 1.85872 0
M  V30 4804 O 442.806 -0.439785 1.89463 0
M  V30 4805 C 443.089 3.06828 1.8849 0
M  V30 4806 C 442.942 4.37134 1.05992 0
M  V30 4807 C 444.261 3.33503 2.87165 0
M  V30 4808 H 441.38 0.641086 0.363562 0
M  V30 4809 H 444.022 1.87982 0.276189 0
M  V30 4810 H 442.172 2.96921 2.5054 0
M  V30 4811 H 443.844 4.59001 0.459978 0
M  V30 4812 H 442.087 4.32275 0.363443 0
M  V30 4813 H 442.758 5.2486 1.70955 0
M  V30 4814 H 445.234 3.43215 2.3525 0
M  V30 4815 H 444.11 4.2616 3.45946 0
M  V30 4816 H 444.371 2.53235 3.62387 0
M  V30 4817 N 443.43 -0.535701 1.48216 0
M  V30 4818 C 444.34 -1.66785 1.64985 0
M  V30 4819 C 445.356 -1.65654 0.532414 0
M  V30 4820 O 446.532 -1.8471 0.80275 0
M  V30 4821 C 443.597 -3.0326 1.68031 0
M  V30 4822 C 442.658 -3.1529 2.9136 0
M  V30 4823 C 441.891 -4.45255 2.94252 0
M  V30 4824 O 442.114 -5.32011 2.05719 0
M  V30 4825 O 441.048 -4.6153 3.86359 0
M  V30 4826 H 444.874 -1.55576 2.60825 0
M  V30 4827 H 442.459 -0.70815 1.31551 0
M  V30 4828 H 444.341 -3.84436 1.72589 0
M  V30 4829 H 443.016 -3.14805 0.753628 0
M  V30 4830 H 441.923 -2.3343 2.92337 0
M  V30 4831 H 443.256 -3.08658 3.83394 0
M  V30 4832 N 444.908 -1.36708 -0.784132 0
M  V30 4833 C 445.818 -1.3363 -1.92822 0
M  V30 4834 C 446.834 -0.237686 -1.72369 0
M  V30 4835 O 448.01 -0.470962 -1.95816 0
M  V30 4836 C 445.075 -1.13011 -3.27764 0
M  V30 4837 C 444.136 -2.32397 -3.60957 0
M  V30 4838 C 443.369 -2.12752 -4.89461 0
M  V30 4839 O 443.592 -1.10541 -5.59586 0
M  V30 4840 O 442.526 -3.00653 -5.21432 0
M  V30 4841 H 446.352 -2.29964 -1.98369 0
M  V30 4842 H 443.937 -1.1731 -0.925136 0
M  V30 4843 H 445.819 -1.03451 -4.08504 0
M  V30 4844 H 444.494 -0.19743 -3.23097 0
M  V30 4845 H 443.401 -2.47527 -2.80502 0
M  V30 4846 H 444.734 -3.2419 -3.70354 0
M  V30 4847 N 446.386 1.0089 -1.21074 0
M  V30 4848 C 447.633 1.74607 -1.0256 0
M  V30 4849 C 447.961 1.89426 0.44136 0
M  V30 4850 O 447.216 1.42266 1.34384 0
M  V30 4851 C 447.515 3.16335 -1.66334 0
M  V30 4852 C 447.181 3.21474 -3.16173 0
M  V30 4853 C 445.843 3.22583 -3.57062 0
M  V30 4854 C 448.195 3.19025 -4.12156 0
M  V30 4855 C 445.523 3.18925 -4.92446 0
M  V30 4856 C 447.875 3.16909 -5.47496 0
M  V30 4857 C 446.539 3.16326 -5.87787 0
M  V30 4858 H 445.809 0.638933 -0.375294 0
M  V30 4859 H 448.456 1.18274 -1.50611 0
M  V30 4860 H 446.761 3.75876 -1.10566 0
M  V30 4861 H 448.458 3.72083 -1.49516 0
M  V30 4862 H 445.048 3.2135 -2.83605 0
M  V30 4863 H 449.232 3.17332 -3.81595 0
M  V30 4864 H 444.488 3.16809 -5.22917 0
M  V30 4865 H 448.662 3.13968 -6.21609 0
M  V30 4866 H 446.289 3.13246 -6.92662 0
M  V30 4867 N 447.864 1.01787 1.20321 0
M  V30 4868 C 449.28 0.732951 1.41774 0
M  V30 4869 C 449.48 -0.686883 1.89431 0
M  V30 4870 O 448.536 -1.45446 2.06402 0
M  V30 4871 C 449.849 1.75973 2.43832 0
M  V30 4872 C 451.397 1.77802 2.57596 0
M  V30 4873 C 451.872 2.7941 3.62897 0
M  V30 4874 N 453.363 2.78157 3.70382 0
M  V30 4875 C 454.098 3.53434 4.51521 0
M  V30 4876 N 453.594 4.38392 5.36455 0
M  V30 4877 N 455.387 3.42026 4.46066 0
M  V30 4878 H 447.538 1.93447 0.877035 0
M  V30 4879 H 449.801 0.835712 0.447536 0
M  V30 4880 H 449.507 2.77699 2.15815 0
M  V30 4881 H 449.381 1.57292 3.4284 0
M  V30 4882 H 451.768 0.767602 2.84942 0
M  V30 4883 H 451.849 2.00557 1.58779 0
M  V30 4884 H 451.493 3.80616 3.36295 0
M  V30 4885 H 451.423 2.53916 4.61339 0
M  V30 4886 H 453.914 2.16531 3.09714 0
M  V30 4887 H 454.227 4.92596 5.95457 0
M  V30 4888 H 452.572 4.4247 5.35953 0
M  V30 4889 H 455.763 2.75075 3.78749 0
M  V30 4890 H 455.936 4.00946 5.09064 0
M  V30 4891 N 449.342 -1.36122 0.79427 0
M  V30 4892 C 450.758 -1.5232 0.476525 0
M  V30 4893 C 450.958 -1.74685 -1.00436 0
M  V30 4894 O 450.014 -1.78115 -1.78973 0
M  V30 4895 C 451.327 -2.70607 1.31119 0
M  V30 4896 C 452.875 -2.8448 1.30537 0
M  V30 4897 C 453.35 -4.05778 2.12387 0
M  V30 4898 N 454.841 -4.12933 2.09859 0
M  V30 4899 C 455.576 -5.05876 2.69957 0
M  V30 4900 N 455.072 -6.04232 3.38934 0
M  V30 4901 N 456.865 -4.98528 2.59665 0
M  V30 4902 H 449.016 -1.1986 1.75349 0
M  V30 4903 H 451.279 -0.585418 0.745647 0
M  V30 4904 H 450.985 -2.60619 2.36158 0
M  V30 4905 H 450.859 -3.64888 0.955843 0
M  V30 4906 H 453.246 -2.93927 0.262876 0
M  V30 4907 H 453.327 -1.91093 1.70051 0
M  V30 4908 H 452.971 -3.97092 3.1667 0
M  V30 4909 H 452.901 -4.98323 1.70242 0
M  V30 4910 H 455.392 -3.42515 1.59662 0
M  V30 4911 H 455.705 -6.71724 3.82109 0
M  V30 4912 H 454.05 -6.04443 3.43036 0
M  V30 4913 H 457.241 -4.20641 2.05375 0
M  V30 4914 H 457.414 -5.70773 3.06793 0
M  V30 4915 N 450.82 -0.546701 -1.47814 0
M  V30 4916 C 452.236 -0.205717 -1.58269 0
M  V30 4917 C 452.436 1.29153 -1.54667 0
M  V30 4918 O 451.492 2.07098 -1.44453 0
M  V30 4919 C 452.805 -0.823065 -2.89216 0
M  V30 4920 C 454.353 -0.793328 -3.02779 0
M  V30 4921 C 454.828 -1.38955 -4.36412 0
M  V30 4922 N 456.319 -1.35227 -4.43021 0
M  V30 4923 C 457.054 -1.78333 -5.44963 0
M  V30 4924 N 456.55 -2.29246 -6.53772 0
M  V30 4925 N 458.343 -1.69467 -5.35945 0
M  V30 4926 H 450.494 -1.5196 -1.48398 0
M  V30 4927 H 452.757 -0.633078 -0.705632 0
M  V30 4928 H 452.463 -1.8749 -2.97558 0
M  V30 4929 H 452.337 -0.309915 -3.75925 0
M  V30 4930 H 454.724 0.249784 -2.94041 0
M  V30 4931 H 454.805 -1.34412 -2.17639 0
M  V30 4932 H 454.449 -2.43168 -4.45906 0
M  V30 4933 H 454.379 -0.814291 -5.20266 0
M  V30 4934 H 456.87 -0.979739 -3.64979 0
M  V30 4935 H 457.183 -2.60089 -7.27718 0
M  V30 4936 H 455.528 -2.3325 -6.5469 0
M  V30 4937 H 458.719 -1.29477 -4.49837 0
M  V30 4938 H 458.892 -2.03381 -6.15256 0
M  V30 4939 N 452.299 1.55045 -0.282633 0
M  V30 4940 C 453.545 2.00056 0.332481 0
M  V30 4941 C 453.878 1.1708 1.54939 0
M  V30 4942 O 453.153 0.2427 1.9298 0
M  V30 4943 C 453.436 3.53086 0.70725 0
M  V30 4944 C 453.289 4.46813 -0.517521 0
M  V30 4945 C 454.608 4.12245 1.54084 0
M  V30 4946 H 451.727 0.727268 0.119373 0
M  V30 4947 H 454.369 1.85932 -0.391076 0
M  V30 4948 H 452.519 3.65253 1.32372 0
M  V30 4949 H 454.191 4.46579 -1.15607 0
M  V30 4950 H 452.434 4.18163 -1.1542 0
M  V30 4951 H 453.105 5.51595 -0.211426 0
M  V30 4952 H 455.581 4.03401 1.02013 0
M  V30 4953 H 454.457 5.19515 1.77186 0
M  V30 4954 H 454.718 3.62951 2.52427 0
M  V30 4955 N 453.777 0.010035 1.57597 0
M  V30 4956 C 454.687 -0.994226 2.12491 0
M  V30 4957 C 455.703 -1.37013 1.07254 0
M  V30 4958 O 456.879 -1.45542 1.3921 0
M  V30 4959 C 453.944 -2.2642 2.62555 0
M  V30 4960 C 453.005 -1.95049 3.82432 0
M  V30 4961 C 452.238 -3.15991 4.30099 0
M  V30 4962 O 452.461 -4.28015 3.7704 0
M  V30 4963 O 451.395 -2.99403 5.22151 0
M  V30 4964 H 455.221 -0.557549 2.98538 0
M  V30 4965 H 452.806 -0.209413 1.47925 0
M  V30 4966 H 454.688 -3.01009 2.9491 0
M  V30 4967 H 453.363 -2.69306 1.796 0
M  V30 4968 H 452.27 -1.17904 3.55034 0
M  V30 4969 H 453.603 -1.56992 4.66491 0
M  V30 4970 N 455.255 -1.55392 -0.262866 0
M  V30 4971 C 456.666 -1.67079 -0.833158 0
M  V30 4972 C 457.017 -0.604539 -1.86654 0
M  V30 4973 O 456.142 0.252138 -2.14926 0
M  V30 4974 C 456.737 -3.02891 -1.51797 0
M  V30 4975 C 455.296 -3.16571 -2.03617 0
M  V30 4976 C 454.443 -2.62909 -0.881701 0
M  V30 4977 H 457.394 -1.58652 -0.0389986 0
M  V30 4978 H 457.415 -2.96445 -2.38538 0
M  V30 4979 H 456.927 -3.80473 -0.765619 0
M  V30 4980 H 455.028 -2.43782 -2.81782 0
M  V30 4981 H 455.141 -4.23271 -2.24452 0
M  V30 4982 H 453.505 -2.20324 -1.27786 0
M  V30 4983 H 454.288 -3.43003 -0.14269 0
M  V30 4984 N 456.733 0.527833 -1.48498 0
M  V30 4985 C 457.963 1.30633 -1.60058 0
M  V30 4986 C 458.371 1.87394 -0.260786 0
M  V30 4987 O 457.714 1.67227 0.760317 0
M  V30 4988 C 457.776 2.49361 -2.58958 0
M  V30 4989 C 457.44 2.13671 -4.03972 0
M  V30 4990 C 458.437 1.69217 -4.91591 0
M  V30 4991 C 456.122 2.24129 -4.49524 0
M  V30 4992 C 458.116 1.35689 -6.2279 0
M  V30 4993 C 455.803 1.90212 -5.80743 0
M  V30 4994 C 456.801 1.46063 -6.67199 0
M  V30 4995 O 456.489 1.12593 -7.95976 0
M  V30 4996 H 456.221 0.403444 -0.54241 0
M  V30 4997 H 458.775 0.643233 -1.95068 0
M  V30 4998 H 457.005 3.18659 -2.19073 0
M  V30 4999 H 458.694 3.11421 -2.6033 0
M  V30 5000 H 459.46 1.60607 -4.57636 0
M  V30 5001 H 455.339 2.57447 -3.82416 0
M  V30 5002 H 458.883 1.01157 -6.90227 0
M  V30 5003 H 454.78 1.98464 -6.14233 0
M  V30 5004 H 455.548 1.25972 -8.08748 0
M  V30 5005 N 458.211 1.37122 0.776871 0
M  V30 5006 C 459.459 1.31787 1.53221 0
M  V30 5007 C 459.78 -0.0987589 1.9475 0
M  V30 5008 O 459.05 -1.0417 1.65908 0
M  V30 5009 H 457.63 0.484839 0.568278 0
M  V30 5010 H 460.292 1.71556 0.924917 0
M  V30 5011 H 459.388 1.95355 2.43398 0
M  V30 5012 N 459.689 -1.00246 1.21608 0
M  V30 5013 C 460.599 -2.12515 0.993709 0
M  V30 5014 C 461.615 -1.73913 -0.0549939 0
M  V30 5015 O 462.791 -2.00943 0.135619 0
M  V30 5016 C 459.856 -3.42083 0.563953 0
M  V30 5017 C 458.917 -3.94843 1.68516 0
M  V30 5018 C 458.15 -5.18226 1.27582 0
M  V30 5019 O 458.373 -5.70201 0.150506 0
M  V30 5020 O 457.307 -5.64497 2.0887 0
M  V30 5021 H 461.133 -2.34152 1.93407 0
M  V30 5022 H 458.718 -1.10891 1.00118 0
M  V30 5023 H 460.6 -4.20073 0.334194 0
M  V30 5024 H 459.275 -3.21828 -0.347665 0
M  V30 5025 H 458.182 -3.18068 1.96935 0
M  V30 5026 H 459.515 -4.19512 2.5743 0
M  V30 5027 N 461.167 -1.02423 -1.1978 0
M  V30 5028 C 462.115 -0.594474 -2.24875 0
M  V30 5029 C 463.109 0.370598 -1.65296 0
M  V30 5030 O 464.315 0.239684 -1.78397 0
M  V30 5031 H 460.69 -0.173961 -0.731602 0
M  V30 5032 H 462.661 -1.4916 -2.58445 0
M  V30 5033 C 461.41 0.0436512 -3.47673 0
M  V30 5034 H 460.733 -0.689963 -3.93801 0
M  V30 5035 H 462.173 0.307362 -4.22884 0
M  V30 5036 C 460.632 1.28881 -3.11274 0
M  V30 5037 O 461.162 2.38135 -3.23503 0
M  V30 5038 N 459.368 1.1758 -2.6575 0
M  V30 5039 H 458.915 0.286769 -2.55999 0
M  V30 5040 H 458.873 2.00988 -2.41767 0
M  V30 5041 N 462.645 1.35699 -0.801477 0
M  V30 5042 C 463.892 1.98913 -0.379459 0
M  V30 5043 C 464.22 1.63592 1.05204 0
M  V30 5044 O 463.475 0.888563 1.74365 0
M  V30 5045 C 463.774 3.53828 -0.504041 0
M  V30 5046 C 463.44 4.09002 -1.8981 0
M  V30 5047 C 462.102 4.23783 -2.27951 0
M  V30 5048 C 464.454 4.38939 -2.81038 0
M  V30 5049 C 461.782 4.65816 -3.56696 0
M  V30 5050 C 464.134 4.82409 -4.09224 0
M  V30 5051 C 462.798 4.95395 -4.4737 0
M  V30 5052 H 462.068 0.727874 -0.138854 0
M  V30 5053 H 464.715 1.61994 -1.02128 0
M  V30 5054 H 463.02 3.91175 0.221242 0
M  V30 5055 H 464.717 4.00687 -0.158361 0
M  V30 5056 H 461.307 3.97946 -1.59176 0
M  V30 5057 H 465.491 4.27077 -2.52821 0
M  V30 5058 H 460.747 4.74059 -3.86106 0
M  V30 5059 H 464.921 5.04535 -4.80018 0
M  V30 5060 H 462.548 5.27724 -5.47185 0
M  V30 5061 N 464.123 0.554532 1.47522 0
M  V30 5062 C 465.071 -0.207765 2.3167 0
M  V30 5063 C 466.065 -0.911914 1.4276 0
M  V30 5064 O 467.271 -0.833504 1.59539 0
M  V30 5065 H 463.646 -0.0858726 0.747081 0
M  V30 5066 H 465.617 0.521178 2.93813 0
M  V30 5067 C 464.366 -1.2263 3.25357 0
M  V30 5068 H 463.689 -0.693887 3.93732 0
M  V30 5069 H 465.129 -1.73062 3.87073 0
M  V30 5070 C 463.588 -2.27278 2.4869 0
M  V30 5071 O 464.118 -3.34156 2.22941 0
M  V30 5072 N 462.324 -2.01134 2.09746 0
M  V30 5073 H 461.871 -1.14232 2.30887 0
M  V30 5074 H 461.829 -2.71369 1.58765 0
M  V30 5075 N 465.601 -1.54893 0.290851 0
M  V30 5076 C 466.548 -2.23138 -0.58974 0
M  V30 5077 C 467.518 -1.21036 -1.13752 0
M  V30 5078 O 468.703 -1.49626 -1.18392 0
M  V30 5079 C 465.843 -2.96811 -1.76061 0
M  V30 5080 C 464.956 -4.13665 -1.24519 0
M  V30 5081 C 464.091 -4.74944 -2.3791 0
M  V30 5082 C 463.13 -5.83963 -1.83451 0
M  V30 5083 N 462.267 -6.39239 -2.90376 0
M  V30 5084 H 467.107 -2.98 -0.00114915 0
M  V30 5085 H 464.644 -1.47096 0.0112006 0
M  V30 5086 H 466.602 -3.37751 -2.44909 0
M  V30 5087 H 465.232 -2.24344 -2.32098 0
M  V30 5088 H 464.284 -3.77737 -0.449288 0
M  V30 5089 H 465.596 -4.92238 -0.806424 0
M  V30 5090 H 464.75 -5.18684 -3.14724 0
M  V30 5091 H 463.489 -3.95682 -2.85109 0
M  V30 5092 H 462.494 -5.39657 -1.05122 0
M  V30 5093 H 463.719 -6.65103 -1.37169 0
M  V30 5094 H 461.665 -5.62864 -3.36927 0
M  V30 5095 H 461.582 -7.13129 -2.50965 0
M  V30 5096 H 462.85 -6.87637 -3.67118 0
M  V30 5097 N 467.08 -0.0183926 -1.57589 0
M  V30 5098 C 468.043 0.951986 -2.08494 0
M  V30 5099 C 469.043 1.26092 -0.997874 0
M  V30 5100 O 470.233 1.20304 -1.25987 0
M  V30 5101 C 467.365 2.27165 -2.54182 0
M  V30 5102 H 468.558 0.511307 -2.95509 0
M  V30 5103 H 466.111 0.229444 -1.54607 0
M  V30 5104 H 466.846 2.75884 -1.70465 0
M  V30 5105 H 466.631 2.06057 -3.33591 0
M  V30 5106 H 468.121 2.9674 -2.93828 0
M  V30 5107 N 468.558 1.5553 0.254621 0
M  V30 5108 C 469.488 1.9268 1.31897 0
M  V30 5109 C 470.469 0.790797 1.506 0
M  V30 5110 O 471.654 1.05045 1.63337 0
M  V30 5111 C 468.784 2.21477 2.67517 0
M  V30 5112 C 467.738 3.37256 2.63519 0
M  V30 5113 C 467.064 3.51576 4.02862 0
M  V30 5114 C 468.364 4.73157 2.21179 0
M  V30 5115 H 470.058 2.81832 1.01051 0
M  V30 5116 H 467.604 1.35599 0.484662 0
M  V30 5117 H 469.557 2.46055 3.42104 0
M  V30 5118 H 468.281 1.29144 2.99982 0
M  V30 5119 H 466.94 3.12675 1.9139 0
M  V30 5120 H 466.588 2.56676 4.32581 0
M  V30 5121 H 466.288 4.2943 4.01078 0
M  V30 5122 H 467.812 3.78467 4.79161 0
M  V30 5123 H 469.226 4.97158 2.85494 0
M  V30 5124 H 467.623 5.54058 2.30521 0
M  V30 5125 H 468.693 4.70739 1.16332 0
M  V30 5126 N 470.036 -0.519951 1.48776 0
M  V30 5127 C 471.282 -1.27711 1.57536 0
M  V30 5128 C 471.615 -1.92547 0.252866 0
M  V30 5129 O 470.89 -1.7979 -0.742021 0
M  V30 5130 C 471.173 -2.35875 2.72094 0
M  V30 5131 C 471.026 -1.75664 4.1408 0
M  V30 5132 C 472.345 -3.37575 2.82367 0
M  V30 5133 H 469.464 -0.462971 0.573434 0
M  V30 5134 H 472.106 -0.578194 1.80989 0
M  V30 5135 H 470.256 -2.95488 2.52228 0
M  V30 5136 H 471.928 -1.20025 4.45412 0
M  V30 5137 H 470.171 -1.06154 4.20611 0
M  V30 5138 H 470.842 -2.54029 4.90075 0
M  V30 5139 H 473.318 -2.87929 3.00393 0
M  V30 5140 H 472.194 -4.1064 3.64233 0
M  V30 5141 H 472.455 -3.98743 1.90936 0
M  V30 5142 N 471.514 -1.37532 -0.769588 0
M  V30 5143 C 472.446 -1.29347 -1.89214 0
M  V30 5144 C 473.459 -0.208842 -1.61455 0
M  V30 5145 O 474.648 -0.465158 -1.72333 0
M  V30 5146 C 471.748 -0.977649 -3.24492 0
M  V30 5147 C 470.921 -2.16817 -3.7988 0
M  V30 5148 C 469.98 -1.82229 -4.93639 0
M  V30 5149 O 469.006 -2.54548 -5.09111 0
M  V30 5150 N 470.208 -0.767696 -5.75401 0
M  V30 5151 H 472.973 -2.26073 -1.96751 0
M  V30 5152 H 470.534 -1.31185 -0.948795 0
M  V30 5153 H 472.526 -0.727065 -3.98115 0
M  V30 5154 H 471.096 -0.0988777 -3.12444 0
M  V30 5155 H 470.316 -2.58038 -2.9801 0
M  V30 5156 H 471.604 -2.96308 -4.13617 0
M  V30 5157 H 471.002 -0.167626 -5.65452 0
M  V30 5158 H 469.559 -0.576973 -6.49241 0
M  V30 5159 N 472.992 0.995999 -1.22138 0
M  V30 5160 C 473.924 2.08745 -0.946485 0
M  V30 5161 C 474.937 1.62633 0.0737356 0
M  V30 5162 O 476.126 1.77782 -0.159886 0
M  V30 5163 C 473.226 3.36516 -0.401305 0
M  V30 5164 C 472.399 4.11672 -1.47801 0
M  V30 5165 C 471.458 5.17728 -0.940461 0
M  V30 5166 O 470.484 5.45482 -1.62596 0
M  V30 5167 N 471.686 5.80005 0.239723 0
M  V30 5168 H 474.451 2.32908 -1.88611 0
M  V30 5169 H 472.012 1.16152 -1.12785 0
M  V30 5170 H 474.004 4.04691 -0.0270837 0
M  V30 5171 H 472.574 3.0944 0.443354 0
M  V30 5172 H 471.794 3.38171 -2.02568 0
M  V30 5173 H 473.082 4.58657 -2.20253 0
M  V30 5174 H 472.48 5.5982 0.813518 0
M  V30 5175 H 471.037 6.4943 0.555361 0
M  V30 5176 N 474.47 1.03057 1.19235 0
M  V30 5177 C 475.403 0.557384 2.21288 0
M  V30 5178 C 476.381 -0.402675 1.57535 0
M  V30 5179 O 477.565 -0.319376 1.85775 0
M  V30 5180 C 474.692 -0.187041 3.38183 0
M  V30 5181 C 473.738 0.72471 4.20298 0
M  V30 5182 S 474.571 2.20187 4.88137 0
M  V30 5183 C 475.727 1.46801 6.08441 0
M  V30 5184 H 475.96 1.42207 2.61083 0
M  V30 5185 H 473.493 0.840651 1.29508 0
M  V30 5186 H 475.451 -0.610405 4.05936 0
M  V30 5187 H 474.112 -1.02748 2.96819 0
M  V30 5188 H 473.305 0.149911 5.03777 0
M  V30 5189 H 472.907 1.08647 3.57871 0
M  V30 5190 H 475.199 0.755522 6.73274 0
M  V30 5191 H 476.142 2.27946 6.70407 0
M  V30 5192 H 476.55 0.964762 5.56195 0
M  V30 5193 N 475.948 -1.35272 0.808662 0
M  V30 5194 C 476.858 -2.33546 0.222079 0
M  V30 5195 C 477.874 -1.6196 -0.636011 0
M  V30 5196 O 479.05 -1.93822 -0.547274 0
M  V30 5197 C 476.115 -3.41148 -0.61795 0
M  V30 5198 C 475.176 -4.28507 0.260875 0
M  V30 5199 C 474.409 -5.3097 -0.539156 0
M  V30 5200 O 474.632 -5.42123 -1.77367 0
M  V30 5201 O 473.566 -6.01858 0.0710526 0
M  V30 5202 H 477.392 -2.85515 1.03512 0
M  V30 5203 H 474.977 -1.38079 0.570495 0
M  V30 5204 H 476.859 -4.06889 -1.09634 0
M  V30 5205 H 475.534 -2.91447 -1.40855 0
M  V30 5206 H 474.441 -3.6574 0.786451 0
M  V30 5207 H 475.774 -4.81611 1.01547 0
M  V30 5208 N 477.426 -0.562348 -1.47226 0
M  V30 5209 C 478.358 0.220011 -2.28142 0
M  V30 5210 C 479.371 0.874596 -1.37312 0
M  V30 5211 O 480.56 0.747583 -1.62091 0
M  V30 5212 C 477.66 1.32953 -3.11732 0
M  V30 5213 C 476.833 0.770759 -4.30556 0
M  V30 5214 C 475.892 1.76541 -4.95701 0
M  V30 5215 O 474.918 1.3095 -5.53932 0
M  V30 5216 N 476.12 3.09896 -4.90861 0
M  V30 5217 H 478.885 -0.474107 -2.95926 0
M  V30 5218 H 476.446 -0.398761 -1.56912 0
M  V30 5219 H 478.438 1.99378 -3.5218 0
M  V30 5220 H 477.008 1.92681 -2.46156 0
M  V30 5221 H 476.228 -0.0704056 -3.94137 0
M  V30 5222 H 477.516 0.376872 -5.07402 0
M  V30 5223 H 476.914 3.49577 -4.44761 0
M  V30 5224 H 475.471 3.71865 -5.35313 0
M  V30 5225 N 478.904 1.54736 -0.299062 0
M  V30 5226 C 479.834 2.26409 0.571085 0
M  V30 5227 C 480.815 1.2629 1.13951 0
M  V30 5228 O 482 1.55059 1.16921 0
M  V30 5229 C 479.13 3.00338 1.74396 0
M  V30 5230 C 478.084 4.07588 1.30599 0
M  V30 5231 C 477.41 4.69222 2.56387 0
M  V30 5232 C 478.71 5.20455 0.438645 0
M  V30 5233 H 480.404 2.99388 -0.0266991 0
M  V30 5234 H 477.95 1.43993 -0.0142812 0
M  V30 5235 H 479.903 3.49198 2.35878 0
M  V30 5236 H 478.627 2.24934 2.36796 0
M  V30 5237 H 477.286 3.59575 0.71424 0
M  V30 5238 H 476.934 3.9046 3.17097 0
M  V30 5239 H 476.634 5.41653 2.27784 0
M  V30 5240 H 478.158 5.20844 3.18675 0
M  V30 5241 H 479.572 5.65221 0.959085 0
M  V30 5242 H 477.969 5.99594 0.246466 0
M  V30 5243 H 479.039 4.8192 -0.536738 0
M  V30 5244 N 480.382 0.0267497 1.57577 0
M  V30 5245 C 481.798 -0.32962 1.56159 0
M  V30 5246 C 481.998 -1.73059 1.03213 0
M  V30 5247 O 481.054 -2.43233 0.677804 0
M  V30 5248 C 482.367 -0.18039 3.00158 0
M  V30 5249 C 483.915 -0.253334 3.11973 0
M  V30 5250 C 484.39 -0.132921 4.57807 0
M  V30 5251 N 485.881 -0.189979 4.6281 0
M  V30 5252 C 486.616 -0.120554 5.73273 0
M  V30 5253 N 486.112 -0.000180315 6.928 0
M  V30 5254 N 487.905 -0.174369 5.61829 0
M  V30 5255 H 480.056 0.942896 1.90324 0
M  V30 5256 H 482.319 0.3639 0.875375 0
M  V30 5257 H 482.025 0.784576 3.42837 0
M  V30 5258 H 481.899 -0.951565 3.65 0
M  V30 5259 H 484.286 -1.20876 2.69208 0
M  V30 5260 H 484.367 0.548177 2.49857 0
M  V30 5261 H 484.011 0.819073 5.01252 0
M  V30 5262 H 483.941 -0.953264 5.179 0
M  V30 5263 H 486.432 -0.283257 3.76837 0
M  V30 5264 H 486.745 0.0461666 7.72786 0
M  V30 5265 H 485.09 0.034569 6.94991 0
M  V30 5266 H 488.281 -0.266794 4.67339 0
M  V30 5267 H 488.454 -0.116802 6.47895 0
M  V30 5268 N 481.861 -1.55662 -0.24637 0
M  V30 5269 C 482.793 -1.86811 -1.32794 0
M  V30 5270 C 483.806 -0.754413 -1.44265 0
M  V30 5271 O 484.995 -1.03253 -1.45606 0
M  V30 5272 C 482.095 -2.0397 -2.70646 0
M  V30 5273 C 481.268 -3.34832 -2.81436 0
M  V30 5274 C 480.327 -3.41727 -4.00136 0
M  V30 5275 O 479.353 -4.14934 -3.89639 0
M  V30 5276 N 480.555 -2.71058 -5.1333 0
M  V30 5277 H 483.32 -2.80174 -1.06409 0
M  V30 5278 H 480.881 -1.55906 -0.43647 0
M  V30 5279 H 482.873 -2.05924 -3.48393 0
M  V30 5280 H 481.443 -1.1735 -2.89738 0
M  V30 5281 H 480.663 -3.4519 -1.90361 0
M  V30 5282 H 481.951 -4.21085 -2.85595 0
M  V30 5283 H 481.349 -2.11314 -5.2475 0
M  V30 5284 H 479.906 -2.78704 -5.89209 0
M  V30 5285 N 483.339 0.512053 -1.4905 0
M  V30 5286 C 484.286 1.6148 -1.64902 0
M  V30 5287 C 485.256 1.58687 -0.490673 0
M  V30 5288 O 486.441 1.76842 -0.71636 0
M  V30 5289 C 483.581 2.99676 -1.71139 0
M  V30 5290 C 482.694 3.12568 -2.98203 0
M  V30 5291 C 481.829 4.4143 -2.95487 0
M  V30 5292 C 480.868 4.47916 -4.17179 0
M  V30 5293 N 480.005 5.68191 -4.12437 0
M  V30 5294 H 484.845 1.47271 -2.59066 0
M  V30 5295 H 482.382 0.716713 -1.28459 0
M  V30 5296 H 484.34 3.79761 -1.72736 0
M  V30 5297 H 482.97 3.12614 -0.804508 0
M  V30 5298 H 482.022 2.25618 -3.06269 0
M  V30 5299 H 483.334 3.1322 -3.88194 0
M  V30 5300 H 482.488 5.29825 -2.95585 0
M  V30 5301 H 481.227 4.43326 -2.03256 0
M  V30 5302 H 480.232 3.57925 -4.17337 0
M  V30 5303 H 481.457 4.47744 -5.1059 0
M  V30 5304 H 479.403 5.7095 -3.23036 0
M  V30 5305 H 479.32 5.70413 -4.96151 0
M  V30 5306 H 480.588 6.58823 -4.16621 0
M  V30 5307 N 484.817 1.37938 0.762283 0
M  V30 5308 C 485.747 1.37176 1.88958 0
M  V30 5309 C 486.728 0.238945 1.68413 0
M  V30 5310 O 487.913 0.440726 1.89133 0
M  V30 5311 C 485.043 1.18742 3.2637 0
M  V30 5312 C 483.997 2.29136 3.61498 0
M  V30 5313 C 483.323 1.95816 4.97554 0
M  V30 5314 C 484.623 3.71363 3.6727 0
M  V30 5315 H 486.317 2.31509 1.89853 0
M  V30 5316 H 483.863 1.11438 0.912005 0
M  V30 5317 H 485.816 1.16837 4.04879 0
M  V30 5318 H 484.54 0.208683 3.25933 0
M  V30 5319 H 483.199 2.30213 2.85303 0
M  V30 5320 H 482.847 0.964475 4.93667 0
M  V30 5321 H 482.547 2.69745 5.22026 0
M  V30 5322 H 484.071 1.95513 5.78452 0
M  V30 5323 H 485.485 3.72364 4.35911 0
M  V30 5324 H 483.882 4.44425 4.03245 0
M  V30 5325 H 484.952 4.04305 2.67704 0
M  V30 5326 N 486.295 -0.989507 1.22664 0
M  V30 5327 C 487.543 -1.72612 1.05117 0
M  V30 5328 C 487.864 -1.90552 -0.414131 0
M  V30 5329 O 487.134 -1.4676 -1.29762 0
M  V30 5330 H 485.714 -0.639555 0.385977 0
M  V30 5331 H 488.376 -1.19158 1.54232 0
M  V30 5332 H 487.472 -2.71926 1.53175 0
M  V30 5333 N 487.773 -1.03688 -1.18687 0
M  V30 5334 C 489.184 -0.766488 -1.70241 0
M  V30 5335 C 489.535 0.713052 -1.82784 0
M  V30 5336 O 488.66 1.55529 -1.50465 0
M  V30 5337 C 489.255 -1.38475 -3.09209 0
M  V30 5338 C 487.814 -1.16276 -3.5799 0
M  V30 5339 C 486.961 -1.4778 -2.34641 0
M  V30 5340 H 489.912 -1.20378 -1.03415 0
M  V30 5341 H 489.933 -0.785939 -3.72295 0
M  V30 5342 H 489.445 -2.46157 -3.00048 0
M  V30 5343 H 487.546 -0.104508 -3.72453 0
M  V30 5344 H 487.659 -1.8571 -4.41643 0
M  V30 5345 H 486.023 -0.897366 -2.38368 0
M  V30 5346 H 486.806 -2.56562 -2.28102 0
M  V30 5347 N 489.251 1.34841 -0.815825 0
M  V30 5348 C 490.201 2.27075 -0.205169 0
M  V30 5349 C 491.185 1.48205 0.626414 0
M  V30 5350 O 492.377 1.70306 0.482157 0
M  V30 5351 C 489.506 3.37322 0.637871 0
M  V30 5352 C 488.592 4.23609 -0.203948 0
M  V30 5353 N 488.983 4.89558 -1.27149 0
M  V30 5354 C 487.281 4.45998 0.0128971 0
M  V30 5355 C 487.982 5.53597 -1.7862 0
M  V30 5356 N 486.958 5.32535 -1.0912 0
M  V30 5357 H 490.76 2.75563 -1.02187 0
M  V30 5358 H 488.274 1.48477 -0.657912 0
M  V30 5359 H 490.271 4.02359 1.09146 0
M  V30 5360 H 488.931 2.90385 1.45281 0
M  V30 5361 H 489.942 4.9077 -1.65423 0
M  V30 5362 H 486.619 4.09837 0.79624 0
M  V30 5363 H 488.009 6.16184 -2.67892 0
M  V30 5364 N 490.729 0.570148 1.46925 0
M  V30 5365 C 491.692 -0.159933 2.28641 0
M  V30 5366 C 492.692 -0.830638 1.37685 0
M  V30 5367 O 493.882 -0.684516 1.60187 0
M  V30 5368 C 491.014 -1.2354 3.17727 0
M  V30 5369 H 492.207 0.558035 2.94662 0
M  V30 5370 H 489.76 0.327603 1.52828 0
M  V30 5371 H 490.495 -1.98535 2.56426 0
M  V30 5372 H 490.28 -0.759125 3.84681 0
M  V30 5373 H 491.77 -1.74782 3.79264 0
M  V30 5374 N 492.207 -1.54576 0.307264 0
M  V30 5375 C 493.455 -1.99867 -0.299574 0
M  V30 5376 C 493.776 -1.19714 -1.53927 0
M  V30 5377 O 493.046 -0.29472 -1.9367 0
M  V30 5378 H 491.626 -0.738299 -0.113683 0
M  V30 5379 H 494.288 -1.9032 0.420042 0
M  V30 5380 H 493.384 -3.06901 -0.567283 0
M  V30 5381 N 493.685 -0.035106 -1.57561 0
M  V30 5382 C 494.962 0.681212 -1.83354 0
M  V30 5383 C 495.342 1.89986 -0.920252 0
M  V30 5384 O 494.69 2.28489 0.0226815 0
M  V30 5385 C 494.9 1.05376 -3.32712 0
M  V30 5386 C 496.248 1.44286 -3.99333 0
M  V30 5387 O 497.272 1.14656 -3.37242 0
M  V30 5388 O 496.131 1.99518 -5.08778 0
M  V30 5389 H 493.225 0.334741 -0.756226 0
M  V30 5390 H 495.771 -0.0632448 -1.69582 0
M  V30 5391 H 494.543 0.186668 -3.90854 0
M  V30 5392 H 494.166 1.85619 -3.51613 0
M  V30 5393 N 495.163 1.55791 0.238111 0
M  V30 5394 C 496.409 1.78297 0.966337 0
M  V30 5395 C 496.742 0.601903 1.84637 0
M  V30 5396 O 496.017 -0.399499 1.90353 0
M  V30 5397 C 496.3 3.10758 1.81939 0
M  V30 5398 C 496.153 4.39283 0.966958 0
M  V30 5399 C 497.472 3.39519 2.80027 0
M  V30 5400 H 494.591 0.648654 0.349882 0
M  V30 5401 H 497.233 1.88525 0.236253 0
M  V30 5402 H 495.383 3.02168 2.44185 0
M  V30 5403 H 497.055 4.59873 0.362514 0
M  V30 5404 H 495.298 4.32948 0.271669 0
M  V30 5405 H 495.969 5.28368 1.59784 0
M  V30 5406 H 498.445 3.48128 2.27917 0
M  V30 5407 H 497.321 4.33402 3.36829 0
M  V30 5408 H 497.582 2.60864 3.56934 0
M  V30 5409 N 496.642 -0.504142 1.49319 0
M  V30 5410 C 497.552 -1.63248 1.68486 0
M  V30 5411 C 498.568 -1.64488 0.567432 0
M  V30 5412 O 499.744 -1.82966 0.841749 0
M  V30 5413 C 496.809 -2.99627 1.74426 0
M  V30 5414 C 495.87 -3.09039 2.97982 0
M  V30 5415 C 495.103 -4.38913 3.0363 0
M  V30 5416 O 495.326 -5.27528 2.16958 0
M  V30 5417 O 494.26 -4.53231 3.96062 0
M  V30 5418 H 498.086 -1.50008 2.64067 0
M  V30 5419 H 495.671 -0.680086 1.33023 0
M  V30 5420 H 497.553 -3.80689 1.80705 0
M  V30 5421 H 496.228 -3.13136 0.820233 0
M  V30 5422 H 495.135 -2.27177 2.97223 0
M  V30 5423 H 496.468 -3.00456 3.89855 0
M  V30 5424 N 498.12 -1.38341 -0.754957 0
M  V30 5425 C 499.368 -1.34208 -1.51105 0
M  V30 5426 C 499.689 0.0677634 -1.94882 0
M  V30 5427 O 498.959 1.01517 -1.67544 0
M  V30 5428 H 497.539 -0.493819 -0.560493 0
M  V30 5429 H 500.201 -1.73005 -0.897507 0
M  V30 5430 H 499.297 -1.99203 -2.4026 0
M  V30 5431 N 499.598 0.982988 -1.23187 0
M  V30 5432 C 500.548 2.05962 -0.977942 0
M  V30 5433 C 501.532 1.60725 0.0751148 0
M  V30 5434 O 502.724 1.76471 -0.136683 0
M  V30 5435 C 499.853 3.38564 -0.568276 0
M  V30 5436 C 498.939 3.90407 -1.6566 0
M  V30 5437 N 499.33 4.15359 -2.88635 0
M  V30 5438 C 497.628 4.18915 -1.53058 0
M  V30 5439 C 498.329 4.57642 -3.5908 0
M  V30 5440 N 497.305 4.6192 -2.86584 0
M  V30 5441 H 501.107 2.23208 -1.91195 0
M  V30 5442 H 498.621 1.16555 -1.13087 0
M  V30 5443 H 500.618 4.15276 -0.36764 0
M  V30 5444 H 499.278 3.22712 0.358713 0
M  V30 5445 H 500.289 4.03258 -3.24966 0
M  V30 5446 H 496.966 4.12081 -0.670506 0
M  V30 5447 H 498.356 4.85488 -4.6449 0
M  V30 5448 N 501.076 1.04316 1.18135 0
M  V30 5449 C 502.006 0.657299 2.24058 0
M  V30 5450 C 502.987 -0.340678 1.66654 0
M  V30 5451 O 504.172 -0.220223 1.92947 0
M  V30 5452 C 501.302 0.0220715 3.47293 0
M  V30 5453 C 500.256 0.943857 4.17463 0
M  V30 5454 C 499.582 0.172973 5.3442 0
M  V30 5455 C 500.882 2.26409 4.70677 0
M  V30 5456 H 502.576 1.5428 2.56589 0
M  V30 5457 H 500.122 0.743263 1.23335 0
M  V30 5458 H 502.075 -0.259607 4.206 0
M  V30 5459 H 500.799 -0.898323 3.14003 0
M  V30 5460 H 499.458 1.20996 3.46057 0
M  V30 5461 H 499.106 -0.749907 4.97379 0
M  V30 5462 H 498.806 0.787098 5.82304 0
M  V30 5463 H 500.33 -0.101628 6.10515 0
M  V30 5464 H 501.744 2.04294 5.35665 0
M  V30 5465 H 500.141 2.8314 5.29105 0
M  V30 5466 H 501.211 2.90883 3.87962 0
M  V30 5467 N 502.554 -1.34406 0.822964 0
M  V30 5468 C 503.779 -2.0304 0.423034 0
M  V30 5469 C 504.204 -1.61568 -0.963196 0
M  V30 5470 O 503.562 -0.800339 -1.62678 0
M  V30 5471 C 503.61 -3.56636 0.53321 0
M  V30 5472 O 502.714 -4.09971 -0.446939 0
M  V30 5473 H 502.055 -0.64075 0.174171 0
M  V30 5474 H 504.585 -1.71653 1.11339 0
M  V30 5475 H 504.595 -4.05945 0.408991 0
M  V30 5476 H 503.27 -3.86168 1.54425 0
M  V30 5477 H 501.847 -3.71835 -0.281601 0
M  V30 5478 N 504.032 -0.577932 -1.46621 0
M  V30 5479 C 505.279 -0.0616879 -2.02406 0
M  V30 5480 C 505.607 1.29638 -1.44997 0
M  V30 5481 O 504.862 1.86176 -0.60308 0
M  V30 5482 C 505.161 0.0590832 -3.57351 0
M  V30 5483 C 504.827 -1.23077 -4.33777 0
M  V30 5484 C 503.489 -1.58416 -4.54376 0
M  V30 5485 C 505.841 -2.08457 -4.77698 0
M  V30 5486 C 503.169 -2.78943 -5.16147 0
M  V30 5487 C 505.521 -3.28204 -5.408 0
M  V30 5488 C 504.185 -3.63832 -5.59627 0
M  V30 5489 H 503.455 -0.0225732 -0.740656 0
M  V30 5490 H 506.102 -0.753609 -1.76048 0
M  V30 5491 H 504.407 0.834104 -3.82818 0
M  V30 5492 H 506.104 0.474202 -3.98186 0
M  V30 5493 H 502.694 -0.945652 -4.18038 0
M  V30 5494 H 506.878 -1.82459 -4.61544 0
M  V30 5495 H 502.134 -3.06689 -5.28916 0
M  V30 5496 H 506.308 -3.94634 -5.73792 0
M  V30 5497 H 503.935 -4.57315 -6.07262 0
M  V30 5498 N 505.51 1.54411 -0.315457 0
M  V30 5499 C 506.44 2.27002 0.547039 0
M  V30 5500 C 507.421 1.27492 1.12605 0
M  V30 5501 O 508.606 1.5629 1.15269 0
M  V30 5502 C 505.736 3.02171 1.71201 0
M  V30 5503 C 504.69 4.0895 1.26268 0
M  V30 5504 C 504.016 4.71915 2.51396 0
M  V30 5505 C 505.316 5.20891 0.383419 0
M  V30 5506 H 507.01 2.99343 -0.0584517 0
M  V30 5507 H 504.556 1.4397 -0.0295527 0
M  V30 5508 H 506.509 3.51681 2.32161 0
M  V30 5509 H 505.233 2.27433 2.34397 0
M  V30 5510 H 503.892 3.60312 0.676062 0
M  V30 5511 H 503.54 3.93801 3.12937 0
M  V30 5512 H 503.24 5.44039 2.22026 0
M  V30 5513 H 504.764 5.24195 3.13133 0
M  V30 5514 H 506.178 5.66206 0.899082 0
M  V30 5515 H 504.575 5.99821 0.182857 0
M  V30 5516 H 505.645 4.81324 -0.587821 0
M  V30 5517 N 506.988 0.0434614 1.5754 0
M  V30 5518 C 507.898 -0.94893 2.14552 0
M  V30 5519 C 508.914 -1.34707 1.10136 0
M  V30 5520 O 510.09 -1.42557 1.42266 0
M  V30 5521 C 507.155 -2.208 2.67298 0
M  V30 5522 C 506.216 -1.86893 3.86484 0
M  V30 5523 C 505.449 -3.06797 4.36705 0
M  V30 5524 O 505.672 -4.19921 3.86034 0
M  V30 5525 O 504.606 -2.8826 5.28384 0
M  V30 5526 H 508.432 -0.494099 2.99654 0
M  V30 5527 H 506.017 -0.177989 1.48336 0
M  V30 5528 H 507.899 -2.94686 3.01228 0
M  V30 5529 H 506.574 -2.65436 1.85272 0
M  V30 5530 H 505.481 -1.10347 3.57455 0
M  V30 5531 H 506.814 -1.47062 4.69716 0
M  V30 5532 N 508.466 -1.55915 -0.229846 0
M  V30 5533 C 509.413 -1.91734 -1.28478 0
M  V30 5534 C 510.383 -0.773539 -1.46988 0
M  V30 5535 O 511.568 -1.02871 -1.60693 0
M  V30 5536 C 508.708 -2.23224 -2.63182 0
M  V30 5537 C 507.821 -3.50497 -2.52539 0
M  V30 5538 C 506.956 -3.71474 -3.79711 0
M  V30 5539 C 505.995 -4.92289 -3.63755 0
M  V30 5540 N 505.132 -5.09698 -4.82858 0
M  V30 5541 H 509.972 -2.81692 -0.972308 0
M  V30 5542 H 507.509 -1.39429 -0.468815 0
M  V30 5543 H 509.467 -2.3949 -3.41614 0
M  V30 5544 H 508.097 -1.36451 -2.92542 0
M  V30 5545 H 507.149 -3.4247 -1.65585 0
M  V30 5546 H 508.461 -4.39079 -2.36666 0
M  V30 5547 H 507.615 -3.87791 -4.66586 0
M  V30 5548 H 506.354 -2.81157 -3.985 0
M  V30 5549 H 505.359 -4.7593 -2.75264 0
M  V30 5550 H 506.584 -5.84083 -3.46445 0
M  V30 5551 H 504.53 -4.22322 -5.01976 0
M  V30 5552 H 504.447 -5.92399 -4.69681 0
M  V30 5553 H 505.715 -5.30443 -5.71183 0
M  V30 5554 N 509.944 0.496216 -1.49584 0
M  V30 5555 C 511.221 1.25755 -1.49816 0
M  V30 5556 C 511.601 2.09859 -0.228572 0
M  V30 5557 O 510.949 2.14449 0.788908 0
M  V30 5558 C 511.159 2.11017 -2.7798 0
M  V30 5559 C 512.507 2.70047 -3.27658 0
M  V30 5560 O 513.531 2.21281 -2.79129 0
M  V30 5561 O 512.39 3.58834 -4.1219 0
M  V30 5562 H 509.484 0.569322 -0.599834 0
M  V30 5563 H 512.03 0.510094 -1.61852 0
M  V30 5564 H 510.802 1.48879 -3.61871 0
M  V30 5565 H 510.425 2.92947 -2.68827 0
M  V30 5566 N 511.423 1.38739 0.74761 0
M  V30 5567 C 512.353 1.39173 1.87492 0
M  V30 5568 C 513.334 0.256794 1.6815 0
M  V30 5569 O 514.519 0.460762 1.88655 0
M  V30 5570 C 511.649 1.22197 3.25093 0
M  V30 5571 C 510.603 2.32957 3.59047 0
M  V30 5572 C 509.929 2.01082 4.95449 0
M  V30 5573 C 511.229 3.75237 3.6331 0
M  V30 5574 H 512.923 2.3351 1.87386 0
M  V30 5575 H 510.469 1.12399 0.900134 0
M  V30 5576 H 512.422 1.21124 4.03617 0
M  V30 5577 H 511.146 0.243241 3.25693 0
M  V30 5578 H 509.805 2.33226 2.82845 0
M  V30 5579 H 509.453 1.01678 4.92616 0
M  V30 5580 H 509.153 2.75267 5.19136 0
M  V30 5581 H 510.677 2.01638 5.76346 0
M  V30 5582 H 512.091 3.76966 4.31937 0
M  V30 5583 H 510.488 4.48677 3.98509 0
M  V30 5584 H 511.558 4.07122 2.634 0
M  V30 5585 N 512.901 -0.976442 1.23707 0
M  V30 5586 C 514.317 -1.24341 1.00058 0
M  V30 5587 C 514.517 -1.99315 -0.295932 0
M  V30 5588 O 513.573 -2.3123 -1.01435 0
M  V30 5589 C 514.886 -2.03909 2.21001 0
M  V30 5590 C 516.434 -2.17034 2.25534 0
M  V30 5591 C 516.909 -2.99994 3.46075 0
M  V30 5592 N 518.4 -3.07578 3.46338 0
M  V30 5593 C 519.135 -3.72104 4.36264 0
M  V30 5594 N 518.631 -4.3842 5.36432 0
M  V30 5595 N 520.424 -3.69029 4.23998 0
M  V30 5596 H 512.575 -0.47428 2.07037 0
M  V30 5597 H 514.838 -0.272167 0.908091 0
M  V30 5598 H 514.544 -1.56198 3.15111 0
M  V30 5599 H 514.418 -3.04654 2.22409 0
M  V30 5600 H 516.805 -2.63951 1.31961 0
M  V30 5601 H 516.886 -1.15664 2.28156 0
M  V30 5602 H 516.53 -2.53772 4.39957 0
M  V30 5603 H 516.46 -4.01541 3.40694 0
M  V30 5604 H 518.951 -2.60397 2.73865 0
M  V30 5605 H 519.264 -4.85447 6.013 0
M  V30 5606 H 517.609 -4.37116 5.40328 0
M  V30 5607 H 520.8 -3.16392 3.44984 0
M  V30 5608 H 520.973 -4.19034 4.94282 0
M  V30 5609 N 514.379 -1.04941 -1.1758 0
M  V30 5610 C 515.656 -0.671918 -1.83697 0
M  V30 5611 C 516.036 0.847929 -1.93322 0
M  V30 5612 O 515.384 1.75287 -1.46583 0
M  V30 5613 C 515.594 -1.35797 -3.21497 0
M  V30 5614 C 516.942 -1.4944 -3.97433 0
M  V30 5615 O 517.966 -1.31678 -3.30967 0
M  V30 5616 O 516.825 -1.78463 -5.1654 0
M  V30 5617 H 513.919 -0.236212 -0.792548 0
M  V30 5618 H 516.465 -1.14884 -1.24899 0
M  V30 5619 H 515.237 -2.39498 -3.09446 0
M  V30 5620 H 514.86 -0.870236 -3.8796 0
M  V30 5621 N 515.857 1.33968 -0.830081 0
M  V30 5622 C 516.804 2.29387 -0.255008 0
M  V30 5623 C 517.774 1.53923 0.624243 0
M  V30 5624 O 518.959 1.82262 0.564372 0
M  V30 5625 C 516.099 3.4034 0.571209 0
M  V30 5626 C 515.212 4.30729 -0.331083 0
M  V30 5627 C 514.347 5.2879 0.505389 0
M  V30 5628 C 513.386 6.10819 -0.395843 0
M  V30 5629 N 512.523 7.00948 0.401979 0
M  V30 5630 H 517.363 2.77972 -1.07404 0
M  V30 5631 H 514.9 1.36785 -0.541133 0
M  V30 5632 H 516.858 4.03361 1.06562 0
M  V30 5633 H 515.488 2.9297 1.35529 0
M  V30 5634 H 514.54 3.68507 -0.943759 0
M  V30 5635 H 515.852 4.88181 -1.02377 0
M  V30 5636 H 515.006 5.97297 1.06399 0
M  V30 5637 H 513.745 4.71894 1.23155 0
M  V30 5638 H 512.75 5.41238 -0.966529 0
M  V30 5639 H 513.975 6.69797 -1.12023 0
M  V30 5640 H 511.921 6.46512 1.11168 0
M  V30 5641 H 511.838 7.55643 -0.232167 0
M  V30 5642 H 513.106 7.73774 0.943102 0
M  V30 5643 N 517.335 0.585699 1.46312 0
M  V30 5644 C 518.581 0.0725284 2.0267 0
M  V30 5645 C 518.914 -1.28523 1.45586 0
M  V30 5646 O 518.189 -1.84283 0.622101 0
M  V30 5647 C 518.472 0.0099788 3.60099 0
M  V30 5648 C 518.325 1.39685 4.27561 0
M  V30 5649 C 519.644 -0.689117 4.34671 0
M  V30 5650 H 516.763 0.0278307 0.736474 0
M  V30 5651 H 519.405 0.753472 1.74421 0
M  V30 5652 H 517.555 -0.56992 3.84297 0
M  V30 5653 H 519.227 2.02215 4.14617 0
M  V30 5654 H 517.47 1.96374 3.86807 0
M  V30 5655 H 518.141 1.30553 5.36339 0
M  V30 5656 H 520.617 -0.196446 4.15636 0
M  V30 5657 H 519.493 -0.701921 5.44393 0
M  V30 5658 H 519.754 -1.75101 4.05946 0
M  V30 5659 N 518.813 -1.54241 0.323641 0
M  V30 5660 C 519.761 -2.25813 -0.557804 0
M  V30 5661 C 520.755 -1.27225 -1.11849 0
M  V30 5662 O 521.961 -1.45001 -1.06652 0
M  V30 5663 H 518.336 -0.72532 -0.198532 0
M  V30 5664 H 520.307 -2.98322 0.0681112 0
M  V30 5665 C 519.056 -3.02913 -1.70701 0
M  V30 5666 H 518.379 -3.78593 -1.28482 0
M  V30 5667 H 519.819 -3.56238 -2.29935 0
M  V30 5668 C 518.278 -2.11217 -2.62467 0
M  V30 5669 O 518.808 -1.69508 -3.64184 0
M  V30 5670 N 517.014 -1.76704 -2.30703 0
M  V30 5671 H 516.561 -2.1082 -1.48029 0
M  V30 5672 H 516.519 -1.15631 -2.92364 0
M  V30 5673 N 520.291 -0.0518155 -1.57515 0
M  V30 5674 C 521.516 0.634896 -1.97443 0
M  V30 5675 C 521.941 1.63546 -0.929207 0
M  V30 5676 O 521.299 1.80981 0.107484 0
M  V30 5677 C 521.347 1.29765 -3.36442 0
M  V30 5678 O 520.451 2.41333 -3.34413 0
M  V30 5679 H 519.792 0.164994 -0.643174 0
M  V30 5680 H 522.322 -0.120407 -2.04245 0
M  V30 5681 H 522.332 1.64918 -3.73184 0
M  V30 5682 H 521.007 0.564361 -4.12053 0
M  V30 5683 H 519.584 2.08122 -3.09418 0
M  V30 5684 N 521.769 1.56035 0.221574 0
M  V30 5685 C 523.016 1.79047 0.94597 0
M  V30 5686 C 523.344 0.62057 1.84334 0
M  V30 5687 O 522.599 -0.395053 1.91671 0
M  V30 5688 C 522.898 3.07813 1.8162 0
M  V30 5689 C 522.564 4.3797 1.07206 0
M  V30 5690 C 521.226 4.73334 0.866508 0
M  V30 5691 C 523.578 5.18326 0.546565 0
M  V30 5692 C 520.906 5.8657 0.123549 0
M  V30 5693 C 523.258 6.32335 -0.18305 0
M  V30 5694 C 521.922 6.66301 -0.399861 0
M  V30 5695 H 521.192 0.655178 0.346155 0
M  V30 5696 H 523.839 1.90299 0.214146 0
M  V30 5697 H 522.144 2.91682 2.61589 0
M  V30 5698 H 523.841 3.2282 2.37884 0
M  V30 5699 H 520.431 4.10202 1.24226 0
M  V30 5700 H 524.615 4.9144 0.692847 0
M  V30 5701 H 519.871 6.11376 -0.0546591 0
M  V30 5702 H 524.045 6.9383 -0.59775 0
M  V30 5703 H 521.672 7.53889 -0.977489 0
M  V30 5704 N 523.247 -0.488276 1.49845 0
M  V30 5705 C 524.494 -1.24157 1.59973 0
M  V30 5706 C 524.822 -1.92293 0.292182 0
M  V30 5707 O 524.077 -1.81942 -0.720813 0
M  V30 5708 C 524.376 -2.32152 2.71735 0
M  V30 5709 C 524.042 -1.81387 4.12807 0
M  V30 5710 C 522.704 -1.67262 4.51195 0
M  V30 5711 C 525.056 -1.43537 5.01045 0
M  V30 5712 C 522.384 -1.13685 5.7558 0
M  V30 5713 C 524.736 -0.914081 6.25961 0
M  V30 5714 C 523.4 -0.759327 6.63167 0
M  V30 5715 H 522.67 -0.454322 0.585383 0
M  V30 5716 H 525.317 -0.540261 1.83721 0
M  V30 5717 H 523.622 -3.08122 2.42008 0
M  V30 5718 H 525.319 -2.90164 2.76778 0
M  V30 5719 H 521.909 -1.93344 3.82513 0
M  V30 5720 H 526.093 -1.53292 4.72033 0
M  V30 5721 H 521.349 -1.00426 6.03096 0
M  V30 5722 H 525.523 -0.612066 6.93705 0
M  V30 5723 H 523.15 -0.342002 7.5943 0
M  V30 5724 N 524.725 -1.39134 -0.740242 0
M  V30 5725 C 525.95 -1.39518 -1.53459 0
M  V30 5726 C 526.375 0.00968883 -1.88098 0
M  V30 5727 O 525.733 0.995312 -1.51536 0
M  V30 5728 C 525.781 -2.26981 -2.802 0
M  V30 5729 O 524.885 -1.69609 -3.75908 0
M  V30 5730 H 524.226 -0.475328 -0.463637 0
M  V30 5731 H 526.756 -1.83064 -0.913717 0
M  V30 5732 H 526.766 -2.41309 -3.28989 0
M  V30 5733 H 525.441 -3.29081 -2.5432 0
M  V30 5734 H 524.018 -1.64495 -3.34658 0
M  V30 5735 N 526.204 0.969867 -1.24223 0
M  V30 5736 C 527.432 1.74756 -1.10761 0
M  V30 5737 C 527.847 1.85713 0.340041 0
M  V30 5738 O 527.204 1.34389 1.23474 0
M  V30 5739 C 527.255 3.16915 -1.73917 0
M  V30 5740 O 526.976 3.06511 -3.13021 0
M  V30 5741 C 528.477 4.11032 -1.66036 0
M  V30 5742 H 525.697 0.548092 -0.387087 0
M  V30 5743 H 528.241 1.2178 -1.64286 0
M  V30 5744 H 526.396 3.66884 -1.244 0
M  V30 5745 H 526.81 3.96079 -3.43834 0
M  V30 5746 H 528.284 5.08446 -2.14911 0
M  V30 5747 H 528.761 4.34785 -0.621159 0
M  V30 5748 H 529.367 3.66972 -2.14969 0
M  V30 5749 N 527.682 1.05563 1.17022 0
M  V30 5750 C 528.929 0.767937 1.87374 0
M  V30 5751 C 529.257 -0.705224 1.81265 0
M  V30 5752 O 528.512 -1.5318 1.21796 0
M  V30 5753 C 528.811 1.19849 3.36706 0
M  V30 5754 C 528.477 2.6745 3.63017 0
M  V30 5755 C 527.139 3.0777 3.69907 0
M  V30 5756 C 529.491 3.62811 3.74189 0
M  V30 5757 C 526.819 4.42307 3.85463 0
M  V30 5758 C 529.171 4.97087 3.91264 0
M  V30 5759 C 527.835 5.37055 3.96394 0
M  V30 5760 H 527.105 0.281008 0.68565 0
M  V30 5761 H 529.752 1.32339 1.38415 0
M  V30 5762 H 528.057 0.562096 3.87747 0
M  V30 5763 H 529.754 0.953038 3.8951 0
M  V30 5764 H 526.344 2.35228 3.58282 0
M  V30 5765 H 530.528 3.32798 3.68183 0
M  V30 5766 H 525.784 4.72769 3.87684 0
M  V30 5767 H 529.958 5.70869 3.9885 0
M  V30 5768 H 527.585 6.41308 4.082 0
M  V30 5769 N 529.16 -1.33526 0.837174 0
M  V30 5770 C 530.107 -2.29248 0.267169 0
M  V30 5771 C 531.077 -1.54252 -0.616071 0
M  V30 5772 O 532.262 -1.82559 -0.554699 0
M  V30 5773 C 529.402 -3.40638 -0.553152 0
M  V30 5774 C 528.515 -4.30548 0.353921 0
M  V30 5775 C 527.65 -5.29051 -0.477339 0
M  V30 5776 C 526.689 -6.106 0.42823 0
M  V30 5777 N 525.826 -7.01152 -0.364801 0
M  V30 5778 H 530.666 -2.77398 1.08877 0
M  V30 5779 H 528.203 -1.36496 0.54838 0
M  V30 5780 H 530.161 -4.03921 -1.04422 0
M  V30 5781 H 528.791 -2.93685 -1.33973 0
M  V30 5782 H 527.843 -3.68001 0.963289 0
M  V30 5783 H 529.155 -4.87631 1.04964 0
M  V30 5784 H 528.309 -5.97853 -1.0323 0
M  V30 5785 H 527.048 -4.72541 -1.2065 0
M  V30 5786 H 526.053 -5.40718 0.995219 0
M  V30 5787 H 527.278 -6.69193 1.15573 0
M  V30 5788 H 525.224 -6.47092 -1.07738 0
M  V30 5789 H 525.141 -7.5551 0.272238 0
M  V30 5790 H 526.409 -7.74263 -0.902054 0
M  V30 5791 N 530.638 -0.59345 -1.46 0
M  V30 5792 C 531.548 0.135817 -2.34207 0
M  V30 5793 C 532.564 0.875008 -1.50398 0
M  V30 5794 O 533.74 0.835778 -1.83239 0
M  V30 5795 C 530.805 1.12977 -3.27776 0
M  V30 5796 C 529.866 0.394081 -4.27487 0
M  V30 5797 C 529.099 1.34068 -5.16586 0
M  V30 5798 O 529.322 2.5778 -5.08828 0
M  V30 5799 O 528.256 0.845426 -5.95933 0
M  V30 5800 H 532.082 -0.588691 -2.9794 0
M  V30 5801 H 529.667 -0.353784 -1.45151 0
M  V30 5802 H 531.549 1.70261 -3.85473 0
M  V30 5803 H 530.224 1.83556 -2.66625 0
M  V30 5804 H 529.131 -0.220869 -3.73447 0
M  V30 5805 H 530.464 -0.270939 -4.91454 0
M  V30 5806 N 532.116 1.54067 -0.331816 0
M  V30 5807 C 533.063 2.24623 0.530372 0
M  V30 5808 C 534.033 1.24009 1.10503 0
M  V30 5809 O 535.218 1.52712 1.14384 0
M  V30 5810 C 532.358 3.01374 1.68129 0
M  V30 5811 C 531.471 4.16821 1.13507 0
M  V30 5812 C 530.606 4.81085 2.25234 0
M  V30 5813 C 529.645 5.88621 1.67903 0
M  V30 5814 N 528.782 6.46713 2.73326 0
M  V30 5815 H 533.622 2.97898 -0.0778607 0
M  V30 5816 H 531.159 1.47014 -0.0501965 0
M  V30 5817 H 533.117 3.44125 2.35868 0
M  V30 5818 H 531.747 2.30419 2.26069 0
M  V30 5819 H 530.799 3.78796 0.348979 0
M  V30 5820 H 532.111 4.94203 0.675633 0
M  V30 5821 H 531.265 5.26846 3.00862 0
M  V30 5822 H 530.004 4.03102 2.74518 0
M  V30 5823 H 529.009 5.42254 0.907773 0
M  V30 5824 H 530.234 6.68506 1.19487 0
M  V30 5825 H 528.18 5.71599 3.21886 0
M  V30 5826 H 528.097 7.19532 2.3197 0
M  V30 5827 H 529.365 6.97129 3.48758 0
M  V30 5828 N 533.594 0.0601682 1.57485 0
M  V30 5829 C 534.504 -0.926121 2.15546 0
M  V30 5830 C 535.52 -1.33532 1.11558 0
M  V30 5831 O 536.696 -1.4104 1.4377 0
M  V30 5832 C 533.761 -2.17952 2.69625 0
M  V30 5833 C 532.822 -1.82783 3.88444 0
M  V30 5834 C 532.055 -3.02148 4.39935 0
M  V30 5835 O 532.278 -4.15803 3.90466 0
M  V30 5836 O 531.212 -2.82639 5.31412 0
M  V30 5837 H 535.038 -0.462289 3.00161 0
M  V30 5838 H 532.623 -0.162246 1.48516 0
M  V30 5839 H 534.505 -2.91474 3.04337 0
M  V30 5840 H 533.18 -2.63456 1.88077 0
M  V30 5841 H 532.087 -1.06549 3.58606 0
M  V30 5842 H 533.42 -1.42072 4.7125 0
M  V30 5843 N 535.072 -1.5615 -0.213296 0
M  V30 5844 C 536.297 -1.83986 -0.957282 0
M  V30 5845 C 536.722 -0.641526 -1.76822 0
M  V30 5846 O 536.08 0.409722 -1.7661 0
M  V30 5847 C 536.128 -3.09889 -1.84393 0
M  V30 5848 O 535.232 -2.89163 -2.94038 0
M  V30 5849 H 534.573 -0.606357 -0.270605 0
M  V30 5850 H 537.103 -2.03369 -0.224111 0
M  V30 5851 H 537.113 -3.40209 -2.25215 0
M  V30 5852 H 535.788 -3.96735 -1.24795 0
M  V30 5853 H 534.365 -2.70097 -2.57103 0
M  V30 5854 N 536.55 0.480323 -1.50102 0
M  V30 5855 C 537.482 1.59669 -1.64433 0
M  V30 5856 C 538.495 1.54063 -0.52615 0
M  V30 5857 O 539.684 1.59619 -0.798992 0
M  V30 5858 C 536.784 2.98527 -1.6042 0
M  V30 5859 C 535.957 3.291 -2.88117 0
M  V30 5860 C 535.016 4.47468 -2.76873 0
M  V30 5861 O 534.042 4.4823 -3.50825 0
M  V30 5862 N 535.244 5.48593 -1.89806 0
M  V30 5863 H 538.009 1.47795 -2.60723 0
M  V30 5864 H 535.57 0.66858 -1.4745 0
M  V30 5865 H 537.562 3.75666 -1.50523 0
M  V30 5866 H 536.132 3.04218 -0.719036 0
M  V30 5867 H 535.352 2.40662 -3.12211 0
M  V30 5868 H 536.64 3.46334 -3.72734 0
M  V30 5869 H 536.038 5.50791 -1.2902 0
M  V30 5870 H 534.595 6.24752 -1.85819 0
M  V30 5871 N 538.028 1.39524 0.732853 0
M  V30 5872 C 539.305 1.27373 1.48444 0
M  V30 5873 C 539.685 -0.115725 2.10783 0
M  V30 5874 O 539.033 -1.12713 1.98766 0
M  V30 5875 C 539.243 2.39966 2.53412 0
M  V30 5876 C 540.591 2.79384 3.19733 0
M  V30 5877 O 541.615 2.39431 2.63725 0
M  V30 5878 O 540.474 3.48353 4.21085 0
M  V30 5879 H 537.568 0.499272 0.659285 0
M  V30 5880 H 540.114 1.51403 0.766496 0
M  V30 5881 H 538.886 3.32845 2.05742 0
M  V30 5882 H 538.509 2.17612 3.32762 0
M  V30 5883 N 539.506 -0.963266 1.24736 0
M  V30 5884 C 540.453 -2.05857 1.04363 0
M  V30 5885 C 541.423 -1.6604 -0.0444951 0
M  V30 5886 O 542.608 -1.90477 0.110999 0
M  V30 5887 C 539.748 -3.38745 0.659235 0
M  V30 5888 C 538.861 -3.9173 1.82131 0
M  V30 5889 C 537.996 -5.12906 1.38208 0
M  V30 5890 C 537.035 -5.58098 2.51382 0
M  V30 5891 N 536.172 -6.7049 2.08295 0
M  V30 5892 H 541.012 -2.22616 1.98107 0
M  V30 5893 H 538.549 -1.09103 0.986661 0
M  V30 5894 H 540.507 -4.15107 0.417371 0
M  V30 5895 H 539.137 -3.21898 -0.241201 0
M  V30 5896 H 538.189 -3.11966 2.17672 0
M  V30 5897 H 539.501 -4.21225 2.67153 0
M  V30 5898 H 538.655 -5.96657 1.09935 0
M  V30 5899 H 537.394 -4.85105 0.502456 0
M  V30 5900 H 536.399 -4.72917 2.80409 0
M  V30 5901 H 537.624 -5.87911 3.39909 0
M  V30 5902 H 535.57 -6.44416 1.22737 0
M  V30 5903 H 535.487 -6.99458 2.86869 0
M  V30 5904 H 536.755 -7.57672 1.83175 0
M  V30 5905 N 540.985 -1.06182 -1.16461 0
M  V30 5906 C 542.213 -0.798583 -1.90867 0
M  V30 5907 C 542.628 0.646921 -1.77371 0
M  V30 5908 O 541.985 1.44279 -1.11758 0
M  V30 5909 C 542.036 -1.18258 -3.4161 0
M  V30 5910 O 541.757 -2.57135 -3.54701 0
M  V30 5911 C 543.258 -0.946917 -4.33069 0
M  V30 5912 H 540.478 -0.289603 -0.605286 0
M  V30 5913 H 543.022 -1.41515 -1.47627 0
M  V30 5914 H 541.177 -0.610562 -3.82558 0
M  V30 5915 H 541.591 -2.72477 -4.4817 0
M  V30 5916 H 543.065 -1.26523 -5.37304 0
M  V30 5917 H 543.542 0.117406 -4.39043 0
M  V30 5918 H 544.148 -1.50326 -3.97847 0
M  V30 5919 N 542.463 1.3308 -0.844243 0
M  V30 5920 C 543.393 2.3161 -0.296493 0
M  V30 5921 C 544.374 1.59215 0.598707 0
M  V30 5922 O 545.559 1.87077 0.521134 0
M  V30 5923 C 542.689 3.43313 0.524762 0
M  V30 5924 C 541.643 4.27115 -0.275106 0
M  V30 5925 C 540.969 5.30483 0.670236 0
M  V30 5926 C 542.269 5.00443 -1.49514 0
M  V30 5927 H 543.963 2.77672 -1.11976 0
M  V30 5928 H 541.509 1.33496 -0.539899 0
M  V30 5929 H 543.462 4.11273 0.918298 0
M  V30 5930 H 542.186 2.95952 1.3813 0
M  V30 5931 H 540.845 3.60787 -0.650267 0
M  V30 5932 H 540.493 4.79379 1.52332 0
M  V30 5933 H 540.193 5.87435 0.139123 0
M  V30 5934 H 541.717 6.01308 1.06117 0
M  V30 5935 H 543.131 5.61141 -1.17447 0
M  V30 5936 H 541.528 5.67071 -1.96343 0
M  V30 5937 H 542.598 4.28906 -2.26202 0
M  V30 5938 N 543.941 0.601185 1.45683 0
M  V30 5939 C 545.166 0.0982245 2.07167 0
M  V30 5940 C 545.591 -1.20546 1.44396 0
M  V30 5941 O 544.949 -1.73247 0.534347 0
M  V30 5942 C 544.997 -0.0346976 3.60583 0
M  V30 5943 O 544.101 -1.08657 3.97828 0
M  V30 5944 H 543.442 0.0711618 0.660176 0
M  V30 5945 H 545.972 0.829376 1.87036 0
M  V30 5946 H 545.982 -0.234969 4.07323 0
M  V30 5947 H 544.657 0.917265 4.05659 0
M  V30 5948 H 543.234 -0.863275 3.6277 0
M  V30 5949 N 545.419 -1.53889 0.339982 0
M  V30 5950 C 546.349 -2.27843 -0.510856 0
M  V30 5951 C 547.33 -1.29267 -1.10563 0
M  V30 5952 O 548.515 -1.58104 -1.12768 0
M  V30 5953 C 545.645 -3.04857 -1.66372 0
M  V30 5954 C 544.599 -4.10907 -1.19746 0
M  V30 5955 C 543.925 -4.75855 -2.43857 0
M  V30 5956 C 545.225 -5.21435 -0.300501 0
M  V30 5957 H 546.919 -2.99212 0.106067 0
M  V30 5958 H 544.465 -1.43904 0.0524533 0
M  V30 5959 H 546.418 -3.5533 -2.26537 0
M  V30 5960 H 545.142 -2.31133 -2.30749 0
M  V30 5961 H 543.801 -3.61342 -0.618654 0
M  V30 5962 H 543.449 -3.9873 -3.06633 0
M  V30 5963 H 543.149 -5.47502 -2.13343 0
M  V30 5964 H 544.673 -5.2911 -3.04754 0
M  V30 5965 H 546.087 -5.67565 -0.80889 0
M  V30 5966 H 544.484 -6.00036 -0.0874076 0
M  V30 5967 H 545.554 -4.80328 0.664321 0
M  V30 5968 N 546.897 -0.0685191 -1.57451 0
M  V30 5969 C 548.308 0.464634 -1.80826 0
M  V30 5970 C 548.659 1.69847 -0.982169 0
M  V30 5971 O 547.784 2.15439 -0.203734 0
M  V30 5972 C 548.379 0.849721 -3.27971 0
M  V30 5973 C 546.938 1.32776 -3.52204 0
M  V30 5974 C 546.085 0.311332 -2.75547 0
M  V30 5975 H 549.036 -0.294248 -1.55948 0
M  V30 5976 H 549.057 1.71138 -3.39841 0
M  V30 5977 H 548.569 -0.0484736 -3.8807 0
M  V30 5978 H 546.67 2.24456 -2.97406 0
M  V30 5979 H 546.783 1.30794 -4.60901 0
M  V30 5980 H 545.147 0.787915 -2.42206 0
M  V30 5981 H 545.93 -0.579078 -3.38381 0
M  V30 5982 N 548.375 1.56261 0.205012 0
M  V30 5983 C 549.285 1.96944 1.27476 0
M  V30 5984 C 550.301 0.875636 1.50362 0
M  V30 5985 O 551.477 1.18058 1.6317 0
M  V30 5986 C 548.542 2.29219 2.60115 0
M  V30 5987 C 547.603 3.52255 2.45387 0
M  V30 5988 C 546.836 3.8298 3.71701 0
M  V30 5989 O 547.059 3.15138 4.75441 0
M  V30 5990 O 545.993 4.76435 3.67823 0
M  V30 5991 H 549.819 2.88144 0.959527 0
M  V30 5992 H 547.404 1.43686 0.409217 0
M  V30 5993 H 549.286 2.51098 3.3842 0
M  V30 5994 H 547.961 1.4119 2.91285 0
M  V30 5995 H 546.868 3.35635 1.65227 0
M  V30 5996 H 548.201 4.40719 2.19152 0
M  V30 5997 N 549.853 -0.472356 1.50355 0
M  V30 5998 C 550.783 -1.57859 1.72055 0
M  V30 5999 C 551.764 -1.60283 0.569505 0
M  V30 6000 O 552.949 -1.7657 0.808503 0
M  V30 6001 C 550.079 -2.96191 1.81351 0
M  V30 6002 C 549.033 -3.08633 2.96529 0
M  V30 6003 C 548.359 -4.486 2.90968 0
M  V30 6004 C 549.659 -2.85969 4.37057 0
M  V30 6005 H 551.353 -1.39953 2.64676 0
M  V30 6006 H 548.899 -0.671846 1.27367 0
M  V30 6007 H 550.852 -3.73507 1.95117 0
M  V30 6008 H 549.576 -3.15251 0.853502 0
M  V30 6009 H 548.235 -2.33749 2.82413 0
M  V30 6010 H 547.883 -4.64577 1.92815 0
M  V30 6011 H 547.583 -4.57861 3.68289 0
M  V30 6012 H 549.107 -5.27938 3.0678 0
M  V30 6013 H 550.521 -3.53036 4.51706 0
M  V30 6014 H 548.918 -3.06677 5.15819 0
M  V30 6015 H 549.988 -1.81838 4.49514 0
M  V30 6016 N 551.331 -1.39911 -0.725443 0
M  V30 6017 C 552.241 -1.41688 -1.8698 0
M  V30 6018 C 553.257 -0.310579 -1.71206 0
M  V30 6019 O 554.433 -0.55359 -1.93642 0
M  V30 6020 C 551.498 -1.26811 -3.22676 0
M  V30 6021 C 550.559 -2.47497 -3.50776 0
M  V30 6022 C 549.792 -2.3332 -4.79997 0
M  V30 6023 O 550.015 -1.34175 -5.54394 0
M  V30 6024 O 548.949 -3.22498 -5.08211 0
M  V30 6025 H 552.775 -2.38171 -1.88436 0
M  V30 6026 H 550.36 -1.21128 -0.874548 0
M  V30 6027 H 552.242 -1.20684 -4.03749 0
M  V30 6028 H 550.917 -0.334289 -3.21969 0
M  V30 6029 H 549.824 -2.59201 -2.69751 0
M  V30 6030 H 551.157 -3.39606 -3.5627 0
M  V30 6031 N 552.809 0.956637 -1.25245 0
M  V30 6032 C 553.741 2.05628 -1.01242 0
M  V30 6033 C 554.754 1.62785 0.0219579 0
M  V30 6034 O 555.943 1.77184 -0.216365 0
M  V30 6035 C 553.043 3.35069 -0.508161 0
M  V30 6036 C 552.216 4.06761 -1.60823 0
M  V30 6037 C 551.275 5.14473 -1.1047 0
M  V30 6038 O 550.301 5.40033 -1.79868 0
M  V30 6039 N 551.503 5.80474 0.0550773 0
M  V30 6040 H 554.268 2.2679 -1.95925 0
M  V30 6041 H 551.829 1.12505 -1.16423 0
M  V30 6042 H 553.821 4.044 -0.155819 0
M  V30 6043 H 552.391 3.10694 0.344683 0
M  V30 6044 H 551.611 3.31555 -2.13224 0
M  V30 6045 H 552.899 4.51418 -2.34733 0
M  V30 6046 H 552.297 5.62125 0.635004 0
M  V30 6047 H 550.854 6.50868 0.348469 0
M  V30 6048 N 554.287 1.06798 1.15896 0
M  V30 6049 C 555.219 0.641263 2.20046 0
M  V30 6050 C 556.232 -0.303355 1.59949 0
M  V30 6051 O 557.421 -0.0935478 1.78255 0
M  V30 6052 C 554.521 -0.0794029 3.38807 0
M  V30 6053 C 553.694 0.879986 4.28457 0
M  V30 6054 C 552.753 0.197638 5.25829 0
M  V30 6055 O 551.779 0.836913 5.63014 0
M  V30 6056 N 552.981 -1.05886 5.70761 0
M  V30 6057 H 555.746 1.53718 2.57276 0
M  V30 6058 H 553.307 0.951951 1.30956 0
M  V30 6059 H 555.299 -0.546418 4.00994 0
M  V30 6060 H 553.869 -0.877193 3.0004 0
M  V30 6061 H 553.089 1.52625 3.63454 0
M  V30 6062 H 554.377 1.53065 4.8523 0
M  V30 6063 H 553.775 -1.59828 5.42652 0
M  V30 6064 H 552.332 -1.46965 6.35015 0
M  V30 6065 N 555.766 -1.3263 0.851289 0
M  V30 6066 C 556.698 -2.27824 0.250757 0
M  V30 6067 C 557.711 -1.52285 -0.575598 0
M  V30 6068 O 558.9 -1.73946 -0.400638 0
M  V30 6069 C 556 -3.3232 -0.664571 0
M  V30 6070 C 555.173 -4.37221 0.125187 0
M  V30 6071 C 554.232 -5.21314 -0.715385 0
M  V30 6072 O 553.258 -5.69002 -0.150111 0
M  V30 6073 N 554.46 -5.43823 -2.03069 0
M  V30 6074 H 557.225 -2.79997 1.06873 0
M  V30 6075 H 554.786 -1.45455 0.710943 0
M  V30 6076 H 556.778 -3.85486 -1.23216 0
M  V30 6077 H 555.348 -2.80331 -1.38323 0
M  V30 6078 H 554.568 -3.84384 0.874199 0
M  V30 6079 H 555.856 -5.04399 0.667774 0
M  V30 6080 H 555.254 -5.06803 -2.51332 0
M  V30 6081 H 553.811 -5.99998 -2.54648 0
M  V30 6082 N 557.244 -0.608902 -1.45362 0
M  V30 6083 C 558.154 0.110969 -2.34337 0
M  V30 6084 C 559.17 0.859007 -1.51318 0
M  V30 6085 O 560.346 0.816296 -1.84116 0
M  V30 6086 C 557.411 1.09494 -3.28956 0
M  V30 6087 C 556.472 0.348718 -4.27881 0
M  V30 6088 C 555.705 1.28582 -5.17979 0
M  V30 6089 O 555.928 2.52369 -5.11533 0
M  V30 6090 O 554.862 0.782172 -5.96796 0
M  V30 6091 H 558.688 -0.620258 -2.97299 0
M  V30 6092 H 556.273 -0.36916 -1.44767 0
M  V30 6093 H 558.155 1.66163 -3.87257 0
M  V30 6094 H 556.83 1.80717 -2.68557 0
M  V30 6095 H 555.737 -0.260465 -3.73192 0
M  V30 6096 H 557.07 -0.323049 -4.91139 0
M  V30 6097 N 558.722 1.53707 -0.348139 0
M  V30 6098 C 559.654 2.22725 0.540946 0
M  V30 6099 C 560.667 1.2354 1.06027 0
M  V30 6100 O 561.856 1.49867 0.96964 0
M  V30 6101 C 558.956 2.89756 1.75768 0
M  V30 6102 C 558.129 4.15297 1.37285 0
M  V30 6103 C 557.188 4.65697 2.44976 0
M  V30 6104 O 556.214 5.29798 2.08092 0
M  V30 6105 N 557.416 4.42017 3.763 0
M  V30 6106 H 560.181 2.99658 -0.0501592 0
M  V30 6107 H 557.742 1.60979 -0.17248 0
M  V30 6108 H 559.734 3.20388 2.47252 0
M  V30 6109 H 558.304 2.16382 2.25605 0
M  V30 6110 H 557.524 3.9116 0.488584 0
M  V30 6111 H 558.812 4.96948 1.09179 0
M  V30 6112 H 558.21 3.9076 4.09051 0
M  V30 6113 H 556.767 4.77242 4.4394 0
M  V30 6114 N 560.2 0.0768682 1.57412 0
M  V30 6115 C 561.132 -0.918248 2.10002 0
M  V30 6116 C 562.145 -1.25808 1.03325 0
M  V30 6117 O 563.334 -1.21438 1.30824 0
M  V30 6118 C 560.434 -2.23263 2.54964 0
M  V30 6119 C 559.607 -2.07088 3.8527 0
M  V30 6120 C 558.666 -3.21876 4.16272 0
M  V30 6121 O 557.692 -2.96643 4.8579 0
M  V30 6122 N 558.894 -4.4712 3.70221 0
M  V30 6123 H 561.659 -0.469209 2.96004 0
M  V30 6124 H 559.22 -0.108725 1.61535 0
M  V30 6125 H 561.212 -2.9897 2.72762 0
M  V30 6126 H 559.782 -2.59649 1.74072 0
M  V30 6127 H 559.002 -1.15818 3.76802 0
M  V30 6128 H 560.29 -1.93537 4.70554 0
M  V30 6129 H 559.688 -4.70506 3.1407 0
M  V30 6130 H 558.245 -5.19837 3.93209 0
M  V30 6131 N 561.678 -1.56367 -0.196722 0
M  V30 6132 C 562.61 -1.90941 -1.26784 0
M  V30 6133 C 563.623 -0.799928 -1.41792 0
M  V30 6134 O 564.812 -1.07833 -1.42247 0
M  V30 6135 C 561.912 -2.12477 -2.6402 0
M  V30 6136 C 561.085 -3.43616 -2.70641 0
M  V30 6137 C 560.144 -3.54284 -3.89062 0
M  V30 6138 O 559.17 -4.2712 -3.76241 0
M  V30 6139 N 560.372 -2.87252 -5.04447 0
M  V30 6140 H 563.137 -2.83417 -0.974417 0
M  V30 6141 H 560.698 -1.57215 -0.386649 0
M  V30 6142 H 562.69 -2.16904 -3.41665 0
M  V30 6143 H 561.26 -1.26508 -2.85857 0
M  V30 6144 H 560.48 -3.51072 -1.79283 0
M  V30 6145 H 561.768 -4.29958 -2.72054 0
M  V30 6146 H 561.166 -2.27901 -5.17762 0
M  V30 6147 H 559.723 -2.97308 -5.80044 0
M  V30 6148 N 563.156 0.464375 -1.50603 0
M  V30 6149 C 564.066 1.58723 -1.72754 0
M  V30 6150 C 565.082 1.62925 -0.610844 0
M  V30 6151 O 566.258 1.8067 -0.889963 0
M  V30 6152 C 563.323 2.94897 -1.82309 0
M  V30 6153 C 562.384 3.0103 -3.06071 0
M  V30 6154 C 561.617 4.30708 -3.1516 0
M  V30 6155 O 561.84 5.2159 -2.30868 0
M  V30 6156 O 560.774 4.42571 -4.0794 0
M  V30 6157 H 564.6 1.42954 -2.67951 0
M  V30 6158 H 562.185 0.644579 -1.3478 0
M  V30 6159 H 564.067 3.75764 -1.90735 0
M  V30 6160 H 562.742 3.10851 -0.902967 0
M  V30 6161 H 561.649 2.19217 -3.03142 0
M  V30 6162 H 562.982 2.90014 -3.97684 0
M  V30 6163 N 564.634 1.40294 0.718013 0
M  V30 6164 C 565.566 1.36281 1.84283 0
M  V30 6165 C 566.579 0.268621 1.60569 0
M  V30 6166 O 567.768 0.528798 1.70487 0
M  V30 6167 C 564.868 1.09741 3.2064 0
M  V30 6168 C 564.041 2.30767 3.71571 0
M  V30 6169 C 563.1 2.00424 4.86535 0
M  V30 6170 O 562.126 2.73268 4.99313 0
M  V30 6171 N 563.328 0.980724 5.72156 0
M  V30 6172 H 566.093 2.3322 1.88225 0
M  V30 6173 H 563.654 1.34616 0.899453 0
M  V30 6174 H 565.646 0.874322 3.95143 0
M  V30 6175 H 564.216 0.214771 3.11861 0
M  V30 6176 H 563.436 2.68921 2.88228 0
M  V30 6177 H 564.724 3.11455 4.02335 0
M  V30 6178 H 564.122 0.377375 5.6444 0
M  V30 6179 H 562.679 0.817538 6.46653 0
M  V30 6180 N 566.112 -0.949982 1.2575 0
M  V30 6181 C 567.044 -2.05088 1.02331 0
M  V30 6182 C 568.057 -1.62795 -0.0133247 0
M  V30 6183 O 569.246 -1.77067 0.225759 0
M  V30 6184 C 566.346 -3.34794 0.525924 0
M  V30 6185 C 565.519 -4.05903 1.62978 0
M  V30 6186 C 564.578 -5.1388 1.13196 0
M  V30 6187 O 563.604 -5.39072 1.82729 0
M  V30 6188 N 564.806 -5.80495 -0.0242926 0
M  V30 6189 H 567.571 -2.25747 1.97125 0
M  V30 6190 H 565.132 -1.11886 1.17018 0
M  V30 6191 H 567.124 -4.04312 0.177263 0
M  V30 6192 H 565.694 -3.10872 -0.328202 0
M  V30 6193 H 564.914 -3.3042 2.1498 0
M  V30 6194 H 566.202 -4.50166 2.37124 0
M  V30 6195 H 565.6 -5.62454 -0.605184 0
M  V30 6196 H 564.157 -6.51043 -0.313947 0
M  V30 6197 N 567.59 -1.07411 -1.15328 0
M  V30 6198 C 568.522 -0.652924 -2.19703 0
M  V30 6199 C 569.535 0.294869 -1.60107 0
M  V30 6200 O 570.724 0.0840932 -1.78302 0
M  V30 6201 C 567.824 0.061434 -3.38844 0
M  V30 6202 C 566.997 -0.902696 -4.27984 0
M  V30 6203 C 566.056 -0.225521 -5.25717 0
M  V30 6204 O 565.082 -0.86676 -5.62562 0
M  V30 6205 N 566.284 1.02858 -5.71315 0
M  V30 6206 H 569.049 -1.55081 -2.56457 0
M  V30 6207 H 566.61 -0.958883 -1.30449 0
M  V30 6208 H 568.602 0.525145 -4.01278 0
M  V30 6209 H 567.172 0.861269 -3.00501 0
M  V30 6210 H 566.392 -1.54551 -3.6264 0
M  V30 6211 H 567.68 -1.55636 -4.84412 0
M  V30 6212 H 567.078 1.56948 -5.43492 0
M  V30 6213 H 565.635 1.43596 -6.35786 0
M  V30 6214 N 569.068 1.32177 -0.85831 0
M  V30 6215 C 569.978 2.32561 -0.308606 0
M  V30 6216 C 570.994 1.64209 0.575462 0
M  V30 6217 O 572.17 1.95719 0.474961 0
M  V30 6218 C 569.235 3.43207 0.490909 0
M  V30 6219 C 568.296 4.27243 -0.419733 0
M  V30 6220 C 567.529 5.32605 0.341719 0
M  V30 6221 O 567.752 5.48332 1.57125 0
M  V30 6222 O 566.686 6.0118 -0.294379 0
M  V30 6223 H 570.512 2.81477 -1.14037 0
M  V30 6224 H 568.097 1.35866 -0.621349 0
M  V30 6225 H 569.979 4.10677 0.944574 0
M  V30 6226 H 568.654 2.96474 1.29941 0
M  V30 6227 H 567.561 3.62569 -0.921652 0
M  V30 6228 H 568.894 4.7751 -1.19352 0
M  V30 6229 N 570.547 0.616602 1.45037 0
M  V30 6230 C 571.479 -0.135186 2.28801 0
M  V30 6231 C 572.492 -0.82303 1.40464 0
M  V30 6232 O 573.681 -0.686909 1.64754 0
M  V30 6233 C 570.781 -1.21292 3.16451 0
M  V30 6234 C 569.954 -0.61043 4.3312 0
M  V30 6235 C 569.013 -1.58022 5.01912 0
M  V30 6236 O 568.039 -1.10301 5.58411 0
M  V30 6237 N 569.241 -2.91464 5.02025 0
M  V30 6238 H 572.006 0.583612 2.93963 0
M  V30 6239 H 569.567 0.456723 1.55324 0
M  V30 6240 H 571.559 -1.86169 3.59337 0
M  V30 6241 H 570.129 -1.83412 2.53138 0
M  V30 6242 H 569.349 0.216638 3.93604 0
M  V30 6243 H 570.637 -0.188293 5.08451 0
M  V30 6244 H 570.035 -3.32829 4.57429 0
M  V30 6245 H 568.592 -3.51741 5.48745 0
M  V30 6246 N 572.025 -1.5352 0.356285 0
M  V30 6247 C 573.271 -2.01414 -0.236653 0
M  V30 6248 C 573.604 -1.24339 -1.49176 0
M  V30 6249 O 572.879 -0.334496 -1.91602 0
M  V30 6250 C 573.162 -3.56059 -0.537982 0
M  V30 6251 C 573.015 -4.43835 0.730112 0
M  V30 6252 C 574.334 -4.19127 -1.34239 0
M  V30 6253 H 571.453 -0.732135 -0.0845386 0
M  V30 6254 H 574.095 -1.83854 0.479341 0
M  V30 6255 H 572.245 -3.71153 -1.14795 0
M  V30 6256 H 573.917 -4.40555 1.36782 0
M  V30 6257 H 572.16 -4.1218 1.3524 0
M  V30 6258 H 572.831 -5.49958 0.474358 0
M  V30 6259 H 575.307 -4.07809 -0.826498 0
M  V30 6260 H 574.183 -5.27378 -1.52198 0
M  V30 6261 H 574.444 -3.74581 -2.34822 0
M  V30 6262 N 573.503 -0.0852151 -1.57369 0
M  V30 6263 C 574.435 0.907099 -2.10486 0
M  V30 6264 C 575.448 1.25259 -1.03991 0
M  V30 6265 O 576.637 1.20743 -1.31467 0
M  V30 6266 C 573.737 2.21908 -2.56145 0
M  V30 6267 C 572.91 2.05042 -3.86363 0
M  V30 6268 C 571.969 3.19664 -4.17973 0
M  V30 6269 O 570.995 2.94062 -4.87356 0
M  V30 6270 N 572.197 4.45151 -3.72587 0
M  V30 6271 H 574.962 0.453505 -2.96249 0
M  V30 6272 H 572.523 0.100157 -1.6159 0
M  V30 6273 H 574.515 2.97519 -2.74343 0
M  V30 6274 H 573.085 2.58723 -1.75446 0
M  V30 6275 H 572.305 1.13819 -3.77411 0
M  V30 6276 H 573.593 1.91039 -4.71574 0
M  V30 6277 H 572.991 4.68834 -3.16561 0
M  V30 6278 H 571.548 5.17744 -3.9596 0
M  V30 6279 N 574.981 1.5647 0.188427 0
M  V30 6280 C 575.914 1.90146 1.26173 0
M  V30 6281 C 576.892 0.762294 1.43624 0
M  V30 6282 O 578.076 1.01395 1.58907 0
M  V30 6283 C 575.203 2.13748 2.62735 0
M  V30 6284 C 574.249 3.36448 2.62116 0
M  V30 6285 S 575.082 4.91364 2.12889 0
M  V30 6286 C 576.238 5.18041 3.51261 0
M  V30 6287 H 576.471 2.80886 0.974192 0
M  V30 6288 H 574.004 1.49335 0.392226 0
M  V30 6289 H 575.962 2.28028 3.41341 0
M  V30 6290 H 574.623 1.23747 2.88696 0
M  V30 6291 H 573.816 3.50109 3.62546 0
M  V30 6292 H 573.418 3.21196 1.91596 0
M  V30 6293 H 575.71 5.0897 4.47164 0
M  V30 6294 H 576.653 6.19764 3.42489 0
M  V30 6295 H 577.061 4.45657 3.46482 0
M  V30 6296 N 576.459 -0.456382 1.50847 0
M  V30 6297 C 577.389 -1.56025 1.73719 0
M  V30 6298 C 578.37 -1.5967 0.586473 0
M  V30 6299 O 579.555 -1.75702 0.827185 0
M  V30 6300 C 576.685 -2.94251 1.84483 0
M  V30 6301 C 575.639 -3.05471 2.99786 0
M  V30 6302 C 574.965 -4.45489 2.95709 0
M  V30 6303 C 576.265 -2.81318 4.40065 0
M  V30 6304 H 577.959 -1.37138 2.66146 0
M  V30 6305 H 575.505 -0.658299 1.28072 0
M  V30 6306 H 577.458 -3.71417 1.99067 0
M  V30 6307 H 576.182 -3.14328 0.886891 0
M  V30 6308 H 574.841 -2.30741 2.84876 0
M  V30 6309 H 574.489 -4.62505 1.97732 0
M  V30 6310 H 574.189 -4.53929 3.73125 0
M  V30 6311 H 575.713 -5.24655 3.12362 0
M  V30 6312 H 577.127 -3.48226 4.55425 0
M  V30 6313 H 575.524 -3.01188 5.19043 0
M  V30 6314 H 576.594 -1.7706 4.51418 0
M  V30 6315 N 577.937 -1.40673 -0.710563 0
M  V30 6316 C 578.9 -1.4108 -1.80635 0
M  V30 6317 C 579.9 -0.303783 -1.57904 0
M  V30 6318 O 581.09 -0.562937 -1.64853 0
M  V30 6319 C 578.222 -1.20748 -3.18799 0
M  V30 6320 H 579.415 -2.38612 -1.81671 0
M  V30 6321 H 576.968 -1.26595 -0.916704 0
M  V30 6322 H 577.703 -0.239964 -3.23411 0
M  V30 6323 H 577.488 -2.00941 -3.36698 0
M  V30 6324 H 578.978 -1.23833 -3.98817 0
M  V30 6325 N 579.415 0.9433 -1.26252 0
M  V30 6326 C 580.826 1.50404 -1.10614 0
M  V30 6327 C 581.177 1.93666 0.31429 0
M  V30 6328 O 580.302 1.79709 1.20555 0
M  V30 6329 C 580.897 2.73336 -2.00182 0
M  V30 6330 C 579.456 3.25686 -1.88695 0
M  V30 6331 C 578.603 1.98474 -1.93658 0
M  V30 6332 H 581.554 0.759006 -1.39373 0
M  V30 6333 H 581.575 3.47567 -1.54847 0
M  V30 6334 H 581.087 2.41818 -3.03555 0
M  V30 6335 H 579.188 3.61998 -0.882489 0
M  V30 6336 H 579.301 3.92935 -2.74115 0
M  V30 6337 H 577.665 2.14278 -1.37684 0
M  V30 6338 H 578.448 1.6929 -2.98657 0
M  V30 6339 N 580.893 1.08022 1.14757 0
M  V30 6340 C 581.823 0.728248 2.21853 0
M  V30 6341 C 582.804 -0.287486 1.67653 0
M  V30 6342 O 583.989 -0.158727 1.9355 0
M  V30 6343 C 581.119 0.132549 3.47047 0
M  V30 6344 C 580.073 1.07619 4.14249 0
M  V30 6345 C 579.399 0.342907 5.33599 0
M  V30 6346 C 580.699 2.41268 4.63235 0
M  V30 6347 H 582.393 1.62365 2.51551 0
M  V30 6348 H 579.939 0.782125 1.20908 0
M  V30 6349 H 581.892 -0.125665 4.21213 0
M  V30 6350 H 580.616 -0.797971 3.16702 0
M  V30 6351 H 579.275 1.31944 3.42033 0
M  V30 6352 H 578.923 -0.59129 4.99513 0
M  V30 6353 H 578.623 0.971955 5.79506 0
M  V30 6354 H 580.147 0.0926538 6.1053 0
M  V30 6355 H 581.561 2.21232 5.28894 0
M  V30 6356 H 579.958 2.9983 5.19829 0
M  V30 6357 H 581.028 3.03079 3.78512 0
M  V30 6358 N 582.371 -1.3172 0.865308 0
M  V30 6359 C 583.281 -2.32394 0.320935 0
M  V30 6360 C 584.297 -1.64511 -0.566746 0
M  V30 6361 O 585.473 -1.95969 -0.464575 0
M  V30 6362 C 582.538 -3.43462 -0.472701 0
M  V30 6363 C 581.599 -4.27015 0.442385 0
M  V30 6364 C 580.832 -5.32779 -0.313469 0
M  V30 6365 O 581.055 -5.49158 -1.54214 0
M  V30 6366 O 579.989 -6.01015 0.326257 0
M  V30 6367 H 583.815 -2.80868 1.15528 0
M  V30 6368 H 581.4 -1.35535 0.628545 0
M  V30 6369 H 583.282 -4.11172 -0.922781 0
M  V30 6370 H 581.957 -2.97159 -1.28367 0
M  V30 6371 H 580.864 -3.62075 0.940866 0
M  V30 6372 H 582.197 -4.76871 1.21882 0
M  V30 6373 N 583.85 -0.624285 -1.44708 0
M  V30 6374 C 585.075 -0.131171 -2.06985 0
M  V30 6375 C 585.5 1.18234 -1.46295 0
M  V30 6376 O 584.858 1.72375 -0.561842 0
M  V30 6377 C 584.906 -0.0226724 -3.60593 0
M  V30 6378 O 584.01 1.02314 -3.99507 0
M  V30 6379 H 583.351 -0.0816556 -0.65896 0
M  V30 6380 H 585.88 -0.859027 -1.85693 0
M  V30 6381 H 585.891 0.170138 -4.07645 0
M  V30 6382 H 584.566 -0.981685 -4.04148 0
M  V30 6383 H 583.143 0.805452 -3.64097 0
M  V30 6384 O 585.367 1.53348 -0.50662 0
M  V30 6385 H 586.058 1.93698 0.00952266 0
M  V30 END ATOM
M  V30 BEGIN BOND
M  V30 END BOND
M  V30 END CTAB
M  END
$$$$
