drugbank_target|P06702 Protein S100-A9 (DB01373; DB01593; DB14487; DB14533; DB14548)
 OpenBabel12092121063D

  0  0  0     0  0            999 V3000
M  V30 BEGIN CTAB
M  V30 COUNTS 1831 1850 0 0 0
M  V30 BEGIN ATOM
M  V30 1 H -0.908 1.98254 -0.117106 0
M  V30 2 N 0 1.576 0 0
M  V30 3 C 0.933 2.03868 1.02534 0
M  V30 4 C 1.911 0.928543 1.3348 0
M  V30 5 O 3.095 1.19667 1.45644 0
M  V30 6 C 0.222 2.43627 2.35294 0
M  V30 7 C -0.732 3.65373 2.2001 0
M  V30 8 S 0.101 5.13292 1.52614 0
M  V30 9 C 1.257 5.56322 2.86805 0
M  V30 10 H 1.49 2.90518 0.631377 0
M  V30 11 H -0.977 1.52953 0.210867 0
M  V30 12 H 0.981 2.67203 3.11629 0
M  V30 13 H -0.358 1.57376 2.7183 0
M  V30 14 H -1.165 3.90944 3.18086 0
M  V30 15 H -1.563 3.418 1.51819 0
M  V30 16 H 0.729 5.58782 3.83104 0
M  V30 17 H 1.672 6.56266 2.65933 0
M  V30 18 H 2.08 4.83886 2.90714 0
M  V30 19 N 1.4781 -0.272755 1.55222 0
M  V30 20 C 2.7061 -1.02255 1.79865 0
M  V30 21 C 3.1211 -1.79924 0.572088 0
M  V30 22 O 2.4781 -1.76638 -0.458842 0
M  V30 23 C 2.5291 -1.98094 3.02392 0
M  V30 24 O 2.2501 -1.23572 4.20311 0
M  V30 25 C 3.7511 -2.84884 3.39641 0
M  V30 26 H 0.9711 -0.302057 0.599168 0
M  V30 27 H 3.5151 -0.303465 2.02236 0
M  V30 28 H 1.6701 -2.65465 2.82147 0
M  V30 29 H 2.0841 -1.88172 4.89583 0
M  V30 30 H 3.5581 -3.47927 4.28545 0
M  V30 31 H 4.0351 -3.54665 2.59055 0
M  V30 32 H 4.6411 -2.23003 3.62146 0
M  V30 33 N 2.9562 -1.48159 -0.537278 0
M  V30 34 C 4.1962 -1.57397 -1.30405 0
M  V30 35 C 4.5602 -0.239202 -1.90504 0
M  V30 36 O 5.7612 -0.206528 -2.68005 0
M  V30 37 C 4.0322 -2.6754 -2.36974 0
M  V30 38 S 5.5912 -2.96496 -3.23475 0
M  V30 39 H 2.4092 -0.555577 -0.443684 0
M  V30 40 H 5.0112 -1.85644 -0.612912 0
M  V30 41 H 3.7152 -3.63092 -1.91291 0
M  V30 42 H 3.2462 -2.41172 -3.10805 0
M  V30 43 H 5.2612 -2.35234 -4.36897 0
M  V30 44 N 4.4343 0.785586 -1.36625 0
M  V30 45 C 5.3813 1.89838 -1.31264 0
M  V30 46 C 6.3513 1.65115 -0.180633 0
M  V30 47 O 7.5363 1.87222 -0.36777 0
M  V30 48 C 4.6763 3.26706 -1.11163 0
M  V30 49 C 3.7893 3.63476 -2.33472 0
M  V30 50 C 2.9243 4.89481 -2.06353 0
M  V30 51 C 1.9633 5.18941 -3.24602 0
M  V30 52 N 1.1003 6.36131 -2.97123 0
M  V30 53 H 5.9403 1.93756 -2.26413 0
M  V30 54 H 3.4773 0.947454 -1.12524 0
M  V30 55 H 5.4353 4.05639 -0.975337 0
M  V30 56 H 4.0653 3.222 -0.196674 0
M  V30 57 H 3.1173 2.79636 -2.57891 0
M  V30 58 H 4.4293 3.81193 -3.21704 0
M  V30 59 H 3.5833 5.76288 -1.89675 0
M  V30 60 H 2.3223 4.73841 -1.15437 0
M  V30 61 H 1.3273 4.30615 -3.41834 0
M  V30 62 H 2.5523 5.36498 -4.16349 0
M  V30 63 H 0.4983 6.21875 -2.08823 0
M  V30 64 H 0.4153 6.54198 -3.78894 0
M  V30 65 H 1.6833 7.2591 -2.84033 0
M  V30 66 N 5.9124 1.20967 1.01018 0
M  V30 67 C 6.8454 0.907578 2.09376 0
M  V30 68 C 7.8234 -0.142868 1.61971 0
M  V30 69 O 9.0074 -0.0150391 1.88494 0
M  V30 70 C 6.1344 0.361791 3.36762 0
M  V30 71 C 5.1804 1.39423 4.03068 0
M  V30 72 S 6.0134 2.96159 4.4615 0
M  V30 73 C 7.1694 2.43173 5.7673 0
M  V30 74 H 7.4024 1.82519 2.34678 0
M  V30 75 H 4.9354 1.03884 1.14225 0
M  V30 76 H 6.8934 0.0534523 4.10465 0
M  V30 77 H 5.5544 -0.53443 3.0952 0
M  V30 78 H 4.7474 0.961853 4.94737 0
M  V30 79 H 4.3494 1.65038 3.35617 0
M  V30 80 H 6.6414 1.83335 6.52223 0
M  V30 81 H 7.5844 3.33264 6.24773 0
M  V30 82 H 7.9924 1.85069 5.33301 0
M  V30 83 N 7.3905 -1.2043 1.01659 0
M  V30 84 C 8.6155 -1.94318 0.724942 0
M  V30 85 C 9.0405 -1.74266 -0.708034 0
M  V30 86 O 8.3985 -1.03694 -1.48719 0
M  V30 87 C 8.4465 -3.44486 1.06591 0
M  V30 88 O 7.5505 -4.12017 0.177599 0
M  V30 89 H 6.8915 -0.60708 0.26898 0
M  V30 90 H 9.4215 -1.52861 1.35995 0
M  V30 91 H 9.4315 -3.95106 1.01762 0
M  V30 92 H 8.1065 -3.58404 2.10997 0
M  V30 93 H 6.6835 -3.71821 0.283421 0
M  V30 94 N 8.8686 -0.792821 -1.36206 0
M  V30 95 C 9.8006 -0.151469 -2.28699 0
M  V30 96 C 10.8136 0.641262 -1.49638 0
M  V30 97 O 12.0026 0.475885 -1.72039 0
M  V30 98 C 9.1026 0.808424 -3.29117 0
M  V30 99 C 8.2756 0.0650202 -4.37352 0
M  V30 100 C 7.3346 0.941358 -5.17711 0
M  V30 101 O 6.3606 0.397352 -5.67811 0
M  V30 102 N 7.5626 2.2652 -5.3448 0
M  V30 103 H 10.3276 -0.945982 -2.84379 0
M  V30 104 H 7.8886 -0.647032 -1.48409 0
M  V30 105 H 9.8806 1.3986 -3.79765 0
M  V30 106 H 8.4506 1.5038 -2.74052 0
M  V30 107 H 7.6706 -0.706255 -3.87822 0
M  V30 108 H 8.9586 -0.447847 -5.06825 0
M  V30 109 H 8.3566 2.73128 -4.95396 0
M  V30 110 H 6.9136 2.80493 -5.88359 0
M  V30 111 N 10.3467 1.47872 -0.545128 0
M  V30 112 C 11.2767 2.32661 0.197793 0
M  V30 113 C 12.2577 1.43041 0.920504 0
M  V30 114 O 13.4427 1.71912 0.90333 0
M  V30 115 C 10.5727 3.24569 1.23582 0
M  V30 116 C 9.5267 4.23333 0.630323 0
M  V30 117 C 8.8527 5.0448 1.77211 0
M  V30 118 C 10.1527 5.20704 -0.407974 0
M  V30 119 H 11.8467 2.95024 -0.510045 0
M  V30 120 H 9.3927 1.4187 -0.246731 0
M  V30 121 H 11.3457 3.8272 1.76362 0
M  V30 122 H 10.0697 2.60236 1.97344 0
M  V30 123 H 8.7287 3.6639 0.123922 0
M  V30 124 H 8.3767 4.36561 2.49847 0
M  V30 125 H 8.0767 5.71339 1.37281 0
M  V30 126 H 9.6007 5.65487 2.3034 0
M  V30 127 H 11.0147 5.7329 0.033305 0
M  V30 128 H 9.4117 5.95699 -0.725486 0
M  V30 129 H 10.4817 4.66917 -1.30828 0
M  V30 130 N 11.8248 0.280983 1.55075 0
M  V30 131 C 12.7348 -0.61388 2.26426 0
M  V30 132 C 13.7508 -1.16521 1.29224 0
M  V30 133 O 14.9268 -1.19426 1.62171 0
M  V30 134 C 11.9918 -1.7788 2.9759 0
M  V30 135 C 11.0528 -1.26355 4.10284 0
M  V30 136 C 10.2858 -2.37295 4.78045 0
M  V30 137 O 10.5088 -3.56777 4.45047 0
M  V30 138 O 9.4428 -2.05119 5.65871 0
M  V30 139 H 13.2688 -0.0356932 3.03679 0
M  V30 140 H 10.8538 0.0481686 1.49322 0
M  V30 141 H 12.7358 -2.45791 3.42293 0
M  V30 142 H 11.4108 -2.34397 2.23249 0
M  V30 143 H 10.3178 -0.550735 3.70024 0
M  V30 144 H 11.6508 -0.744065 4.86543 0
M  V30 145 N 13.3029 -1.57598 0.00835791 0
M  V30 146 C 14.7189 -1.55764 -0.347822 0
M  V30 147 C 14.9189 -1.01186 -1.74252 0
M  V30 148 O 13.9749 -0.649371 -2.44007 0
M  V30 149 C 15.2879 -2.99927 -0.215407 0
M  V30 150 C 16.8359 -3.11656 -0.289725 0
M  V30 151 C 17.3109 -4.57621 -0.18634 0
M  V30 152 N 18.8019 -4.62557 -0.243978 0
M  V30 153 C 19.5369 -5.73094 -0.18745 0
M  V30 154 N 19.0329 -6.92753 -0.0810331 0
M  V30 155 N 20.8259 -5.61588 -0.239925 0
M  V30 156 H 12.9769 -1.91411 0.92062 0
M  V30 157 H 15.2399 -0.879562 0.353659 0
M  V30 158 H 14.9459 -3.43729 0.744512 0
M  V30 159 H 14.8199 -3.63865 -0.994097 0
M  V30 160 H 17.2069 -2.67779 -1.24009 0
M  V30 161 H 17.2879 -2.5048 0.51898 0
M  V30 162 H 16.9319 -5.02174 0.760519 0
M  V30 163 H 16.8619 -5.16752 -1.01364 0
M  V30 164 H 19.3529 -3.76481 -0.327217 0
M  V30 165 H 19.6659 -7.72787 -0.0440241 0
M  V30 166 H 18.0109 -6.94984 -0.0465419 0
M  V30 167 H 21.2019 -4.66996 -0.321317 0
M  V30 168 H 21.3749 -6.47714 -0.192407 0
M  V30 169 N 14.781 0.264519 -1.55364 0
M  V30 170 C 15.729 1.34702 -1.89626 0
M  V30 171 C 16.723 1.50712 -0.773459 0
M  V30 172 O 17.929 1.52395 -0.957897 0
M  V30 173 H 14.304 0.450682 -0.601988 0
M  V30 174 H 16.275 1.0306 -2.80038 0
M  V30 175 C 15.024 2.6989 -2.19214 0
M  V30 176 H 14.347 2.58365 -3.05103 0
M  V30 177 H 15.787 3.44553 -2.47102 0
M  V30 178 C 14.246 3.21637 -1.00254 0
M  V30 179 O 14.776 4.00973 -0.241501 0
M  V30 180 N 12.982 2.7943 -0.797938 0
M  V30 181 H 12.529 2.15026 -1.4185 0
M  V30 182 H 12.487 3.144 -0.00363422 0
M  V30 183 N 16.2591 1.48442 0.529413 0
M  V30 184 C 17.5081 1.55742 1.28169 0
M  V30 185 C 17.8211 0.236511 1.94165 0
M  V30 186 O 19.0271 0.187761 2.7085 0
M  V30 187 C 17.4831 2.74667 2.32564 0
M  V30 188 C 17.0911 4.13402 1.72636 0
M  V30 189 C 18.8351 2.9128 3.08798 0
M  V30 190 C 16.7421 5.23587 2.74975 0
M  V30 191 H 15.6721 0.579796 0.48203 0
M  V30 192 H 18.3231 1.74776 0.559056 0
M  V30 193 H 16.7051 2.49067 3.07866 0
M  V30 194 H 17.8791 4.49022 1.03519 0
M  V30 195 H 16.1941 4.0191 1.08892 0
M  V30 196 H 18.7911 3.70767 3.85274 0
M  V30 197 H 19.1341 2.00757 3.64695 0
M  V30 198 H 19.6671 3.16782 2.40611 0
M  V30 199 H 16.4061 6.16076 2.23897 0
M  V30 200 H 15.9261 4.92454 3.42417 0
M  V30 201 H 17.6051 5.51724 3.37949 0
M  V30 202 N 17.7372 -0.778329 1.37039 0
M  V30 203 C 18.6472 -1.92253 1.34446 0
M  V30 204 C 19.6632 -1.72267 0.244991 0
M  V30 205 O 20.8392 -1.95615 0.479258 0
M  V30 206 C 17.9042 -3.27282 1.144 0
M  V30 207 C 16.9652 -3.59969 2.33925 0
M  V30 208 C 16.1982 -4.88555 2.14825 0
M  V30 209 O 16.4212 -5.59113 1.12912 0
M  V30 210 O 15.3552 -5.20153 3.02861 0
M  V30 211 H 19.1812 -1.97392 2.30803 0
M  V30 212 H 16.7662 -0.920154 1.17701 0
M  V30 213 H 18.6482 -4.08062 1.05182 0
M  V30 214 H 17.3232 -3.23011 0.211124 0
M  V30 215 H 16.2302 -2.7945 2.48714 0
M  V30 216 H 17.5632 -3.68976 3.25757 0
M  V30 217 N 19.2153 -1.21501 -1.00376 0
M  V30 218 C 20.4433 -1.059 -1.77744 0
M  V30 219 C 20.8583 0.391125 -1.84704 0
M  V30 220 O 20.2153 1.27133 -1.30933 0
M  V30 221 C 20.2663 -1.65111 -3.21591 0
M  V30 222 O 19.9873 -3.0445 -3.15027 0
M  V30 223 C 21.4883 -1.54637 -4.15454 0
M  V30 224 H 18.7083 -0.371825 -0.558558 0
M  V30 225 H 21.2523 -1.60865 -1.26264 0
M  V30 226 H 19.4073 -1.14235 -3.70175 0
M  V30 227 H 19.8213 -3.3278 -4.0541 0
M  V30 228 H 21.2953 -2.00808 -5.14179 0
M  V30 229 H 21.7723 -0.501022 -4.36333 0
M  V30 230 H 22.3783 -2.04767 -3.72761 0
M  V30 231 N 20.6934 1.19889 -1.02296 0
M  V30 232 C 21.9424 1.88743 -0.711257 0
M  V30 233 C 22.2554 1.80112 0.762817 0
M  V30 234 O 23.4614 2.44161 1.18733 0
M  V30 235 C 21.9174 3.38525 -1.22185 0
M  V30 236 C 21.5254 3.55727 -2.72328 0
M  V30 237 C 23.2694 4.12893 -0.985864 0
M  V30 238 C 21.1764 4.99369 -3.16835 0
M  V30 239 H 20.1064 0.706885 -0.262353 0
M  V30 240 H 22.7574 1.35586 -1.23648 0
M  V30 241 H 21.1394 3.91044 -0.624571 0
M  V30 242 H 22.3134 3.13564 -3.3766 0
M  V30 243 H 20.6284 2.94739 -2.9414 0
M  V30 244 H 23.2254 5.18813 -1.29374 0
M  V30 245 H 23.5684 4.16228 0.0775055 0
M  V30 246 H 24.1014 3.66494 -1.54684 0
M  V30 247 H 20.8404 5.01193 -4.22476 0
M  V30 248 H 20.3604 5.42317 -2.56228 0
M  V30 249 H 22.0394 5.67988 -3.09837 0
M  V30 250 N 22.1715 0.800033 1.35784 0
M  V30 251 C 23.4205 0.37387 1.98205 0
M  V30 252 C 23.7335 -1.06302 1.64193 0
M  V30 253 O 24.9395 -1.59198 2.19928 0
M  V30 254 C 23.3955 0.617532 3.54562 0
M  V30 255 C 23.0035 2.06654 3.9749 0
M  V30 256 C 24.7475 0.256401 4.23725 0
M  V30 257 C 22.6545 2.2563 5.46667 0
M  V30 258 H 21.5845 0.136055 0.741623 0
M  V30 259 H 24.2355 0.983166 1.54939 0
M  V30 260 H 22.6175 -0.0616248 3.95952 0
M  V30 261 H 23.7915 2.78296 3.67271 0
M  V30 262 H 22.1065 2.38691 3.41197 0
M  V30 263 H 24.7035 0.376318 5.33374 0
M  V30 264 H 25.0465 -0.796692 4.08606 0
M  V30 265 H 25.5795 0.889214 3.87734 0
M  V30 266 H 22.3185 3.2936 5.66747 0
M  V30 267 H 21.8385 1.58504 5.78478 0
M  V30 268 H 23.5175 2.06861 6.1304 0
M  V30 269 N 23.6496 -1.47581 0.552962 0
M  V30 270 C 24.5976 -2.31648 -0.21023 0
M  V30 271 C 25.5916 -1.42663 -0.913432 0
M  V30 272 O 26.7976 -1.5945 -0.835201 0
M  V30 273 H 23.1726 -0.746989 -0.0866676 0
M  V30 274 H 25.1436 -2.93869 0.518051 0
M  V30 275 C 23.8926 -3.25226 -1.22976 0
M  V30 276 H 23.2156 -3.93658 -0.698077 0
M  V30 277 H 24.6556 -3.86889 -1.73473 0
M  V30 278 C 23.1146 -2.48448 -2.27542 0
M  V30 279 O 23.6446 -2.22585 -3.34393 0
M  V30 280 N 21.8506 -2.09532 -2.01357 0
M  V30 281 H 21.3976 -2.30765 -1.14478 0
M  V30 282 H 21.3556 -1.58476 -2.71538 0
M  V30 283 N 25.1277 -0.289203 -1.54924 0
M  V30 284 C 26.3557 0.326463 -2.04308 0
M  V30 285 C 26.7707 1.48413 -1.16701 0
M  V30 286 O 26.1277 1.81507 -0.190087 0
M  V30 287 C 26.1787 0.794014 -3.52672 0
M  V30 288 O 25.8997 -0.317564 -4.36948 0
M  V30 289 C 27.4007 1.47605 -4.18004 0
M  V30 290 H 24.6207 0.0726272 -0.667058 0
M  V30 291 H 27.1647 -0.425401 -2.00026 0
M  V30 292 H 25.3197 1.49593 -3.57352 0
M  V30 293 H 25.7337 0.0443186 -5.24481 0
M  V30 294 H 27.2077 1.75447 -5.23376 0
M  V30 295 H 27.6847 2.41224 -3.67025 0
M  V30 296 H 28.2907 0.81762 -4.17367 0
M  V30 297 N 26.6058 1.57591 -0.0167156 0
M  V30 298 C 27.8528 1.91283 0.664597 0
M  V30 299 C 28.1808 0.891949 1.72842 0
M  V30 300 O 27.4358 -0.100931 1.9544 0
M  V30 301 C 27.7348 3.3172 1.33029 0
M  V30 302 C 27.4008 4.4914 0.398047 0
M  V30 303 C 26.0628 4.80992 0.141421 0
M  V30 304 C 28.4148 5.20634 -0.242825 0
M  V30 305 C 25.7428 5.81703 -0.764092 0
M  V30 306 C 28.0948 6.22311 -1.13632 0
M  V30 307 C 26.7588 6.52611 -1.40196 0
M  V30 308 H 26.0288 0.699956 0.243193 0
M  V30 309 H 28.6758 1.9135 -0.0758267 0
M  V30 310 H 26.9808 3.27856 2.14517 0
M  V30 311 H 28.6778 3.55055 1.86379 0
M  V30 312 H 25.2678 4.24262 0.608238 0
M  V30 313 H 29.4518 4.96267 -0.0576019 0
M  V30 314 H 24.7078 6.03532 -0.977732 0
M  V30 315 H 28.8818 6.76834 -1.63917 0
M  V30 316 H 26.5088 7.30467 -2.10529 0
M  V30 317 N 28.0839 -0.256276 1.55502 0
M  V30 318 C 29.0339 -1.31981 1.85916 0
M  V30 319 C 30.0179 -1.43927 0.719296 0
M  V30 320 O 31.2099 -1.47326 0.981019 0
M  V30 321 C 28.3389 -2.67703 2.14918 0
M  V30 322 C 27.4249 -2.59801 3.35208 0
M  V30 323 N 27.8159 -2.21524 4.54709 0
M  V30 324 C 26.1139 -2.90832 3.38131 0
M  V30 325 C 26.8149 -2.24024 5.36832 0
M  V30 326 N 25.7909 -2.63158 4.75656 0
M  V30 327 H 29.5929 -1.01423 2.75845 0
M  V30 328 H 27.1069 -0.464911 1.55603 0
M  V30 329 H 29.1039 -3.44445 2.34869 0
M  V30 330 H 27.7639 -2.99137 1.26282 0
M  V30 331 H 28.7749 -1.93223 4.80505 0
M  V30 332 H 25.4519 -3.26867 2.59739 0
M  V30 333 H 26.8419 -1.9685 6.42417 0
M  V30 334 N 29.562 -1.4872 -0.521534 0
M  V30 335 C 30.494 -1.59968 -1.64143 0
M  V30 336 C 31.507 -0.483463 -1.55456 0
M  V30 337 O 32.696 -0.75467 -1.61762 0
M  V30 338 C 29.796 -1.52127 -3.02838 0
M  V30 339 C 28.969 -2.78932 -3.36921 0
M  V30 340 C 28.028 -2.64428 -4.54933 0
M  V30 341 O 27.054 -3.38331 -4.57735 0
M  V30 342 N 28.256 -1.74606 -5.53618 0
M  V30 343 H 31.021 -2.56548 -1.54929 0
M  V30 344 H 28.582 -1.45551 -0.708988 0
M  V30 345 H 30.574 -1.40106 -3.79674 0
M  V30 346 H 29.144 -0.634868 -3.06085 0
M  V30 347 H 28.364 -3.05455 -2.4918 0
M  V30 348 H 29.652 -3.63041 -3.56481 0
M  V30 349 H 29.05 -1.13782 -5.54139 0
M  V30 350 H 27.607 -1.6852 -6.29638 0
M  V30 351 N 31.0401 0.771051 -1.3745 0
M  V30 352 C 32.2701 1.55789 -1.35696 0
M  V30 353 C 32.6781 1.89107 0.0594523 0
M  V30 354 O 32.0211 1.51984 1.03183 0
M  V30 355 C 32.0831 2.89515 -2.13123 0
M  V30 356 C 31.7471 2.78829 -3.62082 0
M  V30 357 C 32.7441 2.49812 -4.5595 0
M  V30 358 C 30.4291 2.9683 -4.05213 0
M  V30 359 C 32.4231 2.38923 -5.90927 0
M  V30 360 C 30.1101 2.85562 -5.40276 0
M  V30 361 C 31.1081 2.56649 -6.32946 0
M  V30 362 O 30.7961 2.45408 -7.65526 0
M  V30 363 H 30.5281 0.489257 -0.466481 0
M  V30 364 H 33.0821 0.963446 -1.81403 0
M  V30 365 H 31.3121 3.51081 -1.62107 0
M  V30 366 H 33.0011 3.50915 -2.03994 0
M  V30 367 H 33.7671 2.3559 -4.23937 0
M  V30 368 H 29.6461 3.18335 -3.33442 0
M  V30 369 H 33.1901 2.16277 -6.63227 0
M  V30 370 H 29.0871 2.99351 -5.71891 0
M  V30 371 H 29.8551 2.60753 -7.75855 0
M  V30 372 N 32.5182 1.22032 0.997298 0
M  V30 373 C 33.7432 1.06921 1.77715 0
M  V30 374 C 34.1682 -0.376226 1.84299 0
M  V30 375 O 33.5262 -1.27165 1.29223 0
M  V30 376 C 33.5742 1.67996 3.19076 0
M  V30 377 O 32.6782 0.930653 4.01762 0
M  V30 378 H 32.0192 0.375814 0.547412 0
M  V30 379 H 34.5492 1.61737 1.25309 0
M  V30 380 H 34.5592 1.72538 3.69723 0
M  V30 381 H 33.2342 2.73182 3.13599 0
M  V30 382 H 31.8112 0.960917 3.60307 0
M  V30 383 N 33.9963 -1.19345 1.0293 0
M  V30 384 C 35.2423 -1.89318 0.727083 0
M  V30 385 C 35.5753 -1.79446 -0.742483 0
M  V30 386 O 34.8503 -1.1871 -1.54072 0
M  V30 387 C 35.1333 -3.40238 1.17942 0
M  V30 388 C 34.9863 -3.58979 2.71024 0
M  V30 389 C 36.3053 -4.33479 0.760548 0
M  V30 390 H 33.4243 -0.687475 0.265606 0
M  V30 391 H 36.0663 -1.40477 1.2793 0
M  V30 392 H 34.2163 -3.81964 0.709608 0
M  V30 393 H 35.8883 -3.26421 3.25955 0
M  V30 394 H 34.1313 -3.02018 3.11396 0
M  V30 395 H 34.8023 -4.64823 2.9773 0
M  V30 396 H 37.2783 -3.99469 1.16464 0
M  V30 397 H 36.1543 -5.37664 1.10493 0
M  V30 398 H 36.4153 -4.40813 -0.337063 0
M  V30 399 N 35.4744 -0.807222 -1.35358 0
M  V30 400 C 36.4214 -0.216037 -2.29787 0
M  V30 401 C 37.3914 0.650278 -1.52842 0
M  V30 402 O 38.5764 0.595227 -1.81278 0
M  V30 403 C 35.7164 0.628893 -3.39321 0
M  V30 404 C 34.8294 -0.257927 -4.31229 0
M  V30 405 C 33.9644 0.595069 -5.27856 0
M  V30 406 C 33.0034 -0.292111 -6.11403 0
M  V30 407 N 32.1404 0.520895 -7.00165 0
M  V30 408 H 36.9804 -1.02671 -2.79755 0
M  V30 409 H 34.5174 -0.517839 -1.37684 0
M  V30 410 H 36.4754 1.13393 -4.01494 0
M  V30 411 H 35.1054 1.40482 -2.90628 0
M  V30 412 H 34.1574 -0.881076 -3.70056 0
M  V30 413 H 35.4694 -0.940759 -4.89848 0
M  V30 414 H 34.6234 1.16522 -5.95405 0
M  V30 415 H 33.3624 1.31146 -4.69736 0
M  V30 416 H 32.3674 -0.874525 -5.428 0
M  V30 417 H 33.5924 -1.00638 -6.71602 0
M  V30 418 H 31.5384 1.22125 -6.44532 0
M  V30 419 H 31.4554 -0.103877 -7.55929 0
M  V30 420 H 32.7234 1.0743 -7.72062 0
M  V30 421 N 36.9525 1.47285 -0.560781 0
M  V30 422 C 37.8825 2.32857 0.173105 0
M  V30 423 C 38.8635 1.44009 0.905281 0
M  V30 424 O 40.0485 1.7286 0.885046 0
M  V30 425 C 37.1785 3.25861 1.20133 0
M  V30 426 C 36.1325 4.23978 0.585388 0
M  V30 427 C 35.4585 5.06332 1.7185 0
M  V30 428 C 36.7585 5.20242 -0.463178 0
M  V30 429 H 38.4525 2.94466 -0.541307 0
M  V30 430 H 35.9985 1.41601 -0.261764 0
M  V30 431 H 37.9515 3.84569 1.72293 0
M  V30 432 H 36.6755 2.62315 1.94573 0
M  V30 433 H 35.3345 3.66501 0.085054 0
M  V30 434 H 34.9825 4.39186 2.45203 0
M  V30 435 H 34.6825 5.72762 1.31213 0
M  V30 436 H 36.2065 5.67899 2.24329 0
M  V30 437 H 37.6205 5.73293 -0.027502 0
M  V30 438 H 36.0175 5.94896 -0.788627 0
M  V30 439 H 37.0875 4.65504 -1.35773 0
M  V30 440 N 38.4306 0.297415 1.54768 0
M  V30 441 C 39.6786 -0.312295 1.99673 0
M  V30 442 C 39.9996 -1.54686 1.18732 0
M  V30 443 O 39.2696 -1.93854 0.282382 0
M  V30 444 H 37.8496 -0.118381 0.73756 0
M  V30 445 H 40.5116 0.407915 1.90583 0
M  V30 446 H 39.6076 -0.586813 3.06534 0
M  V30 447 N 39.9087 -1.5758 0.0250728 0
M  V30 448 C 40.8587 -2.06468 -0.967201 0
M  V30 449 C 41.8427 -0.964376 -1.28797 0
M  V30 450 O 43.0347 -1.22797 -1.27475 0
M  V30 451 C 40.1637 -2.59203 -2.25097 0
M  V30 452 C 39.2497 -3.76157 -1.95874 0
M  V30 453 N 39.6407 -4.86919 -1.36905 0
M  V30 454 C 37.9387 -3.84566 -2.25887 0
M  V30 455 C 38.6397 -5.68172 -1.24724 0
M  V30 456 N 37.6157 -5.14953 -1.74138 0
M  V30 457 H 41.4177 -2.89508 -0.506176 0
M  V30 458 H 38.9317 -1.61399 -0.18004 0
M  V30 459 H 40.9287 -2.92517 -2.97052 0
M  V30 460 H 39.5887 -1.77592 -2.71829 0
M  V30 461 H 40.5997 -5.07256 -1.04459 0
M  V30 462 H 37.2767 -3.13854 -2.75321 0
M  V30 463 H 38.6667 -6.67221 -0.791605 0
M  V30 464 N 41.3868 0.248026 -1.55636 0
M  V30 465 C 42.7978 0.817177 -1.67866 0
M  V30 466 C 43.1488 1.86069 -0.622322 0
M  V30 467 O 42.2738 2.15157 0.231618 0
M  V30 468 C 42.8688 1.489 -3.04326 0
M  V30 469 C 41.4278 2.00587 -3.185 0
M  V30 470 C 40.5748 0.856573 -2.63739 0
M  V30 471 H 43.5258 0.0238579 -1.58682 0
M  V30 472 H 43.5468 2.35698 -2.98708 0
M  V30 473 H 43.0588 0.729279 -3.81186 0
M  V30 474 H 41.1598 2.79443 -2.4646 0
M  V30 475 H 41.2728 2.20402 -4.25393 0
M  V30 476 H 39.6368 1.25678 -2.21534 0
M  V30 477 H 40.4198 0.109953 -3.43124 0
M  V30 478 N 42.8649 1.48995 0.513639 0
M  V30 479 C 44.1419 1.48338 1.27495 0
M  V30 480 C 44.5219 0.204065 2.10111 0
M  V30 481 O 43.8699 -0.813881 2.13514 0
M  V30 482 C 44.0799 2.75498 2.14247 0
M  V30 483 C 45.4279 3.24484 2.73852 0
M  V30 484 O 46.4519 2.76528 2.24523 0
M  V30 485 O 45.3109 4.07974 3.6362 0
M  V30 486 H 42.4049 0.593149 0.576284 0
M  V30 487 H 44.9509 1.61246 0.528948 0
M  V30 488 H 43.7229 3.60109 1.53092 0
M  V30 489 H 43.3459 2.6539 2.96064 0
M  V30 490 N 44.343 -0.763751 1.37857 0
M  V30 491 C 45.571 -1.55293 1.36718 0
M  V30 492 C 45.986 -1.88745 -0.0455434 0
M  V30 493 O 45.343 -1.52039 -1.00947 0
M  V30 494 C 45.394 -2.85831 2.2132 0
M  V30 495 O 45.115 -2.5381 3.57089 0
M  V30 496 C 46.616 -3.80023 2.28249 0
M  V30 497 H 43.836 -0.480841 0.468009 0
M  V30 498 H 46.38 -0.946009 1.81303 0
M  V30 499 H 44.535 -3.42926 1.80223 0
M  V30 500 H 44.949 -3.37459 4.01524 0
M  V30 501 H 46.423 -4.68599 2.91752 0
M  V30 502 H 46.9 -4.1973 1.2932 0
M  V30 503 H 47.506 -3.28855 2.69693 0
M  V30 504 N 45.8211 -1.22559 -0.990812 0
M  V30 505 C 46.7511 -1.0218 -2.09956 0
M  V30 506 C 47.7321 0.0579394 -1.70001 0
M  V30 507 O 48.9171 -0.104684 -1.93918 0
M  V30 508 C 46.0471 -0.601023 -3.4206 0
M  V30 509 C 45.0011 -1.62694 -3.95872 0
M  V30 510 C 44.3271 -1.06193 -5.24049 0
M  V30 511 C 45.6271 -3.01743 -4.2632 0
M  V30 512 H 47.3211 -1.94916 -2.27262 0
M  V30 513 H 44.8671 -0.938566 -1.09211 0
M  V30 514 H 46.8201 -0.445561 -4.19038 0
M  V30 515 H 45.5441 0.362005 -3.24588 0
M  V30 516 H 44.2031 -1.77021 -3.21028 0
M  V30 517 H 43.8511 -0.0901903 -5.02919 0
M  V30 518 H 43.5511 -1.74732 -5.61019 0
M  V30 519 H 45.0751 -0.918092 -6.03658 0
M  V30 520 H 46.4891 -2.90777 -4.94087 0
M  V30 521 H 44.8861 -3.67425 -4.74467 0
M  V30 522 H 45.9561 -3.51518 -3.34011 0
M  V30 523 N 47.2992 1.18797 -1.03562 0
M  V30 524 C 48.2472 2.24297 -0.615905 0
M  V30 525 C 49.2412 1.65643 0.354808 0
M  V30 526 O 50.4472 1.78618 0.22265 0
M  V30 527 H 46.8222 0.729909 -0.180934 0
M  V30 528 H 48.7932 2.5701 -1.5162 0
M  V30 529 C 47.5422 3.47698 0.0104735 0
M  V30 530 H 46.8652 3.93125 -0.727509 0
M  V30 531 H 48.3052 4.23159 0.266995 0
M  V30 532 C 46.7642 3.12489 1.25905 0
M  V30 533 O 47.2942 3.25761 2.35038 0
M  V30 534 N 45.5002 2.6686 1.15039 0
M  V30 535 H 45.0472 2.56261 0.262328 0
M  V30 536 H 45.0052 2.43674 1.98672 0
M  V30 537 N 48.7773 0.814389 1.34928 0
M  V30 538 C 49.7093 0.187834 2.28429 0
M  V30 539 C 50.7223 -0.617374 1.5064 0
M  V30 540 O 51.9113 -0.448454 1.72775 0
M  V30 541 C 49.0113 -0.755962 3.30361 0
M  V30 542 C 48.1843 0.00456686 4.374 0
M  V30 543 C 47.2433 -0.858876 5.19143 0
M  V30 544 O 46.2693 -0.306968 5.68372 0
M  V30 545 N 47.4713 -2.17988 5.38016 0
M  V30 546 H 50.2363 0.991105 2.82838 0
M  V30 547 H 47.7973 0.670561 1.4736 0
M  V30 548 H 49.7893 -1.338 3.81942 0
M  V30 549 H 48.3593 -1.46001 2.7641 0
M  V30 550 H 47.5793 0.767865 3.86649 0
M  V30 551 H 48.8673 0.528422 5.06049 0
M  V30 552 H 48.2653 -2.65212 4.99679 0
M  V30 553 H 46.8223 -2.71098 5.92747 0
M  V30 554 N 50.2554 -1.46986 0.568584 0
M  V30 555 C 51.5034 -2.02041 0.0487022 0
M  V30 556 C 51.8244 -1.44408 -1.31039 0
M  V30 557 O 51.0944 -0.623477 -1.85714 0
M  V30 558 H 49.6744 -0.746849 0.015014 0
M  V30 559 H 52.3364 -1.80257 0.741168 0
M  V30 560 H 51.4324 -3.12085 -0.0308961 0
M  V30 561 N 51.7335 -0.305618 -1.54608 0
M  V30 562 C 52.6435 0.57778 -2.27374 0
M  V30 563 C 53.6595 1.14451 -1.31061 0
M  V30 564 O 54.8355 1.16831 -1.6405 0
M  V30 565 C 51.9005 1.73123 -3.00382 0
M  V30 566 C 50.9615 1.19812 -4.12242 0
M  V30 567 C 50.1945 2.2966 -4.81759 0
M  V30 568 O 50.4175 3.49651 -4.50666 0
M  V30 569 O 49.3515 1.96091 -5.69062 0
M  V30 570 H 53.1775 -0.012624 -3.03697 0
M  V30 571 H 50.7625 -0.0719184 -1.49227 0
M  V30 572 H 52.6445 2.40315 -3.4616 0
M  V30 573 H 51.3195 2.30815 -2.26949 0
M  V30 574 H 50.2265 0.491798 -3.70853 0
M  V30 575 H 51.5595 0.666566 -4.87666 0
M  V30 576 N 53.2116 1.57565 -0.0334293 0
M  V30 577 C 54.4586 1.91978 0.644272 0
M  V30 578 C 54.7866 0.910231 1.71887 0
M  V30 579 O 54.0416 -0.0801961 1.95536 0
M  V30 580 C 54.3406 3.33112 1.29504 0
M  V30 581 C 54.0066 4.49537 0.350388 0
M  V30 582 C 52.6686 4.81115 0.0903974 0
M  V30 583 C 55.0206 5.20347 -0.298032 0
M  V30 584 C 52.3486 5.8086 -0.825746 0
M  V30 585 C 54.7006 6.2107 -1.20226 0
M  V30 586 C 53.3646 6.51088 -1.4711 0
M  V30 587 H 52.6346 0.702496 0.235756 0
M  V30 588 H 55.2816 1.91259 -0.0961176 0
M  V30 589 H 53.5866 3.30113 2.11028 0
M  V30 590 H 55.2836 3.57011 1.82603 0
M  V30 591 H 51.8736 4.24883 0.563205 0
M  V30 592 H 56.0576 4.96178 -0.110234 0
M  V30 593 H 51.3136 6.02461 -1.04169 0
M  V30 594 H 55.4876 6.75057 -1.71086 0
M  V30 595 H 53.1146 7.28193 -2.18264 0
M  V30 596 N 54.6897 -0.239769 1.55765 0
M  V30 597 C 55.6367 -1.29696 1.90913 0
M  V30 598 C 56.6067 -1.47478 0.764164 0
M  V30 599 O 57.7917 -1.61345 1.01845 0
M  V30 600 C 54.9317 -2.64598 2.21544 0
M  V30 601 C 54.0447 -2.54765 3.48882 0
M  V30 602 C 53.1797 -3.82069 3.69049 0
M  V30 603 C 52.2187 -3.66883 4.89963 0
M  V30 604 N 51.3557 -4.86094 5.06614 0
M  V30 605 H 56.1957 -0.990224 2.81067 0
M  V30 606 H 53.7327 -0.477684 1.39128 0
M  V30 607 H 55.6907 -3.43132 2.3731 0
M  V30 608 H 54.3207 -2.93405 1.34585 0
M  V30 609 H 53.3727 -1.67763 3.41409 0
M  V30 610 H 54.6847 -2.39457 4.37563 0
M  V30 611 H 53.8387 -4.69046 3.84812 0
M  V30 612 H 52.5777 -4.00282 2.78614 0
M  V30 613 H 51.5827 -2.78289 4.74168 0
M  V30 614 H 52.8077 -3.50157 5.81865 0
M  V30 615 H 50.7537 -5.04655 4.19117 0
M  V30 616 H 50.6707 -4.73443 5.89396 0
M  V30 617 H 51.9387 -5.74549 5.26795 0
M  V30 618 N 56.1678 -1.49265 -0.50573 0
M  V30 619 C 57.0778 -1.68312 -1.63427 0
M  V30 620 C 58.0938 -0.565682 -1.64548 0
M  V30 621 O 59.2698 -0.839801 -1.83055 0
M  V30 622 C 56.3348 -1.74107 -2.99813 0
M  V30 623 C 55.3958 -2.97653 -3.09356 0
M  V30 624 C 54.6288 -3.03163 -4.39236 0
M  V30 625 O 54.8518 -2.16396 -5.27758 0
M  V30 626 O 53.7858 -3.9558 -4.53652 0
M  V30 627 H 57.6118 -2.63907 -1.50289 0
M  V30 628 H 55.1968 -1.32951 -0.681502 0
M  V30 629 H 57.0788 -1.803 -3.80881 0
M  V30 630 H 55.7538 -0.816901 -3.13223 0
M  V30 631 H 54.6608 -2.96981 -2.27493 0
M  V30 632 H 55.9938 -3.89535 -3.00871 0
M  V30 633 N 57.6459 0.756429 -1.3826 0
M  V30 634 C 58.5759 1.88374 -1.37976 0
M  V30 635 C 59.5569 1.68311 -0.246082 0
M  V30 636 O 60.7419 1.88944 -0.44874 0
M  V30 637 C 57.8719 3.25864 -1.20125 0
M  V30 638 C 56.8259 3.60523 -2.30666 0
M  V30 639 C 56.1519 4.9672 -1.97923 0
M  V30 640 C 57.4519 3.65692 -3.72916 0
M  V30 641 H 59.1459 1.88869 -2.32312 0
M  V30 642 H 56.6919 0.907272 -1.11824 0
M  V30 643 H 58.6449 4.0438 -1.18552 0
M  V30 644 H 57.3689 3.25841 -0.222498 0
M  V30 645 H 56.0279 2.84324 -2.3142 0
M  V30 646 H 55.6759 4.93253 -0.985393 0
M  V30 647 H 55.3759 5.20878 -2.71955 0
M  V30 648 H 56.8999 5.77618 -1.97964 0
M  V30 649 H 58.3139 4.34328 -3.74208 0
M  V30 650 H 56.7109 4.01358 -4.4613 0
M  V30 651 H 57.7809 2.65987 -4.05436 0
M  V30 652 N 59.124 1.23083 0.984299 0
M  V30 653 C 60.37 1.06214 1.72761 0
M  V30 654 C 60.703 -0.400584 1.90024 0
M  V30 655 O 59.978 -1.29672 1.44967 0
M  V30 656 C 60.261 1.78375 3.12817 0
M  V30 657 C 60.114 3.32296 3.03149 0
M  V30 658 C 61.433 1.54309 4.12161 0
M  V30 659 H 58.552 0.387251 0.627061 0
M  V30 660 H 61.194 1.51536 1.14616 0
M  V30 661 H 59.344 1.39848 3.62457 0
M  V30 662 H 61.016 3.8032 2.61064 0
M  V30 663 H 59.259 3.6153 2.39747 0
M  V30 664 H 59.93 3.77972 4.02295 0
M  V30 665 H 62.406 1.87791 3.71314 0
M  V30 666 H 61.282 2.07281 5.08258 0
M  V30 667 H 61.543 0.477572 4.39513 0
M  V30 668 N 60.6021 -1.18246 1.0419 0
M  V30 669 C 62.0181 -1.40269 0.761366 0
M  V30 670 C 62.2181 -1.90777 -0.648578 0
M  V30 671 O 61.2741 -2.0929 -1.41258 0
M  V30 672 C 62.5871 -2.40237 1.8085 0
M  V30 673 C 64.1351 -2.53961 1.82955 0
M  V30 674 C 64.6101 -3.57194 2.86664 0
M  V30 675 N 66.1011 -3.64702 2.85563 0
M  V30 676 C 66.8361 -4.44309 3.6246 0
M  V30 677 N 66.3321 -5.27514 4.49111 0
M  V30 678 N 68.1251 -4.39084 3.50944 0
M  V30 679 H 60.2761 -0.837882 1.95175 0
M  V30 680 H 62.5391 -0.430608 0.84456 0
M  V30 681 H 62.2451 -2.10176 2.81991 0
M  V30 682 H 62.1191 -3.39601 1.64168 0
M  V30 683 H 64.5061 -2.83338 0.824855 0
M  V30 684 H 64.5871 -1.54706 2.03715 0
M  V30 685 H 64.2311 -3.28558 3.87314 0
M  V30 686 H 64.1611 -4.5613 2.6316 0
M  V30 687 H 66.6521 -3.05289 2.22727 0
M  V30 688 H 66.9651 -5.85411 5.04493 0
M  V30 689 H 65.3101 -5.2693 4.53178 0
M  V30 690 H 68.5011 -3.7313 2.82651 0
M  V30 691 H 68.6741 -5.00883 4.11121 0
M  V30 692 N 62.0802 -0.821533 -1.34494 0
M  V30 693 C 63.0272 -0.240397 -2.29545 0
M  V30 694 C 63.9972 0.634031 -1.53523 0
M  V30 695 O 65.1822 0.575966 -1.81899 0
M  V30 696 C 62.3222 0.592869 -3.39969 0
M  V30 697 C 61.4352 -0.30365 -4.30932 0
M  V30 698 C 60.5702 0.539049 -5.28458 0
M  V30 699 C 59.6092 -0.356942 -6.11058 0
M  V30 700 N 58.7462 0.446603 -7.00678 0
M  V30 701 H 63.5862 -1.05632 -2.7865 0
M  V30 702 H 61.1232 -0.532413 -1.37127 0
M  V30 703 H 63.0812 1.09129 -4.02675 0
M  V30 704 H 61.7112 1.37392 -2.92102 0
M  V30 705 H 60.7632 -0.920276 -3.691 0
M  V30 706 H 62.0752 -0.992661 -4.88823 0
M  V30 707 H 61.2292 1.102 -5.96608 0
M  V30 708 H 59.9682 1.26157 -4.71101 0
M  V30 709 H 58.9732 -0.932047 -5.41842 0
M  V30 710 H 60.1982 -1.07755 -6.70497 0
M  V30 711 H 58.1442 1.15282 -6.45791 0
M  V30 712 H 58.0612 -0.184048 -7.55776 0
M  V30 713 H 59.3292 0.992352 -7.73158 0
M  V30 714 N 63.5583 1.46682 -0.576371 0
M  V30 715 C 64.8353 1.95599 0.00703437 0
M  V30 716 C 65.2153 1.51904 1.46589 0
M  V30 717 O 64.5633 0.766755 2.15251 0
M  V30 718 C 64.7733 3.4864 -0.158404 0
M  V30 719 C 66.1213 4.24594 -0.0229439 0
M  V30 720 O 67.1453 3.56094 -0.0869173 0
M  V30 721 O 66.0043 5.46373 0.118015 0
M  V30 722 H 63.0983 0.825275 0.053384 0
M  V30 723 H 65.6443 1.56996 -0.644244 0
M  V30 724 H 64.4163 3.7331 -1.17282 0
M  V30 725 H 64.0393 3.94057 0.5296 0
M  V30 726 N 65.0364 0.313813 1.54444 0
M  V30 727 C 65.9664 -0.549454 2.26943 0
M  V30 728 C 66.9474 -1.12741 1.27372 0
M  V30 729 O 68.1324 -1.15436 1.56167 0
M  V30 730 C 65.2624 -1.71523 3.01989 0
M  V30 731 C 64.2164 -1.26703 4.08816 0
M  V30 732 C 63.5424 -2.51898 4.71647 0
M  V30 733 C 64.8424 -0.388962 5.2085 0
M  V30 734 H 66.5364 0.0552661 2.99349 0
M  V30 735 H 64.0824 0.0280207 1.43973 0
M  V30 736 H 66.0354 -2.32535 3.51433 0
M  V30 737 H 64.7594 -2.34639 2.27183 0
M  V30 738 H 63.4184 -0.679896 3.6024 0
M  V30 739 H 63.0664 -3.13356 3.93468 0
M  V30 740 H 62.7664 -2.22605 5.43802 0
M  V30 741 H 64.2904 -3.1369 5.23861 0
M  V30 742 H 65.7044 -0.905107 5.6611 0
M  V30 743 H 64.1014 -0.18924 5.99802 0
M  V30 744 H 65.1714 0.582699 4.81386 0
M  V30 745 N 66.5145 -1.57545 0.0417849 0
M  V30 746 C 67.4465 -2.07904 -0.964799 0
M  V30 747 C 68.4595 -1.00497 -1.28079 0
M  V30 748 O 69.6485 -1.28087 -1.24322 0
M  V30 749 C 66.7485 -2.49928 -2.28887 0
M  V30 750 C 65.9215 -3.80562 -2.15619 0
M  V30 751 C 64.9805 -4.08999 -3.31069 0
M  V30 752 O 64.0065 -4.79061 -3.0739 0
M  V30 753 N 65.2085 -3.6017 -4.55256 0
M  V30 754 H 67.9735 -2.94886 -0.535029 0
M  V30 755 H 65.5345 -1.61252 -0.144681 0
M  V30 756 H 67.5265 -2.66034 -3.04972 0
M  V30 757 H 66.0965 -1.68245 -2.63463 0
M  V30 758 H 65.3165 -3.74129 -1.24183 0
M  V30 759 H 66.6045 -4.66126 -2.03971 0
M  V30 760 H 66.0025 -3.03512 -4.77386 0
M  V30 761 H 64.5595 -3.81532 -5.28466 0
M  V30 762 N 67.9926 0.231505 -1.5589 0
M  V30 763 C 68.9406 1.30649 -1.92441 0
M  V30 764 C 69.9346 1.49037 -0.805254 0
M  V30 765 O 71.1406 1.50329 -0.990007 0
M  V30 766 H 67.5156 0.437812 -0.611412 0
M  V30 767 H 69.4866 0.970973 -2.82161 0
M  V30 768 C 68.2356 2.65179 -2.24889 0
M  V30 769 H 67.5586 2.51835 -3.10514 0
M  V30 770 H 68.9986 3.39234 -2.54355 0
M  V30 771 C 67.4576 3.19439 -1.07054 0
M  V30 772 O 67.9876 4.00371 -0.326499 0
M  V30 773 N 66.1936 2.77675 -0.85703 0
M  V30 774 H 65.7406 2.11969 -1.46379 0
M  V30 775 H 65.6986 3.14321 -0.0703223 0
M  V30 776 N 69.4707 1.49531 0.497807 0
M  V30 777 C 70.7177 1.59179 1.25173 0
M  V30 778 C 71.0457 0.279932 1.92475 0
M  V30 779 O 70.3007 -0.732383 1.81479 0
M  V30 780 C 70.5997 2.70252 2.33878 0
M  V30 781 C 70.2657 4.11644 1.84012 0
M  V30 782 C 68.9277 4.50121 1.70132 0
M  V30 783 C 71.2797 5.00121 1.46725 0
M  V30 784 C 68.6077 5.74845 1.17348 0
M  V30 785 C 70.9597 6.25366 0.95392 0
M  V30 786 C 69.6237 6.6267 0.801538 0
M  V30 787 H 68.8937 0.582478 0.45804 0
M  V30 788 H 71.5407 1.83373 0.551948 0
M  V30 789 H 69.8457 2.40041 3.09657 0
M  V30 790 H 71.5427 2.74925 2.9192 0
M  V30 791 H 68.1327 3.81274 1.95775 0
M  V30 792 H 72.3167 4.71048 1.56294 0
M  V30 793 H 67.5727 6.02444 1.04264 0
M  V30 794 H 71.7467 6.93301 0.656225 0
M  V30 795 H 69.3737 7.59197 0.390351 0
M  V30 796 N 70.9488 -0.749086 1.3866 0
M  V30 797 C 71.8788 -1.8764 1.38973 0
M  V30 798 C 72.8598 -1.68178 0.255004 0
M  V30 799 O 74.0448 -1.88704 0.458754 0
M  V30 800 C 71.1748 -3.25222 1.21851 0
M  V30 801 C 70.1288 -3.59295 2.32575 0
M  V30 802 C 69.4548 -4.95663 2.00555 0
M  V30 803 C 70.7548 -3.63709 3.7485 0
M  V30 804 H 72.4488 -1.87635 2.3331 0
M  V30 805 H 69.9948 -0.901329 1.12303 0
M  V30 806 H 71.9478 -4.03746 1.20695 0
M  V30 807 H 70.6718 -3.25719 0.239775 0
M  V30 808 H 69.3308 -2.83093 2.32925 0
M  V30 809 H 68.9788 -4.92724 1.01154 0
M  V30 810 H 68.6788 -5.19429 2.74714 0
M  V30 811 H 70.2028 -5.7656 2.01024 0
M  V30 812 H 71.6168 -4.32338 3.76506 0
M  V30 813 H 70.0138 -3.98986 4.48252 0
M  V30 814 H 71.0838 -2.63834 4.06841 0
M  V30 815 N 72.4269 -1.23603 -0.977757 0
M  V30 816 C 73.3739 -1.01954 -2.07061 0
M  V30 817 C 74.3439 0.0638697 -1.65977 0
M  V30 818 O 75.5289 -0.0887624 -1.90593 0
M  V30 819 C 72.6689 -0.619658 -3.39491 0
M  V30 820 C 71.7819 -1.77547 -3.93829 0
M  V30 821 C 70.9169 -1.32212 -5.14484 0
M  V30 822 C 69.9559 -2.44852 -5.60994 0
M  V30 823 N 69.0929 -2.00456 -6.72876 0
M  V30 824 H 73.9329 -1.95495 -2.24913 0
M  V30 825 H 71.4699 -0.973861 -1.10247 0
M  V30 826 H 73.4279 -0.368898 -4.15566 0
M  V30 827 H 72.0579 0.278752 -3.21594 0
M  V30 828 H 71.1099 -2.14016 -3.14486 0
M  V30 829 H 72.4219 -2.62219 -4.24314 0
M  V30 830 H 71.5759 -1.02965 -5.97899 0
M  V30 831 H 70.3149 -0.445808 -4.85658 0
M  V30 832 H 69.3199 -2.74871 -4.76157 0
M  V30 833 H 70.5449 -3.33024 -5.91837 0
M  V30 834 H 68.4909 -1.15208 -6.45804 0
M  V30 835 H 68.4079 -2.78687 -7.02759 0
M  V30 836 H 69.6759 -1.7432 -7.59758 0
M  V30 837 N 73.905 1.17692 -1.04816 0
M  V30 838 C 74.852 2.21581 -0.645797 0
M  V30 839 C 75.822 1.62367 0.350159 0
M  V30 840 O 77.007 1.89254 0.242433 0
M  V30 841 C 74.147 3.45092 -0.0227568 0
M  V30 842 C 73.26 4.18613 -1.06709 0
M  V30 843 C 72.395 5.29602 -0.411767 0
M  V30 844 C 71.434 5.94904 -1.44067 0
M  V30 845 N 70.571 6.97414 -0.809781 0
M  V30 846 H 75.411 2.55353 -1.5362 0
M  V30 847 H 72.948 1.25438 -0.768364 0
M  V30 848 H 74.906 4.15679 0.35588 0
M  V30 849 H 73.536 3.11917 0.831122 0
M  V30 850 H 72.588 3.46779 -1.5636 0
M  V30 851 H 73.9 4.63293 -1.84827 0
M  V30 852 H 73.054 6.06696 0.0206623 0
M  V30 853 H 71.793 4.86045 0.401438 0
M  V30 854 H 70.798 5.16544 -1.88316 0
M  V30 855 H 72.023 6.40542 -2.25571 0
M  V30 856 H 69.969 6.55998 -0.0170186 0
M  V30 857 H 69.886 7.40386 -1.52856 0
M  V30 858 H 71.154 7.78463 -0.401999 0
M  V30 859 N 75.3831 0.828654 1.34056 0
M  V30 860 C 76.2931 0.256725 2.33191 0
M  V30 861 C 77.3091 -0.611898 1.62886 0
M  V30 862 O 78.4851 -0.51844 1.94613 0
M  V30 863 C 75.5501 -0.567238 3.42028 0
M  V30 864 C 74.6111 0.324458 4.28072 0
M  V30 865 C 73.8441 -0.460274 5.31712 0
M  V30 866 O 74.0671 -1.693 5.44696 0
M  V30 867 O 73.0011 0.160391 6.01686 0
M  V30 868 H 76.8271 1.07739 2.83947 0
M  V30 869 H 74.4121 0.59093 1.37217 0
M  V30 870 H 76.2941 -1.03582 4.08471 0
M  V30 871 H 74.9691 -1.36513 2.93506 0
M  V30 872 H 73.8761 0.840659 3.64532 0
M  V30 873 H 75.2091 1.08685 4.8005 0
M  V30 874 N 76.8612 -1.46375 0.584142 0
M  V30 875 C 77.8092 -2.32042 -0.161047 0
M  V30 876 C 78.8032 -1.44569 -0.882966 0
M  V30 877 O 80.0092 -1.61186 -0.801191 0
M  V30 878 H 76.3842 -0.748659 -0.0708033 0
M  V30 879 H 78.3552 -2.92704 0.580269 0
M  V30 880 C 77.1042 -3.27762 -1.1605 0
M  V30 881 H 76.4272 -3.95051 -0.614419 0
M  V30 882 H 77.8672 -3.90481 -1.65228 0
M  V30 883 C 76.3262 -2.53218 -2.22221 0
M  V30 884 O 76.8562 -2.29628 -3.29597 0
M  V30 885 N 75.0622 -2.13756 -1.96868 0
M  V30 886 H 74.6092 -2.33142 -1.09557 0
M  V30 887 H 74.5672 -1.642 -2.68115 0
M  V30 888 N 78.3393 -0.321999 -1.54275 0
M  V30 889 C 79.2863 0.544664 -2.24281 0
M  V30 890 C 80.2563 1.1129 -1.23303 0
M  V30 891 O 81.4413 1.15354 -1.51981 0
M  V30 892 C 78.5813 1.70045 -3.00298 0
M  V30 893 C 77.6943 1.16159 -4.1609 0
M  V30 894 C 76.8293 2.28293 -4.79641 0
M  V30 895 C 75.8683 1.71648 -5.8754 0
M  V30 896 N 75.0053 2.77438 -6.44959 0
M  V30 897 H 79.8453 -0.0588907 -2.97942 0
M  V30 898 H 77.3823 -0.0408345 -1.47043 0
M  V30 899 H 79.3403 2.38054 -3.42616 0
M  V30 900 H 77.9703 2.27531 -2.28975 0
M  V30 901 H 77.0223 0.373092 -3.78566 0
M  V30 902 H 78.3343 0.707087 -4.93763 0
M  V30 903 H 77.4883 3.0421 -5.2492 0
M  V30 904 H 76.2273 2.77079 -4.01346 0
M  V30 905 H 75.2323 0.942282 -5.41665 0
M  V30 906 H 76.4573 1.23741 -6.67731 0
M  V30 907 H 74.4033 3.25519 -5.69538 0
M  V30 908 H 74.3203 2.36547 -7.1804 0
M  V30 909 H 75.5883 3.53189 -6.94894 0
M  V30 910 N 79.8174 1.5752 -0.0501392 0
M  V30 911 C 80.7654 2.12651 0.942459 0
M  V30 912 C 81.7594 1.05807 1.32292 0
M  V30 913 O 82.9654 1.24217 1.3027 0
M  V30 914 H 79.3404 0.679673 0.321789 0
M  V30 915 H 81.3114 2.94951 0.452356 0
M  V30 916 C 80.0604 2.68565 2.20836 0
M  V30 917 H 79.3834 3.50439 1.92439 0
M  V30 918 H 80.8234 3.10761 2.8845 0
M  V30 919 C 79.2824 1.62291 2.95234 0
M  V30 920 O 79.8124 1.03508 3.88135 0
M  V30 921 N 78.0184 1.33836 2.57946 0
M  V30 922 H 77.5654 1.81826 1.82475 0
M  V30 923 H 77.5234 0.629595 3.08032 0
M  V30 924 N 81.2955 -0.223234 1.56011 0
M  V30 925 C 82.2055 -1.29766 1.95443 0
M  V30 926 C 83.2215 -1.51373 0.858028 0
M  V30 927 O 84.3975 -1.64536 1.16146 0
M  V30 928 C 81.4625 -2.62772 2.26167 0
M  V30 929 C 80.5235 -2.49482 3.49367 0
M  V30 930 C 79.7565 -3.76145 3.78616 0
M  V30 931 O 79.9795 -4.79087 3.09568 0
M  V30 932 O 78.9135 -3.73358 4.72109 0
M  V30 933 H 82.7395 -0.99309 2.87004 0
M  V30 934 H 80.3245 -0.425958 1.43199 0
M  V30 935 H 82.2065 -3.41327 2.47131 0
M  V30 936 H 80.8815 -2.92913 1.37781 0
M  V30 937 H 79.7885 -1.69133 3.33684 0
M  V30 938 H 81.1215 -2.2428 4.38131 0
M  V30 939 N 82.7736 -1.49793 -0.48987 0
M  V30 940 C 83.7206 -1.67281 -1.59014 0
M  V30 941 C 84.6906 -0.514177 -1.57941 0
M  V30 942 O 85.8756 -0.742533 -1.75759 0
M  V30 943 C 83.0156 -1.75569 -2.97102 0
M  V30 944 C 82.1286 -3.0281 -3.08107 0
M  V30 945 C 81.2636 -3.02008 -4.36995 0
M  V30 946 C 80.3026 -4.23782 -4.41673 0
M  V30 947 N 79.4396 -4.20826 -5.62005 0
M  V30 948 H 84.2796 -2.61224 -1.43409 0
M  V30 949 H 81.8166 -1.29508 -0.697565 0
M  V30 950 H 83.7746 -1.78354 -3.77155 0
M  V30 951 H 82.4046 -0.850827 -3.11385 0
M  V30 952 H 81.4566 -3.09584 -2.21047 0
M  V30 953 H 82.7686 -3.92801 -3.07423 0
M  V30 954 H 81.9226 -3.03418 -5.25378 0
M  V30 955 H 80.6616 -2.09815 -4.4026 0
M  V30 956 H 79.6666 -4.22604 -3.5169 0
M  V30 957 H 80.8916 -5.17181 -4.40115 0
M  V30 958 H 78.8376 -3.31476 -5.66091 0
M  V30 959 H 78.7546 -5.04564 -5.62984 0
M  V30 960 H 80.0226 -4.26355 -6.52565 0
M  V30 961 N 84.2517 0.741722 -1.39055 0
M  V30 962 C 85.4977 1.50336 -1.36113 0
M  V30 963 C 85.8307 1.94148 0.0450796 0
M  V30 964 O 85.1057 1.66301 1.00868 0
M  V30 965 C 85.3887 2.74773 -2.32749 0
M  V30 966 C 85.2417 2.37023 -3.82283 0
M  V30 967 C 86.5607 3.76846 -2.27322 0
M  V30 968 H 83.6797 0.545351 -0.495743 0
M  V30 969 H 86.3217 0.848624 -1.69995 0
M  V30 970 H 84.4717 3.30639 -2.03986 0
M  V30 971 H 86.1437 1.8684 -4.21768 0
M  V30 972 H 84.3867 1.69334 -3.99385 0
M  V30 973 H 85.0577 3.26104 -4.45376 0
M  V30 974 H 87.5337 3.30548 -2.5274 0
M  V30 975 H 86.4097 4.6159 -2.97028 0
M  V30 976 H 86.6707 4.23286 -1.27599 0
M  V30 977 N 85.7298 1.2412 0.971189 0
M  V30 978 C 86.9788 1.07284 1.70801 0
M  V30 979 C 87.2918 -0.388902 1.91695 0
M  V30 980 O 88.4978 -0.677379 2.62914 0
M  V30 981 C 86.9538 1.87145 3.07416 0
M  V30 982 C 86.5618 3.37707 2.94377 0
M  V30 983 C 88.3058 1.78828 3.84995 0
M  V30 984 C 86.2128 4.09925 4.26281 0
M  V30 985 H 85.1428 0.397854 0.64049 0
M  V30 986 H 87.7938 1.4817 1.0825 0
M  V30 987 H 86.1758 1.39071 3.70777 0
M  V30 988 H 87.3498 3.93335 2.4005 0
M  V30 989 H 85.6648 3.46938 2.30267 0
M  V30 990 H 88.2618 2.30089 4.82662 0
M  V30 991 H 88.6048 0.75284 4.09436 0
M  V30 992 H 89.1378 2.24563 3.28354 0
M  V30 993 H 85.8768 5.13813 4.07033 0
M  V30 994 H 85.3968 3.59083 4.80437 0
M  V30 995 H 87.0758 4.1673 4.94919 0
M  V30 996 N 87.2079 -1.17134 1.05439 0
M  V30 997 C 88.1179 -2.24878 0.668365 0
M  V30 998 C 89.1339 -1.71186 -0.311687 0
M  V30 999 O 90.3099 -2.00738 -0.163161 0
M  V30 1000 C 87.3749 -3.46662 0.051648 0
M  V30 1001 C 86.4359 -4.15429 1.08246 0
M  V30 1002 C 85.6689 -5.31399 0.495082 0
M  V30 1003 O 85.8919 -5.66153 -0.694743 0
M  V30 1004 O 84.8259 -5.89187 1.23056 0
M  V30 1005 H 88.6519 -2.60189 1.56637 0
M  V30 1006 H 86.2369 -1.24482 0.826104 0
M  V30 1007 H 88.1189 -4.20394 -0.290966 0
M  V30 1008 H 86.7939 -3.13142 -0.819971 0
M  V30 1009 H 85.7009 -3.43704 1.47711 0
M  V30 1010 H 87.0339 -4.52982 1.92532 0
M  V30 1011 N 88.686 -0.835752 -1.33615 0
M  V30 1012 C 89.636 -0.238856 -2.26745 0
M  V30 1013 C 90.62 0.604343 -1.49119 0
M  V30 1014 O 91.812 0.456822 -1.71003 0
M  V30 1015 C 88.941 0.587725 -3.38232 0
M  V30 1016 C 88.027 -0.266811 -4.2326 0
M  V30 1017 N 88.418 -1.34403 -4.87616 0
M  V30 1018 C 86.716 -0.0533131 -4.45968 0
M  V30 1019 C 87.417 -1.86819 -5.50884 0
M  V30 1020 N 86.393 -1.17013 -5.30857 0
M  V30 1021 H 90.195 -1.06266 -2.74016 0
M  V30 1022 H 87.709 -0.679881 -1.47483 0
M  V30 1023 H 89.706 1.03161 -4.03935 0
M  V30 1024 H 88.366 1.40954 -2.9251 0
M  V30 1025 H 89.377 -1.7269 -4.88261 0
M  V30 1026 H 86.054 0.735312 -4.10974 0
M  V30 1027 H 87.444 -2.7701 -6.1214 0
M  V30 1028 N 90.1641 1.46063 -0.591896 0
M  V30 1029 C 91.4131 2.01547 -0.0786637 0
M  V30 1030 C 91.7261 1.46796 1.29268 0
M  V30 1031 O 92.9321 1.94157 1.89777 0
M  V30 1032 C 91.3881 3.59787 -0.0900024 0
M  V30 1033 C 90.9961 4.23534 -1.46023 0
M  V30 1034 C 92.7401 4.22895 0.368806 0
M  V30 1035 C 90.6471 5.73881 -1.4288 0
M  V30 1036 H 89.5771 0.753564 -0.0256388 0
M  V30 1037 H 92.2281 1.677 -0.744905 0
M  V30 1038 H 90.6101 3.90752 0.642586 0
M  V30 1039 H 91.7841 4.04167 -2.21328 0
M  V30 1040 H 90.0991 3.72558 -1.85982 0
M  V30 1041 H 92.6961 5.33116 0.411258 0
M  V30 1042 H 93.0391 3.9247 1.38827 0
M  V30 1043 H 93.5721 3.9659 -0.31001 0
M  V30 1044 H 90.3111 6.0898 -2.42536 0
M  V30 1045 H 89.8311 5.95486 -0.718095 0
M  V30 1046 H 91.5101 6.36776 -1.14565 0
M  V30 1047 N 91.6422 0.330177 1.54103 0
M  V30 1048 C 92.5752 -0.575477 2.20825 0
M  V30 1049 C 93.5532 -1.11064 1.18758 0
M  V30 1050 O 94.7372 -1.17341 1.47524 0
M  V30 1051 C 91.8642 -1.79032 2.87516 0
M  V30 1052 C 90.9102 -1.38581 4.03358 0
M  V30 1053 S 91.7432 -0.416911 5.33875 0
M  V30 1054 C 92.8992 -1.63889 6.04062 0
M  V30 1055 H 93.1322 -0.00872114 2.97299 0
M  V30 1056 H 90.6652 0.114254 1.53977 0
M  V30 1057 H 92.6232 -2.48734 3.2656 0
M  V30 1058 H 91.2842 -2.32827 2.10832 0
M  V30 1059 H 90.4772 -2.29123 4.48908 0
M  V30 1060 H 90.0792 -0.768419 3.66021 0
M  V30 1061 H 92.3712 -2.57536 6.26643 0
M  V30 1062 H 93.3142 -1.22542 6.97416 0
M  V30 1063 H 93.7222 -1.82887 5.34053 0
M  V30 1064 N 93.1203 -1.57491 0.0584922 0
M  V30 1065 C 94.0303 -2.15448 -0.928414 0
M  V30 1066 C 95.0463 -1.11416 -1.3365 0
M  V30 1067 O 96.2223 -1.4362 -1.41193 0
M  V30 1068 C 93.2873 -2.69393 -2.18239 0
M  V30 1069 C 92.3483 -3.88249 -1.83196 0
M  V30 1070 C 91.5813 -4.39613 -3.02616 0
M  V30 1071 O 91.8043 -3.90023 -4.16219 0
M  V30 1072 O 90.7383 -5.31111 -2.83204 0
M  V30 1073 H 94.5643 -3.00112 -0.465483 0
M  V30 1074 H 92.1493 -1.48499 -0.163826 0
M  V30 1075 H 94.0313 -3.04026 -2.91798 0
M  V30 1076 H 92.7063 -1.87796 -2.63656 0
M  V30 1077 H 91.6133 -3.58492 -1.06931 0
M  V30 1078 H 92.9463 -4.71098 -1.42573 0
M  V30 1079 N 94.5984 0.214957 -1.56127 0
M  V30 1080 C 95.8754 0.963093 -1.70247 0
M  V30 1081 C 96.2554 2.02166 -0.60764 0
M  V30 1082 O 95.6034 2.25244 0.384385 0
M  V30 1083 C 95.8134 1.56756 -3.11815 0
M  V30 1084 C 97.1614 2.0573 -3.7143 0
M  V30 1085 O 98.1854 1.66637 -3.14818 0
M  V30 1086 O 97.0444 2.77603 -4.70743 0
M  V30 1087 H 94.1384 0.450321 -0.693643 0
M  V30 1088 H 96.6844 0.206219 -1.68442 0
M  V30 1089 H 95.4564 0.803533 -3.82961 0
M  V30 1090 H 95.0794 2.3898 -3.17765 0
M  V30 1091 N 96.0765 1.50051 0.48192 0
M  V30 1092 C 97.0065 1.71046 1.58951 0
M  V30 1093 C 97.9875 0.559288 1.60642 0
M  V30 1094 O 99.1725 0.797243 1.77081 0
M  V30 1095 C 96.3025 1.79462 2.97339 0
M  V30 1096 C 95.2565 2.94558 3.10515 0
M  V30 1097 C 94.5825 2.88105 4.50444 0
M  V30 1098 C 95.8825 4.35227 2.88747 0
M  V30 1099 H 97.5765 2.6378 1.41635 0
M  V30 1100 H 95.1225 1.26936 0.679942 0
M  V30 1101 H 97.0755 1.92734 3.74742 0
M  V30 1102 H 95.7995 0.833412 3.15788 0
M  V30 1103 H 94.4585 2.80918 2.35543 0
M  V30 1104 H 94.1065 1.89853 4.65795 0
M  V30 1105 H 93.8065 3.65366 4.60197 0
M  V30 1106 H 95.3305 3.03412 5.29881 0
M  V30 1107 H 96.7445 4.49449 3.55905 0
M  V30 1108 H 95.1415 5.13856 3.09955 0
M  V30 1109 H 96.2115 4.48347 1.84696 0
M  V30 1110 N 97.5546 -0.734337 1.39446 0
M  V30 1111 C 98.8316 -1.48579 1.27215 0
M  V30 1112 C 99.2116 -2.1077 -0.117968 0
M  V30 1113 O 98.5596 -1.98646 -1.12924 0
M  V30 1114 C 98.7696 -2.53667 2.39696 0
M  V30 1115 C 100.118 -3.20031 2.79044 0
M  V30 1116 O 101.142 -2.6398 2.39151 0
M  V30 1117 O 100.001 -4.21455 3.47905 0
M  V30 1118 H 97.0946 -0.659816 0.49857 0
M  V30 1119 H 99.6406 -0.768106 1.51322 0
M  V30 1120 H 98.4126 -2.06096 3.32626 0
M  V30 1121 H 98.0356 -3.32994 2.17258 0
M  V30 1122 N 99.0327 -1.24633 -0.964593 0
M  V30 1123 C 100.261 -1.11501 -1.74285 0
M  V30 1124 C 100.676 0.332165 -1.85855 0
M  V30 1125 O 100.033 1.22903 -1.34911 0
M  V30 1126 C 100.084 -1.75258 -3.16175 0
M  V30 1127 O 99.8047 -3.14318 -3.05182 0
M  V30 1128 C 101.306 -1.67776 -4.10324 0
M  V30 1129 H 98.5257 -0.389407 -0.546446 0
M  V30 1130 H 101.07 -1.64801 -1.21083 0
M  V30 1131 H 99.2247 -1.25954 -3.66353 0
M  V30 1132 H 99.6387 -3.4551 -3.94618 0
M  V30 1133 H 101.113 -2.17064 -5.0753 0
M  V30 1134 H 101.59 -0.639584 -4.34518 0
M  V30 1135 H 102.196 -2.16522 -3.66058 0
M  V30 1136 N 100.511 1.16574 -1.06058 0
M  V30 1137 C 101.459 2.22941 -0.663343 0
M  V30 1138 C 102.453 1.66358 0.319593 0
M  V30 1139 O 103.659 1.7905 0.184713 0
M  V30 1140 H 100.034 0.725907 -0.196376 0
M  V30 1141 H 102.005 2.53736 -1.57037 0
M  V30 1142 C 100.754 3.47642 -0.0632808 0
M  V30 1143 H 100.077 3.91493 -0.810733 0
M  V30 1144 H 101.517 4.2363 0.177177 0
M  V30 1145 C 99.9758 3.1509 1.19248 0
M  V30 1146 O 100.506 3.30673 2.28075 0
M  V30 1147 N 98.7118 2.6924 1.09353 0
M  V30 1148 H 98.2588 2.5676 0.207912 0
M  V30 1149 H 98.2168 2.47833 1.93458 0
M  V30 1150 N 101.989 0.842826 1.3317 0
M  V30 1151 C 102.952 0.284065 2.27433 0
M  V30 1152 C 103.952 -0.54948 1.5112 0
M  V30 1153 O 105.142 -0.362699 1.70382 0
M  V30 1154 C 102.274 -0.599384 3.35589 0
M  V30 1155 H 103.467 1.11589 2.78366 0
M  V30 1156 H 101.02 0.616221 1.4364 0
M  V30 1157 H 101.755 -1.45349 2.89904 0
M  V30 1158 H 101.54 -0.00291266 3.921 0
M  V30 1159 H 103.03 -0.983488 4.05854 0
M  V30 1160 N 103.467 -1.45747 0.599634 0
M  V30 1161 C 104.744 -1.95585 0.0240846 0
M  V30 1162 C 105.124 -1.54217 -1.44154 0
M  V30 1163 O 104.472 -0.800903 -2.14004 0
M  V30 1164 C 104.682 -3.48344 0.21385 0
M  V30 1165 C 106.03 -4.24504 0.0904902 0
M  V30 1166 O 107.054 -3.55911 0.143558 0
M  V30 1167 O 105.913 -5.46491 -0.0310766 0
M  V30 1168 H 103.007 -0.82602 -0.0402478 0
M  V30 1169 H 105.553 -1.55951 0.669139 0
M  V30 1170 H 104.325 -3.71397 1.23206 0
M  V30 1171 H 103.948 -3.9485 -0.466842 0
M  V30 1172 N 104.945 -0.338344 -1.53925 0
M  V30 1173 C 105.892 0.520845 -2.24846 0
M  V30 1174 C 106.862 1.09976 -1.24477 0
M  V30 1175 O 108.047 1.13735 -1.53196 0
M  V30 1176 C 105.187 1.6685 -3.02084 0
M  V30 1177 C 104.3 1.11739 -4.17299 0
M  V30 1178 C 103.435 2.23193 -4.82036 0
M  V30 1179 C 102.474 1.65407 -5.89328 0
M  V30 1180 N 101.611 2.70582 -6.47866 0
M  V30 1181 H 106.451 -0.0904881 -2.97863 0
M  V30 1182 H 103.988 -0.0564282 -1.46992 0
M  V30 1183 H 105.946 2.34407 -3.45122 0
M  V30 1184 H 104.576 2.2509 -2.31375 0
M  V30 1185 H 103.628 0.332919 -3.7894 0
M  V30 1186 H 104.94 0.654677 -4.94485 0
M  V30 1187 H 104.094 2.98626 -5.28117 0
M  V30 1188 H 102.833 2.72807 -4.04262 0
M  V30 1189 H 101.838 0.884779 -5.42634 0
M  V30 1190 H 103.063 1.16652 -6.69006 0
M  V30 1191 H 101.009 3.1946 -5.72959 0
M  V30 1192 H 100.926 2.28917 -7.20509 0
M  V30 1193 H 102.194 3.45799 -6.98601 0
M  V30 1194 N 106.423 1.57458 -0.0668435 0
M  V30 1195 C 107.355 2.09413 0.931601 0
M  V30 1196 C 108.368 1.02522 1.26464 0
M  V30 1197 O 109.557 1.30049 1.22269 0
M  V30 1198 C 106.657 2.53537 2.24882 0
M  V30 1199 C 105.83 3.83944 2.09537 0
M  V30 1200 C 104.889 4.14214 3.2452 0
M  V30 1201 O 103.915 4.83891 2.9973 0
M  V30 1202 N 105.117 3.67367 4.49469 0
M  V30 1203 H 107.882 2.95699 0.488048 0
M  V30 1204 H 105.443 1.61462 0.119009 0
M  V30 1205 H 107.435 2.70853 3.00701 0
M  V30 1206 H 106.005 1.72415 2.60753 0
M  V30 1207 H 105.225 3.76057 1.18215 0
M  V30 1208 H 106.513 4.69312 1.96529 0
M  V30 1209 H 105.911 3.11068 4.72497 0
M  V30 1210 H 104.468 3.89891 5.2233 0
M  V30 1211 N 107.901 -0.206675 1.56239 0
M  V30 1212 C 108.831 -1.25909 1.96645 0
M  V30 1213 C 109.812 -1.48097 0.836734 0
M  V30 1214 O 110.997 -1.6003 1.10019 0
M  V30 1215 C 108.127 -2.6058 2.29599 0
M  V30 1216 C 107.081 -2.53024 3.452 0
M  V30 1217 C 106.407 -3.91861 3.63798 0
M  V30 1218 C 107.707 -2.06524 4.79734 0
M  V30 1219 H 109.401 -0.923369 2.84806 0
M  V30 1220 H 106.947 -0.442735 1.37025 0
M  V30 1221 H 108.9 -3.34375 2.56459 0
M  V30 1222 H 107.624 -2.95869 1.38307 0
M  V30 1223 H 106.283 -1.81684 3.18412 0
M  V30 1224 H 105.931 -4.24483 2.69857 0
M  V30 1225 H 105.631 -3.87683 4.4156 0
M  V30 1226 H 107.155 -4.67296 3.93022 0
M  V30 1227 H 108.569 -2.70072 5.05702 0
M  V30 1228 H 106.966 -2.13374 5.60885 0
M  V30 1229 H 108.036 -1.01802 4.74093 0
M  V30 1230 N 109.379 -1.50304 -0.473955 0
M  V30 1231 C 110.604 -1.65175 -1.25427 0
M  V30 1232 C 111.029 -0.333673 -1.85117 0
M  V30 1233 O 110.387 0.702114 -1.67153 0
M  V30 1234 C 110.435 -2.74295 -2.34082 0
M  V30 1235 O 109.539 -2.35349 -3.38651 0
M  V30 1236 H 108.88 -0.551944 -0.369126 0
M  V30 1237 H 111.41 -1.96662 -0.564364 0
M  V30 1238 H 111.42 -2.97285 -2.79438 0
M  V30 1239 H 110.095 -3.69959 -1.90008 0
M  V30 1240 H 108.672 -2.22794 -2.99027 0
M  V30 1241 N 110.857 0.726932 -1.39834 0
M  V30 1242 C 112.104 1.48664 -1.37496 0
M  V30 1243 C 112.432 1.94482 0.0264678 0
M  V30 1244 O 111.687 1.67692 1.00886 0
M  V30 1245 C 111.986 2.73495 -2.30077 0
M  V30 1246 C 111.652 2.46502 -3.77555 0
M  V30 1247 C 110.314 2.3885 -4.17737 0
M  V30 1248 C 112.666 2.23604 -4.70798 0
M  V30 1249 C 109.994 2.06352 -5.49214 0
M  V30 1250 C 112.346 1.92622 -6.02561 0
M  V30 1251 C 111.01 1.83444 -6.41798 0
M  V30 1252 H 110.28 0.544001 -0.503135 0
M  V30 1253 H 112.927 0.833657 -1.72402 0
M  V30 1254 H 111.232 3.43575 -1.88317 0
M  V30 1255 H 112.929 3.31549 -2.25558 0
M  V30 1256 H 109.519 2.5334 -3.45712 0
M  V30 1257 H 113.703 2.28479 -4.40581 0
M  V30 1258 H 108.959 1.97776 -5.78528 0
M  V30 1259 H 113.133 1.73914 -6.74334 0
M  V30 1260 H 110.76 1.58029 -7.43593 0
M  V30 1261 N 112.336 1.25143 0.95797 0
M  V30 1262 C 113.246 1.06968 2.08794 0
M  V30 1263 C 114.262 0.00773911 1.73998 0
M  V30 1264 O 115.438 0.207972 2.00323 0
M  V30 1265 C 112.503 0.68691 3.39827 0
M  V30 1266 C 111.564 1.82641 3.88511 0
M  V30 1267 C 110.797 1.46181 5.1329 0
M  V30 1268 O 111.02 0.355971 5.69288 0
M  V30 1269 O 109.954 2.29085 5.566 0
M  V30 1270 H 113.78 2.01723 2.27027 0
M  V30 1271 H 111.365 1.04051 1.07209 0
M  V30 1272 H 113.247 0.485417 4.18595 0
M  V30 1273 H 111.922 -0.231417 3.22872 0
M  V30 1274 H 110.829 2.08274 3.10762 0
M  V30 1275 H 112.162 2.72386 4.09959 0
M  V30 1276 N 113.814 -1.1601 1.06675 0
M  V30 1277 C 114.724 -2.24156 0.692179 0
M  V30 1278 C 115.74 -1.71507 -0.293513 0
M  V30 1279 O 116.916 -2.009 -0.141861 0
M  V30 1280 C 113.981 -3.46587 0.0884131 0
M  V30 1281 C 113.042 -4.14257 1.12646 0
M  V30 1282 C 112.275 -5.30844 0.551416 0
M  V30 1283 O 112.498 -5.66858 -0.634656 0
M  V30 1284 O 111.432 -5.87848 1.29298 0
M  V30 1285 H 115.258 -2.58513 1.59388 0
M  V30 1286 H 112.843 -1.23599 0.83926 0
M  V30 1287 H 114.725 -4.20679 -0.246361 0
M  V30 1288 H 113.4 -3.13994 -0.786712 0
M  V30 1289 H 112.307 -3.42118 1.51348 0
M  V30 1290 H 113.64 -4.50914 1.97325 0
M  V30 1291 N 115.292 -0.849877 -1.32721 0
M  V30 1292 C 116.539 -0.450923 -1.97416 0
M  V30 1293 C 116.867 0.992376 -1.67279 0
M  V30 1294 O 116.122 1.71048 -0.950845 0
M  V30 1295 C 116.421 -0.631272 -3.51781 0
M  V30 1296 C 116.087 -2.04432 -4.01894 0
M  V30 1297 C 114.749 -2.4308 -4.1529 0
M  V30 1298 C 117.101 -2.96679 -4.28522 0
M  V30 1299 C 114.429 -3.73257 -4.52654 0
M  V30 1300 C 116.781 -4.26349 -4.67343 0
M  V30 1301 C 115.445 -4.64939 -4.78945 0
M  V30 1302 H 114.715 -0.165004 -0.722395 0
M  V30 1303 H 117.362 -1.07901 -1.58207 0
M  V30 1304 H 115.667 0.0800767 -3.91718 0
M  V30 1305 H 117.364 -0.302709 -3.99856 0
M  V30 1306 H 113.954 -1.73419 -3.91949 0
M  V30 1307 H 118.138 -2.68054 -4.17685 0
M  V30 1308 H 113.394 -4.02946 -4.59831 0
M  V30 1309 H 117.568 -4.97895 -4.86902 0
M  V30 1310 H 115.195 -5.65855 -5.07654 0
M  V30 1311 N 116.77 1.45427 -0.607355 0
M  V30 1312 C 118.019 2.01452 -0.100036 0
M  V30 1313 C 118.332 1.48159 1.27704 0
M  V30 1314 O 119.538 1.96159 1.87707 0
M  V30 1315 C 117.994 3.59672 -0.128158 0
M  V30 1316 C 117.602 4.21962 -1.50507 0
M  V30 1317 C 119.346 4.23262 0.323932 0
M  V30 1318 C 117.253 5.72333 -1.48959 0
M  V30 1319 H 116.183 0.75325 -0.0336299 0
M  V30 1320 H 118.834 1.66901 -0.76265 0
M  V30 1321 H 117.216 3.91411 0.601105 0
M  V30 1322 H 118.39 4.01796 -2.25602 0
M  V30 1323 H 116.705 3.70565 -1.89923 0
M  V30 1324 H 119.302 5.33522 0.354691 0
M  V30 1325 H 119.645 3.93921 1.34656 0
M  V30 1326 H 120.178 3.96239 -0.352056 0
M  V30 1327 H 116.917 6.06373 -2.48981 0
M  V30 1328 H 116.437 5.94691 -0.781214 0
M  V30 1329 H 118.116 6.35525 -1.21313 0
M  V30 1330 N 118.248 0.346503 1.53744 0
M  V30 1331 C 119.181 -0.552023 2.21423 0
M  V30 1332 C 120.159 -1.09798 1.19929 0
M  V30 1333 O 121.343 -1.1577 1.4876 0
M  V30 1334 C 118.47 -1.75972 2.89398 0
M  V30 1335 C 117.516 -1.34295 4.04805 0
M  V30 1336 S 118.349 -0.360263 5.34287 0
M  V30 1337 C 119.505 -1.57473 6.05767 0
M  V30 1338 H 119.738 0.0228119 2.97291 0
M  V30 1339 H 117.271 0.130579 1.53847 0
M  V30 1340 H 119.229 -2.45256 3.2918 0
M  V30 1341 H 117.89 -2.30578 2.1329 0
M  V30 1342 H 117.083 -2.24349 4.51313 0
M  V30 1343 H 116.685 -0.729555 3.66815 0
M  V30 1344 H 118.977 -2.50875 6.29339 0
M  V30 1345 H 119.92 -1.15138 6.98676 0
M  V30 1346 H 120.328 -1.77212 5.35963 0
M  V30 1347 N 119.726 -1.57421 0.075193 0
M  V30 1348 C 120.656 -2.15942 -0.888324 0
M  V30 1349 C 121.637 -1.08737 -1.30806 0
M  V30 1350 O 122.822 -1.36787 -1.37851 0
M  V30 1351 C 119.952 -2.72379 -2.1547 0
M  V30 1352 C 118.906 -3.8478 -1.87425 0
M  V30 1353 C 118.232 -4.27834 -3.20721 0
M  V30 1354 C 119.532 -5.08869 -1.17684 0
M  V30 1355 H 121.226 -2.96705 -0.400799 0
M  V30 1356 H 118.772 -1.42723 -0.191342 0
M  V30 1357 H 120.725 -3.11965 -2.83295 0
M  V30 1358 H 119.449 -1.88841 -2.6647 0
M  V30 1359 H 118.108 -3.45703 -1.22004 0
M  V30 1360 H 117.756 -3.41214 -3.6957 0
M  V30 1361 H 117.456 -5.03605 -3.02746 0
M  V30 1362 H 118.98 -4.70039 -3.89738 0
M  V30 1363 H 120.394 -5.4575 -1.75584 0
M  V30 1364 H 118.791 -5.8994 -1.09956 0
M  V30 1365 H 119.861 -4.84648 -0.156453 0
M  V30 1366 N 121.204 0.198386 -1.56346 0
M  V30 1367 C 122.137 1.27381 -1.89339 0
M  V30 1368 C 123.115 1.44106 -0.753134 0
M  V30 1369 O 124.299 1.59549 -1.00381 0
M  V30 1370 C 121.426 2.6409 -2.12071 0
M  V30 1371 C 120.472 2.64253 -3.34772 0
M  V30 1372 S 121.305 2.16013 -4.89999 0
M  V30 1373 C 122.461 3.54553 -5.15794 0
M  V30 1374 H 122.694 0.992058 -2.8026 0
M  V30 1375 H 120.227 0.401726 -1.49082 0
M  V30 1376 H 122.185 3.42786 -2.2585 0
M  V30 1377 H 120.846 2.89478 -1.21906 0
M  V30 1378 H 120.039 3.64768 -3.47794 0
M  V30 1379 H 119.641 1.93637 -3.1997 0
M  V30 1380 H 121.933 4.50396 -5.06112 0
M  V30 1381 H 122.876 3.46428 -6.1757 0
M  V30 1382 H 123.284 3.49313 -4.43442 0
M  V30 1383 N 122.682 1.50554 0.465978 0
M  V30 1384 C 123.645 1.69233 1.54574 0
M  V30 1385 C 124.645 0.562901 1.50626 0
M  V30 1386 O 125.835 0.830016 1.53155 0
M  V30 1387 C 122.967 1.7223 2.94193 0
M  V30 1388 H 124.16 2.65571 1.39327 0
M  V30 1389 H 121.713 1.40111 0.692711 0
M  V30 1390 H 122.448 0.77603 3.14878 0
M  V30 1391 H 122.233 2.54285 2.98466 0
M  V30 1392 H 123.723 1.88618 3.72576 0
M  V30 1393 N 124.16 -0.719506 1.40217 0
M  V30 1394 C 125.576 -1.02707 1.22161 0
M  V30 1395 C 125.776 -2.0128 0.0940557 0
M  V30 1396 O 124.832 -2.46452 -0.549318 0
M  V30 1397 C 126.145 -1.57454 2.56181 0
M  V30 1398 C 127.693 -1.69458 2.63159 0
M  V30 1399 C 128.168 -2.27611 3.97438 0
M  V30 1400 N 129.659 -2.35002 3.99159 0
M  V30 1401 C 130.394 -2.80972 4.99842 0
M  V30 1402 N 129.89 -3.26723 6.10921 0
M  V30 1403 N 131.683 -2.80321 4.87213 0
M  V30 1404 H 123.834 -0.0660492 2.12297 0
M  V30 1405 H 126.097 -0.0919077 0.943534 0
M  V30 1406 H 125.803 -0.924873 3.39321 0
M  V30 1407 H 125.677 -2.56036 2.76993 0
M  V30 1408 H 128.064 -2.33543 1.80393 0
M  V30 1409 H 128.145 -0.694867 2.46181 0
M  V30 1410 H 127.789 -1.6415 4.80643 0
M  V30 1411 H 127.719 -3.2829 4.11744 0
M  V30 1412 H 130.21 -2.02685 3.18947 0
M  V30 1413 H 130.523 -3.60355 6.8364 0
M  V30 1414 H 128.868 -3.24692 6.14492 0
M  V30 1415 H 132.059 -2.43912 3.9953 0
M  V30 1416 H 132.232 -3.15831 5.65822 0
M  V30 1417 N 125.638 -1.25649 -0.95132 0
M  V30 1418 C 126.568 -1.08808 -2.06599 0
M  V30 1419 C 127.549 0.00382547 -1.701 0
M  V30 1420 O 128.734 -0.166325 -1.93486 0
M  V30 1421 C 125.864 -0.709542 -3.39975 0
M  V30 1422 C 124.818 -1.75206 -3.90496 0
M  V30 1423 C 124.144 -1.22811 -5.20405 0
M  V30 1424 C 125.444 -3.15153 -4.16504 0
M  V30 1425 H 127.138 -2.02048 -2.20946 0
M  V30 1426 H 124.684 -0.972835 -1.06169 0
M  V30 1427 H 126.637 -0.578649 -4.17408 0
M  V30 1428 H 125.361 0.258556 -3.25575 0
M  V30 1429 H 124.02 -1.87145 -3.15234 0
M  V30 1430 H 123.668 -0.250145 -5.02378 0
M  V30 1431 H 123.368 -1.92492 -5.55176 0
M  V30 1432 H 124.892 -1.10968 -6.00432 0
M  V30 1433 H 126.306 -3.06349 -4.84586 0
M  V30 1434 H 124.703 -3.82333 -4.62538 0
M  V30 1435 H 125.773 -3.61966 -3.22658 0
M  V30 1436 N 127.117 1.15442 -1.07289 0
M  V30 1437 C 128.345 1.90096 -0.81676 0
M  V30 1438 C 128.76 1.7798 0.629966 0
M  V30 1439 O 128.117 1.1313 1.43206 0
M  V30 1440 C 128.168 3.40466 -1.21512 0
M  V30 1441 O 127.889 3.52232 -2.60508 0
M  V30 1442 C 129.39 4.32145 -0.988198 0
M  V30 1443 H 126.61 0.602495 -0.295366 0
M  V30 1444 H 129.154 1.4627 -1.42918 0
M  V30 1445 H 127.309 3.81958 -0.647039 0
M  V30 1446 H 127.723 4.45549 -2.76742 0
M  V30 1447 H 129.197 5.36072 -1.31645 0
M  V30 1448 H 129.674 4.39135 0.0755063 0
M  V30 1449 H 130.28 3.96395 -1.54115 0
M  V30 1450 N 128.595 0.856903 1.32268 0
M  V30 1451 C 129.841 0.471355 1.97863 0
M  V30 1452 C 130.196 -0.962896 1.66572 0
M  V30 1453 O 129.489 -1.66686 0.944797 0
M  V30 1454 C 129.683 0.649919 3.51441 0
M  V30 1455 C 129.512 2.09997 3.97657 0
M  V30 1456 C 128.282 2.73893 4.2463 0
M  V30 1457 C 130.48 3.07081 4.1256 0
M  V30 1458 N 128.462 4.09786 4.57109 0
M  V30 1459 C 129.833 4.27968 4.48602 0
M  V30 1460 C 131.888 3.03247 3.949 0
M  V30 1461 C 130.591 5.45521 4.68827 0
M  V30 1462 C 132.617 4.20046 4.16311 0
M  V30 1463 C 131.979 5.39692 4.52672 0
M  V30 1464 H 128.078 0.221263 0.750044 0
M  V30 1465 H 130.662 1.10876 1.60045 0
M  V30 1466 H 128.833 0.0421938 3.88377 0
M  V30 1467 H 130.565 0.234044 4.04023 0
M  V30 1468 H 127.32 2.24918 4.16784 0
M  V30 1469 H 127.744 4.7989 4.7753 0
M  V30 1470 H 132.386 2.11863 3.65888 0
M  V30 1471 H 130.104 6.37434 4.96693 0
M  V30 1472 H 133.69 4.18517 4.04147 0
M  V30 1473 H 132.57 6.28566 4.68907 0
M  V30 1474 N 130.073 -1.45103 0.615059 0
M  V30 1475 C 131.036 -2.29025 -0.0895485 0
M  V30 1476 C 132.036 -1.40174 -0.787906 0
M  V30 1477 O 133.226 -1.62217 -0.634933 0
M  V30 1478 C 130.358 -3.21376 -1.13711 0
M  V30 1479 H 131.551 -2.92807 0.648382 0
M  V30 1480 H 129.104 -1.51749 0.374444 0
M  V30 1481 H 129.839 -2.6241 -1.90556 0
M  V30 1482 H 129.624 -3.86834 -0.640475 0
M  V30 1483 H 131.114 -3.84459 -1.63036 0
M  V30 1484 N 131.551 -0.354651 -1.53558 0
M  V30 1485 C 132.776 0.242153 -2.05981 0
M  V30 1486 C 133.201 1.42553 -1.2272 0
M  V30 1487 O 132.559 1.79656 -0.243604 0
M  V30 1488 C 132.607 0.624367 -3.55154 0
M  V30 1489 O 131.711 1.72301 -3.74681 0
M  V30 1490 H 131.052 0.0378432 -0.662921 0
M  V30 1491 H 133.582 -0.512087 -1.98088 0
M  V30 1492 H 133.592 0.898433 -3.97985 0
M  V30 1493 H 132.267 -0.240989 -4.15201 0
M  V30 1494 H 130.844 1.44535 -3.4375 0
M  V30 1495 N 133.029 1.57378 -0.0835403 0
M  V30 1496 C 133.979 2.09916 0.889905 0
M  V30 1497 C 134.963 1.01151 1.25129 0
M  V30 1498 O 136.155 1.27443 1.2283 0
M  V30 1499 C 133.284 2.67379 2.15322 0
M  V30 1500 C 132.37 3.83167 1.81779 0
M  V30 1501 N 132.761 4.91665 1.18739 0
M  V30 1502 C 131.059 3.92685 2.11459 0
M  V30 1503 C 131.76 5.72409 1.0355 0
M  V30 1504 N 130.736 5.21062 1.54906 0
M  V30 1505 H 134.538 2.91188 0.398378 0
M  V30 1506 H 132.052 1.61956 0.120013 0
M  V30 1507 H 134.049 3.0334 2.8599 0
M  V30 1508 H 132.709 1.87558 2.65051 0
M  V30 1509 H 133.72 5.10784 0.855604 0
M  V30 1510 H 130.397 3.23856 2.63483 0
M  V30 1511 H 131.787 6.69699 0.543425 0
M  V30 1512 N 134.507 -0.190092 1.56449 0
M  V30 1513 C 135.417 -1.25591 1.98152 0
M  V30 1514 C 136.433 -1.49519 0.889944 0
M  V30 1515 O 137.609 -1.62036 1.19609 0
M  V30 1516 C 134.674 -2.57916 2.3169 0
M  V30 1517 C 133.735 -2.42015 3.5458 0
M  V30 1518 C 132.968 -3.6803 3.8651 0
M  V30 1519 O 133.191 -4.72413 3.1966 0
M  V30 1520 O 132.125 -3.6326 4.79923 0
M  V30 1521 H 135.951 -0.931988 2.89046 0
M  V30 1522 H 133.536 -0.395488 1.4407 0
M  V30 1523 H 135.418 -3.36008 2.54316 0
M  V30 1524 H 134.093 -2.89925 1.43963 0
M  V30 1525 H 133 -1.62017 3.37196 0
M  V30 1526 H 134.333 -2.14937 4.4279 0
M  V30 1527 N 135.985 -1.50799 -0.457987 0
M  V30 1528 C 136.932 -1.70617 -1.5543 0
M  V30 1529 C 137.902 -0.547562 -1.56815 0
M  V30 1530 O 139.087 -0.779647 -1.74144 0
M  V30 1531 C 136.227 -1.81831 -2.93311 0
M  V30 1532 C 135.34 -3.09278 -3.01615 0
M  V30 1533 C 134.475 -3.11209 -4.30491 0
M  V30 1534 C 133.514 -4.33055 -4.32585 0
M  V30 1535 N 132.651 -4.32652 -5.52952 0
M  V30 1536 H 137.491 -2.64207 -1.37836 0
M  V30 1537 H 135.028 -1.30959 -0.669937 0
M  V30 1538 H 136.986 -1.86314 -3.73287 0
M  V30 1539 H 135.616 -0.916685 -3.0951 0
M  V30 1540 H 134.668 -3.14203 -2.1443 0
M  V30 1541 H 135.98 -3.99233 -2.99022 0
M  V30 1542 H 135.134 -3.14494 -5.18824 0
M  V30 1543 H 133.873 -2.19106 -4.35711 0
M  V30 1544 H 132.878 -4.29969 -3.42647 0
M  V30 1545 H 134.103 -5.264 -4.29046 0
M  V30 1546 H 132.049 -3.43409 -5.58933 0
M  V30 1547 H 131.966 -5.16392 -5.52155 0
M  V30 1548 H 133.234 -4.40101 -6.43375 0
M  V30 1549 N 137.463 0.71206 -1.40597 0
M  V30 1550 C 138.396 1.83582 -1.35546 0
M  V30 1551 C 139.374 1.61032 -0.225284 0
M  V30 1552 O 140.558 1.83998 -0.409519 0
M  V30 1553 C 137.685 3.19983 -1.11034 0
M  V30 1554 C 136.731 3.61355 -2.2655 0
M  V30 1555 S 137.564 3.68062 -3.88961 0
M  V30 1556 C 138.72 5.07216 -3.66719 0
M  V30 1557 H 138.953 1.87586 -2.30648 0
M  V30 1558 H 136.486 0.879182 -1.26924 0
M  V30 1559 H 138.444 3.98734 -0.975761 0
M  V30 1560 H 137.105 3.13608 -0.175798 0
M  V30 1561 H 136.298 4.60403 -2.0505 0
M  V30 1562 H 135.9 2.8987 -2.36329 0
M  V30 1563 H 138.192 5.94238 -3.25404 0
M  V30 1564 H 139.135 5.33753 -4.6531 0
M  V30 1565 H 139.543 4.77976 -3.00332 0
M  V30 1566 N 138.941 1.26152 0.944643 0
M  V30 1567 C 139.891 1.04081 2.02857 0
M  V30 1568 C 140.875 -0.0256555 1.6088 0
M  V30 1569 O 142.067 0.190884 1.75968 0
M  V30 1570 C 139.196 0.672118 3.36656 0
M  V30 1571 C 138.282 1.77586 3.85128 0
M  V30 1572 N 138.673 3.01272 4.06287 0
M  V30 1573 C 136.971 1.65867 4.1401 0
M  V30 1574 C 137.672 3.72983 4.46384 0
M  V30 1575 N 136.648 3.00653 4.52889 0
M  V30 1576 H 140.45 1.97968 2.17223 0
M  V30 1577 H 137.964 1.16618 1.13022 0
M  V30 1578 H 139.961 0.495166 4.13949 0
M  V30 1579 H 138.621 -0.259307 3.23663 0
M  V30 1580 H 139.632 3.37213 3.93075 0
M  V30 1581 H 136.309 0.796907 4.09824 0
M  V30 1582 H 137.699 4.792 4.70975 0
M  V30 1583 N 140.419 -1.14872 1.07899 0
M  V30 1584 C 141.329 -2.2341 0.715915 0
M  V30 1585 C 142.345 -1.71808 -0.275306 0
M  V30 1586 O 143.521 -2.01039 -0.120545 0
M  V30 1587 C 140.586 -3.46474 0.125168 0
M  V30 1588 C 139.647 -4.13039 1.17034 0
M  V30 1589 C 138.88 -5.30229 0.607688 0
M  V30 1590 O 139.103 -5.675 -0.574497 0
M  V30 1591 O 138.037 -5.86444 1.35526 0
M  V30 1592 H 141.863 -2.56808 1.62121 0
M  V30 1593 H 139.448 -1.22702 0.852322 0
M  V30 1594 H 141.33 -4.20917 -0.201729 0
M  V30 1595 H 140.005 -3.14811 -0.753364 0
M  V30 1596 H 138.912 -3.40493 1.54968 0
M  V30 1597 H 140.245 -4.48796 2.02097 0
M  V30 1598 N 141.898 -0.863906 -1.31812 0
M  V30 1599 C 143.146 -0.470904 -1.96537 0
M  V30 1600 C 143.467 0.978771 -1.68657 0
M  V30 1601 O 142.737 1.6853 -0.998717 0
M  V30 1602 H 141.317 -0.171148 -0.72713 0
M  V30 1603 H 143.979 -1.10236 -1.60729 0
M  V30 1604 H 143.075 -0.623616 -3.05806 0
M  V30 1605 N 143.376 1.44774 -0.622745 0
M  V30 1606 C 144.653 1.95522 -0.0551974 0
M  V30 1607 C 145.033 1.5649 1.41683 0
M  V30 1608 O 144.381 0.834848 2.12703 0
M  V30 1609 C 144.591 3.4796 -0.269242 0
M  V30 1610 C 145.939 4.24306 -0.158014 0
M  V30 1611 O 146.963 3.55637 -0.200162 0
M  V30 1612 O 145.822 5.46471 -0.0558693 0
M  V30 1613 H 142.916 0.826556 0.0271015 0
M  V30 1614 H 145.462 1.54866 -0.693864 0
M  V30 1615 H 144.234 3.6939 -1.29099 0
M  V30 1616 H 143.857 3.95543 0.403966 0
M  V30 1617 N 144.854 0.36279 1.53368 0
M  V30 1618 C 145.764 -0.492994 2.29362 0
M  V30 1619 C 146.78 -1.09507 1.35219 0
M  V30 1620 O 147.956 -1.10662 1.68273 0
M  V30 1621 C 145.021 -1.61855 3.066 0
M  V30 1622 C 144.082 -1.04429 4.16405 0
M  V30 1623 C 143.315 -2.11621 4.89951 0
M  V30 1624 O 143.538 -3.32684 4.63333 0
M  V30 1625 O 142.472 -1.74835 5.75948 0
M  V30 1626 H 146.298 0.125331 3.03441 0
M  V30 1627 H 143.883 0.127253 1.48857 0
M  V30 1628 H 145.765 -2.27302 3.54841 0
M  V30 1629 H 144.44 -2.22233 2.3536 0
M  V30 1630 H 143.347 -0.353819 3.72423 0
M  V30 1631 H 144.68 -0.485113 4.89804 0
M  V30 1632 N 146.332 -1.57332 0.0918853 0
M  V30 1633 C 147.58 -1.93853 -0.571446 0
M  V30 1634 C 147.901 -0.974212 -1.6892 0
M  V30 1635 O 147.171 -0.0257254 -1.95883 0
M  V30 1636 H 145.751 -0.715666 -0.214082 0
M  V30 1637 H 148.413 -1.94287 0.154464 0
M  V30 1638 H 147.509 -2.96191 -0.983729 0
M  V30 1639 N 147.81 0.181792 -1.56548 0
M  V30 1640 C 149.221 0.745244 -1.71181 0
M  V30 1641 C 149.572 1.83262 -0.70068 0
M  V30 1642 O 148.697 2.15946 0.140154 0
M  V30 1643 C 149.292 1.35859 -3.10367 0
M  V30 1644 C 147.851 1.86898 -3.2672 0
M  V30 1645 C 146.998 0.743942 -2.67134 0
M  V30 1646 H 149.949 -0.0434661 -1.5864 0
M  V30 1647 H 149.97 2.22817 -3.08436 0
M  V30 1648 H 149.482 0.566948 -3.83937 0
M  V30 1649 H 147.583 2.68738 -2.5809 0
M  V30 1650 H 147.696 2.02162 -4.34359 0
M  V30 1651 H 146.06 1.16169 -2.26665 0
M  V30 1652 H 146.843 -0.035676 -3.43281 0
M  V30 1653 N 149.288 1.51039 0.449983 0
M  V30 1654 C 150.536 1.62759 1.19808 0
M  V30 1655 C 150.857 0.339981 1.92013 0
M  V30 1656 O 150.127 -0.643606 1.85026 0
M  V30 1657 H 148.707 0.599811 0.445237 0
M  V30 1658 H 151.369 1.87914 0.517138 0
M  V30 1659 H 150.465 2.44911 1.93455 0
M  V30 1660 N 150.766 -0.704594 1.40972 0
M  V30 1661 C 151.716 -1.81051 1.38581 0
M  V30 1662 C 152.7 -1.58759 0.261585 0
M  V30 1663 O 153.892 -1.69745 0.501556 0
M  V30 1664 C 151.021 -3.19279 1.26157 0
M  V30 1665 C 150.107 -3.47296 2.43405 0
M  V30 1666 N 150.498 -3.46064 3.68881 0
M  V30 1667 C 148.796 -3.77804 2.37023 0
M  V30 1668 C 149.497 -3.72733 4.46592 0
M  V30 1669 N 148.473 -3.9203 3.76581 0
M  V30 1670 H 152.275 -1.78448 2.33525 0
M  V30 1671 H 149.789 -0.904198 1.349 0
M  V30 1672 H 151.786 -3.98488 1.22526 0
M  V30 1673 H 150.446 -3.231 0.321902 0
M  V30 1674 H 151.457 -3.26656 4.01891 0
M  V30 1675 H 148.134 -3.8905 1.51481 0
M  V30 1676 H 149.524 -3.77993 5.55492 0
M  V30 1677 N 152.244 -1.26651 -0.937939 0
M  V30 1678 C 153.194 -1.05156 -2.02302 0
M  V30 1679 C 154.178 0.0171233 -1.60891 0
M  V30 1680 O 155.37 -0.200213 -1.75864 0
M  V30 1681 C 152.499 -0.689962 -3.36295 0
M  V30 1682 C 151.585 -1.79626 -3.84181 0
M  V30 1683 N 151.976 -3.03422 -4.04684 0
M  V30 1684 C 150.274 -1.6806 -4.13124 0
M  V30 1685 C 150.975 -3.75345 -4.444 0
M  V30 1686 N 149.951 -3.03051 -4.51288 0
M  V30 1687 H 153.753 -1.99117 -2.1617 0
M  V30 1688 H 151.267 -1.17216 -1.12402 0
M  V30 1689 H 153.264 -0.517112 -4.13681 0
M  V30 1690 H 151.924 0.242139 -3.23796 0
M  V30 1691 H 152.935 -3.39293 -3.91281 0
M  V30 1692 H 149.612 -0.818629 -4.09396 0
M  V30 1693 H 151.002 -4.81691 -4.68427 0
M  V30 1694 N 153.722 1.14298 -1.08507 0
M  V30 1695 C 154.672 2.17449 -0.685569 0
M  V30 1696 C 155.656 1.58167 0.295315 0
M  V30 1697 O 156.848 1.76675 0.107172 0
M  V30 1698 C 153.977 3.43161 -0.0975318 0
M  V30 1699 C 153.063 4.09471 -1.10426 0
M  V30 1700 N 153.454 4.51089 -2.28806 0
M  V30 1701 C 151.752 4.35976 -0.940258 0
M  V30 1702 C 152.453 5.02654 -2.9277 0
M  V30 1703 N 151.429 4.96927 -2.20374 0
M  V30 1704 H 155.231 2.47369 -1.587 0
M  V30 1705 H 152.745 1.30992 -0.959936 0
M  V30 1706 H 154.742 4.16388 0.20664 0
M  V30 1707 H 153.402 3.14719 0.798872 0
M  V30 1708 H 154.413 4.44097 -2.66455 0
M  V30 1709 H 151.09 4.17386 -0.0977441 0
M  V30 1710 H 152.48 5.44723 -3.93352 0
M  V30 1711 N 155.201 0.870884 1.31352 0
M  V30 1712 C 156.148 0.325425 2.28494 0
M  V30 1713 C 157.118 -0.576615 1.5577 0
M  V30 1714 O 158.303 -0.508059 1.83911 0
M  V30 1715 C 155.443 -0.466283 3.41935 0
M  V30 1716 C 154.556 0.463378 4.29508 0
M  V30 1717 C 153.691 -0.342544 5.30094 0
M  V30 1718 C 152.73 0.583486 6.09313 0
M  V30 1719 N 151.867 -0.186244 7.01853 0
M  V30 1720 H 156.707 1.15901 2.74538 0
M  V30 1721 H 154.244 0.58294 1.35056 0
M  V30 1722 H 156.202 -0.941085 4.06447 0
M  V30 1723 H 154.832 -1.26456 2.97 0
M  V30 1724 H 153.884 1.05663 3.65431 0
M  V30 1725 H 155.196 1.1734 4.84802 0
M  V30 1726 H 154.35 -0.879816 6.00287 0
M  V30 1727 H 153.089 -1.08585 4.75458 0
M  V30 1728 H 152.094 1.13251 5.3801 0
M  V30 1729 H 153.319 1.32566 6.66035 0
M  V30 1730 H 151.265 -0.912348 6.49625 0
M  V30 1731 H 151.182 0.464422 7.54572 0
M  V30 1732 H 152.45 -0.704716 7.76308 0
M  V30 1733 N 156.679 -1.44442 0.630414 0
M  V30 1734 C 158.09 -1.85434 0.217063 0
M  V30 1735 C 158.441 -1.52748 -1.23136 0
M  V30 1736 O 157.566 -0.965205 -1.93682 0
M  V30 1737 C 158.161 -3.36581 0.387168 0
M  V30 1738 C 156.72 -3.76389 0.0283297 0
M  V30 1739 C 155.867 -2.68296 0.700889 0
M  V30 1740 H 158.818 -1.34919 0.83562 0
M  V30 1741 H 158.839 -3.78657 -0.374086 0
M  V30 1742 H 158.351 -3.60339 1.44144 0
M  V30 1743 H 156.452 -3.58246 -1.02423 0
M  V30 1744 H 156.565 -4.77095 0.437892 0
M  V30 1745 H 154.929 -2.54335 0.136267 0
M  V30 1746 H 155.712 -2.94887 1.75774 0
M  V30 1747 N 158.157 -0.370918 -1.53173 0
M  V30 1748 C 159.405 0.216673 -2.00935 0
M  V30 1749 C 159.726 1.48845 -1.25977 0
M  V30 1750 O 158.996 1.92286 -0.374551 0
M  V30 1751 H 157.576 0.0830565 -0.742368 0
M  V30 1752 H 160.238 -0.49838 -1.8842 0
M  V30 1753 H 159.334 0.439893 -3.08984 0
M  V30 1754 N 159.635 1.57281 -0.100228 0
M  V30 1755 C 160.565 2.17328 0.853857 0
M  V30 1756 C 161.546 1.10804 1.2906 0
M  V30 1757 O 162.731 1.38963 1.35657 0
M  V30 1758 C 159.861 2.75772 2.11109 0
M  V30 1759 C 158.815 3.87713 1.81279 0
M  V30 1760 C 158.141 4.32882 3.13874 0
M  V30 1761 C 159.441 5.10677 1.09574 0
M  V30 1762 H 161.135 2.97305 0.353545 0
M  V30 1763 H 158.681 1.43009 0.168612 0
M  V30 1764 H 160.634 3.16433 2.78296 0
M  V30 1765 H 159.358 1.93057 2.63432 0
M  V30 1766 H 158.017 3.476 1.16489 0
M  V30 1767 H 157.665 3.47051 3.64095 0
M  V30 1768 H 157.365 5.08358 2.94696 0
M  V30 1769 H 158.889 4.7618 3.82211 0
M  V30 1770 H 160.303 5.48474 1.66879 0
M  V30 1771 H 158.7 5.91615 1.00557 0
M  V30 1772 H 159.77 4.84835 0.0793299 0
M  V30 1773 N 161.113 -0.173488 1.56642 0
M  V30 1774 C 162.361 -0.888706 1.81512 0
M  V30 1775 C 162.682 -1.82875 0.676872 0
M  V30 1776 O 161.952 -1.93536 -0.303414 0
M  V30 1777 H 160.532 -0.331164 0.669582 0
M  V30 1778 H 163.194 -0.173823 1.94123 0
M  V30 1779 H 162.29 -1.46691 2.75478 0
M  V30 1780 N 162.591 -1.51276 -0.441967 0
M  V30 1781 C 163.501 -1.75092 -1.56141 0
M  V30 1782 C 164.517 -0.634963 -1.62001 0
M  V30 1783 O 165.693 -0.916686 -1.79329 0
M  V30 1784 C 162.758 -1.86666 -2.92158 0
M  V30 1785 C 161.819 -3.10506 -2.96453 0
M  V30 1786 C 161.052 -3.21519 -4.25982 0
M  V30 1787 O 161.275 -2.38586 -5.18105 0
M  V30 1788 O 160.209 -4.14465 -4.36466 0
M  V30 1789 H 164.035 -2.70044 -1.38961 0
M  V30 1790 H 161.62 -1.35722 -0.624499 0
M  V30 1791 H 163.502 -1.96292 -3.72891 0
M  V30 1792 H 162.177 -0.949014 -3.09476 0
M  V30 1793 H 161.084 -3.06363 -2.14692 0
M  V30 1794 H 162.417 -4.01945 -2.84079 0
M  V30 1795 N 164.069 0.697108 -1.41344 0
M  V30 1796 C 165.317 1.45426 -1.40341 0
M  V30 1797 C 165.638 1.94996 -0.0128787 0
M  V30 1798 O 164.908 1.71599 0.945027 0
M  V30 1799 H 163.488 0.539594 -0.516573 0
M  V30 1800 H 166.15 0.825201 -1.76569 0
M  V30 1801 H 165.246 2.31817 -2.08967 0
M  V30 1802 N 165.547 1.27147 0.931209 0
M  V30 1803 C 166.775 1.16082 1.71267 0
M  V30 1804 C 167.19 -0.282772 1.8667 0
M  V30 1805 O 166.547 -1.19283 1.38122 0
M  V30 1806 C 166.598 1.8358 3.11417 0
M  V30 1807 O 166.319 3.22299 2.96741 0
M  V30 1808 C 167.82 1.78597 4.05732 0
M  V30 1809 H 165.04 0.403758 0.535929 0
M  V30 1810 H 167.584 1.67953 1.16671 0
M  V30 1811 H 165.739 1.35623 3.62885 0
M  V30 1812 H 166.153 3.55851 3.85319 0
M  V30 1813 H 167.627 2.30444 5.01597 0
M  V30 1814 H 168.104 0.754564 4.3267 0
M  V30 1815 H 168.71 2.26152 3.60188 0
M  V30 1816 N 167.025 -1.13721 1.09112 0
M  V30 1817 C 168.436 -1.6648 0.845068 0
M  V30 1818 C 168.787 -1.85911 -0.62701 0
M  V30 1819 O 167.912 -1.57556 -1.48341 0
M  V30 1820 C 168.507 -3.02413 1.52748 0
M  V30 1821 C 167.066 -3.52176 1.32849 0
M  V30 1822 C 166.213 -2.27492 1.58564 0
M  V30 1823 H 169.164 -0.976872 1.25072 0
M  V30 1824 H 169.185 -3.68223 0.958752 0
M  V30 1825 H 168.697 -2.88238 2.59885 0
M  V30 1826 H 166.798 -3.7156 0.278137 0
M  V30 1827 H 166.911 -4.32499 2.0611 0
M  V30 1828 H 165.275 -2.33923 1.00758 0
M  V30 1829 H 166.058 -2.15886 2.66924 0
M  V30 1830 O 168.542 -1.01112 -1.25931 0
M  V30 1831 H 169.233 -0.668764 -1.81789 0
M  V30 END ATOM
M  V30 BEGIN BOND
M  V30 END BOND
M  V30 END CTAB
M  END
$$$$
