drugbank_target|P06734 Low affinity immunoglobulin epsilon Fc receptor (DB06162)
 OpenBabel12092120323D

  0  0  0     0  0            999 V3000
M  V30 BEGIN CTAB
M  V30 COUNTS 5015 5070 0 0 0
M  V30 BEGIN ATOM
M  V30 1 H -0.908 1.98254 -0.117106 0
M  V30 2 N 0 1.576 0 0
M  V30 3 C 0.933 2.03868 1.02534 0
M  V30 4 C 1.911 0.928543 1.3348 0
M  V30 5 O 3.095 1.19667 1.45644 0
M  V30 6 C 0.222 2.43627 2.35294 0
M  V30 7 C -0.732 3.65373 2.2001 0
M  V30 8 S 0.101 5.13292 1.52614 0
M  V30 9 C 1.257 5.56322 2.86805 0
M  V30 10 H 1.49 2.90518 0.631377 0
M  V30 11 H -0.977 1.52953 0.210867 0
M  V30 12 H 0.981 2.67203 3.11629 0
M  V30 13 H -0.358 1.57376 2.7183 0
M  V30 14 H -1.165 3.90944 3.18086 0
M  V30 15 H -1.563 3.418 1.51819 0
M  V30 16 H 0.729 5.58782 3.83104 0
M  V30 17 H 1.672 6.56266 2.65933 0
M  V30 18 H 2.08 4.83886 2.90714 0
M  V30 19 N 1.4781 -0.272755 1.55222 0
M  V30 20 C 2.3881 -1.35918 1.91216 0
M  V30 21 C 3.4041 -1.54026 0.809436 0
M  V30 22 O 4.5801 -1.68148 1.10852 0
M  V30 23 C 1.6451 -2.69834 2.17693 0
M  V30 24 C 0.7061 -2.6047 3.41253 0
M  V30 25 C -0.0609 -3.88 3.66458 0
M  V30 26 O 0.1621 -4.88693 2.94169 0
M  V30 27 O -0.9039 -3.88189 4.59992 0
M  V30 28 H 2.9221 -1.0839 2.83699 0
M  V30 29 H 0.5071 -0.471301 1.41771 0
M  V30 30 H 2.3891 -3.49017 2.36147 0
M  V30 31 H 1.0641 -2.97148 1.28392 0
M  V30 32 H -0.0289 -1.79663 3.28134 0
M  V30 33 H 1.3041 -2.38106 4.30774 0
M  V30 34 N 2.9562 -1.48159 -0.537278 0
M  V30 35 C 3.8662 -1.64807 -1.6696 0
M  V30 36 C 4.8822 -0.530651 -1.65711 0
M  V30 37 O 6.0582 -0.800784 -1.84796 0
M  V30 38 C 3.1232 -1.67708 -3.03438 0
M  V30 39 C 2.1842 -2.91025 -3.156 0
M  V30 40 C 1.4172 -2.93778 -4.45567 0
M  V30 41 O 1.6402 -2.05153 -5.3223 0
M  V30 42 O 0.5742 -3.85868 -4.61941 0
M  V30 43 H 4.4002 -2.6066 -1.55853 0
M  V30 44 H 1.9852 -1.31475 -0.709549 0
M  V30 45 H 3.8672 -1.7218 -3.84619 0
M  V30 46 H 2.5422 -0.750278 -3.14885 0
M  V30 47 H 1.4492 -2.92089 -2.33741 0
M  V30 48 H 2.7822 -3.83065 -3.09066 0
M  V30 49 N 4.4343 0.785586 -1.36625 0
M  V30 50 C 5.6823 1.54057 -1.30808 0
M  V30 51 C 6.0033 1.94683 0.111157 0
M  V30 52 O 5.2733 1.65241 1.05224 0
M  V30 53 H 3.8533 0.571354 -0.481211 0
M  V30 54 H 6.5153 0.935821 -1.70963 0
M  V30 55 H 5.6113 2.44637 -1.93801 0
M  V30 56 N 5.9124 1.20967 1.01018 0
M  V30 57 C 6.8444 0.922059 2.09835 0
M  V30 58 C 7.8574 -0.0927106 1.62536 0
M  V30 59 O 9.0464 0.139127 1.77957 0
M  V30 60 C 6.1464 0.362004 3.36961 0
M  V30 61 C 5.3194 1.42986 4.13369 0
M  V30 62 C 4.3784 0.879976 5.1879 0
M  V30 63 O 3.4044 1.56219 5.47343 0
M  V30 64 N 4.6064 -0.307396 5.79686 0
M  V30 65 H 7.3714 1.8588 2.35093 0
M  V30 66 H 4.9324 1.11422 1.1746 0
M  V30 67 H 6.9244 -0.0201474 4.04695 0
M  V30 68 H 5.4944 -0.479437 3.08902 0
M  V30 69 H 4.7144 1.98608 3.40512 0
M  V30 70 H 6.0024 2.14885 4.61196 0
M  V30 71 H 5.4004 -0.878796 5.58832 0
M  V30 72 H 3.9574 -0.631115 6.48737 0
M  V30 73 N 7.3905 -1.2043 1.01659 0
M  V30 74 C 8.6205 -1.93496 0.724081 0
M  V30 75 C 9.0285 -1.74998 -0.71918 0
M  V30 76 O 8.3715 -1.06118 -1.49949 0
M  V30 77 C 8.4335 -3.45886 0.97994 0
M  V30 78 C 8.0975 -3.88145 2.41232 0
M  V30 79 C 9.0945 -3.93907 3.39313 0
M  V30 80 C 6.7795 -4.20134 2.75305 0
M  V30 81 C 8.7735 -4.31069 4.6953 0
M  V30 82 C 6.4605 -4.56971 4.05735 0
M  V30 83 C 7.4585 -4.62411 5.02658 0
M  V30 84 O 7.1465 -4.98403 6.30754 0
M  V30 85 H 6.8785 -0.621824 0.265162 0
M  V30 86 H 9.4325 -1.53867 1.36066 0
M  V30 87 H 7.6625 -3.85639 0.286198 0
M  V30 88 H 9.3515 -4.0018 0.679021 0
M  V30 89 H 10.1175 -3.69357 3.14325 0
M  V30 90 H 5.9965 -4.1509 2.00551 0
M  V30 91 H 9.5405 -4.3523 5.45179 0
M  V30 92 H 5.4375 -4.80977 4.30502 0
M  V30 93 H 6.2055 -5.16395 6.35042 0
M  V30 94 N 8.8686 -0.792821 -1.36206 0
M  V30 95 C 10.0936 -0.377701 -2.03932 0
M  V30 96 C 10.5186 0.998947 -1.59382 0
M  V30 97 O 9.8766 1.64421 -0.763903 0
M  V30 98 C 9.9246 -0.453635 -3.57735 0
M  V30 99 O 9.0286 0.538151 -4.08874 0
M  V30 100 H 8.3696 -0.159855 -0.644471 0
M  V30 101 H 10.8996 -1.07488 -1.7409 0
M  V30 102 H 10.9096 -0.318464 -4.06755 0
M  V30 103 H 9.5846 -1.45784 -3.89512 0
M  V30 104 H 8.1616 0.364359 -3.71116 0
M  V30 105 N 10.3467 1.47872 -0.545128 0
M  V30 106 C 11.2567 2.33633 0.212746 0
M  V30 107 C 12.2727 1.4744 0.923983 0
M  V30 108 O 13.4487 1.80393 0.895572 0
M  V30 109 C 10.5137 3.23884 1.23693 0
M  V30 110 C 9.5747 4.25961 0.534417 0
M  V30 111 C 8.8077 5.11899 1.5098 0
M  V30 112 O 9.0307 5.00077 2.7437 0
M  V30 113 O 7.9647 5.92831 1.0409 0
M  V30 114 H 11.7907 2.99714 -0.490416 0
M  V30 115 H 9.3757 1.46235 -0.305871 0
M  V30 116 H 11.2577 3.79666 1.82843 0
M  V30 117 H 9.9327 2.60446 1.92222 0
M  V30 118 H 8.8397 3.73972 -0.0979679 0
M  V30 119 H 10.1727 4.92079 -0.109213 0
M  V30 120 N 11.8248 0.280983 1.55075 0
M  V30 121 C 13.0738 -0.334784 1.98902 0
M  V30 122 C 13.3868 -1.56534 1.17288 0
M  V30 123 O 14.5928 -2.25443 1.51287 0
M  V30 124 C 13.0488 -0.646994 3.54037 0
M  V30 125 C 12.6568 0.564085 4.44435 0
M  V30 126 C 14.4008 -1.22506 4.06439 0
M  V30 127 C 12.3078 0.226137 5.90967 0
M  V30 128 H 11.2378 -0.128866 0.742906 0
M  V30 129 H 13.8888 0.386556 1.79382 0
M  V30 130 H 12.2708 -1.42739 3.6938 0
M  V30 131 H 13.4448 1.34082 4.40861 0
M  V30 132 H 11.7598 1.0594 4.02698 0
M  V30 133 H 14.3568 -1.49182 5.13468 0
M  V30 134 H 14.6998 -2.16085 3.55827 0
M  V30 135 H 15.2328 -0.50682 3.94558 0
M  V30 136 H 11.9718 1.12996 6.45687 0
M  V30 137 H 11.4918 -0.513717 5.97596 0
M  V30 138 H 13.1708 -0.179539 6.46751 0
M  V30 139 N 13.3029 -1.57598 0.00835791 0
M  V30 140 C 14.2129 -2.12385 -0.996487 0
M  V30 141 C 15.2289 -1.07108 -1.37127 0
M  V30 142 O 16.4049 -1.39055 -1.4569 0
M  V30 143 C 13.4699 -2.62314 -2.26699 0
M  V30 144 C 12.5309 -3.82225 -1.95456 0
M  V30 145 C 11.7639 -4.29763 -3.16449 0
M  V30 146 O 11.9869 -3.76584 -4.28416 0
M  V30 147 O 10.9209 -5.21832 -2.99958 0
M  V30 148 H 14.7469 -2.98479 -0.560725 0
M  V30 149 H 12.3319 -1.47903 -0.210987 0
M  V30 150 H 14.2139 -2.94589 -3.01322 0
M  V30 151 H 12.8889 -1.79313 -2.69497 0
M  V30 152 H 11.7959 -3.54909 -1.18282 0
M  V30 153 H 13.1289 -4.66324 -1.57489 0
M  V30 154 N 14.781 0.264519 -1.55364 0
M  V30 155 C 15.691 1.34902 -1.91934 0
M  V30 156 C 16.707 1.53595 -0.817593 0
M  V30 157 O 17.883 1.67558 -1.11742 0
M  V30 158 C 14.948 2.68676 -2.19121 0
M  V30 159 C 14.009 2.58657 -3.4263 0
M  V30 160 C 13.242 3.86051 -3.68511 0
M  V30 161 O 13.465 4.87126 -2.96757 0
M  V30 162 O 12.399 3.85744 -4.62045 0
M  V30 163 H 16.225 1.06883 -2.8427 0
M  V30 164 H 13.81 0.463775 -1.42019 0
M  V30 165 H 15.692 3.47759 -2.37995 0
M  V30 166 H 14.367 2.96463 -1.29966 0
M  V30 167 H 13.274 1.7792 -3.29082 0
M  V30 168 H 14.607 2.35818 -4.32031 0
M  V30 169 N 16.2591 1.48442 0.529413 0
M  V30 170 C 17.1891 1.65902 1.64313 0
M  V30 171 C 18.1701 0.507897 1.6234 0
M  V30 172 O 19.3551 0.740503 1.79528 0
M  V30 173 C 16.4851 1.69911 3.02898 0
M  V30 174 C 15.4391 2.8453 3.19729 0
M  V30 175 C 14.7651 2.73629 4.59381 0
M  V30 176 C 16.0651 4.25821 3.02447 0
M  V30 177 H 17.7591 2.5914 1.49955 0
M  V30 178 H 15.3051 1.24709 0.719982 0
M  V30 179 H 17.2581 1.80715 3.80684 0
M  V30 180 H 15.9821 0.732524 3.18279 0
M  V30 181 H 14.6411 2.73283 2.44361 0
M  V30 182 H 14.2891 1.74938 4.71599 0
M  V30 183 H 13.9891 3.50541 4.71588 0
M  V30 184 H 15.5131 2.86401 5.39265 0
M  V30 185 H 16.9271 4.37898 3.70024 0
M  V30 186 H 15.3241 5.03735 3.26146 0
M  V30 187 H 16.3941 4.42244 1.98867 0
M  V30 188 N 17.7372 -0.778329 1.37039 0
M  V30 189 C 19.1482 -1.35421 1.28523 0
M  V30 190 C 19.4992 -1.96075 -0.0700901 0
M  V30 191 O 18.6242 -1.93352 -0.971801 0
M  V30 192 C 19.2192 -2.46211 2.32735 0
M  V30 193 C 17.7782 -2.99585 2.27873 0
M  V30 194 C 16.9252 -1.72748 2.16918 0
M  V30 195 H 19.8762 -0.5791 1.47757 0
M  V30 196 H 19.8972 -3.2552 1.9702 0
M  V30 197 H 19.4092 -2.02036 3.31365 0
M  V30 198 H 17.5102 -3.48152 1.32745 0
M  V30 199 H 17.6232 -3.55646 3.21018 0
M  V30 200 H 15.9872 -1.95416 1.63354 0
M  V30 201 H 16.7702 -1.30686 3.17452 0
M  V30 202 N 19.2153 -1.21501 -1.00376 0
M  V30 203 C 20.6313 -0.972629 -1.26539 0
M  V30 204 C 20.8313 0.340257 -1.98606 0
M  V30 205 O 19.8873 1.06561 -2.28913 0
M  V30 206 C 21.2003 -2.16404 -2.08781 0
M  V30 207 C 22.7483 -2.20643 -2.22004 0
M  V30 208 C 23.2233 -3.39306 -3.07629 0
M  V30 209 N 24.7143 -3.39401 -3.15217 0
M  V30 210 C 25.4493 -4.27867 -3.81729 0
M  V30 211 N 24.9453 -5.26533 -4.5026 0
M  V30 212 N 26.7383 -4.15672 -3.78382 0
M  V30 213 H 18.8893 -2.05929 -0.520281 0
M  V30 214 H 21.1523 -0.901803 -0.292328 0
M  V30 215 H 20.8583 -3.11554 -1.63178 0
M  V30 216 H 20.7323 -2.15567 -3.09533 0
M  V30 217 H 23.1193 -1.26048 -2.66825 0
M  V30 218 H 23.2003 -2.25523 -1.20718 0
M  V30 219 H 22.8443 -4.34195 -2.63509 0
M  V30 220 H 22.7743 -3.31665 -4.09031 0
M  V30 221 H 25.2653 -2.67997 -2.66432 0
M  V30 222 H 25.5783 -5.90337 -4.98721 0
M  V30 223 H 23.9233 -5.30457 -4.49044 0
M  V30 224 H 27.1143 -3.3785 -3.23998 0
M  V30 225 H 27.2873 -4.84825 -4.2994 0
M  V30 226 N 20.6934 1.19889 -1.02296 0
M  V30 227 C 22.1094 1.41462 -0.738954 0
M  V30 228 C 22.3094 1.89721 0.678846 0
M  V30 229 O 21.3654 2.07016 1.4457 0
M  V30 230 C 22.6784 2.43083 -1.77005 0
M  V30 231 C 24.2264 2.5684 -1.78892 0
M  V30 232 C 24.7014 3.61709 -2.80945 0
M  V30 233 N 26.1924 3.69199 -2.79725 0
M  V30 234 C 26.9274 4.50019 -3.55345 0
M  V30 235 N 26.4234 5.34592 -4.40662 0
M  V30 236 N 28.2164 4.44612 -3.43914 0
M  V30 237 H 20.3674 0.868827 -1.93817 0
M  V30 238 H 22.6304 0.44399 -0.837602 0
M  V30 239 H 22.3364 2.14636 -2.78612 0
M  V30 240 H 22.2104 3.4217 -1.58744 0
M  V30 241 H 24.5974 2.84614 -0.779674 0
M  V30 242 H 24.6784 1.57927 -2.01228 0
M  V30 243 H 24.3224 3.34678 -3.82038 0
M  V30 244 H 24.2524 4.60259 -2.5587 0
M  V30 245 H 26.7434 3.08794 -2.17842 0
M  V30 246 H 27.0564 5.93363 -4.95116 0
M  V30 247 H 25.4014 5.34073 -4.44737 0
M  V30 248 H 28.5924 3.7758 -2.76679 0
M  V30 249 H 28.7654 5.0736 -4.031 0
M  V30 250 N 22.1715 0.800033 1.35784 0
M  V30 251 C 23.5875 0.482977 1.52117 0
M  V30 252 C 23.7875 -0.996948 1.75109 0
M  V30 253 O 22.8435 -1.78216 1.78872 0
M  V30 254 C 24.1565 1.32264 2.70049 0
M  V30 255 C 25.7045 1.31742 2.83924 0
M  V30 256 C 26.1795 2.14106 4.04874 0
M  V30 257 N 27.6705 2.11607 4.12039 0
M  V30 258 C 28.4055 2.72099 5.04727 0
M  V30 259 N 27.9015 3.41492 6.02789 0
M  V30 260 N 29.6945 2.61776 4.97423 0
M  V30 261 H 21.8455 1.75856 1.19115 0
M  V30 262 H 24.1085 0.748122 0.582252 0
M  V30 263 H 23.8145 2.37261 2.59616 0
M  V30 264 H 23.6885 0.971303 3.6448 0
M  V30 265 H 26.0755 0.275333 2.93813 0
M  V30 266 H 26.1565 1.70859 1.9037 0
M  V30 267 H 25.8005 3.18351 3.95746 0
M  V30 268 H 25.7305 1.72353 4.97596 0
M  V30 269 H 28.2215 1.61112 3.41835 0
M  V30 270 H 28.5345 3.84953 6.70098 0
M  V30 271 H 26.8795 3.45596 6.02983 0
M  V30 272 H 30.0705 2.07157 4.19766 0
M  V30 273 H 30.2435 3.0921 5.69468 0
M  V30 274 N 23.6496 -1.47581 0.552962 0
M  V30 275 C 24.8896 -2.04379 0.0296245 0
M  V30 276 C 25.2536 -1.4185 -1.29393 0
M  V30 277 O 26.4546 -1.89669 -1.90471 0
M  V30 278 C 24.7256 -3.57339 -0.0661371 0
M  V30 279 S 26.2846 -4.35511 -0.536213 0
M  V30 280 H 23.1026 -0.710625 0.0230991 0
M  V30 281 H 25.7046 -1.81005 0.738734 0
M  V30 282 H 24.4086 -4.00374 0.901596 0
M  V30 283 H 23.9396 -3.85202 -0.798931 0
M  V30 284 H 25.9546 -4.6253 -1.79668 0
M  V30 285 N 25.1277 -0.289203 -1.54924 0
M  V30 286 C 26.3677 0.324536 -2.01807 0
M  V30 287 C 26.7317 1.5199 -1.17316 0
M  V30 288 O 27.9327 2.20422 -1.53843 0
M  V30 289 C 26.2037 0.683578 -3.50802 0
M  V30 290 S 27.7627 1.28185 -4.19659 0
M  V30 291 H 24.5807 0.100236 -0.703899 0
M  V30 292 H 27.1827 -0.414325 -1.91059 0
M  V30 293 H 25.8867 -0.195073 -4.09936 0
M  V30 294 H 25.4177 1.45354 -3.65562 0
M  V30 295 H 27.4327 2.57006 -4.24456 0
M  V30 296 N 26.6058 1.57591 -0.0167156 0
M  V30 297 C 28.0218 1.55946 0.339557 0
M  V30 298 C 28.2218 1.02109 1.73713 0
M  V30 299 O 27.2778 0.662303 2.43659 0
M  V30 300 C 28.5908 3.00037 0.199499 0
M  V30 301 C 30.1388 3.11805 0.273193 0
M  V30 302 C 30.6138 4.57713 0.162068 0
M  V30 303 N 32.1048 4.6268 0.219444 0
M  V30 304 C 32.8398 5.73185 0.157054 0
M  V30 305 N 32.3358 6.92786 0.0442936 0
M  V30 306 N 34.1288 5.61707 0.21014 0
M  V30 307 H 26.2798 1.90921 -0.930758 0
M  V30 308 H 28.5428 0.877674 -0.358319 0
M  V30 309 H 28.2488 3.4333 -0.76273 0
M  V30 310 H 28.1228 3.64387 0.974786 0
M  V30 311 H 30.5098 2.68433 1.22587 0
M  V30 312 H 30.5908 2.50201 -0.532256 0
M  V30 313 H 30.2348 5.01763 -0.78714 0
M  V30 314 H 30.1648 5.17283 0.986222 0
M  V30 315 H 32.6558 3.76649 0.307246 0
M  V30 316 H 32.9688 7.728 0.00304069 0
M  V30 317 H 31.3138 6.94999 0.00968457 0
M  V30 318 H 34.5048 4.6716 0.296546 0
M  V30 319 H 34.6778 6.47807 0.158054 0
M  V30 320 N 28.0839 -0.256276 1.55502 0
M  V30 321 C 29.4999 -0.604325 1.47716 0
M  V30 322 C 29.6999 -1.88763 0.705039 0
M  V30 323 O 28.7559 -2.51445 0.230613 0
M  V30 324 C 30.0689 -0.715756 2.92057 0
M  V30 325 C 31.6169 -0.808706 3.02372 0
M  V30 326 C 32.0919 -0.951777 4.48001 0
M  V30 327 N 33.5829 -1.01688 4.519 0
M  V30 328 C 34.3179 -1.14668 5.61817 0
M  V30 329 N 33.8139 -1.24261 6.81565 0
M  V30 330 N 35.6069 -1.1791 5.49594 0
M  V30 331 H 27.7579 0.586291 2.04148 0
M  V30 332 H 30.0209 0.201015 0.926443 0
M  V30 333 H 29.7269 0.157027 3.51349 0
M  V30 334 H 29.6009 -1.59071 3.42018 0
M  V30 335 H 31.9879 -1.67195 2.43166 0
M  V30 336 H 32.0689 0.0912063 2.55637 0
M  V30 337 H 31.7129 -0.0931291 5.07815 0
M  V30 338 H 31.6429 -1.86659 4.92408 0
M  V30 339 H 34.1339 -0.954468 3.65648 0
M  V30 340 H 34.4469 -1.34046 7.61086 0
M  V30 341 H 32.7919 -1.21236 6.84344 0
M  V30 342 H 35.9829 -1.10057 4.54978 0
M  V30 343 H 36.1559 -1.27681 6.35296 0
M  V30 344 N 29.562 -1.4872 -0.521534 0
M  V30 345 C 30.81 -1.56857 -1.27437 0
M  V30 346 C 31.131 -0.247982 -1.93417 0
M  V30 347 O 30.401 0.731151 -1.81744 0
M  V30 348 H 28.981 -0.577885 -0.473347 0
M  V30 349 H 31.643 -1.85233 -0.606205 0
M  V30 350 H 30.739 -2.35402 -2.0492 0
M  V30 351 N 31.0401 0.771051 -1.3745 0
M  V30 352 C 32.2681 1.56015 -1.35893 0
M  V30 353 C 32.6831 1.88718 0.0555523 0
M  V30 354 O 32.0401 1.51502 1.01752 0
M  V30 355 C 32.0911 2.87001 -2.19801 0
M  V30 356 O 31.8121 2.557 -3.55738 0
M  V30 357 C 33.3131 3.81228 -2.26231 0
M  V30 358 H 30.5331 0.483317 -0.465453 0
M  V30 359 H 33.0771 0.955611 -1.80799 0
M  V30 360 H 31.2321 3.43877 -1.78402 0
M  V30 361 H 31.6461 3.39584 -3.99729 0
M  V30 362 H 33.1201 4.70139 -2.89263 0
M  V30 363 H 33.5971 4.20409 -1.27093 0
M  V30 364 H 34.2031 3.30281 -2.67945 0
M  V30 365 N 32.5182 1.22032 0.997298 0
M  V30 366 C 33.4502 0.944263 2.08845 0
M  V30 367 C 34.4632 -0.0754663 1.62625 0
M  V30 368 O 35.6522 0.157994 1.77799 0
M  V30 369 C 32.7522 0.397723 3.36558 0
M  V30 370 C 31.9252 1.47362 4.11829 0
M  V30 371 C 30.9842 0.934951 5.17827 0
M  V30 372 O 30.0102 1.62016 5.45655 0
M  V30 373 N 31.2122 -0.245895 5.79979 0
M  V30 374 H 33.9772 1.88363 2.33109 0
M  V30 375 H 31.5382 1.12661 1.16272 0
M  V30 376 H 33.5302 0.0227771 4.04694 0
M  V30 377 H 32.1002 -0.446646 3.09393 0
M  V30 378 H 31.3202 2.02208 3.38386 0
M  V30 379 H 32.6082 2.19764 4.58891 0
M  V30 380 H 32.0062 -0.819475 5.59733 0
M  V30 381 H 30.5632 -0.562272 6.4937 0
M  V30 382 N 33.9963 -1.19345 1.0293 0
M  V30 383 C 35.2453 -1.88363 0.721256 0
M  V30 384 C 35.5583 -1.80514 -0.753254 0
M  V30 385 O 36.7643 -2.44788 -1.17436 0
M  V30 386 C 35.2203 -3.37872 1.23978 0
M  V30 387 C 34.8283 -3.54278 2.74211 0
M  V30 388 C 36.5723 -4.12365 1.00775 0
M  V30 389 C 34.4793 -4.97682 3.19479 0
M  V30 390 H 33.4093 -0.705484 0.266098 0
M  V30 391 H 36.0603 -1.34928 1.24365 0
M  V30 392 H 34.4423 -3.90707 0.6453 0
M  V30 393 H 35.6163 -3.11769 3.39318 0
M  V30 394 H 33.9313 -2.93174 2.95699 0
M  V30 395 H 36.5283 -5.18119 1.32123 0
M  V30 396 H 36.8713 -4.16263 -0.0554308 0
M  V30 397 H 37.4043 -3.65668 1.56625 0
M  V30 398 H 34.1433 -4.98945 4.25128 0
M  V30 399 H 33.6633 -5.4095 2.591 0
M  V30 400 H 35.3423 -5.66337 3.12845 0
M  V30 401 N 35.4744 -0.807222 -1.35358 0
M  V30 402 C 36.7204 -0.388463 -1.99045 0
M  V30 403 C 37.0534 1.04184 -1.63888 0
M  V30 404 O 36.3284 1.72292 -0.902535 0
M  V30 405 C 36.6114 -0.572783 -3.55515 0
M  V30 406 C 36.4644 -2.04807 -4.00468 0
M  V30 407 C 37.7834 0.00114064 -4.401 0
M  V30 408 H 34.9024 -0.142619 -0.723069 0
M  V30 409 H 37.5444 -1.01687 -1.60498 0
M  V30 410 H 35.6944 -0.0378425 -3.88482 0
M  V30 411 H 37.3664 -2.64544 -3.77908 0
M  V30 412 H 35.6094 -2.54427 -3.51353 0
M  V30 413 H 36.2804 -2.12792 -5.09337 0
M  V30 414 H 38.7564 -0.455716 -4.13597 0
M  V30 415 H 37.6324 -0.157737 -5.48673 0
M  V30 416 H 37.8934 1.09488 -4.28328 0
M  V30 417 N 36.9525 1.47285 -0.560781 0
M  V30 418 C 37.8825 2.32857 0.173105 0
M  V30 419 C 38.8635 1.44009 0.905281 0
M  V30 420 O 40.0485 1.7286 0.885046 0
M  V30 421 C 37.1785 3.25861 1.20133 0
M  V30 422 C 36.1325 4.23978 0.585388 0
M  V30 423 C 35.4585 5.06332 1.7185 0
M  V30 424 C 36.7585 5.20242 -0.463178 0
M  V30 425 H 38.4525 2.94466 -0.541307 0
M  V30 426 H 35.9985 1.41601 -0.261764 0
M  V30 427 H 37.9515 3.84569 1.72293 0
M  V30 428 H 36.6755 2.62315 1.94573 0
M  V30 429 H 35.3345 3.66501 0.085054 0
M  V30 430 H 34.9825 4.39186 2.45203 0
M  V30 431 H 34.6825 5.72762 1.31213 0
M  V30 432 H 36.2065 5.67899 2.24329 0
M  V30 433 H 37.6205 5.73293 -0.027502 0
M  V30 434 H 36.0175 5.94896 -0.788627 0
M  V30 435 H 37.0875 4.65504 -1.35773 0
M  V30 436 N 38.4306 0.297415 1.54768 0
M  V30 437 C 39.3606 -0.573494 2.26348 0
M  V30 438 C 40.3416 -1.14085 1.26169 0
M  V30 439 O 41.5266 -1.17086 1.54934 0
M  V30 440 C 38.6566 -1.74716 3.00153 0
M  V30 441 C 37.6106 -1.31032 4.07449 0
M  V30 442 C 36.9366 -2.56887 4.68949 0
M  V30 443 C 38.2366 -0.444183 5.20408 0
M  V30 444 H 39.9306 0.0235131 2.99391 0
M  V30 445 H 37.4766 0.0127488 1.43994 0
M  V30 446 H 39.4296 -2.3625 3.48947 0
M  V30 447 H 38.1536 -2.37035 2.24682 0
M  V30 448 H 36.8126 -0.718066 3.59499 0
M  V30 449 H 36.4606 -3.17512 3.90122 0
M  V30 450 H 36.1606 -2.2836 5.41411 0
M  V30 451 H 37.6846 -3.19229 5.20505 0
M  V30 452 H 39.0986 -0.9651 5.65118 0
M  V30 453 H 37.4956 -0.252846 5.99567 0
M  V30 454 H 38.5656 0.531609 4.81977 0
M  V30 455 N 39.9087 -1.5758 0.0250728 0
M  V30 456 C 41.1567 -1.91255 -0.653151 0
M  V30 457 C 41.4777 -0.901691 -1.729 0
M  V30 458 O 40.7477 0.0573785 -1.95816 0
M  V30 459 H 39.3277 -0.705942 -0.244243 0
M  V30 460 H 41.9897 -1.94767 0.0719209 0
M  V30 461 H 41.0857 -2.91752 -1.10847 0
M  V30 462 N 41.3868 0.248026 -1.55636 0
M  V30 463 C 42.3168 1.31079 -1.93237 0
M  V30 464 C 43.2978 1.50264 -0.797174 0
M  V30 465 O 44.4828 1.62891 -1.05737 0
M  V30 466 C 41.6128 2.66575 -2.22609 0
M  V30 467 C 40.5668 2.62087 -3.3837 0
M  V30 468 C 39.8928 4.01369 -3.53281 0
M  V30 469 C 41.1928 2.19171 -4.7409 0
M  V30 470 H 42.8868 0.998556 -2.82257 0
M  V30 471 H 40.4328 0.47891 -1.35803 0
M  V30 472 H 42.3858 3.41057 -2.47503 0
M  V30 473 H 41.1098 2.99432 -1.30414 0
M  V30 474 H 39.7688 1.90063 -3.13483 0
M  V30 475 H 39.4168 4.31489 -2.58508 0
M  V30 476 H 39.1168 3.99254 -4.31127 0
M  V30 477 H 40.6408 4.77552 -3.80495 0
M  V30 478 H 42.0548 2.83384 -4.98363 0
M  V30 479 H 40.4518 2.2817 -5.5503 0
M  V30 480 H 41.5218 1.14336 -4.71227 0
M  V30 481 N 42.8649 1.48995 0.513639 0
M  V30 482 C 44.1109 1.58076 1.27042 0
M  V30 483 C 44.4439 0.261026 1.92438 0
M  V30 484 O 43.7189 -0.734393 1.80103 0
M  V30 485 C 44.0019 2.73091 2.34719 0
M  V30 486 C 43.8549 4.14821 1.73907 0
M  V30 487 C 45.1739 2.83796 3.36375 0
M  V30 488 H 42.2929 0.575391 0.460536 0
M  V30 489 H 44.9349 1.81232 0.570516 0
M  V30 490 H 43.0849 2.53479 2.94416 0
M  V30 491 H 44.7569 4.45917 1.18135 0
M  V30 492 H 42.9999 4.21058 1.0437 0
M  V30 493 H 43.6709 4.91147 2.51949 0
M  V30 494 H 46.1469 3.01611 2.86653 0
M  V30 495 H 45.0229 3.65971 4.09093 0
M  V30 496 H 45.2839 1.92624 3.9793 0
M  V30 497 N 44.343 -0.763751 1.37857 0
M  V30 498 C 45.571 -1.55293 1.36718 0
M  V30 499 C 45.986 -1.88745 -0.0455434 0
M  V30 500 O 45.343 -1.52039 -1.00947 0
M  V30 501 C 45.394 -2.85831 2.2132 0
M  V30 502 O 45.115 -2.5381 3.57089 0
M  V30 503 C 46.616 -3.80023 2.28249 0
M  V30 504 H 43.836 -0.480841 0.468009 0
M  V30 505 H 46.38 -0.946009 1.81303 0
M  V30 506 H 44.535 -3.42926 1.80223 0
M  V30 507 H 44.949 -3.37459 4.01524 0
M  V30 508 H 46.423 -4.68599 2.91752 0
M  V30 509 H 46.9 -4.1973 1.2932 0
M  V30 510 H 47.506 -3.28855 2.69693 0
M  V30 511 N 45.8211 -1.22559 -0.990812 0
M  V30 512 C 46.7841 -0.998863 -2.0629 0
M  V30 513 C 47.7841 0.0354834 -1.60761 0
M  V30 514 O 48.9741 -0.203231 -1.7301 0
M  V30 515 C 46.1061 -0.509203 -3.37076 0
M  V30 516 H 47.2991 -1.95014 -2.27837 0
M  V30 517 H 44.8521 -1.04456 -1.16269 0
M  V30 518 H 45.5871 0.446335 -3.21214 0
M  V30 519 H 45.3721 -1.25547 -3.71457 0
M  V30 520 H 46.8621 -0.370888 -4.1595 0
M  V30 521 N 47.2992 1.18797 -1.03562 0
M  V30 522 C 48.2622 2.20464 -0.626769 0
M  V30 523 C 49.2622 1.57721 0.313173 0
M  V30 524 O 50.4522 1.73917 0.0992615 0
M  V30 525 C 47.5842 3.40802 0.0818498 0
M  V30 526 H 48.7772 2.58149 -1.5264 0
M  V30 527 H 46.3302 1.32593 -0.827578 0
M  V30 528 H 47.0652 3.08642 0.995518 0
M  V30 529 H 46.8502 3.8758 -0.593652 0
M  V30 530 H 48.3402 4.16092 0.354584 0
M  V30 531 N 48.7773 0.814389 1.34928 0
M  V30 532 C 49.7073 0.244827 2.32213 0
M  V30 533 C 50.6883 -0.634024 1.57842 0
M  V30 534 O 51.8733 -0.562676 1.8587 0
M  V30 535 C 49.0033 -0.601106 3.42058 0
M  V30 536 C 47.9573 0.179896 4.27622 0
M  V30 537 C 47.2833 -0.788237 5.28858 0
M  V30 538 C 48.5833 1.38329 5.03649 0
M  V30 539 H 50.2773 1.05763 2.80097 0
M  V30 540 H 47.8233 0.510029 1.34665 0
M  V30 541 H 49.7763 -1.00968 4.09125 0
M  V30 542 H 48.5003 -1.44688 2.92802 0
M  V30 543 H 47.1593 0.569739 3.62146 0
M  V30 544 H 46.8073 -1.62973 4.75866 0
M  V30 545 H 46.5073 -0.269942 5.8698 0
M  V30 546 H 48.0313 -1.19485 5.98795 0
M  V30 547 H 49.4453 1.04918 5.63618 0
M  V30 548 H 47.8423 1.83662 5.71304 0
M  V30 549 H 48.9123 2.16592 4.33839 0
M  V30 550 N 50.2554 -1.46986 0.568584 0
M  V30 551 C 51.5014 -2.0332 0.0571487 0
M  V30 552 C 51.8564 -1.43384 -1.28291 0
M  V30 553 O 51.1494 -0.584304 -1.82473 0
M  V30 554 C 51.3434 -3.57306 -0.081836 0
M  V30 555 C 51.1724 -4.32174 1.24321 0
M  V30 556 C 49.9424 -4.71633 1.81358 0
M  V30 557 C 52.1404 -4.66598 2.16312 0
M  V30 558 N 50.1224 -5.31191 3.07748 0
M  V30 559 C 51.4934 -5.26578 3.27285 0
M  V30 560 C 53.5484 -4.48527 2.16166 0
M  V30 561 C 52.2514 -5.70395 4.38226 0
M  V30 562 C 54.2774 -4.93351 3.26127 0
M  V30 563 C 53.6394 -5.5339 4.3582 0
M  V30 564 H 49.7384 -0.77943 0.063351 0
M  V30 565 H 52.3224 -1.79323 0.758378 0
M  V30 566 H 50.4934 -3.81046 -0.752207 0
M  V30 567 H 52.2254 -4.00282 -0.59637 0
M  V30 568 H 48.9804 -4.53946 1.35019 0
M  V30 569 H 49.4044 -5.65505 3.72201 0
M  V30 570 H 54.0464 -4.01456 1.32638 0
M  V30 571 H 51.7644 -6.16452 5.22506 0
M  V30 572 H 55.3504 -4.81131 3.27115 0
M  V30 573 H 54.2304 -5.87441 5.19503 0
M  V30 574 N 51.7335 -0.305618 -1.54608 0
M  V30 575 C 52.6965 0.555591 -2.22364 0
M  V30 576 C 53.6965 1.05768 -1.21119 0
M  V30 577 O 54.8865 0.952972 -1.45822 0
M  V30 578 C 52.0185 1.76974 -2.91364 0
M  V30 579 H 53.2115 -0.0364572 -2.99878 0
M  V30 580 H 50.7645 -0.0565007 -1.56198 0
M  V30 581 H 51.4995 2.40151 -2.17941 0
M  V30 582 H 51.2845 1.41732 -3.65588 0
M  V30 583 H 52.7745 2.38148 -3.43038 0
M  V30 584 N 53.2116 1.57565 -0.0334293 0
M  V30 585 C 54.4596 1.91598 0.642999 0
M  V30 586 C 54.7806 0.910847 1.7242 0
M  V30 587 O 54.0506 -0.0469931 1.95844 0
M  V30 588 H 52.6306 0.707228 0.240496 0
M  V30 589 H 55.2926 1.94726 -0.0822488 0
M  V30 590 H 54.3886 2.92336 1.09298 0
M  V30 591 N 54.6897 -0.239769 1.55765 0
M  V30 592 C 55.6197 -1.30052 1.9393 0
M  V30 593 C 56.6007 -1.49839 0.805132 0
M  V30 594 O 57.7857 -1.62328 1.06599 0
M  V30 595 C 54.9157 -2.65391 2.2402 0
M  V30 596 C 53.8697 -2.60289 3.39755 0
M  V30 597 C 53.1957 -3.99489 3.55405 0
M  V30 598 C 54.4957 -2.16654 4.75246 0
M  V30 599 H 56.1897 -0.983573 2.82783 0
M  V30 600 H 53.7357 -0.471701 1.36055 0
M  V30 601 H 55.6887 -3.3974 2.49308 0
M  V30 602 H 54.4127 -2.98736 1.32 0
M  V30 603 H 53.0717 -1.88398 3.14487 0
M  V30 604 H 52.7197 -4.30112 2.60793 0
M  V30 605 H 52.4197 -3.96962 4.33238 0
M  V30 606 H 53.9437 -4.75528 3.83022 0
M  V30 607 H 55.3577 -2.80737 4.99859 0
M  V30 608 H 53.7547 -2.25223 5.56232 0
M  V30 609 H 54.8247 -1.11835 4.71827 0
M  V30 610 N 56.1678 -1.49265 -0.50573 0
M  V30 611 C 57.0978 -1.68495 -1.61653 0
M  V30 612 C 58.0788 -0.53366 -1.61512 0
M  V30 613 O 59.2638 -0.76897 -1.78327 0
M  V30 614 C 56.3938 -1.74709 -3.00157 0
M  V30 615 C 55.3478 -2.89581 -3.15162 0
M  V30 616 C 54.6738 -2.80903 -4.5497 0
M  V30 617 C 55.9738 -4.30578 -2.95634 0
M  V30 618 H 57.6678 -2.61493 -1.45814 0
M  V30 619 H 55.2138 -1.25838 -0.70005 0
M  V30 620 H 57.1668 -1.86748 -3.77761 0
M  V30 621 H 55.8908 -0.783067 -3.17074 0
M  V30 622 H 54.5498 -2.77136 -2.39982 0
M  V30 623 H 54.1978 -1.82419 -4.68756 0
M  V30 624 H 53.8978 -3.57999 -4.65951 0
M  V30 625 H 55.4218 -2.94944 -5.34641 0
M  V30 626 H 56.8358 -4.4373 -3.63011 0
M  V30 627 H 55.2328 -5.0886 -3.18091 0
M  V30 628 H 56.3028 -4.45352 -1.91806 0
M  V30 629 N 57.6459 0.756429 -1.3826 0
M  V30 630 C 58.8739 1.54565 -1.3754 0
M  V30 631 C 59.2889 1.88767 0.0355331 0
M  V30 632 O 58.6459 1.52572 1.0014 0
M  V30 633 C 58.6969 2.84654 -2.22833 0
M  V30 634 O 58.4179 2.51912 -3.5843 0
M  V30 635 C 59.9189 3.78807 -2.30261 0
M  V30 636 H 57.1389 0.478353 -0.470553 0
M  V30 637 H 59.6829 0.936381 -1.81803 0
M  V30 638 H 57.8379 3.41965 -1.8204 0
M  V30 639 H 58.2519 3.35325 -4.03308 0
M  V30 640 H 59.7259 4.67045 -2.94233 0
M  V30 641 H 60.2029 4.19038 -1.31545 0
M  V30 642 H 60.8089 3.2742 -2.71433 0
M  V30 643 N 59.124 1.23083 0.984299 0
M  V30 644 C 60.054 1.03292 2.09411 0
M  V30 645 C 61.035 -0.048923 1.7003 0
M  V30 646 O 62.22 0.114967 1.93859 0
M  V30 647 C 59.35 0.619155 3.41736 0
M  V30 648 C 58.304 1.64791 3.95004 0
M  V30 649 C 57.63 1.0897 5.23478 0
M  V30 650 C 58.93 3.03999 4.24714 0
M  V30 651 H 60.624 1.96119 2.26225 0
M  V30 652 H 58.17 0.944344 1.08711 0
M  V30 653 H 60.123 0.467777 4.18796 0
M  V30 654 H 58.847 -0.344786 3.24775 0
M  V30 655 H 57.506 1.78721 3.20085 0
M  V30 656 H 57.154 0.11686 5.02864 0
M  V30 657 H 56.854 1.77704 5.60085 0
M  V30 658 H 58.378 0.950093 6.03163 0
M  V30 659 H 59.792 2.93393 4.92538 0
M  V30 660 H 58.189 3.69936 4.72512 0
M  V30 661 H 59.259 3.53285 3.32142 0
M  V30 662 N 60.6021 -1.18246 1.0419 0
M  V30 663 C 61.5321 -2.24127 0.654914 0
M  V30 664 C 62.5131 -1.66617 -0.342451 0
M  V30 665 O 63.6981 -1.92924 -0.222277 0
M  V30 666 C 60.8281 -3.47295 0.0183757 0
M  V30 667 C 59.7821 -4.17563 0.939414 0
M  V30 668 C 59.1081 -5.34438 0.167286 0
M  V30 669 C 60.4081 -4.70917 2.25908 0
M  V30 670 H 62.1021 -2.56753 1.54007 0
M  V30 671 H 59.6481 -1.23414 0.74195 0
M  V30 672 H 61.6011 -4.20572 -0.264082 0
M  V30 673 H 60.3251 -3.13907 -0.901664 0
M  V30 674 H 58.9841 -3.46186 1.20628 0
M  V30 675 H 58.6321 -4.97298 -0.7552 0
M  V30 676 H 58.3321 -5.82388 0.780901 0
M  V30 677 H 59.8561 -6.10504 -0.108125 0
M  V30 678 H 61.2701 -5.35882 2.03724 0
M  V30 679 H 59.6671 -5.29406 2.82577 0
M  V30 680 H 60.7371 -3.88272 2.9047 0
M  V30 681 N 62.0802 -0.821533 -1.34494 0
M  V30 682 C 63.0102 -0.257138 -2.3208 0
M  V30 683 C 63.9912 0.625645 -1.58176 0
M  V30 684 O 65.1762 0.552811 -1.86166 0
M  V30 685 C 62.3062 0.582958 -3.42372 0
M  V30 686 C 61.2602 -0.202571 -4.2752 0
M  V30 687 C 60.5862 0.760179 -5.29269 0
M  V30 688 C 61.8862 -1.40998 -5.02908 0
M  V30 689 H 63.5802 -1.07247 -2.79532 0
M  V30 690 H 61.1262 -0.517163 -1.34393 0
M  V30 691 H 63.0792 0.987972 -4.09655 0
M  V30 692 H 61.8032 1.43133 -2.93565 0
M  V30 693 H 60.4622 -0.588936 -3.61838 0
M  V30 694 H 60.1102 1.60447 -4.76724 0
M  V30 695 H 59.8102 0.238809 -5.87115 0
M  V30 696 H 61.3342 1.16308 -5.9942 0
M  V30 697 H 62.7482 -1.07905 -5.63054 0
M  V30 698 H 61.1452 -1.86689 -5.70322 0
M  V30 699 H 62.2152 -2.1889 -4.32684 0
M  V30 700 N 63.5583 1.46682 -0.576371 0
M  V30 701 C 64.4883 2.33028 0.148397 0
M  V30 702 C 65.4693 1.44961 0.889956 0
M  V30 703 O 66.6543 1.73789 0.866662 0
M  V30 704 C 63.7843 3.27117 1.1667 0
M  V30 705 C 62.7383 4.24575 0.540386 0
M  V30 706 C 62.0643 5.08126 1.6647 0
M  V30 707 C 63.3643 5.19722 -0.518331 0
M  V30 708 H 65.0583 2.93875 -0.572509 0
M  V30 709 H 62.6043 1.41315 -0.276768 0
M  V30 710 H 64.5573 3.86374 1.68204 0
M  V30 711 H 63.2813 2.64364 1.9178 0
M  V30 712 H 61.9403 3.66571 0.0461769 0
M  V30 713 H 61.5883 4.41762 2.40531 0
M  V30 714 H 61.2883 5.74122 1.25131 0
M  V30 715 H 62.8123 5.70246 2.18293 0
M  V30 716 H 64.2263 5.73232 -0.0883058 0
M  V30 717 H 62.6233 5.94026 -0.851679 0
M  V30 718 H 63.6933 4.64037 -1.40703 0
M  V30 719 N 65.0364 0.313813 1.54444 0
M  V30 720 C 66.2824 -0.284918 2.01395 0
M  V30 721 C 66.6374 -1.50537 1.19818 0
M  V30 722 O 65.9304 -1.89692 0.269748 0
M  V30 723 C 66.1244 -0.680386 3.50864 0
M  V30 724 C 65.9534 0.500198 4.4691 0
M  V30 725 C 64.7234 0.996248 4.95382 0
M  V30 726 C 66.9214 1.34928 4.96285 0
M  V30 727 N 64.9034 2.14226 5.75309 0
M  V30 728 C 66.2744 2.3426 5.7404 0
M  V30 729 C 68.3294 1.37818 4.78446 0
M  V30 730 C 67.0324 3.36272 6.35856 0
M  V30 731 C 69.0584 2.38695 5.4109 0
M  V30 732 C 68.4204 3.36755 6.18688 0
M  V30 733 H 64.5194 -0.0683689 0.779006 0
M  V30 734 H 67.1034 0.44664 1.89508 0
M  V30 735 H 65.2744 -1.38109 3.63016 0
M  V30 736 H 67.0064 -1.25975 3.84594 0
M  V30 737 H 63.7614 0.56912 4.70168 0
M  V30 738 H 64.1854 2.72005 6.19953 0
M  V30 739 H 68.8274 0.633747 4.18023 0
M  V30 740 H 66.5454 4.11627 6.95405 0
M  V30 741 H 70.1314 2.41721 5.29209 0
M  V30 742 H 69.0114 4.13535 6.66302 0
M  V30 743 N 66.5145 -1.57545 0.0417849 0
M  V30 744 C 67.4645 -2.07483 -0.945247 0
M  V30 745 C 68.4485 -0.977983 -1.27767 0
M  V30 746 O 69.6405 -1.24142 -1.26166 0
M  V30 747 C 66.7695 -2.61576 -2.22335 0
M  V30 748 C 65.8555 -3.78213 -1.91874 0
M  V30 749 N 66.2465 -4.88344 -1.31733 0
M  V30 750 C 64.5445 -3.8694 -2.21796 0
M  V30 751 C 65.2455 -5.69462 -1.1869 0
M  V30 752 N 64.2215 -5.16771 -1.68666 0
M  V30 753 H 68.0235 -2.90029 -0.475441 0
M  V30 754 H 65.5375 -1.61581 -0.162911 0
M  V30 755 H 67.5345 -2.95651 -2.93932 0
M  V30 756 H 66.1945 -1.80465 -2.69931 0
M  V30 757 H 67.2055 -5.08335 -0.990729 0
M  V30 758 H 63.8825 -3.16757 -2.71977 0
M  V30 759 H 65.2725 -6.68023 -0.720793 0
M  V30 760 N 67.9926 0.231505 -1.5589 0
M  V30 761 C 69.2386 0.954429 -1.79617 0
M  V30 762 C 69.5936 1.82367 -0.613199 0
M  V30 763 O 68.8866 1.87524 0.393094 0
M  V30 764 C 69.0806 1.83577 -3.0665 0
M  V30 765 C 68.9096 1.05334 -4.3719 0
M  V30 766 C 67.6796 0.75225 -4.99669 0
M  V30 767 C 69.8776 0.423444 -5.12554 0
M  V30 768 N 67.8596 -0.052627 -6.13877 0
M  V30 769 C 69.2306 -0.245287 -6.19515 0
M  V30 770 C 71.2856 0.335466 -4.96769 0
M  V30 771 C 69.9886 -0.993566 -7.12405 0
M  V30 772 C 72.0146 -0.399321 -5.9005 0
M  V30 773 C 71.3766 -1.05663 -6.9643 0
M  V30 774 H 67.4756 0.329846 -0.709031 0
M  V30 775 H 70.0596 0.226172 -1.93382 0
M  V30 776 H 68.2306 2.53592 -2.94186 0
M  V30 777 H 69.9626 2.49541 -3.18608 0
M  V30 778 H 66.7176 1.06783 -4.61405 0
M  V30 779 H 67.1416 -0.443609 -6.75545 0
M  V30 780 H 71.7836 0.829311 -4.14587 0
M  V30 781 H 69.5016 -1.49896 -7.94076 0
M  V30 782 H 73.0876 -0.468265 -5.79913 0
M  V30 783 H 71.9676 -1.61612 -7.67366 0
M  V30 784 N 69.4707 1.49531 0.497807 0
M  V30 785 C 70.7477 1.49682 1.25915 0
M  V30 786 C 71.1277 0.226339 2.09883 0
M  V30 787 O 70.4757 -0.791189 2.14365 0
M  V30 788 C 70.6857 2.77755 2.11313 0
M  V30 789 C 72.0337 3.27371 2.70395 0
M  V30 790 O 73.0577 2.78894 2.21578 0
M  V30 791 O 71.9167 4.11808 3.59272 0
M  V30 792 H 69.0107 0.599228 0.56996 0
M  V30 793 H 71.5567 1.61798 0.511816 0
M  V30 794 H 70.3287 3.61713 1.49264 0
M  V30 795 H 69.9517 2.68515 2.93233 0
M  V30 796 N 70.9488 -0.749086 1.3866 0
M  V30 797 C 72.1768 -1.53834 1.38358 0
M  V30 798 C 72.5918 -1.88783 -0.0255219 0
M  V30 799 O 71.9488 -1.53101 -0.993292 0
M  V30 800 C 71.9998 -2.83468 2.2434 0
M  V30 801 O 71.7208 -2.50008 3.5976 0
M  V30 802 C 73.2218 -3.7758 2.32267 0
M  V30 803 H 70.4418 -0.47585 0.473083 0
M  V30 804 H 72.9858 -0.926726 1.82297 0
M  V30 805 H 71.1408 -3.40995 1.83851 0
M  V30 806 H 71.5548 -3.33182 4.05081 0
M  V30 807 H 73.0288 -4.65478 2.96706 0
M  V30 808 H 73.5058 -4.18334 1.33765 0
M  V30 809 H 74.1118 -3.25976 2.73166 0
M  V30 810 N 72.4269 -1.23603 -0.977757 0
M  V30 811 C 73.6549 -1.09646 -1.75458 0
M  V30 812 C 74.0699 0.351859 -1.85492 0
M  V30 813 O 73.4269 1.24327 -1.336 0
M  V30 814 C 73.4779 -1.71895 -3.18016 0
M  V30 815 O 73.1989 -3.11063 -3.08498 0
M  V30 816 C 74.6999 -1.63415 -4.12081 0
M  V30 817 H 71.9199 -0.38359 -0.550545 0
M  V30 818 H 74.4639 -1.63507 -1.22824 0
M  V30 819 H 72.6189 -1.22061 -3.67668 0
M  V30 820 H 73.0329 -3.41305 -3.9826 0
M  V30 821 H 74.5069 -2.11669 -5.09804 0
M  V30 822 H 74.9839 -0.593462 -4.35172 0
M  V30 823 H 75.5899 -2.12628 -3.68334 0
M  V30 824 N 73.905 1.17692 -1.04816 0
M  V30 825 C 74.837 2.21103 -0.603822 0
M  V30 826 C 75.85 1.59411 0.33046 0
M  V30 827 O 77.039 1.7807 0.12379 0
M  V30 828 C 74.139 3.38623 0.136898 0
M  V30 829 C 73.312 4.29888 -0.807137 0
M  V30 830 C 72.371 5.26088 -0.10836 0
M  V30 831 O 71.397 5.64353 -0.741232 0
M  V30 832 N 72.599 5.68882 1.15558 0
M  V30 833 H 75.364 2.59848 -1.49329 0
M  V30 834 H 72.925 1.32553 -0.929587 0
M  V30 835 H 74.917 4.00009 0.614401 0
M  V30 836 H 73.487 2.98508 0.927993 0
M  V30 837 H 72.707 3.65993 -1.46434 0
M  V30 838 H 73.995 4.87759 -1.44807 0
M  V30 839 H 73.393 5.39861 1.69015 0
M  V30 840 H 71.95 6.32429 1.57722 0
M  V30 841 N 75.3831 0.828654 1.34056 0
M  V30 842 C 76.6081 0.431637 2.02859 0
M  V30 843 C 77.0331 -0.956339 1.61975 0
M  V30 844 O 76.3911 -1.62338 0.807228 0
M  V30 845 C 76.4391 0.548323 3.56407 0
M  V30 846 O 75.5431 -0.429556 4.10157 0
M  V30 847 H 74.8841 0.176886 0.640006 0
M  V30 848 H 77.4141 1.12066 1.71179 0
M  V30 849 H 77.4241 0.426196 4.05768 0
M  V30 850 H 76.0991 1.5606 3.8551 0
M  V30 851 H 74.6761 -0.265836 3.71951 0
M  V30 852 N 76.8612 -1.46375 0.584142 0
M  V30 853 C 77.7912 -2.33103 -0.136037 0
M  V30 854 C 78.7722 -1.45431 -0.882255 0
M  V30 855 O 79.9572 -1.74246 -0.857434 0
M  V30 856 C 77.0872 -3.27731 -1.14933 0
M  V30 857 C 76.0412 -4.24855 -0.517862 0
M  V30 858 C 75.3672 -5.09001 -1.63773 0
M  V30 859 C 76.6672 -5.19439 0.545886 0
M  V30 860 H 78.3612 -2.93568 0.588086 0
M  V30 861 H 75.9072 -1.41166 0.284259 0
M  V30 862 H 77.8602 -3.87261 -1.66153 0
M  V30 863 H 76.5842 -2.65377 -1.90375 0
M  V30 864 H 75.2432 -3.6659 -0.0267361 0
M  V30 865 H 74.8912 -4.43031 -2.38185 0
M  V30 866 H 74.5912 -5.74777 -1.22085 0
M  V30 867 H 76.1152 -5.71396 -2.15266 0
M  V30 868 H 77.5292 -5.73177 0.118704 0
M  V30 869 H 75.9262 -5.93566 0.88317 0
M  V30 870 H 76.9962 -4.63285 1.43162 0
M  V30 871 N 78.3393 -0.321999 -1.54275 0
M  V30 872 C 79.2863 0.544664 -2.24281 0
M  V30 873 C 80.2563 1.1129 -1.23303 0
M  V30 874 O 81.4413 1.15354 -1.51981 0
M  V30 875 C 78.5813 1.70045 -3.00298 0
M  V30 876 C 77.6943 1.16159 -4.1609 0
M  V30 877 C 76.8293 2.28293 -4.79641 0
M  V30 878 C 75.8683 1.71648 -5.8754 0
M  V30 879 N 75.0053 2.77438 -6.44959 0
M  V30 880 H 79.8453 -0.0588907 -2.97942 0
M  V30 881 H 77.3823 -0.0408345 -1.47043 0
M  V30 882 H 79.3403 2.38054 -3.42616 0
M  V30 883 H 77.9703 2.27531 -2.28975 0
M  V30 884 H 77.0223 0.373092 -3.78566 0
M  V30 885 H 78.3343 0.707087 -4.93763 0
M  V30 886 H 77.4883 3.0421 -5.2492 0
M  V30 887 H 76.2273 2.77079 -4.01346 0
M  V30 888 H 75.2323 0.942282 -5.41665 0
M  V30 889 H 76.4573 1.23741 -6.67731 0
M  V30 890 H 74.4033 3.25519 -5.69538 0
M  V30 891 H 74.3203 2.36547 -7.1804 0
M  V30 892 H 75.5883 3.53189 -6.94894 0
M  V30 893 N 79.8174 1.5752 -0.0501392 0
M  V30 894 C 80.7494 2.08413 0.95376 0
M  V30 895 C 81.7624 1.01175 1.27544 0
M  V30 896 O 82.9514 1.28744 1.23641 0
M  V30 897 C 80.0514 2.51138 2.27559 0
M  V30 898 C 79.2244 3.817 2.13598 0
M  V30 899 C 78.2834 4.10749 3.28895 0
M  V30 900 O 77.3094 4.80685 3.04845 0
M  V30 901 N 78.5114 3.62579 4.5334 0
M  V30 902 H 81.2764 2.95165 0.519383 0
M  V30 903 H 78.8374 1.61327 0.136127 0
M  V30 904 H 80.8294 2.67648 3.03557 0
M  V30 905 H 79.3994 1.6964 2.62567 0
M  V30 906 H 78.6194 3.74782 1.22197 0
M  V30 907 H 79.9074 4.67201 2.01496 0
M  V30 908 H 79.3054 3.06039 4.75769 0
M  V30 909 H 77.8624 3.84329 5.26436 0
M  V30 910 N 81.2955 -0.223234 1.56011 0
M  V30 911 C 82.2255 -1.27988 1.95298 0
M  V30 912 C 83.2065 -1.48976 0.820979 0
M  V30 913 O 84.3915 -1.61188 1.08315 0
M  V30 914 C 81.5215 -2.63 2.26822 0
M  V30 915 C 80.4755 -2.56671 3.42497 0
M  V30 916 C 79.8015 -3.95697 3.59622 0
M  V30 917 C 81.1015 -2.11601 4.77517 0
M  V30 918 H 82.7955 -0.953525 2.8381 0
M  V30 919 H 80.3415 -0.457244 1.36548 0
M  V30 920 H 82.2945 -3.37077 2.52898 0
M  V30 921 H 81.0185 -2.9732 1.35161 0
M  V30 922 H 79.6775 -1.85051 3.16467 0
M  V30 923 H 79.3255 -4.27322 2.6534 0
M  V30 924 H 79.0255 -3.92345 4.37424 0
M  V30 925 H 80.5495 -4.71438 3.88044 0
M  V30 926 H 81.9635 -2.7542 5.02809 0
M  V30 927 H 80.3605 -2.19311 5.5859 0
M  V30 928 H 81.4305 -1.06824 4.72987 0
M  V30 929 N 82.7736 -1.49793 -0.48987 0
M  V30 930 C 83.6836 -1.70036 -1.61632 0
M  V30 931 C 84.6996 -0.583102 -1.63939 0
M  V30 932 O 85.8756 -0.859169 -1.82154 0
M  V30 933 C 82.9406 -1.77277 -2.97949 0
M  V30 934 C 82.0016 -3.00918 -3.06181 0
M  V30 935 C 81.2346 -3.07804 -4.35996 0
M  V30 936 O 81.4576 -2.21982 -5.25433 0
M  V30 937 O 80.3916 -4.00369 -4.49431 0
M  V30 938 H 84.2176 -2.65486 -1.47482 0
M  V30 939 H 81.8026 -1.33666 -0.667362 0
M  V30 940 H 83.6846 -1.84329 -3.78947 0
M  V30 941 H 82.3596 -0.850076 -3.12339 0
M  V30 942 H 81.2666 -2.99377 -2.2433 0
M  V30 943 H 82.5996 -3.92704 -2.96723 0
M  V30 944 N 84.2517 0.741722 -1.39055 0
M  V30 945 C 85.1617 1.88621 -1.39496 0
M  V30 946 C 86.1777 1.71557 -0.290578 0
M  V30 947 O 87.3537 1.94275 -0.530954 0
M  V30 948 C 84.4187 3.24134 -1.23037 0
M  V30 949 C 83.4797 3.5364 -2.43387 0
M  V30 950 C 82.7127 4.82687 -2.27703 0
M  V30 951 O 82.9357 5.55922 -1.27696 0
M  V30 952 O 81.8697 5.1194 -3.16545 0
M  V30 953 H 85.6957 1.91203 -2.35956 0
M  V30 954 H 83.2807 0.888625 -1.20099 0
M  V30 955 H 85.1627 4.0513 -1.15964 0
M  V30 956 H 83.8377 3.22337 -0.296691 0
M  V30 957 H 82.7447 2.72758 -2.56035 0
M  V30 958 H 84.0777 3.60209 -3.35425 0
M  V30 959 N 85.7298 1.2412 0.971189 0
M  V30 960 C 87.1458 1.00584 1.23916 0
M  V30 961 C 87.3458 -0.287481 1.99439 0
M  V30 962 O 86.4018 -1.00454 2.31658 0
M  V30 963 C 87.7148 2.21864 2.0297 0
M  V30 964 C 89.2628 2.26452 2.16076 0
M  V30 965 C 89.7378 3.47343 2.98524 0
M  V30 966 N 91.2288 3.47639 3.06107 0
M  V30 967 C 91.9638 4.37837 3.70251 0
M  V30 968 N 91.4598 5.38286 4.36142 0
M  V30 969 N 93.2528 4.25558 3.67228 0
M  V30 970 H 85.4038 2.07236 0.465499 0
M  V30 971 H 87.6668 0.909236 0.268315 0
M  V30 972 H 87.3728 3.15771 1.54861 0
M  V30 973 H 87.2468 2.23698 3.03709 0
M  V30 974 H 89.6338 1.33078 2.6339 0
M  V30 975 H 89.7148 2.28645 1.14696 0
M  V30 976 H 89.3588 4.41029 2.51905 0
M  V30 977 H 89.2888 3.42393 4.00093 0
M  V30 978 H 91.7798 2.74966 2.59233 0
M  V30 979 H 92.0928 6.03352 4.82894 0
M  V30 980 H 90.4378 5.42176 4.34822 0
M  V30 981 H 93.6288 3.46322 3.14927 0
M  V30 982 H 93.8018 4.96054 4.16935 0
M  V30 983 N 87.2079 -1.17134 1.05439 0
M  V30 984 C 88.1709 -2.19439 0.661764 0
M  V30 985 C 89.1709 -1.58199 -0.288042 0
M  V30 986 O 90.3609 -1.74053 -0.0715803 0
M  V30 987 C 87.4929 -3.40889 -0.0276209 0
M  V30 988 H 88.6859 -2.55688 1.56728 0
M  V30 989 H 86.2389 -1.31259 0.848567 0
M  V30 990 H 86.9739 -3.10187 -0.94629 0
M  V30 991 H 86.7589 -3.86586 0.655238 0
M  V30 992 H 88.2489 -4.16603 -0.288342 0
M  V30 993 N 88.686 -0.835752 -1.33615 0
M  V30 994 C 89.649 -0.272 -2.2758 0
M  V30 995 C 90.649 0.557487 -1.50827 0
M  V30 996 O 91.839 0.37173 -1.70188 0
M  V30 997 C 88.971 0.617173 -3.35267 0
M  V30 998 H 90.164 -1.10111 -2.78954 0
M  V30 999 H 87.717 -0.608594 -1.43965 0
M  V30 1000 H 88.452 1.46884 -2.89129 0
M  V30 1001 H 88.237 0.0237066 -3.92093 0
M  V30 1002 H 89.727 1.005 -4.05326 0
M  V30 1003 N 90.1641 1.46063 -0.591896 0
M  V30 1004 C 91.5801 1.57561 -0.254288 0
M  V30 1005 C 91.7801 1.58565 1.24336 0
M  V30 1006 O 90.8361 1.50753 2.02558 0
M  V30 1007 C 92.1491 2.86549 -0.911611 0
M  V30 1008 C 93.6971 3.00197 -0.886059 0
M  V30 1009 C 94.1721 4.31933 -1.5231 0
M  V30 1010 N 95.6631 4.38654 -1.48786 0
M  V30 1011 C 96.3981 5.39222 -1.95006 0
M  V30 1012 N 95.8941 6.46414 -2.49241 0
M  V30 1013 N 97.6871 5.3048 -1.85868 0
M  V30 1014 H 89.8381 1.43655 -1.56451 0
M  V30 1015 H 92.1011 0.68583 -0.654478 0
M  V30 1016 H 91.8071 2.91651 -1.96551 0
M  V30 1017 H 91.6811 3.74794 -0.425368 0
M  V30 1018 H 94.0681 2.9467 0.159246 0
M  V30 1019 H 94.1491 2.13403 -1.41041 0
M  V30 1020 H 93.7931 4.38217 -2.56765 0
M  V30 1021 H 93.7231 5.17516 -0.973891 0
M  V30 1022 H 96.2141 3.61793 -1.09151 0
M  V30 1023 H 96.5271 7.19376 -2.82344 0
M  V30 1024 H 94.8721 6.47208 -2.53272 0
M  V30 1025 H 98.0631 4.45643 -1.43248 0
M  V30 1026 H 98.2361 6.08711 -2.22204 0
M  V30 1027 N 91.6422 0.330177 1.54103 0
M  V30 1028 C 92.5902 -0.548226 2.26047 0
M  V30 1029 C 93.5842 -1.11309 1.27698 0
M  V30 1030 O 94.7902 -1.06036 1.45452 0
M  V30 1031 H 91.1652 -0.195456 0.726155 0
M  V30 1032 H 93.1362 0.0807567 2.98291 0
M  V30 1033 C 91.8852 -1.69415 3.03634 0
M  V30 1034 H 91.2082 -1.26876 3.79134 0
M  V30 1035 H 92.6482 -2.28423 3.5721 0
M  V30 1036 C 91.1072 -2.61569 2.12328 0
M  V30 1037 O 91.6372 -3.63462 1.7105 0
M  V30 1038 N 89.8432 -2.29952 1.77681 0
M  V30 1039 H 89.3902 -1.47134 2.11446 0
M  V30 1040 H 89.3482 -2.91871 1.16869 0
M  V30 1041 N 93.1203 -1.57491 0.0584922 0
M  V30 1042 C 94.3663 -1.93264 -0.614558 0
M  V30 1043 C 94.6993 -0.937717 -1.7006 0
M  V30 1044 O 93.9743 0.0351652 -1.94468 0
M  V30 1045 C 94.2573 -3.3938 -1.20386 0
M  V30 1046 C 94.1103 -4.49625 -0.125375 0
M  V30 1047 C 95.4293 -3.86039 -2.11334 0
M  V30 1048 H 92.5483 -0.702791 -0.221933 0
M  V30 1049 H 95.1903 -1.8961 0.12175 0
M  V30 1050 H 93.3403 -3.42626 -1.83139 0
M  V30 1051 H 95.0123 -4.58506 0.506971 0
M  V30 1052 H 93.2553 -4.30354 0.545672 0
M  V30 1053 H 93.9263 -5.48967 -0.577861 0
M  V30 1054 H 96.4023 -3.84716 -1.58534 0
M  V30 1055 H 95.2783 -4.88914 -2.49507 0
M  V30 1056 H 95.5393 -3.23215 -3.01636 0
M  V30 1057 N 94.5984 0.214957 -1.56127 0
M  V30 1058 C 95.8234 0.95924 -1.83884 0
M  V30 1059 C 96.2484 1.7689 -0.639644 0
M  V30 1060 O 95.6064 1.76566 0.411601 0
M  V30 1061 C 95.6544 1.84723 -3.09693 0
M  V30 1062 O 94.7584 2.94346 -2.8885 0
M  V30 1063 H 94.0994 0.27125 -0.606069 0
M  V30 1064 H 96.6294 0.226276 -2.03345 0
M  V30 1065 H 96.6394 2.25576 -3.39969 0
M  V30 1066 H 95.3144 1.25218 -3.96602 0
M  V30 1067 H 93.8914 2.57391 -2.69823 0
M  V30 1068 N 96.0765 1.50051 0.48192 0
M  V30 1069 C 97.0085 1.64263 1.59844 0
M  V30 1070 C 98.0215 0.52451 1.54119 0
M  V30 1071 O 99.2105 0.797293 1.59704 0
M  V30 1072 C 96.3105 1.60102 2.98698 0
M  V30 1073 C 95.4835 2.87767 3.29407 0
M  V30 1074 C 94.5425 2.76397 4.47762 0
M  V30 1075 O 93.5685 3.50348 4.48603 0
M  V30 1076 N 94.7705 1.89222 5.48794 0
M  V30 1077 H 97.5355 2.60566 1.48073 0
M  V30 1078 H 95.0965 1.47379 0.670149 0
M  V30 1079 H 97.0885 1.50123 3.75826 0
M  V30 1080 H 95.6585 0.715798 3.04294 0
M  V30 1081 H 94.8785 3.11954 2.40994 0
M  V30 1082 H 96.1665 3.72365 3.4673 0
M  V30 1083 H 95.5645 1.28434 5.50928 0
M  V30 1084 H 94.1215 1.85154 6.24949 0
M  V30 1085 N 97.5546 -0.734337 1.39446 0
M  V30 1086 C 98.8006 -1.49613 1.36908 0
M  V30 1087 C 99.1336 -1.94169 -0.0347829 0
M  V30 1088 O 98.4086 -1.66833 -0.999847 0
M  V30 1089 C 98.6916 -2.73534 2.34203 0
M  V30 1090 C 98.5446 -2.34993 3.83534 0
M  V30 1091 C 99.8636 -3.75635 2.29317 0
M  V30 1092 H 96.9826 -0.542714 0.498629 0
M  V30 1093 H 99.6246 -0.839597 1.70443 0
M  V30 1094 H 97.7746 -3.29553 2.05736 0
M  V30 1095 H 99.4466 -1.84601 4.22753 0
M  V30 1096 H 97.6896 -1.67213 4.00278 0
M  V30 1097 H 98.3606 -3.23738 4.47099 0
M  V30 1098 H 100.837 -3.29203 2.54489 0
M  V30 1099 H 99.7126 -4.60008 2.99472 0
M  V30 1100 H 99.9736 -4.22603 1.29842 0
M  V30 1101 N 99.0327 -1.24633 -0.964593 0
M  V30 1102 C 100.258 -1.11596 -1.74818 0
M  V30 1103 C 100.683 0.32723 -1.85232 0
M  V30 1104 O 100.041 1.23695 -1.32549 0
M  V30 1105 C 100.089 -1.76397 -3.1451 0
M  V30 1106 O 99.1927 -1.03685 -3.99153 0
M  V30 1107 H 98.5337 -0.390196 -0.537255 0
M  V30 1108 H 101.064 -1.65002 -1.20977 0
M  V30 1109 H 101.074 -1.8228 -3.65018 0
M  V30 1110 H 99.7487 -2.81401 -3.06246 0
M  V30 1111 H 98.3257 -1.05611 -3.57632 0
M  V30 1112 N 100.511 1.16574 -1.06058 0
M  V30 1113 C 101.458 2.20883 -0.669263 0
M  V30 1114 C 102.428 1.62729 0.332918 0
M  V30 1115 O 103.613 1.895 0.222346 0
M  V30 1116 C 100.753 3.45049 -0.0593572 0
M  V30 1117 C 99.8658 4.17458 -1.11143 0
M  V30 1118 C 99.0008 5.29135 -0.467916 0
M  V30 1119 C 98.0398 5.93343 -1.50369 0
M  V30 1120 N 97.1768 6.96516 -0.883706 0
M  V30 1121 H 102.017 2.53709 -1.5632 0
M  V30 1122 H 99.5538 1.24616 -0.781625 0
M  V30 1123 H 101.512 4.16033 0.311771 0
M  V30 1124 H 100.142 3.12781 0.797992 0
M  V30 1125 H 99.1938 3.45101 -1.60029 0
M  V30 1126 H 100.506 4.61307 -1.89731 0
M  V30 1127 H 99.6598 6.06684 -0.0436871 0
M  V30 1128 H 98.3988 4.86443 0.349864 0
M  V30 1129 H 97.4038 5.14517 -1.93784 0
M  V30 1130 H 98.6288 6.38114 -2.32352 0
M  V30 1131 H 96.5748 6.55943 -0.086595 0
M  V30 1132 H 96.4918 7.38723 -1.607 0
M  V30 1133 H 97.7598 7.77993 -0.484543 0
M  V30 1134 N 101.989 0.842826 1.3317 0
M  V30 1135 C 102.937 0.267495 2.31057 0
M  V30 1136 C 103.931 -0.602682 1.58316 0
M  V30 1137 O 105.137 -0.491803 1.73151 0
M  V30 1138 H 101.512 0.0677813 0.748939 0
M  V30 1139 H 103.483 1.10754 2.77085 0
M  V30 1140 C 102.232 -0.539331 3.43492 0
M  V30 1141 H 101.555 0.12095 3.99617 0
M  V30 1142 H 102.995 -0.90767 4.14171 0
M  V30 1143 C 101.454 -1.71981 2.89697 0
M  V30 1144 O 101.984 -2.81862 2.86211 0
M  V30 1145 N 100.19 -1.54299 2.46252 0
M  V30 1146 H 99.7369 -0.649143 2.49287 0
M  V30 1147 H 99.6949 -2.33431 2.10612 0
M  V30 1148 N 103.467 -1.45747 0.599634 0
M  V30 1149 C 104.397 -2.33235 -0.111306 0
M  V30 1150 C 105.378 -1.46359 -0.866781 0
M  V30 1151 O 106.563 -1.75146 -0.838904 0
M  V30 1152 C 103.693 -3.28932 -1.11451 0
M  V30 1153 C 102.647 -4.25381 -0.472772 0
M  V30 1154 C 101.973 -5.1071 -1.58365 0
M  V30 1155 C 103.273 -5.18831 0.600948 0
M  V30 1156 H 104.967 -2.92927 0.61919 0
M  V30 1157 H 102.513 -1.40857 0.299215 0
M  V30 1158 H 104.466 -3.89002 -1.62036 0
M  V30 1159 H 103.19 -2.67381 -1.8755 0
M  V30 1160 H 101.849 -3.66598 0.0121472 0
M  V30 1161 H 101.497 -4.45533 -2.33473 0
M  V30 1162 H 101.197 -5.7604 -1.15982 0
M  V30 1163 H 102.721 -5.73647 -2.09194 0
M  V30 1164 H 104.135 -5.73019 0.179491 0
M  V30 1165 H 102.532 -5.92595 0.946076 0
M  V30 1166 H 103.602 -4.6174 1.48068 0
M  V30 1167 N 104.945 -0.338344 -1.53925 0
M  V30 1168 C 105.855 0.529421 -2.28548 0
M  V30 1169 C 106.871 1.11645 -1.3346 0
M  V30 1170 O 108.047 1.13325 -1.66492 0
M  V30 1171 C 105.112 1.66713 -3.03987 0
M  V30 1172 C 104.173 1.11041 -4.14691 0
M  V30 1173 C 103.406 2.19389 -4.86522 0
M  V30 1174 O 103.629 3.40013 -4.57982 0
M  V30 1175 O 102.563 1.83976 -5.73094 0
M  V30 1176 H 106.389 -0.0770399 -3.03602 0
M  V30 1177 H 103.974 -0.103555 -1.49041 0
M  V30 1178 H 105.856 2.32918 -3.5118 0
M  V30 1179 H 104.531 2.25949 -2.31794 0
M  V30 1180 H 103.438 0.413024 -3.71813 0
M  V30 1181 H 104.771 0.562975 -4.8897 0
M  V30 1182 N 106.423 1.57458 -0.0668435 0
M  V30 1183 C 107.648 1.9804 0.616027 0
M  V30 1184 C 108.073 0.944771 1.62652 0
M  V30 1185 O 107.431 -0.0902094 1.81075 0
M  V30 1186 C 107.479 3.37665 1.26549 0
M  V30 1187 O 106.583 3.36701 2.38131 0
M  V30 1188 H 105.924 0.644719 0.158849 0
M  V30 1189 H 108.454 2.04121 -0.139891 0
M  V30 1190 H 108.464 3.7474 1.6135 0
M  V30 1191 H 107.139 4.12573 0.525016 0
M  V30 1192 H 105.716 3.1139 2.0516 0
M  V30 1193 N 107.901 -0.206675 1.56239 0
M  V30 1194 C 108.851 -1.26 1.90021 0
M  V30 1195 C 109.835 -1.41566 0.764721 0
M  V30 1196 O 111.027 -1.44131 1.02739 0
M  V30 1197 C 108.156 -2.6073 2.23326 0
M  V30 1198 C 107.242 -2.49005 3.43304 0
M  V30 1199 N 107.633 -2.06946 4.61527 0
M  V30 1200 C 105.931 -2.79927 3.47213 0
M  V30 1201 C 106.632 -2.06832 5.43687 0
M  V30 1202 N 105.608 -2.47892 4.83788 0
M  V30 1203 H 109.41 -0.925955 2.78932 0
M  V30 1204 H 106.924 -0.415172 1.57003 0
M  V30 1205 H 108.921 -3.36798 2.45708 0
M  V30 1206 H 107.581 -2.94968 1.35735 0
M  V30 1207 H 108.592 -1.77839 4.86409 0
M  V30 1208 H 105.269 -3.18438 2.70006 0
M  V30 1209 H 106.659 -1.76312 6.48354 0
M  V30 1210 N 109.379 -1.50304 -0.473955 0
M  V30 1211 C 110.329 -1.65347 -1.56985 0
M  V30 1212 C 111.313 -0.508176 -1.52664 0
M  V30 1213 O 112.505 -0.762446 -1.59737 0
M  V30 1214 C 109.634 -1.74832 -2.95447 0
M  V30 1215 C 108.72 -2.95028 -3.04662 0
M  V30 1216 N 109.111 -4.18747 -2.83698 0
M  V30 1217 C 107.409 -2.93527 -3.35795 0
M  V30 1218 C 108.11 -4.99687 -2.97805 0
M  V30 1219 N 107.086 -4.33585 -3.2788 0
M  V30 1220 H 110.888 -2.58698 -1.39472 0
M  V30 1221 H 108.402 -1.47449 -0.680629 0
M  V30 1222 H 110.399 -1.83712 -3.7424 0
M  V30 1223 H 109.059 -0.826376 -3.14008 0
M  V30 1224 H 110.07 -4.48291 -2.59337 0
M  V30 1225 H 106.747 -2.10821 -3.60362 0
M  V30 1226 H 108.137 -6.08057 -2.85861 0
M  V30 1227 N 110.857 0.726932 -1.39834 0
M  V30 1228 C 112.105 1.4837 -1.37225 0
M  V30 1229 C 112.426 1.94979 0.0284857 0
M  V30 1230 O 111.696 1.69555 0.981213 0
M  V30 1231 H 110.276 0.55043 -0.505011 0
M  V30 1232 H 112.938 0.862468 -1.74778 0
M  V30 1233 H 112.034 2.36198 -2.04003 0
M  V30 1234 N 112.336 1.25143 0.95797 0
M  V30 1235 C 113.613 1.00472 1.67823 0
M  V30 1236 C 113.993 -0.470056 2.058 0
M  V30 1237 O 113.341 -1.44663 1.76875 0
M  V30 1238 C 113.551 1.9372 2.90299 0
M  V30 1239 C 114.899 2.21371 3.62326 0
M  V30 1240 O 115.923 1.91451 3.00375 0
M  V30 1241 O 114.782 2.72231 4.7387 0
M  V30 1242 H 111.876 0.380752 0.734137 0
M  V30 1243 H 114.422 1.36283 1.01119 0
M  V30 1244 H 113.194 2.93316 2.59001 0
M  V30 1245 H 112.817 1.58286 3.64735 0
M  V30 1246 N 113.814 -1.1601 1.06675 0
M  V30 1247 C 114.746 -2.20115 0.638921 0
M  V30 1248 C 115.759 -1.59916 -0.305057 0
M  V30 1249 O 116.948 -1.78245 -0.0954446 0
M  V30 1250 C 114.048 -3.38798 -0.0830083 0
M  V30 1251 C 113.221 -4.2855 0.875426 0
M  V30 1252 C 112.28 -5.25849 0.192042 0
M  V30 1253 O 111.306 -5.63102 0.830921 0
M  V30 1254 N 112.508 -5.70648 -1.06493 0
M  V30 1255 H 115.273 -2.57439 1.53444 0
M  V30 1256 H 112.834 -1.31057 0.950557 0
M  V30 1257 H 114.826 -4.00936 -0.550685 0
M  V30 1258 H 113.396 -2.99947 -0.880386 0
M  V30 1259 H 112.616 -3.63617 1.52238 0
M  V30 1260 H 113.904 -4.85393 1.52548 0
M  V30 1261 H 113.302 -5.42482 -1.60405 0
M  V30 1262 H 111.859 -6.34859 -1.47641 0
M  V30 1263 N 115.292 -0.849877 -1.32721 0
M  V30 1264 C 116.225 -0.235903 -2.26977 0
M  V30 1265 C 117.203 0.623355 -1.50177 0
M  V30 1266 O 118.387 0.581207 -1.79316 0
M  V30 1267 C 115.514 0.667712 -3.32053 0
M  V30 1268 C 114.56 -0.11753 -4.26338 0
M  V30 1269 S 115.393 -1.48277 -5.14562 0
M  V30 1270 C 116.549 -0.584741 -6.23163 0
M  V30 1271 H 116.782 -1.03495 -2.78704 0
M  V30 1272 H 114.315 -0.64724 -1.40179 0
M  V30 1273 H 116.273 1.18343 -3.93072 0
M  V30 1274 H 114.934 1.44052 -2.7912 0
M  V30 1275 H 114.127 0.57051 -5.00761 0
M  V30 1276 H 113.729 -0.564668 -3.69713 0
M  V30 1277 H 116.021 0.212968 -6.77165 0
M  V30 1278 H 116.964 -1.29947 -6.96074 0
M  V30 1279 H 117.372 -0.161202 -5.6427 0
M  V30 1280 N 116.77 1.45427 -0.607355 0
M  V30 1281 C 117.733 2.28974 0.101693 0
M  V30 1282 C 118.733 1.39754 0.795329 0
M  V30 1283 O 119.923 1.61878 0.643527 0
M  V30 1284 C 117.055 3.20768 1.15414 0
M  V30 1285 H 118.248 2.93147 -0.632844 0
M  V30 1286 H 115.801 1.51945 -0.366391 0
M  V30 1287 H 116.536 2.61395 1.91945 0
M  V30 1288 H 116.321 3.86489 0.66098 0
M  V30 1289 H 117.811 3.83589 1.65073 0
M  V30 1290 N 118.248 0.346503 1.53744 0
M  V30 1291 C 119.18 -0.543316 2.22667 0
M  V30 1292 C 120.193 -1.06159 1.23427 0
M  V30 1293 O 121.382 -0.971235 1.49764 0
M  V30 1294 C 118.482 -1.76076 2.89569 0
M  V30 1295 C 117.655 -1.37727 4.15151 0
M  V30 1296 C 116.714 -2.45471 4.65436 0
M  V30 1297 O 115.74 -2.08655 5.29577 0
M  V30 1298 N 116.942 -3.7677 4.41616 0
M  V30 1299 H 119.707 0.0469703 2.99663 0
M  V30 1300 H 117.268 0.170766 1.60997 0
M  V30 1301 H 119.26 -2.47593 3.20125 0
M  V30 1302 H 117.83 -2.25835 2.16142 0
M  V30 1303 H 117.05 -0.492746 3.91108 0
M  V30 1304 H 118.338 -1.09708 4.96832 0
M  V30 1305 H 117.736 -4.09467 3.90325 0
M  V30 1306 H 116.293 -4.44448 4.7677 0
M  V30 1307 N 119.726 -1.57421 0.075193 0
M  V30 1308 C 120.673 -2.12915 -0.890843 0
M  V30 1309 C 121.643 -1.04252 -1.29309 0
M  V30 1310 O 122.828 -1.31933 -1.37834 0
M  V30 1311 C 119.968 -2.69795 -2.15186 0
M  V30 1312 C 119.081 -3.92624 -1.80194 0
M  V30 1313 C 118.216 -4.37736 -3.00933 0
M  V30 1314 C 117.255 -5.53205 -2.61974 0
M  V30 1315 N 116.392 -5.9326 -3.75483 0
M  V30 1316 H 121.232 -2.95156 -0.410735 0
M  V30 1317 H 118.769 -1.45854 -0.191086 0
M  V30 1318 H 120.727 -3.00883 -2.89008 0
M  V30 1319 H 119.357 -1.90313 -2.60731 0
M  V30 1320 H 118.409 -3.67977 -0.964218 0
M  V30 1321 H 119.721 -4.76482 -1.47534 0
M  V30 1322 H 118.875 -4.70503 -3.8303 0
M  V30 1323 H 117.614 -3.52739 -3.36789 0
M  V30 1324 H 116.619 -5.20086 -1.783 0
M  V30 1325 H 117.844 -6.39936 -2.27284 0
M  V30 1326 H 115.79 -5.11212 -4.11094 0
M  V30 1327 H 115.707 -6.71865 -3.46602 0
M  V30 1328 H 116.975 -6.30651 -4.58148 0
M  V30 1329 N 121.204 0.198386 -1.56346 0
M  V30 1330 C 122.429 0.939682 -1.84891 0
M  V30 1331 C 122.854 1.76202 -0.658369 0
M  V30 1332 O 122.212 1.76993 0.392851 0
M  V30 1333 C 122.26 1.81428 -3.11635 0
M  V30 1334 O 121.364 2.91265 -2.91956 0
M  V30 1335 H 120.705 0.264807 -0.608912 0
M  V30 1336 H 123.235 0.204695 -2.03573 0
M  V30 1337 H 123.245 2.21958 -3.42343 0
M  V30 1338 H 121.92 1.21004 -3.97908 0
M  V30 1339 H 120.497 2.54514 -2.72538 0
M  V30 1340 N 122.682 1.50554 0.465978 0
M  V30 1341 C 123.614 1.65949 1.58093 0
M  V30 1342 C 124.627 0.540827 1.53554 0
M  V30 1343 O 125.816 0.814187 1.5885 0
M  V30 1344 C 122.916 1.63261 2.96983 0
M  V30 1345 C 122.089 2.91245 3.26336 0
M  V30 1346 C 121.148 2.8113 4.44806 0
M  V30 1347 O 120.174 3.55086 4.44862 0
M  V30 1348 N 121.376 1.95032 5.46756 0
M  V30 1349 H 124.141 2.62122 1.45301 0
M  V30 1350 H 121.702 1.48082 0.65448 0
M  V30 1351 H 123.694 1.54101 3.74212 0
M  V30 1352 H 122.264 0.748032 3.03518 0
M  V30 1353 H 121.484 3.14493 2.37672 0
M  V30 1354 H 122.772 3.76022 3.42761 0
M  V30 1355 H 122.17 1.3427 5.49534 0
M  V30 1356 H 120.727 1.91772 6.2295 0
M  V30 1357 N 124.16 -0.719506 1.40217 0
M  V30 1358 C 125.385 -1.51371 1.4178 0
M  V30 1359 C 125.81 -1.88091 0.0182355 0
M  V30 1360 O 125.168 -1.52997 -0.972707 0
M  V30 1361 C 125.216 -2.768 2.31115 0
M  V30 1362 O 124.32 -3.73349 1.7517 0
M  V30 1363 H 123.661 -0.456529 0.482159 0
M  V30 1364 H 126.191 -0.88644 1.844 0
M  V30 1365 H 126.201 -3.25371 2.46167 0
M  V30 1366 H 124.876 -2.49407 3.3282 0
M  V30 1367 H 123.453 -3.32179 1.69444 0
M  V30 1368 N 125.638 -1.25649 -0.95132 0
M  V30 1369 C 126.866 -1.13343 -1.73092 0
M  V30 1370 C 127.281 0.312434 -1.86197 0
M  V30 1371 O 126.638 1.21465 -1.36207 0
M  V30 1372 C 126.689 -1.78602 -3.14299 0
M  V30 1373 O 126.41 -3.17537 -3.01831 0
M  V30 1374 C 127.911 -1.72119 -4.08522 0
M  V30 1375 H 125.131 -0.395181 -0.542285 0
M  V30 1376 H 127.675 -1.66076 -1.19328 0
M  V30 1377 H 125.83 -1.29832 -3.64996 0
M  V30 1378 H 126.244 -3.49676 -3.90931 0
M  V30 1379 H 127.718 -2.22435 -5.052 0
M  V30 1380 H 128.195 -0.685635 -4.33815 0
M  V30 1381 H 128.801 -2.20393 -3.63741 0
M  V30 1382 N 127.117 1.15442 -1.07289 0
M  V30 1383 C 128.049 2.19773 -0.650585 0
M  V30 1384 C 129.062 1.60076 0.296572 0
M  V30 1385 O 130.251 1.78293 0.0859905 0
M  V30 1386 C 127.351 3.38838 0.0650398 0
M  V30 1387 C 126.524 4.2808 -0.898141 0
M  V30 1388 C 125.583 5.2574 -0.219926 0
M  V30 1389 O 124.609 5.62654 -0.860773 0
M  V30 1390 N 125.811 5.71205 1.03466 0
M  V30 1391 H 128.576 2.56622 -1.54808 0
M  V30 1392 H 126.137 1.30551 -0.957494 0
M  V30 1393 H 128.129 4.01222 0.529415 0
M  V30 1394 H 126.699 3.00409 0.864466 0
M  V30 1395 H 125.919 3.62804 -1.54165 0
M  V30 1396 H 127.207 4.84577 -1.5512 0
M  V30 1397 H 126.605 5.43325 1.57526 0
M  V30 1398 H 125.162 6.35633 1.44272 0
M  V30 1399 N 128.595 0.856903 1.32268 0
M  V30 1400 C 129.844 0.457599 1.96441 0
M  V30 1401 C 130.157 -0.992426 1.68553 0
M  V30 1402 O 131.363 -1.49727 2.26482 0
M  V30 1403 C 129.819 0.767358 3.51624 0
M  V30 1404 C 129.427 2.23326 3.88367 0
M  V30 1405 C 131.171 0.435887 4.22256 0
M  V30 1406 C 129.078 2.48613 5.36606 0
M  V30 1407 H 128.008 0.167387 0.735185 0
M  V30 1408 H 130.659 1.048 1.5063 0
M  V30 1409 H 129.041 0.106367 3.95857 0
M  V30 1410 H 130.215 2.93623 3.55137 0
M  V30 1411 H 128.53 2.52948 3.30766 0
M  V30 1412 H 131.127 0.602202 5.31298 0
M  V30 1413 H 131.47 -0.622672 4.11617 0
M  V30 1414 H 132.003 1.05286 3.83614 0
M  V30 1415 H 128.742 3.53101 5.52268 0
M  V30 1416 H 128.262 1.82896 5.71235 0
M  V30 1417 H 129.941 2.32676 6.03714 0
M  V30 1418 N 130.073 -1.45103 0.615059 0
M  V30 1419 C 131.298 -2.07064 0.117988 0
M  V30 1420 C 131.723 -1.4554 -1.19163 0
M  V30 1421 O 131.081 -0.550855 -1.72729 0
M  V30 1422 C 131.129 -3.606 -0.000288387 0
M  V30 1423 O 130.233 -3.98847 -1.04856 0
M  V30 1424 H 129.574 -0.659467 0.0774581 0
M  V30 1425 H 132.104 -1.86236 0.847186 0
M  V30 1426 H 132.114 -4.07529 -0.196091 0
M  V30 1427 H 130.789 -4.04765 0.955932 0
M  V30 1428 H 129.366 -3.63577 -0.828619 0
M  V30 1429 N 131.551 -0.354651 -1.53558 0
M  V30 1430 C 132.483 0.5315 -2.22952 0
M  V30 1431 C 133.496 1.05503 -1.23988 0
M  V30 1432 O 134.685 0.963279 -1.50277 0
M  V30 1433 C 131.785 1.74538 -2.90499 0
M  V30 1434 C 130.958 1.35524 -4.15875 0
M  V30 1435 C 130.017 2.42999 -4.66731 0
M  V30 1436 O 129.043 2.05844 -5.30676 0
M  V30 1437 N 130.245 3.74423 -4.43608 0
M  V30 1438 H 133.01 -0.0628615 -2.99634 0
M  V30 1439 H 130.571 -0.179302 -1.60904 0
M  V30 1440 H 132.563 2.45892 -3.21433 0
M  V30 1441 H 131.133 2.24686 -2.17336 0
M  V30 1442 H 130.353 0.471998 -3.91364 0
M  V30 1443 H 131.641 1.07071 -4.97406 0
M  V30 1444 H 131.039 4.07391 -3.92491 0
M  V30 1445 H 129.596 4.41913 -4.7912 0
M  V30 1446 N 133.029 1.57378 -0.0835403 0
M  V30 1447 C 133.939 2.16897 0.894021 0
M  V30 1448 C 134.955 1.13528 1.31861 0
M  V30 1449 O 136.131 1.45848 1.3889 0
M  V30 1450 C 133.196 2.72831 2.13925 0
M  V30 1451 C 132.257 3.91115 1.76997 0
M  V30 1452 C 131.49 4.44371 2.95584 0
M  V30 1453 O 131.713 3.96596 4.09961 0
M  V30 1454 O 130.647 5.35549 2.74719 0
M  V30 1455 H 134.473 3.00814 0.417679 0
M  V30 1456 H 132.058 1.48741 0.140181 0
M  V30 1457 H 133.94 3.0863 2.86924 0
M  V30 1458 H 132.615 1.91967 2.60635 0
M  V30 1459 H 131.522 3.60148 1.01214 0
M  V30 1460 H 132.855 4.73307 1.3506 0
M  V30 1461 N 134.507 -0.190092 1.56449 0
M  V30 1462 C 135.437 -1.23816 1.97969 0
M  V30 1463 C 136.418 -1.47201 0.852395 0
M  V30 1464 O 137.603 -1.58854 1.1171 0
M  V30 1465 C 134.733 -2.5813 2.3235 0
M  V30 1466 C 133.687 -2.49348 3.47864 0
M  V30 1467 C 133.013 -3.8798 3.67934 0
M  V30 1468 C 134.313 -2.01424 4.81898 0
M  V30 1469 H 136.007 -0.89311 2.85769 0
M  V30 1470 H 133.553 -0.428177 1.37487 0
M  V30 1471 H 135.506 -3.31637 2.59991 0
M  V30 1472 H 134.23 -2.94386 1.41438 0
M  V30 1473 H 132.889 -1.78297 3.20321 0
M  V30 1474 H 132.537 -4.21597 2.74344 0
M  V30 1475 H 132.237 -3.82978 4.45648 0
M  V30 1476 H 133.761 -4.63101 3.97957 0
M  V30 1477 H 135.175 -2.64693 5.08538 0
M  V30 1478 H 133.572 -2.07413 5.63116 0
M  V30 1479 H 134.642 -0.967677 4.75146 0
M  V30 1480 N 135.985 -1.50799 -0.457987 0
M  V30 1481 C 136.895 -1.73426 -1.57989 0
M  V30 1482 C 137.911 -0.617745 -1.62665 0
M  V30 1483 O 139.087 -0.897614 -1.80291 0
M  V30 1484 C 136.152 -1.83557 -2.94122 0
M  V30 1485 C 135.213 -3.07345 -2.99729 0
M  V30 1486 C 134.446 -3.16983 -4.29368 0
M  V30 1487 O 134.669 -2.33077 -5.20607 0
M  V30 1488 O 133.603 -4.09812 -4.40837 0
M  V30 1489 H 137.429 -2.68555 -1.41817 0
M  V30 1490 H 135.014 -1.35052 -0.638859 0
M  V30 1491 H 136.896 -1.92326 -3.74952 0
M  V30 1492 H 135.571 -0.916137 -3.10465 0
M  V30 1493 H 134.478 -3.04068 -2.1793 0
M  V30 1494 H 135.811 -3.9891 -2.88326 0
M  V30 1495 N 137.463 0.71206 -1.40597 0
M  V30 1496 C 138.373 1.8562 -1.43466 0
M  V30 1497 C 139.389 1.70902 -0.326902 0
M  V30 1498 O 140.565 1.93105 -0.572043 0
M  V30 1499 C 137.63 3.21451 -1.29884 0
M  V30 1500 C 136.691 3.48398 -2.50833 0
M  V30 1501 C 135.924 4.77749 -2.3789 0
M  V30 1502 O 136.147 5.53089 -1.39459 0
M  V30 1503 O 135.081 5.05111 -3.27333 0
M  V30 1504 H 138.907 1.86155 -2.39958 0
M  V30 1505 H 136.492 0.86295 -1.21957 0
M  V30 1506 H 138.374 4.02579 -1.24531 0
M  V30 1507 H 137.049 3.21636 -0.364997 0
M  V30 1508 H 135.956 2.67265 -2.61763 0
M  V30 1509 H 137.289 3.53014 -3.4299 0
M  V30 1510 N 138.941 1.26152 0.944643 0
M  V30 1511 C 139.871 1.09902 2.06019 0
M  V30 1512 C 140.852 0.00519538 1.70099 0
M  V30 1513 O 142.037 0.176583 1.93396 0
M  V30 1514 C 139.167 0.727562 3.39594 0
M  V30 1515 C 138.121 1.77274 3.89561 0
M  V30 1516 C 137.447 1.25569 5.19747 0
M  V30 1517 C 138.747 3.17357 4.14827 0
M  V30 1518 H 140.441 2.03217 2.19871 0
M  V30 1519 H 137.987 0.978452 1.05652 0
M  V30 1520 H 139.94 0.600777 4.17095 0
M  V30 1521 H 138.664 -0.241287 3.25707 0
M  V30 1522 H 137.323 1.88814 3.14237 0
M  V30 1523 H 136.971 0.276783 5.02238 0
M  V30 1524 H 136.671 1.95433 5.54148 0
M  V30 1525 H 138.195 1.1415 5.99835 0
M  V30 1526 H 139.609 3.08914 4.82954 0
M  V30 1527 H 138.006 3.84781 4.60504 0
M  V30 1528 H 139.076 3.63673 3.20734 0
M  V30 1529 N 140.419 -1.14872 1.07899 0
M  V30 1530 C 141.835 -1.37776 0.805606 0
M  V30 1531 C 142.035 -1.92743 -0.587555 0
M  V30 1532 O 141.091 -2.13678 -1.34528 0
M  V30 1533 C 142.404 -2.34361 1.88402 0
M  V30 1534 C 143.952 -2.48012 1.90942 0
M  V30 1535 C 144.427 -3.47893 2.97883 0
M  V30 1536 N 145.918 -3.55433 2.97021 0
M  V30 1537 C 146.653 -4.32553 3.76412 0
M  V30 1538 N 146.149 -5.12959 4.65666 0
M  V30 1539 N 147.942 -4.27697 3.64735 0
M  V30 1540 H 140.093 -0.775365 1.97742 0
M  V30 1541 H 142.356 -0.403521 0.857831 0
M  V30 1542 H 142.062 -2.01098 2.88535 0
M  V30 1543 H 141.936 -3.34206 1.74889 0
M  V30 1544 H 144.323 -2.8057 0.914579 0
M  V30 1545 H 144.404 -1.48147 2.08534 0
M  V30 1546 H 144.048 -3.16069 3.97571 0
M  V30 1547 H 143.978 -4.47527 2.77538 0
M  V30 1548 H 146.469 -2.98048 2.32326 0
M  V30 1549 H 146.782 -5.69065 5.22862 0
M  V30 1550 H 145.127 -5.12245 4.69712 0
M  V30 1551 H 148.318 -3.63949 2.94378 0
M  V30 1552 H 148.491 -4.8755 4.26848 0
M  V30 1553 N 141.898 -0.863906 -1.31812 0
M  V30 1554 C 142.861 -0.320212 -2.26952 0
M  V30 1555 C 143.861 0.525369 -1.51975 0
M  V30 1556 O 145.051 0.335547 -1.70938 0
M  V30 1557 C 142.183 0.545919 -3.365 0
M  V30 1558 H 143.376 -1.16004 -2.76556 0
M  V30 1559 H 140.929 -0.638995 -1.42641 0
M  V30 1560 H 141.664 1.40718 -2.92179 0
M  V30 1561 H 141.449 -0.0594674 -3.92055 0
M  V30 1562 H 142.939 0.918796 -4.07367 0
M  V30 1563 N 143.376 1.44774 -0.622745 0
M  V30 1564 C 144.286 2.34433 0.0886031 0
M  V30 1565 C 145.302 1.52131 0.844529 0
M  V30 1566 O 146.478 1.84886 0.798691 0
M  V30 1567 C 143.543 3.29986 1.0635 0
M  V30 1568 C 142.604 4.28195 0.307873 0
M  V30 1569 C 141.837 5.19183 1.23633 0
M  V30 1570 O 142.06 5.13918 2.47476 0
M  V30 1571 O 140.994 5.97515 0.725189 0
M  V30 1572 H 144.82 2.96693 -0.648599 0
M  V30 1573 H 142.405 1.44408 -0.382957 0
M  V30 1574 H 144.287 3.88825 1.6246 0
M  V30 1575 H 142.962 2.70269 1.78146 0
M  V30 1576 H 141.869 3.72927 -0.296064 0
M  V30 1577 H 143.202 4.90808 -0.3699 0
M  V30 1578 N 144.854 0.36279 1.53368 0
M  V30 1579 C 145.786 -0.519668 2.23231 0
M  V30 1580 C 146.799 -1.04844 1.24546 0
M  V30 1581 O 147.988 -0.955296 1.50786 0
M  V30 1582 C 145.088 -1.72995 2.9142 0
M  V30 1583 C 144.261 -1.33316 4.16588 0
M  V30 1584 C 143.32 -2.40521 4.68013 0
M  V30 1585 O 142.346 -2.03027 5.3176 0
M  V30 1586 N 143.548 -3.72065 4.45587 0
M  V30 1587 H 146.313 0.078751 2.99597 0
M  V30 1588 H 143.874 0.187833 1.60807 0
M  V30 1589 H 145.866 -2.44184 3.22733 0
M  V30 1590 H 144.436 -2.2353 2.18525 0
M  V30 1591 H 143.656 -0.451236 3.91609 0
M  V30 1592 H 144.944 -1.04432 4.97967 0
M  V30 1593 H 144.342 -4.05304 3.94646 0
M  V30 1594 H 142.899 -4.39366 4.81457 0
M  V30 1595 N 146.332 -1.57332 0.0918853 0
M  V30 1596 C 147.264 -2.10869 -0.898168 0
M  V30 1597 C 148.277 -1.04521 -1.24817 0
M  V30 1598 O 149.466 -1.31977 -1.20184 0
M  V30 1599 C 146.566 -2.57083 -2.2082 0
M  V30 1600 C 145.739 -3.87229 -2.03402 0
M  V30 1601 C 144.798 -4.19324 -3.17889 0
M  V30 1602 O 143.824 -4.88598 -2.91994 0
M  V30 1603 N 145.026 -3.74471 -4.43567 0
M  V30 1604 H 147.791 -2.96439 -0.440943 0
M  V30 1605 H 145.352 -1.61631 -0.0933064 0
M  V30 1606 H 147.344 -2.75602 -2.96354 0
M  V30 1607 H 145.914 -1.76541 -2.57977 0
M  V30 1608 H 145.134 -3.7789 -1.12218 0
M  V30 1609 H 146.422 -4.72379 -1.89038 0
M  V30 1610 H 145.82 -3.18546 -4.67488 0
M  V30 1611 H 144.377 -3.98151 -5.16061 0
M  V30 1612 N 147.81 0.181792 -1.56548 0
M  V30 1613 C 149.226 0.53316 -1.50431 0
M  V30 1614 C 149.426 1.85184 -0.794297 0
M  V30 1615 O 148.482 2.50058 -0.350318 0
M  V30 1616 C 149.795 0.575597 -2.9514 0
M  V30 1617 C 151.343 0.663519 -3.05886 0
M  V30 1618 C 151.818 0.736946 -4.52032 0
M  V30 1619 N 153.309 0.800118 -4.56237 0
M  V30 1620 C 154.044 0.877327 -5.66649 0
M  V30 1621 N 153.54 0.916016 -6.86718 0
M  V30 1622 N 155.333 0.915542 -5.54594 0
M  V30 1623 H 147.484 -0.683025 -2.01118 0
M  V30 1624 H 149.747 -0.244988 -0.915797 0
M  V30 1625 H 149.453 -0.324482 -3.502 0
M  V30 1626 H 149.327 1.42572 -3.49218 0
M  V30 1627 H 151.714 1.55403 -2.50867 0
M  V30 1628 H 151.795 -0.21307 -2.54911 0
M  V30 1629 H 151.439 -0.149262 -5.07681 0
M  V30 1630 H 151.369 1.62953 -5.00753 0
M  V30 1631 H 153.86 0.778926 -3.69785 0
M  V30 1632 H 154.173 0.975813 -7.66614 0
M  V30 1633 H 152.518 0.884469 -6.89349 0
M  V30 1634 H 155.709 0.882245 -4.59711 0
M  V30 1635 H 155.882 0.972253 -6.40665 0
M  V30 1636 N 149.288 1.51039 0.449983 0
M  V30 1637 C 150.218 1.74379 1.55288 0
M  V30 1638 C 151.199 0.593236 1.5942 0
M  V30 1639 O 152.384 0.834625 1.7535 0
M  V30 1640 C 149.514 1.85728 2.93466 0
M  V30 1641 C 148.468 3.01078 3.04197 0
M  V30 1642 C 147.794 2.97595 4.44231 0
M  V30 1643 C 149.094 4.41254 2.7945 0
M  V30 1644 H 150.788 2.66725 1.36008 0
M  V30 1645 H 148.334 1.2835 0.652864 0
M  V30 1646 H 150.287 2.0064 3.70569 0
M  V30 1647 H 149.011 0.900207 3.13949 0
M  V30 1648 H 147.67 2.85851 2.29531 0
M  V30 1649 H 147.318 1.99691 4.61663 0
M  V30 1650 H 147.018 3.75046 4.52343 0
M  V30 1651 H 148.542 3.14583 5.23326 0
M  V30 1652 H 149.956 4.56897 3.46292 0
M  V30 1653 H 148.353 5.20315 2.98985 0
M  V30 1654 H 149.423 4.52164 1.75144 0
M  V30 1655 N 150.766 -0.704594 1.40972 0
M  V30 1656 C 151.713 -1.81862 1.42109 0
M  V30 1657 C 152.683 -1.63781 0.276593 0
M  V30 1658 O 153.868 -1.84759 0.4763 0
M  V30 1659 C 151.008 -3.19669 1.30022 0
M  V30 1660 C 150.121 -3.49246 2.54267 0
M  V30 1661 C 149.256 -4.76618 2.3454 0
M  V30 1662 C 148.295 -4.99133 3.54306 0
M  V30 1663 N 147.432 -6.17726 3.33706 0
M  V30 1664 H 152.272 -1.80226 2.37324 0
M  V30 1665 H 149.809 -0.880238 1.17857 0
M  V30 1666 H 151.767 -3.99263 1.21018 0
M  V30 1667 H 150.397 -3.20506 0.384192 0
M  V30 1668 H 149.449 -2.64125 2.73756 0
M  V30 1669 H 150.761 -3.61788 3.43381 0
M  V30 1670 H 149.915 -5.64249 2.22952 0
M  V30 1671 H 148.654 -4.66305 1.42867 0
M  V30 1672 H 147.659 -4.09953 3.66359 0
M  V30 1673 H 148.884 -5.11311 4.4692 0
M  V30 1674 H 146.83 -6.08642 2.44725 0
M  V30 1675 H 146.747 -6.30995 4.16391 0
M  V30 1676 H 148.015 -7.08115 3.25873 0
M  V30 1677 N 152.244 -1.26651 -0.937939 0
M  V30 1678 C 153.469 -1.15279 -1.72411 0
M  V30 1679 C 153.894 0.287866 -1.85884 0
M  V30 1680 O 153.252 1.20855 -1.35143 0
M  V30 1681 C 153.3 -1.83028 -3.10698 0
M  V30 1682 O 152.404 -1.12128 -3.96864 0
M  V30 1683 H 151.745 -0.401504 -0.528858 0
M  V30 1684 H 154.275 -1.67531 -1.1745 0
M  V30 1685 H 154.285 -1.89981 -3.6107 0
M  V30 1686 H 152.96 -2.87833 -3.00208 0
M  V30 1687 H 151.537 -1.13173 -3.55312 0
M  V30 1688 N 153.722 1.14298 -1.08507 0
M  V30 1689 C 154.654 2.1907 -0.673859 0
M  V30 1690 C 155.667 1.60381 0.279577 0
M  V30 1691 O 156.856 1.78374 0.0670754 0
M  V30 1692 C 153.956 3.38888 0.0290979 0
M  V30 1693 C 153.129 4.27103 -0.943494 0
M  V30 1694 C 152.188 5.25477 -0.275676 0
M  V30 1695 O 151.214 5.61709 -0.920401 0
M  V30 1696 N 152.416 5.7227 0.974013 0
M  V30 1697 H 155.181 2.54965 -1.57521 0
M  V30 1698 H 152.742 1.29528 -0.971287 0
M  V30 1699 H 154.734 4.01761 0.48683 0
M  V30 1700 H 153.304 3.01309 0.832555 0
M  V30 1701 H 152.524 3.61149 -1.58004 0
M  V30 1702 H 153.812 4.82905 -1.60251 0
M  V30 1703 H 153.21 5.44965 1.51755 0
M  V30 1704 H 151.767 6.37127 1.37522 0
M  V30 1705 N 155.201 0.870884 1.31352 0
M  V30 1706 C 156.478 0.402907 1.91405 0
M  V30 1707 C 156.858 -1.11512 1.79244 0
M  V30 1708 O 156.206 -1.94411 1.2007 0
M  V30 1709 C 156.416 0.885301 3.37585 0
M  V30 1710 C 157.764 0.911971 4.14691 0
M  V30 1711 O 158.788 0.831016 3.46371 0
M  V30 1712 O 157.647 1.02927 5.3672 0
M  V30 1713 H 154.741 0.120698 0.818145 0
M  V30 1714 H 157.287 0.958857 1.40014 0
M  V30 1715 H 156.059 1.92889 3.40455 0
M  V30 1716 H 155.682 0.307714 3.96407 0
M  V30 1717 N 156.679 -1.44442 0.630414 0
M  V30 1718 C 157.609 -2.33418 -0.0618083 0
M  V30 1719 C 158.59 -1.48165 -0.835541 0
M  V30 1720 O 159.775 -1.76886 -0.801564 0
M  V30 1721 C 156.905 -3.31222 -1.04449 0
M  V30 1722 C 155.859 -4.26288 -0.382436 0
M  V30 1723 C 155.185 -5.13954 -1.47497 0
M  V30 1724 C 156.485 -5.1744 0.710865 0
M  V30 1725 H 158.179 -2.91548 0.681184 0
M  V30 1726 H 155.725 -1.40191 0.329026 0
M  V30 1727 H 157.678 -3.92351 -1.53748 0
M  V30 1728 H 156.402 -2.71299 -1.81836 0
M  V30 1729 H 155.061 -3.6649 0.0899054 0
M  V30 1730 H 154.709 -4.50385 -2.2397 0
M  V30 1731 H 154.409 -5.7837 -1.03737 0
M  V30 1732 H 155.933 -5.77955 -1.96979 0
M  V30 1733 H 157.347 -5.72509 0.300996 0
M  V30 1734 H 155.744 -5.90455 1.07156 0
M  V30 1735 H 156.814 -4.58496 1.57829 0
M  V30 1736 N 158.157 -0.370918 -1.53173 0
M  V30 1737 C 159.067 0.480823 -2.2962 0
M  V30 1738 C 160.083 1.08789 -1.35798 0
M  V30 1739 O 161.259 1.09768 -1.68858 0
M  V30 1740 C 158.324 1.60227 -3.07454 0
M  V30 1741 C 157.385 1.0222 -4.16953 0
M  V30 1742 C 156.618 2.0902 -4.91066 0
M  V30 1743 O 156.841 3.30222 -4.65091 0
M  V30 1744 O 155.775 1.71778 -5.76867 0
M  V30 1745 H 159.601 -0.141421 -3.03371 0
M  V30 1746 H 157.186 -0.135146 -1.48787 0
M  V30 1747 H 159.068 2.25417 -3.56041 0
M  V30 1748 H 157.743 2.20982 -2.36535 0
M  V30 1749 H 156.65 0.334064 -3.72605 0
M  V30 1750 H 157.983 0.459131 -4.90054 0
M  V30 1751 N 159.635 1.57281 -0.100228 0
M  V30 1752 C 160.565 2.17328 0.853857 0
M  V30 1753 C 161.546 1.10804 1.2906 0
M  V30 1754 O 162.731 1.38963 1.35657 0
M  V30 1755 C 159.861 2.75772 2.11109 0
M  V30 1756 C 158.815 3.87713 1.81279 0
M  V30 1757 C 158.141 4.32882 3.13874 0
M  V30 1758 C 159.441 5.10677 1.09574 0
M  V30 1759 H 161.135 2.97305 0.353545 0
M  V30 1760 H 158.681 1.43009 0.168612 0
M  V30 1761 H 160.634 3.16433 2.78296 0
M  V30 1762 H 159.358 1.93057 2.63432 0
M  V30 1763 H 158.017 3.476 1.16489 0
M  V30 1764 H 157.665 3.47051 3.64095 0
M  V30 1765 H 157.365 5.08358 2.94696 0
M  V30 1766 H 158.889 4.7618 3.82211 0
M  V30 1767 H 160.303 5.48474 1.66879 0
M  V30 1768 H 158.7 5.91615 1.00557 0
M  V30 1769 H 159.77 4.84835 0.0793299 0
M  V30 1770 N 161.113 -0.173488 1.56642 0
M  V30 1771 C 162.338 -0.910149 1.86363 0
M  V30 1772 C 162.763 -1.75132 0.686318 0
M  V30 1773 O 162.121 -1.77595 -0.364643 0
M  V30 1774 C 162.169 -1.76447 3.14482 0
M  V30 1775 O 161.273 -2.86584 2.96553 0
M  V30 1776 H 160.614 -0.255086 0.613047 0
M  V30 1777 H 163.144 -0.172283 2.03873 0
M  V30 1778 H 163.154 -2.16483 3.45831 0
M  V30 1779 H 161.829 -1.14658 3.99783 0
M  V30 1780 H 160.406 -2.50146 2.76553 0
M  V30 1781 N 162.591 -1.51276 -0.441967 0
M  V30 1782 C 163.837 -1.6492 -1.1905 0
M  V30 1783 C 164.192 -0.358731 -1.89026 0
M  V30 1784 O 163.485 0.645193 -1.8041 0
M  V30 1785 C 163.679 -2.78746 -2.23686 0
M  V30 1786 C 163.508 -4.18737 -1.63979 0
M  V30 1787 C 162.278 -4.84739 -1.42674 0
M  V30 1788 C 164.476 -5.01988 -1.11858 0
M  V30 1789 N 162.458 -6.08858 -0.785159 0
M  V30 1790 C 163.829 -6.17071 -0.601989 0
M  V30 1791 C 165.884 -4.87551 -1.0099 0
M  V30 1792 C 164.587 -7.19299 0.0126012 0
M  V30 1793 C 166.613 -5.89983 -0.409206 0
M  V30 1794 C 165.975 -7.04333 0.0968651 0
M  V30 1795 H 162.074 -0.657416 -0.423471 0
M  V30 1796 H 164.658 -1.8849 -0.48782 0
M  V30 1797 H 162.829 -2.56848 -2.91348 0
M  V30 1798 H 164.561 -2.81595 -2.90666 0
M  V30 1799 H 161.316 -4.42528 -1.68719 0
M  V30 1800 H 161.74 -6.75282 -0.481942 0
M  V30 1801 H 166.382 -3.99401 -1.38703 0
M  V30 1802 H 164.1 -8.071 0.401879 0
M  V30 1803 H 167.686 -5.8088 -0.327079 0
M  V30 1804 H 166.566 -7.82238 0.554373 0
M  V30 1805 N 164.069 0.697108 -1.41344 0
M  V30 1806 C 165.017 1.83237 -1.43272 0
M  V30 1807 C 166.011 1.66522 -0.310947 0
M  V30 1808 O 167.217 1.73402 -0.482899 0
M  V30 1809 H 163.592 0.603802 -0.448249 0
M  V30 1810 H 165.563 1.78727 -2.38954 0
M  V30 1811 C 164.312 3.21245 -1.33029 0
M  V30 1812 H 163.635 3.34723 -2.18633 0
M  V30 1813 H 165.075 4.00763 -1.38439 0
M  V30 1814 C 163.534 3.36873 -0.0424635 0
M  V30 1815 O 164.064 3.91177 0.913421 0
M  V30 1816 N 162.27 2.90581 0.0331145 0
M  V30 1817 H 161.817 2.46577 -0.745506 0
M  V30 1818 H 161.775 3.01416 0.894199 0
M  V30 1819 N 165.547 1.27147 0.931209 0
M  V30 1820 C 166.477 1.12081 2.04842 0
M  V30 1821 C 167.458 0.0232364 1.70084 0
M  V30 1822 O 168.643 0.197085 1.93197 0
M  V30 1823 C 165.773 0.76354 3.38803 0
M  V30 1824 C 164.727 1.81396 3.87659 0
M  V30 1825 C 164.053 1.31075 5.18385 0
M  V30 1826 C 165.353 3.21739 4.11438 0
M  V30 1827 H 167.047 2.05537 2.17703 0
M  V30 1828 H 164.593 0.989603 1.04608 0
M  V30 1829 H 166.546 0.644982 4.16435 0
M  V30 1830 H 165.27 -0.206727 3.25945 0
M  V30 1831 H 163.929 1.92136 3.12217 0
M  V30 1832 H 163.577 0.330037 5.01916 0
M  V30 1833 H 163.277 2.013 5.52044 0
M  V30 1834 H 164.801 1.20506 5.98591 0
M  V30 1835 H 166.215 3.14019 4.79651 0
M  V30 1836 H 164.612 3.89644 4.56397 0
M  V30 1837 H 165.682 3.67054 3.16859 0
M  V30 1838 N 167.025 -1.13721 1.09112 0
M  V30 1839 C 167.973 -2.21103 0.722219 0
M  V30 1840 C 168.967 -1.67147 -0.275374 0
M  V30 1841 O 170.173 -1.79477 -0.137176 0
M  V30 1842 H 166.548 -0.720445 0.215553 0
M  V30 1843 H 168.519 -2.49483 1.63709 0
M  V30 1844 C 167.268 -3.47352 0.15543 0
M  V30 1845 H 166.591 -3.89206 0.914246 0
M  V30 1846 H 168.031 -4.2395 -0.0647967 0
M  V30 1847 C 166.49 -3.1814 -1.10852 0
M  V30 1848 O 167.02 -3.36604 -2.19227 0
M  V30 1849 N 165.226 -2.72045 -1.02176 0
M  V30 1850 H 164.773 -2.57221 -0.139764 0
M  V30 1851 H 164.731 -2.52875 -1.8682 0
M  V30 1852 N 168.503 -0.877838 -1.30888 0
M  V30 1853 C 169.751 -0.491723 -1.96027 0
M  V30 1854 C 170.072 0.960827 -1.69685 0
M  V30 1855 O 169.342 1.67462 -1.01654 0
M  V30 1856 H 167.922 -0.17885 -0.725273 0
M  V30 1857 H 170.584 -1.11935 -1.59551 0
M  V30 1858 H 169.68 -0.656016 -3.05128 0
M  V30 1859 N 169.982 1.44106 -0.638065 0
M  V30 1860 C 170.912 2.33448 0.0494287 0
M  V30 1861 C 171.893 1.48606 0.827672 0
M  V30 1862 O 173.078 1.77308 0.792173 0
M  V30 1863 C 170.208 3.31771 1.02691 0
M  V30 1864 C 169.162 4.26485 0.359823 0
M  V30 1865 C 168.488 5.14729 1.44769 0
M  V30 1866 C 169.788 5.17056 -0.738296 0
M  V30 1867 H 171.482 2.91183 -0.696636 0
M  V30 1868 H 169.028 1.40014 -0.336456 0
M  V30 1869 H 170.981 3.93161 1.51666 0
M  V30 1870 H 169.705 2.7226 1.80395 0
M  V30 1871 H 168.364 3.66437 -0.10934 0
M  V30 1872 H 168.012 4.51566 2.21578 0
M  V30 1873 H 167.712 5.78913 1.00668 0
M  V30 1874 H 169.236 5.78991 1.93911 0
M  V30 1875 H 170.65 5.72342 -0.331354 0
M  V30 1876 H 169.047 5.89879 -1.10286 0
M  V30 1877 H 170.117 4.57652 -1.60258 0
M  V30 1878 N 171.46 0.379036 1.52974 0
M  V30 1879 C 172.392 -0.495963 2.2377 0
M  V30 1880 C 173.405 -1.03517 1.25651 0
M  V30 1881 O 174.594 -0.939249 1.51791 0
M  V30 1882 C 171.694 -1.69894 2.93239 0
M  V30 1883 C 170.867 -1.2889 4.17979 0
M  V30 1884 C 169.926 -2.35543 4.70538 0
M  V30 1885 O 168.952 -1.97375 5.33883 0
M  V30 1886 N 170.154 -3.67318 4.49508 0
M  V30 1887 H 172.919 0.110523 2.99496 0
M  V30 1888 H 170.48 0.204878 1.60598 0
M  V30 1889 H 172.472 -2.40747 3.25304 0
M  V30 1890 H 171.042 -2.212 2.20883 0
M  V30 1891 H 170.262 -0.409676 3.92065 0
M  V30 1892 H 171.55 -0.991443 4.99047 0
M  V30 1893 H 170.948 -4.01095 3.98923 0
M  V30 1894 H 169.505 -4.34235 4.8609 0
M  V30 1895 N 172.938 -1.57226 0.108567 0
M  V30 1896 C 173.901 -2.13602 -0.831082 0
M  V30 1897 C 174.901 -1.06841 -1.20173 0
M  V30 1898 O 176.091 -1.32666 -1.12895 0
M  V30 1899 C 173.223 -2.66769 -2.12243 0
M  V30 1900 H 174.416 -2.97951 -0.341317 0
M  V30 1901 H 171.969 -1.55667 -0.14057 0
M  V30 1902 H 172.704 -1.85977 -2.65675 0
M  V30 1903 H 172.489 -3.44839 -1.86625 0
M  V30 1904 H 173.979 -3.10332 -2.79435 0
M  V30 1905 N 174.416 0.165178 -1.56732 0
M  V30 1906 C 175.693 0.908443 -1.73224 0
M  V30 1907 C 176.073 2.0013 -0.67165 0
M  V30 1908 O 175.421 2.26353 0.31253 0
M  V30 1909 C 175.631 1.46756 -3.16644 0
M  V30 1910 C 176.979 1.93809 -3.77787 0
M  V30 1911 O 178.003 1.56537 -3.1996 0
M  V30 1912 O 176.862 2.62486 -4.79336 0
M  V30 1913 H 173.956 0.428025 -0.707618 0
M  V30 1914 H 176.502 0.152526 -1.69013 0
M  V30 1915 H 175.274 0.68129 -3.85323 0
M  V30 1916 H 174.897 2.28749 -3.25207 0
M  V30 1917 N 175.894 1.51508 0.433938 0
M  V30 1918 C 176.824 1.76016 1.53429 0
M  V30 1919 C 177.805 0.610112 1.58782 0
M  V30 1920 O 178.99 0.853177 1.74455 0
M  V30 1921 C 176.12 1.88831 2.9148 0
M  V30 1922 C 175.074 3.04288 3.00987 0
M  V30 1923 C 174.4 3.0229 4.4105 0
M  V30 1924 C 175.7 4.44193 2.74754 0
M  V30 1925 H 177.394 2.68152 1.33171 0
M  V30 1926 H 174.94 1.29035 0.639214 0
M  V30 1927 H 176.893 2.04559 3.6842 0
M  V30 1928 H 175.617 0.933455 3.12976 0
M  V30 1929 H 174.276 2.8827 2.26486 0
M  V30 1930 H 173.924 2.04576 4.59519 0
M  V30 1931 H 173.624 3.79822 4.4834 0
M  V30 1932 H 175.148 3.20116 5.1996 0
M  V30 1933 H 176.562 4.60544 3.41426 0
M  V30 1934 H 174.959 5.23457 2.9345 0
M  V30 1935 H 176.029 4.53996 1.70339 0
M  V30 1936 N 177.372 -0.689602 1.41712 0
M  V30 1937 C 178.597 -1.48329 1.44959 0
M  V30 1938 C 179.022 -1.8801 0.0581283 0
M  V30 1939 O 178.38 -1.55026 -0.940035 0
M  V30 1940 C 178.428 -2.71835 2.36935 0
M  V30 1941 O 177.532 -3.69549 1.8305 0
M  V30 1942 H 176.873 -0.446199 0.491734 0
M  V30 1943 H 179.403 -0.847127 1.86239 0
M  V30 1944 H 179.413 -3.20076 2.53013 0
M  V30 1945 H 178.088 -2.42291 3.38035 0
M  V30 1946 H 176.665 -3.2851 1.76452 0
M  V30 1947 N 178.85 -1.27639 -0.924453 0
M  V30 1948 C 180.075 -1.17101 -1.71179 0
M  V30 1949 C 180.5 0.268134 -1.86179 0
M  V30 1950 O 179.858 1.19415 -1.36418 0
M  V30 1951 C 179.906 -1.86313 -3.08739 0
M  V30 1952 O 179.01 -1.16331 -3.95652 0
M  V30 1953 H 178.351 -0.407091 -0.524569 0
M  V30 1954 H 180.881 -1.68767 -1.15666 0
M  V30 1955 H 180.891 -1.938 -3.59034 0
M  V30 1956 H 179.566 -2.91001 -2.97138 0
M  V30 1957 H 178.143 -1.16935 -3.54091 0
M  V30 1958 N 180.328 1.1314 -1.09713 0
M  V30 1959 C 181.575 1.84484 -0.834987 0
M  V30 1960 C 181.903 1.83689 0.639418 0
M  V30 1961 O 181.158 1.2724 1.4869 0
M  V30 1962 C 181.457 3.32167 -1.3191 0
M  V30 1963 C 181.123 3.53139 -2.80363 0
M  V30 1964 C 179.785 3.58571 -3.20905 0
M  V30 1965 C 182.137 3.60866 -3.76065 0
M  V30 1966 C 179.465 3.69267 -4.55916 0
M  V30 1967 C 181.817 3.73089 -5.10869 0
M  V30 1968 C 180.481 3.76775 -5.50996 0
M  V30 1969 H 179.751 0.675073 -0.305544 0
M  V30 1970 H 182.398 1.33554 -1.37243 0
M  V30 1971 H 180.703 3.85469 -0.701517 0
M  V30 1972 H 182.4 3.85821 -1.09284 0
M  V30 1973 H 178.99 3.49569 -2.47991 0
M  V30 1974 H 183.174 3.55946 -3.45855 0
M  V30 1975 H 178.43 3.70388 -4.86438 0
M  V30 1976 H 182.604 3.78011 -5.84877 0
M  V30 1977 H 180.231 3.84815 -6.55608 0
M  V30 1978 N 181.806 0.884767 1.30421 0
M  V30 1979 C 182.753 0.349642 2.28136 0
M  V30 1980 C 183.723 -0.560061 1.56373 0
M  V30 1981 O 184.908 -0.488524 1.8444 0
M  V30 1982 C 182.048 -0.42999 3.42411 0
M  V30 1983 C 181.161 0.508907 4.28992 0
M  V30 1984 C 180.296 -0.286301 5.30428 0
M  V30 1985 C 179.335 0.648079 6.08659 0
M  V30 1986 N 178.472 -0.111792 7.02011 0
M  V30 1987 H 183.312 1.18807 2.73293 0
M  V30 1988 H 180.849 0.597231 1.3443 0
M  V30 1989 H 182.807 -0.897923 4.07423 0
M  V30 1990 H 181.437 -1.23299 2.98324 0
M  V30 1991 H 180.489 1.09533 3.64289 0
M  V30 1992 H 181.801 1.22475 4.8353 0
M  V30 1993 H 180.955 -0.816098 6.01186 0
M  V30 1994 H 179.694 -1.03536 4.76583 0
M  V30 1995 H 178.699 1.18951 5.36778 0
M  V30 1996 H 179.924 1.39623 6.64592 0
M  V30 1997 H 177.87 -0.843395 6.50556 0
M  V30 1998 H 177.787 0.544429 7.54037 0
M  V30 1999 H 179.055 -0.622339 7.77012 0
M  V30 2000 N 183.284 -1.43765 0.645699 0
M  V30 2001 C 184.509 -2.06767 0.161883 0
M  V30 2002 C 184.934 -1.48034 -1.16049 0
M  V30 2003 O 184.292 -0.587369 -1.71522 0
M  V30 2004 C 184.34 -3.60519 0.0762003 0
M  V30 2005 O 183.444 -4.00982 -0.963721 0
M  V30 2006 H 182.785 -0.657675 0.091429 0
M  V30 2007 H 185.315 -1.84397 0.886499 0
M  V30 2008 H 185.325 -4.07853 -0.109604 0
M  V30 2009 H 184 -4.02646 1.04157 0
M  V30 2010 H 182.577 -3.65253 -0.751312 0
M  V30 2011 N 184.763 -0.387143 -1.52771 0
M  V30 2012 C 185.695 0.484089 -2.2403 0
M  V30 2013 C 186.708 1.02849 -1.26198 0
M  V30 2014 O 187.897 0.931186 -1.52286 0
M  V30 2015 C 184.997 1.68337 -2.94136 0
M  V30 2016 C 184.17 1.26672 -4.18656 0
M  V30 2017 C 183.229 2.33045 -4.7178 0
M  V30 2018 O 182.255 1.94541 -5.34923 0
M  V30 2019 N 183.457 3.64929 -4.5145 0
M  V30 2020 H 186.222 -0.126404 -2.99433 0
M  V30 2021 H 183.783 -0.213392 -1.60488 0
M  V30 2022 H 185.775 2.39019 -3.26577 0
M  V30 2023 H 184.345 2.20025 -2.22053 0
M  V30 2024 H 183.565 0.388878 -3.92277 0
M  V30 2025 H 184.853 0.964964 -4.99566 0
M  V30 2026 H 184.251 3.98974 -4.01044 0
M  V30 2027 H 182.808 4.31651 -4.88386 0
M  V30 2028 N 186.241 1.57166 -0.116904 0
M  V30 2029 C 187.151 2.18745 0.847812 0
M  V30 2030 C 188.167 1.163 1.29423 0
M  V30 2031 O 189.343 1.48761 1.35765 0
M  V30 2032 C 186.408 2.77307 2.0809 0
M  V30 2033 C 185.469 3.94781 1.68661 0
M  V30 2034 C 184.702 4.50541 2.86091 0
M  V30 2035 O 184.925 4.05202 4.01456 0
M  V30 2036 O 183.859 5.41256 2.63298 0
M  V30 2037 H 187.685 3.01632 0.353778 0
M  V30 2038 H 185.27 1.49005 0.108599 0
M  V30 2039 H 187.152 3.14647 2.80313 0
M  V30 2040 H 185.827 1.97452 2.56504 0
M  V30 2041 H 184.734 3.62214 0.935518 0
M  V30 2042 H 186.067 4.76065 1.24991 0
M  V30 2043 N 187.719 -0.156864 1.56817 0
M  V30 2044 C 188.649 -1.19589 2.00551 0
M  V30 2045 C 189.63 -1.4536 0.883426 0
M  V30 2046 O 190.815 -1.56449 1.15054 0
M  V30 2047 C 187.945 -2.53143 2.37773 0
M  V30 2048 C 186.899 -2.41913 3.53075 0
M  V30 2049 C 186.225 -3.80088 3.76081 0
M  V30 2050 C 187.525 -1.91157 4.86062 0
M  V30 2051 H 189.219 -0.832293 2.87599 0
M  V30 2052 H 186.765 -0.398918 1.38364 0
M  V30 2053 H 188.718 -3.26047 2.66967 0
M  V30 2054 H 187.442 -2.91319 1.4765 0
M  V30 2055 H 186.101 -1.71462 3.24031 0
M  V30 2056 H 185.749 -4.15683 2.83225 0
M  V30 2057 H 185.449 -3.73439 4.53671 0
M  V30 2058 H 186.973 -4.54556 4.0769 0
M  V30 2059 H 188.387 -2.53846 5.14038 0
M  V30 2060 H 186.784 -1.95422 5.67389 0
M  V30 2061 H 187.854 -0.866673 4.77092 0
M  V30 2062 N 189.197 -1.51736 -0.425897 0
M  V30 2063 C 190.145 -1.74464 -1.53834 0
M  V30 2064 C 191.139 -0.611241 -1.57988 0
M  V30 2065 O 192.345 -0.792899 -1.61596 0
M  V30 2066 H 188.72 -0.551437 -0.511293 0
M  V30 2067 H 190.691 -2.67694 -1.31843 0
M  V30 2068 C 189.44 -1.8972 -2.91379 0
M  V30 2069 H 188.763 -2.76344 -2.88919 0
M  V30 2070 H 190.203 -2.09629 -3.68553 0
M  V30 2071 C 188.662 -0.65992 -3.30374 0
M  V30 2072 O 189.192 0.180083 -4.01296 0
M  V30 2073 N 187.398 -0.500677 -2.86254 0
M  V30 2074 H 186.945 -1.18532 -2.28709 0
M  V30 2075 H 186.903 0.325903 -3.12706 0
M  V30 2076 N 190.675 0.682077 -1.42076 0
M  V30 2077 C 191.585 1.82535 -1.47371 0
M  V30 2078 C 192.601 1.7017 -0.363079 0
M  V30 2079 O 193.777 1.91848 -0.612875 0
M  V30 2080 C 190.842 3.18624 -1.36674 0
M  V30 2081 C 189.903 3.42999 -2.58167 0
M  V30 2082 C 189.136 4.72595 -2.4797 0
M  V30 2083 O 189.359 5.50006 -1.5116 0
M  V30 2084 O 188.293 4.98054 -3.37974 0
M  V30 2085 H 192.119 1.81023 -2.43853 0
M  V30 2086 H 189.704 0.836887 -1.2376 0
M  V30 2087 H 191.586 3.99847 -1.33043 0
M  V30 2088 H 190.261 3.20789 -0.433138 0
M  V30 2089 H 189.168 2.61653 -2.67373 0
M  V30 2090 H 190.501 3.45659 -3.50401 0
M  V30 2091 N 192.153 1.28127 0.917671 0
M  V30 2092 C 193.569 1.05749 1.19538 0
M  V30 2093 C 193.769 -0.202633 2.00479 0
M  V30 2094 O 192.825 -0.905382 2.3571 0
M  V30 2095 C 194.138 2.30273 1.93378 0
M  V30 2096 C 195.686 2.35412 2.06277 0
M  V30 2097 C 196.161 3.59692 2.83524 0
M  V30 2098 N 197.652 3.60309 2.91087 0
M  V30 2099 C 198.387 4.53147 3.51348 0
M  V30 2100 N 197.883 5.563 4.12919 0
M  V30 2101 N 199.676 4.40751 3.48849 0
M  V30 2102 H 191.827 2.09024 0.377184 0
M  V30 2103 H 194.09 0.919798 0.22951 0
M  V30 2104 H 193.796 3.22055 1.41328 0
M  V30 2105 H 193.67 2.36378 2.93947 0
M  V30 2106 H 196.057 1.4413 2.57508 0
M  V30 2107 H 196.138 2.33304 1.04895 0
M  V30 2108 H 195.782 4.51316 2.32973 0
M  V30 2109 H 195.712 3.59054 3.85211 0
M  V30 2110 H 198.203 2.85714 2.47338 0
M  V30 2111 H 198.516 6.2329 4.56869 0
M  V30 2112 H 196.861 5.60131 4.11435 0
M  V30 2113 H 200.052 3.59367 2.99955 0
M  V30 2114 H 200.225 5.13291 3.9552 0
M  V30 2115 N 193.631 -1.12557 1.10312 0
M  V30 2116 C 194.579 -2.20325 0.745629 0
M  V30 2117 C 195.573 -1.67429 -0.25763 0
M  V30 2118 O 196.779 -1.79612 -0.118132 0
M  V30 2119 H 193.154 -0.718118 0.223182 0
M  V30 2120 H 195.125 -2.47733 1.66346 0
M  V30 2121 C 193.874 -3.47168 0.192262 0
M  V30 2122 H 193.197 -3.88215 0.955475 0
M  V30 2123 H 194.637 -4.23995 -0.0198274 0
M  V30 2124 C 193.096 -3.19298 -1.07472 0
M  V30 2125 O 193.626 -3.3891 -2.15645 0
M  V30 2126 N 191.832 -2.73113 -0.992847 0
M  V30 2127 H 191.379 -2.57354 -0.112474 0
M  V30 2128 H 191.337 -2.54842 -1.84127 0
M  V30 2129 N 195.109 -0.891671 -1.2995 0
M  V30 2130 C 196.019 -0.367691 -2.31701 0
M  V30 2131 C 197.035 0.533486 -1.6562 0
M  V30 2132 O 198.211 0.424997 -1.96865 0
M  V30 2133 C 195.276 0.403406 -3.44345 0
M  V30 2134 C 194.337 -0.528328 -4.26037 0
M  V30 2135 C 193.57 0.206063 -5.33302 0
M  V30 2136 O 193.793 1.43119 -5.52153 0
M  V30 2137 O 192.727 -0.447281 -6.00236 0
M  V30 2138 H 196.553 -1.21163 -2.78484 0
M  V30 2139 H 194.138 -0.655725 -1.34241 0
M  V30 2140 H 196.02 0.839753 -4.12948 0
M  V30 2141 H 194.695 1.22354 -2.99685 0
M  V30 2142 H 193.602 -1.01362 -3.60106 0
M  V30 2143 H 194.935 -1.31465 -4.74318 0
M  V30 2144 N 196.587 1.43421 -0.653314 0
M  V30 2145 C 197.55 2.29182 0.0287951 0
M  V30 2146 C 198.55 1.42213 0.750465 0
M  V30 2147 O 199.74 1.63843 0.591701 0
M  V30 2148 C 196.872 3.24278 1.05151 0
M  V30 2149 H 198.065 2.90985 -0.725786 0
M  V30 2150 H 195.618 1.50702 -0.414545 0
M  V30 2151 H 196.353 2.6737 1.83532 0
M  V30 2152 H 196.138 3.88396 0.537687 0
M  V30 2153 H 197.628 3.88647 1.52786 0
M  V30 2154 N 198.065 0.39524 1.52563 0
M  V30 2155 C 199.29 -0.187456 2.06551 0
M  V30 2156 C 199.715 -1.39249 1.26457 0
M  V30 2157 O 199.073 -1.78947 0.291151 0
M  V30 2158 C 199.121 -0.529985 3.56684 0
M  V30 2159 O 198.225 -1.62307 3.79118 0
M  V30 2160 H 197.566 -0.0202537 0.663691 0
M  V30 2161 H 200.096 0.564426 1.96661 0
M  V30 2162 H 200.106 -0.792598 4.00227 0
M  V30 2163 H 198.781 0.350987 4.14416 0
M  V30 2164 H 197.358 -1.3537 3.47461 0
M  V30 2165 N 199.544 -1.57102 0.125237 0
M  V30 2166 C 200.821 -1.86953 -0.575142 0
M  V30 2167 C 201.201 -1.02749 -1.84407 0
M  V30 2168 O 200.549 -0.108144 -2.28244 0
M  V30 2169 C 200.759 -3.38198 -0.861583 0
M  V30 2170 C 202.107 -4.06937 -1.21192 0
M  V30 2171 O 203.131 -3.43252 -0.951645 0
M  V30 2172 O 201.99 -5.19364 -1.70068 0
M  V30 2173 H 199.084 -0.774147 -0.290906 0
M  V30 2174 H 201.63 -1.68942 0.160211 0
M  V30 2175 H 200.402 -3.91282 0.0373647 0
M  V30 2176 H 200.025 -3.61661 -1.65188 0
M  V30 2177 N 201.022 0.148545 -1.56898 0
M  V30 2178 C 201.952 1.18524 -2.01182 0
M  V30 2179 C 202.933 1.4489 -0.891123 0
M  V30 2180 O 204.118 1.55836 -1.15882 0
M  V30 2181 C 201.248 2.51879 -2.39112 0
M  V30 2182 C 200.202 2.40038 -3.54353 0
M  V30 2183 C 199.528 3.78089 -3.78091 0
M  V30 2184 C 200.828 1.88577 -4.87069 0
M  V30 2185 H 202.522 0.817029 -2.88036 0
M  V30 2186 H 200.068 0.391575 -1.38574 0
M  V30 2187 H 202.021 3.24627 -2.68692 0
M  V30 2188 H 200.745 2.90532 -1.49193 0
M  V30 2189 H 199.404 1.69742 -3.24936 0
M  V30 2190 H 199.052 4.14175 -2.85426 0
M  V30 2191 H 198.752 3.71028 -4.55645 0
M  V30 2192 H 200.276 4.52387 -4.10095 0
M  V30 2193 H 201.69 2.51117 -5.15377 0
M  V30 2194 H 200.087 1.9241 -5.68417 0
M  V30 2195 H 201.157 0.84136 -4.77545 0
M  V30 2196 N 202.5 1.5196 0.417844 0
M  V30 2197 C 203.43 1.77634 1.51554 0
M  V30 2198 C 204.411 0.626918 1.58126 0
M  V30 2199 O 205.596 0.871632 1.7354 0
M  V30 2200 C 202.726 1.91911 2.8946 0
M  V30 2201 C 201.68 3.07463 2.97743 0
M  V30 2202 C 201.006 3.06951 4.37819 0
M  V30 2203 C 202.306 4.47082 2.70027 0
M  V30 2204 H 204 2.6955 1.3032 0
M  V30 2205 H 201.546 1.29706 0.625492 0
M  V30 2206 H 203.499 2.08455 3.6623 0
M  V30 2207 H 202.223 0.966598 3.11969 0
M  V30 2208 H 200.882 2.90656 2.23416 0
M  V30 2209 H 200.53 2.09438 4.57323 0
M  V30 2210 H 200.23 3.84556 4.44286 0
M  V30 2211 H 201.754 3.25613 5.16535 0
M  V30 2212 H 203.168 4.6414 3.36522 0
M  V30 2213 H 201.565 5.2654 2.87881 0
M  V30 2214 H 202.635 4.55777 1.65514 0
M  V30 2215 N 203.978 -0.674533 1.42435 0
M  V30 2216 C 204.888 -1.81751 1.48337 0
M  V30 2217 C 205.904 -1.69975 0.372099 0
M  V30 2218 O 207.08 -1.91521 0.62304 0
M  V30 2219 C 204.145 -3.17895 1.38361 0
M  V30 2220 C 203.206 -3.41625 2.59982 0
M  V30 2221 C 202.439 -4.71274 2.50473 0
M  V30 2222 O 202.662 -5.49197 1.54075 0
M  V30 2223 O 201.596 -4.96254 3.4061 0
M  V30 2224 H 205.422 -1.79728 2.44809 0
M  V30 2225 H 203.007 -0.830312 1.24202 0
M  V30 2226 H 204.889 -3.99136 1.35161 0
M  V30 2227 H 203.564 -3.20555 0.450144 0
M  V30 2228 H 202.471 -2.60231 2.68757 0
M  V30 2229 H 203.804 -3.43796 3.52229 0
M  V30 2230 N 205.456 -1.28612 -0.910864 0
M  V30 2231 C 206.872 -1.06381 -1.18976 0
M  V30 2232 C 207.072 0.191998 -2.00583 0
M  V30 2233 O 206.128 0.892869 -2.36187 0
M  V30 2234 C 207.441 -2.31295 -1.92154 0
M  V30 2235 C 208.989 -2.36503 -2.05025 0
M  V30 2236 C 209.464 -3.61191 -2.81612 0
M  V30 2237 N 210.955 -3.61847 -2.89172 0
M  V30 2238 C 211.69 -4.55004 -3.4894 0
M  V30 2239 N 211.186 -5.58482 -4.09963 0
M  V30 2240 N 212.979 -4.42594 -3.46506 0
M  V30 2241 H 205.13 -2.09221 -0.366094 0
M  V30 2242 H 207.393 -0.921003 -0.224629 0
M  V30 2243 H 207.099 -3.228 -1.39618 0
M  V30 2244 H 206.973 -2.37934 -2.9269 0
M  V30 2245 H 209.36 -1.45494 -2.5674 0
M  V30 2246 H 209.441 -2.33857 -1.03657 0
M  V30 2247 H 209.085 -4.52545 -2.30576 0
M  V30 2248 H 209.015 -3.61092 -3.83302 0
M  V30 2249 H 211.506 -2.87022 -2.45819 0
M  V30 2250 H 211.819 -6.25704 -4.53557 0
M  V30 2251 H 210.164 -5.62305 -4.08459 0
M  V30 2252 H 213.355 -3.60953 -2.98045 0
M  V30 2253 H 213.528 -5.15381 -3.92793 0
M  V30 2254 N 206.934 1.1197 -1.10907 0
M  V30 2255 C 207.864 2.19928 -0.784473 0
M  V30 2256 C 208.845 1.6833 0.244726 0
M  V30 2257 O 210.03 1.93892 0.109418 0
M  V30 2258 C 207.16 3.46597 -0.220827 0
M  V30 2259 C 206.114 4.11376 -1.18127 0
M  V30 2260 C 205.44 5.32554 -0.478594 0
M  V30 2261 C 206.74 4.56945 -2.52979 0
M  V30 2262 H 208.434 2.47337 -1.68715 0
M  V30 2263 H 205.98 1.18879 -0.812642 0
M  V30 2264 H 207.933 4.21396 0.0184278 0
M  V30 2265 H 206.657 3.1863 0.717113 0
M  V30 2266 H 205.316 3.38564 -1.40606 0
M  V30 2267 H 204.964 5.00856 0.463976 0
M  V30 2268 H 204.664 5.76844 -1.11912 0
M  V30 2269 H 206.188 6.10096 -0.248 0
M  V30 2270 H 207.602 5.23093 -2.3462 0
M  V30 2271 H 205.999 5.1203 -3.12962 0
M  V30 2272 H 207.069 3.70676 -3.12614 0
M  V30 2273 N 208.412 0.89855 1.29475 0
M  V30 2274 C 209.828 0.594483 1.48115 0
M  V30 2275 C 210.028 -0.86431 1.82022 0
M  V30 2276 O 209.084 -1.64457 1.91599 0
M  V30 2277 C 210.397 1.51932 2.59494 0
M  V30 2278 C 211.945 1.5244 2.7337 0
M  V30 2279 C 212.42 2.43548 3.87877 0
M  V30 2280 N 213.911 2.41589 3.95208 0
M  V30 2281 C 214.646 3.08789 4.83153 0
M  V30 2282 N 214.142 3.85265 5.75798 0
M  V30 2283 N 215.935 2.97952 4.76635 0
M  V30 2284 H 208.086 1.84207 1.05742 0
M  V30 2285 H 210.349 0.789251 0.525154 0
M  V30 2286 H 210.055 2.55865 2.41301 0
M  V30 2287 H 209.929 1.23899 3.56271 0
M  V30 2288 H 212.316 0.492518 2.90961 0
M  V30 2289 H 212.397 1.8451 1.77172 0
M  V30 2290 H 212.041 3.46829 3.71041 0
M  V30 2291 H 211.971 2.08788 4.83441 0
M  V30 2292 H 214.462 1.86025 3.28943 0
M  V30 2293 H 214.775 4.33598 6.39697 0
M  V30 2294 H 213.12 3.89371 5.75687 0
M  V30 2295 H 216.311 2.37723 4.03244 0
M  V30 2296 H 216.484 3.50599 5.44962 0
M  V30 2297 N 209.89 -1.43072 0.660911 0
M  V30 2298 C 210.8 -2.34585 -0.0264163 0
M  V30 2299 C 211.816 -1.54316 -0.803898 0
M  V30 2300 O 212.992 -1.86939 -0.749391 0
M  V30 2301 C 210.057 -3.32689 -0.975639 0
M  V30 2302 C 209.118 -4.2886 -0.194236 0
M  V30 2303 C 208.351 -5.22278 -1.09825 0
M  V30 2304 O 208.574 -5.20299 -2.33763 0
M  V30 2305 O 207.508 -5.99228 -0.566513 0
M  V30 2306 H 211.334 -2.94869 0.727034 0
M  V30 2307 H 208.919 -1.43342 0.42111 0
M  V30 2308 H 210.801 -3.92995 -1.52094 0
M  V30 2309 H 209.476 -2.74898 -1.70918 0
M  V30 2310 H 208.383 -3.72011 0.394835 0
M  V30 2311 H 209.716 -4.89655 0.499899 0
M  V30 2312 N 211.368 -0.403325 -1.52352 0
M  V30 2313 C 212.278 0.432009 -2.30588 0
M  V30 2314 C 213.294 1.05884 -1.38075 0
M  V30 2315 O 214.47 1.06161 -1.71148 0
M  V30 2316 C 211.535 1.53669 -3.10784 0
M  V30 2317 C 210.596 0.933525 -4.19027 0
M  V30 2318 C 209.829 1.98557 -4.9539 0
M  V30 2319 O 210.052 3.20283 -4.71991 0
M  V30 2320 O 208.986 1.59504 -5.80381 0
M  V30 2321 H 212.812 -0.205739 -3.03002 0
M  V30 2322 H 210.397 -0.166675 -1.48467 0
M  V30 2323 H 212.279 2.17814 -3.60742 0
M  V30 2324 H 210.954 2.15915 -2.41169 0
M  V30 2325 H 209.861 0.254954 -3.7323 0
M  V30 2326 H 211.194 0.35508 -4.90918 0
M  V30 2327 N 212.846 1.57033 -0.133567 0
M  V30 2328 C 214.092 1.95976 0.521649 0
M  V30 2329 C 214.425 1.01779 1.65393 0
M  V30 2330 O 213.7 0.0576581 1.94415 0
M  V30 2331 C 213.983 3.44738 1.04057 0
M  V30 2332 C 213.836 4.49711 -0.0892897 0
M  V30 2333 C 215.155 3.95682 1.92675 0
M  V30 2334 H 212.274 0.712579 0.188149 0
M  V30 2335 H 214.916 1.88813 -0.212076 0
M  V30 2336 H 213.066 3.50973 1.66583 0
M  V30 2337 H 214.738 4.55565 -0.725152 0
M  V30 2338 H 212.981 4.27261 -0.750378 0
M  V30 2339 H 213.652 5.51099 0.315284 0
M  V30 2340 H 216.128 3.91841 1.39998 0
M  V30 2341 H 215.004 5.00262 2.25897 0
M  V30 2342 H 215.265 3.37239 2.85872 0
M  V30 2343 N 214.325 -0.140222 1.56975 0
M  V30 2344 C 215.553 -0.866437 1.87884 0
M  V30 2345 C 215.968 -1.74428 0.722517 0
M  V30 2346 O 215.325 -1.79891 -0.30749 0
M  V30 2347 C 215.376 -1.71753 3.18093 0
M  V30 2348 O 215.097 -0.875056 4.29272 0
M  V30 2349 C 216.598 -2.55074 3.62563 0
M  V30 2350 H 213.818 -0.25019 0.622612 0
M  V30 2351 H 216.362 -0.130977 2.0408 0
M  V30 2352 H 214.517 -2.40598 3.03631 0
M  V30 2353 H 214.931 -1.46002 5.03769 0
M  V30 2354 H 216.405 -3.10356 4.5649 0
M  V30 2355 H 216.882 -3.31434 2.88181 0
M  V30 2356 H 217.488 -1.91509 3.79743 0
M  V30 2357 N 215.803 -1.52179 -0.40978 0
M  V30 2358 C 216.75 -1.75475 -1.49924 0
M  V30 2359 C 217.72 -0.597175 -1.54994 0
M  V30 2360 O 218.905 -0.834655 -1.71575 0
M  V30 2361 C 216.045 -1.9107 -2.87378 0
M  V30 2362 C 215.158 -3.18717 -2.91622 0
M  V30 2363 C 214.293 -3.24747 -4.20372 0
M  V30 2364 C 213.332 -4.46598 -4.18588 0
M  V30 2365 N 212.469 -4.50025 -5.38908 0
M  V30 2366 H 217.309 -2.68458 -1.29361 0
M  V30 2367 H 214.846 -1.33024 -0.627934 0
M  V30 2368 H 216.804 -1.98096 -3.6717 0
M  V30 2369 H 215.434 -1.01469 -3.06437 0
M  V30 2370 H 214.486 -3.20866 -2.04326 0
M  V30 2371 H 215.798 -4.08544 -2.86169 0
M  V30 2372 H 214.952 -3.30841 -5.08556 0
M  V30 2373 H 213.691 -2.32857 -4.28519 0
M  V30 2374 H 212.696 -4.40652 -3.28794 0
M  V30 2375 H 213.921 -5.39783 -4.12081 0
M  V30 2376 H 211.867 -3.61017 -5.47725 0
M  V30 2377 H 211.784 -5.33697 -5.35447 0
M  V30 2378 H 213.052 -4.60347 -6.29048 0
M  V30 2379 N 217.281 0.66697 -1.42791 0
M  V30 2380 C 218.211 1.79218 -1.49677 0
M  V30 2381 C 219.192 1.66405 -0.352623 0
M  V30 2382 O 220.377 1.85708 -0.567993 0
M  V30 2383 C 217.507 3.17565 -1.40605 0
M  V30 2384 C 216.461 3.45124 -2.53127 0
M  V30 2385 C 215.787 4.83127 -2.29112 0
M  V30 2386 C 217.087 3.41236 -3.95418 0
M  V30 2387 H 218.781 1.73713 -2.43853 0
M  V30 2388 H 216.327 0.83432 -1.17367 0
M  V30 2389 H 218.28 3.96022 -1.44029 0
M  V30 2390 H 217.004 3.23767 -0.429271 0
M  V30 2391 H 215.663 2.69031 -2.49034 0
M  V30 2392 H 215.311 4.85988 -1.29709 0
M  V30 2393 H 215.011 5.02528 -3.04531 0
M  V30 2394 H 216.535 5.63859 -2.34297 0
M  V30 2395 H 217.949 4.09651 -4.01073 0
M  V30 2396 H 216.346 3.72173 -4.70752 0
M  V30 2397 H 217.416 2.39665 -4.21532 0
M  V30 2398 N 218.759 1.29093 0.90403 0
M  V30 2399 C 220.175 1.07011 1.1841 0
M  V30 2400 C 220.375 -0.181358 2.00682 0
M  V30 2401 O 219.431 -0.880331 2.36657 0
M  V30 2402 C 220.744 2.32311 1.90924 0
M  V30 2403 C 222.292 2.37587 2.03768 0
M  V30 2404 C 222.767 3.62679 2.79693 0
M  V30 2405 N 224.258 3.63376 2.87249 0
M  V30 2406 C 224.993 4.56848 3.46522 0
M  V30 2407 N 224.489 5.60648 4.06996 0
M  V30 2408 N 226.282 4.44426 3.44154 0
M  V30 2409 H 218.433 2.09412 0.354993 0
M  V30 2410 H 220.696 0.922181 0.219742 0
M  V30 2411 H 220.402 3.23536 1.37905 0
M  V30 2412 H 220.276 2.39483 2.91424 0
M  V30 2413 H 222.663 1.46853 2.55965 0
M  V30 2414 H 222.744 2.34403 1.02415 0
M  V30 2415 H 222.388 4.53762 2.28173 0
M  V30 2416 H 222.318 3.63119 3.81381 0
M  V30 2417 H 224.809 2.88321 2.44293 0
M  V30 2418 H 225.122 6.28101 4.50232 0
M  V30 2419 H 223.467 5.64463 4.05471 0
M  V30 2420 H 226.658 3.62529 2.96126 0
M  V30 2421 H 226.831 5.17457 3.90054 0
M  V30 2422 N 220.237 -1.11381 1.11499 0
M  V30 2423 C 221.17 -2.16621 0.71769 0
M  V30 2424 C 222.148 -1.60058 -0.286413 0
M  V30 2425 O 223.332 -1.87613 -0.182689 0
M  V30 2426 C 220.459 -3.38646 0.0607265 0
M  V30 2427 C 219.505 -4.13874 1.03008 0
M  V30 2428 S 220.338 -4.70731 2.55289 0
M  V30 2429 C 221.494 -5.96079 1.90895 0
M  V30 2430 H 221.727 -2.49987 1.60915 0
M  V30 2431 H 219.26 -1.23015 0.933092 0
M  V30 2432 H 221.218 -4.09313 -0.311965 0
M  V30 2433 H 219.879 -3.03537 -0.807702 0
M  V30 2434 H 219.072 -5.01333 0.517853 0
M  V30 2435 H 218.674 -3.4897 1.34522 0
M  V30 2436 H 220.966 -6.65948 1.24577 0
M  V30 2437 H 221.909 -6.51946 2.76354 0
M  V30 2438 H 222.317 -5.47652 1.36885 0
M  V30 2439 N 221.715 -0.905404 -1.28997 0
M  V30 2440 C 222.625 -0.392246 -2.31298 0
M  V30 2441 C 223.641 0.515889 -1.66176 0
M  V30 2442 O 224.817 0.404093 -1.97304 0
M  V30 2443 C 221.882 0.36686 -3.44754 0
M  V30 2444 C 220.943 -0.573485 -4.25452 0
M  V30 2445 C 220.176 0.149488 -5.33491 0
M  V30 2446 O 220.399 1.37255 -5.5364 0
M  V30 2447 O 219.333 -0.510919 -5.99728 0
M  V30 2448 H 223.159 -1.2411 -2.77183 0
M  V30 2449 H 220.744 -0.669926 -1.33538 0
M  V30 2450 H 222.626 0.795907 -4.13816 0
M  V30 2451 H 221.301 1.19169 -3.00966 0
M  V30 2452 H 220.208 -1.05176 -3.59011 0
M  V30 2453 H 221.541 -1.36489 -4.72897 0
M  V30 2454 N 223.193 1.4272 -0.668489 0
M  V30 2455 C 224.123 2.335 -0.000100175 0
M  V30 2456 C 225.104 1.50328 0.795964 0
M  V30 2457 O 226.289 1.78949 0.754385 0
M  V30 2458 C 223.419 3.33874 0.956302 0
M  V30 2459 C 222.373 4.27152 0.269278 0
M  V30 2460 C 221.699 5.17684 1.33818 0
M  V30 2461 C 222.999 5.15373 -0.847805 0
M  V30 2462 H 224.693 2.89639 -0.758244 0
M  V30 2463 H 222.239 1.39269 -0.366079 0
M  V30 2464 H 224.192 3.9629 1.43292 0
M  V30 2465 H 222.916 2.76025 1.74579 0
M  V30 2466 H 221.575 3.66123 -0.187042 0
M  V30 2467 H 221.223 4.56165 2.1195 0
M  V30 2468 H 220.923 5.80918 0.883659 0
M  V30 2469 H 222.447 5.82974 1.81586 0
M  V30 2470 H 223.861 5.7151 -0.452681 0
M  V30 2471 H 222.258 5.87407 -1.22773 0
M  V30 2472 H 223.328 4.5415 -1.69929 0
M  V30 2473 N 224.671 0.411399 1.52136 0
M  V30 2474 C 225.603 -0.448386 2.24771 0
M  V30 2475 C 226.616 -1.00828 1.27818 0
M  V30 2476 O 227.805 -0.906841 1.53749 0
M  V30 2477 C 224.905 -1.63636 2.96777 0
M  V30 2478 C 224.078 -1.19995 4.20618 0
M  V30 2479 C 223.137 -2.25509 4.75428 0
M  V30 2480 O 222.163 -1.86007 5.3795 0
M  V30 2481 N 223.365 -3.577 4.57199 0
M  V30 2482 H 226.13 0.174025 2.99194 0
M  V30 2483 H 223.691 0.238897 1.60128 0
M  V30 2484 H 225.683 -2.33793 3.30338 0
M  V30 2485 H 224.253 -2.16465 2.25526 0
M  V30 2486 H 223.473 -0.326421 3.92846 0
M  V30 2487 H 224.761 -0.885365 5.01038 0
M  V30 2488 H 224.159 -3.92543 4.07341 0
M  V30 2489 H 222.716 -4.23827 4.95191 0
M  V30 2490 N 226.149 -1.5696 0.141893 0
M  V30 2491 C 227.395 -1.9625 -0.511248 0
M  V30 2492 C 227.728 -1.02654 -1.64851 0
M  V30 2493 O 227.003 -0.0679676 -1.94381 0
M  V30 2494 C 227.286 -3.45285 -1.02227 0
M  V30 2495 C 227.139 -4.49658 0.113138 0
M  V30 2496 C 228.458 -3.96698 -1.90574 0
M  V30 2497 H 225.577 -0.713567 -0.184367 0
M  V30 2498 H 228.219 -1.88698 0.222087 0
M  V30 2499 H 226.369 -3.51852 -1.64719 0
M  V30 2500 H 228.041 -4.55174 0.749302 0
M  V30 2501 H 226.284 -4.26857 0.773026 0
M  V30 2502 H 226.955 -5.51258 -0.286053 0
M  V30 2503 H 229.431 -3.92578 -1.37918 0
M  V30 2504 H 228.307 -5.01453 -2.2324 0
M  V30 2505 H 228.568 -3.3875 -2.84079 0
M  V30 2506 N 227.627 0.131896 -1.57047 0
M  V30 2507 C 228.852 0.860418 -1.8871 0
M  V30 2508 C 229.277 1.73251 -0.73251 0
M  V30 2509 O 228.635 1.785 0.317429 0
M  V30 2510 C 228.683 1.68047 -3.19049 0
M  V30 2511 O 227.787 2.7862 -3.04047 0
M  V30 2512 H 227.128 0.238743 -0.619595 0
M  V30 2513 H 229.658 0.118169 -2.04258 0
M  V30 2514 H 229.668 2.07238 -3.51449 0
M  V30 2515 H 228.343 1.04018 -4.02682 0
M  V30 2516 H 226.92 2.42726 -2.83088 0
M  V30 2517 N 229.106 1.52395 0.401703 0
M  V30 2518 C 230.331 1.70972 1.17403 0
M  V30 2519 C 230.756 0.421615 1.83314 0
M  V30 2520 O 230.114 -0.621564 1.70312 0
M  V30 2521 C 230.162 2.85151 2.20728 0
M  V30 2522 O 229.266 2.51238 3.27037 0
M  V30 2523 H 228.607 0.568927 0.342372 0
M  V30 2524 H 231.137 1.99131 0.469891 0
M  V30 2525 H 231.147 3.10279 2.64936 0
M  V30 2526 H 229.822 3.78603 1.7214 0
M  V30 2527 H 228.399 2.36808 2.88057 0
M  V30 2528 N 230.584 -0.659388 1.43143 0
M  V30 2529 C 231.832 -1.41654 1.44147 0
M  V30 2530 C 232.153 -1.94893 0.0645739 0
M  V30 2531 O 231.423 -1.74044 -0.899198 0
M  V30 2532 H 230.003 -0.525708 0.530697 0
M  V30 2533 H 232.665 -0.778097 1.78694 0
M  V30 2534 H 231.761 -2.26195 2.1504 0
M  V30 2535 N 232.062 -1.29571 -0.897171 0
M  V30 2536 C 233.309 -1.17689 -1.6479 0
M  V30 2537 C 233.637 0.27107 -1.92602 0
M  V30 2538 O 232.892 1.21193 -1.53658 0
M  V30 2539 C 233.191 -1.9382 -3.00281 0
M  V30 2540 C 232.857 -3.43522 -2.92068 0
M  V30 2541 C 231.519 -3.84348 -2.89535 0
M  V30 2542 C 233.871 -4.38906 -2.81089 0
M  V30 2543 C 231.199 -5.18869 -2.73846 0
M  V30 2544 C 233.551 -5.73521 -2.66939 0
M  V30 2545 C 232.215 -6.13601 -2.62774 0
M  V30 2546 H 231.485 -0.430654 -0.603008 0
M  V30 2547 H 234.132 -1.60536 -1.04404 0
M  V30 2548 H 232.437 -1.4357 -3.64547 0
M  V30 2549 H 234.134 -1.82028 -3.57305 0
M  V30 2550 H 230.724 -3.11072 -2.94842 0
M  V30 2551 H 234.908 -4.08315 -2.82121 0
M  V30 2552 H 230.164 -5.4903 -2.69027 0
M  V30 2553 H 234.338 -6.47078 -2.57416 0
M  V30 2554 H 231.965 -7.17786 -2.50375 0
M  V30 2555 N 233.54 1.10788 -1.12088 0
M  V30 2556 C 234.786 1.82942 -0.875226 0
M  V30 2557 C 235.119 1.84779 0.597538 0
M  V30 2558 O 234.394 1.30578 1.44152 0
M  V30 2559 C 234.677 3.29789 -1.44606 0
M  V30 2560 C 234.53 3.36307 -2.98693 0
M  V30 2561 C 235.849 4.26064 -1.10261 0
M  V30 2562 H 232.968 0.664195 -0.319397 0
M  V30 2563 H 235.61 1.29867 -1.38689 0
M  V30 2564 H 233.76 3.75118 -1.01089 0
M  V30 2565 H 235.432 2.99487 -3.50864 0
M  V30 2566 H 233.675 2.76318 -3.34411 0
M  V30 2567 H 234.346 4.39694 -3.33726 0
M  V30 2568 H 236.822 3.88951 -1.4784 0
M  V30 2569 H 235.698 5.27183 -1.52869 0
M  V30 2570 H 235.959 4.42098 -0.0142953 0
M  V30 2571 N 235.018 0.912232 1.28515 0
M  V30 2572 C 236.258 0.551677 1.96814 0
M  V30 2573 C 236.622 -0.887825 1.7024 0
M  V30 2574 O 237.823 -1.35588 2.32098 0
M  V30 2575 C 236.094 0.850555 3.47132 0
M  V30 2576 S 237.653 0.59619 4.34731 0
M  V30 2577 H 234.471 0.204191 0.681049 0
M  V30 2578 H 237.073 1.17736 1.56072 0
M  V30 2579 H 235.777 1.8962 3.63968 0
M  V30 2580 H 235.308 0.213471 3.9282 0
M  V30 2581 H 237.323 -0.553154 4.93107 0
M  V30 2582 N 236.496 -1.42363 0.676048 0
M  V30 2583 C 237.444 -2.32596 -0.0131507 0
M  V30 2584 C 238.438 -1.49891 -0.789238 0
M  V30 2585 O 239.644 -1.65955 -0.697061 0
M  V30 2586 H 236.019 -0.751647 -0.0230481 0
M  V30 2587 H 237.99 -2.88421 0.765243 0
M  V30 2588 C 236.739 -3.34479 -0.949702 0
M  V30 2589 H 236.062 -3.98158 -0.361938 0
M  V30 2590 H 237.502 -4.00199 -1.4006 0
M  V30 2591 C 235.961 -2.66838 -2.05667 0
M  V30 2592 O 236.491 -2.50124 -3.14326 0
M  V30 2593 N 234.697 -2.25843 -1.82875 0
M  V30 2594 H 234.244 -2.39637 -0.945085 0
M  V30 2595 H 234.202 -1.80918 -2.5713 0
M  V30 2596 N 237.974 -0.419461 -1.51915 0
M  V30 2597 C 239.202 0.152136 -2.0634 0
M  V30 2598 C 239.617 1.37988 -1.28859 0
M  V30 2599 O 238.974 1.79243 -0.343232 0
M  V30 2600 C 239.025 0.492266 -3.58133 0
M  V30 2601 O 238.746 -0.686736 -4.32684 0
M  V30 2602 C 240.247 1.11648 -4.2901 0
M  V30 2603 H 237.467 0.0158325 -0.670813 0
M  V30 2604 H 240.011 -0.593394 -1.95702 0
M  V30 2605 H 238.166 1.18769 -3.68745 0
M  V30 2606 H 238.58 -0.400341 -5.2297 0
M  V30 2607 H 240.054 1.3046 -5.36362 0
M  V30 2608 H 240.531 2.09251 -3.86148 0
M  V30 2609 H 241.137 0.460958 -4.22795 0
M  V30 2610 N 239.452 1.56882 -0.150215 0
M  V30 2611 C 240.692 1.98119 0.502804 0
M  V30 2612 C 241.056 1.03327 1.61826 0
M  V30 2613 O 242.257 1.33621 2.33236 0
M  V30 2614 C 240.528 3.43329 0.992988 0
M  V30 2615 S 242.087 4.0659 1.65015 0
M  V30 2616 H 238.905 0.692189 0.162467 0
M  V30 2617 H 241.507 1.93988 -0.242689 0
M  V30 2618 H 240.211 4.10046 0.170436 0
M  V30 2619 H 239.742 3.5118 1.77303 0
M  V30 2620 H 241.757 3.99906 2.93752 0
M  V30 2621 N 240.93 -0.123565 1.57115 0
M  V30 2622 C 242.341 -0.681198 1.73829 0
M  V30 2623 C 242.692 -1.80535 0.768214 0
M  V30 2624 O 241.817 -2.16317 -0.0599103 0
M  V30 2625 C 242.412 -1.24246 3.15196 0
M  V30 2626 C 240.971 -1.74643 3.33432 0
M  V30 2627 C 240.118 -0.644284 2.69711 0
M  V30 2628 H 243.069 0.102315 1.5837 0
M  V30 2629 H 243.09 -2.11216 3.16493 0
M  V30 2630 H 242.602 -0.424062 3.85776 0
M  V30 2631 H 240.703 -2.58974 2.67886 0
M  V30 2632 H 240.816 -1.85902 4.41562 0
M  V30 2633 H 239.18 -1.07676 2.3082 0
M  V30 2634 H 239.963 0.163058 3.42913 0
M  V30 2635 N 242.408 -1.52605 -0.393616 0
M  V30 2636 C 243.318 -1.79971 -1.50492 0
M  V30 2637 C 244.334 -0.686181 -1.59899 0
M  V30 2638 O 245.51 -0.973274 -1.76322 0
M  V30 2639 C 242.575 -1.95867 -2.86072 0
M  V30 2640 C 241.636 -3.19781 -2.86424 0
M  V30 2641 C 240.869 -3.34909 -4.15538 0
M  V30 2642 O 241.092 -2.54948 -5.10253 0
M  V30 2643 O 240.026 -4.28141 -4.23059 0
M  V30 2644 H 243.852 -2.74328 -1.30299 0
M  V30 2645 H 241.437 -1.3764 -0.581005 0
M  V30 2646 H 243.319 -2.08056 -3.66457 0
M  V30 2647 H 241.994 -1.04699 -3.063 0
M  V30 2648 H 240.901 -3.13038 -2.04837 0
M  V30 2649 H 242.234 -4.1078 -2.71147 0
M  V30 2650 N 243.887 0.651787 -1.4349 0
M  V30 2651 C 244.834 1.76462 -1.4876 0
M  V30 2652 C 245.804 1.62641 -0.337189 0
M  V30 2653 O 246.989 1.82864 -0.544544 0
M  V30 2654 C 244.129 3.14623 -1.41796 0
M  V30 2655 C 243.242 3.39568 -2.67053 0
M  V30 2656 C 242.377 4.67585 -2.52068 0
M  V30 2657 C 241.416 4.85639 -3.72587 0
M  V30 2658 N 240.553 6.04915 -3.56402 0
M  V30 2659 H 245.393 1.71293 -2.43849 0
M  V30 2660 H 242.93 0.835889 -1.21043 0
M  V30 2661 H 244.888 3.94496 -1.35753 0
M  V30 2662 H 243.518 3.18859 -0.50288 0
M  V30 2663 H 242.57 2.53783 -2.8337 0
M  V30 2664 H 243.882 3.48795 -3.56572 0
M  V30 2665 H 243.036 5.55586 -2.4374 0
M  V30 2666 H 241.775 4.60681 -1.60075 0
M  V30 2667 H 240.78 3.96073 -3.81321 0
M  V30 2668 H 242.005 4.94372 -4.65589 0
M  V30 2669 H 239.951 5.9914 -2.67146 0
M  V30 2670 H 239.868 6.15106 -4.39524 0
M  V30 2671 H 241.136 6.95533 -3.51929 0
M  V30 2672 N 245.365 1.30045 0.890287 0
M  V30 2673 C 246.611 1.19747 1.64415 0
M  V30 2674 C 246.966 -0.246591 1.90813 0
M  V30 2675 O 246.259 -1.174 1.51419 0
M  V30 2676 C 246.453 1.95409 2.99249 0
M  V30 2677 C 246.282 3.47025 2.86013 0
M  V30 2678 C 245.052 4.1638 2.86279 0
M  V30 2679 C 247.25 4.42353 2.62351 0
M  V30 2680 N 245.232 5.54293 2.63879 0
M  V30 2681 C 246.603 5.67792 2.49022 0
M  V30 2682 C 248.658 4.32009 2.47533 0
M  V30 2683 C 247.361 6.8406 2.22383 0
M  V30 2684 C 249.387 5.48038 2.22279 0
M  V30 2685 C 248.749 6.72455 2.09722 0
M  V30 2686 H 244.848 0.493223 0.60684 0
M  V30 2687 H 247.432 1.6399 1.04954 0
M  V30 2688 H 245.603 1.53565 3.56752 0
M  V30 2689 H 247.335 1.77298 3.63796 0
M  V30 2690 H 244.09 3.68164 2.97913 0
M  V30 2691 H 244.514 6.26852 2.55706 0
M  V30 2692 H 249.156 3.36503 2.55979 0
M  V30 2693 H 246.874 7.79612 2.12675 0
M  V30 2694 H 250.46 5.41939 2.11643 0
M  V30 2695 H 249.34 7.60722 1.90453 0
M  V30 2696 N 246.843 -1.10192 1.12674 0
M  V30 2697 C 248.092 -1.81573 0.8783 0
M  V30 2698 C 248.405 -1.86249 -0.597557 0
M  V30 2699 O 249.611 -2.5386 -0.962681 0
M  V30 2700 C 248.067 -3.26149 1.52167 0
M  V30 2701 C 247.675 -3.29763 3.03249 0
M  V30 2702 C 249.419 -4.0234 1.3536 0
M  V30 2703 C 247.326 -4.68815 3.60508 0
M  V30 2704 H 246.256 -0.680394 0.324931 0
M  V30 2705 H 248.907 -1.23902 1.35353 0
M  V30 2706 H 247.289 -3.83832 0.974104 0
M  V30 2707 H 248.463 -2.8189 3.6452 0
M  V30 2708 H 246.778 -2.67059 3.19481 0
M  V30 2709 H 249.375 -5.05058 1.75559 0
M  V30 2710 H 249.718 -4.15235 0.297554 0
M  V30 2711 H 250.251 -3.51079 1.87052 0
M  V30 2712 H 246.99 -4.61121 4.65884 0
M  V30 2713 H 246.51 -5.17045 3.04014 0
M  V30 2714 H 248.189 -5.37785 3.59717 0
M  V30 2715 N 248.321 -0.919034 -1.28029 0
M  V30 2716 C 249.269 -0.401753 -2.29104 0
M  V30 2717 C 250.263 0.509354 -1.61561 0
M  V30 2718 O 251.469 0.390014 -1.75724 0
M  V30 2719 H 247.844 -0.111331 -0.743713 0
M  V30 2720 H 249.815 -1.2672 -2.70156 0
M  V30 2721 C 248.564 0.338148 -3.46052 0
M  V30 2722 H 247.887 -0.353732 -3.98232 0
M  V30 2723 H 249.327 0.664653 -4.18758 0
M  V30 2724 C 247.786 1.54798 -2.99231 0
M  V30 2725 O 248.316 2.64696 -3.02157 0
M  V30 2726 N 246.522 1.3968 -2.54829 0
M  V30 2727 H 246.069 0.502698 -2.52647 0
M  V30 2728 H 246.027 2.20755 -2.23863 0
M  V30 2729 N 249.799 1.42003 -0.683588 0
M  V30 2730 C 251.046 2.01413 -0.209514 0
M  V30 2731 C 251.374 1.54088 1.1869 0
M  V30 2732 O 250.629 0.737591 1.81268 0
M  V30 2733 C 250.928 3.56827 -0.202357 0
M  V30 2734 C 250.594 4.23617 -1.54464 0
M  V30 2735 C 249.256 4.41577 -1.91215 0
M  V30 2736 C 251.608 4.61178 -2.42826 0
M  V30 2737 C 248.936 4.9437 -3.15935 0
M  V30 2738 C 251.288 5.15355 -3.66867 0
M  V30 2739 C 249.952 5.31528 -4.03776 0
M  V30 2740 H 249.222 0.737023 -0.0766668 0
M  V30 2741 H 251.869 1.70067 -0.880312 0
M  V30 2742 H 250.174 3.87892 0.551969 0
M  V30 2743 H 251.871 4.00588 0.181793 0
M  V30 2744 H 248.461 4.10004 -1.24877 0
M  V30 2745 H 252.645 4.46968 -2.15717 0
M  V30 2746 H 247.901 5.05076 -3.44541 0
M  V30 2747 H 252.075 5.43402 -4.35531 0
M  V30 2748 H 249.702 5.72199 -5.00492 0
M  V30 2749 N 251.277 0.427512 1.51691 0
M  V30 2750 C 252.209 -0.424521 2.25234 0
M  V30 2751 C 253.222 -0.994671 1.2888 0
M  V30 2752 O 254.411 -0.890483 1.54702 0
M  V30 2753 C 251.511 -1.60479 2.98496 0
M  V30 2754 C 250.684 -1.15527 4.21868 0
M  V30 2755 C 249.743 -2.20454 4.77793 0
M  V30 2756 O 248.769 -1.8029 5.39893 0
M  V30 2757 N 249.971 -3.52831 4.60967 0
M  V30 2758 H 252.736 0.205749 2.98993 0
M  V30 2759 H 250.297 0.255867 1.59865 0
M  V30 2760 H 252.289 -2.30276 3.32799 0
M  V30 2761 H 250.859 -2.14061 2.27809 0
M  V30 2762 H 250.079 -0.284736 3.9317 0
M  V30 2763 H 251.367 -0.832173 5.01949 0
M  V30 2764 H 250.765 -3.88201 4.11481 0
M  V30 2765 H 249.322 -4.18551 4.99658 0
M  V30 2766 N 252.755 -1.56801 0.158532 0
M  V30 2767 C 254.171 -1.5837 -0.197774 0
M  V30 2768 C 254.371 -1.17334 -1.63814 0
M  V30 2769 O 253.427 -0.878988 -2.36707 0
M  V30 2770 C 254.74 -3.00615 0.0714459 0
M  V30 2771 C 256.288 -3.12999 0.00864533 0
M  V30 2772 C 256.763 -4.57313 0.250685 0
M  V30 2773 N 258.254 -4.62777 0.198014 0
M  V30 2774 C 258.989 -5.72271 0.359642 0
M  V30 2775 N 258.485 -6.90371 0.579625 0
M  V30 2776 N 260.278 -5.61318 0.296438 0
M  V30 2777 H 252.429 -1.81765 1.09887 0
M  V30 2778 H 254.692 -0.841849 0.435884 0
M  V30 2779 H 254.398 -3.35068 1.06874 0
M  V30 2780 H 254.272 -3.71683 -0.642757 0
M  V30 2781 H 256.659 -2.7838 -0.979217 0
M  V30 2782 H 256.74 -2.44393 0.755359 0
M  V30 2783 H 256.384 -4.92639 1.2357 0
M  V30 2784 H 256.314 -5.24061 -0.516489 0
M  V30 2785 H 258.805 -3.77885 0.0331115 0
M  V30 2786 H 259.118 -7.69689 0.69275 0
M  V30 2787 H 257.463 -6.92264 0.616087 0
M  V30 2788 H 260.654 -4.67932 0.125258 0
M  V30 2789 H 260.827 -6.46599 0.425831 0
M  V30 2790 N 254.233 0.115231 -1.57178 0
M  V30 2791 C 255.18 1.14115 -2.00615 0
M  V30 2792 C 256.15 1.40939 -0.878941 0
M  V30 2793 O 257.335 1.52741 -1.14345 0
M  V30 2794 C 254.475 2.46156 -2.4187 0
M  V30 2795 C 253.588 2.26236 -3.68024 0
M  V30 2796 C 252.723 3.51534 -3.98243 0
M  V30 2797 C 251.762 3.26787 -5.17568 0
M  V30 2798 N 250.899 4.44298 -5.43639 0
M  V30 2799 H 255.739 0.763743 -2.88047 0
M  V30 2800 H 253.276 0.365615 -1.42484 0
M  V30 2801 H 255.234 3.23189 -2.63827 0
M  V30 2802 H 253.864 2.81783 -1.57475 0
M  V30 2803 H 252.916 1.40102 -3.5366 0
M  V30 2804 H 254.228 2.03929 -4.55208 0
M  V30 2805 H 253.382 4.36984 -4.20868 0
M  V30 2806 H 252.121 3.76876 -3.09541 0
M  V30 2807 H 251.126 2.39729 -4.94783 0
M  V30 2808 H 252.351 3.02812 -6.0785 0
M  V30 2809 H 250.297 4.69754 -4.57895 0
M  V30 2810 H 250.214 4.25109 -6.25154 0
M  V30 2811 H 251.482 5.3087 -5.70786 0
M  V30 2812 N 255.711 1.52812 0.385517 0
M  V30 2813 C 256.951 1.69716 1.13911 0
M  V30 2814 C 257.315 0.42962 1.87132 0
M  V30 2815 O 258.516 0.475071 2.64569 0
M  V30 2816 C 256.787 2.90021 2.0886 0
M  V30 2817 S 258.346 3.27531 2.92009 0
M  V30 2818 H 255.164 0.59739 0.385547 0
M  V30 2819 H 257.766 1.90868 0.423061 0
M  V30 2820 H 256.47 3.80493 1.53797 0
M  V30 2821 H 256.001 2.71213 2.84969 0
M  V30 2822 H 258.016 2.77989 4.11019 0
M  V30 2823 N 257.189 -0.644168 1.43834 0
M  V30 2824 C 258.419 -1.42939 1.49171 0
M  V30 2825 C 258.827 -1.88874 0.111048 0
M  V30 2826 O 258.17 -1.60656 -0.8908 0
M  V30 2827 C 258.232 -2.69151 2.38324 0
M  V30 2828 C 257.896 -2.45097 3.85715 0
M  V30 2829 C 258.893 -2.07747 4.76589 0
M  V30 2830 C 256.578 -2.59141 4.30292 0
M  V30 2831 C 258.572 -1.8475 6.10038 0
M  V30 2832 C 256.259 -2.35759 5.63792 0
M  V30 2833 C 257.257 -1.9862 6.53482 0
M  V30 2834 O 256.945 -1.75489 7.84512 0
M  V30 2835 H 256.677 -0.445271 0.508635 0
M  V30 2836 H 259.231 -0.79621 1.8934 0
M  V30 2837 H 257.461 -3.3506 1.93058 0
M  V30 2838 H 259.15 -3.31123 2.3476 0
M  V30 2839 H 259.916 -1.96465 4.43426 0
M  V30 2840 H 255.795 -2.87022 3.60749 0
M  V30 2841 H 259.339 -1.55686 6.80006 0
M  V30 2842 H 255.236 -2.46646 5.9652 0
M  V30 2843 H 256.004 -1.89841 7.9618 0
M  V30 2844 N 258.668 -1.30515 -0.883378 0
M  V30 2845 C 259.898 -1.22182 -1.66599 0
M  V30 2846 C 260.306 0.217507 -1.87946 0
M  V30 2847 O 259.649 1.1554 -1.42815 0
M  V30 2848 C 259.711 -1.88146 -3.06335 0
M  V30 2849 C 259.375 -3.37476 -3.08154 0
M  V30 2850 C 260.372 -4.33443 -2.87094 0
M  V30 2851 C 258.057 -3.7895 -3.29701 0
M  V30 2852 C 260.051 -5.68858 -2.8754 0
M  V30 2853 C 257.738 -5.14482 -3.29776 0
M  V30 2854 C 258.736 -6.09246 -3.0872 0
M  V30 2855 O 258.424 -7.42302 -3.08615 0
M  V30 2856 H 258.156 -0.423898 -0.52658 0
M  V30 2857 H 260.71 -1.72703 -1.11188 0
M  V30 2858 H 258.94 -1.32157 -3.63416 0
M  V30 2859 H 260.629 -1.7391 -3.66756 0
M  V30 2860 H 261.395 -4.02733 -2.70243 0
M  V30 2861 H 257.274 -3.05631 -3.45124 0
M  V30 2862 H 260.818 -6.428 -2.71024 0
M  V30 2863 H 256.715 -5.44832 -3.46163 0
M  V30 2864 H 257.483 -7.5131 -3.24769 0
M  V30 2865 N 260.146 1.09593 -1.13257 0
M  V30 2866 C 261.393 1.81734 -0.893257 0
M  V30 2867 C 261.721 1.8563 0.580656 0
M  V30 2868 O 260.976 1.31906 1.44566 0
M  V30 2869 C 261.275 3.27802 -1.42411 0
M  V30 2870 C 260.941 3.44041 -2.91456 0
M  V30 2871 C 259.603 3.48181 -3.3215 0
M  V30 2872 C 261.955 3.48719 -3.87356 0
M  V30 2873 C 259.283 3.54575 -4.67433 0
M  V30 2874 C 261.635 3.56648 -5.2248 0
M  V30 2875 C 260.299 3.59055 -5.62704 0
M  V30 2876 H 259.569 0.665011 -0.326866 0
M  V30 2877 H 262.216 1.2912 -1.41422 0
M  V30 2878 H 260.521 3.83042 -0.823795 0
M  V30 2879 H 262.218 3.82149 -1.21503 0
M  V30 2880 H 258.808 3.41502 -2.58987 0
M  V30 2881 H 262.992 3.44763 -3.57004 0
M  V30 2882 H 258.248 3.54725 -4.97976 0
M  V30 2883 H 262.422 3.59212 -5.96607 0
M  V30 2884 H 260.049 3.63763 -6.67518 0
M  V30 2885 N 261.624 0.925811 1.2754 0
M  V30 2886 C 262.872 0.564138 1.94067 0
M  V30 2887 C 263.193 -0.897188 1.73134 0
M  V30 2888 O 262.463 -1.63573 1.07799 0
M  V30 2889 H 261.043 0.205645 0.718136 0
M  V30 2890 H 263.705 1.1778 1.55287 0
M  V30 2891 H 262.801 0.76881 3.02483 0
M  V30 2892 N 263.102 -1.41638 0.69111 0
M  V30 2893 C 264.049 -2.30789 0.0229705 0
M  V30 2894 C 265.019 -1.46863 -0.775911 0
M  V30 2895 O 266.204 -1.75661 -0.74485 0
M  V30 2896 C 263.344 -3.32868 -0.910666 0
M  V30 2897 C 262.457 -4.31875 -0.103874 0
M  V30 2898 C 261.592 -5.21024 -1.03475 0
M  V30 2899 C 260.631 -6.11702 -0.220598 0
M  V30 2900 N 259.768 -6.93349 -1.10504 0
M  V30 2901 H 264.608 -2.87366 0.788978 0
M  V30 2902 H 262.145 -1.41535 0.400794 0
M  V30 2903 H 264.103 -3.90596 -1.46597 0
M  V30 2904 H 262.733 -2.77851 -1.64312 0
M  V30 2905 H 261.785 -3.76131 0.568285 0
M  V30 2906 H 263.097 -4.96003 0.527504 0
M  V30 2907 H 262.251 -5.83565 -1.65943 0
M  V30 2908 H 260.99 -4.57112 -1.69999 0
M  V30 2909 H 259.995 -5.48215 0.417187 0
M  V30 2910 H 261.22 -6.77668 0.440784 0
M  V30 2911 H 259.166 -6.3205 -1.75638 0
M  V30 2912 H 259.083 -7.54146 -0.529125 0
M  V30 2913 H 260.351 -7.60362 -1.71667 0
M  V30 2914 N 264.58 -0.43555 -1.51462 0
M  V30 2915 C 265.828 0.131254 -2.01673 0
M  V30 2916 C 266.149 1.43368 -1.32177 0
M  V30 2917 O 265.419 1.90524 -0.455769 0
M  V30 2918 H 263.999 0.0514954 -0.745223 0
M  V30 2919 H 266.661 -0.577847 -1.86137 0
M  V30 2920 H 265.757 0.308446 -3.10572 0
M  V30 2921 N 266.058 1.56714 -0.166846 0
M  V30 2922 C 267.286 2.0112 0.485644 0
M  V30 2923 C 267.701 1.04705 1.57106 0
M  V30 2924 O 267.058 0.0471923 1.82439 0
M  V30 2925 C 267.109 3.45361 1.06808 0
M  V30 2926 O 266.83 4.38092 0.0259995 0
M  V30 2927 C 268.331 4.05145 1.79924 0
M  V30 2928 H 265.551 0.65931 0.124704 0
M  V30 2929 H 268.095 2.02746 -0.267262 0
M  V30 2930 H 266.25 3.44524 1.7715 0
M  V30 2931 H 266.664 5.22519 0.455398 0
M  V30 2932 H 268.138 5.08009 2.15942 0
M  V30 2933 H 268.615 3.46982 2.69258 0
M  V30 2934 H 269.221 4.09672 1.14234 0
M  V30 2935 N 267.536 -0.106894 1.57237 0
M  V30 2936 C 268.483 -1.13049 2.01217 0
M  V30 2937 C 269.453 -1.40471 0.886403 0
M  V30 2938 O 270.638 -1.52133 1.15153 0
M  V30 2939 C 267.778 -2.4487 2.43172 0
M  V30 2940 C 266.891 -2.24281 3.69218 0
M  V30 2941 C 266.026 -3.49417 4.00101 0
M  V30 2942 C 265.065 -3.24038 5.19294 0
M  V30 2943 N 264.202 -4.41409 5.45988 0
M  V30 2944 H 269.042 -0.748456 2.88448 0
M  V30 2945 H 266.579 -0.358054 1.42676 0
M  V30 2946 H 268.537 -3.21786 2.65537 0
M  V30 2947 H 267.167 -2.80944 1.58967 0
M  V30 2948 H 266.219 -1.38224 3.54398 0
M  V30 2949 H 267.531 -2.01512 4.56283 0
M  V30 2950 H 266.685 -4.34746 4.2318 0
M  V30 2951 H 265.424 -3.75229 3.11535 0
M  V30 2952 H 264.429 -2.37102 4.96047 0
M  V30 2953 H 265.654 -2.99584 6.09447 0
M  V30 2954 H 263.6 -4.67319 4.60379 0
M  V30 2955 H 263.517 -4.21788 6.274 0
M  V30 2956 H 264.785 -5.27836 5.73593 0
M  V30 2957 N 269.014 -1.53014 -0.377408 0
M  V30 2958 C 269.946 -1.74884 -1.48149 0
M  V30 2959 C 270.959 -0.629433 -1.5014 0
M  V30 2960 O 272.148 -0.905416 -1.53833 0
M  V30 2961 C 269.248 -1.80299 -2.86959 0
M  V30 2962 C 268.421 -3.09776 -3.08801 0
M  V30 2963 C 267.48 -3.06586 -4.27658 0
M  V30 2964 O 266.506 -3.80419 -4.23403 0
M  V30 2965 N 267.708 -2.26578 -5.34455 0
M  V30 2966 H 270.473 -2.70147 -1.29771 0
M  V30 2967 H 268.034 -1.51646 -0.56703 0
M  V30 2968 H 270.026 -1.75657 -3.64591 0
M  V30 2969 H 268.596 -0.92372 -2.98641 0
M  V30 2970 H 267.816 -3.27815 -2.18931 0
M  V30 2971 H 269.104 -3.95366 -3.20255 0
M  V30 2972 H 268.502 -1.66081 -5.40771 0
M  V30 2973 H 267.059 -2.27766 -6.10709 0
M  V30 2974 N 270.492 0.636531 -1.44174 0
M  V30 2975 C 271.738 1.39649 -1.47884 0
M  V30 2976 C 272.093 1.92098 -0.107747 0
M  V30 2977 O 271.386 1.70391 0.876208 0
M  V30 2978 C 271.58 2.58309 -2.47005 0
M  V30 2979 C 271.409 2.17476 -3.93617 0
M  V30 2980 C 270.179 2.0501 -4.61843 0
M  V30 2981 C 272.377 1.76722 -4.82984 0
M  V30 2982 N 270.359 1.57683 -5.93304 0
M  V30 2983 C 271.73 1.40601 -6.03847 0
M  V30 2984 C 273.785 1.64054 -4.70096 0
M  V30 2985 C 272.488 0.930787 -7.13252 0
M  V30 2986 C 274.514 1.17937 -5.79521 0
M  V30 2987 C 273.876 0.827625 -6.99521 0
M  V30 2988 H 269.975 0.506027 -0.596205 0
M  V30 2989 H 272.559 0.730791 -1.80465 0
M  V30 2990 H 270.73 3.22514 -2.16423 0
M  V30 2991 H 272.462 3.25083 -2.41045 0
M  V30 2992 H 269.217 2.25294 -4.16581 0
M  V30 2993 H 269.641 1.36334 -6.63131 0
M  V30 2994 H 274.283 1.89882 -3.77762 0
M  V30 2995 H 272.001 0.660012 -8.054 0
M  V30 2996 H 275.587 1.08601 -5.71574 0
M  V30 2997 H 274.467 0.476231 -7.82753 0
M  V30 2998 N 271.97 1.30982 0.876444 0
M  V30 2999 C 273.216 1.20474 1.63138 0
M  V30 3000 C 273.549 -0.238096 1.92735 0
M  V30 3001 O 272.824 -1.1692 1.55435 0
M  V30 3002 C 273.107 2.04244 2.96574 0
M  V30 3003 C 272.96 3.56793 2.73896 0
M  V30 3004 C 274.279 1.88684 3.97601 0
M  V30 3005 H 271.398 0.439001 0.591985 0
M  V30 3006 H 274.04 1.60704 1.01361 0
M  V30 3007 H 272.19 1.70063 3.493 0
M  V30 3008 H 273.862 4.01077 2.27892 0
M  V30 3009 H 272.105 3.80548 2.08245 0
M  V30 3010 H 272.776 4.10706 3.68815 0
M  V30 3011 H 275.252 2.18584 3.54062 0
M  V30 3012 H 274.128 2.4961 4.88862 0
M  V30 3013 H 274.389 0.848343 4.33884 0
M  V30 3014 N 273.449 -1.08991 1.13837 0
M  V30 3015 C 274.399 -2.1393 0.788535 0
M  V30 3016 C 275.383 -1.59396 -0.219516 0
M  V30 3017 O 276.575 -1.76985 -0.0227557 0
M  V30 3018 C 273.704 -3.42305 0.261147 0
M  V30 3019 C 272.79 -4.03736 1.29837 0
M  V30 3020 N 273.181 -4.39659 2.50067 0
M  V30 3021 C 271.479 -4.30993 1.1472 0
M  V30 3022 C 272.18 -4.88113 3.16419 0
M  V30 3023 N 271.156 -4.85846 2.43832 0
M  V30 3024 H 274.958 -2.39516 1.70322 0
M  V30 3025 H 272.472 -1.26263 1.02134 0
M  V30 3026 H 274.469 -4.16899 -0.0077405 0
M  V30 3027 H 273.129 -3.18172 -0.647805 0
M  V30 3028 H 274.14 -4.30878 2.8734 0
M  V30 3029 H 270.817 -4.16444 0.296773 0
M  V30 3030 H 272.207 -5.25336 4.18894 0
M  V30 3031 N 274.927 -0.932562 -1.27047 0
M  V30 3032 C 275.89 -0.440064 -2.24936 0
M  V30 3033 C 276.89 0.444071 -1.54547 0
M  V30 3034 O 278.08 0.244465 -1.72476 0
M  V30 3035 C 275.212 0.36678 -3.38921 0
M  V30 3036 H 276.405 -1.305 -2.70018 0
M  V30 3037 H 273.958 -0.713707 -1.39054 0
M  V30 3038 H 274.693 1.25033 -2.99228 0
M  V30 3039 H 274.478 -0.267204 -3.91188 0
M  V30 3040 H 275.968 0.701567 -4.11665 0
M  V30 3041 N 276.405 1.4127 -0.698611 0
M  V30 3042 C 277.821 1.55241 -0.370462 0
M  V30 3043 C 278.021 1.67351 1.12231 0
M  V30 3044 O 277.077 1.65363 1.90818 0
M  V30 3045 C 278.39 2.78997 -1.12165 0
M  V30 3046 C 279.938 2.92797 -1.1063 0
M  V30 3047 C 280.413 4.19445 -1.8393 0
M  V30 3048 N 281.904 4.26409 -1.80914 0
M  V30 3049 C 282.639 5.23271 -2.34467 0
M  V30 3050 N 282.135 6.26145 -2.96504 0
M  V30 3051 N 283.928 5.15232 -2.24706 0
M  V30 3052 H 276.079 1.31654 -1.66676 0
M  V30 3053 H 278.342 0.635393 -0.703548 0
M  V30 3054 H 278.048 2.76268 -2.17644 0
M  V30 3055 H 277.922 3.70606 -0.702209 0
M  V30 3056 H 280.309 2.95039 -0.0597713 0
M  V30 3057 H 280.39 2.02353 -1.56483 0
M  V30 3058 H 280.034 4.17964 -2.88563 0
M  V30 3059 H 279.964 5.08866 -1.35509 0
M  V30 3060 H 282.455 3.527 -1.35687 0
M  V30 3061 H 282.768 6.96451 -3.34927 0
M  V30 3062 H 281.113 6.26638 -3.00583 0
M  V30 3063 H 284.304 4.33789 -1.7591 0
M  V30 3064 H 284.477 5.90552 -2.66745 0
M  V30 3065 N 277.883 0.443576 1.51229 0
M  V30 3066 C 279.113 -0.119117 2.06256 0
M  V30 3067 C 279.521 -1.36471 1.31043 0
M  V30 3068 O 278.864 -1.80034 0.365151 0
M  V30 3069 C 278.926 -0.500546 3.55998 0
M  V30 3070 C 278.59 0.639125 4.52509 0
M  V30 3071 C 279.587 1.51311 4.97394 0
M  V30 3072 C 277.272 0.821632 4.95535 0
M  V30 3073 C 279.266 2.55425 5.83984 0
M  V30 3074 C 276.953 1.86603 5.81913 0
M  V30 3075 C 277.951 2.73072 6.26036 0
M  V30 3076 O 277.639 3.75718 7.10698 0
M  V30 3077 H 277.371 -0.00857665 0.675946 0
M  V30 3078 H 279.925 0.623288 1.95715 0
M  V30 3079 H 278.155 -1.29575 3.64345 0
M  V30 3080 H 279.844 -0.995116 3.93513 0
M  V30 3081 H 280.61 1.38367 4.64844 0
M  V30 3082 H 276.489 0.158149 4.60729 0
M  V30 3083 H 280.033 3.22949 6.18344 0
M  V30 3084 H 275.93 1.99564 6.13876 0
M  V30 3085 H 276.698 3.72374 7.2889 0
M  V30 3086 N 279.361 -1.56624 0.175154 0
M  V30 3087 C 280.324 -2.16934 -0.739738 0
M  V30 3088 C 281.324 -1.11842 -1.15533 0
M  V30 3089 O 282.514 -1.37335 -1.07167 0
M  V30 3090 C 279.646 -2.75531 -2.00738 0
M  V30 3091 H 280.839 -2.99131 -0.214639 0
M  V30 3092 H 278.392 -1.56123 -0.0744197 0
M  V30 3093 H 279.127 -1.97078 -2.57548 0
M  V30 3094 H 278.912 -3.52444 -1.71831 0
M  V30 3095 H 280.402 -3.21904 -2.66021 0
M  V30 3096 N 280.839 0.0985539 -1.57292 0
M  V30 3097 C 282.079 0.808332 -1.87737 0
M  V30 3098 C 282.443 1.7607 -0.76572 0
M  V30 3099 O 283.644 2.51358 -0.952499 0
M  V30 3100 C 281.915 1.52093 -3.23423 0
M  V30 3101 S 283.474 2.26947 -3.75554 0
M  V30 3102 H 280.292 0.269377 -0.657995 0
M  V30 3103 H 282.894 0.0656269 -1.9539 0
M  V30 3104 H 281.598 0.81363 -4.02254 0
M  V30 3105 H 281.129 2.30361 -3.189 0
M  V30 3106 H 283.144 3.53027 -3.48692 0
M  V30 3107 N 282.317 1.53212 0.369288 0
M  V30 3108 C 283.594 1.59815 1.12776 0
M  V30 3109 C 283.974 0.403402 2.0721 0
M  V30 3110 O 283.322 -0.606667 2.20299 0
M  V30 3111 C 283.532 2.94664 1.87013 0
M  V30 3112 C 284.88 3.49109 2.41677 0
M  V30 3113 O 285.904 2.96669 1.97144 0
M  V30 3114 O 284.763 4.40775 3.23079 0
M  V30 3115 H 281.857 0.645376 0.517125 0
M  V30 3116 H 284.403 1.65553 0.37285 0
M  V30 3117 H 283.175 3.73061 1.18071 0
M  V30 3118 H 282.798 2.92401 2.69421 0
M  V30 3119 N 283.795 -0.628877 1.44509 0
M  V30 3120 C 285.072 -1.38733 1.37886 0
M  V30 3121 C 285.452 -2.11065 0.0387008 0
M  V30 3122 O 284.8 -2.06476 -0.97878 0
M  V30 3123 C 285.01 -2.35188 2.57852 0
M  V30 3124 C 286.358 -2.9845 3.02014 0
M  V30 3125 O 287.382 -2.45513 2.58073 0
M  V30 3126 O 286.241 -3.94487 3.78209 0
M  V30 3127 H 283.335 -0.621015 0.54614 0
M  V30 3128 H 285.881 -0.653744 1.56602 0
M  V30 3129 H 284.653 -1.80855 3.46998 0
M  V30 3130 H 284.276 -3.1596 2.4136 0
M  V30 3131 N 285.273 -1.31445 -0.869486 0
M  V30 3132 C 286.206 -1.13465 -1.97992 0
M  V30 3133 C 287.184 -0.0380291 -1.62556 0
M  V30 3134 O 288.368 -0.194544 -1.87493 0
M  V30 3135 C 285.495 -0.733822 -3.30655 0
M  V30 3136 C 284.541 -1.83356 -3.85075 0
M  V30 3137 S 285.374 -3.43909 -4.10472 0
M  V30 3138 C 286.53 -3.05763 -5.46132 0
M  V30 3139 H 286.763 -2.07471 -2.1294 0
M  V30 3140 H 284.296 -1.15936 -1.01972 0
M  V30 3141 H 286.254 -0.509306 -4.07328 0
M  V30 3142 H 284.915 0.187123 -3.13542 0
M  V30 3143 H 284.108 -1.50574 -4.80982 0
M  V30 3144 H 283.71 -2.01315 -3.15195 0
M  V30 3145 H 286.002 -2.54686 -6.27807 0
M  V30 3146 H 286.945 -4.00635 -5.83864 0
M  V30 3147 H 287.353 -2.43192 -5.09429 0
M  V30 3148 N 286.751 1.08385 -1.14413 0
M  V30 3149 C 287.661 2.18856 -0.844951 0
M  V30 3150 C 288.677 1.73121 0.174668 0
M  V30 3151 O 289.853 2.014 0.00312857 0
M  V30 3152 C 286.918 3.45155 -0.32696 0
M  V30 3153 C 285.979 4.05513 -1.40916 0
M  V30 3154 C 285.212 5.25784 -0.915793 0
M  V30 3155 O 285.435 5.69884 0.242651 0
M  V30 3156 O 284.369 5.77545 -1.69487 0
M  V30 3157 H 288.195 2.46919 -1.76818 0
M  V30 3158 H 285.78 1.17524 -0.922411 0
M  V30 3159 H 287.662 4.21377 -0.0440211 0
M  V30 3160 H 286.337 3.18668 0.568539 0
M  V30 3161 H 285.244 3.30879 -1.74556 0
M  V30 3162 H 286.577 4.3625 -2.27919 0
M  V30 3163 N 288.23 0.939286 1.26551 0
M  V30 3164 C 289.478 0.58469 1.93457 0
M  V30 3165 C 289.799 -0.878774 1.74076 0
M  V30 3166 O 289.069 -1.62421 1.09528 0
M  V30 3167 H 287.649 0.21325 0.715914 0
M  V30 3168 H 290.311 1.1942 1.54029 0
M  V30 3169 H 289.407 0.800849 3.0165 0
M  V30 3170 N 289.708 -1.40897 0.706093 0
M  V30 3171 C 290.64 -2.29199 0.00815776 0
M  V30 3172 C 291.653 -1.45336 -0.733582 0
M  V30 3173 O 292.842 -1.68727 -0.582537 0
M  V30 3174 C 289.942 -3.23417 -1.01265 0
M  V30 3175 C 289.115 -4.36089 -0.338387 0
M  V30 3176 C 288.174 -5.10811 -1.26326 0
M  V30 3177 O 287.2 -5.64215 -0.751651 0
M  V30 3178 N 288.402 -5.19269 -2.595 0
M  V30 3179 H 291.167 -2.89738 0.766297 0
M  V30 3180 H 288.728 -1.52164 0.55296 0
M  V30 3181 H 290.72 -3.70276 -1.63334 0
M  V30 3182 H 289.29 -2.64112 -1.67223 0
M  V30 3183 H 288.51 -3.91479 0.462352 0
M  V30 3184 H 289.798 -5.08634 0.130031 0
M  V30 3185 H 289.196 -4.77347 -3.03573 0
M  V30 3186 H 287.753 -5.69667 -3.16737 0
M  V30 3187 N 291.186 -0.45159 -1.50991 0
M  V30 3188 C 292.116 0.342898 -2.30969 0
M  V30 3189 C 293.097 1.00815 -1.37005 0
M  V30 3190 O 294.282 1.00907 -1.65926 0
M  V30 3191 C 291.412 1.43637 -3.16205 0
M  V30 3192 C 290.366 0.893818 -4.18563 0
M  V30 3193 C 289.692 2.08411 -4.92411 0
M  V30 3194 C 290.992 -0.0815568 -5.22236 0
M  V30 3195 H 292.686 -0.324556 -2.97636 0
M  V30 3196 H 290.232 -0.157531 -1.43136 0
M  V30 3197 H 292.185 1.9995 -3.70942 0
M  V30 3198 H 290.909 2.13232 -2.47386 0
M  V30 3199 H 289.568 0.352798 -3.64898 0
M  V30 3200 H 289.216 2.76658 -4.20082 0
M  V30 3201 H 288.916 1.72741 -5.61636 0
M  V30 3202 H 290.44 2.65251 -5.49976 0
M  V30 3203 H 291.854 0.391742 -5.7196 0
M  V30 3204 H 290.251 -0.351551 -5.99069 0
M  V30 3205 H 291.321 -1.01374 -4.74185 0
M  V30 3206 N 292.664 1.56529 -0.183458 0
M  V30 3207 C 293.91 1.97537 0.459036 0
M  V30 3208 C 294.243 1.06989 1.62071 0
M  V30 3209 O 293.518 0.11948 1.94133 0
M  V30 3210 C 293.801 3.47874 0.930368 0
M  V30 3211 C 293.654 4.492 -0.232317 0
M  V30 3212 C 294.973 4.01612 1.79989 0
M  V30 3213 H 292.092 0.718204 0.165383 0
M  V30 3214 H 294.734 1.88042 -0.272038 0
M  V30 3215 H 292.884 3.56095 1.55333 0
M  V30 3216 H 294.556 4.53027 -0.86972 0
M  V30 3217 H 292.799 4.24657 -0.885928 0
M  V30 3218 H 293.47 5.51823 0.139796 0
M  V30 3219 H 295.946 3.96097 1.27461 0
M  V30 3220 H 294.822 5.07195 2.09867 0
M  V30 3221 H 295.083 3.46163 2.74998 0
M  V30 3222 N 294.142 -0.090211 1.57342 0
M  V30 3223 C 295.367 -0.810082 1.90925 0
M  V30 3224 C 295.792 -1.71248 0.778187 0
M  V30 3225 O 295.15 -1.79278 -0.269991 0
M  V30 3226 C 295.198 -1.59529 3.23393 0
M  V30 3227 O 294.302 -2.70461 3.11327 0
M  V30 3228 H 293.643 -0.222231 0.625707 0
M  V30 3229 H 296.173 -0.0639716 2.045 0
M  V30 3230 H 296.183 -1.97847 3.5682 0
M  V30 3231 H 294.858 -0.933055 4.05299 0
M  V30 3232 H 293.435 -2.35135 2.89423 0
M  V30 3233 N 295.62 -1.53406 -0.361157 0
M  V30 3234 C 296.869 -1.69022 -1.10066 0
M  V30 3235 C 297.182 -0.450838 -1.90333 0
M  V30 3236 O 298.388 -0.487617 -2.67085 0
M  V30 3237 C 296.844 -2.98812 -2.00598 0
M  V30 3238 C 296.452 -4.30027 -1.25621 0
M  V30 3239 C 298.196 -3.23795 -2.74513 0
M  V30 3240 C 296.103 -5.50903 -2.1508 0
M  V30 3241 H 295.033 -0.629776 -0.414606 0
M  V30 3242 H 297.684 -1.79907 -0.361348 0
M  V30 3243 H 296.066 -2.8174 -2.78278 0
M  V30 3244 H 297.24 -4.57745 -0.529739 0
M  V30 3245 H 295.555 -4.11522 -0.635496 0
M  V30 3246 H 298.152 -4.11289 -3.41681 0
M  V30 3247 H 298.495 -2.40045 -3.40123 0
M  V30 3248 H 299.028 -3.41561 -2.03914 0
M  V30 3249 H 295.767 -6.37143 -1.54041 0
M  V30 3250 H 295.287 -5.27459 -2.85565 0
M  V30 3251 H 296.966 -5.85865 -2.74538 0
M  V30 3252 N 297.098 0.621204 -1.44841 0
M  V30 3253 C 298.048 1.72663 -1.48901 0
M  V30 3254 C 299.032 1.56964 -0.353702 0
M  V30 3255 O 300.224 1.66532 -0.599669 0
M  V30 3256 C 297.353 3.11381 -1.44557 0
M  V30 3257 C 296.439 3.32514 -2.6324 0
M  V30 3258 N 296.83 3.23969 -3.8843 0
M  V30 3259 C 295.128 3.63343 -2.58647 0
M  V30 3260 C 295.829 3.46062 -4.67564 0
M  V30 3261 N 294.805 3.69407 -3.98797 0
M  V30 3262 H 298.607 1.64529 -2.43531 0
M  V30 3263 H 296.121 0.82401 -1.39942 0
M  V30 3264 H 298.118 3.90667 -1.4555 0
M  V30 3265 H 296.778 3.20674 -0.509731 0
M  V30 3266 H 297.789 3.02669 -4.20252 0
M  V30 3267 H 294.466 3.79556 -1.73906 0
M  V30 3268 H 295.856 3.44963 -5.76585 0
M  V30 3269 N 298.576 1.31904 0.862503 0
M  V30 3270 C 299.801 1.25135 1.65397 0
M  V30 3271 C 300.226 -0.179 1.87246 0
M  V30 3272 O 299.584 -1.1277 1.4196 0
M  V30 3273 C 299.632 2.00832 2.99498 0
M  V30 3274 O 298.736 1.35075 3.89652 0
M  V30 3275 H 298.077 0.431655 0.504549 0
M  V30 3276 H 300.607 1.74094 1.07483 0
M  V30 3277 H 300.617 2.10709 3.49379 0
M  V30 3278 H 299.292 3.04847 2.82916 0
M  V30 3279 H 297.869 1.33696 3.48109 0
M  V30 3280 N 300.054 -1.07777 1.14986 0
M  V30 3281 C 301.465 -1.61766 0.932127 0
M  V30 3282 C 301.816 -1.88974 -0.527581 0
M  V30 3283 O 300.941 -1.65198 -1.39781 0
M  V30 3284 C 301.536 -2.93891 1.68563 0
M  V30 3285 C 300.095 -3.44639 1.5133 0
M  V30 3286 C 299.242 -2.18767 1.704 0
M  V30 3287 H 302.193 -0.909201 1.30074 0
M  V30 3288 H 302.214 -3.62623 1.15259 0
M  V30 3289 H 301.726 -2.74057 2.74799 0
M  V30 3290 H 299.827 -3.69564 0.474702 0
M  V30 3291 H 299.94 -4.20966 2.28746 0
M  V30 3292 H 298.304 -2.28253 1.13016 0
M  V30 3293 H 299.087 -2.01433 2.77992 0
M  V30 3294 N 301.532 -0.945985 -1.26051 0
M  V30 3295 C 302.442 -0.465633 -2.29933 0
M  V30 3296 C 303.458 0.462761 -1.67733 0
M  V30 3297 O 304.634 0.341118 -1.9849 0
M  V30 3298 C 301.699 0.256994 -3.45746 0
M  V30 3299 C 300.76 -0.708549 -4.23412 0
M  V30 3300 C 299.993 -0.0203135 -5.33696 0
M  V30 3301 O 300.216 1.19571 -5.57726 0
M  V30 3302 O 299.15 -0.701459 -5.97799 0
M  V30 3303 H 302.976 -1.32866 -2.73094 0
M  V30 3304 H 300.561 -0.712071 -1.31339 0
M  V30 3305 H 302.443 0.663852 -4.16138 0
M  V30 3306 H 301.118 1.09533 -3.04605 0
M  V30 3307 H 300.025 -1.16545 -3.55483 0
M  V30 3308 H 301.358 -1.51465 -4.68315 0
M  V30 3309 N 303.011 1.40521 -0.713556 0
M  V30 3310 C 303.921 2.34522 -0.0606667 0
M  V30 3311 C 304.937 1.57193 0.74607 0
M  V30 3312 O 306.113 1.89591 0.679493 0
M  V30 3313 C 303.178 3.36081 0.851491 0
M  V30 3314 C 302.239 4.29286 0.0349339 0
M  V30 3315 C 301.472 5.25994 0.903649 0
M  V30 3316 O 301.695 5.28616 2.14292 0
M  V30 3317 O 300.629 6.00918 0.343723 0
M  V30 3318 H 304.455 2.91968 -0.835972 0
M  V30 3319 H 302.04 1.41681 -0.47402 0
M  V30 3320 H 303.922 3.98369 1.37404 0
M  V30 3321 H 302.597 2.81052 1.60598 0
M  V30 3322 H 301.504 3.70289 -0.532633 0
M  V30 3323 H 302.837 4.87462 -0.681287 0
M  V30 3324 N 304.489 0.459591 1.5075 0
M  V30 3325 C 305.421 -0.37665 2.26084 0
M  V30 3326 C 306.434 -0.967109 1.30961 0
M  V30 3327 O 307.623 -0.857468 1.56556 0
M  V30 3328 C 304.723 -1.54112 3.01832 0
M  V30 3329 C 303.896 -1.06553 4.24223 0
M  V30 3330 C 302.955 -2.1027 4.82362 0
M  V30 3331 O 301.981 -1.68798 5.43595 0
M  V30 3332 N 303.183 -3.42974 4.68347 0
M  V30 3333 H 305.948 0.269124 2.98489 0
M  V30 3334 H 303.509 0.28972 1.59287 0
M  V30 3335 H 305.501 -2.23165 3.37608 0
M  V30 3336 H 304.071 -2.0918 2.32298 0
M  V30 3337 H 303.291 -0.201274 3.93686 0
M  V30 3338 H 304.579 -0.725516 5.03601 0
M  V30 3339 H 303.977 -3.79385 4.19623 0
M  V30 3340 H 302.534 -4.07858 5.08424 0
M  V30 3341 N 305.967 -1.56429 0.191757 0
M  V30 3342 C 307.244 -1.89224 -0.495332 0
M  V30 3343 C 307.624 -1.10478 -1.79883 0
M  V30 3344 O 306.972 -0.204852 -2.2758 0
M  V30 3345 C 307.182 -3.41548 -0.717367 0
M  V30 3346 C 308.53 -4.11711 -1.03823 0
M  V30 3347 O 309.554 -3.4698 -0.805204 0
M  V30 3348 O 308.413 -5.2611 -1.47887 0
M  V30 3349 H 305.507 -0.785788 -0.25781 0
M  V30 3350 H 308.053 -1.68111 0.231721 0
M  V30 3351 H 306.825 -3.90772 0.203287 0
M  V30 3352 H 306.448 -3.68342 -1.497 0
M  V30 3353 N 307.445 0.0818655 -1.57387 0
M  V30 3354 C 308.692 0.782914 -1.86753 0
M  V30 3355 C 309.02 1.78082 -0.782118 0
M  V30 3356 O 308.275 1.94426 0.22295 0
M  V30 3357 C 308.574 1.53513 -3.22752 0
M  V30 3358 C 308.24 0.678134 -4.45771 0
M  V30 3359 C 306.902 0.441929 -4.79166 0
M  V30 3360 C 309.254 0.0832243 -5.21134 0
M  V30 3361 C 306.582 -0.398833 -5.85343 0
M  V30 3362 C 308.934 -0.744935 -6.28199 0
M  V30 3363 C 307.598 -0.991107 -6.60101 0
M  V30 3364 H 306.868 0.286489 -0.683378 0
M  V30 3365 H 309.515 0.0439808 -1.91449 0
M  V30 3366 H 307.82 2.34599 -3.138 0
M  V30 3367 H 309.517 2.08218 -3.42705 0
M  V30 3368 H 306.107 0.872357 -4.19628 0
M  V30 3369 H 310.291 0.252847 -4.95655 0
M  V30 3370 H 305.547 -0.598405 -6.08465 0
M  V30 3371 H 309.721 -1.21271 -6.8576 0
M  V30 3372 H 307.348 -1.64437 -7.42202 0
M  V30 3373 N 308.923 1.53595 0.353017 0
M  V30 3374 C 309.853 1.83902 1.43883 0
M  V30 3375 C 310.834 0.693421 1.55324 0
M  V30 3376 O 312.019 0.944452 1.69687 0
M  V30 3377 C 309.149 2.04016 2.8106 0
M  V30 3378 C 308.103 3.19814 2.84434 0
M  V30 3379 C 307.429 3.25244 4.24406 0
M  V30 3380 C 308.729 4.58133 2.50822 0
M  V30 3381 H 310.423 2.74835 1.1877 0
M  V30 3382 H 307.969 1.32242 0.569917 0
M  V30 3383 H 309.922 2.238 3.57059 0
M  V30 3384 H 308.646 1.09804 3.07588 0
M  V30 3385 H 307.305 2.9987 2.10887 0
M  V30 3386 H 306.953 2.28646 4.48029 0
M  V30 3387 H 306.653 4.03054 4.27576 0
M  V30 3388 H 308.177 3.47228 5.0226 0
M  V30 3389 H 309.591 4.77995 3.16534 0
M  V30 3390 H 307.988 5.38276 2.6529 0
M  V30 3391 H 309.058 4.62387 1.46034 0
M  V30 3392 N 310.401 -0.613514 1.45168 0
M  V30 3393 C 311.629 -1.39946 1.5239 0
M  V30 3394 C 312.044 -1.88167 0.154531 0
M  V30 3395 O 311.401 -1.61872 -0.842843 0
M  V30 3396 C 311.452 -2.60795 2.50337 0
M  V30 3397 O 311.173 -2.1458 3.81952 0
M  V30 3398 C 312.674 -3.53723 2.67198 0
M  V30 3399 H 309.894 -0.428593 0.516284 0
M  V30 3400 H 312.438 -0.748753 1.903 0
M  V30 3401 H 310.593 -3.21919 2.15515 0
M  V30 3402 H 311.007 -2.93055 4.34993 0
M  V30 3403 H 312.481 -4.35079 3.39721 0
M  V30 3404 H 312.958 -4.0368 1.73029 0
M  V30 3405 H 313.564 -2.98456 3.02992 0
M  V30 3406 N 311.879 -1.3236 -0.855495 0
M  V30 3407 C 312.826 -1.21225 -1.964 0
M  V30 3408 C 313.796 -0.0946204 -1.6583 0
M  V30 3409 O 314.981 -0.27002 -1.8888 0
M  V30 3410 C 312.121 -0.940419 -3.32039 0
M  V30 3411 C 311.234 -2.14276 -3.75113 0
M  V30 3412 C 310.369 -1.80648 -4.9954 0
M  V30 3413 C 309.408 -2.97208 -5.35102 0
M  V30 3414 N 308.545 -2.63678 -6.50706 0
M  V30 3415 H 313.385 -2.16042 -2.05255 0
M  V30 3416 H 310.922 -1.07451 -1.00463 0
M  V30 3417 H 312.88 -0.763311 -4.10158 0
M  V30 3418 H 311.51 -0.0290413 -3.22787 0
M  V30 3419 H 310.562 -2.43017 -2.92655 0
M  V30 3420 H 311.874 -3.01468 -3.97389 0
M  V30 3421 H 311.028 -1.59484 -5.85363 0
M  V30 3422 H 309.767 -0.906678 -4.79198 0
M  V30 3423 H 308.772 -3.19004 -4.47791 0
M  V30 3424 H 309.997 -3.87918 -5.57401 0
M  V30 3425 H 307.943 -1.76238 -6.31883 0
M  V30 3426 H 307.86 -3.444 -6.72997 0
M  V30 3427 H 309.128 -2.45942 -7.39684 0
M  V30 3428 N 313.357 1.07166 -1.15556 0
M  V30 3429 C 314.307 2.12649 -0.82247 0
M  V30 3430 C 315.291 1.59725 0.194129 0
M  V30 3431 O 316.483 1.76999 -0.00540402 0
M  V30 3432 C 313.612 3.41847 -0.315572 0
M  V30 3433 C 312.698 4.0162 -1.36244 0
M  V30 3434 N 313.089 4.35625 -2.5703 0
M  V30 3435 C 311.387 4.29114 -1.21562 0
M  V30 3436 C 312.088 4.83017 -3.24144 0
M  V30 3437 N 311.064 4.81906 -2.51531 0
M  V30 3438 H 314.866 2.36776 -1.74111 0
M  V30 3439 H 312.38 1.24622 -1.0413 0
M  V30 3440 H 314.377 4.16859 -0.0585855 0
M  V30 3441 H 313.037 3.19163 0.597105 0
M  V30 3442 H 314.048 4.26253 -2.94158 0
M  V30 3443 H 310.725 4.15919 -0.362988 0
M  V30 3444 H 312.115 5.18605 -4.27198 0
M  V30 3445 N 314.835 0.952656 1.25548 0
M  V30 3446 C 315.798 0.475794 2.24207 0
M  V30 3447 C 316.798 -0.419428 1.55234 0
M  V30 3448 O 317.988 -0.216994 1.72843 0
M  V30 3449 C 315.12 -0.312814 3.39462 0
M  V30 3450 H 316.313 1.34779 2.67908 0
M  V30 3451 H 313.866 0.735739 1.37901 0
M  V30 3452 H 314.601 -1.20257 3.01179 0
M  V30 3453 H 314.386 0.329404 3.90714 0
M  V30 3454 H 315.876 -0.635986 4.12729 0
M  V30 3455 N 316.313 -1.40141 0.720998 0
M  V30 3456 C 317.538 -2.05618 0.271258 0
M  V30 3457 C 317.963 -1.53978 -1.08039 0
M  V30 3458 O 317.321 -0.677463 -1.68167 0
M  V30 3459 C 317.369 -3.59609 0.267197 0
M  V30 3460 O 316.473 -4.05526 -0.749814 0
M  V30 3461 H 315.814 -0.651904 0.126162 0
M  V30 3462 H 318.344 -1.79439 0.982997 0
M  V30 3463 H 318.354 -4.0786 0.106744 0
M  V30 3464 H 317.029 -3.96559 1.25354 0
M  V30 3465 H 315.606 -3.68722 -0.556644 0
M  V30 3466 N 317.792 -0.46758 -1.50504 0
M  V30 3467 C 318.742 0.34698 -2.25344 0
M  V30 3468 C 319.726 0.964469 -1.2879 0
M  V30 3469 O 320.918 0.8776 -1.53711 0
M  V30 3470 C 318.047 1.43042 -3.1208 0
M  V30 3471 C 317.133 0.82084 -4.16081 0
M  V30 3472 N 317.524 -0.0567602 -5.05768 0
M  V30 3473 C 315.822 1.08517 -4.32597 0
M  V30 3474 C 316.523 -0.402343 -5.80307 0
M  V30 3475 N 315.499 0.221607 -5.43148 0
M  V30 3476 H 319.301 -0.329129 -2.92051 0
M  V30 3477 H 316.815 -0.281508 -1.59942 0
M  V30 3478 H 318.812 2.02712 -3.64299 0
M  V30 3479 H 317.472 2.10856 -2.46921 0
M  V30 3480 H 318.483 -0.425349 -5.1615 0
M  V30 3481 H 315.16 1.75855 -3.78657 0
M  V30 3482 H 316.55 -1.11834 -6.62528 0
M  V30 3483 N 319.27 1.56325 -0.20005 0
M  V30 3484 C 320.498 2.02105 0.442874 0
M  V30 3485 C 320.913 1.08014 1.5485 0
M  V30 3486 O 320.27 0.0858797 1.82298 0
M  V30 3487 C 320.321 3.47549 0.994583 0
M  V30 3488 O 320.042 4.38049 -0.0669322 0
M  V30 3489 C 321.543 4.0887 1.7129 0
M  V30 3490 H 318.763 0.661807 0.110691 0
M  V30 3491 H 321.307 2.02134 -0.310207 0
M  V30 3492 H 319.462 3.48204 1.69803 0
M  V30 3493 H 319.876 5.23368 0.344462 0
M  V30 3494 H 321.35 5.12475 2.05118 0
M  V30 3495 H 321.827 3.52615 2.61838 0
M  V30 3496 H 322.433 4.12002 1.05518 0
M  V30 3497 N 320.748 -0.0735177 1.57428 0
M  V30 3498 C 321.996 -0.771472 1.86796 0
M  V30 3499 C 322.317 -1.78201 0.791804 0
M  V30 3500 O 321.587 -1.95074 -0.179718 0
M  V30 3501 H 320.167 -0.28791 0.689287 0
M  V30 3502 H 322.829 -0.0500161 1.94836 0
M  V30 3503 H 321.925 -1.28874 2.8425 0
M  V30 3504 N 322.226 -1.5378 -0.344866 0
M  V30 3505 C 323.451 -1.75211 -1.10977 0
M  V30 3506 C 323.876 -0.48936 -1.81623 0
M  V30 3507 O 323.234 0.557925 -1.72502 0
M  V30 3508 C 323.282 -2.93147 -2.09993 0
M  V30 3509 O 322.386 -2.63203 -3.17487 0
M  V30 3510 H 321.727 -0.581241 -0.321021 0
M  V30 3511 H 324.257 -2.00738 -0.395661 0
M  V30 3512 H 324.267 -3.19898 -2.53237 0
M  V30 3513 H 322.942 -3.84731 -1.5797 0
M  V30 3514 H 321.519 -2.47336 -2.79069 0
M  V30 3515 N 323.704 0.605807 -1.45491 0
M  V30 3516 C 324.95 1.36481 -1.50813 0
M  V30 3517 C 325.305 1.91826 -0.148469 0
M  V30 3518 O 324.598 1.72211 0.839869 0
M  V30 3519 C 324.792 2.53012 -2.52428 0
M  V30 3520 C 324.621 2.09078 -3.98141 0
M  V30 3521 C 323.391 1.95167 -4.66088 0
M  V30 3522 C 325.589 1.66438 -4.86624 0
M  V30 3523 N 323.571 1.45062 -5.96515 0
M  V30 3524 C 324.942 1.27761 -6.06694 0
M  V30 3525 C 326.997 1.54046 -4.7347 0
M  V30 3526 C 325.7 0.779286 -7.15066 0
M  V30 3527 C 327.726 1.05618 -5.81892 0
M  V30 3528 C 327.088 0.67906 -7.01119 0
M  V30 3529 H 323.187 0.493267 -0.606805 0
M  V30 3530 H 325.771 0.692347 -1.81974 0
M  V30 3531 H 323.942 3.17851 -2.23215 0
M  V30 3532 H 325.674 3.19897 -2.47887 0
M  V30 3533 H 322.429 2.16407 -4.21266 0
M  V30 3534 H 322.853 1.22237 -6.65873 0
M  V30 3535 H 327.495 1.81827 -3.81705 0
M  V30 3536 H 325.213 0.489026 -8.06619 0
M  V30 3537 H 328.799 0.964529 -5.73749 0
M  V30 3538 H 327.679 0.310091 -7.83587 0
M  V30 3539 N 325.182 1.32811 0.848464 0
M  V30 3540 C 326.431 1.23075 1.59798 0
M  V30 3541 C 326.744 -0.204419 1.94529 0
M  V30 3542 O 327.95 -0.423701 2.68173 0
M  V30 3543 C 326.406 2.15594 2.88179 0
M  V30 3544 C 326.014 3.64228 2.60849 0
M  V30 3545 C 327.758 2.14709 3.66197 0
M  V30 3546 C 325.665 4.48689 3.85269 0
M  V30 3547 H 324.595 0.457091 0.599653 0
M  V30 3548 H 327.246 1.57813 0.936342 0
M  V30 3549 H 325.628 1.73778 3.55833 0
M  V30 3550 H 326.802 4.14424 2.01467 0
M  V30 3551 H 325.117 3.67306 1.96151 0
M  V30 3552 H 327.714 2.75046 4.58534 0
M  V30 3553 H 328.057 1.13966 4.00397 0
M  V30 3554 H 328.59 2.54837 3.05455 0
M  V30 3555 H 325.329 5.5027 3.56207 0
M  V30 3556 H 324.849 4.03241 4.44024 0
M  V30 3557 H 326.528 4.62006 4.52946 0
M  V30 3558 N 326.66 -1.06551 1.16123 0
M  V30 3559 C 327.908 -1.78947 0.939267 0
M  V30 3560 C 328.229 -1.87532 -0.534476 0
M  V30 3561 O 327.499 -1.38211 -1.38833 0
M  V30 3562 H 326.079 -0.662807 0.344523 0
M  V30 3563 H 328.741 -1.28725 1.46342 0
M  V30 3564 H 327.837 -2.81117 1.35572 0
M  V30 3565 N 328.138 -0.959301 -1.25041 0
M  V30 3566 C 329.068 -0.501388 -2.28053 0
M  V30 3567 C 330.049 0.454673 -1.63911 0
M  V30 3568 O 331.234 0.352618 -1.90972 0
M  V30 3569 C 328.364 0.217224 -3.4662 0
M  V30 3570 C 327.318 -0.654034 -4.22973 0
M  V30 3571 C 326.644 0.195589 -5.34342 0
M  V30 3572 C 327.944 -1.93447 -4.85155 0
M  V30 3573 H 329.638 -1.36238 -2.66608 0
M  V30 3574 H 327.184 -0.656534 -1.28163 0
M  V30 3575 H 329.137 0.548732 -4.17812 0
M  V30 3576 H 327.861 1.1125 -3.07068 0
M  V30 3577 H 326.52 -0.968693 -3.5357 0
M  V30 3578 H 326.168 1.09076 -4.91031 0
M  V30 3579 H 325.868 -0.384091 -5.86343 0
M  V30 3580 H 327.392 0.521958 -6.08365 0
M  V30 3581 H 328.806 -1.66908 -5.48466 0
M  V30 3582 H 327.203 -2.46018 -5.47353 0
M  V30 3583 H 328.273 -2.63466 -4.07079 0
M  V30 3584 N 329.616 1.39756 -0.72842 0
M  V30 3585 C 331.032 1.5442 -0.403308 0
M  V30 3586 C 331.232 1.69694 1.08656 0
M  V30 3587 O 330.288 1.69373 1.87267 0
M  V30 3588 C 331.601 2.76555 -1.18058 0
M  V30 3589 C 333.149 2.90384 -1.16815 0
M  V30 3590 C 333.624 4.15449 -1.92785 0
M  V30 3591 N 335.115 4.22475 -1.89918 0
M  V30 3592 C 335.85 5.1818 -2.45514 0
M  V30 3593 N 335.346 6.19714 -3.09719 0
M  V30 3594 N 337.139 5.1035 -2.35584 0
M  V30 3595 H 329.29 1.28089 -1.69431 0
M  V30 3596 H 331.553 0.620327 -0.716867 0
M  V30 3597 H 331.259 2.7159 -2.23455 0
M  V30 3598 H 331.133 3.69033 -0.780662 0
M  V30 3599 H 333.52 2.94846 -0.12234 0
M  V30 3600 H 333.601 1.98988 -1.6074 0
M  V30 3601 H 333.245 4.11749 -2.97364 0
M  V30 3602 H 333.175 5.05877 -1.46272 0
M  V30 3603 H 335.666 3.49743 -1.43138 0
M  V30 3604 H 335.979 6.8919 -3.49625 0
M  V30 3605 H 334.324 6.20121 -3.13807 0
M  V30 3606 H 337.515 4.2996 -1.85072 0
M  V30 3607 H 337.688 5.84761 -2.79211 0
M  V30 3608 N 331.094 0.475555 1.50254 0
M  V30 3609 C 332.042 -0.330276 2.30243 0
M  V30 3610 C 333.036 -0.986306 1.37726 0
M  V30 3611 O 334.242 -0.9169 1.54897 0
M  V30 3612 H 330.617 -0.125353 0.741479 0
M  V30 3613 H 332.588 0.364702 2.96163 0
M  V30 3614 C 331.337 -1.39704 3.18399 0
M  V30 3615 H 330.66 -0.901621 3.89501 0
M  V30 3616 H 332.1 -1.93336 3.77355 0
M  V30 3617 C 330.559 -2.4014 2.36293 0
M  V30 3618 O 331.089 -3.45504 2.04914 0
M  V30 3619 N 329.295 -2.1197 1.98789 0
M  V30 3620 H 328.842 -1.2631 2.24507 0
M  V30 3621 H 328.8 -2.79403 1.44157 0
M  V30 3622 N 332.573 -1.56217 0.208337 0
M  V30 3623 C 333.503 -2.22694 -0.702116 0
M  V30 3624 C 334.484 -1.19432 -1.2112 0
M  V30 3625 O 335.669 -1.47978 -1.25762 0
M  V30 3626 C 332.799 -2.8966 -1.9161 0
M  V30 3627 C 331.753 -3.9928 -1.5414 0
M  V30 3628 C 331.079 -4.53476 -2.83308 0
M  V30 3629 C 332.379 -5.17012 -0.741339 0
M  V30 3630 H 334.073 -2.99034 -0.147898 0
M  V30 3631 H 331.619 -1.43831 -0.0696951 0
M  V30 3632 H 333.572 -3.34852 -2.55836 0
M  V30 3633 H 332.296 -2.10746 -2.49507 0
M  V30 3634 H 330.955 -3.54799 -0.922668 0
M  V30 3635 H 330.603 -3.71308 -3.39322 0
M  V30 3636 H 330.303 -5.27451 -2.58976 0
M  V30 3637 H 331.827 -5.01378 -3.485 0
M  V30 3638 H 333.241 -5.58667 -1.28699 0
M  V30 3639 H 331.638 -5.97137 -0.595627 0
M  V30 3640 H 332.708 -4.8423 0.254851 0
M  V30 3641 N 334.051 0.0651679 -1.57465 0
M  V30 3642 C 335.328 0.79644 -1.78651 0
M  V30 3643 C 335.708 1.95454 -0.797566 0
M  V30 3644 O 335.056 2.27882 0.167946 0
M  V30 3645 C 335.266 1.26322 -3.25337 0
M  V30 3646 C 336.614 1.6939 -3.89348 0
M  V30 3647 O 337.638 1.35872 -3.29268 0
M  V30 3648 O 336.497 2.31471 -4.95059 0
M  V30 3649 H 333.591 0.382157 -0.733407 0
M  V30 3650 H 336.137 0.0447311 -1.69641 0
M  V30 3651 H 334.909 0.434859 -3.88876 0
M  V30 3652 H 334.532 2.07604 -3.39096 0
M  V30 3653 N 335.529 1.53961 0.336706 0
M  V30 3654 C 336.459 1.85417 1.41925 0
M  V30 3655 C 337.44 0.709856 1.5458 0
M  V30 3656 O 338.625 0.962396 1.68676 0
M  V30 3657 C 335.755 2.06985 2.78881 0
M  V30 3658 C 334.709 3.22813 2.81026 0
M  V30 3659 C 334.035 3.29727 4.20932 0
M  V30 3660 C 335.335 4.60767 2.45949 0
M  V30 3661 H 337.029 2.76079 1.15848 0
M  V30 3662 H 334.575 1.32839 0.555859 0
M  V30 3663 H 336.528 2.27575 3.54665 0
M  V30 3664 H 335.252 1.13061 3.06406 0
M  V30 3665 H 333.911 3.0209 2.07695 0
M  V30 3666 H 333.559 2.33385 4.45579 0
M  V30 3667 H 333.259 4.07566 4.23277 0
M  V30 3668 H 334.783 3.52536 4.98549 0
M  V30 3669 H 336.197 4.81325 3.11446 0
M  V30 3670 H 334.594 5.4106 2.59566 0
M  V30 3671 H 335.664 4.6391 1.41122 0
M  V30 3672 N 337.007 -0.598083 1.45811 0
M  V30 3673 C 337.954 -1.7082 1.55207 0
M  V30 3674 C 338.924 -1.61278 0.39732 0
M  V30 3675 O 340.109 -1.80717 0.612038 0
M  V30 3676 C 337.249 -3.09144 1.53376 0
M  V30 3677 C 336.362 -3.29423 2.79472 0
M  V30 3678 C 335.497 -4.57907 2.69248 0
M  V30 3679 C 334.536 -4.71476 3.90354 0
M  V30 3680 N 333.673 -5.9127 3.78608 0
M  V30 3681 H 338.513 -1.62125 2.50039 0
M  V30 3682 H 336.05 -0.790389 1.24062 0
M  V30 3683 H 338.008 -3.89186 1.50301 0
M  V30 3684 H 336.638 -3.16773 0.620876 0
M  V30 3685 H 335.69 -2.43091 2.92594 0
M  V30 3686 H 337.002 -3.3532 3.69272 0
M  V30 3687 H 336.156 -5.46157 2.64192 0
M  V30 3688 H 334.895 -4.54423 1.77063 0
M  V30 3689 H 333.9 -3.81648 3.95759 0
M  V30 3690 H 335.125 -4.76751 4.83617 0
M  V30 3691 H 333.071 -5.88813 2.89199 0
M  V30 3692 H 332.988 -5.98369 4.6205 0
M  V30 3693 H 334.256 -6.81992 3.77501 0
M  V30 3694 N 338.485 -1.33259 -0.841409 0
M  V30 3695 C 339.733 -1.24326 -1.59334 0
M  V30 3696 C 340.054 0.191564 -1.94057 0
M  V30 3697 O 339.324 1.11967 -1.60749 0
M  V30 3698 H 337.904 -0.457174 -0.590763 0
M  V30 3699 H 340.566 -1.66947 -1.00571 0
M  V30 3700 H 339.662 -1.8352 -2.52442 0
M  V30 3701 N 339.963 1.05934 -1.16686 0
M  V30 3702 C 340.873 2.17014 -0.891183 0
M  V30 3703 C 341.889 1.73453 0.137907 0
M  V30 3704 O 343.065 2.01361 -0.039592 0
M  V30 3705 C 340.13 3.44384 -0.400099 0
M  V30 3706 C 339.191 4.02433 -1.49486 0
M  V30 3707 C 338.424 5.23723 -1.02711 0
M  V30 3708 O 338.647 5.7027 0.121716 0
M  V30 3709 O 337.581 5.7382 -1.81699 0
M  V30 3710 H 341.407 2.43113 -1.82015 0
M  V30 3711 H 338.992 1.15541 -0.947132 0
M  V30 3712 H 340.874 4.21189 -0.133392 0
M  V30 3713 H 339.549 3.19802 0.500817 0
M  V30 3714 H 338.456 3.27102 -1.81535 0
M  V30 3715 H 339.789 4.31317 -2.37121 0
M  V30 3716 N 341.441 0.965919 1.2453 0
M  V30 3717 C 342.688 0.626831 1.92554 0
M  V30 3718 C 343.016 -0.837739 1.75534 0
M  V30 3719 O 342.271 -1.61793 1.10098 0
M  V30 3720 C 342.57 0.945428 3.44669 0
M  V30 3721 C 342.236 2.39785 3.81856 0
M  V30 3722 C 340.898 2.79483 3.91718 0
M  V30 3723 C 343.25 3.34055 4.00071 0
M  V30 3724 C 340.578 4.12496 4.1721 0
M  V30 3725 C 342.93 4.66694 4.27059 0
M  V30 3726 C 341.594 5.06172 4.3514 0
M  V30 3727 H 340.864 0.229374 0.704605 0
M  V30 3728 H 343.511 1.21707 1.4785 0
M  V30 3729 H 341.816 0.272926 3.90848 0
M  V30 3730 H 343.513 0.661484 3.95507 0
M  V30 3731 H 340.103 2.08003 3.74743 0
M  V30 3732 H 344.287 3.04571 3.91855 0
M  V30 3733 H 339.543 4.42709 4.21685 0
M  V30 3734 H 343.717 5.3971 4.40097 0
M  V30 3735 H 341.344 6.09262 4.54646 0
M  V30 3736 N 342.919 -1.39368 0.735821 0
M  V30 3737 C 344.168 -1.99733 0.281004 0
M  V30 3738 C 344.481 -1.59055 -1.13846 0
M  V30 3739 O 345.687 -2.12262 -1.69284 0
M  V30 3740 C 344.143 -3.57057 0.451462 0
M  V30 3741 C 343.751 -4.06697 1.87886 0
M  V30 3742 C 345.495 -4.2446 0.0584616 0
M  V30 3743 C 343.402 -5.56598 1.99883 0
M  V30 3744 H 342.332 -0.747163 0.101311 0
M  V30 3745 H 344.983 -1.59357 0.909819 0
M  V30 3746 H 343.365 -3.95234 -0.246263 0
M  V30 3747 H 344.539 -3.79853 2.60861 0
M  V30 3748 H 342.854 -3.5196 2.22515 0
M  V30 3749 H 345.451 -5.34549 0.127099 0
M  V30 3750 H 345.794 -4.04444 -0.986433 0
M  V30 3751 H 346.327 -3.9146 0.707374 0
M  V30 3752 H 343.066 -5.81494 3.02564 0
M  V30 3753 H 342.586 -5.85242 1.31346 0
M  V30 3754 H 344.265 -6.22022 1.78039 0
M  V30 3755 N 344.397 -0.483516 -1.5 0
M  V30 3756 C 345.643 0.0593261 -2.03313 0
M  V30 3757 C 345.998 1.36288 -1.35806 0
M  V30 3758 O 345.291 1.85519 -0.478897 0
M  V30 3759 C 345.485 0.286226 -3.56252 0
M  V30 3760 C 345.314 -0.993788 -4.38582 0
M  V30 3761 C 344.084 -1.54064 -4.81241 0
M  V30 3762 C 346.282 -1.89249 -4.78215 0
M  V30 3763 N 344.264 -2.76838 -5.47936 0
M  V30 3764 C 345.635 -2.96606 -5.44449 0
M  V30 3765 C 347.69 -1.90138 -4.60165 0
M  V30 3766 C 346.393 -4.04857 -5.94544 0
M  V30 3767 C 348.419 -2.97353 -5.1121 0
M  V30 3768 C 347.781 -4.03429 -5.77429 0
M  V30 3769 H 343.88 -0.0186322 -0.781778 0
M  V30 3770 H 346.464 -0.654489 -1.8337 0
M  V30 3771 H 344.635 0.969086 -3.76116 0
M  V30 3772 H 346.367 0.824515 -3.96212 0
M  V30 3773 H 343.122 -1.08813 -4.6093 0
M  V30 3774 H 343.546 -3.39221 -5.85882 0
M  V30 3775 H 348.188 -1.09441 -4.0839 0
M  V30 3776 H 345.906 -4.86363 -6.4535 0
M  V30 3777 H 349.492 -2.99039 -4.99066 0
M  V30 3778 H 348.372 -4.85025 -6.16214 0
M  V30 3779 N 345.875 1.56104 -0.216619 0
M  V30 3780 C 347.121 1.98466 0.417033 0
M  V30 3781 C 347.454 1.10403 1.59765 0
M  V30 3782 O 346.729 0.160632 1.93836 0
M  V30 3783 C 347.012 3.49769 0.85637 0
M  V30 3784 C 346.865 4.48606 -0.327546 0
M  V30 3785 C 348.184 4.05339 1.7143 0
M  V30 3786 H 345.303 0.721551 0.150112 0
M  V30 3787 H 347.945 1.87423 -0.311864 0
M  V30 3788 H 346.095 3.5931 1.47745 0
M  V30 3789 H 347.767 4.5108 -0.965618 0
M  V30 3790 H 346.01 4.22682 -0.975805 0
M  V30 3791 H 346.681 5.51995 0.0227149 0
M  V30 3792 H 349.157 3.98712 1.19031 0
M  V30 3793 H 348.033 5.11533 1.99061 0
M  V30 3794 H 348.294 3.51918 2.67593 0
M  V30 3795 N 347.353 -0.0568162 1.57498 0
M  V30 3796 C 348.63 -0.786954 1.79071 0
M  V30 3797 C 349.01 -1.95028 0.80792 0
M  V30 3798 O 348.358 -2.27968 -0.155858 0
M  V30 3799 C 348.568 -1.24594 3.26002 0
M  V30 3800 C 349.916 -1.67323 3.90241 0
M  V30 3801 O 350.94 -1.34124 3.29984 0
M  V30 3802 O 349.799 -2.28842 4.9628 0
M  V30 3803 H 346.893 -0.378262 0.735423 0
M  V30 3804 H 349.439 -0.035734 1.69662 0
M  V30 3805 H 348.211 -0.41423 3.89101 0
M  V30 3806 H 347.834 -2.05803 3.40192 0
M  V30 3807 N 348.832 -1.54138 -0.328536 0
M  V30 3808 C 350.08 -1.71765 -1.06496 0
M  V30 3809 C 350.401 -0.49149 -1.88704 0
M  V30 3810 O 349.671 0.494539 -1.89555 0
M  V30 3811 H 348.251 -0.633295 -0.396164 0
M  V30 3812 H 350.913 -1.91429 -0.366176 0
M  V30 3813 H 350.009 -2.5951 -1.73381 0
M  V30 3814 N 350.31 0.590341 -1.46126 0
M  V30 3815 C 351.535 1.37991 -1.54833 0
M  V30 3816 C 351.96 1.87163 -0.187506 0
M  V30 3817 O 351.318 1.61133 0.831008 0
M  V30 3818 C 351.366 2.54867 -2.55098 0
M  V30 3819 O 350.47 3.56061 -2.08073 0
M  V30 3820 H 349.811 0.411265 -0.521303 0
M  V30 3821 H 352.341 0.716819 -1.91632 0
M  V30 3822 H 352.351 3.01886 -2.74461 0
M  V30 3823 H 351.026 2.18429 -3.53923 0
M  V30 3824 H 349.603 3.15574 -1.98664 0
M  V30 3825 N 351.788 1.33704 0.83433 0
M  V30 3826 C 352.738 1.20899 1.93306 0
M  V30 3827 C 353.722 0.110783 1.60518 0
M  V30 3828 O 354.914 0.339331 1.73717 0
M  V30 3829 C 352.043 0.955018 3.29749 0
M  V30 3830 C 351.129 2.09587 3.68692 0
M  V30 3831 N 351.52 3.34621 3.79292 0
M  V30 3832 C 349.818 2.00358 3.98463 0
M  V30 3833 C 350.519 4.09472 4.13167 0
M  V30 3834 N 349.495 3.37954 4.25779 0
M  V30 3835 H 353.297 2.15665 1.99664 0
M  V30 3836 H 350.811 1.25777 1.02732 0
M  V30 3837 H 352.808 0.844208 4.08263 0
M  V30 3838 H 351.468 0.0159317 3.24696 0
M  V30 3839 H 352.479 3.69313 3.63082 0
M  V30 3840 H 349.156 1.14137 4.01596 0
M  V30 3841 H 350.546 5.17391 4.28668 0
M  V30 3842 N 353.266 -1.05314 1.17247 0
M  V30 3843 C 354.512 -1.78557 0.961513 0
M  V30 3844 C 354.845 -1.87419 -0.508697 0
M  V30 3845 O 354.12 -1.37307 -1.37757 0
M  V30 3846 C 354.403 -3.22514 1.60176 0
M  V30 3847 C 354.256 -3.21673 3.14399 0
M  V30 3848 C 355.575 -4.20318 1.30463 0
M  V30 3849 H 352.694 -0.6482 0.350723 0
M  V30 3850 H 355.336 -1.23102 1.44727 0
M  V30 3851 H 353.486 -3.69867 1.18871 0
M  V30 3852 H 355.158 -2.82405 3.64753 0
M  V30 3853 H 353.401 -2.60048 3.47214 0
M  V30 3854 H 354.072 -4.23271 3.54324 0
M  V30 3855 H 356.548 -3.81454 1.66229 0
M  V30 3856 H 355.424 -5.19289 1.77848 0
M  V30 3857 H 355.685 -4.41526 0.22521 0
M  V30 3858 N 354.744 -0.972509 -1.24016 0
M  V30 3859 C 356.021 -0.553733 -1.87598 0
M  V30 3860 C 356.401 0.969158 -1.87538 0
M  V30 3861 O 355.749 1.84255 -1.35139 0
M  V30 3862 C 355.959 -1.15076 -3.29482 0
M  V30 3863 C 357.307 -1.23862 -4.06132 0
M  V30 3864 O 358.331 -1.10363 -3.38672 0
M  V30 3865 O 357.19 -1.45252 -5.26844 0
M  V30 3866 H 354.284 -0.185331 -0.805966 0
M  V30 3867 H 356.83 -1.06709 -1.31952 0
M  V30 3868 H 355.602 -2.19333 -3.2405 0
M  V30 3869 H 355.225 -0.621746 -3.92709 0
M  V30 3870 N 356.222 1.38976 -0.743202 0
M  V30 3871 C 357.452 2.04339 -0.304807 0
M  V30 3872 C 357.86 1.56162 1.06819 0
M  V30 3873 O 357.203 0.725284 1.68776 0
M  V30 3874 C 357.265 3.58716 -0.237369 0
M  V30 3875 C 356.929 4.29905 -1.55018 0
M  V30 3876 C 357.926 4.55987 -2.49744 0
M  V30 3877 C 355.611 4.68294 -1.81675 0
M  V30 3878 C 357.605 5.19478 -3.69353 0
M  V30 3879 C 355.292 5.31512 -3.0156 0
M  V30 3880 C 356.29 5.57037 -3.9522 0
M  V30 3881 O 355.978 6.18941 -5.12998 0
M  V30 3882 H 355.71 0.663439 -0.12971 0
M  V30 3883 H 358.264 1.78852 -1.01001 0
M  V30 3884 H 356.494 3.83133 0.524003 0
M  V30 3885 H 358.183 4.05543 0.170121 0
M  V30 3886 H 358.949 4.26767 -2.30423 0
M  V30 3887 H 354.828 4.47779 -1.09615 0
M  V30 3888 H 358.372 5.39318 -4.42473 0
M  V30 3889 H 354.269 5.60153 -3.20778 0
M  V30 3890 H 355.037 6.37433 -5.13441 0
M  V30 3891 N 357.7 0.491464 1.49741 0
M  V30 3892 C 358.925 -0.0557177 2.07325 0
M  V30 3893 C 359.35 -1.30925 1.35056 0
M  V30 3894 O 358.708 -1.76733 0.404365 0
M  V30 3895 C 358.756 -0.302074 3.59333 0
M  V30 3896 O 357.86 -1.37868 3.88672 0
M  V30 3897 H 357.201 0.0219956 0.663636 0
M  V30 3898 H 359.731 0.688352 1.92673 0
M  V30 3899 H 359.741 -0.536464 4.04458 0
M  V30 3900 H 358.416 0.61383 4.11345 0
M  V30 3901 H 356.993 -1.12999 3.55367 0
M  V30 3902 N 359.178 -1.55987 0.224894 0
M  V30 3903 C 360.126 -2.21808 -0.700283 0
M  V30 3904 C 361.12 -1.19854 -1.19714 0
M  V30 3905 O 362.326 -1.37925 -1.15658 0
M  V30 3906 H 358.701 -0.711226 -0.244258 0
M  V30 3907 H 360.672 -2.98152 -0.121749 0
M  V30 3908 C 359.421 -2.91444 -1.8962 0
M  V30 3909 H 358.744 -3.69655 -1.52299 0
M  V30 3910 H 360.184 -3.40894 -2.52125 0
M  V30 3911 C 358.643 -1.94098 -2.75368 0
M  V30 3912 O 359.173 -1.46004 -3.74227 0
M  V30 3913 N 357.379 -1.61675 -2.41474 0
M  V30 3914 H 356.926 -2.00979 -1.61137 0
M  V30 3915 H 356.884 -0.968036 -2.99126 0
M  V30 3916 N 360.656 0.0484629 -1.57525 0
M  V30 3917 C 361.902 0.738854 -1.89506 0
M  V30 3918 C 362.257 1.73989 -0.821319 0
M  V30 3919 O 361.55 1.90825 0.172129 0
M  V30 3920 C 361.744 1.46632 -3.25935 0
M  V30 3921 C 361.573 0.537254 -4.46479 0
M  V30 3922 C 360.343 0.165484 -5.05029 0
M  V30 3923 C 362.541 -0.176085 -5.13998 0
M  V30 3924 N 360.523 -0.766868 -6.09091 0
M  V30 3925 C 361.894 -0.96478 -6.12448 0
M  V30 3926 C 363.949 -0.24509 -4.97296 0
M  V30 3927 C 362.652 -1.8161 -6.95996 0
M  V30 3928 C 364.678 -1.08347 -5.81391 0
M  V30 3929 C 364.04 -1.86014 -6.79395 0
M  V30 3930 H 360.139 0.245067 -0.742608 0
M  V30 3931 H 362.723 -0.000476161 -1.947 0
M  V30 3932 H 360.894 2.17623 -3.21706 0
M  V30 3933 H 362.626 2.10757 -3.45491 0
M  V30 3934 H 359.381 0.523466 -4.70698 0
M  V30 3935 H 359.805 -1.22698 -6.65788 0
M  V30 3936 H 364.447 0.341063 -4.21422 0
M  V30 3937 H 362.165 -2.41313 -7.71229 0
M  V30 3938 H 365.751 -1.14014 -5.70519 0
M  V30 3939 H 364.631 -2.4984 -7.43337 0
M  V30 3940 N 362.134 1.5431 0.320358 0
M  V30 3941 C 363.097 1.83195 1.3774 0
M  V30 3942 C 364.097 0.703906 1.44575 0
M  V30 3943 O 365.287 0.972214 1.44546 0
M  V30 3944 C 362.419 1.99487 2.76438 0
M  V30 3945 H 363.612 2.77642 1.1338 0
M  V30 3946 H 361.165 1.46076 0.556012 0
M  V30 3947 H 361.9 1.07262 3.06048 0
M  V30 3948 H 361.685 2.81575 2.7287 0
M  V30 3949 H 363.175 2.23271 3.52902 0
M  V30 3950 N 363.613 -0.582584 1.46437 0
M  V30 3951 C 365.024 -1.1647 1.45916 0
M  V30 3952 C 365.375 -1.95177 0.200077 0
M  V30 3953 O 364.5 -2.04874 -0.696819 0
M  V30 3954 C 365.095 -2.11885 2.64367 0
M  V30 3955 C 363.654 -2.65421 2.66887 0
M  V30 3956 C 362.801 -1.41294 2.38603 0
M  V30 3957 H 365.752 -0.370514 1.54314 0
M  V30 3958 H 365.773 -2.9535 2.39892 0
M  V30 3959 H 365.285 -1.54573 3.5599 0
M  V30 3960 H 363.386 -3.26602 1.79338 0
M  V30 3961 H 363.499 -3.08147 3.66854 0
M  V30 3962 H 361.863 -1.71109 1.88663 0
M  V30 3963 H 362.646 -0.858125 3.32402 0
M  V30 3964 N 365.091 -1.34144 -0.827227 0
M  V30 3965 C 366.339 -1.26009 -1.58007 0
M  V30 3966 C 366.66 0.170971 -1.94249 0
M  V30 3967 O 365.93 1.10256 -1.61927 0
M  V30 3968 H 364.51 -0.463414 -0.585881 0
M  V30 3969 H 367.172 -1.68005 -0.987951 0
M  V30 3970 H 366.268 -1.86187 -2.50481 0
M  V30 3971 N 366.569 1.04691 -1.17803 0
M  V30 3972 C 367.479 2.16057 -0.914151 0
M  V30 3973 C 368.495 1.73589 0.119503 0
M  V30 3974 O 369.671 2.01308 -0.0609468 0
M  V30 3975 C 366.736 3.4394 -0.436603 0
M  V30 3976 C 365.797 4.00825 -1.53746 0
M  V30 3977 C 365.03 5.22604 -1.0826 0
M  V30 3978 O 365.253 5.70367 0.0612244 0
M  V30 3979 O 364.187 5.7186 -1.87775 0
M  V30 3980 H 368.013 2.41169 -1.84584 0
M  V30 3981 H 365.598 1.1453 -0.959334 0
M  V30 3982 H 367.48 4.21024 -0.178057 0
M  V30 3983 H 366.155 3.20316 0.466869 0
M  V30 3984 H 365.062 3.25158 -1.84995 0
M  V30 3985 H 366.395 4.28778 -2.41683 0
M  V30 3986 N 368.047 0.979072 1.23499 0
M  V30 3987 C 369.458 0.684391 1.73704 0
M  V30 3988 C 369.809 -0.799448 1.79174 0
M  V30 3989 O 368.934 -1.62531 1.42873 0
M  V30 3990 C 369.529 1.23564 3.15464 0
M  V30 3991 C 368.088 0.99063 3.6313 0
M  V30 3992 C 367.235 1.36416 2.41425 0
M  V30 3993 H 370.186 1.15307 1.09041 0
M  V30 3994 H 370.207 0.607417 3.7562 0
M  V30 3995 H 369.719 2.31561 3.1145 0
M  V30 3996 H 367.82 -0.0733136 3.72528 0
M  V30 3997 H 367.933 1.64427 4.5 0
M  V30 3998 H 366.297 0.782616 2.42378 0
M  V30 3999 H 367.08 2.45387 2.40083 0
M  V30 4000 N 369.525 -1.3858 0.750561 0
M  V30 4001 C 370.753 -2.04471 0.316098 0
M  V30 4002 C 371.168 -1.56606 -1.05452 0
M  V30 4003 O 370.525 -0.737784 -1.66922 0
M  V30 4004 C 370.576 -3.60025 0.326275 0
M  V30 4005 O 370.297 -4.06133 1.6428 0
M  V30 4006 C 371.798 -4.43131 -0.122429 0
M  V30 4007 H 369.018 -0.65717 0.135528 0
M  V30 4008 H 371.562 -1.77329 1.01857 0
M  V30 4009 H 369.717 -3.86014 -0.327431 0
M  V30 4010 H 370.131 -5.00547 1.56693 0
M  V30 4011 H 371.605 -5.51963 -0.0641473 0
M  V30 4012 H 372.082 -4.23333 -1.16988 0
M  V30 4013 H 372.688 -4.22323 0.50229 0
M  V30 4014 N 371.003 -0.499398 -1.49478 0
M  V30 4015 C 372.228 0.044722 -2.07352 0
M  V30 4016 C 372.653 1.30207 -1.35749 0
M  V30 4017 O 372.011 1.76516 -0.413732 0
M  V30 4018 C 372.059 0.283013 -3.59488 0
M  V30 4019 O 371.163 1.35804 -3.89398 0
M  V30 4020 H 370.504 -0.0255147 -0.66351 0
M  V30 4021 H 373.034 -0.698561 -1.92305 0
M  V30 4022 H 373.044 0.515007 -4.04737 0
M  V30 4023 H 371.719 -0.635636 -4.11014 0
M  V30 4024 H 370.296 1.11113 -3.55961 0
M  V30 4025 N 372.481 1.55866 -0.233164 0
M  V30 4026 C 373.897 1.59133 0.121988 0
M  V30 4027 C 374.097 1.25016 1.58029 0
M  V30 4028 O 373.153 0.990922 2.32243 0
M  V30 4029 C 374.466 2.99932 -0.214792 0
M  V30 4030 C 376.014 3.12601 -0.157971 0
M  V30 4031 C 376.489 4.55597 -0.46859 0
M  V30 4032 N 377.98 4.61305 -0.418585 0
M  V30 4033 C 378.715 5.69903 -0.63227 0
M  V30 4034 N 378.211 6.86819 -0.90835 0
M  V30 4035 N 380.004 5.59264 -0.563913 0
M  V30 4036 H 372.155 1.76315 -1.18434 0
M  V30 4037 H 374.418 0.820093 -0.475553 0
M  V30 4038 H 374.124 3.29588 -1.22739 0
M  V30 4039 H 373.998 3.74327 0.464691 0
M  V30 4040 H 376.385 2.82735 0.845283 0
M  V30 4041 H 376.466 2.40511 -0.871102 0
M  V30 4042 H 376.11 4.86182 -1.46934 0
M  V30 4043 H 376.04 5.25928 0.265865 0
M  V30 4044 H 378.531 3.77297 -0.213368 0
M  V30 4045 H 378.844 7.65507 -1.05919 0
M  V30 4046 H 377.189 6.88536 -0.945673 0
M  V30 4047 H 380.38 4.66802 -0.348372 0
M  V30 4048 H 380.553 6.43831 -0.733847 0
M  V30 4049 N 373.959 -0.0401083 1.57549 0
M  V30 4050 C 375.184 -0.748931 1.93406 0
M  V30 4051 C 375.609 -1.68686 0.832274 0
M  V30 4052 O 374.967 -1.80047 -0.212818 0
M  V30 4053 C 375.015 -1.4916 3.28304 0
M  V30 4054 O 374.119 -2.6042 3.19774 0
M  V30 4055 H 373.46 -0.202212 0.63246 0
M  V30 4056 H 375.99 0.00112086 2.046 0
M  V30 4057 H 376 -1.86395 3.62934 0
M  V30 4058 H 374.675 -0.80364 4.08062 0
M  V30 4059 H 373.252 -2.25808 2.96758 0
M  V30 4060 N 375.437 -1.54477 -0.31217 0
M  V30 4061 C 376.369 -1.81011 -1.40598 0
M  V30 4062 C 377.382 -0.692546 -1.47335 0
M  V30 4063 O 378.571 -0.969847 -1.49854 0
M  V30 4064 C 375.671 -1.92307 -2.79054 0
M  V30 4065 C 374.844 -3.22594 -2.95384 0
M  V30 4066 C 373.903 -3.24448 -4.1427 0
M  V30 4067 O 372.929 -3.98035 -4.06887 0
M  V30 4068 N 374.131 -2.49042 -5.24365 0
M  V30 4069 H 376.896 -2.75408 -1.18196 0
M  V30 4070 H 374.457 -1.53914 -0.502202 0
M  V30 4071 H 376.449 -1.90962 -3.56813 0
M  V30 4072 H 375.019 -1.04955 -2.94454 0
M  V30 4073 H 374.239 -3.36806 -2.04831 0
M  V30 4074 H 375.527 -4.08593 -3.03198 0
M  V30 4075 H 374.925 -1.88867 -5.33241 0
M  V30 4076 H 373.482 -2.53463 -6.005 0
M  V30 4077 N 376.915 0.57481 -1.46744 0
M  V30 4078 C 378.163 1.33009 -1.52161 0
M  V30 4079 C 378.484 1.94185 -0.178092 0
M  V30 4080 O 377.754 1.7899 0.796196 0
M  V30 4081 H 376.334 0.493873 -0.560445 0
M  V30 4082 H 378.996 0.672589 -1.82927 0
M  V30 4083 H 378.092 2.13273 -2.27862 0
M  V30 4084 N 378.394 1.34581 0.820102 0
M  V30 4085 C 379.304 1.28471 1.96297 0
M  V30 4086 C 380.32 0.191902 1.72939 0
M  V30 4087 O 381.496 0.418879 1.96996 0
M  V30 4088 C 378.561 1.04281 3.30645 0
M  V30 4089 C 377.622 2.22745 3.66992 0
M  V30 4090 C 376.855 1.997 4.9493 0
M  V30 4091 O 377.078 0.956656 5.6232 0
M  V30 4092 O 376.012 2.86723 5.2922 0
M  V30 4093 H 379.838 2.24624 2.04396 0
M  V30 4094 H 377.423 1.14816 0.955913 0
M  V30 4095 H 379.305 0.925841 4.11104 0
M  V30 4096 H 377.98 0.111697 3.23507 0
M  V30 4097 H 376.887 2.40003 2.86966 0
M  V30 4098 H 378.22 3.14257 3.78819 0
M  V30 4099 N 379.872 -1.04064 1.18357 0
M  V30 4100 C 381.149 -1.74252 0.888581 0
M  V30 4101 C 381.529 -2.02138 -0.60856 0
M  V30 4102 O 380.877 -1.66656 -1.56327 0
M  V30 4103 C 381.087 -3.0277 1.73584 0
M  V30 4104 C 382.435 -3.76506 1.96286 0
M  V30 4105 O 383.459 -3.12668 1.70637 0
M  V30 4106 O 382.318 -4.91243 2.39464 0
M  V30 4107 H 379.412 -0.758271 0.330082 0
M  V30 4108 H 381.958 -1.1013 1.2911 0
M  V30 4109 H 380.73 -2.78299 2.75073 0
M  V30 4110 H 380.353 -3.74631 1.33183 0
M  V30 4111 N 381.35 -0.985608 -1.22978 0
M  V30 4112 C 382.59 -0.665487 -1.93263 0
M  V30 4113 C 382.954 0.78706 -1.75127 0
M  V30 4114 O 384.155 1.21826 -2.39608 0
M  V30 4115 C 382.426 -1.0515 -3.41582 0
M  V30 4116 S 383.985 -0.848637 -4.30516 0
M  V30 4117 H 380.803 -0.24355 -0.667985 0
M  V30 4118 H 383.405 -1.26635 -1.48942 0
M  V30 4119 H 382.109 -2.10517 -3.52293 0
M  V30 4120 H 381.64 -0.442134 -3.90908 0
M  V30 4121 H 383.655 0.264717 -4.95493 0
M  V30 4122 N 382.828 1.3818 -0.7579 0
M  V30 4123 C 384.074 2.00316 -0.316453 0
M  V30 4124 C 384.407 1.60026 1.10025 0
M  V30 4125 O 383.682 0.839835 1.75434 0
M  V30 4126 C 383.965 3.57349 -0.444245 0
M  V30 4127 C 383.818 4.07591 -1.90236 0
M  V30 4128 C 385.137 4.3981 0.1598 0
M  V30 4129 H 382.256 0.727741 -0.116459 0
M  V30 4130 H 384.898 1.6406 -0.958352 0
M  V30 4131 H 383.048 3.88365 0.102233 0
M  V30 4132 H 384.72 3.87199 -2.50748 0
M  V30 4133 H 382.963 3.60297 -2.41595 0
M  V30 4134 H 383.634 5.16677 -1.94291 0
M  V30 4135 H 386.11 4.14971 -0.306314 0
M  V30 4136 H 384.986 5.48885 0.0401675 0
M  V30 4137 H 385.247 4.24102 1.24859 0
M  V30 4138 N 384.306 0.507319 1.49211 0
M  V30 4139 C 385.239 -0.314509 2.26022 0
M  V30 4140 C 386.217 -0.964849 1.30879 0
M  V30 4141 O 387.401 -0.993707 1.6018 0
M  V30 4142 C 384.528 -1.44346 3.06402 0
M  V30 4143 C 383.574 -0.90685 4.16748 0
M  V30 4144 S 384.407 0.207392 5.35098 0
M  V30 4145 C 385.563 -0.924573 6.19033 0
M  V30 4146 H 385.796 0.337416 2.95379 0
M  V30 4147 H 383.329 0.292718 1.516 0
M  V30 4148 H 385.287 -2.09029 3.53295 0
M  V30 4149 H 383.948 -2.06702 2.36502 0
M  V30 4150 H 383.141 -1.75309 4.72528 0
M  V30 4151 H 382.743 -0.33712 3.72478 0
M  V30 4152 H 385.035 -1.82839 6.52362 0
M  V30 4153 H 385.978 -0.405248 7.06939 0
M  V30 4154 H 386.386 -1.19476 5.51712 0
M  V30 4155 N 385.784 -1.5574 0.241426 0
M  V30 4156 C 386.717 -2.17168 -0.700935 0
M  V30 4157 C 387.695 -1.12206 -1.1768 0
M  V30 4158 O 388.879 -1.40565 -1.25593 0
M  V30 4159 C 386.006 -2.76796 -1.95196 0
M  V30 4160 C 385.052 -3.94764 -1.61442 0
M  V30 4161 S 385.885 -5.30613 -0.72182 0
M  V30 4162 C 387.041 -5.93691 -1.98197 0
M  V30 4163 H 387.274 -2.96761 -0.178882 0
M  V30 4164 H 384.807 -1.54378 0.0259299 0
M  V30 4165 H 386.765 -3.11787 -2.67019 0
M  V30 4166 H 385.426 -1.9716 -2.44514 0
M  V30 4167 H 384.619 -4.35057 -2.54443 0
M  V30 4168 H 384.221 -3.61022 -0.976672 0
M  V30 4169 H 386.513 -6.10874 -2.92983 0
M  V30 4170 H 387.456 -6.89258 -1.62262 0
M  V30 4171 H 387.864 -5.22709 -2.13156 0
M  V30 4172 N 387.262 0.0317525 -1.57568 0
M  V30 4173 C 388.678 0.38735 -1.54828 0
M  V30 4174 C 388.878 1.7677 -0.967187 0
M  V30 4175 O 387.934 2.45581 -0.587063 0
M  V30 4176 C 389.247 0.291667 -2.99282 0
M  V30 4177 C 390.795 0.368946 -3.10818 0
M  V30 4178 C 391.27 0.302741 -4.56998 0
M  V30 4179 N 392.761 0.361617 -4.61786 0
M  V30 4180 C 393.496 0.333238 -5.72431 0
M  V30 4181 N 392.992 0.257308 -6.92322 0
M  V30 4182 N 394.785 0.382769 -5.60795 0
M  V30 4183 H 386.936 -0.871609 -1.93692 0
M  V30 4184 H 389.199 -0.331161 -0.888277 0
M  V30 4185 H 388.905 -0.656794 -3.45513 0
M  V30 4186 H 388.779 1.08638 -3.61217 0
M  V30 4187 H 391.166 1.30784 -2.64536 0
M  V30 4188 H 391.247 -0.455066 -2.5172 0
M  V30 4189 H 390.891 -0.632473 -5.03947 0
M  V30 4190 H 390.821 1.14482 -5.14005 0
M  V30 4191 H 393.312 0.422923 -3.75526 0
M  V30 4192 H 393.625 0.24068 -7.72425 0
M  V30 4193 H 391.97 0.223396 -6.94641 0
M  V30 4194 H 395.161 0.44006 -4.66027 0
M  V30 4195 H 395.334 0.357184 -6.47015 0
M  V30 4196 N 388.74 1.54641 0.303973 0
M  V30 4197 C 389.988 1.73437 1.0375 0
M  V30 4198 C 390.309 0.521449 1.87899 0
M  V30 4199 O 389.579 -0.46432 1.90318 0
M  V30 4200 H 388.159 0.639518 0.386039 0
M  V30 4201 H 390.821 1.91988 0.335675 0
M  V30 4202 H 389.917 2.62235 1.69231 0
M  V30 4203 N 390.218 -0.567019 1.47046 0
M  V30 4204 C 391.443 -1.3551 1.57009 0
M  V30 4205 C 391.868 -1.86841 0.217259 0
M  V30 4206 O 391.226 -1.62435 -0.805268 0
M  V30 4207 C 391.274 -2.50777 2.5912 0
M  V30 4208 O 390.378 -3.52706 2.13711 0
M  V30 4209 H 389.719 -0.402919 0.52778 0
M  V30 4210 H 392.249 -0.686241 1.92748 0
M  V30 4211 H 392.259 -2.97481 2.79229 0
M  V30 4212 H 390.934 -2.12771 3.57353 0
M  V30 4213 H 389.511 -3.12374 2.03659 0
M  V30 4214 N 391.696 -1.35014 -0.812953 0
M  V30 4215 C 392.944 -1.27678 -1.56661 0
M  V30 4216 C 393.265 0.150359 -1.94419 0
M  V30 4217 O 392.535 1.08532 -1.63088 0
M  V30 4218 H 391.115 -0.469602 -0.580933 0
M  V30 4219 H 393.777 -1.69043 -0.970076 0
M  V30 4220 H 392.873 -1.88833 -2.48492 0
M  V30 4221 N 393.175 1.03435 -1.18907 0
M  V30 4222 C 394.591 1.28973 -0.940111 0
M  V30 4223 C 394.791 1.97676 0.390691 0
M  V30 4224 O 393.847 2.26127 1.12352 0
M  V30 4225 C 395.16 2.14221 -2.11021 0
M  V30 4226 C 396.708 2.27547 -2.14922 0
M  V30 4227 C 397.183 3.16164 -3.31367 0
M  V30 4228 N 398.674 3.23752 -3.31269 0
M  V30 4229 C 399.409 3.92495 -4.18014 0
M  V30 4230 N 398.905 4.63515 -5.14904 0
M  V30 4231 N 400.698 3.88838 -4.05908 0
M  V30 4232 H 392.849 0.57252 -2.04538 0
M  V30 4233 H 395.112 0.315184 -0.894071 0
M  V30 4234 H 394.818 1.71054 -3.073 0
M  V30 4235 H 394.692 3.14919 -2.0762 0
M  V30 4236 H 397.079 2.69947 -1.19217 0
M  V30 4237 H 397.16 1.26418 -2.22378 0
M  V30 4238 H 396.804 2.74474 -4.27348 0
M  V30 4239 H 396.734 4.17339 -3.21148 0
M  V30 4240 H 399.225 2.73167 -2.61129 0
M  V30 4241 H 399.538 5.13583 -5.77453 0
M  V30 4242 H 397.883 4.62398 -5.18857 0
M  V30 4243 H 401.074 3.32491 -3.29495 0
M  V30 4244 H 401.247 4.4214 -4.73726 0
M  V30 4245 N 394.653 0.992116 1.22453 0
M  V30 4246 C 395.899 0.678177 1.91761 0
M  V30 4247 C 396.254 -0.781141 1.75829 0
M  V30 4248 O 395.547 -1.55747 1.11595 0
M  V30 4249 C 395.741 1.01832 3.42586 0
M  V30 4250 C 395.57 2.50916 3.73191 0
M  V30 4251 C 394.34 3.17308 3.93248 0
M  V30 4252 C 396.538 3.49032 3.77732 0
M  V30 4253 N 394.52 4.55876 4.11157 0
M  V30 4254 C 395.891 4.73055 4.00773 0
M  V30 4255 C 397.946 3.43349 3.60577 0
M  V30 4256 C 396.649 5.92089 4.0844 0
M  V30 4257 C 398.675 4.61759 3.69503 0
M  V30 4258 C 398.037 5.84582 3.92993 0
M  V30 4259 H 394.136 0.299425 0.722405 0
M  V30 4260 H 396.72 1.27197 1.47408 0
M  V30 4261 H 394.891 0.453118 3.85748 0
M  V30 4262 H 396.623 0.660454 3.99274 0
M  V30 4263 H 393.378 2.67778 3.9063 0
M  V30 4264 H 393.802 5.27748 4.24042 0
M  V30 4265 H 398.444 2.49408 3.41402 0
M  V30 4266 H 396.162 6.86435 4.26418 0
M  V30 4267 H 399.748 4.58951 3.57569 0
M  V30 4268 H 398.628 6.74676 3.99728 0
M  V30 4269 N 396.131 -1.37776 0.765217 0
M  V30 4270 C 397.079 -2.32209 0.134798 0
M  V30 4271 C 398.073 -1.54607 -0.692315 0
M  V30 4272 O 399.279 -1.70052 -0.590109 0
M  V30 4273 H 395.654 -0.751591 0.0248005 0
M  V30 4274 H 397.625 -2.8297 0.947119 0
M  V30 4275 C 396.374 -3.39841 -0.735063 0
M  V30 4276 H 395.697 -3.99654 -0.107991 0
M  V30 4277 H 397.137 -4.08296 -1.14326 0
M  V30 4278 C 395.596 -2.79378 -1.88281 0
M  V30 4279 O 396.126 -2.69608 -2.97783 0
M  V30 4280 N 394.332 -2.37016 -1.68142 0
M  V30 4281 H 393.879 -2.45162 -0.790772 0
M  V30 4282 H 393.837 -1.96905 -2.45104 0
M  V30 4283 N 397.609 -0.515225 -1.4894 0
M  V30 4284 C 398.886 0.0879088 -1.95402 0
M  V30 4285 C 399.266 1.52745 -1.45712 0
M  V30 4286 O 398.614 2.18238 -0.677093 0
M  V30 4287 C 398.824 -0.0141055 -3.48997 0
M  V30 4288 C 400.172 0.152646 -4.24326 0
M  V30 4289 O 401.196 0.0604025 -3.56149 0
M  V30 4290 O 400.055 0.34384 -5.45417 0
M  V30 4291 H 397.149 0.0874636 -0.822362 0
M  V30 4292 H 399.695 -0.578775 -1.59525 0
M  V30 4293 H 398.467 -1.01745 -3.77841 0
M  V30 4294 H 398.09 0.692091 -3.9153 0
M  V30 4295 N 399.087 1.5561 -0.249682 0
M  V30 4296 C 400.05 2.20217 0.635394 0
M  V30 4297 C 401.05 1.17227 1.10066 0
M  V30 4298 O 402.24 1.42292 1.00492 0
M  V30 4299 C 399.372 2.84794 1.87363 0
M  V30 4300 H 400.565 2.99814 0.0716752 0
M  V30 4301 H 398.118 1.563 -0.000153234 0
M  V30 4302 H 398.853 2.09142 2.47851 0
M  V30 4303 H 398.638 3.60241 1.5482 0
M  V30 4304 H 400.128 3.3423 2.5036 0
M  V30 4305 N 400.565 -0.0233959 1.57583 0
M  V30 4306 C 401.812 -0.713063 1.8953 0
M  V30 4307 C 402.14 -1.75056 0.847673 0
M  V30 4308 O 401.395 -1.95119 -0.150636 0
M  V30 4309 C 401.694 -1.41428 3.28227 0
M  V30 4310 C 401.36 -0.512222 4.47981 0
M  V30 4311 C 400.022 -0.263785 4.80476 0
M  V30 4312 C 402.374 0.110248 5.21083 0
M  V30 4313 C 399.702 0.615804 5.83459 0
M  V30 4314 C 402.054 0.977573 6.25001 0
M  V30 4315 C 400.718 1.23542 6.55968 0
M  V30 4316 H 399.988 -0.260928 0.69354 0
M  V30 4317 H 402.635 0.0271047 1.91481 0
M  V30 4318 H 400.94 -2.22791 3.22291 0
M  V30 4319 H 402.637 -1.95355 3.50196 0
M  V30 4320 H 399.227 -0.716013 4.22577 0
M  V30 4321 H 403.411 -0.0687137 4.96252 0
M  V30 4322 H 398.667 0.82382 6.05824 0
M  V30 4323 H 402.841 1.46638 6.80786 0
M  V30 4324 H 400.468 1.91871 7.35588 0
M  V30 4325 N 402.043 -1.548 -0.295768 0
M  V30 4326 C 403.283 -1.76069 -1.03823 0
M  V30 4327 C 403.647 -0.537992 -1.84309 0
M  V30 4328 O 404.848 -0.628514 -2.61349 0
M  V30 4329 C 403.119 -3.01705 -1.91596 0
M  V30 4330 S 404.678 -3.43998 -2.72416 0
M  V30 4331 H 401.496 -0.618852 -0.350062 0
M  V30 4332 H 404.098 -1.93009 -0.31106 0
M  V30 4333 H 402.802 -3.88812 -1.31351 0
M  V30 4334 H 402.333 -2.87366 -2.68671 0
M  V30 4335 H 404.348 -3.0148 -3.94112 0
M  V30 4336 N 403.521 0.559213 -1.47345 0
M  V30 4337 C 404.798 1.31997 -1.44348 0
M  V30 4338 C 405.178 2.1064 -0.139358 0
M  V30 4339 O 404.526 2.1091 0.879153 0
M  V30 4340 C 404.736 2.22618 -2.68779 0
M  V30 4341 C 406.084 2.83701 -3.1591 0
M  V30 4342 O 407.108 2.32921 -2.69493 0
M  V30 4343 O 405.967 3.75993 -3.966 0
M  V30 4344 H 403.061 0.594251 -0.575147 0
M  V30 4345 H 405.607 0.578282 -1.59543 0
M  V30 4346 H 404.379 1.64093 -3.55231 0
M  V30 4347 H 404.002 3.04085 -2.5616 0
M  V30 4348 N 404.999 1.35443 0.805782 0
M  V30 4349 C 406.415 1.15499 1.10146 0
M  V30 4350 C 406.615 -0.0319975 2.01475 0
M  V30 4351 O 405.671 -0.70236 2.42535 0
M  V30 4352 C 406.984 2.45833 1.73166 0
M  V30 4353 C 408.532 2.52047 1.85583 0
M  V30 4354 C 409.007 3.82427 2.52019 0
M  V30 4355 N 410.498 3.83682 2.59504 0
M  V30 4356 C 411.233 4.81294 3.11679 0
M  V30 4357 N 410.729 5.89294 3.64287 0
M  V30 4358 N 412.522 4.6873 3.1024 0
M  V30 4359 H 404.673 2.11469 0.198678 0
M  V30 4360 H 406.936 0.93594 0.150731 0
M  V30 4361 H 406.642 3.32874 1.13526 0
M  V30 4362 H 406.516 2.6044 2.72857 0
M  V30 4363 H 408.903 1.65435 2.44367 0
M  V30 4364 H 408.984 2.41354 0.847455 0
M  V30 4365 H 408.628 4.69437 1.93885 0
M  V30 4366 H 408.558 3.90409 3.53395 0
M  V30 4367 H 411.049 3.05648 2.22234 0
M  V30 4368 H 411.362 6.59768 4.02401 0
M  V30 4369 H 409.707 5.92985 3.62483 0
M  V30 4370 H 412.898 3.83496 2.68419 0
M  V30 4371 H 413.071 5.44965 3.50596 0
M  V30 4372 N 406.477 -1.02803 1.19454 0
M  V30 4373 C 407.424 -2.11099 0.933046 0
M  V30 4374 C 408.394 -1.65571 -0.132447 0
M  V30 4375 O 409.579 -1.90797 0.00987576 0
M  V30 4376 C 406.719 -3.41763 0.478747 0
M  V30 4377 C 405.832 -4.00833 1.6111 0
M  V30 4378 C 404.967 -5.19511 1.10825 0
M  V30 4379 C 404.006 -5.70639 2.21445 0
M  V30 4380 N 403.143 -6.80589 1.72461 0
M  V30 4381 H 407.983 -2.32804 1.86028 0
M  V30 4382 H 405.52 -1.14179 0.927441 0
M  V30 4383 H 407.478 -4.16736 0.196745 0
M  V30 4384 H 406.108 -3.20166 -0.411493 0
M  V30 4385 H 405.16 -3.23066 2.00829 0
M  V30 4386 H 406.472 -4.34794 2.4445 0
M  V30 4387 H 405.626 -6.01645 0.781533 0
M  V30 4388 H 404.365 -4.87086 0.244606 0
M  V30 4389 H 403.37 -4.87116 2.54947 0
M  V30 4390 H 404.595 -6.05102 3.08267 0
M  V30 4391 H 402.541 -6.50016 0.884056 0
M  V30 4392 H 402.458 -7.13681 2.49389 0
M  V30 4393 H 403.726 -7.66317 1.42755 0
M  V30 4394 N 407.956 -0.998596 -1.21925 0
M  V30 4395 C 408.886 -0.573688 -2.26343 0
M  V30 4396 C 409.867 0.402296 -1.65274 0
M  V30 4397 O 411.052 0.291683 -1.91997 0
M  V30 4398 C 408.182 0.106839 -3.47136 0
M  V30 4399 C 407.136 -0.788269 -4.20678 0
M  V30 4400 C 406.462 0.0254927 -5.34694 0
M  V30 4401 C 407.762 -2.08784 -4.78755 0
M  V30 4402 H 409.456 -1.44651 -2.62138 0
M  V30 4403 H 407.002 -0.696975 -1.26009 0
M  V30 4404 H 408.955 0.415531 -4.19346 0
M  V30 4405 H 407.679 1.01424 -3.10452 0
M  V30 4406 H 406.338 -1.08069 -3.50309 0
M  V30 4407 H 405.986 0.933989 -4.94253 0
M  V30 4408 H 405.686 -0.570437 -5.84825 0
M  V30 4409 H 407.21 0.328147 -6.09718 0
M  V30 4410 H 408.624 -1.84272 -5.42878 0
M  V30 4411 H 407.021 -2.63307 -5.39249 0
M  V30 4412 H 408.091 -2.76284 -3.98491 0
M  V30 4413 N 409.434 1.37368 -0.772513 0
M  V30 4414 C 410.682 1.99279 -0.336516 0
M  V30 4415 C 411.003 1.6163 1.09091 0
M  V30 4416 O 410.273 0.882109 1.74916 0
M  V30 4417 H 408.853 0.737063 -0.121435 0
M  V30 4418 H 411.515 1.67836 -0.990809 0
M  V30 4419 H 410.611 3.09332 -0.414763 0
M  V30 4420 N 410.912 0.523116 1.48665 0
M  V30 4421 C 411.875 -0.232592 2.28017 0
M  V30 4422 C 412.875 -0.874021 1.34972 0
M  V30 4423 O 414.065 -0.735132 1.57929 0
M  V30 4424 C 411.197 -1.33586 3.13636 0
M  V30 4425 H 412.39 0.464008 2.96289 0
M  V30 4426 H 409.943 0.278816 1.53793 0
M  V30 4427 H 410.678 -2.06593 2.4998 0
M  V30 4428 H 410.463 -0.881125 3.82071 0
M  V30 4429 H 411.953 -1.86759 3.73511 0
M  V30 4430 N 412.39 -1.55475 0.257931 0
M  V30 4431 C 413.636 -2.00237 -0.357338 0
M  V30 4432 C 413.991 -1.14313 -1.54759 0
M  V30 4433 O 413.284 -0.201187 -1.90541 0
M  V30 4434 C 413.478 -3.48183 -0.806433 0
M  V30 4435 C 413.307 -4.48422 0.338758 0
M  V30 4436 C 412.077 -4.98651 0.817011 0
M  V30 4437 C 414.275 -5.00827 1.16949 0
M  V30 4438 N 412.257 -5.82658 1.93346 0
M  V30 4439 C 413.628 -5.82113 2.13413 0
M  V30 4440 C 415.683 -4.83104 1.2048 0
M  V30 4441 C 414.386 -6.47566 3.13131 0
M  V30 4442 C 416.412 -5.49343 2.19034 0
M  V30 4443 C 415.774 -6.30427 3.14232 0
M  V30 4444 H 411.873 -0.776034 -0.0964083 0
M  V30 4445 H 414.457 -1.90995 0.37803 0
M  V30 4446 H 412.628 -3.57801 -1.51107 0
M  V30 4447 H 414.36 -3.79802 -1.39758 0
M  V30 4448 H 411.115 -4.71914 0.39925 0
M  V30 4449 H 411.539 -6.29356 2.49478 0
M  V30 4450 H 416.181 -4.20036 0.482634 0
M  V30 4451 H 413.899 -7.09793 3.8629 0
M  V30 4452 H 417.485 -5.37579 2.22485 0
M  V30 4453 H 416.365 -6.80777 3.89246 0
M  V30 4454 N 413.868 0.0150385 -1.57593 0
M  V30 4455 C 415.114 0.704043 -1.90187 0
M  V30 4456 C 415.447 1.74249 -0.857366 0
M  V30 4457 O 414.722 1.94092 0.125843 0
M  V30 4458 C 415.005 1.36087 -3.33395 0
M  V30 4459 C 414.858 0.334981 -4.48551 0
M  V30 4460 C 416.177 2.29112 -3.7576 0
M  V30 4461 H 413.296 0.254475 -0.691673 0
M  V30 4462 H 415.938 -0.0331678 -1.89971 0
M  V30 4463 H 414.088 1.98922 -3.3371 0
M  V30 4464 H 415.76 -0.292534 -4.60372 0
M  V30 4465 H 414.003 -0.344325 -4.32431 0
M  V30 4466 H 414.674 0.833316 -5.45674 0
M  V30 4467 H 417.15 1.76308 -3.76902 0
M  V30 4468 H 416.026 2.72043 -4.76743 0
M  V30 4469 H 416.287 3.16385 -3.08793 0
M  V30 4470 N 415.346 1.54954 0.287554 0
M  V30 4471 C 416.586 1.76617 1.02887 0
M  V30 4472 C 416.95 0.547759 1.84021 0
M  V30 4473 O 418.151 0.642365 2.61012 0
M  V30 4474 C 416.422 3.02717 1.89993 0
M  V30 4475 S 417.981 3.45438 2.70588 0
M  V30 4476 H 414.799 0.6207 0.346775 0
M  V30 4477 H 417.401 1.93172 0.30082 0
M  V30 4478 H 416.105 3.89503 1.29287 0
M  V30 4479 H 415.636 2.88787 2.67144 0
M  V30 4480 H 417.651 3.03566 3.92508 0
M  V30 4481 N 416.824 -0.551391 1.4764 0
M  V30 4482 C 418.101 -1.31229 1.45046 0
M  V30 4483 C 418.481 -2.10563 0.150527 0
M  V30 4484 O 417.829 -2.11374 -0.867956 0
M  V30 4485 C 418.039 -2.21189 2.69956 0
M  V30 4486 C 419.387 -2.82021 3.1741 0
M  V30 4487 O 420.411 -2.31488 2.70724 0
M  V30 4488 O 419.27 -3.73885 3.98588 0
M  V30 4489 H 416.364 -0.591193 0.578291 0
M  V30 4490 H 418.91 -0.569813 1.59847 0
M  V30 4491 H 417.682 -1.62207 3.56096 0
M  V30 4492 H 417.305 -3.02722 2.57769 0
M  V30 4493 N 418.302 -1.35869 -0.798587 0
M  V30 4494 C 419.718 -1.16082 -1.09532 0
M  V30 4495 C 419.918 0.0213124 -2.01489 0
M  V30 4496 O 418.974 0.689488 -2.42904 0
M  V30 4497 C 420.287 -2.46748 -1.7186 0
M  V30 4498 C 421.835 -2.53028 -1.84244 0
M  V30 4499 C 422.31 -3.83758 -2.49988 0
M  V30 4500 N 423.801 -3.85053 -2.57465 0
M  V30 4501 C 424.536 -4.8294 -3.09122 0
M  V30 4502 N 424.032 -5.91217 -3.61157 0
M  V30 4503 N 425.825 -4.70369 -3.0775 0
M  V30 4504 H 417.976 -2.11571 -0.187461 0
M  V30 4505 H 420.239 -0.936726 -0.145765 0
M  V30 4506 H 419.945 -3.33471 -1.11759 0
M  V30 4507 H 419.819 -2.61883 -2.71472 0
M  V30 4508 H 422.206 -1.66729 -2.43486 0
M  V30 4509 H 422.287 -2.418 -0.834643 0
M  V30 4510 H 421.931 -4.70459 -1.91393 0
M  V30 4511 H 421.861 -3.92278 -3.5132 0
M  V30 4512 H 424.352 -3.06822 -2.20609 0
M  V30 4513 H 424.665 -6.61892 -3.98896 0
M  V30 4514 H 423.01 -5.94899 -3.59333 0
M  V30 4515 H 426.201 -3.84914 -2.66381 0
M  V30 4516 H 426.374 -5.46816 -3.47701 0
M  V30 4517 N 419.78 1.02168 -1.19998 0
M  V30 4518 C 420.71 2.12488 -0.96804 0
M  V30 4519 C 421.691 1.69799 0.101185 0
M  V30 4520 O 422.876 1.94121 -0.0552993 0
M  V30 4521 C 420.006 3.43479 -0.513776 0
M  V30 4522 C 418.96 3.99884 -1.52566 0
M  V30 4523 C 418.286 5.26582 -0.928214 0
M  V30 4524 C 419.586 4.33861 -2.90795 0
M  V30 4525 H 421.28 2.32149 -1.89069 0
M  V30 4526 H 418.826 1.11564 -0.910468 0
M  V30 4527 H 420.779 4.20036 -0.338774 0
M  V30 4528 H 419.503 3.23561 0.444493 0
M  V30 4529 H 418.162 3.25429 -1.68794 0
M  V30 4530 H 417.81 5.02986 0.0378289 0
M  V30 4531 H 417.51 5.65284 -1.60397 0
M  V30 4532 H 419.034 6.05799 -0.764167 0
M  V30 4533 H 420.448 5.01327 -2.78109 0
M  V30 4534 H 418.845 4.83664 -3.55231 0
M  V30 4535 H 419.915 3.42848 -3.42904 0
M  V30 4536 N 421.258 1.00505 1.21394 0
M  V30 4537 C 422.221 0.570459 2.21987 0
M  V30 4538 C 423.221 -0.353211 1.56873 0
M  V30 4539 O 424.411 -0.14349 1.73608 0
M  V30 4540 C 421.543 -0.168555 3.40483 0
M  V30 4541 H 422.736 1.46021 2.6195 0
M  V30 4542 H 420.289 0.793565 1.34656 0
M  V30 4543 H 421.024 -1.07374 3.06009 0
M  V30 4544 H 420.809 0.494823 3.88965 0
M  V30 4545 H 422.299 -0.460362 4.15055 0
M  V30 4546 N 422.737 -1.36956 0.779787 0
M  V30 4547 C 423.965 -2.03755 0.359398 0
M  V30 4548 C 424.38 -1.58807 -1.02106 0
M  V30 4549 O 423.737 -0.773024 -1.6532 0
M  V30 4550 C 423.788 -3.59251 0.402568 0
M  V30 4551 O 423.509 -4.02557 1.72858 0
M  V30 4552 C 425.01 -4.43291 -0.0284068 0
M  V30 4553 H 422.23 -0.654148 0.149437 0
M  V30 4554 H 424.774 -1.75128 1.05595 0
M  V30 4555 H 422.929 -3.86621 -0.245478 0
M  V30 4556 H 423.343 -4.97111 1.67275 0
M  V30 4557 H 424.817 -5.51975 0.0529466 0
M  V30 4558 H 425.294 -4.25719 -1.07982 0
M  V30 4559 H 425.9 -4.21163 0.591758 0
M  V30 4560 N 424.215 -0.530993 -1.48385 0
M  V30 4561 C 425.455 0.000718982 -2.044 0
M  V30 4562 C 425.819 1.31485 -1.39913 0
M  V30 4563 O 427.02 1.93265 -1.86821 0
M  V30 4564 C 425.291 0.119177 -3.57201 0
M  V30 4565 S 426.85 0.600806 -4.34667 0
M  V30 4566 H 423.668 -0.0125473 -0.710889 0
M  V30 4567 H 426.27 -0.711783 -1.82082 0
M  V30 4568 H 424.974 -0.842061 -4.01668 0
M  V30 4569 H 424.505 0.856026 -3.83974 0
M  V30 4570 H 426.52 1.86514 -4.59812 0
M  V30 4571 N 425.693 1.55336 -0.266172 0
M  V30 4572 C 426.921 2.03801 0.356756 0
M  V30 4573 C 427.336 1.14485 1.50129 0
M  V30 4574 O 426.693 0.163121 1.8177 0
M  V30 4575 C 426.744 3.51455 0.846281 0
M  V30 4576 O 426.465 4.37371 -0.252663 0
M  V30 4577 C 427.966 4.15767 1.53794 0
M  V30 4578 H 425.186 0.665906 0.0825218 0
M  V30 4579 H 427.73 2.00636 -0.39566 0
M  V30 4580 H 425.885 3.55092 1.54881 0
M  V30 4581 H 426.299 5.24358 0.122173 0
M  V30 4582 H 427.773 5.20714 1.83198 0
M  V30 4583 H 428.25 3.63404 2.46646 0
M  V30 4584 H 428.856 4.16107 0.879488 0
M  V30 4585 N 427.171 -0.0066808 1.57599 0
M  V30 4586 C 428.582 -0.550379 1.78403 0
M  V30 4587 C 428.933 -1.74339 0.900014 0
M  V30 4588 O 428.058 -2.16166 0.100713 0
M  V30 4589 C 428.653 -1.00523 3.23544 0
M  V30 4590 C 427.212 -1.49428 3.45468 0
M  V30 4591 C 426.359 -0.442444 2.73748 0
M  V30 4592 H 429.31 0.219508 1.57175 0
M  V30 4593 H 429.331 -1.87157 3.31289 0
M  V30 4594 H 428.843 -0.136735 3.87859 0
M  V30 4595 H 426.944 -2.3839 2.86358 0
M  V30 4596 H 427.057 -1.52635 4.54136 0
M  V30 4597 H 425.421 -0.902578 2.38171 0
M  V30 4598 H 426.204 0.416973 3.40758 0
M  V30 4599 N 428.649 -1.55105 -0.279332 0
M  V30 4600 C 430.06 -1.66186 -0.850832 0
M  V30 4601 C 430.411 -0.584707 -1.87285 0
M  V30 4602 O 429.536 0.274919 -2.14647 0
M  V30 4603 C 430.131 -3.01264 -1.55001 0
M  V30 4604 C 428.69 -3.14394 -2.06963 0
M  V30 4605 C 427.837 -2.61959 -0.909536 0
M  V30 4606 H 430.788 -1.58602 -0.0558235 0
M  V30 4607 H 430.809 -2.93899 -2.41669 0
M  V30 4608 H 430.321 -3.7964 -0.805931 0
M  V30 4609 H 428.422 -2.4078 -2.84352 0
M  V30 4610 H 428.535 -4.20867 -2.28928 0
M  V30 4611 H 426.899 -2.18957 -1.30116 0
M  V30 4612 H 427.682 -3.42833 -0.179062 0
M  V30 4613 N 430.127 0.543554 -1.4793 0
M  V30 4614 C 431.09 1.63156 -1.60975 0
M  V30 4615 C 432.09 1.53346 -0.483899 0
M  V30 4616 O 433.28 1.5726 -0.749339 0
M  V30 4617 C 430.412 3.02743 -1.56716 0
M  V30 4618 H 431.605 1.52934 -2.57975 0
M  V30 4619 H 429.158 0.764557 -1.36324 0
M  V30 4620 H 429.893 3.18484 -0.611418 0
M  V30 4621 H 429.678 3.11272 -2.38438 0
M  V30 4622 H 431.168 3.81871 -1.6901 0
M  V30 4623 N 431.605 1.3629 0.791371 0
M  V30 4624 C 432.83 1.33726 1.58531 0
M  V30 4625 C 433.255 -0.0794933 1.87932 0
M  V30 4626 O 432.613 -1.05087 1.47738 0
M  V30 4627 C 432.661 2.16425 2.88431 0
M  V30 4628 O 431.765 1.5554 3.81944 0
M  V30 4629 H 431.106 0.457793 0.480959 0
M  V30 4630 H 433.636 1.79547 0.981031 0
M  V30 4631 H 433.646 2.28933 3.37718 0
M  V30 4632 H 432.321 3.19415 2.66359 0
M  V30 4633 H 430.898 1.51961 3.40532 0
M  V30 4634 N 433.083 -1.0153 1.20538 0
M  V30 4635 C 433.993 -2.13557 0.971113 0
M  V30 4636 C 435.009 -1.73845 -0.0734366 0
M  V30 4637 O 436.185 -2.01075 0.114299 0
M  V30 4638 C 433.25 -3.42661 0.527639 0
M  V30 4639 C 432.311 -3.96608 1.64319 0
M  V30 4640 C 431.544 -5.1955 1.22078 0
M  V30 4641 O 431.767 -5.70329 0.0900198 0
M  V30 4642 O 430.701 -5.66681 2.02871 0
M  V30 4643 H 434.527 -2.3619 1.90913 0
M  V30 4644 H 432.112 -1.11946 0.989362 0
M  V30 4645 H 433.994 -4.20404 0.289621 0
M  V30 4646 H 432.669 -3.21441 -0.381779 0
M  V30 4647 H 431.576 -3.20139 1.93551 0
M  V30 4648 H 432.909 -4.22219 2.52966 0
M  V30 4649 N 434.561 -1.01147 -1.20859 0
M  V30 4650 C 435.809 -0.696486 -1.89719 0
M  V30 4651 C 436.13 0.775788 -1.78904 0
M  V30 4652 O 435.4 1.55759 -1.18811 0
M  V30 4653 H 433.98 -0.254628 -0.702263 0
M  V30 4654 H 436.642 -1.28197 -1.46804 0
M  V30 4655 H 435.738 -0.975357 -2.96468 0
M  V30 4656 N 436.039 1.36541 -0.78704 0
M  V30 4657 C 437.264 2.0409 -0.369053 0
M  V30 4658 C 437.689 1.58957 1.00569 0
M  V30 4659 O 437.047 0.756926 1.64743 0
M  V30 4660 C 437.095 3.57924 -0.438466 0
M  V30 4661 O 436.199 4.08642 0.555479 0
M  V30 4662 H 435.54 0.645142 -0.157122 0
M  V30 4663 H 438.07 1.74545 -1.06749 0
M  V30 4664 H 438.08 4.06887 -0.301218 0
M  V30 4665 H 436.755 3.90127 -1.44132 0
M  V30 4666 H 435.332 3.70958 0.380088 0
M  V30 4667 N 437.518 0.538854 1.48102 0
M  V30 4668 C 438.481 -0.208395 2.28251 0
M  V30 4669 C 439.481 -0.859656 1.35892 0
M  V30 4670 O 440.671 -0.71834 1.58699 0
M  V30 4671 C 437.803 -1.30252 3.15035 0
M  V30 4672 H 438.996 0.495407 2.9578 0
M  V30 4673 H 436.549 0.295112 1.53489 0
M  V30 4674 H 437.284 -2.0393 2.52157 0
M  V30 4675 H 437.069 -0.840551 3.82985 0
M  V30 4676 H 438.559 -1.82787 3.75471 0
M  V30 4677 N 438.996 -1.55193 0.274407 0
M  V30 4678 C 439.906 -2.26164 -0.623473 0
M  V30 4679 C 440.922 -1.28729 -1.17068 0
M  V30 4680 O 442.098 -1.61663 -1.20112 0
M  V30 4681 C 439.163 -2.96833 -1.7914 0
M  V30 4682 C 438.224 -4.09745 -1.28093 0
M  V30 4683 C 437.457 -4.77034 -2.3932 0
M  V30 4684 O 437.68 -4.4353 -3.5866 0
M  V30 4685 O 436.614 -5.64996 -2.07516 0
M  V30 4686 H 440.44 -3.03661 -0.0485661 0
M  V30 4687 H 438.025 -1.49341 0.0418382 0
M  V30 4688 H 439.907 -3.41248 -2.4724 0
M  V30 4689 H 438.582 -2.22253 -2.35341 0
M  V30 4690 H 437.489 -3.69787 -0.566416 0
M  V30 4691 H 438.822 -4.86224 -0.764683 0
M  V30 4692 N 440.474 -0.00167713 -1.576 0
M  V30 4693 C 441.699 0.69739 -1.95323 0
M  V30 4694 C 442.124 1.6642 -0.876706 0
M  V30 4695 O 441.482 1.80548 0.165007 0
M  V30 4696 C 441.53 1.40403 -3.32144 0
M  V30 4697 O 440.634 2.5185 -3.26566 0
M  V30 4698 H 439.975 0.185373 -0.637599 0
M  V30 4699 H 442.505 -0.0553665 -2.04525 0
M  V30 4700 H 442.515 1.76707 -3.67748 0
M  V30 4701 H 441.19 0.695167 -4.10049 0
M  V30 4702 H 439.767 2.17861 -3.0264 0
M  V30 4703 N 441.952 1.55251 0.271103 0
M  V30 4704 C 442.885 1.83191 1.36075 0
M  V30 4705 C 443.863 0.685091 1.47463 0
M  V30 4706 O 445.047 0.928292 1.64058 0
M  V30 4707 C 442.174 1.99521 2.73696 0
M  V30 4708 C 441.22 3.22081 2.79582 0
M  V30 4709 S 442.053 4.79388 2.38636 0
M  V30 4710 C 443.209 4.98693 3.78228 0
M  V30 4711 H 443.442 2.75327 1.12171 0
M  V30 4712 H 440.975 1.47046 0.470833 0
M  V30 4713 H 442.933 2.09613 3.52948 0
M  V30 4714 H 441.594 1.0827 2.9485 0
M  V30 4715 H 440.787 3.304 3.80594 0
M  V30 4716 H 440.389 3.10589 2.08352 0
M  V30 4717 H 442.681 4.84551 4.73515 0
M  V30 4718 H 443.624 6.00738 3.7486 0
M  V30 4719 H 444.032 4.26665 3.69618 0
M  V30 4720 N 443.43 -0.535701 1.48216 0
M  V30 4721 C 444.678 -1.28928 1.55634 0
M  V30 4722 C 444.999 -1.93645 0.229514 0
M  V30 4723 O 444.269 -1.81038 -0.74846 0
M  V30 4724 H 442.849 -0.47884 0.573342 0
M  V30 4725 H 445.511 -0.623853 1.84646 0
M  V30 4726 H 444.607 -2.07157 2.33436 0
M  V30 4727 N 444.908 -1.36708 -0.784132 0
M  V30 4728 C 446.319 -1.27947 -1.35965 0
M  V30 4729 C 446.67 0.0784013 -1.96043 0
M  V30 4730 O 445.795 0.979989 -1.92938 0
M  V30 4731 C 446.39 -2.31689 -2.47195 0
M  V30 4732 C 444.949 -2.26601 -3.00548 0
M  V30 4733 C 444.096 -2.16184 -1.73666 0
M  V30 4734 H 447.047 -1.4751 -0.585358 0
M  V30 4735 H 447.068 -1.95638 -3.26352 0
M  V30 4736 H 446.58 -3.30506 -2.03439 0
M  V30 4737 H 444.681 -1.31268 -3.48711 0
M  V30 4738 H 444.794 -3.19508 -3.57004 0
M  V30 4739 H 443.158 -1.62524 -1.96107 0
M  V30 4740 H 443.941 -3.16896 -1.32031 0
M  V30 4741 N 446.386 1.0089 -1.21074 0
M  V30 4742 C 447.663 1.71834 -0.934469 0
M  V30 4743 C 448.043 2.0368 0.554753 0
M  V30 4744 O 447.391 1.70742 1.51854 0
M  V30 4745 C 447.601 2.98061 -1.8155 0
M  V30 4746 C 448.949 3.7117 -2.06199 0
M  V30 4747 O 449.973 3.08034 -1.78867 0
M  V30 4748 O 448.832 4.84721 -2.52404 0
M  V30 4749 H 445.926 0.749253 -0.35007 0
M  V30 4750 H 448.472 1.06668 -1.31985 0
M  V30 4751 H 447.244 2.70908 -2.82355 0
M  V30 4752 H 446.867 3.70968 -1.43068 0
M  V30 4753 N 447.864 1.01787 1.20321 0
M  V30 4754 C 449.089 0.727009 1.9424 0
M  V30 4755 C 449.514 -0.706179 1.74341 0
M  V30 4756 O 448.872 -1.48609 1.03852 0
M  V30 4757 C 448.92 1.06958 3.44372 0
M  V30 4758 O 448.024 0.181983 4.11998 0
M  V30 4759 H 447.365 0.269626 0.606793 0
M  V30 4760 H 449.895 1.36158 1.52716 0
M  V30 4761 H 449.905 1.02182 3.94997 0
M  V30 4762 H 448.58 2.11378 3.58179 0
M  V30 4763 H 447.157 0.287378 3.71791 0
M  V30 4764 N 449.342 -1.36122 0.79427 0
M  V30 4765 C 450.758 -1.5232 0.476525 0
M  V30 4766 C 450.958 -1.74685 -1.00436 0
M  V30 4767 O 450.014 -1.78115 -1.78973 0
M  V30 4768 C 451.327 -2.70607 1.31119 0
M  V30 4769 C 452.875 -2.8448 1.30537 0
M  V30 4770 C 453.35 -4.05778 2.12387 0
M  V30 4771 N 454.841 -4.12933 2.09859 0
M  V30 4772 C 455.576 -5.05876 2.69957 0
M  V30 4773 N 455.072 -6.04232 3.38934 0
M  V30 4774 N 456.865 -4.98528 2.59665 0
M  V30 4775 H 449.016 -1.1986 1.75349 0
M  V30 4776 H 451.279 -0.585418 0.745647 0
M  V30 4777 H 450.985 -2.60619 2.36158 0
M  V30 4778 H 450.859 -3.64888 0.955843 0
M  V30 4779 H 453.246 -2.93927 0.262876 0
M  V30 4780 H 453.327 -1.91093 1.70051 0
M  V30 4781 H 452.971 -3.97092 3.1667 0
M  V30 4782 H 452.901 -4.98323 1.70242 0
M  V30 4783 H 455.392 -3.42515 1.59662 0
M  V30 4784 H 455.705 -6.71724 3.82109 0
M  V30 4785 H 454.05 -6.04443 3.43036 0
M  V30 4786 H 457.241 -4.20641 2.05375 0
M  V30 4787 H 457.414 -5.70773 3.06793 0
M  V30 4788 N 450.82 -0.546701 -1.47814 0
M  V30 4789 C 452.231 -0.110564 -1.86372 0
M  V30 4790 C 452.582 1.31678 -1.45449 0
M  V30 4791 O 451.707 1.98889 -0.852758 0
M  V30 4792 C 452.302 -0.193873 -3.38245 0
M  V30 4793 C 450.861 0.187164 -3.75934 0
M  V30 4794 C 450.008 -0.546166 -2.71868 0
M  V30 4795 H 452.959 -0.757022 -1.39481 0
M  V30 4796 H 452.98 0.590218 -3.75895 0
M  V30 4797 H 452.492 -1.23282 -3.67999 0
M  V30 4798 H 450.593 1.22762 -3.51796 0
M  V30 4799 H 450.706 -0.164083 -4.78819 0
M  V30 4800 H 449.07 0.00953904 -2.54698 0
M  V30 4801 H 449.853 -1.58606 -3.04465 0
M  V30 4802 N 452.299 1.55045 -0.282633 0
M  V30 4803 C 453.576 1.9179 0.384166 0
M  V30 4804 C 453.956 1.20778 1.73136 0
M  V30 4805 O 453.304 0.33719 2.25998 0
M  V30 4806 C 453.514 3.45149 0.517014 0
M  V30 4807 C 454.862 4.17064 0.796427 0
M  V30 4808 O 455.886 3.51084 0.601535 0
M  V30 4809 O 454.745 5.33837 1.16962 0
M  V30 4810 H 451.839 0.799483 0.211558 0
M  V30 4811 H 454.385 1.66474 -0.32934 0
M  V30 4812 H 453.157 3.88922 -0.430772 0
M  V30 4813 H 452.78 3.76443 1.2797 0
M  V30 4814 N 453.777 0.010035 1.57597 0
M  V30 4815 C 455.188 -0.531426 1.78977 0
M  V30 4816 C 455.539 -1.73375 0.918454 0
M  V30 4817 O 454.664 -2.16047 0.123635 0
M  V30 4818 C 455.259 -0.97086 3.24592 0
M  V30 4819 C 453.818 -1.45756 3.47033 0
M  V30 4820 C 452.965 -0.413384 2.74201 0
M  V30 4821 H 455.916 0.236166 1.56933 0
M  V30 4822 H 455.937 -1.83633 3.33255 0
M  V30 4823 H 455.449 -0.0955893 3.87982 0
M  V30 4824 H 453.55 -2.35339 2.88871 0
M  V30 4825 H 453.663 -1.4781 4.55729 0
M  V30 4826 H 452.027 -0.877266 2.39115 0
M  V30 4827 H 452.81 0.453092 3.40297 0
M  V30 4828 N 455.255 -1.55392 -0.262866 0
M  V30 4829 C 456.532 -1.67204 -1.01499 0
M  V30 4830 C 456.912 -0.545186 -2.03939 0
M  V30 4831 O 456.26 0.453467 -2.23955 0
M  V30 4832 C 456.47 -3.06847 -1.6627 0
M  V30 4833 C 457.818 -3.64928 -2.17054 0
M  V30 4834 O 458.842 -3.09545 -1.76239 0
M  V30 4835 O 457.701 -4.61984 -2.91947 0
M  V30 4836 H 454.795 -0.679467 -0.471438 0
M  V30 4837 H 457.341 -1.67729 -0.257918 0
M  V30 4838 H 456.113 -3.80309 -0.920915 0
M  V30 4839 H 455.736 -3.10266 -2.48638 0
M  V30 4840 N 456.733 0.527833 -1.48498 0
M  V30 4841 C 457.981 1.28101 -1.56316 0
M  V30 4842 C 458.302 1.9352 -0.239781 0
M  V30 4843 O 457.572 1.81433 0.738849 0
M  V30 4844 H 456.152 0.475793 -0.575873 0
M  V30 4845 H 458.814 0.614052 -1.84974 0
M  V30 4846 H 457.91 2.05916 -2.34532 0
M  V30 4847 N 458.211 1.37122 0.776871 0
M  V30 4848 C 459.627 1.1781 1.07671 0
M  V30 4849 C 459.827 0.0107454 2.01497 0
M  V30 4850 O 458.883 -0.650756 2.4397 0
M  V30 4851 C 460.196 2.49451 1.67913 0
M  V30 4852 C 461.744 2.55927 1.80195 0
M  V30 4853 C 462.219 3.87686 2.43851 0
M  V30 4854 N 463.71 3.891 2.51307 0
M  V30 4855 C 464.445 4.87797 3.014 0
M  V30 4856 N 463.941 5.96888 3.51705 0
M  V30 4857 N 465.734 4.75205 3.00227 0
M  V30 4858 H 457.885 2.11843 0.153778 0
M  V30 4859 H 460.148 0.938927 0.130844 0
M  V30 4860 H 459.854 3.35207 1.06439 0
M  V30 4861 H 459.728 2.66169 2.67271 0
M  V30 4862 H 462.115 1.70582 2.40803 0
M  V30 4863 H 462.196 2.43097 0.796069 0
M  V30 4864 H 461.84 4.73444 1.83884 0
M  V30 4865 H 461.77 3.97817 3.45035 0
M  V30 4866 H 464.261 3.10293 2.157 0
M  V30 4867 H 464.574 6.68155 3.88316 0
M  V30 4868 H 462.919 6.0054 3.49824 0
M  V30 4869 H 466.11 3.89103 2.60224 0
M  V30 4870 H 466.283 5.52279 3.38957 0
M  V30 4871 N 459.689 -1.00246 1.21608 0
M  V30 4872 C 460.619 -2.10921 1.00172 0
M  V30 4873 C 461.6 -1.69938 -0.0741587 0
M  V30 4874 O 462.785 -1.94009 0.0861753 0
M  V30 4875 C 459.915 -3.42618 0.568355 0
M  V30 4876 C 458.869 -3.97407 1.58909 0
M  V30 4877 C 458.195 -5.25038 1.01187 0
M  V30 4878 C 459.495 -4.2918 2.97661 0
M  V30 4879 H 461.189 -2.29112 1.92739 0
M  V30 4880 H 458.735 -1.10101 0.928102 0
M  V30 4881 H 460.688 -4.19444 0.405555 0
M  V30 4882 H 459.412 -3.24227 -0.392961 0
M  V30 4883 H 458.071 -3.22703 1.73949 0
M  V30 4884 H 457.719 -5.02982 0.0421965 0
M  V30 4885 H 457.419 -5.62661 1.6937 0
M  V30 4886 H 458.943 -6.04507 0.860448 0
M  V30 4887 H 460.357 -4.96839 2.86049 0
M  V30 4888 H 458.754 -4.77952 3.6288 0
M  V30 4889 H 459.824 -3.3735 3.48315 0
M  V30 4890 N 461.167 -1.02423 -1.1978 0
M  V30 4891 C 462.578 -0.748389 -1.71044 0
M  V30 4892 C 462.929 0.732398 -1.82017 0
M  V30 4893 O 462.054 1.57116 -1.48807 0
M  V30 4894 C 462.649 -1.35187 -3.1066 0
M  V30 4895 C 461.208 -1.12472 -3.59203 0
M  V30 4896 C 460.355 -1.45283 -2.36195 0
M  V30 4897 H 463.306 -1.19275 -1.04686 0
M  V30 4898 H 463.327 -0.746408 -3.73107 0
M  V30 4899 H 462.839 -2.4296 -3.02642 0
M  V30 4900 H 460.94 -0.0649983 -3.72543 0
M  V30 4901 H 461.053 -1.81016 -4.43588 0
M  V30 4902 H 459.417 -0.872034 -2.39307 0
M  V30 4903 H 460.2 -2.54129 -2.30811 0
M  V30 4904 N 462.645 1.35699 -0.801477 0
M  V30 4905 C 463.873 2.03157 -0.391768 0
M  V30 4906 C 464.288 1.60412 0.995668 0
M  V30 4907 O 463.645 0.799228 1.64069 0
M  V30 4908 C 463.696 3.58566 -0.459671 0
M  V30 4909 O 463.417 3.99756 -1.7924 0
M  V30 4910 C 464.918 4.4328 -0.0421205 0
M  V30 4911 H 462.138 0.651688 -0.159825 0
M  V30 4912 H 464.682 1.73426 -1.08368 0
M  V30 4913 H 462.837 3.86963 0.183939 0
M  V30 4914 H 463.251 4.94387 -1.75162 0
M  V30 4915 H 464.725 5.51821 -0.140754 0
M  V30 4916 H 465.202 4.27383 1.01196 0
M  V30 4917 H 465.808 4.20168 -0.658687 0
M  V30 4918 N 464.123 0.554532 1.47522 0
M  V30 4919 C 465.534 0.120446 1.86311 0
M  V30 4920 C 465.885 -1.30904 1.46145 0
M  V30 4921 O 465.01 -1.98434 0.863294 0
M  V30 4922 C 465.605 0.211808 3.38137 0
M  V30 4923 C 464.164 -0.167224 3.76028 0
M  V30 4924 C 463.311 0.560576 2.71575 0
M  V30 4925 H 466.262 0.764408 1.39077 0
M  V30 4926 H 466.283 -0.570275 3.76202 0
M  V30 4927 H 465.795 1.25232 3.6734 0
M  V30 4928 H 463.896 -1.20894 3.52442 0
M  V30 4929 H 464.009 0.189473 4.78725 0
M  V30 4930 H 462.373 0.00396836 2.547 0
M  V30 4931 H 463.156 1.60219 3.0362 0
M  V30 4932 N 465.601 -1.54893 0.290851 0
M  V30 4933 C 466.826 -2.04804 -0.32712 0
M  V30 4934 C 467.251 -1.16721 -1.47506 0
M  V30 4935 O 466.609 -0.169107 -1.8051 0
M  V30 4936 C 466.657 -3.52268 -0.770689 0
M  V30 4937 O 465.761 -3.67236 -1.87647 0
M  V30 4938 H 465.102 -0.660789 -0.0652227 0
M  V30 4939 H 467.632 -2.00036 0.429739 0
M  V30 4940 H 467.642 -3.9393 -1.06223 0
M  V30 4941 H 466.317 -4.15843 0.069096 0
M  V30 4942 H 464.894 -3.37479 -1.58626 0
M  V30 4943 N 467.08 -0.0183926 -1.57589 0
M  V30 4944 C 468.043 0.951986 -2.08494 0
M  V30 4945 C 469.043 1.26092 -0.997874 0
M  V30 4946 O 470.233 1.20304 -1.25987 0
M  V30 4947 C 467.365 2.27165 -2.54182 0
M  V30 4948 H 468.558 0.511307 -2.95509 0
M  V30 4949 H 466.111 0.229444 -1.54607 0
M  V30 4950 H 466.846 2.75884 -1.70465 0
M  V30 4951 H 466.631 2.06057 -3.33591 0
M  V30 4952 H 468.121 2.9674 -2.93828 0
M  V30 4953 N 468.558 1.5553 0.254621 0
M  V30 4954 C 469.969 1.67518 0.824286 0
M  V30 4955 C 470.32 0.614429 1.86331 0
M  V30 4956 O 469.445 -0.240736 2.15057 0
M  V30 4957 C 470.04 3.03692 1.50189 0
M  V30 4958 C 468.599 3.17646 2.01935 0
M  V30 4959 C 467.746 2.63373 0.867746 0
M  V30 4960 H 470.697 1.58671 0.0305843 0
M  V30 4961 H 470.718 2.97706 2.36962 0
M  V30 4962 H 470.23 3.80874 0.745431 0
M  V30 4963 H 468.331 2.45273 2.80485 0
M  V30 4964 H 468.444 4.24455 2.22204 0
M  V30 4965 H 466.808 2.20999 1.26616 0
M  V30 4966 H 467.591 3.43074 0.124498 0
M  V30 4967 N 470.036 -0.519951 1.48776 0
M  V30 4968 C 470.966 -1.63253 1.66945 0
M  V30 4969 C 471.947 -1.62014 0.518224 0
M  V30 4970 O 473.132 -1.79053 0.751919 0
M  V30 4971 C 470.262 -3.0181 1.71836 0
M  V30 4972 C 469.216 -3.17911 2.8656 0
M  V30 4973 C 468.542 -4.5763 2.76548 0
M  V30 4974 C 469.842 -2.99729 4.27738 0
M  V30 4975 H 471.536 -1.48302 2.6009 0
M  V30 4976 H 469.082 -0.712026 1.25165 0
M  V30 4977 H 471.035 -3.79525 1.83135 0
M  V30 4978 H 469.759 -3.17806 0.752775 0
M  V30 4979 H 468.418 -2.42616 2.74833 0
M  V30 4980 H 468.066 -4.70476 1.77937 0
M  V30 4981 H 467.766 -4.69346 3.53536 0
M  V30 4982 H 469.29 -5.37431 2.89828 0
M  V30 4983 H 470.704 -3.67228 4.40246 0
M  V30 4984 H 469.101 -3.22932 5.05801 0
M  V30 4985 H 470.171 -1.96047 4.43502 0
M  V30 4986 N 471.514 -1.37532 -0.769588 0
M  V30 4987 C 472.464 -1.29984 -1.87318 0
M  V30 4988 C 473.448 -0.187242 -1.59807 0
M  V30 4989 O 474.64 -0.421827 -1.719 0
M  V30 4990 C 471.769 -1.11126 -3.24817 0
M  V30 4991 C 470.855 -2.26939 -3.58273 0
M  V30 4992 N 471.246 -3.52336 -3.62895 0
M  V30 4993 C 469.544 -2.19141 -3.8845 0
M  V30 4994 C 470.245 -4.28719 -3.9316 0
M  V30 4995 N 469.221 -3.57884 -4.0917 0
M  V30 4996 H 473.023 -2.24946 -1.89147 0
M  V30 4997 H 470.537 -1.30535 -0.966143 0
M  V30 4998 H 472.534 -1.03803 -4.0377 0
M  V30 4999 H 471.194 -0.17083 -3.2425 0
M  V30 5000 H 472.205 -3.86216 -3.45048 0
M  V30 5001 H 468.882 -1.33167 -3.95693 0
M  V30 5002 H 470.272 -5.37254 -4.03494 0
M  V30 5003 N 472.992 0.995999 -1.22138 0
M  V30 5004 C 474.217 1.77601 -1.0711 0
M  V30 5005 C 474.642 1.84339 0.374264 0
M  V30 5006 O 474 1.29359 1.27028 0
M  V30 5007 C 474.048 3.18897 -1.68336 0
M  V30 5008 O 473.152 4.01663 -0.934928 0
M  V30 5009 H 472.493 0.547011 -0.376397 0
M  V30 5010 H 475.023 1.25137 -1.6187 0
M  V30 5011 H 475.033 3.69539 -1.72931 0
M  V30 5012 H 473.708 3.13308 -2.73516 0
M  V30 5013 H 472.285 3.60204 -0.964751 0
M  V30 5014 O 474.509 1.15683 1.12693 0
M  V30 5015 H 475.2 0.884984 1.72301 0
M  V30 END ATOM
M  V30 BEGIN BOND
M  V30 END BOND
M  V30 END CTAB
M  END
$$$$
